drugbank_target|A7J8L3 Orf1a polyprotein (DB08748)
 OpenBabel12092120533D

  0  0  0     0  0            999 V3000
M  V30 BEGIN CTAB
M  V30 COUNTS 68098 68818 0 0 0
M  V30 BEGIN ATOM
M  V30 1 H -0.908 1.98254 -0.117106 0
M  V30 2 N 0 1.576 0 0
M  V30 3 C 0.933 2.03868 1.02534 0
M  V30 4 C 1.911 0.928543 1.3348 0
M  V30 5 O 3.095 1.19667 1.45644 0
M  V30 6 C 0.222 2.43627 2.35294 0
M  V30 7 C -0.732 3.65373 2.2001 0
M  V30 8 S 0.101 5.13292 1.52614 0
M  V30 9 C 1.257 5.56322 2.86805 0
M  V30 10 H 1.49 2.90518 0.631377 0
M  V30 11 H -0.977 1.52953 0.210867 0
M  V30 12 H 0.981 2.67203 3.11629 0
M  V30 13 H -0.358 1.57376 2.7183 0
M  V30 14 H -1.165 3.90944 3.18086 0
M  V30 15 H -1.563 3.418 1.51819 0
M  V30 16 H 0.729 5.58782 3.83104 0
M  V30 17 H 1.672 6.56266 2.65933 0
M  V30 18 H 2.08 4.83886 2.90714 0
M  V30 19 N 1.4781 -0.272755 1.55222 0
M  V30 20 C 2.3881 -1.35918 1.91216 0
M  V30 21 C 3.4041 -1.54026 0.809436 0
M  V30 22 O 4.5801 -1.68148 1.10852 0
M  V30 23 C 1.6451 -2.69834 2.17693 0
M  V30 24 C 0.7061 -2.6047 3.41253 0
M  V30 25 C -0.0609 -3.88 3.66458 0
M  V30 26 O 0.1621 -4.88693 2.94169 0
M  V30 27 O -0.9039 -3.88189 4.59992 0
M  V30 28 H 2.9221 -1.0839 2.83699 0
M  V30 29 H 0.5071 -0.471301 1.41771 0
M  V30 30 H 2.3891 -3.49017 2.36147 0
M  V30 31 H 1.0641 -2.97148 1.28392 0
M  V30 32 H -0.0289 -1.79663 3.28134 0
M  V30 33 H 1.3041 -2.38106 4.30774 0
M  V30 34 N 2.9562 -1.48159 -0.537278 0
M  V30 35 C 4.1812 -1.59707 -1.32319 0
M  V30 36 C 4.6062 -0.254859 -1.86365 0
M  V30 37 O 3.9642 0.772378 -1.64024 0
M  V30 38 C 4.0122 -2.6412 -2.45505 0
M  V30 39 O 3.1162 -2.20774 -3.48328 0
M  V30 40 H 2.4572 -0.535791 -0.392204 0
M  V30 41 H 4.9872 -1.94092 -0.647268 0
M  V30 42 H 4.9972 -2.85166 -2.91795 0
M  V30 43 H 3.6722 -3.61567 -2.05528 0
M  V30 44 H 2.2492 -2.09911 -3.08207 0
M  V30 45 N 4.4343 0.785586 -1.36625 0
M  V30 46 C 5.3643 1.91259 -1.33949 0
M  V30 47 C 6.3453 1.68795 -0.210325 0
M  V30 48 O 7.5303 1.89854 -0.408561 0
M  V30 49 C 4.6603 3.28339 -1.13186 0
M  V30 50 C 3.6143 3.65335 -2.22967 0
M  V30 51 C 2.9403 5.00806 -1.87342 0
M  V30 52 C 4.2403 3.7352 -3.65075 0
M  V30 53 H 5.9343 1.93755 -2.28253 0
M  V30 54 H 3.4803 0.930788 -1.09874 0
M  V30 55 H 5.4333 4.06804 -1.09948 0
M  V30 56 H 4.1573 3.2624 -0.153332 0
M  V30 57 H 2.8163 2.89169 -2.25337 0
M  V30 58 H 2.4643 4.95233 -0.880545 0
M  V30 59 H 2.1643 5.26529 -2.60846 0
M  V30 60 H 3.6883 5.81687 -1.85667 0
M  V30 61 H 5.1023 4.42168 -3.64911 0
M  V30 62 H 3.4993 4.10731 -4.37516 0
M  V30 63 H 4.5693 2.74527 -3.99703 0
M  V30 64 N 5.9124 1.20967 1.01018 0
M  V30 65 C 7.1584 1.02526 1.74975 0
M  V30 66 C 7.4914 -0.4408 1.89131 0
M  V30 67 O 6.7664 -1.32718 1.42184 0
M  V30 68 C 7.0494 1.71699 3.1653 0
M  V30 69 C 6.9024 3.25791 3.10129 0
M  V30 70 C 8.2214 1.45531 4.15342 0
M  V30 71 H 5.3404 0.373863 0.635134 0
M  V30 72 H 7.9824 1.49071 1.17805 0
M  V30 73 H 6.1324 1.32128 3.65341 0
M  V30 74 H 7.8044 3.74697 2.69072 0
M  V30 75 H 6.0474 3.56363 2.47362 0
M  V30 76 H 6.7184 3.69353 4.10222 0
M  V30 77 H 9.1944 1.79872 3.75213 0
M  V30 78 H 8.0704 1.96453 5.1254 0
M  V30 79 H 8.3314 0.384237 4.40427 0
M  V30 80 N 7.3905 -1.2043 1.01659 0
M  V30 81 C 8.3205 -2.25466 0.607226 0
M  V30 82 C 9.3015 -1.65853 -0.377716 0
M  V30 83 O 10.4865 -1.92409 -0.263149 0
M  V30 84 C 7.6165 -3.47256 -0.0552949 0
M  V30 85 C 6.5705 -4.19462 0.850632 0
M  V30 86 C 5.8965 -5.34673 0.0538859 0
M  V30 87 C 7.1965 -4.75603 2.15868 0
M  V30 88 H 8.8905 -2.59962 1.48526 0
M  V30 89 H 6.4365 -1.2496 0.715605 0
M  V30 90 H 8.3895 -4.19917 -0.353233 0
M  V30 91 H 7.1135 -3.11924 -0.968045 0
M  V30 92 H 5.7725 -3.48667 1.13257 0
M  V30 93 H 5.4205 -4.95585 -0.860514 0
M  V30 94 H 5.1205 -5.83913 0.657192 0
M  V30 95 H 6.6445 -6.10138 -0.237598 0
M  V30 96 H 8.0585 -5.40083 1.92311 0
M  V30 97 H 6.4555 -5.3528 2.71284 0
M  V30 98 H 7.5255 -3.94346 2.82169 0
M  V30 99 N 8.8686 -0.792821 -1.36206 0
M  V30 100 C 10.1166 -0.366062 -1.98757 0
M  V30 101 C 10.4376 1.0668 -1.63231 0
M  V30 102 O 9.7076 1.73587 -0.907978 0
M  V30 103 H 8.2876 -0.132364 -0.735179 0
M  V30 104 H 10.9496 -1.01562 -1.66347 0
M  V30 105 H 10.0456 -0.460638 -3.08682 0
M  V30 106 N 10.3467 1.47872 -0.545128 0
M  V30 107 C 11.5927 2.02793 -0.0166104 0
M  V30 108 C 11.9257 1.41987 1.32489 0
M  V30 109 O 11.2007 0.571045 1.85928 0
M  V30 110 C 11.4837 3.59989 0.0893294 0
M  V30 111 C 11.3367 4.3125 -1.27841 0
M  V30 112 C 12.6557 4.32606 0.808724 0
M  V30 113 H 9.7747 0.736962 -0.00751035 0
M  V30 114 H 12.4167 1.76433 -0.705085 0
M  V30 115 H 10.5667 3.82579 0.675681 0
M  V30 116 H 12.2387 4.20035 -1.90704 0
M  V30 117 H 10.4817 3.92076 -1.85632 0
M  V30 118 H 11.1527 5.39736 -1.15713 0
M  V30 119 H 13.6287 4.14936 0.310992 0
M  V30 120 H 12.5047 5.42251 0.851782 0
M  V30 121 H 12.7657 4.00963 1.86229 0
M  V30 122 N 11.8248 0.280983 1.55075 0
M  V30 123 C 12.7728 -0.619864 2.24188 0
M  V30 124 C 13.7668 -1.15315 1.24092 0
M  V30 125 O 14.9728 -1.1061 1.42005 0
M  V30 126 H 11.3478 -0.218459 0.719569 0
M  V30 127 H 13.3188 -0.0141831 2.98397 0
M  V30 128 C 12.0678 -1.7899 2.98091 0
M  V30 129 H 11.3908 -1.38874 3.74905 0
M  V30 130 H 12.8308 -2.39672 3.49762 0
M  V30 131 C 11.2898 -2.68192 2.03899 0
M  V30 132 O 11.8198 -3.6872 1.594 0
M  V30 133 N 10.0258 -2.35488 1.70275 0
M  V30 134 H 9.5728 -1.53787 2.06658 0
M  V30 135 H 9.5308 -2.95442 1.07524 0
M  V30 136 N 13.3029 -1.57598 0.00835791 0
M  V30 137 C 14.2129 -2.12385 -0.996487 0
M  V30 138 C 15.2289 -1.07108 -1.37127 0
M  V30 139 O 16.4049 -1.39055 -1.4569 0
M  V30 140 C 13.4699 -2.62314 -2.26699 0
M  V30 141 C 12.5309 -3.82225 -1.95456 0
M  V30 142 C 11.7639 -4.29763 -3.16449 0
M  V30 143 O 11.9869 -3.76584 -4.28416 0
M  V30 144 O 10.9209 -5.21832 -2.99958 0
M  V30 145 H 14.7469 -2.98479 -0.560725 0
M  V30 146 H 12.3319 -1.47903 -0.210987 0
M  V30 147 H 14.2139 -2.94589 -3.01322 0
M  V30 148 H 12.8889 -1.79313 -2.69497 0
M  V30 149 H 11.7959 -3.54909 -1.18282 0
M  V30 150 H 13.1289 -4.66324 -1.57489 0
M  V30 151 N 14.781 0.264519 -1.55364 0
M  V30 152 C 15.728 1.32717 -1.88825 0
M  V30 153 C 16.698 1.48675 -0.740605 0
M  V30 154 O 17.883 1.62945 -0.992657 0
M  V30 155 C 15.023 2.68089 -2.17307 0
M  V30 156 C 14.136 2.60284 -3.44785 0
M  V30 157 C 13.271 3.87892 -3.62924 0
M  V30 158 C 12.31 3.74631 -4.84064 0
M  V30 159 N 11.447 4.94092 -4.98816 0
M  V30 160 H 16.287 1.03481 -2.79456 0
M  V30 161 H 13.824 0.499757 -1.3835 0
M  V30 162 H 15.782 3.46864 -2.31821 0
M  V30 163 H 14.412 2.95509 -1.299 0
M  V30 164 H 13.464 1.73173 -3.38697 0
M  V30 165 H 14.776 2.46388 -4.33698 0
M  V30 166 H 13.93 4.75109 -3.77302 0
M  V30 167 H 12.669 4.04664 -2.7221 0
M  V30 168 H 11.674 2.85797 -4.69681 0
M  V30 169 H 12.899 3.5937 -5.76221 0
M  V30 170 H 10.845 5.11259 -4.11036 0
M  V30 171 H 10.762 4.8276 -5.81789 0
M  V30 172 H 12.03 5.82857 -5.17588 0
M  V30 173 N 16.2591 1.48442 0.529413 0
M  V30 174 C 17.4871 1.60151 1.30994 0
M  V30 175 C 17.9021 0.261985 1.86973 0
M  V30 176 O 17.2591 -0.748805 1.66431 0
M  V30 177 C 17.3101 2.64854 2.46038 0
M  V30 178 O 17.0311 3.93608 1.92365 0
M  V30 179 C 18.5321 2.87007 3.37849 0
M  V30 180 H 15.7521 0.539971 0.398338 0
M  V30 181 H 18.2961 1.94273 0.638597 0
M  V30 182 H 16.4511 2.33589 3.09055 0
M  V30 183 H 16.8651 4.51055 2.67675 0
M  V30 184 H 18.3391 3.64068 4.14919 0
M  V30 185 H 18.8161 1.95852 3.93114 0
M  V30 186 H 19.4221 3.19579 2.80623 0
M  V30 187 N 17.7372 -0.778329 1.37039 0
M  V30 188 C 18.6872 -1.88142 1.28789 0
M  V30 189 C 19.6712 -1.59923 0.177063 0
M  V30 190 O 20.8632 -1.72165 0.410873 0
M  V30 191 C 17.9922 -3.25518 1.09055 0
M  V30 192 C 17.0782 -3.5971 2.24654 0
M  V30 193 N 17.4692 -3.65131 3.50018 0
M  V30 194 C 15.7672 -3.89837 2.16663 0
M  V30 195 C 16.4682 -3.95882 4.26207 0
M  V30 196 N 15.4442 -4.11441 3.55271 0
M  V30 197 H 19.2462 -1.90575 2.23737 0
M  V30 198 H 16.7602 -0.974435 1.29917 0
M  V30 199 H 18.7572 -4.04423 1.0123 0
M  V30 200 H 17.4172 -3.24353 0.15018 0
M  V30 201 H 18.4282 -3.475 3.84011 0
M  V30 202 H 15.1052 -3.96533 1.30645 0
M  V30 203 H 16.4952 -4.06907 5.34674 0
M  V30 204 N 19.2153 -1.21501 -1.00376 0
M  V30 205 C 20.4613 -1.03452 -1.74429 0
M  V30 206 C 20.7943 0.430764 -1.89362 0
M  V30 207 O 20.0693 1.31962 -1.42886 0
M  V30 208 C 20.3523 -1.73375 -3.15615 0
M  V30 209 C 20.2053 -3.27431 -3.08397 0
M  V30 210 C 21.5243 -1.47732 -4.14564 0
M  V30 211 H 18.6433 -0.377226 -0.633143 0
M  V30 212 H 21.2853 -1.49693 -1.17013 0
M  V30 213 H 19.4353 -1.34064 -3.64636 0
M  V30 214 H 21.1073 -3.76119 -2.67081 0
M  V30 215 H 19.3503 -3.5767 -2.45468 0
M  V30 216 H 20.0213 -3.71524 -4.08258 0
M  V30 217 H 22.4973 -1.8186 -3.74254 0
M  V30 218 H 21.3733 -1.99169 -5.11491 0
M  V30 219 H 21.6343 -0.407589 -4.40217 0
M  V30 220 N 20.6934 1.19889 -1.02296 0
M  V30 221 C 21.6254 2.22334 -0.556787 0
M  V30 222 C 22.6384 1.58674 0.364199 0
M  V30 223 O 23.8274 1.77768 0.161533 0
M  V30 224 C 20.9274 3.38257 0.208694 0
M  V30 225 C 20.1004 4.31504 -0.71577 0
M  V30 226 C 19.1594 5.262 0.00325597 0
M  V30 227 O 18.1854 5.65798 -0.621357 0
M  V30 228 N 19.3874 5.66303 1.27599 0
M  V30 229 H 22.1524 2.62957 -1.43784 0
M  V30 230 H 19.7134 1.34495 -0.901261 0
M  V30 231 H 21.7054 3.98616 0.699111 0
M  V30 232 H 20.2754 2.96472 0.991102 0
M  V30 233 H 19.4954 3.69016 -1.38638 0
M  V30 234 H 20.7834 4.9072 -1.34428 0
M  V30 235 H 20.1814 5.36155 1.80429 0
M  V30 236 H 18.7384 6.28942 1.71102 0
M  V30 237 N 22.1715 0.800033 1.35784 0
M  V30 238 C 23.1015 0.220184 2.3246 0
M  V30 239 C 24.0825 -0.65073 1.57161 0
M  V30 240 O 25.2675 -0.582359 1.85263 0
M  V30 241 C 22.3975 -0.637353 3.41402 0
M  V30 242 C 21.3515 0.134531 4.27789 0
M  V30 243 C 20.6775 -0.844285 5.27992 0
M  V30 244 C 21.9775 1.32979 5.05088 0
M  V30 245 H 23.6715 1.02787 2.81203 0
M  V30 246 H 21.2175 0.495717 1.35199 0
M  V30 247 H 23.1705 -1.05302 4.08031 0
M  V30 248 H 21.8945 -1.47785 2.91251 0
M  V30 249 H 20.5535 0.531296 3.6273 0
M  V30 250 H 20.2015 -1.68011 4.74111 0
M  V30 251 H 19.9015 -0.332184 5.8666 0
M  V30 252 H 21.4255 -1.2583 5.97494 0
M  V30 253 H 22.8395 0.98934 5.64699 0
M  V30 254 H 21.2365 1.77593 5.7322 0
M  V30 255 H 22.3065 2.11978 4.36111 0
M  V30 256 N 23.6496 -1.47581 0.552962 0
M  V30 257 C 24.8746 -2.07378 0.0300593 0
M  V30 258 C 25.2996 -1.40355 -1.25229 0
M  V30 259 O 24.6576 -0.477099 -1.7491 0
M  V30 260 C 24.7056 -3.60274 -0.153231 0
M  V30 261 O 23.8096 -3.94041 -1.21678 0
M  V30 262 H 23.1506 -0.662158 0.0494182 0
M  V30 263 H 25.6806 -1.89662 0.767434 0
M  V30 264 H 25.6906 -4.0633 -0.368761 0
M  V30 265 H 24.3656 -4.08455 0.783397 0
M  V30 266 H 22.9426 -3.59735 -0.982079 0
M  V30 267 N 25.1277 -0.289203 -1.54924 0
M  V30 268 C 26.0577 0.58549 -2.2604 0
M  V30 269 C 27.0387 1.14753 -1.25562 0
M  V30 270 O 28.2237 1.17906 -1.54311 0
M  V30 271 C 25.3537 1.76305 -2.99222 0
M  V30 272 C 24.3077 1.33191 -4.06748 0
M  V30 273 C 23.6337 2.5937 -4.6758 0
M  V30 274 C 24.9337 0.471775 -5.20165 0
M  V30 275 H 26.6277 -0.00763532 -2.99399 0
M  V30 276 H 24.1737 -0.00511229 -1.43999 0
M  V30 277 H 26.1267 2.38097 -3.47689 0
M  V30 278 H 24.8507 2.38223 -2.23422 0
M  V30 279 H 23.5097 0.737121 -3.59113 0
M  V30 280 H 23.1577 3.19576 -3.88433 0
M  V30 281 H 22.8577 2.31228 -5.40192 0
M  V30 282 H 24.3817 3.21985 -5.18804 0
M  V30 283 H 25.7957 0.995056 -5.64599 0
M  V30 284 H 24.1927 0.284639 -5.99425 0
M  V30 285 H 25.2627 -0.506041 -4.82252 0
M  V30 286 N 26.6058 1.57591 -0.0167156 0
M  V30 287 C 28.0168 1.79201 0.523834 0
M  V30 288 C 28.3678 0.925796 1.72984 0
M  V30 289 O 27.4928 0.132792 2.15992 0
M  V30 290 C 28.0878 3.25 0.957091 0
M  V30 291 C 26.6468 3.47648 1.44283 0
M  V30 292 C 25.7938 2.74374 0.401757 0
M  V30 293 H 28.7448 1.56831 -0.242816 0
M  V30 294 H 28.7658 3.34031 1.82219 0
M  V30 295 H 28.2778 3.88019 0.0791415 0
M  V30 296 H 26.3788 2.89866 2.34113 0
M  V30 297 H 26.4918 4.56352 1.45877 0
M  V30 298 H 24.8558 2.39485 0.867121 0
M  V30 299 H 25.6388 3.40102 -0.467513 0
M  V30 300 N 28.0839 -0.256276 1.55502 0
M  V30 301 C 29.3299 -0.987079 1.77157 0
M  V30 302 C 29.6629 -1.85327 0.580315 0
M  V30 303 O 28.9379 -1.89874 -0.421686 0
M  V30 304 C 29.2209 -1.85553 3.08613 0
M  V30 305 C 29.0739 -1.01816 4.38125 0
M  V30 306 C 30.3929 -2.8397 3.36228 0
M  V30 307 H 27.5119 -0.357428 0.644526 0
M  V30 308 H 30.1539 -0.258239 1.88237 0
M  V30 309 H 28.3039 -2.47695 2.99298 0
M  V30 310 H 29.9759 -0.416159 4.59419 0
M  V30 311 H 28.2189 -0.322178 4.32602 0
M  V30 312 H 28.8899 -1.65939 5.26468 0
M  V30 313 H 31.3659 -2.31964 3.45445 0
M  V30 314 H 30.2419 -3.41864 4.29442 0
M  V30 315 H 30.5029 -3.59955 2.56681 0
M  V30 316 N 29.562 -1.4872 -0.521534 0
M  V30 317 C 30.492 -1.66771 -1.63431 0
M  V30 318 C 31.473 -0.516499 -1.62069 0
M  V30 319 O 32.658 -0.750013 -1.79132 0
M  V30 320 C 29.788 -1.71515 -3.01993 0
M  V30 321 C 28.742 -2.86222 -3.18216 0
M  V30 322 C 28.068 -2.76061 -4.57924 0
M  V30 323 C 29.368 -4.27419 -3.00184 0
M  V30 324 H 31.062 -2.59932 -1.48579 0
M  V30 325 H 28.608 -1.25089 -0.713358 0
M  V30 326 H 30.561 -1.82731 -3.7972 0
M  V30 327 H 29.285 -0.749393 -3.17886 0
M  V30 328 H 27.944 -2.74575 -2.42908 0
M  V30 329 H 27.592 -1.77437 -4.70665 0
M  V30 330 H 27.292 -3.53037 -4.69722 0
M  V30 331 H 28.816 -2.89256 -5.37739 0
M  V30 332 H 30.23 -4.39855 -3.67697 0
M  V30 333 H 28.627 -5.05458 -3.2347 0
M  V30 334 H 29.697 -4.43293 -1.96518 0
M  V30 335 N 31.0401 0.771051 -1.3745 0
M  V30 336 C 31.9721 1.89352 -1.29146 0
M  V30 337 C 32.9851 1.61477 -0.207124 0
M  V30 338 O 34.1741 1.72382 -0.463324 0
M  V30 339 C 31.2741 3.24596 -0.974195 0
M  V30 340 C 30.4471 3.80111 -2.16413 0
M  V30 341 C 29.5061 4.93832 -1.81703 0
M  V30 342 O 28.5321 5.09382 -2.54006 0
M  V30 343 N 29.7341 5.75483 -0.761573 0
M  V30 344 H 32.4991 1.96991 -2.25864 0
M  V30 345 H 30.0601 0.950191 -1.31084 0
M  V30 346 H 32.0521 3.98193 -0.722828 0
M  V30 347 H 30.6221 3.12454 -0.0955527 0
M  V30 348 H 29.8421 2.98284 -2.57721 0
M  V30 349 H 31.1301 4.13932 -2.95867 0
M  V30 350 H 30.5281 5.65469 -0.161609 0
M  V30 351 H 29.0851 6.49302 -0.570064 0
M  V30 352 N 32.5182 1.22032 0.997298 0
M  V30 353 C 33.7642 1.04376 1.73878 0
M  V30 354 C 34.0972 -0.420716 1.89588 0
M  V30 355 O 33.3722 -1.31202 1.43583 0
M  V30 356 C 33.6552 1.75047 3.14691 0
M  V30 357 C 33.5082 3.29062 3.06656 0
M  V30 358 C 34.8272 1.49928 4.13775 0
M  V30 359 H 31.9462 0.380578 0.631133 0
M  V30 360 H 34.5882 1.50312 1.16217 0
M  V30 361 H 32.7382 1.35996 3.63919 0
M  V30 362 H 34.4102 3.7753 2.65083 0
M  V30 363 H 32.6532 3.58967 2.43568 0
M  V30 364 H 33.3242 3.73683 4.06282 0
M  V30 365 H 35.8002 1.83842 3.73285 0
M  V30 366 H 34.6762 2.01878 5.10428 0
M  V30 367 H 34.9372 0.430929 4.39995 0
M  V30 368 N 33.9963 -1.19345 1.0293 0
M  V30 369 C 35.4123 -1.41069 0.746446 0
M  V30 370 C 35.6123 -1.90078 -0.668776 0
M  V30 371 O 34.6683 -2.0778 -1.4347 0
M  V30 372 C 35.9813 -2.42141 1.78292 0
M  V30 373 C 37.5293 -2.55887 1.80252 0
M  V30 374 C 38.0043 -3.60214 2.8286 0
M  V30 375 N 39.4953 -3.67711 2.81679 0
M  V30 376 C 40.2303 -4.48128 3.57727 0
M  V30 377 N 39.7263 -5.32248 4.43491 0
M  V30 378 N 41.5193 -4.42782 3.46267 0
M  V30 379 H 33.6703 -0.858536 1.94275 0
M  V30 380 H 35.9333 -0.439541 0.839945 0
M  V30 381 H 35.6393 -2.13155 2.79746 0
M  V30 382 H 35.5133 -3.41323 1.60557 0
M  V30 383 H 37.9003 -2.84196 0.794757 0
M  V30 384 H 37.9813 -1.56858 2.02062 0
M  V30 385 H 37.6253 -3.32647 3.83807 0
M  V30 386 H 37.5553 -4.58895 2.58307 0
M  V30 387 H 40.0463 -3.07634 2.19476 0
M  V30 388 H 40.3593 -5.90729 4.98256 0
M  V30 389 H 38.7043 -5.31707 4.47564 0
M  V30 390 H 41.8953 -3.76107 2.78677 0
M  V30 391 H 42.0683 -5.05215 4.05785 0
M  V30 392 N 35.4744 -0.807222 -1.35358 0
M  V30 393 C 36.7514 -0.311126 -1.9311 0
M  V30 394 C 37.1314 1.19937 -1.73719 0
M  V30 395 O 36.4794 1.99918 -1.10657 0
M  V30 396 C 36.6894 -0.723226 -3.41424 0
M  V30 397 C 38.0374 -0.713078 -4.18569 0
M  V30 398 O 39.0614 -0.664811 -3.49941 0
M  V30 399 O 37.9204 -0.772022 -5.41019 0
M  V30 400 H 35.0144 -0.081526 -0.822972 0
M  V30 401 H 37.5604 -0.890962 -1.4443 0
M  V30 402 H 36.3324 -1.76426 -3.4927 0
M  V30 403 H 35.9554 -0.118232 -3.97424 0
M  V30 404 N 36.9525 1.47285 -0.560781 0
M  V30 405 C 38.1985 2.02764 -0.0381184 0
M  V30 406 C 38.5315 1.43384 1.30976 0
M  V30 407 O 37.8065 0.590733 1.85312 0
M  V30 408 C 38.0895 3.60064 0.0511427 0
M  V30 409 C 37.9425 4.2987 -1.32408 0
M  V30 410 C 39.2615 4.33439 0.762795 0
M  V30 411 H 36.3805 0.736841 -0.0153264 0
M  V30 412 H 39.0225 1.75675 -0.723759 0
M  V30 413 H 37.1725 3.83274 0.635065 0
M  V30 414 H 38.8445 4.17989 -1.95148 0
M  V30 415 H 37.0875 3.90085 -1.8978 0
M  V30 416 H 37.7585 5.38478 -1.21431 0
M  V30 417 H 40.2345 4.15243 0.266965 0
M  V30 418 H 39.1105 5.43124 0.794221 0
M  V30 419 H 39.3715 4.02915 1.81966 0
M  V30 420 N 38.4306 0.297415 1.54768 0
M  V30 421 C 39.3606 -0.573494 2.26348 0
M  V30 422 C 40.3416 -1.14085 1.26169 0
M  V30 423 O 41.5266 -1.17086 1.54934 0
M  V30 424 C 38.6566 -1.74716 3.00153 0
M  V30 425 C 37.6106 -1.31032 4.07449 0
M  V30 426 C 36.9366 -2.56887 4.68949 0
M  V30 427 C 38.2366 -0.444183 5.20408 0
M  V30 428 H 39.9306 0.0235131 2.99391 0
M  V30 429 H 37.4766 0.0127488 1.43994 0
M  V30 430 H 39.4296 -2.3625 3.48947 0
M  V30 431 H 38.1536 -2.37035 2.24682 0
M  V30 432 H 36.8126 -0.718066 3.59499 0
M  V30 433 H 36.4606 -3.17512 3.90122 0
M  V30 434 H 36.1606 -2.2836 5.41411 0
M  V30 435 H 37.6846 -3.19229 5.20505 0
M  V30 436 H 39.0986 -0.9651 5.65118 0
M  V30 437 H 37.4956 -0.252846 5.99567 0
M  V30 438 H 38.5656 0.531609 4.81977 0
M  V30 439 N 39.9087 -1.5758 0.0250728 0
M  V30 440 C 41.1547 -1.91917 -0.655413 0
M  V30 441 C 41.4877 -0.901433 -1.72011 0
M  V30 442 O 40.7627 0.0764069 -1.9435 0
M  V30 443 C 41.0457 -3.36751 -1.27558 0
M  V30 444 C 40.8987 -4.49258 -0.220719 0
M  V30 445 C 42.2177 -3.81469 -2.19475 0
M  V30 446 H 39.3367 -0.697925 -0.23679 0
M  V30 447 H 41.9787 -1.89825 0.0815036 0
M  V30 448 H 40.1287 -3.38664 -1.90365 0
M  V30 449 H 41.8007 -4.59478 0.409601 0
M  V30 450 H 40.0437 -4.31415 0.454264 0
M  V30 451 H 40.7147 -5.47618 -0.694175 0
M  V30 452 H 43.1907 -3.81266 -1.66659 0
M  V30 453 H 42.0667 -4.83512 -2.59822 0
M  V30 454 H 42.3277 -3.16744 -3.08424 0
M  V30 455 N 41.3868 0.248026 -1.55636 0
M  V30 456 C 42.8028 0.596483 -1.48035 0
M  V30 457 C 43.0028 1.88386 -0.715039 0
M  V30 458 O 42.0588 2.51319 -0.243944 0
M  V30 459 C 43.3718 0.700258 -2.92433 0
M  V30 460 C 44.9198 0.792659 -3.02797 0
M  V30 461 C 45.3948 0.928005 -4.485 0
M  V30 462 N 46.8858 0.992903 -4.52433 0
M  V30 463 C 47.6208 1.11687 -5.62418 0
M  V30 464 N 47.1168 1.20645 -6.82214 0
M  V30 465 N 48.9098 1.14994 -5.50212 0
M  V30 466 H 41.0608 -0.597109 -2.03834 0
M  V30 467 H 43.3238 -0.205925 -0.925364 0
M  V30 468 H 43.0298 -0.175658 -3.51261 0
M  V30 469 H 42.9038 1.57255 -3.42857 0
M  V30 470 H 45.2908 1.65903 -2.4405 0
M  V30 471 H 45.3718 -0.104762 -2.55585 0
M  V30 472 H 45.0158 0.0661971 -5.07857 0
M  V30 473 H 44.9458 1.84045 -4.93391 0
M  V30 474 H 47.4368 0.935064 -3.66149 0
M  V30 475 H 47.7498 1.30008 -7.61786 0
M  V30 476 H 46.0948 1.17605 -6.84977 0
M  V30 477 H 49.2858 1.07643 -4.55555 0
M  V30 478 H 49.4588 1.24311 -6.35965 0
M  V30 479 N 42.8649 1.48995 0.513639 0
M  V30 480 C 44.1129 1.57531 1.26604 0
M  V30 481 C 44.4339 0.258236 1.93283 0
M  V30 482 O 43.7039 -0.721502 1.8213 0
M  V30 483 H 42.2839 0.580387 0.470276 0
M  V30 484 H 44.9459 1.85552 0.596373 0
M  V30 485 H 44.0419 2.36486 2.03669 0
M  V30 486 N 44.343 -0.763751 1.37857 0
M  V30 487 C 45.59 -1.52257 1.33506 0
M  V30 488 C 45.918 -1.94343 -0.078022 0
M  V30 489 O 45.173 -1.64958 -1.05297 0
M  V30 490 C 45.472 -2.79499 2.22745 0
M  V30 491 C 45.138 -2.56426 3.70886 0
M  V30 492 C 43.8 -2.49842 4.11257 0
M  V30 493 C 46.152 -2.36008 4.64704 0
M  V30 494 C 43.48 -2.20841 5.43549 0
M  V30 495 C 45.832 -2.0853 5.97242 0
M  V30 496 C 44.496 -2.00396 6.36709 0
M  V30 497 H 43.766 -0.557149 0.488534 0
M  V30 498 H 46.413 -0.879073 1.70131 0
M  V30 499 H 44.718 -3.48447 1.79142 0
M  V30 500 H 46.415 -3.37413 2.16688 0
M  V30 501 H 43.005 -2.62416 3.38874 0
M  V30 502 H 47.189 -2.40079 4.34368 0
M  V30 503 H 42.445 -2.13045 5.73081 0
M  V30 504 H 46.619 -1.91732 6.69486 0
M  V30 505 H 44.246 -1.77688 7.39142 0
M  V30 506 N 45.8211 -1.22559 -0.990812 0
M  V30 507 C 47.0691 -1.04933 -1.72724 0
M  V30 508 C 47.3901 0.416158 -1.90508 0
M  V30 509 O 46.6601 1.29918 -1.46622 0
M  V30 510 H 45.2401 -0.385296 -0.639965 0
M  V30 511 H 47.9021 -1.54105 -1.19322 0
M  V30 512 H 46.9981 -1.52886 -2.72089 0
M  V30 513 N 47.2992 1.18797 -1.03562 0
M  V30 514 C 48.5762 1.84469 -0.650434 0
M  V30 515 C 48.9562 1.92319 0.870433 0
M  V30 516 O 48.3042 1.44528 1.76986 0
M  V30 517 C 48.5142 3.2306 -1.32036 0
M  V30 518 C 49.8622 3.9915 -1.44792 0
M  V30 519 O 50.8862 3.32481 -1.27806 0
M  V30 520 O 49.7452 5.18587 -1.72423 0
M  V30 521 H 46.8392 0.795251 -0.226946 0
M  V30 522 H 49.3852 1.26231 -1.13419 0
M  V30 523 H 48.1572 3.1222 -2.3587 0
M  V30 524 H 47.7802 3.88949 -0.8249 0
M  V30 525 N 48.7773 0.814389 1.34928 0
M  V30 526 C 50.0023 0.410097 2.03305 0
M  V30 527 C 50.4273 -0.973464 1.60951 0
M  V30 528 O 49.7853 -1.63185 0.789964 0
M  V30 529 C 49.8333 0.51049 3.56968 0
M  V30 530 O 48.9373 -0.473035 4.09678 0
M  V30 531 H 48.2783 0.170088 0.641846 0
M  V30 532 H 50.8083 1.10244 1.72358 0
M  V30 533 H 50.8183 0.383135 4.06197 0
M  V30 534 H 49.4933 1.51963 3.87144 0
M  V30 535 H 48.0703 -0.305272 3.71648 0
M  V30 536 N 50.2554 -1.46986 0.568584 0
M  V30 537 C 51.5014 -2.02741 0.0488709 0
M  V30 538 C 51.8344 -1.44077 -1.30214 0
M  V30 539 O 51.1094 -0.600552 -1.84996 0
M  V30 540 C 51.3924 -3.60086 -0.032047 0
M  V30 541 C 51.2454 -4.29162 1.34686 0
M  V30 542 C 52.5644 -4.33838 -0.739798 0
M  V30 543 H 49.6834 -0.736749 0.0192338 0
M  V30 544 H 52.3254 -1.75289 0.733065 0
M  V30 545 H 50.4754 -3.83606 -0.61473 0
M  V30 546 H 52.1474 -4.16948 1.97362 0
M  V30 547 H 50.3904 -3.89073 1.91846 0
M  V30 548 H 51.0614 -5.37826 1.24285 0
M  V30 549 H 53.5374 -4.15378 -0.244939 0
M  V30 550 H 52.4134 -5.43537 -0.765406 0
M  V30 551 H 52.6744 -4.03875 -1.79827 0
M  V30 552 N 51.7335 -0.305618 -1.54608 0
M  V30 553 C 52.6435 0.57778 -2.27374 0
M  V30 554 C 53.6595 1.14451 -1.31061 0
M  V30 555 O 54.8355 1.16831 -1.6405 0
M  V30 556 C 51.9005 1.73123 -3.00382 0
M  V30 557 C 50.9615 1.19812 -4.12242 0
M  V30 558 C 50.1945 2.2966 -4.81759 0
M  V30 559 O 50.4175 3.49651 -4.50666 0
M  V30 560 O 49.3515 1.96091 -5.69062 0
M  V30 561 H 53.1775 -0.012624 -3.03697 0
M  V30 562 H 50.7625 -0.0719184 -1.49227 0
M  V30 563 H 52.6445 2.40315 -3.4616 0
M  V30 564 H 51.3195 2.30815 -2.26949 0
M  V30 565 H 50.2265 0.491798 -3.70853 0
M  V30 566 H 51.5595 0.666566 -4.87666 0
M  V30 567 N 53.2116 1.57565 -0.0334293 0
M  V30 568 C 54.1216 2.13943 0.962572 0
M  V30 569 C 55.1376 1.09276 1.35406 0
M  V30 570 O 56.3136 1.41355 1.4346 0
M  V30 571 C 53.3786 2.65887 2.22497 0
M  V30 572 C 52.4396 3.85286 1.8935 0
M  V30 573 C 51.6726 4.34743 3.09571 0
M  V30 574 O 51.8956 3.83352 4.22371 0
M  V30 575 O 50.8296 5.26538 2.91618 0
M  V30 576 H 54.6556 2.99333 0.513169 0
M  V30 577 H 52.2406 1.4822 0.18743 0
M  V30 578 H 54.1226 2.99346 2.96598 0
M  V30 579 H 52.7976 1.83578 2.6661 0
M  V30 580 H 51.7046 3.56746 1.1262 0
M  V30 581 H 53.0376 4.68771 1.5005 0
M  V30 582 N 54.6897 -0.239769 1.55765 0
M  V30 583 C 55.6527 -1.28038 1.90103 0
M  V30 584 C 56.6527 -1.40723 0.778055 0
M  V30 585 O 57.8427 -1.39301 1.04599 0
M  V30 586 C 54.9747 -2.65702 2.13577 0
M  V30 587 H 56.1677 -0.988048 2.83157 0
M  V30 588 H 53.7207 -0.479382 1.48767 0
M  V30 589 H 54.4557 -3.00063 1.23015 0
M  V30 590 H 54.2407 -2.57875 2.95369 0
M  V30 591 H 55.7307 -3.40828 2.41301 0
M  V30 592 N 56.1678 -1.49265 -0.50573 0
M  V30 593 C 57.0978 -1.68495 -1.61653 0
M  V30 594 C 58.0788 -0.53366 -1.61512 0
M  V30 595 O 59.2638 -0.76897 -1.78327 0
M  V30 596 C 56.3938 -1.74709 -3.00157 0
M  V30 597 C 55.3478 -2.89581 -3.15162 0
M  V30 598 C 54.6738 -2.80903 -4.5497 0
M  V30 599 C 55.9738 -4.30578 -2.95634 0
M  V30 600 H 57.6678 -2.61493 -1.45814 0
M  V30 601 H 55.2138 -1.25838 -0.70005 0
M  V30 602 H 57.1668 -1.86748 -3.77761 0
M  V30 603 H 55.8908 -0.783067 -3.17074 0
M  V30 604 H 54.5498 -2.77136 -2.39982 0
M  V30 605 H 54.1978 -1.82419 -4.68756 0
M  V30 606 H 53.8978 -3.57999 -4.65951 0
M  V30 607 H 55.4218 -2.94944 -5.34641 0
M  V30 608 H 56.8358 -4.4373 -3.63011 0
M  V30 609 H 55.2328 -5.0886 -3.18091 0
M  V30 610 H 56.3028 -4.45352 -1.91806 0
M  V30 611 N 57.6459 0.756429 -1.3826 0
M  V30 612 C 58.8709 1.55077 -1.37717 0
M  V30 613 C 59.2959 1.88073 0.03164 0
M  V30 614 O 58.6539 1.50364 1.01293 0
M  V30 615 C 58.7019 2.8283 -2.23695 0
M  V30 616 O 57.8059 3.77862 -1.6521 0
M  V30 617 H 57.1469 0.469152 -0.469885 0
M  V30 618 H 59.6769 0.935019 -1.81985 0
M  V30 619 H 59.6869 3.31783 -2.37453 0
M  V30 620 H 58.3619 2.58144 -3.2609 0
M  V30 621 H 56.9389 3.36555 -1.60578 0
M  V30 622 N 59.124 1.23083 0.984299 0
M  V30 623 C 60.034 1.02515 2.11016 0
M  V30 624 C 61.05 -0.0291702 1.73976 0
M  V30 625 O 62.226 0.165434 2.00719 0
M  V30 626 C 59.291 0.614673 3.41208 0
M  V30 627 C 58.352 1.74359 3.92297 0
M  V30 628 C 57.585 1.35261 5.16275 0
M  V30 629 O 57.808 0.235136 5.69915 0
M  V30 630 O 56.742 2.17227 5.61334 0
M  V30 631 H 60.568 1.96862 2.31255 0
M  V30 632 H 58.153 1.01753 1.09392 0
M  V30 633 H 60.035 0.396518 4.1953 0
M  V30 634 H 58.71 -0.299851 3.22308 0
M  V30 635 H 57.617 2.01635 3.1511 0
M  V30 636 H 58.95 2.63629 4.15645 0
M  V30 637 N 60.6021 -1.18246 1.0419 0
M  V30 638 C 61.5651 -2.20128 0.638452 0
M  V30 639 C 62.5651 -1.57885 -0.304805 0
M  V30 640 O 63.7551 -1.73967 -0.0900369 0
M  V30 641 C 60.8871 -3.4084 -0.0637751 0
M  V30 642 H 62.0801 -2.57336 1.54007 0
M  V30 643 H 59.6331 -1.32152 0.834598 0
M  V30 644 H 60.3681 -3.09166 -0.979136 0
M  V30 645 H 60.1531 -3.8726 0.614198 0
M  V30 646 H 61.6431 -4.16274 -0.332512 0
M  V30 647 N 62.0802 -0.821533 -1.34494 0
M  V30 648 C 63.4962 -0.507117 -1.51329 0
M  V30 649 C 63.6962 0.968964 -1.76673 0
M  V30 650 O 62.7522 1.75348 -1.81685 0
M  V30 651 C 64.0652 -1.36544 -2.67911 0
M  V30 652 C 65.6132 -1.36242 -2.81793 0
M  V30 653 C 66.0882 -2.2052 -4.01416 0
M  V30 654 N 67.5792 -2.18136 -4.08621 0
M  V30 655 C 68.3142 -2.80095 -5.00334 0
M  V30 656 N 67.8102 -3.51039 -5.9728 0
M  V30 657 N 69.6032 -2.69656 -4.93196 0
M  V30 658 H 61.7542 -1.77729 -1.16302 0
M  V30 659 H 64.0172 -0.757291 -0.570276 0
M  V30 660 H 63.7232 -2.41361 -2.55808 0
M  V30 661 H 63.5972 -1.02917 -3.62888 0
M  V30 662 H 65.9842 -0.322041 -2.93338 0
M  V30 663 H 66.0652 -1.73866 -1.87628 0
M  V30 664 H 65.7092 -3.24607 -3.90631 0
M  V30 665 H 65.6392 -1.80247 -4.94791 0
M  V30 666 H 68.1302 -1.6653 -3.39229 0
M  V30 667 H 68.4432 -3.95565 -6.63889 0
M  V30 668 H 66.7882 -3.55145 -5.97409 0
M  V30 669 H 69.9792 -2.13808 -4.16418 0
M  V30 670 H 70.1522 -3.1823 -5.64476 0
M  V30 671 N 63.5583 1.46682 -0.576371 0
M  V30 672 C 64.4683 2.34032 0.163141 0
M  V30 673 C 65.4843 1.49367 0.892501 0
M  V30 674 O 66.6603 1.82252 0.857106 0
M  V30 675 C 63.7253 3.26435 1.16795 0
M  V30 676 C 62.7863 4.26998 0.443944 0
M  V30 677 C 62.0193 5.14986 1.40088 0
M  V30 678 O 62.2423 5.05785 2.637 0
M  V30 679 O 61.1763 5.94906 0.914917 0
M  V30 680 H 65.0023 2.98607 -0.55388 0
M  V30 681 H 62.5873 1.45554 -0.336821 0
M  V30 682 H 64.4693 3.83459 1.74748 0
M  V30 683 H 63.1443 2.64465 1.86655 0
M  V30 684 H 62.0513 3.7368 -0.177271 0
M  V30 685 H 63.3843 4.91736 -0.213566 0
M  V30 686 N 65.0364 0.313813 1.54444 0
M  V30 687 C 65.9864 -0.571898 2.20711 0
M  V30 688 C 66.9704 -1.08913 1.18435 0
M  V30 689 O 68.1624 -1.02777 1.44104 0
M  V30 690 C 65.2914 -1.7371 2.96108 0
M  V30 691 C 64.3774 -1.23522 4.05713 0
M  V30 692 N 64.7684 -0.452288 5.03774 0
M  V30 693 C 63.0664 -1.51482 4.19487 0
M  V30 694 C 63.7674 -0.183438 5.81411 0
M  V30 695 N 62.7434 -0.766845 5.38164 0
M  V30 696 H 66.5454 0.0336802 2.93881 0
M  V30 697 H 64.0594 0.119192 1.61962 0
M  V30 698 H 66.0564 -2.38329 3.4206 0
M  V30 699 H 64.7164 -2.34625 2.24458 0
M  V30 700 H 65.7274 -0.0960131 5.17811 0
M  V30 701 H 62.4044 -2.13053 3.59047 0
M  V30 702 H 63.7944 0.446216 6.70417 0
M  V30 703 N 66.5145 -1.57545 0.0417849 0
M  V30 704 C 67.4445 -2.14009 -0.933929 0
M  V30 705 C 68.4255 -1.05938 -1.33083 0
M  V30 706 O 69.6105 -1.33833 -1.40721 0
M  V30 707 C 66.7405 -2.67747 -2.21199 0
M  V30 708 C 65.6945 -3.80718 -1.95544 0
M  V30 709 C 65.0205 -4.20935 -3.29724 0
M  V30 710 C 66.3205 -5.06258 -1.28452 0
M  V30 711 H 68.0145 -2.95788 -0.463645 0
M  V30 712 H 65.5605 -1.42285 -0.221573 0
M  V30 713 H 67.5135 -3.05886 -2.89848 0
M  V30 714 H 66.2375 -1.83147 -2.70416 0
M  V30 715 H 64.8965 -3.43037 -1.2931 0
M  V30 716 H 64.5445 -3.33298 -3.76724 0
M  V30 717 H 64.2445 -4.9707 -3.13361 0
M  V30 718 H 65.7685 -4.61666 -3.9962 0
M  V30 719 H 67.1825 -5.41903 -1.8712 0
M  V30 720 H 65.5795 -5.87475 -1.22445 0
M  V30 721 H 66.6495 -4.84207 -0.259219 0
M  V30 722 N 67.9926 0.231505 -1.5589 0
M  V30 723 C 68.9396 1.28682 -1.91598 0
M  V30 724 C 69.9096 1.47071 -0.771974 0
M  V30 725 O 71.0946 1.60802 -1.027 0
M  V30 726 C 68.2346 2.6342 -2.22944 0
M  V30 727 C 67.3476 2.52912 -3.50228 0
M  V30 728 C 66.4826 3.80106 -3.7107 0
M  V30 729 C 65.5216 3.64279 -4.91902 0
M  V30 730 N 64.6586 4.834 -5.09184 0
M  V30 731 H 69.4986 0.975305 -2.81588 0
M  V30 732 H 67.0356 0.470299 -1.39379 0
M  V30 733 H 68.9936 3.41869 -2.39126 0
M  V30 734 H 67.6236 2.92687 -1.36139 0
M  V30 735 H 66.6756 1.6595 -3.42294 0
M  V30 736 H 67.9876 2.37133 -4.38827 0
M  V30 737 H 67.1416 4.66999 -3.87295 0
M  V30 738 H 65.8806 3.98799 -2.80733 0
M  V30 739 H 64.8856 2.7577 -4.75637 0
M  V30 740 H 66.1106 3.47067 -5.83714 0
M  V30 741 H 64.0566 5.02425 -4.21788 0
M  V30 742 H 63.9736 4.70311 -5.91898 0
M  V30 743 H 65.2416 5.71747 -5.29835 0
M  V30 744 N 69.4707 1.49531 0.497807 0
M  V30 745 C 70.4187 1.66926 1.61983 0
M  V30 746 C 71.4127 0.535167 1.60724 0
M  V30 747 O 72.6187 0.714896 1.65195 0
M  V30 748 H 68.9937 0.526415 0.537021 0
M  V30 749 H 70.9647 2.61098 1.44465 0
M  V30 750 C 69.7137 1.75602 3.00099 0
M  V30 751 H 69.0367 2.62244 3.01775 0
M  V30 752 H 70.4767 1.91807 3.78135 0
M  V30 753 C 68.9357 0.501543 3.33146 0
M  V30 754 O 69.4657 -0.371342 3.9998 0
M  V30 755 N 67.6717 0.363531 2.88317 0
M  V30 756 H 67.2187 1.07485 2.34104 0
M  V30 757 H 67.1767 -0.474728 3.10795 0
M  V30 758 N 70.9488 -0.749086 1.3866 0
M  V30 759 C 72.1968 -1.50535 1.34847 0
M  V30 760 C 72.5178 -1.94909 -0.0595016 0
M  V30 761 O 71.7878 -1.67973 -1.00806 0
M  V30 762 H 70.3678 -0.558395 0.49619 0
M  V30 763 H 73.0298 -0.890165 1.73384 0
M  V30 764 H 72.1258 -2.39413 2.00219 0
M  V30 765 N 72.4269 -1.23603 -0.977757 0
M  V30 766 C 73.6549 -1.09646 -1.75458 0
M  V30 767 C 74.0699 0.351859 -1.85492 0
M  V30 768 O 73.4269 1.24327 -1.336 0
M  V30 769 C 73.4779 -1.71895 -3.18016 0
M  V30 770 O 73.1989 -3.11063 -3.08498 0
M  V30 771 C 74.6999 -1.63415 -4.12081 0
M  V30 772 H 71.9199 -0.38359 -0.550545 0
M  V30 773 H 74.4639 -1.63507 -1.22824 0
M  V30 774 H 72.6189 -1.22061 -3.67668 0
M  V30 775 H 73.0329 -3.41305 -3.9826 0
M  V30 776 H 74.5069 -2.11669 -5.09804 0
M  V30 777 H 74.9839 -0.593462 -4.35172 0
M  V30 778 H 75.5899 -2.12628 -3.68334 0
M  V30 779 N 73.905 1.17692 -1.04816 0
M  V30 780 C 75.145 1.89545 -0.764979 0
M  V30 781 C 75.509 1.78979 0.695028 0
M  V30 782 O 76.71 2.45613 1.09215 0
M  V30 783 C 74.981 3.35659 -1.22751 0
M  V30 784 S 76.54 4.25526 -1.07112 0
M  V30 785 H 73.358 0.654432 -0.27792 0
M  V30 786 H 75.96 1.42163 -1.34201 0
M  V30 787 H 74.664 3.40882 -2.28533 0
M  V30 788 H 74.195 3.88083 -0.644594 0
M  V30 789 H 76.21 4.962 0.00697508 0
M  V30 790 N 75.3831 0.828654 1.34056 0
M  V30 791 C 76.6311 0.41863 1.97717 0
M  V30 792 C 76.9521 -1.02314 1.66002 0
M  V30 793 O 76.2221 -1.71119 0.953683 0
M  V30 794 H 74.8021 0.151809 0.731412 0
M  V30 795 H 77.4641 1.05936 1.63596 0
M  V30 796 H 76.5601 0.542318 3.07352 0
M  V30 797 N 76.8612 -1.46375 0.584142 0
M  V30 798 C 77.7912 -2.33103 -0.136037 0
M  V30 799 C 78.7722 -1.45431 -0.882255 0
M  V30 800 O 79.9572 -1.74246 -0.857434 0
M  V30 801 C 77.0872 -3.27731 -1.14933 0
M  V30 802 C 76.0412 -4.24855 -0.517862 0
M  V30 803 C 75.3672 -5.09001 -1.63773 0
M  V30 804 C 76.6672 -5.19439 0.545886 0
M  V30 805 H 78.3612 -2.93568 0.588086 0
M  V30 806 H 75.9072 -1.41166 0.284259 0
M  V30 807 H 77.8602 -3.87261 -1.66153 0
M  V30 808 H 76.5842 -2.65377 -1.90375 0
M  V30 809 H 75.2432 -3.6659 -0.0267361 0
M  V30 810 H 74.8912 -4.43031 -2.38185 0
M  V30 811 H 74.5912 -5.74777 -1.22085 0
M  V30 812 H 76.1152 -5.71396 -2.15266 0
M  V30 813 H 77.5292 -5.73177 0.118704 0
M  V30 814 H 75.9262 -5.93566 0.88317 0
M  V30 815 H 76.9962 -4.63285 1.43162 0
M  V30 816 N 78.3393 -0.321999 -1.54275 0
M  V30 817 C 79.5853 0.281461 -2.00837 0
M  V30 818 C 79.9183 1.51909 -1.20985 0
M  V30 819 O 79.1933 1.923 -0.291733 0
M  V30 820 C 79.4763 0.617162 -3.54772 0
M  V30 821 C 79.3293 -0.631064 -4.45351 0
M  V30 822 C 80.6483 1.43542 -4.16033 0
M  V30 823 H 77.7673 0.100826 -0.730071 0
M  V30 824 H 80.4093 -0.438268 -1.84876 0
M  V30 825 H 78.5593 1.23034 -3.68504 0
M  V30 826 H 80.2313 -1.26934 -4.43492 0
M  V30 827 H 78.4743 -1.26025 -4.15091 0
M  V30 828 H 79.1453 -0.351735 -5.50878 0
M  V30 829 H 81.6213 0.917134 -4.05867 0
M  V30 830 H 80.4973 1.63907 -5.23856 0
M  V30 831 H 80.7583 2.43108 -3.69257 0
M  V30 832 N 79.8174 1.5752 -0.0501392 0
M  V30 833 C 80.7274 2.14952 0.939827 0
M  V30 834 C 81.7434 1.10706 1.34239 0
M  V30 835 O 82.9194 1.42869 1.41952 0
M  V30 836 C 79.9844 2.68232 2.19665 0
M  V30 837 C 79.0454 3.87272 1.85253 0
M  V30 838 C 78.2784 4.38002 3.04943 0
M  V30 839 O 78.5014 3.87811 4.18281 0
M  V30 840 O 77.4354 5.29602 2.86017 0
M  V30 841 H 81.2614 2.9986 0.481392 0
M  V30 842 H 78.8464 1.4841 0.171699 0
M  V30 843 H 80.7284 3.02475 2.93406 0
M  V30 844 H 79.4034 1.86395 2.64648 0
M  V30 845 H 78.3104 3.5792 1.0883 0
M  V30 846 H 79.6434 4.70336 1.4507 0
M  V30 847 N 81.2955 -0.223234 1.56011 0
M  V30 848 C 82.2255 -1.27988 1.95298 0
M  V30 849 C 83.2065 -1.48976 0.820979 0
M  V30 850 O 84.3915 -1.61188 1.08315 0
M  V30 851 C 81.5215 -2.63 2.26822 0
M  V30 852 C 80.4755 -2.56671 3.42497 0
M  V30 853 C 79.8015 -3.95697 3.59622 0
M  V30 854 C 81.1015 -2.11601 4.77517 0
M  V30 855 H 82.7955 -0.953525 2.8381 0
M  V30 856 H 80.3415 -0.457244 1.36548 0
M  V30 857 H 82.2945 -3.37077 2.52898 0
M  V30 858 H 81.0185 -2.9732 1.35161 0
M  V30 859 H 79.6775 -1.85051 3.16467 0
M  V30 860 H 79.3255 -4.27322 2.6534 0
M  V30 861 H 79.0255 -3.92345 4.37424 0
M  V30 862 H 80.5495 -4.71438 3.88044 0
M  V30 863 H 81.9635 -2.7542 5.02809 0
M  V30 864 H 80.3605 -2.19311 5.5859 0
M  V30 865 H 81.4305 -1.06824 4.72987 0
M  V30 866 N 82.7736 -1.49793 -0.48987 0
M  V30 867 C 83.6836 -1.70036 -1.61632 0
M  V30 868 C 84.6996 -0.583102 -1.63939 0
M  V30 869 O 85.8756 -0.859169 -1.82154 0
M  V30 870 C 82.9406 -1.77277 -2.97949 0
M  V30 871 C 82.0016 -3.00918 -3.06181 0
M  V30 872 C 81.2346 -3.07804 -4.35996 0
M  V30 873 O 81.4576 -2.21982 -5.25433 0
M  V30 874 O 80.3916 -4.00369 -4.49431 0
M  V30 875 H 84.2176 -2.65486 -1.47482 0
M  V30 876 H 81.8026 -1.33666 -0.667362 0
M  V30 877 H 83.6846 -1.84329 -3.78947 0
M  V30 878 H 82.3596 -0.850076 -3.12339 0
M  V30 879 H 81.2666 -2.99377 -2.2433 0
M  V30 880 H 82.5996 -3.92704 -2.96723 0
M  V30 881 N 84.2517 0.741722 -1.39055 0
M  V30 882 C 85.1987 1.85566 -1.37237 0
M  V30 883 C 86.1687 1.64457 -0.233072 0
M  V30 884 O 87.3537 1.85957 -0.427147 0
M  V30 885 C 84.4937 3.23004 -1.215 0
M  V30 886 C 83.6067 3.55864 -2.44918 0
M  V30 887 C 82.7417 4.82669 -2.21821 0
M  V30 888 C 81.7807 5.08351 -3.40948 0
M  V30 889 N 80.9177 6.26356 -3.17211 0
M  V30 890 H 85.7577 1.86455 -2.32462 0
M  V30 891 H 83.2947 0.911176 -1.15482 0
M  V30 892 H 85.2527 4.02331 -1.10389 0
M  V30 893 H 83.8827 3.21411 -0.29908 0
M  V30 894 H 82.9347 2.7129 -2.66657 0
M  V30 895 H 84.2467 3.70765 -3.33668 0
M  V30 896 H 83.4007 5.69962 -2.07914 0
M  V30 897 H 82.1397 4.69929 -1.30454 0
M  V30 898 H 81.1447 4.19522 -3.55361 0
M  V30 899 H 82.3697 5.22981 -4.33207 0
M  V30 900 H 80.3157 6.14917 -2.28502 0
M  V30 901 H 80.2327 6.41813 -3.99515 0
M  V30 902 H 81.5007 7.16506 -3.06984 0
M  V30 903 N 85.7298 1.2412 0.971189 0
M  V30 904 C 86.9778 1.07668 1.71032 0
M  V30 905 C 87.2988 -0.385797 1.91146 0
M  V30 906 O 86.5688 -1.27569 1.4867 0
M  V30 907 H 85.1488 0.395429 0.633755 0
M  V30 908 H 87.8108 1.55984 1.16855 0
M  V30 909 H 86.9068 1.57195 2.69622 0
M  V30 910 N 87.2079 -1.17134 1.05439 0
M  V30 911 C 88.4539 -1.87733 0.767077 0
M  V30 912 C 88.7869 -1.8098 -0.704253 0
M  V30 913 O 88.0619 -1.21951 -1.5152 0
M  V30 914 C 88.3449 -3.37659 1.25133 0
M  V30 915 C 88.1979 -3.53149 2.78578 0
M  V30 916 C 89.5169 -4.31768 0.852324 0
M  V30 917 H 86.6359 -0.681687 0.280129 0
M  V30 918 H 89.2779 -1.37732 1.30881 0
M  V30 919 H 87.4279 -3.80373 0.790469 0
M  V30 920 H 89.0999 -3.19434 3.32806 0
M  V30 921 H 87.3429 -2.95345 3.17732 0
M  V30 922 H 88.0139 -4.58403 3.07523 0
M  V30 923 H 90.4899 -3.96909 1.24911 0
M  V30 924 H 89.3659 -5.35199 1.21873 0
M  V30 925 H 89.6269 -4.41429 -0.243485 0
M  V30 926 N 88.686 -0.835752 -1.33615 0
M  V30 927 C 89.616 -0.281739 -2.31794 0
M  V30 928 C 90.597 0.608833 -1.58831 0
M  V30 929 O 91.782 0.533035 -1.86741 0
M  V30 930 C 88.912 0.546612 -3.42971 0
M  V30 931 C 87.866 -0.247904 -4.27281 0
M  V30 932 C 87.192 0.704001 -5.30045 0
M  V30 933 C 88.492 -1.46324 -5.01385 0
M  V30 934 H 90.186 -1.10206 -2.78379 0
M  V30 935 H 87.732 -0.531388 -1.33837 0
M  V30 936 H 89.685 0.944467 -4.1068 0
M  V30 937 H 88.409 1.40011 -2.95067 0
M  V30 938 H 87.068 -0.627281 -3.61194 0
M  V30 939 H 86.716 1.55381 -4.78399 0
M  V30 940 H 86.416 0.176524 -5.87335 0
M  V30 941 H 87.94 1.09944 -6.0062 0
M  V30 942 H 89.354 -1.13871 -5.61877 0
M  V30 943 H 87.751 -1.92728 -5.6831 0
M  V30 944 H 88.821 -2.23467 -4.30338 0
M  V30 945 N 90.1641 1.46063 -0.591896 0
M  V30 946 C 91.5751 1.85944 -0.167822 0
M  V30 947 C 91.9261 1.49429 1.27143 0
M  V30 948 O 91.0511 0.913515 1.96173 0
M  V30 949 C 91.6461 3.37489 -0.297794 0
M  V30 950 C 90.2051 3.76332 0.0714732 0
M  V30 951 C 89.3521 2.7006 -0.629509 0
M  V30 952 H 92.3031 1.37087 -0.799555 0
M  V30 953 H 92.3241 3.77532 0.474349 0
M  V30 954 H 91.8361 3.64034 -1.3454 0
M  V30 955 H 89.9371 3.55405 1.11886 0
M  V30 956 H 90.0501 4.78088 -0.311245 0
M  V30 957 H 88.4141 2.54607 -0.0687867 0
M  V30 958 H 89.1971 2.99444 -1.67894 0
M  V30 959 N 91.6422 0.330177 1.54103 0
M  V30 960 C 92.5742 -0.566902 2.22079 0
M  V30 961 C 93.5872 -1.07462 1.22294 0
M  V30 962 O 94.7762 -0.987065 1.48726 0
M  V30 963 C 91.8762 -1.79138 2.87685 0
M  V30 964 C 91.0492 -1.42123 4.13666 0
M  V30 965 C 90.1082 -2.50394 4.62806 0
M  V30 966 O 89.1342 -2.14261 5.27334 0
M  V30 967 N 90.3362 -3.81433 4.37595 0
M  V30 968 H 93.1012 0.0151844 2.99696 0
M  V30 969 H 90.6622 0.153681 1.61169 0
M  V30 970 H 92.6542 -2.50975 3.1748 0
M  V30 971 H 91.2242 -2.28115 2.13734 0
M  V30 972 H 90.4442 -0.534201 3.90564 0
M  V30 973 H 91.7322 -1.14971 4.9564 0
M  V30 974 H 91.1302 -4.13584 3.8596 0
M  V30 975 H 89.6872 -4.4948 4.72029 0
M  V30 976 N 93.1203 -1.57491 0.0584922 0
M  V30 977 C 94.0503 -2.14988 -0.911178 0
M  V30 978 C 95.0313 -1.07343 -1.31952 0
M  V30 979 O 96.2163 -1.35318 -1.39294 0
M  V30 980 C 93.3463 -2.70078 -2.18347 0
M  V30 981 C 92.3003 -3.82771 -1.91495 0
M  V30 982 C 91.6263 -4.24408 -3.25241 0
M  V30 983 C 92.9263 -5.07592 -1.23075 0
M  V30 984 H 94.6203 -2.96263 -0.432246 0
M  V30 985 H 92.1663 -1.42512 -0.206469 0
M  V30 986 H 94.1193 -3.08943 -2.86587 0
M  V30 987 H 92.8433 -1.86005 -2.68458 0
M  V30 988 H 91.5023 -3.44389 -1.25664 0
M  V30 989 H 91.1503 -3.37275 -3.73168 0
M  V30 990 H 90.8503 -5.00366 -3.08071 0
M  V30 991 H 92.3743 -4.65879 -3.94701 0
M  V30 992 H 93.7883 -5.43857 -1.81362 0
M  V30 993 H 92.1853 -5.88741 -1.16207 0
M  V30 994 H 93.2553 -4.84454 -0.207847 0
M  V30 995 N 94.5984 0.214957 -1.56127 0
M  V30 996 C 95.5084 1.28727 -1.96129 0
M  V30 997 C 96.5244 1.50916 -0.866044 0
M  V30 998 O 97.7004 1.63918 -1.17016 0
M  V30 999 C 94.7654 2.61569 -2.27558 0
M  V30 1000 C 93.8264 2.47625 -3.50685 0
M  V30 1001 C 93.0594 3.74132 -3.80606 0
M  V30 1002 O 93.2824 4.77438 -3.12104 0
M  V30 1003 O 92.2164 3.70849 -4.74083 0
M  V30 1004 H 96.0424 0.977855 -2.87527 0
M  V30 1005 H 93.6274 0.418358 -1.43423 0
M  V30 1006 H 95.5094 3.40012 -2.48938 0
M  V30 1007 H 94.1844 2.92178 -1.39332 0
M  V30 1008 H 93.0914 1.67361 -3.34576 0
M  V30 1009 H 94.4244 2.21954 -4.39315 0
M  V30 1010 N 96.0765 1.50051 0.48192 0
M  V30 1011 C 97.0085 1.64263 1.59844 0
M  V30 1012 C 98.0215 0.52451 1.54119 0
M  V30 1013 O 99.2105 0.797293 1.59704 0
M  V30 1014 C 96.3105 1.60102 2.98698 0
M  V30 1015 C 95.4835 2.87767 3.29407 0
M  V30 1016 C 94.5425 2.76397 4.47762 0
M  V30 1017 O 93.5685 3.50348 4.48603 0
M  V30 1018 N 94.7705 1.89222 5.48794 0
M  V30 1019 H 97.5355 2.60566 1.48073 0
M  V30 1020 H 95.0965 1.47379 0.670149 0
M  V30 1021 H 97.0885 1.50123 3.75826 0
M  V30 1022 H 95.6585 0.715798 3.04294 0
M  V30 1023 H 94.8785 3.11954 2.40994 0
M  V30 1024 H 96.1665 3.72365 3.4673 0
M  V30 1025 H 95.5645 1.28434 5.50928 0
M  V30 1026 H 94.1215 1.85154 6.24949 0
M  V30 1027 N 97.5546 -0.734337 1.39446 0
M  V30 1028 C 98.9656 -1.31264 1.32766 0
M  V30 1029 C 99.3166 -1.96198 -0.00767497 0
M  V30 1030 O 98.4416 -1.96346 -0.909796 0
M  V30 1031 C 99.0366 -2.38682 2.4045 0
M  V30 1032 C 97.5956 -2.92184 2.37288 0
M  V30 1033 C 96.7426 -1.6576 2.22304 0
M  V30 1034 H 99.6936 -0.531799 1.49525 0
M  V30 1035 H 99.7146 -3.19087 2.07276 0
M  V30 1036 H 99.2266 -1.91392 3.37625 0
M  V30 1037 H 97.3276 -3.43752 1.43754 0
M  V30 1038 H 97.4406 -3.45253 3.3217 0
M  V30 1039 H 95.8046 -1.9012 1.69489 0
M  V30 1040 H 96.5876 -1.20521 3.21449 0
M  V30 1041 N 99.0327 -1.24633 -0.964593 0
M  V30 1042 C 100.263 -1.11339 -1.74032 0
M  V30 1043 C 100.671 0.336593 -1.86182 0
M  V30 1044 O 100.014 1.24389 -1.35178 0
M  V30 1045 C 100.076 -1.68284 -3.1768 0
M  V30 1046 C 99.7397 -3.17196 -3.28992 0
M  V30 1047 C 100.737 -4.14308 -3.14078 0
M  V30 1048 C 98.4217 -3.57215 -3.53133 0
M  V30 1049 C 100.416 -5.4942 -3.23135 0
M  V30 1050 C 98.1027 -4.92468 -3.61827 0
M  V30 1051 C 99.1007 -5.8838 -3.46841 0
M  V30 1052 O 98.7887 -7.21173 -3.55197 0
M  V30 1053 H 98.5207 -0.389551 -0.552472 0
M  V30 1054 H 101.075 -1.65282 -1.21946 0
M  V30 1055 H 99.3047 -1.08777 -3.71085 0
M  V30 1056 H 100.994 -1.50234 -3.77074 0
M  V30 1057 H 101.76 -3.84731 -2.95308 0
M  V30 1058 H 97.6387 -2.83063 -3.63863 0
M  V30 1059 H 101.183 -6.24263 -3.11355 0
M  V30 1060 H 97.0797 -5.21714 -3.80111 0
M  V30 1061 H 97.8477 -7.29135 -3.71892 0
M  V30 1062 N 100.511 1.16574 -1.06058 0
M  V30 1063 C 101.757 1.87324 -0.777022 0
M  V30 1064 C 102.09 1.81351 0.694645 0
M  V30 1065 O 101.365 1.22753 1.50871 0
M  V30 1066 C 101.648 3.36991 -1.26922 0
M  V30 1067 C 101.501 3.51667 -2.80447 0
M  V30 1068 C 102.82 4.3131 -0.87521 0
M  V30 1069 H 99.9388 0.680191 -0.28374 0
M  V30 1070 H 102.581 1.37036 -1.3161 0
M  V30 1071 H 100.731 3.79949 -0.81063 0
M  V30 1072 H 102.403 3.17664 -3.34495 0
M  V30 1073 H 100.646 2.93656 -3.19294 0
M  V30 1074 H 101.317 4.56766 -3.0995 0
M  V30 1075 H 103.793 3.9624 -1.27014 0
M  V30 1076 H 102.669 5.34545 -1.2471 0
M  V30 1077 H 102.93 4.41552 0.220071 0
M  V30 1078 N 101.989 0.842826 1.3317 0
M  V30 1079 C 103.236 0.440447 1.97652 0
M  V30 1080 C 103.564 -1.00123 1.6675 0
M  V30 1081 O 102.819 -1.7155 0.941761 0
M  V30 1082 C 103.118 0.612607 3.52111 0
M  V30 1083 C 102.784 2.02297 4.02972 0
M  V30 1084 C 101.446 2.40874 4.16573 0
M  V30 1085 C 103.798 2.94402 4.30089 0
M  V30 1086 C 101.126 3.70852 4.54627 0
M  V30 1087 C 103.478 4.23865 4.69597 0
M  V30 1088 C 102.142 4.62392 4.81404 0
M  V30 1089 H 101.412 0.161171 0.72326 0
M  V30 1090 H 104.059 1.07061 1.58777 0
M  V30 1091 H 102.364 -0.100849 3.9167 0
M  V30 1092 H 104.061 0.2815 4.00011 0
M  V30 1093 H 100.651 1.71338 3.92863 0
M  V30 1094 H 104.835 2.65835 4.19101 0
M  V30 1095 H 100.091 4.00501 4.61962 0
M  V30 1096 H 104.265 4.95306 4.89536 0
M  V30 1097 H 101.892 5.63154 5.10648 0
M  V30 1098 N 103.467 -1.45747 0.599634 0
M  V30 1099 C 104.716 -2.01502 0.0893511 0
M  V30 1100 C 105.029 -1.4748 -1.28488 0
M  V30 1101 O 106.235 -1.95161 -1.88745 0
M  V30 1102 C 104.691 -3.59735 0.109082 0
M  V30 1103 C 104.299 -4.22754 1.48267 0
M  V30 1104 C 106.043 -4.23085 -0.346374 0
M  V30 1105 C 103.95 -5.73115 1.45921 0
M  V30 1106 H 102.88 -0.753417 0.0296347 0
M  V30 1107 H 105.531 -1.67303 0.753788 0
M  V30 1108 H 103.913 -3.91087 -0.621854 0
M  V30 1109 H 105.087 -4.02987 2.23468 0
M  V30 1110 H 103.402 -3.71567 1.87955 0
M  V30 1111 H 105.999 -5.33327 -0.38298 0
M  V30 1112 H 106.342 -3.93201 -1.36743 0
M  V30 1113 H 106.875 -3.9642 0.331038 0
M  V30 1114 H 103.614 -6.07685 2.45762 0
M  V30 1115 H 103.134 -5.95097 0.749665 0
M  V30 1116 H 104.813 -6.3616 1.17941 0
M  V30 1117 N 104.945 -0.338344 -1.53925 0
M  V30 1118 C 105.892 0.520845 -2.24846 0
M  V30 1119 C 106.862 1.09976 -1.24477 0
M  V30 1120 O 108.047 1.13735 -1.53196 0
M  V30 1121 C 105.187 1.6685 -3.02084 0
M  V30 1122 C 104.3 1.11739 -4.17299 0
M  V30 1123 C 103.435 2.23193 -4.82036 0
M  V30 1124 C 102.474 1.65407 -5.89328 0
M  V30 1125 N 101.611 2.70582 -6.47866 0
M  V30 1126 H 106.451 -0.0904881 -2.97863 0
M  V30 1127 H 103.988 -0.0564282 -1.46992 0
M  V30 1128 H 105.946 2.34407 -3.45122 0
M  V30 1129 H 104.576 2.2509 -2.31375 0
M  V30 1130 H 103.628 0.332919 -3.7894 0
M  V30 1131 H 104.94 0.654677 -4.94485 0
M  V30 1132 H 104.094 2.98626 -5.28117 0
M  V30 1133 H 102.833 2.72807 -4.04262 0
M  V30 1134 H 101.838 0.884779 -5.42634 0
M  V30 1135 H 103.063 1.16652 -6.69006 0
M  V30 1136 H 101.009 3.1946 -5.72959 0
M  V30 1137 H 100.926 2.28917 -7.20509 0
M  V30 1138 H 102.194 3.45799 -6.98601 0
M  V30 1139 N 106.423 1.57458 -0.0668435 0
M  V30 1140 C 107.839 1.56947 0.289772 0
M  V30 1141 C 108.039 1.07584 1.70376 0
M  V30 1142 O 107.095 0.739486 2.41429 0
M  V30 1143 C 108.408 3.0052 0.103943 0
M  V30 1144 C 109.956 3.12517 0.173857 0
M  V30 1145 C 110.431 4.57997 0.0163682 0
M  V30 1146 N 111.922 4.63144 0.0721352 0
M  V30 1147 C 112.657 5.73394 -0.0253794 0
M  V30 1148 N 112.153 6.92576 -0.176133 0
M  V30 1149 N 113.946 5.62091 0.0313305 0
M  V30 1150 H 106.097 1.87863 -0.991027 0
M  V30 1151 H 108.36 0.86583 -0.38606 0
M  V30 1152 H 108.066 3.40729 -0.871572 0
M  V30 1153 H 107.94 3.67304 0.858366 0
M  V30 1154 H 110.327 2.72197 1.13985 0
M  V30 1155 H 110.408 2.48381 -0.611586 0
M  V30 1156 H 110.052 4.99005 -0.946374 0
M  V30 1157 H 109.982 5.20158 0.821153 0
M  V30 1158 H 112.473 3.77436 0.187263 0
M  V30 1159 H 112.786 7.72418 -0.242821 0
M  V30 1160 H 111.131 6.94678 -0.211429 0
M  V30 1161 H 114.322 4.67867 0.147773 0
M  V30 1162 H 114.495 6.47982 -0.048121 0
M  V30 1163 N 107.901 -0.206675 1.56239 0
M  V30 1164 C 109.126 -0.949474 1.8439 0
M  V30 1165 C 109.551 -1.76549 0.649016 0
M  V30 1166 O 108.909 -1.76782 -0.402231 0
M  V30 1167 C 108.957 -1.83078 3.10668 0
M  V30 1168 O 108.061 -2.9281 2.90407 0
M  V30 1169 H 107.402 -0.268033 0.607499 0
M  V30 1170 H 109.932 -0.215488 2.03462 0
M  V30 1171 H 109.942 -2.2377 3.41161 0
M  V30 1172 H 108.617 -1.23112 3.97261 0
M  V30 1173 H 107.194 -2.55956 2.71184 0
M  V30 1174 N 109.379 -1.50304 -0.473955 0
M  V30 1175 C 110.656 -1.51667 -1.23518 0
M  V30 1176 C 111.036 -0.259701 -2.09496 0
M  V30 1177 O 110.384 0.756986 -2.15597 0
M  V30 1178 C 110.594 -2.81082 -2.06868 0
M  V30 1179 C 111.942 -3.31631 -2.65153 0
M  V30 1180 O 112.966 -2.82384 -2.17113 0
M  V30 1181 O 111.825 -4.17471 -3.52675 0
M  V30 1182 H 108.919 -0.60822 -0.560355 0
M  V30 1183 H 111.465 -1.62592 -0.486011 0
M  V30 1184 H 110.237 -3.64041 -1.4349 0
M  V30 1185 H 109.86 -2.73146 -2.88924 0
M  V30 1186 N 110.857 0.726932 -1.39834 0
M  V30 1187 C 111.82 1.82269 -1.38962 0
M  V30 1188 C 112.82 1.58248 -0.285334 0
M  V30 1189 O 114.01 1.65499 -0.54366 0
M  V30 1190 C 111.142 3.20186 -1.17019 0
M  V30 1191 H 112.335 1.84443 -2.36476 0
M  V30 1192 H 109.888 0.931416 -1.25516 0
M  V30 1193 H 110.623 3.23669 -0.202204 0
M  V30 1194 H 110.408 3.3902 -1.96998 0
M  V30 1195 H 111.898 4.00235 -1.1917 0
M  V30 1196 N 112.336 1.25143 0.95797 0
M  V30 1197 C 113.266 1.07711 2.07173 0
M  V30 1198 C 114.247 -0.0128462 1.70095 0
M  V30 1199 O 115.432 0.156061 1.93572 0
M  V30 1200 C 112.562 0.691503 3.40346 0
M  V30 1201 C 111.516 1.73132 3.9142 0
M  V30 1202 C 110.842 1.20049 5.21049 0
M  V30 1203 C 112.142 3.1294 4.1817 0
M  V30 1204 H 113.836 2.00873 2.22014 0
M  V30 1205 H 111.382 0.967191 1.06684 0
M  V30 1206 H 113.335 0.556505 4.17709 0
M  V30 1207 H 112.059 -0.275819 3.25433 0
M  V30 1208 H 110.718 1.8547 3.16222 0
M  V30 1209 H 110.366 0.223499 5.02503 0
M  V30 1210 H 110.066 1.89545 5.56189 0
M  V30 1211 H 111.59 1.07782 6.01012 0
M  V30 1212 H 113.004 3.03775 4.86203 0
M  V30 1213 H 111.401 3.79875 4.64559 0
M  V30 1214 H 112.471 3.6025 3.24573 0
M  V30 1215 N 113.814 -1.1601 1.06675 0
M  V30 1216 C 115.039 -1.91068 0.806706 0
M  V30 1217 C 115.464 -1.77112 -0.633485 0
M  V30 1218 O 114.822 -1.09908 -1.44187 0
M  V30 1219 C 114.87 -3.39655 1.21106 0
M  V30 1220 O 113.974 -4.10893 0.352189 0
M  V30 1221 H 113.315 -0.595125 0.294486 0
M  V30 1222 H 115.845 -1.46955 1.42356 0
M  V30 1223 H 115.855 -3.90434 1.18428 0
M  V30 1224 H 114.53 -3.49132 2.26008 0
M  V30 1225 H 113.107 -3.70285 0.440868 0
M  V30 1226 N 115.292 -0.849877 -1.32721 0
M  V30 1227 C 116.52 -0.464754 -2.01613 0
M  V30 1228 C 116.935 0.937191 -1.63897 0
M  V30 1229 O 116.292 1.61081 -0.857856 0
M  V30 1230 C 116.343 -0.588638 -3.56675 0
M  V30 1231 O 116.064 -1.93535 -3.93034 0
M  V30 1232 C 117.565 -0.2019 -4.4284 0
M  V30 1233 H 114.785 -0.183215 -0.645502 0
M  V30 1234 H 117.329 -1.1455 -1.69407 0
M  V30 1235 H 115.484 0.0443159 -3.87375 0
M  V30 1236 H 115.898 -1.92871 -4.87751 0
M  V30 1237 H 117.372 -0.339599 -5.50954 0
M  V30 1238 H 117.849 0.857224 -4.30753 0
M  V30 1239 H 118.455 -0.809733 -4.17521 0
M  V30 1240 N 116.77 1.45427 -0.607355 0
M  V30 1241 C 117.718 2.32269 0.12411 0
M  V30 1242 C 118.712 1.45955 0.859854 0
M  V30 1243 O 119.918 1.6244 0.775447 0
M  V30 1244 H 116.293 0.749691 0.0588839 0
M  V30 1245 H 118.264 2.91743 -0.626762 0
M  V30 1246 C 117.013 3.29567 1.1082 0
M  V30 1247 H 116.336 3.95978 0.551492 0
M  V30 1248 H 117.776 3.93061 1.58995 0
M  V30 1249 C 116.235 2.56722 2.18164 0
M  V30 1250 O 116.765 2.34842 3.25902 0
M  V30 1251 N 114.971 2.16861 1.93442 0
M  V30 1252 H 114.518 2.34855 1.05834 0
M  V30 1253 H 114.476 1.68444 2.65469 0
M  V30 1254 N 118.248 0.346503 1.53744 0
M  V30 1255 C 119.198 -0.524953 2.21874 0
M  V30 1256 C 120.182 -1.06376 1.20718 0
M  V30 1257 O 121.374 -0.996972 1.46251 0
M  V30 1258 C 118.503 -1.6739 2.99726 0
M  V30 1259 C 117.589 -1.14888 4.08242 0
M  V30 1260 N 117.98 -0.345329 5.0462 0
M  V30 1261 C 116.278 -1.4255 4.22606 0
M  V30 1262 C 116.979 -0.0600706 5.81669 0
M  V30 1263 N 115.955 -0.65252 5.39669 0
M  V30 1264 H 119.757 0.0960091 2.93743 0
M  V30 1265 H 117.271 0.15352 1.61673 0
M  V30 1266 H 119.268 -2.3102 3.47038 0
M  V30 1267 H 117.928 -2.29811 2.29384 0
M  V30 1268 H 118.939 0.0138439 5.17898 0
M  V30 1269 H 115.616 -2.05389 3.63486 0
M  V30 1270 H 117.006 0.588321 6.69319 0
M  V30 1271 N 119.726 -1.57421 0.075193 0
M  V30 1272 C 120.974 -1.93236 -0.591974 0
M  V30 1273 C 121.295 -0.956241 -1.69944 0
M  V30 1274 O 120.565 -0.00494792 -1.95899 0
M  V30 1275 H 119.145 -0.713355 -0.22166 0
M  V30 1276 H 121.807 -1.9444 0.133848 0
M  V30 1277 H 120.903 -2.95131 -1.01509 0
M  V30 1278 N 121.204 0.198386 -1.56346 0
M  V30 1279 C 122.154 1.2499 -1.90687 0
M  V30 1280 C 123.138 1.41158 -0.772217 0
M  V30 1281 O 124.33 1.43584 -1.03502 0
M  V30 1282 C 121.459 2.59542 -2.24706 0
M  V30 1283 C 120.545 2.47181 -3.44619 0
M  V30 1284 N 120.936 2.04495 -4.62618 0
M  V30 1285 C 119.234 2.78082 -3.48692 0
M  V30 1286 C 119.935 2.03945 -5.44776 0
M  V30 1287 N 118.911 2.45323 -4.85095 0
M  V30 1288 H 122.713 0.911149 -2.7942 0
M  V30 1289 H 120.227 0.40684 -1.57221 0
M  V30 1290 H 122.224 3.3549 -2.47491 0
M  V30 1291 H 120.884 2.94244 -1.37298 0
M  V30 1292 H 121.895 1.75256 -4.87345 0
M  V30 1293 H 118.572 3.17002 -2.71691 0
M  V30 1294 H 119.962 1.72872 -6.4928 0
M  V30 1295 N 122.682 1.50554 0.465978 0
M  V30 1296 C 123.629 1.6979 1.56333 0
M  V30 1297 C 124.599 0.539239 1.57103 0
M  V30 1298 O 125.784 0.770401 1.74555 0
M  V30 1299 C 122.924 1.80273 2.94271 0
M  V30 1300 C 122.037 3.07674 3.0325 0
M  V30 1301 C 121.172 3.08922 4.32135 0
M  V30 1302 C 120.211 4.30755 4.34875 0
M  V30 1303 N 119.348 4.29714 5.55239 0
M  V30 1304 H 124.188 2.63472 1.39235 0
M  V30 1305 H 121.725 1.30602 0.676873 0
M  V30 1306 H 123.683 1.84332 3.74269 0
M  V30 1307 H 122.313 0.900258 3.09992 0
M  V30 1308 H 121.365 3.13062 2.16094 0
M  V30 1309 H 122.677 3.97642 3.01135 0
M  V30 1310 H 121.831 3.11738 5.20485 0
M  V30 1311 H 120.57 2.16792 4.36866 0
M  V30 1312 H 119.575 4.28146 3.44922 0
M  V30 1313 H 120.8 5.24117 4.31831 0
M  V30 1314 H 118.746 3.4044 5.60746 0
M  V30 1315 H 118.663 5.13456 5.54886 0
M  V30 1316 H 119.931 4.36683 6.457 0
M  V30 1317 N 124.16 -0.719506 1.40217 0
M  V30 1318 C 125.406 -1.48152 1.38488 0
M  V30 1319 C 125.739 -1.94195 -0.0141867 0
M  V30 1320 O 125.014 -1.67884 -0.982096 0
M  V30 1321 C 125.297 -2.71035 2.37091 0
M  V30 1322 C 125.15 -2.30912 3.86005 0
M  V30 1323 C 126.469 -3.73182 2.33288 0
M  V30 1324 H 123.588 -0.537395 0.504357 0
M  V30 1325 H 126.23 -0.821472 1.71324 0
M  V30 1326 H 124.38 -3.27352 2.0922 0
M  V30 1327 H 126.052 -1.80107 4.24687 0
M  V30 1328 H 124.295 -1.62958 4.02029 0
M  V30 1329 H 124.966 -3.18978 4.50508 0
M  V30 1330 H 127.442 -3.26485 2.57966 0
M  V30 1331 H 126.318 -4.56806 3.04334 0
M  V30 1332 H 126.579 -4.21202 1.34317 0
M  V30 1333 N 125.638 -1.25649 -0.95132 0
M  V30 1334 C 126.884 -1.10757 -1.69884 0
M  V30 1335 C 127.217 0.350061 -1.91019 0
M  V30 1336 O 126.492 1.25783 -1.48354 0
M  V30 1337 C 126.775 -1.86606 -3.07978 0
M  V30 1338 C 126.628 -3.40217 -2.94232 0
M  V30 1339 C 127.947 -1.65182 -4.07925 0
M  V30 1340 H 125.066 -0.40374 -0.616574 0
M  V30 1341 H 127.708 -1.54521 -1.10558 0
M  V30 1342 H 125.858 -1.49409 -3.58621 0
M  V30 1343 H 127.53 -3.87108 -2.50889 0
M  V30 1344 H 125.773 -3.67759 -2.30078 0
M  V30 1345 H 126.444 -3.88505 -3.92133 0
M  V30 1346 H 128.92 -1.9757 -3.66204 0
M  V30 1347 H 127.796 -2.20683 -5.02583 0
M  V30 1348 H 128.057 -0.593933 -4.38092 0
M  V30 1349 N 127.117 1.15442 -1.07289 0
M  V30 1350 C 128.027 2.23786 -0.704057 0
M  V30 1351 C 129.043 1.7166 0.284413 0
M  V30 1352 O 130.219 2.00972 0.131205 0
M  V30 1353 C 127.284 3.46535 -0.106792 0
M  V30 1354 C 126.345 4.13654 -1.14842 0
M  V30 1355 C 125.578 5.30544 -0.57956 0
M  V30 1356 O 125.801 5.67187 0.604585 0
M  V30 1357 O 124.735 5.87154 -1.32414 0
M  V30 1358 H 128.561 2.57664 -1.60757 0
M  V30 1359 H 126.146 1.23152 -0.845803 0
M  V30 1360 H 128.028 4.20804 0.224048 0
M  V30 1361 H 126.703 3.14407 0.770049 0
M  V30 1362 H 125.61 3.4131 -1.5316 0
M  V30 1363 H 126.943 4.49861 -1.99714 0
M  V30 1364 N 128.595 0.856903 1.32268 0
M  V30 1365 C 129.525 0.31858 2.31316 0
M  V30 1366 C 130.506 -0.583487 1.59779 0
M  V30 1367 O 131.691 -0.503259 1.87566 0
M  V30 1368 C 128.821 -0.491979 3.43798 0
M  V30 1369 C 127.775 0.315849 4.26833 0
M  V30 1370 C 127.101 -0.619586 5.31098 0
M  V30 1371 C 128.401 1.54282 4.98993 0
M  V30 1372 H 130.095 1.14621 2.76591 0
M  V30 1373 H 127.641 0.552613 1.32974 0
M  V30 1374 H 129.594 -0.879012 4.1213 0
M  V30 1375 H 128.318 -1.35299 2.97257 0
M  V30 1376 H 126.977 0.684664 3.6015 0
M  V30 1377 H 126.625 -1.47751 4.8081 0
M  V30 1378 H 126.325 -0.0830621 5.87541 0
M  V30 1379 H 127.849 -1.00375 6.02293 0
M  V30 1380 H 129.263 1.22796 5.59995 0
M  V30 1381 H 127.66 2.01745 5.65172 0
M  V30 1382 H 128.73 2.30285 4.26728 0
M  V30 1383 N 130.073 -1.45103 0.615059 0
M  V30 1384 C 131.319 -2.02483 0.113347 0
M  V30 1385 C 131.652 -1.48146 -1.25564 0
M  V30 1386 O 130.927 -0.659104 -1.82992 0
M  V30 1387 C 131.21 -3.60005 0.0825278 0
M  V30 1388 C 131.063 -4.2466 1.48271 0
M  V30 1389 C 132.382 -4.35972 -0.601401 0
M  V30 1390 H 129.501 -0.735764 0.0426632 0
M  V30 1391 H 132.143 -1.72868 0.788461 0
M  V30 1392 H 130.293 -3.85367 -0.492378 0
M  V30 1393 H 131.965 -4.10458 2.10527 0
M  V30 1394 H 130.208 -3.82772 2.04127 0
M  V30 1395 H 130.879 -5.336 1.41332 0
M  V30 1396 H 133.355 -4.15947 -0.112666 0
M  V30 1397 H 132.231 -5.45697 -0.592097 0
M  V30 1398 H 132.492 -4.09391 -1.66887 0
M  V30 1399 N 131.551 -0.354651 -1.53558 0
M  V30 1400 C 132.514 0.484566 -2.24019 0
M  V30 1401 C 133.514 1.01861 -1.24422 0
M  V30 1402 O 134.704 0.906097 -1.4878 0
M  V30 1403 C 131.836 1.67615 -2.96847 0
M  V30 1404 H 133.029 -0.131843 -2.9961 0
M  V30 1405 H 130.582 -0.106165 -1.55939 0
M  V30 1406 H 131.317 2.33095 -2.25471 0
M  V30 1407 H 131.102 1.30029 -3.69912 0
M  V30 1408 H 132.592 2.27114 -3.50441 0
M  V30 1409 N 133.029 1.57378 -0.0835403 0
M  V30 1410 C 133.939 2.16897 0.894021 0
M  V30 1411 C 134.955 1.13528 1.31861 0
M  V30 1412 O 136.131 1.45848 1.3889 0
M  V30 1413 C 133.196 2.72831 2.13925 0
M  V30 1414 C 132.257 3.91115 1.76997 0
M  V30 1415 C 131.49 4.44371 2.95584 0
M  V30 1416 O 131.713 3.96596 4.09961 0
M  V30 1417 O 130.647 5.35549 2.74719 0
M  V30 1418 H 134.473 3.00814 0.417679 0
M  V30 1419 H 132.058 1.48741 0.140181 0
M  V30 1420 H 133.94 3.0863 2.86924 0
M  V30 1421 H 132.615 1.91967 2.60635 0
M  V30 1422 H 131.522 3.60148 1.01214 0
M  V30 1423 H 132.855 4.73307 1.3506 0
M  V30 1424 N 134.507 -0.190092 1.56449 0
M  V30 1425 C 135.44 -1.26375 1.90012 0
M  V30 1426 C 136.418 -1.43705 0.760765 0
M  V30 1427 O 137.602 -1.59014 1.01226 0
M  V30 1428 C 134.729 -2.62962 2.13468 0
M  V30 1429 C 133.775 -2.62474 3.36169 0
M  V30 1430 S 134.608 -2.13412 4.91137 0
M  V30 1431 C 135.764 -3.51812 5.17667 0
M  V30 1432 H 135.997 -0.977181 2.80782 0
M  V30 1433 H 133.53 -0.393814 1.49293 0
M  V30 1434 H 135.488 -3.41583 2.27664 0
M  V30 1435 H 134.149 -2.88828 1.23439 0
M  V30 1436 H 133.342 -3.62918 3.49723 0
M  V30 1437 H 132.944 -1.91937 3.20992 0
M  V30 1438 H 135.236 -4.47706 5.08494 0
M  V30 1439 H 136.179 -3.43148 6.19399 0
M  V30 1440 H 136.587 -3.46956 4.45288 0
M  V30 1441 N 135.985 -1.50799 -0.457987 0
M  V30 1442 C 137.262 -1.52968 -1.21902 0
M  V30 1443 C 137.642 -0.281906 -2.09209 0
M  V30 1444 O 136.99 0.734076 -2.16388 0
M  V30 1445 C 137.2 -2.8326 -2.03875 0
M  V30 1446 C 138.548 -3.34425 -2.6162 0
M  V30 1447 O 139.572 -2.8467 -2.14106 0
M  V30 1448 O 138.431 -4.21188 -3.48228 0
M  V30 1449 H 135.525 -0.614129 -0.553873 0
M  V30 1450 H 138.071 -1.63098 -0.468739 0
M  V30 1451 H 136.843 -3.65543 -1.39621 0
M  V30 1452 H 136.466 -2.76195 -2.8601 0
M  V30 1453 N 137.463 0.71206 -1.40597 0
M  V30 1454 C 138.711 1.46907 -1.38791 0
M  V30 1455 C 139.032 1.94998 0.00780391 0
M  V30 1456 O 138.302 1.70587 0.963174 0
M  V30 1457 H 136.882 0.545043 -0.51082 0
M  V30 1458 H 139.544 0.843882 -1.75683 0
M  V30 1459 H 138.64 2.34021 -2.06496 0
M  V30 1460 N 138.941 1.26152 0.944643 0
M  V30 1461 C 140.19 1.10883 1.68487 0
M  V30 1462 C 140.503 -0.348153 1.92477 0
M  V30 1463 O 141.709 -0.621459 2.64292 0
M  V30 1464 C 140.165 1.93624 3.03377 0
M  V30 1465 C 139.773 3.43875 2.87148 0
M  V30 1466 C 141.517 1.86954 3.81115 0
M  V30 1467 C 139.424 4.18875 4.1749 0
M  V30 1468 H 138.354 0.41135 0.631907 0
M  V30 1469 H 141.005 1.50433 1.05082 0
M  V30 1470 H 139.387 1.46904 3.67743 0
M  V30 1471 H 140.561 3.98338 2.31653 0
M  V30 1472 H 138.876 3.51744 2.22856 0
M  V30 1473 H 141.473 2.40275 4.77673 0
M  V30 1474 H 141.816 0.839518 4.07747 0
M  V30 1475 H 142.349 2.31477 3.23517 0
M  V30 1476 H 139.088 5.22332 3.96043 0
M  V30 1477 H 138.608 3.69193 4.72712 0
M  V30 1478 H 140.287 4.27134 4.85968 0
M  V30 1479 N 140.419 -1.14872 1.07899 0
M  V30 1480 C 141.351 -2.19425 0.662231 0
M  V30 1481 C 142.364 -1.60231 -0.288079 0
M  V30 1482 O 143.553 -1.78336 -0.076534 0
M  V30 1483 C 140.653 -3.38867 -0.0470695 0
M  V30 1484 C 139.826 -4.27597 0.920831 0
M  V30 1485 C 138.885 -5.25616 0.247805 0
M  V30 1486 O 137.911 -5.62189 0.890599 0
M  V30 1487 N 139.113 -5.71746 -1.00435 0
M  V30 1488 H 141.878 -2.55797 1.56166 0
M  V30 1489 H 139.439 -1.30042 0.964404 0
M  V30 1490 H 141.431 -4.01497 -0.50813 0
M  V30 1491 H 140.001 -3.00864 -0.848523 0
M  V30 1492 H 139.221 -3.61982 1.56087 0
M  V30 1493 H 140.509 -4.83748 1.57688 0
M  V30 1494 H 139.907 -5.44153 -1.54642 0
M  V30 1495 H 138.464 -6.36389 -1.40899 0
M  V30 1496 N 141.898 -0.863906 -1.31812 0
M  V30 1497 C 143.128 -0.485406 -2.00817 0
M  V30 1498 C 143.536 0.925007 -1.65046 0
M  V30 1499 O 142.879 1.61653 -0.872574 0
M  V30 1500 C 142.941 -0.555589 -3.55181 0
M  V30 1501 C 142.605 -1.92654 -4.14407 0
M  V30 1502 C 143.602 -2.89324 -4.31958 0
M  V30 1503 C 141.287 -2.2262 -4.50273 0
M  V30 1504 C 143.281 -4.14108 -4.84555 0
M  V30 1505 C 140.968 -3.47654 -5.02573 0
M  V30 1506 C 141.966 -4.43214 -5.19664 0
M  V30 1507 O 141.654 -5.66033 -5.70843 0
M  V30 1508 H 141.386 -0.188224 -0.649267 0
M  V30 1509 H 143.94 -1.16514 -1.69156 0
M  V30 1510 H 142.17 0.181037 -3.86276 0
M  V30 1511 H 143.859 -0.19138 -4.05449 0
M  V30 1512 H 144.625 -2.6748 -4.04573 0
M  V30 1513 H 140.504 -1.4902 -4.3625 0
M  V30 1514 H 144.048 -4.88703 -4.9781 0
M  V30 1515 H 139.945 -3.69345 -5.29391 0
M  V30 1516 H 140.713 -5.6812 -5.89222 0
M  V30 1517 N 143.376 1.44774 -0.622745 0
M  V30 1518 C 144.624 2.01721 -0.123655 0
M  V30 1519 C 144.945 1.49172 1.25589 0
M  V30 1520 O 144.215 0.691974 1.83272 0
M  V30 1521 H 142.795 0.745777 -0.0427225 0
M  V30 1522 H 145.457 1.77382 -0.807559 0
M  V30 1523 H 144.553 3.11984 -0.0849534 0
M  V30 1524 N 144.854 0.36279 1.53368 0
M  V30 1525 C 146.27 0.0116182 1.59596 0
M  V30 1526 C 146.47 -1.47012 1.37803 0
M  V30 1527 O 145.526 -2.23136 1.18181 0
M  V30 1528 C 146.839 0.465052 2.97082 0
M  V30 1529 C 148.387 0.419033 3.10182 0
M  V30 1530 C 148.862 0.848235 4.50077 0
M  V30 1531 N 150.353 0.803183 4.56183 0
M  V30 1532 C 151.088 1.107 5.62613 0
M  V30 1533 N 150.584 1.47996 6.76808 0
M  V30 1534 N 152.377 1.02998 5.52583 0
M  V30 1535 H 144.528 1.32775 1.65785 0
M  V30 1536 H 146.791 0.542518 0.777417 0
M  V30 1537 H 146.497 1.49892 3.18159 0
M  V30 1538 H 146.371 -0.149786 3.76902 0
M  V30 1539 H 148.758 -0.605696 2.88817 0
M  V30 1540 H 148.839 1.06933 2.32377 0
M  V30 1541 H 148.483 1.87107 4.7218 0
M  V30 1542 H 148.413 0.175218 5.26308 0
M  V30 1543 H 150.904 0.52838 3.74188 0
M  V30 1544 H 151.217 1.69613 7.53957 0
M  V30 1545 H 149.562 1.51859 6.78206 0
M  V30 1546 H 152.753 0.737817 4.62249 0
M  V30 1547 H 152.926 1.2701 6.35431 0
M  V30 1548 N 146.332 -1.57332 0.0918853 0
M  V30 1549 C 147.557 -1.98995 -0.584442 0
M  V30 1550 C 147.982 -0.970528 -1.61128 0
M  V30 1551 O 147.34 0.0613904 -1.81196 0
M  V30 1552 C 147.388 -3.39636 -1.21161 0
M  V30 1553 O 146.492 -3.40447 -2.32744 0
M  V30 1554 H 145.833 -0.647165 -0.148572 0
M  V30 1555 H 148.363 -2.03873 0.172347 0
M  V30 1556 H 148.373 -3.7726 -1.55367 0
M  V30 1557 H 147.048 -4.13356 -0.459313 0
M  V30 1558 H 145.625 -3.14614 -2.0018 0
M  V30 1559 N 147.81 0.181792 -1.56548 0
M  V30 1560 C 149.058 0.89832 -1.81038 0
M  V30 1561 C 149.379 1.83232 -0.667164 0
M  V30 1562 O 148.649 1.93372 0.313673 0
M  V30 1563 H 147.229 0.33471 -0.667816 0
M  V30 1564 H 149.891 0.184116 -1.94028 0
M  V30 1565 H 148.987 1.4815 -2.74696 0
M  V30 1566 N 149.288 1.51039 0.449983 0
M  V30 1567 C 150.537 1.62317 1.19733 0
M  V30 1568 C 150.85 0.339101 1.92638 0
M  V30 1569 O 152.056 0.331069 2.69474 0
M  V30 1570 C 150.512 2.86608 2.17678 0
M  V30 1571 C 150.12 4.21972 1.50479 0
M  V30 1572 C 151.864 3.07239 2.92924 0
M  V30 1573 C 149.771 5.37426 2.46834 0
M  V30 1574 H 148.701 0.604532 0.450619 0
M  V30 1575 H 151.352 1.77494 0.465625 0
M  V30 1576 H 149.734 2.65037 2.94231 0
M  V30 1577 H 150.908 4.53878 0.795716 0
M  V30 1578 H 149.223 4.07117 0.874344 0
M  V30 1579 H 151.82 3.90668 3.65079 0
M  V30 1580 H 152.163 2.19807 3.5354 0
M  V30 1581 H 152.696 3.29091 2.23481 0
M  V30 1582 H 149.435 6.27079 1.90926 0
M  V30 1583 H 148.955 5.09912 3.15832 0
M  V30 1584 H 150.634 5.68862 3.08228 0
M  V30 1585 N 150.766 -0.704594 1.40972 0
M  V30 1586 C 151.994 -1.49354 1.43182 0
M  V30 1587 C 152.409 -1.88768 0.0345508 0
M  V30 1588 O 151.766 -1.56184 -0.944081 0
M  V30 1589 C 151.817 -2.76187 2.33244 0
M  V30 1590 O 151.538 -2.38436 3.67532 0
M  V30 1591 C 153.039 -3.7 2.44162 0
M  V30 1592 H 150.259 -0.460559 0.487982 0
M  V30 1593 H 152.803 -0.868261 1.85153 0
M  V30 1594 H 150.958 -3.34974 1.94606 0
M  V30 1595 H 151.372 -3.20126 4.15475 0
M  V30 1596 H 152.846 -4.55803 3.11364 0
M  V30 1597 H 153.323 -4.13867 1.47006 0
M  V30 1598 H 153.929 -3.17121 2.83398 0
M  V30 1599 N 152.244 -1.26651 -0.937939 0
M  V30 1600 C 153.174 -1.10993 -2.05433 0
M  V30 1601 C 154.155 -0.0142161 -1.70094 0
M  V30 1602 O 155.34 -0.186837 -1.93299 0
M  V30 1603 C 152.47 -0.745561 -3.39203 0
M  V30 1604 C 151.424 -1.79337 -3.88616 0
M  V30 1605 C 150.75 -1.28324 -5.19073 0
M  V30 1606 C 152.05 -3.19553 -4.13138 0
M  V30 1607 H 153.744 -2.0438 -2.1879 0
M  V30 1608 H 151.29 -0.984041 -1.05131 0
M  V30 1609 H 153.243 -0.622888 -4.16771 0
M  V30 1610 H 151.967 0.22401 -3.25831 0
M  V30 1611 H 150.626 -1.90477 -3.13231 0
M  V30 1612 H 150.274 -0.303414 -5.02084 0
M  V30 1613 H 149.974 -1.98369 -5.53103 0
M  V30 1614 H 151.498 -1.1733 -5.99221 0
M  V30 1615 H 152.912 -3.11471 -4.81309 0
M  V30 1616 H 151.309 -3.87218 -4.58457 0
M  V30 1617 H 152.379 -3.65368 -3.18801 0
M  V30 1618 N 153.722 1.14298 -1.08507 0
M  V30 1619 C 154.97 1.84993 -0.813763 0
M  V30 1620 C 155.291 1.83405 0.662393 0
M  V30 1621 O 154.561 1.28319 1.48024 0
M  V30 1622 H 153.141 0.684966 -0.298045 0
M  V30 1623 H 155.803 1.385 -1.37126 0
M  V30 1624 H 154.899 2.89788 -1.15884 0
M  V30 1625 N 155.201 0.870884 1.31352 0
M  V30 1626 C 156.447 0.482987 1.96965 0
M  V30 1627 C 156.78 -0.962462 1.68672 0
M  V30 1628 O 156.055 -1.6779 0.98371 0
M  V30 1629 C 156.338 0.741752 3.52378 0
M  V30 1630 C 156.191 2.2368 3.9024 0
M  V30 1631 C 157.51 0.208838 4.39604 0
M  V30 1632 H 154.629 0.176955 0.715441 0
M  V30 1633 H 157.271 1.09229 1.55464 0
M  V30 1634 H 155.421 0.223149 3.87859 0
M  V30 1635 H 157.093 2.82273 3.64856 0
M  V30 1636 H 155.336 2.70901 3.38814 0
M  V30 1637 H 156.007 2.3685 4.98604 0
M  V30 1638 H 158.483 0.652529 4.10952 0
M  V30 1639 H 157.359 0.419336 5.47296 0
M  V30 1640 H 157.62 -0.889275 4.33064 0
M  V30 1641 N 156.679 -1.44442 0.630414 0
M  V30 1642 C 157.609 -2.33418 -0.0618083 0
M  V30 1643 C 158.59 -1.48165 -0.835541 0
M  V30 1644 O 159.775 -1.76886 -0.801564 0
M  V30 1645 C 156.905 -3.31222 -1.04449 0
M  V30 1646 C 155.859 -4.26288 -0.382436 0
M  V30 1647 C 155.185 -5.13954 -1.47497 0
M  V30 1648 C 156.485 -5.1744 0.710865 0
M  V30 1649 H 158.179 -2.91548 0.681184 0
M  V30 1650 H 155.725 -1.40191 0.329026 0
M  V30 1651 H 157.678 -3.92351 -1.53748 0
M  V30 1652 H 156.402 -2.71299 -1.81836 0
M  V30 1653 H 155.061 -3.6649 0.0899054 0
M  V30 1654 H 154.709 -4.50385 -2.2397 0
M  V30 1655 H 154.409 -5.7837 -1.03737 0
M  V30 1656 H 155.933 -5.77955 -1.96979 0
M  V30 1657 H 157.347 -5.72509 0.300996 0
M  V30 1658 H 155.744 -5.90455 1.07156 0
M  V30 1659 H 156.814 -4.58496 1.57829 0
M  V30 1660 N 158.157 -0.370918 -1.53173 0
M  V30 1661 C 159.403 0.217423 -2.01631 0
M  V30 1662 C 159.736 1.47983 -1.25756 0
M  V30 1663 O 159.011 1.91274 -0.352764 0
M  V30 1664 C 159.294 0.503982 -3.56556 0
M  V30 1665 C 159.147 -0.77243 -4.43118 0
M  V30 1666 C 160.466 1.30234 -4.20389 0
M  V30 1667 H 157.585 0.0775486 -0.732909 0
M  V30 1668 H 160.227 -0.496863 -1.83388 0
M  V30 1669 H 158.377 1.11248 -3.72231 0
M  V30 1670 H 160.049 -1.4098 -4.39229 0
M  V30 1671 H 158.292 -1.39167 -4.10871 0
M  V30 1672 H 158.963 -0.526815 -5.4948 0
M  V30 1673 H 161.439 0.787546 -4.08579 0
M  V30 1674 H 160.315 1.47158 -5.28806 0
M  V30 1675 H 160.576 2.31237 -3.76805 0
M  V30 1676 N 159.635 1.57281 -0.100228 0
M  V30 1677 C 161.046 1.81725 0.428107 0
M  V30 1678 C 161.397 1.01619 1.67833 0
M  V30 1679 O 160.522 0.247098 2.14985 0
M  V30 1680 C 161.117 3.29617 0.78347 0
M  V30 1681 C 159.676 3.54808 1.25653 0
M  V30 1682 C 158.823 2.76118 0.255752 0
M  V30 1683 H 161.774 1.55324 -0.325608 0
M  V30 1684 H 161.795 3.4322 1.64256 0
M  V30 1685 H 161.307 3.87893 -0.12665 0
M  V30 1686 H 159.408 3.01868 2.18418 0
M  V30 1687 H 159.521 4.63443 1.21482 0
M  V30 1688 H 157.885 2.43745 0.738956 0
M  V30 1689 H 158.668 3.37145 -0.647136 0
M  V30 1690 N 161.113 -0.173488 1.56642 0
M  V30 1691 C 162.063 -1.21941 1.92651 0
M  V30 1692 C 163.047 -1.39912 0.794577 0
M  V30 1693 O 164.239 -1.41919 1.05773 0
M  V30 1694 C 161.368 -2.55935 2.28806 0
M  V30 1695 C 160.454 -2.41667 3.48508 0
M  V30 1696 N 160.845 -1.9711 4.65813 0
M  V30 1697 C 159.143 -2.72499 3.53072 0
M  V30 1698 C 159.844 -1.95253 5.47952 0
M  V30 1699 N 158.82 -2.37575 4.88937 0
M  V30 1700 H 162.622 -0.866581 2.80834 0
M  V30 1701 H 160.136 -0.381776 1.57849 0
M  V30 1702 H 162.133 -3.31511 2.52797 0
M  V30 1703 H 160.793 -2.92022 1.41961 0
M  V30 1704 H 161.804 -1.67481 4.90072 0
M  V30 1705 H 158.481 -3.12639 2.767 0
M  V30 1706 H 159.871 -1.6252 6.51948 0
M  V30 1707 N 162.591 -1.51276 -0.441967 0
M  V30 1708 C 163.837 -1.63958 -1.19355 0
M  V30 1709 C 164.17 -0.352543 -1.90973 0
M  V30 1710 O 163.445 0.647627 -1.83401 0
M  V30 1711 C 163.728 -2.83979 -2.21422 0
M  V30 1712 C 163.581 -4.22646 -1.53918 0
M  V30 1713 C 164.9 -2.99521 -3.22451 0
M  V30 1714 H 162.019 -0.596709 -0.432559 0
M  V30 1715 H 164.661 -1.83748 -0.483398 0
M  V30 1716 H 162.811 -2.67237 -2.81987 0
M  V30 1717 H 164.483 -4.51045 -0.967256 0
M  V30 1718 H 162.726 -4.25558 -0.841615 0
M  V30 1719 H 163.397 -5.02609 -2.28229 0
M  V30 1720 H 165.873 -3.14944 -2.71937 0
M  V30 1721 H 164.749 -3.85072 -3.91166 0
M  V30 1722 H 165.01 -2.11391 -3.88287 0
M  V30 1723 N 164.069 0.697108 -1.41344 0
M  V30 1724 C 165.317 1.45426 -1.40341 0
M  V30 1725 C 165.638 1.94996 -0.0128787 0
M  V30 1726 O 164.908 1.71599 0.945027 0
M  V30 1727 H 163.488 0.539594 -0.516573 0
M  V30 1728 H 166.15 0.825201 -1.76569 0
M  V30 1729 H 165.246 2.31817 -2.08967 0
M  V30 1730 N 165.547 1.27147 0.931209 0
M  V30 1731 C 166.457 1.11372 2.06478 0
M  V30 1732 C 167.473 0.044645 1.73943 0
M  V30 1733 O 168.649 0.250417 1.99837 0
M  V30 1734 C 165.714 0.758838 3.38294 0
M  V30 1735 C 164.775 1.90841 3.84549 0
M  V30 1736 C 164.008 1.57036 5.10074 0
M  V30 1737 O 164.231 0.476645 5.68405 0
M  V30 1738 O 163.165 2.40839 5.51616 0
M  V30 1739 H 166.991 2.06493 2.22698 0
M  V30 1740 H 164.576 1.06301 1.04978 0
M  V30 1741 H 166.458 0.574098 4.17471 0
M  V30 1742 H 165.133 -0.162879 3.2329 0
M  V30 1743 H 164.04 2.14819 3.06274 0
M  V30 1744 H 165.373 2.81021 4.04089 0
M  V30 1745 N 167.025 -1.13721 1.09112 0
M  V30 1746 C 168.253 -1.88773 0.846899 0
M  V30 1747 C 168.668 -1.7896 -0.601572 0
M  V30 1748 O 168.025 -1.15394 -1.41388 0
M  V30 1749 C 168.076 -3.3849 1.26913 0
M  V30 1750 O 167.797 -3.48043 2.66079 0
M  V30 1751 C 169.298 -4.30518 1.05682 0
M  V30 1752 H 166.518 -0.59772 0.304914 0
M  V30 1753 H 169.062 -1.43977 1.45227 0
M  V30 1754 H 167.217 -3.80881 0.707723 0
M  V30 1755 H 167.631 -4.4109 2.83795 0
M  V30 1756 H 169.105 -5.3391 1.40156 0
M  V30 1757 H 169.582 -4.392 -0.00563416 0
M  V30 1758 H 170.188 -3.93893 1.60402 0
M  V30 1759 N 168.503 -0.877838 -1.30888 0
M  V30 1760 C 169.914 -0.544193 -1.78593 0
M  V30 1761 C 170.265 0.939301 -1.72254 0
M  V30 1762 O 169.39 1.7337 -1.29505 0
M  V30 1763 C 169.985 -0.98105 -3.24285 0
M  V30 1764 C 168.544 -0.698935 -3.69854 0
M  V30 1765 C 167.691 -1.168 -2.51502 0
M  V30 1766 H 170.642 -1.06278 -1.17859 0
M  V30 1767 H 170.663 -0.307009 -3.79259 0
M  V30 1768 H 170.175 -2.06079 -3.28866 0
M  V30 1769 H 168.276 0.369112 -3.70767 0
M  V30 1770 H 168.389 -1.28148 -4.61644 0
M  V30 1771 H 166.753 -0.587535 -2.47831 0
M  V30 1772 H 167.536 -2.25533 -2.58824 0
M  V30 1773 N 169.982 1.44106 -0.638065 0
M  V30 1774 C 171.231 2.01194 -0.142744 0
M  V30 1775 C 171.544 1.50835 1.24532 0
M  V30 1776 O 172.75 2.00096 1.83504 0
M  V30 1777 C 171.206 3.59319 -0.20442 0
M  V30 1778 C 170.814 4.18674 -1.59423 0
M  V30 1779 C 172.558 4.23854 0.234079 0
M  V30 1780 C 170.465 5.69045 -1.61065 0
M  V30 1781 H 169.395 0.752367 -0.0495998 0
M  V30 1782 H 172.046 1.65246 -0.797881 0
M  V30 1783 H 170.428 3.92598 0.517946 0
M  V30 1784 H 171.602 3.96921 -2.34074 0
M  V30 1785 H 169.917 3.66453 -1.97741 0
M  V30 1786 H 172.514 5.34155 0.241443 0
M  V30 1787 H 172.857 3.96688 1.2627 0
M  V30 1788 H 173.39 3.95403 -0.436025 0
M  V30 1789 H 170.129 6.00956 -2.61787 0
M  V30 1790 H 169.649 5.929 -0.90718 0
M  V30 1791 H 171.328 6.32809 -1.34766 0
M  V30 1792 N 171.46 0.379036 1.52974 0
M  V30 1793 C 172.423 -0.448865 2.24762 0
M  V30 1794 C 173.423 -0.998689 1.26027 0
M  V30 1795 O 174.613 -0.882313 1.50203 0
M  V30 1796 C 171.745 -1.62872 2.99476 0
M  V30 1797 H 172.938 0.179491 2.99362 0
M  V30 1798 H 170.491 0.13096 1.5575 0
M  V30 1799 H 171.226 -2.29479 2.29151 0
M  V30 1800 H 171.011 -1.24128 3.71934 0
M  V30 1801 H 172.501 -2.2151 3.5401 0
M  V30 1802 N 172.938 -1.57226 0.108567 0
M  V30 1803 C 174.168 -1.9889 -0.559142 0
M  V30 1804 C 174.576 -0.986889 -1.61422 0
M  V30 1805 O 173.919 0.0298705 -1.83676 0
M  V30 1806 C 173.981 -3.36952 -1.25315 0
M  V30 1807 C 173.645 -4.55679 -0.347248 0
M  V30 1808 C 174.642 -5.18281 0.409996 0
M  V30 1809 C 172.327 -5.0162 -0.261367 0
M  V30 1810 C 174.321 -6.25203 1.24096 0
M  V30 1811 C 172.008 -6.08405 0.573238 0
M  V30 1812 C 173.006 -6.70063 1.32304 0
M  V30 1813 O 172.694 -7.74788 2.14381 0
M  V30 1814 H 172.426 -0.658343 -0.153492 0
M  V30 1815 H 174.98 -2.04532 0.188584 0
M  V30 1816 H 173.21 -3.28032 -2.04773 0
M  V30 1817 H 174.899 -3.62974 -1.81673 0
M  V30 1818 H 175.665 -4.8371 0.353457 0
M  V30 1819 H 171.544 -4.53381 -0.834656 0
M  V30 1820 H 175.088 -6.73259 1.82669 0
M  V30 1821 H 170.985 -6.42406 0.631208 0
M  V30 1822 H 171.753 -7.91837 2.07209 0
M  V30 1823 N 174.416 0.165178 -1.56732 0
M  V30 1824 C 175.832 0.517174 -1.50988 0
M  V30 1825 C 176.032 1.84331 -0.813894 0
M  V30 1826 O 175.088 2.49672 -0.37682 0
M  V30 1827 C 176.401 0.544261 -2.95733 0
M  V30 1828 C 177.949 0.631039 -3.06573 0
M  V30 1829 C 178.424 0.68896 -4.52788 0
M  V30 1830 N 179.915 0.751683 -4.5706 0
M  V30 1831 C 180.65 0.817177 -5.67547 0
M  V30 1832 N 180.146 0.843129 -6.8765 0
M  V30 1833 N 181.939 0.856668 -5.55534 0
M  V30 1834 H 174.09 -0.704318 -2.00382 0
M  V30 1835 H 176.353 -0.254687 -0.913148 0
M  V30 1836 H 176.059 -0.361607 -3.49836 0
M  V30 1837 H 175.933 1.3886 -3.5071 0
M  V30 1838 H 178.32 1.52733 -2.52501 0
M  V30 1839 H 178.401 -0.240095 -2.54671 0
M  V30 1840 H 178.045 -0.2031 -5.07494 0
M  V30 1841 H 177.975 1.57633 -5.02454 0
M  V30 1842 H 180.466 0.739661 -3.70591 0
M  V30 1843 H 180.779 0.894448 -7.67606 0
M  V30 1844 H 179.124 0.811304 -6.90248 0
M  V30 1845 H 182.315 0.833437 -4.60621 0
M  V30 1846 H 182.488 0.904247 -6.4166 0
M  V30 1847 N 175.894 1.51508 0.433938 0
M  V30 1848 C 176.842 1.73646 1.54757 0
M  V30 1849 C 177.836 0.602854 1.5831 0
M  V30 1850 O 179.042 0.784318 1.62014 0
M  V30 1851 H 175.417 0.548718 0.51421 0
M  V30 1852 H 177.388 2.66991 1.33261 0
M  V30 1853 C 176.137 1.88172 2.92381 0
M  V30 1854 H 175.46 2.74808 2.90381 0
M  V30 1855 H 176.9 2.07672 3.6966 0
M  V30 1856 C 175.359 0.64239 3.30719 0
M  V30 1857 O 175.889 -0.201362 4.01195 0
M  V30 1858 N 174.095 0.485489 2.86516 0
M  V30 1859 H 173.642 1.17318 2.29334 0
M  V30 1860 H 173.6 -0.342482 3.12529 0
M  V30 1861 N 177.372 -0.689602 1.41712 0
M  V30 1862 C 178.618 -1.45181 1.41599 0
M  V30 1863 C 178.951 -1.94181 0.0270081 0
M  V30 1864 O 178.226 -1.6993 -0.946265 0
M  V30 1865 C 178.509 -2.65945 2.42787 0
M  V30 1866 C 178.362 -2.22672 3.90816 0
M  V30 1867 C 179.681 -3.68149 2.41151 0
M  V30 1868 H 176.8 -0.526576 0.515642 0
M  V30 1869 H 179.442 -0.784947 1.73028 0
M  V30 1870 H 177.592 -3.2284 2.16116 0
M  V30 1871 H 179.264 -1.71058 4.28412 0
M  V30 1872 H 177.507 -1.54394 4.05395 0
M  V30 1873 H 178.178 -3.0935 4.57172 0
M  V30 1874 H 180.654 -3.2094 2.64834 0
M  V30 1875 H 179.53 -4.50248 3.13955 0
M  V30 1876 H 179.791 -4.18259 1.43221 0
M  V30 1877 N 178.85 -1.27639 -0.924453 0
M  V30 1878 C 179.78 -1.13166 -2.04244 0
M  V30 1879 C 180.761 -0.032256 -1.70069 0
M  V30 1880 O 181.946 -0.207328 -1.9309 0
M  V30 1881 C 179.076 -0.781496 -3.38393 0
M  V30 1882 C 178.03 -1.83449 -3.86692 0
M  V30 1883 C 177.356 -1.33822 -5.17683 0
M  V30 1884 C 178.656 -3.23917 -4.09726 0
M  V30 1885 H 180.35 -2.06689 -2.1661 0
M  V30 1886 H 177.896 -0.995136 -1.04082 0
M  V30 1887 H 179.849 -0.667057 -4.16087 0
M  V30 1888 H 178.573 0.189439 -3.2605 0
M  V30 1889 H 177.232 -1.93789 -3.11193 0
M  V30 1890 H 176.88 -0.35665 -5.01734 0
M  V30 1891 H 176.58 -2.04224 -5.50968 0
M  V30 1892 H 178.104 -1.23679 -5.97943 0
M  V30 1893 H 179.518 -3.16559 -4.77978 0
M  V30 1894 H 177.915 -3.92059 -4.54324 0
M  V30 1895 H 178.985 -3.68729 -3.14908 0
M  V30 1896 N 180.328 1.1314 -1.09713 0
M  V30 1897 C 181.258 2.20748 -0.761102 0
M  V30 1898 C 182.239 1.68061 0.262566 0
M  V30 1899 O 183.424 1.93765 0.129977 0
M  V30 1900 C 180.554 3.46812 -0.184054 0
M  V30 1901 C 179.508 4.12606 -1.13757 0
M  V30 1902 C 178.834 5.33031 -0.422083 0
M  V30 1903 C 180.134 4.59603 -2.48118 0
M  V30 1904 H 181.828 2.49113 -1.66082 0
M  V30 1905 H 179.374 1.19734 -0.799987 0
M  V30 1906 H 181.327 4.21353 0.0631215 0
M  V30 1907 H 180.051 3.17851 0.750868 0
M  V30 1908 H 178.71 3.40036 -1.37007 0
M  V30 1909 H 178.358 5.00335 0.517072 0
M  V30 1910 H 178.058 5.77999 -1.05788 0
M  V30 1911 H 179.582 6.10325 -0.183277 0
M  V30 1912 H 180.996 5.25552 -2.29059 0
M  V30 1913 H 179.393 5.15321 -3.07514 0
M  V30 1914 H 180.463 3.73971 -3.08665 0
M  V30 1915 N 181.806 0.884767 1.30421 0
M  V30 1916 C 183.222 0.57874 1.48737 0
M  V30 1917 C 183.422 -0.883567 1.81095 0
M  V30 1918 O 182.478 -1.6648 1.89844 0
M  V30 1919 C 183.791 1.49171 2.61091 0
M  V30 1920 C 185.339 1.49532 2.74971 0
M  V30 1921 C 185.814 2.39421 3.90438 0
M  V30 1922 N 187.305 2.37383 3.97748 0
M  V30 1923 C 188.04 3.03647 4.86401 0
M  V30 1924 N 187.536 3.79136 5.79852 0
M  V30 1925 N 189.329 2.9288 4.79768 0
M  V30 1926 H 181.48 1.83075 1.0769 0
M  V30 1927 H 183.743 0.783637 0.533495 0
M  V30 1928 H 183.449 2.53291 2.44001 0
M  V30 1929 H 183.323 1.20113 3.57565 0
M  V30 1930 H 185.71 0.46163 2.91467 0
M  V30 1931 H 185.791 1.8262 1.79119 0
M  V30 1932 H 185.435 3.42874 3.74699 0
M  V30 1933 H 185.365 2.03649 4.85628 0
M  V30 1934 H 187.856 1.82525 3.30897 0
M  V30 1935 H 188.169 4.26789 6.4426 0
M  V30 1936 H 186.514 3.83243 5.79784 0
M  V30 1937 H 189.705 2.33433 4.05742 0
M  V30 1938 H 189.878 3.448 5.4865 0
M  V30 1939 N 183.284 -1.43765 0.645699 0
M  V30 1940 C 184.231 -2.30745 -0.0504648 0
M  V30 1941 C 185.201 -1.4432 -0.822241 0
M  V30 1942 O 186.386 -1.73202 -0.800358 0
M  V30 1943 C 183.526 -3.29802 -1.0161 0
M  V30 1944 C 182.639 -4.31326 -0.241219 0
M  V30 1945 C 181.774 -5.17469 -1.19998 0
M  V30 1946 C 180.813 -6.10691 -0.415094 0
M  V30 1947 N 179.95 -6.89483 -1.32506 0
M  V30 1948 H 184.79 -2.8973 0.697155 0
M  V30 1949 H 182.327 -1.42738 0.355563 0
M  V30 1950 H 184.285 -3.85734 -1.58949 0
M  V30 1951 H 182.915 -2.72483 -1.73069 0
M  V30 1952 H 181.967 -3.77749 0.448334 0
M  V30 1953 H 183.279 -4.9743 0.369437 0
M  V30 1954 H 182.433 -5.7799 -1.84424 0
M  V30 1955 H 181.172 -4.51473 -1.84455 0
M  V30 1956 H 180.177 -5.49265 0.242565 0
M  V30 1957 H 181.402 -6.78727 0.224966 0
M  V30 1958 H 179.348 -6.26142 -1.95657 0
M  V30 1959 H 179.265 -7.52081 -0.768783 0
M  V30 1960 H 180.533 -7.54516 -1.9577 0
M  V30 1961 N 184.763 -0.387143 -1.52771 0
M  V30 1962 C 185.711 0.463953 -2.27926 0
M  V30 1963 C 186.705 1.06493 -1.31741 0
M  V30 1964 O 187.911 1.00565 -1.49287 0
M  V30 1965 H 184.286 0.16837 -0.732909 0
M  V30 1966 H 186.257 -0.19141 -2.97785 0
M  V30 1967 C 185.006 1.5803 -3.09713 0
M  V30 1968 H 184.329 1.12718 -3.83581 0
M  V30 1969 H 185.769 2.15008 -3.65442 0
M  V30 1970 C 184.228 2.53509 -2.2189 0
M  V30 1971 O 184.758 3.56863 -1.84422 0
M  V30 1972 N 182.964 2.23199 -1.86093 0
M  V30 1973 H 182.511 1.39185 -2.16761 0
M  V30 1974 H 182.469 2.87333 -1.27621 0
M  V30 1975 N 186.241 1.57166 -0.116904 0
M  V30 1976 C 187.489 1.94737 0.540533 0
M  V30 1977 C 187.81 1.00096 1.67349 0
M  V30 1978 O 187.08 0.0568854 1.95817 0
M  V30 1979 H 185.66 0.718981 0.202669 0
M  V30 1980 H 188.322 1.94017 -0.185353 0
M  V30 1981 H 187.418 2.97719 0.936483 0
M  V30 1982 N 187.719 -0.156864 1.56817 0
M  V30 1983 C 188.667 -1.21319 1.98455 0
M  V30 1984 C 189.661 -1.45025 0.875444 0
M  V30 1985 O 190.867 -1.45435 1.0606 0
M  V30 1986 H 187.242 -0.408142 0.631605 0
M  V30 1987 H 189.213 -0.835244 2.86472 0
M  V30 1988 C 187.962 -2.54148 2.37285 0
M  V30 1989 H 187.285 -2.36733 3.22176 0
M  V30 1990 H 188.725 -3.26712 2.70251 0
M  V30 1991 C 187.184 -3.13967 1.22173 0
M  V30 1992 O 187.714 -3.98357 0.517149 0
M  V30 1993 N 185.92 -2.7327 0.988536 0
M  V30 1994 H 185.467 -2.04744 1.56326 0
M  V30 1995 H 185.425 -3.13628 0.220209 0
M  V30 1996 N 189.197 -1.51736 -0.425897 0
M  V30 1997 C 190.144 -1.73875 -1.51776 0
M  V30 1998 C 191.114 -0.580702 -1.55618 0
M  V30 1999 O 192.299 -0.81641 -1.72451 0
M  V30 2000 C 189.439 -1.88012 -2.89388 0
M  V30 2001 C 188.552 -3.15606 -2.94986 0
M  V30 2002 C 187.687 -3.20271 -4.23793 0
M  V30 2003 C 186.726 -4.42134 -4.23302 0
M  V30 2004 N 185.863 -4.44284 -5.43651 0
M  V30 2005 H 190.703 -2.67071 -1.32201 0
M  V30 2006 H 188.24 -1.32351 -0.642008 0
M  V30 2007 H 190.198 -1.9419 -3.69251 0
M  V30 2008 H 188.828 -0.98213 -3.07496 0
M  V30 2009 H 187.88 -3.18681 -2.07717 0
M  V30 2010 H 189.192 -4.05486 -2.90486 0
M  V30 2011 H 188.346 -3.25428 -5.12036 0
M  V30 2012 H 187.085 -2.28299 -4.30965 0
M  V30 2013 H 186.09 -4.3714 -3.3345 0
M  V30 2014 H 187.315 -5.35382 -4.17783 0
M  V30 2015 H 185.261 -3.55188 -5.51523 0
M  V30 2016 H 185.178 -5.27988 -5.41078 0
M  V30 2017 H 186.446 -4.53649 -6.33895 0
M  V30 2018 N 190.675 0.682077 -1.42076 0
M  V30 2019 C 191.923 1.4393 -1.41876 0
M  V30 2020 C 192.244 1.94971 -0.0335599 0
M  V30 2021 O 191.514 1.72591 0.926773 0
M  V30 2022 H 190.094 0.534085 -0.522267 0
M  V30 2023 H 192.756 0.806427 -1.77434 0
M  V30 2024 H 191.852 2.29588 -2.11414 0
M  V30 2025 N 192.153 1.28127 0.917671 0
M  V30 2026 C 193.116 1.11744 2.00115 0
M  V30 2027 C 194.116 0.0583052 1.60694 0
M  V30 2028 O 195.306 0.303755 1.71531 0
M  V30 2029 C 192.438 0.704862 3.33533 0
M  V30 2030 H 193.631 2.07966 2.16079 0
M  V30 2031 H 191.184 1.11058 1.09981 0
M  V30 2032 H 191.919 -0.258299 3.2327 0
M  V30 2033 H 191.704 1.4699 3.63505 0
M  V30 2034 H 193.194 0.612768 4.1308 0
M  V30 2035 N 193.631 -1.12557 1.10312 0
M  V30 2036 C 194.879 -1.83675 0.843091 0
M  V30 2037 C 195.2 -1.84435 -0.633131 0
M  V30 2038 O 194.47 -1.30657 -1.45964 0
M  V30 2039 H 193.05 -0.680138 0.308904 0
M  V30 2040 H 195.712 -1.36301 1.39313 0
M  V30 2041 H 194.808 -2.87908 1.2048 0
M  V30 2042 N 195.109 -0.891671 -1.2995 0
M  V30 2043 C 196.357 -0.512486 -1.95494 0
M  V30 2044 C 196.678 0.942776 -1.70695 0
M  V30 2045 O 195.948 1.66374 -1.03424 0
M  V30 2046 H 194.528 -0.186533 -0.723336 0
M  V30 2047 H 197.19 -1.13621 -1.58355 0
M  V30 2048 H 196.286 -0.688342 -3.04415 0
M  V30 2049 N 196.587 1.43421 -0.653314 0
M  V30 2050 C 197.537 2.2792 0.060558 0
M  V30 2051 C 198.521 1.39906 0.794677 0
M  V30 2052 O 199.713 1.63536 0.677128 0
M  V30 2053 C 196.842 3.27603 1.0262 0
M  V30 2054 C 195.928 4.23104 0.290551 0
M  V30 2055 N 196.319 5.01031 -0.692967 0
M  V30 2056 C 194.617 4.42816 0.531984 0
M  V30 2057 C 195.318 5.70626 -1.12963 0
M  V30 2058 N 194.294 5.41617 -0.463867 0
M  V30 2059 H 198.096 2.85585 -0.694143 0
M  V30 2060 H 195.61 1.55126 -0.480602 0
M  V30 2061 H 197.607 3.86918 1.55242 0
M  V30 2062 H 196.267 2.71499 1.78096 0
M  V30 2063 H 197.278 5.0669 -1.07169 0
M  V30 2064 H 193.955 3.97782 1.26791 0
M  V30 2065 H 195.345 6.4318 -1.94343 0
M  V30 2066 N 198.065 0.39524 1.52563 0
M  V30 2067 C 199.29 -0.187456 2.06551 0
M  V30 2068 C 199.715 -1.39249 1.26457 0
M  V30 2069 O 199.073 -1.78947 0.291151 0
M  V30 2070 C 199.121 -0.529985 3.56684 0
M  V30 2071 O 198.225 -1.62307 3.79118 0
M  V30 2072 H 197.566 -0.0202537 0.663691 0
M  V30 2073 H 200.096 0.564426 1.96661 0
M  V30 2074 H 200.106 -0.792598 4.00227 0
M  V30 2075 H 198.781 0.350987 4.14416 0
M  V30 2076 H 197.358 -1.3537 3.47461 0
M  V30 2077 N 199.544 -1.57102 0.125237 0
M  V30 2078 C 200.774 -1.99472 -0.538015 0
M  V30 2079 C 201.182 -1.00395 -1.60366 0
M  V30 2080 O 200.525 0.0103875 -1.83697 0
M  V30 2081 C 200.587 -3.38262 -1.21734 0
M  V30 2082 C 200.251 -4.56021 -0.298897 0
M  V30 2083 C 201.248 -5.17817 0.464943 0
M  V30 2084 C 198.933 -5.01869 -0.208149 0
M  V30 2085 C 200.927 -6.23852 1.3072 0
M  V30 2086 C 198.614 -6.07763 0.637736 0
M  V30 2087 C 199.612 -6.68622 1.39403 0
M  V30 2088 O 199.3 -7.7247 2.22586 0
M  V30 2089 H 199.032 -0.659934 -0.146501 0
M  V30 2090 H 201.586 -2.04321 0.210267 0
M  V30 2091 H 199.816 -3.30185 -2.01282 0
M  V30 2092 H 201.505 -3.6488 -1.77813 0
M  V30 2093 H 202.271 -4.83308 0.404741 0
M  V30 2094 H 198.15 -4.54241 -0.786522 0
M  V30 2095 H 201.694 -6.71284 1.898 0
M  V30 2096 H 197.591 -6.41701 0.699309 0
M  V30 2097 H 198.359 -7.89595 2.15596 0
M  V30 2098 N 201.022 0.148545 -1.56898 0
M  V30 2099 C 202.27 0.859717 -1.82902 0
M  V30 2100 C 202.591 1.81775 -0.70588 0
M  V30 2101 O 201.861 1.93994 0.272586 0
M  V30 2102 H 200.441 0.320469 -0.674766 0
M  V30 2103 H 203.103 0.142918 -1.94375 0
M  V30 2104 H 202.199 1.4229 -2.77777 0
M  V30 2105 N 202.5 1.5196 0.417844 0
M  V30 2106 C 203.749 1.6482 1.16264 0
M  V30 2107 C 204.062 0.379886 1.91876 0
M  V30 2108 O 205.268 0.388154 2.68711 0
M  V30 2109 C 203.724 2.91161 2.1155 0
M  V30 2110 C 203.332 4.25068 1.41495 0
M  V30 2111 C 205.076 3.13383 2.86341 0
M  V30 2112 C 202.983 5.42541 2.35379 0
M  V30 2113 H 201.913 0.613954 0.437694 0
M  V30 2114 H 204.564 1.78442 0.427871 0
M  V30 2115 H 202.946 2.71218 2.88543 0
M  V30 2116 H 204.12 4.55463 0.699263 0
M  V30 2117 H 202.435 4.0888 0.787792 0
M  V30 2118 H 205.032 3.98324 3.5671 0
M  V30 2119 H 205.375 2.27256 3.48798 0
M  V30 2120 H 205.908 3.33757 2.1645 0
M  V30 2121 H 202.647 6.30987 1.77582 0
M  V30 2122 H 202.167 5.16497 3.04945 0
M  V30 2123 H 203.846 5.75272 2.96093 0
M  V30 2124 N 203.978 -0.674533 1.42435 0
M  V30 2125 C 205.255 -1.4305 1.33402 0
M  V30 2126 C 205.635 -2.11081 -0.0284674 0
M  V30 2127 O 204.983 -2.03257 -1.04397 0
M  V30 2128 C 205.193 -2.43272 2.50239 0
M  V30 2129 C 206.541 -3.07907 2.92367 0
M  V30 2130 O 207.565 -2.53599 2.50132 0
M  V30 2131 O 206.424 -4.0632 3.65467 0
M  V30 2132 H 203.518 -0.638076 0.526106 0
M  V30 2133 H 206.064 -0.703235 1.54443 0
M  V30 2134 H 204.836 -1.91803 3.41068 0
M  V30 2135 H 204.459 -3.23479 2.31186 0
M  V30 2136 N 205.456 -1.28612 -0.910864 0
M  V30 2137 C 206.386 -1.15326 -2.03032 0
M  V30 2138 C 207.367 -0.0502924 -1.70026 0
M  V30 2139 O 208.552 -0.227797 -1.92859 0
M  V30 2140 C 205.682 -0.817343 -3.37545 0
M  V30 2141 C 204.636 -1.8754 -3.84724 0
M  V30 2142 C 203.962 -1.39305 -5.16235 0
M  V30 2143 C 205.262 -3.28244 -4.06267 0
M  V30 2144 H 206.956 -2.08975 -2.14406 0
M  V30 2145 H 204.502 -1.00612 -1.03021 0
M  V30 2146 H 206.455 -0.711151 -4.15356 0
M  V30 2147 H 205.179 0.154846 -3.26233 0
M  V30 2148 H 203.838 -1.97079 -3.09121 0
M  V30 2149 H 203.486 -0.409846 -5.01328 0
M  V30 2150 H 203.186 -2.10057 -5.48771 0
M  V30 2151 H 204.71 -1.30014 -5.96598 0
M  V30 2152 H 206.124 -3.21611 -4.74594 0
M  V30 2153 H 204.521 -3.96855 -4.5014 0
M  V30 2154 H 205.591 -3.72048 -3.10979 0
M  V30 2155 N 206.934 1.1197 -1.10907 0
M  V30 2156 C 207.881 2.17846 -0.762345 0
M  V30 2157 C 208.851 1.63995 0.263599 0
M  V30 2158 O 210.036 1.90273 0.141773 0
M  V30 2159 C 207.176 3.44487 -0.205651 0
M  V30 2160 C 206.289 4.12369 -1.28748 0
M  V30 2161 C 205.424 5.26674 -0.691919 0
M  V30 2162 C 204.463 5.86431 -1.75399 0
M  V30 2163 N 203.6 6.92142 -1.17833 0
M  V30 2164 H 208.44 2.46851 -1.6694 0
M  V30 2165 H 205.977 1.21188 -0.833776 0
M  V30 2166 H 207.935 4.16981 0.135037 0
M  V30 2167 H 206.565 3.15884 0.664613 0
M  V30 2168 H 205.617 3.38003 -1.74522 0
M  V30 2169 H 206.929 4.52844 -2.09125 0
M  V30 2170 H 206.083 6.05953 -0.300963 0
M  V30 2171 H 204.822 4.8749 0.143232 0
M  V30 2172 H 203.827 5.05835 -2.15432 0
M  V30 2173 H 205.052 6.27685 -2.59208 0
M  V30 2174 H 202.998 6.54985 -0.364725 0
M  V30 2175 H 202.915 7.31242 -1.91887 0
M  V30 2176 H 204.183 7.75237 -0.81408 0
M  V30 2177 N 208.412 0.89855 1.29475 0
M  V30 2178 C 209.637 0.538561 2.00285 0
M  V30 2179 C 210.062 -0.869135 1.66816 0
M  V30 2180 O 209.42 -1.57831 0.892145 0
M  V30 2181 C 209.468 0.736475 3.52999 0
M  V30 2182 O 208.572 -0.211537 4.11857 0
M  V30 2183 H 207.913 0.210563 0.62973 0
M  V30 2184 H 210.443 1.20982 1.64998 0
M  V30 2185 H 210.453 0.640685 4.02938 0
M  V30 2186 H 209.128 1.76276 3.76696 0
M  V30 2187 H 207.705 -0.0682991 3.72837 0
M  V30 2188 N 209.89 -1.43072 0.660911 0
M  V30 2189 C 211.12 -2.05769 0.185153 0
M  V30 2190 C 211.528 -1.49668 -1.15742 0
M  V30 2191 O 210.871 -0.625649 -1.72717 0
M  V30 2192 C 210.933 -3.59489 0.0278237 0
M  V30 2193 C 210.597 -4.38212 1.2969 0
M  V30 2194 C 211.594 -4.69772 2.22734 0
M  V30 2195 C 209.279 -4.7809 1.54063 0
M  V30 2196 C 211.273 -5.40129 3.38437 0
M  V30 2197 C 208.96 -5.4819 2.70058 0
M  V30 2198 C 209.958 -5.79132 3.62071 0
M  V30 2199 O 209.646 -6.47798 4.76039 0
M  V30 2200 H 209.378 -0.669873 0.0908086 0
M  V30 2201 H 211.932 -1.84436 0.90402 0
M  V30 2202 H 210.162 -3.79426 -0.746489 0
M  V30 2203 H 211.851 -4.03862 -0.406275 0
M  V30 2204 H 212.617 -4.39476 2.05149 0
M  V30 2205 H 208.496 -4.53408 0.833215 0
M  V30 2206 H 212.04 -5.64198 4.10277 0
M  V30 2207 H 207.937 -5.77902 2.87574 0
M  V30 2208 H 208.705 -6.66283 4.75404 0
M  V30 2209 N 211.368 -0.403325 -1.52352 0
M  V30 2210 C 212.645 0.232611 -1.94212 0
M  V30 2211 C 213.025 1.63133 -1.33981 0
M  V30 2212 O 212.373 2.22659 -0.513344 0
M  V30 2213 C 212.583 0.244811 -3.4814 0
M  V30 2214 C 213.931 0.46698 -4.22024 0
M  V30 2215 O 214.955 0.324419 -3.5472 0
M  V30 2216 O 213.814 0.74747 -5.41364 0
M  V30 2217 H 210.908 0.148223 -0.813609 0
M  V30 2218 H 213.454 -0.458848 -1.63379 0
M  V30 2219 H 212.226 -0.734378 -3.84347 0
M  V30 2220 H 211.849 0.980611 -3.85318 0
M  V30 2221 N 212.846 1.57033 -0.133567 0
M  V30 2222 C 213.776 2.1909 0.807567 0
M  V30 2223 C 214.757 1.13517 1.26681 0
M  V30 2224 O 215.942 1.41809 1.32679 0
M  V30 2225 C 213.072 2.80188 2.05212 0
M  V30 2226 C 212.026 3.91471 1.73015 0
M  V30 2227 C 211.352 4.39443 3.04622 0
M  V30 2228 C 212.652 5.12886 0.987168 0
M  V30 2229 H 214.346 2.97988 0.290403 0
M  V30 2230 H 211.892 1.43335 0.138239 0
M  V30 2231 H 213.845 3.22264 2.71521 0
M  V30 2232 H 212.569 1.98601 2.59278 0
M  V30 2233 H 211.228 3.49993 1.0909 0
M  V30 2234 H 210.876 3.54695 3.56651 0
M  V30 2235 H 210.576 5.14495 2.83847 0
M  V30 2236 H 212.1 4.8418 3.72024 0
M  V30 2237 H 213.514 5.51891 1.55208 0
M  V30 2238 H 211.911 5.93615 0.87985 0
M  V30 2239 H 212.981 4.84894 -0.0235286 0
M  V30 2240 N 214.325 -0.140222 1.56975 0
M  V30 2241 C 215.573 -0.850005 1.83356 0
M  V30 2242 C 215.894 -1.81399 0.71551 0
M  V30 2243 O 215.164 -1.94136 -0.262294 0
M  V30 2244 H 213.744 -0.316886 0.676456 0
M  V30 2245 H 216.406 -0.132608 1.94448 0
M  V30 2246 H 215.502 -1.40814 2.78528 0
M  V30 2247 N 215.803 -1.52179 -0.40978 0
M  V30 2248 C 217.08 -1.56769 -1.16974 0
M  V30 2249 C 217.46 -0.348322 -2.08206 0
M  V30 2250 O 216.808 0.664862 -2.18613 0
M  V30 2251 C 217.018 -2.89603 -1.9476 0
M  V30 2252 C 218.366 -3.42579 -2.50849 0
M  V30 2253 O 219.39 -2.91338 -2.04941 0
M  V30 2254 O 218.249 -4.32054 -3.34652 0
M  V30 2255 H 215.343 -0.631439 -0.534054 0
M  V30 2256 H 217.889 -1.64507 -0.416613 0
M  V30 2257 H 216.661 -3.698 -1.27921 0
M  V30 2258 H 216.284 -2.85155 -2.77079 0
M  V30 2259 N 217.281 0.66697 -1.42791 0
M  V30 2260 C 218.191 1.80962 -1.49299 0
M  V30 2261 C 219.207 1.69775 -0.381108 0
M  V30 2262 O 220.383 1.91188 -0.633188 0
M  V30 2263 C 217.448 3.17156 -1.40045 0
M  V30 2264 C 216.509 3.40242 -2.6179 0
M  V30 2265 C 215.742 4.69939 -2.52969 0
M  V30 2266 O 215.965 5.48372 -1.56985 0
M  V30 2267 O 214.899 4.94441 -3.43237 0
M  V30 2268 H 218.725 1.78427 -2.45759 0
M  V30 2269 H 216.31 0.823713 -1.24641 0
M  V30 2270 H 218.192 3.98413 -1.37276 0
M  V30 2271 H 216.867 3.20312 -0.467138 0
M  V30 2272 H 215.774 2.58802 -2.70134 0
M  V30 2273 H 217.107 3.41923 -3.54047 0
M  V30 2274 N 218.759 1.29093 0.90403 0
M  V30 2275 C 219.689 1.16401 2.02418 0
M  V30 2276 C 220.67 0.0593085 1.69997 0
M  V30 2277 O 221.855 0.238021 1.92736 0
M  V30 2278 C 218.985 0.835233 3.37107 0
M  V30 2279 C 217.939 1.89578 3.83724 0
M  V30 2280 C 217.265 1.42041 5.15489 0
M  V30 2281 C 218.565 3.30394 4.04521 0
M  V30 2282 H 220.259 2.10109 2.13295 0
M  V30 2283 H 217.805 1.01157 1.02486 0
M  V30 2284 H 219.758 0.733169 4.14973 0
M  V30 2285 H 218.482 -0.137543 3.2631 0
M  V30 2286 H 217.141 1.98715 3.08071 0
M  V30 2287 H 216.789 0.436426 5.01103 0
M  V30 2288 H 216.489 2.12964 5.4765 0
M  V30 2289 H 218.013 1.33176 5.959 0
M  V30 2290 H 219.427 3.24123 4.72882 0
M  V30 2291 H 217.824 3.99237 4.48029 0
M  V30 2292 H 218.894 3.73692 3.09002 0
M  V30 2293 N 220.237 -1.11381 1.11499 0
M  V30 2294 C 221.485 -1.8277 0.862524 0
M  V30 2295 C 221.806 -1.85097 -0.613534 0
M  V30 2296 O 221.076 -1.32198 -1.4457 0
M  V30 2297 H 219.656 -0.676823 0.316101 0
M  V30 2298 H 222.318 -1.34816 1.4075 0
M  V30 2299 H 221.414 -2.86614 1.23527 0
M  V30 2300 N 221.715 -0.905404 -1.28997 0
M  V30 2301 C 222.943 -0.549846 -1.9946 0
M  V30 2302 C 223.358 0.866834 -1.67724 0
M  V30 2303 O 222.715 1.57298 -0.925404 0
M  V30 2304 C 222.766 -0.739387 -3.53858 0
M  V30 2305 O 222.487 -2.10031 -3.84472 0
M  V30 2306 C 223.988 -0.389541 -4.41585 0
M  V30 2307 H 221.208 -0.210429 -0.637151 0
M  V30 2308 H 223.752 -1.21632 -1.64396 0
M  V30 2309 H 221.907 -0.120023 -3.87214 0
M  V30 2310 H 222.321 -2.13385 -4.79132 0
M  V30 2311 H 223.795 -0.572972 -5.49018 0
M  V30 2312 H 224.272 0.673756 -4.34001 0
M  V30 2313 H 224.878 -0.986089 -4.1371 0
M  V30 2314 N 223.193 1.4272 -0.668489 0
M  V30 2315 C 224.47 1.95248 -0.117373 0
M  V30 2316 C 224.85 1.60919 1.36632 0
M  V30 2317 O 224.198 0.902095 2.09939 0
M  V30 2318 C 224.408 3.46927 -0.379806 0
M  V30 2319 C 225.756 4.23588 -0.292923 0
M  V30 2320 O 226.78 3.5482 -0.313204 0
M  V30 2321 O 225.639 5.46017 -0.229697 0
M  V30 2322 H 222.733 0.827 0.00079152 0
M  V30 2323 H 225.279 1.52581 -0.742783 0
M  V30 2324 H 224.051 3.65096 -1.40786 0
M  V30 2325 H 223.674 3.96627 0.277923 0
M  V30 2326 N 224.671 0.411399 1.52136 0
M  V30 2327 C 226.082 -0.0576826 1.86611 0
M  V30 2328 C 226.433 -1.44238 1.33003 0
M  V30 2329 O 225.558 -2.05759 0.670228 0
M  V30 2330 C 226.153 -0.111448 3.38617 0
M  V30 2331 C 224.712 -0.52487 3.72723 0
M  V30 2332 C 223.859 0.299176 2.75681 0
M  V30 2333 H 226.81 0.628368 1.4573 0
M  V30 2334 H 226.831 -0.926252 3.69054 0
M  V30 2335 H 226.343 0.896488 3.77604 0
M  V30 2336 H 224.444 -1.53936 3.39315 0
M  V30 2337 H 224.557 -0.267681 4.78352 0
M  V30 2338 H 222.921 -0.238814 2.53578 0
M  V30 2339 H 223.704 1.3055 3.17508 0
M  V30 2340 N 226.149 -1.5696 0.141893 0
M  V30 2341 C 227.398 -1.95135 -0.510427 0
M  V30 2342 C 227.711 -1.02896 -1.66348 0
M  V30 2343 O 228.917 -1.30629 -2.38009 0
M  V30 2344 C 227.373 -3.46876 -0.959427 0
M  V30 2345 C 226.981 -4.47691 0.166419 0
M  V30 2346 C 228.725 -3.93927 -1.58183 0
M  V30 2347 C 226.632 -5.90636 -0.300565 0
M  V30 2348 H 225.562 -0.728494 -0.194454 0
M  V30 2349 H 228.213 -1.8211 0.22542 0
M  V30 2350 H 226.595 -3.55215 -1.75038 0
M  V30 2351 H 227.769 -4.51043 0.94325 0
M  V30 2352 H 226.084 -4.10527 0.696905 0
M  V30 2353 H 228.681 -4.98158 -1.94275 0
M  V30 2354 H 229.024 -3.3519 -2.46888 0
M  V30 2355 H 229.557 -3.88484 -0.855863 0
M  V30 2356 H 226.296 -6.5318 0.550989 0
M  V30 2357 H 225.816 -5.90655 -1.04338 0
M  V30 2358 H 227.495 -6.42588 -0.754265 0
M  V30 2359 N 227.627 0.131896 -1.57047 0
M  V30 2360 C 228.537 1.1815 -2.02676 0
M  V30 2361 C 229.553 1.46113 -0.944824 0
M  V30 2362 O 230.729 1.57485 -1.25541 0
M  V30 2363 C 227.794 2.49139 -2.41103 0
M  V30 2364 C 226.855 2.28688 -3.63318 0
M  V30 2365 C 226.088 3.53431 -3.99903 0
M  V30 2366 O 226.311 4.60223 -3.36973 0
M  V30 2367 O 225.245 3.45198 -4.93074 0
M  V30 2368 H 229.071 0.824069 -2.92306 0
M  V30 2369 H 226.656 0.341745 -1.45439 0
M  V30 2370 H 228.538 3.26338 -2.66611 0
M  V30 2371 H 227.213 2.84382 -1.54624 0
M  V30 2372 H 226.12 1.4939 -3.42977 0
M  V30 2373 H 227.453 1.98355 -4.50462 0
M  V30 2374 N 229.106 1.52395 0.401703 0
M  V30 2375 C 230.383 1.57387 1.16141 0
M  V30 2376 C 230.763 0.359359 2.08019 0
M  V30 2377 O 230.111 -0.65326 2.18963 0
M  V30 2378 C 230.321 2.90631 1.93221 0
M  V30 2379 C 231.669 3.43904 2.49028 0
M  V30 2380 O 232.693 2.92421 2.03393 0
M  V30 2381 O 231.552 4.33823 3.32356 0
M  V30 2382 H 228.646 0.634262 0.530698 0
M  V30 2383 H 231.192 1.64725 0.407883 0
M  V30 2384 H 229.964 3.70473 1.25958 0
M  V30 2385 H 229.587 2.8662 2.75563 0
M  V30 2386 N 230.584 -0.659388 1.43143 0
M  V30 2387 C 231.814 -1.44513 1.47646 0
M  V30 2388 C 232.222 -1.88981 0.0910095 0
M  V30 2389 O 231.565 -1.59702 -0.907789 0
M  V30 2390 C 231.627 -2.71663 2.35456 0
M  V30 2391 C 231.291 -2.49175 3.83094 0
M  V30 2392 C 232.288 -2.1279 4.74359 0
M  V30 2393 C 229.973 -2.63691 4.27519 0
M  V30 2394 C 231.967 -1.9121 6.08044 0
M  V30 2395 C 229.654 -2.41726 5.61259 0
M  V30 2396 C 230.652 -2.0554 6.51339 0
M  V30 2397 O 230.34 -1.838 7.82606 0
M  V30 2398 H 230.072 -0.45064 0.503884 0
M  V30 2399 H 232.626 -0.816248 1.88485 0
M  V30 2400 H 230.856 -3.37089 1.89493 0
M  V30 2401 H 232.545 -3.33595 2.31235 0
M  V30 2402 H 233.311 -2.01157 4.41317 0
M  V30 2403 H 229.19 -2.90832 3.57684 0
M  V30 2404 H 232.734 -1.62889 6.78316 0
M  V30 2405 H 228.631 -2.52959 5.9387 0
M  V30 2406 H 229.399 -1.98275 7.94122 0
M  V30 2407 N 232.062 -1.29571 -0.897171 0
M  V30 2408 C 232.972 -1.16808 -2.03453 0
M  V30 2409 C 233.988 -0.0907471 -1.73763 0
M  V30 2410 O 235.164 -0.303312 -1.99103 0
M  V30 2411 C 232.229 -0.848264 -3.36163 0
M  V30 2412 C 231.29 -2.0097 -3.79354 0
M  V30 2413 C 230.523 -1.70505 -5.05731 0
M  V30 2414 O 230.746 -0.62718 -5.66941 0
M  V30 2415 O 229.68 -2.5538 -5.45036 0
M  V30 2416 H 233.506 -2.12325 -2.17144 0
M  V30 2417 H 231.091 -1.09047 -1.02123 0
M  V30 2418 H 232.973 -0.684581 -4.15802 0
M  V30 2419 H 231.648 0.0771071 -3.23608 0
M  V30 2420 H 230.555 -2.22863 -3.00471 0
M  V30 2421 H 231.888 -2.91636 -3.96496 0
M  V30 2422 N 233.54 1.10788 -1.12088 0
M  V30 2423 C 234.472 2.16816 -0.743213 0
M  V30 2424 C 235.485 1.6119 0.228412 0
M  V30 2425 O 236.674 1.78497 0.0102931 0
M  V30 2426 C 233.774 3.38809 -0.0787313 0
M  V30 2427 C 232.947 4.23885 -1.0789 0
M  V30 2428 C 232.006 5.24334 -0.442713 0
M  V30 2429 O 231.032 5.58497 -1.09864 0
M  V30 2430 N 232.234 5.75079 0.791457 0
M  V30 2431 H 234.999 2.49825 -1.65552 0
M  V30 2432 H 232.56 1.26373 -1.012 0
M  V30 2433 H 234.552 4.03107 0.358766 0
M  V30 2434 H 233.122 3.03805 0.736275 0
M  V30 2435 H 232.342 3.55939 -1.69414 0
M  V30 2436 H 233.63 4.77562 -1.75533 0
M  V30 2437 H 233.028 5.49517 1.3434 0
M  V30 2438 H 231.585 6.4118 1.17183 0
M  V30 2439 N 235.018 0.912232 1.28515 0
M  V30 2440 C 235.966 0.389597 2.29314 0
M  V30 2441 C 236.96 -0.517915 1.61289 0
M  V30 2442 O 238.166 -0.399328 1.75515 0
M  V30 2443 H 234.541 0.107386 0.744293 0
M  V30 2444 H 236.512 1.25286 2.70825 0
M  V30 2445 C 235.261 -0.356496 3.45868 0
M  V30 2446 H 234.584 0.332608 3.98414 0
M  V30 2447 H 236.024 -0.686851 4.184 0
M  V30 2448 C 234.483 -1.56383 2.98406 0
M  V30 2449 O 235.013 -2.66294 3.00749 0
M  V30 2450 N 233.219 -1.41029 2.54085 0
M  V30 2451 H 232.766 -0.516089 2.52377 0
M  V30 2452 H 232.724 -2.21939 2.22689 0
M  V30 2453 N 236.496 -1.42363 0.676048 0
M  V30 2454 C 237.742 -2.02336 0.207809 0
M  V30 2455 C 238.097 -1.52506 -1.17302 0
M  V30 2456 O 237.39 -0.718048 -1.77636 0
M  V30 2457 C 237.584 -3.56929 0.183431 0
M  V30 2458 C 237.413 -4.21762 1.56036 0
M  V30 2459 C 236.183 -4.56881 2.15842 0
M  V30 2460 C 238.381 -4.49267 2.50327 0
M  V30 2461 N 236.363 -5.069 3.46303 0
M  V30 2462 C 237.734 -5.00851 3.65443 0
M  V30 2463 C 239.789 -4.31257 2.48841 0
M  V30 2464 C 238.492 -5.36317 4.79329 0
M  V30 2465 C 240.518 -4.678 3.61824 0
M  V30 2466 C 239.88 -5.19537 4.75668 0
M  V30 2467 H 235.979 -0.772583 0.120993 0
M  V30 2468 H 238.563 -1.73203 0.889306 0
M  V30 2469 H 236.734 -3.85576 -0.467483 0
M  V30 2470 H 238.466 -4.03603 -0.297808 0
M  V30 2471 H 235.221 -4.4268 1.68319 0
M  V30 2472 H 235.645 -5.36338 4.13123 0
M  V30 2473 H 240.287 -3.90511 1.62051 0
M  V30 2474 H 238.005 -5.75995 5.66794 0
M  V30 2475 H 241.591 -4.55541 3.61903 0
M  V30 2476 H 240.471 -5.47287 5.61646 0
M  V30 2477 N 237.974 -0.419461 -1.51915 0
M  V30 2478 C 238.922 0.415502 -2.28859 0
M  V30 2479 C 239.916 1.03674 -1.3397 0
M  V30 2480 O 241.122 0.973757 -1.51387 0
M  V30 2481 H 237.497 0.152786 -0.736315 0
M  V30 2482 H 239.468 -0.254531 -2.97312 0
M  V30 2483 C 238.217 1.51425 -3.12995 0
M  V30 2484 H 237.54 1.04556 -3.85886 0
M  V30 2485 H 238.98 2.07208 -3.6992 0
M  V30 2486 C 237.439 2.48745 -2.27217 0
M  V30 2487 O 237.969 3.52871 -1.9195 0
M  V30 2488 N 236.175 2.19202 -1.90785 0
M  V30 2489 H 235.722 1.34556 -2.19664 0
M  V30 2490 H 235.68 2.84561 -1.33687 0
M  V30 2491 N 239.452 1.56882 -0.150215 0
M  V30 2492 C 240.68 2.00593 0.506948 0
M  V30 2493 C 241.095 1.03033 1.58208 0
M  V30 2494 O 240.452 0.0278396 1.82479 0
M  V30 2495 C 240.503 3.44209 1.10465 0
M  V30 2496 O 240.224 4.3804 0.0724636 0
M  V30 2497 C 241.725 4.03214 1.84211 0
M  V30 2498 H 238.945 0.65795 0.13169 0
M  V30 2499 H 241.489 2.03018 -0.245743 0
M  V30 2500 H 239.644 3.42625 1.80795 0
M  V30 2501 H 240.058 5.22007 0.510793 0
M  V30 2502 H 241.532 5.0569 2.21318 0
M  V30 2503 H 242.009 3.44107 2.72923 0
M  V30 2504 H 242.615 4.08437 1.18572 0
M  V30 2505 N 240.93 -0.123565 1.57115 0
M  V30 2506 C 241.877 -1.15177 2.00007 0
M  V30 2507 C 242.847 -1.41403 0.871454 0
M  V30 2508 O 244.032 -1.53346 1.13533 0
M  V30 2509 C 241.172 -2.47436 2.40561 0
M  V30 2510 C 240.285 -2.28184 3.66819 0
M  V30 2511 C 239.42 -3.53641 3.96373 0
M  V30 2512 C 238.459 -3.29528 5.15827 0
M  V30 2513 N 237.596 -4.47175 5.41275 0
M  V30 2514 H 242.436 -0.779008 2.87638 0
M  V30 2515 H 239.973 -0.373166 1.42288 0
M  V30 2516 H 241.931 -3.24584 2.62109 0
M  V30 2517 H 240.561 -2.82614 1.55978 0
M  V30 2518 H 239.613 -1.41976 3.52912 0
M  V30 2519 H 240.925 -2.0634 4.5412 0
M  V30 2520 H 240.079 -4.39209 4.18545 0
M  V30 2521 H 238.818 -3.78512 3.07538 0
M  V30 2522 H 237.823 -2.42349 4.93505 0
M  V30 2523 H 239.048 -3.06031 6.06236 0
M  V30 2524 H 236.994 -4.72175 4.55397 0
M  V30 2525 H 236.911 -4.28419 6.22891 0
M  V30 2526 H 238.179 -5.3389 5.67963 0
M  V30 2527 N 242.408 -1.52605 -0.393616 0
M  V30 2528 C 243.358 -1.73436 -1.48 0
M  V30 2529 C 244.342 -0.588386 -1.49756 0
M  V30 2530 O 245.534 -0.846047 -1.5547 0
M  V30 2531 C 242.663 -1.90247 -2.85764 0
M  V30 2532 C 241.749 -3.10763 -2.88595 0
M  V30 2533 N 242.14 -4.33196 -2.61103 0
M  V30 2534 C 240.438 -3.10914 -3.19763 0
M  V30 2535 C 241.139 -5.1477 -2.70899 0
M  V30 2536 N 240.115 -4.50356 -3.04435 0
M  V30 2537 H 243.917 -2.65727 -1.25563 0
M  V30 2538 H 241.431 -1.5085 -0.601513 0
M  V30 2539 H 243.428 -2.03291 -3.63976 0
M  V30 2540 H 242.088 -0.991663 -3.09186 0
M  V30 2541 H 243.099 -4.61408 -2.35209 0
M  V30 2542 H 239.776 -2.29626 -3.4868 0
M  V30 2543 H 241.166 -6.22355 -2.53227 0
M  V30 2544 N 243.887 0.651787 -1.4349 0
M  V30 2545 C 245.135 1.40888 -1.44897 0
M  V30 2546 C 245.456 1.94856 -0.0749086 0
M  V30 2547 O 244.726 1.74518 0.889956 0
M  V30 2548 H 243.306 0.522887 -0.533478 0
M  V30 2549 H 245.968 0.768609 -1.79104 0
M  V30 2550 H 245.064 2.25052 -2.16236 0
M  V30 2551 N 245.365 1.30045 0.890287 0
M  V30 2552 C 246.59 1.21598 1.68014 0
M  V30 2553 C 247.015 -0.218678 1.86825 0
M  V30 2554 O 246.373 -1.15756 1.39536 0
M  V30 2555 C 246.421 1.94434 3.03691 0
M  V30 2556 O 245.525 1.2678 3.92429 0
M  V30 2557 H 244.866 0.420856 0.513592 0
M  V30 2558 H 247.396 1.71775 1.11151 0
M  V30 2559 H 247.406 2.03251 3.5377 0
M  V30 2560 H 246.081 2.98777 2.89318 0
M  V30 2561 H 244.658 1.26282 3.50866 0
M  V30 2562 N 246.843 -1.10192 1.12674 0
M  V30 2563 C 248.091 -1.81845 0.881861 0
M  V30 2564 C 248.412 -1.85737 -0.593867 0
M  V30 2565 O 247.682 -1.33724 -1.4316 0
M  V30 2566 H 246.262 -0.673432 0.323261 0
M  V30 2567 H 248.924 -1.33316 1.42172 0
M  V30 2568 H 248.02 -2.85288 1.2656 0
M  V30 2569 N 248.321 -0.919034 -1.28029 0
M  V30 2570 C 249.284 -0.416182 -2.2539 0
M  V30 2571 C 250.284 0.460438 -1.54067 0
M  V30 2572 O 251.474 0.262744 -1.72207 0
M  V30 2573 C 248.606 0.402707 -3.38513 0
M  V30 2574 H 249.799 -1.27629 -2.71387 0
M  V30 2575 H 247.352 -0.698919 -1.39803 0
M  V30 2576 H 248.087 1.282 -2.97885 0
M  V30 2577 H 247.872 -0.225698 -3.9145 0
M  V30 2578 H 249.362 0.745191 -4.10897 0
M  V30 2579 N 249.799 1.42003 -0.683588 0
M  V30 2580 C 250.729 2.33487 -0.024866 0
M  V30 2581 C 251.71 1.51163 0.779975 0
M  V30 2582 O 252.895 1.79739 0.735362 0
M  V30 2583 C 250.025 3.3487 0.920836 0
M  V30 2584 C 248.979 4.27414 0.223958 0
M  V30 2585 C 248.305 5.19074 1.2832 0
M  V30 2586 C 249.605 5.14445 -0.90242 0
M  V30 2587 H 251.299 2.88819 -0.788921 0
M  V30 2588 H 248.845 1.38873 -0.38083 0
M  V30 2589 H 250.798 3.97787 1.39081 0
M  V30 2590 H 249.522 2.77861 1.71642 0
M  V30 2591 H 248.181 3.65904 -0.225864 0
M  V30 2592 H 247.829 4.58387 2.071 0
M  V30 2593 H 247.529 5.81822 0.821995 0
M  V30 2594 H 249.053 5.84867 1.75392 0
M  V30 2595 H 250.467 5.70998 -0.513272 0
M  V30 2596 H 248.864 5.86072 -1.28997 0
M  V30 2597 H 249.934 4.52322 -1.74737 0
M  V30 2598 N 251.277 0.427512 1.51691 0
M  V30 2599 C 252.693 0.0792977 1.59403 0
M  V30 2600 C 252.893 -1.41035 1.43914 0
M  V30 2601 O 251.949 -2.17922 1.27539 0
M  V30 2602 C 253.262 0.590636 2.94842 0
M  V30 2603 C 254.81 0.550215 3.08126 0
M  V30 2604 C 255.285 1.03836 4.46074 0
M  V30 2605 N 256.776 0.995943 4.52366 0
M  V30 2606 C 257.511 1.34463 5.57411 0
M  V30 2607 N 257.007 1.76569 6.69922 0
M  V30 2608 N 258.8 1.26343 5.47717 0
M  V30 2609 H 250.951 1.39687 1.60004 0
M  V30 2610 H 253.214 0.575003 0.753708 0
M  V30 2611 H 252.92 1.63251 3.11516 0
M  V30 2612 H 252.794 0.0102061 3.77199 0
M  V30 2613 H 255.181 -0.482654 2.91126 0
M  V30 2614 H 255.262 1.16693 2.27632 0
M  V30 2615 H 254.906 2.06965 4.63819 0
M  V30 2616 H 254.836 0.398286 5.25092 0
M  V30 2617 H 257.327 0.68661 3.7161 0
M  V30 2618 H 257.64 2.01438 7.46085 0
M  V30 2619 H 255.985 1.80488 6.71155 0
M  V30 2620 H 259.176 0.933209 4.58703 0
M  V30 2621 H 259.349 1.53846 6.29472 0
M  V30 2622 N 252.755 -1.56801 0.158532 0
M  V30 2623 C 253.665 -2.20916 -0.789518 0
M  V30 2624 C 254.681 -1.1969 -1.26294 0
M  V30 2625 O 255.857 -1.52308 -1.31773 0
M  V30 2626 C 252.922 -2.82727 -2.00665 0
M  V30 2627 C 251.983 -3.99114 -1.58134 0
M  V30 2628 C 251.216 -4.57968 -2.74045 0
M  V30 2629 O 251.439 -4.15704 -3.90572 0
M  V30 2630 O 250.373 -5.48047 -2.48855 0
M  V30 2631 H 254.199 -3.02464 -0.273681 0
M  V30 2632 H 251.784 -1.4924 -0.0690548 0
M  V30 2633 H 253.666 -3.21968 -2.71872 0
M  V30 2634 H 252.341 -2.04184 -2.51179 0
M  V30 2635 H 251.248 -3.64567 -0.839155 0
M  V30 2636 H 252.581 -4.79212 -1.12325 0
M  V30 2637 N 254.233 0.115231 -1.57178 0
M  V30 2638 C 255.163 1.1423 -2.03651 0
M  V30 2639 C 256.144 1.42967 -0.921655 0
M  V30 2640 O 257.329 1.53343 -1.19162 0
M  V30 2641 C 254.459 2.4675 -2.44401 0
M  V30 2642 C 253.413 2.32467 -3.59365 0
M  V30 2643 C 252.739 3.69984 -3.86026 0
M  V30 2644 C 254.039 1.78203 -4.90959 0
M  V30 2645 H 255.733 0.755749 -2.89705 0
M  V30 2646 H 253.279 0.362093 -1.39373 0
M  V30 2647 H 255.232 3.18854 -2.75517 0
M  V30 2648 H 253.956 2.87302 -1.55322 0
M  V30 2649 H 252.615 1.62811 -3.28463 0
M  V30 2650 H 252.263 4.08028 -2.94147 0
M  V30 2651 H 251.963 3.61279 -4.63412 0
M  V30 2652 H 253.487 4.43587 -4.19599 0
M  V30 2653 H 254.901 2.40128 -5.20587 0
M  V30 2654 H 253.298 1.8031 -5.72371 0
M  V30 2655 H 254.368 0.739876 -4.79222 0
M  V30 2656 N 255.711 1.52812 0.385517 0
M  V30 2657 C 256.939 1.71907 1.15133 0
M  V30 2658 C 257.354 0.439004 1.83625 0
M  V30 2659 O 256.711 -0.586765 1.7281 0
M  V30 2660 C 256.762 2.87099 2.19673 0
M  V30 2661 O 256.483 4.10151 1.53973 0
M  V30 2662 C 257.984 3.17902 3.08955 0
M  V30 2663 H 255.204 0.575479 0.345057 0
M  V30 2664 H 257.748 1.99476 0.45052 0
M  V30 2665 H 255.903 2.61982 2.85384 0
M  V30 2666 H 256.317 4.74514 2.23465 0
M  V30 2667 H 257.791 4.01959 3.7833 0
M  V30 2668 H 258.268 2.3243 3.72657 0
M  V30 2669 H 258.874 3.44871 2.48885 0
M  V30 2670 N 257.189 -0.644168 1.43834 0
M  V30 2671 C 258.605 -0.960875 1.27434 0
M  V30 2672 C 258.805 -2.00499 0.200618 0
M  V30 2673 O 257.861 -2.49018 -0.417906 0
M  V30 2674 C 259.174 -1.43653 2.64167 0
M  V30 2675 C 260.722 -1.55271 2.71772 0
M  V30 2676 C 261.197 -2.06224 4.08944 0
M  V30 2677 N 262.688 -2.13513 4.11055 0
M  V30 2678 C 263.423 -2.54081 5.14033 0
M  V30 2679 N 262.919 -2.9388 6.27381 0
M  V30 2680 N 264.712 -2.54101 5.01387 0
M  V30 2681 H 256.863 0.0465779 2.12349 0
M  V30 2682 H 259.126 -0.0417638 0.94708 0
M  V30 2683 H 258.832 -0.743706 3.43747 0
M  V30 2684 H 258.706 -2.40993 2.90176 0
M  V30 2685 H 261.093 -2.23653 1.92519 0
M  V30 2686 H 261.174 -0.563395 2.49519 0
M  V30 2687 H 260.818 -1.38441 4.88668 0
M  V30 2688 H 260.748 -3.06003 4.28567 0
M  V30 2689 H 263.239 -1.85493 3.29242 0
M  V30 2690 H 263.552 -3.2361 7.01781 0
M  V30 2691 H 261.897 -2.91663 6.30839 0
M  V30 2692 H 265.088 -2.22391 4.11898 0
M  V30 2693 H 265.261 -2.85394 5.81768 0
M  V30 2694 N 258.668 -1.30515 -0.883378 0
M  V30 2695 C 259.578 -1.18959 -2.02203 0
M  V30 2696 C 260.594 -0.109172 -1.73657 0
M  V30 2697 O 261.77 -0.324413 -1.9877 0
M  V30 2698 C 258.835 -0.883871 -3.35244 0
M  V30 2699 C 257.896 -2.04982 -3.77201 0
M  V30 2700 C 257.129 -1.75859 -5.03894 0
M  V30 2701 O 257.352 -0.687276 -5.66244 0
M  V30 2702 O 256.286 -2.61146 -5.42297 0
M  V30 2703 H 260.112 -2.14616 -2.1488 0
M  V30 2704 H 257.697 -1.10124 -1.0096 0
M  V30 2705 H 259.579 -0.728644 -4.15053 0
M  V30 2706 H 258.254 0.0427798 -3.23672 0
M  V30 2707 H 257.161 -2.26038 -2.9809 0
M  V30 2708 H 258.494 -2.95825 -3.93381 0
M  V30 2709 N 260.146 1.09593 -1.13257 0
M  V30 2710 C 261.076 2.18214 -0.830946 0
M  V30 2711 C 262.057 1.68812 0.208966 0
M  V30 2712 O 263.242 1.9408 0.0682666 0
M  V30 2713 C 260.372 3.46051 -0.294296 0
M  V30 2714 C 259.326 4.08778 -1.26826 0
M  V30 2715 C 258.652 5.31419 -0.591449 0
M  V30 2716 C 259.952 4.51476 -2.62615 0
M  V30 2717 H 261.646 2.43703 -1.73923 0
M  V30 2718 H 259.192 1.17128 -0.837675 0
M  V30 2719 H 261.145 4.2134 -0.0709606 0
M  V30 2720 H 259.869 3.20079 0.649366 0
M  V30 2721 H 258.528 3.35505 -1.47756 0
M  V30 2722 H 258.176 5.01727 0.357633 0
M  V30 2723 H 257.876 5.74341 -1.24123 0
M  V30 2724 H 259.4 6.09433 -0.377355 0
M  V30 2725 H 260.814 5.17999 -2.45663 0
M  V30 2726 H 259.211 5.05277 -3.23752 0
M  V30 2727 H 260.281 3.63962 -3.20406 0
M  V30 2728 N 261.624 0.925811 1.2754 0
M  V30 2729 C 262.572 0.413897 2.28888 0
M  V30 2730 C 263.566 -0.500779 1.61829 0
M  V30 2731 O 264.772 -0.38069 1.75928 0
M  V30 2732 H 261.147 0.115274 0.743112 0
M  V30 2733 H 263.118 1.28151 2.69481 0
M  V30 2734 C 261.867 -0.319792 3.46226 0
M  V30 2735 H 261.19 0.374846 3.98039 0
M  V30 2736 H 262.63 -0.642435 4.19105 0
M  V30 2737 C 261.089 -1.53209 3.00048 0
M  V30 2738 O 261.619 -2.6309 3.03557 0
M  V30 2739 N 259.825 -1.38326 2.55566 0
M  V30 2740 H 259.372 -0.489292 2.5291 0
M  V30 2741 H 259.33 -2.19564 2.25031 0
M  V30 2742 N 263.102 -1.41638 0.69111 0
M  V30 2743 C 264.35 -2.00902 0.219758 0
M  V30 2744 C 264.671 -1.54994 -1.18329 0
M  V30 2745 O 263.941 -0.778628 -1.79762 0
M  V30 2746 H 262.521 -0.74289 0.0782558 0
M  V30 2747 H 265.183 -1.73327 0.891271 0
M  V30 2748 H 264.279 -3.11224 0.233708 0
M  V30 2749 N 264.58 -0.43555 -1.51462 0
M  V30 2750 C 265.828 0.131254 -2.01673 0
M  V30 2751 C 266.149 1.43368 -1.32177 0
M  V30 2752 O 265.419 1.90524 -0.455769 0
M  V30 2753 H 263.999 0.0514954 -0.745223 0
M  V30 2754 H 266.661 -0.577847 -1.86137 0
M  V30 2755 H 265.757 0.308446 -3.10572 0
M  V30 2756 N 266.058 1.56714 -0.166846 0
M  V30 2757 C 267.021 2.16539 0.751232 0
M  V30 2758 C 268.021 1.11228 1.16125 0
M  V30 2759 O 269.211 1.36765 1.07894 0
M  V30 2760 C 266.343 2.74462 2.02196 0
M  V30 2761 H 267.536 2.99013 0.230499 0
M  V30 2762 H 265.089 1.56081 0.0826982 0
M  V30 2763 H 265.824 1.95709 2.58589 0
M  V30 2764 H 265.609 3.51527 1.73698 0
M  V30 2765 H 267.099 3.20489 2.67725 0
M  V30 2766 N 267.536 -0.106894 1.57237 0
M  V30 2767 C 268.782 -0.81373 1.85759 0
M  V30 2768 C 269.115 -1.78952 0.754315 0
M  V30 2769 O 268.39 -1.93029 -0.23879 0
M  V30 2770 C 268.673 -1.55293 3.24894 0
M  V30 2771 C 268.526 -0.595929 4.45835 0
M  V30 2772 C 269.845 -2.5063 3.61763 0
M  V30 2773 H 266.964 -0.294369 0.67566 0
M  V30 2774 H 269.606 -0.0776472 1.89841 0
M  V30 2775 H 267.756 -2.1804 3.21544 0
M  V30 2776 H 269.428 0.0236262 4.61294 0
M  V30 2777 H 267.671 0.0916191 4.33703 0
M  V30 2778 H 268.342 -1.15004 5.39887 0
M  V30 2779 H 270.818 -1.97982 3.65981 0
M  V30 2780 H 269.694 -2.99376 4.60071 0
M  V30 2781 H 269.955 -3.3385 2.89821 0
M  V30 2782 N 269.014 -1.53014 -0.377408 0
M  V30 2783 C 270.242 -1.72515 -1.14219 0
M  V30 2784 C 270.657 -0.448735 -1.8339 0
M  V30 2785 O 270.014 0.577592 -1.73119 0
M  V30 2786 C 270.065 -2.8826 -2.18148 0
M  V30 2787 O 269.786 -4.10962 -1.51795 0
M  V30 2788 C 271.287 -3.19536 -3.07264 0
M  V30 2789 H 268.507 -0.577301 -0.342001 0
M  V30 2790 H 271.051 -1.99712 -0.439935 0
M  V30 2791 H 269.206 -2.63492 -2.83991 0
M  V30 2792 H 269.62 -4.75693 -2.20945 0
M  V30 2793 H 271.094 -4.03959 -3.76193 0
M  V30 2794 H 271.571 -2.34403 -3.71419 0
M  V30 2795 H 272.177 -3.46186 -2.47053 0
M  V30 2796 N 270.492 0.636531 -1.44174 0
M  V30 2797 C 271.908 0.954104 -1.27941 0
M  V30 2798 C 272.108 2.0039 -0.211248 0
M  V30 2799 O 271.164 2.49236 0.404695 0
M  V30 2800 C 272.477 1.4225 -2.64925 0
M  V30 2801 C 274.025 1.53827 -2.72592 0
M  V30 2802 C 274.5 2.04053 -4.10032 0
M  V30 2803 N 275.991 2.11331 -4.12182 0
M  V30 2804 C 276.726 2.51352 -5.15374 0
M  V30 2805 N 276.222 2.90549 -6.2893 0
M  V30 2806 N 278.015 2.51438 -5.02728 0
M  V30 2807 H 270.166 -0.0578386 -2.12321 0
M  V30 2808 H 272.429 0.0367406 -0.947288 0
M  V30 2809 H 272.135 0.725466 -3.44136 0
M  V30 2810 H 272.009 2.39451 -2.9145 0
M  V30 2811 H 274.396 2.22628 -1.93702 0
M  V30 2812 H 274.477 0.550154 -2.49814 0
M  V30 2813 H 274.121 1.35848 -4.89395 0
M  V30 2814 H 274.051 3.03726 -4.30184 0
M  V30 2815 H 276.542 1.83745 -3.30222 0
M  V30 2816 H 276.855 3.19884 -7.03487 0
M  V30 2817 H 275.2 2.88313 -6.32377 0
M  V30 2818 H 278.391 2.20203 -4.13072 0
M  V30 2819 H 278.564 2.82304 -5.83274 0
M  V30 2820 N 271.97 1.30982 0.876444 0
M  V30 2821 C 273.2 1.23063 1.65949 0
M  V30 2822 C 273.608 -0.207537 1.88058 0
M  V30 2823 O 272.951 -1.14781 1.43426 0
M  V30 2824 C 273.013 1.89768 3.05333 0
M  V30 2825 C 272.677 3.39106 3.0636 0
M  V30 2826 C 273.674 4.3496 2.84791 0
M  V30 2827 C 271.359 3.80693 3.27686 0
M  V30 2828 C 273.353 5.70375 2.84519 0
M  V30 2829 C 271.04 5.16223 3.27043 0
M  V30 2830 C 272.038 6.10875 3.05485 0
M  V30 2831 O 271.726 7.43928 3.04674 0
M  V30 2832 H 271.458 0.426685 0.524324 0
M  V30 2833 H 274.012 1.7329 1.10271 0
M  V30 2834 H 272.242 1.34082 3.6271 0
M  V30 2835 H 273.931 1.75853 3.65829 0
M  V30 2836 H 274.697 4.0416 2.68103 0
M  V30 2837 H 270.576 3.07457 3.43499 0
M  V30 2838 H 274.12 6.44228 2.67611 0
M  V30 2839 H 270.017 5.4666 3.43269 0
M  V30 2840 H 270.785 7.53022 3.2078 0
M  V30 2841 N 273.449 -1.08991 1.13837 0
M  V30 2842 C 274.695 -1.81526 0.90422 0
M  V30 2843 C 275.028 -1.85706 -0.568066 0
M  V30 2844 O 274.303 -1.32855 -1.42056 0
M  V30 2845 C 274.586 -3.27447 1.49835 0
M  V30 2846 C 274.439 -3.31512 3.04006 0
M  V30 2847 C 275.758 -4.24256 1.17025 0
M  V30 2848 H 272.877 -0.659029 0.329923 0
M  V30 2849 H 275.519 -1.27644 1.40737 0
M  V30 2850 H 273.669 -3.73462 1.07044 0
M  V30 2851 H 275.341 -2.93867 3.55584 0
M  V30 2852 H 273.584 -2.70963 3.38765 0
M  V30 2853 H 274.255 -4.34329 3.40679 0
M  V30 2854 H 276.731 -3.86549 1.54009 0
M  V30 2855 H 275.607 -5.24684 1.61237 0
M  V30 2856 H 275.868 -4.42019 0.0846274 0
M  V30 2857 N 274.927 -0.932562 -1.27047 0
M  V30 2858 C 276.204 -0.49377 -1.89265 0
M  V30 2859 C 276.584 1.02833 -1.8436 0
M  V30 2860 O 275.932 1.88461 -1.29209 0
M  V30 2861 C 276.142 -1.04536 -3.32976 0
M  V30 2862 C 277.49 -1.10879 -4.09867 0
M  V30 2863 O 278.514 -0.995327 -3.42011 0
M  V30 2864 O 277.373 -1.28417 -5.31198 0
M  V30 2865 H 274.467 -0.159596 -0.811454 0
M  V30 2866 H 277.013 -1.02457 -1.3528 0
M  V30 2867 H 275.785 -2.08913 -3.30864 0
M  V30 2868 H 275.408 -0.496494 -3.94488 0
M  V30 2869 N 276.405 1.4127 -0.698611 0
M  V30 2870 C 277.353 2.32588 -0.023855 0
M  V30 2871 C 278.347 1.51128 0.765292 0
M  V30 2872 O 279.553 1.67043 0.670571 0
M  V30 2873 H 275.928 0.751918 0.0110871 0
M  V30 2874 H 277.899 2.87167 -0.811031 0
M  V30 2875 C 276.648 3.35947 0.896369 0
M  V30 2876 H 275.971 3.98684 0.298548 0
M  V30 2877 H 277.411 4.02376 1.33676 0
M  V30 2878 C 275.87 2.70076 2.01396 0
M  V30 2879 O 276.4 2.55093 3.10307 0
M  V30 2880 N 274.606 2.28724 1.79259 0
M  V30 2881 H 274.153 2.4111 0.906841 0
M  V30 2882 H 274.111 1.84986 2.54219 0
M  V30 2883 N 277.883 0.443576 1.51229 0
M  V30 2884 C 278.831 -0.37904 2.29491 0
M  V30 2885 C 279.825 -1.0153 1.35603 0
M  V30 2886 O 281.031 -0.94955 1.52917 0
M  V30 2887 H 277.406 -0.141053 0.738653 0
M  V30 2888 H 279.377 0.301799 2.9687 0
M  V30 2889 C 278.126 -1.46426 3.15364 0
M  V30 2890 H 277.449 -0.984037 3.87501 0
M  V30 2891 H 278.889 -2.01297 3.7317 0
M  V30 2892 C 277.348 -2.45099 2.31146 0
M  V30 2893 O 277.878 -3.49773 1.9754 0
M  V30 2894 N 276.084 -2.16139 1.94249 0
M  V30 2895 H 275.631 -1.31044 2.21777 0
M  V30 2896 H 275.589 -2.82398 1.38198 0
M  V30 2897 N 279.361 -1.56624 0.175154 0
M  V30 2898 C 280.608 -1.96999 -0.468811 0
M  V30 2899 C 280.936 -1.06129 -1.62994 0
M  V30 2900 O 280.191 -0.0961771 -1.95464 0
M  V30 2901 C 280.49 -3.43419 -0.989864 0
M  V30 2902 C 280.156 -4.50866 0.0557687 0
M  V30 2903 C 278.818 -4.79975 0.343134 0
M  V30 2904 C 281.17 -5.15551 0.765308 0
M  V30 2905 C 278.498 -5.71066 1.34536 0
M  V30 2906 C 280.85 -6.07724 1.75654 0
M  V30 2907 C 279.514 -6.35199 2.05132 0
M  V30 2908 H 278.784 -0.720869 -0.17155 0
M  V30 2909 H 281.431 -1.89616 0.267924 0
M  V30 2910 H 279.736 -3.47772 -1.80449 0
M  V30 2911 H 281.433 -3.72002 -1.49719 0
M  V30 2912 H 278.023 -4.28229 -0.178381 0
M  V30 2913 H 282.207 -4.9317 0.556513 0
M  V30 2914 H 277.463 -5.90635 1.57988 0
M  V30 2915 H 281.637 -6.56912 2.31169 0
M  V30 2916 H 279.264 -7.05584 2.8294 0
M  V30 2917 N 280.839 0.0985539 -1.57292 0
M  V30 2918 C 282.079 0.808332 -1.87737 0
M  V30 2919 C 282.443 1.7607 -0.76572 0
M  V30 2920 O 283.644 2.51358 -0.952499 0
M  V30 2921 C 281.915 1.52093 -3.23423 0
M  V30 2922 S 283.474 2.26947 -3.75554 0
M  V30 2923 H 280.292 0.269377 -0.657995 0
M  V30 2924 H 282.894 0.0656269 -1.9539 0
M  V30 2925 H 281.598 0.81363 -4.02254 0
M  V30 2926 H 281.129 2.30361 -3.189 0
M  V30 2927 H 283.144 3.53027 -3.48692 0
M  V30 2928 N 282.317 1.53212 0.369288 0
M  V30 2929 C 283.565 1.68881 1.11012 0
M  V30 2930 C 283.886 0.441285 1.89941 0
M  V30 2931 O 283.156 -0.544623 1.88177 0
M  V30 2932 H 281.736 0.622569 0.412816 0
M  V30 2933 H 284.398 1.90391 0.416802 0
M  V30 2934 H 283.494 2.54822 1.80201 0
M  V30 2935 N 283.795 -0.628877 1.44509 0
M  V30 2936 C 285.206 -1.21054 1.42137 0
M  V30 2937 C 285.557 -1.95715 0.137881 0
M  V30 2938 O 284.682 -2.02554 -0.761645 0
M  V30 2939 C 285.277 -2.20189 2.57493 0
M  V30 2940 C 283.836 -2.73777 2.58308 0
M  V30 2941 C 282.983 -1.48813 2.33987 0
M  V30 2942 H 285.934 -0.41942 1.53057 0
M  V30 2943 H 285.955 -3.02833 2.30375 0
M  V30 2944 H 285.467 -1.6582 3.50892 0
M  V30 2945 H 283.568 -3.32142 1.68856 0
M  V30 2946 H 283.681 -3.19662 3.56865 0
M  V30 2947 H 282.045 -1.77024 1.83124 0
M  V30 2948 H 282.828 -0.963442 3.29504 0
M  V30 2949 N 285.273 -1.31445 -0.869486 0
M  V30 2950 C 286.55 -1.11795 -1.60503 0
M  V30 2951 C 286.93 0.327168 -2.08549 0
M  V30 2952 O 286.278 1.32135 -1.8642 0
M  V30 2953 C 286.488 -2.13258 -2.76265 0
M  V30 2954 C 287.836 -2.45805 -3.46215 0
M  V30 2955 O 288.86 -2.11688 -2.86473 0
M  V30 2956 O 287.719 -3.04228 -4.5399 0
M  V30 2957 H 284.813 -0.430421 -0.706163 0
M  V30 2958 H 287.359 -1.42925 -0.914907 0
M  V30 2959 H 286.131 -3.10461 -2.3818 0
M  V30 2960 H 285.754 -1.83035 -3.52964 0
M  V30 2961 N 286.751 1.08385 -1.14413 0
M  V30 2962 C 287.999 1.80419 -0.910679 0
M  V30 2963 C 288.32 1.86658 0.564243 0
M  V30 2964 O 287.59 1.35985 1.41014 0
M  V30 2965 H 286.17 0.668204 -0.333934 0
M  V30 2966 H 288.832 1.31037 -1.44275 0
M  V30 2967 H 287.928 2.83238 -1.31082 0
M  V30 2968 N 288.23 0.939286 1.26551 0
M  V30 2969 C 289.46 0.601663 1.97645 0
M  V30 2970 C 289.868 -0.827206 1.70159 0
M  V30 2971 O 289.211 -1.56291 0.965338 0
M  V30 2972 C 289.273 0.761725 3.51337 0
M  V30 2973 C 288.937 2.16487 4.0247 0
M  V30 2974 C 289.934 3.14016 4.14355 0
M  V30 2975 C 287.619 2.48494 4.36527 0
M  V30 2976 C 289.613 4.41654 4.59587 0
M  V30 2977 C 287.3 3.76364 4.81449 0
M  V30 2978 C 288.298 4.72758 4.92939 0
M  V30 2979 O 287.986 5.98352 5.36871 0
M  V30 2980 H 287.718 0.225758 0.637189 0
M  V30 2981 H 290.272 1.26178 1.62075 0
M  V30 2982 H 288.502 0.0444808 3.86674 0
M  V30 2983 H 290.191 0.427442 4.03643 0
M  V30 2984 H 290.957 2.90613 3.8829 0
M  V30 2985 H 286.836 1.74202 4.26819 0
M  V30 2986 H 290.38 5.16896 4.68471 0
M  V30 2987 H 286.277 3.99582 5.06956 0
M  V30 2988 H 287.045 6.01507 5.55096 0
M  V30 2989 N 289.708 -1.40897 0.706093 0
M  V30 2990 C 291.119 -1.84023 0.315052 0
M  V30 2991 C 291.47 -1.5906 -1.14866 0
M  V30 2992 O 290.595 -1.06651 -1.88293 0
M  V30 2993 C 291.19 -3.34055 0.565038 0
M  V30 2994 C 289.749 -3.7571 0.227806 0
M  V30 2995 C 288.896 -2.64204 0.842122 0
M  V30 2996 H 291.847 -1.303 0.905963 0
M  V30 2997 H 291.868 -3.80107 -0.172843 0
M  V30 2998 H 291.38 -3.52192 1.63042 0
M  V30 2999 H 289.481 -3.63172 -0.832895 0
M  V30 3000 H 289.594 -4.74103 0.690174 0
M  V30 3001 H 287.958 -2.53255 0.270893 0
M  V30 3002 H 288.741 -2.85155 1.91158 0
M  V30 3003 N 291.186 -0.45159 -1.50991 0
M  V30 3004 C 292.116 0.342898 -2.30969 0
M  V30 3005 C 293.097 1.00815 -1.37005 0
M  V30 3006 O 294.282 1.00907 -1.65926 0
M  V30 3007 C 291.412 1.43637 -3.16205 0
M  V30 3008 C 290.366 0.893818 -4.18563 0
M  V30 3009 C 289.692 2.08411 -4.92411 0
M  V30 3010 C 290.992 -0.0815568 -5.22236 0
M  V30 3011 H 292.686 -0.324556 -2.97636 0
M  V30 3012 H 290.232 -0.157531 -1.43136 0
M  V30 3013 H 292.185 1.9995 -3.70942 0
M  V30 3014 H 290.909 2.13232 -2.47386 0
M  V30 3015 H 289.568 0.352798 -3.64898 0
M  V30 3016 H 289.216 2.76658 -4.20082 0
M  V30 3017 H 288.916 1.72741 -5.61636 0
M  V30 3018 H 290.44 2.65251 -5.49976 0
M  V30 3019 H 291.854 0.391742 -5.7196 0
M  V30 3020 H 290.251 -0.351551 -5.99069 0
M  V30 3021 H 291.321 -1.01374 -4.74185 0
M  V30 3022 N 292.664 1.56529 -0.183458 0
M  V30 3023 C 293.941 1.88959 0.50536 0
M  V30 3024 C 294.321 1.09523 1.80466 0
M  V30 3025 O 293.669 0.19278 2.27685 0
M  V30 3026 C 293.879 3.41162 0.73547 0
M  V30 3027 C 295.227 4.11155 1.06005 0
M  V30 3028 O 296.251 3.46548 0.823594 0
M  V30 3029 O 295.11 5.25318 1.50675 0
M  V30 3030 H 292.204 0.78441 0.261973 0
M  V30 3031 H 294.75 1.68231 -0.222802 0
M  V30 3032 H 293.522 3.90874 -0.182561 0
M  V30 3033 H 293.145 3.67543 1.51651 0
M  V30 3034 N 294.142 -0.090211 1.57342 0
M  V30 3035 C 295.382 -0.798365 1.88163 0
M  V30 3036 C 295.746 -1.75662 0.775046 0
M  V30 3037 O 296.947 -2.50849 0.965816 0
M  V30 3038 C 295.218 -1.50376 3.24225 0
M  V30 3039 S 296.777 -2.24952 3.76752 0
M  V30 3040 H 293.595 -0.265883 0.659414 0
M  V30 3041 H 296.197 -0.055264 1.95422 0
M  V30 3042 H 294.901 -0.792286 4.0268 0
M  V30 3043 H 294.432 -2.28666 3.20118 0
M  V30 3044 H 296.447 -3.51173 3.5056 0
M  V30 3045 N 295.62 -1.53406 -0.361157 0
M  V30 3046 C 296.869 -1.69022 -1.10066 0
M  V30 3047 C 297.182 -0.450838 -1.90333 0
M  V30 3048 O 298.388 -0.487617 -2.67085 0
M  V30 3049 C 296.844 -2.98812 -2.00598 0
M  V30 3050 C 296.452 -4.30027 -1.25621 0
M  V30 3051 C 298.196 -3.23795 -2.74513 0
M  V30 3052 C 296.103 -5.50903 -2.1508 0
M  V30 3053 H 295.033 -0.629776 -0.414606 0
M  V30 3054 H 297.684 -1.79907 -0.361348 0
M  V30 3055 H 296.066 -2.8174 -2.78278 0
M  V30 3056 H 297.24 -4.57745 -0.529739 0
M  V30 3057 H 295.555 -4.11522 -0.635496 0
M  V30 3058 H 298.152 -4.11289 -3.41681 0
M  V30 3059 H 298.495 -2.40045 -3.40123 0
M  V30 3060 H 299.028 -3.41561 -2.03914 0
M  V30 3061 H 295.767 -6.37143 -1.54041 0
M  V30 3062 H 295.287 -5.27459 -2.85565 0
M  V30 3063 H 296.966 -5.85865 -2.74538 0
M  V30 3064 N 297.098 0.621204 -1.44841 0
M  V30 3065 C 298.045 1.73267 -1.5247 0
M  V30 3066 C 299.015 1.6189 -0.371611 0
M  V30 3067 O 300.2 1.81668 -0.58321 0
M  V30 3068 C 297.34 3.11545 -1.48438 0
M  V30 3069 C 296.453 3.33827 -2.74196 0
M  V30 3070 C 295.588 4.62133 -2.61929 0
M  V30 3071 C 294.627 4.77627 -3.82804 0
M  V30 3072 N 293.764 5.97219 -3.69153 0
M  V30 3073 H 298.604 1.66082 -2.47428 0
M  V30 3074 H 296.141 0.810026 -1.22788 0
M  V30 3075 H 298.099 3.91528 -1.4409 0
M  V30 3076 H 296.729 3.1772 -0.570402 0
M  V30 3077 H 295.781 2.47715 -2.88689 0
M  V30 3078 H 297.093 3.41153 -3.6389 0
M  V30 3079 H 296.247 5.50291 -2.5547 0
M  V30 3080 H 294.986 4.57182 -1.69811 0
M  V30 3081 H 293.991 3.87896 -3.89637 0
M  V30 3082 H 295.216 4.84385 -4.75971 0
M  V30 3083 H 293.162 5.93339 -2.79794 0
M  V30 3084 H 293.079 6.05644 -4.52472 0
M  V30 3085 H 294.347 6.87912 -3.66603 0
M  V30 3086 N 298.576 1.31904 0.862503 0
M  V30 3087 C 299.853 1.12644 1.59908 0
M  V30 3088 C 300.233 -0.316104 2.0872 0
M  V30 3089 O 299.581 -1.31145 1.87118 0
M  V30 3090 C 299.791 2.1472 2.7513 0
M  V30 3091 C 301.139 2.47637 3.44907 0
M  V30 3092 O 302.163 2.13205 2.85346 0
M  V30 3093 O 301.022 3.06632 4.52371 0
M  V30 3094 H 298.116 0.43416 0.703871 0
M  V30 3095 H 300.662 1.43408 0.907314 0
M  V30 3096 H 299.434 3.1172 2.3653 0
M  V30 3097 H 299.057 1.84905 3.51989 0
M  V30 3098 N 300.054 -1.07777 1.14986 0
M  V30 3099 C 301.301 -1.8029 0.922056 0
M  V30 3100 C 301.629 -1.86531 -0.55105 0
M  V30 3101 O 300.884 -1.34189 -1.42449 0
M  V30 3102 C 301.183 -3.25495 1.47608 0
M  V30 3103 C 300.849 -3.39361 2.96893 0
M  V30 3104 C 299.511 -3.42852 3.37647 0
M  V30 3105 C 301.863 -3.42512 3.92854 0
M  V30 3106 C 299.191 -3.47094 4.73015 0
M  V30 3107 C 301.543 -3.4829 5.28088 0
M  V30 3108 C 300.207 -3.50058 5.68345 0
M  V30 3109 H 299.477 -0.659727 0.337404 0
M  V30 3110 H 302.124 -1.26854 1.43459 0
M  V30 3111 H 300.429 -3.81683 0.88463 0
M  V30 3112 H 302.126 -3.80168 1.27568 0
M  V30 3113 H 298.716 -3.37339 2.64387 0
M  V30 3114 H 302.9 -3.3904 3.62444 0
M  V30 3115 H 298.156 -3.46758 5.03556 0
M  V30 3116 H 302.33 -3.49675 6.02246 0
M  V30 3117 H 299.957 -3.53097 6.73221 0
M  V30 3118 N 301.532 -0.945985 -1.26051 0
M  V30 3119 C 302.462 -0.477172 -2.28572 0
M  V30 3120 C 303.443 0.472032 -1.63419 0
M  V30 3121 O 304.628 0.372853 -1.90587 0
M  V30 3122 C 301.758 0.253975 -3.4637 0
M  V30 3123 C 300.712 -0.609135 -4.23643 0
M  V30 3124 C 300.038 0.252252 -5.34105 0
M  V30 3125 C 301.338 -1.8829 -4.8718 0
M  V30 3126 H 303.032 -1.33402 -2.68038 0
M  V30 3127 H 300.578 -0.642904 -1.28852 0
M  V30 3128 H 302.531 0.593016 -4.17207 0
M  V30 3129 H 301.255 1.145 -3.05871 0
M  V30 3130 H 299.914 -0.931138 -3.54578 0
M  V30 3131 H 299.562 1.14278 -4.89846 0
M  V30 3132 H 299.262 -0.32188 -5.86718 0
M  V30 3133 H 300.786 0.586454 -6.07777 0
M  V30 3134 H 302.2 -1.61081 -5.50205 0
M  V30 3135 H 300.597 -2.40199 -5.49931 0
M  V30 3136 H 301.667 -2.59134 -4.09851 0
M  V30 3137 N 303.011 1.40521 -0.713556 0
M  V30 3138 C 303.974 2.29098 -0.0684347 0
M  V30 3139 C 304.974 1.45268 0.689472 0
M  V30 3140 O 306.164 1.66205 0.521677 0
M  V30 3141 C 303.296 3.28446 0.913024 0
M  V30 3142 H 304.489 2.87645 -0.84855 0
M  V30 3143 H 302.042 1.48809 -0.47809 0
M  V30 3144 H 302.777 2.74913 1.72027 0
M  V30 3145 H 302.562 3.90327 0.372472 0
M  V30 3146 H 304.052 3.94777 1.36165 0
M  V30 3147 N 304.489 0.459591 1.5075 0
M  V30 3148 C 305.905 0.113092 1.59199 0
M  V30 3149 C 306.105 -1.37951 1.46874 0
M  V30 3150 O 305.161 -2.15168 1.32132 0
M  V30 3151 C 306.474 0.653043 2.93523 0
M  V30 3152 C 308.022 0.615449 3.0689 0
M  V30 3153 C 308.497 1.13275 4.43771 0
M  V30 3154 N 309.988 1.09167 4.50152 0
M  V30 3155 C 310.723 1.46256 5.54434 0
M  V30 3156 N 310.219 1.90739 6.66026 0
M  V30 3157 N 312.012 1.37932 5.44914 0
M  V30 3158 H 304.163 1.43049 1.57005 0
M  V30 3159 H 306.426 0.590861 0.741341 0
M  V30 3160 H 306.132 1.69822 3.07983 0
M  V30 3161 H 306.006 0.0902132 3.77092 0
M  V30 3162 H 308.393 -0.420793 2.92084 0
M  V30 3163 H 308.474 1.21495 2.25106 0
M  V30 3164 H 308.118 2.16757 4.59324 0
M  V30 3165 H 308.048 0.509576 5.24129 0
M  V30 3166 H 310.539 0.76528 3.7007 0
M  V30 3167 H 310.852 2.17218 7.41644 0
M  V30 3168 H 309.197 1.94683 6.67176 0
M  V30 3169 H 312.388 1.0303 4.56621 0
M  V30 3170 H 312.561 1.67164 6.26067 0
M  V30 3171 N 305.967 -1.56429 0.191757 0
M  V30 3172 C 306.93 -2.17707 -0.716688 0
M  V30 3173 C 307.93 -1.13061 -1.14341 0
M  V30 3174 O 309.12 -1.38464 -1.05704 0
M  V30 3175 C 306.252 -2.77644 -1.97804 0
M  V30 3176 H 307.445 -2.99342 -0.1829 0
M  V30 3177 H 304.998 -1.56193 -0.0578566 0
M  V30 3178 H 305.733 -1.99799 -2.55443 0
M  V30 3179 H 305.518 -3.54246 -1.68083 0
M  V30 3180 H 307.008 -3.24708 -2.62592 0
M  V30 3181 N 307.445 0.0818655 -1.57387 0
M  V30 3182 C 308.693 0.781368 -1.86384 0
M  V30 3183 C 309.014 1.78618 -0.782342 0
M  V30 3184 O 308.284 1.94976 0.190061 0
M  V30 3185 H 306.864 0.291562 -0.687751 0
M  V30 3186 H 309.526 0.060348 -1.94807 0
M  V30 3187 H 308.622 1.3038 -2.83562 0
M  V30 3188 N 308.923 1.53595 0.353017 0
M  V30 3189 C 309.87 1.80919 1.43308 0
M  V30 3190 C 310.84 0.654288 1.5267 0
M  V30 3191 O 312.025 0.897759 1.6836 0
M  V30 3192 C 309.165 2.01605 2.80089 0
M  V30 3193 C 308.278 3.29321 2.79593 0
M  V30 3194 C 307.413 3.40125 4.0803 0
M  V30 3195 C 306.452 4.61826 4.01725 0
M  V30 3196 N 305.589 4.69716 5.21834 0
M  V30 3197 H 310.429 2.73074 1.19308 0
M  V30 3198 H 307.966 1.35263 0.578131 0
M  V30 3199 H 309.924 2.11586 3.59565 0
M  V30 3200 H 308.554 1.12772 3.0246 0
M  V30 3201 H 307.606 3.28229 1.92276 0
M  V30 3202 H 308.918 4.18884 2.70809 0
M  V30 3203 H 308.072 3.49488 4.95927 0
M  V30 3204 H 306.811 2.48601 4.19582 0
M  V30 3205 H 305.816 4.52552 3.12213 0
M  V30 3206 H 307.041 5.54705 3.91764 0
M  V30 3207 H 304.987 3.81097 5.33948 0
M  V30 3208 H 304.904 5.53202 5.1527 0
M  V30 3209 H 306.172 4.83376 6.11529 0
M  V30 3210 N 310.401 -0.613514 1.45168 0
M  V30 3211 C 311.626 -1.40437 1.52618 0
M  V30 3212 C 312.051 -1.87438 0.157707 0
M  V30 3213 O 311.409 -1.59791 -0.856537 0
M  V30 3214 C 311.457 -2.58894 2.51011 0
M  V30 3215 O 310.561 -3.59326 2.02382 0
M  V30 3216 H 309.902 -0.419506 0.514695 0
M  V30 3217 H 312.432 -0.747215 1.90467 0
M  V30 3218 H 312.442 -3.06214 2.69624 0
M  V30 3219 H 311.117 -2.24032 3.50403 0
M  V30 3220 H 309.694 -3.18695 1.93618 0
M  V30 3221 N 311.879 -1.3236 -0.855495 0
M  V30 3222 C 312.812 -1.15559 -1.96777 0
M  V30 3223 C 313.79 -0.0552681 -1.62506 0
M  V30 3224 O 314.974 -0.214419 -1.87277 0
M  V30 3225 C 312.101 -0.768851 -3.29858 0
M  V30 3226 C 311.147 -1.87429 -3.83109 0
M  V30 3227 S 311.98 -3.48243 -4.06801 0
M  V30 3228 C 313.136 -3.11539 -5.42858 0
M  V30 3229 H 313.369 -2.09717 -2.10727 0
M  V30 3230 H 310.902 -1.17011 -1.00737 0
M  V30 3231 H 312.86 -0.55248 -4.06765 0
M  V30 3232 H 311.521 0.153857 -3.13723 0
M  V30 3233 H 310.714 -1.55667 -4.79358 0
M  V30 3234 H 310.316 -2.04647 -3.13042 0
M  V30 3235 H 312.608 -2.61331 -6.2507 0
M  V30 3236 H 313.551 -4.06806 -5.79582 0
M  V30 3237 H 313.959 -2.48582 -5.06821 0
M  V30 3238 N 313.357 1.07166 -1.15556 0
M  V30 3239 C 314.597 1.81391 -0.94216 0
M  V30 3240 C 314.961 1.84788 0.521272 0
M  V30 3241 O 316.162 2.54904 0.85307 0
M  V30 3242 C 314.433 3.22431 -1.54185 0
M  V30 3243 S 315.992 4.13379 -1.47183 0
M  V30 3244 H 312.81 0.624963 -0.339031 0
M  V30 3245 H 315.412 1.28725 -1.4714 0
M  V30 3246 H 314.116 3.17548 -2.59984 0
M  V30 3247 H 313.647 3.80172 -1.01156 0
M  V30 3248 H 315.662 4.94007 -0.466004 0
M  V30 3249 N 314.835 0.952656 1.25548 0
M  V30 3250 C 316.063 0.623496 1.97282 0
M  V30 3251 C 316.478 -0.803987 1.70826 0
M  V30 3252 O 315.835 -1.53755 0.983147 0
M  V30 3253 C 315.886 0.870209 3.5087 0
M  V30 3254 O 315.607 2.24156 3.76412 0
M  V30 3255 C 317.108 0.553164 4.39835 0
M  V30 3256 H 314.328 0.233931 0.628902 0
M  V30 3257 H 316.872 1.27649 1.59768 0
M  V30 3258 H 315.027 0.263652 3.86502 0
M  V30 3259 H 315.441 2.31021 4.70882 0
M  V30 3260 H 316.915 0.776342 5.46513 0
M  V30 3261 H 317.392 -0.512215 4.36203 0
M  V30 3262 H 317.998 1.13896 4.09766 0
M  V30 3263 N 316.313 -1.40141 0.720998 0
M  V30 3264 C 317.243 -2.33339 0.0867621 0
M  V30 3265 C 318.224 -1.53178 -0.739622 0
M  V30 3266 O 319.409 -1.81625 -0.687449 0
M  V30 3267 C 316.539 -3.37194 -0.831728 0
M  V30 3268 C 315.493 -4.27857 -0.110558 0
M  V30 3269 C 314.819 -5.22294 -1.14513 0
M  V30 3270 C 316.119 -5.11872 1.0385 0
M  V30 3271 H 317.813 -2.86626 0.865219 0
M  V30 3272 H 315.359 -1.37814 0.417516 0
M  V30 3273 H 317.312 -4.01335 -1.28485 0
M  V30 3274 H 316.036 -2.82314 -1.64214 0
M  V30 3275 H 314.695 -3.65176 0.322797 0
M  V30 3276 H 314.343 -4.63717 -1.94874 0
M  V30 3277 H 314.043 -5.83797 -0.667446 0
M  V30 3278 H 315.567 -5.89312 -1.59824 0
M  V30 3279 H 316.981 -5.69436 0.664482 0
M  V30 3280 H 315.378 -5.82445 1.4449 0
M  V30 3281 H 316.448 -4.4753 1.86668 0
M  V30 3282 N 317.792 -0.46758 -1.50504 0
M  V30 3283 C 319.017 0.0886943 -2.0721 0
M  V30 3284 C 319.442 1.33057 -1.32956 0
M  V30 3285 O 318.8 1.77354 -0.376197 0
M  V30 3286 C 318.848 0.359202 -3.58806 0
M  V30 3287 O 317.952 1.44034 -3.8643 0
M  V30 3288 H 317.293 -0.0114349 -0.663902 0
M  V30 3289 H 319.823 -0.657613 -1.93744 0
M  V30 3290 H 319.833 0.600742 -4.03553 0
M  V30 3291 H 318.508 -0.548311 -4.1227 0
M  V30 3292 H 317.085 1.18638 -3.53524 0
M  V30 3293 N 319.27 1.56325 -0.20005 0
M  V30 3294 C 320.18 2.22931 0.730668 0
M  V30 3295 C 321.196 1.22997 1.23076 0
M  V30 3296 O 322.372 1.55748 1.27689 0
M  V30 3297 C 319.437 2.87948 1.93098 0
M  V30 3298 C 318.498 4.03166 1.47497 0
M  V30 3299 C 317.731 4.65073 2.61807 0
M  V30 3300 O 317.954 4.25913 3.79413 0
M  V30 3301 O 316.888 5.54452 2.34237 0
M  V30 3302 H 320.714 3.03084 0.193391 0
M  V30 3303 H 318.299 1.49371 0.0294621 0
M  V30 3304 H 320.181 3.29063 2.6324 0
M  V30 3305 H 318.856 2.10771 2.45677 0
M  V30 3306 H 317.763 3.66664 0.742201 0
M  V30 3307 H 319.096 4.82022 0.995796 0
M  V30 3308 N 320.748 -0.0735177 1.57428 0
M  V30 3309 C 321.68 -1.11423 2.00294 0
M  V30 3310 C 322.693 -1.35084 0.908637 0
M  V30 3311 O 323.882 -1.33355 1.18654 0
M  V30 3312 C 320.982 -2.46548 2.32523 0
M  V30 3313 C 320.155 -2.42867 3.63778 0
M  V30 3314 C 319.214 -3.60087 3.83697 0
M  V30 3315 O 318.24 -3.41595 4.55304 0
M  V30 3316 N 319.442 -4.80372 3.25919 0
M  V30 3317 H 322.207 -0.749206 2.90184 0
M  V30 3318 H 319.768 -0.262195 1.59763 0
M  V30 3319 H 321.76 -3.23607 2.43024 0
M  V30 3320 H 320.33 -2.75059 1.48531 0
M  V30 3321 H 319.55 -1.51206 3.64047 0
M  V30 3322 H 320.838 -2.37506 4.49965 0
M  V30 3323 H 320.236 -4.983 2.67795 0
M  V30 3324 H 318.793 -5.54948 3.41871 0
M  V30 3325 N 322.226 -1.5378 -0.344866 0
M  V30 3326 C 323.156 -1.84662 -1.42906 0
M  V30 3327 C 324.137 -0.701648 -1.54955 0
M  V30 3328 O 325.322 -0.953438 -1.69184 0
M  V30 3329 C 322.452 -2.05503 -2.79974 0
M  V30 3330 C 321.406 -3.21318 -2.82734 0
M  V30 3331 C 320.732 -3.2749 -4.22675 0
M  V30 3332 C 322.032 -4.59456 -2.48389 0
M  V30 3333 H 323.726 -2.75461 -1.17311 0
M  V30 3334 H 321.272 -1.32542 -0.562896 0
M  V30 3335 H 323.225 -2.25691 -3.55867 0
M  V30 3336 H 321.949 -1.11434 -3.07002 0
M  V30 3337 H 320.608 -3.00984 -2.09294 0
M  V30 3338 H 320.256 -2.31019 -4.4681 0
M  V30 3339 H 319.956 -4.05316 -4.25433 0
M  V30 3340 H 321.48 -3.49887 -5.00412 0
M  V30 3341 H 322.894 -4.79667 -3.13995 0
M  V30 3342 H 321.291 -5.39675 -2.62432 0
M  V30 3343 H 322.361 -4.63155 -1.4358 0
M  V30 3344 N 323.704 0.605807 -1.45491 0
M  V30 3345 C 324.981 1.36522 -1.40075 0
M  V30 3346 C 325.361 2.10976 -0.0722744 0
M  V30 3347 O 324.709 2.08007 0.945808 0
M  V30 3348 C 324.919 2.31056 -2.61561 0
M  V30 3349 C 326.267 2.93608 -3.06724 0
M  V30 3350 O 327.291 2.41376 -2.61946 0
M  V30 3351 O 326.15 3.88421 -3.84437 0
M  V30 3352 H 323.244 0.612248 -0.555951 0
M  V30 3353 H 325.79 0.628747 -1.57623 0
M  V30 3354 H 324.562 1.75311 -3.49831 0
M  V30 3355 H 324.185 3.12081 -2.46356 0
M  V30 3356 N 325.182 1.32811 0.848464 0
M  V30 3357 C 326.412 1.26556 1.63301 0
M  V30 3358 C 326.82 -0.1676 1.88456 0
M  V30 3359 O 326.163 -1.11713 1.45828 0
M  V30 3360 C 326.225 1.96202 3.01239 0
M  V30 3361 C 325.889 3.45528 2.99098 0
M  V30 3362 C 326.886 4.40903 2.75501 0
M  V30 3363 C 324.571 3.87558 3.19537 0
M  V30 3364 C 326.565 5.76282 2.72356 0
M  V30 3365 C 324.252 5.23044 3.16019 0
M  V30 3366 C 325.25 6.17217 2.92458 0
M  V30 3367 O 324.938 7.50223 2.88825 0
M  V30 3368 H 324.67 0.43771 0.515156 0
M  V30 3369 H 327.224 1.7559 1.0657 0
M  V30 3370 H 325.454 1.41746 3.59785 0
M  V30 3371 H 327.143 1.83573 3.62016 0
M  V30 3372 H 327.909 4.09756 2.5947 0
M  V30 3373 H 323.788 3.14674 3.369 0
M  V30 3374 H 327.332 6.4976 2.53886 0
M  V30 3375 H 323.229 5.53818 3.31596 0
M  V30 3376 H 323.997 7.59657 3.04735 0
M  V30 3377 N 326.66 -1.06551 1.16123 0
M  V30 3378 C 327.909 -1.78687 0.935622 0
M  V30 3379 C 328.222 -1.88056 -0.538001 0
M  V30 3380 O 329.428 -2.56794 -0.88143 0
M  V30 3381 C 327.884 -3.21143 1.62466 0
M  V30 3382 C 327.492 -3.19949 3.13587 0
M  V30 3383 C 329.236 -3.9783 1.48092 0
M  V30 3384 C 327.143 -4.57108 3.75241 0
M  V30 3385 H 326.073 -0.669712 0.346412 0
M  V30 3386 H 328.724 -1.19534 1.39226 0
M  V30 3387 H 327.106 -3.80539 1.09572 0
M  V30 3388 H 328.28 -2.70151 3.73303 0
M  V30 3389 H 326.595 -2.5676 3.27816 0
M  V30 3390 H 329.192 -4.99217 1.91538 0
M  V30 3391 H 329.535 -4.14078 0.429507 0
M  V30 3392 H 330.068 -3.4495 1.98127 0
M  V30 3393 H 326.807 -4.46065 4.80319 0
M  V30 3394 H 326.327 -5.07111 3.20309 0
M  V30 3395 H 328.006 -5.26069 3.76644 0
M  V30 3396 N 328.138 -0.959301 -1.25041 0
M  V30 3397 C 329.048 -0.489994 -2.29426 0
M  V30 3398 C 330.064 0.444944 -1.68215 0
M  V30 3399 O 331.24 0.320046 -1.98841 0
M  V30 3400 C 328.305 0.220309 -3.45999 0
M  V30 3401 C 327.366 -0.753418 -4.22637 0
M  V30 3402 C 326.599 -0.076918 -5.33645 0
M  V30 3403 O 326.822 1.13649 -5.58963 0
M  V30 3404 O 325.756 -0.764824 -5.97021 0
M  V30 3405 H 329.582 -1.35755 -2.71669 0
M  V30 3406 H 327.167 -0.725961 -1.30576 0
M  V30 3407 H 329.049 0.619677 -4.16819 0
M  V30 3408 H 327.724 1.06296 -3.0575 0
M  V30 3409 H 326.631 -1.20308 -3.54227 0
M  V30 3410 H 327.964 -1.56423 -4.66683 0
M  V30 3411 N 329.616 1.39756 -0.72842 0
M  V30 3412 C 330.841 2.05472 -0.282159 0
M  V30 3413 C 331.266 1.54549 1.07221 0
M  V30 3414 O 330.624 0.686372 1.67805 0
M  V30 3415 C 330.672 3.59462 -0.286264 0
M  V30 3416 O 329.776 4.05918 0.728298 0
M  V30 3417 H 329.117 0.651226 -0.129618 0
M  V30 3418 H 331.647 1.78915 -0.992499 0
M  V30 3419 H 331.657 4.07798 -0.128373 0
M  V30 3420 H 330.332 3.95889 -1.27456 0
M  V30 3421 H 328.909 3.69012 0.537081 0
M  V30 3422 N 331.094 0.475555 1.50254 0
M  V30 3423 C 332.041 -0.316293 2.28622 0
M  V30 3424 C 333.011 -0.983227 1.33873 0
M  V30 3425 O 334.196 -0.994805 1.62814 0
M  V30 3426 C 331.336 -1.38975 3.1588 0
M  V30 3427 C 330.449 -0.737146 4.25664 0
M  V30 3428 C 329.584 -1.78887 5.00173 0
M  V30 3429 C 328.623 -1.11676 6.01826 0
M  V30 3430 N 327.76 -2.11154 6.69596 0
M  V30 3431 H 332.6 0.358297 2.95838 0
M  V30 3432 H 330.137 0.188541 1.45887 0
M  V30 3433 H 332.095 -2.02383 3.64825 0
M  V30 3434 H 330.725 -2.03344 2.50701 0
M  V30 3435 H 329.777 0.0096065 3.80399 0
M  V30 3436 H 331.089 -0.206816 4.98371 0
M  V30 3437 H 330.243 -2.49865 5.52859 0
M  V30 3438 H 328.982 -2.35302 4.27182 0
M  V30 3439 H 327.987 -0.392633 5.48396 0
M  V30 3440 H 329.212 -0.55945 6.76792 0
M  V30 3441 H 327.158 -2.66577 5.99394 0
M  V30 3442 H 327.075 -1.63118 7.38193 0
M  V30 3443 H 328.343 -2.81497 7.26897 0
M  V30 3444 N 332.573 -1.56217 0.208337 0
M  V30 3445 C 333.989 -1.58919 -0.14729 0
M  V30 3446 C 334.189 -1.22486 -1.59998 0
M  V30 3447 O 333.245 -0.953849 -2.3379 0
M  V30 3448 C 334.558 -3.00236 0.167048 0
M  V30 3449 C 336.106 -3.12813 0.108219 0
M  V30 3450 C 336.581 -4.56284 0.396049 0
M  V30 3451 N 338.072 -4.61912 0.345142 0
M  V30 3452 C 338.807 -5.70837 0.541523 0
M  V30 3453 N 338.303 -6.88178 0.798968 0
M  V30 3454 N 340.096 -5.60091 0.474867 0
M  V30 3455 H 332.247 -1.78177 1.15614 0
M  V30 3456 H 334.51 -0.827555 0.462446 0
M  V30 3457 H 334.216 -3.31499 1.1748 0
M  V30 3458 H 334.09 -3.7354 -0.524184 0
M  V30 3459 H 336.477 -2.81354 -0.890157 0
M  V30 3460 H 336.558 -2.41866 0.832729 0
M  V30 3461 H 336.202 -4.88458 1.3918 0
M  V30 3462 H 336.132 -5.25439 -0.349502 0
M  V30 3463 H 338.623 -3.77589 0.153316 0
M  V30 3464 H 338.936 -7.67095 0.93727 0
M  V30 3465 H 337.281 -6.89953 0.836013 0
M  V30 3466 H 340.472 -4.67297 0.274064 0
M  V30 3467 H 340.645 -6.44917 0.631326 0
M  V30 3468 N 334.051 0.0651679 -1.57465 0
M  V30 3469 C 335.299 0.761555 -1.87202 0
M  V30 3470 C 335.62 1.77778 -0.801243 0
M  V30 3471 O 334.89 1.95166 0.16937 0
M  V30 3472 H 333.47 0.284251 -0.690804 0
M  V30 3473 H 336.132 0.0396827 -1.9486 0
M  V30 3474 H 335.228 1.27365 -2.84929 0
M  V30 3475 N 335.529 1.53961 0.336706 0
M  V30 3476 C 336.775 1.7179 1.07777 0
M  V30 3477 C 337.108 0.483263 1.88091 0
M  V30 3478 O 336.383 -0.519747 1.87427 0
M  V30 3479 C 336.666 2.98558 2.01334 0
M  V30 3480 C 336.519 4.32245 1.24437 0
M  V30 3481 C 337.838 3.21023 3.01052 0
M  V30 3482 H 334.957 0.625089 0.390426 0
M  V30 3483 H 337.599 1.86641 0.35567 0
M  V30 3484 H 335.749 2.86028 2.62908 0
M  V30 3485 H 337.421 4.56637 0.654243 0
M  V30 3486 H 335.664 4.30344 0.546458 0
M  V30 3487 H 336.335 5.17137 1.93063 0
M  V30 3488 H 338.811 3.32929 2.49595 0
M  V30 3489 H 337.687 4.11104 3.6371 0
M  V30 3490 H 337.948 2.37637 3.72802 0
M  V30 3491 N 337.007 -0.598083 1.45811 0
M  V30 3492 C 338.237 -1.38121 1.53643 0
M  V30 3493 C 338.645 -1.88425 0.171081 0
M  V30 3494 O 337.988 -1.63409 -0.839237 0
M  V30 3495 C 338.05 -2.61432 2.46766 0
M  V30 3496 C 337.714 -2.32702 3.93318 0
M  V30 3497 C 338.711 -1.92479 4.82957 0
M  V30 3498 C 336.396 -2.45321 4.38318 0
M  V30 3499 C 338.39 -1.65248 6.15607 0
M  V30 3500 C 336.077 -2.17703 5.71007 0
M  V30 3501 C 337.075 -1.7773 6.5947 0
M  V30 3502 O 336.763 -1.50441 7.89698 0
M  V30 3503 H 336.495 -0.428863 0.522544 0
M  V30 3504 H 339.049 -0.73557 1.91777 0
M  V30 3505 H 337.279 -3.28749 2.0362 0
M  V30 3506 H 338.968 -3.23487 2.45175 0
M  V30 3507 H 339.734 -1.82258 4.49452 0
M  V30 3508 H 335.613 -2.75399 3.69697 0
M  V30 3509 H 339.157 -1.33973 6.84614 0
M  V30 3510 H 335.054 -2.27544 6.04065 0
M  V30 3511 H 335.822 -1.64415 8.01817 0
M  V30 3512 N 338.485 -1.33259 -0.841409 0
M  V30 3513 C 339.725 -1.25902 -1.61022 0
M  V30 3514 C 340.089 0.173325 -1.91216 0
M  V30 3515 O 341.29 0.370824 -2.6623 0
M  V30 3516 C 339.561 -2.10735 -2.88662 0
M  V30 3517 S 341.12 -2.20541 -3.79351 0
M  V30 3518 H 337.938 -0.447958 -0.552137 0
M  V30 3519 H 340.54 -1.68263 -0.995382 0
M  V30 3520 H 339.244 -3.1384 -2.64448 0
M  V30 3521 H 338.775 -1.69201 -3.55154 0
M  V30 3522 H 340.79 -1.36462 -4.77067 0
M  V30 3523 N 339.963 1.05934 -1.16686 0
M  V30 3524 C 341.203 1.80382 -0.961345 0
M  V30 3525 C 341.567 1.85331 0.501643 0
M  V30 3526 O 342.768 2.55795 0.825986 0
M  V30 3527 C 341.039 3.20777 -1.57596 0
M  V30 3528 S 342.598 4.11795 -1.51559 0
M  V30 3529 H 339.416 0.621332 -0.345641 0
M  V30 3530 H 342.018 1.27157 -1.48497 0
M  V30 3531 H 340.722 3.14773 -2.63337 0
M  V30 3532 H 340.253 3.79078 -1.05182 0
M  V30 3533 H 342.268 4.93485 -0.518374 0
M  V30 3534 N 341.441 0.965919 1.2453 0
M  V30 3535 C 342.857 0.67216 1.44756 0
M  V30 3536 C 343.057 -0.766609 1.86347 0
M  V30 3537 O 342.113 -1.5407 2.00047 0
M  V30 3538 C 343.426 1.65473 2.51076 0
M  V30 3539 C 344.974 1.66716 2.64905 0
M  V30 3540 C 345.449 2.63766 3.74421 0
M  V30 3541 N 346.94 2.62198 3.81846 0
M  V30 3542 C 347.675 3.33966 4.66106 0
M  V30 3543 N 347.171 4.15245 5.54566 0
M  V30 3544 N 348.964 3.22799 4.60171 0
M  V30 3545 H 341.115 1.89553 0.958293 0
M  V30 3546 H 343.378 0.815979 0.482579 0
M  V30 3547 H 343.084 2.68296 2.27399 0
M  V30 3548 H 342.958 1.4261 3.49202 0
M  V30 3549 H 345.345 0.646057 2.87941 0
M  V30 3550 H 345.426 1.93642 1.67142 0
M  V30 3551 H 345.07 3.6601 3.52135 0
M  V30 3552 H 345 2.34121 4.71694 0
M  V30 3553 H 347.491 2.032 3.18619 0
M  V30 3554 H 347.804 4.66898 6.15814 0
M  V30 3555 H 346.149 4.1934 5.54237 0
M  V30 3556 H 349.34 2.58764 3.90075 0
M  V30 3557 H 349.513 3.78994 5.25612 0
M  V30 3558 N 342.919 -1.39368 0.735821 0
M  V30 3559 C 344.196 -1.94465 0.210395 0
M  V30 3560 C 344.576 -1.67254 -1.28799 0
M  V30 3561 O 343.924 -1.00123 -2.05396 0
M  V30 3562 C 344.134 -3.4472 0.544897 0
M  V30 3563 C 345.482 -4.21708 0.494689 0
M  V30 3564 O 346.506 -3.52922 0.482136 0
M  V30 3565 O 345.365 -5.44299 0.489947 0
M  V30 3566 H 342.459 -0.826096 0.0386666 0
M  V30 3567 H 345.005 -1.48863 0.814735 0
M  V30 3568 H 343.777 -3.57963 1.58045 0
M  V30 3569 H 343.4 -3.97502 -0.08837 0
M  V30 3570 N 344.397 -0.483516 -1.5 0
M  V30 3571 C 345.347 0.32306 -2.257 0
M  V30 3572 C 346.331 0.950755 -1.29805 0
M  V30 3573 O 347.523 0.861247 -1.54634 0
M  V30 3574 C 344.652 1.39724 -3.13579 0
M  V30 3575 C 343.738 0.776663 -4.16928 0
M  V30 3576 N 344.129 -0.1104 -5.0568 0
M  V30 3577 C 342.427 1.03922 -4.33724 0
M  V30 3578 C 343.128 -0.46387 -5.79848 0
M  V30 3579 N 342.104 0.163987 -5.43353 0
M  V30 3580 H 345.906 -0.360086 -2.91686 0
M  V30 3581 H 343.42 -0.298456 -1.59634 0
M  V30 3582 H 345.417 1.98837 -3.66428 0
M  V30 3583 H 344.077 2.08225 -2.49143 0
M  V30 3584 H 345.088 -0.480069 -5.1567 0
M  V30 3585 H 341.765 1.71829 -3.80501 0
M  V30 3586 H 343.155 -1.18854 -6.61304 0
M  V30 3587 N 345.875 1.56104 -0.216619 0
M  V30 3588 C 346.785 2.23694 0.706982 0
M  V30 3589 C 347.801 1.24295 1.21765 0
M  V30 3590 O 348.977 1.57094 1.2603 0
M  V30 3591 C 346.042 2.8998 1.90033 0
M  V30 3592 C 345.103 4.04708 1.43213 0
M  V30 3593 C 344.336 4.67824 2.56859 0
M  V30 3594 O 344.559 4.29913 3.74874 0
M  V30 3595 O 343.493 5.56905 2.28343 0
M  V30 3596 H 347.319 3.03272 0.161235 0
M  V30 3597 H 344.904 1.49394 0.0136177 0
M  V30 3598 H 346.786 3.31837 2.59735 0
M  V30 3599 H 345.461 2.13365 2.43428 0
M  V30 3600 H 344.368 3.6743 0.70327 0
M  V30 3601 H 345.701 4.83051 0.944615 0
M  V30 3602 N 347.353 -0.0568162 1.57498 0
M  V30 3603 C 348.303 -1.07315 2.01166 0
M  V30 3604 C 349.287 -1.33632 0.896171 0
M  V30 3605 O 350.479 -1.33682 1.16009 0
M  V30 3606 C 347.608 -2.38257 2.47161 0
M  V30 3607 C 346.694 -2.1515 3.65474 0
M  V30 3608 N 347.085 -1.62014 4.7915 0
M  V30 3609 C 345.383 -2.45559 3.72313 0
M  V30 3610 C 346.084 -1.54069 5.60926 0
M  V30 3611 N 345.06 -2.00652 5.05213 0
M  V30 3612 H 348.862 -0.655878 2.86488 0
M  V30 3613 H 346.376 -0.263635 1.60246 0
M  V30 3614 H 348.373 -3.11845 2.76691 0
M  V30 3615 H 347.033 -2.80687 1.63232 0
M  V30 3616 H 348.044 -1.30667 5.01145 0
M  V30 3617 H 344.721 -2.91253 2.99129 0
M  V30 3618 H 346.111 -1.13712 6.62208 0
M  V30 3619 N 348.832 -1.54138 -0.328536 0
M  V30 3620 C 349.742 -1.86192 -1.42723 0
M  V30 3621 C 350.758 -0.753382 -1.56844 0
M  V30 3622 O 351.934 -1.04718 -1.72035 0
M  V30 3623 C 348.999 -2.07824 -2.77507 0
M  V30 3624 C 348.06 -3.31641 -2.72603 0
M  V30 3625 C 347.293 -3.52232 -4.00959 0
M  V30 3626 O 347.516 -2.7636 -4.9898 0
M  V30 3627 O 346.45 -4.45699 -4.0452 0
M  V30 3628 H 350.276 -2.79608 -1.18547 0
M  V30 3629 H 347.861 -1.3998 -0.522104 0
M  V30 3630 H 349.743 -2.23411 -3.57303 0
M  V30 3631 H 348.418 -1.17596 -3.01584 0
M  V30 3632 H 347.325 -3.21444 -1.91376 0
M  V30 3633 H 348.658 -4.2191 -2.53481 0
M  V30 3634 N 350.31 0.590341 -1.46126 0
M  V30 3635 C 351.559 1.34499 -1.50309 0
M  V30 3636 C 351.872 1.94977 -0.156021 0
M  V30 3637 O 353.078 2.71395 -0.0756037 0
M  V30 3638 C 351.534 2.43723 -2.64815 0
M  V30 3639 C 351.142 1.89582 -4.0591 0
M  V30 3640 C 352.886 3.20579 -2.78262 0
M  V30 3641 C 350.793 2.9639 -5.11769 0
M  V30 3642 H 349.723 0.505593 -0.559368 0
M  V30 3643 H 352.374 0.630848 -1.72315 0
M  V30 3644 H 350.756 3.17902 -2.36124 0
M  V30 3645 H 351.93 1.21997 -4.44357 0
M  V30 3646 H 350.245 1.25418 -3.97063 0
M  V30 3647 H 352.842 4.00276 -3.54519 0
M  V30 3648 H 353.185 3.72684 -1.85505 0
M  V30 3649 H 353.718 2.53505 -3.06562 0
M  V30 3650 H 350.457 2.49181 -6.06291 0
M  V30 3651 H 349.977 3.62487 -4.77873 0
M  V30 3652 H 351.656 3.60474 -5.37278 0
M  V30 3653 N 351.788 1.33704 0.83433 0
M  V30 3654 C 352.751 1.24244 1.92603 0
M  V30 3655 C 353.751 0.160383 1.59998 0
M  V30 3656 O 354.941 0.412228 1.69252 0
M  V30 3657 C 352.073 0.91555 3.28376 0
M  V30 3658 H 353.266 2.21287 2.02416 0
M  V30 3659 H 350.819 1.17827 1.02696 0
M  V30 3660 H 351.554 -0.0521886 3.24258 0
M  V30 3661 H 351.339 1.69811 3.53422 0
M  V30 3662 H 352.829 0.874231 4.08347 0
M  V30 3663 N 353.266 -1.05314 1.17247 0
M  V30 3664 C 354.512 -1.78699 0.971513 0
M  V30 3665 C 354.867 -1.85932 -0.494692 0
M  V30 3666 O 354.16 -1.34716 -1.36243 0
M  V30 3667 C 354.354 -3.2229 1.54479 0
M  V30 3668 C 354.183 -3.29052 3.06521 0
M  V30 3669 C 352.953 -3.3841 3.75242 0
M  V30 3670 C 355.151 -3.18095 4.04129 0
M  V30 3671 N 353.133 -3.34289 5.14902 0
M  V30 3672 C 354.504 -3.21331 5.30232 0
M  V30 3673 C 356.559 -3.02049 3.95817 0
M  V30 3674 C 355.262 -3.10169 6.4899 0
M  V30 3675 C 357.288 -2.92228 5.14156 0
M  V30 3676 C 356.65 -2.96096 6.39145 0
M  V30 3677 H 352.749 -0.66628 0.409383 0
M  V30 3678 H 355.333 -1.25553 1.4881 0
M  V30 3679 H 353.504 -3.7381 1.05455 0
M  V30 3680 H 355.236 -3.83905 1.28059 0
M  V30 3681 H 351.991 -3.43621 3.25917 0
M  V30 3682 H 352.415 -3.35702 5.87906 0
M  V30 3683 H 357.057 -2.97897 3.00029 0
M  V30 3684 H 354.775 -3.13076 7.44989 0
M  V30 3685 H 358.361 -2.80885 5.09505 0
M  V30 3686 H 357.241 -2.88568 7.29176 0
M  V30 3687 N 354.744 -0.972509 -1.24016 0
M  V30 3688 C 355.991 -0.637034 -1.92219 0
M  V30 3689 C 356.319 0.828418 -1.75976 0
M  V30 3690 O 355.574 1.61206 -1.10955 0
M  V30 3691 C 355.873 -0.963694 -3.44162 0
M  V30 3692 C 355.539 -2.41807 -3.80579 0
M  V30 3693 C 354.201 -2.81556 -3.9023 0
M  V30 3694 C 356.553 -3.36172 -3.98293 0
M  V30 3695 C 353.881 -4.14702 -4.15017 0
M  V30 3696 C 356.233 -4.68952 -4.24578 0
M  V30 3697 C 354.897 -5.08472 -4.32449 0
M  V30 3698 H 354.167 -0.233107 -0.703379 0
M  V30 3699 H 356.814 -1.2249 -1.47202 0
M  V30 3700 H 355.119 -0.29365 -3.90698 0
M  V30 3701 H 356.816 -0.682449 -3.9515 0
M  V30 3702 H 353.406 -2.09988 -3.73635 0
M  V30 3703 H 357.59 -3.06644 -3.90234 0
M  V30 3704 H 352.846 -4.4494 -4.19331 0
M  V30 3705 H 357.02 -5.42037 -4.37229 0
M  V30 3706 H 354.647 -6.11665 -4.51409 0
M  V30 3707 N 356.222 1.38976 -0.743202 0
M  V30 3708 C 357.45 2.04636 -0.30525 0
M  V30 3709 C 357.865 1.56044 1.06281 0
M  V30 3710 O 357.222 0.728921 1.67311 0
M  V30 3711 C 357.273 3.60193 -0.307177 0
M  V30 3712 O 356.994 4.06998 -1.62124 0
M  V30 3713 C 358.495 4.4306 0.145928 0
M  V30 3714 H 355.715 0.65788 -0.132041 0
M  V30 3715 H 358.259 1.77866 -1.00915 0
M  V30 3716 H 356.414 3.85835 0.347898 0
M  V30 3717 H 356.828 5.01371 -1.54036 0
M  V30 3718 H 358.302 5.51921 0.0934183 0
M  V30 3719 H 358.779 4.22706 1.19231 0
M  V30 3720 H 359.385 4.22584 -0.479886 0
M  V30 3721 N 357.7 0.491464 1.49741 0
M  V30 3722 C 358.61 -0.296835 2.32715 0
M  V30 3723 C 359.626 -0.976536 1.44013 0
M  V30 3724 O 360.802 -0.960023 1.77047 0
M  V30 3725 C 357.867 -1.35288 3.19215 0
M  V30 3726 C 356.928 -0.687632 4.23757 0
M  V30 3727 C 356.161 -1.69336 5.06123 0
M  V30 3728 O 356.384 -2.92219 4.89861 0
M  V30 3729 O 355.318 -1.25394 5.88693 0
M  V30 3730 H 359.144 0.382048 3.01287 0
M  V30 3731 H 356.729 0.252953 1.47243 0
M  V30 3732 H 358.611 -1.96411 3.72828 0
M  V30 3733 H 357.286 -2.01487 2.53347 0
M  V30 3734 H 356.193 -0.0369159 3.74082 0
M  V30 3735 H 357.526 -0.0682566 4.92153 0
M  V30 3736 N 359.178 -1.55987 0.224894 0
M  V30 3737 C 360.594 -1.59066 -0.130426 0
M  V30 3738 C 360.794 -1.24176 -1.5869 0
M  V30 3739 O 359.85 -0.978592 -2.32766 0
M  V30 3740 C 361.163 -3.00042 0.198883 0
M  V30 3741 C 362.711 -3.1268 0.141391 0
M  V30 3742 C 363.186 -4.55839 0.444422 0
M  V30 3743 N 364.677 -4.6152 0.394115 0
M  V30 3744 C 365.412 -5.70231 0.602038 0
M  V30 3745 N 364.908 -6.87291 0.871914 0
M  V30 3746 N 366.701 -5.59555 0.534245 0
M  V30 3747 H 358.852 -1.76941 1.17497 0
M  V30 3748 H 361.115 -0.822604 0.471197 0
M  V30 3749 H 360.821 -3.30234 1.2099 0
M  V30 3750 H 360.695 -3.74075 -0.484535 0
M  V30 3751 H 363.082 -2.82283 -0.860265 0
M  V30 3752 H 363.163 -2.40969 0.858335 0
M  V30 3753 H 362.807 -4.86954 1.44353 0
M  V30 3754 H 362.737 -5.2578 -0.293752 0
M  V30 3755 H 365.228 -3.77405 0.193356 0
M  V30 3756 H 365.541 -7.66058 1.01858 0
M  V30 3757 H 363.886 -6.89028 0.909145 0
M  V30 3758 H 367.077 -4.6698 0.323612 0
M  V30 3759 H 367.25 -6.44211 0.699693 0
M  V30 3760 N 360.656 0.0484629 -1.57525 0
M  V30 3761 C 361.881 0.759177 -1.93006 0
M  V30 3762 C 362.306 1.69125 -0.823317 0
M  V30 3763 O 361.664 1.79931 0.222364 0
M  V30 3764 C 361.712 1.50899 -3.27509 0
M  V30 3765 O 360.816 2.62112 -3.18388 0
M  V30 3766 H 360.157 0.205564 -0.631379 0
M  V30 3767 H 362.687 0.00972959 -2.04598 0
M  V30 3768 H 362.697 1.88317 -3.6194 0
M  V30 3769 H 361.372 0.825269 -4.0763 0
M  V30 3770 H 359.949 2.27379 -2.95556 0
M  V30 3771 N 362.134 1.5431 0.320358 0
M  V30 3772 C 363.411 1.63322 1.07635 0
M  V30 3773 C 363.791 0.46912 2.05821 0
M  V30 3774 O 363.139 -0.536274 2.22118 0
M  V30 3775 C 363.349 3.00465 1.77544 0
M  V30 3776 C 364.697 3.56621 2.30449 0
M  V30 3777 O 365.721 3.02791 1.87606 0
M  V30 3778 O 364.58 4.5083 3.08892 0
M  V30 3779 H 361.674 0.661502 0.496331 0
M  V30 3780 H 364.22 1.66656 0.319992 0
M  V30 3781 H 362.992 3.76629 1.06143 0
M  V30 3782 H 362.615 3.00824 2.59982 0
M  V30 3783 N 363.613 -0.582584 1.46437 0
M  V30 3784 C 364.56 -1.69164 1.5701 0
M  V30 3785 C 365.53 -1.60847 0.414403 0
M  V30 3786 O 366.715 -1.80058 0.631171 0
M  V30 3787 C 363.855 -3.075 1.56646 0
M  V30 3788 C 362.968 -3.2644 2.82951 0
M  V30 3789 C 362.103 -4.55026 2.7409 0
M  V30 3790 C 361.142 -4.6731 3.95333 0
M  V30 3791 N 360.279 -5.87221 3.84858 0
M  V30 3792 H 365.119 -1.59464 2.51744 0
M  V30 3793 H 362.656 -0.777186 1.24893 0
M  V30 3794 H 364.614 -3.8757 1.5442 0
M  V30 3795 H 363.244 -3.16096 0.654439 0
M  V30 3796 H 362.296 -2.39974 2.95155 0
M  V30 3797 H 363.608 -3.31385 3.72808 0
M  V30 3798 H 362.762 -5.43324 2.6997 0
M  V30 3799 H 361.501 -4.52519 1.81873 0
M  V30 3800 H 360.506 -3.77429 3.99784 0
M  V30 3801 H 361.731 -4.71595 4.88646 0
M  V30 3802 H 359.677 -5.85712 2.95427 0
M  V30 3803 H 359.594 -5.93435 4.6837 0
M  V30 3804 H 360.862 -6.7795 3.84713 0
M  V30 3805 N 365.091 -1.34144 -0.827227 0
M  V30 3806 C 366.316 -1.29476 -1.62021 0
M  V30 3807 C 366.741 0.129292 -1.87655 0
M  V30 3808 O 366.099 1.08967 -1.449 0
M  V30 3809 C 366.147 -2.08702 -2.94068 0
M  V30 3810 O 365.251 -1.45359 -3.85933 0
M  V30 3811 H 364.592 -0.444881 -0.492927 0
M  V30 3812 H 367.122 -1.76882 -1.02829 0
M  V30 3813 H 367.132 -2.19898 -3.43669 0
M  V30 3814 H 365.807 -3.12241 -2.74734 0
M  V30 3815 H 364.384 -1.42879 -3.44442 0
M  V30 3816 N 366.569 1.04691 -1.17803 0
M  V30 3817 C 367.799 1.81183 -0.992788 0
M  V30 3818 C 368.207 1.8347 0.462098 0
M  V30 3819 O 367.55 1.2643 1.33271 0
M  V30 3820 C 367.612 3.28363 -1.46349 0
M  V30 3821 C 367.276 3.49749 -2.94151 0
M  V30 3822 C 368.273 3.41456 -3.92051 0
M  V30 3823 C 365.958 3.76548 -3.32441 0
M  V30 3824 C 367.952 3.59656 -5.26238 0
M  V30 3825 C 365.639 3.94396 -4.66792 0
M  V30 3826 C 366.637 3.8595 -5.635 0
M  V30 3827 O 366.325 4.03294 -6.9542 0
M  V30 3828 H 366.057 0.577622 -0.351182 0
M  V30 3829 H 368.611 1.32876 -1.5663 0
M  V30 3830 H 366.841 3.77609 -0.833574 0
M  V30 3831 H 368.53 3.86395 -1.24313 0
M  V30 3832 H 369.296 3.20723 -3.63815 0
M  V30 3833 H 365.175 3.82224 -2.57732 0
M  V30 3834 H 368.719 3.52979 -6.01707 0
M  V30 3835 H 364.616 4.14622 -4.94731 0
M  V30 3836 H 365.384 4.2049 -7.02232 0
M  V30 3837 N 368.047 0.979072 1.23499 0
M  V30 3838 C 368.957 0.526431 2.28617 0
M  V30 3839 C 369.973 -0.418126 1.68901 0
M  V30 3840 O 371.149 -0.288372 1.99325 0
M  V30 3841 C 368.214 -0.165235 3.46306 0
M  V30 3842 C 367.275 0.82056 4.21385 0
M  V30 3843 C 366.508 0.161807 5.33455 0
M  V30 3844 O 366.731 -1.04742 5.60701 0
M  V30 3845 O 365.665 0.859708 5.95729 0
M  V30 3846 H 369.491 1.4006 2.69475 0
M  V30 3847 H 367.076 0.746643 1.29405 0
M  V30 3848 H 368.958 -0.553287 4.17752 0
M  V30 3849 H 367.633 -1.01419 3.07402 0
M  V30 3850 H 366.54 1.25929 3.52268 0
M  V30 3851 H 367.873 1.63828 4.64135 0
M  V30 3852 N 369.525 -1.3858 0.750561 0
M  V30 3853 C 370.475 -2.27795 0.0965949 0
M  V30 3854 C 371.459 -1.45048 -0.696411 0
M  V30 3855 O 372.651 -1.67812 -0.562863 0
M  V30 3856 C 369.78 -3.33894 -0.798085 0
M  V30 3857 C 368.866 -4.241 0.0016067 0
M  V30 3858 N 369.257 -4.95067 1.03647 0
M  V30 3859 C 367.555 -4.45429 -0.225674 0
M  V30 3860 C 368.256 -5.61489 1.52004 0
M  V30 3861 N 367.232 -5.37135 0.835874 0
M  V30 3862 H 371.034 -2.80125 0.889228 0
M  V30 3863 H 368.548 -1.51446 0.586323 0
M  V30 3864 H 370.545 -3.96693 -1.28219 0
M  V30 3865 H 369.205 -2.83123 -1.5897 0
M  V30 3866 H 370.216 -4.98104 1.41819 0
M  V30 3867 H 366.893 -4.05571 -0.990872 0
M  V30 3868 H 368.283 -6.28264 2.38188 0
M  V30 3869 N 371.003 -0.499398 -1.49478 0
M  V30 3870 C 371.935 0.316575 -2.27003 0
M  V30 3871 C 372.948 0.932047 -1.33479 0
M  V30 3872 O 374.137 0.815658 -1.58774 0
M  V30 3873 C 371.237 1.46055 -3.05812 0
M  V30 3874 C 370.41 0.952679 -4.26899 0
M  V30 3875 C 369.469 1.97407 -4.87767 0
M  V30 3876 O 368.495 1.54326 -5.4788 0
M  V30 3877 N 369.697 3.30436 -4.77276 0
M  V30 3878 H 372.462 -0.348168 -2.97671 0
M  V30 3879 H 370.023 -0.33185 -1.58463 0
M  V30 3880 H 372.015 2.14135 -3.43407 0
M  V30 3881 H 370.585 2.02948 -2.37762 0
M  V30 3882 H 369.805 0.0968248 -3.94081 0
M  V30 3883 H 371.093 0.59174 -5.05347 0
M  V30 3884 H 370.491 3.68126 -4.29534 0
M  V30 3885 H 369.048 3.94235 -5.19059 0
M  V30 3886 N 372.481 1.55866 -0.233164 0
M  V30 3887 C 373.709 2.02998 0.399905 0
M  V30 3888 C 374.124 1.11274 1.52524 0
M  V30 3889 O 373.481 0.124528 1.82075 0
M  V30 3890 C 373.532 3.4958 0.920639 0
M  V30 3891 O 373.253 4.37808 -0.159834 0
M  V30 3892 C 374.754 4.12411 1.62578 0
M  V30 3893 H 371.974 0.664006 0.0966281 0
M  V30 3894 H 374.518 2.0143 -0.353013 0
M  V30 3895 H 372.673 3.51727 1.62379 0
M  V30 3896 H 373.087 5.23981 0.23337 0
M  V30 3897 H 374.561 5.16711 1.94201 0
M  V30 3898 H 375.038 3.5809 2.54299 0
M  V30 3899 H 375.644 4.14148 0.967553 0
M  V30 3900 N 373.959 -0.0401083 1.57549 0
M  V30 3901 C 375.37 -0.588097 1.77196 0
M  V30 3902 C 375.721 -1.76209 0.862832 0
M  V30 3903 O 374.846 -2.16331 0.0548389 0
M  V30 3904 C 375.441 -1.07363 3.21339 0
M  V30 3905 C 374 -1.56723 3.42221 0
M  V30 3906 C 373.147 -0.50041 2.72747 0
M  V30 3907 H 376.098 0.186119 1.57605 0
M  V30 3908 H 376.119 -1.94143 3.27244 0
M  V30 3909 H 375.631 -0.218975 3.87482 0
M  V30 3910 H 373.732 -2.4441 2.81237 0
M  V30 3911 H 373.845 -1.62234 4.50796 0
M  V30 3912 H 372.209 -0.952894 2.36203 0
M  V30 3913 H 372.992 0.344599 3.41566 0
M  V30 3914 N 375.437 -1.54477 -0.31217 0
M  V30 3915 C 376.684 -1.73227 -1.04875 0
M  V30 3916 C 377.012 -0.512042 -1.87639 0
M  V30 3917 O 376.267 0.506131 -1.89042 0
M  V30 3918 C 376.566 -2.967 -1.99258 0
M  V30 3919 C 376.232 -4.30974 -1.32559 0
M  V30 3920 C 374.894 -4.67477 -1.141 0
M  V30 3921 C 377.246 -5.14258 -0.847835 0
M  V30 3922 C 374.574 -5.84852 -0.465326 0
M  V30 3923 C 376.926 -6.32327 -0.185931 0
M  V30 3924 C 375.59 -6.67499 0.0107077 0
M  V30 3925 H 374.86 -0.633881 -0.383765 0
M  V30 3926 H 377.507 -1.88727 -0.324731 0
M  V30 3927 H 375.812 -2.75935 -2.7815 0
M  V30 3928 H 377.509 -3.08401 -2.563 0
M  V30 3929 H 374.099 -4.02262 -1.4793 0
M  V30 3930 H 378.283 -4.86565 -0.978192 0
M  V30 3931 H 373.539 -6.10654 -0.301883 0
M  V30 3932 H 377.713 -6.96135 0.192211 0
M  V30 3933 H 375.34 -7.58306 0.536287 0
M  V30 3934 N 376.915 0.57481 -1.46744 0
M  V30 3935 C 377.825 1.711 -1.60505 0
M  V30 3936 C 378.841 1.67008 -0.488307 0
M  V30 3937 O 380.017 1.86774 -0.753495 0
M  V30 3938 C 377.082 3.07608 -1.59932 0
M  V30 3939 C 376.143 3.22904 -2.82898 0
M  V30 3940 C 375.376 4.529 -2.82343 0
M  V30 3941 O 375.599 5.37278 -1.91542 0
M  V30 3942 O 374.533 4.71611 -3.73987 0
M  V30 3943 H 378.359 1.62436 -2.56609 0
M  V30 3944 H 375.944 0.742779 -1.29627 0
M  V30 3945 H 377.826 3.88877 -1.62336 0
M  V30 3946 H 376.501 3.16692 -0.669898 0
M  V30 3947 H 375.408 2.41099 -2.86046 0
M  V30 3948 H 376.741 3.18715 -3.75076 0
M  V30 3949 N 378.394 1.34581 0.820102 0
M  V30 3950 C 379.643 1.26437 1.57151 0
M  V30 3951 C 379.956 -0.163111 1.94919 0
M  V30 3952 O 381.162 -0.366722 2.69012 0
M  V30 3953 C 379.618 2.21658 2.83541 0
M  V30 3954 C 379.226 3.69679 2.53065 0
M  V30 3955 C 380.97 2.22428 3.61561 0
M  V30 3956 C 378.877 4.56761 3.75664 0
M  V30 3957 H 377.807 0.469707 0.589823 0
M  V30 3958 H 380.458 1.59763 0.902656 0
M  V30 3959 H 378.84 1.81287 3.52067 0
M  V30 3960 H 380.014 4.18605 1.92631 0
M  V30 3961 H 378.329 3.71384 1.88316 0
M  V30 3962 H 380.926 2.8471 4.52597 0
M  V30 3963 H 381.269 1.22434 3.97889 0
M  V30 3964 H 381.802 2.61259 2.99981 0
M  V30 3965 H 378.541 5.57702 3.44454 0
M  V30 3966 H 378.061 4.12568 4.35371 0
M  V30 3967 H 379.74 4.71509 4.43044 0
M  V30 3968 N 379.872 -1.04064 1.18357 0
M  V30 3969 C 380.819 -2.12077 0.910603 0
M  V30 3970 C 381.789 -1.65421 -0.15 0
M  V30 3971 O 382.974 -1.90797 -0.0103614 0
M  V30 3972 C 380.114 -3.42252 0.442472 0
M  V30 3973 C 379.227 -4.0252 1.5685 0
M  V30 3974 C 378.362 -5.20657 1.05309 0
M  V30 3975 C 377.401 -5.72955 2.1538 0
M  V30 3976 N 376.538 -6.8238 1.65233 0
M  V30 3977 H 381.378 -2.34764 1.83548 0
M  V30 3978 H 378.915 -1.15157 0.915279 0
M  V30 3979 H 380.873 -4.16921 0.152534 0
M  V30 3980 H 379.503 -3.19712 -0.445428 0
M  V30 3981 H 378.555 -3.25178 1.97391 0
M  V30 3982 H 379.867 -4.37362 2.39824 0
M  V30 3983 H 379.021 -6.0244 0.717677 0
M  V30 3984 H 377.76 -4.87318 0.19293 0
M  V30 3985 H 376.765 -4.89793 2.49766 0
M  V30 3986 H 377.99 -6.08337 3.01832 0
M  V30 3987 H 375.936 -6.50917 0.815064 0
M  V30 3988 H 375.853 -7.16286 2.41805 0
M  V30 3989 H 377.121 -7.67788 1.34619 0
M  V30 3990 N 381.35 -0.985608 -1.22978 0
M  V30 3991 C 382.575 -0.675254 -1.961 0
M  V30 3992 C 383 0.752154 -1.72407 0
M  V30 3993 O 382.358 1.5131 -0.998751 0
M  V30 3994 C 382.406 -0.977899 -3.47087 0
M  V30 3995 O 381.51 -0.072685 -4.12336 0
M  V30 3996 H 380.851 -0.253443 -0.613728 0
M  V30 3997 H 383.381 -1.32061 -1.56272 0
M  V30 3998 H 383.391 -0.916739 -3.97567 0
M  V30 3999 H 382.066 -2.01807 -3.63657 0
M  V30 4000 H 380.643 -0.188703 -3.72422 0
M  V30 4001 N 382.828 1.3818 -0.7579 0
M  V30 4002 C 383.791 2.28764 -0.141286 0
M  V30 4003 C 384.791 1.47388 0.642907 0
M  V30 4004 O 385.981 1.67781 0.468536 0
M  V30 4005 C 383.113 3.31184 0.808069 0
M  V30 4006 H 384.306 2.848 -0.939633 0
M  V30 4007 H 381.859 1.47212 -0.525191 0
M  V30 4008 H 382.594 2.80247 1.63193 0
M  V30 4009 H 382.379 3.91314 0.248104 0
M  V30 4010 H 383.869 3.98909 1.23536 0
M  V30 4011 N 384.306 0.507319 1.49211 0
M  V30 4012 C 385.253 -0.267728 2.29242 0
M  V30 4013 C 386.223 -0.954609 1.35928 0
M  V30 4014 O 387.408 -0.960046 1.64887 0
M  V30 4015 C 384.548 -1.32243 3.18756 0
M  V30 4016 C 383.661 -0.64669 4.27132 0
M  V30 4017 C 382.796 -1.68238 5.03855 0
M  V30 4018 C 381.835 -0.98885 6.0406 0
M  V30 4019 N 380.972 -1.96903 6.73924 0
M  V30 4020 H 385.812 0.420968 2.95012 0
M  V30 4021 H 383.349 0.219443 1.45454 0
M  V30 4022 H 385.307 -1.94599 3.69036 0
M  V30 4023 H 383.937 -1.97981 2.54958 0
M  V30 4024 H 382.989 0.0902926 3.80293 0
M  V30 4025 H 384.301 -0.101058 4.98698 0
M  V30 4026 H 383.455 -2.38081 5.58034 0
M  V30 4027 H 382.194 -2.26187 4.32077 0
M  V30 4028 H 381.199 -0.276222 5.49106 0
M  V30 4029 H 382.424 -0.415767 6.77826 0
M  V30 4030 H 380.37 -2.53803 6.04913 0
M  V30 4031 H 380.287 -1.47423 7.41487 0
M  V30 4032 H 381.555 -2.66015 7.32705 0
M  V30 4033 N 385.784 -1.5574 0.241426 0
M  V30 4034 C 386.731 -2.21149 -0.660432 0
M  V30 4035 C 387.701 -1.17356 -1.17545 0
M  V30 4036 O 388.886 -1.45784 -1.23093 0
M  V30 4037 C 386.026 -2.91059 -1.85414 0
M  V30 4038 C 385.139 -4.09495 -1.37616 0
M  V30 4039 C 384.274 -4.67135 -2.529 0
M  V30 4040 C 383.313 -5.77831 -2.01936 0
M  V30 4041 N 382.45 -6.29677 -3.10566 0
M  V30 4042 H 387.29 -2.97845 -0.095955 0
M  V30 4043 H 384.827 -1.47057 -0.0356024 0
M  V30 4044 H 386.785 -3.29788 -2.5553 0
M  V30 4045 H 385.415 -2.16846 -2.39118 0
M  V30 4046 H 384.467 -3.76117 -0.569235 0
M  V30 4047 H 385.779 -4.89423 -0.962618 0
M  V30 4048 H 384.933 -5.08409 -3.31067 0
M  V30 4049 H 383.672 -3.86411 -2.97553 0
M  V30 4050 H 382.677 -5.36039 -1.22238 0
M  V30 4051 H 383.902 -6.60402 -1.58259 0
M  V30 4052 H 381.848 -5.5186 -3.54664 0
M  V30 4053 H 381.765 -7.04783 -2.73526 0
M  V30 4054 H 383.033 -6.75609 -3.88809 0
M  V30 4055 N 387.262 0.0317525 -1.57568 0
M  V30 4056 C 388.509 0.723104 -1.89149 0
M  V30 4057 C 388.837 1.75504 -0.838377 0
M  V30 4058 O 388.092 1.95037 0.160982 0
M  V30 4059 C 388.391 1.43167 -3.27472 0
M  V30 4060 C 388.057 0.535972 -4.47703 0
M  V30 4061 C 386.719 0.289262 -4.8033 0
M  V30 4062 C 389.071 -0.0826125 -5.21135 0
M  V30 4063 C 386.399 -0.584853 -5.83778 0
M  V30 4064 C 388.751 -0.944414 -6.25511 0
M  V30 4065 C 387.415 -1.20061 -6.56614 0
M  V30 4066 H 386.685 0.264602 -0.692146 0
M  V30 4067 H 389.332 -0.0169496 -1.91492 0
M  V30 4068 H 387.637 2.24497 -3.21105 0
M  V30 4069 H 389.334 1.97209 -3.49155 0
M  V30 4070 H 385.924 0.738414 -4.22191 0
M  V30 4071 H 390.108 0.0950302 -4.96209 0
M  V30 4072 H 385.364 -0.79168 -6.06253 0
M  V30 4073 H 389.538 -1.43026 -6.81554 0
M  V30 4074 H 387.165 -1.87967 -7.36595 0
M  V30 4075 N 388.74 1.54641 0.303973 0
M  V30 4076 C 390.017 1.64455 1.05896 0
M  V30 4077 C 390.397 0.490923 2.05312 0
M  V30 4078 O 389.745 -0.512685 2.22674 0
M  V30 4079 C 389.955 3.02331 1.74347 0
M  V30 4080 C 391.303 3.59045 2.26653 0
M  V30 4081 O 392.327 3.04764 1.84384 0
M  V30 4082 O 391.186 4.54081 3.04093 0
M  V30 4083 H 388.28 0.666729 0.489287 0
M  V30 4084 H 390.826 1.66986 0.302298 0
M  V30 4085 H 389.598 3.77734 1.02142 0
M  V30 4086 H 389.221 3.03565 2.56777 0
M  V30 4087 N 390.218 -0.567019 1.47046 0
M  V30 4088 C 391.446 -1.35027 1.56765 0
M  V30 4089 C 391.861 -1.8758 0.214316 0
M  V30 4090 O 391.218 -1.64471 -0.790919 0
M  V30 4091 C 391.269 -2.52698 2.58507 0
M  V30 4092 O 390.99 -2.0232 3.88585 0
M  V30 4093 C 392.491 -3.45043 2.78316 0
M  V30 4094 H 389.711 -0.41195 0.529658 0
M  V30 4095 H 392.255 -0.687832 1.92585 0
M  V30 4096 H 390.41 -3.149 2.25648 0
M  V30 4097 H 390.824 -2.79068 4.44096 0
M  V30 4098 H 392.298 -4.2405 3.53391 0
M  V30 4099 H 392.775 -3.97971 1.85784 0
M  V30 4100 H 393.381 -2.88665 3.12334 0
M  V30 4101 N 391.696 -1.35014 -0.812953 0
M  V30 4102 C 392.943 -1.27931 -1.56971 0
M  V30 4103 C 393.271 0.148034 -1.93936 0
M  V30 4104 O 392.526 1.11175 -1.61054 0
M  V30 4105 C 392.825 -2.12524 -2.87347 0
M  V30 4106 C 392.491 -3.61401 -2.6963 0
M  V30 4107 C 391.153 -4.01983 -2.64506 0
M  V30 4108 C 393.505 -4.55894 -2.52607 0
M  V30 4109 C 390.833 -5.35235 -2.40293 0
M  V30 4110 C 393.185 -5.89336 -2.29925 0
M  V30 4111 C 391.849 -6.2907 -2.23219 0
M  V30 4112 H 391.119 -0.468131 -0.574399 0
M  V30 4113 H 393.766 -1.66851 -0.939836 0
M  V30 4114 H 392.071 -1.66463 -3.54679 0
M  V30 4115 H 393.768 -2.04383 -3.45005 0
M  V30 4116 H 390.358 -3.29193 -2.74463 0
M  V30 4117 H 394.542 -4.25431 -2.55583 0
M  V30 4118 H 389.798 -5.65028 -2.33566 0
M  V30 4119 H 393.972 -6.62139 -2.15743 0
M  V30 4120 H 391.599 -7.32256 -2.04219 0
M  V30 4121 N 393.175 1.03435 -1.18907 0
M  V30 4122 C 394.122 2.11591 -0.921837 0
M  V30 4123 C 395.092 1.65499 0.141226 0
M  V30 4124 O 396.277 1.908 0.000242829 0
M  V30 4125 C 393.417 3.42012 -0.460616 0
M  V30 4126 C 392.53 4.01682 -1.58982 0
M  V30 4127 C 391.665 5.20091 -1.08069 0
M  V30 4128 C 390.704 5.71805 -2.18416 0
M  V30 4129 N 389.841 6.81494 -1.68849 0
M  V30 4130 H 394.681 2.33787 -1.8479 0
M  V30 4131 H 392.218 1.1467 -0.921373 0
M  V30 4132 H 394.176 4.16834 -0.174642 0
M  V30 4133 H 392.806 3.19944 0.428467 0
M  V30 4134 H 391.858 3.24127 -1.99113 0
M  V30 4135 H 393.17 4.36084 -2.4214 0
M  V30 4136 H 392.324 6.02051 -0.749615 0
M  V30 4137 H 391.063 4.87209 -0.218771 0
M  V30 4138 H 390.068 4.88461 -2.5236 0
M  V30 4139 H 391.293 6.06728 -3.05054 0
M  V30 4140 H 389.239 6.50475 -0.849572 0
M  V30 4141 H 389.156 7.14994 -2.45601 0
M  V30 4142 H 390.424 7.67063 -1.38689 0
M  V30 4143 N 394.653 0.992116 1.22453 0
M  V30 4144 C 395.901 0.666215 1.90804 0
M  V30 4145 C 396.222 -0.804152 1.77647 0
M  V30 4146 O 395.492 -1.57629 1.16318 0
M  V30 4147 H 394.072 0.243423 0.706225 0
M  V30 4148 H 396.734 1.25845 1.48825 0
M  V30 4149 H 395.83 0.928069 2.97982 0
M  V30 4150 N 396.131 -1.37776 0.765217 0
M  V30 4151 C 397.041 -2.34135 0.147666 0
M  V30 4152 C 398.057 -1.59854 -0.687215 0
M  V30 4153 O 399.233 -1.91983 -0.608659 0
M  V30 4154 C 396.298 -3.3901 -0.72617 0
M  V30 4155 C 395.359 -4.2912 0.124417 0
M  V30 4156 C 394.592 -5.28986 -0.707807 0
M  V30 4157 O 394.815 -5.36205 -1.94525 0
M  V30 4158 O 393.749 -6.01779 -0.12046 0
M  V30 4159 H 397.575 -2.88664 0.943758 0
M  V30 4160 H 395.16 -1.39824 0.526277 0
M  V30 4161 H 397.042 -4.03195 -1.22524 0
M  V30 4162 H 395.717 -2.86819 -1.50056 0
M  V30 4163 H 394.624 -3.68057 0.669696 0
M  V30 4164 H 395.957 -4.84598 0.861736 0
M  V30 4165 N 397.609 -0.515225 -1.4894 0
M  V30 4166 C 398.849 0.0223983 -2.04388 0
M  V30 4167 C 399.213 1.32961 -1.38511 0
M  V30 4168 O 400.414 1.95236 -1.8476 0
M  V30 4169 C 398.685 0.157056 -3.57055 0
M  V30 4170 S 400.244 0.646875 -4.34006 0
M  V30 4171 H 397.062 -0.00500662 -0.710982 0
M  V30 4172 H 399.664 -0.69243 -1.82827 0
M  V30 4173 H 398.368 -0.799412 -4.02539 0
M  V30 4174 H 397.899 0.896704 -3.83044 0
M  V30 4175 H 399.914 1.91381 -4.57808 0
M  V30 4176 N 399.087 1.5561 -0.249682 0
M  V30 4177 C 400.498 1.84979 0.252949 0
M  V30 4178 C 400.849 1.17153 1.57384 0
M  V30 4179 O 399.974 0.450884 2.11651 0
M  V30 4180 C 400.569 3.35584 0.465732 0
M  V30 4181 C 399.128 3.65169 0.912624 0
M  V30 4182 C 398.275 2.77299 -0.00859085 0
M  V30 4183 H 401.226 1.51513 -0.47217 0
M  V30 4184 H 401.247 3.57313 1.30795 0
M  V30 4185 H 400.759 3.8492 -0.49579 0
M  V30 4186 H 398.86 3.21312 1.88652 0
M  V30 4187 H 398.973 4.72912 0.767559 0
M  V30 4188 H 397.337 2.49678 0.50327 0
M  V30 4189 H 398.12 3.29442 -0.965537 0
M  V30 4190 N 400.565 -0.0233959 1.57583 0
M  V30 4191 C 401.512 -1.02224 2.06927 0
M  V30 4192 C 402.482 -1.35575 0.959617 0
M  V30 4193 O 403.667 -1.45815 1.23055 0
M  V30 4194 C 400.807 -2.31636 2.5581 0
M  V30 4195 C 399.92 -2.04394 3.80588 0
M  V30 4196 C 399.055 -3.27717 4.18061 0
M  V30 4197 C 398.094 -2.96056 5.3574 0
M  V30 4198 N 397.231 -4.11847 5.68618 0
M  V30 4199 H 402.071 -0.594504 2.9201 0
M  V30 4200 H 399.608 -0.281921 1.44373 0
M  V30 4201 H 401.566 -3.07258 2.82221 0
M  V30 4202 H 400.196 -2.72122 1.73636 0
M  V30 4203 H 399.248 -1.19244 3.61227 0
M  V30 4204 H 400.56 -1.77042 4.66323 0
M  V30 4205 H 399.714 -4.11702 4.4563 0
M  V30 4206 H 398.453 -3.58188 3.30988 0
M  V30 4207 H 397.458 -2.10474 5.07918 0
M  V30 4208 H 398.683 -2.66857 6.24471 0
M  V30 4209 H 396.629 -4.42258 4.84504 0
M  V30 4210 H 396.546 -3.87938 6.48876 0
M  V30 4211 H 397.814 -4.96689 6.00766 0
M  V30 4212 N 402.043 -1.548 -0.295768 0
M  V30 4213 C 403.29 -1.74329 -1.03032 0
M  V30 4214 C 403.618 -0.531915 -1.87085 0
M  V30 4215 O 402.873 0.486052 -1.89568 0
M  V30 4216 C 403.172 -2.98797 -1.961 0
M  V30 4217 C 402.838 -4.32356 -1.2798 0
M  V30 4218 C 401.5 -4.68661 -1.09135 0
M  V30 4219 C 403.852 -5.15128 -0.793243 0
M  V30 4220 C 401.18 -5.85312 -0.403269 0
M  V30 4221 C 403.532 -6.32488 -0.118854 0
M  V30 4222 C 402.196 -6.6745 0.0815043 0
M  V30 4223 H 401.466 -0.637916 -0.37702 0
M  V30 4224 H 404.113 -1.8906 -0.304696 0
M  V30 4225 H 402.418 -2.78869 -2.75207 0
M  V30 4226 H 404.115 -3.11102 -2.53015 0
M  V30 4227 H 400.705 -4.03808 -1.43655 0
M  V30 4228 H 404.889 -4.87575 -0.92653 0
M  V30 4229 H 400.145 -6.1094 -0.237098 0
M  V30 4230 H 404.319 -6.95892 0.266035 0
M  V30 4231 H 401.946 -7.57695 0.616685 0
M  V30 4232 N 403.521 0.559213 -1.47345 0
M  V30 4233 C 404.767 1.31843 -1.54095 0
M  V30 4234 C 405.1 1.93149 -0.201726 0
M  V30 4235 O 404.375 1.77759 0.789428 0
M  V30 4236 C 404.658 2.43006 -2.65744 0
M  V30 4237 C 404.511 1.86581 -4.09277 0
M  V30 4238 C 405.83 3.44943 -2.73318 0
M  V30 4239 H 402.949 0.478012 -0.560957 0
M  V30 4240 H 405.591 0.625977 -1.79392 0
M  V30 4241 H 403.741 3.02072 -2.44305 0
M  V30 4242 H 405.413 1.31792 -4.42073 0
M  V30 4243 H 403.656 1.17268 -4.17649 0
M  V30 4244 H 404.327 2.66933 -4.83168 0
M  V30 4245 H 406.803 2.95793 -2.92653 0
M  V30 4246 H 405.679 4.20153 -3.53218 0
M  V30 4247 H 405.94 4.03665 -1.80296 0
M  V30 4248 N 404.999 1.35443 0.805782 0
M  V30 4249 C 406.246 1.28761 1.56291 0
M  V30 4250 C 406.574 -0.137747 1.94012 0
M  V30 4251 O 405.829 -1.1032 1.61642 0
M  V30 4252 C 406.128 2.14045 2.86216 0
M  V30 4253 C 405.794 3.62826 2.67709 0
M  V30 4254 C 404.456 4.0338 2.6237 0
M  V30 4255 C 406.808 4.57227 2.50186 0
M  V30 4256 C 404.136 5.36501 2.37451 0
M  V30 4257 C 406.488 5.90547 2.26797 0
M  V30 4258 C 405.152 6.30245 2.1988 0
M  V30 4259 H 404.422 0.471171 0.571908 0
M  V30 4260 H 407.069 1.67347 0.930974 0
M  V30 4261 H 405.374 1.68342 3.53791 0
M  V30 4262 H 407.071 2.0621 3.43917 0
M  V30 4263 H 403.661 3.30644 2.72713 0
M  V30 4264 H 407.845 4.2678 2.53323 0
M  V30 4265 H 403.101 5.66259 2.30567 0
M  V30 4266 H 407.275 6.63274 2.12228 0
M  V30 4267 H 404.902 7.33328 2.00333 0
M  V30 4268 N 406.477 -1.02803 1.19454 0
M  V30 4269 C 407.888 -1.57667 0.999899 0
M  V30 4270 C 408.239 -1.91041 -0.446956 0
M  V30 4271 O 407.364 -1.70978 -1.32648 0
M  V30 4272 C 407.959 -2.86477 1.80877 0
M  V30 4273 C 406.518 -3.37911 1.65811 0
M  V30 4274 C 405.665 -2.11343 1.79526 0
M  V30 4275 H 408.616 -0.853214 1.33813 0
M  V30 4276 H 408.637 -3.57408 1.30536 0
M  V30 4277 H 408.149 -2.62155 2.86175 0
M  V30 4278 H 406.25 -3.67218 0.63102 0
M  V30 4279 H 406.363 -4.10885 2.46395 0
M  V30 4280 H 404.727 -2.23254 1.22596 0
M  V30 4281 H 405.51 -1.89461 2.86285 0
M  V30 4282 N 407.956 -0.998596 -1.21925 0
M  V30 4283 C 408.886 -0.573688 -2.26343 0
M  V30 4284 C 409.867 0.402296 -1.65274 0
M  V30 4285 O 411.052 0.291683 -1.91997 0
M  V30 4286 C 408.182 0.106839 -3.47136 0
M  V30 4287 C 407.136 -0.788269 -4.20678 0
M  V30 4288 C 406.462 0.0254927 -5.34694 0
M  V30 4289 C 407.762 -2.08784 -4.78755 0
M  V30 4290 H 409.456 -1.44651 -2.62138 0
M  V30 4291 H 407.002 -0.696975 -1.26009 0
M  V30 4292 H 408.955 0.415531 -4.19346 0
M  V30 4293 H 407.679 1.01424 -3.10452 0
M  V30 4294 H 406.338 -1.08069 -3.50309 0
M  V30 4295 H 405.986 0.933989 -4.94253 0
M  V30 4296 H 405.686 -0.570437 -5.84825 0
M  V30 4297 H 407.21 0.328147 -6.09718 0
M  V30 4298 H 408.624 -1.84272 -5.42878 0
M  V30 4299 H 407.021 -2.63307 -5.39249 0
M  V30 4300 H 408.091 -2.76284 -3.98491 0
M  V30 4301 N 409.434 1.37368 -0.772513 0
M  V30 4302 C 410.382 2.32134 -0.147111 0
M  V30 4303 C 411.376 1.54972 0.684106 0
M  V30 4304 O 412.582 1.70363 0.581083 0
M  V30 4305 H 408.957 0.751449 -0.028786 0
M  V30 4306 H 410.928 2.82464 -0.962112 0
M  V30 4307 C 409.677 3.40226 0.71703 0
M  V30 4308 H 409 3.99706 0.0867951 0
M  V30 4309 H 410.44 4.08897 1.12159 0
M  V30 4310 C 408.899 2.80372 1.86797 0
M  V30 4311 O 409.429 2.71183 2.96349 0
M  V30 4312 N 407.635 2.37904 1.66883 0
M  V30 4313 H 407.182 2.45578 0.777759 0
M  V30 4314 H 407.14 1.98202 2.44056 0
M  V30 4315 N 410.912 0.523116 1.48665 0
M  V30 4316 C 412.137 -0.0117284 2.07397 0
M  V30 4317 C 412.562 -1.28031 1.37803 0
M  V30 4318 O 411.92 -1.75836 0.441762 0
M  V30 4319 C 411.968 -0.225786 3.59892 0
M  V30 4320 O 411.072 -1.29592 3.91509 0
M  V30 4321 H 410.413 0.0360673 0.66302 0
M  V30 4322 H 412.943 0.729066 1.9117 0
M  V30 4323 H 412.953 -0.450552 4.05505 0
M  V30 4324 H 411.628 0.700944 4.09951 0
M  V30 4325 H 410.205 -1.05436 3.57684 0
M  V30 4326 N 412.39 -1.55475 0.257931 0
M  V30 4327 C 413.337 -2.21837 -0.636939 0
M  V30 4328 C 414.307 -1.18596 -1.16294 0
M  V30 4329 O 415.492 -1.47081 -1.21539 0
M  V30 4330 C 412.632 -2.9301 -1.82317 0
M  V30 4331 C 411.745 -4.10931 -1.33265 0
M  V30 4332 C 410.88 -4.69791 -2.47931 0
M  V30 4333 C 409.919 -5.7994 -1.95796 0
M  V30 4334 N 409.056 -6.32935 -3.0387 0
M  V30 4335 H 413.896 -2.9793 -0.0643591 0
M  V30 4336 H 411.433 -1.47086 -0.0200031 0
M  V30 4337 H 413.391 -3.3248 -2.52018 0
M  V30 4338 H 412.021 -2.1937 -2.36805 0
M  V30 4339 H 411.073 -3.76699 -0.52931 0
M  V30 4340 H 412.385 -4.90417 -0.910654 0
M  V30 4341 H 411.539 -5.11892 -3.25656 0
M  V30 4342 H 410.278 -3.89545 -2.93438 0
M  V30 4343 H 409.283 -5.37305 -1.16546 0
M  V30 4344 H 410.508 -6.62043 -1.51246 0
M  V30 4345 H 408.454 -5.55591 -3.48791 0
M  V30 4346 H 408.371 -7.07645 -2.66035 0
M  V30 4347 H 409.639 -6.79695 -3.81621 0
M  V30 4348 N 413.868 0.0150385 -1.57593 0
M  V30 4349 C 415.114 0.704043 -1.90187 0
M  V30 4350 C 415.447 1.74249 -0.857366 0
M  V30 4351 O 414.722 1.94092 0.125843 0
M  V30 4352 C 415.005 1.36087 -3.33395 0
M  V30 4353 C 414.858 0.334981 -4.48551 0
M  V30 4354 C 416.177 2.29112 -3.7576 0
M  V30 4355 H 413.296 0.254475 -0.691673 0
M  V30 4356 H 415.938 -0.0331678 -1.89971 0
M  V30 4357 H 414.088 1.98922 -3.3371 0
M  V30 4358 H 415.76 -0.292534 -4.60372 0
M  V30 4359 H 414.003 -0.344325 -4.32431 0
M  V30 4360 H 414.674 0.833316 -5.45674 0
M  V30 4361 H 417.15 1.76308 -3.76902 0
M  V30 4362 H 416.026 2.72043 -4.76743 0
M  V30 4363 H 416.287 3.16385 -3.08793 0
M  V30 4364 N 415.346 1.54954 0.287554 0
M  V30 4365 C 416.293 1.86834 1.35505 0
M  V30 4366 C 417.263 0.718452 1.49758 0
M  V30 4367 O 418.448 0.968358 1.644 0
M  V30 4368 C 415.588 2.13303 2.71286 0
M  V30 4369 C 414.701 3.40883 2.65373 0
M  V30 4370 C 413.836 3.57125 3.93236 0
M  V30 4371 C 412.875 4.78449 3.81776 0
M  V30 4372 N 412.012 4.91426 5.01443 0
M  V30 4373 H 416.852 2.77889 1.07619 0
M  V30 4374 H 414.389 1.37593 0.520241 0
M  V30 4375 H 416.347 2.26646 3.50267 0
M  V30 4376 H 414.977 1.25499 2.97405 0
M  V30 4377 H 414.029 3.36088 1.78182 0
M  V30 4378 H 415.341 4.29993 2.52799 0
M  V30 4379 H 414.495 3.70207 4.80658 0
M  V30 4380 H 413.234 2.66173 4.0866 0
M  V30 4381 H 412.239 4.65386 2.92738 0
M  V30 4382 H 413.464 5.70822 3.67884 0
M  V30 4383 H 411.41 4.03401 5.17304 0
M  V30 4384 H 411.327 5.74559 4.91343 0
M  V30 4385 H 412.595 5.08879 5.90477 0
M  V30 4386 N 416.824 -0.551391 1.4764 0
M  V30 4387 C 418.07 -1.31024 1.54792 0
M  V30 4388 C 418.403 -1.9304 0.211967 0
M  V30 4389 O 417.678 -1.78175 -0.77999 0
M  V30 4390 C 417.961 -2.41593 2.67029 0
M  V30 4391 C 417.814 -1.84408 4.10261 0
M  V30 4392 C 419.133 -3.43488 2.75143 0
M  V30 4393 H 416.252 -0.475031 0.563485 0
M  V30 4394 H 418.894 -0.616454 1.79722 0
M  V30 4395 H 417.044 -3.00772 2.45904 0
M  V30 4396 H 418.716 -1.29445 4.42766 0
M  V30 4397 H 416.959 -1.15051 4.18265 0
M  V30 4398 H 417.63 -2.64367 4.84576 0
M  V30 4399 H 420.106 -2.94236 2.94218 0
M  V30 4400 H 418.982 -4.18274 3.55441 0
M  V30 4401 H 419.243 -4.02703 1.82435 0
M  V30 4402 N 418.302 -1.35869 -0.798587 0
M  V30 4403 C 419.551 -1.28921 -1.5512 0
M  V30 4404 C 419.864 0.13208 -1.95154 0
M  V30 4405 O 421.07 0.323879 -2.69561 0
M  V30 4406 C 419.526 -2.26141 -2.79979 0
M  V30 4407 C 419.134 -3.73658 -2.47151 0
M  V30 4408 C 420.878 -2.28152 -3.57976 0
M  V30 4409 C 418.785 -4.62679 -3.6835 0
M  V30 4410 H 417.715 -0.479031 -0.582276 0
M  V30 4411 H 420.366 -1.61179 -0.877125 0
M  V30 4412 H 418.748 -1.86865 -3.49138 0
M  V30 4413 H 419.922 -4.21616 -1.85947 0
M  V30 4414 H 418.237 -3.74333 -1.82383 0
M  V30 4415 H 420.834 -2.91875 -4.4801 0
M  V30 4416 H 421.177 -1.28748 -3.95891 0
M  V30 4417 H 421.71 -2.65998 -2.95787 0
M  V30 4418 H 418.449 -5.63111 -3.35538 0
M  V30 4419 H 417.969 -4.19442 -4.28752 0
M  V30 4420 H 419.648 -4.78498 -4.35487 0
M  V30 4421 N 419.78 1.02168 -1.19998 0
M  V30 4422 C 420.712 2.10705 -0.901994 0
M  V30 4423 C 421.725 1.6244 0.108216 0
M  V30 4424 O 422.914 1.78082 -0.12214 0
M  V30 4425 C 420.014 3.37291 -0.329834 0
M  V30 4426 C 419.187 4.14714 -1.39035 0
M  V30 4427 C 418.246 5.19606 -0.830432 0
M  V30 4428 O 417.272 5.48809 -1.50989 0
M  V30 4429 N 418.474 5.79366 0.362696 0
M  V30 4430 H 421.239 2.36856 -1.83628 0
M  V30 4431 H 418.8 1.18518 -1.10296 0
M  V30 4432 H 420.792 4.04657 0.0587633 0
M  V30 4433 H 419.362 3.0843 0.508891 0
M  V30 4434 H 418.582 3.42392 -1.9535 0
M  V30 4435 H 419.87 4.63226 -2.10474 0
M  V30 4436 H 419.268 5.57968 0.932081 0
M  V30 4437 H 417.825 6.48106 0.69299 0
M  V30 4438 N 421.258 1.00505 1.21394 0
M  V30 4439 C 422.669 0.721082 1.72213 0
M  V30 4440 C 423.02 -0.761263 1.80829 0
M  V30 4441 O 422.145 -1.59464 1.46288 0
M  V30 4442 C 422.74 1.30228 3.12772 0
M  V30 4443 C 421.299 1.06743 3.60947 0
M  V30 4444 C 420.446 1.41507 2.38477 0
M  V30 4445 H 423.397 1.17594 1.06571 0
M  V30 4446 H 423.418 0.686955 3.74247 0
M  V30 4447 H 422.93 2.38115 3.06468 0
M  V30 4448 H 421.031 0.00572162 3.726 0
M  V30 4449 H 421.144 1.73936 4.46411 0
M  V30 4450 H 419.508 0.833852 2.40664 0
M  V30 4451 H 420.291 2.50424 2.34824 0
M  V30 4452 N 422.737 -1.36956 0.779787 0
M  V30 4453 C 424.153 -1.52817 0.460342 0
M  V30 4454 C 424.353 -1.7361 -1.02283 0
M  V30 4455 O 423.409 -1.76207 -1.80852 0
M  V30 4456 C 424.722 -2.71983 1.28241 0
M  V30 4457 C 426.27 -2.85849 1.27512 0
M  V30 4458 C 426.745 -4.08008 2.08072 0
M  V30 4459 N 428.236 -4.15135 2.05467 0
M  V30 4460 C 428.971 -5.08711 2.64577 0
M  V30 4461 N 428.467 -6.07792 3.32506 0
M  V30 4462 N 430.26 -5.01254 2.54363 0
M  V30 4463 H 422.411 -1.21713 1.74068 0
M  V30 4464 H 424.674 -0.593294 0.739396 0
M  V30 4465 H 424.38 -2.63109 2.33381 0
M  V30 4466 H 424.254 -3.65882 0.917088 0
M  V30 4467 H 426.641 -2.94189 0.231686 0
M  V30 4468 H 426.722 -1.92886 1.68014 0
M  V30 4469 H 426.366 -4.00429 3.12441 0
M  V30 4470 H 426.296 -5.001 1.64947 0
M  V30 4471 H 428.787 -3.44189 1.5602 0
M  V30 4472 H 429.1 -6.75739 3.74963 0
M  V30 4473 H 427.445 -6.08047 3.36606 0
M  V30 4474 H 430.636 -4.22795 2.00902 0
M  V30 4475 H 430.809 -5.73995 3.00722 0
M  V30 4476 N 424.215 -0.530993 -1.48385 0
M  V30 4477 C 425.461 0.00274135 -2.028 0
M  V30 4478 C 425.794 1.33838 -1.40716 0
M  V30 4479 O 425.069 1.86465 -0.553277 0
M  V30 4480 C 425.352 0.123676 -3.59888 0
M  V30 4481 C 425.205 -1.2372 -4.3245 0
M  V30 4482 C 426.524 0.849967 -4.31814 0
M  V30 4483 H 423.643 -0.000477758 -0.737 0
M  V30 4484 H 426.285 -0.688217 -1.77098 0
M  V30 4485 H 424.435 0.712157 -3.81917 0
M  V30 4486 H 426.107 -1.86687 -4.21836 0
M  V30 4487 H 424.35 -1.81882 -3.93829 0
M  V30 4488 H 425.021 -1.10557 -5.40815 0
M  V30 4489 H 427.497 0.350572 -4.14621 0
M  V30 4490 H 426.373 0.903486 -5.41413 0
M  V30 4491 H 426.634 1.90047 -3.99167 0
M  V30 4492 N 425.693 1.55336 -0.266172 0
M  V30 4493 C 426.603 2.2583 0.635458 0
M  V30 4494 C 427.619 1.28106 1.17749 0
M  V30 4495 O 428.795 1.61024 1.20968 0
M  V30 4496 C 425.86 2.95879 1.80712 0
M  V30 4497 C 424.921 4.09059 1.30265 0
M  V30 4498 C 424.154 4.75759 2.41846 0
M  V30 4499 O 424.377 4.41622 3.61007 0
M  V30 4500 O 423.311 5.63888 2.1051 0
M  V30 4501 H 427.137 3.03631 0.0646693 0
M  V30 4502 H 424.722 1.49361 -0.0339177 0
M  V30 4503 H 426.604 3.39932 2.49047 0
M  V30 4504 H 425.279 2.21002 2.36516 0
M  V30 4505 H 424.186 3.69482 0.586019 0
M  V30 4506 H 425.519 4.85811 0.790458 0
M  V30 4507 N 427.171 -0.0066808 1.57599 0
M  V30 4508 C 428.118 -1.00024 2.08 0
M  V30 4509 C 429.088 -1.34549 0.973943 0
M  V30 4510 O 430.273 -1.44502 1.24595 0
M  V30 4511 C 427.413 -2.2891 2.58252 0
M  V30 4512 C 426.526 -2.00346 3.82734 0
M  V30 4513 C 425.661 -3.23265 4.21513 0
M  V30 4514 C 424.7 -2.90357 5.3885 0
M  V30 4515 N 423.837 -4.05793 5.72954 0
M  V30 4516 H 428.677 -0.563499 2.92624 0
M  V30 4517 H 426.214 -0.266592 1.44664 0
M  V30 4518 H 428.172 -3.04247 2.85464 0
M  V30 4519 H 426.802 -2.70265 1.76512 0
M  V30 4520 H 425.854 -1.15406 3.62471 0
M  V30 4521 H 427.166 -1.72086 4.68175 0
M  V30 4522 H 426.32 -4.06953 4.49971 0
M  V30 4523 H 425.059 -3.54657 3.34768 0
M  V30 4524 H 424.064 -2.05075 5.10122 0
M  V30 4525 H 425.289 -2.60219 6.27266 0
M  V30 4526 H 423.235 -4.37094 4.89167 0
M  V30 4527 H 423.152 -3.81034 6.52954 0
M  V30 4528 H 424.42 -4.90289 6.06001 0
M  V30 4529 N 428.649 -1.55105 -0.279332 0
M  V30 4530 C 429.596 -1.8755 -1.34513 0
M  V30 4531 C 430.566 -0.726384 -1.49375 0
M  V30 4532 O 431.751 -0.977063 -1.63884 0
M  V30 4533 C 428.891 -2.14738 -2.70151 0
M  V30 4534 C 428.004 -3.42285 -2.63562 0
M  V30 4535 C 427.139 -3.59206 -3.91337 0
M  V30 4536 C 426.178 -4.80467 -3.79233 0
M  V30 4537 N 425.315 -4.94079 -4.98829 0
M  V30 4538 H 430.155 -2.78456 -1.06143 0
M  V30 4539 H 427.692 -1.37867 -0.512936 0
M  V30 4540 H 429.65 -2.28501 -3.49061 0
M  V30 4541 H 428.28 -1.27075 -2.96735 0
M  V30 4542 H 427.332 -3.37029 -1.76397 0
M  V30 4543 H 428.644 -4.31328 -2.50515 0
M  V30 4544 H 427.798 -3.72751 -4.78687 0
M  V30 4545 H 426.537 -2.68337 -4.07243 0
M  V30 4546 H 425.542 -4.66932 -2.90266 0
M  V30 4547 H 426.767 -5.72765 -3.64852 0
M  V30 4548 H 424.713 -4.06139 -5.15158 0
M  V30 4549 H 424.63 -5.77156 -4.8829 0
M  V30 4550 H 425.898 -5.12003 -5.8777 0
M  V30 4551 N 430.127 0.543554 -1.4793 0
M  V30 4552 C 431.074 1.64942 -1.6144 0
M  V30 4553 C 432.044 1.59692 -0.456903 0
M  V30 4554 O 433.229 1.78321 -0.678688 0
M  V30 4555 C 430.369 3.03238 -1.64744 0
M  V30 4556 C 429.482 3.18823 -2.91506 0
M  V30 4557 C 428.617 4.47599 -2.86057 0
M  V30 4558 C 427.656 4.56664 -4.07584 0
M  V30 4559 N 426.793 5.76811 -4.00292 0
M  V30 4560 H 431.633 1.52733 -2.55884 0
M  V30 4561 H 429.17 0.7438 -1.2691 0
M  V30 4562 H 431.128 3.83339 -1.64641 0
M  V30 4563 H 429.758 3.1425 -0.738017 0
M  V30 4564 H 428.81 2.32064 -3.01414 0
M  V30 4565 H 430.122 3.21384 -3.81463 0
M  V30 4566 H 429.276 5.35975 -2.84281 0
M  V30 4567 H 428.015 4.47538 -1.93807 0
M  V30 4568 H 427.02 3.66697 -4.09651 0
M  V30 4569 H 428.245 4.58474 -5.00978 0
M  V30 4570 H 426.191 5.77673 -3.10853 0
M  V30 4571 H 426.108 5.80808 -4.8394 0
M  V30 4572 H 427.376 6.67512 -4.02553 0
M  V30 4573 N 431.605 1.3629 0.791371 0
M  V30 4574 C 432.833 1.33562 1.58016 0
M  V30 4575 C 433.248 -0.0835616 1.88615 0
M  V30 4576 O 432.605 -1.0399 1.49974 0
M  V30 4577 C 432.656 2.15517 2.90232 0
M  V30 4578 O 432.377 3.51902 2.60953 0
M  V30 4579 C 433.878 2.20546 3.84544 0
M  V30 4580 H 431.098 0.458226 0.490173 0
M  V30 4581 H 433.642 1.79361 0.982345 0
M  V30 4582 H 431.797 1.73278 3.46487 0
M  V30 4583 H 432.211 3.94644 3.4548 0
M  V30 4584 H 433.685 2.82252 4.74382 0
M  V30 4585 H 434.162 1.20838 4.2225 0
M  V30 4586 H 434.768 2.63013 3.34222 0
M  V30 4587 N 433.083 -1.0153 1.20538 0
M  V30 4588 C 433.993 -2.13557 0.971113 0
M  V30 4589 C 435.009 -1.73845 -0.0734366 0
M  V30 4590 O 436.185 -2.01075 0.114299 0
M  V30 4591 C 433.25 -3.42661 0.527639 0
M  V30 4592 C 432.311 -3.96608 1.64319 0
M  V30 4593 C 431.544 -5.1955 1.22078 0
M  V30 4594 O 431.767 -5.70329 0.0900198 0
M  V30 4595 O 430.701 -5.66681 2.02871 0
M  V30 4596 H 434.527 -2.3619 1.90913 0
M  V30 4597 H 432.112 -1.11946 0.989362 0
M  V30 4598 H 433.994 -4.20404 0.289621 0
M  V30 4599 H 432.669 -3.21441 -0.381779 0
M  V30 4600 H 431.576 -3.20139 1.93551 0
M  V30 4601 H 432.909 -4.22219 2.52966 0
M  V30 4602 N 434.561 -1.01147 -1.20859 0
M  V30 4603 C 435.809 -0.696486 -1.89719 0
M  V30 4604 C 436.13 0.775788 -1.78904 0
M  V30 4605 O 435.4 1.55759 -1.18811 0
M  V30 4606 H 433.98 -0.254628 -0.702263 0
M  V30 4607 H 436.642 -1.28197 -1.46804 0
M  V30 4608 H 435.738 -0.975357 -2.96468 0
M  V30 4609 N 436.039 1.36541 -0.78704 0
M  V30 4610 C 437.286 1.99304 -0.358341 0
M  V30 4611 C 437.614 1.62467 1.06933 0
M  V30 4612 O 436.869 0.870019 1.75297 0
M  V30 4613 C 437.168 3.54343 -0.466485 0
M  V30 4614 C 436.834 4.10993 -1.85461 0
M  V30 4615 C 435.496 4.26177 -2.23443 0
M  V30 4616 C 437.848 4.41895 -2.76366 0
M  V30 4617 C 435.176 4.69573 -3.51736 0
M  V30 4618 C 437.528 4.86722 -4.04084 0
M  V30 4619 C 436.192 5.00112 -4.42091 0
M  V30 4620 H 435.462 0.729306 -0.131126 0
M  V30 4621 H 438.109 1.63068 -1.00404 0
M  V30 4622 H 436.414 3.90918 0.262719 0
M  V30 4623 H 438.111 4.00833 -0.115854 0
M  V30 4624 H 434.701 3.99612 -1.54946 0
M  V30 4625 H 438.885 4.29735 -2.48277 0
M  V30 4626 H 434.141 4.78127 -3.81057 0
M  V30 4627 H 438.315 5.09598 -4.7464 0
M  V30 4628 H 435.942 5.33498 -5.41557 0
M  V30 4629 N 437.518 0.538854 1.48102 0
M  V30 4630 C 438.451 -0.266495 2.26639 0
M  V30 4631 C 439.429 -0.93687 1.32897 0
M  V30 4632 O 440.613 -0.959507 1.62252 0
M  V30 4633 C 437.74 -1.37814 3.09394 0
M  V30 4634 C 436.786 -0.818247 4.18577 0
M  V30 4635 S 437.619 0.320848 5.34538 0
M  V30 4636 C 438.775 -0.793059 6.20855 0
M  V30 4637 H 439.008 0.399994 2.94597 0
M  V30 4638 H 436.541 0.324808 1.50945 0
M  V30 4639 H 438.499 -2.01488 3.57649 0
M  V30 4640 H 437.16 -2.01639 2.40833 0
M  V30 4641 H 436.353 -1.65247 4.7614 0
M  V30 4642 H 435.955 -0.258036 3.73109 0
M  V30 4643 H 438.247 -1.68961 6.56093 0
M  V30 4644 H 439.19 -0.255204 7.0764 0
M  V30 4645 H 439.598 -1.07746 5.54122 0
M  V30 4646 N 438.996 -1.55193 0.274407 0
M  V30 4647 C 440.244 -1.99187 -0.341902 0
M  V30 4648 C 440.565 -1.16422 -1.56431 0
M  V30 4649 O 439.835 -0.253573 -1.94252 0
M  V30 4650 H 438.415 -0.735721 -0.129317 0
M  V30 4651 H 441.077 -1.91168 0.379578 0
M  V30 4652 H 440.173 -3.05629 -0.632253 0
M  V30 4653 N 440.474 -0.00167713 -1.576 0
M  V30 4654 C 441.89 0.354422 -1.55615 0
M  V30 4655 C 442.09 1.74679 -1.00447 0
M  V30 4656 O 441.146 2.4428 -0.639022 0
M  V30 4657 C 442.459 0.22812 -2.99833 0
M  V30 4658 C 444.007 0.302934 -3.11531 0
M  V30 4659 C 444.482 0.205737 -4.57538 0
M  V30 4660 N 445.973 0.263584 -4.62449 0
M  V30 4661 C 446.708 0.211742 -5.73009 0
M  V30 4662 N 446.204 0.110399 -6.92712 0
M  V30 4663 N 447.997 0.263729 -5.61481 0
M  V30 4664 H 440.148 -0.912498 -1.918 0
M  V30 4665 H 442.411 -0.349928 -0.881053 0
M  V30 4666 H 442.117 -0.729934 -3.44042 0
M  V30 4667 H 441.991 1.00951 -3.6344 0
M  V30 4668 H 444.378 1.25143 -2.67251 0
M  V30 4669 H 444.459 -0.508357 -2.50698 0
M  V30 4670 H 444.103 -0.739225 -5.02492 0
M  V30 4671 H 444.033 1.03554 -5.16318 0
M  V30 4672 H 446.524 0.343173 -3.76339 0
M  V30 4673 H 446.837 0.0767828 -7.72762 0
M  V30 4674 H 445.182 0.0760025 -6.94958 0
M  V30 4675 H 448.373 0.34111 -4.66855 0
M  V30 4676 H 448.546 0.219862 -6.47627 0
M  V30 4677 N 441.952 1.55251 0.271103 0
M  V30 4678 C 443.201 1.75151 1.00025 0
M  V30 4679 C 443.514 0.561041 1.87381 0
M  V30 4680 O 444.72 0.642506 2.63788 0
M  V30 4681 C 443.176 3.09999 1.82835 0
M  V30 4682 C 442.784 4.3662 1.00336 0
M  V30 4683 C 444.528 3.39249 2.55168 0
M  V30 4684 C 442.435 5.62506 1.82595 0
M  V30 4685 H 441.365 0.652877 0.377183 0
M  V30 4686 H 444.016 1.81708 0.255843 0
M  V30 4687 H 442.398 2.97485 2.61378 0
M  V30 4688 H 443.572 4.60055 0.261959 0
M  V30 4689 H 441.887 4.14527 0.394486 0
M  V30 4690 H 444.484 4.3051 3.1712 0
M  V30 4691 H 444.827 2.59467 3.2555 0
M  V30 4692 H 445.36 3.52869 1.83653 0
M  V30 4693 H 442.099 6.45041 1.16631 0
M  V30 4694 H 441.619 5.43211 2.54327 0
M  V30 4695 H 443.298 6.00875 2.39913 0
M  V30 4696 N 443.43 -0.535701 1.48216 0
M  V30 4697 C 444.846 -0.863701 1.3421 0
M  V30 4698 C 445.046 -1.98458 0.34879 0
M  V30 4699 O 444.102 -2.51432 -0.23204 0
M  V30 4700 C 445.415 -1.23662 2.74095 0
M  V30 4701 C 446.963 -1.34683 2.82541 0
M  V30 4702 C 447.438 -1.75322 4.23115 0
M  V30 4703 N 448.929 -1.82434 4.2576 0
M  V30 4704 C 449.664 -2.15252 5.31464 0
M  V30 4705 N 449.16 -2.46533 6.47452 0
M  V30 4706 N 450.953 -2.16209 5.18855 0
M  V30 4707 H 443.104 0.203965 2.11418 0
M  V30 4708 H 445.367 0.0286033 0.947568 0
M  V30 4709 H 445.073 -0.486674 3.48316 0
M  V30 4710 H 444.947 -2.18805 3.07253 0
M  V30 4711 H 447.334 -2.08756 2.08579 0
M  V30 4712 H 447.415 -0.376756 2.5301 0
M  V30 4713 H 447.059 -1.01812 4.97591 0
M  V30 4714 H 446.989 -2.7337 4.50085 0
M  V30 4715 H 449.48 -1.6056 3.42095 0
M  V30 4716 H 449.793 -2.70662 7.23852 0
M  V30 4717 H 448.138 -2.44065 6.50736 0
M  V30 4718 H 451.329 -1.91224 4.2726 0
M  V30 4719 H 451.502 -2.41453 6.01335 0
M  V30 4720 N 444.908 -1.36708 -0.784132 0
M  V30 4721 C 446.133 -1.34565 -1.5782 0
M  V30 4722 C 446.558 0.0695257 -1.87971 0
M  V30 4723 O 445.916 1.04302 -1.48293 0
M  V30 4724 C 445.964 -2.17952 -2.87279 0
M  V30 4725 O 445.068 -1.57563 -3.81114 0
M  V30 4726 H 444.409 -0.460337 -0.478524 0
M  V30 4727 H 446.939 -1.80064 -0.971495 0
M  V30 4728 H 446.949 -2.30721 -3.365 0
M  V30 4729 H 445.624 -3.20823 -2.64661 0
M  V30 4730 H 444.201 -1.53764 -3.39722 0
M  V30 4731 N 446.386 1.0089 -1.21074 0
M  V30 4732 C 447.632 1.74866 -1.02712 0
M  V30 4733 C 447.965 1.89178 0.438787 0
M  V30 4734 O 447.24 1.42325 1.32567 0
M  V30 4735 C 447.523 3.16347 -1.72036 0
M  V30 4736 C 447.376 3.09782 -3.26121 0
M  V30 4737 C 448.695 4.15187 -1.45973 0
M  V30 4738 H 445.814 0.634736 -0.374539 0
M  V30 4739 H 448.456 1.17646 -1.49196 0
M  V30 4740 H 446.606 3.65201 -1.32517 0
M  V30 4741 H 448.278 2.68673 -3.74983 0
M  V30 4742 H 446.521 2.46982 -3.56626 0
M  V30 4743 H 447.192 4.09829 -3.6979 0
M  V30 4744 H 449.668 3.75022 -1.80272 0
M  V30 4745 H 448.544 5.12331 -1.96999 0
M  V30 4746 H 448.805 4.40386 -0.388924 0
M  V30 4747 N 447.864 1.01787 1.20321 0
M  V30 4748 C 449.094 0.72614 1.93419 0
M  V30 4749 C 449.502 -0.717317 1.75075 0
M  V30 4750 O 448.845 -1.49836 1.06278 0
M  V30 4751 C 448.907 0.983621 3.45782 0
M  V30 4752 C 448.571 2.41645 3.87888 0
M  V30 4753 C 449.568 3.39732 3.93545 0
M  V30 4754 C 447.253 2.75752 4.19841 0
M  V30 4755 C 449.247 4.69988 4.30569 0
M  V30 4756 C 446.934 4.06221 4.56539 0
M  V30 4757 C 447.932 5.0315 4.61876 0
M  V30 4758 O 447.62 6.31284 4.97731 0
M  V30 4759 H 447.352 0.265824 0.621541 0
M  V30 4760 H 449.906 1.3623 1.53722 0
M  V30 4761 H 448.136 0.290301 3.85609 0
M  V30 4762 H 449.825 0.683279 4.00108 0
M  V30 4763 H 450.591 3.14718 3.69022 0
M  V30 4764 H 446.47 2.00993 4.14877 0
M  V30 4765 H 450.014 5.45642 4.3465 0
M  V30 4766 H 445.911 4.31013 4.80518 0
M  V30 4767 H 446.679 6.35591 5.15719 0
M  V30 4768 N 449.342 -1.36122 0.79427 0
M  V30 4769 C 450.753 -1.81646 0.431446 0
M  V30 4770 C 451.104 -1.66043 -1.04518 0
M  V30 4771 O 450.229 -1.1841 -1.8113 0
M  V30 4772 C 450.824 -3.29785 0.776341 0
M  V30 4773 C 449.383 -3.73501 0.466282 0
M  V30 4774 C 448.53 -2.58313 1.00844 0
M  V30 4775 H 451.481 -1.24274 0.986995 0
M  V30 4776 H 451.502 -3.80437 0.0692413 0
M  V30 4777 H 451.014 -3.4111 1.8511 0
M  V30 4778 H 449.115 -3.67733 -0.600245 0
M  V30 4779 H 449.228 -4.68754 0.990288 0
M  V30 4780 H 447.592 -2.5102 0.431406 0
M  V30 4781 H 448.375 -2.72421 2.08906 0
M  V30 4782 N 450.82 -0.546701 -1.47814 0
M  V30 4783 C 452.066 -0.0187684 -2.02791 0
M  V30 4784 C 452.399 1.32338 -1.42128 0
M  V30 4785 O 451.674 1.85867 -0.573023 0
M  V30 4786 C 451.957 0.0854985 -3.59998 0
M  V30 4787 C 451.81 -1.283 -4.31114 0
M  V30 4788 C 453.129 0.80412 -4.32691 0
M  V30 4789 H 450.248 -0.0082946 -0.736953 0
M  V30 4790 H 452.89 -0.706962 -1.76358 0
M  V30 4791 H 451.04 0.671609 -3.82651 0
M  V30 4792 H 452.712 -1.91151 -4.19832 0
M  V30 4793 H 450.955 -1.86049 -3.91878 0
M  V30 4794 H 451.626 -1.16287 -5.39612 0
M  V30 4795 H 454.102 0.306576 -4.14969 0
M  V30 4796 H 452.978 0.846011 -5.42341 0
M  V30 4797 H 453.239 1.85802 -4.01161 0
M  V30 4798 N 452.299 1.55045 -0.282633 0
M  V30 4799 C 453.262 2.21515 0.588539 0
M  V30 4800 C 454.262 1.19535 1.07554 0
M  V30 4801 O 455.452 1.44391 0.974514 0
M  V30 4802 C 452.584 2.88704 1.8128 0
M  V30 4803 H 453.777 2.99899 0.00806397 0
M  V30 4804 H 451.33 1.56265 -0.0333067 0
M  V30 4805 H 452.065 2.14352 2.43359 0
M  V30 4806 H 451.85 3.63443 1.47144 0
M  V30 4807 H 453.34 3.39465 2.43214 0
M  V30 4808 N 453.777 0.010035 1.57597 0
M  V30 4809 C 455.002 -0.687021 1.95691 0
M  V30 4810 C 455.427 -1.65952 0.885519 0
M  V30 4811 O 454.785 -1.80633 -0.15543 0
M  V30 4812 C 454.833 -1.3864 3.32884 0
M  V30 4813 O 453.937 -2.50115 3.27897 0
M  V30 4814 H 453.278 -0.181989 0.638573 0
M  V30 4815 H 455.808 0.0662122 2.04493 0
M  V30 4816 H 455.818 -1.74754 3.6868 0
M  V30 4817 H 454.493 -0.673411 4.10412 0
M  V30 4818 H 453.07 -2.16253 3.03791 0
M  V30 4819 N 455.255 -1.55392 -0.262866 0
M  V30 4820 C 456.666 -1.67079 -0.833158 0
M  V30 4821 C 457.017 -0.604539 -1.86654 0
M  V30 4822 O 456.142 0.252138 -2.14926 0
M  V30 4823 C 456.737 -3.02891 -1.51797 0
M  V30 4824 C 455.296 -3.16571 -2.03617 0
M  V30 4825 C 454.443 -2.62909 -0.881701 0
M  V30 4826 H 457.394 -1.58652 -0.0389986 0
M  V30 4827 H 457.415 -2.96445 -2.38538 0
M  V30 4828 H 456.927 -3.80473 -0.765619 0
M  V30 4829 H 455.028 -2.43782 -2.81782 0
M  V30 4830 H 455.141 -4.23271 -2.24452 0
M  V30 4831 H 453.505 -2.20324 -1.27786 0
M  V30 4832 H 454.288 -3.43003 -0.14269 0
M  V30 4833 N 456.733 0.527833 -1.48498 0
M  V30 4834 C 457.665 1.6482 -1.5927 0
M  V30 4835 C 458.678 1.55659 -0.476869 0
M  V30 4836 O 459.867 1.62081 -0.747806 0
M  V30 4837 C 456.967 3.0348 -1.50842 0
M  V30 4838 C 456.14 3.381 -2.77502 0
M  V30 4839 C 455.199 4.5605 -2.62497 0
M  V30 4840 O 454.225 4.59165 -3.36387 0
M  V30 4841 N 455.427 5.54353 -1.72257 0
M  V30 4842 H 458.192 1.56015 -2.55889 0
M  V30 4843 H 455.753 0.715152 -1.45249 0
M  V30 4844 H 457.745 3.80264 -1.38496 0
M  V30 4845 H 456.315 3.06352 -0.621887 0
M  V30 4846 H 455.535 2.50473 -3.04396 0
M  V30 4847 H 456.823 3.58017 -3.61527 0
M  V30 4848 H 456.221 5.54617 -1.11431 0
M  V30 4849 H 454.778 6.30347 -1.65849 0
M  V30 4850 N 458.211 1.37122 0.776871 0
M  V30 4851 C 459.121 1.34651 1.9211 0
M  V30 4852 C 460.137 0.246824 1.7224 0
M  V30 4853 O 461.313 0.48134 1.95563 0
M  V30 4854 C 458.378 1.14748 3.2716 0
M  V30 4855 C 457.439 2.34308 3.5972 0
M  V30 4856 C 456.672 2.15345 4.88326 0
M  V30 4857 O 456.895 1.13507 5.58992 0
M  V30 4858 O 455.829 3.03414 5.1983 0
M  V30 4859 H 459.655 2.31013 1.97146 0
M  V30 4860 H 457.24 1.17799 0.918901 0
M  V30 4861 H 459.122 1.05616 4.0795 0
M  V30 4862 H 457.797 0.214562 3.22988 0
M  V30 4863 H 456.704 2.49011 2.79185 0
M  V30 4864 H 458.037 3.26149 3.68629 0
M  V30 4865 N 459.689 -1.00246 1.21608 0
M  V30 4866 C 460.929 -1.75589 1.04631 0
M  V30 4867 C 461.293 -1.87513 -0.412648 0
M  V30 4868 O 462.494 -2.59444 -0.703003 0
M  V30 4869 C 460.765 -3.12893 1.72722 0
M  V30 4870 S 462.324 -4.04095 1.71034 0
M  V30 4871 H 459.142 -0.604133 0.374892 0
M  V30 4872 H 461.744 -1.19927 1.54395 0
M  V30 4873 H 460.448 -3.0185 2.78055 0
M  V30 4874 H 459.979 -3.73628 1.23149 0
M  V30 4875 H 461.994 -4.9045 0.753231 0
M  V30 4876 N 461.167 -1.02423 -1.1978 0
M  V30 4877 C 462.115 -0.594474 -2.24875 0
M  V30 4878 C 463.109 0.370598 -1.65296 0
M  V30 4879 O 464.315 0.239684 -1.78397 0
M  V30 4880 H 460.69 -0.173961 -0.731602 0
M  V30 4881 H 462.661 -1.4916 -2.58445 0
M  V30 4882 C 461.41 0.0436512 -3.47673 0
M  V30 4883 H 460.733 -0.689963 -3.93801 0
M  V30 4884 H 462.173 0.307362 -4.22884 0
M  V30 4885 C 460.632 1.28881 -3.11274 0
M  V30 4886 O 461.162 2.38135 -3.23503 0
M  V30 4887 N 459.368 1.1758 -2.6575 0
M  V30 4888 H 458.915 0.286769 -2.55999 0
M  V30 4889 H 458.873 2.00988 -2.41767 0
M  V30 4890 N 462.645 1.35699 -0.801477 0
M  V30 4891 C 463.593 2.3177 -0.196317 0
M  V30 4892 C 464.587 1.56388 0.651081 0
M  V30 4893 O 465.793 1.71557 0.544815 0
M  V30 4894 H 462.168 0.750669 -0.0447189 0
M  V30 4895 H 464.139 2.8036 -1.02181 0
M  V30 4896 C 462.888 3.41671 0.644702 0
M  V30 4897 H 462.211 3.998 0.0019921 0
M  V30 4898 H 463.651 4.11184 1.0346 0
M  V30 4899 C 462.11 2.84271 1.80808 0
M  V30 4900 O 462.64 2.77408 2.9053 0
M  V30 4901 N 460.846 2.41391 1.61799 0
M  V30 4902 H 460.393 2.47173 0.725493 0
M  V30 4903 H 460.351 2.03334 2.39797 0
M  V30 4904 N 464.123 0.554532 1.47522 0
M  V30 4905 C 465.056 -0.242442 2.26908 0
M  V30 4906 C 466.034 -0.922722 1.33883 0
M  V30 4907 O 467.218 -0.942244 1.63261 0
M  V30 4908 C 464.345 -1.34525 3.10839 0
M  V30 4909 C 463.391 -0.773805 4.19422 0
M  V30 4910 S 464.224 0.377525 5.34168 0
M  V30 4911 C 465.38 -0.727164 6.21662 0
M  V30 4912 H 465.613 0.431218 2.94156 0
M  V30 4913 H 463.146 0.3408 1.50592 0
M  V30 4914 H 465.104 -1.97683 3.59766 0
M  V30 4915 H 463.765 -1.99073 2.42958 0
M  V30 4916 H 462.958 -1.60187 4.77866 0
M  V30 4917 H 462.56 -0.218448 3.73361 0
M  V30 4918 H 464.852 -1.61992 6.57849 0
M  V30 4919 H 465.795 -0.180135 7.07871 0
M  V30 4920 H 466.203 -1.01863 5.55233 0
M  V30 4921 N 465.601 -1.54893 0.290851 0
M  V30 4922 C 466.551 -2.19838 -0.604599 0
M  V30 4923 C 467.535 -1.16805 -1.10659 0
M  V30 4924 O 468.727 -1.42562 -1.04905 0
M  V30 4925 C 465.856 -2.93497 -1.78086 0
M  V30 4926 C 464.942 -4.03835 -1.29531 0
M  V30 4927 N 465.333 -5.03047 -0.527024 0
M  V30 4928 C 463.631 -4.17192 -1.57693 0
M  V30 4929 C 464.332 -5.81074 -0.269728 0
M  V30 4930 N 463.308 -5.36966 -0.846651 0
M  V30 4931 H 467.11 -2.93898 -0.00995032 0
M  V30 4932 H 464.624 -1.62121 0.0951353 0
M  V30 4933 H 466.621 -3.38484 -2.43381 0
M  V30 4934 H 465.281 -2.2095 -2.37931 0
M  V30 4935 H 466.292 -5.17611 -0.172872 0
M  V30 4936 H 462.969 -3.55845 -2.18359 0
M  V30 4937 H 464.359 -6.71005 0.346643 0
M  V30 4938 N 467.08 -0.0183926 -1.57589 0
M  V30 4939 C 468.01 0.965596 -2.12599 0
M  V30 4940 C 468.991 1.34641 -1.0395 0
M  V30 4941 O 470.176 1.42693 -1.31729 0
M  V30 4942 C 467.306 2.25149 -2.64434 0
M  V30 4943 C 466.26 2.01175 -3.77773 0
M  V30 4944 C 465.586 3.35937 -4.15994 0
M  V30 4945 C 466.886 1.35953 -5.04296 0
M  V30 4946 H 468.58 0.507504 -2.95067 0
M  V30 4947 H 466.126 0.242671 -1.41941 0
M  V30 4948 H 468.079 2.94357 -3.01549 0
M  V30 4949 H 466.803 2.73105 -1.79112 0
M  V30 4950 H 465.462 1.34388 -3.4108 0
M  V30 4951 H 465.11 3.81631 -3.27669 0
M  V30 4952 H 464.81 3.20705 -4.92364 0
M  V30 4953 H 466.334 4.0643 -4.55683 0
M  V30 4954 H 467.748 1.95144 -5.39065 0
M  V30 4955 H 466.145 1.31152 -5.85593 0
M  V30 4956 H 467.215 0.331071 -4.83768 0
M  V30 4957 N 468.558 1.5553 0.254621 0
M  V30 4958 C 469.783 1.81383 1.00573 0
M  V30 4959 C 470.208 0.594419 1.78461 0
M  V30 4960 O 469.566 -0.456403 1.75461 0
M  V30 4961 C 469.614 3.04892 1.92545 0
M  V30 4962 O 468.718 2.81266 3.01601 0
M  V30 4963 H 468.059 0.598969 0.286587 0
M  V30 4964 H 470.589 2.02703 0.277952 0
M  V30 4965 H 470.599 3.34119 2.34155 0
M  V30 4966 H 469.274 3.93287 1.3527 0
M  V30 4967 H 467.851 2.63185 2.64174 0
M  V30 4968 N 470.036 -0.519951 1.48776 0
M  V30 4969 C 471.264 -1.29971 1.60982 0
M  V30 4970 C 471.679 -1.86803 0.273885 0
M  V30 4971 O 471.036 -1.66904 -0.738193 0
M  V30 4972 C 471.087 -2.44346 2.66415 0
M  V30 4973 O 470.808 -1.89855 3.94825 0
M  V30 4974 C 472.309 -3.36014 2.89153 0
M  V30 4975 H 469.529 -0.394891 0.542496 0
M  V30 4976 H 472.073 -0.626214 1.94676 0
M  V30 4977 H 470.228 -3.07562 2.35552 0
M  V30 4978 H 470.642 -2.64798 4.5275 0
M  V30 4979 H 472.116 -4.12593 3.66703 0
M  V30 4980 H 472.593 -3.91859 1.98351 0
M  V30 4981 H 473.199 -2.78582 3.21359 0
M  V30 4982 N 471.514 -1.37532 -0.769588 0
M  V30 4983 C 472.444 -1.36172 -1.89682 0
M  V30 4984 C 473.425 -0.23001 -1.68538 0
M  V30 4985 O 474.61 -0.43069 -1.89364 0
M  V30 4986 C 471.74 -1.1701 -3.26995 0
M  V30 4987 C 470.694 -2.27216 -3.62708 0
M  V30 4988 C 470.02 -1.93174 -4.98586 0
M  V30 4989 C 471.32 -3.6941 -3.69234 0
M  V30 4990 H 473.014 -2.30499 -1.91078 0
M  V30 4991 H 470.56 -1.10953 -0.917902 0
M  V30 4992 H 472.513 -1.14688 -4.05493 0
M  V30 4993 H 471.237 -0.191395 -3.26039 0
M  V30 4994 H 469.896 -2.28697 -2.86519 0
M  V30 4995 H 469.544 -0.938281 -4.94171 0
M  V30 4996 H 469.244 -2.66973 -5.23449 0
M  V30 4997 H 470.768 -1.92443 -5.79481 0
M  V30 4998 H 472.182 -3.70047 -4.37879 0
M  V30 4999 H 470.579 -4.4228 -4.05597 0
M  V30 5000 H 471.649 -4.0288 -2.69844 0
M  V30 5001 N 472.992 0.995999 -1.22138 0
M  V30 5002 C 473.925 2.08302 -0.931952 0
M  V30 5003 C 474.903 1.62127 0.123956 0
M  V30 5004 O 476.087 1.88499 -0.00696004 0
M  V30 5005 C 473.214 3.36317 -0.401068 0
M  V30 5006 C 472.26 4.01413 -1.44117 0
M  V30 5007 S 473.093 4.42664 -3.01345 0
M  V30 5008 C 474.249 5.73853 -2.49887 0
M  V30 5009 H 474.482 2.32532 -1.85246 0
M  V30 5010 H 472.015 1.13005 -1.0521 0
M  V30 5011 H 473.973 4.10375 -0.101352 0
M  V30 5012 H 472.634 3.10123 0.498272 0
M  V30 5013 H 471.827 4.9358 -1.01952 0
M  V30 5014 H 471.429 3.33668 -1.68943 0
M  V30 5015 H 473.721 6.50039 -1.90934 0
M  V30 5016 H 474.664 6.20841 -3.40532 0
M  V30 5017 H 475.072 5.31105 -1.9128 0
M  V30 5018 N 474.47 1.03057 1.19235 0
M  V30 5019 C 475.417 0.612832 2.22515 0
M  V30 5020 C 476.387 -0.374224 1.61829 0
M  V30 5021 O 477.572 -0.270501 1.88873 0
M  V30 5022 C 474.712 -0.028475 3.45088 0
M  V30 5023 C 473.825 1.00483 4.20151 0
M  V30 5024 C 472.96 0.333102 5.30155 0
M  V30 5025 C 471.999 1.3522 5.96977 0
M  V30 5026 N 471.136 0.70616 6.9854 0
M  V30 5027 H 475.976 1.49812 2.57605 0
M  V30 5028 H 473.513 0.749658 1.26564 0
M  V30 5029 H 475.471 -0.417548 4.15105 0
M  V30 5030 H 474.101 -0.877334 3.10649 0
M  V30 5031 H 473.153 1.51194 3.49062 0
M  V30 5032 H 474.465 1.77929 4.65986 0
M  V30 5033 H 473.619 -0.110725 6.06599 0
M  V30 5034 H 472.358 -0.473547 4.85396 0
M  V30 5035 H 471.363 1.80627 5.19282 0
M  V30 5036 H 472.588 2.16037 6.4382 0
M  V30 5037 H 470.534 -0.0803667 6.55951 0
M  V30 5038 H 470.451 1.41848 7.42573 0
M  V30 5039 H 471.719 0.286391 7.78974 0
M  V30 5040 N 475.948 -1.35272 0.808662 0
M  V30 5041 C 477.188 -2.00534 0.395668 0
M  V30 5042 C 477.552 -1.62755 -1.01857 0
M  V30 5043 O 478.753 -2.20752 -1.53368 0
M  V30 5044 C 477.024 -3.52732 0.575771 0
M  V30 5045 S 478.583 -4.38067 0.253507 0
M  V30 5046 H 475.401 -0.694962 0.150165 0
M  V30 5047 H 478.003 -1.64823 1.05137 0
M  V30 5048 H 476.707 -3.77714 1.60499 0
M  V30 5049 H 476.238 -3.93285 -0.0951739 0
M  V30 5050 H 478.253 -4.87252 -0.938068 0
M  V30 5051 N 477.426 -0.562348 -1.47226 0
M  V30 5052 C 478.374 0.195476 -2.31777 0
M  V30 5053 C 479.368 0.90433 -1.43242 0
M  V30 5054 O 480.574 0.825031 -1.59979 0
M  V30 5055 H 476.949 0.0819095 -0.747526 0
M  V30 5056 H 478.92 -0.536753 -2.93533 0
M  V30 5057 C 477.669 1.20902 -3.26003 0
M  V30 5058 H 476.992 0.672997 -3.94095 0
M  V30 5059 H 478.432 1.71006 -3.87986 0
M  V30 5060 C 476.891 2.25955 -2.49891 0
M  V30 5061 O 477.421 3.32969 -2.2471 0
M  V30 5062 N 475.627 2.00019 -2.1081 0
M  V30 5063 H 475.174 1.13006 -2.31489 0
M  V30 5064 H 475.132 2.70523 -1.60201 0
M  V30 5065 N 478.904 1.54736 -0.299062 0
M  V30 5066 C 479.854 2.20155 0.592932 0
M  V30 5067 C 480.838 1.1739 1.10038 0
M  V30 5068 O 482.03 1.43116 1.04147 0
M  V30 5069 C 479.159 2.94437 1.76527 0
M  V30 5070 C 478.245 4.04516 1.27388 0
M  V30 5071 N 478.636 5.03319 0.500339 0
M  V30 5072 C 476.934 4.18022 1.55478 0
M  V30 5073 C 477.635 5.81209 0.238909 0
M  V30 5074 N 476.611 5.37408 0.818163 0
M  V30 5075 H 480.413 2.93899 -0.00563596 0
M  V30 5076 H 477.927 1.62068 -0.103732 0
M  V30 5077 H 479.924 3.3977 2.41582 0
M  V30 5078 H 478.584 2.22209 2.36756 0
M  V30 5079 H 479.595 5.17696 0.145419 0
M  V30 5080 H 476.272 3.56998 2.16469 0
M  V30 5081 H 477.662 6.70812 -0.382223 0
M  V30 5082 N 480.382 0.0267497 1.57577 0
M  V30 5083 C 481.622 -0.65659 1.93567 0
M  V30 5084 C 481.986 -1.69429 0.903213 0
M  V30 5085 O 483.187 -2.42994 1.14923 0
M  V30 5086 C 481.458 -1.25912 3.34486 0
M  V30 5087 S 483.017 -1.96386 3.924 0
M  V30 5088 H 479.835 -0.216237 0.67732 0
M  V30 5089 H 482.437 0.0898475 1.95293 0
M  V30 5090 H 481.141 -0.491405 4.07447 0
M  V30 5091 H 480.672 -2.04291 3.36198 0
M  V30 5092 H 482.687 -3.24202 3.75643 0
M  V30 5093 N 481.861 -1.55662 -0.24637 0
M  V30 5094 C 483.138 -1.68272 -0.997198 0
M  V30 5095 C 483.518 -0.566785 -2.03349 0
M  V30 5096 O 482.866 0.429688 -2.24424 0
M  V30 5097 C 483.076 -3.08594 -1.63006 0
M  V30 5098 C 484.424 -3.6721 -2.13171 0
M  V30 5099 O 485.448 -3.11397 -1.72946 0
M  V30 5100 O 484.307 -4.65054 -2.87031 0
M  V30 5101 H 481.401 -0.684429 -0.464205 0
M  V30 5102 H 483.947 -1.67993 -0.240114 0
M  V30 5103 H 482.719 -3.81264 -0.880527 0
M  V30 5104 H 482.342 -3.12886 -2.45333 0
M  V30 5105 N 483.339 0.512053 -1.4905 0
M  V30 5106 C 484.249 1.64139 -1.67617 0
M  V30 5107 C 485.265 1.64786 -0.558701 0
M  V30 5108 O 486.441 1.8341 -0.832034 0
M  V30 5109 C 483.506 3.00548 -1.72835 0
M  V30 5110 C 482.567 3.10615 -2.96339 0
M  V30 5111 C 481.8 4.40517 -3.01298 0
M  V30 5112 O 482.023 5.28671 -2.14157 0
M  V30 5113 O 480.957 4.55325 -3.93653 0
M  V30 5114 H 484.783 1.51407 -2.63267 0
M  V30 5115 H 482.368 0.687131 -1.32661 0
M  V30 5116 H 484.25 3.81641 -1.78683 0
M  V30 5117 H 482.925 3.13566 -0.803616 0
M  V30 5118 H 481.832 2.2875 -2.96014 0
M  V30 5119 H 483.165 3.0252 -3.88256 0
M  V30 5120 N 484.817 1.37938 0.762283 0
M  V30 5121 C 486.063 1.33866 1.52341 0
M  V30 5122 C 486.396 -0.0738961 1.94059 0
M  V30 5123 O 485.671 -1.03326 1.64785 0
M  V30 5124 C 485.954 2.28644 2.78197 0
M  V30 5125 C 485.807 3.78722 2.42672 0
M  V30 5126 C 487.126 2.21702 3.80179 0
M  V30 5127 H 484.245 0.487593 0.55265 0
M  V30 5128 H 486.887 1.68717 0.873767 0
M  V30 5129 H 485.037 1.99055 3.33631 0
M  V30 5130 H 486.709 4.18948 1.93081 0
M  V30 5131 H 484.952 3.96827 1.75244 0
M  V30 5132 H 485.623 4.40486 3.3268 0
M  V30 5133 H 488.099 2.47805 3.34263 0
M  V30 5134 H 486.975 2.90143 4.65949 0
M  V30 5135 H 487.236 1.21301 4.25133 0
M  V30 5136 N 486.295 -0.989507 1.22664 0
M  V30 5137 C 487.52 -1.77031 1.08051 0
M  V30 5138 C 487.945 -1.84535 -0.364483 0
M  V30 5139 O 487.303 -1.3003 -1.2634 0
M  V30 5140 C 487.351 -3.18 1.70024 0
M  V30 5141 O 486.455 -4.01161 0.956216 0
M  V30 5142 H 485.796 -0.545008 0.379292 0
M  V30 5143 H 488.326 -1.24277 1.62531 0
M  V30 5144 H 488.336 -3.68616 1.74888 0
M  V30 5145 H 487.011 -3.11853 2.75174 0
M  V30 5146 H 485.588 -3.59687 0.98384 0
M  V30 5147 N 487.773 -1.03688 -1.18687 0
M  V30 5148 C 489.019 -0.74888 -1.89112 0
M  V30 5149 C 489.374 0.715345 -1.78607 0
M  V30 5150 O 488.667 1.51498 -1.17299 0
M  V30 5151 C 488.861 -1.14477 -3.3857 0
M  V30 5152 C 488.69 -2.64594 -3.63621 0
M  V30 5153 C 487.46 -3.31685 -3.812 0
M  V30 5154 C 489.658 -3.62811 -3.64517 0
M  V30 5155 N 487.64 -4.70822 -3.93955 0
M  V30 5156 C 489.011 -4.87603 -3.8294 0
M  V30 5157 C 491.066 -3.56495 -3.47585 0
M  V30 5158 C 489.769 -6.0684 -3.86184 0
M  V30 5159 C 491.795 -4.75155 -3.52111 0
M  V30 5160 C 491.157 -5.98765 -3.71026 0
M  V30 5161 H 487.256 -0.32603 -0.710794 0
M  V30 5162 H 489.84 -1.3258 -1.42586 0
M  V30 5163 H 488.011 -0.595974 -3.838 0
M  V30 5164 H 489.743 -0.808187 -3.96548 0
M  V30 5165 H 486.498 -2.82091 -3.80423 0
M  V30 5166 H 486.922 -5.43122 -4.04163 0
M  V30 5167 H 491.564 -2.61907 -3.31911 0
M  V30 5168 H 489.282 -7.01788 -4.00648 0
M  V30 5169 H 492.868 -4.71905 -3.40289 0
M  V30 5170 H 491.748 -6.89047 -3.74412 0
M  V30 5171 N 489.251 1.34841 -0.815825 0
M  V30 5172 C 490.183 2.28409 -0.190265 0
M  V30 5173 C 491.196 1.50705 0.615771 0
M  V30 5174 O 492.385 1.72822 0.446616 0
M  V30 5175 C 489.485 3.30441 0.752446 0
M  V30 5176 C 488.658 4.37399 -0.00922152 0
M  V30 5177 C 487.717 5.19234 0.853351 0
M  V30 5178 O 486.743 5.68404 0.300919 0
M  V30 5179 N 487.945 5.38248 2.17416 0
M  V30 5180 H 490.71 2.82732 -0.994114 0
M  V30 5181 H 488.271 1.47289 -0.672129 0
M  V30 5182 H 490.263 3.82084 1.33394 0
M  V30 5183 H 488.833 2.76565 1.45707 0
M  V30 5184 H 488.053 3.86567 -0.771979 0
M  V30 5185 H 489.341 5.05992 -0.533807 0
M  V30 5186 H 488.739 4.99961 2.6468 0
M  V30 5187 H 487.296 5.93035 2.70467 0
M  V30 5188 N 490.729 0.570148 1.46925 0
M  V30 5189 C 491.957 0.0561966 2.06824 0
M  V30 5190 C 492.372 -1.24326 1.42086 0
M  V30 5191 O 491.729 -1.74882 0.521794 0
M  V30 5192 C 491.78 -0.129517 3.61268 0
M  V30 5193 O 491.501 1.1185 4.23581 0
M  V30 5194 C 493.002 -0.679266 4.38065 0
M  V30 5195 H 490.222 0.0517261 0.669003 0
M  V30 5196 H 492.766 0.787243 1.8874 0
M  V30 5197 H 490.921 -0.810739 3.78822 0
M  V30 5198 H 491.335 0.924375 5.1629 0
M  V30 5199 H 492.809 -0.758445 5.46765 0
M  V30 5200 H 493.286 -1.69346 4.05239 0
M  V30 5201 H 493.892 -0.0333237 4.25287 0
M  V30 5202 N 492.207 -1.54576 0.307264 0
M  V30 5203 C 493.447 -2.02172 -0.300962 0
M  V30 5204 C 493.811 -1.19081 -1.50611 0
M  V30 5205 O 495.012 -1.56405 -2.18612 0
M  V30 5206 C 493.283 -3.51576 -0.642591 0
M  V30 5207 S 494.842 -4.21127 -1.23279 0
M  V30 5208 H 491.66 -0.705021 -0.0920141 0
M  V30 5209 H 494.262 -1.90563 0.436594 0
M  V30 5210 H 492.966 -4.09681 0.242901 0
M  V30 5211 H 492.497 -3.67234 -1.41077 0
M  V30 5212 H 494.512 -4.27426 -2.52034 0
M  V30 5213 N 493.685 -0.035106 -1.57561 0
M  V30 5214 C 494.962 0.681212 -1.83354 0
M  V30 5215 C 495.342 1.89986 -0.920252 0
M  V30 5216 O 494.69 2.28489 0.0226815 0
M  V30 5217 C 494.9 1.05376 -3.32712 0
M  V30 5218 C 496.248 1.44286 -3.99333 0
M  V30 5219 O 497.272 1.14656 -3.37242 0
M  V30 5220 O 496.131 1.99518 -5.08778 0
M  V30 5221 H 493.225 0.334741 -0.756226 0
M  V30 5222 H 495.771 -0.0632448 -1.69582 0
M  V30 5223 H 494.543 0.186668 -3.90854 0
M  V30 5224 H 494.166 1.85619 -3.51613 0
M  V30 5225 N 495.163 1.55791 0.238111 0
M  V30 5226 C 496.41 1.78033 0.964907 0
M  V30 5227 C 496.738 0.600984 1.84982 0
M  V30 5228 O 495.993 -0.41536 1.91241 0
M  V30 5229 C 496.292 3.05869 1.84875 0
M  V30 5230 C 495.958 4.36808 1.11846 0
M  V30 5231 C 494.62 4.72388 0.916662 0
M  V30 5232 C 496.972 5.17717 0.60151 0
M  V30 5233 C 494.3 5.86406 0.185756 0
M  V30 5234 C 496.652 6.32494 -0.115972 0
M  V30 5235 C 495.316 6.66688 -0.329168 0
M  V30 5236 H 494.586 0.651469 0.353085 0
M  V30 5237 H 497.233 1.90061 0.234318 0
M  V30 5238 H 495.538 2.88891 2.64668 0
M  V30 5239 H 497.235 3.20278 2.41294 0
M  V30 5240 H 493.825 4.08862 1.28569 0
M  V30 5241 H 498.009 4.90678 0.744932 0
M  V30 5242 H 493.265 6.11399 0.0101886 0
M  V30 5243 H 497.439 6.94425 -0.524127 0
M  V30 5244 H 495.066 7.54884 -0.897474 0
M  V30 5245 N 496.642 -0.504142 1.49319 0
M  V30 5246 C 497.572 -1.61473 1.68667 0
M  V30 5247 C 498.553 -1.61455 0.535378 0
M  V30 5248 O 499.738 -1.78245 0.770868 0
M  V30 5249 C 496.868 -2.99971 1.75028 0
M  V30 5250 C 495.822 -3.14854 2.89916 0
M  V30 5251 C 495.148 -4.54671 2.81387 0
M  V30 5252 C 496.448 -2.95176 4.30893 0
M  V30 5253 H 498.142 -1.45535 2.61648 0
M  V30 5254 H 495.688 -0.698711 1.25913 0
M  V30 5255 H 497.641 -3.77562 1.8715 0
M  V30 5256 H 496.365 -3.1699 0.786441 0
M  V30 5257 H 495.024 -2.39687 2.77391 0
M  V30 5258 H 494.672 -4.68562 1.82917 0
M  V30 5259 H 494.372 -4.6557 3.58494 0
M  V30 5260 H 495.896 -5.34327 2.95512 0
M  V30 5261 H 497.31 -3.62538 4.44116 0
M  V30 5262 H 495.707 -3.17549 5.09198 0
M  V30 5263 H 496.777 -1.91332 4.45556 0
M  V30 5264 N 498.12 -1.38341 -0.754957 0
M  V30 5265 C 499.067 -1.3546 -1.86867 0
M  V30 5266 C 500.037 -0.217369 -1.64672 0
M  V30 5267 O 501.222 -0.409383 -1.86356 0
M  V30 5268 C 498.362 -1.18413 -3.24149 0
M  V30 5269 C 497.475 -2.41511 -3.58185 0
M  V30 5270 C 496.61 -2.17205 -4.84763 0
M  V30 5271 C 495.649 -3.36081 -5.11582 0
M  V30 5272 N 494.786 -3.11219 -6.29354 0
M  V30 5273 H 499.626 -2.30672 -1.88664 0
M  V30 5274 H 497.163 -1.14607 -0.922154 0
M  V30 5275 H 499.121 -1.06545 -4.03366 0
M  V30 5276 H 497.751 -0.268397 -3.21682 0
M  V30 5277 H 496.803 -2.64056 -2.73822 0
M  V30 5278 H 498.115 -3.30115 -3.73932 0
M  V30 5279 H 497.269 -2.02465 -5.7192 0
M  V30 5280 H 496.008 -1.25964 -4.71152 0
M  V30 5281 H 495.013 -3.51341 -4.22894 0
M  V30 5282 H 496.238 -4.28196 -5.27091 0
M  V30 5283 H 494.184 -2.22624 -6.17069 0
M  V30 5284 H 494.101 -3.93373 -6.45596 0
M  V30 5285 H 495.369 -3.00132 -7.19403 0
M  V30 5286 N 499.598 0.982988 -1.23187 0
M  V30 5287 C 500.561 2.05649 -1.01198 0
M  V30 5288 C 501.561 1.6078 0.0252464 0
M  V30 5289 O 502.751 1.72878 -0.214243 0
M  V30 5290 C 499.883 3.36744 -0.530656 0
M  V30 5291 H 501.076 2.2659 -1.96461 0
M  V30 5292 H 498.629 1.15602 -1.05195 0
M  V30 5293 H 499.364 3.21492 0.425873 0
M  V30 5294 H 499.149 3.7065 -1.2791 0
M  V30 5295 H 500.639 4.15705 -0.397366 0
M  V30 5296 N 501.076 1.04316 1.18135 0
M  V30 5297 C 502.304 0.768117 1.92113 0
M  V30 5298 C 502.719 -0.675057 1.76319 0
M  V30 5299 O 502.076 -1.46038 1.09449 0
M  V30 5300 C 502.127 1.12808 3.43448 0
M  V30 5301 O 501.848 2.5146 3.58747 0
M  V30 5302 C 503.349 0.8779 4.3452 0
M  V30 5303 H 500.569 0.279937 0.609817 0
M  V30 5304 H 503.113 1.39149 1.49859 0
M  V30 5305 H 501.268 0.549623 3.83481 0
M  V30 5306 H 501.682 2.65313 4.52448 0
M  V30 5307 H 503.156 1.17959 5.39249 0
M  V30 5308 H 503.633 -0.187239 4.38801 0
M  V30 5309 H 504.239 1.43977 4.00188 0
M  V30 5310 N 502.554 -1.34406 0.822964 0
M  V30 5311 C 503.794 -2.00103 0.416915 0
M  V30 5312 C 504.158 -1.63826 -1.00125 0
M  V30 5313 O 505.359 -2.22367 -1.51018 0
M  V30 5314 C 503.63 -3.52101 0.613151 0
M  V30 5315 S 505.189 -4.37774 0.299956 0
M  V30 5316 H 502.007 -0.69333 0.157527 0
M  V30 5317 H 504.609 -1.63698 1.06879 0
M  V30 5318 H 503.313 -3.75991 1.64496 0
M  V30 5319 H 502.844 -3.93364 -0.0534554 0
M  V30 5320 H 504.859 -4.8822 -0.886336 0
M  V30 5321 N 504.032 -0.577932 -1.46621 0
M  V30 5322 C 504.942 0.160651 -2.34049 0
M  V30 5323 C 505.958 0.890911 -1.49462 0
M  V30 5324 O 507.134 0.855166 -1.82343 0
M  V30 5325 C 504.199 1.16447 -3.26559 0
M  V30 5326 C 503.26 0.4394 -4.27045 0
M  V30 5327 C 502.493 1.3954 -5.15135 0
M  V30 5328 O 502.716 2.63162 -5.06065 0
M  V30 5329 O 501.65 0.908585 -5.95003 0
M  V30 5330 H 505.476 -0.557057 -2.98547 0
M  V30 5331 H 503.061 -0.338369 -1.45518 0
M  V30 5332 H 504.943 1.7434 -3.83645 0
M  V30 5333 H 503.618 1.86373 -2.64663 0
M  V30 5334 H 502.525 -0.181247 -3.73661 0
M  V30 5335 H 503.858 -0.218799 -4.91713 0
M  V30 5336 N 505.51 1.54411 -0.315457 0
M  V30 5337 C 506.46 2.20772 0.569549 0
M  V30 5338 C 507.444 1.18551 1.08787 0
M  V30 5339 O 508.636 1.44213 1.02624 0
M  V30 5340 C 505.765 2.96293 1.73394 0
M  V30 5341 C 504.851 4.05844 1.2309 0
M  V30 5342 N 505.242 5.03822 0.446927 0
M  V30 5343 C 503.54 4.19648 1.51035 0
M  V30 5344 C 504.241 5.8143 0.17725 0
M  V30 5345 N 503.217 5.38245 0.761118 0
M  V30 5346 H 507.019 2.93877 -0.0368076 0
M  V30 5347 H 504.533 1.61949 -0.120915 0
M  V30 5348 H 506.53 3.42313 2.37965 0
M  V30 5349 H 505.19 2.24708 2.34386 0
M  V30 5350 H 506.201 5.17821 0.0905027 0
M  V30 5351 H 502.878 3.59274 2.1267 0
M  V30 5352 H 504.268 6.70369 -0.45335 0
M  V30 5353 N 506.988 0.0434614 1.5754 0
M  V30 5354 C 508.228 -0.636023 1.94253 0
M  V30 5355 C 508.592 -1.68461 0.921132 0
M  V30 5356 O 509.793 -2.41762 1.17494 0
M  V30 5357 C 508.064 -1.22357 3.35803 0
M  V30 5358 S 509.623 -1.92213 3.94461 0
M  V30 5359 H 506.441 -0.209041 0.679575 0
M  V30 5360 H 509.043 0.110556 1.95187 0
M  V30 5361 H 507.747 -0.448162 4.07946 0
M  V30 5362 H 507.278 -2.00713 3.38346 0
M  V30 5363 H 509.293 -3.20199 3.79061 0
M  V30 5364 N 508.466 -1.55915 -0.229846 0
M  V30 5365 C 509.714 -1.7819 -0.953565 0
M  V30 5366 C 510.035 -0.610504 -1.85197 0
M  V30 5367 O 509.305 0.372988 -1.92316 0
M  V30 5368 H 507.885 -0.657208 -0.355087 0
M  V30 5369 H 510.547 -1.9337 -0.243693 0
M  V30 5370 H 509.643 -2.70011 -1.56527 0
M  V30 5371 N 509.944 0.496216 -1.49584 0
M  V30 5372 C 511.172 1.27394 -1.63029 0
M  V30 5373 C 511.587 1.86344 -0.303569 0
M  V30 5374 O 510.944 1.68057 0.711547 0
M  V30 5375 C 510.995 2.40077 -2.70269 0
M  V30 5376 O 510.716 1.83549 -3.97796 0
M  V30 5377 C 512.217 3.31372 -2.94462 0
M  V30 5378 H 509.437 0.386211 -0.54871 0
M  V30 5379 H 511.981 0.595163 -1.95648 0
M  V30 5380 H 510.136 3.03775 -2.40415 0
M  V30 5381 H 510.55 2.57561 -4.56905 0
M  V30 5382 H 512.024 4.06707 -3.73221 0
M  V30 5383 H 512.501 3.88654 -2.0456 0
M  V30 5384 H 513.107 2.73435 -3.25751 0
M  V30 5385 N 511.423 1.38739 0.74761 0
M  V30 5386 C 512.333 1.38696 1.89211 0
M  V30 5387 C 513.349 0.283303 1.71678 0
M  V30 5388 O 514.525 0.522713 1.94498 0
M  V30 5389 C 511.59 1.21662 3.24653 0
M  V30 5390 C 510.651 2.41886 3.54669 0
M  V30 5391 C 509.884 2.25655 4.83648 0
M  V30 5392 O 510.107 1.25339 5.56459 0
M  V30 5393 O 509.041 3.14372 5.13277 0
M  V30 5394 H 512.867 2.35143 1.92202 0
M  V30 5395 H 510.452 1.19721 0.893708 0
M  V30 5396 H 512.334 1.14246 4.05618 0
M  V30 5397 H 511.009 0.283024 3.2246 0
M  V30 5398 H 509.916 2.54877 2.73841 0
M  V30 5399 H 511.249 3.33895 3.61628 0
M  V30 5400 N 512.901 -0.976442 1.23707 0
M  V30 5401 C 513.849 -2.09078 1.01927 0
M  V30 5402 C 514.843 -1.69345 -0.0430193 0
M  V30 5403 O 516.049 -1.79659 0.110814 0
M  V30 5404 H 512.424 -0.68398 0.312531 0
M  V30 5405 H 514.395 -2.24614 1.96447 0
M  V30 5406 C 513.144 -3.41919 0.631385 0
M  V30 5407 H 512.467 -3.72946 1.44053 0
M  V30 5408 H 513.907 -4.20817 0.518532 0
M  V30 5409 C 512.366 -3.30357 -0.660723 0
M  V30 5410 O 512.896 -3.63542 -1.70881 0
M  V30 5411 N 511.102 -2.83507 -0.638139 0
M  V30 5412 H 510.649 -2.567 0.215108 0
M  V30 5413 H 510.607 -2.76153 -1.50289 0
M  V30 5414 N 514.379 -1.04941 -1.1758 0
M  V30 5415 C 515.309 -0.669172 -2.23706 0
M  V30 5416 C 516.29 0.331835 -1.66832 0
M  V30 5417 O 517.475 0.209988 -1.93061 0
M  V30 5418 C 514.605 -0.0404889 -3.47276 0
M  V30 5419 C 513.559 -0.965983 -4.16957 0
M  V30 5420 C 512.885 -0.201312 -5.34321 0
M  V30 5421 C 514.185 -2.28902 -4.69469 0
M  V30 5422 H 515.879 -1.55639 -2.55767 0
M  V30 5423 H 513.425 -0.749793 -1.22939 0
M  V30 5424 H 515.378 0.237298 -4.20731 0
M  V30 5425 H 514.102 0.881658 -3.14475 0
M  V30 5426 H 512.761 -1.22829 -3.45411 0
M  V30 5427 H 512.409 0.723519 -4.97769 0
M  V30 5428 H 512.109 -0.817968 -5.81879 0
M  V30 5429 H 513.633 0.0692499 -6.10561 0
M  V30 5430 H 515.047 -2.07132 -5.34574 0
M  V30 5431 H 513.444 -2.85942 -5.27596 0
M  V30 5432 H 514.514 -2.92937 -3.86414 0
M  V30 5433 N 515.857 1.33968 -0.830081 0
M  V30 5434 C 517.103 1.98357 -0.422191 0
M  V30 5435 C 517.436 1.65633 1.01387 0
M  V30 5436 O 516.711 0.931648 1.70735 0
M  V30 5437 C 516.994 3.54492 -0.633043 0
M  V30 5438 C 516.847 3.96934 -2.11574 0
M  V30 5439 C 518.166 4.40039 -0.0735584 0
M  V30 5440 H 515.285 0.720544 -0.154871 0
M  V30 5441 H 517.927 1.58749 -1.04397 0
M  V30 5442 H 516.077 3.88361 -0.103775 0
M  V30 5443 H 517.749 3.73363 -2.7092 0
M  V30 5444 H 515.992 3.46984 -2.60354 0
M  V30 5445 H 516.663 5.05651 -2.21406 0
M  V30 5446 H 519.139 4.12764 -0.52585 0
M  V30 5447 H 518.015 5.48327 -0.250841 0
M  V30 5448 H 518.276 4.30124 1.02202 0
M  V30 5449 N 517.335 0.585699 1.46312 0
M  V30 5450 C 518.584 0.0701192 2.01578 0
M  V30 5451 C 518.897 -1.29889 1.46247 0
M  V30 5452 O 520.103 -1.90598 1.93351 0
M  V30 5453 C 518.559 0.0747499 3.59822 0
M  V30 5454 C 518.167 1.44226 4.24149 0
M  V30 5455 C 519.911 -0.38673 4.22735 0
M  V30 5456 C 517.818 1.40446 5.74481 0
M  V30 5457 H 516.748 0.0224441 0.753666 0
M  V30 5458 H 519.399 0.737789 1.68015 0
M  V30 5459 H 517.781 -0.659144 3.90476 0
M  V30 5460 H 518.955 2.19612 4.05101 0
M  V30 5461 H 517.27 1.84401 3.73343 0
M  V30 5462 H 519.867 -0.433853 5.32937 0
M  V30 5463 H 520.21 -1.40489 3.91878 0
M  V30 5464 H 520.743 0.293195 3.96718 0
M  V30 5465 H 517.482 2.39952 6.10003 0
M  V30 5466 H 517.002 0.692845 5.95785 0
M  V30 5467 H 518.681 1.11865 6.37256 0
M  V30 5468 N 518.813 -1.54241 0.323641 0
M  V30 5469 C 519.723 -2.28033 -0.551205 0
M  V30 5470 C 520.739 -1.32388 -1.12913 0
M  V30 5471 O 521.915 -1.65403 -1.14908 0
M  V30 5472 C 518.98 -3.02382 -1.69606 0
M  V30 5473 C 518.041 -4.13612 -1.14993 0
M  V30 5474 C 517.274 -4.84407 -2.24022 0
M  V30 5475 O 517.497 -4.54716 -3.44368 0
M  V30 5476 O 516.431 -5.71312 -1.89436 0
M  V30 5477 H 520.257 -3.03662 0.048066 0
M  V30 5478 H 517.842 -1.49133 0.0893289 0
M  V30 5479 H 519.724 -3.48941 -2.36259 0
M  V30 5480 H 518.399 -2.29628 -2.28151 0
M  V30 5481 H 517.306 -3.71402 -0.448484 0
M  V30 5482 H 518.639 -4.8841 -0.609608 0
M  V30 5483 N 520.291 -0.0518155 -1.57515 0
M  V30 5484 C 521.539 0.620595 -1.92336 0
M  V30 5485 C 521.86 1.71345 -0.930907 0
M  V30 5486 O 521.13 1.95885 0.0241341 0
M  V30 5487 H 519.71 0.232226 -0.709986 0
M  V30 5488 H 522.372 -0.104969 -1.94617 0
M  V30 5489 H 521.468 1.05879 -2.93592 0
M  V30 5490 N 521.769 1.56035 0.221574 0
M  V30 5491 C 523.18 1.69229 0.788567 0
M  V30 5492 C 523.531 0.653814 1.84986 0
M  V30 5493 O 522.656 -0.195065 2.15519 0
M  V30 5494 C 523.251 3.06809 1.43713 0
M  V30 5495 C 521.81 3.21858 1.95152 0
M  V30 5496 C 520.957 2.65155 0.811685 0
M  V30 5497 H 523.908 1.587 -0.00307894 0
M  V30 5498 H 523.929 3.02666 2.30594 0
M  V30 5499 H 523.441 3.82369 0.664475 0
M  V30 5500 H 521.542 2.51167 2.7522 0
M  V30 5501 H 521.655 4.29073 2.1315 0
M  V30 5502 H 520.019 2.23635 1.21899 0
M  V30 5503 H 520.802 3.43261 0.0516987 0
M  V30 5504 N 523.247 -0.488276 1.49845 0
M  V30 5505 C 524.475 -1.26527 1.63702 0
M  V30 5506 C 524.89 -1.8618 0.313447 0
M  V30 5507 O 524.247 -1.68432 -0.702624 0
M  V30 5508 C 524.298 -2.3864 2.71538 0
M  V30 5509 O 524.019 -1.81437 3.98763 0
M  V30 5510 C 525.52 -3.29805 2.96215 0
M  V30 5511 H 522.74 -0.383295 0.55075 0
M  V30 5512 H 525.284 -0.584779 1.95961 0
M  V30 5513 H 523.439 -3.02496 2.42023 0
M  V30 5514 H 523.853 -2.55135 4.58265 0
M  V30 5515 H 525.327 -4.04722 3.75372 0
M  V30 5516 H 525.804 -3.87563 2.06619 0
M  V30 5517 H 526.41 -2.71703 3.27196 0
M  V30 5518 N 524.725 -1.39134 -0.740242 0
M  V30 5519 C 525.953 -1.39334 -1.5295 0
M  V30 5520 C 526.368 0.0135008 -1.88795 0
M  V30 5521 O 525.725 0.983524 -1.5373 0
M  V30 5522 C 525.776 -2.2614 -2.82034 0
M  V30 5523 O 525.497 -3.61345 -2.47712 0
M  V30 5524 C 526.998 -2.34666 -3.76094 0
M  V30 5525 H 524.218 -0.476103 -0.472828 0
M  V30 5526 H 526.762 -1.82883 -0.9151 0
M  V30 5527 H 524.917 -1.86018 -3.39818 0
M  V30 5528 H 525.331 -4.07194 -3.30595 0
M  V30 5529 H 526.805 -2.99663 -4.63579 0
M  V30 5530 H 527.282 -1.36426 -4.17474 0
M  V30 5531 H 527.888 -2.75236 -3.2423 0
M  V30 5532 N 526.204 0.969867 -1.24223 0
M  V30 5533 C 527.444 1.72754 -1.0925 0
M  V30 5534 C 527.808 1.88541 0.362787 0
M  V30 5535 O 529.009 2.61217 0.633969 0
M  V30 5536 C 527.28 3.08204 -1.80957 0
M  V30 5537 S 528.839 3.99418 -1.81688 0
M  V30 5538 H 525.657 0.593981 -0.390778 0
M  V30 5539 H 528.259 1.15792 -1.5752 0
M  V30 5540 H 526.963 2.94372 -2.85961 0
M  V30 5541 H 526.494 3.70232 -1.33012 0
M  V30 5542 H 528.509 4.8828 -0.883001 0
M  V30 5543 N 527.682 1.05563 1.17022 0
M  V30 5544 C 528.93 0.76642 1.87004 0
M  V30 5545 C 529.251 -0.708854 1.8166 0
M  V30 5546 O 528.521 -1.51242 1.2451 0
M  V30 5547 H 527.101 0.280516 0.692329 0
M  V30 5548 H 529.763 1.33557 1.41945 0
M  V30 5549 H 528.859 1.08472 2.92644 0
M  V30 5550 N 529.16 -1.33526 0.837174 0
M  V30 5551 C 530.39 -2.01754 0.444848 0
M  V30 5552 C 530.798 -1.63149 -0.958072 0
M  V30 5553 O 530.141 -0.839827 -1.63379 0
M  V30 5554 C 530.203 -3.56228 0.483917 0
M  V30 5555 C 529.867 -4.18205 1.84265 0
M  V30 5556 C 530.864 -4.37699 2.80563 0
M  V30 5557 C 528.549 -4.54667 2.13503 0
M  V30 5558 C 530.543 -4.928 4.04261 0
M  V30 5559 C 528.23 -5.09475 3.37458 0
M  V30 5560 C 529.228 -5.28488 4.32654 0
M  V30 5561 O 528.916 -5.82132 5.54417 0
M  V30 5562 H 528.648 -0.652928 0.175104 0
M  V30 5563 H 531.202 -1.71469 1.13082 0
M  V30 5564 H 529.432 -3.85833 -0.258826 0
M  V30 5565 H 531.121 -4.05752 0.109653 0
M  V30 5566 H 531.887 -4.0988 2.59274 0
M  V30 5567 H 527.766 -4.39164 1.40201 0
M  V30 5568 H 531.31 -5.07555 4.78574 0
M  V30 5569 H 527.207 -5.36725 3.58604 0
M  V30 5570 H 527.975 -6.00548 5.56133 0
M  V30 5571 N 530.638 -0.59345 -1.46 0
M  V30 5572 C 531.568 0.121192 -2.33185 0
M  V30 5573 C 532.549 0.872977 -1.4599 0
M  V30 5574 O 533.734 0.846321 -1.74789 0
M  V30 5575 C 530.864 1.12844 -3.28456 0
M  V30 5576 C 529.818 0.4908 -4.25177 0
M  V30 5577 C 529.144 1.60529 -5.10034 0
M  V30 5578 C 530.444 -0.578949 -5.19081 0
M  V30 5579 H 532.138 -0.606767 -2.93187 0
M  V30 5580 H 529.684 -0.293242 -1.40983 0
M  V30 5581 H 531.637 1.63684 -3.88311 0
M  V30 5582 H 530.361 1.88681 -2.66584 0
M  V30 5583 H 529.02 0.00339328 -3.666 0
M  V30 5584 H 528.668 2.35359 -4.44539 0
M  V30 5585 H 528.368 1.18422 -5.75543 0
M  V30 5586 H 529.892 2.11623 -5.72755 0
M  V30 5587 H 531.306 -0.155199 -5.7309 0
M  V30 5588 H 529.703 -0.920947 -5.92991 0
M  V30 5589 H 530.773 -1.46109 -4.62364 0
M  V30 5590 N 532.116 1.54067 -0.331816 0
M  V30 5591 C 533.527 1.86059 0.15454 0
M  V30 5592 C 533.878 1.25331 1.50952 0
M  V30 5593 O 533.003 0.562441 2.08963 0
M  V30 5594 C 533.598 3.37581 0.287192 0
M  V30 5595 C 532.157 3.69493 0.717773 0
M  V30 5596 C 531.304 2.76863 -0.155569 0
M  V30 5597 H 534.255 1.48797 -0.55182 0
M  V30 5598 H 534.276 3.63744 1.11671 0
M  V30 5599 H 533.788 3.81751 -0.699131 0
M  V30 5600 H 531.889 3.3086 1.71354 0
M  V30 5601 H 532.002 4.76315 0.5158 0
M  V30 5602 H 530.366 2.51995 0.370213 0
M  V30 5603 H 531.149 3.23861 -1.13881 0
M  V30 5604 N 533.594 0.0601682 1.57485 0
M  V30 5605 C 534.822 -0.620937 1.97363 0
M  V30 5606 C 535.237 -1.63846 0.938082 0
M  V30 5607 O 534.594 -1.82339 -0.0766578 0
M  V30 5608 C 534.645 -1.29987 3.37321 0
M  V30 5609 O 534.366 -0.323081 4.36907 0
M  V30 5610 C 535.867 -2.06989 3.92008 0
M  V30 5611 H 533.087 -0.169135 0.649334 0
M  V30 5612 H 535.631 0.129132 2.04092 0
M  V30 5613 H 533.786 -2.0011 3.31715 0
M  V30 5614 H 534.2 -0.808754 5.18227 0
M  V30 5615 H 535.674 -2.49901 4.92192 0
M  V30 5616 H 536.151 -2.92173 3.2792 0
M  V30 5617 H 536.757 -1.41757 4.0098 0
M  V30 5618 N 535.072 -1.5615 -0.213296 0
M  V30 5619 C 536.02 -1.93953 -1.28394 0
M  V30 5620 C 537.014 -0.822592 -1.48087 0
M  V30 5621 O 538.22 -1.00748 -1.49164 0
M  V30 5622 H 534.595 -0.61648 -0.430646 0
M  V30 5623 H 536.566 -2.83275 -0.937977 0
M  V30 5624 C 535.315 -2.27969 -2.62537 0
M  V30 5625 H 534.638 -3.13432 -2.48194 0
M  V30 5626 H 536.078 -2.58297 -3.36242 0
M  V30 5627 C 534.537 -1.10775 -3.18167 0
M  V30 5628 O 535.067 -0.373201 -3.99963 0
M  V30 5629 N 533.273 -0.889377 -2.76656 0
M  V30 5630 H 532.82 -1.48843 -2.10246 0
M  V30 5631 H 532.778 -0.107 -3.14218 0
M  V30 5632 N 536.55 0.480323 -1.50102 0
M  V30 5633 C 537.513 1.56181 -1.6775 0
M  V30 5634 C 538.513 1.51156 -0.548503 0
M  V30 5635 O 539.703 1.5394 -0.815363 0
M  V30 5636 C 536.835 2.95823 -1.69415 0
M  V30 5637 H 538.028 1.41855 -2.6423 0
M  V30 5638 H 535.581 0.70605 -1.39444 0
M  V30 5639 H 536.316 3.15604 -0.745948 0
M  V30 5640 H 536.101 3.00878 -2.51425 0
M  V30 5641 H 537.591 3.74359 -1.85054 0
M  V30 5642 N 538.028 1.39524 0.732853 0
M  V30 5643 C 539.274 1.37068 1.49467 0
M  V30 5644 C 539.607 -0.0327166 1.94172 0
M  V30 5645 O 538.882 -0.998071 1.66939 0
M  V30 5646 C 539.165 2.34494 2.73285 0
M  V30 5647 C 539.018 3.83784 2.34585 0
M  V30 5648 C 540.337 2.29717 3.75391 0
M  V30 5649 H 537.456 0.499206 0.542183 0
M  V30 5650 H 540.098 1.70532 0.837783 0
M  V30 5651 H 538.248 2.06087 3.29333 0
M  V30 5652 H 539.92 4.22949 1.84151 0
M  V30 5653 H 538.163 4.00455 1.66787 0
M  V30 5654 H 538.834 4.47444 3.23262 0
M  V30 5655 H 541.31 2.54839 3.28932 0
M  V30 5656 H 540.186 2.99962 4.59689 0
M  V30 5657 H 540.447 1.30291 4.22465 0
M  V30 5658 N 539.506 -0.963266 1.24736 0
M  V30 5659 C 540.752 -1.70933 1.09131 0
M  V30 5660 C 541.085 -1.90676 -0.368273 0
M  V30 5661 O 540.36 -1.47147 -1.27193 0
M  V30 5662 C 540.643 -3.09744 1.83658 0
M  V30 5663 C 540.496 -2.97465 3.37394 0
M  V30 5664 C 541.815 -4.09483 1.61282 0
M  V30 5665 H 538.934 -0.620398 0.397838 0
M  V30 5666 H 541.576 -1.12028 1.53459 0
M  V30 5667 H 539.726 -3.60031 1.4598 0
M  V30 5668 H 541.398 -2.54571 3.84696 0
M  V30 5669 H 539.641 -2.33576 3.65547 0
M  V30 5670 H 540.312 -3.95822 3.84745 0
M  V30 5671 H 542.788 -3.68073 1.94066 0
M  V30 5672 H 541.664 -5.04666 2.15878 0
M  V30 5673 H 541.925 -4.38639 0.552102 0
M  V30 5674 N 540.985 -1.06182 -1.16461 0
M  V30 5675 C 541.932 -0.671613 -2.20812 0
M  V30 5676 C 542.902 0.331186 -1.62765 0
M  V30 5677 O 544.087 0.22033 -1.89524 0
M  V30 5678 C 541.227 -0.063029 -3.45042 0
M  V30 5679 C 540.34 -1.11587 -4.1734 0
M  V30 5680 C 539.475 -0.473546 -5.29085 0
M  V30 5681 C 538.514 -1.51 -5.93182 0
M  V30 5682 N 537.651 -0.891118 -6.96422 0
M  V30 5683 H 542.491 -1.56589 -2.53542 0
M  V30 5684 H 540.028 -0.782951 -1.24532 0
M  V30 5685 H 541.986 0.307344 -4.16066 0
M  V30 5686 H 540.616 0.794663 -3.12866 0
M  V30 5687 H 539.668 -1.60396 -3.44931 0
M  V30 5688 H 540.98 -1.90221 -4.61104 0
M  V30 5689 H 540.134 -0.0501432 -6.06679 0
M  V30 5690 H 538.873 0.344687 -4.8648 0
M  V30 5691 H 537.878 -1.94331 -5.14311 0
M  V30 5692 H 539.103 -2.33031 -6.37866 0
M  V30 5693 H 537.049 -0.0935753 -6.55933 0
M  V30 5694 H 536.966 -1.61486 -7.38551 0
M  V30 5695 H 538.234 -0.492822 -7.77941 0
M  V30 5696 N 542.463 1.3308 -0.844243 0
M  V30 5697 C 543.396 2.27075 -0.226279 0
M  V30 5698 C 544.374 1.49911 0.629716 0
M  V30 5699 O 545.558 1.79068 0.588803 0
M  V30 5700 C 542.685 3.31767 0.681782 0
M  V30 5701 C 541.731 4.26384 -0.0994565 0
M  V30 5702 S 542.564 5.15186 -1.46094 0
M  V30 5703 C 543.72 6.23405 -0.558319 0
M  V30 5704 H 543.953 2.79141 -1.02312 0
M  V30 5705 H 541.486 1.40452 -0.641292 0
M  V30 5706 H 543.444 3.92566 1.20008 0
M  V30 5707 H 542.105 2.78507 1.45234 0
M  V30 5708 H 541.298 5.00514 0.591733 0
M  V30 5709 H 540.9 3.69949 -0.548991 0
M  V30 5710 H 543.192 6.77069 0.241672 0
M  V30 5711 H 544.135 6.96619 -1.26995 0
M  V30 5712 H 544.543 5.64333 -0.13728 0
M  V30 5713 N 543.941 0.601185 1.45683 0
M  V30 5714 C 545.352 0.179659 1.85834 0
M  V30 5715 C 545.703 -1.26189 1.50236 0
M  V30 5716 O 544.828 -1.95587 0.925987 0
M  V30 5717 C 545.423 0.319277 3.37292 0
M  V30 5718 C 543.982 -0.0475092 3.7637 0
M  V30 5719 C 543.129 0.646692 2.69654 0
M  V30 5720 H 546.08 0.808268 1.36575 0
M  V30 5721 H 546.101 -0.4503 3.77826 0
M  V30 5722 H 545.613 1.36855 3.6317 0
M  V30 5723 H 543.714 -1.0962 3.5611 0
M  V30 5724 H 543.827 0.34168 4.7788 0
M  V30 5725 H 542.191 0.0849971 2.54558 0
M  V30 5726 H 542.974 1.69797 2.98369 0
M  V30 5727 N 545.419 -1.53889 0.339982 0
M  V30 5728 C 546.659 -2.02765 -0.258011 0
M  V30 5729 C 547.023 -1.22249 -1.48051 0
M  V30 5730 O 548.224 -1.61007 -2.15245 0
M  V30 5731 C 546.495 -3.5286 -0.567872 0
M  V30 5732 S 548.054 -4.23647 -1.14318 0
M  V30 5733 H 544.872 -0.706814 -0.0770389 0
M  V30 5734 H 547.474 -1.89594 0.476917 0
M  V30 5735 H 546.178 -4.09073 0.329745 0
M  V30 5736 H 545.709 -3.70144 -1.33256 0
M  V30 5737 H 547.724 -4.32676 -2.42911 0
M  V30 5738 N 546.897 -0.0685191 -1.57451 0
M  V30 5739 C 548.308 0.464634 -1.80826 0
M  V30 5740 C 548.659 1.69847 -0.982169 0
M  V30 5741 O 547.784 2.15439 -0.203734 0
M  V30 5742 C 548.379 0.849721 -3.27971 0
M  V30 5743 C 546.938 1.32776 -3.52204 0
M  V30 5744 C 546.085 0.311332 -2.75547 0
M  V30 5745 H 549.036 -0.294248 -1.55948 0
M  V30 5746 H 549.057 1.71138 -3.39841 0
M  V30 5747 H 548.569 -0.0484736 -3.8807 0
M  V30 5748 H 546.67 2.24456 -2.97406 0
M  V30 5749 H 546.783 1.30794 -4.60901 0
M  V30 5750 H 545.147 0.787915 -2.42206 0
M  V30 5751 H 545.93 -0.579078 -3.38381 0
M  V30 5752 N 548.375 1.56261 0.205012 0
M  V30 5753 C 549.338 1.92908 1.23771 0
M  V30 5754 C 550.338 0.809208 1.38955 0
M  V30 5755 O 551.528 1.07676 1.36936 0
M  V30 5756 C 548.66 2.19442 2.60879 0
M  V30 5757 H 549.853 2.85287 0.924728 0
M  V30 5758 H 547.406 1.49798 0.446125 0
M  V30 5759 H 548.141 1.29668 2.97248 0
M  V30 5760 H 547.926 3.0104 2.51232 0
M  V30 5761 H 549.416 2.48833 3.35368 0
M  V30 5762 N 549.853 -0.472356 1.50355 0
M  V30 5763 C 551.093 -1.23439 1.62918 0
M  V30 5764 C 551.457 -1.89284 0.321801 0
M  V30 5765 O 552.658 -2.66854 0.322852 0
M  V30 5766 C 550.929 -2.25119 2.7759 0
M  V30 5767 S 552.488 -3.10278 3.10279 0
M  V30 5768 H 549.306 -0.41911 0.574341 0
M  V30 5769 H 551.908 -0.531621 1.88133 0
M  V30 5770 H 550.612 -1.75324 3.71066 0
M  V30 5771 H 550.143 -3.00026 2.54457 0
M  V30 5772 H 552.158 -4.26257 2.54007 0
M  V30 5773 N 551.331 -1.39911 -0.725443 0
M  V30 5774 C 552.263 -1.35301 -1.85003 0
M  V30 5775 C 553.276 -0.260102 -1.60709 0
M  V30 5776 O 554.465 -0.519749 -1.70766 0
M  V30 5777 C 551.565 -1.08039 -3.21218 0
M  V30 5778 C 550.738 -2.28793 -3.7279 0
M  V30 5779 C 549.797 -1.97841 -4.87591 0
M  V30 5780 O 548.823 -2.70616 -5.00755 0
M  V30 5781 N 550.025 -0.950367 -5.72668 0
M  V30 5782 H 552.79 -2.32218 -1.89459 0
M  V30 5783 H 550.351 -1.34137 -0.90658 0
M  V30 5784 H 552.343 -0.853354 -3.95601 0
M  V30 5785 H 550.913 -0.198229 -3.11971 0
M  V30 5786 H 550.133 -2.67388 -2.8965 0
M  V30 5787 H 551.421 -3.09317 -4.03981 0
M  V30 5788 H 550.819 -0.347436 -5.64632 0
M  V30 5789 H 549.376 -0.783232 -6.47077 0
M  V30 5790 N 552.809 0.956637 -1.25245 0
M  V30 5791 C 554.086 1.67716 -1.00651 0
M  V30 5792 C 554.466 2.0585 0.467866 0
M  V30 5793 O 553.814 1.77029 1.44475 0
M  V30 5794 C 554.024 2.90093 -1.94028 0
M  V30 5795 C 555.372 3.6209 -2.21756 0
M  V30 5796 O 556.396 3.00171 -1.9177 0
M  V30 5797 O 555.255 4.7358 -2.72735 0
M  V30 5798 H 552.349 0.733731 -0.381533 0
M  V30 5799 H 554.895 1.00974 -1.3639 0
M  V30 5800 H 553.667 2.58689 -2.93591 0
M  V30 5801 H 553.29 3.64566 -1.58674 0
M  V30 5802 N 554.287 1.06798 1.15896 0
M  V30 5803 C 555.698 0.811355 1.68149 0
M  V30 5804 C 556.049 -0.664339 1.8461 0
M  V30 5805 O 555.174 -1.51485 1.54535 0
M  V30 5806 C 555.769 1.46624 3.05429 0
M  V30 5807 C 554.328 1.25726 3.54781 0
M  V30 5808 C 553.475 1.53949 2.3064 0
M  V30 5809 H 556.426 1.23078 1.00187 0
M  V30 5810 H 556.447 0.88437 3.7008 0
M  V30 5811 H 555.959 2.54025 2.93416 0
M  V30 5812 H 554.06 0.20322 3.72045 0
M  V30 5813 H 554.173 1.97354 4.36564 0
M  V30 5814 H 552.537 0.96025 2.35905 0
M  V30 5815 H 553.32 2.6252 2.2122 0
M  V30 5816 N 555.766 -1.3263 0.851289 0
M  V30 5817 C 556.676 -2.32722 0.296268 0
M  V30 5818 C 557.692 -1.63901 -0.584162 0
M  V30 5819 O 558.868 -1.95465 -0.485334 0
M  V30 5820 C 555.933 -3.42942 -0.509103 0
M  V30 5821 C 554.994 -4.2746 0.397069 0
M  V30 5822 C 554.227 -5.32416 -0.36996 0
M  V30 5823 O 554.45 -5.47491 -1.6003 0
M  V30 5824 O 553.384 -6.01327 0.262493 0
M  V30 5825 H 557.21 -2.82078 1.12543 0
M  V30 5826 H 554.795 -1.36194 0.614135 0
M  V30 5827 H 556.677 -4.1017 -0.96634 0
M  V30 5828 H 555.352 -2.95781 -1.31512 0
M  V30 5829 H 554.259 -3.63053 0.902411 0
M  V30 5830 H 555.592 -4.78136 1.16818 0
M  V30 5831 N 557.244 -0.608902 -1.45362 0
M  V30 5832 C 558.493 -0.10218 -2.01441 0
M  V30 5833 C 558.806 1.27546 -1.48295 0
M  V30 5834 O 560.012 1.87498 -1.96359 0
M  V30 5835 C 558.468 -0.131985 -3.59658 0
M  V30 5836 C 558.076 -1.50956 -4.21801 0
M  V30 5837 C 559.82 0.319427 -4.23296 0
M  V30 5838 C 557.727 -1.49568 -5.72174 0
M  V30 5839 H 556.657 -0.0344314 -0.753213 0
M  V30 5840 H 559.308 -0.764426 -1.6682 0
M  V30 5841 H 557.69 0.596939 -3.91475 0
M  V30 5842 H 558.864 -2.26029 -4.01556 0
M  V30 5843 H 557.179 -1.90318 -3.70362 0
M  V30 5844 H 559.776 0.349013 -5.3356 0
M  V30 5845 H 560.119 1.34237 -3.94064 0
M  V30 5846 H 560.652 -0.356273 -3.96201 0
M  V30 5847 H 557.391 -2.49626 -6.06108 0
M  V30 5848 H 556.911 -0.787542 -5.94607 0
M  V30 5849 H 558.59 -1.21989 -6.35396 0
M  V30 5850 N 558.722 1.53707 -0.348139 0
M  V30 5851 C 559.97 2.00591 0.246478 0
M  V30 5852 C 560.291 1.23753 1.50699 0
M  V30 5853 O 559.561 0.345964 1.92821 0
M  V30 5854 H 558.141 0.741053 0.0940679 0
M  V30 5855 H 560.803 1.89139 -0.470354 0
M  V30 5856 H 559.899 3.08297 0.485714 0
M  V30 5857 N 560.2 0.0768682 1.57412 0
M  V30 5858 C 561.611 -0.455037 1.8107 0
M  V30 5859 C 561.962 -1.69323 0.991162 0
M  V30 5860 O 561.087 -2.15328 0.215156 0
M  V30 5861 C 561.682 -0.832316 3.28417 0
M  V30 5862 C 560.241 -1.30906 3.52903 0
M  V30 5863 C 559.388 -0.296714 2.75708 0
M  V30 5864 H 562.339 0.302514 1.5579 0
M  V30 5865 H 562.36 -1.69333 3.40744 0
M  V30 5866 H 561.872 0.0690532 3.88039 0
M  V30 5867 H 559.973 -2.22875 2.98592 0
M  V30 5868 H 560.086 -1.28348 4.61588 0
M  V30 5869 H 558.45 -0.775059 2.42621 0
M  V30 5870 H 559.233 0.597015 3.38069 0
M  V30 5871 N 561.678 -1.56367 -0.196722 0
M  V30 5872 C 562.588 -1.97617 -1.2643 0
M  V30 5873 C 563.604 -0.883598 -1.49895 0
M  V30 5874 O 564.78 -1.18921 -1.62541 0
M  V30 5875 C 561.845 -2.30595 -2.58895 0
M  V30 5876 C 560.906 -3.53551 -2.43516 0
M  V30 5877 C 560.139 -3.84946 -3.69665 0
M  V30 5878 O 560.362 -3.17655 -4.73763 0
M  V30 5879 O 559.296 -4.78379 -3.65291 0
M  V30 5880 H 563.122 -2.88648 -0.944233 0
M  V30 5881 H 560.707 -1.43901 -0.401592 0
M  V30 5882 H 562.589 -2.52889 -3.37083 0
M  V30 5883 H 561.264 -1.42732 -2.90533 0
M  V30 5884 H 560.171 -3.36507 -1.63445 0
M  V30 5885 H 561.504 -4.41875 -2.16812 0
M  V30 5886 N 563.156 0.464375 -1.50603 0
M  V30 5887 C 564.106 1.55929 -1.66343 0
M  V30 5888 C 565.09 1.52338 -0.517887 0
M  V30 5889 O 566.282 1.59248 -0.772601 0
M  V30 5890 C 563.411 2.94327 -1.7671 0
M  V30 5891 C 562.497 3.02777 -2.96962 0
M  V30 5892 N 562.888 2.81026 -4.20545 0
M  V30 5893 C 561.186 3.33919 -2.95659 0
M  V30 5894 C 561.887 2.94618 -5.01573 0
M  V30 5895 N 560.863 3.25112 -4.35664 0
M  V30 5896 H 564.665 1.37822 -2.59581 0
M  V30 5897 H 562.179 0.671227 -1.47879 0
M  V30 5898 H 564.176 3.73063 -1.86091 0
M  V30 5899 H 562.836 3.13476 -0.846353 0
M  V30 5900 H 563.847 2.56477 -4.49933 0
M  V30 5901 H 560.524 3.59013 -2.13111 0
M  V30 5902 H 561.914 2.81984 -6.09865 0
M  V30 5903 N 564.634 1.40294 0.718013 0
M  V30 5904 C 565.859 1.41941 1.5122 0
M  V30 5905 C 566.284 0.0202371 1.88089 0
M  V30 5906 O 565.642 -0.971078 1.53101 0
M  V30 5907 C 565.69 2.3141 2.76554 0
M  V30 5908 O 564.794 1.75567 3.73162 0
M  V30 5909 H 564.135 0.482644 0.456016 0
M  V30 5910 H 566.665 1.84494 0.884478 0
M  V30 5911 H 566.675 2.46513 3.25108 0
M  V30 5912 H 565.35 3.33085 2.49053 0
M  V30 5913 H 563.927 1.69798 3.31999 0
M  V30 5914 N 566.112 -0.949982 1.2575 0
M  V30 5915 C 567.358 -1.69766 1.10938 0
M  V30 5916 C 567.691 -1.91056 -0.348028 0
M  V30 5917 O 566.966 -1.48488 -1.25625 0
M  V30 5918 C 567.249 -3.07779 1.86933 0
M  V30 5919 C 567.102 -2.9387 3.4053 0
M  V30 5920 C 568.421 -4.07749 1.65616 0
M  V30 5921 H 565.54 -0.616144 0.404396 0
M  V30 5922 H 568.182 -1.10394 1.54639 0
M  V30 5923 H 566.332 -3.58462 1.4979 0
M  V30 5924 H 568.004 -2.50476 3.87375 0
M  V30 5925 H 566.247 -2.29686 3.68004 0
M  V30 5926 H 566.918 -3.91719 3.88922 0
M  V30 5927 H 569.394 -3.65994 1.97959 0
M  V30 5928 H 568.27 -5.02348 2.21218 0
M  V30 5929 H 568.531 -4.38029 0.598595 0
M  V30 5930 N 567.59 -1.07411 -1.15328 0
M  V30 5931 C 568.553 -0.698914 -2.18284 0
M  V30 5932 C 569.553 0.261149 -1.58665 0
M  V30 5933 O 570.743 0.0420277 -1.74149 0
M  V30 5934 C 567.875 -0.0302427 -3.40887 0
M  V30 5935 H 569.068 -1.61045 -2.52991 0
M  V30 5936 H 566.621 -0.870724 -1.298 0
M  V30 5937 H 567.356 0.893505 -3.11748 0
M  V30 5938 H 567.141 -0.720759 -3.85419 0
M  V30 5939 H 568.631 0.21759 -4.17033 0
M  V30 5940 N 569.068 1.32177 -0.85831 0
M  V30 5941 C 570.345 1.91781 -0.384624 0
M  V30 5942 C 570.725 1.78171 1.13217 0
M  V30 5943 O 570.073 1.18209 1.95548 0
M  V30 5944 C 570.283 3.38414 -0.853047 0
M  V30 5945 C 571.631 4.15542 -0.872359 0
M  V30 5946 O 572.655 3.47148 -0.797926 0
M  V30 5947 O 571.514 5.37678 -0.978009 0
M  V30 5948 H 568.608 0.819259 -0.112886 0
M  V30 5949 H 571.154 1.40923 -0.945453 0
M  V30 5950 H 569.926 3.4228 -1.89632 0
M  V30 5951 H 569.549 3.96683 -0.269874 0
M  V30 5952 N 570.547 0.616602 1.45037 0
M  V30 5953 C 571.777 0.121791 2.06241 0
M  V30 5954 C 572.185 -1.20289 1.46038 0
M  V30 5955 O 571.528 -1.7456 0.572242 0
M  V30 5956 C 571.59 -0.0827345 3.59405 0
M  V30 5957 C 571.254 1.16153 4.41993 0
M  V30 5958 C 572.251 2.08183 4.76399 0
M  V30 5959 C 569.936 1.39288 4.82601 0
M  V30 5960 C 571.93 3.21668 5.5028 0
M  V30 5961 C 569.617 2.53073 5.56235 0
M  V30 5962 C 570.615 3.44091 5.89992 0
M  V30 5963 O 570.303 4.55894 6.6213 0
M  V30 5964 H 570.035 0.0701667 0.672349 0
M  V30 5965 H 572.589 0.846877 1.87129 0
M  V30 5966 H 570.819 -0.862812 3.76952 0
M  V30 5967 H 572.508 -0.530273 4.02421 0
M  V30 5968 H 573.274 1.91538 4.45576 0
M  V30 5969 H 569.153 0.693396 4.55755 0
M  V30 5970 H 572.697 3.92733 5.76547 0
M  V30 5971 H 568.594 2.69667 5.86472 0
M  V30 5972 H 569.362 4.5469 6.80587 0
M  V30 5973 N 572.025 -1.5352 0.356285 0
M  V30 5974 C 572.975 -2.22204 -0.510815 0
M  V30 5975 C 573.959 -1.21393 -1.05605 0
M  V30 5976 O 575.151 -1.46883 -0.987639 0
M  V30 5977 C 572.28 -3.00786 -1.65478 0
M  V30 5978 C 571.366 -4.08965 -1.12287 0
M  V30 5979 N 571.757 -5.04829 -0.313191 0
M  V30 5980 C 570.055 -4.23505 -1.39856 0
M  V30 5981 C 570.756 -5.81695 -0.0230322 0
M  V30 5982 N 569.732 -5.40074 -0.618144 0
M  V30 5983 H 573.534 -2.93676 0.114711 0
M  V30 5984 H 571.048 -1.61572 0.163811 0
M  V30 5985 H 573.045 -3.48502 -2.28806 0
M  V30 5986 H 571.705 -2.30843 -2.28345 0
M  V30 5987 H 572.716 -5.17879 0.0468202 0
M  V30 5988 H 569.393 -3.64786 -2.0307 0
M  V30 5989 H 570.783 -6.68931 0.630927 0
M  V30 5990 N 573.503 -0.0852151 -1.57369 0
M  V30 5991 C 574.451 0.894856 -2.14698 0
M  V30 5992 C 575.445 1.29903 -1.08727 0
M  V30 5993 O 576.651 1.27471 -1.27088 0
M  V30 5994 H 573.026 0.306569 -0.686673 0
M  V30 5995 H 574.997 0.386542 -2.95886 0
M  V30 5996 C 573.746 2.14798 -2.73417 0
M  V30 5997 H 573.069 1.84585 -3.54638 0
M  V30 5998 H 574.509 2.81456 -3.1711 0
M  V30 5999 C 572.968 2.91546 -1.68828 0
M  V30 6000 O 573.498 3.85733 -1.12129 0
M  V30 6001 N 571.704 2.54901 -1.39549 0
M  V30 6002 H 571.251 1.7838 -1.85845 0
M  V30 6003 H 571.209 3.06553 -0.698054 0
M  V30 6004 N 574.981 1.5647 0.188427 0
M  V30 6005 C 575.931 1.91479 1.23774 0
M  V30 6006 C 576.915 0.78119 1.40664 0
M  V30 6007 O 578.107 1.04414 1.42922 0
M  V30 6008 C 575.236 2.26354 2.58106 0
M  V30 6009 C 574.322 3.46186 2.44981 0
M  V30 6010 N 574.713 4.63911 2.01546 0
M  V30 6011 C 573.011 3.50456 2.75856 0
M  V30 6012 C 573.712 5.46064 2.00472 0
M  V30 6013 N 572.688 4.86648 2.42229 0
M  V30 6014 H 576.49 2.79994 0.893339 0
M  V30 6015 H 574.004 1.57477 0.39682 0
M  V30 6016 H 576.001 2.49622 3.33908 0
M  V30 6017 H 574.661 1.39168 2.93364 0
M  V30 6018 H 575.672 4.88451 1.7215 0
M  V30 6019 H 572.349 2.73704 3.15265 0
M  V30 6020 H 573.739 6.50368 1.68734 0
M  V30 6021 N 576.459 -0.456382 1.50847 0
M  V30 6022 C 577.684 -1.2349 1.66628 0
M  V30 6023 C 578.109 -1.84715 0.355254 0
M  V30 6024 O 577.467 -1.67961 -0.682559 0
M  V30 6025 C 577.515 -2.30865 2.77009 0
M  V30 6026 O 576.619 -3.35882 2.39285 0
M  V30 6027 H 575.96 -0.36266 0.556214 0
M  V30 6028 H 578.49 -0.541374 1.97308 0
M  V30 6029 H 578.5 -2.75949 3.00526 0
M  V30 6030 H 577.175 -1.85677 3.72152 0
M  V30 6031 H 575.752 -2.96406 2.26269 0
M  V30 6032 N 577.937 -1.40673 -0.710563 0
M  V30 6033 C 578.885 -1.41517 -1.84596 0
M  V30 6034 C 579.879 -0.295043 -1.66811 0
M  V30 6035 O 581.085 -0.466331 -1.73854 0
M  V30 6036 H 577.46 -0.442467 -0.608052 0
M  V30 6037 H 579.431 -2.37238 -1.80999 0
M  V30 6038 C 578.18 -1.29957 -3.225 0
M  V30 6039 H 577.503 -2.15429 -3.36794 0
M  V30 6040 H 578.943 -1.34608 -4.02066 0
M  V30 6041 C 577.402 -0.0103164 -3.36898 0
M  V30 6042 O 577.932 0.950707 -3.90288 0
M  V30 6043 N 576.138 0.0608409 -2.90536 0
M  V30 6044 H 575.685 -0.721943 -2.47277 0
M  V30 6045 H 575.643 0.92292 -3.00549 0
M  V30 6046 N 579.415 0.9433 -1.26252 0
M  V30 6047 C 580.664 1.68369 -1.11062 0
M  V30 6048 C 580.977 1.92514 0.346104 0
M  V30 6049 O 582.183 2.64358 0.618646 0
M  V30 6050 C 580.639 3.03171 -1.93946 0
M  V30 6051 C 580.247 2.86782 -3.4418 0
M  V30 6052 C 581.991 3.80916 -1.87359 0
M  V30 6053 C 579.898 4.17044 -4.19319 0
M  V30 6054 H 578.828 0.631469 -0.412023 0
M  V30 6055 H 581.479 1.04922 -1.50544 0
M  V30 6056 H 579.861 3.67587 -1.47296 0
M  V30 6057 H 581.035 2.31229 -3.98585 0
M  V30 6058 H 579.35 2.22482 -3.51981 0
M  V30 6059 H 581.947 4.77417 -2.40784 0
M  V30 6060 H 582.29 4.07658 -0.843857 0
M  V30 6061 H 582.823 3.2327 -2.31821 0
M  V30 6062 H 579.562 3.95487 -5.22753 0
M  V30 6063 H 579.082 4.72319 -3.69696 0
M  V30 6064 H 580.761 4.85513 -4.27651 0
M  V30 6065 N 580.893 1.08022 1.14757 0
M  V30 6066 C 581.803 0.718292 2.23333 0
M  V30 6067 C 582.819 -0.273477 1.71837 0
M  V30 6068 O 583.995 -0.118406 2.01052 0
M  V30 6069 C 581.06 0.128855 3.4646 0
M  V30 6070 C 580.121 1.17473 4.12915 0
M  V30 6071 C 579.354 0.61333 5.30164 0
M  V30 6072 O 579.577 -0.568458 5.6756 0
M  V30 6073 O 578.511 1.3615 5.86299 0
M  V30 6074 H 582.337 1.62394 2.56636 0
M  V30 6075 H 579.922 0.853628 1.22611 0
M  V30 6076 H 581.804 -0.197249 4.20938 0
M  V30 6077 H 580.479 -0.750014 3.14891 0
M  V30 6078 H 579.386 1.5533 3.40328 0
M  V30 6079 H 580.719 2.02574 4.48581 0
M  V30 6080 N 582.371 -1.3172 0.865308 0
M  V30 6081 C 583.599 -2.01057 0.488251 0
M  V30 6082 C 584.014 -1.64979 -0.918 0
M  V30 6083 O 583.371 -0.876597 -1.60069 0
M  V30 6084 C 583.422 -3.55964 0.630224 0
M  V30 6085 O 583.143 -3.90749 1.98109 0
M  V30 6086 C 584.644 -4.42574 0.253567 0
M  V30 6087 H 581.864 -0.64332 0.190736 0
M  V30 6088 H 584.408 -1.68058 1.16519 0
M  V30 6089 H 582.563 -3.874 0.000895422 0
M  V30 6090 H 582.977 -4.85467 1.9855 0
M  V30 6091 H 584.451 -5.50521 0.403875 0
M  V30 6092 H 584.928 -4.31724 -0.806895 0
M  V30 6093 H 585.534 -4.16547 0.858404 0
M  V30 6094 N 583.85 -0.624285 -1.44708 0
M  V30 6095 C 585.266 -0.289322 -1.56956 0
M  V30 6096 C 585.466 1.20773 -1.61295 0
M  V30 6097 O 584.522 1.9915 -1.55227 0
M  V30 6098 C 585.835 -0.975215 -2.84447 0
M  V30 6099 C 587.383 -0.952709 -2.98148 0
M  V30 6100 C 587.858 -1.61893 -4.28433 0
M  V30 6101 N 589.349 -1.5852 -4.35231 0
M  V30 6102 C 590.084 -2.06969 -5.34744 0
M  V30 6103 N 589.58 -2.63579 -6.40701 0
M  V30 6104 N 591.373 -1.97638 -5.26209 0
M  V30 6105 H 583.524 -1.59612 -1.40135 0
M  V30 6106 H 585.787 -0.669592 -0.671081 0
M  V30 6107 H 585.493 -2.02999 -2.87201 0
M  V30 6108 H 585.367 -0.508749 -3.73753 0
M  V30 6109 H 587.754 0.093568 -2.94952 0
M  V30 6110 H 587.835 -1.4576 -2.10209 0
M  V30 6111 H 587.479 -2.66463 -4.32389 0
M  V30 6112 H 587.409 -1.08893 -5.15218 0
M  V30 6113 H 589.899 -1.17183 -3.59272 0
M  V30 6114 H 590.213 -2.98298 -7.12908 0
M  V30 6115 H 588.558 -2.67626 -6.41406 0
M  V30 6116 H 591.749 -1.5314 -4.42341 0
M  V30 6117 H 591.922 -2.35708 -6.03611 0
M  V30 6118 N 585.328 1.53329 -0.364422 0
M  V30 6119 C 586.258 2.28627 0.474543 0
M  V30 6120 C 587.239 1.31009 1.08492 0
M  V30 6121 O 588.424 1.59878 1.10239 0
M  V30 6122 C 585.554 3.07465 1.61501 0
M  V30 6123 C 584.508 4.1276 1.13194 0
M  V30 6124 C 583.834 4.79674 2.36255 0
M  V30 6125 C 585.134 5.21847 0.217507 0
M  V30 6126 H 586.828 2.99005 -0.153656 0
M  V30 6127 H 584.374 1.43803 -0.0753406 0
M  V30 6128 H 586.327 3.58889 2.20855 0
M  V30 6129 H 585.051 2.34775 2.27042 0
M  V30 6130 H 583.71 3.62281 0.56109 0
M  V30 6131 H 583.358 4.03557 3.00251 0
M  V30 6132 H 583.058 5.50827 2.04606 0
M  V30 6133 H 584.582 5.33892 2.96297 0
M  V30 6134 H 585.996 5.6878 0.718493 0
M  V30 6135 H 584.393 6.00099 -0.00806408 0
M  V30 6136 H 585.463 4.7921 -0.740653 0
M  V30 6137 N 586.806 0.0935595 1.57322 0
M  V30 6138 C 588.222 -0.263091 1.57417 0
M  V30 6139 C 588.422 -1.68526 1.1046 0
M  V30 6140 O 587.478 -2.40139 0.780357 0
M  V30 6141 C 588.791 -0.0529201 3.00653 0
M  V30 6142 C 590.339 -0.120788 3.12767 0
M  V30 6143 C 590.814 0.0613707 4.57959 0
M  V30 6144 N 592.305 0.00648534 4.632 0
M  V30 6145 C 593.04 0.122699 5.73269 0
M  V30 6146 N 592.536 0.29366 6.92177 0
M  V30 6147 N 594.329 0.0640787 5.62063 0
M  V30 6148 H 586.48 1.02277 1.86154 0
M  V30 6149 H 588.743 0.4007 0.859153 0
M  V30 6150 H 588.449 0.929279 3.39201 0
M  V30 6151 H 588.323 -0.795899 3.68708 0
M  V30 6152 H 590.71 -1.09349 2.74093 0
M  V30 6153 H 590.791 0.653656 2.47307 0
M  V30 6154 H 590.435 1.03093 4.97327 0
M  V30 6155 H 590.365 -0.732748 5.21477 0
M  V30 6156 H 592.856 -0.123173 3.77699 0
M  V30 6157 H 593.169 0.37389 7.71895 0
M  V30 6158 H 591.514 0.329307 6.94219 0
M  V30 6159 H 594.705 -0.0683396 4.6805 0
M  V30 6160 H 594.878 0.158097 6.47807 0
M  V30 6161 N 588.284 -1.56567 -0.180126 0
M  V30 6162 C 589.231 -1.95725 -1.22313 0
M  V30 6163 C 590.201 -0.819911 -1.44453 0
M  V30 6164 O 591.386 -1.07931 -1.57339 0
M  V30 6165 C 588.526 -2.31484 -2.55947 0
M  V30 6166 C 587.639 -3.58354 -2.4126 0
M  V30 6167 C 586.774 -3.83366 -3.67701 0
M  V30 6168 C 585.813 -5.03612 -3.47909 0
M  V30 6169 N 584.95 -5.24802 -4.66398 0
M  V30 6170 H 589.79 -2.84642 -0.882198 0
M  V30 6171 H 587.327 -1.4085 -0.42422 0
M  V30 6172 H 589.285 -2.50237 -3.33822 0
M  V30 6173 H 587.915 -1.45689 -2.88053 0
M  V30 6174 H 586.967 -3.47565 -1.54606 0
M  V30 6175 H 588.279 -4.46386 -2.22577 0
M  V30 6176 H 587.433 -4.02439 -4.54013 0
M  V30 6177 H 586.172 -2.93692 -3.89353 0
M  V30 6178 H 585.177 -4.84447 -2.59983 0
M  V30 6179 H 586.402 -5.94809 -3.27688 0
M  V30 6180 H 584.348 -4.38079 -4.88286 0
M  V30 6181 H 584.265 -6.07041 -4.50596 0
M  V30 6182 H 585.533 -5.48346 -5.54019 0
M  V30 6183 N 589.762 0.448376 -1.51087 0
M  V30 6184 C 591.01 1.19635 -1.62886 0
M  V30 6185 C 591.331 1.91977 -0.342024 0
M  V30 6186 O 590.601 1.85094 0.641636 0
M  V30 6187 H 589.181 0.444598 -0.600285 0
M  V30 6188 H 591.843 0.515138 -1.87969 0
M  V30 6189 H 590.939 1.93194 -2.45117 0
M  V30 6190 N 591.24 1.41047 0.703093 0
M  V30 6191 C 592.488 1.39723 1.4602 0
M  V30 6192 C 592.809 0.00461257 1.94999 0
M  V30 6193 O 592.079 -0.952292 1.71196 0
M  V30 6194 H 590.659 0.514281 0.541779 0
M  V30 6195 H 593.321 1.76217 0.832678 0
M  V30 6196 H 592.417 2.07982 2.32701 0
M  V30 6197 N 592.718 -0.936591 1.26751 0
M  V30 6198 C 594.134 -1.21095 1.03963 0
M  V30 6199 C 594.334 -2.00156 -0.232372 0
M  V30 6200 O 593.39 -2.3434 -0.940274 0
M  V30 6201 C 594.703 -1.96775 2.27377 0
M  V30 6202 C 596.251 -2.09749 2.32324 0
M  V30 6203 C 596.726 -2.88832 3.55443 0
M  V30 6204 N 598.217 -2.96404 3.55948 0
M  V30 6205 C 598.952 -3.58036 4.47881 0
M  V30 6206 N 598.448 -4.21132 5.50109 0
M  V30 6207 N 600.241 -3.55353 4.35523 0
M  V30 6208 H 592.392 -0.408173 2.08441 0
M  V30 6209 H 594.655 -0.243139 0.91629 0
M  V30 6210 H 594.361 -1.46094 3.19921 0
M  V30 6211 H 594.235 -2.97424 2.31989 0
M  V30 6212 H 596.622 -2.5962 1.40291 0
M  V30 6213 H 596.703 -1.08347 2.31721 0
M  V30 6214 H 596.347 -2.39647 4.47808 0
M  V30 6215 H 596.277 -3.90499 3.53296 0
M  V30 6216 H 598.768 -2.51552 2.82011 0
M  V30 6217 H 599.081 -4.66071 6.16439 0
M  V30 6218 H 597.426 -4.19705 5.53961 0
M  V30 6219 H 600.617 -3.05256 3.54875 0
M  V30 6220 H 600.79 -4.03097 5.07363 0
M  V30 6221 N 594.196 -1.08629 -1.14182 0
M  V30 6222 C 595.424 -0.838889 -1.8913 0
M  V30 6223 C 595.839 0.609153 -1.78703 0
M  V30 6224 O 595.196 1.41876 -1.14794 0
M  V30 6225 C 595.247 -1.25477 -3.39025 0
M  V30 6226 O 594.968 -2.64601 -3.49167 0
M  V30 6227 C 596.469 -1.03856 -4.30963 0
M  V30 6228 H 593.689 -0.302377 -0.599007 0
M  V30 6229 H 596.233 -1.44615 -1.44592 0
M  V30 6230 H 594.388 -0.691571 -3.81177 0
M  V30 6231 H 594.802 -2.81922 -4.42289 0
M  V30 6232 H 596.276 -1.37892 -5.345 0
M  V30 6233 H 596.753 0.0242522 -4.39193 0
M  V30 6234 H 597.359 -1.58731 -3.94569 0
M  V30 6235 N 595.674 1.31259 -0.872281 0
M  V30 6236 C 597.09 1.49283 -0.564521 0
M  V30 6237 C 597.29 1.80243 0.900807 0
M  V30 6238 O 596.346 1.88246 1.68284 0
M  V30 6239 C 597.659 2.62503 -1.46673 0
M  V30 6240 C 599.207 2.76386 -1.46901 0
M  V30 6241 C 599.682 3.92705 -2.35684 0
M  V30 6242 N 601.173 3.99995 -2.33577 0
M  V30 6243 C 601.908 4.89276 -2.98992 0
M  V30 6244 N 601.404 5.83443 -3.73585 0
M  V30 6245 N 603.197 4.82541 -2.88289 0
M  V30 6246 H 595.348 1.09432 -1.82039 0
M  V30 6247 H 597.611 0.540949 -0.77851 0
M  V30 6248 H 597.317 2.46407 -2.50951 0
M  V30 6249 H 597.191 3.58695 -1.16696 0
M  V30 6250 H 599.578 2.91894 -0.433796 0
M  V30 6251 H 599.659 1.80853 -1.80903 0
M  V30 6252 H 599.303 3.77954 -3.39283 0
M  V30 6253 H 599.233 4.87549 -1.99006 0
M  V30 6254 H 601.724 3.32624 -1.7936 0
M  V30 6255 H 602.037 6.48303 -4.20622 0
M  V30 6256 H 600.382 5.83415 -3.77694 0
M  V30 6257 H 603.573 4.07951 -2.2955 0
M  V30 6258 H 603.746 5.51916 -3.39549 0
M  V30 6259 N 597.152 0.631951 1.44375 0
M  V30 6260 C 598.392 0.14009 2.03919 0
M  V30 6261 C 598.756 -1.21534 1.48639 0
M  V30 6262 O 599.957 -1.79936 1.99691 0
M  V30 6263 C 598.228 0.127174 3.57174 0
M  V30 6264 S 599.787 -0.299946 4.37774 0
M  V30 6265 H 596.605 0.0614891 0.708336 0
M  V30 6266 H 599.207 0.835524 1.76746 0
M  V30 6267 H 597.911 1.11676 3.94913 0
M  V30 6268 H 597.442 -0.589482 3.88958 0
M  V30 6269 H 599.457 -1.54396 4.71568 0
M  V30 6270 N 598.631 -1.53133 0.372548 0
M  V30 6271 C 599.878 -2.01356 -0.214959 0
M  V30 6272 C 600.206 -1.2596 -1.48204 0
M  V30 6273 O 599.461 -0.343511 -1.92662 0
M  V30 6274 C 599.76 -3.53206 -0.545938 0
M  V30 6275 C 599.426 -4.46511 0.627624 0
M  V30 6276 C 598.088 -4.71737 0.949615 0
M  V30 6277 C 600.44 -5.01666 1.41353 0
M  V30 6278 C 597.768 -5.4937 2.05936 0
M  V30 6279 C 600.12 -5.80511 2.51375 0
M  V30 6280 C 598.784 -6.04022 2.84101 0
M  V30 6281 H 598.054 -0.736813 -0.078659 0
M  V30 6282 H 600.701 -1.84682 0.506447 0
M  V30 6283 H 599.006 -3.67864 -1.34845 0
M  V30 6284 H 600.703 -3.87997 -1.01287 0
M  V30 6285 H 597.293 -4.27029 0.366635 0
M  V30 6286 H 601.477 -4.82117 1.17802 0
M  V30 6287 H 596.733 -5.65803 2.31682 0
M  V30 6288 H 600.907 -6.22255 3.12684 0
M  V30 6289 H 598.534 -6.63962 3.70214 0
M  V30 6290 N 600.109 -0.101901 -1.5727 0
M  V30 6291 C 601.357 0.559091 -1.94213 0
M  V30 6292 C 601.678 1.68297 -0.984948 0
M  V30 6293 O 600.948 1.95863 -0.0381975 0
M  V30 6294 H 599.528 0.20952 -0.717015 0
M  V30 6295 H 602.19 -0.166831 -1.94185 0
M  V30 6296 H 601.286 0.96485 -2.96811 0
M  V30 6297 N 601.587 1.56661 0.17182 0
M  V30 6298 C 602.835 1.81606 0.886774 0
M  V30 6299 C 603.156 0.678818 1.82803 0
M  V30 6300 O 602.426 -0.301354 1.93568 0
M  V30 6301 H 601.006 0.669934 0.330451 0
M  V30 6302 H 603.668 1.94142 0.171757 0
M  V30 6303 H 602.764 2.75634 1.46398 0
M  V30 6304 N 603.065 -0.440357 1.51323 0
M  V30 6305 C 604.305 -1.19956 1.65499 0
M  V30 6306 C 604.669 -1.88559 0.361878 0
M  V30 6307 O 605.87 -2.66109 0.379383 0
M  V30 6308 C 604.141 -2.1918 2.82303 0
M  V30 6309 S 605.7 -3.03627 3.1679 0
M  V30 6310 H 602.518 -0.406833 0.583102 0
M  V30 6311 H 605.12 -0.491596 1.89218 0
M  V30 6312 H 603.824 -1.67414 3.74701 0
M  V30 6313 H 603.355 -2.94561 2.60763 0
M  V30 6314 H 605.37 -4.20773 2.62991 0
M  V30 6315 N 604.543 -1.41418 -0.695603 0
M  V30 6316 C 605.789 -1.40982 -1.4578 0
M  V30 6317 C 606.122 -0.0187763 -1.94191 0
M  V30 6318 O 605.397 0.95346 -1.69527 0
M  V30 6319 C 605.68 -2.41657 -2.66972 0
M  V30 6320 C 605.533 -3.89869 -2.24327 0
M  V30 6321 C 606.852 -2.39589 -3.69168 0
M  V30 6322 H 603.971 -0.513405 -0.528757 0
M  V30 6323 H 606.613 -1.72693 -0.792275 0
M  V30 6324 H 604.763 -2.14746 -3.23754 0
M  V30 6325 H 606.435 -4.27683 -1.72872 0
M  V30 6326 H 604.678 -4.04737 -1.56111 0
M  V30 6327 H 605.349 -4.55857 -3.11285 0
M  V30 6328 H 607.825 -2.63471 -3.2206 0
M  V30 6329 H 606.701 -3.12044 -4.51575 0
M  V30 6330 H 606.962 -1.41447 -4.18862 0
M  V30 6331 N 606.021 0.929856 -1.27246 0
M  V30 6332 C 607.268 1.67731 -1.13457 0
M  V30 6333 C 607.596 1.9185 0.319998 0
M  V30 6334 O 606.851 1.50524 1.25064 0
M  V30 6335 C 607.15 3.05116 -1.86115 0
M  V30 6336 C 606.816 3.00715 -3.35978 0
M  V30 6337 C 605.478 2.99222 -3.76855 0
M  V30 6338 C 607.83 2.92168 -4.3161 0
M  V30 6339 C 605.158 2.86962 -5.11732 0
M  V30 6340 C 607.51 2.81449 -5.66542 0
M  V30 6341 C 606.174 2.78305 -6.06715 0
M  V30 6342 H 605.444 0.613772 -0.415168 0
M  V30 6343 H 608.091 1.08456 -1.57827 0
M  V30 6344 H 606.396 3.68083 -1.34246 0
M  V30 6345 H 608.093 3.61822 -1.72876 0
M  V30 6346 H 604.683 3.02664 -3.03468 0
M  V30 6347 H 608.867 2.92421 -4.01003 0
M  V30 6348 H 604.123 2.82913 -5.42006 0
M  V30 6349 H 608.297 2.738 -6.40317 0
M  V30 6350 H 605.924 2.68561 -7.11181 0
M  V30 6351 N 607.499 1.09233 1.13605 0
M  V30 6352 C 608.462 0.733553 2.17144 0
M  V30 6353 C 609.462 -0.235873 1.59061 0
M  V30 6354 O 610.652 -0.0143167 1.74194 0
M  V30 6355 C 607.784 0.084471 3.40795 0
M  V30 6356 H 608.977 1.65049 2.50397 0
M  V30 6357 H 606.53 0.891264 1.28399 0
M  V30 6358 H 607.265 -0.843795 3.1313 0
M  V30 6359 H 607.05 0.781985 3.84223 0
M  V30 6360 H 608.54 -0.151216 4.17326 0
M  V30 6361 N 608.977 -1.30795 0.87923 0
M  V30 6362 C 610.207 -2.00237 0.50881 0
M  V30 6363 C 610.615 -1.66115 -0.905682 0
M  V30 6364 O 609.958 -0.89138 -1.60624 0
M  V30 6365 C 610.02 -3.54508 0.597003 0
M  V30 6366 C 609.684 -4.12131 1.97477 0
M  V30 6367 C 610.681 -4.28552 2.94346 0
M  V30 6368 C 608.366 -4.47644 2.2786 0
M  V30 6369 C 610.36 -4.79689 4.19735 0
M  V30 6370 C 608.047 -4.98481 3.53496 0
M  V30 6371 C 609.045 -5.14456 4.49248 0
M  V30 6372 O 608.733 -5.64199 5.72656 0
M  V30 6373 H 608.465 -0.647026 0.195788 0
M  V30 6374 H 611.019 -1.67785 1.1848 0
M  V30 6375 H 609.249 -3.86461 -0.135945 0
M  V30 6376 H 610.938 -4.05198 0.238684 0
M  V30 6377 H 611.704 -4.01424 2.72183 0
M  V30 6378 H 607.583 -4.34481 1.54102 0
M  V30 6379 H 611.127 -4.92073 4.9448 0
M  V30 6380 H 607.024 -5.25044 3.75498 0
M  V30 6381 H 607.792 -5.82551 5.74957 0
M  V30 6382 N 610.455 -0.639598 -1.44038 0
M  V30 6383 C 611.701 -0.147698 -2.02261 0
M  V30 6384 C 612.034 1.23031 -1.50256 0
M  V30 6385 O 611.309 1.81847 -0.690068 0
M  V30 6386 C 611.592 -0.14362 -3.59813 0
M  V30 6387 C 611.445 -1.55458 -4.22082 0
M  V30 6388 C 612.764 0.527317 -4.36929 0
M  V30 6389 H 609.883 -0.0551453 -0.734934 0
M  V30 6390 H 612.525 -0.817688 -1.71505 0
M  V30 6391 H 610.675 0.426898 -3.86147 0
M  V30 6392 H 612.347 -2.17464 -4.06826 0
M  V30 6393 H 610.59 -2.10594 -3.79253 0
M  V30 6394 H 611.261 -1.50369 -5.31124 0
M  V30 6395 H 613.737 0.0420504 -4.16079 0
M  V30 6396 H 612.613 0.499389 -5.46624 0
M  V30 6397 H 612.874 1.59914 -4.12165 0
M  V30 6398 N 611.933 1.52934 -0.380664 0
M  V30 6399 C 613.181 2.01069 0.203874 0
M  V30 6400 C 613.502 1.26922 1.4804 0
M  V30 6401 O 612.772 0.386787 1.92044 0
M  V30 6402 H 611.352 0.742882 0.0783279 0
M  V30 6403 H 614.014 1.88099 -0.510368 0
M  V30 6404 H 613.11 3.09258 0.42021 0
M  V30 6405 N 613.412 0.11024 1.57214 0
M  V30 6406 C 614.652 -0.553061 1.96775 0
M  V30 6407 C 615.016 -1.64403 0.991753 0
M  V30 6408 O 616.217 -2.36561 1.27642 0
M  V30 6409 C 614.488 -1.08004 3.4069 0
M  V30 6410 S 616.047 -1.75309 4.02259 0
M  V30 6411 H 612.865 -0.18003 0.68783 0
M  V30 6412 H 615.467 0.193242 1.94543 0
M  V30 6413 H 614.171 -0.274735 4.09479 0
M  V30 6414 H 613.702 -1.86182 3.46554 0
M  V30 6415 H 615.717 -3.03834 3.923 0
M  V30 6416 N 614.89 -1.56749 -0.16351 0
M  V30 6417 C 616.12 -1.86307 -0.892936 0
M  V30 6418 C 616.528 -0.6945 -1.75992 0
M  V30 6419 O 615.871 0.345384 -1.80424 0
M  V30 6420 C 615.933 -3.10372 -1.81409 0
M  V30 6421 C 615.597 -4.42913 -1.12593 0
M  V30 6422 C 616.594 -5.17608 -0.487661 0
M  V30 6423 C 614.279 -4.89646 -1.12035 0
M  V30 6424 C 616.273 -6.3723 0.14699 0
M  V30 6425 C 613.96 -6.09197 -0.481883 0
M  V30 6426 C 614.958 -6.82834 0.150678 0
M  V30 6427 O 614.646 -8.00116 0.779065 0
M  V30 6428 H 614.378 -0.622126 -0.264452 0
M  V30 6429 H 616.932 -2.04728 -0.166063 0
M  V30 6430 H 615.162 -2.87917 -2.58148 0
M  V30 6431 H 616.851 -3.26312 -2.41403 0
M  V30 6432 H 617.617 -4.8258 -0.483888 0
M  V30 6433 H 613.496 -4.32265 -1.60212 0
M  V30 6434 H 617.04 -6.94646 0.641325 0
M  V30 6435 H 612.937 -6.43688 -0.483266 0
M  V30 6436 H 613.705 -8.15678 0.679089 0
M  V30 6437 N 616.368 0.432326 -1.51554 0
M  V30 6438 C 617.316 1.54572 -1.73811 0
M  V30 6439 C 618.31 1.58246 -0.604539 0
M  V30 6440 O 619.516 1.6193 -0.786041 0
M  V30 6441 H 615.891 0.513626 -0.549265 0
M  V30 6442 H 617.862 1.32977 -2.67132 0
M  V30 6443 C 616.611 2.92181 -1.88483 0
M  V30 6444 H 615.934 2.90088 -2.75116 0
M  V30 6445 H 617.374 3.69439 -2.08065 0
M  V30 6446 C 615.833 3.3065 -0.645909 0
M  V30 6447 O 616.363 4.01216 0.197093 0
M  V30 6448 N 614.569 2.86464 -0.488538 0
M  V30 6449 H 614.116 2.29209 -1.17562 0
M  V30 6450 H 614.074 3.12565 0.339156 0
M  V30 6451 N 617.846 1.41785 0.688094 0
M  V30 6452 C 618.793 1.44221 1.80191 0
M  V30 6453 C 619.763 0.295688 1.63447 0
M  V30 6454 O 620.948 0.49783 1.84191 0
M  V30 6455 C 618.088 1.33743 3.1813 0
M  V30 6456 C 617.201 2.58325 3.46254 0
M  V30 6457 C 616.336 2.40086 4.73848 0
M  V30 6458 C 615.375 3.60107 4.94964 0
M  V30 6459 N 614.512 3.40892 6.13789 0
M  V30 6460 H 619.352 2.39411 1.77444 0
M  V30 6461 H 616.889 1.18876 0.866423 0
M  V30 6462 H 618.847 1.25669 3.97823 0
M  V30 6463 H 617.477 0.42157 3.20035 0
M  V30 6464 H 616.529 2.7682 2.60912 0
M  V30 6465 H 617.841 3.4758 3.57756 0
M  V30 6466 H 616.995 2.29522 5.61609 0
M  V30 6467 H 615.734 1.483 4.64606 0
M  V30 6468 H 614.739 3.71118 4.05649 0
M  V30 6469 H 615.964 4.52857 5.06061 0
M  V30 6470 H 613.91 2.51812 6.05745 0
M  V30 6471 H 613.827 4.23727 6.26092 0
M  V30 6472 H 615.095 3.34114 7.04264 0
M  V30 6473 N 619.324 -0.923095 1.27737 0
M  V30 6474 C 620.74 -1.19985 1.05241 0
M  V30 6475 C 620.94 -2.00391 -0.21113 0
M  V30 6476 O 619.996 -2.35324 -0.915366 0
M  V30 6477 C 621.309 -1.94352 2.29451 0
M  V30 6478 C 622.857 -2.07273 2.34536 0
M  V30 6479 C 623.332 -2.85046 3.58487 0
M  V30 6480 N 624.823 -2.92612 3.59072 0
M  V30 6481 C 625.558 -3.53266 4.51654 0
M  V30 6482 N 625.054 -4.15274 5.54545 0
M  V30 6483 N 626.847 -3.50714 4.39268 0
M  V30 6484 H 618.998 -0.386042 2.08862 0
M  V30 6485 H 621.261 -0.233407 0.918817 0
M  V30 6486 H 620.967 -1.42692 3.21453 0
M  V30 6487 H 620.841 -2.94947 2.3513 0
M  V30 6488 H 623.228 -2.58117 1.43037 0
M  V30 6489 H 623.309 -1.05884 2.32857 0
M  V30 6490 H 622.953 -2.34884 4.50324 0
M  V30 6491 H 622.883 -3.8673 3.57418 0
M  V30 6492 H 625.374 -2.48547 2.84663 0
M  V30 6493 H 625.687 -4.59507 6.21348 0
M  V30 6494 H 624.032 -4.13806 5.58382 0
M  V30 6495 H 627.223 -3.01475 3.58093 0
M  V30 6496 H 627.396 -3.97693 5.1161 0
M  V30 6497 N 620.802 -1.09834 -1.13024 0
M  V30 6498 C 621.765 -0.745058 -2.16752 0
M  V30 6499 C 622.765 0.227435 -1.59183 0
M  V30 6500 O 623.955 0.0050786 -1.74199 0
M  V30 6501 C 621.087 -0.102543 -3.40746 0
M  V30 6502 H 622.28 -1.66375 -2.49518 0
M  V30 6503 H 619.833 -0.898061 -1.27924 0
M  V30 6504 H 620.568 0.827177 -3.13573 0
M  V30 6505 H 620.353 -0.80235 -3.83803 0
M  V30 6506 H 621.843 0.129082 -4.174 0
M  V30 6507 N 622.28 1.30327 -0.886154 0
M  V30 6508 C 623.51 1.99964 -0.519421 0
M  V30 6509 C 623.918 1.66593 0.89686 0
M  V30 6510 O 623.261 0.899886 1.60149 0
M  V30 6511 C 623.323 3.54187 -0.615795 0
M  V30 6512 C 622.987 4.11078 -1.9966 0
M  V30 6513 C 623.984 4.26985 -2.96614 0
M  V30 6514 C 621.669 4.46429 -2.30231 0
M  V30 6515 C 623.663 4.77456 -4.22273 0
M  V30 6516 C 621.35 4.966 -3.56135 0
M  V30 6517 C 622.348 5.12066 -4.5197 0
M  V30 6518 O 622.036 5.61154 -5.7564 0
M  V30 6519 H 621.768 0.645979 -0.199217 0
M  V30 6520 H 624.322 1.67154 -1.19368 0
M  V30 6521 H 622.552 3.86528 0.115448 0
M  V30 6522 H 624.241 4.05065 -0.26017 0
M  V30 6523 H 625.007 3.99975 -2.74308 0
M  V30 6524 H 620.886 4.33658 -1.56404 0
M  V30 6525 H 624.43 4.89444 -4.97082 0
M  V30 6526 H 620.327 5.23045 -3.78277 0
M  V30 6527 H 621.095 5.79494 -5.78039 0
M  V30 6528 N 623.758 0.647228 1.43697 0
M  V30 6529 C 625.004 0.167001 2.02713 0
M  V30 6530 C 625.359 -1.20351 1.50111 0
M  V30 6531 O 624.652 -1.79047 0.682113 0
M  V30 6532 C 624.846 0.111481 3.57226 0
M  V30 6533 C 624.675 1.47507 4.2482 0
M  V30 6534 C 623.445 2.06594 4.61137 0
M  V30 6535 C 625.643 2.41224 4.54219 0
M  V30 6536 N 623.625 3.3602 5.13774 0
M  V30 6537 C 624.996 3.55278 5.08112 0
M  V30 6538 C 627.051 2.40102 4.36183 0
M  V30 6539 C 625.754 4.68426 5.45866 0
M  V30 6540 C 627.78 3.52326 4.74995 0
M  V30 6541 C 627.142 4.65104 5.29015 0
M  V30 6542 H 623.241 0.105402 0.774864 0
M  V30 6543 H 625.825 0.854229 1.7496 0
M  V30 6544 H 623.996 -0.545073 3.84556 0
M  V30 6545 H 625.728 -0.379063 4.02921 0
M  V30 6546 H 622.483 1.59366 4.45981 0
M  V30 6547 H 622.907 4.02233 5.44552 0
M  V30 6548 H 627.549 1.54151 3.93697 0
M  V30 6549 H 625.267 5.55074 5.87298 0
M  V30 6550 H 628.853 3.52652 4.6274 0
M  V30 6551 H 627.733 5.50506 5.58492 0
M  V30 6552 N 625.236 -1.5273 0.388769 0
M  V30 6553 C 626.482 -2.01871 -0.193877 0
M  V30 6554 C 626.815 -1.27475 -1.46505 0
M  V30 6555 O 626.09 -0.375063 -1.90849 0
M  V30 6556 C 626.373 -3.5712 -0.462336 0
M  V30 6557 C 626.226 -4.42186 0.824091 0
M  V30 6558 C 627.545 -4.21881 -1.25319 0
M  V30 6559 H 624.664 -0.733764 -0.0689899 0
M  V30 6560 H 627.306 -1.82796 0.518231 0
M  V30 6561 H 625.456 -3.73504 -1.06896 0
M  V30 6562 H 627.128 -4.37554 1.46096 0
M  V30 6563 H 625.371 -4.09219 1.43952 0
M  V30 6564 H 626.042 -5.48828 0.590905 0
M  V30 6565 H 628.518 -4.0947 -0.73981 0
M  V30 6566 H 627.394 -5.30487 -1.40977 0
M  V30 6567 H 627.655 -3.79478 -2.26824 0
M  V30 6568 N 626.714 -0.118576 -1.57153 0
M  V30 6569 C 628.125 0.40687 -1.82213 0
M  V30 6570 C 628.476 1.66636 -1.03571 0
M  V30 6571 O 627.601 2.14682 -0.272171 0
M  V30 6572 C 628.196 0.744949 -3.30509 0
M  V30 6573 C 626.755 1.21503 -3.5625 0
M  V30 6574 C 625.902 0.223511 -2.76398 0
M  V30 6575 H 628.853 -0.343712 -1.54933 0
M  V30 6576 H 628.874 1.6024 -3.45114 0
M  V30 6577 H 628.386 -0.171911 -3.87719 0
M  V30 6578 H 626.487 2.1488 -3.04396 0
M  V30 6579 H 626.6 1.16065 -4.64829 0
M  V30 6580 H 624.964 0.71046 -2.44591 0
M  V30 6581 H 625.747 -0.686439 -3.36367 0
M  V30 6582 N 628.193 1.56834 0.155195 0
M  V30 6583 C 629.609 1.51315 0.50755 0
M  V30 6584 C 629.809 0.825614 1.83809 0
M  V30 6585 O 628.865 0.39271 2.49427 0
M  V30 6586 C 630.178 2.96074 0.52542 0
M  V30 6587 C 631.726 3.06968 0.611505 0
M  V30 6588 C 632.201 4.53218 0.660115 0
M  V30 6589 N 633.692 4.5753 0.722564 0
M  V30 6590 C 634.427 5.68056 0.781023 0
M  V30 6591 N 633.923 6.88173 0.799327 0
M  V30 6592 N 635.716 5.56068 0.821278 0
M  V30 6593 H 627.867 1.9993 -0.717063 0
M  V30 6594 H 630.13 0.911507 -0.260496 0
M  V30 6595 H 629.836 3.49599 -0.383875 0
M  V30 6596 H 629.71 3.51587 1.36624 0
M  V30 6597 H 632.097 2.53468 1.51122 0
M  V30 6598 H 632.178 2.54513 -0.256306 0
M  V30 6599 H 631.822 5.07354 -0.23541 0
M  V30 6600 H 631.752 5.03447 1.5443 0
M  V30 6601 H 634.243 3.71054 0.716049 0
M  V30 6602 H 634.556 7.6816 0.845553 0
M  V30 6603 H 632.901 6.90751 0.767337 0
M  V30 6604 H 636.092 4.61142 0.804091 0
M  V30 6605 H 636.265 6.42223 0.863372 0
M  V30 6606 N 629.671 -0.424282 1.51781 0
M  V30 6607 C 630.634 -1.49848 1.73431 0
M  V30 6608 C 631.634 -1.49016 0.604225 0
M  V30 6609 O 632.824 -1.50808 0.871935 0
M  V30 6610 C 629.956 -2.89332 1.80277 0
M  V30 6611 H 631.149 -1.3195 2.69312 0
M  V30 6612 H 628.702 -0.653809 1.41968 0
M  V30 6613 H 629.437 -3.12618 0.862568 0
M  V30 6614 H 629.222 -2.9134 2.62419 0
M  V30 6615 H 630.712 -3.67233 1.98821 0
M  V30 6616 N 631.149 -1.42148 -0.680565 0
M  V30 6617 C 632.374 -1.45901 -1.47403 0
M  V30 6618 C 632.799 -0.0700985 -1.87969 0
M  V30 6619 O 632.157 0.930145 -1.55621 0
M  V30 6620 C 632.205 -2.38661 -2.70321 0
M  V30 6621 O 631.309 -1.85399 -3.68376 0
M  V30 6622 H 630.65 -0.494565 -0.443059 0
M  V30 6623 H 633.18 -1.86774 -0.835251 0
M  V30 6624 H 633.19 -2.55046 -3.18458 0
M  V30 6625 H 631.865 -3.39571 -2.40134 0
M  V30 6626 H 630.442 -1.78541 -3.2738 0
M  V30 6627 N 632.627 0.916307 -1.28225 0
M  V30 6628 C 633.59 1.99996 -1.11957 0
M  V30 6629 C 634.59 1.60688 -0.0600152 0
M  V30 6630 O 635.78 1.71499 -0.30558 0
M  V30 6631 C 632.912 3.33458 -0.708411 0
M  V30 6632 H 634.105 2.15858 -2.08196 0
M  V30 6633 H 631.658 1.09863 -1.11175 0
M  V30 6634 H 632.393 3.23297 0.254859 0
M  V30 6635 H 632.178 3.63349 -1.47377 0
M  V30 6636 H 633.668 4.13014 -0.617164 0
M  V30 6637 N 634.105 1.10431 1.1244 0
M  V30 6638 C 635.382 0.758797 1.80282 0
M  V30 6639 C 635.762 -0.754727 1.97147 0
M  V30 6640 O 635.11 -1.68094 1.54779 0
M  V30 6641 C 635.32 1.50982 3.14651 0
M  V30 6642 C 636.668 1.68232 3.8985 0
M  V30 6643 O 637.692 1.47319 3.24308 0
M  V30 6644 O 636.551 2.02905 5.07437 0
M  V30 6645 H 633.645 0.273756 0.780376 0
M  V30 6646 H 636.191 1.20713 1.19275 0
M  V30 6647 H 634.963 2.53989 2.97666 0
M  V30 6648 H 634.586 1.05435 3.83366 0
M  V30 6649 N 635.583 -1.29855 0.893053 0
M  V30 6650 C 636.832 -1.95104 0.511597 0
M  V30 6651 C 637.145 -1.71226 -0.945567 0
M  V30 6652 O 638.351 -2.30525 -1.43424 0
M  V30 6653 C 636.807 -3.49374 0.864034 0
M  V30 6654 C 636.415 -3.82061 2.33952 0
M  V30 6655 C 638.159 -4.20894 0.552167 0
M  V30 6656 C 636.066 -5.29546 2.63316 0
M  V30 6657 H 634.996 -0.73029 0.187597 0
M  V30 6658 H 637.647 -1.47682 1.08914 0
M  V30 6659 H 636.029 -3.95413 0.215493 0
M  V30 6660 H 637.203 -3.46904 3.03305 0
M  V30 6661 H 635.518 -3.23665 2.61973 0
M  V30 6662 H 638.115 -5.29435 0.748489 0
M  V30 6663 H 638.458 -4.13178 -0.508924 0
M  V30 6664 H 638.991 -3.80564 1.15825 0
M  V30 6665 H 635.73 -5.4232 3.68197 0
M  V30 6666 H 635.25 -5.65974 1.9858 0
M  V30 6667 H 636.929 -5.97068 2.49236 0
M  V30 6668 N 637.061 -0.65484 -1.43351 0
M  V30 6669 C 638.309 -0.168559 -2.01396 0
M  V30 6670 C 638.63 1.22235 -1.51933 0
M  V30 6671 O 637.9 1.81685 -0.732627 0
M  V30 6672 H 636.48 -0.0593244 -0.744641 0
M  V30 6673 H 639.142 -0.846871 -1.75539 0
M  V30 6674 H 638.238 -0.154428 -3.11718 0
M  V30 6675 N 638.539 1.52521 -0.396863 0
M  V30 6676 C 639.764 2.06571 0.185258 0
M  V30 6677 C 640.189 1.26605 1.39115 0
M  V30 6678 O 639.547 0.293055 1.78916 0
M  V30 6679 C 639.595 3.5674 0.526189 0
M  V30 6680 O 638.699 3.7929 1.61903 0
M  V30 6681 H 638.04 0.663712 0.0195474 0
M  V30 6682 H 640.57 1.966 -0.566519 0
M  V30 6683 H 640.58 4.00311 0.788338 0
M  V30 6684 H 639.255 4.14379 -0.355397 0
M  V30 6685 H 637.832 3.47605 1.35 0
M  V30 6686 N 640.017 0.126909 1.57088 0
M  V30 6687 C 641.265 -0.528123 1.95078 0
M  V30 6688 C 641.586 -1.66708 1.0116 0
M  V30 6689 O 640.856 -1.95777 0.0693527 0
M  V30 6690 H 639.436 -0.198087 0.720257 0
M  V30 6691 H 642.098 0.197703 1.93895 0
M  V30 6692 H 641.194 -0.917507 2.98309 0
M  V30 6693 N 641.495 -1.56914 -0.146875 0
M  V30 6694 C 642.445 -1.94693 -1.18653 0
M  V30 6695 C 643.429 -0.81821 -1.38543 0
M  V30 6696 O 644.621 -1.08167 -1.40103 0
M  V30 6697 C 641.75 -2.33117 -2.52014 0
M  V30 6698 C 640.836 -3.5256 -2.35717 0
M  V30 6699 N 641.227 -4.69091 -1.89175 0
M  V30 6700 C 639.525 -3.57647 -2.66467 0
M  V30 6701 C 640.226 -5.51187 -1.85924 0
M  V30 6702 N 639.202 -4.92899 -2.29242 0
M  V30 6703 H 643.004 -2.82264 -0.81879 0
M  V30 6704 H 640.518 -1.58474 -0.354929 0
M  V30 6705 H 642.515 -2.58387 -3.27172 0
M  V30 6706 H 641.175 -1.46898 -2.89571 0
M  V30 6707 H 642.186 -4.92844 -1.59139 0
M  V30 6708 H 638.863 -2.81967 -3.07898 0
M  V30 6709 H 640.253 -6.54613 -1.51431 0
M  V30 6710 N 642.974 0.416227 -1.52004 0
M  V30 6711 C 644.202 1.18573 -1.69553 0
M  V30 6712 C 644.617 1.84472 -0.401919 0
M  V30 6713 O 643.974 1.71593 0.621463 0
M  V30 6714 C 644.025 2.25413 -2.82615 0
M  V30 6715 O 643.746 1.62205 -4.06966 0
M  V30 6716 C 645.247 3.15297 -3.11613 0
M  V30 6717 H 642.467 0.356582 -0.56841 0
M  V30 6718 H 645.011 0.490618 -1.98528 0
M  V30 6719 H 643.166 2.90604 -2.56179 0
M  V30 6720 H 643.58 2.3298 -4.69916 0
M  V30 6721 H 645.054 3.86351 -3.94255 0
M  V30 6722 H 645.531 3.77264 -2.24874 0
M  V30 6723 H 646.137 2.55783 -3.39787 0
M  V30 6724 N 644.452 1.42507 0.673017 0
M  V30 6725 C 645.7 1.42789 1.43023 0
M  V30 6726 C 646.021 0.0459738 1.94946 0
M  V30 6727 O 645.291 -0.915765 1.73178 0
M  V30 6728 H 643.871 0.525657 0.530748 0
M  V30 6729 H 646.533 1.77944 0.795113 0
M  V30 6730 H 645.629 2.12872 2.28237 0
M  V30 6731 N 645.93 -0.909495 1.28709 0
M  V30 6732 C 647.179 -1.65365 1.15487 0
M  V30 6733 C 647.492 -1.93364 -0.294941 0
M  V30 6734 O 648.698 -2.65905 -0.548338 0
M  V30 6735 C 647.154 -2.97923 2.01916 0
M  V30 6736 C 646.762 -2.77556 3.51663 0
M  V30 6737 C 648.506 -3.75814 1.97393 0
M  V30 6738 C 646.413 -4.0578 4.30229 0
M  V30 6739 H 645.343 -0.620323 0.42862 0
M  V30 6740 H 647.994 -1.00894 1.53273 0
M  V30 6741 H 646.376 -3.63552 1.5699 0
M  V30 6742 H 647.55 -2.2058 4.04575 0
M  V30 6743 H 645.865 -2.13072 3.57756 0
M  V30 6744 H 648.462 -4.70866 2.53357 0
M  V30 6745 H 648.805 -4.05277 0.951643 0
M  V30 6746 H 649.338 -3.1701 2.40311 0
M  V30 6747 H 646.077 -3.81488 5.33055 0
M  V30 6748 H 645.597 -4.62351 3.82089 0
M  V30 6749 H 647.276 -4.74004 4.40374 0
M  V30 6750 N 647.408 -1.11026 -1.11852 0
M  V30 6751 C 648.636 -0.878818 -1.87308 0
M  V30 6752 C 649.051 0.57111 -1.79955 0
M  V30 6753 O 648.408 1.39409 -1.17777 0
M  V30 6754 C 648.459 -1.3264 -3.36287 0
M  V30 6755 O 648.18 -2.71948 -3.43476 0
M  V30 6756 C 649.681 -1.12974 -4.28663 0
M  V30 6757 H 646.901 -0.315015 -0.592458 0
M  V30 6758 H 649.445 -1.47649 -1.41492 0
M  V30 6759 H 647.6 -0.772269 -3.79625 0
M  V30 6760 H 648.014 -2.91241 -4.3621 0
M  V30 6761 H 649.488 -1.49198 -5.31454 0
M  V30 6762 H 649.965 -0.0689127 -4.39146 0
M  V30 6763 H 650.571 -1.67064 -3.91113 0
M  V30 6764 N 648.886 1.2938 -0.899927 0
M  V30 6765 C 650.134 1.95164 -0.524924 0
M  V30 6766 C 650.455 1.71292 0.931888 0
M  V30 6767 O 649.725 1.04481 1.65712 0
M  V30 6768 H 648.305 0.722133 -0.191135 0
M  V30 6769 H 650.967 1.57628 -1.14627 0
M  V30 6770 H 650.063 3.0397 -0.707711 0
M  V30 6771 N 650.364 0.662433 1.43002 0
M  V30 6772 C 651.641 0.109096 1.95296 0
M  V30 6773 C 652.021 -1.37313 1.60338 0
M  V30 6774 O 651.369 -2.1032 0.893187 0
M  V30 6775 C 651.579 0.365096 3.47085 0
M  V30 6776 C 652.927 0.274964 4.23709 0
M  V30 6777 O 653.951 0.29816 3.5495 0
M  V30 6778 O 652.81 0.206549 5.4611 0
M  V30 6779 H 649.904 -0.00429724 0.826989 0
M  V30 6780 H 652.45 0.736308 1.52894 0
M  V30 6781 H 651.222 1.39237 3.65689 0
M  V30 6782 H 650.845 -0.294733 3.96506 0
M  V30 6783 N 651.842 -1.52309 0.404946 0
M  V30 6784 C 652.79 -2.28452 -0.437321 0
M  V30 6785 C 653.784 -1.32975 -1.04948 0
M  V30 6786 O 654.99 -1.50451 -0.988159 0
M  V30 6787 H 651.365 -0.734824 -0.159805 0
M  V30 6788 H 653.336 -2.97542 0.22615 0
M  V30 6789 C 652.085 -3.11536 -1.54404 0
M  V30 6790 H 651.408 -3.84871 -1.08233 0
M  V30 6791 H 652.848 -3.67926 -2.10729 0
M  V30 6792 C 651.307 -2.24833 -2.50902 0
M  V30 6793 O 651.837 -1.88574 -3.54687 0
M  V30 6794 N 650.043 -1.88685 -2.21012 0
M  V30 6795 H 649.59 -2.18371 -1.36646 0
M  V30 6796 H 649.548 -1.30966 -2.85824 0
M  V30 6797 N 653.32 -0.135238 -1.57019 0
M  V30 6798 C 654.566 0.519563 -1.96032 0
M  V30 6799 C 654.899 1.65284 -1.01955 0
M  V30 6800 O 654.174 1.94408 -0.059727 0
M  V30 6801 C 654.457 1.0369 -3.44848 0
M  V30 6802 C 654.31 -0.0940754 -4.49702 0
M  V30 6803 C 655.629 1.92254 -3.95887 0
M  V30 6804 H 652.748 0.18739 -0.712779 0
M  V30 6805 H 655.39 -0.214086 -1.8879 0
M  V30 6806 H 653.54 1.66209 -3.5115 0
M  V30 6807 H 655.212 -0.73 -4.55487 0
M  V30 6808 H 653.455 -0.754924 -4.27181 0
M  V30 6809 H 654.126 0.309419 -5.51132 0
M  V30 6810 H 656.602 1.39581 -3.9199 0
M  V30 6811 H 655.478 2.25364 -5.00502 0
M  V30 6812 H 655.739 2.85513 -3.37543 0
M  V30 6813 N 654.798 1.5699 0.138552 0
M  V30 6814 C 655.708 2.02174 1.19008 0
M  V30 6815 C 656.724 0.938622 1.46512 0
M  V30 6816 O 657.9 1.24872 1.58016 0
M  V30 6817 C 654.965 2.40045 2.50159 0
M  V30 6818 C 654.026 3.62346 2.30226 0
M  V30 6819 C 653.259 3.98401 3.55123 0
M  V30 6820 O 653.482 3.35019 4.61647 0
M  V30 6821 O 652.416 4.91606 3.47285 0
M  V30 6822 H 656.242 2.91954 0.836452 0
M  V30 6823 H 653.827 1.45293 0.347907 0
M  V30 6824 H 655.709 2.65225 3.27465 0
M  V30 6825 H 654.384 1.53417 2.85035 0
M  V30 6826 H 653.291 3.42341 1.50843 0
M  V30 6827 H 654.624 4.49617 2.00262 0
M  V30 6828 N 656.276 -0.40816 1.52223 0
M  V30 6829 C 657.504 -1.17672 1.70179 0
M  V30 6830 C 657.919 -1.84257 0.411696 0
M  V30 6831 O 657.276 -1.7192 -0.612354 0
M  V30 6832 C 657.327 -2.23911 2.83806 0
M  V30 6833 O 657.048 -1.60044 4.0782 0
M  V30 6834 C 658.549 -3.1364 3.13281 0
M  V30 6835 H 655.769 -0.353562 0.570293 0
M  V30 6836 H 658.313 -0.480083 1.98785 0
M  V30 6837 H 656.468 -2.89242 2.57717 0
M  V30 6838 H 656.882 -2.30484 4.71145 0
M  V30 6839 H 658.356 -3.84255 3.96298 0
M  V30 6840 H 658.833 -3.76066 2.26872 0
M  V30 6841 H 659.439 -2.53977 3.41139 0
M  V30 6842 N 657.755 -1.42862 -0.66545 0
M  V30 6843 C 658.685 -1.49867 -1.79059 0
M  V30 6844 C 659.666 -0.354394 -1.66367 0
M  V30 6845 O 660.851 -0.569969 -1.85647 0
M  V30 6846 C 657.981 -1.40943 -3.17415 0
M  V30 6847 C 656.935 -2.53495 -3.44854 0
M  V30 6848 C 656.261 -2.29626 -4.82883 0
M  V30 6849 C 657.561 -3.95781 -3.40815 0
M  V30 6850 H 659.255 -2.44037 -1.73453 0
M  V30 6851 H 656.801 -1.17456 -0.833071 0
M  V30 6852 H 658.754 -1.4445 -3.95869 0
M  V30 6853 H 657.478 -0.432716 -3.23721 0
M  V30 6854 H 656.137 -2.4932 -2.68766 0
M  V30 6855 H 655.785 -1.30226 -4.8585 0
M  V30 6856 H 655.485 -3.05065 -5.02204 0
M  V30 6857 H 657.009 -2.34897 -5.63609 0
M  V30 6858 H 658.423 -4.01508 -4.09224 0
M  V30 6859 H 656.82 -4.71148 -3.71672 0
M  V30 6860 H 657.89 -4.21786 -2.39216 0
M  V30 6861 N 659.233 0.902656 -1.29189 0
M  V30 6862 C 660.181 2.0278 -1.13943 0
M  V30 6863 C 661.175 1.69308 -0.055787 0
M  V30 6864 O 662.381 1.78707 -0.215371 0
M  V30 6865 H 658.756 0.664595 -0.351877 0
M  V30 6866 H 660.727 2.12778 -2.09208 0
M  V30 6867 C 659.476 3.37657 -0.82966 0
M  V30 6868 H 658.799 3.63913 -1.65551 0
M  V30 6869 H 660.239 4.17078 -0.762998 0
M  V30 6870 C 658.698 3.33648 0.466991 0
M  V30 6871 O 659.228 3.72886 1.49395 0
M  V30 6872 N 657.434 2.86745 0.471761 0
M  V30 6873 H 656.981 2.55009 -0.364406 0
M  V30 6874 H 656.939 2.84446 1.33933 0
M  V30 6875 N 660.711 1.11618 1.11262 0
M  V30 6876 C 661.621 0.78898 2.20935 0
M  V30 6877 C 662.637 -0.21867 1.7262 0
M  V30 6878 O 663.813 -0.0543826 2.01327 0
M  V30 6879 C 660.878 0.239014 3.45875 0
M  V30 6880 C 659.939 1.3055 4.08968 0
M  V30 6881 C 659.172 0.781687 5.27944 0
M  V30 6882 O 659.395 -0.387605 5.69082 0
M  V30 6883 O 658.329 1.54734 5.81671 0
M  V30 6884 H 662.155 1.70477 2.51339 0
M  V30 6885 H 659.74 0.892203 1.19834 0
M  V30 6886 H 661.622 -0.0632312 4.21353 0
M  V30 6887 H 660.297 -0.649454 3.17118 0
M  V30 6888 H 659.204 1.66079 3.35214 0
M  V30 6889 H 660.537 2.16743 4.41909 0
M  V30 6890 N 662.189 -1.289 0.906776 0
M  V30 6891 C 663.466 -1.90221 0.455537 0
M  V30 6892 C 663.846 -1.82251 -1.06527 0
M  V30 6893 O 663.194 -1.25385 -1.91026 0
M  V30 6894 C 663.404 -3.35015 0.97806 0
M  V30 6895 C 664.752 -4.12018 1.02598 0
M  V30 6896 O 665.776 -3.43947 0.926218 0
M  V30 6897 O 664.635 -5.33677 1.17689 0
M  V30 6898 H 661.729 -0.814505 0.143214 0
M  V30 6899 H 664.275 -1.37317 0.997104 0
M  V30 6900 H 663.047 -3.35006 2.02204 0
M  V30 6901 H 662.67 -3.95408 0.416914 0
M  V30 6902 N 663.667 -0.670007 -1.42649 0
M  V30 6903 C 664.597 -0.00258501 -2.335 0
M  V30 6904 C 665.578 0.794364 -1.50412 0
M  V30 6905 O 666.763 0.75248 -1.79029 0
M  V30 6906 C 663.893 0.952748 -3.33976 0
M  V30 6907 C 662.847 0.264733 -4.2718 0
M  V30 6908 C 662.173 1.33267 -5.17826 0
M  V30 6909 C 663.473 -0.853289 -5.15283 0
M  V30 6910 H 665.167 -0.761326 -2.89559 0
M  V30 6911 H 662.713 -0.367561 -1.3923 0
M  V30 6912 H 664.666 1.4287 -3.96442 0
M  V30 6913 H 663.39 1.74285 -2.7621 0
M  V30 6914 H 662.049 -0.190938 -3.66102 0
M  V30 6915 H 661.697 2.11464 -4.5639 0
M  V30 6916 H 661.397 0.877476 -5.81011 0
M  V30 6917 H 662.921 1.80965 -5.83167 0
M  V30 6918 H 664.335 -0.458763 -5.71462 0
M  V30 6919 H 662.732 -1.23398 -5.87276 0
M  V30 6920 H 663.802 -1.70412 -4.53969 0
M  V30 6921 N 665.145 1.52092 -0.413018 0
M  V30 6922 C 666.075 2.30021 0.401567 0
M  V30 6923 C 667.056 1.34395 1.04269 0
M  V30 6924 O 668.241 1.63304 1.05097 0
M  V30 6925 C 665.371 3.12447 1.51638 0
M  V30 6926 C 664.325 4.16153 1.00005 0
M  V30 6927 C 663.651 4.86948 2.20875 0
M  V30 6928 C 664.951 5.22275 0.0513757 0
M  V30 6929 H 666.645 2.98365 -0.248704 0
M  V30 6930 H 664.191 1.4349 -0.121052 0
M  V30 6931 H 666.144 3.65733 2.09326 0
M  V30 6932 H 664.868 2.41879 2.19458 0
M  V30 6933 H 663.527 3.63882 0.445549 0
M  V30 6934 H 663.175 4.12905 2.8726 0
M  V30 6935 H 662.875 5.57057 1.86978 0
M  V30 6936 H 664.399 5.43048 2.79162 0
M  V30 6937 H 665.813 5.70778 0.537176 0
M  V30 6938 H 664.21 5.9977 -0.198977 0
M  V30 6939 H 665.28 4.76611 -0.892736 0
M  V30 6940 N 666.623 0.143563 1.56945 0
M  V30 6941 C 667.533 -0.810562 2.20152 0
M  V30 6942 C 668.549 -1.27431 1.1848 0
M  V30 6943 O 669.725 -1.33221 1.51044 0
M  V30 6944 C 666.79 -2.03353 2.80799 0
M  V30 6945 C 665.851 -1.61936 3.97587 0
M  V30 6946 C 665.084 -2.78403 4.55332 0
M  V30 6947 O 665.307 -3.94521 4.11958 0
M  V30 6948 O 664.241 -2.54073 5.45647 0
M  V30 6949 H 668.067 -0.30253 3.02189 0
M  V30 6950 H 665.652 -0.0832925 1.49168 0
M  V30 6951 H 667.534 -2.74932 3.19359 0
M  V30 6952 H 666.209 -2.53116 2.01777 0
M  V30 6953 H 665.116 -0.873904 3.6375 0
M  V30 6954 H 666.449 -1.16892 4.78118 0
M  V30 6955 N 668.101 -1.57061 -0.130224 0
M  V30 6956 C 669.35 -1.83446 -0.838488 0
M  V30 6957 C 669.663 -0.727468 -1.81569 0
M  V30 6958 O 670.869 -0.877394 -2.56932 0
M  V30 6959 C 669.325 -3.25201 -1.54182 0
M  V30 6960 C 668.933 -4.4388 -0.606178 0
M  V30 6961 C 670.677 -3.60844 -2.23588 0
M  V30 6962 C 668.584 -5.76661 -1.31209 0
M  V30 6963 H 667.514 -0.684185 -0.316871 0
M  V30 6964 H 670.165 -1.83273 -0.0912059 0
M  V30 6965 H 668.547 -3.1981 -2.33533 0
M  V30 6966 H 669.721 -4.60545 0.153308 0
M  V30 6967 H 668.036 -4.16395 -0.0196705 0
M  V30 6968 H 670.633 -4.57313 -2.77072 0
M  V30 6969 H 670.976 -2.87724 -3.00867 0
M  V30 6970 H 671.509 -3.67971 -1.51137 0
M  V30 6971 H 668.248 -6.52922 -0.580823 0
M  V30 6972 H 667.768 -5.63902 -2.04387 0
M  V30 6973 H 669.447 -6.20035 -1.8484 0
M  V30 6974 N 669.579 0.400081 -1.52437 0
M  V30 6975 C 670.509 1.4947 -1.7939 0
M  V30 6976 C 671.49 1.57383 -0.645329 0
M  V30 6977 O 672.675 1.72511 -0.891826 0
M  V30 6978 C 669.805 2.87201 -1.95276 0
M  V30 6979 C 668.759 2.94134 -3.10917 0
M  V30 6980 C 668.085 4.34207 -3.1204 0
M  V30 6981 C 669.385 2.64791 -4.50203 0
M  V30 6982 H 671.079 1.27165 -2.71052 0
M  V30 6983 H 668.625 0.610312 -1.30427 0
M  V30 6984 H 670.578 3.63772 -2.12715 0
M  V30 6985 H 669.302 3.10819 -1.00294 0
M  V30 6986 H 667.961 2.20009 -2.93243 0
M  V30 6987 H 667.609 4.54848 -2.14761 0
M  V30 6988 H 667.309 4.39768 -3.89715 0
M  V30 6989 H 668.833 5.127 -3.31619 0
M  V30 6990 H 670.247 3.31083 -4.68035 0
M  V30 6991 H 668.644 2.81717 -5.29864 0
M  V30 6992 H 669.714 1.60184 -4.57678 0
M  V30 6993 N 671.057 1.43213 0.657864 0
M  V30 6994 C 672.282 1.48227 1.45064 0
M  V30 6995 C 672.707 0.0999939 1.87834 0
M  V30 6996 O 672.065 -0.905269 1.57081 0
M  V30 6997 C 672.113 2.42931 2.6649 0
M  V30 6998 O 671.217 1.91237 3.6538 0
M  V30 6999 H 670.558 0.501551 0.435135 0
M  V30 7000 H 673.088 1.8808 0.805431 0
M  V30 7001 H 673.098 2.6008 3.1436 0
M  V30 7002 H 671.773 3.43348 2.34701 0
M  V30 7003 H 670.35 1.83726 3.24498 0
M  V30 7004 N 672.536 -0.895792 1.29666 0
M  V30 7005 C 673.952 -1.17726 1.07763 0
M  V30 7006 C 674.152 -2.00794 -0.168576 0
M  V30 7007 O 673.208 -2.37213 -0.865244 0
M  V30 7008 C 674.521 -1.89441 2.33522 0
M  V30 7009 C 676.069 -2.02251 2.3888 0
M  V30 7010 C 676.544 -2.77378 3.64452 0
M  V30 7011 N 678.035 -2.8493 3.65198 0
M  V30 7012 C 678.77 -3.43606 4.59045 0
M  V30 7013 N 678.266 -4.03417 5.63228 0
M  V30 7014 N 680.059 -3.41317 4.46608 0
M  V30 7015 H 672.21 -0.341652 2.09634 0
M  V30 7016 H 674.473 -0.213865 0.923561 0
M  V30 7017 H 674.179 -1.35842 3.24407 0
M  V30 7018 H 674.053 -2.89893 2.41334 0
M  V30 7019 H 676.44 -2.55025 1.4848 0
M  V30 7020 H 676.521 -1.0092 2.3505 0
M  V30 7021 H 676.165 -2.25279 4.55205 0
M  V30 7022 H 676.095 -3.79062 3.65541 0
M  V30 7023 H 678.586 -2.42453 2.89871 0
M  V30 7024 H 678.899 -4.46224 6.30955 0
M  V30 7025 H 677.244 -4.01868 5.67033 0
M  V30 7026 H 680.435 -2.93812 3.64407 0
M  V30 7027 H 680.608 -3.86751 5.1993 0
M  V30 7028 N 674.014 -1.12206 -1.10668 0
M  V30 7029 C 674.924 -0.800686 -2.20513 0
M  V30 7030 C 675.94 0.209512 -1.72734 0
M  V30 7031 O 677.116 0.043705 -2.01353 0
M  V30 7032 C 674.181 -0.257353 -3.45744 0
M  V30 7033 C 673.242 -1.32718 -4.0827 0
M  V30 7034 C 672.475 -0.809674 -5.27522 0
M  V30 7035 O 672.698 0.35742 -5.69279 0
M  V30 7036 O 671.632 -1.57816 -5.80842 0
M  V30 7037 H 675.458 -1.71807 -2.50432 0
M  V30 7038 H 673.043 -0.898546 -1.19359 0
M  V30 7039 H 674.925 0.0408849 -4.2138 0
M  V30 7040 H 673.6 0.632627 -3.17458 0
M  V30 7041 H 672.507 -1.67855 -3.34329 0
M  V30 7042 H 673.84 -2.19083 -4.40753 0
M  V30 7043 N 675.492 1.28418 -0.913599 0
M  V30 7044 C 676.908 1.47411 -0.611728 0
M  V30 7045 C 677.108 1.83018 0.843008 0
M  V30 7046 O 676.164 1.93505 1.6221 0
M  V30 7047 C 677.477 2.57703 -1.5495 0
M  V30 7048 C 679.025 2.71572 -1.5562 0
M  V30 7049 C 679.5 3.85008 -2.48058 0
M  V30 7050 N 680.991 3.92361 -2.46184 0
M  V30 7051 C 681.726 4.79516 -3.14407 0
M  V30 7052 N 681.222 5.71262 -3.91958 0
M  V30 7053 N 683.015 4.73125 -3.03495 0
M  V30 7054 H 675.166 1.03585 -1.85429 0
M  V30 7055 H 677.429 0.515907 -0.795326 0
M  V30 7056 H 677.135 2.38298 -2.58663 0
M  V30 7057 H 677.009 3.54801 -1.28048 0
M  V30 7058 H 679.396 2.90366 -0.526441 0
M  V30 7059 H 679.477 1.75006 -1.86565 0
M  V30 7060 H 679.121 3.66969 -3.51136 0
M  V30 7061 H 679.051 4.80971 -2.14416 0
M  V30 7062 H 681.542 3.26749 -1.89851 0
M  V30 7063 H 681.855 6.34593 -4.41034 0
M  V30 7064 H 680.2 5.71103 -3.96063 0
M  V30 7065 H 683.391 4.00442 -2.42413 0
M  V30 7066 H 683.564 5.40834 -3.56935 0
M  V30 7067 N 676.97 0.677563 1.42291 0
M  V30 7068 C 678.216 0.201272 2.01799 0
M  V30 7069 C 678.549 -1.19004 1.53465 0
M  V30 7070 O 677.824 -1.79953 0.738039 0
M  V30 7071 C 678.107 0.238968 3.59306 0
M  V30 7072 C 677.96 1.66594 4.17812 0
M  V30 7073 C 679.279 -0.411287 4.38174 0
M  V30 7074 H 676.398 0.0746114 0.733214 0
M  V30 7075 H 679.04 0.862872 1.69276 0
M  V30 7076 H 677.19 -0.324368 3.87144 0
M  V30 7077 H 678.862 2.28173 4.00917 0
M  V30 7078 H 677.105 2.20576 3.73536 0
M  V30 7079 H 677.776 1.64398 5.26951 0
M  V30 7080 H 680.252 0.0682804 4.16044 0
M  V30 7081 H 679.128 -0.354286 5.47755 0
M  V30 7082 H 679.389 -1.4893 4.1626 0
M  V30 7083 N 678.448 -1.51871 0.421078 0
M  V30 7084 C 679.396 -2.28903 -0.413066 0
M  V30 7085 C 680.39 -1.3408 -1.03532 0
M  V30 7086 O 681.596 -1.5149 -0.972146 0
M  V30 7087 H 677.971 -0.736478 -0.152003 0
M  V30 7088 H 679.942 -2.97285 0.257695 0
M  V30 7089 C 678.691 -3.13156 -1.51091 0
M  V30 7090 H 678.014 -3.85997 -1.04145 0
M  V30 7091 H 679.454 -3.7014 -2.06814 0
M  V30 7092 C 677.913 -2.27482 -2.48503 0
M  V30 7093 O 678.443 -1.92325 -3.52667 0
M  V30 7094 N 676.649 -1.91019 -2.18998 0
M  V30 7095 H 676.196 -2.19808 -1.34322 0
M  V30 7096 H 676.154 -1.3399 -2.84419 0
M  V30 7097 N 679.926 -0.151884 -1.56866 0
M  V30 7098 C 681.175 0.497992 -1.95456 0
M  V30 7099 C 681.488 1.6569 -1.03953 0
M  V30 7100 O 682.694 2.37173 -1.32142 0
M  V30 7101 C 681.15 0.93732 -3.4748 0
M  V30 7102 C 680.758 -0.194921 -4.47576 0
M  V30 7103 C 682.502 1.55671 -3.94926 0
M  V30 7104 C 680.409 0.26295 -5.90815 0
M  V30 7105 H 679.339 0.189811 -0.729717 0
M  V30 7106 H 681.99 -0.237011 -1.81963 0
M  V30 7107 H 680.372 1.72773 -3.56322 0
M  V30 7108 H 681.546 -0.971951 -4.50433 0
M  V30 7109 H 679.861 -0.72303 -4.10075 0
M  V30 7110 H 682.458 1.91099 -4.99385 0
M  V30 7111 H 682.801 2.44748 -3.36755 0
M  V30 7112 H 683.334 0.831109 -3.89021 0
M  V30 7113 H 680.073 -0.592568 -6.52816 0
M  V30 7114 H 679.593 1.00575 -5.91308 0
M  V30 7115 H 681.272 0.713333 -6.43056 0
M  V30 7116 N 681.404 1.57128 0.121893 0
M  V30 7117 C 682.352 2.01109 1.16868 0
M  V30 7118 C 683.346 0.907532 1.43039 0
M  V30 7119 O 684.552 1.09274 1.43036 0
M  V30 7120 H 680.927 0.640539 0.393971 0
M  V30 7121 H 682.898 2.88261 0.771224 0
M  V30 7122 C 681.647 2.42887 2.48799 0
M  V30 7123 H 680.97 3.2737 2.29498 0
M  V30 7124 H 682.41 2.77461 3.20611 0
M  V30 7125 C 680.869 1.29137 3.11168 0
M  V30 7126 O 681.399 0.605756 3.97106 0
M  V30 7127 N 679.605 1.04916 2.71 0
M  V30 7128 H 679.152 1.60848 2.01211 0
M  V30 7129 H 679.11 0.290016 3.1306 0
M  V30 7130 N 682.882 -0.391992 1.52647 0
M  V30 7131 C 684.131 -1.13449 1.6677 0
M  V30 7132 C 684.444 -1.91203 0.412399 0
M  V30 7133 O 685.65 -2.68013 0.433707 0
M  V30 7134 C 684.106 -2.06577 2.9471 0
M  V30 7135 C 683.714 -1.3426 4.27409 0
M  V30 7136 C 685.458 -2.80981 3.18198 0
M  V30 7137 C 683.365 -2.26136 5.46458 0
M  V30 7138 H 682.295 -0.427211 0.621295 0
M  V30 7139 H 684.946 -0.397522 1.79142 0
M  V30 7140 H 683.328 -2.83898 2.76076 0
M  V30 7141 H 684.502 -0.621856 4.56585 0
M  V30 7142 H 682.817 -0.718279 4.10158 0
M  V30 7143 H 685.414 -3.49898 4.04321 0
M  V30 7144 H 685.757 -3.44891 2.33144 0
M  V30 7145 H 686.29 -2.10754 3.37383 0
M  V30 7146 H 683.029 -1.66846 6.33911 0
M  V30 7147 H 682.549 -2.96134 5.21598 0
M  V30 7148 H 684.228 -2.86286 5.80215 0
M  V30 7149 N 684.36 -1.4356 -0.65026 0
M  V30 7150 C 685.606 -1.45549 -1.41221 0
M  V30 7151 C 685.939 -0.0805472 -1.94033 0
M  V30 7152 O 685.214 0.899043 -1.72475 0
M  V30 7153 C 685.497 -2.50028 -2.59148 0
M  V30 7154 C 685.35 -3.96808 -2.1181 0
M  V30 7155 C 686.669 -2.51212 -3.61359 0
M  V30 7156 H 683.788 -0.529967 -0.512156 0
M  V30 7157 H 686.43 -1.75127 -0.736933 0
M  V30 7158 H 684.58 -2.24937 -3.16758 0
M  V30 7159 H 686.252 -4.32966 -1.59178 0
M  V30 7160 H 684.495 -4.09498 -1.43156 0
M  V30 7161 H 685.166 -4.6553 -2.96625 0
M  V30 7162 H 687.642 -2.73583 -3.13515 0
M  V30 7163 H 686.518 -3.26252 -4.41419 0
M  V30 7164 H 686.779 -1.54701 -4.1415 0
M  V30 7165 N 685.838 0.888903 -1.30139 0
M  V30 7166 C 687.086 1.63713 -1.18501 0
M  V30 7167 C 687.407 1.9324 0.261399 0
M  V30 7168 O 686.677 1.56608 1.17689 0
M  V30 7169 H 685.257 0.606861 -0.435579 0
M  V30 7170 H 687.919 1.06525 -1.63213 0
M  V30 7171 H 687.015 2.58894 -1.743 0
M  V30 7172 N 687.317 1.12792 1.10072 0
M  V30 7173 C 688.594 0.796867 1.78632 0
M  V30 7174 C 688.974 -0.712739 1.98704 0
M  V30 7175 O 688.322 -1.64773 1.5831 0
M  V30 7176 C 688.532 1.57622 3.11378 0
M  V30 7177 C 689.88 1.76463 3.86194 0
M  V30 7178 O 690.904 1.54165 3.2111 0
M  V30 7179 O 689.763 2.13623 5.03018 0
M  V30 7180 H 686.857 0.290248 0.774394 0
M  V30 7181 H 689.403 1.23215 1.16688 0
M  V30 7182 H 688.175 2.60246 2.92212 0
M  V30 7183 H 687.798 1.13543 3.81043 0
M  V30 7184 N 688.795 -1.27931 0.920396 0
M  V30 7185 C 690.042 -1.94689 0.557007 0
M  V30 7186 C 690.37 -1.724 -0.900476 0
M  V30 7187 O 689.625 -1.04194 -1.65657 0
M  V30 7188 C 689.924 -3.47853 0.820558 0
M  V30 7189 C 689.59 -3.90252 2.25863 0
M  V30 7190 C 688.252 -4.01539 2.65179 0
M  V30 7191 C 690.604 -4.11853 3.19415 0
M  V30 7192 C 687.932 -4.3181 3.97187 0
M  V30 7193 C 690.284 -4.43606 4.50995 0
M  V30 7194 C 688.948 -4.53105 4.90155 0
M  V30 7195 H 688.218 -0.712416 0.203823 0
M  V30 7196 H 690.865 -1.52142 1.16298 0
M  V30 7197 H 689.17 -3.91578 0.131844 0
M  V30 7198 H 690.867 -3.97634 0.51847 0
M  V30 7199 H 687.457 -3.81999 1.94358 0
M  V30 7200 H 691.641 -4.0258 2.90246 0
M  V30 7201 H 686.897 -4.37371 4.2722 0
M  V30 7202 H 691.071 -4.59268 5.23494 0
M  V30 7203 H 688.698 -4.76315 5.92476 0
M  V30 7204 N 690.273 -0.685099 -1.4193 0
M  V30 7205 C 691.223 0.00977295 -2.27998 0
M  V30 7206 C 692.207 0.763315 -1.41641 0
M  V30 7207 O 693.399 0.640532 -1.65004 0
M  V30 7208 C 690.528 0.952972 -3.29808 0
M  V30 7209 C 689.614 0.196231 -4.23646 0
M  V30 7210 N 690.005 -0.804401 -4.99363 0
M  V30 7211 C 688.303 0.433213 -4.43891 0
M  V30 7212 C 689.004 -1.25646 -5.67968 0
M  V30 7213 N 687.98 -0.5844 -5.4045 0
M  V30 7214 H 691.782 -0.757586 -2.83968 0
M  V30 7215 H 689.296 -0.515037 -1.54017 0
M  V30 7216 H 691.293 1.46585 -3.9028 0
M  V30 7217 H 689.953 1.72004 -2.75399 0
M  V30 7218 H 690.964 -1.18429 -5.04177 0
M  V30 7219 H 687.641 1.17899 -4.00507 0
M  V30 7220 H 689.031 -2.08622 -6.38691 0
M  V30 7221 N 691.751 1.51645 -0.429126 0
M  V30 7222 C 692.681 2.30434 0.377148 0
M  V30 7223 C 693.662 1.35493 1.02838 0
M  V30 7224 O 694.847 1.6441 1.03359 0
M  V30 7225 C 691.977 3.14038 1.48315 0
M  V30 7226 C 690.931 4.1719 0.955855 0
M  V30 7227 C 690.257 4.89263 2.15698 0
M  V30 7228 C 691.557 5.223 -0.00402136 0
M  V30 7229 H 693.251 2.98085 -0.280336 0
M  V30 7230 H 690.797 1.43354 -0.136265 0
M  V30 7231 H 692.75 3.67933 2.05435 0
M  V30 7232 H 691.474 2.44193 2.16881 0
M  V30 7233 H 690.133 3.64335 0.406929 0
M  V30 7234 H 689.781 4.15929 2.82864 0
M  V30 7235 H 689.481 5.59009 1.81059 0
M  V30 7236 H 691.005 5.45978 2.73387 0
M  V30 7237 H 692.419 5.71315 0.476607 0
M  V30 7238 H 690.816 5.99525 -0.26258 0
M  V30 7239 H 691.886 4.75638 -0.943236 0
M  V30 7240 N 693.229 0.160201 1.56784 0
M  V30 7241 C 694.177 -0.791402 2.18723 0
M  V30 7242 C 695.171 -1.24567 1.14801 0
M  V30 7243 O 696.377 -1.21262 1.33025 0
M  V30 7244 H 692.752 -0.273458 0.700517 0
M  V30 7245 H 694.723 -0.244931 2.97393 0
M  V30 7246 C 693.472 -2.01509 2.83354 0
M  V30 7247 H 692.795 -1.67454 3.63041 0
M  V30 7248 H 694.235 -2.66006 3.30177 0
M  V30 7249 C 692.694 -2.83159 1.82545 0
M  V30 7250 O 693.224 -3.79944 1.30405 0
M  V30 7251 N 691.43 -2.47953 1.51552 0
M  V30 7252 H 690.977 -1.69309 1.94144 0
M  V30 7253 H 690.935 -3.02873 0.843519 0
M  V30 7254 N 694.707 -1.5719 -0.113559 0
M  V30 7255 C 695.617 -2.04041 -1.15777 0
M  V30 7256 C 696.633 -0.961812 -1.45001 0
M  V30 7257 O 697.809 -1.2737 -1.56009 0
M  V30 7258 C 694.874 -2.43994 -2.46308 0
M  V30 7259 C 693.935 -3.65962 -2.24433 0
M  V30 7260 C 693.168 -4.04 -3.4874 0
M  V30 7261 O 693.391 -3.42321 -4.56259 0
M  V30 7262 O 692.325 -4.97069 -3.3942 0
M  V30 7263 H 696.151 -2.93248 -0.789899 0
M  V30 7264 H 693.736 -1.45828 -0.324748 0
M  V30 7265 H 695.618 -2.70401 -3.23204 0
M  V30 7266 H 694.293 -1.57932 -2.82558 0
M  V30 7267 H 693.2 -3.44697 -1.45377 0
M  V30 7268 H 694.533 -4.52746 -1.93084 0
M  V30 7269 N 696.185 0.383891 -1.52853 0
M  V30 7270 C 697.095 1.49343 -1.80925 0
M  V30 7271 C 698.111 1.59458 -0.696348 0
M  V30 7272 O 699.287 1.75698 -0.984481 0
M  V30 7273 C 696.352 2.84819 -1.97684 0
M  V30 7274 C 695.413 2.84382 -3.21598 0
M  V30 7275 C 694.646 4.13397 -3.37548 0
M  V30 7276 O 694.869 5.08619 -2.58192 0
M  V30 7277 O 693.803 4.20325 -4.30826 0
M  V30 7278 H 697.629 1.2855 -2.75152 0
M  V30 7279 H 695.214 0.572229 -1.38007 0
M  V30 7280 H 697.096 3.65125 -2.10385 0
M  V30 7281 H 695.771 3.05627 -1.06647 0
M  V30 7282 H 694.678 2.0284 -3.14336 0
M  V30 7283 H 696.011 2.68526 -4.12498 0
M  V30 7284 N 697.663 1.43903 0.642637 0
M  V30 7285 C 698.909 1.46296 1.40447 0
M  V30 7286 C 699.242 0.0908361 1.93987 0
M  V30 7287 O 698.517 -0.889884 1.72949 0
M  V30 7288 C 698.8 2.51399 2.57819 0
M  V30 7289 C 698.653 3.97926 2.09702 0
M  V30 7290 C 699.972 2.53125 3.60022 0
M  V30 7291 H 697.091 0.532676 0.509338 0
M  V30 7292 H 699.733 1.75515 0.727635 0
M  V30 7293 H 697.883 2.26614 3.1556 0
M  V30 7294 H 699.555 4.33804 1.5688 0
M  V30 7295 H 697.798 4.10252 1.40982 0
M  V30 7296 H 698.469 4.67096 2.94152 0
M  V30 7297 H 700.945 2.75242 3.12059 0
M  V30 7298 H 699.821 3.28589 4.39682 0
M  V30 7299 H 700.082 1.56895 4.13324 0
M  V30 7300 N 699.141 -0.881989 1.30609 0
M  V30 7301 C 700.104 -1.96957 1.1722 0
M  V30 7302 C 701.104 -1.60472 0.102598 0
M  V30 7303 O 702.294 -1.70628 0.350943 0
M  V30 7304 C 699.426 -3.31463 0.796572 0
M  V30 7305 H 700.619 -2.10262 2.13846 0
M  V30 7306 H 698.172 -1.06877 1.14048 0
M  V30 7307 H 698.907 -3.23859 -0.169053 0
M  V30 7308 H 698.692 -3.59314 1.56959 0
M  V30 7309 H 700.182 -4.11233 0.72645 0
M  V30 7310 N 700.619 -1.13374 -1.09472 0
M  V30 7311 C 701.868 -0.889844 -1.8101 0
M  V30 7312 C 702.181 0.585686 -1.86625 0
M  V30 7313 O 703.387 0.946497 -2.54467 0
M  V30 7314 C 701.843 -1.54241 -3.25174 0
M  V30 7315 C 701.451 -3.05343 -3.27826 0
M  V30 7316 C 703.195 -1.37919 -4.0147 0
M  V30 7317 C 701.102 -3.63486 -4.6651 0
M  V30 7318 H 700.032 -0.329256 -0.678311 0
M  V30 7319 H 702.683 -1.36139 -1.23038 0
M  V30 7320 H 701.065 -0.998525 -3.83204 0
M  V30 7321 H 702.239 -3.66307 -2.79563 0
M  V30 7322 H 700.554 -3.21175 -2.65019 0
M  V30 7323 H 703.151 -1.78771 -5.03929 0
M  V30 7324 H 703.494 -0.323987 -4.15037 0
M  V30 7325 H 704.027 -1.89284 -3.49881 0
M  V30 7326 H 700.766 -4.68811 -4.58145 0
M  V30 7327 H 700.286 -3.073 -5.15099 0
M  V30 7328 H 701.965 -3.63134 -5.35484 0
M  V30 7329 N 702.098 1.27442 -0.927168 0
M  V30 7330 C 703.347 1.93679 -0.563146 0
M  V30 7331 C 703.66 1.73673 0.899837 0
M  V30 7332 O 704.866 2.34247 1.37262 0
M  V30 7333 C 703.322 3.46961 -0.95636 0
M  V30 7334 C 702.93 3.75724 -2.43999 0
M  V30 7335 C 704.674 4.19282 -0.663565 0
M  V30 7336 C 702.581 5.22378 -2.77263 0
M  V30 7337 H 701.511 0.725059 -0.206894 0
M  V30 7338 H 704.162 1.44743 -1.12791 0
M  V30 7339 H 702.544 3.94703 -0.320254 0
M  V30 7340 H 703.718 3.38741 -3.12396 0
M  V30 7341 H 702.033 3.16605 -2.70463 0
M  V30 7342 H 704.63 5.27265 -0.888596 0
M  V30 7343 H 704.973 4.14382 0.399198 0
M  V30 7344 H 705.506 3.7736 -1.25875 0
M  V30 7345 H 702.245 5.32367 -3.82446 0
M  V30 7346 H 701.765 5.6051 -2.13516 0
M  V30 7347 H 703.444 5.9025 -2.64979 0
M  V30 7348 N 703.576 0.692616 1.41565 0
M  V30 7349 C 704.506 0.0397325 2.33466 0
M  V30 7350 C 705.487 -0.770334 1.51657 0
M  V30 7351 O 706.672 -0.723903 1.80203 0
M  V30 7352 C 703.802 -0.899495 3.3545 0
M  V30 7353 C 702.756 -0.196738 4.27548 0
M  V30 7354 C 702.082 -1.25012 5.19881 0
M  V30 7355 C 703.382 0.935158 5.1386 0
M  V30 7356 H 705.076 0.807296 2.88311 0
M  V30 7357 H 702.622 0.389665 1.38628 0
M  V30 7358 H 704.575 -1.36545 3.98665 0
M  V30 7359 H 703.299 -1.69869 2.78948 0
M  V30 7360 H 701.958 0.249158 3.65752 0
M  V30 7361 H 701.606 -2.04177 4.59696 0
M  V30 7362 H 701.306 -0.784931 5.82334 0
M  V30 7363 H 702.83 -1.71665 5.85972 0
M  V30 7364 H 704.244 0.549619 5.70659 0
M  V30 7365 H 702.641 1.32726 5.85238 0
M  V30 7366 H 703.711 1.77613 4.512 0
M  V30 7367 N 705.054 -1.51416 0.437162 0
M  V30 7368 C 706.017 -2.26312 -0.362729 0
M  V30 7369 C 707.017 -1.29748 -0.949847 0
M  V30 7370 O 708.207 -1.53462 -0.824325 0
M  V30 7371 C 705.339 -3.05475 -1.5132 0
M  V30 7372 H 706.532 -2.98459 0.29365 0
M  V30 7373 H 704.085 -1.55137 0.190327 0
M  V30 7374 H 704.82 -2.37744 -2.20563 0
M  V30 7375 H 704.605 -3.76401 -1.09838 0
M  V30 7376 H 706.095 -3.62209 -2.07833 0
M  V30 7377 N 706.532 -0.168513 -1.56696 0
M  V30 7378 C 707.757 0.486688 -2.01609 0
M  V30 7379 C 708.182 1.56203 -1.04796 0
M  V30 7380 O 707.54 1.8128 -0.0270596 0
M  V30 7381 C 707.588 1.04451 -3.45141 0
M  V30 7382 O 706.692 2.15862 -3.51393 0
M  V30 7383 H 706.033 0.116831 -0.653641 0
M  V30 7384 H 708.563 -0.271579 -2.0279 0
M  V30 7385 H 708.573 1.36782 -3.84389 0
M  V30 7386 H 707.248 0.257155 -4.15104 0
M  V30 7387 H 705.825 1.84597 -3.24004 0
M  V30 7388 N 708.01 1.57248 0.105221 0
M  V30 7389 C 709.257 1.8557 0.810552 0
M  V30 7390 C 709.585 0.755595 1.79223 0
M  V30 7391 O 708.84 -0.251788 1.94073 0
M  V30 7392 C 709.139 3.20437 1.58287 0
M  V30 7393 C 708.805 4.44716 0.744235 0
M  V30 7394 C 707.467 4.78458 0.513013 0
M  V30 7395 C 709.819 5.20953 0.160578 0
M  V30 7396 C 707.147 5.8587 -0.311894 0
M  V30 7397 C 709.499 6.29235 -0.651596 0
M  V30 7398 C 708.163 6.615 -0.893005 0
M  V30 7399 H 707.433 0.67905 0.296602 0
M  V30 7400 H 710.08 1.91363 0.0723968 0
M  V30 7401 H 708.385 3.10283 2.39232 0
M  V30 7402 H 710.082 3.39576 2.13282 0
M  V30 7403 H 706.672 4.18287 0.934555 0
M  V30 7404 H 710.856 4.95226 0.3264 0
M  V30 7405 H 706.112 6.09286 -0.508012 0
M  V30 7406 H 710.286 6.87484 -1.11077 0
M  V30 7407 H 707.913 7.44562 -1.53401 0
M  V30 7408 N 709.488 -0.375779 1.53054 0
M  V30 7409 C 710.713 -1.14484 1.7294 0
M  V30 7410 C 711.138 -1.82572 0.452668 0
M  V30 7411 O 710.496 -1.71343 -0.592567 0
M  V30 7412 C 710.544 -2.15857 2.88857 0
M  V30 7413 O 709.648 -3.22725 2.56753 0
M  V30 7414 H 708.989 -0.332666 0.574656 0
M  V30 7415 H 711.519 -0.436025 1.999 0
M  V30 7416 H 711.529 -2.59631 3.14731 0
M  V30 7417 H 710.204 -1.65689 3.81471 0
M  V30 7418 H 708.781 -2.83996 2.41663 0
M  V30 7419 N 710.966 -1.44241 -0.634997 0
M  V30 7420 C 711.929 -1.50457 -1.72903 0
M  V30 7421 C 712.929 -0.387058 -1.56072 0
M  V30 7422 O 714.119 -0.649531 -1.61638 0
M  V30 7423 C 711.251 -1.37477 -3.1195 0
M  V30 7424 H 712.444 -2.47907 -1.68767 0
M  V30 7425 H 709.997 -1.31276 -0.84831 0
M  V30 7426 H 710.732 -0.41106 -3.21684 0
M  V30 7427 H 710.517 -2.18506 -3.25573 0
M  V30 7428 H 712.007 -1.44799 -3.91692 0
M  V30 7429 N 712.444 0.87505 -1.31075 0
M  V30 7430 C 713.669 1.66583 -1.23551 0
M  V30 7431 C 714.094 1.87067 0.19686 0
M  V30 7432 O 713.452 1.40877 1.1412 0
M  V30 7433 C 713.5 3.01401 -1.97965 0
M  V30 7434 O 712.604 3.90923 -1.31351 0
M  V30 7435 H 711.945 0.508645 -0.426821 0
M  V30 7436 H 714.475 1.09139 -1.7306 0
M  V30 7437 H 714.485 3.51374 -2.07366 0
M  V30 7438 H 713.16 2.85812 -3.02133 0
M  V30 7439 H 711.737 3.49369 -1.30368 0
M  V30 7440 N 713.922 1.13953 1.08869 0
M  V30 7441 C 715.15 0.92817 1.84912 0
M  V30 7442 C 715.565 -0.523197 1.81406 0
M  V30 7443 O 714.922 -1.36237 1.21432 0
M  V30 7444 C 714.973 1.41509 3.32652 0
M  V30 7445 O 714.694 2.80959 3.36145 0
M  V30 7446 C 716.195 1.243 4.25517 0
M  V30 7447 H 713.415 0.330612 0.583898 0
M  V30 7448 H 715.959 1.51349 1.37527 0
M  V30 7449 H 714.114 0.872648 3.77444 0
M  V30 7450 H 714.528 3.02704 4.28335 0
M  V30 7451 H 716.002 1.63237 5.27312 0
M  V30 7452 H 716.479 0.18532 4.38809 0
M  V30 7453 H 717.085 1.77375 3.86546 0
M  V30 7454 N 715.4 -1.26948 0.933913 0
M  V30 7455 C 716.625 -1.98724 0.593589 0
M  V30 7456 C 717.05 -1.6915 -0.822801 0
M  V30 7457 O 716.408 -0.93533 -1.5531 0
M  V30 7458 C 716.456 -3.50834 0.833542 0
M  V30 7459 O 715.56 -4.12284 -0.0978788 0
M  V30 7460 H 714.901 -0.623683 0.227849 0
M  V30 7461 H 717.431 -1.61599 1.25486 0
M  V30 7462 H 717.441 -4.01018 0.75156 0
M  V30 7463 H 716.116 -3.71691 1.86597 0
M  V30 7464 H 714.693 -3.72884 0.0345443 0
M  V30 7465 N 716.879 -0.700114 -1.41195 0
M  V30 7466 C 717.842 -0.0465706 -2.29153 0
M  V30 7467 C 718.842 0.703302 -1.44604 0
M  V30 7468 O 720.032 0.537513 -1.657 0
M  V30 7469 C 717.164 0.944324 -3.2756 0
M  V30 7470 H 718.357 -0.821064 -2.88442 0
M  V30 7471 H 715.91 -0.463869 -1.49258 0
M  V30 7472 H 716.645 1.74642 -2.73259 0
M  V30 7473 H 716.43 0.409701 -3.89954 0
M  V30 7474 H 717.92 1.39925 -3.9346 0
M  V30 7475 N 718.357 1.51182 -0.445186 0
M  V30 7476 C 719.604 2.02152 0.118645 0
M  V30 7477 C 719.932 1.32888 1.42025 0
M  V30 7478 O 719.187 0.435041 1.90803 0
M  V30 7479 C 719.486 3.55408 0.376797 0
M  V30 7480 C 719.152 4.43008 -0.839945 0
M  V30 7481 C 717.814 4.66669 -1.17361 0
M  V30 7482 C 720.166 4.9435 -1.65127 0
M  V30 7483 C 717.494 5.38919 -2.31913 0
M  V30 7484 C 719.846 5.67857 -2.78786 0
M  V30 7485 C 718.51 5.89779 -3.12597 0
M  V30 7486 H 717.78 0.739727 0.0434152 0
M  V30 7487 H 720.427 1.82055 -0.593984 0
M  V30 7488 H 718.732 3.73879 1.1714 0
M  V30 7489 H 720.429 3.92388 0.826602 0
M  V30 7490 H 717.019 4.24793 -0.569958 0
M  V30 7491 H 721.203 4.75947 -1.4067 0
M  V30 7492 H 716.459 5.54105 -2.58413 0
M  V30 7493 H 720.633 6.06628 -3.42017 0
M  V30 7494 H 718.26 6.45542 -4.01471 0
M  V30 7495 N 719.835 0.176821 1.56605 0
M  V30 7496 C 721.084 -0.466833 1.96223 0
M  V30 7497 C 721.397 -1.64015 1.06576 0
M  V30 7498 O 722.603 -2.3504 1.35898 0
M  V30 7499 C 721.059 -0.881921 3.48927 0
M  V30 7500 C 720.667 0.266102 4.47209 0
M  V30 7501 C 722.411 -1.49368 3.97353 0
M  V30 7502 C 720.318 -0.168923 5.91159 0
M  V30 7503 H 719.248 -0.178178 0.732645 0
M  V30 7504 H 721.899 0.265929 1.81563 0
M  V30 7505 H 720.281 -1.67082 3.59026 0
M  V30 7506 H 721.455 1.04349 4.4883 0
M  V30 7507 H 719.77 0.788178 4.08872 0
M  V30 7508 H 722.367 -1.8313 5.02362 0
M  V30 7509 H 722.71 -2.3936 3.40606 0
M  V30 7510 H 723.243 -0.769114 3.90294 0
M  V30 7511 H 719.982 0.696351 6.51791 0
M  V30 7512 H 719.502 -0.911552 5.92833 0
M  V30 7513 H 721.181 -0.610938 6.44109 0
M  V30 7514 N 721.313 -1.57302 -0.09688 0
M  V30 7515 C 722.59 -1.7701 -0.832272 0
M  V30 7516 C 722.97 -0.758025 -1.97021 0
M  V30 7517 O 722.318 0.213824 -2.27497 0
M  V30 7518 C 722.528 -3.22725 -1.32851 0
M  V30 7519 C 723.876 -3.85856 -1.772 0
M  V30 7520 O 724.9 -3.26464 -1.42478 0
M  V30 7521 O 723.759 -4.90295 -2.41398 0
M  V30 7522 H 720.853 -0.725558 -0.396856 0
M  V30 7523 H 723.399 -1.69516 -0.0789005 0
M  V30 7524 H 722.171 -3.87921 -0.51312 0
M  V30 7525 H 721.794 -3.34845 -2.14394 0
M  V30 7526 N 722.791 0.367657 -1.53252 0
M  V30 7527 C 724.019 1.13119 -1.73239 0
M  V30 7528 C 724.434 1.831 -0.460404 0
M  V30 7529 O 723.791 1.73483 0.566557 0
M  V30 7530 C 723.842 2.16308 -2.89643 0
M  V30 7531 O 723.563 1.49175 -4.1192 0
M  V30 7532 C 725.064 3.05224 -3.21486 0
M  V30 7533 H 722.284 0.338318 -0.579467 0
M  V30 7534 H 724.828 0.42721 -1.99988 0
M  V30 7535 H 722.983 2.82307 -2.65295 0
M  V30 7536 H 723.397 2.17912 -4.7709 0
M  V30 7537 H 724.871 3.73613 -4.06346 0
M  V30 7538 H 725.348 3.69919 -2.36763 0
M  V30 7539 H 725.954 2.44843 -3.47753 0
M  V30 7540 N 724.269 1.44576 0.627338 0
M  V30 7541 C 725.518 1.46837 1.38281 0
M  V30 7542 C 725.831 0.10635 1.95311 0
M  V30 7543 O 727.037 0.00651084 2.71499 0
M  V30 7544 C 725.493 2.58527 2.50384 0
M  V30 7545 C 725.101 4.00953 1.99851 0
M  V30 7546 C 726.845 2.70013 3.27557 0
M  V30 7547 C 724.752 5.0406 3.09318 0
M  V30 7548 H 723.682 0.546319 0.519664 0
M  V30 7549 H 726.333 1.70654 0.674497 0
M  V30 7550 H 724.715 2.27957 3.23808 0
M  V30 7551 H 725.889 4.41108 1.33267 0
M  V30 7552 H 724.204 3.93743 1.35482 0
M  V30 7553 H 726.801 3.44217 4.09168 0
M  V30 7554 H 727.144 1.75961 3.77284 0
M  V30 7555 H 727.677 3.00011 2.61224 0
M  V30 7556 H 724.416 5.99753 2.6453 0
M  V30 7557 H 723.936 4.68493 3.74532 0
M  V30 7558 H 725.615 5.2793 3.74031 0
M  V30 7559 N 725.747 -0.868086 1.31537 0
M  V30 7560 C 726.694 -1.97548 1.19346 0
M  V30 7561 C 727.664 -1.65913 0.0787922 0
M  V30 7562 O 728.849 -1.89129 0.251985 0
M  V30 7563 C 725.989 -3.32922 0.908692 0
M  V30 7564 C 725.102 -3.77141 2.10687 0
M  V30 7565 C 724.237 -5.01241 1.75873 0
M  V30 7566 C 723.276 -5.37914 2.92088 0
M  V30 7567 N 722.413 -6.53192 2.57457 0
M  V30 7568 H 727.253 -2.07307 2.14074 0
M  V30 7569 H 724.79 -1.01483 1.06487 0
M  V30 7570 H 726.748 -4.10867 0.724138 0
M  V30 7571 H 725.378 -3.228 -0.0017611 0
M  V30 7572 H 724.43 -2.94961 2.40213 0
M  V30 7573 H 725.742 -4.00248 2.97663 0
M  V30 7574 H 724.896 -5.86858 1.53891 0
M  V30 7575 H 723.635 -4.80041 0.86091 0
M  V30 7576 H 722.64 -4.50814 3.14717 0
M  V30 7577 H 723.865 -5.61077 3.82582 0
M  V30 7578 H 721.811 -6.33536 1.702 0
M  V30 7579 H 721.728 -6.76252 3.37963 0
M  V30 7580 H 722.996 -7.41997 2.38873 0
M  V30 7581 N 727.225 -1.14528 -1.08264 0
M  V30 7582 C 728.45 -0.938381 -1.84957 0
M  V30 7583 C 728.875 0.508044 -1.81109 0
M  V30 7584 O 728.233 1.36146 -1.19724 0
M  V30 7585 C 728.281 -1.44568 -3.30352 0
M  V30 7586 O 727.385 -0.638745 -4.07423 0
M  V30 7587 H 726.726 -0.335394 -0.573068 0
M  V30 7588 H 729.256 -1.52287 -1.36637 0
M  V30 7589 H 729.266 -1.45449 -3.81194 0
M  V30 7590 H 727.941 -2.49876 -3.32468 0
M  V30 7591 H 726.518 -0.698801 -3.66294 0
M  V30 7592 N 728.703 1.26451 -0.940633 0
M  V30 7593 C 729.633 2.28773 -0.467479 0
M  V30 7594 C 730.614 1.63218 0.478955 0
M  V30 7595 O 731.799 1.90427 0.380929 0
M  V30 7596 C 728.929 3.46259 0.268656 0
M  V30 7597 C 727.883 4.23898 -0.591171 0
M  V30 7598 C 727.209 5.33993 0.274891 0
M  V30 7599 C 728.509 4.87974 -1.86223 0
M  V30 7600 H 730.203 2.68601 -1.32265 0
M  V30 7601 H 727.749 1.29123 -0.637436 0
M  V30 7602 H 729.702 4.16951 0.610696 0
M  V30 7603 H 728.426 3.05383 1.15796 0
M  V30 7604 H 727.085 3.54969 -0.916098 0
M  V30 7605 H 726.733 4.89358 1.16353 0
M  V30 7606 H 726.433 5.86849 -0.297006 0
M  V30 7607 H 727.957 6.07523 0.612213 0
M  V30 7608 H 729.371 5.50883 -1.58747 0
M  V30 7609 H 727.768 5.50945 -2.37866 0
M  V30 7610 H 728.838 4.10945 -2.57394 0
M  V30 7611 N 730.181 0.707592 1.40822 0
M  V30 7612 C 731.458 0.171172 1.9485 0
M  V30 7613 C 731.838 -1.32143 1.64625 0
M  V30 7614 O 731.186 -2.07372 0.959647 0
M  V30 7615 C 731.396 0.475334 3.45748 0
M  V30 7616 C 732.744 0.409625 4.22619 0
M  V30 7617 O 733.768 0.410934 3.53822 0
M  V30 7618 O 732.627 0.380185 5.45176 0
M  V30 7619 H 729.721 0.022015 0.826707 0
M  V30 7620 H 732.267 0.784577 1.50474 0
M  V30 7621 H 731.039 1.50801 3.61075 0
M  V30 7622 H 730.662 -0.168439 3.97243 0
M  V30 7623 N 731.66 -1.50943 0.453197 0
M  V30 7624 C 732.89 -2.06328 -0.105981 0
M  V30 7625 C 733.298 -1.31909 -1.35634 0
M  V30 7626 O 732.641 -0.376607 -1.79798 0
M  V30 7627 C 732.703 -3.5631 -0.477868 0
M  V30 7628 C 732.367 -4.52093 0.667925 0
M  V30 7629 C 733.364 -4.96421 1.54475 0
M  V30 7630 C 731.049 -4.95001 0.853168 0
M  V30 7631 C 733.043 -5.82346 2.59138 0
M  V30 7632 C 730.73 -5.80713 1.90305 0
M  V30 7633 C 731.728 -6.24284 2.77053 0
M  V30 7634 O 731.416 -7.08291 3.80236 0
M  V30 7635 H 731.148 -0.675986 -0.00427247 0
M  V30 7636 H 733.702 -1.95314 0.635738 0
M  V30 7637 H 731.932 -3.65163 -1.27252 0
M  V30 7638 H 733.621 -3.94138 -0.970039 0
M  V30 7639 H 734.387 -4.63953 1.41324 0
M  V30 7640 H 730.266 -4.60619 0.187482 0
M  V30 7641 H 733.81 -6.16276 3.2688 0
M  V30 7642 H 729.707 -6.12593 2.03469 0
M  V30 7643 H 730.475 -7.26504 3.77007 0
M  V30 7644 N 733.138 -0.185124 -1.56509 0
M  V30 7645 C 734.085 0.739729 -2.18624 0
M  V30 7646 C 735.055 1.217 -1.13042 0
M  V30 7647 O 736.24 1.28268 -1.41251 0
M  V30 7648 C 733.38 1.95787 -2.84186 0
M  V30 7649 C 732.493 1.52289 -4.04267 0
M  V30 7650 C 731.628 2.69576 -4.57714 0
M  V30 7651 C 730.667 2.22636 -5.70175 0
M  V30 7652 N 729.804 3.33065 -6.18071 0
M  V30 7653 H 734.644 0.203269 -2.97306 0
M  V30 7654 H 732.181 0.0885946 -1.46833 0
M  V30 7655 H 734.139 2.67253 -3.20361 0
M  V30 7656 H 732.769 2.4678 -2.08085 0
M  V30 7657 H 731.821 0.704458 -3.7382 0
M  V30 7658 H 733.133 1.13843 -4.85635 0
M  V30 7659 H 732.287 3.4918 -4.96143 0
M  V30 7660 H 731.026 3.1129 -3.75433 0
M  V30 7661 H 730.031 1.41483 -5.31284 0
M  V30 7662 H 731.256 1.81964 -6.54267 0
M  V30 7663 H 729.202 3.74328 -5.38715 0
M  V30 7664 H 729.119 2.98756 -6.94464 0
M  V30 7665 H 730.387 4.12912 -6.61153 0
M  V30 7666 N 734.616 1.57351 0.0885366 0
M  V30 7667 C 735.841 1.91011 0.80805 0
M  V30 7668 C 736.266 0.780009 1.71165 0
M  V30 7669 O 735.624 -0.268083 1.79307 0
M  V30 7670 C 735.672 3.23562 1.59185 0
M  V30 7671 O 734.776 3.11615 2.7013 0
M  V30 7672 H 734.117 0.625943 0.221565 0
M  V30 7673 H 736.647 2.04507 0.0617954 0
M  V30 7674 H 736.657 3.5703 1.97468 0
M  V30 7675 H 735.332 4.05398 0.928741 0
M  V30 7676 H 733.909 2.89673 2.34827 0
M  V30 7677 N 736.094 -0.359525 1.53444 0
M  V30 7678 C 737.341 -1.10152 1.6992 0
M  V30 7679 C 737.669 -1.89125 0.4541 0
M  V30 7680 O 736.924 -1.87396 -0.564023 0
M  V30 7681 C 737.223 -2.08287 2.90433 0
M  V30 7682 C 736.889 -1.45749 4.26694 0
M  V30 7683 C 735.551 -1.28421 4.63747 0
M  V30 7684 C 737.903 -1.00557 5.11408 0
M  V30 7685 C 735.231 -0.644951 5.83144 0
M  V30 7686 C 737.583 -0.380288 6.31456 0
M  V30 7687 C 736.247 -0.194557 6.67216 0
M  V30 7688 H 735.517 -0.403076 0.621781 0
M  V30 7689 H 738.164 -0.382612 1.87639 0
M  V30 7690 H 736.469 -2.86503 2.67251 0
M  V30 7691 H 738.166 -2.65662 3.00374 0
M  V30 7692 H 734.756 -1.6023 3.97523 0
M  V30 7693 H 738.94 -1.12735 4.83326 0
M  V30 7694 H 734.196 -0.48952 6.09437 0
M  V30 7695 H 738.37 -0.0219455 6.96397 0
M  V30 7696 H 735.997 0.30285 7.59597 0
M  V30 7697 N 737.572 -1.44907 -0.619662 0
M  V30 7698 C 738.519 -1.52654 -1.73105 0
M  V30 7699 C 739.489 -0.373334 -1.6185 0
M  V30 7700 O 740.674 -0.585143 -1.81606 0
M  V30 7701 C 737.814 -1.48769 -3.11387 0
M  V30 7702 C 736.927 -2.74551 -3.33535 0
M  V30 7703 C 736.062 -2.62421 -4.61854 0
M  V30 7704 C 735.101 -3.83312 -4.77219 0
M  V30 7705 N 734.238 -3.69789 -5.96826 0
M  V30 7706 H 739.078 -2.47605 -1.65819 0
M  V30 7707 H 736.615 -1.22875 -0.808719 0
M  V30 7708 H 738.573 -1.44507 -3.91374 0
M  V30 7709 H 737.203 -0.573783 -3.1766 0
M  V30 7710 H 736.255 -2.88953 -2.47408 0
M  V30 7711 H 737.567 -3.64253 -3.40765 0
M  V30 7712 H 736.721 -2.56056 -5.50019 0
M  V30 7713 H 735.46 -1.70298 -4.57001 0
M  V30 7714 H 734.465 -3.90049 -3.87481 0
M  V30 7715 H 735.69 -4.76486 -4.83878 0
M  V30 7716 H 733.636 -2.80426 -5.93041 0
M  V30 7717 H 733.553 -4.53116 -6.05163 0
M  V30 7718 H 734.821 -3.67335 -6.87521 0
M  V30 7719 N 739.05 0.861098 -1.31996 0
M  V30 7720 C 740.278 1.6474 -1.25173 0
M  V30 7721 C 740.693 1.87926 0.181425 0
M  V30 7722 O 740.05 1.4437 1.1164 0
M  V30 7723 C 740.101 3.01036 -2.0015 0
M  V30 7724 O 739.822 2.7888 -3.37872 0
M  V30 7725 C 741.323 3.95481 -2.00273 0
M  V30 7726 H 738.543 0.513314 -0.432146 0
M  V30 7727 H 741.087 1.07419 -1.74016 0
M  V30 7728 H 739.242 3.55021 -1.55046 0
M  V30 7729 H 739.656 3.65514 -3.76165 0
M  V30 7730 H 741.13 4.88403 -2.57229 0
M  V30 7731 H 741.607 4.27957 -0.987407 0
M  V30 7732 H 742.213 3.47433 -2.45296 0
M  V30 7733 N 740.528 1.15101 1.07655 0
M  V30 7734 C 741.777 0.918528 1.79572 0
M  V30 7735 C 742.09 -0.555922 1.87534 0
M  V30 7736 O 743.296 -0.905893 2.55941 0
M  V30 7737 C 741.752 1.59394 3.22679 0
M  V30 7738 C 741.36 3.1052 3.22927 0
M  V30 7739 C 743.104 1.44289 3.99225 0
M  V30 7740 C 741.011 3.70862 4.60668 0
M  V30 7741 H 739.941 0.340006 0.672987 0
M  V30 7742 H 742.592 1.38079 1.20857 0
M  V30 7743 H 740.974 1.05936 3.81567 0
M  V30 7744 H 742.148 3.70708 2.737 0
M  V30 7745 H 740.463 3.25351 2.59876 0
M  V30 7746 H 743.06 1.86766 5.01022 0
M  V30 7747 H 743.403 0.389975 4.14469 0
M  V30 7748 H 743.936 1.94826 3.46825 0
M  V30 7749 H 740.675 4.7604 4.50628 0
M  V30 7750 H 740.195 3.15456 5.10145 0
M  V30 7751 H 741.874 3.71607 5.29639 0
M  V30 7752 N 742.006 -1.2595 0.947325 0
M  V30 7753 C 743.252 -1.9375 0.599064 0
M  V30 7754 C 743.585 -1.74088 -0.860632 0
M  V30 7755 O 742.86 -1.08158 -1.61654 0
M  V30 7756 C 743.143 -3.47353 0.949634 0
M  V30 7757 C 742.996 -3.76273 2.46452 0
M  V30 7758 C 744.315 -4.37589 0.469442 0
M  V30 7759 H 741.434 -0.703674 0.219115 0
M  V30 7760 H 744.076 -1.48705 1.18266 0
M  V30 7761 H 742.226 -3.8585 0.453008 0
M  V30 7762 H 743.898 -3.47455 3.03435 0
M  V30 7763 H 742.141 -3.22135 2.90537 0
M  V30 7764 H 742.812 -4.83664 2.66032 0
M  V30 7765 H 745.288 -4.06353 0.89534 0
M  V30 7766 H 744.164 -5.43841 0.7435 0
M  V30 7767 H 744.425 -4.37579 -0.630618 0
M  V30 7768 N 743.484 -0.715051 -1.40445 0
M  V30 7769 C 744.394 -0.0631624 -2.34515 0
M  V30 7770 C 745.41 0.744397 -1.57273 0
M  V30 7771 O 746.586 0.677475 -1.89663 0
M  V30 7772 C 743.651 0.847915 -3.36172 0
M  V30 7773 C 742.712 0.0303655 -4.29289 0
M  V30 7774 C 741.945 0.898051 -5.2609 0
M  V30 7775 O 742.168 2.13729 -5.28844 0
M  V30 7776 O 741.102 0.337328 -6.00954 0
M  V30 7777 H 744.928 -0.839078 -2.91879 0
M  V30 7778 H 742.513 -0.475527 -1.4163 0
M  V30 7779 H 744.395 1.3698 -3.98515 0
M  V30 7780 H 743.07 1.60299 -2.81222 0
M  V30 7781 H 741.977 -0.536573 -3.70232 0
M  V30 7782 H 743.31 -0.686474 -4.87389 0
M  V30 7783 N 744.962 1.50701 -0.461195 0
M  V30 7784 C 746.187 2.07171 0.0974773 0
M  V30 7785 C 746.612 1.32391 1.3362 0
M  V30 7786 O 745.97 0.368676 1.77512 0
M  V30 7787 C 746.018 3.58651 0.374409 0
M  V30 7788 O 745.122 3.85816 1.4567 0
M  V30 7789 H 744.463 0.663944 -0.00862047 0
M  V30 7790 H 746.993 1.94021 -0.649394 0
M  V30 7791 H 747.003 4.03295 0.617843 0
M  V30 7792 H 745.678 4.12498 -0.530829 0
M  V30 7793 H 744.255 3.53018 1.20136 0
M  V30 7794 N 746.441 0.193421 1.56409 0
M  V30 7795 C 747.681 -0.447977 1.9943 0
M  V30 7796 C 748.045 -1.58915 1.07751 0
M  V30 7797 O 749.246 -2.29462 1.40002 0
M  V30 7798 C 747.517 -0.89793 3.45936 0
M  V30 7799 S 749.076 -1.5374 4.10986 0
M  V30 7800 H 745.894 -0.143316 0.696406 0
M  V30 7801 H 748.496 0.296093 1.93245 0
M  V30 7802 H 747.2 -0.0572927 4.1036 0
M  V30 7803 H 746.731 -1.67551 3.55936 0
M  V30 7804 H 748.746 -2.82612 4.07854 0
M  V30 7805 N 747.919 -1.57396 -0.0801906 0
M  V30 7806 C 749.167 -1.86467 -0.779384 0
M  V30 7807 C 749.488 -0.784243 -1.78535 0
M  V30 7808 O 748.758 0.187986 -1.94996 0
M  V30 7809 H 747.338 -0.68806 -0.29083 0
M  V30 7810 H 750 -1.94813 -0.0582749 0
M  V30 7811 H 749.096 -2.83701 -1.30078 0
M  V30 7812 N 749.397 0.351382 -1.53633 0
M  V30 7813 C 750.345 1.45142 -1.8176 0
M  V30 7814 C 751.339 1.54819 -0.687571 0
M  V30 7815 O 752.545 1.57536 -0.870772 0
M  V30 7816 H 748.92 0.483789 -0.575719 0
M  V30 7817 H 750.891 1.1863 -2.73806 0
M  V30 7818 C 749.64 2.81779 -2.03706 0
M  V30 7819 H 748.963 2.75097 -2.90107 0
M  V30 7820 H 750.403 3.5789 -2.27356 0
M  V30 7821 C 748.862 3.26762 -0.820271 0
M  V30 7822 O 749.392 4.01697 -0.0158603 0
M  V30 7823 N 747.598 2.83472 -0.639699 0
M  V30 7824 H 747.145 2.22655 -1.29547 0
M  V30 7825 H 747.103 3.13924 0.172995 0
M  V30 7826 N 750.875 1.45233 0.611969 0
M  V30 7827 C 752.105 1.52318 1.39581 0
M  V30 7828 C 752.513 0.153093 1.8858 0
M  V30 7829 O 751.856 -0.854792 1.62601 0
M  V30 7830 C 751.918 2.4426 2.63775 0
M  V30 7831 C 751.582 3.91079 2.36445 0
M  V30 7832 C 752.579 4.81099 1.97079 0
M  V30 7833 C 750.264 4.35958 2.49492 0
M  V30 7834 C 752.258 6.14002 1.71115 0
M  V30 7835 C 749.945 5.68903 2.23142 0
M  V30 7836 C 750.943 6.57744 1.84015 0
M  V30 7837 O 750.631 7.88226 1.5797 0
M  V30 7838 H 750.363 0.518428 0.43383 0
M  V30 7839 H 752.917 1.91067 0.753837 0
M  V30 7840 H 751.147 2.00474 3.30677 0
M  V30 7841 H 752.836 2.42077 3.25812 0
M  V30 7842 H 753.602 4.47692 1.86539 0
M  V30 7843 H 749.481 3.67053 2.78914 0
M  V30 7844 H 753.025 6.83305 1.405 0
M  V30 7845 H 748.922 6.01866 2.33297 0
M  V30 7846 H 749.69 8.00211 1.72058 0
M  V30 7847 N 752.353 -0.854086 1.3245 0
M  V30 7848 C 753.3 -1.96271 1.21434 0
M  V30 7849 C 754.27 -1.6582 0.0963851 0
M  V30 7850 O 755.455 -1.88851 0.27203 0
M  V30 7851 C 752.595 -3.31939 0.943952 0
M  V30 7852 C 751.708 -3.74885 2.14675 0
M  V30 7853 C 750.843 -4.99347 1.81179 0
M  V30 7854 C 749.882 -5.34785 2.97777 0
M  V30 7855 N 749.019 -6.50425 2.6437 0
M  V30 7856 H 753.859 -2.05025 2.16261 0
M  V30 7857 H 751.396 -1.00348 1.07558 0
M  V30 7858 H 753.354 -4.10076 0.767675 0
M  V30 7859 H 751.984 -3.22784 0.0324763 0
M  V30 7860 H 751.036 -2.92396 2.43328 0
M  V30 7861 H 752.348 -3.97068 3.01891 0
M  V30 7862 H 751.502 -5.85193 1.60107 0
M  V30 7863 H 750.241 -4.79101 0.911777 0
M  V30 7864 H 749.246 -4.47451 3.1948 0
M  V30 7865 H 750.471 -5.56988 3.88511 0
M  V30 7866 H 748.417 -6.31695 1.7691 0
M  V30 7867 H 748.334 -6.7263 3.45116 0
M  V30 7868 H 749.602 -7.39422 2.46729 0
M  V30 7869 N 753.831 -1.1567 -1.07043 0
M  V30 7870 C 755.077 -0.9349 -1.79965 0
M  V30 7871 C 755.41 0.536464 -1.86643 0
M  V30 7872 O 754.685 1.39781 -1.35247 0
M  V30 7873 C 754.968 -1.55371 -3.24857 0
M  V30 7874 C 754.821 -3.09589 -3.26305 0
M  V30 7875 C 756.14 -1.24209 -4.22209 0
M  V30 7876 H 753.259 -0.341061 -0.653335 0
M  V30 7877 H 755.901 -1.42883 -1.25237 0
M  V30 7878 H 754.051 -1.13368 -3.71591 0
M  V30 7879 H 755.723 -3.60521 -2.87789 0
M  V30 7880 H 753.966 -3.43315 -2.65174 0
M  V30 7881 H 754.637 -3.48002 -4.28484 0
M  V30 7882 H 757.113 -1.60548 -3.8388 0
M  V30 7883 H 755.989 -1.70119 -5.21872 0
M  V30 7884 H 756.25 -0.15964 -4.41812 0
M  V30 7885 N 755.309 1.25446 -0.953992 0
M  V30 7886 C 756.537 1.97215 -0.625595 0
M  V30 7887 C 756.952 1.70911 0.802168 0
M  V30 7888 O 756.309 0.984782 1.5365 0
M  V30 7889 C 756.36 3.50777 -0.873943 0
M  V30 7890 O 756.081 3.76173 -2.24556 0
M  V30 7891 C 757.582 4.39776 -0.557845 0
M  V30 7892 H 754.802 0.628652 -0.2346 0
M  V30 7893 H 757.346 1.59632 -1.27819 0
M  V30 7894 H 755.501 3.86474 -0.267765 0
M  V30 7895 H 755.915 4.70636 -2.31522 0
M  V30 7896 H 757.389 5.46431 -0.782157 0
M  V30 7897 H 757.866 4.36257 0.507573 0
M  V30 7898 H 758.472 4.09644 -1.14332 0
M  V30 7899 N 756.787 0.722489 1.40064 0
M  V30 7900 C 757.734 0.0743738 2.3068 0
M  V30 7901 C 758.704 -0.743004 1.48555 0
M  V30 7902 O 759.889 -0.705536 1.77276 0
M  V30 7903 C 757.029 -0.836292 3.34814 0
M  V30 7904 C 756.142 -0.00764663 4.31999 0
M  V30 7905 C 755.277 -0.918428 5.232 0
M  V30 7906 C 754.316 -0.0842838 6.12042 0
M  V30 7907 N 753.453 -0.950316 6.95639 0
M  V30 7908 H 758.293 0.852794 2.85537 0
M  V30 7909 H 755.83 0.432222 1.40607 0
M  V30 7910 H 757.788 -1.3786 3.93765 0
M  V30 7911 H 756.418 -1.58082 2.81443 0
M  V30 7912 H 755.47 0.651928 3.74772 0
M  V30 7913 H 756.782 0.63786 4.94705 0
M  V30 7914 H 755.936 -1.52902 5.87116 0
M  V30 7915 H 754.675 -1.59774 4.60786 0
M  V30 7916 H 753.68 0.5392 5.4715 0
M  V30 7917 H 754.905 0.591628 6.76518 0
M  V30 7918 H 752.851 -1.61515 6.35806 0
M  V30 7919 H 752.768 -0.361004 7.55138 0
M  V30 7920 H 754.036 -1.54687 7.63997 0
M  V30 7921 N 758.265 -1.50454 0.469181 0
M  V30 7922 C 759.513 -2.01916 -0.0862982 0
M  V30 7923 C 759.834 -1.35337 -1.40388 0
M  V30 7924 O 759.104 -0.498096 -1.89462 0
M  V30 7925 H 757.684 -0.746185 -0.0348825 0
M  V30 7926 H 760.346 -1.84804 0.619167 0
M  V30 7927 H 759.442 -3.11182 -0.239189 0
M  V30 7928 N 759.743 -0.201713 -1.56304 0
M  V30 7929 C 760.69 0.716499 -2.19397 0
M  V30 7930 C 761.66 1.20494 -1.14326 0
M  V30 7931 O 762.845 1.26763 -1.42604 0
M  V30 7932 C 759.985 1.92762 -2.86246 0
M  V30 7933 C 759.098 1.47993 -4.0586 0
M  V30 7934 C 758.233 2.64706 -4.60547 0
M  V30 7935 C 757.272 2.16576 -5.72504 0
M  V30 7936 N 756.409 3.26491 -6.21569 0
M  V30 7937 H 761.249 0.171724 -2.97505 0
M  V30 7938 H 758.786 0.073016 -1.46919 0
M  V30 7939 H 760.744 2.6384 -3.23178 0
M  V30 7940 H 759.374 2.44559 -2.10691 0
M  V30 7941 H 758.426 0.66477 -3.74546 0
M  V30 7942 H 759.738 1.08686 -4.86815 0
M  V30 7943 H 758.892 3.43898 -4.99819 0
M  V30 7944 H 757.631 3.0729 -3.78713 0
M  V30 7945 H 756.636 1.3584 -5.32755 0
M  V30 7946 H 757.861 1.75015 -6.56161 0
M  V30 7947 H 755.807 3.68594 -5.42655 0
M  V30 7948 H 755.724 2.91374 -6.97594 0
M  V30 7949 H 756.992 4.05877 -6.65495 0
M  V30 7950 N 761.222 1.57436 0.0718424 0
M  V30 7951 C 762.633 1.75975 0.623678 0
M  V30 7952 C 762.984 0.827155 1.77912 0
M  V30 7953 O 762.109 0.0112425 2.16397 0
M  V30 7954 C 762.704 3.1911 1.13816 0
M  V30 7955 C 761.263 3.38994 1.63586 0
M  V30 7956 C 760.41 2.71684 0.555261 0
M  V30 7957 H 763.361 1.57948 -0.154328 0
M  V30 7958 H 763.382 3.23267 2.00696 0
M  V30 7959 H 762.894 3.86962 0.296998 0
M  V30 7960 H 760.995 2.76256 2.50027 0
M  V30 7961 H 761.108 4.47436 1.71283 0
M  V30 7962 H 759.472 2.34236 1.00029 0
M  V30 7963 H 760.255 3.42191 -0.275712 0
M  V30 7964 N 762.7 -0.34323 1.53817 0
M  V30 7965 C 763.946 -1.08504 1.71332 0
M  V30 7966 C 764.279 -1.88294 0.475285 0
M  V30 7967 O 763.554 -1.87205 -0.527688 0
M  V30 7968 C 763.837 -2.02597 2.97702 0
M  V30 7969 C 763.69 -1.26268 4.31713 0
M  V30 7970 C 765.009 -3.0241 3.19744 0
M  V30 7971 H 762.128 -0.393072 0.623429 0
M  V30 7972 H 764.77 -0.363579 1.86489 0
M  V30 7973 H 762.92 -2.64118 2.8491 0
M  V30 7974 H 764.592 -0.673594 4.56356 0
M  V30 7975 H 762.835 -0.564696 4.30109 0
M  V30 7976 H 763.506 -1.95253 5.16314 0
M  V30 7977 H 765.982 -2.51004 3.31868 0
M  V30 7978 H 764.858 -3.65449 4.09558 0
M  V30 7979 H 765.119 -3.73806 2.36054 0
M  V30 7980 N 764.178 -1.45556 -0.604258 0
M  V30 7981 C 765.125 -1.54482 -1.71476 0
M  V30 7982 C 766.095 -0.390479 -1.61445 0
M  V30 7983 O 767.28 -0.604371 -1.80975 0
M  V30 7984 C 764.42 -1.52064 -3.09791 0
M  V30 7985 C 763.533 -2.78073 -3.30604 0
M  V30 7986 C 762.668 -2.67304 -4.59044 0
M  V30 7987 C 761.707 -3.88352 -4.73127 0
M  V30 7988 N 760.844 -3.76098 -5.9287 0
M  V30 7989 H 765.684 -2.49349 -1.63184 0
M  V30 7990 H 763.221 -1.23725 -0.795641 0
M  V30 7991 H 765.179 -1.48649 -3.89819 0
M  V30 7992 H 763.809 -0.607442 -3.17033 0
M  V30 7993 H 762.861 -2.91561 -2.44329 0
M  V30 7994 H 764.173 -3.67847 -3.36883 0
M  V30 7995 H 763.327 -2.61875 -5.47272 0
M  V30 7996 H 762.066 -1.75135 -4.55169 0
M  V30 7997 H 761.071 -3.94137 -3.83322 0
M  V30 7998 H 762.296 -4.81591 -4.78797 0
M  V30 7999 H 760.242 -2.867 -5.90033 0
M  V30 8000 H 760.159 -4.59509 -6.00323 0
M  V30 8001 H 761.427 -3.74607 -6.83586 0
M  V30 8002 N 765.656 0.84705 -1.32902 0
M  V30 8003 C 766.904 1.5986 -1.2365 0
M  V30 8004 C 767.225 1.93974 0.199789 0
M  V30 8005 O 766.495 1.60273 1.12648 0
M  V30 8006 H 765.075 0.592696 -0.454665 0
M  V30 8007 H 767.737 1.01278 -1.66519 0
M  V30 8008 H 766.833 2.53218 -1.82448 0
M  V30 8009 N 767.134 1.16236 1.06428 0
M  V30 8010 C 768.097 0.870163 2.1204 0
M  V30 8011 C 769.097 -0.134239 1.60239 0
M  V30 8012 O 770.287 0.0964932 1.73933 0
M  V30 8013 C 767.419 0.301033 3.39568 0
M  V30 8014 H 768.612 1.8064 2.39394 0
M  V30 8015 H 766.165 0.971116 1.2247 0
M  V30 8016 H 766.9 -0.642948 3.17863 0
M  V30 8017 H 766.685 1.02475 3.78472 0
M  V30 8018 H 768.175 0.114494 4.17443 0
M  V30 8019 N 768.612 -1.24939 0.960631 0
M  V30 8020 C 769.858 -1.93425 0.629155 0
M  V30 8021 C 770.213 -1.73784 -0.825635 0
M  V30 8022 O 769.506 -1.07595 -1.58536 0
M  V30 8023 C 769.7 -3.45066 0.930809 0
M  V30 8024 C 769.529 -3.79455 2.41337 0
M  V30 8025 C 768.299 -4.01195 3.07197 0
M  V30 8026 C 770.497 -3.86492 3.39306 0
M  V30 8027 N 768.479 -4.22626 4.45265 0
M  V30 8028 C 769.85 -4.12682 4.62702 0
M  V30 8029 C 771.905 -3.69198 3.34061 0
M  V30 8030 C 770.608 -4.23376 5.81502 0
M  V30 8031 C 772.634 -3.81135 4.52206 0
M  V30 8032 C 771.996 -4.07743 5.74391 0
M  V30 8033 H 768.095 -0.729791 0.280943 0
M  V30 8034 H 770.679 -1.50597 1.23404 0
M  V30 8035 H 768.85 -3.86776 0.354801 0
M  V30 8036 H 770.582 -4.00826 0.558627 0
M  V30 8037 H 767.337 -3.97319 2.5775 0
M  V30 8038 H 767.761 -4.37335 5.16785 0
M  V30 8039 H 772.403 -3.47639 2.40638 0
M  V30 8040 H 770.121 -4.4375 6.75361 0
M  V30 8041 H 773.707 -3.69133 4.49702 0
M  V30 8042 H 772.587 -4.16768 6.64284 0
M  V30 8043 N 770.09 -0.729906 -1.39679 0
M  V30 8044 C 771.038 -0.0756589 -2.32477 0
M  V30 8045 C 772.032 0.731438 -1.52795 0
M  V30 8046 O 773.238 0.633195 -1.68495 0
M  V30 8047 H 769.613 -0.00566492 -0.751979 0
M  V30 8048 H 771.584 -0.874797 -2.85289 0
M  V30 8049 C 770.333 0.821313 -3.37861 0
M  V30 8050 H 769.656 0.209666 -3.9925 0
M  V30 8051 H 771.096 1.24679 -4.05254 0
M  V30 8052 C 769.555 1.9533 -2.74495 0
M  V30 8053 O 770.085 3.04548 -2.61942 0
M  V30 8054 N 768.291 1.74119 -2.3266 0
M  V30 8055 H 767.838 0.852908 -2.4307 0
M  V30 8056 H 767.796 2.50036 -1.90603 0
M  V30 8057 N 771.568 1.50203 -0.477153 0
M  V30 8058 C 772.817 2.01551 0.0774548 0
M  V30 8059 C 773.13 1.36359 1.40234 0
M  V30 8060 O 774.336 1.78898 2.04225 0
M  V30 8061 C 772.792 3.59406 0.188539 0
M  V30 8062 C 772.4 4.3356 -1.12828 0
M  V30 8063 C 774.144 4.18776 0.694782 0
M  V30 8064 C 772.051 5.83213 -0.98066 0
M  V30 8065 H 770.981 0.75329 0.0327212 0
M  V30 8066 H 773.632 1.72959 -0.612969 0
M  V30 8067 H 772.014 3.84611 0.942881 0
M  V30 8068 H 773.188 4.20074 -1.89405 0
M  V30 8069 H 771.503 3.85827 -1.5661 0
M  V30 8070 H 774.1 5.28338 0.822356 0
M  V30 8071 H 774.443 3.80557 1.68766 0
M  V30 8072 H 774.976 3.978 -0.00234519 0
M  V30 8073 H 771.715 6.25914 -1.94709 0
M  V30 8074 H 771.235 5.99256 -0.255375 0
M  V30 8075 H 772.914 6.4373 -0.649717 0
M  V30 8076 N 773.046 0.209999 1.56195 0
M  V30 8077 C 774.294 -0.423974 1.97603 0
M  V30 8078 C 774.615 -1.61112 1.09854 0
M  V30 8079 O 773.885 -1.95134 0.173032 0
M  V30 8080 H 772.465 -0.159629 0.729745 0
M  V30 8081 H 775.127 0.300205 1.92574 0
M  V30 8082 H 774.223 -0.75809 3.02753 0
M  V30 8083 N 774.524 -1.57472 -0.0634922 0
M  V30 8084 C 775.456 -2.00999 -1.10145 0
M  V30 8085 C 776.469 -0.917219 -1.34503 0
M  V30 8086 O 777.658 -1.19501 -1.32596 0
M  V30 8087 C 774.758 -2.34089 -2.45063 0
M  V30 8088 C 773.931 -3.65317 -2.40546 0
M  V30 8089 C 772.99 -3.85982 -3.57637 0
M  V30 8090 O 772.016 -4.5747 -3.38689 0
M  V30 8091 N 773.218 -3.28971 -4.78287 0
M  V30 8092 H 775.983 -2.90656 -0.730714 0
M  V30 8093 H 773.544 -1.59926 -0.252017 0
M  V30 8094 H 775.536 -2.4508 -3.22053 0
M  V30 8095 H 774.106 -1.50279 -2.74107 0
M  V30 8096 H 773.326 -3.65003 -1.48885 0
M  V30 8097 H 774.614 -4.51468 -2.34636 0
M  V30 8098 H 774.012 -2.70962 -4.96584 0
M  V30 8099 H 772.569 -3.45398 -5.5276 0
M  V30 8100 N 776.003 0.335068 -1.53997 0
M  V30 8101 C 776.935 1.4327 -1.78903 0
M  V30 8102 C 777.948 1.48347 -0.670598 0
M  V30 8103 O 779.137 1.51277 -0.947494 0
M  V30 8104 C 776.237 2.81878 -1.88144 0
M  V30 8105 C 775.41 3.00141 -3.18174 0
M  V30 8106 C 774.469 4.19041 -3.18263 0
M  V30 8107 O 773.495 4.12751 -3.9195 0
M  V30 8108 N 774.697 5.28004 -2.41231 0
M  V30 8109 H 777.462 1.22272 -2.73623 0
M  V30 8110 H 775.023 0.524996 -1.53152 0
M  V30 8111 H 777.015 3.59609 -1.85644 0
M  V30 8112 H 775.585 2.9598 -1.00572 0
M  V30 8113 H 774.805 2.09808 -3.33728 0
M  V30 8114 H 776.093 3.0923 -4.04047 0
M  V30 8115 H 775.491 5.35986 -1.8093 0
M  V30 8116 H 774.048 6.04196 -2.44521 0
M  V30 8117 N 777.481 1.45874 0.596531 0
M  V30 8118 C 778.897 1.30524 0.918459 0
M  V30 8119 C 779.097 0.266429 1.99731 0
M  V30 8120 O 778.153 -0.335809 2.50257 0
M  V30 8121 C 779.466 2.68747 1.3489 0
M  V30 8122 C 781.014 2.7673 1.46251 0
M  V30 8123 C 781.489 4.15504 1.92667 0
M  V30 8124 N 782.98 4.17853 1.99883 0
M  V30 8125 C 783.715 5.22109 2.37044 0
M  V30 8126 N 783.211 6.36704 2.73094 0
M  V30 8127 N 785.004 5.09471 2.37479 0
M  V30 8128 H 777.155 2.12081 -0.116368 0
M  V30 8129 H 779.418 0.947941 0.0106033 0
M  V30 8130 H 779.124 3.46006 0.630288 0
M  V30 8131 H 778.998 2.97942 2.31323 0
M  V30 8132 H 781.385 1.99768 2.17202 0
M  V30 8133 H 781.466 2.51236 0.481054 0
M  V30 8134 H 781.11 4.92956 1.223 0
M  V30 8135 H 781.04 4.38396 2.91747 0
M  V30 8136 H 783.531 3.35163 1.74568 0
M  V30 8137 H 783.844 7.12041 3.00362 0
M  V30 8138 H 782.189 6.40087 2.70764 0
M  V30 8139 H 785.38 4.18987 2.08728 0
M  V30 8140 H 785.553 5.90837 2.66112 0
M  V30 8141 N 778.959 -0.83999 1.33349 0
M  V30 8142 C 780.184 -1.63249 1.27924 0
M  V30 8143 C 780.609 -1.87523 -0.147193 0
M  V30 8144 O 779.967 -1.43853 -1.10345 0
M  V30 8145 C 780.015 -2.96046 2.05886 0
M  V30 8146 O 779.119 -3.87303 1.4167 0
M  V30 8147 H 778.46 -0.49715 0.440157 0
M  V30 8148 H 780.99 -1.04512 1.75893 0
M  V30 8149 H 781 -3.45752 2.16609 0
M  V30 8150 H 779.675 -2.77701 3.09605 0
M  V30 8151 H 778.252 -3.45789 1.39585 0
M  V30 8152 N 780.437 -1.16799 -1.0581 0
M  V30 8153 C 781.683 -0.953935 -1.78963 0
M  V30 8154 C 782.016 0.516638 -1.87202 0
M  V30 8155 O 781.291 1.38338 -1.36721 0
M  V30 8156 C 781.574 -1.58808 -3.23191 0
M  V30 8157 C 781.427 -3.13032 -3.23003 0
M  V30 8158 C 782.746 -1.2868 -4.20867 0
M  V30 8159 H 779.865 -0.347972 -0.64968 0
M  V30 8160 H 782.507 -1.44204 -1.23715 0
M  V30 8161 H 780.657 -1.17303 -3.70368 0
M  V30 8162 H 782.329 -3.63553 -2.83949 0
M  V30 8163 H 780.572 -3.46108 -2.61518 0
M  V30 8164 H 781.243 -3.52527 -4.24769 0
M  V30 8165 H 783.719 -1.6461 -3.82155 0
M  V30 8166 H 782.595 -1.75645 -5.20038 0
M  V30 8167 H 782.856 -0.206491 -4.41618 0
M  V30 8168 N 781.915 1.24427 -0.967243 0
M  V30 8169 C 782.845 2.2773 -0.515899 0
M  V30 8170 C 783.826 1.64197 0.444227 0
M  V30 8171 O 785.011 1.91193 0.340451 0
M  V30 8172 C 782.141 3.46751 0.195149 0
M  V30 8173 C 781.095 4.22548 -0.680953 0
M  V30 8174 C 780.421 5.34456 0.161561 0
M  V30 8175 C 781.721 4.83914 -1.96532 0
M  V30 8176 H 783.415 2.65735 -1.37933 0
M  V30 8177 H 780.961 1.27742 -0.664681 0
M  V30 8178 H 782.914 4.18153 0.522117 0
M  V30 8179 H 781.638 3.07771 1.09292 0
M  V30 8180 H 780.297 3.52946 -0.991186 0
M  V30 8181 H 779.945 4.91716 1.05947 0
M  V30 8182 H 779.645 5.86087 -0.421418 0
M  V30 8183 H 781.169 6.08685 0.483211 0
M  V30 8184 H 782.583 5.47392 -1.70396 0
M  V30 8185 H 780.98 5.45775 -2.49499 0
M  V30 8186 H 782.05 4.05393 -2.66053 0
M  V30 8187 N 783.393 0.737304 1.3929 0
M  V30 8188 C 784.621 0.296573 2.04763 0
M  V30 8189 C 785.036 -1.06941 1.55592 0
M  V30 8190 O 784.393 -1.67619 0.721822 0
M  V30 8191 C 784.444 0.291906 3.6032 0
M  V30 8192 O 784.165 1.60397 4.07682 0
M  V30 8193 C 785.666 -0.164708 4.42994 0
M  V30 8194 H 782.886 0.129251 0.658434 0
M  V30 8195 H 785.43 1.0016 1.78293 0
M  V30 8196 H 783.585 -0.364251 3.85684 0
M  V30 8197 H 783.999 1.51909 5.0202 0
M  V30 8198 H 785.473 -0.116814 5.51876 0
M  V30 8199 H 785.95 -1.21022 4.22197 0
M  V30 8200 H 786.556 0.461968 4.22784 0
M  V30 8201 N 784.871 -1.49948 0.485112 0
M  V30 8202 C 786.282 -1.8667 0.0334041 0
M  V30 8203 C 786.633 -1.3988 -1.37579 0
M  V30 8204 O 785.758 -0.769788 -2.02245 0
M  V30 8205 C 786.353 -3.38757 0.0538426 0
M  V30 8206 C 784.912 -3.74839 -0.342453 0
M  V30 8207 C 784.059 -2.73894 0.433281 0
M  V30 8208 H 787.01 -1.42492 0.698699 0
M  V30 8209 H 787.031 -3.73132 -0.745146 0
M  V30 8210 H 786.543 -3.72782 1.07959 0
M  V30 8211 H 784.644 -3.46419 -1.37203 0
M  V30 8212 H 784.757 -4.79088 -0.0340503 0
M  V30 8213 H 783.121 -2.54441 -0.114849 0
M  V30 8214 H 783.904 -3.10763 1.45881 0
M  V30 8215 N 786.349 -0.21828 -1.56081 0
M  V30 8216 C 787.279 0.687922 -2.23136 0
M  V30 8217 C 788.26 1.20357 -1.202 0
M  V30 8218 O 789.445 1.24817 -1.48776 0
M  V30 8219 C 786.575 1.89762 -2.90874 0
M  V30 8220 C 785.529 1.51595 -4.00254 0
M  V30 8221 C 784.855 2.80415 -4.55271 0
M  V30 8222 C 786.155 0.708404 -5.17474 0
M  V30 8223 H 787.849 0.128854 -2.99123 0
M  V30 8224 H 785.395 0.0605354 -1.43873 0
M  V30 8225 H 787.348 2.53699 -3.36474 0
M  V30 8226 H 786.072 2.4816 -2.1233 0
M  V30 8227 H 784.731 0.900058 -3.55379 0
M  V30 8228 H 784.379 3.36951 -3.73461 0
M  V30 8229 H 784.079 2.55613 -5.2909 0
M  V30 8230 H 785.603 3.453 -5.03587 0
M  V30 8231 H 787.017 1.2514 -5.59476 0
M  V30 8232 H 785.414 0.557593 -5.97504 0
M  V30 8233 H 786.484 -0.285679 -4.84058 0
M  V30 8234 N 787.827 1.57504 0.0551401 0
M  V30 8235 C 789.067 1.89895 0.756252 0
M  V30 8236 C 789.431 0.813983 1.73892 0
M  V30 8237 O 790.632 1.02145 2.48636 0
M  V30 8238 C 788.903 3.27494 1.43116 0
M  V30 8239 S 790.462 3.81669 2.16504 0
M  V30 8240 H 787.28 0.665173 0.251129 0
M  V30 8241 H 789.882 1.95496 0.0117193 0
M  V30 8242 H 788.586 4.04345 0.702391 0
M  V30 8243 H 788.117 3.25132 2.21479 0
M  V30 8244 H 790.132 3.58295 3.43277 0
M  V30 8245 N 789.305 -0.326896 1.54172 0
M  V30 8246 C 790.553 -1.06313 1.71878 0
M  V30 8247 C 790.874 -1.88652 0.493498 0
M  V30 8248 O 790.144 -1.89608 -0.492522 0
M  V30 8249 H 788.724 -0.39549 0.633716 0
M  V30 8250 H 791.386 -0.364139 1.91468 0
M  V30 8251 H 790.482 -1.73105 2.59694 0
M  V30 8252 N 790.784 -1.46188 -0.588786 0
M  V30 8253 C 792.031 -1.51184 -1.34721 0
M  V30 8254 C 792.359 -0.161084 -1.93832 0
M  V30 8255 O 791.614 0.842557 -1.76634 0
M  V30 8256 C 791.913 -2.55364 -2.50048 0
M  V30 8257 C 791.579 -3.99553 -2.08969 0
M  V30 8258 C 790.241 -4.38811 -1.9748 0
M  V30 8259 C 792.593 -4.90156 -1.77191 0
M  V30 8260 C 789.921 -5.66544 -1.52463 0
M  V30 8261 C 792.273 -6.1832 -1.33654 0
M  V30 8262 C 790.937 -6.5649 -1.20738 0
M  V30 8263 H 790.207 -0.55322 -0.49298 0
M  V30 8264 H 792.854 -1.79634 -0.663627 0
M  V30 8265 H 791.159 -2.20552 -3.23827 0
M  V30 8266 H 792.856 -2.5646 -3.08268 0
M  V30 8267 H 789.446 -3.68518 -2.18843 0
M  V30 8268 H 793.63 -4.60549 -1.84955 0
M  V30 8269 H 788.886 -5.94895 -1.411 0
M  V30 8270 H 793.06 -6.87956 -1.08117 0
M  V30 8271 H 790.687 -7.55362 -0.856307 0
M  V30 8272 N 792.262 0.832906 -1.33792 0
M  V30 8273 C 793.673 1.40489 -1.22963 0
M  V30 8274 C 794.024 1.95633 0.149026 0
M  V30 8275 O 793.149 1.8928 1.04891 0
M  V30 8276 C 793.744 2.55387 -2.22627 0
M  V30 8277 C 792.303 3.08522 -2.15618 0
M  V30 8278 C 791.45 1.81347 -2.09782 0
M  V30 8279 H 794.401 0.638156 -1.45304 0
M  V30 8280 H 794.422 3.33193 -1.83746 0
M  V30 8281 H 793.934 2.15222 -3.22957 0
M  V30 8282 H 792.035 3.53217 -1.18611 0
M  V30 8283 H 792.148 3.6829 -3.0643 0
M  V30 8284 H 790.512 2.01839 -1.55349 0
M  V30 8285 H 791.295 1.43369 -3.1193 0
M  V30 8286 N 793.74 1.17359 1.05189 0
M  V30 8287 C 794.965 0.98709 1.82404 0
M  V30 8288 C 795.39 -0.459848 1.82392 0
M  V30 8289 O 794.748 -1.32924 1.23292 0
M  V30 8290 C 794.796 1.53276 3.26403 0
M  V30 8291 O 793.9 0.746541 4.05587 0
M  V30 8292 H 793.241 0.35047 0.563974 0
M  V30 8293 H 795.771 1.55856 1.32552 0
M  V30 8294 H 795.781 1.55504 3.77203 0
M  V30 8295 H 794.456 2.58603 3.25726 0
M  V30 8296 H 793.033 0.795671 3.64312 0
M  V30 8297 N 795.218 -1.23913 0.973828 0
M  V30 8298 C 796.15 -2.24397 0.466763 0
M  V30 8299 C 797.163 -1.57078 -0.427828 0
M  V30 8300 O 798.352 -1.76973 -0.233019 0
M  V30 8301 C 795.452 -3.37141 -0.344798 0
M  V30 8302 C 794.625 -4.34037 0.541349 0
M  V30 8303 C 793.684 -5.2576 -0.215243 0
M  V30 8304 O 792.71 -5.67842 0.39291 0
M  V30 8305 N 793.912 -5.60702 -1.5031 0
M  V30 8306 H 796.677 -2.68536 1.33074 0
M  V30 8307 H 794.238 -1.38017 0.846346 0
M  V30 8308 H 796.23 -3.95476 -0.859133 0
M  V30 8309 H 794.8 -2.92239 -1.10974 0
M  V30 8310 H 794.02 -3.74302 1.23659 0
M  V30 8311 H 795.308 -4.95738 1.1455 0
M  V30 8312 H 794.706 -5.28451 -2.01882 0
M  V30 8313 H 793.263 -6.21538 -1.96301 0
M  V30 8314 N 796.696 -0.74468 -1.38897 0
M  V30 8315 C 797.659 -0.11945 -2.28889 0
M  V30 8316 C 798.659 0.656942 -1.46768 0
M  V30 8317 O 799.849 0.484525 -1.67326 0
M  V30 8318 C 796.981 0.839635 -3.30398 0
M  V30 8319 H 798.174 -0.912414 -2.85683 0
M  V30 8320 H 795.727 -0.511119 -1.47707 0
M  V30 8321 H 796.462 1.6586 -2.78677 0
M  V30 8322 H 796.247 0.285432 -3.9106 0
M  V30 8323 H 797.737 1.27337 -3.97712 0
M  V30 8324 N 798.174 1.49689 -0.493057 0
M  V30 8325 C 799.137 2.27502 0.278485 0
M  V30 8326 C 800.137 1.33184 0.901037 0
M  V30 8327 O 801.327 1.56415 0.766801 0
M  V30 8328 C 798.459 3.10881 1.39878 0
M  V30 8329 H 799.652 2.97163 -0.404219 0
M  V30 8330 H 797.205 1.54324 -0.247774 0
M  V30 8331 H 797.94 2.45767 2.11587 0
M  V30 8332 H 797.725 3.80219 0.957924 0
M  V30 8333 H 799.215 3.69673 1.94247 0
M  V30 8334 N 799.652 0.226554 1.55963 0
M  V30 8335 C 800.9 -0.402991 1.98041 0
M  V30 8336 C 801.221 -1.59938 1.11557 0
M  V30 8337 O 800.491 -1.9494 0.193719 0
M  V30 8338 H 799.071 -0.15188 0.731397 0
M  V30 8339 H 801.733 0.320613 1.92245 0
M  V30 8340 H 800.829 -0.725937 3.0354 0
M  V30 8341 N 801.13 -1.57531 -0.0467866 0
M  V30 8342 C 802.376 -1.8873 -0.742218 0
M  V30 8343 C 802.709 -0.822084 -1.75941 0
M  V30 8344 O 801.984 0.164922 -1.938 0
M  V30 8345 C 802.267 -3.30586 -1.42776 0
M  V30 8346 C 802.12 -4.47785 -0.425285 0
M  V30 8347 C 803.439 -3.71068 -2.36636 0
M  V30 8348 H 800.558 -0.686406 -0.268359 0
M  V30 8349 H 803.2 -1.89999 -0.00511341 0
M  V30 8350 H 801.35 -3.29634 -2.05605 0
M  V30 8351 H 803.022 -4.60867 0.199721 0
M  V30 8352 H 801.265 -4.33037 0.25713 0
M  V30 8353 H 801.936 -5.43884 -0.943086 0
M  V30 8354 H 804.412 -3.73273 -1.83866 0
M  V30 8355 H 803.288 -4.71165 -2.81593 0
M  V30 8356 H 803.549 -3.02355 -3.22542 0
M  V30 8357 N 802.608 0.318715 -1.54344 0
M  V30 8358 C 803.857 1.05363 -1.71993 0
M  V30 8359 C 804.17 1.89018 -0.503155 0
M  V30 8360 O 805.376 2.65639 -0.561085 0
M  V30 8361 C 803.832 1.92281 -3.0423 0
M  V30 8362 C 803.44 1.13715 -4.33328 0
M  V30 8363 C 805.184 2.65479 -3.31242 0
M  V30 8364 C 803.091 1.99806 -5.56625 0
M  V30 8365 H 802.021 0.397081 -0.64097 0
M  V30 8366 H 804.672 0.311598 -1.80835 0
M  V30 8367 H 803.054 2.70402 -2.89307 0
M  V30 8368 H 804.228 0.403305 -4.59032 0
M  V30 8369 H 802.543 0.521769 -4.13118 0
M  V30 8370 H 805.14 3.30209 -4.20555 0
M  V30 8371 H 805.483 3.33374 -2.49334 0
M  V30 8372 H 806.016 1.94417 -3.47054 0
M  V30 8373 H 802.755 1.36411 -6.41149 0
M  V30 8374 H 802.275 2.70911 -5.35133 0
M  V30 8375 H 803.954 2.58277 -5.93213 0
M  V30 8376 N 804.086 1.46499 0.581025 0
M  V30 8377 C 805.502 1.31491 0.904563 0
M  V30 8378 C 805.702 0.287598 1.99437 0
M  V30 8379 O 804.758 -0.309247 2.50599 0
M  V30 8380 C 806.071 2.70163 1.32032 0
M  V30 8381 C 807.619 2.78266 1.43308 0
M  V30 8382 C 808.094 4.17524 1.8825 0
M  V30 8383 N 809.585 4.19949 1.9544 0
M  V30 8384 C 810.32 5.24594 2.31493 0
M  V30 8385 N 809.816 6.39564 2.66326 0
M  V30 8386 N 811.609 5.11961 2.32062 0
M  V30 8387 H 803.76 2.11946 -0.138856 0
M  V30 8388 H 806.023 0.948 0.000548528 0
M  V30 8389 H 805.729 3.46655 0.593554 0
M  V30 8390 H 805.603 3.00379 2.2815 0
M  V30 8391 H 807.99 2.02061 2.15071 0
M  V30 8392 H 808.071 2.51732 0.45438 0
M  V30 8393 H 807.715 4.94225 1.17065 0
M  V30 8394 H 807.645 4.41466 2.87081 0
M  V30 8395 H 810.136 3.36996 1.71004 0
M  V30 8396 H 810.449 7.15187 2.92793 0
M  V30 8397 H 808.794 6.42923 2.6396 0
M  V30 8398 H 811.985 4.21177 2.04272 0
M  V30 8399 H 812.158 5.93626 2.5983 0
M  V30 8400 N 805.565 -0.825799 1.34232 0
M  V30 8401 C 806.79 -1.61883 1.29648 0
M  V30 8402 C 807.215 -1.87669 -0.127295 0
M  V30 8403 O 806.573 -1.45016 -1.08813 0
M  V30 8404 C 806.621 -2.93846 2.09014 0
M  V30 8405 O 805.725 -3.85778 1.4577 0
M  V30 8406 H 805.066 -0.492454 0.445405 0
M  V30 8407 H 807.596 -1.02641 1.76992 0
M  V30 8408 H 807.606 -3.43435 2.20264 0
M  V30 8409 H 806.281 -2.74401 3.12533 0
M  V30 8410 H 804.858 -3.4429 1.43245 0
M  V30 8411 N 807.043 -1.17915 -1.04565 0
M  V30 8412 C 808.292 -0.965816 -1.77073 0
M  V30 8413 C 808.605 0.506005 -1.88942 0
M  V30 8414 O 809.811 0.837717 -2.58253 0
M  V30 8415 C 808.267 -1.67894 -3.18339 0
M  V30 8416 C 807.875 -3.18972 -3.1458 0
M  V30 8417 C 809.619 -1.54823 -3.9526 0
M  V30 8418 C 807.526 -3.82946 -4.50674 0
M  V30 8419 H 806.456 -0.357729 -0.663736 0
M  V30 8420 H 809.107 -1.41235 -1.17153 0
M  V30 8421 H 807.489 -1.16016 -3.78624 0
M  V30 8422 H 808.663 -3.77835 -2.63776 0
M  V30 8423 H 806.978 -3.32127 -2.51159 0
M  V30 8424 H 809.575 -1.99984 -4.95894 0
M  V30 8425 H 809.918 -0.499727 -4.1329 0
M  V30 8426 H 810.451 -2.03953 -3.41538 0
M  V30 8427 H 807.19 -4.8782 -4.37849 0
M  V30 8428 H 806.71 -3.2887 -5.01602 0
M  V30 8429 H 808.389 -3.85518 -5.196 0
M  V30 8430 N 808.521 1.23394 -0.980386 0
M  V30 8431 C 809.768 1.91809 -0.649261 0
M  V30 8432 C 810.096 1.765 0.817197 0
M  V30 8433 O 809.351 1.11979 1.60497 0
M  V30 8434 C 809.65 3.43542 -0.985588 0
M  V30 8435 C 809.316 3.79031 -2.44225 0
M  V30 8436 C 807.978 3.88429 -2.84035 0
M  V30 8437 C 810.33 3.96145 -3.38702 0
M  V30 8438 C 807.658 4.12368 -4.17336 0
M  V30 8439 C 810.01 4.21583 -4.71646 0
M  V30 8440 C 808.674 4.29203 -5.11215 0
M  V30 8441 H 807.944 0.70188 -0.237581 0
M  V30 8442 H 810.591 1.4642 -1.23424 0
M  V30 8443 H 808.896 3.90503 -0.318521 0
M  V30 8444 H 810.593 3.94708 -0.707596 0
M  V30 8445 H 807.183 3.7229 -2.12362 0
M  V30 8446 H 811.367 3.88274 -3.09123 0
M  V30 8447 H 806.623 4.1649 -4.47601 0
M  V30 8448 H 810.797 4.33769 -5.4481 0
M  V30 8449 H 808.424 4.47505 -6.14527 0
M  V30 8450 N 809.999 0.752036 1.385 0
M  V30 8451 C 810.962 0.131587 2.28822 0
M  V30 8452 C 811.962 -0.649149 1.47115 0
M  V30 8453 O 813.152 -0.475645 1.67581 0
M  V30 8454 C 810.284 -0.822101 3.30839 0
M  V30 8455 H 811.477 0.927551 2.85196 0
M  V30 8456 H 809.03 0.518945 1.47434 0
M  V30 8457 H 809.765 -1.6438 2.79553 0
M  V30 8458 H 809.55 -0.264689 3.91206 0
M  V30 8459 H 811.04 -1.25226 3.98382 0
M  V30 8460 N 811.477 -1.49425 0.500989 0
M  V30 8461 C 812.893 -1.58826 0.156951 0
M  V30 8462 C 813.093 -1.50622 -1.33848 0
M  V30 8463 O 812.149 -1.38016 -2.11442 0
M  V30 8464 C 813.462 -2.91611 0.73374 0
M  V30 8465 C 815.01 -3.05076 0.699846 0
M  V30 8466 C 815.485 -4.40479 1.2547 0
M  V30 8467 N 816.976 -4.4697 1.2154 0
M  V30 8468 C 817.711 -5.50189 1.6149 0
M  V30 8469 N 817.207 -6.60512 2.09034 0
M  V30 8470 N 819 -5.40903 1.52907 0
M  V30 8471 H 811.151 -1.53001 1.47324 0
M  V30 8472 H 813.414 -0.724765 0.61108 0
M  V30 8473 H 813.12 -3.03182 1.78251 0
M  V30 8474 H 812.994 -3.767 0.19417 0
M  V30 8475 H 815.381 -2.93134 -0.340085 0
M  V30 8476 H 815.462 -2.2167 1.27656 0
M  V30 8477 H 815.106 -4.53172 2.29341 0
M  V30 8478 H 815.036 -5.22524 0.653921 0
M  V30 8479 H 817.527 -3.67819 0.867043 0
M  V30 8480 H 817.84 -7.35372 2.37588 0
M  V30 8481 H 816.185 -6.61553 2.13008 0
M  V30 8482 H 819.376 -4.53606 1.15583 0
M  V30 8483 H 819.549 -6.21219 1.84365 0
M  V30 8484 N 812.955 -0.234822 -1.55841 0
M  V30 8485 C 814.183 0.397745 -2.03041 0
M  V30 8486 C 814.598 1.52405 -1.11437 0
M  V30 8487 O 813.955 1.82061 -0.126466 0
M  V30 8488 C 814.006 0.916919 -3.49678 0
M  V30 8489 O 813.727 -0.164493 -4.37791 0
M  V30 8490 C 815.228 1.62139 -4.12584 0
M  V30 8491 H 812.448 0.0959214 -0.664108 0
M  V30 8492 H 814.992 -0.355156 -2.01392 0
M  V30 8493 H 813.147 1.62004 -3.519 0
M  V30 8494 H 813.561 0.227794 -5.24005 0
M  V30 8495 H 815.035 1.93651 -5.16917 0
M  V30 8496 H 815.512 2.53918 -3.58361 0
M  V30 8497 H 816.118 0.963145 -4.14251 0
M  V30 8498 N 814.433 1.57553 0.0384317 0
M  V30 8499 C 815.363 2.0898 1.04161 0
M  V30 8500 C 816.344 0.99029 1.38301 0
M  V30 8501 O 817.529 1.26499 1.47349 0
M  V30 8502 C 814.659 2.56145 2.34536 0
M  V30 8503 C 813.613 3.70275 2.14663 0
M  V30 8504 C 812.939 4.03612 3.50715 0
M  V30 8505 C 814.239 4.99067 1.54045 0
M  V30 8506 H 815.933 2.93046 0.613548 0
M  V30 8507 H 813.479 1.40973 0.293684 0
M  V30 8508 H 815.432 2.90741 3.05037 0
M  V30 8509 H 814.156 1.6915 2.79385 0
M  V30 8510 H 812.815 3.36013 1.46597 0
M  V30 8511 H 812.463 3.13698 3.93195 0
M  V30 8512 H 812.163 4.80482 3.38247 0
M  V30 8513 H 813.687 4.40735 4.22593 0
M  V30 8514 H 815.101 5.3168 2.14451 0
M  V30 8515 H 813.498 5.80484 1.52178 0
M  V30 8516 H 814.568 4.8226 0.505259 0
M  V30 8517 N 815.911 -0.310526 1.54511 0
M  V30 8518 C 817.188 -1.06593 1.64004 0
M  V30 8519 C 817.568 -2.05519 0.482216 0
M  V30 8520 O 816.916 -2.22455 -0.52212 0
M  V30 8521 C 817.126 -1.75627 3.01589 0
M  V30 8522 C 818.474 -2.28173 3.58081 0
M  V30 8523 O 819.498 -1.85674 3.03979 0
M  V30 8524 O 818.357 -3.06015 4.52788 0
M  V30 8525 H 815.451 -0.492109 0.664649 0
M  V30 8526 H 817.997 -0.309374 1.66856 0
M  V30 8527 H 816.769 -1.03743 3.77297 0
M  V30 8528 H 816.392 -2.58061 3.02473 0
M  V30 8529 N 817.389 -1.46805 -0.573248 0
M  V30 8530 C 818.352 -1.57655 -1.66366 0
M  V30 8531 C 819.352 -0.452905 -1.5429 0
M  V30 8532 O 820.542 -0.717502 -1.58737 0
M  V30 8533 C 817.674 -1.50584 -3.05839 0
M  V30 8534 H 818.867 -2.54842 -1.581 0
M  V30 8535 H 816.42 -1.34756 -0.791868 0
M  V30 8536 H 817.155 -0.547127 -3.19651 0
M  V30 8537 H 816.94 -2.32118 -3.16012 0
M  V30 8538 H 818.43 -1.61282 -3.85199 0
M  V30 8539 N 818.867 0.818669 -1.34668 0
M  V30 8540 C 819.83 1.9114 -1.26483 0
M  V30 8541 C 820.83 1.598 -0.179044 0
M  V30 8542 O 822.02 1.6876 -0.431952 0
M  V30 8543 C 819.152 3.27285 -0.95381 0
M  V30 8544 H 820.345 1.9982 -2.23634 0
M  V30 8545 H 817.898 1.01314 -1.19018 0
M  V30 8546 H 818.633 3.24297 0.0143428 0
M  V30 8547 H 818.418 3.51416 -1.73924 0
M  V30 8548 H 819.908 4.07299 -0.921827 0
M  V30 8549 N 820.346 1.18468 1.03938 0
M  V30 8550 C 821.294 0.909286 2.14091 0
M  V30 8551 C 822.288 -0.130928 1.68893 0
M  V30 8552 O 823.494 0.0173403 1.79992 0
M  V30 8553 H 819.869 0.27658 0.699291 0
M  V30 8554 H 821.84 1.84514 2.34515 0
M  V30 8555 C 820.589 0.452922 3.44737 0
M  V30 8556 H 819.912 1.24485 3.79926 0
M  V30 8557 H 821.352 0.299238 4.22943 0
M  V30 8558 C 819.811 -0.831435 3.26479 0
M  V30 8559 O 820.341 -1.89535 3.54174 0
M  V30 8560 N 818.547 -0.784545 2.79809 0
M  V30 8561 H 818.094 0.0814746 2.57471 0
M  V30 8562 H 818.052 -1.64431 2.67973 0
M  V30 8563 N 821.824 -1.22873 0.986916 0
M  V30 8564 C 822.774 -2.2237 0.503547 0
M  V30 8565 C 823.758 -1.55186 -0.424998 0
M  V30 8566 O 824.95 -1.75186 -0.252791 0
M  V30 8567 C 822.079 -3.42794 -0.186355 0
M  V30 8568 C 821.165 -4.17196 0.762143 0
M  V30 8569 N 821.556 -4.68453 1.9075 0
M  V30 8570 C 819.854 -4.42255 0.576797 0
M  V30 8571 C 820.555 -5.25126 2.50235 0
M  V30 8572 N 819.531 -5.13437 1.7856 0
M  V30 8573 H 823.333 -2.59636 1.37718 0
M  V30 8574 H 820.847 -1.38476 0.848415 0
M  V30 8575 H 822.844 -4.13256 -0.549993 0
M  V30 8576 H 821.504 -3.07042 -1.05619 0
M  V30 8577 H 822.515 -4.64595 2.28848 0
M  V30 8578 H 819.192 -4.16766 -0.247474 0
M  V30 8579 H 820.582 -5.75363 3.46997 0
M  V30 8580 N 823.302 -0.75937 -1.38099 0
M  V30 8581 C 824.527 -0.327859 -2.04792 0
M  V30 8582 C 824.952 1.03752 -1.56899 0
M  V30 8583 O 824.31 1.66235 -0.723581 0
M  V30 8584 C 824.358 -0.366264 -3.58735 0
M  V30 8585 O 823.462 0.637697 -4.0744 0
M  V30 8586 H 822.803 -0.144092 -0.648177 0
M  V30 8587 H 825.333 -1.03211 -1.7666 0
M  V30 8588 H 825.343 -0.219179 -4.07411 0
M  V30 8589 H 824.018 -1.36243 -3.92951 0
M  V30 8590 H 822.595 0.454749 -3.70117 0
M  V30 8591 N 824.78 1.49157 -0.508906 0
M  V30 8592 C 826.029 2.0167 0.0346854 0
M  V30 8593 C 826.342 1.39302 1.37311 0
M  V30 8594 O 827.548 1.83189 2.00385 0
M  V30 8595 C 826.004 3.59725 0.112261 0
M  V30 8596 C 825.612 4.31069 -1.21999 0
M  V30 8597 C 827.356 4.20155 0.605798 0
M  V30 8598 C 825.263 5.81001 -1.10415 0
M  V30 8599 H 824.193 0.753814 0.0167355 0
M  V30 8600 H 826.844 1.7162 -0.649518 0
M  V30 8601 H 825.226 3.86525 0.861087 0
M  V30 8602 H 826.4 4.15962 -1.98273 0
M  V30 8603 H 824.715 3.82418 -1.64759 0
M  V30 8604 H 827.312 5.29964 0.710102 0
M  V30 8605 H 827.655 3.84051 1.60656 0
M  V30 8606 H 828.188 3.97705 -0.0867239 0
M  V30 8607 H 824.927 6.21643 -2.07941 0
M  V30 8608 H 824.447 5.9858 -0.382428 0
M  V30 8609 H 826.126 6.42207 -0.786116 0
M  V30 8610 N 826.258 0.243083 1.55714 0
M  V30 8611 C 827.669 -0.260788 1.8487 0
M  V30 8612 C 828.02 -1.57879 1.16485 0
M  V30 8613 O 827.145 -2.1184 0.441908 0
M  V30 8614 C 827.74 -0.479954 3.35383 0
M  V30 8615 C 826.299 -0.928096 3.64778 0
M  V30 8616 C 825.446 -0.00316416 2.773 0
M  V30 8617 H 828.397 0.465743 1.51712 0
M  V30 8618 H 828.418 -1.32308 3.56756 0
M  V30 8619 H 827.93 0.479468 3.85127 0
M  V30 8620 H 826.031 -1.90012 3.20509 0
M  V30 8621 H 826.144 -0.7876 4.72582 0
M  V30 8622 H 824.508 -0.513849 2.49463 0
M  V30 8623 H 825.291 0.951562 3.29849 0
M  V30 8624 N 827.736 -1.57571 -0.0300757 0
M  V30 8625 C 829.013 -1.80381 -0.756447 0
M  V30 8626 C 829.393 -0.840906 -1.93628 0
M  V30 8627 O 828.741 0.117143 -2.282 0
M  V30 8628 C 828.951 -3.2807 -1.19043 0
M  V30 8629 C 830.299 -3.93025 -1.60676 0
M  V30 8630 O 831.323 -3.32213 -1.28503 0
M  V30 8631 O 830.182 -5.00092 -2.20386 0
M  V30 8632 H 827.276 -0.741737 -0.365725 0
M  V30 8633 H 829.822 -1.69699 -0.00693177 0
M  V30 8634 H 828.594 -3.89748 -0.348128 0
M  V30 8635 H 828.217 -3.43637 -1.99999 0
M  V30 8636 N 829.214 0.302327 -1.54673 0
M  V30 8637 C 830.144 1.37759 -1.88533 0
M  V30 8638 C 831.125 1.52961 -0.744113 0
M  V30 8639 O 832.31 1.6649 -0.999731 0
M  V30 8640 C 829.44 2.74201 -2.13146 0
M  V30 8641 C 828.394 2.73765 -3.28993 0
M  V30 8642 C 827.72 4.13483 -3.39022 0
M  V30 8643 C 829.02 2.35624 -4.66132 0
M  V30 8644 H 830.714 1.0967 -2.78591 0
M  V30 8645 H 828.26 0.52613 -1.34044 0
M  V30 8646 H 830.213 3.49508 -2.35419 0
M  V30 8647 H 828.937 3.03812 -1.19858 0
M  V30 8648 H 827.596 2.00914 -3.06642 0
M  V30 8649 H 827.244 4.40269 -2.43253 0
M  V30 8650 H 826.944 4.14093 -4.16894 0
M  V30 8651 H 828.468 4.90572 -3.63553 0
M  V30 8652 H 829.882 3.00647 -4.88143 0
M  V30 8653 H 828.279 2.47449 -5.46707 0
M  V30 8654 H 829.349 1.30753 -4.66939 0
M  V30 8655 N 830.692 1.47107 0.565454 0
M  V30 8656 C 831.624 1.55024 1.6882 0
M  V30 8657 C 832.637 0.4371 1.56822 0
M  V30 8658 O 833.826 0.706315 1.63931 0
M  V30 8659 C 830.926 1.43069 3.0722 0
M  V30 8660 C 830.099 2.68807 3.45053 0
M  V30 8661 C 829.158 2.50806 4.62583 0
M  V30 8662 O 828.184 3.24593 4.67577 0
M  V30 8663 N 829.386 1.58093 5.58558 0
M  V30 8664 H 832.151 2.51836 1.62477 0
M  V30 8665 H 829.712 1.43382 0.751885 0
M  V30 8666 H 831.704 1.28773 3.83666 0
M  V30 8667 H 830.274 0.543721 3.07835 0
M  V30 8668 H 829.494 2.97923 2.58138 0
M  V30 8669 H 830.782 3.52298 3.67101 0
M  V30 8670 H 830.18 0.972807 5.57273 0
M  V30 8671 H 828.737 1.49753 6.34364 0
M  V30 8672 N 832.17 -0.811516 1.35101 0
M  V30 8673 C 833.586 -1.10634 1.15031 0
M  V30 8674 C 833.786 -2.01459 -0.0405379 0
M  V30 8675 O 832.842 -2.42235 -0.712635 0
M  V30 8676 C 834.155 -1.74207 2.45097 0
M  V30 8677 C 835.703 -1.8665 2.51258 0
M  V30 8678 C 836.178 -2.53638 3.81355 0
M  V30 8679 N 837.669 -2.61128 3.82579 0
M  V30 8680 C 838.404 -3.13717 4.79968 0
M  V30 8681 N 837.9 -3.66782 5.87744 0
M  V30 8682 N 839.693 -3.12224 4.67411 0
M  V30 8683 H 831.844 -0.207641 2.11383 0
M  V30 8684 H 834.107 -0.154697 0.935293 0
M  V30 8685 H 833.813 -1.14936 3.32389 0
M  V30 8686 H 833.687 -2.73958 2.59281 0
M  V30 8687 H 836.074 -2.45066 1.64398 0
M  V30 8688 H 836.155 -0.857678 2.40993 0
M  V30 8689 H 835.799 -1.95873 4.68611 0
M  V30 8690 H 835.729 -3.55047 3.88907 0
M  V30 8691 H 838.22 -2.23527 3.04703 0
M  V30 8692 H 838.533 -4.05194 6.58056 0
M  V30 8693 H 836.878 -3.64994 5.91443 0
M  V30 8694 H 840.069 -2.70042 3.82354 0
M  V30 8695 H 840.242 -3.52903 5.43474 0
M  V30 8696 N 833.648 -1.19017 -1.03309 0
M  V30 8697 C 834.611 -0.926076 -2.09658 0
M  V30 8698 C 835.611 0.0917077 -1.60538 0
M  V30 8699 O 836.801 -0.142574 -1.73616 0
M  V30 8700 C 833.933 -0.390958 -3.38651 0
M  V30 8701 H 835.126 -1.86923 -2.3452 0
M  V30 8702 H 832.679 -1.00325 -1.19853 0
M  V30 8703 H 833.414 0.558446 -3.19456 0
M  V30 8704 H 833.199 -1.12474 -3.75622 0
M  V30 8705 H 834.689 -0.225131 -4.16993 0
M  V30 8706 N 835.127 1.22348 -0.993418 0
M  V30 8707 C 836.09 2.22522 -0.549251 0
M  V30 8708 C 837.09 1.56529 0.368164 0
M  V30 8709 O 838.28 1.73463 0.16005 0
M  V30 8710 C 835.412 3.40307 0.201037 0
M  V30 8711 H 836.605 2.63332 -1.43515 0
M  V30 8712 H 834.158 1.35407 -0.78068 0
M  V30 8713 H 834.893 3.0497 1.10289 0
M  V30 8714 H 834.678 3.8942 -0.457685 0
M  V30 8715 H 836.168 4.14597 0.499946 0
M  V30 8716 N 836.605 0.766683 1.37694 0
M  V30 8717 C 837.851 0.329201 2.0011 0
M  V30 8718 C 838.184 -1.09004 1.60723 0
M  V30 8719 O 837.459 -1.74895 0.850989 0
M  V30 8720 C 837.742 0.466989 3.57059 0
M  V30 8721 C 837.595 1.92828 4.06371 0
M  V30 8722 C 838.914 -0.131792 4.39903 0
M  V30 8723 H 836.033 0.12109 0.726984 0
M  V30 8724 H 838.675 0.968779 1.63446 0
M  V30 8725 H 836.825 -0.0775023 3.88423 0
M  V30 8726 H 838.497 2.53208 3.85595 0
M  V30 8727 H 836.74 2.43884 3.58752 0
M  V30 8728 H 837.411 1.97577 5.15429 0
M  V30 8729 H 839.887 0.332731 4.14768 0
M  V30 8730 H 838.763 -0.005217 5.489 0
M  V30 8731 H 839.024 -1.22156 4.24889 0
M  V30 8732 N 838.083 -1.48885 0.516809 0
M  V30 8733 C 839.311 -2.06892 -0.0184017 0
M  V30 8734 C 839.726 -1.37511 -1.29368 0
M  V30 8735 O 839.083 -0.458409 -1.76649 0
M  V30 8736 C 839.134 -3.60566 -0.259673 0
M  V30 8737 O 838.855 -4.27338 0.965065 0
M  V30 8738 C 840.356 -4.35331 -0.836751 0
M  V30 8739 H 837.576 -0.670433 0.0275743 0
M  V30 8740 H 840.12 -1.91455 0.718689 0
M  V30 8741 H 838.275 -3.75653 -0.94678 0
M  V30 8742 H 838.689 -5.19287 0.737647 0
M  V30 8743 H 840.163 -5.43675 -0.955065 0
M  V30 8744 H 840.64 -3.9887 -1.83845 0
M  V30 8745 H 841.246 -4.2489 -0.186622 0
M  V30 8746 N 839.561 -0.251338 -1.55583 0
M  V30 8747 C 840.81 0.372681 -1.98227 0
M  V30 8748 C 841.123 1.58743 -1.1428 0
M  V30 8749 O 842.329 2.28289 -1.46957 0
M  V30 8750 C 840.785 0.714439 -3.52738 0
M  V30 8751 C 840.393 -0.479168 -4.4543 0
M  V30 8752 C 842.137 1.3024 -4.04027 0
M  V30 8753 C 840.044 -0.113318 -5.91291 0
M  V30 8754 H 838.974 0.14302 -0.740312 0
M  V30 8755 H 841.625 -0.352253 -1.80087 0
M  V30 8756 H 840.007 1.49762 -3.66589 0
M  V30 8757 H 841.181 -1.25644 -4.4334 0
M  V30 8758 H 839.496 -0.982359 -4.04646 0
M  V30 8759 H 842.093 1.58953 -5.10527 0
M  V30 8760 H 842.436 2.22837 -3.51638 0
M  V30 8761 H 842.969 0.582024 -3.93519 0
M  V30 8762 H 839.708 -1.00654 -6.47726 0
M  V30 8763 H 839.228 0.627666 -5.96507 0
M  V30 8764 H 840.907 0.30293 -6.4629 0
M  V30 8765 N 841.039 1.57585 0.0217189 0
M  V30 8766 C 841.969 2.10073 1.01939 0
M  V30 8767 C 842.95 1.0049 1.37243 0
M  V30 8768 O 844.135 1.28055 1.45999 0
M  V30 8769 C 841.265 2.58618 2.31806 0
M  V30 8770 C 840.219 3.72531 2.10724 0
M  V30 8771 C 839.545 4.07309 3.46415 0
M  V30 8772 C 840.845 5.00672 1.48743 0
M  V30 8773 H 842.539 2.9368 0.582432 0
M  V30 8774 H 840.085 1.41277 0.278715 0
M  V30 8775 H 842.038 2.9396 3.01936 0
M  V30 8776 H 840.762 1.72104 2.77575 0
M  V30 8777 H 839.421 3.37549 1.43025 0
M  V30 8778 H 839.069 3.17851 3.89846 0
M  V30 8779 H 838.769 4.84042 3.33132 0
M  V30 8780 H 840.293 4.45192 4.17895 0
M  V30 8781 H 841.707 5.33925 2.088 0
M  V30 8782 H 840.104 5.82065 1.46013 0
M  V30 8783 H 841.174 4.82769 0.45408 0
M  V30 8784 N 842.517 -0.29412 1.54831 0
M  V30 8785 C 843.794 -1.04847 1.65126 0
M  V30 8786 C 844.174 -2.04996 0.503986 0
M  V30 8787 O 843.522 -2.22996 -0.498496 0
M  V30 8788 C 843.732 -1.72418 3.03435 0
M  V30 8789 C 845.08 -2.24362 3.60481 0
M  V30 8790 O 846.104 -1.8244 3.05932 0
M  V30 8791 O 844.963 -3.01196 4.56008 0
M  V30 8792 H 842.057 -0.485032 0.669831 0
M  V30 8793 H 844.603 -0.291659 1.67175 0
M  V30 8794 H 843.375 -0.997351 3.78376 0
M  V30 8795 H 842.998 -2.54839 3.05193 0
M  V30 8796 N 843.995 -1.47404 -0.557645 0
M  V30 8797 C 845.243 -1.53703 -1.31224 0
M  V30 8798 C 845.564 -0.200742 -1.93964 0
M  V30 8799 O 844.834 0.775253 -1.79907 0
M  V30 8800 H 843.414 -0.566171 -0.487299 0
M  V30 8801 H 846.076 -1.83699 -0.651195 0
M  V30 8802 H 845.172 -2.30335 -2.10599 0
M  V30 8803 N 845.473 0.80434 -1.35529 0
M  V30 8804 C 846.722 1.55665 -1.28263 0
M  V30 8805 C 847.035 1.95096 0.140352 0
M  V30 8806 O 848.241 2.69422 0.335303 0
M  V30 8807 C 846.697 2.80935 -2.24952 0
M  V30 8808 C 846.305 2.48733 -3.72607 0
M  V30 8809 C 848.049 3.5894 -2.26632 0
M  V30 8810 C 845.956 3.70308 -4.61114 0
M  V30 8811 H 844.886 0.584301 -0.476559 0
M  V30 8812 H 847.537 0.88395 -1.60806 0
M  V30 8813 H 845.919 3.49927 -1.85383 0
M  V30 8814 H 847.093 1.87733 -4.20824 0
M  V30 8815 H 845.408 1.83969 -3.73557 0
M  V30 8816 H 848.005 4.49244 -2.89973 0
M  V30 8817 H 848.348 3.96433 -1.27069 0
M  V30 8818 H 848.881 2.96912 -2.64742 0
M  V30 8819 H 845.62 3.37922 -5.61684 0
M  V30 8820 H 845.14 4.30526 -4.17621 0
M  V30 8821 H 846.819 4.37511 -4.76648 0
M  V30 8822 N 846.951 1.19563 1.02676 0
M  V30 8823 C 848.176 1.02556 1.80269 0
M  V30 8824 C 848.601 -0.421056 1.83327 0
M  V30 8825 O 847.959 -1.30279 1.26084 0
M  V30 8826 C 848.007 1.60165 3.23078 0
M  V30 8827 O 847.111 0.832404 4.03912 0
M  V30 8828 H 846.452 0.362354 0.556413 0
M  V30 8829 H 848.982 1.58633 1.29216 0
M  V30 8830 H 848.992 1.6347 3.7382 0
M  V30 8831 H 847.667 2.65454 3.20167 0
M  V30 8832 H 846.244 0.872768 3.62543 0
M  V30 8833 N 848.429 -1.21819 0.999893 0
M  V30 8834 C 849.339 -2.27691 0.565159 0
M  V30 8835 C 850.355 -1.69587 -0.389398 0
M  V30 8836 O 851.531 -1.99786 -0.254499 0
M  V30 8837 C 848.596 -3.46537 -0.106432 0
M  V30 8838 C 847.657 -4.19932 0.891964 0
M  V30 8839 C 846.89 -5.33103 0.252327 0
M  V30 8840 O 847.113 -5.62398 -0.952103 0
M  V30 8841 O 846.047 -5.94184 0.960698 0
M  V30 8842 H 849.873 -2.67059 1.44613 0
M  V30 8843 H 847.458 -1.28119 0.768499 0
M  V30 8844 H 849.34 -4.18631 -0.482301 0
M  V30 8845 H 848.015 -3.09079 -0.961865 0
M  V30 8846 H 846.922 -3.5008 1.3189 0
M  V30 8847 H 848.255 -4.61287 1.71682 0
M  V30 8848 N 849.908 -0.773975 -1.37286 0
M  V30 8849 C 850.84 -0.119938 -2.28886 0
M  V30 8850 C 851.853 0.661822 -1.48741 0
M  V30 8851 O 853.042 0.499548 -1.71367 0
M  V30 8852 C 850.142 0.853703 -3.27971 0
M  V30 8853 C 849.315 0.125286 -4.37221 0
M  V30 8854 C 848.374 1.01261 -5.16365 0
M  V30 8855 O 847.4 0.475565 -5.6721 0
M  V30 8856 N 848.602 2.33864 -5.31308 0
M  V30 8857 H 851.367 -0.906702 -2.85655 0
M  V30 8858 H 848.928 -0.626519 -1.49286 0
M  V30 8859 H 850.92 1.4508 -3.77801 0
M  V30 8860 H 849.49 1.54142 -2.71954 0
M  V30 8861 H 848.71 -0.652742 -3.88758 0
M  V30 8862 H 849.998 -0.377959 -5.07394 0
M  V30 8863 H 849.396 2.79929 -4.91585 0
M  V30 8864 H 847.953 2.88575 -5.84438 0
M  V30 8865 N 851.386 1.48609 -0.524698 0
M  V30 8866 C 852.611 2.07398 0.00952139 0
M  V30 8867 C 853.036 1.37939 1.27884 0
M  V30 8868 O 852.394 0.443633 1.75788 0
M  V30 8869 C 852.442 3.59916 0.221956 0
M  V30 8870 O 851.546 3.91647 1.29175 0
M  V30 8871 H 850.887 0.662981 -0.0367729 0
M  V30 8872 H 853.417 1.91092 -0.7311 0
M  V30 8873 H 853.427 4.05552 0.446236 0
M  V30 8874 H 852.102 4.09876 -0.705306 0
M  V30 8875 H 850.679 3.57796 1.05055 0
M  V30 8876 N 852.864 0.259585 1.55447 0
M  V30 8877 C 853.794 -0.62852 2.24882 0
M  V30 8878 C 854.775 -1.17128 1.23349 0
M  V30 8879 O 855.96 -1.20829 1.52033 0
M  V30 8880 C 853.09 -1.81983 2.95803 0
M  V30 8881 C 852.044 -1.40929 4.04132 0
M  V30 8882 C 851.37 -2.68246 4.62545 0
M  V30 8883 C 852.67 -0.570956 5.1917 0
M  V30 8884 H 854.364 -0.0495021 2.99359 0
M  V30 8885 H 851.91 -0.0223688 1.43983 0
M  V30 8886 H 853.863 -2.44689 3.43082 0
M  V30 8887 H 852.587 -2.42444 2.18835 0
M  V30 8888 H 851.246 -0.805519 3.57641 0
M  V30 8889 H 850.894 -3.26931 3.82263 0
M  V30 8890 H 850.594 -2.41495 5.35681 0
M  V30 8891 H 852.118 -3.31827 5.12565 0
M  V30 8892 H 853.532 -1.10262 5.62597 0
M  V30 8893 H 851.929 -0.398979 5.98772 0
M  V30 8894 H 852.999 0.413918 4.8313 0
M  V30 8895 N 854.342 -1.57594 -0.0133615 0
M  V30 8896 C 855.758 -1.5527 -0.369255 0
M  V30 8897 C 855.958 -0.987751 -1.7563 0
M  V30 8898 O 855.014 -0.615683 -2.44879 0
M  V30 8899 C 856.327 -2.99602 -0.25672 0
M  V30 8900 C 857.875 -3.11227 -0.332647 0
M  V30 8901 C 858.35 -4.57321 -0.249387 0
M  V30 8902 N 859.841 -4.62177 -0.3077 0
M  V30 8903 C 860.576 -5.72781 -0.26641 0
M  V30 8904 N 860.072 -6.92575 -0.176494 0
M  V30 8905 N 861.865 -5.61204 -0.317295 0
M  V30 8906 H 854.016 -1.92662 0.894154 0
M  V30 8907 H 856.279 -0.884352 0.341505 0
M  V30 8908 H 855.985 -3.44723 0.697072 0
M  V30 8909 H 855.859 -3.6246 -1.04415 0
M  V30 8910 H 858.246 -2.66045 -1.27688 0
M  V30 8911 H 858.327 -2.51171 0.484412 0
M  V30 8912 H 857.971 -5.03174 0.691242 0
M  V30 8913 H 857.901 -5.15306 -1.08476 0
M  V30 8914 H 860.392 -3.75994 -0.379069 0
M  V30 8915 H 860.705 -7.72653 -0.150518 0
M  V30 8916 H 859.05 -6.94854 -0.142314 0
M  V30 8917 H 862.241 -4.66509 -0.385643 0
M  V30 8918 H 862.414 -6.47388 -0.28165 0
M  V30 8919 N 855.82 0.285905 -1.54985 0
M  V30 8920 C 856.75 1.35752 -1.89983 0
M  V30 8921 C 857.731 1.52163 -0.760295 0
M  V30 8922 O 858.916 1.65421 -1.01733 0
M  V30 8923 C 856.046 2.71925 -2.16042 0
M  V30 8924 C 855 2.70261 -3.31878 0
M  V30 8925 C 854.326 4.09864 -3.43388 0
M  V30 8926 C 855.626 2.30667 -4.68604 0
M  V30 8927 H 857.32 1.06709 -2.79738 0
M  V30 8928 H 854.866 0.511884 -1.34595 0
M  V30 8929 H 856.819 3.46992 -2.39113 0
M  V30 8930 H 855.543 3.02523 -1.23074 0
M  V30 8931 H 854.202 1.97651 -3.08755 0
M  V30 8932 H 853.85 4.37664 -2.47909 0
M  V30 8933 H 853.55 4.09648 -4.21262 0
M  V30 8934 H 855.074 4.86689 -3.68736 0
M  V30 8935 H 856.488 2.95453 -4.91305 0
M  V30 8936 H 854.885 2.41637 -5.49301 0
M  V30 8937 H 855.955 1.25793 -4.68299 0
M  V30 8938 N 857.298 1.47698 0.54982 0
M  V30 8939 C 858.544 1.54931 1.30859 0
M  V30 8940 C 858.877 0.214021 1.93017 0
M  V30 8941 O 858.152 -0.778093 1.78258 0
M  V30 8942 C 858.435 2.67286 2.41309 0
M  V30 8943 C 858.288 4.10457 1.83971 0
M  V30 8944 C 859.607 2.75509 3.43195 0
M  V30 8945 H 856.726 0.56399 0.474431 0
M  V30 8946 H 859.368 1.79787 0.614541 0
M  V30 8947 H 857.518 2.46224 3.0051 0
M  V30 8948 H 859.19 4.42903 1.28974 0
M  V30 8949 H 857.433 4.18387 1.14606 0
M  V30 8950 H 858.104 4.84857 2.63851 0
M  V30 8951 H 860.58 2.94531 2.93923 0
M  V30 8952 H 859.456 3.55886 4.17895 0
M  V30 8953 H 859.717 1.82863 4.02509 0
M  V30 8954 N 858.776 -0.797141 1.35954 0
M  V30 8955 C 860.053 -1.54224 1.2031 0
M  V30 8956 C 860.433 -2.10013 -0.213926 0
M  V30 8957 O 859.781 -1.93292 -1.21862 0
M  V30 8958 C 859.991 -2.6433 2.27883 0
M  V30 8959 C 861.339 -3.32418 2.64165 0
M  V30 8960 O 862.363 -2.74607 2.26868 0
M  V30 8961 O 861.222 -4.36876 3.28331 0
M  V30 8962 H 858.316 -0.681857 0.467974 0
M  V30 8963 H 860.862 -0.836288 1.47663 0
M  V30 8964 H 859.634 -2.21044 3.22885 0
M  V30 8965 H 859.257 -3.42551 2.01853 0
M  V30 8966 N 860.254 -1.20106 -1.0204 0
M  V30 8967 C 861.217 -0.948261 -2.08664 0
M  V30 8968 C 862.217 0.0746753 -1.60627 0
M  V30 8969 O 863.407 -0.160981 -1.73455 0
M  V30 8970 C 860.539 -0.426854 -3.38217 0
M  V30 8971 H 861.732 -1.894 -2.32524 0
M  V30 8972 H 859.285 -1.0159 -1.18782 0
M  V30 8973 H 860.02 0.524532 -3.2003 0
M  V30 8974 H 859.805 -1.16451 -3.74408 0
M  V30 8975 H 861.295 -0.269346 -4.1673 0
M  V30 8976 N 861.732 1.21287 -1.00634 0
M  V30 8977 C 862.665 2.22366 -0.512687 0
M  V30 8978 C 863.643 1.56692 0.434332 0
M  V30 8979 O 864.827 1.85094 0.35674 0
M  V30 8980 C 861.954 3.37738 0.255139 0
M  V30 8981 C 861 4.21673 -0.639883 0
M  V30 8982 S 861.833 4.92474 -2.10308 0
M  V30 8983 C 862.989 6.11275 -1.34512 0
M  V30 8984 H 863.222 2.63896 -1.36918 0
M  V30 8985 H 860.755 1.31176 -0.814387 0
M  V30 8986 H 862.713 4.04624 0.692067 0
M  V30 8987 H 861.374 2.94689 1.08707 0
M  V30 8988 H 860.567 5.03977 -0.0483821 0
M  V30 8989 H 860.169 3.59988 -1.01414 0
M  V30 8990 H 862.461 6.7466 -0.619721 0
M  V30 8991 H 863.404 6.74864 -2.14393 0
M  V30 8992 H 863.812 5.58026 -0.852506 0
M  V30 8993 N 863.21 0.781244 1.36873 0
M  V30 8994 C 864.456 0.350407 1.9975 0
M  V30 8995 C 864.789 -1.07293 1.6187 0
M  V30 8996 O 864.064 -1.73983 0.869491 0
M  V30 8997 C 864.347 0.504834 3.56544 0
M  V30 8998 C 864.2 1.97127 4.04303 0
M  V30 8999 C 865.519 -0.0851272 4.40018 0
M  V30 9000 H 862.638 0.128794 0.725659 0
M  V30 9001 H 865.28 0.98606 1.6241 0
M  V30 9002 H 863.43 -0.0363006 3.88483 0
M  V30 9003 H 865.102 2.57284 3.82887 0
M  V30 9004 H 863.345 2.47676 3.56145 0
M  V30 9005 H 864.016 2.03033 5.13305 0
M  V30 9006 H 866.492 0.376704 4.14391 0
M  V30 9007 H 865.368 0.0530015 5.48874 0
M  V30 9008 H 865.629 -1.17642 4.2616 0
M  V30 9009 N 864.689 -1.48329 0.532571 0
M  V30 9010 C 865.919 -2.066 0.00353785 0
M  V30 9011 C 866.327 -1.38913 -1.28451 0
M  V30 9012 O 865.67 -0.471385 -1.77549 0
M  V30 9013 C 865.732 -3.58342 -0.288324 0
M  V30 9014 C 865.396 -4.47917 0.906631 0
M  V30 9015 C 866.393 -4.87534 1.80572 0
M  V30 9016 C 864.078 -4.89783 1.11436 0
M  V30 9017 C 866.072 -5.6779 2.89642 0
M  V30 9018 C 863.759 -5.69809 2.20819 0
M  V30 9019 C 864.757 -6.08721 3.09755 0
M  V30 9020 O 864.445 -6.8714 4.17246 0
M  V30 9021 H 864.177 -0.675263 0.0315661 0
M  V30 9022 H 866.731 -1.91669 0.738375 0
M  V30 9023 H 864.961 -3.71395 -1.07717 0
M  V30 9024 H 866.65 -3.98726 -0.759752 0
M  V30 9025 H 867.416 -4.5581 1.65719 0
M  V30 9026 H 863.295 -4.58977 0.431382 0
M  V30 9027 H 866.839 -5.98082 3.59087 0
M  V30 9028 H 862.736 -6.00947 2.35655 0
M  V30 9029 H 863.504 -7.05498 4.14988 0
M  V30 9030 N 866.167 -0.267825 -1.55308 0
M  V30 9031 C 867.395 0.354587 -2.03839 0
M  V30 9032 C 867.81 1.50007 -1.14644 0
M  V30 9033 O 867.167 1.81752 -0.165055 0
M  V30 9034 C 867.218 0.84254 -3.51544 0
M  V30 9035 O 866.939 -0.257318 -4.37344 0
M  V30 9036 C 868.44 1.53351 -4.15931 0
M  V30 9037 H 865.66 0.0818131 -0.665994 0
M  V30 9038 H 868.204 -0.397795 -2.00594 0
M  V30 9039 H 866.359 1.54503 -3.55257 0
M  V30 9040 H 866.773 0.116593 -5.2437 0
M  V30 9041 H 868.247 1.82643 -5.20908 0
M  V30 9042 H 868.724 2.4626 -3.63666 0
M  V30 9043 H 869.33 0.87506 -4.162 0
M  V30 9044 N 867.645 1.57599 0.00500368 0
M  V30 9045 C 868.87 1.95026 0.705663 0
M  V30 9046 C 869.295 0.869643 1.6679 0
M  V30 9047 O 868.653 -0.172659 1.80476 0
M  V30 9048 C 868.701 3.31545 1.4181 0
M  V30 9049 O 867.805 3.25495 2.53232 0
M  V30 9050 H 867.146 0.636808 0.188074 0
M  V30 9051 H 869.676 2.04547 -0.046696 0
M  V30 9052 H 869.686 3.66996 1.78265 0
M  V30 9053 H 868.361 4.09751 0.712543 0
M  V30 9054 H 866.938 3.01714 2.19142 0
M  V30 9055 N 869.123 -0.277682 1.55134 0
M  V30 9056 C 870.4 -1.0309 1.66228 0
M  V30 9057 C 870.78 -2.0445 0.525701 0
M  V30 9058 O 870.128 -2.23512 -0.474816 0
M  V30 9059 C 870.338 -1.6919 3.05247 0
M  V30 9060 C 871.686 -2.20526 3.62841 0
M  V30 9061 O 872.71 -1.79185 3.07849 0
M  V30 9062 O 871.569 -2.96342 4.59177 0
M  V30 9063 H 868.663 -0.4779 0.674937 0
M  V30 9064 H 871.209 -0.273912 1.67475 0
M  V30 9065 H 869.981 -0.957163 3.79413 0
M  V30 9066 H 869.604 -2.51587 3.07879 0
M  V30 9067 N 870.601 -1.47988 -0.541979 0
M  V30 9068 C 871.531 -1.64503 -1.65713 0
M  V30 9069 C 872.512 -0.494116 -1.62765 0
M  V30 9070 O 873.697 -0.725256 -1.80149 0
M  V30 9071 C 870.827 -1.67337 -3.04328 0
M  V30 9072 C 869.781 -2.81809 -3.2213 0
M  V30 9073 C 869.107 -2.69724 -4.61685 0
M  V30 9074 C 870.407 -4.23241 -3.06046 0
M  V30 9075 H 872.101 -2.5786 -1.52147 0
M  V30 9076 H 869.647 -1.24094 -0.730529 0
M  V30 9077 H 871.6 -1.77481 -3.82202 0
M  V30 9078 H 870.324 -0.705514 -3.18889 0
M  V30 9079 H 868.983 -2.71201 -2.46669 0
M  V30 9080 H 868.631 -1.70934 -4.73065 0
M  V30 9081 H 868.331 -3.4653 -4.74543 0
M  V30 9082 H 869.855 -2.81818 -5.41674 0
M  V30 9083 H 871.269 -4.34746 -3.73723 0
M  V30 9084 H 869.666 -5.00952 -3.30405 0
M  V30 9085 H 870.736 -4.40543 -2.02609 0
M  V30 9086 N 872.079 0.78992 -1.36375 0
M  V30 9087 C 873.009 1.91683 -1.33341 0
M  V30 9088 C 873.99 1.68861 -0.204965 0
M  V30 9089 O 875.175 1.89982 -0.402531 0
M  V30 9090 C 872.305 3.28696 -1.12143 0
M  V30 9091 C 871.259 3.66041 -2.21806 0
M  V30 9092 C 870.585 5.01399 -1.85751 0
M  V30 9093 C 871.885 3.74677 -3.63888 0
M  V30 9094 H 873.579 1.94478 -2.27637 0
M  V30 9095 H 871.125 0.934271 -1.09578 0
M  V30 9096 H 873.078 4.07151 -1.08656 0
M  V30 9097 H 871.802 3.26287 -0.142974 0
M  V30 9098 H 870.461 2.89883 -2.24418 0
M  V30 9099 H 870.109 4.9551 -0.864817 0
M  V30 9100 H 869.809 5.27355 -2.59173 0
M  V30 9101 H 871.333 5.82274 -1.83819 0
M  V30 9102 H 872.747 4.43324 -3.63506 0
M  V30 9103 H 871.144 4.12118 -4.3621 0
M  V30 9104 H 872.214 2.75795 -3.9883 0
M  V30 9105 N 873.557 1.20646 1.01402 0
M  V30 9106 C 874.785 1.04389 1.78635 0
M  V30 9107 C 875.2 -0.406771 1.84366 0
M  V30 9108 O 874.557 -1.28239 1.2985 0
M  V30 9109 C 874.608 1.62378 3.22979 0
M  V30 9110 O 874.329 3.01768 3.17597 0
M  V30 9111 C 875.83 1.5111 4.1675 0
M  V30 9112 H 873.05 0.367077 0.56169 0
M  V30 9113 H 875.594 1.59789 1.27624 0
M  V30 9114 H 873.749 1.11092 3.7113 0
M  V30 9115 H 874.163 3.29331 4.08217 0
M  V30 9116 H 875.637 1.96441 5.15863 0
M  V30 9117 H 876.114 0.464011 4.36742 0
M  V30 9118 H 876.72 2.01599 3.74483 0
M  V30 9119 N 875.035 -1.20752 1.01276 0
M  V30 9120 C 875.983 -2.25432 0.572989 0
M  V30 9121 C 876.977 -1.64935 -0.386354 0
M  V30 9122 O 878.183 -1.7816 -0.256696 0
M  V30 9123 H 874.558 -0.733229 0.166972 0
M  V30 9124 H 876.529 -2.59856 1.46687 0
M  V30 9125 C 875.278 -3.47615 -0.0768249 0
M  V30 9126 H 874.601 -3.94442 0.652354 0
M  V30 9127 H 876.041 -4.22572 -0.3477 0
M  V30 9128 C 874.5 -3.1003 -1.31845 0
M  V30 9129 O 875.03 -3.21216 -2.41211 0
M  V30 9130 N 873.236 -2.64616 -1.20111 0
M  V30 9131 H 872.783 -2.55714 -0.311184 0
M  V30 9132 H 872.741 -2.39838 -2.03286 0
M  V30 9133 N 876.513 -0.788492 -1.36457 0
M  V30 9134 C 877.738 -0.371224 -2.04051 0
M  V30 9135 C 878.163 1.004 -1.59064 0
M  V30 9136 O 877.521 1.64663 -0.758679 0
M  V30 9137 C 877.569 -0.442275 -3.57877 0
M  V30 9138 O 876.673 0.55113 -4.08701 0
M  V30 9139 H 876.014 -0.157808 -0.644975 0
M  V30 9140 H 878.544 -1.06935 -1.74431 0
M  V30 9141 H 878.554 -0.305548 -4.06854 0
M  V30 9142 H 877.229 -1.44547 -3.89973 0
M  V30 9143 H 875.806 0.37614 -3.70998 0
M  V30 9144 N 877.991 1.48044 -0.54043 0
M  V30 9145 C 879.237 2.02797 -0.0101718 0
M  V30 9146 C 879.57 1.41565 1.32939 0
M  V30 9147 O 878.845 0.565139 1.86109 0
M  V30 9148 C 879.128 3.59959 0.100758 0
M  V30 9149 C 878.981 4.31654 -1.26471 0
M  V30 9150 C 880.3 4.32347 0.822455 0
M  V30 9151 H 877.419 0.736982 -0.00517052 0
M  V30 9152 H 880.061 1.76656 -0.69948 0
M  V30 9153 H 878.211 3.82363 0.687824 0
M  V30 9154 H 879.883 4.20639 -1.89369 0
M  V30 9155 H 878.126 3.92663 -1.84386 0
M  V30 9156 H 878.797 5.401 -1.13998 0
M  V30 9157 H 881.273 4.14835 0.324164 0
M  V30 9158 H 880.149 5.41978 0.868993 0
M  V30 9159 H 880.41 4.00369 1.87501 0
M  V30 9160 N 879.47 0.276058 1.55163 0
M  V30 9161 C 880.719 -0.341098 1.98795 0
M  V30 9162 C 881.032 -1.56905 1.16791 0
M  V30 9163 O 882.238 -2.25922 1.50571 0
M  V30 9164 C 880.694 -0.658231 3.5383 0
M  V30 9165 C 880.302 0.549972 4.44611 0
M  V30 9166 C 882.046 -1.23796 4.06048 0
M  V30 9167 C 879.953 0.207373 5.91036 0
M  V30 9168 H 878.883 -0.131224 0.742493 0
M  V30 9169 H 881.534 0.380858 1.79504 0
M  V30 9170 H 879.916 -1.43911 3.68925 0
M  V30 9171 H 881.09 1.32681 4.41285 0
M  V30 9172 H 879.405 1.04661 4.03032 0
M  V30 9173 H 882.002 -1.50811 5.12991 0
M  V30 9174 H 882.345 -2.17214 3.55139 0
M  V30 9175 H 882.878 -0.519345 3.94395 0
M  V30 9176 H 879.617 1.10946 6.46043 0
M  V30 9177 H 879.137 -0.532687 5.9743 0
M  V30 9178 H 880.816 -0.200072 6.46691 0
M  V30 9179 N 880.948 -1.576 0.00335426 0
M  V30 9180 C 882.197 -1.89892 -0.680001 0
M  V30 9181 C 882.51 -0.878731 -1.7475 0
M  V30 9182 O 883.716 -1.09199 -2.48572 0
M  V30 9183 C 882.172 -3.37098 -1.26066 0
M  V30 9184 C 881.78 -4.4742 -0.227807 0
M  V30 9185 C 883.524 -3.78495 -1.92202 0
M  V30 9186 C 881.431 -5.85706 -0.81865 0
M  V30 9187 H 880.361 -0.708578 -0.257746 0
M  V30 9188 H 883.012 -1.83387 0.0644472 0
M  V30 9189 H 881.394 -3.38451 -2.05589 0
M  V30 9190 H 882.568 -4.57589 0.54307 0
M  V30 9191 H 880.883 -4.15064 0.333297 0
M  V30 9192 H 883.48 -4.7915 -2.37318 0
M  V30 9193 H 883.823 -3.12187 -2.75399 0
M  V30 9194 H 884.356 -3.79456 -1.19408 0
M  V30 9195 H 881.095 -6.55495 -0.0253787 0
M  V30 9196 H 880.615 -5.79196 -1.55861 0
M  V30 9197 H 882.294 -6.33469 -1.31627 0
M  V30 9198 N 882.426 0.269451 -1.5528 0
M  V30 9199 C 883.359 1.3588 -1.83336 0
M  V30 9200 C 884.337 1.4739 -0.68666 0
M  V30 9201 O 885.521 1.63959 -0.930037 0
M  V30 9202 C 882.648 2.73483 -1.99812 0
M  V30 9203 C 881.694 2.79239 -3.22378 0
M  V30 9204 S 882.527 2.38125 -4.79642 0
M  V30 9205 C 883.683 3.77697 -4.99095 0
M  V30 9206 H 883.916 1.11878 -2.75446 0
M  V30 9207 H 881.449 0.469268 -1.47096 0
M  V30 9208 H 883.407 3.52725 -2.09989 0
M  V30 9209 H 882.068 2.94735 -1.08583 0
M  V30 9210 H 881.261 3.80243 -3.30804 0
M  V30 9211 H 880.863 2.08022 -3.1081 0
M  V30 9212 H 883.155 4.72999 -4.85055 0
M  V30 9213 H 884.098 3.7422 -6.01136 0
M  V30 9214 H 884.506 3.69164 -4.27058 0
M  V30 9215 N 883.904 1.48273 0.534124 0
M  V30 9216 C 884.867 1.6201 1.62127 0
M  V30 9217 C 885.867 0.493653 1.53035 0
M  V30 9218 O 887.057 0.759337 1.56779 0
M  V30 9219 C 884.189 1.5864 3.01739 0
M  V30 9220 H 885.382 2.58944 1.51288 0
M  V30 9221 H 882.935 1.36808 0.755861 0
M  V30 9222 H 883.67 0.631685 3.18088 0
M  V30 9223 H 883.455 2.40415 3.09747 0
M  V30 9224 H 884.945 1.71438 3.80787 0
M  V30 9225 N 885.382 -0.782676 1.36792 0
M  V30 9226 C 886.612 -1.56934 1.3437 0
M  V30 9227 C 887.02 -1.89049 -0.0754828 0
M  V30 9228 O 886.363 -1.51103 -1.04467 0
M  V30 9229 C 886.425 -2.91311 2.10661 0
M  V30 9230 C 886.089 -2.81889 3.59705 0
M  V30 9231 C 887.086 -2.53668 4.53815 0
M  V30 9232 C 884.771 -3.00254 4.02682 0
M  V30 9233 C 886.765 -2.43925 5.8888 0
M  V30 9234 C 884.452 -2.90132 5.37835 0
M  V30 9235 C 885.45 -2.62006 6.30747 0
M  V30 9236 O 885.138 -2.5189 7.63418 0
M  V30 9237 H 884.87 -0.493194 0.462316 0
M  V30 9238 H 887.424 -0.978791 1.80579 0
M  V30 9239 H 885.654 -3.52443 1.59125 0
M  V30 9240 H 887.343 -3.52632 2.01012 0
M  V30 9241 H 888.109 -2.39176 4.21924 0
M  V30 9242 H 883.988 -3.21151 3.30731 0
M  V30 9243 H 887.532 -2.21892 6.6137 0
M  V30 9244 H 883.429 -3.04189 5.69332 0
M  V30 9245 H 884.197 -2.67321 7.73616 0
M  V30 9246 N 886.86 -1.21182 -1.00761 0
M  V30 9247 C 888.106 -1.02898 -1.74756 0
M  V30 9248 C 888.439 0.436774 -1.89225 0
M  V30 9249 O 887.714 1.32415 -1.42466 0
M  V30 9250 C 887.997 -1.72372 -3.16164 0
M  V30 9251 C 887.85 -3.2645 -3.09435 0
M  V30 9252 C 889.169 -1.46415 -4.15031 0
M  V30 9253 H 886.288 -0.375214 -0.634337 0
M  V30 9254 H 888.93 -1.49321 -1.17487 0
M  V30 9255 H 887.08 -1.32906 -3.65059 0
M  V30 9256 H 888.752 -3.75269 -2.68274 0
M  V30 9257 H 886.995 -3.56889 -2.46603 0
M  V30 9258 H 887.666 -3.70226 -4.09435 0
M  V30 9259 H 890.142 -1.80671 -3.7483 0
M  V30 9260 H 889.018 -1.97544 -5.12121 0
M  V30 9261 H 889.279 -0.39361 -4.40344 0
M  V30 9262 N 888.338 1.20213 -1.01915 0
M  V30 9263 C 889.566 1.93622 -0.729255 0
M  V30 9264 C 889.981 1.74923 0.710444 0
M  V30 9265 O 889.338 1.06484 1.48214 0
M  V30 9266 C 889.389 3.45651 -1.05865 0
M  V30 9267 O 889.11 3.63741 -2.44181 0
M  V30 9268 C 890.611 4.36201 -0.790176 0
M  V30 9269 H 887.831 0.615333 -0.267594 0
M  V30 9270 H 890.375 1.52633 -1.36101 0
M  V30 9271 H 888.53 3.84511 -0.47225 0
M  V30 9272 H 888.944 4.57702 -2.56143 0
M  V30 9273 H 890.418 5.41516 -1.07071 0
M  V30 9274 H 890.895 4.38334 0.275609 0
M  V30 9275 H 891.501 4.03008 -1.35885 0
M  V30 9276 N 889.816 0.795718 1.36037 0
M  V30 9277 C 891.064 0.370291 1.98679 0
M  V30 9278 C 891.385 -1.06332 1.63458 0
M  V30 9279 O 890.655 -1.73394 0.911671 0
M  V30 9280 H 889.235 0.133928 0.734896 0
M  V30 9281 H 891.897 1.01915 1.6613 0
M  V30 9282 H 890.993 0.467207 3.08583 0
M  V30 9283 N 891.294 -1.47756 0.548274 0
M  V30 9284 C 892.542 -2.02089 0.0208542 0
M  V30 9285 C 892.863 -1.42589 -1.33017 0
M  V30 9286 O 892.133 -0.597825 -1.86555 0
M  V30 9287 H 890.713 -0.746985 0.00472023 0
M  V30 9288 H 893.375 -1.81262 0.716257 0
M  V30 9289 H 892.471 -3.12012 -0.0739016 0
M  V30 9290 N 892.772 -0.284283 -1.55015 0
M  V30 9291 C 893.702 0.592663 -2.25853 0
M  V30 9292 C 894.683 1.15151 -1.25197 0
M  V30 9293 O 895.868 1.18395 -1.53936 0
M  V30 9294 C 892.998 1.77254 -2.98661 0
M  V30 9295 C 891.952 1.34482 -4.06323 0
M  V30 9296 C 891.278 2.60853 -4.66754 0
M  V30 9297 C 892.578 0.488288 -5.20013 0
M  V30 9298 H 894.272 0.00187041 -2.994 0
M  V30 9299 H 891.818 -0.000540402 -1.44 0
M  V30 9300 H 893.771 2.39199 -3.46932 0
M  V30 9301 H 892.495 2.38931 -2.22664 0
M  V30 9302 H 891.154 0.748519 -3.58877 0
M  V30 9303 H 890.802 3.20808 -3.87416 0
M  V30 9304 H 890.502 2.32942 -5.39455 0
M  V30 9305 H 892.026 3.23631 -5.1778 0
M  V30 9306 H 893.44 1.01298 -5.6428 0
M  V30 9307 H 891.837 0.303669 -5.99331 0
M  V30 9308 H 892.907 -0.490727 -4.8241 0
M  V30 9309 N 894.251 1.57596 -0.0117121 0
M  V30 9310 C 895.497 1.91355 0.671661 0
M  V30 9311 C 895.83 0.886818 1.72769 0
M  V30 9312 O 895.105 -0.0928813 1.94278 0
M  V30 9313 C 895.388 3.35657 1.30409 0
M  V30 9314 C 895.241 4.49055 0.2588 0
M  V30 9315 C 896.56 3.79595 2.22701 0
M  V30 9316 H 893.679 0.695893 0.242698 0
M  V30 9317 H 896.321 1.89887 -0.0654071 0
M  V30 9318 H 894.471 3.37038 1.9323 0
M  V30 9319 H 896.143 4.59809 -0.370631 0
M  V30 9320 H 894.386 4.31785 -0.417672 0
M  V30 9321 H 895.057 5.4701 0.740578 0
M  V30 9322 H 897.533 3.7984 1.69885 0
M  V30 9323 H 896.409 4.81292 2.63912 0
M  V30 9324 H 896.67 3.14118 3.11098 0
M  V30 9325 N 895.729 -0.261212 1.5542 0
M  V30 9326 C 896.661 -1.34571 1.85535 0
M  V30 9327 C 897.674 -1.44979 0.740612 0
M  V30 9328 O 898.863 -1.46584 1.01859 0
M  V30 9329 C 895.963 -2.7258 2.01378 0
M  V30 9330 C 895.136 -2.84618 3.32131 0
M  V30 9331 C 894.195 -4.03379 3.37893 0
M  V30 9332 O 893.221 -3.93581 4.11197 0
M  V30 9333 N 894.423 -5.15893 2.66148 0
M  V30 9334 H 897.188 -1.09078 2.79145 0
M  V30 9335 H 894.749 -0.451327 1.55482 0
M  V30 9336 H 896.741 -3.50342 2.0259 0
M  V30 9337 H 895.311 -2.90844 1.14579 0
M  V30 9338 H 894.531 -1.93647 3.43358 0
M  V30 9339 H 895.819 -2.896 4.18341 0
M  V30 9340 H 895.217 -5.26743 2.06297 0
M  V30 9341 H 893.774 -5.91842 2.73069 0
M  V30 9342 N 897.207 -1.48554 -0.526253 0
M  V30 9343 C 898.139 -1.59446 -1.6465 0
M  V30 9344 C 899.152 -0.478525 -1.55608 0
M  V30 9345 O 900.341 -0.74953 -1.62001 0
M  V30 9346 C 897.441 -1.51164 -3.03319 0
M  V30 9347 C 896.614 -2.77861 -3.37805 0
M  V30 9348 C 895.673 -2.62982 -4.5577 0
M  V30 9349 O 894.699 -3.36876 -4.58806 0
M  V30 9350 N 895.901 -1.72847 -5.5417 0
M  V30 9351 H 898.666 -2.56055 -1.55743 0
M  V30 9352 H 896.227 -1.45325 -0.713606 0
M  V30 9353 H 898.219 -1.389 -3.80117 0
M  V30 9354 H 896.789 -0.625147 -3.06285 0
M  V30 9355 H 896.009 -3.04663 -2.50149 0
M  V30 9356 H 897.297 -3.61908 -3.57632 0
M  V30 9357 H 896.695 -1.12022 -5.54498 0
M  V30 9358 H 895.252 -1.6652 -6.3017 0
M  V30 9359 N 898.685 0.775411 -1.37205 0
M  V30 9360 C 899.913 1.56446 -1.35397 0
M  V30 9361 C 900.328 1.887 0.0615437 0
M  V30 9362 O 899.685 1.51178 1.02233 0
M  V30 9363 C 899.736 2.87697 -2.18889 0
M  V30 9364 O 899.457 2.56828 -3.54924 0
M  V30 9365 C 900.958 3.81944 -2.25019 0
M  V30 9366 H 898.178 0.484792 -0.463916 0
M  V30 9367 H 900.722 0.961346 -1.80495 0
M  V30 9368 H 898.877 3.44442 -1.7731 0
M  V30 9369 H 899.291 3.40851 -3.98649 0
M  V30 9370 H 900.765 4.71055 -2.87769 0
M  V30 9371 H 901.242 4.20811 -1.25757 0
M  V30 9372 H 901.848 3.3113 -2.66895 0
M  V30 9373 N 900.163 1.21714 1.00117 0
M  V30 9374 C 901.388 1.06357 1.78054 0
M  V30 9375 C 901.813 -0.382075 1.84179 0
M  V30 9376 O 901.171 -1.27575 1.28819 0
M  V30 9377 C 901.219 1.66982 3.19608 0
M  V30 9378 O 900.323 0.917892 4.02055 0
M  V30 9379 H 899.664 0.374074 0.548602 0
M  V30 9380 H 902.194 1.61338 1.25822 0
M  V30 9381 H 902.204 1.71363 3.70268 0
M  V30 9382 H 900.879 2.72185 3.14465 0
M  V30 9383 H 899.456 0.949473 3.6061 0
M  V30 9384 N 901.641 -1.19671 1.02551 0
M  V30 9385 C 902.573 -2.22215 0.561517 0
M  V30 9386 C 903.586 -1.58751 -0.360821 0
M  V30 9387 O 904.775 -1.77802 -0.157749 0
M  V30 9388 C 901.875 -3.383 -0.201494 0
M  V30 9389 C 901.048 -4.3135 0.724952 0
M  V30 9390 C 900.107 -5.26199 0.00794334 0
M  V30 9391 O 899.133 -5.65665 0.633398 0
M  V30 9392 N 900.335 -5.66573 -1.26394 0
M  V30 9393 H 903.1 -2.6265 1.44343 0
M  V30 9394 H 900.661 -1.34303 0.904122 0
M  V30 9395 H 902.653 -3.98764 -0.690625 0
M  V30 9396 H 901.223 -2.96683 -0.98479 0
M  V30 9397 H 900.443 -3.6872 1.39423 0
M  V30 9398 H 901.731 -4.90433 1.35472 0
M  V30 9399 H 901.129 -5.36538 -1.79287 0
M  V30 9400 H 899.686 -6.29304 -1.69763 0
M  V30 9401 N 903.119 -0.802921 -1.35613 0
M  V30 9402 C 904.365 -0.391259 -1.99601 0
M  V30 9403 C 904.72 1.02922 -1.62557 0
M  V30 9404 O 904.013 1.70357 -0.876878 0
M  V30 9405 C 904.207 -0.507806 -3.53774 0
M  V30 9406 C 904.036 -1.93807 -4.05794 0
M  V30 9407 C 902.806 -2.56564 -4.3532 0
M  V30 9408 C 905.004 -2.90211 -4.24596 0
M  V30 9409 N 902.986 -3.91038 -4.73247 0
M  V30 9410 C 904.357 -4.09548 -4.65479 0
M  V30 9411 C 906.412 -2.87091 -4.06796 0
M  V30 9412 C 905.115 -5.26191 -4.90424 0
M  V30 9413 C 907.141 -4.02933 -4.32896 0
M  V30 9414 C 906.503 -5.21017 -4.74047 0
M  V30 9415 H 902.602 -0.190867 -0.758349 0
M  V30 9416 H 905.186 -1.04338 -1.64382 0
M  V30 9417 H 903.357 0.114306 -3.88232 0
M  V30 9418 H 905.089 -0.0710855 -4.04638 0
M  V30 9419 H 901.844 -2.07945 -4.25507 0
M  V30 9420 H 902.268 -4.60262 -4.96475 0
M  V30 9421 H 906.91 -1.96951 -3.74126 0
M  V30 9422 H 904.628 -6.16906 -5.2197 0
M  V30 9423 H 908.214 -4.01895 -4.2068 0
M  V30 9424 H 907.094 -6.09165 -4.93849 0
M  V30 9425 N 904.597 1.47463 -0.556102 0
M  V30 9426 C 905.527 2.32801 0.180497 0
M  V30 9427 C 906.508 1.43721 0.909848 0
M  V30 9428 O 907.693 1.72578 0.89053 0
M  V30 9429 C 904.823 3.25478 1.21167 0
M  V30 9430 C 903.777 4.2379 0.598846 0
M  V30 9431 C 903.103 5.05783 1.73457 0
M  V30 9432 C 904.403 5.20387 -0.446659 0
M  V30 9433 H 906.097 2.94636 -0.531956 0
M  V30 9434 H 903.643 1.41683 -0.257267 0
M  V30 9435 H 905.596 3.8402 1.73513 0
M  V30 9436 H 904.32 2.61695 1.95405 0
M  V30 9437 H 902.979 3.66472 0.0966897 0
M  V30 9438 H 902.627 4.38405 2.46596 0
M  V30 9439 H 902.327 5.72343 1.33031 0
M  V30 9440 H 903.851 5.67183 2.26131 0
M  V30 9441 H 905.265 5.73299 -0.00930019 0
M  V30 9442 H 903.662 5.95143 -0.769735 0
M  V30 9443 H 904.732 4.65932 -1.34295 0
M  V30 9444 N 906.075 0.2925 1.54862 0
M  V30 9445 C 907.3 -0.32494 2.04839 0
M  V30 9446 C 907.725 -1.47381 1.16877 0
M  V30 9447 O 907.083 -1.80492 0.171028 0
M  V30 9448 C 907.131 -0.76694 3.5235 0
M  V30 9449 O 906.235 -1.87256 3.67436 0
M  V30 9450 H 905.576 -0.0645195 0.660858 0
M  V30 9451 H 908.106 0.431867 1.9999 0
M  V30 9452 H 908.116 -1.05804 3.94043 0
M  V30 9453 H 906.791 0.0735212 4.15835 0
M  V30 9454 H 905.368 -1.58266 3.37648 0
M  V30 9455 N 907.553 -1.57587 0.0200696 0
M  V30 9456 C 908.501 -2.10814 -0.982868 0
M  V30 9457 C 909.495 -1.03263 -1.34287 0
M  V30 9458 O 910.701 -1.21708 -1.32617 0
M  V30 9459 H 907.076 -0.673409 -0.334701 0
M  V30 9460 H 909.047 -2.94034 -0.50856 0
M  V30 9461 C 907.796 -2.64301 -2.25921 0
M  V30 9462 H 907.119 -3.46703 -1.99091 0
M  V30 9463 H 908.559 -3.052 -2.94328 0
M  V30 9464 C 907.018 -1.56628 -2.98277 0
M  V30 9465 O 907.548 -0.960825 -3.9004 0
M  V30 9466 N 905.754 -1.28889 -2.60453 0
M  V30 9467 H 905.301 -1.7831 -1.85912 0
M  V30 9468 H 905.259 -0.570697 -3.09177 0
M  V30 9469 N 909.032 0.252966 -1.55557 0
M  V30 9470 C 909.962 1.31691 -1.9282 0
M  V30 9471 C 910.943 1.50516 -0.7924 0
M  V30 9472 O 912.128 1.63225 -1.05219 0
M  V30 9473 C 909.258 2.67281 -2.21762 0
M  V30 9474 C 908.212 2.6316 -3.37536 0
M  V30 9475 C 907.538 4.02488 -3.52005 0
M  V30 9476 C 908.838 2.20675 -4.73392 0
M  V30 9477 H 910.532 1.00751 -2.81939 0
M  V30 9478 H 908.078 0.483219 -1.3565 0
M  V30 9479 H 910.031 3.41842 -2.46419 0
M  V30 9480 H 908.755 2.99845 -1.29463 0
M  V30 9481 H 907.414 1.91057 -3.12878 0
M  V30 9482 H 907.062 4.32307 -2.57137 0
M  V30 9483 H 906.762 4.00621 -4.29857 0
M  V30 9484 H 908.286 4.78758 -3.78977 0
M  V30 9485 H 909.7 2.84965 -4.97461 0
M  V30 9486 H 908.097 2.29931 -5.54303 0
M  V30 9487 H 909.167 1.15831 -4.70862 0
M  V30 9488 N 910.51 1.48831 0.518367 0
M  V30 9489 C 911.44 1.67119 1.63075 0
M  V30 9490 C 912.421 0.519948 1.61958 0
M  V30 9491 O 913.606 0.753824 1.78972 0
M  V30 9492 C 910.736 1.72158 3.01627 0
M  V30 9493 C 909.69 2.86898 3.17606 0
M  V30 9494 C 909.016 2.77035 4.57335 0
M  V30 9495 C 910.316 4.28057 2.99274 0
M  V30 9496 H 912.01 2.60248 1.48025 0
M  V30 9497 H 909.556 1.2524 0.710694 0
M  V30 9498 H 911.509 1.83539 3.7933 0
M  V30 9499 H 910.233 0.756157 3.17726 0
M  V30 9500 H 908.892 2.75091 2.42323 0
M  V30 9501 H 908.54 1.78438 4.70286 0
M  V30 9502 H 908.24 3.54036 4.6897 0
M  V30 9503 H 909.764 2.904 5.37122 0
M  V30 9504 H 911.178 4.40636 3.6676 0
M  V30 9505 H 909.575 5.06145 3.22393 0
M  V30 9506 H 910.645 4.4371 1.95574 0
M  V30 9507 N 911.988 -0.768124 1.37614 0
M  V30 9508 C 913.236 -1.52379 1.3276 0
M  V30 9509 C 913.557 -1.94809 -0.0863564 0
M  V30 9510 O 912.827 -1.66568 -1.03112 0
M  V30 9511 H 911.407 -0.565179 0.488448 0
M  V30 9512 H 914.069 -0.913974 1.72141 0
M  V30 9513 H 913.165 -2.4215 1.96901 0
M  V30 9514 N 913.466 -1.22244 -0.994698 0
M  V30 9515 C 914.694 -1.07218 -1.76952 0
M  V30 9516 C 915.109 0.377388 -1.8499 0
M  V30 9517 O 914.466 1.26157 -1.31874 0
M  V30 9518 C 914.517 -1.67496 -3.20355 0
M  V30 9519 O 914.238 -3.06782 -3.12756 0
M  V30 9520 C 915.739 -1.57721 -4.14294 0
M  V30 9521 H 912.959 -0.375966 -0.555779 0
M  V30 9522 H 915.503 -1.61799 -1.25065 0
M  V30 9523 H 913.658 -1.16982 -3.69315 0
M  V30 9524 H 914.072 -3.35784 -4.02926 0
M  V30 9525 H 915.546 -2.04623 -5.12673 0
M  V30 9526 H 916.023 -0.533434 -4.35949 0
M  V30 9527 H 916.629 -2.07531 -3.71229 0
M  V30 9528 N 914.944 1.19125 -1.03184 0
M  V30 9529 C 916.172 1.92838 -0.74975 0
M  V30 9530 C 916.587 1.75667 0.691851 0
M  V30 9531 O 915.944 1.0805 1.47076 0
M  V30 9532 C 915.995 3.44509 -1.09525 0
M  V30 9533 O 915.716 3.6113 -2.48025 0
M  V30 9534 C 917.217 4.35338 -0.836397 0
M  V30 9535 H 914.437 0.61246 -0.274105 0
M  V30 9536 H 916.981 1.5118 -1.37712 0
M  V30 9537 H 915.136 3.83988 -0.513006 0
M  V30 9538 H 915.55 4.54959 -2.60984 0
M  V30 9539 H 917.024 5.4035 -1.12808 0
M  V30 9540 H 917.501 4.38602 0.229102 0
M  V30 9541 H 918.107 4.01544 -1.40152 0
M  V30 9542 N 916.422 0.810101 1.35185 0
M  V30 9543 C 917.668 0.392698 1.98962 0
M  V30 9544 C 918.001 -1.03835 1.64109 0
M  V30 9545 O 917.276 -1.721 0.9062 0
M  V30 9546 C 917.559 0.580349 3.55393 0
M  V30 9547 C 917.412 2.05658 4.00031 0
M  V30 9548 C 918.731 0.00822618 4.40099 0
M  V30 9549 H 915.85 0.144157 0.722764 0
M  V30 9550 H 918.492 1.02029 1.60281 0
M  V30 9551 H 916.642 0.0461106 3.88473 0
M  V30 9552 H 918.314 2.65348 3.77344 0
M  V30 9553 H 916.557 2.55174 3.50811 0
M  V30 9554 H 917.228 2.13875 5.08883 0
M  V30 9555 H 919.704 0.464517 4.13499 0
M  V30 9556 H 918.58 0.169414 5.48638 0
M  V30 9557 H 918.841 -1.08576 4.2856 0
M  V30 9558 N 917.9 -1.47166 0.563914 0
M  V30 9559 C 918.81 -2.33885 -0.182977 0
M  V30 9560 C 919.826 -1.48605 -0.905132 0
M  V30 9561 O 921.002 -1.81518 -0.872527 0
M  V30 9562 C 918.067 -3.25433 -1.19558 0
M  V30 9563 C 917.128 -4.26607 -0.480129 0
M  V30 9564 C 916.361 -5.1378 -1.44449 0
M  V30 9565 O 916.584 -5.03531 -2.67979 0
M  V30 9566 O 915.518 -5.94109 -0.965321 0
M  V30 9567 H 919.344 -2.99065 0.528544 0
M  V30 9568 H 916.929 -1.45834 0.324468 0
M  V30 9569 H 918.811 -3.81964 -1.77993 0
M  V30 9570 H 917.486 -2.62873 -1.8889 0
M  V30 9571 H 916.393 -3.73817 0.145583 0
M  V30 9572 H 917.726 -4.919 0.171868 0
M  V30 9573 N 919.378 -0.300708 -1.54705 0
M  V30 9574 C 920.325 0.57552 -2.23509 0
M  V30 9575 C 921.295 1.12979 -1.21758 0
M  V30 9576 O 922.48 1.17437 -1.50377 0
M  V30 9577 C 919.62 1.74167 -2.97926 0
M  V30 9578 C 918.733 1.21882 -4.1445 0
M  V30 9579 C 917.868 2.34881 -4.7645 0
M  V30 9580 C 916.907 1.79729 -5.85119 0
M  V30 9581 N 916.044 2.863 -6.41075 0
M  V30 9582 H 920.884 -0.0178257 -2.97995 0
M  V30 9583 H 918.421 -0.0205666 -1.47086 0
M  V30 9584 H 920.379 2.42753 -3.39303 0
M  V30 9585 H 919.009 2.30665 -2.25817 0
M  V30 9586 H 918.061 0.425227 -3.78016 0
M  V30 9587 H 919.373 0.775065 -4.92741 0
M  V30 9588 H 918.527 3.11415 -5.20678 0
M  V30 9589 H 917.266 2.82584 -3.97489 0
M  V30 9590 H 916.271 1.01684 -5.40315 0
M  V30 9591 H 917.496 1.32931 -6.65963 0
M  V30 9592 H 915.442 3.33337 -5.64998 0
M  V30 9593 H 915.359 2.46419 -7.14712 0
M  V30 9594 H 916.627 3.62732 -6.89961 0
M  V30 9595 N 920.856 1.57574 -0.0284266 0
M  V30 9596 C 921.786 2.1321 0.952039 0
M  V30 9597 C 922.767 1.04806 1.33977 0
M  V30 9598 O 923.952 1.32635 1.41851 0
M  V30 9599 C 921.082 2.65862 2.23461 0
M  V30 9600 C 920.036 3.79047 1.98765 0
M  V30 9601 C 919.362 4.18124 3.33281 0
M  V30 9602 C 920.662 5.05151 1.32739 0
M  V30 9603 H 922.356 2.95385 0.488705 0
M  V30 9604 H 919.902 1.42092 0.233628 0
M  V30 9605 H 921.855 3.03417 2.92431 0
M  V30 9606 H 920.579 1.80848 2.71959 0
M  V30 9607 H 919.238 3.41929 1.32213 0
M  V30 9608 H 918.886 3.30092 3.79537 0
M  V30 9609 H 918.586 4.94396 3.17563 0
M  V30 9610 H 920.11 4.58262 4.0352 0
M  V30 9611 H 921.524 5.40297 1.91708 0
M  V30 9612 H 919.921 5.86416 1.27421 0
M  V30 9613 H 920.991 4.83969 0.300261 0
M  V30 9614 N 922.334 -0.244713 1.55689 0
M  V30 9615 C 923.75 -0.593331 1.48161 0
M  V30 9616 C 923.95 -1.88234 0.719047 0
M  V30 9617 O 923.006 -2.51266 0.249292 0
M  V30 9618 C 924.319 -0.694032 2.92581 0
M  V30 9619 C 925.867 -0.786213 3.02965 0
M  V30 9620 C 926.342 -0.918457 4.48696 0
M  V30 9621 N 927.833 -0.983272 4.52643 0
M  V30 9622 C 928.568 -1.1049 5.62654 0
M  V30 9623 N 928.064 -1.19193 6.8247 0
M  V30 9624 N 929.857 -1.13823 5.50455 0
M  V30 9625 H 922.008 0.601446 2.03707 0
M  V30 9626 H 924.271 0.207894 0.924924 0
M  V30 9627 H 923.977 0.183133 3.51223 0
M  V30 9628 H 923.851 -1.56525 3.4319 0
M  V30 9629 H 926.238 -1.65383 2.44402 0
M  V30 9630 H 926.319 0.110202 2.55563 0
M  V30 9631 H 925.963 -0.0553881 5.0787 0
M  V30 9632 H 925.893 -1.82994 4.93782 0
M  V30 9633 H 928.384 -0.927269 3.66347 0
M  V30 9634 H 928.697 -1.28387 7.62061 0
M  V30 9635 H 927.042 -1.16147 6.85226 0
M  V30 9636 H 930.233 -1.06673 4.55783 0
M  V30 9637 H 930.406 -1.22957 6.36228 0
M  V30 9638 N 923.813 -1.49104 -0.510467 0
M  V30 9639 C 925.224 -1.51423 -1.09215 0
M  V30 9640 C 925.575 -0.295035 -1.93969 0
M  V30 9641 O 924.7 0.596064 -2.08029 0
M  V30 9642 C 925.295 -2.74387 -1.98739 0
M  V30 9643 C 923.854 -2.79515 -2.52088 0
M  V30 9644 C 923.001 -2.4521 -1.29488 0
M  V30 9645 H 925.952 -1.55938 -0.294807 0
M  V30 9646 H 925.973 -2.54012 -2.83298 0
M  V30 9647 H 925.485 -3.63105 -1.37026 0
M  V30 9648 H 923.586 -1.95054 -3.17466 0
M  V30 9649 H 923.699 -3.81447 -2.89887 0
M  V30 9650 H 922.063 -1.96785 -1.61703 0
M  V30 9651 H 922.846 -3.36192 -0.694978 0
M  V30 9652 N 925.291 0.760815 -1.38019 0
M  V30 9653 C 926.54 1.51506 -1.3315 0
M  V30 9654 C 926.853 1.95444 0.0782124 0
M  V30 9655 O 928.059 2.70352 0.249418 0
M  V30 9656 C 926.515 2.73636 -2.33776 0
M  V30 9657 C 926.123 2.36753 -3.80332 0
M  V30 9658 C 927.867 3.51548 -2.37937 0
M  V30 9659 C 925.774 3.55451 -4.72661 0
M  V30 9660 H 924.704 0.568844 -0.494907 0
M  V30 9661 H 927.355 0.832343 -1.63537 0
M  V30 9662 H 925.737 3.43852 -1.96422 0
M  V30 9663 H 926.911 1.7425 -4.26584 0
M  V30 9664 H 925.226 1.71991 -3.7922 0
M  V30 9665 H 927.823 4.39791 -3.04119 0
M  V30 9666 H 928.166 3.9219 -1.39617 0
M  V30 9667 H 928.699 2.88339 -2.74054 0
M  V30 9668 H 925.438 3.19882 -5.7215 0
M  V30 9669 H 924.958 4.17022 -4.31107 0
M  V30 9670 H 926.637 4.22125 -4.90326 0
M  V30 9671 N 926.769 1.22769 0.988202 0
M  V30 9672 C 928.016 1.05509 1.72841 0
M  V30 9673 C 928.344 -0.409145 1.90148 0
M  V30 9674 O 927.599 -1.3195 1.44526 0
M  V30 9675 C 927.898 1.71679 3.13466 0
M  V30 9676 C 927.564 3.21584 3.16061 0
M  V30 9677 C 926.226 3.62486 3.16476 0
M  V30 9678 C 928.578 4.17511 3.11984 0
M  V30 9679 C 925.906 4.97789 3.10521 0
M  V30 9680 C 928.258 5.52796 3.0757 0
M  V30 9681 C 926.922 5.93072 3.06304 0
M  V30 9682 H 926.192 0.386085 0.632471 0
M  V30 9683 H 928.839 1.52596 1.157 0
M  V30 9684 H 927.144 1.1693 3.73945 0
M  V30 9685 H 928.841 1.55809 3.69492 0
M  V30 9686 H 925.431 2.89019 3.1649 0
M  V30 9687 H 929.615 3.86926 3.10809 0
M  V30 9688 H 924.871 5.28218 3.07888 0
M  V30 9689 H 929.045 6.26848 3.03372 0
M  V30 9690 H 926.672 6.97879 3.01444 0
M  V30 9691 N 928.247 -1.18576 1.03814 0
M  V30 9692 C 929.157 -2.25778 0.637311 0
M  V30 9693 C 930.173 -1.7074 -0.335248 0
M  V30 9694 O 931.349 -2.00494 -0.19081 0
M  V30 9695 C 928.414 -3.467 0.00386953 0
M  V30 9696 C 927.475 -4.16881 1.02511 0
M  V30 9697 C 926.708 -5.32031 0.421802 0
M  V30 9698 O 926.931 -5.65142 -0.772699 0
M  V30 9699 O 925.865 -5.90826 1.14925 0
M  V30 9700 H 929.691 -2.62323 1.53037 0
M  V30 9701 H 927.276 -1.25609 0.80887 0
M  V30 9702 H 929.158 -4.19953 -0.348873 0
M  V30 9703 H 927.833 -3.11983 -0.863047 0
M  V30 9704 H 926.74 -3.45707 1.4296 0
M  V30 9705 H 928.073 -4.55592 1.86271 0
M  V30 9706 N 929.725 -0.817259 -1.34754 0
M  V30 9707 C 930.971 -0.412407 -1.99175 0
M  V30 9708 C 931.326 1.01192 -1.6364 0
M  V30 9709 O 930.619 1.69417 -0.894897 0
M  V30 9710 C 930.813 -0.5453 -3.53216 0
M  V30 9711 C 930.642 -1.981 -4.03716 0
M  V30 9712 C 929.412 -2.61167 -4.32574 0
M  V30 9713 C 931.61 -2.94698 -4.21494 0
M  V30 9714 N 929.592 -3.96035 -4.69073 0
M  V30 9715 C 930.963 -4.14462 -4.61109 0
M  V30 9716 C 933.018 -2.9139 -4.03728 0
M  V30 9717 C 931.721 -5.31363 -4.84815 0
M  V30 9718 C 933.747 -4.07502 -4.28598 0
M  V30 9719 C 933.109 -5.26016 -4.68494 0
M  V30 9720 H 929.208 -0.198899 -0.756282 0
M  V30 9721 H 931.792 -1.06076 -1.63266 0
M  V30 9722 H 929.963 0.073122 -3.88331 0
M  V30 9723 H 931.695 -0.113999 -4.04539 0
M  V30 9724 H 928.45 -2.12446 -4.23277 0
M  V30 9725 H 928.874 -4.65502 -4.91566 0
M  V30 9726 H 933.516 -2.00908 -3.72016 0
M  V30 9727 H 931.234 -6.22408 -5.15397 0
M  V30 9728 H 934.82 -4.06335 -4.16393 0
M  V30 9729 H 933.7 -6.14369 -4.87361 0
M  V30 9730 N 931.203 1.46865 -0.571711 0
M  V30 9731 C 932.452 2.01636 -0.050881 0
M  V30 9732 C 932.765 1.45001 1.31279 0
M  V30 9733 O 933.971 1.91523 1.92435 0
M  V30 9734 C 932.427 3.59877 -0.0404114 0
M  V30 9735 C 932.035 4.25506 -1.40172 0
M  V30 9736 C 933.779 4.22346 0.42705 0
M  V30 9737 C 931.686 5.75795 -1.34958 0
M  V30 9738 H 930.616 0.753846 -0.0152514 0
M  V30 9739 H 933.267 1.68711 -0.721723 0
M  V30 9740 H 931.649 3.89829 0.696374 0
M  V30 9741 H 932.823 4.07178 -2.15737 0
M  V30 9742 H 931.138 3.75086 -1.8083 0
M  V30 9743 H 933.735 5.32499 0.484688 0
M  V30 9744 H 934.078 3.9052 1.44222 0
M  V30 9745 H 934.611 3.9698 -0.255326 0
M  V30 9746 H 931.35 6.12265 -2.3412 0
M  V30 9747 H 930.87 5.96419 -0.635962 0
M  V30 9748 H 932.549 6.38294 -1.05779 0
M  V30 9749 N 932.681 0.308908 1.54543 0
M  V30 9750 C 933.591 -0.572939 2.27496 0
M  V30 9751 C 934.607 -1.14171 1.31305 0
M  V30 9752 O 935.783 -1.16481 1.64299 0
M  V30 9753 C 932.848 -1.72483 3.0075 0
M  V30 9754 C 931.909 -1.18934 4.12496 0
M  V30 9755 C 931.142 -2.28634 4.82247 0
M  V30 9756 O 931.365 -3.48691 4.5141 0
M  V30 9757 O 930.299 -1.94879 5.69478 0
M  V30 9758 H 934.125 0.0190877 3.03694 0
M  V30 9759 H 931.71 0.0750943 1.49211 0
M  V30 9760 H 933.592 -2.39578 3.46671 0
M  V30 9761 H 932.267 -2.30332 2.2744 0
M  V30 9762 H 931.174 -0.483904 3.70957 0
M  V30 9763 H 932.507 -0.656185 4.87806 0
M  V30 9764 N 934.159 -1.57557 0.0367827 0
M  V30 9765 C 935.122 -2.09591 -0.927589 0
M  V30 9766 C 936.122 -1.01252 -1.24919 0
M  V30 9767 O 937.312 -1.27382 -1.18825 0
M  V30 9768 C 934.444 -2.56816 -2.24184 0
M  V30 9769 H 935.637 -2.96086 -0.476784 0
M  V30 9770 H 933.19 -1.54864 -0.211385 0
M  V30 9771 H 933.925 -1.73673 -2.73876 0
M  V30 9772 H 933.71 -3.35973 -2.0215 0
M  V30 9773 H 935.2 -2.97271 -2.93291 0
M  V30 9774 N 935.637 0.236453 -1.55816 0
M  V30 9775 C 936.584 1.29289 -1.91188 0
M  V30 9776 C 937.554 1.47315 -0.767301 0
M  V30 9777 O 938.739 1.61128 -1.02189 0
M  V30 9778 C 935.879 2.64126 -2.22107 0
M  V30 9779 C 934.992 2.54022 -3.49423 0
M  V30 9780 C 934.127 3.81282 -3.69861 0
M  V30 9781 C 933.166 3.65839 -4.90743 0
M  V30 9782 N 932.303 4.85014 -5.07647 0
M  V30 9783 H 937.143 0.98424 -2.81277 0
M  V30 9784 H 934.68 0.474722 -1.39229 0
M  V30 9785 H 936.638 3.42626 -2.3804 0
M  V30 9786 H 935.268 2.93118 -1.35209 0
M  V30 9787 H 934.32 1.67036 -3.41765 0
M  V30 9788 H 935.632 2.38525 -4.38072 0
M  V30 9789 H 934.786 4.68226 -3.8581 0
M  V30 9790 H 933.525 3.99688 -2.79465 0
M  V30 9791 H 932.53 2.77279 -4.74759 0
M  V30 9792 H 933.755 3.48918 -5.82609 0
M  V30 9793 H 931.701 5.03762 -4.20191 0
M  V30 9794 H 931.618 4.72188 -5.90402 0
M  V30 9795 H 932.886 5.73427 -5.28017 0
M  V30 9796 N 937.115 1.49373 0.502552 0
M  V30 9797 C 938.045 1.68839 1.61294 0
M  V30 9798 C 939.026 0.537096 1.61398 0
M  V30 9799 O 940.211 0.772764 1.78163 0
M  V30 9800 C 937.341 1.75347 2.99784 0
M  V30 9801 C 936.295 2.90251 3.14545 0
M  V30 9802 C 935.621 2.8187 4.54371 0
M  V30 9803 C 936.921 4.31207 2.94717 0
M  V30 9804 H 938.615 2.61803 1.45257 0
M  V30 9805 H 936.161 1.25987 0.697371 0
M  V30 9806 H 938.114 1.87552 3.77362 0
M  V30 9807 H 936.838 0.789814 3.16906 0
M  V30 9808 H 935.497 2.77646 2.39392 0
M  V30 9809 H 935.145 1.83416 4.68367 0
M  V30 9810 H 934.845 3.5899 4.65188 0
M  V30 9811 H 936.369 2.96081 5.34012 0
M  V30 9812 H 937.783 4.44501 3.62065 0
M  V30 9813 H 936.18 5.09536 3.17007 0
M  V30 9814 H 937.25 4.45759 1.90857 0
M  V30 9815 N 938.594 -0.753485 1.38421 0
M  V30 9816 C 939.819 -1.54783 1.38047 0
M  V30 9817 C 940.244 -1.8808 -0.0276371 0
M  V30 9818 O 939.602 -1.5058 -1.00973 0
M  V30 9819 C 939.65 -2.82353 2.24297 0
M  V30 9820 O 938.754 -3.77509 1.66014 0
M  V30 9821 H 938.095 -0.468151 0.470883 0
M  V30 9822 H 940.625 -0.931144 1.82184 0
M  V30 9823 H 940.635 -3.31277 2.38159 0
M  V30 9824 H 939.31 -2.57449 3.26639 0
M  V30 9825 H 937.887 -3.36212 1.61294 0
M  V30 9826 N 940.072 -1.23292 -0.981677 0
M  V30 9827 C 941.035 -1.01417 -2.05542 0
M  V30 9828 C 942.035 0.0235354 -1.60783 0
M  V30 9829 O 943.225 -0.216082 -1.72855 0
M  V30 9830 C 940.357 -0.534239 -3.36688 0
M  V30 9831 H 941.55 -1.96702 -2.26381 0
M  V30 9832 H 939.103 -1.05318 -1.1549 0
M  V30 9833 H 939.838 0.422452 -3.21537 0
M  V30 9834 H 939.623 -1.28304 -3.70514 0
M  V30 9835 H 941.113 -0.40179 -4.15663 0
M  V30 9836 N 941.55 1.18024 -1.04442 0
M  V30 9837 C 942.798 1.87727 -0.74854 0
M  V30 9838 C 943.119 1.80975 0.726156 0
M  V30 9839 O 942.389 1.23061 1.52423 0
M  V30 9840 H 940.969 0.694974 -0.273897 0
M  V30 9841 H 943.631 1.43213 -1.32197 0
M  V30 9842 H 942.727 2.93665 -1.05674 0
M  V30 9843 N 943.028 0.824394 1.34319 0
M  V30 9844 C 944.274 0.413779 1.98534 0
M  V30 9845 C 944.607 -1.02089 1.65201 0
M  V30 9846 O 943.882 -1.71129 0.924402 0
M  V30 9847 C 944.165 0.61801 3.54757 0
M  V30 9848 C 944.018 2.0989 3.97827 0
M  V30 9849 C 945.337 0.0549041 4.40066 0
M  V30 9850 H 942.456 0.151815 0.721194 0
M  V30 9851 H 945.098 1.03723 1.5919 0
M  V30 9852 H 943.248 0.0873107 3.88402 0
M  V30 9853 H 944.92 2.69335 3.74508 0
M  V30 9854 H 943.163 2.58881 3.48085 0
M  V30 9855 H 943.834 2.1926 5.06586 0
M  V30 9856 H 946.31 0.508348 4.12983 0
M  V30 9857 H 945.186 0.227595 5.48428 0
M  V30 9858 H 945.447 -1.04025 4.29687 0
M  V30 9859 N 944.506 -1.46559 0.579492 0
M  V30 9860 C 945.416 -2.34066 -0.15816 0
M  V30 9861 C 946.432 -1.49556 -0.88932 0
M  V30 9862 O 947.608 -1.82434 -0.853226 0
M  V30 9863 C 944.673 -3.26683 -1.161 0
M  V30 9864 C 943.734 -4.27092 -0.434855 0
M  V30 9865 C 942.967 -5.15283 -1.38992 0
M  V30 9866 O 943.19 -5.06345 -2.62623 0
M  V30 9867 O 942.124 -5.95099 -0.902253 0
M  V30 9868 H 945.95 -2.98488 0.560234 0
M  V30 9869 H 943.535 -1.45482 0.339918 0
M  V30 9870 H 945.417 -3.8383 -1.73932 0
M  V30 9871 H 944.092 -2.64862 -1.86091 0
M  V30 9872 H 942.999 -3.73641 0.185224 0
M  V30 9873 H 944.332 -4.9169 0.224031 0
M  V30 9874 N 945.984 -0.3171 -1.54377 0
M  V30 9875 C 947.231 0.28741 -2.0045 0
M  V30 9876 C 947.559 1.52648 -1.20535 0
M  V30 9877 O 946.814 1.93775 -0.273831 0
M  V30 9878 C 947.113 0.672917 -3.51008 0
M  V30 9879 C 946.779 -0.466245 -4.48483 0
M  V30 9880 C 945.441 -0.778933 -4.74854 0
M  V30 9881 C 947.793 -1.23176 -5.06436 0
M  V30 9882 C 945.121 -1.85997 -5.56437 0
M  V30 9883 C 947.473 -2.30284 -5.89196 0
M  V30 9884 C 946.137 -2.62141 -6.13872 0
M  V30 9885 H 945.407 0.105171 -0.733499 0
M  V30 9886 H 948.054 -0.439538 -1.86388 0
M  V30 9887 H 946.359 1.48019 -3.62764 0
M  V30 9888 H 948.056 1.15209 -3.84094 0
M  V30 9889 H 944.646 -0.212449 -4.28073 0
M  V30 9890 H 948.83 -1.00344 -4.8605 0
M  V30 9891 H 944.086 -2.11134 -5.73788 0
M  V30 9892 H 948.26 -2.90048 -6.33123 0
M  V30 9893 H 945.887 -3.46037 -6.76877 0
M  V30 9894 N 947.462 1.57535 -0.0451378 0
M  V30 9895 C 948.392 2.14208 0.929372 0
M  V30 9896 C 949.373 1.06221 1.32858 0
M  V30 9897 O 950.558 1.34132 1.40436 0
M  V30 9898 C 947.688 2.68217 2.20629 0
M  V30 9899 C 946.642 3.81134 1.94734 0
M  V30 9900 C 945.968 4.21636 3.28828 0
M  V30 9901 C 947.268 5.06531 1.27374 0
M  V30 9902 H 948.962 2.95886 0.457348 0
M  V30 9903 H 946.508 1.42332 0.218544 0
M  V30 9904 H 948.461 3.06502 2.89196 0
M  V30 9905 H 947.185 1.83722 2.70026 0
M  V30 9906 H 945.844 3.43312 1.28579 0
M  V30 9907 H 945.492 3.34099 3.76014 0
M  V30 9908 H 945.192 4.97736 3.12302 0
M  V30 9909 H 946.716 4.62516 3.98637 0
M  V30 9910 H 948.13 5.423 1.85967 0
M  V30 9911 H 946.527 5.87735 1.21194 0
M  V30 9912 H 947.597 4.84261 0.248913 0
M  V30 9913 N 948.94 -0.228186 1.55939 0
M  V30 9914 C 949.887 -1.28274 1.91871 0
M  V30 9915 C 950.857 -1.46906 0.775103 0
M  V30 9916 O 952.042 -1.60583 1.03042 0
M  V30 9917 C 949.182 -2.62945 2.23504 0
M  V30 9918 C 948.295 -2.52166 3.50766 0
M  V30 9919 C 947.43 -3.79316 3.71878 0
M  V30 9920 C 946.469 -3.63231 4.92676 0
M  V30 9921 N 945.606 -4.82315 5.10212 0
M  V30 9922 H 950.446 -0.96931 2.81795 0
M  V30 9923 H 947.983 -0.467331 1.39479 0
M  V30 9924 H 949.941 -3.41359 2.39854 0
M  V30 9925 H 948.571 -2.92397 1.36762 0
M  V30 9926 H 947.623 -1.65221 3.42646 0
M  V30 9927 H 948.935 -2.36199 4.39331 0
M  V30 9928 H 948.089 -4.66173 3.88288 0
M  V30 9929 H 946.828 -3.982 2.81581 0
M  V30 9930 H 945.833 -2.74757 4.76223 0
M  V30 9931 H 947.058 -3.45823 5.84451 0
M  V30 9932 H 945.004 -5.01526 4.22856 0
M  V30 9933 H 944.921 -4.6905 5.92898 0
M  V30 9934 H 946.189 -5.70618 5.31051 0
M  V30 9935 N 950.418 -1.49637 -0.494624 0
M  V30 9936 C 951.695 -1.4995 -1.25596 0
M  V30 9937 C 952.075 -0.230805 -2.09834 0
M  V30 9938 O 951.423 0.786625 -2.14533 0
M  V30 9939 C 951.633 -2.78204 -2.10721 0
M  V30 9940 C 952.981 -3.27946 -2.69698 0
M  V30 9941 O 954.005 -2.79365 -2.20984 0
M  V30 9942 O 952.864 -4.12571 -3.58395 0
M  V30 9943 H 949.958 -0.60044 -0.568684 0
M  V30 9944 H 952.504 -1.61906 -0.508371 0
M  V30 9945 H 951.276 -3.62029 -1.48494 0
M  V30 9946 H 950.899 -2.69139 -2.92661 0
M  V30 9947 N 951.896 0.746133 -1.38819 0
M  V30 9948 C 952.859 1.84167 -1.36437 0
M  V30 9949 C 953.859 1.58626 -0.263499 0
M  V30 9950 O 955.049 1.66233 -0.520801 0
M  V30 9951 C 952.181 3.21769 -1.12596 0
M  V30 9952 H 953.374 1.87684 -2.33912 0
M  V30 9953 H 950.927 0.948625 -1.24221 0
M  V30 9954 H 951.662 3.23917 -0.15758 0
M  V30 9955 H 951.447 3.41702 -1.92307 0
M  V30 9956 H 952.937 4.0184 -1.13643 0
M  V30 9957 N 953.375 1.23811 0.975125 0
M  V30 9958 C 954.621 1.08502 1.72043 0
M  V30 9959 C 954.976 -0.373437 1.88741 0
M  V30 9960 O 954.269 -1.27248 1.43243 0
M  V30 9961 C 954.463 1.74994 3.11628 0
M  V30 9962 C 954.292 3.27155 3.08544 0
M  V30 9963 C 953.062 3.96338 3.1344 0
M  V30 9964 C 955.26 4.23851 2.91299 0
M  V30 9965 N 953.242 5.35439 3.00297 0
M  V30 9966 C 954.613 5.499 2.86375 0
M  V30 9967 C 956.668 4.14519 2.75824 0
M  V30 9968 C 955.371 6.67687 2.67558 0
M  V30 9969 C 957.397 5.31975 2.58372 0
M  V30 9970 C 956.759 6.56953 2.5415 0
M  V30 9971 H 952.858 0.451607 0.638416 0
M  V30 9972 H 955.442 1.56617 1.15669 0
M  V30 9973 H 953.613 1.29404 3.66209 0
M  V30 9974 H 955.345 1.52614 3.74822 0
M  V30 9975 H 952.1 3.47453 3.21828 0
M  V30 9976 H 952.524 6.08381 2.96987 0
M  V30 9977 H 957.166 3.18662 2.77874 0
M  V30 9978 H 954.884 7.63673 2.64251 0
M  V30 9979 H 958.47 5.266 2.47354 0
M  V30 9980 H 957.35 7.46309 2.40817 0
M  V30 9981 N 954.853 -1.17469 1.05066 0
M  V30 9982 C 955.763 -2.25089 0.661222 0
M  V30 9983 C 956.779 -1.71086 -0.31712 0
M  V30 9984 O 957.955 -2.00685 -0.169534 0
M  V30 9985 C 955.02 -3.46676 0.0406415 0
M  V30 9986 C 954.081 -4.15771 1.06927 0
M  V30 9987 C 953.314 -5.31553 0.478208 0
M  V30 9988 O 953.537 -5.6593 -0.712714 0
M  V30 9989 O 952.471 -5.89574 1.21185 0
M  V30 9990 H 956.297 -2.60685 1.5581 0
M  V30 9991 H 953.882 -1.24744 0.822147 0
M  V30 9992 H 955.764 -4.203 -0.304312 0
M  V30 9993 H 954.439 -3.1288 -0.829909 0
M  V30 9994 H 953.346 -3.44171 1.46619 0
M  V30 9995 H 954.679 -4.53591 1.91092 0
M  V30 9996 N 956.331 -0.831506 -1.3388 0
M  V30 9997 C 957.58 -0.420028 -1.97278 0
M  V30 9998 C 957.893 1.02441 -1.66629 0
M  V30 9999 O 959.099 1.54021 -2.23584 0
M  V30 10000 C 957.555 -0.700116 -3.53025 0
M  V30 10001 C 957.163 -2.15874 -3.92559 0
M  V30 10002 C 958.907 -0.355226 -4.23011 0
M  V30 10003 C 956.814 -2.38327 -5.41252 0
M  V30 10004 H 955.744 -0.153326 -0.738246 0
M  V30 10005 H 958.395 -1.01906 -1.52602 0
M  V30 10006 H 956.777 -0.0308044 -3.95988 0
M  V30 10007 H 957.951 -2.86792 -3.60675 0
M  V30 10008 H 956.266 -2.4659 -3.35533 0
M  V30 10009 H 958.863 -0.500701 -5.32351 0
M  V30 10010 H 959.206 0.70111 -4.10354 0
M  V30 10011 H 959.739 -0.979466 -3.85553 0
M  V30 10012 H 956.478 -3.42498 -5.58906 0
M  V30 10013 H 955.998 -1.71962 -5.74621 0
M  V30 10014 H 957.677 -2.21113 -6.08045 0
M  V30 10015 N 957.809 1.4625 -0.587256 0
M  V30 10016 C 958.739 2.33132 0.131076 0
M  V30 10017 C 959.72 1.45619 0.879158 0
M  V30 10018 O 960.905 1.74428 0.853723 0
M  V30 10019 C 958.035 3.27975 1.14236 0
M  V30 10020 C 956.989 4.24965 0.508819 0
M  V30 10021 C 956.315 5.09349 1.62689 0
M  V30 10022 C 957.615 5.19322 -0.55694 0
M  V30 10023 H 959.309 2.93442 -0.594333 0
M  V30 10024 H 956.855 1.41106 -0.287263 0
M  V30 10025 H 958.808 3.87614 1.65328 0
M  V30 10026 H 957.532 2.65781 1.8981 0
M  V30 10027 H 956.191 3.66595 0.0189337 0
M  V30 10028 H 955.839 4.43537 2.37242 0
M  V30 10029 H 955.539 5.75036 1.20861 0
M  V30 10030 H 957.063 5.71852 2.14049 0
M  V30 10031 H 958.477 5.73151 -0.130903 0
M  V30 10032 H 956.874 5.93376 -0.895801 0
M  V30 10033 H 957.944 4.62979 -1.44148 0
M  V30 10034 N 959.287 0.325282 1.54207 0
M  V30 10035 C 960.234 -0.539889 2.24397 0
M  V30 10036 C 961.204 -1.11028 1.2354 0
M  V30 10037 O 962.389 -1.1503 1.52226 0
M  V30 10038 C 959.529 -1.69405 3.00659 0
M  V30 10039 C 958.642 -1.15273 4.16337 0
M  V30 10040 C 957.777 -2.27272 4.80126 0
M  V30 10041 C 956.816 -1.70397 5.87904 0
M  V30 10042 N 955.953 -2.76065 6.45548 0
M  V30 10043 H 960.793 0.0652318 2.97929 0
M  V30 10044 H 958.33 0.043964 1.47034 0
M  V30 10045 H 960.288 -2.37325 3.43122 0
M  V30 10046 H 958.918 -2.27043 2.29458 0
M  V30 10047 H 957.97 -0.365034 3.78645 0
M  V30 10048 H 959.282 -0.696576 4.93912 0
M  V30 10049 H 958.436 -3.03092 5.25566 0
M  V30 10050 H 957.175 -2.76224 4.01935 0
M  V30 10051 H 956.18 -0.930752 5.41864 0
M  V30 10052 H 957.405 -1.22319 6.67993 0
M  V30 10053 H 955.351 -3.24306 5.7023 0
M  V30 10054 H 955.268 -2.35018 7.18542 0
M  V30 10055 H 956.536 -3.5171 6.95644 0
M  V30 10056 N 960.765 -1.57509 0.0534917 0
M  V30 10057 C 962.012 -1.92782 -0.619772 0
M  V30 10058 C 962.34 -0.932046 -1.70714 0
M  V30 10059 O 961.595 0.0552891 -1.95622 0
M  V30 10060 C 961.894 -3.34734 -1.25251 0
M  V30 10061 C 961.56 -4.49946 -0.293113 0
M  V30 10062 C 960.222 -4.81191 -0.0291223 0
M  V30 10063 C 962.574 -5.19925 0.364271 0
M  V30 10064 C 959.902 -5.79761 0.899649 0
M  V30 10065 C 962.254 -6.19489 1.28125 0
M  V30 10066 C 960.918 -6.49161 1.55389 0
M  V30 10067 H 960.188 -0.705441 -0.226791 0
M  V30 10068 H 962.835 -1.91121 0.120466 0
M  V30 10069 H 961.14 -3.32774 -2.06807 0
M  V30 10070 H 962.837 -3.59308 -1.78042 0
M  V30 10071 H 959.427 -4.25566 -0.509053 0
M  V30 10072 H 963.611 -4.95997 0.173411 0
M  V30 10073 H 958.867 -6.01085 1.11833 0
M  V30 10074 H 963.041 -6.72824 1.79669 0
M  V30 10075 H 960.668 -7.25354 2.2752 0
M  V30 10076 N 962.243 0.219913 -1.56058 0
M  V30 10077 C 963.173 1.27572 -1.9557 0
M  V30 10078 C 964.154 1.48801 -0.824148 0
M  V30 10079 O 965.339 1.60957 -1.08658 0
M  V30 10080 C 962.469 2.62517 -2.27381 0
M  V30 10081 C 961.423 2.55941 -3.43042 0
M  V30 10082 C 960.749 3.94931 -3.60463 0
M  V30 10083 C 962.049 2.10584 -4.77966 0
M  V30 10084 H 963.743 0.947482 -2.84013 0
M  V30 10085 H 961.289 0.454337 -1.36645 0
M  V30 10086 H 963.242 3.36538 -2.53615 0
M  V30 10087 H 961.966 2.97031 -1.35794 0
M  V30 10088 H 960.625 1.84377 -3.1686 0
M  V30 10089 H 960.273 4.26756 -2.66249 0
M  V30 10090 H 959.973 3.91413 -4.38258 0
M  V30 10091 H 961.497 4.70611 -3.89046 0
M  V30 10092 H 962.911 2.74349 -5.03394 0
M  V30 10093 H 961.308 2.18122 -5.59055 0
M  V30 10094 H 962.378 1.05818 -4.73213 0
M  V30 10095 N 963.721 1.49897 0.486681 0
M  V30 10096 C 964.97 1.59349 1.23656 0
M  V30 10097 C 965.283 0.292024 1.93408 0
M  V30 10098 O 966.489 0.265258 2.70201 0
M  V30 10099 C 964.945 2.81215 2.24602 0
M  V30 10100 C 964.553 4.18177 1.60725 0
M  V30 10101 C 966.297 3.00004 3.00329 0
M  V30 10102 C 964.204 5.31247 2.59866 0
M  V30 10103 H 963.134 0.593363 0.465227 0
M  V30 10104 H 965.785 1.76306 0.508769 0
M  V30 10105 H 964.167 2.57783 3.00606 0
M  V30 10106 H 965.341 4.51802 0.90616 0
M  V30 10107 H 963.656 4.04864 0.973362 0
M  V30 10108 H 966.253 3.81649 3.74497 0
M  V30 10109 H 966.596 2.1112 3.58795 0
M  V30 10110 H 967.129 3.23544 2.3144 0
M  V30 10111 H 963.868 6.22236 2.06161 0
M  V30 10112 H 963.388 5.02059 3.28172 0
M  V30 10113 H 965.067 5.61177 3.22009 0
M  V30 10114 N 965.199 -0.738761 1.39212 0
M  V30 10115 C 966.427 -1.52801 1.39497 0
M  V30 10116 C 966.842 -1.88797 -0.0114917 0
M  V30 10117 O 966.199 -1.53835 -0.981887 0
M  V30 10118 C 966.25 -2.81793 2.2644 0
M  V30 10119 O 965.971 -2.47328 3.61608 0
M  V30 10120 C 967.472 -3.75844 2.35067 0
M  V30 10121 H 964.692 -0.472322 0.476606 0
M  V30 10122 H 967.236 -0.913153 1.8298 0
M  V30 10123 H 965.391 -3.3962 1.8638 0
M  V30 10124 H 965.805 -3.30162 4.07545 0
M  V30 10125 H 967.279 -4.6326 3.00157 0
M  V30 10126 H 967.756 -4.17329 1.3687 0
M  V30 10127 H 968.362 -3.23937 2.75581 0
M  V30 10128 N 966.677 -1.24326 -0.968545 0
M  V30 10129 C 967.925 -1.08032 -1.70803 0
M  V30 10130 C 968.246 0.381728 -1.91227 0
M  V30 10131 O 967.516 1.27253 -1.48942 0
M  V30 10132 H 966.096 -0.396777 -0.632912 0
M  V30 10133 H 968.758 -1.56232 -1.16523 0
M  V30 10134 H 967.854 -1.57769 -2.69287 0
M  V30 10135 N 968.156 1.1691 -1.05688 0
M  V30 10136 C 969.402 1.8757 -0.771071 0
M  V30 10137 C 969.735 1.8113 0.700399 0
M  V30 10138 O 969.01 1.22273 1.5126 0
M  V30 10139 C 969.293 3.37392 -1.25851 0
M  V30 10140 C 969.146 3.52556 -2.79329 0
M  V30 10141 C 970.465 4.31585 -0.861512 0
M  V30 10142 H 967.584 0.681089 -0.281579 0
M  V30 10143 H 970.226 1.37453 -1.31174 0
M  V30 10144 H 968.376 3.80204 -0.798563 0
M  V30 10145 H 970.048 3.18725 -3.33485 0
M  V30 10146 H 968.291 2.94668 -3.1836 0
M  V30 10147 H 968.962 4.57748 -3.08498 0
M  V30 10148 H 971.438 3.96642 -1.25756 0
M  V30 10149 H 970.314 5.34939 -1.23012 0
M  V30 10150 H 970.575 4.4148 0.234089 0
M  V30 10151 N 969.634 0.838594 1.33437 0
M  V30 10152 C 970.881 0.434169 1.97791 0
M  V30 10153 C 971.209 -1.00652 1.66431 0
M  V30 10154 O 970.464 -1.71848 0.936309 0
M  V30 10155 C 970.763 0.601425 3.52303 0
M  V30 10156 C 970.429 2.01017 4.03612 0
M  V30 10157 C 969.091 2.39551 4.17336 0
M  V30 10158 C 971.443 2.93035 4.31022 0
M  V30 10159 C 968.771 3.69406 4.55802 0
M  V30 10160 C 971.123 4.22372 4.7094 0
M  V30 10161 C 969.787 4.60862 4.82869 0
M  V30 10162 H 969.057 0.158874 0.723768 0
M  V30 10163 H 971.704 1.06556 1.59116 0
M  V30 10164 H 970.009 -0.113284 3.91636 0
M  V30 10165 H 971.706 0.268798 4.00098 0
M  V30 10166 H 968.296 1.7009 3.93405 0
M  V30 10167 H 972.48 2.64503 4.19943 0
M  V30 10168 H 967.736 3.99033 4.63231 0
M  V30 10169 H 971.91 4.93749 4.91106 0
M  V30 10170 H 969.537 5.6153 5.12433 0
M  V30 10171 N 971.112 -1.45937 0.595003 0
M  V30 10172 C 972.389 -1.95592 0.0178748 0
M  V30 10173 C 972.769 -1.53758 -1.44643 0
M  V30 10174 O 972.117 -0.794104 -2.14257 0
M  V30 10175 C 972.327 -3.4841 0.202789 0
M  V30 10176 C 973.675 -4.2453 0.0770121 0
M  V30 10177 O 974.699 -3.55954 0.132257 0
M  V30 10178 O 973.558 -5.46479 -0.0484271 0
M  V30 10179 H 970.652 -0.825888 -0.0428702 0
M  V30 10180 H 973.198 -1.56162 0.664184 0
M  V30 10181 H 971.97 -3.71787 1.22027 0
M  V30 10182 H 971.593 -3.947 -0.479376 0
M  V30 10183 N 972.59 -0.333456 -1.54032 0
M  V30 10184 C 973.839 0.267081 -1.99924 0
M  V30 10185 C 974.152 1.52463 -1.22534 0
M  V30 10186 O 975.358 2.20178 -1.58852 0
M  V30 10187 C 973.814 0.526456 -3.56029 0
M  V30 10188 C 973.422 -0.714607 -4.42264 0
M  V30 10189 C 975.166 1.0864 -4.10363 0
M  V30 10190 C 973.073 -0.42659 -5.89859 0
M  V30 10191 H 972.003 0.103577 -0.746852 0
M  V30 10192 H 974.654 -0.447218 -1.77967 0
M  V30 10193 H 973.036 1.3012 -3.74012 0
M  V30 10194 H 974.21 -1.48968 -4.36056 0
M  V30 10195 H 972.525 -1.19547 -3.9887 0
M  V30 10196 H 975.122 1.31668 -5.18235 0
M  V30 10197 H 975.465 2.03884 -3.62956 0
M  V30 10198 H 975.998 0.37261 -3.96051 0
M  V30 10199 H 972.737 -1.34847 -6.4148 0
M  V30 10200 H 972.257 0.310588 -5.98995 0
M  V30 10201 H 973.936 -0.0400807 -6.46988 0
M  V30 10202 N 974.068 1.57479 -0.061844 0
M  V30 10203 C 975.314 1.93395 0.610443 0
M  V30 10204 C 975.647 0.941334 1.6986 0
M  V30 10205 O 974.922 -0.0310262 1.94475 0
M  V30 10206 C 975.205 3.39636 1.19664 0
M  V30 10207 C 975.058 4.49651 0.115805 0
M  V30 10208 C 976.377 3.86488 2.10512 0
M  V30 10209 H 973.496 0.703262 0.220436 0
M  V30 10210 H 976.138 1.89583 -0.125785 0
M  V30 10211 H 974.288 3.43015 1.82409 0
M  V30 10212 H 975.96 4.58397 -0.516728 0
M  V30 10213 H 974.203 4.30237 -0.55483 0
M  V30 10214 H 974.874 5.49089 0.566176 0
M  V30 10215 H 977.35 3.85052 1.57715 0
M  V30 10216 H 976.226 4.89444 2.48466 0
M  V30 10217 H 976.487 3.23856 3.00948 0
M  V30 10218 N 975.546 -0.211634 1.56173 0
M  V30 10219 C 976.493 -1.26231 1.93221 0
M  V30 10220 C 977.463 -1.46076 0.790641 0
M  V30 10221 O 978.648 -1.59482 1.04739 0
M  V30 10222 C 975.788 -2.60559 2.26281 0
M  V30 10223 C 974.901 -2.48431 3.5342 0
M  V30 10224 C 974.036 -3.7535 3.7588 0
M  V30 10225 C 973.075 -3.57985 4.96501 0
M  V30 10226 N 972.212 -4.76877 5.15299 0
M  V30 10227 H 977.052 -0.939367 2.82807 0
M  V30 10228 H 974.589 -0.452511 1.39967 0
M  V30 10229 H 976.547 -3.38796 2.43461 0
M  V30 10230 H 975.177 -2.9093 1.39855 0
M  V30 10231 H 974.229 -1.61577 3.44379 0
M  V30 10232 H 975.541 -2.31526 4.41811 0
M  V30 10233 H 974.695 -4.62029 3.9321 0
M  V30 10234 H 973.434 -3.95191 2.85788 0
M  V30 10235 H 972.439 -2.69691 4.79111 0
M  V30 10236 H 973.664 -3.39605 5.88086 0
M  V30 10237 H 971.61 -4.97013 4.28152 0
M  V30 10238 H 971.527 -4.62735 5.9784 0
M  V30 10239 H 972.795 -5.64954 5.37073 0
M  V30 10240 N 977.024 -1.50153 -0.478725 0
M  V30 10241 C 978.272 -1.60443 -1.22892 0
M  V30 10242 C 978.593 -0.303276 -1.92627 0
M  V30 10243 O 977.863 0.678798 -1.83764 0
M  V30 10244 H 976.443 -0.591205 -0.456602 0
M  V30 10245 H 979.105 -1.86893 -0.552905 0
M  V30 10246 H 978.201 -2.41175 -1.98094 0
M  V30 10247 N 978.502 0.731368 -1.39602 0
M  V30 10248 C 979.434 1.85575 -1.34516 0
M  V30 10249 C 980.447 1.60818 -0.253287 0
M  V30 10250 O 981.636 1.70984 -0.512505 0
M  V30 10251 C 978.736 3.21673 -1.06676 0
M  V30 10252 C 977.909 3.73757 -2.27211 0
M  V30 10253 C 976.968 4.88426 -1.95773 0
M  V30 10254 O 975.994 5.01898 -2.68491 0
M  V30 10255 N 977.196 5.73065 -0.926083 0
M  V30 10256 H 979.961 1.90442 -2.31413 0
M  V30 10257 H 977.522 0.912258 -1.33752 0
M  V30 10258 H 979.514 3.95959 -0.836577 0
M  V30 10259 H 978.084 3.12052 -0.185003 0
M  V30 10260 H 977.304 2.90781 -2.66158 0
M  V30 10261 H 978.592 4.05289 -3.07601 0
M  V30 10262 H 977.99 5.64774 -0.323497 0
M  V30 10263 H 976.547 6.47403 -0.755795 0
M  V30 10264 N 979.98 1.24838 0.961938 0
M  V30 10265 C 981.229 1.0855 1.69999 0
M  V30 10266 C 981.542 -0.374645 1.91979 0
M  V30 10267 O 982.748 -0.657822 2.6341 0
M  V30 10268 C 981.204 1.89424 3.06017 0
M  V30 10269 C 980.812 3.39885 2.9186 0
M  V30 10270 C 982.556 1.81684 3.83655 0
M  V30 10271 C 980.463 4.13082 4.23223 0
M  V30 10272 H 979.393 0.402603 0.637516 0
M  V30 10273 H 982.044 1.4897 1.07146 0
M  V30 10274 H 980.426 1.41823 3.69733 0
M  V30 10275 H 981.6 3.95108 2.37121 0
M  V30 10276 H 979.915 3.4864 2.27683 0
M  V30 10277 H 982.512 2.3367 4.80939 0
M  V30 10278 H 982.855 0.783247 4.08865 0
M  V30 10279 H 983.388 2.26997 3.26676 0
M  V30 10280 H 980.127 5.16824 4.03204 0
M  V30 10281 H 979.647 3.62644 4.77755 0
M  V30 10282 H 981.326 4.20397 4.91808 0
M  V30 10283 N 981.458 -1.16348 1.06306 0
M  V30 10284 C 982.39 -2.20316 0.631929 0
M  V30 10285 C 983.403 -1.59819 -0.310133 0
M  V30 10286 O 984.592 -1.78213 -0.101103 0
M  V30 10287 C 981.692 -3.3877 -0.0937645 0
M  V30 10288 C 980.865 -4.28826 0.861816 0
M  V30 10289 C 979.924 -5.25908 0.175346 0
M  V30 10290 O 978.95 -5.63363 0.813039 0
M  V30 10291 N 980.152 -5.70307 -1.08305 0
M  V30 10292 H 982.917 -2.57925 1.52626 0
M  V30 10293 H 980.478 -1.31358 0.946392 0
M  V30 10294 H 982.47 -4.00759 -0.563412 0
M  V30 10295 H 981.04 -2.99666 -0.889904 0
M  V30 10296 H 980.26 -3.64098 1.51083 0
M  V30 10297 H 981.548 -4.85875 1.51007 0
M  V30 10298 H 980.946 -5.4197 -1.62127 0
M  V30 10299 H 979.503 -6.34387 -1.49656 0
M  V30 10300 N 982.937 -0.845659 -1.3299 0
M  V30 10301 C 984.183 -0.445311 -1.9785 0
M  V30 10302 C 984.516 0.994476 -1.66805 0
M  V30 10303 O 983.791 1.69636 -0.95151 0
M  V30 10304 C 984.074 -0.674371 -3.53729 0
M  V30 10305 C 983.927 -2.16192 -3.94437 0
M  V30 10306 C 985.246 -0.124908 -4.39923 0
M  V30 10307 H 982.365 -0.163269 -0.718688 0
M  V30 10308 H 985.007 -1.06242 -1.5752 0
M  V30 10309 H 983.157 -0.149091 -3.88214 0
M  V30 10310 H 984.829 -2.75259 -3.70176 0
M  V30 10311 H 983.072 -2.64386 -3.43922 0
M  V30 10312 H 983.743 -2.27292 -5.03033 0
M  V30 10313 H 986.219 -0.573986 -4.12122 0
M  V30 10314 H 985.095 -0.314816 -5.47996 0
M  V30 10315 H 985.356 0.971758 -4.31288 0
M  V30 10316 N 984.415 1.45619 -0.602734 0
M  V30 10317 C 985.378 2.28941 0.108962 0
M  V30 10318 C 986.378 1.39501 0.799762 0
M  V30 10319 O 987.568 1.61673 0.648663 0
M  V30 10320 C 984.7 3.204 1.16432 0
M  V30 10321 H 985.893 2.93346 -0.623534 0
M  V30 10322 H 983.446 1.52061 -0.361565 0
M  V30 10323 H 984.181 2.60785 1.92774 0
M  V30 10324 H 983.966 3.86277 0.673248 0
M  V30 10325 H 985.456 3.83063 1.6629 0
M  V30 10326 N 985.893 0.34162 1.53853 0
M  V30 10327 C 987.118 -0.259608 2.05769 0
M  V30 10328 C 987.543 -1.43588 1.21507 0
M  V30 10329 O 986.901 -1.79856 0.228364 0
M  V30 10330 C 986.949 -0.654455 3.54611 0
M  V30 10331 O 986.053 -1.75472 3.73207 0
M  V30 10332 H 985.394 -0.0434621 0.662576 0
M  V30 10333 H 987.924 0.495274 1.98515 0
M  V30 10334 H 987.934 -0.932142 3.97209 0
M  V30 10335 H 986.609 0.205779 4.15391 0
M  V30 10336 H 985.186 -1.47444 3.42512 0
M  V30 10337 N 987.371 -1.57444 0.0701946 0
M  V30 10338 C 988.648 -1.84826 -0.6402 0
M  V30 10339 C 989.028 -0.962344 -1.87889 0
M  V30 10340 O 988.376 -0.0282209 -2.28483 0
M  V30 10341 C 988.586 -3.34976 -0.979382 0
M  V30 10342 C 989.934 -4.02448 -1.35355 0
M  V30 10343 O 990.958 -3.39713 -1.07116 0
M  V30 10344 O 989.817 -5.13096 -1.88136 0
M  V30 10345 H 986.911 -0.763494 -0.317813 0
M  V30 10346 H 989.457 -1.69399 0.101004 0
M  V30 10347 H 988.229 -3.91173 -0.0995576 0
M  V30 10348 H 987.852 -3.5566 -1.7774 0
M  V30 10349 N 988.849 0.203349 -1.56283 0
M  V30 10350 C 989.797 1.27157 -1.94766 0
M  V30 10351 C 990.791 1.4756 -0.832005 0
M  V30 10352 O 991.997 1.48519 -1.01696 0
M  V30 10353 H 988.372 0.426712 -0.61921 0
M  V30 10354 H 990.343 0.919921 -2.83866 0
M  V30 10355 C 989.092 2.6108 -2.29636 0
M  V30 10356 H 988.415 2.46193 -3.15006 0
M  V30 10357 H 989.855 3.34591 -2.60433 0
M  V30 10358 C 988.314 3.17456 -1.12799 0
M  V30 10359 O 988.844 3.99717 -0.398661 0
M  V30 10360 N 987.05 2.76084 -0.906975 0
M  V30 10361 H 986.597 2.09294 -1.50179 0
M  V30 10362 H 986.555 3.14143 -0.127005 0
M  V30 10363 N 990.327 1.50405 0.470755 0
M  V30 10364 C 991.576 1.60652 1.21959 0
M  V30 10365 C 991.889 0.312521 1.93087 0
M  V30 10366 O 993.095 0.293901 2.69905 0
M  V30 10367 C 991.551 2.83581 2.21607 0
M  V30 10368 C 991.159 4.19858 1.5628 0
M  V30 10369 C 992.903 3.03173 2.9713 0
M  V30 10370 C 990.81 5.33974 2.54217 0
M  V30 10371 H 989.74 0.598264 0.458907 0
M  V30 10372 H 992.391 1.76836 0.490041 0
M  V30 10373 H 990.773 2.60957 2.97855 0
M  V30 10374 H 991.947 4.52738 0.85819 0
M  V30 10375 H 990.262 4.05873 0.930366 0
M  V30 10376 H 992.859 3.856 3.70428 0
M  V30 10377 H 993.202 2.14914 3.56536 0
M  V30 10378 H 993.735 3.2598 2.27995 0
M  V30 10379 H 990.474 6.24388 1.99549 0
M  V30 10380 H 989.994 5.05511 3.22829 0
M  V30 10381 H 991.673 5.64561 3.16039 0
M  V30 10382 N 991.805 -0.723954 1.39988 0
M  V30 10383 C 992.752 -1.83803 1.39589 0
M  V30 10384 C 993.722 -1.64146 0.253996 0
M  V30 10385 O 994.907 -1.85398 0.450793 0
M  V30 10386 C 992.047 -3.21431 1.25604 0
M  V30 10387 C 991.16 -3.52717 2.49429 0
M  V30 10388 C 990.295 -4.79805 2.27949 0
M  V30 10389 C 989.334 -5.03968 3.47394 0
M  V30 10390 N 988.471 -6.22266 3.25161 0
M  V30 10391 H 993.311 -1.83479 2.34818 0
M  V30 10392 H 990.848 -0.896396 1.16633 0
M  V30 10393 H 992.806 -4.00892 1.15504 0
M  V30 10394 H 991.436 -3.21005 0.339986 0
M  V30 10395 H 990.488 -2.67872 2.7009 0
M  V30 10396 H 991.8 -3.66486 3.38363 0
M  V30 10397 H 990.954 -5.67268 2.15155 0
M  V30 10398 H 989.693 -4.68229 1.36428 0
M  V30 10399 H 988.698 -4.14963 3.60674 0
M  V30 10400 H 989.923 -5.17422 4.39831 0
M  V30 10401 H 987.869 -6.11957 2.36314 0
M  V30 10402 H 987.786 -6.36673 4.07656 0
M  V30 10403 H 989.054 -7.12539 3.16083 0
M  V30 10404 N 993.283 -1.25346 -0.955304 0
M  V30 10405 C 994.56 -1.00829 -1.67609 0
M  V30 10406 C 994.94 0.465675 -2.059 0
M  V30 10407 O 994.288 1.44287 -1.77182 0
M  V30 10408 C 994.498 -1.94337 -2.89886 0
M  V30 10409 C 995.846 -2.22142 -3.61854 0
M  V30 10410 O 996.87 -1.9209 -2.99967 0
M  V30 10411 O 995.729 -2.73239 -4.73289 0
M  V30 10412 H 992.823 -0.382314 -0.733325 0
M  V30 10413 H 995.369 -1.36498 -1.00829 0
M  V30 10414 H 994.141 -2.93867 -2.58376 0
M  V30 10415 H 993.764 -1.59062 -3.64397 0
M  V30 10416 N 994.761 1.15782 -1.06922 0
M  V30 10417 C 996.001 1.88135 -0.799043 0
M  V30 10418 C 996.365 1.80203 0.662632 0
M  V30 10419 O 997.566 2.47543 1.04767 0
M  V30 10420 C 995.837 3.3339 -1.28786 0
M  V30 10421 S 997.396 4.23525 -1.1477 0
M  V30 10422 H 994.214 0.649313 -0.289679 0
M  V30 10423 H 996.816 1.3972 -1.36743 0
M  V30 10424 H 995.52 3.36705 -2.34645 0
M  V30 10425 H 995.051 3.86857 -0.714489 0
M  V30 10426 H 997.066 4.96131 -0.0825264 0
M  V30 10427 N 996.239 0.8527 1.3254 0
M  V30 10428 C 997.485 0.455798 1.97612 0
M  V30 10429 C 997.818 -0.985616 1.6733 0
M  V30 10430 O 997.093 -1.69129 0.960493 0
M  V30 10431 C 997.376 0.69312 3.53366 0
M  V30 10432 C 997.229 2.18281 3.93285 0
M  V30 10433 C 998.548 0.148236 4.3985 0
M  V30 10434 H 995.667 0.167078 0.717812 0
M  V30 10435 H 998.309 1.07076 1.56954 0
M  V30 10436 H 996.459 0.169677 3.88129 0
M  V30 10437 H 998.131 2.77218 3.68711 0
M  V30 10438 H 996.374 2.66206 3.42515 0
M  V30 10439 H 997.045 2.29957 5.01821 0
M  V30 10440 H 999.521 0.595834 4.11812 0
M  V30 10441 H 998.397 0.343873 5.47822 0
M  V30 10442 H 998.658 -0.948872 4.31797 0
M  V30 10443 N 997.718 -1.45297 0.610449 0
M  V30 10444 C 998.665 -2.30553 -0.106718 0
M  V30 10445 C 999.635 -1.42272 -0.85719 0
M  V30 10446 O 1000.82 -1.71199 -0.842357 0
M  V30 10447 C 997.96 -3.27226 -1.09623 0
M  V30 10448 C 997.073 -4.3061 -0.346329 0
M  V30 10449 C 996.208 -5.14389 -1.32581 0
M  V30 10450 C 995.247 -6.09497 -0.563892 0
M  V30 10451 N 994.384 -6.86047 -1.4928 0
M  V30 10452 H 999.224 -2.91344 0.626296 0
M  V30 10453 H 996.761 -1.43563 0.32065 0
M  V30 10454 H 998.719 -3.81744 -1.68308 0
M  V30 10455 H 997.349 -2.68182 -1.79662 0
M  V30 10456 H 996.401 -3.7873 0.356084 0
M  V30 10457 H 997.713 -4.98183 0.248026 0
M  V30 10458 H 996.867 -5.73321 -1.98464 0
M  V30 10459 H 995.606 -4.4684 -1.9541 0
M  V30 10460 H 994.611 -5.49693 0.108551 0
M  V30 10461 H 995.836 -6.79074 0.0593872 0
M  V30 10462 H 993.782 -6.21185 -2.10868 0
M  V30 10463 H 993.699 -7.49983 -0.951953 0
M  V30 10464 H 994.967 -7.49518 -2.14112 0
M  V30 10465 N 999.196 -0.349774 -1.5367 0
M  V30 10466 C 1000.44 0.245095 -2.02925 0
M  V30 10467 C 1000.8 1.4727 -1.23189 0
M  V30 10468 O 1002 2.14215 -1.62374 0
M  V30 10469 C 1000.27 0.545392 -3.53214 0
M  V30 10470 S 1001.83 1.11619 -4.24366 0
M  V30 10471 H 998.649 0.0725368 -0.70729 0
M  V30 10472 H 1001.25 -0.488979 -1.89286 0
M  V30 10473 H 999.955 -0.355786 -4.08855 0
M  V30 10474 H 999.486 1.30897 -3.70985 0
M  V30 10475 H 1001.5 2.40151 -4.34214 0
M  V30 10476 N 1000.67 1.57404 -0.0785433 0
M  V30 10477 C 1001.92 1.93744 0.589024 0
M  V30 10478 C 1002.25 0.959087 1.69209 0
M  V30 10479 O 1001.5 -0.0241604 1.95685 0
M  V30 10480 C 1001.8 3.36684 1.1991 0
M  V30 10481 C 1001.47 4.50356 0.221493 0
M  V30 10482 C 1000.13 4.81177 -0.0474347 0
M  V30 10483 C 1002.48 5.1928 -0.446941 0
M  V30 10484 C 999.811 5.78257 -0.99177 0
M  V30 10485 C 1002.16 6.17372 -1.37964 0
M  V30 10486 C 1000.83 6.46607 -1.65697 0
M  V30 10487 H 1000.1 0.70896 0.215539 0
M  V30 10488 H 1002.74 1.90905 -0.150856 0
M  V30 10489 H 1001.05 3.36022 2.01486 0
M  V30 10490 H 1002.75 3.62095 1.72303 0
M  V30 10491 H 999.336 4.26322 0.441284 0
M  V30 10492 H 1003.52 4.95658 -0.252298 0
M  V30 10493 H 998.776 5.9923 -1.21381 0
M  V30 10494 H 1002.95 6.6988 -1.9035 0
M  V30 10495 H 1000.58 7.21643 -2.39031 0
M  V30 10496 N 1002.15 -0.195058 1.56388 0
M  V30 10497 C 1003.4 -0.913626 1.79821 0
M  V30 10498 C 1003.71 -1.84422 0.651767 0
M  V30 10499 O 1004.92 -2.6034 0.770402 0
M  V30 10500 C 1003.38 -1.67497 3.18548 0
M  V30 10501 C 1002.98 -0.789205 4.40994 0
M  V30 10502 C 1004.73 -2.38318 3.5129 0
M  V30 10503 C 1002.63 -1.54942 5.70742 0
M  V30 10504 H 1001.56 -0.344891 0.670497 0
M  V30 10505 H 1004.22 -0.166912 1.82739 0
M  V30 10506 H 1002.6 -2.46557 3.0988 0
M  V30 10507 H 1003.77 -0.0372595 4.60785 0
M  V30 10508 H 1002.09 -0.191834 4.15958 0
M  V30 10509 H 1004.68 -2.95745 4.45465 0
M  V30 10510 H 1005.03 -3.12507 2.75037 0
M  V30 10511 H 1005.56 -1.66224 3.61406 0
M  V30 10512 H 1002.3 -0.85031 6.49962 0
M  V30 10513 H 1001.82 -2.2753 5.54969 0
M  V30 10514 H 1003.5 -2.1032 6.11861 0
M  V30 10515 N 1003.63 -1.50653 -0.462772 0
M  V30 10516 C 1004.91 -1.5258 -1.22387 0
M  V30 10517 C 1005.29 -0.275263 -2.09298 0
M  V30 10518 O 1004.63 0.740943 -2.16153 0
M  V30 10519 C 1004.84 -2.82611 -2.04773 0
M  V30 10520 C 1006.19 -3.33592 -2.62681 0
M  V30 10521 O 1007.22 -2.83989 -2.15008 0
M  V30 10522 O 1006.08 -4.20081 -3.49563 0
M  V30 10523 H 1003.17 -0.612367 -0.55582 0
M  V30 10524 H 1005.72 -1.62948 -0.473914 0
M  V30 10525 H 1004.49 -3.65098 -1.40781 0
M  V30 10526 H 1004.11 -2.75286 -2.86886 0
M  V30 10527 N 1005.11 0.71652 -1.4037 0
M  V30 10528 C 1006.35 1.47857 -1.38803 0
M  V30 10529 C 1006.69 1.94197 0.0100536 0
M  V30 10530 O 1005.96 1.68093 0.978521 0
M  V30 10531 C 1006.25 2.7053 -2.37667 0
M  V30 10532 C 1006.1 2.3009 -3.86496 0
M  V30 10533 C 1007.42 3.72684 -2.34082 0
M  V30 10534 H 1004.54 0.53632 -0.505499 0
M  V30 10535 H 1007.18 0.817824 -1.71498 0
M  V30 10536 H 1005.33 3.26906 -2.09916 0
M  V30 10537 H 1007 1.79202 -4.2507 0
M  V30 10538 H 1005.24 1.62102 -4.02375 0
M  V30 10539 H 1005.91 3.18018 -4.51186 0
M  V30 10540 H 1008.39 3.25935 -2.58661 0
M  V30 10541 H 1007.27 4.56157 -3.05306 0
M  V30 10542 H 1007.53 4.20916 -1.35213 0
M  V30 10543 N 1006.59 1.25851 0.948643 0
M  V30 10544 C 1007.83 1.11119 1.69648 0
M  V30 10545 C 1008.17 -0.345995 1.91093 0
M  V30 10546 O 1007.44 -1.25467 1.48621 0
M  V30 10547 C 1007.72 1.87261 3.0758 0
M  V30 10548 C 1007.58 3.40842 2.93507 0
M  V30 10549 C 1008.9 1.6605 4.07573 0
M  V30 10550 H 1006.01 0.405052 0.615713 0
M  V30 10551 H 1008.66 1.54756 1.10229 0
M  V30 10552 H 1006.81 1.50172 3.58303 0
M  V30 10553 H 1008.48 3.87641 2.50064 0
M  V30 10554 H 1006.72 3.68248 2.29294 0
M  V30 10555 H 1007.39 3.89339 3.91305 0
M  V30 10556 H 1009.87 1.98348 3.65783 0
M  V30 10557 H 1008.74 2.21753 5.02113 0
M  V30 10558 H 1009.01 0.603256 4.37965 0
M  V30 10559 N 1008.06 -1.15214 1.07534 0
M  V30 10560 C 1009.01 -2.22078 0.69168 0
M  V30 10561 C 1010.01 -1.66751 -0.298382 0
M  V30 10562 O 1011.21 -1.7927 -0.161897 0
M  V30 10563 H 1007.59 -0.723347 0.205604 0
M  V30 10564 H 1009.56 -2.51716 1.60256 0
M  V30 10565 C 1008.31 -3.47534 0.107546 0
M  V30 10566 H 1007.63 -3.90429 0.860522 0
M  V30 10567 H 1009.07 -4.23821 -0.123215 0
M  V30 10568 C 1007.53 -3.16583 -1.15226 0
M  V30 10569 O 1008.06 -3.33551 -2.23845 0
M  V30 10570 N 1006.27 -2.70611 -1.05915 0
M  V30 10571 H 1005.81 -2.57004 -0.175198 0
M  V30 10572 H 1005.77 -2.50277 -1.90287 0
M  V30 10573 N 1009.54 -0.859717 -1.32086 0
M  V30 10574 C 1010.49 -0.306042 -2.28762 0
M  V30 10575 C 1011.46 0.589801 -1.55276 0
M  V30 10576 O 1012.64 0.523633 -1.83474 0
M  V30 10577 C 1009.78 0.495256 -3.41528 0
M  V30 10578 C 1008.9 -0.426947 -4.29885 0
M  V30 10579 C 1008.03 0.387474 -5.29785 0
M  V30 10580 C 1007.07 -0.531807 -6.09785 0
M  V30 10581 N 1006.21 0.245741 -7.0167 0
M  V30 10582 H 1011.05 -1.1357 -2.7551 0
M  V30 10583 H 1008.59 -0.571468 -1.35546 0
M  V30 10584 H 1010.54 0.97551 -4.05635 0
M  V30 10585 H 1009.17 1.28969 -2.95917 0
M  V30 10586 H 1008.23 -1.02561 -3.66313 0
M  V30 10587 H 1009.54 -1.13226 -4.85779 0
M  V30 10588 H 1008.69 0.930677 -5.99519 0
M  V30 10589 H 1007.43 1.12612 -4.74521 0
M  V30 10590 H 1006.44 -1.08685 -5.3895 0
M  V30 10591 H 1007.66 -1.26915 -6.67135 0
M  V30 10592 H 1005.61 0.967391 -6.48828 0
M  V30 10593 H 1005.52 -0.400432 -7.54939 0
M  V30 10594 H 1006.79 0.770507 -7.75683 0
M  V30 10595 N 1011.02 1.44971 -0.618145 0
M  V30 10596 C 1011.98 2.29044 0.0846739 0
M  V30 10597 C 1012.98 1.40341 0.784921 0
M  V30 10598 O 1014.17 1.62351 0.631479 0
M  V30 10599 C 1011.31 3.21617 1.13027 0
M  V30 10600 H 1012.5 2.92668 -0.654612 0
M  V30 10601 H 1010.05 1.51668 -0.377672 0
M  V30 10602 H 1010.79 2.62815 1.89997 0
M  V30 10603 H 1010.57 3.86969 0.63224 0
M  V30 10604 H 1012.06 3.84805 1.62218 0
M  V30 10605 N 1012.5 0.357919 1.53482 0
M  V30 10606 C 1013.43 -0.484231 2.28424 0
M  V30 10607 C 1014.41 -1.09046 1.30548 0
M  V30 10608 O 1015.59 -1.10916 1.59409 0
M  V30 10609 C 1012.72 -1.62803 3.06778 0
M  V30 10610 C 1011.68 -1.14943 4.12277 0
M  V30 10611 C 1011 -2.38287 4.78669 0
M  V30 10612 C 1012.3 -0.239627 5.2175 0
M  V30 10613 H 1014 0.140979 2.99068 0
M  V30 10614 H 1011.54 0.069244 1.43833 0
M  V30 10615 H 1013.5 -2.22374 3.57949 0
M  V30 10616 H 1012.22 -2.28036 2.3381 0
M  V30 10617 H 1010.88 -0.576442 3.6204 0
M  V30 10618 H 1010.53 -3.01959 4.02281 0
M  V30 10619 H 1010.23 -2.06939 5.49955 0
M  V30 10620 H 1011.75 -2.98558 5.32631 0
M  V30 10621 H 1013.17 -0.742597 5.6847 0
M  V30 10622 H 1011.56 -0.0173747 6.00097 0
M  V30 10623 H 1012.63 0.720333 4.7952 0
M  V30 10624 N 1013.98 -1.5736 0.0868897 0
M  V30 10625 C 1014.89 -2.17087 -0.889402 0
M  V30 10626 C 1015.9 -1.13809 -1.31619 0
M  V30 10627 O 1017.08 -1.46143 -1.38579 0
M  V30 10628 C 1014.14 -2.73286 -2.13344 0
M  V30 10629 C 1013.2 -3.91491 -1.76164 0
M  V30 10630 C 1012.44 -4.45 -2.94637 0
M  V30 10631 O 1012.66 -3.97467 -4.09116 0
M  V30 10632 O 1011.59 -5.36133 -2.73579 0
M  V30 10633 H 1015.42 -3.00902 -0.411275 0
M  V30 10634 H 1013.01 -1.4877 -0.137015 0
M  V30 10635 H 1014.89 -3.0924 -2.86266 0
M  V30 10636 H 1013.56 -1.92521 -2.60225 0
M  V30 10637 H 1012.47 -3.60363 -1.00447 0
M  V30 10638 H 1013.8 -4.73593 -1.34053 0
M  V30 10639 N 1015.45 0.186762 -1.56489 0
M  V30 10640 C 1016.39 1.25971 -1.9028 0
M  V30 10641 C 1017.37 1.43543 -0.763822 0
M  V30 10642 O 1018.55 1.58799 -1.01564 0
M  V30 10643 C 1015.68 2.62507 -2.14028 0
M  V30 10644 C 1014.72 2.61758 -3.36727 0
M  V30 10645 S 1015.56 2.12366 -4.9159 0
M  V30 10646 C 1016.71 3.5071 -5.18414 0
M  V30 10647 H 1016.94 0.971203 -2.80989 0
M  V30 10648 H 1014.48 0.390636 -1.49377 0
M  V30 10649 H 1016.44 3.41098 -2.28391 0
M  V30 10650 H 1015.1 2.88564 -1.24054 0
M  V30 10651 H 1014.29 3.62173 -3.50495 0
M  V30 10652 H 1013.89 1.91254 -3.214 0
M  V30 10653 H 1016.18 4.46622 -5.09445 0
M  V30 10654 H 1017.13 3.41829 -6.20128 0
M  V30 10655 H 1017.53 3.46008 -4.46026 0
M  V30 10656 N 1016.93 1.50896 0.454776 0
M  V30 10657 C 1018.17 1.64347 1.21529 0
M  V30 10658 C 1018.54 0.343869 1.88896 0
M  V30 10659 O 1019.74 0.353973 2.66459 0
M  V30 10660 C 1018.01 2.80199 2.21864 0
M  V30 10661 S 1019.57 3.13879 3.06636 0
M  V30 10662 H 1016.39 0.579193 0.412379 0
M  V30 10663 H 1018.99 1.88741 0.509629 0
M  V30 10664 H 1017.69 3.73086 1.70982 0
M  V30 10665 H 1017.22 2.57941 2.97036 0
M  V30 10666 H 1019.24 2.58964 4.23264 0
M  V30 10667 N 1018.41 -0.709066 1.40748 0
M  V30 10668 C 1019.66 -1.4646 1.38681 0
M  V30 10669 C 1019.97 -1.95599 -0.0056209 0
M  V30 10670 O 1021.18 -2.71091 -0.148907 0
M  V30 10671 C 1019.63 -2.64771 2.43771 0
M  V30 10672 C 1019.24 -2.22474 3.88856 0
M  V30 10673 C 1020.99 -3.42475 2.50821 0
M  V30 10674 C 1018.89 -3.37663 4.85528 0
M  V30 10675 H 1017.82 -0.550084 0.515678 0
M  V30 10676 H 1020.47 -0.771074 1.66513 0
M  V30 10677 H 1018.86 -3.36325 2.09048 0
M  V30 10678 H 1020.03 -1.58297 4.32757 0
M  V30 10679 H 1018.35 -1.57798 3.85342 0
M  V30 10680 H 1020.94 -4.28201 3.20232 0
M  V30 10681 H 1021.29 -3.86738 1.54076 0
M  V30 10682 H 1021.82 -2.77969 2.84567 0
M  V30 10683 H 1018.56 -2.98426 5.83628 0
M  V30 10684 H 1018.08 -4.00734 4.46287 0
M  V30 10685 H 1019.76 -4.03636 5.05655 0
M  V30 10686 N 1019.89 -1.26353 -0.941956 0
M  V30 10687 C 1021.17 -1.02601 -1.6653 0
M  V30 10688 C 1021.55 0.44381 -2.06382 0
M  V30 10689 O 1020.89 1.42399 -1.78703 0
M  V30 10690 C 1021.1 -1.97401 -2.87809 0
M  V30 10691 C 1022.45 -2.25967 -3.59478 0
M  V30 10692 O 1023.48 -1.95261 -2.97912 0
M  V30 10693 O 1022.34 -2.78244 -4.70364 0
M  V30 10694 H 1019.43 -0.39007 -0.729228 0
M  V30 10695 H 1021.98 -1.37559 -0.993754 0
M  V30 10696 H 1020.75 -2.9659 -2.55245 0
M  V30 10697 H 1020.37 -1.62918 -3.62689 0
M  V30 10698 N 1021.37 1.14642 -1.08144 0
M  V30 10699 C 1022.3 2.19283 -0.6669 0
M  V30 10700 C 1023.31 1.60292 0.284668 0
M  V30 10701 O 1024.5 1.78352 0.0727383 0
M  V30 10702 C 1021.6 3.38877 0.0398572 0
M  V30 10703 C 1020.77 4.274 -0.929929 0
M  V30 10704 C 1019.83 5.25562 -0.258991 0
M  V30 10705 O 1018.86 5.61999 -0.902563 0
M  V30 10706 N 1020.06 5.71958 0.992177 0
M  V30 10707 H 1022.83 2.55464 -1.5671 0
M  V30 10708 H 1020.39 1.29836 -0.96717 0
M  V30 10709 H 1022.38 4.01605 0.499583 0
M  V30 10710 H 1020.95 3.01043 0.842118 0
M  V30 10711 H 1020.17 3.61649 -1.56857 0
M  V30 10712 H 1021.46 4.83411 -1.58717 0
M  V30 10713 H 1020.86 5.44481 1.53484 0
M  V30 10714 H 1019.41 6.36687 1.39544 0
M  V30 10715 N 1022.85 0.866709 1.31628 0
M  V30 10716 C 1024.09 0.476731 1.97117 0
M  V30 10717 C 1024.42 -0.967813 1.68366 0
M  V30 10718 O 1023.7 -1.68101 0.978377 0
M  V30 10719 C 1023.98 0.730561 3.52611 0
M  V30 10720 C 1023.84 2.2244 3.90948 0
M  V30 10721 C 1025.15 0.19488 4.39668 0
M  V30 10722 H 1022.27 0.174682 0.715999 0
M  V30 10723 H 1024.92 1.08735 1.5581 0
M  V30 10724 H 1023.07 0.210834 3.87927 0
M  V30 10725 H 1024.74 2.81113 3.6575 0
M  V30 10726 H 1022.98 2.69824 3.39673 0
M  V30 10727 H 1023.65 2.35266 4.99353 0
M  V30 10728 H 1026.13 0.639478 4.11157 0
M  V30 10729 H 1025 0.401958 5.47426 0
M  V30 10730 H 1025.26 -0.90302 4.32779 0
M  V30 10731 N 1024.32 -1.44642 0.625825 0
M  V30 10732 C 1025.55 -2.06458 0.135116 0
M  V30 10733 C 1025.97 -1.46729 -1.18811 0
M  V30 10734 O 1025.32 -0.58818 -1.72762 0
M  V30 10735 C 1025.37 -3.61499 0.00850114 0
M  V30 10736 O 1025.1 -4.19002 1.2794 0
M  V30 10737 C 1026.6 -4.40339 -0.511527 0
M  V30 10738 H 1023.82 -0.666541 0.0772294 0
M  V30 10739 H 1026.36 -1.85597 0.858726 0
M  V30 10740 H 1024.52 -3.81641 -0.665522 0
M  V30 10741 H 1024.93 -5.12385 1.12081 0
M  V30 10742 H 1026.4 -5.49262 -0.549149 0
M  V30 10743 H 1026.88 -4.11409 -1.53752 0
M  V30 10744 H 1027.49 -4.25104 0.129066 0
M  V30 10745 N 1025.8 -0.366053 -1.5329 0
M  V30 10746 C 1027.05 0.224614 -2.00445 0
M  V30 10747 C 1027.36 1.49829 -1.2574 0
M  V30 10748 O 1028.57 2.16759 -1.63487 0
M  V30 10749 C 1027.03 0.450818 -3.57065 0
M  V30 10750 C 1026.63 -0.808257 -4.40649 0
M  V30 10751 C 1028.38 0.999116 -4.12575 0
M  V30 10752 C 1026.28 -0.551612 -5.88822 0
M  V30 10753 H 1025.21 0.0877114 -0.748881 0
M  V30 10754 H 1027.87 -0.484866 -1.76978 0
M  V30 10755 H 1026.25 1.22157 -3.76688 0
M  V30 10756 H 1027.42 -1.58184 -4.32798 0
M  V30 10757 H 1025.74 -1.27981 -3.96245 0
M  V30 10758 H 1028.33 1.20646 -5.20911 0
M  V30 10759 H 1028.68 1.96139 -3.67199 0
M  V30 10760 H 1029.21 0.288518 -3.96752 0
M  V30 10761 H 1025.95 -1.48423 -6.38475 0
M  V30 10762 H 1025.47 0.183462 -5.99519 0
M  V30 10763 H 1027.15 -0.177307 -6.46757 0
M  V30 10764 N 1027.28 1.57312 -0.0952337 0
M  V30 10765 C 1028.24 2.12889 0.849161 0
M  V30 10766 C 1029.24 1.05819 1.21075 0
M  V30 10767 O 1030.43 1.31704 1.14016 0
M  V30 10768 C 1027.56 2.6496 2.14498 0
M  V30 10769 H 1028.76 2.97651 0.366566 0
M  V30 10770 H 1026.31 1.55542 0.153762 0
M  V30 10771 H 1027.05 1.83718 2.67242 0
M  V30 10772 H 1026.83 3.43244 1.89542 0
M  V30 10773 H 1028.32 3.07952 2.82056 0
M  V30 10774 N 1028.76 -0.17846 1.56586 0
M  V30 10775 C 1030.01 -0.894464 1.81228 0
M  V30 10776 C 1030.33 -1.83089 0.671062 0
M  V30 10777 O 1029.6 -1.93439 -0.309557 0
M  V30 10778 H 1028.18 -0.333288 0.668527 0
M  V30 10779 H 1030.84 -0.179986 1.94067 0
M  V30 10780 H 1029.93 -1.47565 2.75011 0
M  V30 10781 N 1030.24 -1.51135 -0.446768 0
M  V30 10782 C 1031.2 -1.71187 -1.52406 0
M  V30 10783 C 1032.2 -0.582037 -1.49897 0
M  V30 10784 O 1033.39 -0.849452 -1.52085 0
M  V30 10785 C 1030.52 -1.75962 -2.91976 0
M  V30 10786 H 1031.71 -2.67324 -1.35934 0
M  V30 10787 H 1029.27 -1.40982 -0.674813 0
M  V30 10788 H 1030 -0.816065 -3.13864 0
M  V30 10789 H 1029.79 -2.58065 -2.95203 0
M  V30 10790 H 1031.28 -1.93347 -3.70144 0
M  V30 10791 N 1031.71 0.701592 -1.41122 0
M  V30 10792 C 1032.66 1.81559 -1.42495 0
M  V30 10793 C 1033.63 1.63722 -0.280078 0
M  V30 10794 O 1034.82 1.84658 -0.480231 0
M  V30 10795 C 1031.96 3.19392 -1.30702 0
M  V30 10796 C 1031.07 3.48704 -2.55009 0
M  V30 10797 C 1030.2 4.76118 -2.35554 0
M  V30 10798 C 1029.24 4.98378 -3.55367 0
M  V30 10799 N 1028.38 6.17014 -3.3502 0
M  V30 10800 H 1033.22 1.7972 -2.37707 0
M  V30 10801 H 1030.76 0.877727 -1.18044 0
M  V30 10802 H 1032.71 3.99004 -1.21867 0
M  V30 10803 H 1031.34 3.20423 -0.391012 0
M  V30 10804 H 1030.4 2.63542 -2.74317 0
M  V30 10805 H 1031.71 3.61057 -3.44151 0
M  V30 10806 H 1030.86 5.63774 -2.24152 0
M  V30 10807 H 1029.6 4.66 -1.43859 0
M  V30 10808 H 1028.61 4.09172 -3.6723 0
M  V30 10809 H 1029.83 5.10359 -4.48007 0
M  V30 10810 H 1027.78 6.0812 -2.4602 0
M  V30 10811 H 1027.69 6.30107 -4.17733 0
M  V30 10812 H 1028.96 7.0742 -3.27379 0
M  V30 10813 N 1033.19 1.2685 0.935242 0
M  V30 10814 C 1034.12 1.1143 2.05196 0
M  V30 10815 C 1035.1 0.0178362 1.70091 0
M  V30 10816 O 1036.29 0.190951 1.93259 0
M  V30 10817 C 1033.42 0.752779 3.39044 0
M  V30 10818 C 1032.37 1.80164 3.88233 0
M  V30 10819 C 1031.7 1.29428 5.18799 0
M  V30 10820 C 1033 3.20431 4.12457 0
M  V30 10821 H 1034.69 2.04845 2.18355 0
M  V30 10822 H 1032.24 0.986276 1.04922 0
M  V30 10823 H 1034.19 0.631757 4.16637 0
M  V30 10824 H 1032.91 -0.217075 3.25878 0
M  V30 10825 H 1031.57 1.91144 3.12825 0
M  V30 10826 H 1031.22 0.3141 5.02018 0
M  V30 10827 H 1030.92 1.99546 5.5268 0
M  V30 10828 H 1032.45 1.18605 5.9897 0
M  V30 10829 H 1033.86 3.12495 4.80645 0
M  V30 10830 H 1032.26 3.88193 4.57631 0
M  V30 10831 H 1033.33 3.66046 3.18023 0
M  V30 10832 N 1034.67 -1.14067 1.0875 0
M  V30 10833 C 1036.09 -1.37173 0.815823 0
M  V30 10834 C 1036.29 -1.93175 -0.573215 0
M  V30 10835 O 1035.34 -2.14672 -1.32937 0
M  V30 10836 C 1036.66 -2.32955 1.90138 0
M  V30 10837 C 1038.2 -2.46586 1.9278 0
M  V30 10838 C 1038.68 -3.4567 3.0046 0
M  V30 10839 N 1040.17 -3.53216 2.99655 0
M  V30 10840 C 1040.9 -4.29743 3.79616 0
M  V30 10841 N 1040.4 -5.09484 4.69466 0
M  V30 10842 N 1042.19 -4.24975 3.67903 0
M  V30 10843 H 1034.34 -0.760648 1.98313 0
M  V30 10844 H 1036.61 -0.397135 0.860807 0
M  V30 10845 H 1036.31 -1.98949 2.90021 0
M  V30 10846 H 1036.19 -3.32897 1.77368 0
M  V30 10847 H 1038.57 -2.79882 0.935404 0
M  V30 10848 H 1038.66 -1.46593 2.09629 0
M  V30 10849 H 1038.3 -3.13106 3.99909 0
M  V30 10850 H 1038.23 -4.45452 2.80856 0
M  V30 10851 H 1040.72 -2.96314 2.34535 0
M  V30 10852 H 1041.03 -5.65163 5.27077 0
M  V30 10853 H 1039.38 -5.08741 4.73506 0
M  V30 10854 H 1042.57 -3.61751 2.97075 0
M  V30 10855 H 1042.74 -4.84364 4.30459 0
M  V30 10856 N 1036.15 -0.873678 -1.31166 0
M  V30 10857 C 1037.37 -0.500242 -2.01277 0
M  V30 10858 C 1037.8 0.900811 -1.65127 0
M  V30 10859 O 1037.16 1.59504 -0.861862 0
M  V30 10860 C 1037.2 -0.668976 -3.5434 0
M  V30 10861 O 1036.31 0.290096 -4.11378 0
M  V30 10862 H 1035.65 -0.198507 -0.633633 0
M  V30 10863 H 1038.18 -1.17811 -1.67277 0
M  V30 10864 H 1038.19 -0.563673 -4.04088 0
M  V30 10865 H 1036.86 -1.69055 -3.79991 0
M  V30 10866 H 1035.44 0.139437 -3.72639 0
M  V30 10867 N 1037.63 1.44308 -0.633487 0
M  V30 10868 C 1038.56 2.33431 0.0568402 0
M  V30 10869 C 1039.54 1.48342 0.832386 0
M  V30 10870 O 1040.72 1.77056 0.797798 0
M  V30 10871 C 1037.85 3.31443 1.03743 0
M  V30 10872 C 1036.81 4.26368 0.373362 0
M  V30 10873 C 1036.13 5.14267 1.46403 0
M  V30 10874 C 1037.43 5.17287 -0.721876 0
M  V30 10875 H 1039.13 2.91402 -0.687388 0
M  V30 10876 H 1036.67 1.4012 -0.332009 0
M  V30 10877 H 1038.63 3.92677 1.52913 0
M  V30 10878 H 1037.35 2.71686 1.81258 0
M  V30 10879 H 1036.01 3.6647 -0.0977053 0
M  V30 10880 H 1035.66 4.50861 2.23011 0
M  V30 10881 H 1035.36 5.7859 1.02506 0
M  V30 10882 H 1036.88 5.78373 1.95748 0
M  V30 10883 H 1038.29 5.72444 -0.313181 0
M  V30 10884 H 1036.69 5.90226 -1.08413 0
M  V30 10885 H 1037.76 4.58159 -1.58804 0
M  V30 10886 N 1039.1 0.374177 1.53094 0
M  V30 10887 C 1040.05 -0.48326 2.27524 0
M  V30 10888 C 1041.05 -1.07606 1.30833 0
M  V30 10889 O 1042.25 -1.01827 1.48429 0
M  V30 10890 H 1038.63 -0.174578 0.731455 0
M  V30 10891 H 1040.6 0.166156 2.97937 0
M  V30 10892 C 1039.35 -1.6065 3.08362 0
M  V30 10893 H 1038.67 -1.15966 3.82612 0
M  V30 10894 H 1040.11 -2.18099 3.63606 0
M  V30 10895 C 1038.57 -2.55381 2.19732 0
M  V30 10896 O 1039.1 -3.58414 1.8139 0
M  V30 10897 N 1037.31 -2.24769 1.84194 0
M  V30 10898 H 1036.85 -1.41018 2.15573 0
M  V30 10899 H 1036.81 -2.88404 1.25181 0
M  V30 10900 N 1040.58 -1.57259 0.103575 0
M  V30 10901 C 1041.51 -2.17509 -0.84923 0
M  V30 10902 C 1042.49 -1.11079 -1.28824 0
M  V30 10903 O 1043.68 -1.39252 -1.35361 0
M  V30 10904 C 1040.81 -2.76221 -2.10522 0
M  V30 10905 C 1039.76 -3.88098 -1.80454 0
M  V30 10906 C 1039.09 -4.33549 -3.12952 0
M  V30 10907 C 1040.39 -5.10909 -1.08486 0
M  V30 10908 H 1042.08 -2.9738 -0.347217 0
M  V30 10909 H 1039.63 -1.43045 -0.165568 0
M  V30 10910 H 1041.58 -3.17024 -2.77621 0
M  V30 10911 H 1040.31 -1.93617 -2.63021 0
M  V30 10912 H 1038.96 -3.47847 -1.15749 0
M  V30 10913 H 1038.61 -3.47825 -3.63355 0
M  V30 10914 H 1038.31 -5.08984 -2.93614 0
M  V30 10915 H 1039.84 -4.76992 -3.81196 0
M  V30 10916 H 1041.25 -5.48828 -1.65711 0
M  V30 10917 H 1039.65 -5.91828 -0.992973 0
M  V30 10918 H 1040.72 -4.84851 -0.0690108 0
M  V30 10919 N 1042.06 0.170153 -1.56679 0
M  V30 10920 C 1043.31 0.884841 -1.817 0
M  V30 10921 C 1043.63 1.82731 -0.680763 0
M  V30 10922 O 1042.9 1.936 0.299294 0
M  V30 10923 H 1041.48 0.329738 -0.670285 0
M  V30 10924 H 1044.14 0.169691 -1.9416 0
M  V30 10925 H 1043.24 1.46104 -2.7579 0
M  V30 10926 N 1043.54 1.5137 0.438746 0
M  V30 10927 C 1044.45 1.75424 1.55768 0
M  V30 10928 C 1045.46 0.638409 1.61865 0
M  V30 10929 O 1046.64 0.9205 1.79133 0
M  V30 10930 C 1043.71 1.87288 2.9176 0
M  V30 10931 C 1042.77 3.11137 2.95791 0
M  V30 10932 C 1042 3.22425 4.25297 0
M  V30 10933 O 1042.22 2.39688 5.17596 0
M  V30 10934 O 1041.16 4.15393 4.35583 0
M  V30 10935 H 1044.98 2.70339 1.38386 0
M  V30 10936 H 1042.57 1.35854 0.621609 0
M  V30 10937 H 1044.45 1.97085 3.72472 0
M  V30 10938 H 1043.12 0.955599 3.09273 0
M  V30 10939 H 1042.03 3.06819 2.1404 0
M  V30 10940 H 1043.36 4.02549 2.83223 0
M  V30 10941 N 1045.02 -0.694098 1.41492 0
M  V30 10942 C 1046.26 -1.4563 1.41137 0
M  V30 10943 C 1046.6 -1.94189 0.0208428 0
M  V30 10944 O 1045.87 -1.69628 -0.951655 0
M  V30 10945 C 1046.15 -2.66714 2.41941 0
M  V30 10946 C 1046.01 -2.23912 3.90107 0
M  V30 10947 C 1047.33 -3.68913 2.39981 0
M  V30 10948 H 1044.44 -0.52821 0.513968 0
M  V30 10949 H 1047.09 -0.790437 1.72778 0
M  V30 10950 H 1045.24 -3.23525 2.1509 0
M  V30 10951 H 1046.91 -1.72417 4.27867 0
M  V30 10952 H 1045.15 -1.5568 4.04903 0
M  V30 10953 H 1045.82 -3.108 4.56188 0
M  V30 10954 H 1048.3 -3.21779 2.63813 0
M  V30 10955 H 1047.17 -4.51242 3.12524 0
M  V30 10956 H 1047.44 -4.18711 1.41892 0
M  V30 10957 N 1046.49 -1.27344 -0.928501 0
M  V30 10958 C 1047.74 -1.13635 -1.6761 0
M  V30 10959 C 1048.07 0.317957 -1.91884 0
M  V30 10960 O 1047.32 1.24904 -1.50657 0
M  V30 10961 C 1047.62 -1.86439 -3.04918 0
M  V30 10962 C 1047.29 -3.36298 -3.00358 0
M  V30 10963 C 1045.95 -3.77173 -2.98821 0
M  V30 10964 C 1048.3 -4.31921 -2.91708 0
M  V30 10965 C 1045.63 -5.12037 -2.86417 0
M  V30 10966 C 1047.98 -5.66841 -2.80846 0
M  V30 10967 C 1046.65 -6.07011 -2.77659 0
M  V30 10968 H 1045.92 -0.415821 -0.61333 0
M  V30 10969 H 1048.56 -1.57943 -1.08288 0
M  V30 10970 H 1046.87 -1.34638 -3.6794 0
M  V30 10971 H 1048.57 -1.73261 -3.61637 0
M  V30 10972 H 1045.16 -3.0379 -3.0234 0
M  V30 10973 H 1049.34 -4.01314 -2.91994 0
M  V30 10974 H 1044.6 -5.42307 -2.82336 0
M  V30 10975 H 1048.77 -6.40608 -2.73119 0
M  V30 10976 H 1046.4 -7.11467 -2.67804 0
M  V30 10977 N 1047.97 1.13488 -1.09353 0
M  V30 10978 C 1049.22 1.841 -0.82401 0
M  V30 10979 C 1049.53 1.84393 0.652586 0
M  V30 10980 O 1050.74 2.5089 1.03762 0
M  V30 10981 C 1049.2 3.30523 -1.42418 0
M  V30 10982 C 1048.8 3.38621 -2.93326 0
M  V30 10983 C 1050.55 4.06182 -1.23356 0
M  V30 10984 C 1048.46 4.79311 -3.46432 0
M  V30 10985 H 1047.39 0.68974 -0.304589 0
M  V30 10986 H 1050.04 1.27866 -1.31615 0
M  V30 10987 H 1048.42 3.86555 -0.859727 0
M  V30 10988 H 1049.59 2.92587 -3.5599 0
M  V30 10989 H 1047.91 2.76426 -3.11412 0
M  V30 10990 H 1050.5 5.10047 -1.60488 0
M  V30 10991 H 1050.85 4.15936 -0.174152 0
M  V30 10992 H 1051.38 3.56477 -1.76547 0
M  V30 10993 H 1048.12 4.74748 -4.5199 0
M  V30 10994 H 1047.64 5.25842 -2.8853 0
M  V30 10995 H 1049.32 5.48227 -3.43593 0
M  V30 10996 N 1049.45 0.880621 1.30701 0
M  V30 10997 C 1050.41 0.349087 2.26526 0
M  V30 10998 C 1051.41 -0.505973 1.52632 0
M  V30 10999 O 1052.6 -0.313751 1.71351 0
M  V30 11000 C 1049.74 -0.503023 3.37168 0
M  V30 11001 H 1050.93 1.19516 2.75056 0
M  V30 11002 H 1048.48 0.657107 1.41816 0
M  V30 11003 H 1049.22 -1.36986 2.93948 0
M  V30 11004 H 1049 0.109389 3.91947 0
M  V30 11005 H 1050.49 -0.866845 4.08504 0
M  V30 11006 N 1050.93 -1.4397 0.641131 0
M  V30 11007 C 1051.86 -2.28997 -0.0963315 0
M  V30 11008 C 1052.87 -1.4184 -0.799071 0
M  V30 11009 O 1054.06 -1.65896 -0.658846 0
M  V30 11010 C 1051.16 -3.18465 -1.15903 0
M  V30 11011 C 1050.34 -4.34093 -0.536828 0
M  V30 11012 C 1049.4 -5.04522 -1.4948 0
M  V30 11013 O 1048.42 -5.60202 -1.00807 0
M  V30 11014 N 1049.62 -5.06899 -2.82901 0
M  V30 11015 H 1052.39 -2.9293 0.633422 0
M  V30 11016 H 1049.95 -1.54527 0.48302 0
M  V30 11017 H 1051.94 -3.62445 -1.80044 0
M  V30 11018 H 1050.51 -2.56214 -1.79089 0
M  V30 11019 H 1049.73 -3.9318 0.283414 0
M  V30 11020 H 1051.02 -5.08698 -0.101966 0
M  V30 11021 H 1050.42 -4.63012 -3.25017 0
M  V30 11022 H 1048.97 -5.54637 -3.42376 0
M  V30 11023 N 1052.41 -0.382291 -1.52893 0
M  V30 11024 C 1053.63 0.204961 -2.06385 0
M  V30 11025 C 1054.06 1.40316 -1.25271 0
M  V30 11026 O 1053.42 1.79187 -0.275969 0
M  V30 11027 C 1053.46 0.560205 -3.56222 0
M  V30 11028 O 1052.57 1.65515 -3.77728 0
M  V30 11029 H 1051.91 0.0258798 -0.663495 0
M  V30 11030 H 1054.44 -0.547733 -1.97132 0
M  V30 11031 H 1054.45 0.826501 -3.99541 0
M  V30 11032 H 1053.12 -0.31584 -4.14699 0
M  V30 11033 H 1051.7 1.38311 -3.46301 0
M  V30 11034 N 1053.89 1.57202 -0.111913 0
M  V30 11035 C 1054.83 2.14936 0.840908 0
M  V30 11036 C 1055.8 1.07242 1.2684 0
M  V30 11037 O 1056.99 1.35114 1.34718 0
M  V30 11038 C 1054.13 2.74743 2.0883 0
M  V30 11039 C 1053.24 3.96723 1.70982 0
M  V30 11040 C 1052.38 4.4464 2.90634 0
M  V30 11041 C 1051.41 5.59169 2.48992 0
M  V30 11042 N 1050.55 6.01862 3.61534 0
M  V30 11043 H 1055.39 2.96034 0.341735 0
M  V30 11044 H 1052.93 1.4626 0.156993 0
M  V30 11045 H 1054.89 3.07546 2.81907 0
M  V30 11046 H 1053.52 1.96346 2.56218 0
M  V30 11047 H 1052.57 3.70127 0.878072 0
M  V30 11048 H 1053.88 4.79795 1.36373 0
M  V30 11049 H 1053.03 4.79315 3.71944 0
M  V30 11050 H 1051.77 3.60503 3.28464 0
M  V30 11051 H 1050.78 5.24106 1.66113 0
M  V30 11052 H 1052 6.45067 2.12287 0
M  V30 11053 H 1049.95 5.20667 3.99051 0
M  V30 11054 H 1049.87 6.79772 3.30827 0
M  V30 11055 H 1051.13 6.41172 4.43305 0
M  V30 11056 N 1055.36 -0.161842 1.56767 0
M  V30 11057 C 1056.61 -0.875192 1.82167 0
M  V30 11058 C 1056.93 -1.82367 0.690444 0
M  V30 11059 O 1056.2 -1.93756 -0.289023 0
M  V30 11060 H 1054.78 -0.326178 0.672024 0
M  V30 11061 H 1057.44 -0.159392 1.94247 0
M  V30 11062 H 1056.54 -1.44639 2.76561 0
M  V30 11063 N 1056.84 -1.516 -0.430713 0
M  V30 11064 C 1057.77 -1.76342 -1.53054 0
M  V30 11065 C 1058.75 -0.61349 -1.58652 0
M  V30 11066 O 1059.94 -0.856888 -1.74273 0
M  V30 11067 C 1057.07 -1.8945 -2.91077 0
M  V30 11068 C 1056.02 -3.04928 -3.00339 0
M  V30 11069 C 1055.35 -3.03228 -4.40405 0
M  V30 11070 C 1056.65 -4.44777 -2.73808 0
M  V30 11071 H 1058.34 -2.68435 -1.326 0
M  V30 11072 H 1055.89 -1.29171 -0.636466 0
M  V30 11073 H 1057.84 -2.05343 -3.67984 0
M  V30 11074 H 1056.56 -0.940114 -3.12777 0
M  V30 11075 H 1055.22 -2.88751 -2.25872 0
M  V30 11076 H 1054.87 -2.05553 -4.59083 0
M  V30 11077 H 1054.57 -3.80776 -4.47531 0
M  V30 11078 H 1056.1 -3.21222 -5.19277 0
M  V30 11079 H 1057.51 -4.6127 -3.40445 0
M  V30 11080 H 1055.91 -5.2408 -2.92335 0
M  V30 11081 H 1056.98 -4.54358 -1.69372 0
M  V30 11082 N 1058.32 0.686584 -1.41858 0
M  V30 11083 C 1059.55 1.47305 -1.44862 0
M  V30 11084 C 1059.96 1.8912 -0.0549286 0
M  V30 11085 O 1059.3 1.57941 0.938101 0
M  V30 11086 C 1059.36 2.76107 -2.30229 0
M  V30 11087 C 1059.03 2.5644 -3.78269 0
M  V30 11088 C 1060.02 2.21803 -4.70212 0
M  V30 11089 C 1057.71 2.71801 -4.22409 0
M  V30 11090 C 1059.7 2.02778 -6.04284 0
M  V30 11091 C 1057.39 2.52392 -5.56544 0
M  V30 11092 C 1058.39 2.17933 -6.47298 0
M  V30 11093 O 1058.08 1.98701 -7.78956 0
M  V30 11094 H 1057.81 0.460174 -0.495193 0
M  V30 11095 H 1060.36 0.852069 -1.86893 0
M  V30 11096 H 1058.59 3.40644 -1.83026 0
M  V30 11097 H 1060.28 3.37947 -2.24826 0
M  V30 11098 H 1061.05 2.09542 -4.37398 0
M  V30 11099 H 1056.93 2.97605 -3.52069 0
M  V30 11100 H 1060.47 1.75805 -6.75084 0
M  V30 11101 H 1056.37 2.64246 -5.88935 0
M  V30 11102 H 1057.13 2.13393 -7.90193 0
M  V30 11103 N 1059.8 1.27835 0.921735 0
M  V30 11104 C 1061.21 1.05369 1.19873 0
M  V30 11105 C 1061.41 -0.208997 2.00413 0
M  V30 11106 O 1060.47 -0.912861 2.35421 0
M  V30 11107 C 1061.78 2.29658 1.94108 0
M  V30 11108 C 1063.33 2.34756 2.07023 0
M  V30 11109 C 1063.81 3.5879 2.84664 0
M  V30 11110 N 1065.3 3.59383 2.9223 0
M  V30 11111 C 1066.03 4.52029 3.52785 0
M  V30 11112 N 1065.53 5.54986 4.14683 0
M  V30 11113 N 1067.32 4.39641 3.50246 0
M  V30 11114 H 1059.47 2.08903 0.383819 0
M  V30 11115 H 1061.73 0.919065 0.232429 0
M  V30 11116 H 1061.44 3.21604 1.4235 0
M  V30 11117 H 1061.31 2.35444 2.94696 0
M  V30 11118 H 1063.7 1.43312 2.57965 0
M  V30 11119 H 1063.78 2.32969 1.05636 0
M  V30 11120 H 1063.43 4.50574 2.34404 0
M  V30 11121 H 1063.36 3.57829 3.86349 0
M  V30 11122 H 1065.85 2.84927 2.48244 0
M  V30 11123 H 1066.16 6.21837 4.58845 0
M  V30 11124 H 1064.51 5.58822 4.13211 0
M  V30 11125 H 1067.7 3.58413 3.01094 0
M  V30 11126 H 1067.87 5.12033 3.97148 0
M  V30 11127 N 1061.28 -1.12907 1.09954 0
M  V30 11128 C 1062.21 -2.18194 0.701701 0
M  V30 11129 C 1063.22 -1.60724 -0.259131 0
M  V30 11130 O 1064.41 -1.78445 -0.0443549 0
M  V30 11131 C 1061.51 -3.38897 0.0140602 0
M  V30 11132 C 1060.68 -4.25867 0.997807 0
M  V30 11133 C 1059.74 -5.25084 0.34257 0
M  V30 11134 O 1058.77 -5.60492 0.991857 0
M  V30 11135 N 1059.97 -5.73464 -0.901058 0
M  V30 11136 H 1062.73 -2.52939 1.60755 0
M  V30 11137 H 1060.3 -1.28281 0.987703 0
M  V30 11138 H 1062.29 -4.02349 -0.435628 0
M  V30 11139 H 1060.86 -3.02345 -0.794118 0
M  V30 11140 H 1060.08 -3.59107 1.6259 0
M  V30 11141 H 1061.37 -4.80825 1.66388 0
M  V30 11142 H 1060.76 -5.46854 -1.44802 0
M  V30 11143 H 1059.32 -6.38827 -1.29398 0
M  V30 11144 N 1062.75 -0.88754 -1.30232 0
M  V30 11145 C 1063.99 -0.514017 -1.97831 0
M  V30 11146 C 1064.36 0.920151 -1.68515 0
M  V30 11147 O 1065.56 1.39993 -2.29468 0
M  V30 11148 C 1063.83 -0.784155 -3.48692 0
M  V30 11149 S 1065.39 -0.513119 -4.3579 0
M  V30 11150 H 1062.21 -0.191157 -0.684821 0
M  V30 11151 H 1064.81 -1.14736 -1.58291 0
M  V30 11152 H 1063.51 -1.82639 -3.6752 0
M  V30 11153 H 1063.04 -0.138468 -3.93156 0
M  V30 11154 H 1065.06 0.647155 -4.91962 0
M  V30 11155 N 1064.23 1.43628 -0.648757 0
M  V30 11156 C 1065.48 2.01083 -0.157692 0
M  V30 11157 C 1065.79 1.51756 1.23408 0
M  V30 11158 O 1067 2.01455 1.82012 0
M  V30 11159 C 1065.46 3.59157 -0.231118 0
M  V30 11160 C 1065.06 4.17478 -1.6253 0
M  V30 11161 C 1066.81 4.24016 0.202573 0
M  V30 11162 C 1064.72 5.67832 -1.6529 0
M  V30 11163 H 1063.65 0.751977 -0.0551897 0
M  V30 11164 H 1066.3 1.64648 -0.810139 0
M  V30 11165 H 1064.68 3.92972 0.488755 0
M  V30 11166 H 1065.85 3.9517 -2.37017 0
M  V30 11167 H 1064.17 3.64973 -2.00459 0
M  V30 11168 H 1066.76 5.34319 0.20174 0
M  V30 11169 H 1067.11 3.97616 1.23319 0
M  V30 11170 H 1067.64 3.95068 -0.465398 0
M  V30 11171 H 1064.38 5.98994 -2.66246 0
M  V30 11172 H 1063.9 5.92209 -0.951217 0
M  V30 11173 H 1065.58 6.3179 -1.39465 0
M  V30 11174 N 1065.71 0.390394 1.52688 0
M  V30 11175 C 1067.13 0.0404028 1.59549 0
M  V30 11176 C 1067.33 -1.44503 1.40432 0
M  V30 11177 O 1066.38 -2.20968 1.22187 0
M  V30 11178 C 1067.7 0.518561 2.96195 0
M  V30 11179 C 1069.24 0.474913 3.09376 0
M  V30 11180 C 1069.72 0.929278 4.48473 0
M  V30 11181 N 1071.21 0.885335 4.5466 0
M  V30 11182 C 1071.94 1.2083 5.60524 0
M  V30 11183 N 1071.44 1.6018 6.74028 0
M  V30 11184 N 1073.23 1.12949 5.50635 0
M  V30 11185 H 1065.38 1.35743 1.63363 0
M  V30 11186 H 1067.65 0.556453 0.767505 0
M  V30 11187 H 1067.35 1.55606 3.15404 0
M  V30 11188 H 1067.23 -0.081779 3.77111 0
M  V30 11189 H 1069.61 -0.553503 2.89863 0
M  V30 11190 H 1069.7 1.11107 2.3041 0
M  V30 11191 H 1069.34 1.95593 4.68728 0
M  V30 11192 H 1069.27 0.270121 5.25907 0
M  V30 11193 H 1071.76 0.595787 3.73174 0
M  V30 11194 H 1072.07 1.83184 7.50775 0
M  V30 11195 H 1070.42 1.64067 6.75357 0
M  V30 11196 H 1073.61 0.821074 4.60843 0
M  V30 11197 H 1073.78 1.3845 6.33037 0
M  V30 11198 N 1067.19 -1.57141 0.120249 0
M  V30 11199 C 1068.44 -1.94852 -0.536387 0
M  V30 11200 C 1068.76 -1.00452 -1.67136 0
M  V30 11201 O 1068.03 -0.061053 -1.95805 0
M  V30 11202 H 1066.61 -0.719411 -0.201138 0
M  V30 11203 H 1069.27 -1.93977 0.189482 0
M  V30 11204 H 1068.37 -2.97917 -0.930145 0
M  V30 11205 N 1068.67 0.153526 -1.5685 0
M  V30 11206 C 1069.61 1.18973 -1.97773 0
M  V30 11207 C 1070.58 1.43041 -0.844311 0
M  V30 11208 O 1071.77 1.55484 -1.10586 0
M  V30 11209 C 1068.91 2.51981 -2.35795 0
M  V30 11210 C 1068.02 2.35143 -3.62397 0
M  V30 11211 C 1067.16 3.61141 -3.89552 0
M  V30 11212 C 1066.2 3.39311 -5.09445 0
M  V30 11213 N 1065.33 4.57423 -5.32643 0
M  V30 11214 H 1070.17 0.833758 -2.86099 0
M  V30 11215 H 1067.71 0.400252 -1.4155 0
M  V30 11216 H 1069.67 3.29527 -2.55867 0
M  V30 11217 H 1068.3 2.85539 -1.50557 0
M  V30 11218 H 1067.35 1.48684 -3.50139 0
M  V30 11219 H 1068.66 2.14969 -4.501 0
M  V30 11220 H 1067.82 4.47117 -4.10087 0
M  V30 11221 H 1066.55 3.84312 -3.00259 0
M  V30 11222 H 1065.56 2.51723 -4.8879 0
M  V30 11223 H 1066.78 3.17545 -6.00285 0
M  V30 11224 H 1064.73 4.8078 -4.46303 0
M  V30 11225 H 1064.65 4.40228 -6.14602 0
M  V30 11226 H 1065.92 5.44632 -5.57671 0
M  V30 11227 N 1070.14 1.51827 0.422667 0
M  V30 11228 C 1071.05 1.77066 1.53899 0
M  V30 11229 C 1072.07 0.655541 1.61179 0
M  V30 11230 O 1073.25 0.939448 1.78147 0
M  V30 11231 C 1070.31 1.90372 2.89758 0
M  V30 11232 C 1069.37 3.14256 2.92475 0
M  V30 11233 C 1068.61 3.26918 4.21853 0
M  V30 11234 O 1068.83 2.45164 5.15025 0
M  V30 11235 O 1067.76 4.19989 4.31153 0
M  V30 11236 H 1071.59 2.71791 1.35511 0
M  V30 11237 H 1069.17 1.36506 0.607165 0
M  V30 11238 H 1071.06 2.01024 3.70361 0
M  V30 11239 H 1069.73 0.988347 3.08242 0
M  V30 11240 H 1068.64 3.09072 2.10773 0
M  V30 11241 H 1069.97 4.0553 2.78937 0
M  V30 11242 N 1071.62 -0.679052 1.4222 0
M  V30 11243 C 1072.55 -1.80455 1.41311 0
M  V30 11244 C 1073.57 -1.59767 0.312799 0
M  V30 11245 O 1074.76 -1.68964 0.575612 0
M  V30 11246 C 1071.86 -3.17492 1.18541 0
M  V30 11247 C 1071.03 -3.65066 2.40926 0
M  V30 11248 C 1070.09 -4.80823 2.13765 0
M  V30 11249 O 1069.11 -4.91587 2.86934 0
M  V30 11250 N 1070.32 -5.69233 1.13813 0
M  V30 11251 H 1073.08 -1.81722 2.38322 0
M  V30 11252 H 1070.64 -0.861988 1.37045 0
M  V30 11253 H 1072.63 -3.92581 0.982958 0
M  V30 11254 H 1071.2 -3.1115 0.300691 0
M  V30 11255 H 1070.42 -2.80702 2.76767 0
M  V30 11256 H 1071.71 -3.93593 3.22431 0
M  V30 11257 H 1071.11 -5.63185 0.532887 0
M  V30 11258 H 1069.67 -6.44152 0.995554 0
M  V30 11259 N 1073.1 -1.28322 -0.914942 0
M  V30 11260 C 1074.03 -1.14681 -2.03398 0
M  V30 11261 C 1075.01 -0.0448939 -1.70041 0
M  V30 11262 O 1076.2 -0.221672 -1.92931 0
M  V30 11263 C 1073.33 -0.806623 -3.37803 0
M  V30 11264 C 1072.28 -1.86318 -3.85318 0
M  V30 11265 C 1071.61 -1.37665 -5.16674 0
M  V30 11266 C 1072.91 -3.26953 -4.07307 0
M  V30 11267 H 1074.6 -2.08293 -2.15068 0
M  V30 11268 H 1072.15 -1.00284 -1.03339 0
M  V30 11269 H 1074.1 -0.69796 -4.1558 0
M  V30 11270 H 1072.82 0.165203 -3.26182 0
M  V30 11271 H 1071.48 -1.96096 -3.09745 0
M  V30 11272 H 1071.13 -0.393927 -5.01455 0
M  V30 11273 H 1070.83 -2.08313 -5.49435 0
M  V30 11274 H 1072.35 -1.28119 -5.97007 0
M  V30 11275 H 1073.77 -3.20102 -4.75613 0
M  V30 11276 H 1072.17 -3.95424 -4.51398 0
M  V30 11277 H 1073.24 -3.71059 -3.12159 0
M  V30 11278 N 1074.58 1.12322 -1.10551 0
M  V30 11279 C 1075.51 2.17819 -0.713263 0
M  V30 11280 C 1076.52 1.6086 0.250604 0
M  V30 11281 O 1077.71 1.78466 0.0348909 0
M  V30 11282 C 1074.81 3.38885 -0.0320325 0
M  V30 11283 C 1073.99 4.25332 -1.02038 0
M  V30 11284 C 1073.04 5.24895 -0.370412 0
M  V30 11285 O 1072.07 5.59958 -1.02157 0
M  V30 11286 N 1073.27 5.73934 0.870633 0
M  V30 11287 H 1076.04 2.52083 -1.62094 0
M  V30 11288 H 1073.6 1.27755 -0.994492 0
M  V30 11289 H 1075.59 4.02574 0.414285 0
M  V30 11290 H 1074.16 3.02762 0.778072 0
M  V30 11291 H 1073.38 3.5824 -1.64492 0
M  V30 11292 H 1074.67 4.79936 -1.68936 0
M  V30 11293 H 1074.07 5.47614 1.419 0
M  V30 11294 H 1072.62 6.39504 1.26008 0
M  V30 11295 N 1076.06 0.894434 1.2976 0
M  V30 11296 C 1076.99 0.3847 2.30309 0
M  V30 11297 C 1077.97 -0.537486 1.61385 0
M  V30 11298 O 1079.15 -0.449332 1.8893 0
M  V30 11299 C 1076.28 -0.393311 3.45066 0
M  V30 11300 C 1075.24 0.437968 4.25753 0
M  V30 11301 C 1074.56 -0.467221 5.32655 0
M  V30 11302 C 1075.86 1.6851 4.9437 0
M  V30 11303 H 1077.56 1.22496 2.73194 0
M  V30 11304 H 1075.1 0.590471 1.31337 0
M  V30 11305 H 1077.06 -0.760614 4.14479 0
M  V30 11306 H 1075.78 -1.2673 3.0101 0
M  V30 11307 H 1074.44 0.787533 3.58041 0
M  V30 11308 H 1074.09 -1.33919 4.84845 0
M  V30 11309 H 1073.79 0.0852482 5.87538 0
M  V30 11310 H 1075.31 -0.830833 6.04921 0
M  V30 11311 H 1076.72 1.38784 5.56248 0
M  V30 11312 H 1075.12 2.17849 5.59162 0
M  V30 11313 H 1076.19 2.42412 4.19958 0
M  V30 11314 N 1077.53 -1.43282 0.656365 0
M  V30 11315 C 1078.46 -2.33492 -0.0196962 0
M  V30 11316 C 1079.45 -1.49647 -0.80868 0
M  V30 11317 O 1080.63 -1.78303 -0.769529 0
M  V30 11318 C 1077.76 -3.33052 -0.984574 0
M  V30 11319 C 1076.71 -4.26908 -0.305483 0
M  V30 11320 C 1076.04 -5.16531 -1.38202 0
M  V30 11321 C 1077.34 -5.16073 0.804081 0
M  V30 11322 H 1079.03 -2.90272 0.733661 0
M  V30 11323 H 1076.58 -1.39574 0.354259 0
M  V30 11324 H 1078.53 -3.9506 -1.46647 0
M  V30 11325 H 1077.26 -2.74535 -1.76913 0
M  V30 11326 H 1075.92 -3.66268 0.155995 0
M  V30 11327 H 1075.56 -4.54351 -2.1581 0
M  V30 11328 H 1075.26 -5.80148 -0.932878 0
M  V30 11329 H 1076.79 -5.81414 -1.86522 0
M  V30 11330 H 1078.2 -5.71873 0.404212 0
M  V30 11331 H 1076.6 -5.88427 1.17789 0
M  V30 11332 H 1077.67 -4.55574 1.66073 0
M  V30 11333 N 1079.01 -0.398486 -1.52479 0
M  V30 11334 C 1079.95 0.476551 -2.23169 0
M  V30 11335 C 1080.92 1.05665 -1.23587 0
M  V30 11336 O 1082.11 1.10654 -1.52604 0
M  V30 11337 C 1079.24 1.66048 -2.95204 0
M  V30 11338 C 1078.28 1.20478 -4.0913 0
M  V30 11339 S 1079.11 0.178711 -5.35202 0
M  V30 11340 C 1080.27 1.36821 -6.10762 0
M  V30 11341 H 1080.5 -0.123704 -2.97043 0
M  V30 11342 H 1078.04 -0.182722 -1.53315 0
M  V30 11343 H 1079.99 2.33942 -3.37315 0
M  V30 11344 H 1078.66 2.23206 -2.20993 0
M  V30 11345 H 1077.85 2.08901 -4.58668 0
M  V30 11346 H 1077.45 0.604632 -3.6908 0
M  V30 11347 H 1079.74 2.2937 -6.37492 0
M  V30 11348 H 1080.69 0.913579 -7.02182 0
M  V30 11349 H 1081.09 1.58919 -5.41669 0
M  V30 11350 N 1080.49 1.57075 -0.12858 0
M  V30 11351 C 1081.9 1.82468 0.39526 0
M  V30 11352 C 1082.25 1.0463 1.65973 0
M  V30 11353 O 1081.38 0.285835 2.14504 0
M  V30 11354 C 1081.97 3.30976 0.723889 0
M  V30 11355 C 1080.53 3.57016 1.19232 0
M  V30 11356 C 1079.68 2.76534 0.205907 0
M  V30 11357 H 1082.63 1.54711 -0.353571 0
M  V30 11358 H 1082.65 3.46127 1.58039 0
M  V30 11359 H 1082.16 3.87602 -0.196595 0
M  V30 11360 H 1080.26 3.05758 2.12938 0
M  V30 11361 H 1080.38 4.65558 1.13103 0
M  V30 11362 H 1078.74 2.45038 0.694872 0
M  V30 11363 H 1079.52 3.35923 -0.707842 0
M  V30 11364 N 1081.97 -0.145205 1.5693 0
M  V30 11365 C 1082.9 -1.18096 2.01434 0
M  V30 11366 C 1083.88 -1.447 0.894204 0
M  V30 11367 O 1085.07 -1.55589 1.16214 0
M  V30 11368 C 1082.2 -2.51369 2.39647 0
M  V30 11369 C 1081.15 -2.39283 3.54863 0
M  V30 11370 C 1080.48 -3.77283 3.78895 0
M  V30 11371 C 1081.78 -1.8754 4.87469 0
M  V30 11372 H 1083.47 -0.810897 2.8821 0
M  V30 11373 H 1081.02 -0.388624 1.38657 0
M  V30 11374 H 1082.97 -3.24054 2.69382 0
M  V30 11375 H 1081.69 -2.90214 1.49811 0
M  V30 11376 H 1080.35 -1.6905 3.25296 0
M  V30 11377 H 1080 -4.13567 2.86307 0
M  V30 11378 H 1079.7 -3.70057 4.56433 0
M  V30 11379 H 1081.22 -4.51514 4.11057 0
M  V30 11380 H 1082.64 -2.50019 5.1591 0
M  V30 11381 H 1081.03 -1.912 5.68826 0
M  V30 11382 H 1082.1 -0.831194 4.77723 0
M  V30 11383 N 1083.45 -1.52049 -0.414609 0
M  V30 11384 C 1084.39 -1.74998 -1.5048 0
M  V30 11385 C 1085.36 -0.592251 -1.55182 0
M  V30 11386 O 1086.55 -0.829203 -1.7184 0
M  V30 11387 C 1083.69 -1.90157 -2.87983 0
M  V30 11388 C 1082.8 -3.17789 -2.92633 0
M  V30 11389 C 1081.94 -3.23411 -4.21401 0
M  V30 11390 C 1080.98 -4.45267 -4.20004 0
M  V30 11391 N 1080.11 -4.48312 -5.40334 0
M  V30 11392 H 1084.95 -2.68046 -1.30212 0
M  V30 11393 H 1082.49 -1.32824 -0.632154 0
M  V30 11394 H 1084.45 -1.96929 -3.67797 0
M  V30 11395 H 1083.08 -1.00496 -3.06758 0
M  V30 11396 H 1082.13 -3.20216 -2.05343 0
M  V30 11397 H 1083.44 -4.07634 -2.87465 0
M  V30 11398 H 1082.6 -3.29224 -5.09604 0
M  V30 11399 H 1081.34 -2.31495 -4.29257 0
M  V30 11400 H 1080.34 -4.39606 -3.30192 0
M  V30 11401 H 1081.57 -5.38472 -4.13793 0
M  V30 11402 H 1079.51 -3.59277 -5.48868 0
M  V30 11403 H 1079.43 -5.31994 -5.37139 0
M  V30 11404 H 1080.7 -4.58347 -6.30506 0
M  V30 11405 N 1084.93 0.6715 -1.42579 0
M  V30 11406 C 1085.89 1.76676 -1.46008 0
M  V30 11407 C 1086.89 1.57007 -0.347213 0
M  V30 11408 O 1088.08 1.63238 -0.608185 0
M  V30 11409 C 1085.21 3.15348 -1.29494 0
M  V30 11410 H 1086.4 1.75021 -2.43531 0
M  V30 11411 H 1083.96 0.881444 -1.29075 0
M  V30 11412 H 1084.69 3.22626 -0.32906 0
M  V30 11413 H 1084.48 3.31028 -2.10149 0
M  V30 11414 H 1085.97 3.95251 -1.34784 0
M  V30 11415 N 1086.4 1.28806 0.908124 0
M  V30 11416 C 1087.81 1.14719 1.47297 0
M  V30 11417 C 1088.17 -0.260763 1.94459 0
M  V30 11418 O 1087.29 -1.15553 1.82966 0
M  V30 11419 C 1087.89 2.07643 2.67712 0
M  V30 11420 C 1086.44 1.97605 3.20358 0
M  V30 11421 C 1085.59 1.99058 1.93058 0
M  V30 11422 H 1088.54 1.41413 0.720283 0
M  V30 11423 H 1088.56 1.64372 3.43165 0
M  V30 11424 H 1088.08 3.10108 2.33355 0
M  V30 11425 H 1086.18 0.981982 3.59427 0
M  V30 11426 H 1086.29 2.84846 3.85226 0
M  V30 11427 H 1084.65 1.43541 2.104 0
M  V30 11428 H 1085.44 3.03212 1.60989 0
M  V30 11429 N 1087.88 -1.11734 1.11145 0
M  V30 11430 C 1088.83 -2.17683 0.766979 0
M  V30 11431 C 1089.8 -1.64051 -0.260108 0
M  V30 11432 O 1090.98 -1.90302 -0.137723 0
M  V30 11433 C 1088.12 -3.44442 0.212982 0
M  V30 11434 C 1087.24 -4.12094 1.29626 0
M  V30 11435 C 1086.37 -5.26526 0.703127 0
M  V30 11436 C 1085.41 -5.86057 1.76647 0
M  V30 11437 N 1084.55 -6.91889 1.19306 0
M  V30 11438 H 1089.39 -2.46495 1.67465 0
M  V30 11439 H 1086.92 -1.21011 0.836353 0
M  V30 11440 H 1088.88 -4.17009 -0.126162 0
M  V30 11441 H 1087.51 -3.16025 -0.657888 0
M  V30 11442 H 1086.56 -3.37631 1.75241 0
M  V30 11443 H 1087.88 -4.52398 2.10089 0
M  V30 11444 H 1087.03 -6.05888 0.313859 0
M  V30 11445 H 1085.77 -4.87519 -0.132856 0
M  V30 11446 H 1084.77 -5.05375 2.16508 0
M  V30 11447 H 1086 -6.27132 2.60543 0
M  V30 11448 H 1083.95 -6.54906 0.378664 0
M  V30 11449 H 1083.86 -7.30832 1.93443 0
M  V30 11450 H 1085.13 -7.75062 0.830578 0
M  V30 11451 N 1089.36 -0.901303 -1.29284 0
M  V30 11452 C 1090.27 -0.3849 -2.31421 0
M  V30 11453 C 1091.29 0.521163 -1.66012 0
M  V30 11454 O 1092.46 0.410356 -1.97175 0
M  V30 11455 C 1089.53 0.377804 -3.44635 0
M  V30 11456 C 1088.59 -0.559974 -4.25632 0
M  V30 11457 C 1087.82 0.166425 -5.3344 0
M  V30 11458 O 1088.04 1.39012 -5.53202 0
M  V30 11459 O 1086.98 -0.491875 -5.99887 0
M  V30 11460 H 1090.8 -1.2323 -2.77575 0
M  V30 11461 H 1088.39 -0.665683 -1.3375 0
M  V30 11462 H 1090.27 0.809041 -4.13561 0
M  V30 11463 H 1088.95 1.20124 -3.00586 0
M  V30 11464 H 1087.85 -1.04036 -3.59343 0
M  V30 11465 H 1089.19 -1.34987 -4.73328 0
M  V30 11466 N 1090.84 1.42931 -0.663954 0
M  V30 11467 C 1092.08 2.01982 -0.182007 0
M  V30 11468 C 1092.42 1.52323 1.20463 0
M  V30 11469 O 1091.69 0.720834 1.80649 0
M  V30 11470 C 1091.97 3.59518 -0.204671 0
M  V30 11471 C 1091.83 4.19382 -1.62599 0
M  V30 11472 C 1093.15 4.37762 0.45308 0
M  V30 11473 H 1090.27 0.733892 -0.0676115 0
M  V30 11474 H 1092.91 1.70092 -0.84668 0
M  V30 11475 H 1091.06 3.86816 0.361295 0
M  V30 11476 H 1092.73 4.03076 -2.24337 0
M  V30 11477 H 1090.97 3.75623 -2.17001 0
M  V30 11478 H 1091.64 5.28496 -1.59362 0
M  V30 11479 H 1094.12 4.1609 -0.0285774 0
M  V30 11480 H 1093 5.47392 0.406538 0
M  V30 11481 H 1093.26 4.1482 1.52895 0
M  V30 11482 N 1092.32 0.406567 1.52266 0
M  V30 11483 C 1093.54 -0.169624 2.06204 0
M  V30 11484 C 1093.96 -1.39076 1.27684 0
M  V30 11485 O 1093.32 -1.79528 0.328023 0
M  V30 11486 C 1093.37 -0.522611 3.57702 0
M  V30 11487 O 1093.09 0.650028 4.33251 0
M  V30 11488 C 1094.59 -1.15281 4.28048 0
M  V30 11489 H 1091.81 -0.0215191 0.670655 0
M  V30 11490 H 1094.35 0.576781 1.96198 0
M  V30 11491 H 1092.51 -1.21891 3.67725 0
M  V30 11492 H 1092.92 0.355989 5.23291 0
M  V30 11493 H 1094.4 -1.35002 5.35237 0
M  V30 11494 H 1094.87 -2.12517 3.84361 0
M  V30 11495 H 1095.48 -0.496786 4.22389 0
M  V30 11496 N 1093.79 -1.57004 0.136909 0
M  V30 11497 C 1095.04 -1.95797 -0.516711 0
M  V30 11498 C 1095.37 -1.02123 -1.65533 0
M  V30 11499 O 1094.62 -0.0484835 -1.9564 0
M  V30 11500 C 1094.92 -3.40903 -1.07331 0
M  V30 11501 C 1094.59 -4.50867 -0.0541941 0
M  V30 11502 C 1093.25 -4.80669 0.225988 0
M  V30 11503 C 1095.6 -5.17264 0.639361 0
M  V30 11504 C 1092.93 -5.74177 1.2057 0
M  V30 11505 C 1095.28 -6.11827 1.60783 0
M  V30 11506 C 1093.95 -6.40012 1.89581 0
M  V30 11507 H 1093.22 -0.716471 -0.189078 0
M  V30 11508 H 1095.86 -1.90213 0.221605 0
M  V30 11509 H 1094.17 -3.43268 -1.88876 0
M  V30 11510 H 1095.87 -3.6824 -1.58745 0
M  V30 11511 H 1092.46 -4.27666 -0.282754 0
M  V30 11512 H 1096.64 -4.9438 0.436085 0
M  V30 11513 H 1091.9 -5.94312 1.43538 0
M  V30 11514 H 1096.07 -6.62354 2.15081 0
M  V30 11515 H 1093.7 -7.12274 2.65649 0
M  V30 11516 N 1095.27 0.136881 -1.57004 0
M  V30 11517 C 1096.2 1.17026 -2.02057 0
M  V30 11518 C 1097.18 1.44223 -0.901866 0
M  V30 11519 O 1098.37 1.54971 -1.17037 0
M  V30 11520 C 1095.5 2.50095 -2.40977 0
M  V30 11521 C 1094.45 2.37398 -3.56127 0
M  V30 11522 C 1093.78 3.75268 -3.80891 0
M  V30 11523 C 1095.08 1.84952 -4.88457 0
M  V30 11524 H 1096.77 0.795601 -2.88636 0
M  V30 11525 H 1094.32 0.381266 -1.38861 0
M  V30 11526 H 1096.27 3.22621 -2.71097 0
M  V30 11527 H 1095 2.89416 -1.51348 0
M  V30 11528 H 1093.65 1.67322 -3.26188 0
M  V30 11529 H 1093.3 4.12043 -2.88496 0
M  V30 11530 H 1093 3.67631 -4.5839 0
M  V30 11531 H 1094.53 4.49327 -4.13446 0
M  V30 11532 H 1095.94 2.4728 -5.17229 0
M  V30 11533 H 1094.34 1.88181 -5.69832 0
M  V30 11534 H 1095.41 0.805848 -4.78157 0
M  V30 11535 N 1096.75 1.52266 0.40654 0
M  V30 11536 C 1097.66 1.78688 1.52012 0
M  V30 11537 C 1098.68 0.6726 1.60475 0
M  V30 11538 O 1099.85 0.95829 1.77141 0
M  V30 11539 C 1096.92 1.93434 2.87722 0
M  V30 11540 C 1095.98 3.17341 2.89125 0
M  V30 11541 C 1095.21 3.31374 4.18362 0
M  V30 11542 O 1095.43 2.50613 5.12396 0
M  V30 11543 O 1094.37 4.24539 4.26674 0
M  V30 11544 H 1098.19 2.73213 1.3262 0
M  V30 11545 H 1095.78 1.37142 0.592653 0
M  V30 11546 H 1097.66 2.04941 3.68208 0
M  V30 11547 H 1096.34 1.02099 3.07177 0
M  V30 11548 H 1095.24 3.1129 2.07483 0
M  V30 11549 H 1096.58 4.08466 2.7462 0
M  V30 11550 N 1098.23 -0.663929 1.42933 0
M  V30 11551 C 1099.48 -1.42111 1.43697 0
M  V30 11552 C 1099.8 -1.94913 0.0583858 0
M  V30 11553 O 1099.07 -1.73757 -0.904719 0
M  V30 11554 H 1097.65 -0.527391 0.529026 0
M  V30 11555 H 1100.31 -0.783766 1.78446 0
M  V30 11556 H 1099.41 -2.26877 2.1432 0
M  V30 11557 N 1099.71 -1.29285 -0.901281 0
M  V30 11558 C 1100.98 -1.07847 -1.63182 0
M  V30 11559 C 1101.36 0.377927 -2.07689 0
M  V30 11560 O 1100.71 1.36642 -1.83143 0
M  V30 11561 C 1100.92 -2.06457 -2.81383 0
M  V30 11562 C 1102.27 -2.37289 -3.52107 0
M  V30 11563 O 1103.29 -2.0464 -2.91549 0
M  V30 11564 O 1102.15 -2.93067 -4.61274 0
M  V30 11565 H 1099.25 -0.413073 -0.71645 0
M  V30 11566 H 1101.79 -1.40651 -0.949488 0
M  V30 11567 H 1100.56 -3.04561 -2.4568 0
M  V30 11568 H 1100.19 -1.74374 -3.57323 0
M  V30 11569 N 1101.18 1.11143 -1.11736 0
M  V30 11570 C 1102.41 1.87285 -0.891007 0
M  V30 11571 C 1102.83 1.79758 0.553971 0
M  V30 11572 O 1102.19 1.16221 1.39149 0
M  V30 11573 C 1102.24 3.33924 -1.36114 0
M  V30 11574 O 1101.34 4.08917 -0.534851 0
M  V30 11575 H 1100.69 0.581418 -0.320701 0
M  V30 11576 H 1103.22 1.40469 -1.4876 0
M  V30 11577 H 1103.23 3.84772 -1.35701 0
M  V30 11578 H 1101.9 3.38719 -2.41334 0
M  V30 11579 H 1100.48 3.67954 -0.605355 0
M  V30 11580 N 1102.66 0.908147 1.28804 0
M  V30 11581 C 1103.61 0.363504 2.25084 0
M  V30 11582 C 1104.6 -0.52121 1.52224 0
M  V30 11583 O 1105.79 -0.361848 1.73262 0
M  V30 11584 C 1102.92 -0.400353 3.40958 0
M  V30 11585 C 1102 0.499761 4.21145 0
M  V30 11586 N 1102.39 1.61082 4.79464 0
M  V30 11587 C 1100.69 0.299108 4.44996 0
M  V30 11588 C 1101.39 2.16906 5.39747 0
M  V30 11589 N 1100.37 1.46103 5.23598 0
M  V30 11590 H 1104.17 1.21212 2.6774 0
M  V30 11591 H 1101.69 0.760159 1.43511 0
M  V30 11592 H 1103.68 -0.807343 4.09008 0
M  V30 11593 H 1102.34 -1.24613 2.99836 0
M  V30 11594 H 1103.35 1.99347 4.77997 0
M  V30 11595 H 1100.03 -0.507611 4.14403 0
M  V30 11596 H 1101.42 3.10338 5.95936 0
M  V30 11597 N 1104.14 -1.42577 0.671525 0
M  V30 11598 C 1105.42 -1.95222 0.121529 0
M  V30 11599 C 1105.8 -1.61209 -1.36289 0
M  V30 11600 O 1105.15 -0.906561 -2.09747 0
M  V30 11601 C 1105.36 -3.46846 0.387189 0
M  V30 11602 C 1106.7 -4.23525 0.301938 0
M  V30 11603 O 1107.73 -3.54753 0.320755 0
M  V30 11604 O 1106.59 -5.45967 0.241317 0
M  V30 11605 H 1103.68 -0.826999 0.000968615 0
M  V30 11606 H 1106.23 -1.52422 0.746029 0
M  V30 11607 H 1105 -3.64795 1.41563 0
M  V30 11608 H 1104.62 -3.96686 -0.26948 0
M  V30 11609 N 1105.62 -0.414636 -1.52048 0
M  V30 11610 C 1106.85 0.158686 -2.06291 0
M  V30 11611 C 1107.26 1.38397 -1.2842 0
M  V30 11612 O 1106.62 1.79351 -0.337539 0
M  V30 11613 C 1106.67 0.503634 -3.57975 0
M  V30 11614 O 1106.39 -0.672996 -4.329 0
M  V30 11615 C 1107.89 1.13009 -4.28653 0
M  V30 11616 H 1105.11 0.0179622 -0.67076 0
M  V30 11617 H 1107.66 -0.587177 -1.95889 0
M  V30 11618 H 1105.81 1.19939 -3.68366 0
M  V30 11619 H 1106.22 -0.383735 -5.23094 0
M  V30 11620 H 1107.7 1.32162 -5.35945 0
M  V30 11621 H 1108.18 2.10476 -3.85482 0
M  V30 11622 H 1108.78 0.474379 -4.22646 0
M  V30 11623 N 1107.1 1.56929 -0.145233 0
M  V30 11624 C 1108.34 1.96358 0.50707 0
M  V30 11625 C 1108.68 1.03005 1.64632 0
M  V30 11626 O 1107.95 0.0721045 1.94366 0
M  V30 11627 C 1108.23 3.45502 1.01492 0
M  V30 11628 C 1108.09 4.49633 -0.122708 0
M  V30 11629 C 1109.41 3.97103 1.89729 0
M  V30 11630 H 1106.52 0.713958 0.182848 0
M  V30 11631 H 1109.17 1.8865 -0.226102 0
M  V30 11632 H 1107.32 3.52202 1.6397 0
M  V30 11633 H 1108.99 4.55013 -0.758988 0
M  V30 11634 H 1107.23 4.26691 -0.782109 0
M  V30 11635 H 1107.9 5.51318 0.27432 0
M  V30 11636 H 1110.38 3.92871 1.37082 0
M  V30 11637 H 1109.25 5.01927 2.22173 0
M  V30 11638 H 1109.52 3.39354 2.83357 0
M  V30 11639 N 1108.58 -0.128553 1.57075 0
M  V30 11640 C 1109.51 -1.15953 2.02675 0
M  V30 11641 C 1110.49 -1.43743 0.909501 0
M  V30 11642 O 1111.67 -1.54348 1.17857 0
M  V30 11643 C 1108.8 -2.48813 2.423 0
M  V30 11644 C 1107.76 -2.35506 3.57381 0
M  V30 11645 C 1107.08 -3.73243 3.82875 0
M  V30 11646 C 1108.38 -1.82359 4.89431 0
M  V30 11647 H 1110.08 -0.780283 2.89054 0
M  V30 11648 H 1107.62 -0.373896 1.39061 0
M  V30 11649 H 1109.57 -3.21179 2.72804 0
M  V30 11650 H 1108.3 -2.88609 1.52881 0
M  V30 11651 H 1106.96 -1.6559 3.27071 0
M  V30 11652 H 1106.61 -4.10507 2.90677 0
M  V30 11653 H 1106.31 -3.65195 4.60333 0
M  V30 11654 H 1107.83 -4.47128 4.15823 0
M  V30 11655 H 1109.24 -2.44533 5.18533 0
M  V30 11656 H 1107.64 -1.85156 5.70822 0
M  V30 11657 H 1108.71 -0.780478 4.78578 0
M  V30 11658 N 1110.05 -1.5248 -0.398459 0
M  V30 11659 C 1111.28 -1.70925 -1.16586 0
M  V30 11660 C 1111.7 -0.42342 -1.83991 0
M  V30 11661 O 1111.05 0.601395 -1.72306 0
M  V30 11662 C 1111.1 -2.85226 -2.22099 0
M  V30 11663 O 1110.83 -4.08831 -1.57444 0
M  V30 11664 C 1112.33 -3.15272 -3.11639 0
M  V30 11665 H 1109.55 -0.572533 -0.349924 0
M  V30 11666 H 1112.09 -1.99087 -0.467416 0
M  V30 11667 H 1110.25 -2.59553 -2.87595 0
M  V30 11668 H 1110.66 -4.72603 -2.2748 0
M  V30 11669 H 1112.13 -3.98737 -3.81724 0
M  V30 11670 H 1112.61 -2.29262 -3.74614 0
M  V30 11671 H 1113.22 -3.42749 -2.518 0
M  V30 11672 N 1111.53 0.65634 -1.43283 0
M  V30 11673 C 1112.76 1.44906 -1.48382 0
M  V30 11674 C 1113.18 1.87823 -0.101993 0
M  V30 11675 O 1112.54 1.57178 0.903597 0
M  V30 11676 C 1112.59 2.66231 -2.43215 0
M  V30 11677 O 1111.69 3.65176 -1.91625 0
M  V30 11678 H 1111.03 0.434601 -0.502014 0
M  V30 11679 H 1113.56 0.803429 -1.88165 0
M  V30 11680 H 1113.57 3.14083 -2.60414 0
M  V30 11681 H 1112.25 2.34336 -3.43598 0
M  V30 11682 H 1110.82 3.24302 -1.84072 0
M  V30 11683 N 1113.01 1.29761 0.894412 0
M  V30 11684 C 1113.92 1.1724 2.03204 0
M  V30 11685 C 1114.94 0.0944452 1.73743 0
M  V30 11686 O 1116.11 0.307549 1.99038 0
M  V30 11687 C 1113.18 0.855416 3.35981 0
M  V30 11688 C 1112.24 2.01777 3.78926 0
M  V30 11689 C 1111.47 1.71581 5.05367 0
M  V30 11690 O 1111.69 0.639245 5.66807 0
M  V30 11691 O 1110.63 2.56539 5.44492 0
M  V30 11692 H 1114.45 2.12787 2.16692 0
M  V30 11693 H 1112.04 1.09264 1.0189 0
M  V30 11694 H 1113.92 0.693429 4.15656 0
M  V30 11695 H 1112.6 -0.0702195 3.23624 0
M  V30 11696 H 1111.5 2.23502 2.99996 0
M  V30 11697 H 1112.84 2.92479 3.95875 0
M  V30 11698 N 1114.49 -1.10549 1.12324 0
M  V30 11699 C 1115.4 -2.20428 0.803032 0
M  V30 11700 C 1116.41 -1.72756 -0.207674 0
M  V30 11701 O 1117.59 -2.01357 -0.0415623 0
M  V30 11702 C 1114.65 -3.45716 0.261032 0
M  V30 11703 C 1113.72 -4.08129 1.33152 0
M  V30 11704 C 1112.95 -5.27436 0.815288 0
M  V30 11705 O 1113.17 -5.69317 -0.351361 0
M  V30 11706 O 1112.11 -5.80674 1.58434 0
M  V30 11707 H 1115.93 -2.50249 1.72073 0
M  V30 11708 H 1113.52 -1.19263 0.899815 0
M  V30 11709 H 1115.4 -4.21384 -0.0364007 0
M  V30 11710 H 1114.07 -3.17525 -0.629249 0
M  V30 11711 H 1112.98 -3.3415 1.6821 0
M  V30 11712 H 1114.31 -4.4052 2.19552 0
M  V30 11713 N 1115.97 -0.914965 -1.28321 0
M  V30 11714 C 1117.21 -0.549562 -1.95212 0
M  V30 11715 C 1117.54 0.904658 -1.71842 0
M  V30 11716 O 1116.82 1.64354 -1.04009 0
M  V30 11717 C 1117.1 -0.860927 -3.49657 0
M  V30 11718 C 1116.96 -2.36797 -3.82423 0
M  V30 11719 C 1118.27 -0.357926 -4.38642 0
M  V30 11720 H 1115.39 -0.201136 -0.709023 0
M  V30 11721 H 1118.04 -1.14443 -1.51667 0
M  V30 11722 H 1116.19 -0.354665 -3.86878 0
M  V30 11723 H 1117.86 -2.94494 -3.55065 0
M  V30 11724 H 1116.1 -2.82245 -3.29424 0
M  V30 11725 H 1116.77 -2.53637 -4.90278 0
M  V30 11726 H 1119.25 -0.791636 -4.085 0
M  V30 11727 H 1118.12 -0.604855 -5.45557 0
M  V30 11728 H 1118.38 0.741775 -4.35833 0
M  V30 11729 N 1117.44 1.42219 -0.679077 0
M  V30 11730 C 1118.69 2.01777 -0.20342 0
M  V30 11731 C 1119.02 1.53592 1.18841 0
M  V30 11732 O 1118.3 0.739954 1.79875 0
M  V30 11733 C 1118.58 3.59281 -0.242791 0
M  V30 11734 C 1118.43 4.17634 -1.67038 0
M  V30 11735 C 1119.75 4.38218 0.406624 0
M  V30 11736 H 1116.87 0.733134 -0.0753916 0
M  V30 11737 H 1119.51 1.69185 -0.864673 0
M  V30 11738 H 1117.66 3.87178 0.320248 0
M  V30 11739 H 1119.34 4.00674 -2.286 0
M  V30 11740 H 1117.58 3.73301 -2.20973 0
M  V30 11741 H 1118.25 5.26776 -1.64958 0
M  V30 11742 H 1120.73 4.16036 -0.0727077 0
M  V30 11743 H 1119.6 5.47793 0.348457 0
M  V30 11744 H 1119.86 4.16418 1.48487 0
M  V30 11745 N 1118.92 0.422693 1.51826 0
M  V30 11746 C 1119.85 -0.386913 2.30272 0
M  V30 11747 C 1120.83 -1.03411 1.35056 0
M  V30 11748 O 1122.02 -1.04055 1.6397 0
M  V30 11749 C 1119.15 -1.49645 3.13407 0
M  V30 11750 C 1118.1 -0.973532 4.16781 0
M  V30 11751 C 1117.43 -2.1777 4.88344 0
M  V30 11752 C 1118.73 -0.0181194 5.22297 0
M  V30 11753 H 1120.42 0.267697 2.98201 0
M  V30 11754 H 1117.97 0.130186 1.4341 0
M  V30 11755 H 1119.92 -2.06993 3.67059 0
M  V30 11756 H 1118.64 -2.17914 2.43272 0
M  V30 11757 H 1117.3 -0.42237 3.64159 0
M  V30 11758 H 1116.95 -2.84625 4.14726 0
M  V30 11759 H 1116.65 -1.83427 5.58237 0
M  V30 11760 H 1118.18 -2.75699 5.44814 0
M  V30 11761 H 1119.59 -0.500822 5.71108 0
M  V30 11762 H 1117.99 0.237163 5.99631 0
M  V30 11763 H 1119.06 0.923065 4.76033 0
M  V30 11764 N 1120.4 -1.5685 0.153553 0
M  V30 11765 C 1121.35 -2.1709 -0.783626 0
M  V30 11766 C 1122.32 -1.10567 -1.23952 0
M  V30 11767 O 1123.5 -1.38638 -1.31088 0
M  V30 11768 C 1120.64 -2.80183 -2.01473 0
M  V30 11769 C 1119.75 -4.01117 -1.60403 0
M  V30 11770 C 1118.89 -4.5219 -2.78743 0
M  V30 11771 C 1117.93 -5.65574 -2.34079 0
M  V30 11772 N 1117.07 -6.11235 -3.4545 0
M  V30 11773 H 1121.91 -2.96836 -0.263127 0
M  V30 11774 H 1119.44 -1.46625 -0.11816 0
M  V30 11775 H 1121.4 -3.14912 -2.73654 0
M  V30 11776 H 1120.03 -2.03071 -2.50923 0
M  V30 11777 H 1119.08 -3.72325 -0.779631 0
M  V30 11778 H 1120.39 -4.83243 -1.23605 0
M  V30 11779 H 1119.55 -4.89008 -3.59105 0
M  V30 11780 H 1118.29 -3.69085 -3.18791 0
M  V30 11781 H 1117.29 -5.28326 -1.52158 0
M  V30 11782 H 1118.52 -6.50468 -1.95109 0
M  V30 11783 H 1116.46 -5.31064 -3.85106 0
M  V30 11784 H 1116.38 -6.88304 -3.12687 0
M  V30 11785 H 1117.65 -6.527 -4.26149 0
M  V30 11786 N 1121.88 0.120221 -1.57141 0
M  V30 11787 C 1122.83 1.16654 -2.01233 0
M  V30 11788 C 1123.82 1.42943 -0.909053 0
M  V30 11789 O 1125.03 1.4292 -1.09426 0
M  V30 11790 H 1121.4 0.393289 -0.640958 0
M  V30 11791 H 1123.37 0.768156 -2.88343 0
M  V30 11792 C 1122.12 2.4854 -2.43152 0
M  V30 11793 H 1121.44 2.29149 -3.27614 0
M  V30 11794 H 1122.88 3.20315 -2.77802 0
M  V30 11795 C 1121.34 3.1103 -1.29468 0
M  V30 11796 O 1121.87 3.97042 -0.609982 0
M  V30 11797 N 1120.08 2.70888 -1.05205 0
M  V30 11798 H 1119.63 2.01039 -1.61062 0
M  V30 11799 H 1119.58 3.13028 -0.293347 0
M  V30 11800 N 1123.36 1.52689 0.390367 0
M  V30 11801 C 1124.6 1.67335 1.13329 0
M  V30 11802 C 1124.93 0.415068 1.90531 0
M  V30 11803 O 1124.2 -0.570504 1.87409 0
M  V30 11804 H 1122.78 0.616821 0.421356 0
M  V30 11805 H 1125.44 1.89799 0.443 0
M  V30 11806 H 1124.53 2.52314 1.83696 0
M  V30 11807 N 1124.83 -0.648732 1.43629 0
M  V30 11808 C 1125.74 -1.79046 1.51591 0
M  V30 11809 C 1126.76 -1.69276 0.402697 0
M  V30 11810 O 1127.94 -1.90366 0.657484 0
M  V30 11811 C 1125 -3.15347 1.44073 0
M  V30 11812 C 1124.06 -3.3688 2.66102 0
M  V30 11813 C 1123.3 -4.66679 2.58933 0
M  V30 11814 O 1123.52 -5.46328 1.63956 0
M  V30 11815 O 1122.45 -4.9003 3.49506 0
M  V30 11816 H 1126.28 -1.75283 2.48011 0
M  V30 11817 H 1123.86 -0.807774 1.2568 0
M  V30 11818 H 1125.75 -3.96633 1.42339 0
M  V30 11819 H 1124.42 -3.19691 0.50789 0
M  V30 11820 H 1123.33 -2.55341 2.73407 0
M  V30 11821 H 1124.66 -3.37386 3.58373 0
M  V30 11822 N 1126.31 -1.30234 -0.887518 0
M  V30 11823 C 1127.24 -1.18969 -2.00919 0
M  V30 11824 C 1128.22 -0.080952 -1.69907 0
M  V30 11825 O 1129.41 -0.262546 -1.92417 0
M  V30 11826 C 1126.54 -0.878094 -3.36016 0
M  V30 11827 C 1125.49 -1.94449 -3.81279 0
M  V30 11828 C 1124.82 -1.48594 -5.13638 0
M  V30 11829 C 1126.12 -3.35519 -4.00281 0
M  V30 11830 H 1127.81 -2.12808 -2.10602 0
M  V30 11831 H 1125.36 -1.02454 -1.01189 0
M  V30 11832 H 1127.31 -0.785954 -4.14006 0
M  V30 11833 H 1126.04 0.0959779 -3.26459 0
M  V30 11834 H 1124.69 -2.02622 -3.05516 0
M  V30 11835 H 1124.34 -0.500204 -5.00507 0
M  V30 11836 H 1124.04 -2.19921 -5.44893 0
M  V30 11837 H 1125.57 -1.40754 -5.94156 0
M  V30 11838 H 1126.98 -3.30119 -4.68716 0
M  V30 11839 H 1125.38 -4.0491 -4.42909 0
M  V30 11840 H 1126.45 -3.77597 -3.04218 0
M  V30 11841 N 1127.79 1.09952 -1.12909 0
M  V30 11842 C 1128.7 2.19999 -0.81471 0
M  V30 11843 C 1129.72 1.72864 0.19851 0
M  V30 11844 O 1130.89 2.01376 0.0308832 0
M  V30 11845 C 1127.96 3.45573 -0.279363 0
M  V30 11846 C 1127.02 4.07417 -1.35314 0
M  V30 11847 C 1126.25 5.26996 -0.843247 0
M  V30 11848 O 1126.47 5.69495 0.321164 0
M  V30 11849 O 1125.41 5.79826 -1.61511 0
M  V30 11850 H 1129.23 2.49333 -1.73398 0
M  V30 11851 H 1126.82 1.18784 -0.906128 0
M  V30 11852 H 1128.7 4.21398 0.0140531 0
M  V30 11853 H 1127.38 3.17854 0.612401 0
M  V30 11854 H 1126.28 3.33253 -1.6998 0
M  V30 11855 H 1127.62 4.39349 -2.21885 0
M  V30 11856 N 1129.27 0.921757 1.27833 0
M  V30 11857 C 1130.23 0.420978 2.25301 0
M  V30 11858 C 1131.23 -0.457158 1.54165 0
M  V30 11859 O 1132.42 -0.259079 1.72263 0
M  V30 11860 C 1129.55 -0.395501 3.38598 0
M  V30 11861 H 1130.75 1.28206 2.71115 0
M  V30 11862 H 1128.3 0.701893 1.39654 0
M  V30 11863 H 1129.03 -1.27565 2.98157 0
M  V30 11864 H 1128.82 0.234029 3.91401 0
M  V30 11865 H 1130.31 -0.736444 4.11055 0
M  V30 11866 N 1130.75 -1.41857 0.686609 0
M  V30 11867 C 1131.68 -2.33481 0.0298353 0
M  V30 11868 C 1132.66 -1.51329 -0.776756 0
M  V30 11869 O 1133.84 -1.79895 -0.731535 0
M  V30 11870 C 1130.97 -3.35065 -0.913707 0
M  V30 11871 C 1129.93 -4.2746 -0.214861 0
M  V30 11872 C 1129.25 -5.19346 -1.27215 0
M  V30 11873 C 1130.55 -5.14252 0.913367 0
M  V30 11874 H 1132.25 -2.8865 0.795067 0
M  V30 11875 H 1129.79 -1.38792 0.383785 0
M  V30 11876 H 1131.75 -3.98082 -1.38234 0
M  V30 11877 H 1130.47 -2.78226 -1.7105 0
M  V30 11878 H 1129.13 -3.65855 0.233651 0
M  V30 11879 H 1128.78 -4.58827 -2.06124 0
M  V30 11880 H 1128.48 -5.81996 -0.80961 0
M  V30 11881 H 1130 -5.85239 -1.74147 0
M  V30 11882 H 1131.41 -5.70887 0.525424 0
M  V30 11883 H 1129.81 -5.85796 1.30244 0
M  V30 11884 H 1130.88 -4.51949 1.75699 0
M  V30 11885 N 1132.22 -0.430739 -1.51599 0
M  V30 11886 C 1133.13 0.390347 -2.3133 0
M  V30 11887 C 1134.15 1.03376 -1.39962 0
M  V30 11888 O 1135.33 1.03057 -1.73035 0
M  V30 11889 C 1132.39 1.48039 -3.13505 0
M  V30 11890 C 1131.45 0.857792 -4.20643 0
M  V30 11891 C 1130.69 1.89589 -4.9889 0
M  V30 11892 O 1130.91 3.11717 -4.77691 0
M  V30 11893 O 1129.84 1.49009 -5.83164 0
M  V30 11894 H 1133.67 -0.260358 -3.02582 0
M  V30 11895 H 1131.25 -0.193428 -1.48143 0
M  V30 11896 H 1133.14 2.11272 -3.64612 0
M  V30 11897 H 1131.81 2.1153 -2.45024 0
M  V30 11898 H 1130.72 0.187592 -3.73629 0
M  V30 11899 H 1132.05 0.266474 -4.91478 0
M  V30 11900 N 1133.7 1.56767 -0.161869 0
M  V30 11901 C 1134.93 2.00964 0.492027 0
M  V30 11902 C 1135.35 1.04206 1.57437 0
M  V30 11903 O 1134.7 0.0413998 1.82453 0
M  V30 11904 C 1134.75 3.4502 1.07904 0
M  V30 11905 O 1134.47 4.38082 0.0399085 0
M  V30 11906 C 1135.98 4.04572 1.81209 0
M  V30 11907 H 1133.2 0.658911 0.126797 0
M  V30 11908 H 1135.74 2.0283 -0.260824 0
M  V30 11909 H 1133.89 3.43959 1.78243 0
M  V30 11910 H 1134.31 5.22372 0.471985 0
M  V30 11911 H 1135.78 5.07321 2.17554 0
M  V30 11912 H 1136.26 3.46126 2.70359 0
M  V30 11913 H 1136.87 4.09307 1.15534 0
M  V30 11914 N 1135.18 -0.111886 1.57202 0
M  V30 11915 C 1136.59 -0.668261 1.74331 0
M  V30 11916 C 1136.94 -1.79959 0.781609 0
M  V30 11917 O 1136.07 -2.16356 -0.043833 0
M  V30 11918 C 1136.66 -1.219 3.1611 0
M  V30 11919 C 1135.22 -1.7216 3.34721 0
M  V30 11920 C 1134.37 -0.624223 2.70183 0
M  V30 11921 H 1137.32 0.114081 1.58289 0
M  V30 11922 H 1137.34 -2.08858 3.18054 0
M  V30 11923 H 1136.85 -0.395381 3.86081 0
M  V30 11924 H 1134.95 -2.56976 2.69803 0
M  V30 11925 H 1135.07 -1.82615 4.42932 0
M  V30 11926 H 1133.43 -1.05958 2.31614 0
M  V30 11927 H 1134.21 0.188537 3.42782 0
M  V30 11928 N 1136.66 -1.52894 -0.382264 0
M  V30 11929 C 1137.9 -1.68515 -1.12829 0
M  V30 11930 C 1138.24 -0.427211 -1.89443 0
M  V30 11931 O 1137.51 0.57516 -1.85801 0
M  V30 11932 C 1137.8 -2.92449 -2.10108 0
M  V30 11933 C 1137.65 -4.2836 -1.37214 0
M  V30 11934 C 1138.97 -3.11944 -3.1045 0
M  V30 11935 H 1136.09 -0.613223 -0.408811 0
M  V30 11936 H 1138.73 -1.85503 -0.410921 0
M  V30 11937 H 1136.88 -2.78097 -2.71283 0
M  V30 11938 H 1138.55 -4.54493 -0.789516 0
M  V30 11939 H 1136.79 -4.28532 -0.673973 0
M  V30 11940 H 1137.46 -5.11178 -2.0833 0
M  V30 11941 H 1139.94 -3.25372 -2.59369 0
M  V30 11942 H 1138.82 -4.00125 -3.75754 0
M  V30 11943 H 1139.08 -2.26465 -3.79692 0
M  V30 11944 N 1138.14 0.641106 -1.43971 0
M  V30 11945 C 1139.41 1.39897 -1.36704 0
M  V30 11946 C 1139.79 2.1109 -0.0208051 0
M  V30 11947 O 1139.14 2.05638 0.99625 0
M  V30 11948 C 1139.35 2.37366 -2.55849 0
M  V30 11949 C 1140.7 3.01 -2.99473 0
M  V30 11950 O 1141.72 2.47692 -2.55982 0
M  V30 11951 O 1140.58 3.9768 -3.74851 0
M  V30 11952 H 1137.68 0.625623 -0.540855 0
M  V30 11953 H 1140.22 0.666997 -1.56042 0
M  V30 11954 H 1139 1.8379 -3.45452 0
M  V30 11955 H 1138.62 3.17995 -2.38673 0
M  V30 11956 N 1139.62 1.30703 0.880598 0
M  V30 11957 C 1140.84 1.22843 1.67106 0
M  V30 11958 C 1141.27 -0.204788 1.86982 0
M  V30 11959 O 1140.62 -1.14716 1.40392 0
M  V30 11960 C 1140.67 1.96685 3.02237 0
M  V30 11961 O 1139.78 1.29693 3.91476 0
M  V30 11962 H 1139.12 0.424661 0.51045 0
M  V30 11963 H 1141.65 1.72596 1.09871 0
M  V30 11964 H 1141.66 2.05874 3.52249 0
M  V30 11965 H 1140.33 3.00919 2.8709 0
M  V30 11966 H 1138.91 1.28886 3.49918 0
M  V30 11967 N 1141.09 -1.09351 1.1349 0
M  V30 11968 C 1142.34 -1.81543 0.897123 0
M  V30 11969 C 1142.67 -1.85754 -0.576703 0
M  V30 11970 O 1141.92 -1.32213 -1.44285 0
M  V30 11971 C 1142.22 -3.27498 1.43108 0
M  V30 11972 C 1141.89 -3.4342 2.92188 0
M  V30 11973 C 1140.55 -3.47473 3.32891 0
M  V30 11974 C 1142.9 -3.47894 3.88097 0
M  V30 11975 C 1140.23 -3.5358 4.68186 0
M  V30 11976 C 1142.58 -3.55535 5.23238 0
M  V30 11977 C 1141.25 -3.57857 5.63467 0
M  V30 11978 H 1140.52 -0.664314 0.32828 0
M  V30 11979 H 1143.16 -1.28819 1.41697 0
M  V30 11980 H 1141.47 -3.82865 0.831946 0
M  V30 11981 H 1143.17 -3.8189 1.22316 0
M  V30 11982 H 1139.76 -3.4095 2.59713 0
M  V30 11983 H 1143.94 -3.44002 3.57737 0
M  V30 11984 H 1139.2 -3.53665 4.9873 0
M  V30 11985 H 1143.37 -3.57942 5.9737 0
M  V30 11986 H 1141 -3.62341 6.68291 0
M  V30 11987 N 1142.57 -0.928524 -1.27343 0
M  V30 11988 C 1143.8 -0.585734 -1.98436 0
M  V30 11989 C 1144.21 0.83644 -1.69261 0
M  V30 11990 O 1143.57 1.55603 -0.953626 0
M  V30 11991 C 1143.62 -0.803092 -3.52467 0
M  V30 11992 O 1143.34 -2.16932 -3.80621 0
M  V30 11993 C 1144.84 -0.469127 -4.40811 0
M  V30 11994 H 1142.06 -0.221887 -0.633251 0
M  V30 11995 H 1144.61 -1.24577 -1.62175 0
M  V30 11996 H 1142.76 -0.189846 -3.86935 0
M  V30 11997 H 1143.18 -2.21992 -4.75205 0
M  V30 11998 H 1144.65 -0.671906 -5.47895 0
M  V30 11999 H 1145.13 0.595365 -4.35146 0
M  V30 12000 H 1145.73 -1.06055 -4.11865 0
M  V30 12001 N 1144.05 1.41491 -0.694123 0
M  V30 12002 C 1145 2.32594 -0.0164704 0
M  V30 12003 C 1145.99 1.50884 0.770086 0
M  V30 12004 O 1147.2 1.66829 0.675871 0
M  V30 12005 H 1143.57 0.751879 0.0134743 0
M  V30 12006 H 1145.54 2.87423 -0.80191 0
M  V30 12007 C 1144.29 3.35661 0.90703 0
M  V30 12008 H 1143.62 3.98587 0.311205 0
M  V30 12009 H 1145.06 4.0195 1.34952 0
M  V30 12010 C 1143.51 2.69436 2.02253 0
M  V30 12011 O 1144.04 2.54107 3.11115 0
M  V30 12012 N 1142.25 2.28154 1.79984 0
M  V30 12013 H 1141.8 2.40821 0.914492 0
M  V30 12014 H 1141.76 1.84178 2.54805 0
M  V30 12015 N 1145.53 0.438773 1.51369 0
M  V30 12016 C 1146.78 -0.126962 2.01701 0
M  V30 12017 C 1147.1 -1.43086 1.32481 0
M  V30 12018 O 1146.37 -1.90427 0.459823 0
M  V30 12019 H 1144.95 -0.0499092 0.745331 0
M  V30 12020 H 1147.61 0.581808 1.86013 0
M  V30 12021 H 1146.7 -0.301836 3.10637 0
M  V30 12022 N 1147.01 -1.56678 0.170181 0
M  V30 12023 C 1147.97 -2.16698 -0.746622 0
M  V30 12024 C 1148.97 -1.11475 -1.15888 0
M  V30 12025 O 1150.16 -1.36994 -1.07602 0
M  V30 12026 C 1147.29 -2.74892 -2.01612 0
M  V30 12027 H 1148.48 -2.99061 -0.224135 0
M  V30 12028 H 1146.04 -1.56098 -0.0793761 0
M  V30 12029 H 1146.77 -1.96259 -2.58172 0
M  V30 12030 H 1146.56 -3.51896 -1.72949 0
M  V30 12031 H 1148.05 -3.21058 -2.67042 0
M  V30 12032 N 1148.48 0.103547 -1.57259 0
M  V30 12033 C 1149.73 0.807231 -1.84842 0
M  V30 12034 C 1150.05 1.80308 -0.758181 0
M  V30 12035 O 1151.25 2.55406 -0.920877 0
M  V30 12036 C 1149.71 1.4864 -3.27771 0
M  V30 12037 C 1149.32 0.53075 -4.44845 0
M  V30 12038 C 1151.06 2.17431 -3.64587 0
M  V30 12039 C 1148.97 1.21403 -5.78805 0
M  V30 12040 H 1147.9 0.305212 -0.689465 0
M  V30 12041 H 1150.55 0.0600855 -1.83402 0
M  V30 12042 H 1148.93 2.28071 -3.23728 0
M  V30 12043 H 1150.1 -0.231455 -4.60218 0
M  V30 12044 H 1148.42 -0.0510078 -4.16369 0
M  V30 12045 H 1151.02 2.6927 -4.6195 0
M  V30 12046 H 1151.36 2.9594 -2.92789 0
M  V30 12047 H 1151.89 1.4487 -3.70483 0
M  V30 12048 H 1148.63 0.469918 -6.53813 0
M  V30 12049 H 1148.15 1.94787 -5.6729 0
M  V30 12050 H 1149.83 1.74289 -6.23083 0
M  V30 12051 N 1149.96 1.53094 0.37415 0
M  V30 12052 C 1151.21 1.69111 1.11934 0
M  V30 12053 C 1151.54 0.437252 1.89213 0
M  V30 12054 O 1150.82 -0.565298 1.86104 0
M  V30 12055 C 1151.1 2.93559 2.08554 0
M  V30 12056 C 1150.95 4.29082 1.3494 0
M  V30 12057 C 1152.27 3.13586 3.08791 0
M  V30 12058 H 1149.39 0.615383 0.405553 0
M  V30 12059 H 1152.03 1.85719 0.401078 0
M  V30 12060 H 1150.18 2.79531 2.69805 0
M  V30 12061 H 1151.85 4.54906 0.765402 0
M  V30 12062 H 1150.1 4.28884 0.651238 0
M  V30 12063 H 1150.77 5.12275 2.05616 0
M  V30 12064 H 1153.24 3.26743 2.57639 0
M  V30 12065 H 1152.12 4.02112 3.73627 0
M  V30 12066 H 1152.38 2.28475 3.78486 0
M  V30 12067 N 1151.44 -0.633461 1.44309 0
M  V30 12068 C 1152.69 -1.39031 1.46679 0
M  V30 12069 C 1153.01 -1.94745 0.0997165 0
M  V30 12070 O 1152.28 -1.75637 -0.867659 0
M  V30 12071 H 1150.86 -0.516051 0.540093 0
M  V30 12072 H 1153.52 -0.745739 1.80069 0
M  V30 12073 H 1152.62 -2.2228 2.19085 0
M  V30 12074 N 1152.92 -1.31168 -0.873655 0
M  V30 12075 C 1154.15 -1.23595 -1.65927 0
M  V30 12076 C 1154.56 0.199349 -1.87745 0
M  V30 12077 O 1153.92 1.13013 -1.43298 0
M  V30 12078 C 1153.97 -1.97268 -3.02932 0
M  V30 12079 O 1153.69 -3.35196 -2.82091 0
M  V30 12080 C 1155.19 -1.9649 -3.97374 0
M  V30 12081 H 1152.41 -0.427228 -0.517414 0
M  V30 12082 H 1154.96 -1.72983 -1.09074 0
M  V30 12083 H 1153.11 -1.51651 -3.56484 0
M  V30 12084 H 1153.52 -3.7266 -3.69087 0
M  V30 12085 H 1155 -2.52557 -4.90835 0
M  V30 12086 H 1155.48 -0.946525 -4.28879 0
M  V30 12087 H 1156.08 -2.4197 -3.49758 0
M  V30 12088 N 1154.4 1.08748 -1.14068 0
M  V30 12089 C 1155.81 1.62551 -0.918379 0
M  V30 12090 C 1156.16 1.8852 0.543583 0
M  V30 12091 O 1155.28 1.64007 1.41176 0
M  V30 12092 C 1155.88 2.95309 -1.66066 0
M  V30 12093 C 1154.44 3.4591 -1.48403 0
M  V30 12094 C 1153.58 2.20204 -1.6854 0
M  V30 12095 H 1156.54 0.920196 -1.29298 0
M  V30 12096 H 1156.56 3.63587 -1.12181 0
M  V30 12097 H 1156.07 2.76377 -2.72465 0
M  V30 12098 H 1154.17 3.69953 -0.443353 0
M  V30 12099 H 1154.28 4.2289 -2.25169 0
M  V30 12100 H 1152.65 2.29203 -1.11077 0
M  V30 12101 H 1153.43 2.03783 -2.76274 0
M  V30 12102 N 1155.87 0.935264 1.26849 0
M  V30 12103 C 1157.12 0.580548 1.94313 0
M  V30 12104 C 1157.45 -0.877205 1.73259 0
M  V30 12105 O 1156.73 -1.62679 1.06611 0
M  V30 12106 C 1157.01 0.916445 3.48243 0
M  V30 12107 C 1156.86 2.42851 3.78607 0
M  V30 12108 C 1158.18 0.427665 4.38017 0
M  V30 12109 H 1155.3 0.21239 0.705733 0
M  V30 12110 H 1157.94 1.16841 1.49827 0
M  V30 12111 H 1156.09 0.416169 3.86265 0
M  V30 12112 H 1157.77 3.00106 3.50335 0
M  V30 12113 H 1156.01 2.8745 3.24892 0
M  V30 12114 H 1156.68 2.61405 4.8618 0
M  V30 12115 H 1159.16 0.856525 4.07189 0
M  V30 12116 H 1158.03 0.691571 5.44526 0
M  V30 12117 H 1158.29 -0.672344 4.36958 0
M  V30 12118 N 1157.35 -1.41121 0.701616 0
M  V30 12119 C 1158.59 -2.02993 0.239383 0
M  V30 12120 C 1158.96 -1.5439 -1.1414 0
M  V30 12121 O 1160.16 -2.08229 -1.69982 0
M  V30 12122 C 1158.43 -3.56128 0.301232 0
M  V30 12123 S 1159.99 -4.38716 -0.0860681 0
M  V30 12124 H 1156.81 -0.704494 0.0959645 0
M  V30 12125 H 1159.41 -1.72461 0.920736 0
M  V30 12126 H 1158.11 -3.88996 1.30805 0
M  V30 12127 H 1157.64 -3.91371 -0.399069 0
M  V30 12128 H 1159.66 -4.78537 -1.31212 0
M  V30 12129 N 1158.83 -0.446794 -1.51134 0
M  V30 12130 C 1160.08 0.116666 -2.02464 0
M  V30 12131 C 1160.41 1.41532 -1.32975 0
M  V30 12132 O 1159.68 1.89278 -0.447651 0
M  V30 12133 C 1159.97 0.325659 -3.58624 0
M  V30 12134 C 1159.82 -0.992307 -4.38718 0
M  V30 12135 C 1161.14 1.09121 -4.26357 0
M  V30 12136 H 1158.26 0.0409262 -0.735863 0
M  V30 12137 H 1160.9 -0.587641 -1.80684 0
M  V30 12138 H 1159.05 0.925585 -3.77313 0
M  V30 12139 H 1160.72 -1.62694 -4.31658 0
M  V30 12140 H 1158.97 -1.5947 -4.03425 0
M  V30 12141 H 1159.64 -0.800005 -5.46172 0
M  V30 12142 H 1162.11 0.582944 -4.11996 0
M  V30 12143 H 1160.99 1.20621 -5.35483 0
M  V30 12144 H 1161.25 2.12171 -3.87861 0
M  V30 12145 N 1160.31 1.56586 -0.178487 0
M  V30 12146 C 1161.26 2.19631 0.765822 0
M  V30 12147 C 1162.25 1.16247 1.23219 0
M  V30 12148 O 1163.46 1.34431 1.19701 0
M  V30 12149 H 1159.83 0.703661 0.265264 0
M  V30 12150 H 1161.8 2.97659 0.210207 0
M  V30 12151 C 1160.55 2.85686 1.98188 0
M  V30 12152 H 1159.87 3.64971 1.63206 0
M  V30 12153 H 1161.31 3.33259 2.62134 0
M  V30 12154 C 1159.77 1.85837 2.81009 0
M  V30 12155 O 1160.3 1.3483 3.78396 0
M  V30 12156 N 1158.51 1.54435 2.46167 0
M  V30 12157 H 1158.06 1.96107 1.67032 0
M  V30 12158 H 1158.01 0.878808 3.01868 0
M  V30 12159 N 1161.79 -0.095206 1.57312 0
M  V30 12160 C 1163.03 -0.797142 1.85715 0
M  V30 12161 C 1163.36 -1.79275 0.767171 0
M  V30 12162 O 1162.63 -1.94808 -0.206584 0
M  V30 12163 H 1161.21 -0.297382 0.685254 0
M  V30 12164 H 1163.87 -0.0768617 1.94748 0
M  V30 12165 H 1162.96 -1.32779 2.82447 0
M  V30 12166 N 1163.26 -1.53291 -0.366026 0
M  V30 12167 C 1164.19 -1.82675 -1.45437 0
M  V30 12168 C 1165.18 -0.680227 -1.55907 0
M  V30 12169 O 1166.36 -0.930032 -1.70482 0
M  V30 12170 C 1163.49 -2.01626 -2.8278 0
M  V30 12171 C 1162.44 -3.17391 -2.87135 0
M  V30 12172 C 1161.77 -3.21634 -4.27148 0
M  V30 12173 C 1163.07 -4.5599 -2.54697 0
M  V30 12174 H 1164.76 -2.73818 -1.21096 0
M  V30 12175 H 1162.31 -1.31754 -0.581108 0
M  V30 12176 H 1164.26 -2.20765 -3.58944 0
M  V30 12177 H 1162.99 -1.07193 -3.08508 0
M  V30 12178 H 1161.65 -2.98071 -2.13422 0
M  V30 12179 H 1161.29 -2.2484 -4.49951 0
M  V30 12180 H 1160.99 -3.99414 -4.30978 0
M  V30 12181 H 1162.52 -3.42957 -5.05186 0
M  V30 12182 H 1163.93 -4.75294 -3.20575 0
M  V30 12183 H 1162.33 -5.36008 -2.69844 0
M  V30 12184 H 1163.4 -4.61133 -1.49949 0
M  V30 12185 N 1164.74 0.6258 -1.44643 0
M  V30 12186 C 1165.68 1.75056 -1.46392 0
M  V30 12187 C 1166.65 1.59376 -0.322179 0
M  V30 12188 O 1167.84 1.81187 -0.519956 0
M  V30 12189 C 1164.96 3.12689 -1.30166 0
M  V30 12190 C 1164.01 3.47005 -2.47972 0
M  V30 12191 S 1164.84 3.43885 -4.10491 0
M  V30 12192 C 1166 4.84129 -3.96698 0
M  V30 12193 H 1166.23 1.73306 -2.41562 0
M  V30 12194 H 1163.77 0.800879 -1.32005 0
M  V30 12195 H 1165.72 3.9211 -1.21492 0
M  V30 12196 H 1164.38 3.11972 -0.364982 0
M  V30 12197 H 1163.58 4.47171 -2.32496 0
M  V30 12198 H 1163.18 2.75059 -2.53414 0
M  V30 12199 H 1165.47 5.73488 -3.60718 0
M  V30 12200 H 1166.41 5.0466 -4.96713 0
M  V30 12201 H 1166.82 4.58954 -3.28666 0
M  V30 12202 N 1166.22 1.31629 0.866686 0
M  V30 12203 C 1167.15 1.22151 1.99001 0
M  V30 12204 C 1168.13 0.107972 1.69757 0
M  V30 12205 O 1169.32 0.293125 1.91975 0
M  V30 12206 C 1166.45 0.93144 3.34577 0
M  V30 12207 C 1165.4 2.0049 3.78137 0
M  V30 12208 C 1164.73 1.56747 5.11209 0
M  V30 12209 C 1166.03 3.41844 3.94892 0
M  V30 12210 H 1167.72 2.16132 2.0719 0
M  V30 12211 H 1165.27 1.04051 0.995463 0
M  V30 12212 H 1167.22 0.851719 4.12703 0
M  V30 12213 H 1165.94 -0.0440289 3.2657 0
M  V30 12214 H 1164.6 2.07457 3.02253 0
M  V30 12215 H 1164.25 0.579767 4.99648 0
M  V30 12216 H 1163.95 2.28562 5.41326 0
M  V30 12217 H 1165.47 1.50188 5.91841 0
M  V30 12218 H 1166.89 3.37534 4.63405 0
M  V30 12219 H 1165.29 4.11905 4.36411 0
M  V30 12220 H 1166.36 3.82389 2.98172 0
M  V30 12221 N 1167.7 -1.08142 1.14644 0
M  V30 12222 C 1168.63 -2.17139 0.858667 0
M  V30 12223 C 1169.61 -1.69064 -0.187452 0
M  V30 12224 O 1170.8 -1.94151 -0.0435458 0
M  V30 12225 C 1167.93 -3.45648 0.33834 0
M  V30 12226 C 1166.88 -4.07129 1.32021 0
M  V30 12227 C 1166.21 -5.30623 0.659075 0
M  V30 12228 C 1167.51 -4.48095 2.68343 0
M  V30 12229 H 1169.2 -2.41468 1.77012 0
M  V30 12230 H 1166.75 -1.16052 0.852523 0
M  V30 12231 H 1168.7 -4.21216 0.124611 0
M  V30 12232 H 1167.42 -3.2088 -0.608553 0
M  V30 12233 H 1166.08 -3.33596 1.52016 0
M  V30 12234 H 1165.73 -5.02142 -0.293711 0
M  V30 12235 H 1165.43 -5.72714 1.31427 0
M  V30 12236 H 1166.95 -6.08903 0.454933 0
M  V30 12237 H 1168.37 -5.14828 2.5224 0
M  V30 12238 H 1166.76 -5.01113 3.30161 0
M  V30 12239 H 1167.83 -3.59852 3.25015 0
M  V30 12240 N 1169.18 -0.941978 -1.26351 0
M  V30 12241 C 1170.09 -0.45833 -2.30079 0
M  V30 12242 C 1171.1 0.468084 -1.67586 0
M  V30 12243 O 1172.28 0.347418 -1.98381 0
M  V30 12244 C 1169.34 0.26797 -3.45663 0
M  V30 12245 C 1168.41 -0.695102 -4.23635 0
M  V30 12246 C 1167.64 -0.003369 -5.337 0
M  V30 12247 O 1167.86 1.21342 -5.57344 0
M  V30 12248 O 1166.8 -0.682476 -5.98018 0
M  V30 12249 H 1170.62 -1.31998 -2.73514 0
M  V30 12250 H 1168.21 -0.707897 -1.31564 0
M  V30 12251 H 1170.09 0.677061 -4.15925 0
M  V30 12252 H 1168.76 1.105 -3.04256 0
M  V30 12253 H 1167.67 -1.15415 -3.55851 0
M  V30 12254 H 1169 -1.49977 -4.68794 0
M  V30 12255 N 1170.66 1.40747 -0.709091 0
M  V30 12256 C 1171.9 2.00233 -0.242836 0
M  V30 12257 C 1172.22 1.56853 1.1686 0
M  V30 12258 O 1173.42 2.08993 1.73304 0
M  V30 12259 C 1171.88 3.57854 -0.383241 0
M  V30 12260 C 1171.49 4.10209 -1.80091 0
M  V30 12261 C 1173.23 4.24494 0.0225511 0
M  V30 12262 C 1171.14 5.60311 -1.89225 0
M  V30 12263 H 1170.07 0.74896 -0.087034 0
M  V30 12264 H 1172.72 1.61064 -0.879243 0
M  V30 12265 H 1171.1 3.94692 0.321642 0
M  V30 12266 H 1172.28 3.84762 -2.53564 0
M  V30 12267 H 1170.59 3.56142 -2.15758 0
M  V30 12268 H 1173.19 5.34694 -0.0250644 0
M  V30 12269 H 1173.53 4.02488 1.06344 0
M  V30 12270 H 1174.06 3.92739 -0.632541 0
M  V30 12271 H 1170.8 5.87162 -2.91412 0
M  V30 12272 H 1170.32 5.87642 -1.20154 0
M  V30 12273 H 1172 6.25306 -1.66136 0
M  V30 12274 N 1172.13 0.454803 1.50895 0
M  V30 12275 C 1173.08 -0.347769 2.28165 0
M  V30 12276 C 1174.05 -1.00158 1.32505 0
M  V30 12277 O 1175.24 -1.01715 1.61427 0
M  V30 12278 C 1172.38 -1.43315 3.13934 0
M  V30 12279 C 1171.49 -0.795736 4.24608 0
M  V30 12280 C 1170.62 -1.85763 4.9766 0
M  V30 12281 C 1169.66 -1.19959 6.0023 0
M  V30 12282 N 1168.8 -2.20361 6.66622 0
M  V30 12283 H 1173.64 0.317493 2.96304 0
M  V30 12284 H 1171.18 0.168418 1.46133 0
M  V30 12285 H 1173.13 -2.07391 3.62001 0
M  V30 12286 H 1171.76 -2.0678 2.47875 0
M  V30 12287 H 1170.82 -0.0428173 3.80376 0
M  V30 12288 H 1172.13 -0.275477 4.98039 0
M  V30 12289 H 1171.28 -2.5746 5.49363 0
M  V30 12290 H 1170.02 -2.41166 4.23899 0
M  V30 12291 H 1169.03 -0.46817 5.47803 0
M  V30 12292 H 1170.25 -0.652666 6.75956 0
M  V30 12293 H 1168.2 -2.74812 5.95663 0
M  V30 12294 H 1168.11 -1.73275 7.35875 0
M  V30 12295 H 1169.38 -2.91488 7.22949 0
M  V30 12296 N 1173.61 -1.56489 0.186789 0
M  V30 12297 C 1174.89 -1.89066 -0.501337 0
M  V30 12298 C 1175.27 -1.09906 -1.80233 0
M  V30 12299 O 1174.62 -0.197626 -2.27644 0
M  V30 12300 C 1174.83 -3.41318 -0.728207 0
M  V30 12301 C 1176.17 -4.11379 -1.0513 0
M  V30 12302 O 1177.2 -3.46722 -0.816216 0
M  V30 12303 O 1176.06 -5.25638 -1.49557 0
M  V30 12304 H 1173.15 -0.784966 -0.260303 0
M  V30 12305 H 1175.7 -1.68183 0.226382 0
M  V30 12306 H 1174.47 -3.90834 0.19088 0
M  V30 12307 H 1174.09 -3.67865 -1.50869 0
M  V30 12308 N 1175.09 0.086862 -1.5736 0
M  V30 12309 C 1176.04 1.10478 -2.02641 0
M  V30 12310 C 1177.01 1.39331 -0.904219 0
M  V30 12311 O 1178.19 1.50654 -1.17081 0
M  V30 12312 C 1175.33 2.41754 -2.4627 0
M  V30 12313 C 1174.44 2.19561 -3.72044 0
M  V30 12314 C 1173.58 3.44294 -4.04519 0
M  V30 12315 C 1172.62 3.17399 -5.23378 0
M  V30 12316 N 1171.76 4.3442 -5.51564 0
M  V30 12317 H 1176.6 0.711663 -2.89378 0
M  V30 12318 H 1174.13 0.339856 -1.4312 0
M  V30 12319 H 1176.09 3.18378 -2.69613 0
M  V30 12320 H 1174.72 2.78896 -1.62532 0
M  V30 12321 H 1173.77 1.337 -3.5613 0
M  V30 12322 H 1175.08 1.95685 -4.58812 0
M  V30 12323 H 1174.24 4.29321 -4.28682 0
M  V30 12324 H 1172.98 3.71232 -3.16289 0
M  V30 12325 H 1171.98 2.30765 -4.99026 0
M  V30 12326 H 1173.21 2.91799 -6.13213 0
M  V30 12327 H 1171.15 4.61418 -4.66293 0
M  V30 12328 H 1171.07 4.13764 -6.3272 0
M  V30 12329 H 1172.34 5.20489 -5.80269 0
M  V30 12330 N 1176.57 1.53483 0.357892 0
M  V30 12331 C 1177.48 1.83434 1.4625 0
M  V30 12332 C 1178.49 0.723313 1.58254 0
M  V30 12333 O 1179.67 1.01416 1.74002 0
M  V30 12334 C 1176.73 2.0249 2.81423 0
M  V30 12335 C 1175.8 3.26378 2.78883 0
M  V30 12336 C 1175.03 3.44516 4.07608 0
M  V30 12337 O 1175.25 2.66787 5.04163 0
M  V30 12338 O 1174.19 4.37898 4.12952 0
M  V30 12339 H 1178.01 2.77294 1.23861 0
M  V30 12340 H 1175.6 1.38958 0.548722 0
M  V30 12341 H 1177.48 2.16552 3.61501 0
M  V30 12342 H 1176.15 1.11819 3.03773 0
M  V30 12343 H 1175.06 3.17733 1.97475 0
M  V30 12344 H 1176.39 4.16996 2.61486 0
M  V30 12345 N 1178.05 -0.61812 1.44973 0
M  V30 12346 C 1178.98 -1.74299 1.48837 0
M  V30 12347 C 1179.99 -1.58296 0.38028 0
M  V30 12348 O 1181.18 -1.66371 0.646757 0
M  V30 12349 C 1178.28 -3.12179 1.31901 0
M  V30 12350 C 1177.45 -3.54519 2.56193 0
M  V30 12351 C 1176.51 -4.71324 2.33966 0
M  V30 12352 O 1175.54 -4.78975 3.07525 0
M  V30 12353 N 1176.74 -5.63894 1.37854 0
M  V30 12354 H 1179.5 -1.7145 2.45815 0
M  V30 12355 H 1177.07 -0.803087 1.40578 0
M  V30 12356 H 1179.06 -3.88059 1.14858 0
M  V30 12357 H 1177.63 -3.09595 0.43239 0
M  V30 12358 H 1176.85 -2.68711 2.88423 0
M  V30 12359 H 1178.14 -3.79563 3.38835 0
M  V30 12360 H 1177.53 -5.60418 0.771273 0
M  V30 12361 H 1176.09 -6.3935 1.26787 0
M  V30 12362 N 1179.52 -1.32087 -0.859693 0
M  V30 12363 C 1180.75 -1.25167 -1.64368 0
M  V30 12364 C 1181.16 0.183572 -1.88307 0
M  V30 12365 O 1180.5 1.12945 -1.44876 0
M  V30 12366 C 1180.57 -1.93641 -3.02892 0
M  V30 12367 C 1180.23 -3.4298 -3.02017 0
M  V30 12368 C 1181.23 -4.38551 -2.79229 0
M  V30 12369 C 1178.91 -3.84835 -3.22812 0
M  V30 12370 C 1180.91 -5.73952 -2.77232 0
M  V30 12371 C 1178.59 -5.20346 -3.20442 0
M  V30 12372 C 1179.59 -6.14716 -2.97681 0
M  V30 12373 O 1179.28 -7.47748 -2.95175 0
M  V30 12374 H 1179.01 -0.433327 -0.518848 0
M  V30 12375 H 1181.57 -1.7468 -1.08055 0
M  V30 12376 H 1179.8 -1.3869 -3.60974 0
M  V30 12377 H 1181.48 -1.80497 -3.63559 0
M  V30 12378 H 1182.25 -4.07542 -2.62935 0
M  V30 12379 H 1178.13 -3.11806 -3.39555 0
M  V30 12380 H 1181.67 -6.47584 -2.59385 0
M  V30 12381 H 1177.57 -5.50987 -3.36279 0
M  V30 12382 H 1178.34 -7.57046 -3.11165 0
M  V30 12383 N 1181 1.07532 -1.15215 0
M  V30 12384 C 1182.24 1.81689 -0.936396 0
M  V30 12385 C 1182.61 1.84622 0.527136 0
M  V30 12386 O 1183.81 2.54632 0.861159 0
M  V30 12387 C 1182.08 3.22919 -1.53161 0
M  V30 12388 S 1183.64 4.13845 -1.4587 0
M  V30 12389 H 1180.45 0.626036 -0.337045 0
M  V30 12390 H 1183.06 1.29191 -1.4673 0
M  V30 12391 H 1181.76 3.18372 -2.58974 0
M  V30 12392 H 1181.29 3.80492 -0.999482 0
M  V30 12393 H 1183.31 4.94152 -0.450317 0
M  V30 12394 N 1182.48 0.948665 1.2585 0
M  V30 12395 C 1183.44 0.468673 2.24357 0
M  V30 12396 C 1184.44 -0.424355 1.551 0
M  V30 12397 O 1185.63 -0.222481 1.72773 0
M  V30 12398 C 1182.77 -0.32359 3.39361 0
M  V30 12399 H 1183.96 1.33928 2.68334 0
M  V30 12400 H 1181.51 0.731357 1.38133 0
M  V30 12401 H 1182.25 -1.21212 3.00796 0
M  V30 12402 H 1182.03 0.316998 3.90816 0
M  V30 12403 H 1183.52 -0.649087 4.12525 0
M  V30 12404 N 1183.96 -1.40369 0.716545 0
M  V30 12405 C 1184.89 -2.33365 0.0793533 0
M  V30 12406 C 1185.87 -1.52943 -0.744482 0
M  V30 12407 O 1187.05 -1.81406 -0.693212 0
M  V30 12408 C 1184.18 -3.36928 -0.842429 0
M  V30 12409 C 1183.14 -4.2782 -0.124142 0
M  V30 12410 C 1182.46 -5.21928 -1.1617 0
M  V30 12411 C 1183.76 -5.12199 1.02224 0
M  V30 12412 H 1185.46 -2.86899 0.856115 0
M  V30 12413 H 1183 -1.37946 0.413138 0
M  V30 12414 H 1184.96 -4.00925 -1.29759 0
M  V30 12415 H 1183.68 -2.81791 -1.6511 0
M  V30 12416 H 1182.34 -3.65277 0.311201 0
M  V30 12417 H 1181.99 -4.63096 -1.96345 0
M  V30 12418 H 1181.69 -5.83582 -0.685978 0
M  V30 12419 H 1183.21 -5.88802 -1.61694 0
M  V30 12420 H 1184.63 -5.69644 0.646399 0
M  V30 12421 H 1183.02 -5.82901 1.4264 0
M  V30 12422 H 1184.09 -4.4812 1.85246 0
M  V30 12423 N 1185.44 -0.462799 -1.50652 0
M  V30 12424 C 1186.66 0.0952726 -2.07181 0
M  V30 12425 C 1187.09 1.33479 -1.32533 0
M  V30 12426 O 1186.44 1.77473 -0.370564 0
M  V30 12427 C 1186.49 0.370592 -3.58691 0
M  V30 12428 O 1185.6 1.4526 -3.85971 0
M  V30 12429 H 1184.94 -0.00932702 -0.663934 0
M  V30 12430 H 1187.47 -0.651458 -1.93951 0
M  V30 12431 H 1187.48 0.613551 -4.0336 0
M  V30 12432 H 1186.15 -0.535219 -4.12442 0
M  V30 12433 H 1184.73 1.1976 -3.53146 0
M  V30 12434 N 1186.91 1.56388 -0.195085 0
M  V30 12435 C 1188.33 1.8398 0.317513 0
M  V30 12436 C 1188.68 1.11575 1.61386 0
M  V30 12437 O 1187.8 0.376557 2.13099 0
M  V30 12438 C 1188.4 3.33749 0.582859 0
M  V30 12439 C 1186.96 3.61752 1.03983 0
M  V30 12440 C 1186.1 2.77159 0.088434 0
M  V30 12441 H 1189.05 1.53072 -0.418871 0
M  V30 12442 H 1189.07 3.52519 1.43216 0
M  V30 12443 H 1188.59 3.86419 -0.360813 0
M  V30 12444 H 1186.69 3.14515 1.99778 0
M  V30 12445 H 1186.8 4.69937 0.932549 0
M  V30 12446 H 1185.16 2.47765 0.590317 0
M  V30 12447 H 1185.95 3.32619 -0.849682 0
M  V30 12448 N 1188.39 -0.0785156 1.57404 0
M  V30 12449 C 1189.64 -0.777399 1.8655 0
M  V30 12450 C 1189.96 -1.78451 0.786142 0
M  V30 12451 O 1189.23 -1.95016 -0.185911 0
M  V30 12452 H 1187.81 -0.290097 0.688369 0
M  V30 12453 H 1190.47 -0.0562017 1.94819 0
M  V30 12454 H 1189.57 -1.29776 2.83839 0
M  V30 12455 N 1189.87 -1.5367 -0.349747 0
M  V30 12456 C 1190.8 -1.84208 -1.43492 0
M  V30 12457 C 1191.78 -0.696725 -1.55177 0
M  V30 12458 O 1192.97 -0.948061 -1.69486 0
M  V30 12459 C 1190.1 -2.04613 -2.80625 0
M  V30 12460 C 1189.05 -3.20419 -2.83753 0
M  V30 12461 C 1188.38 -3.26147 -4.23713 0
M  V30 12462 C 1189.68 -4.58666 -2.49846 0
M  V30 12463 H 1191.37 -2.75087 -1.18185 0
M  V30 12464 H 1188.92 -1.32363 -0.567101 0
M  V30 12465 H 1190.87 -2.2456 -3.56582 0
M  V30 12466 H 1189.59 -1.10459 -3.07354 0
M  V30 12467 H 1188.25 -3.00318 -2.10249 0
M  V30 12468 H 1187.9 -2.29599 -4.47541 0
M  V30 12469 H 1187.6 -4.03963 -4.26717 0
M  V30 12470 H 1189.12 -3.48296 -5.0152 0
M  V30 12471 H 1190.54 -4.78668 -3.15516 0
M  V30 12472 H 1188.94 -5.3884 -2.64144 0
M  V30 12473 H 1190.01 -4.62697 -1.4505 0
M  V30 12474 N 1191.35 0.610423 -1.45298 0
M  V30 12475 C 1192.28 1.73207 -1.56594 0
M  V30 12476 C 1193.26 1.64893 -0.417651 0
M  V30 12477 O 1194.44 1.83336 -0.64043 0
M  V30 12478 C 1191.57 3.11803 -1.52959 0
M  V30 12479 C 1190.53 3.34925 -2.66475 0
M  V30 12480 C 1189.85 4.73764 -2.47894 0
M  V30 12481 C 1191.15 3.25456 -4.08504 0
M  V30 12482 H 1192.85 1.6401 -2.50482 0
M  V30 12483 H 1190.39 0.787621 -1.20551 0
M  V30 12484 H 1192.35 3.90065 -1.59458 0
M  V30 12485 H 1191.07 3.21833 -0.55599 0
M  V30 12486 H 1189.73 2.59051 -2.59399 0
M  V30 12487 H 1189.38 4.80524 -1.4868 0
M  V30 12488 H 1189.08 4.90191 -3.24016 0
M  V30 12489 H 1190.6 5.54231 -2.56243 0
M  V30 12490 H 1192.02 3.93597 -4.16839 0
M  V30 12491 H 1190.41 3.53414 -4.84994 0
M  V30 12492 H 1191.48 2.22939 -4.30612 0
M  V30 12493 N 1192.83 1.32541 0.852676 0
M  V30 12494 C 1193.79 1.21578 1.94297 0
M  V30 12495 C 1194.79 0.138318 1.60204 0
M  V30 12496 O 1195.98 0.388864 1.69804 0
M  V30 12497 C 1193.11 0.870209 3.29606 0
M  V30 12498 H 1194.3 2.18476 2.05446 0
M  V30 12499 H 1191.86 1.16401 1.0431 0
M  V30 12500 H 1192.59 -0.0968698 3.24155 0
M  V30 12501 H 1192.38 1.64924 3.55728 0
M  V30 12502 H 1193.87 0.817874 4.09513 0
M  V30 12503 N 1194.3 -1.0692 1.15784 0
M  V30 12504 C 1195.53 -1.8331 0.959422 0
M  V30 12505 C 1195.95 -1.82268 -0.492332 0
M  V30 12506 O 1195.3 -1.23727 -1.34156 0
M  V30 12507 C 1195.36 -3.30202 1.47135 0
M  V30 12508 O 1195.08 -3.31328 2.86624 0
M  V30 12509 C 1196.58 -4.23346 1.31504 0
M  V30 12510 H 1193.8 -0.578202 0.340475 0
M  V30 12511 H 1196.34 -1.34939 1.53661 0
M  V30 12512 H 1194.5 -3.75908 0.936587 0
M  V30 12513 H 1194.91 -4.23135 3.0993 0
M  V30 12514 H 1196.38 -5.24465 1.72163 0
M  V30 12515 H 1196.86 -4.38431 0.259773 0
M  V30 12516 H 1197.47 -3.8348 1.83911 0
M  V30 12517 N 1195.78 -0.955326 -1.25345 0
M  V30 12518 C 1196.73 -0.467205 -2.2786 0
M  V30 12519 C 1197.72 0.462873 -1.62954 0
M  V30 12520 O 1198.93 0.339526 -1.76769 0
M  V30 12521 H 1195.31 -0.132586 -0.74022 0
M  V30 12522 H 1197.28 -1.34406 -2.66416 0
M  V30 12523 C 1196.03 0.238898 -3.46878 0
M  V30 12524 H 1195.35 -0.467644 -3.97056 0
M  V30 12525 H 1196.79 0.544444 -4.2049 0
M  V30 12526 C 1195.25 1.46164 -3.03542 0
M  V30 12527 O 1195.78 2.55933 -3.09615 0
M  V30 12528 N 1193.98 1.32324 -2.58725 0
M  V30 12529 H 1193.53 0.430131 -2.53984 0
M  V30 12530 H 1193.49 2.14253 -2.30094 0
M  V30 12531 N 1197.26 1.39987 -0.723979 0
M  V30 12532 C 1198.21 2.32507 -0.0658033 0
M  V30 12533 C 1199.2 1.52484 0.737908 0
M  V30 12534 O 1200.41 1.68225 0.640332 0
M  V30 12535 H 1196.78 0.751996 -0.00247717 0
M  V30 12536 H 1198.76 2.85657 -0.862696 0
M  V30 12537 C 1197.5 3.37509 0.835628 0
M  V30 12538 H 1196.83 3.99157 0.226589 0
M  V30 12539 H 1198.27 4.04722 1.26396 0
M  V30 12540 C 1196.73 2.73665 1.96492 0
M  V30 12541 O 1197.26 2.60649 3.05655 0
M  V30 12542 N 1195.46 2.3192 1.75104 0
M  V30 12543 H 1195.01 2.42707 0.863204 0
M  V30 12544 H 1194.97 1.89542 2.50841 0
M  V30 12545 N 1198.74 0.470782 1.50404 0
M  V30 12546 C 1199.99 -0.0844409 2.02624 0
M  V30 12547 C 1200.32 -1.39398 1.3521 0
M  V30 12548 O 1199.59 -1.88542 0.477707 0
M  V30 12549 C 1199.88 -0.268563 3.59097 0
M  V30 12550 C 1199.73 1.06198 4.37084 0
M  V30 12551 C 1201.05 -1.02324 4.28039 0
M  V30 12552 H 1198.17 -0.0292141 0.736421 0
M  V30 12553 H 1200.81 0.616312 1.79726 0
M  V30 12554 H 1198.96 -0.865441 3.78738 0
M  V30 12555 H 1200.63 1.69541 4.29015 0
M  V30 12556 H 1198.87 1.65868 4.00837 0
M  V30 12557 H 1199.55 0.886795 5.4483 0
M  V30 12558 H 1202.02 -0.517325 4.12872 0
M  V30 12559 H 1200.9 -1.12087 5.37334 0
M  V30 12560 H 1201.16 -2.05974 3.91187 0
M  V30 12561 N 1200.22 -1.56282 0.203376 0
M  V30 12562 C 1201.46 -1.97812 -0.433202 0
M  V30 12563 C 1201.79 -1.09052 -1.61053 0
M  V30 12564 O 1201.05 -0.131417 -1.95258 0
M  V30 12565 C 1201.35 -3.45148 -0.927759 0
M  V30 12566 C 1201.01 -4.50692 0.137083 0
M  V30 12567 C 1199.67 -4.79278 0.429652 0
M  V30 12568 C 1202.03 -5.14086 0.858174 0
M  V30 12569 C 1199.35 -5.68547 1.44815 0
M  V30 12570 C 1201.71 -6.04457 1.86588 0
M  V30 12571 C 1200.37 -6.31395 2.16556 0
M  V30 12572 H 1199.64 -0.723846 -0.15852 0
M  V30 12573 H 1202.29 -1.89102 0.302082 0
M  V30 12574 H 1200.59 -3.5097 -1.74147 0
M  V30 12575 H 1202.29 -3.74642 -1.42984 0
M  V30 12576 H 1198.88 -4.28481 -0.101111 0
M  V30 12577 H 1203.06 -4.92086 0.645376 0
M  V30 12578 H 1198.32 -5.87689 1.68615 0
M  V30 12579 H 1202.49 -6.52636 2.4298 0
M  V30 12580 H 1200.12 -7.00366 2.9562 0
M  V30 12581 N 1201.7 0.070167 -1.57444 0
M  V30 12582 C 1203.11 0.424991 -1.53838 0
M  V30 12583 C 1203.31 1.79076 -0.923793 0
M  V30 12584 O 1202.37 2.46939 -0.527002 0
M  V30 12585 C 1203.68 0.364562 -2.98482 0
M  V30 12586 C 1205.23 0.444631 -3.09826 0
M  V30 12587 C 1205.7 0.414093 -4.56124 0
M  V30 12588 N 1207.19 0.474119 -4.60767 0
M  V30 12589 C 1207.93 0.472729 -5.71448 0
M  V30 12590 N 1207.43 0.426059 -6.91489 0
M  V30 12591 N 1209.22 0.519408 -5.59695 0
M  V30 12592 H 1201.37 -0.824117 -1.9576 0
M  V30 12593 H 1203.63 -0.309401 -0.896089 0
M  V30 12594 H 1203.34 -0.572343 -3.47012 0
M  V30 12595 H 1203.21 1.17414 -3.5846 0
M  V30 12596 H 1205.6 1.37196 -2.61269 0
M  V30 12597 H 1205.68 -0.393547 -2.52755 0
M  V30 12598 H 1205.32 -0.509394 -5.05339 0
M  V30 12599 H 1205.25 1.26983 -5.11061 0
M  V30 12600 H 1207.75 0.514371 -3.74383 0
M  V30 12601 H 1208.06 0.428969 -7.71609 0
M  V30 12602 H 1206.4 0.392722 -6.9389 0
M  V30 12603 H 1209.59 0.553573 -4.64815 0
M  V30 12604 H 1209.77 0.514856 -6.45951 0
M  V30 12605 N 1203.17 1.53854 0.341593 0
M  V30 12606 C 1204.1 1.84966 1.42513 0
M  V30 12607 C 1205.08 0.704944 1.54805 0
M  V30 12608 O 1206.27 0.957036 1.68981 0
M  V30 12609 C 1203.4 2.06099 2.79536 0
M  V30 12610 C 1202.35 3.21919 2.82049 0
M  V30 12611 C 1201.68 3.28389 4.21977 0
M  V30 12612 C 1202.98 4.59984 2.4741 0
M  V30 12613 H 1204.67 2.7571 1.16724 0
M  V30 12614 H 1202.22 1.32662 0.560073 0
M  V30 12615 H 1204.17 2.26448 3.55386 0
M  V30 12616 H 1202.9 1.12087 3.06764 0
M  V30 12617 H 1201.56 3.01429 2.08653 0
M  V30 12618 H 1201.2 2.3197 4.46317 0
M  V30 12619 H 1200.9 4.0622 4.24569 0
M  V30 12620 H 1202.43 3.50951 4.99666 0
M  V30 12621 H 1203.84 4.80334 3.12973 0
M  V30 12622 H 1202.24 5.40233 2.61282 0
M  V30 12623 H 1203.31 4.6346 1.42594 0
M  V30 12624 N 1204.65 -0.602709 1.4562 0
M  V30 12625 C 1205.6 -1.71312 1.54664 0
M  V30 12626 C 1206.57 -1.61403 0.392197 0
M  V30 12627 O 1207.75 -1.80911 0.606297 0
M  V30 12628 C 1204.89 -3.09629 1.52393 0
M  V30 12629 C 1204.01 -3.30308 2.78425 0
M  V30 12630 C 1203.14 -4.5876 2.67793 0
M  V30 12631 C 1202.18 -4.72713 3.88855 0
M  V30 12632 N 1201.32 -5.92469 3.76729 0
M  V30 12633 H 1206.16 -1.62918 2.49523 0
M  V30 12634 H 1203.69 -0.794324 1.2381 0
M  V30 12635 H 1205.65 -3.89661 1.49064 0
M  V30 12636 H 1204.28 -3.16968 0.610816 0
M  V30 12637 H 1203.33 -2.44018 2.9182 0
M  V30 12638 H 1204.65 -3.36491 3.68205 0
M  V30 12639 H 1203.8 -5.46993 2.62457 0
M  V30 12640 H 1202.54 -4.54983 1.75619 0
M  V30 12641 H 1201.54 -3.82903 3.94545 0
M  V30 12642 H 1202.77 -4.78284 4.82101 0
M  V30 12643 H 1200.72 -5.89728 2.87328 0
M  V30 12644 H 1200.63 -5.99833 4.60148 0
M  V30 12645 H 1201.9 -6.83187 3.75334 0
M  V30 12646 N 1206.13 -1.32992 -0.845635 0
M  V30 12647 C 1207.38 -1.2382 -1.59728 0
M  V30 12648 C 1207.7 0.197724 -1.93995 0
M  V30 12649 O 1206.97 1.12477 -1.60392 0
M  V30 12650 H 1205.55 -0.455296 -0.592212 0
M  V30 12651 H 1208.21 -1.66627 -1.01101 0
M  V30 12652 H 1207.31 -1.82717 -2.53023 0
M  V30 12653 N 1207.61 1.06304 -1.1635 0
M  V30 12654 C 1208.86 1.78747 -0.943074 0
M  V30 12655 C 1209.18 1.87646 0.530483 0
M  V30 12656 O 1208.45 1.38506 1.38538 0
M  V30 12657 H 1207.03 0.662072 -0.345932 0
M  V30 12658 H 1209.69 1.28413 -1.46615 0
M  V30 12659 H 1208.78 2.80828 -1.3617 0
M  V30 12660 N 1209.09 0.96196 1.24836 0
M  V30 12661 C 1210.05 0.492443 2.23847 0
M  V30 12662 C 1211.05 -0.40788 1.55541 0
M  V30 12663 O 1212.24 -0.204143 1.73 0
M  V30 12664 C 1209.37 -0.287578 3.39685 0
M  V30 12665 H 1210.56 1.36767 2.66899 0
M  V30 12666 H 1208.12 0.745967 1.3735 0
M  V30 12667 H 1208.85 -1.18015 3.02064 0
M  V30 12668 H 1208.64 0.358431 3.90458 0
M  V30 12669 H 1210.13 -0.605297 4.1319 0
M  V30 12670 N 1210.56 -1.39601 0.731392 0
M  V30 12671 C 1211.97 -1.83424 0.348194 0
M  V30 12672 C 1212.33 -1.61106 -1.11979 0
M  V30 12673 O 1211.45 -1.1003 -1.86339 0
M  V30 12674 C 1212.05 -3.32982 0.6252 0
M  V30 12675 C 1210.6 -3.75238 0.295536 0
M  V30 12676 C 1209.75 -2.62642 0.88964 0
M  V30 12677 H 1212.7 -1.28644 0.929318 0
M  V30 12678 H 1212.72 -3.80357 -0.104254 0
M  V30 12679 H 1212.24 -3.49193 1.69368 0
M  V30 12680 H 1210.34 -3.64615 -0.767254 0
M  V30 12681 H 1210.45 -4.72781 0.775576 0
M  V30 12682 H 1208.81 -2.52726 0.316529 0
M  V30 12683 H 1209.6 -2.81661 1.96271 0
M  V30 12684 N 1212.04 -0.478751 -1.50152 0
M  V30 12685 C 1213.29 0.07531 -2.01559 0
M  V30 12686 C 1213.6 1.40089 -1.36508 0
M  V30 12687 O 1214.81 2.04035 -1.79115 0
M  V30 12688 C 1213.27 0.184714 -3.59426 0
M  V30 12689 C 1212.87 -1.13289 -4.33439 0
M  V30 12690 C 1214.62 0.690326 -4.18849 0
M  V30 12691 C 1212.53 -0.986866 -5.83108 0
M  V30 12692 H 1211.46 0.0319196 -0.753324 0
M  V30 12693 H 1214.11 -0.614809 -1.72894 0
M  V30 12694 H 1212.49 0.938788 -3.84711 0
M  V30 12695 H 1213.66 -1.89852 -4.19872 0
M  V30 12696 H 1211.98 -1.57021 -3.8566 0
M  V30 12697 H 1214.57 0.816733 -5.28426 0
M  V30 12698 H 1214.92 1.68361 -3.80737 0
M  V30 12699 H 1215.45 -0.00657846 -3.97799 0
M  V30 12700 H 1212.19 -1.95375 -6.25707 0
M  V30 12701 H 1211.71 -0.261752 -5.99229 0
M  V30 12702 H 1213.39 -0.656567 -6.4366 0
M  V30 12703 N 1213.52 1.56172 -0.211661 0
M  V30 12704 C 1214.47 2.19849 0.702515 0
M  V30 12705 C 1215.44 1.15091 1.19763 0
M  V30 12706 O 1216.62 1.43408 1.25852 0
M  V30 12707 C 1213.76 2.87468 1.90935 0
M  V30 12708 C 1212.88 4.06794 1.45406 0
M  V30 12709 C 1212.01 4.62224 2.61769 0
M  V30 12710 C 1211.05 5.73872 2.12926 0
M  V30 12711 N 1210.19 6.23635 3.22526 0
M  V30 12712 H 1215.03 2.97608 0.152777 0
M  V30 12713 H 1212.56 1.46962 0.0636596 0
M  V30 12714 H 1214.52 3.24851 2.61777 0
M  V30 12715 H 1213.15 2.12244 2.43213 0
M  V30 12716 H 1212.2 3.74962 0.640907 0
M  V30 12717 H 1213.52 4.87497 1.05584 0
M  V30 12718 H 1212.67 5.01999 3.40709 0
M  V30 12719 H 1211.41 3.80662 3.04873 0
M  V30 12720 H 1210.41 5.33609 1.32445 0
M  V30 12721 H 1211.64 6.57262 1.70833 0
M  V30 12722 H 1209.58 5.44991 3.65131 0
M  V30 12723 H 1209.5 6.99435 2.86926 0
M  V30 12724 H 1210.77 6.68066 4.01631 0
M  V30 12725 N 1215 -0.0618163 1.57479 0
M  V30 12726 C 1216.25 -0.757569 1.87364 0
M  V30 12727 C 1216.57 -1.77607 0.805025 0
M  V30 12728 O 1215.84 -1.95202 -0.165216 0
M  V30 12729 H 1214.42 -0.28278 0.691408 0
M  V30 12730 H 1217.08 -0.0355354 1.94868 0
M  V30 12731 H 1216.18 -1.26758 2.85199 0
M  V30 12732 N 1216.48 -1.54033 -0.333429 0
M  V30 12733 C 1217.72 -1.72019 -1.07411 0
M  V30 12734 C 1218.06 -0.487265 -1.87988 0
M  V30 12735 O 1217.33 0.515757 -1.87537 0
M  V30 12736 C 1217.61 -2.98986 -2.00698 0
M  V30 12737 C 1217.47 -4.32509 -1.23517 0
M  V30 12738 C 1218.79 -3.21663 -3.00368 0
M  V30 12739 H 1215.9 -0.625919 -0.389094 0
M  V30 12740 H 1218.55 -1.86717 -0.351697 0
M  V30 12741 H 1216.7 -2.86586 -2.62298 0
M  V30 12742 H 1218.37 -4.56775 -0.644522 0
M  V30 12743 H 1216.61 -4.3046 -0.537298 0
M  V30 12744 H 1217.28 -5.17547 -1.91962 0
M  V30 12745 H 1219.76 -3.33459 -2.48886 0
M  V30 12746 H 1218.63 -4.11877 -3.62834 0
M  V30 12747 H 1218.9 -2.3843 -3.72295 0
M  V30 12748 N 1217.95 0.594978 -1.45938 0
M  V30 12749 C 1219.18 1.37994 -1.5416 0
M  V30 12750 C 1219.6 1.87954 -0.17848 0
M  V30 12751 O 1218.95 1.62932 0.822161 0
M  V30 12752 C 1219.01 2.57586 -2.53637 0
M  V30 12753 O 1218.73 2.09698 -3.84653 0
M  V30 12754 C 1220.23 3.50292 -2.71681 0
M  V30 12755 H 1217.45 0.421983 -0.5217 0
M  V30 12756 H 1219.99 0.724459 -1.91238 0
M  V30 12757 H 1218.15 3.19149 -2.19597 0
M  V30 12758 H 1218.56 2.87492 -4.3869 0
M  V30 12759 H 1220.03 4.30717 -3.45234 0
M  V30 12760 H 1220.51 4.01444 -1.78156 0
M  V30 12761 H 1221.12 2.94573 -3.06768 0
M  V30 12762 N 1219.43 1.33438 0.838571 0
M  V30 12763 C 1220.68 1.24912 1.59384 0
M  V30 12764 C 1221.01 -0.185017 1.93618 0
M  V30 12765 O 1220.26 -1.14229 1.58904 0
M  V30 12766 C 1220.56 2.07002 2.9135 0
M  V30 12767 C 1220.23 3.5619 2.76477 0
M  V30 12768 C 1218.89 3.96862 2.72129 0
M  V30 12769 C 1221.24 4.5099 2.61261 0
M  V30 12770 C 1218.57 5.30551 2.50464 0
M  V30 12771 C 1220.92 5.84841 2.4113 0
M  V30 12772 C 1219.59 6.24696 2.35183 0
M  V30 12773 H 1218.86 0.457084 0.583228 0
M  V30 12774 H 1221.5 1.65027 0.971506 0
M  V30 12775 H 1219.81 1.59665 3.57791 0
M  V30 12776 H 1221.5 1.97762 3.48843 0
M  V30 12777 H 1218.09 3.23896 2.80695 0
M  V30 12778 H 1222.28 4.20476 2.63655 0
M  V30 12779 H 1217.53 5.60468 2.44307 0
M  V30 12780 H 1221.71 6.57901 2.2834 0
M  V30 12781 H 1219.34 7.28225 2.18156 0
M  V30 12782 N 1220.91 -1.05686 1.16912 0
M  V30 12783 C 1222.16 -1.78244 0.95254 0
M  V30 12784 C 1222.48 -1.87924 -0.520525 0
M  V30 12785 O 1221.75 -1.39239 -1.37802 0
M  V30 12786 H 1220.33 -0.660228 0.349439 0
M  V30 12787 H 1222.99 -1.27634 1.47294 0
M  V30 12788 H 1222.09 -2.80102 1.37657 0
M  V30 12789 N 1222.39 -0.968567 -1.24324 0
M  V30 12790 C 1223.3 -0.50703 -2.29055 0
M  V30 12791 C 1224.31 0.432431 -1.68541 0
M  V30 12792 O 1225.49 0.30526 -1.99073 0
M  V30 12793 C 1222.56 0.194589 -3.46153 0
M  V30 12794 C 1221.62 -0.784805 -4.22066 0
M  V30 12795 C 1220.85 -0.116574 -5.33573 0
M  V30 12796 O 1221.07 1.09492 -5.59792 0
M  V30 12797 O 1220.01 -0.809171 -5.96436 0
M  V30 12798 H 1223.83 -1.3777 -2.70653 0
M  V30 12799 H 1221.42 -0.735645 -1.30033 0
M  V30 12800 H 1223.3 0.588684 -4.17268 0
M  V30 12801 H 1221.97 1.04021 -3.06531 0
M  V30 12802 H 1220.88 -1.22938 -3.53323 0
M  V30 12803 H 1222.21 -1.59887 -4.65507 0
M  V30 12804 N 1223.87 1.39211 -0.738786 0
M  V30 12805 C 1225.14 1.9442 -0.214533 0
M  V30 12806 C 1225.52 1.67528 1.28443 0
M  V30 12807 O 1224.87 1.0056 2.05183 0
M  V30 12808 C 1225.08 3.44603 -0.552232 0
M  V30 12809 C 1226.43 4.21602 -0.503663 0
M  V30 12810 O 1227.45 3.52819 -0.489647 0
M  V30 12811 O 1226.31 5.44194 -0.50153 0
M  V30 12812 H 1223.41 0.826011 -0.0404247 0
M  V30 12813 H 1225.95 1.48689 -0.817902 0
M  V30 12814 H 1224.72 3.57626 -1.58806 0
M  V30 12815 H 1224.35 3.9752 0.0799096 0
M  V30 12816 N 1225.34 0.486708 1.49896 0
M  V30 12817 C 1226.57 -0.0600816 2.06813 0
M  V30 12818 C 1226.99 -1.32112 1.34877 0
M  V30 12819 O 1226.34 -1.77537 0.422725 0
M  V30 12820 C 1226.4 -0.332266 3.5997 0
M  V30 12821 O 1226.12 0.878771 4.29196 0
M  V30 12822 C 1227.62 -0.924289 4.33557 0
M  V30 12823 H 1224.84 0.0140611 0.670853 0
M  V30 12824 H 1227.38 0.67997 1.92864 0
M  V30 12825 H 1225.54 -1.02227 3.73669 0
M  V30 12826 H 1225.95 0.632873 5.20668 0
M  V30 12827 H 1227.42 -1.06441 5.4164 0
M  V30 12828 H 1227.9 -1.91844 3.95085 0
M  V30 12829 H 1228.51 -0.272189 4.24428 0
M  V30 12830 N 1226.82 -1.56058 0.219941 0
M  V30 12831 C 1228.07 -1.98554 -0.412808 0
M  V30 12832 C 1228.4 -1.10742 -1.5953 0
M  V30 12833 O 1227.68 -0.164757 -1.93801 0
M  V30 12834 C 1227.96 -3.4995 -0.848923 0
M  V30 12835 C 1227.81 -4.48535 0.337094 0
M  V30 12836 C 1229.13 -4.05703 -1.70567 0
M  V30 12837 H 1226.25 -0.721869 -0.148576 0
M  V30 12838 H 1228.89 -1.87356 0.315852 0
M  V30 12839 H 1227.04 -3.59624 -1.46979 0
M  V30 12840 H 1228.72 -4.50874 0.975216 0
M  V30 12841 H 1226.96 -4.22474 0.984798 0
M  V30 12842 H 1227.63 -5.51999 -0.0109665 0
M  V30 12843 H 1230.11 -3.98964 -1.18182 0
M  V30 12844 H 1228.98 -5.11955 -1.97972 0
M  V30 12845 H 1229.24 -3.52487 -2.66844 0
M  V30 12846 N 1228.3 0.053464 -1.57509 0
M  V30 12847 C 1229.55 0.744867 -1.8927 0
M  V30 12848 C 1229.9 1.74249 -0.815791 0
M  V30 12849 O 1229.2 1.9077 0.178187 0
M  V30 12850 C 1229.39 1.47666 -3.25468 0
M  V30 12851 C 1229.22 0.551427 -4.46306 0
M  V30 12852 C 1227.99 0.181517 -5.04974 0
M  V30 12853 C 1230.19 -0.159765 -5.14052 0
M  V30 12854 N 1228.17 -0.747526 -6.09332 0
M  V30 12855 C 1229.54 -0.94533 -6.12751 0
M  V30 12856 C 1231.59 -0.2293 -4.97372 0
M  V30 12857 C 1230.3 -1.794 -6.96569 0
M  V30 12858 C 1232.32 -1.065 -5.81732 0
M  V30 12859 C 1231.69 -1.83856 -6.79983 0
M  V30 12860 H 1227.78 0.247424 -0.741826 0
M  V30 12861 H 1230.37 0.00570542 -1.94699 0
M  V30 12862 H 1228.54 2.18643 -3.21014 0
M  V30 12863 H 1230.27 2.11852 -3.4482 0
M  V30 12864 H 1227.03 0.538408 -4.7053 0
M  V30 12865 H 1227.45 -1.20583 -6.66175 0
M  V30 12866 H 1232.09 0.354441 -4.21312 0
M  V30 12867 H 1229.81 -2.38864 -7.71991 0
M  V30 12868 H 1233.4 -1.12202 -5.70878 0
M  V30 12869 H 1232.28 -2.47479 -7.44126 0
M  V30 12870 N 1229.78 1.54207 0.325255 0
M  V30 12871 C 1230.69 1.86495 1.42326 0
M  V30 12872 C 1231.71 0.756718 1.56684 0
M  V30 12873 O 1232.88 1.05084 1.71812 0
M  V30 12874 C 1229.95 2.08414 2.77064 0
M  V30 12875 C 1229.01 3.32221 2.71897 0
M  V30 12876 C 1228.24 3.53085 4.00209 0
M  V30 12877 O 1228.46 2.77421 4.98391 0
M  V30 12878 O 1227.4 4.46559 4.0357 0
M  V30 12879 H 1231.22 2.79859 1.17951 0
M  V30 12880 H 1228.81 1.40091 0.519124 0
M  V30 12881 H 1230.69 2.24171 3.56827 0
M  V30 12882 H 1229.37 1.18238 3.01333 0
M  V30 12883 H 1228.27 3.21851 1.90691 0
M  V30 12884 H 1229.61 4.22449 2.52582 0
M  V30 12885 N 1231.26 -0.58723 1.46251 0
M  V30 12886 C 1232.5 -1.3476 1.51551 0
M  V30 12887 C 1232.84 -1.93499 0.16483 0
M  V30 12888 O 1232.11 -1.7622 -0.823207 0
M  V30 12889 C 1232.39 -2.48033 2.61059 0
M  V30 12890 C 1232.25 -1.94358 4.05642 0
M  V30 12891 C 1233.57 -3.50096 2.66685 0
M  V30 12892 H 1230.69 -0.48863 0.551733 0
M  V30 12893 H 1233.33 -0.660097 1.78165 0
M  V30 12894 H 1231.48 -3.06679 2.38496 0
M  V30 12895 H 1233.15 -1.40204 4.39478 0
M  V30 12896 H 1231.39 -1.25217 4.15335 0
M  V30 12897 H 1232.06 -2.76105 4.77986 0
M  V30 12898 H 1234.54 -3.01324 2.86955 0
M  V30 12899 H 1233.42 -4.26817 3.45135 0
M  V30 12900 H 1233.68 -4.07032 1.7256 0
M  V30 12901 N 1232.74 -1.33881 -0.831482 0
M  V30 12902 C 1233.67 -1.20587 -1.94914 0
M  V30 12903 C 1234.68 -0.135026 -1.62239 0
M  V30 12904 O 1235.87 -0.386116 -1.74274 0
M  V30 12905 C 1232.97 -0.828712 -3.28612 0
M  V30 12906 C 1232.14 -1.99275 -3.89369 0
M  V30 12907 C 1231.2 -1.59537 -5.01432 0
M  V30 12908 O 1230.23 -2.31076 -5.20185 0
M  V30 12909 N 1231.43 -0.5046 -5.78303 0
M  V30 12910 H 1234.19 -2.16869 -2.06852 0
M  V30 12911 H 1231.76 -1.26723 -1.00761 0
M  V30 12912 H 1233.75 -0.544827 -4.01016 0
M  V30 12913 H 1232.32 0.0436534 -3.1257 0
M  V30 12914 H 1231.54 -2.44185 -3.09463 0
M  V30 12915 H 1232.83 -2.77145 -4.26694 0
M  V30 12916 H 1232.22 0.0903105 -5.65628 0
M  V30 12917 H 1230.78 -0.280415 -6.51197 0
M  V30 12918 N 1234.21 1.05064 -1.1747 0
M  V30 12919 C 1235.46 1.77737 -0.961979 0
M  V30 12920 C 1235.78 1.88198 0.510551 0
M  V30 12921 O 1235.05 1.39968 1.37062 0
M  V30 12922 H 1233.63 0.658366 -0.352935 0
M  V30 12923 H 1236.29 1.26851 -1.47969 0
M  V30 12924 H 1235.39 2.79368 -1.39141 0
M  V30 12925 N 1235.69 0.975146 1.23809 0
M  V30 12926 C 1236.92 0.658023 1.95841 0
M  V30 12927 C 1237.33 -0.778132 1.72458 0
M  V30 12928 O 1236.67 -1.53462 1.00971 0
M  V30 12929 C 1236.73 0.862038 3.49012 0
M  V30 12930 C 1236.4 2.27925 3.96105 0
M  V30 12931 C 1237.4 3.25755 4.05191 0
M  V30 12932 C 1235.08 2.60894 4.29231 0
M  V30 12933 C 1237.07 4.54636 4.46749 0
M  V30 12934 C 1234.76 3.89999 4.70472 0
M  V30 12935 C 1235.76 4.86682 4.79197 0
M  V30 12936 O 1235.45 6.13483 5.19513 0
M  V30 12937 H 1235.18 0.243915 0.630461 0
M  V30 12938 H 1237.73 1.30768 1.58395 0
M  V30 12939 H 1235.96 0.155209 3.86388 0
M  V30 12940 H 1237.65 0.542873 4.02253 0
M  V30 12941 H 1238.42 3.01614 3.79808 0
M  V30 12942 H 1234.3 1.86355 4.21655 0
M  V30 12943 H 1237.84 5.30101 4.53474 0
M  V30 12944 H 1233.74 4.13937 4.95304 0
M  V30 12945 H 1234.51 6.17158 5.37641 0
M  V30 12946 N 1237.17 -1.38817 0.746158 0
M  V30 12947 C 1238.12 -2.30521 0.113517 0
M  V30 12948 C 1239.09 -1.49795 -0.717682 0
M  V30 12949 O 1240.27 -1.78448 -0.675345 0
M  V30 12950 C 1237.41 -3.36185 -0.779343 0
M  V30 12951 C 1236.52 -4.3195 0.0656784 0
M  V30 12952 C 1235.66 -5.24684 -0.829492 0
M  V30 12953 C 1234.7 -6.12097 0.0196112 0
M  V30 12954 N 1233.84 -6.97152 -0.832107 0
M  V30 12955 H 1238.68 -2.84048 0.901136 0
M  V30 12956 H 1236.21 -1.39853 0.456025 0
M  V30 12957 H 1238.17 -3.96048 -1.31156 0
M  V30 12958 H 1236.8 -2.84085 -1.53282 0
M  V30 12959 H 1235.85 -3.73611 0.715445 0
M  V30 12960 H 1237.16 -4.93551 0.721735 0
M  V30 12961 H 1236.32 -5.89627 -1.42915 0
M  V30 12962 H 1235.06 -4.63431 -1.5193 0
M  V30 12963 H 1234.06 -5.46156 0.631991 0
M  V30 12964 H 1235.29 -6.75416 0.706369 0
M  V30 12965 H 1233.23 -6.38456 -1.507 0
M  V30 12966 H 1233.15 -7.55642 -0.232782 0
M  V30 12967 H 1234.42 -7.66513 -1.41697 0
M  V30 12968 N 1238.65 -0.49465 -1.49636 0
M  V30 12969 C 1239.6 0.300929 -2.30645 0
M  V30 12970 C 1240.59 0.968687 -1.38971 0
M  V30 12971 O 1241.8 0.897101 -1.56052 0
M  V30 12972 H 1238.17 0.1159 -0.743015 0
M  V30 12973 H 1240.14 -0.402387 -2.95674 0
M  V30 12974 C 1238.89 1.35638 -3.20153 0
M  V30 12975 H 1238.21 0.851946 -3.90617 0
M  V30 12976 H 1239.65 1.88515 -3.79787 0
M  V30 12977 C 1238.11 2.37112 -2.39331 0
M  V30 12978 O 1238.64 3.42867 -2.09298 0
M  V30 12979 N 1236.85 2.09421 -2.01473 0
M  V30 12980 H 1236.4 1.23441 -2.26097 0
M  V30 12981 H 1236.35 2.77545 -1.47703 0
M  V30 12982 N 1240.13 1.55939 -0.228214 0
M  V30 12983 C 1241.37 1.9877 0.402272 0
M  V30 12984 C 1241.7 1.11587 1.5894 0
M  V30 12985 O 1240.98 0.175032 1.93711 0
M  V30 12986 C 1241.26 3.50396 0.830353 0
M  V30 12987 C 1241.12 4.4835 -0.360876 0
M  V30 12988 C 1242.43 4.06602 1.68413 0
M  V30 12989 H 1239.55 0.722646 0.144746 0
M  V30 12990 H 1242.2 1.87186 -0.325784 0
M  V30 12991 H 1240.35 3.60398 1.4507 0
M  V30 12992 H 1242.02 4.5035 -0.999113 0
M  V30 12993 H 1240.26 4.21946 -1.00719 0
M  V30 12994 H 1240.93 5.51997 -0.0183074 0
M  V30 12995 H 1243.41 3.99585 1.16064 0
M  V30 12996 H 1242.28 5.12998 1.95254 0
M  V30 12997 H 1242.54 3.53897 2.64971 0
M  V30 12998 N 1241.6 -0.0451101 1.57535 0
M  V30 12999 C 1243.02 -0.400463 1.54494 0
M  V30 13000 C 1243.22 -1.77584 0.952166 0
M  V30 13001 O 1242.28 -2.46069 0.566221 0
M  V30 13002 C 1243.59 -0.31703 2.99024 0
M  V30 13003 C 1245.14 -0.395284 3.10494 0
M  V30 13004 C 1245.61 -0.341475 4.56725 0
M  V30 13005 N 1247.1 -0.400755 4.61463 0
M  V30 13006 C 1247.84 -0.381757 5.72128 0
M  V30 13007 N 1247.33 -0.315995 6.92079 0
M  V30 13008 N 1249.13 -0.4303 5.60451 0
M  V30 13009 H 1241.28 0.855156 1.94424 0
M  V30 13010 H 1243.54 0.323618 0.891053 0
M  V30 13011 H 1243.25 0.627477 3.46057 0
M  V30 13012 H 1243.12 -1.11696 3.60283 0
M  V30 13013 H 1245.51 -1.33022 2.63418 0
M  V30 13014 H 1245.59 0.433709 2.52096 0
M  V30 13015 H 1245.23 0.589725 5.04465 0
M  V30 13016 H 1245.16 -1.18836 5.13016 0
M  V30 13017 H 1247.65 -0.454745 3.75154 0
M  V30 13018 H 1247.97 -0.306158 7.72193 0
M  V30 13019 H 1246.31 -0.282281 6.94427 0
M  V30 13020 H 1249.5 -0.479555 4.65637 0
M  V30 13021 H 1249.68 -0.412025 6.46689 0
M  V30 13022 N 1243.08 -1.54377 -0.317073 0
M  V30 13023 C 1244.33 -1.72105 -1.0518 0
M  V30 13024 C 1244.64 -0.505166 -1.88964 0
M  V30 13025 O 1245.85 -0.563912 -2.65579 0
M  V30 13026 C 1244.31 -3.04435 -1.91957 0
M  V30 13027 C 1243.91 -4.33449 -1.13253 0
M  V30 13028 C 1245.66 -3.31524 -2.65127 0
M  V30 13029 C 1243.57 -5.56837 -1.99214 0
M  V30 13030 H 1242.5 -0.641392 -0.396399 0
M  V30 13031 H 1245.15 -1.80868 -0.309673 0
M  V30 13032 H 1243.53 -2.89595 -2.70094 0
M  V30 13033 H 1244.7 -4.59074 -0.39842 0
M  V30 13034 H 1243.02 -4.13173 -0.517372 0
M  V30 13035 H 1245.61 -4.20906 -3.29761 0
M  V30 13036 H 1245.96 -2.49688 -3.33109 0
M  V30 13037 H 1246.49 -3.47261 -1.94048 0
M  V30 13038 H 1243.23 -6.41294 -1.35729 0
M  V30 13039 H 1242.75 -5.35421 -2.70341 0
M  V30 13040 H 1244.43 -5.93488 -2.57646 0
M  V30 13041 N 1244.56 0.579466 -1.4656 0
M  V30 13042 C 1245.79 1.36351 -1.55615 0
M  V30 13043 C 1246.2 1.87755 -0.198405 0
M  V30 13044 O 1245.56 1.63795 0.804834 0
M  V30 13045 C 1245.61 2.54881 -2.56355 0
M  V30 13046 O 1245.33 2.05607 -3.86856 0
M  V30 13047 C 1246.83 3.47391 -2.75381 0
M  V30 13048 H 1244.05 0.416426 -0.526147 0
M  V30 13049 H 1246.6 0.704134 -1.91995 0
M  V30 13050 H 1244.75 3.16802 -2.2297 0
M  V30 13051 H 1245.17 2.82823 -4.41714 0
M  V30 13052 H 1246.64 4.27031 -3.49783 0
M  V30 13053 H 1247.12 3.99532 -1.82403 0
M  V30 13054 H 1247.72 2.91303 -3.09875 0
M  V30 13055 N 1246.04 1.3432 0.824371 0
M  V30 13056 C 1247.29 1.26595 1.5805 0
M  V30 13057 C 1247.61 -0.164471 1.93803 0
M  V30 13058 O 1246.87 -1.12537 1.60106 0
M  V30 13059 C 1247.17 2.1008 2.89139 0
M  V30 13060 C 1246.83 3.59102 2.72684 0
M  V30 13061 C 1245.5 3.99726 2.67904 0
M  V30 13062 C 1247.85 4.53736 2.56463 0
M  V30 13063 C 1245.18 5.33178 2.44822 0
M  V30 13064 C 1247.53 5.87366 2.34913 0
M  V30 13065 C 1246.19 6.27155 2.28544 0
M  V30 13066 H 1245.46 0.463245 0.578347 0
M  V30 13067 H 1248.11 1.66048 0.953948 0
M  V30 13068 H 1246.41 1.6345 3.56078 0
M  V30 13069 H 1248.11 2.01451 3.46726 0
M  V30 13070 H 1244.7 3.26855 2.77244 0
M  V30 13071 H 1248.88 4.23248 2.5918 0
M  V30 13072 H 1244.14 5.63028 2.38348 0
M  V30 13073 H 1248.31 6.60286 2.21349 0
M  V30 13074 H 1245.94 7.30498 2.1042 0
M  V30 13075 N 1247.52 -1.0444 1.18026 0
M  V30 13076 C 1248.43 -2.15862 0.918747 0
M  V30 13077 C 1249.44 -1.73614 -0.115808 0
M  V30 13078 O 1250.62 -2.01294 0.0652312 0
M  V30 13079 C 1247.68 -3.43846 0.443922 0
M  V30 13080 C 1246.74 -4.00497 1.54599 0
M  V30 13081 C 1245.98 -5.22373 1.09372 0
M  V30 13082 O 1246.2 -5.70379 -0.049085 0
M  V30 13083 O 1245.13 -5.71459 1.88992 0
M  V30 13084 H 1248.96 -2.40776 1.85097 0
M  V30 13085 H 1246.55 -1.14326 0.961769 0
M  V30 13086 H 1248.43 -4.20985 0.187017 0
M  V30 13087 H 1247.1 -3.20414 -0.460051 0
M  V30 13088 H 1246.01 -3.24764 1.85686 0
M  V30 13089 H 1247.34 -4.28262 2.42595 0
M  V30 13090 N 1248.99 -0.981699 -1.2329 0
M  V30 13091 C 1249.92 -0.542441 -2.27112 0
M  V30 13092 C 1250.91 0.425034 -1.64704 0
M  V30 13093 O 1252.09 0.318114 -1.91577 0
M  V30 13094 C 1249.22 0.154668 -3.46955 0
M  V30 13095 C 1248.17 -0.73022 -4.21725 0
M  V30 13096 C 1247.5 0.0991766 -5.34608 0
M  V30 13097 C 1248.8 -2.02166 -4.81587 0
M  V30 13098 H 1250.49 -1.41024 -2.64107 0
M  V30 13099 H 1248.04 -0.679544 -1.26957 0
M  V30 13100 H 1249.99 0.473281 -4.18734 0
M  V30 13101 H 1248.72 1.05693 -3.09025 0
M  V30 13102 H 1247.38 -1.03231 -3.51765 0
M  V30 13103 H 1247.02 1.00201 -4.92919 0
M  V30 13104 H 1246.72 -0.489788 -5.85555 0
M  V30 13105 H 1248.25 0.412141 -6.09207 0
M  V30 13106 H 1249.66 -1.76773 -5.45366 0
M  V30 13107 H 1248.06 -2.55851 -5.42826 0
M  V30 13108 H 1249.13 -2.70766 -4.02261 0
M  V30 13109 N 1250.47 1.3842 -0.753509 0
M  V30 13110 C 1251.75 1.94181 -0.235142 0
M  V30 13111 C 1252.13 1.68881 1.26659 0
M  V30 13112 O 1251.48 1.02731 2.04104 0
M  V30 13113 C 1251.69 3.43998 -0.588751 0
M  V30 13114 C 1253.04 4.21044 -0.548352 0
M  V30 13115 O 1254.06 3.52279 -0.52704 0
M  V30 13116 O 1252.92 5.43631 -0.559221 0
M  V30 13117 H 1250.01 0.825536 -0.0491834 0
M  V30 13118 H 1252.56 1.47813 -0.833626 0
M  V30 13119 H 1251.33 3.55921 -1.6259 0
M  V30 13120 H 1250.95 3.97582 0.0377429 0
M  V30 13121 N 1251.95 0.502579 1.49372 0
M  V30 13122 C 1252.86 -0.279532 2.32929 0
M  V30 13123 C 1253.88 -0.965806 1.44735 0
M  V30 13124 O 1255.05 -0.946839 1.77755 0
M  V30 13125 C 1252.12 -1.32913 3.20211 0
M  V30 13126 C 1251.18 -0.656121 4.24256 0
M  V30 13127 C 1250.41 -1.65571 5.07368 0
M  V30 13128 O 1250.63 -2.88571 4.92019 0
M  V30 13129 O 1249.57 -1.21016 5.89609 0
M  V30 13130 H 1253.39 0.404427 3.00995 0
M  V30 13131 H 1250.98 0.263888 1.47051 0
M  V30 13132 H 1252.86 -1.93635 3.74277 0
M  V30 13133 H 1251.54 -1.99598 2.54837 0
M  V30 13134 H 1250.44 -0.00911489 3.74099 0
M  V30 13135 H 1251.78 -0.0316802 4.9219 0
M  V30 13136 N 1253.43 -1.55816 0.23648 0
M  V30 13137 C 1254.84 -1.59159 -0.118601 0
M  V30 13138 C 1255.04 -1.25352 -1.57763 0
M  V30 13139 O 1254.1 -0.995863 -2.32032 0
M  V30 13140 C 1255.41 -2.99885 0.221175 0
M  V30 13141 C 1256.96 -3.12567 0.164624 0
M  V30 13142 C 1257.44 -4.55496 0.478285 0
M  V30 13143 N 1258.93 -4.61215 0.428402 0
M  V30 13144 C 1259.66 -5.69768 0.644398 0
M  V30 13145 N 1259.16 -6.86624 0.922966 0
M  V30 13146 N 1260.95 -5.59143 0.575814 0
M  V30 13147 H 1253.1 -1.76063 1.18809 0
M  V30 13148 H 1255.37 -0.819079 0.477297 0
M  V30 13149 H 1255.07 -3.29326 1.2344 0
M  V30 13150 H 1254.95 -3.74425 -0.456723 0
M  V30 13151 H 1257.33 -2.82914 -0.839263 0
M  V30 13152 H 1257.41 -2.40325 0.876219 0
M  V30 13153 H 1257.06 -4.85868 1.47968 0
M  V30 13154 H 1256.99 -5.25984 -0.254671 0
M  V30 13155 H 1259.48 -3.77251 0.221398 0
M  V30 13156 H 1259.79 -7.6528 1.07548 0
M  V30 13157 H 1258.14 -6.88333 0.960325 0
M  V30 13158 H 1261.33 -4.66727 0.358307 0
M  V30 13159 H 1261.5 -6.43674 0.747548 0
M  V30 13160 N 1254.91 0.036755 -1.57557 0
M  V30 13161 C 1256.15 0.730186 -1.89199 0
M  V30 13162 C 1256.49 1.75414 -0.833271 0
M  V30 13163 O 1255.76 1.93901 0.152579 0
M  V30 13164 C 1256.04 1.40669 -3.31488 0
M  V30 13165 C 1255.9 0.396764 -4.48047 0
M  V30 13166 C 1257.22 2.34268 -3.72567 0
M  V30 13167 H 1254.33 0.263983 -0.6881 0
M  V30 13168 H 1256.98 -0.0069847 -1.89999 0
M  V30 13169 H 1255.13 2.03502 -3.30937 0
M  V30 13170 H 1256.8 -0.229062 -4.60731 0
M  V30 13171 H 1255.04 -0.284698 -4.32865 0
M  V30 13172 H 1255.71 0.908436 -5.44474 0
M  V30 13173 H 1258.19 1.81485 -3.74436 0
M  V30 13174 H 1257.06 2.78587 -4.72949 0
M  V30 13175 H 1257.33 3.20611 -3.04403 0
M  V30 13176 N 1256.39 1.54543 0.308881 0
M  V30 13177 C 1257.66 1.64118 1.06418 0
M  V30 13178 C 1258.04 0.484402 2.05467 0
M  V30 13179 O 1257.39 -0.519752 2.2251 0
M  V30 13180 C 1257.6 3.01776 1.75306 0
M  V30 13181 C 1258.95 3.58324 2.27792 0
M  V30 13182 O 1259.97 3.04177 1.85351 0
M  V30 13183 O 1258.83 4.53113 3.05533 0
M  V30 13184 H 1255.93 0.665172 0.491401 0
M  V30 13185 H 1258.47 1.66889 0.307598 0
M  V30 13186 H 1257.24 3.77407 1.03341 0
M  V30 13187 H 1256.87 3.02748 2.57739 0
M  V30 13188 N 1257.86 -0.571685 1.46866 0
M  V30 13189 C 1258.81 -1.67992 1.58263 0
M  V30 13190 C 1259.78 -1.60535 0.426345 0
M  V30 13191 O 1260.97 -1.79584 0.644534 0
M  V30 13192 C 1258.11 -3.06327 1.58927 0
M  V30 13193 C 1257.22 -3.24328 2.85369 0
M  V30 13194 C 1256.35 -4.52976 2.77464 0
M  V30 13195 C 1255.39 -4.64359 3.98795 0
M  V30 13196 N 1254.53 -5.84345 3.89211 0
M  V30 13197 H 1259.37 -1.57589 2.52922 0
M  V30 13198 H 1256.91 -0.767883 1.25467 0
M  V30 13199 H 1258.86 -3.86411 1.57296 0
M  V30 13200 H 1257.49 -3.15601 0.677912 0
M  V30 13201 H 1256.55 -2.37774 2.96931 0
M  V30 13202 H 1257.86 -3.28605 3.7526 0
M  V30 13203 H 1257.01 -5.41303 2.74001 0
M  V30 13204 H 1255.75 -4.51155 1.85231 0
M  V30 13205 H 1254.76 -3.74448 4.02578 0
M  V30 13206 H 1255.98 -4.6795 4.92137 0
M  V30 13207 H 1253.93 -5.835 2.99772 0
M  V30 13208 H 1253.84 -5.89938 4.72768 0
M  V30 13209 H 1255.11 -6.75072 3.89741 0
M  V30 13210 N 1259.34 -1.34755 -0.817236 0
M  V30 13211 C 1260.59 -1.2762 -1.5761 0
M  V30 13212 C 1260.92 0.152017 -1.93604 0
M  V30 13213 O 1260.2 1.09881 -1.60488 0
M  V30 13214 C 1260.48 -2.17251 -2.87183 0
M  V30 13215 C 1260.33 -3.68638 -2.57733 0
M  V30 13216 C 1261.65 -2.06206 -3.88802 0
M  V30 13217 H 1258.77 -0.464933 -0.571845 0
M  V30 13218 H 1261.41 -1.6506 -0.941028 0
M  V30 13219 H 1259.56 -1.85452 -3.41379 0
M  V30 13220 H 1261.23 -4.10829 -2.09802 0
M  V30 13221 H 1259.48 -3.89445 -1.91089 0
M  V30 13222 H 1260.15 -4.26726 -3.50156 0
M  V30 13223 H 1262.62 -2.34137 -3.43975 0
M  V30 13224 H 1261.5 -2.71136 -4.77259 0
M  V30 13225 H 1261.76 -1.04075 -4.29675 0
M  V30 13226 N 1260.82 1.03812 -1.18578 0
M  V30 13227 C 1261.75 2.13802 -0.938665 0
M  V30 13228 C 1262.73 1.69643 0.124575 0
M  V30 13229 O 1263.92 1.94179 -0.0285421 0
M  V30 13230 C 1261.05 3.44154 -0.466392 0
M  V30 13231 C 1260 4.01949 -1.47041 0
M  V30 13232 C 1259.33 5.27811 -0.855558 0
M  V30 13233 C 1260.63 4.37827 -2.84789 0
M  V30 13234 H 1262.32 2.34732 -1.85852 0
M  V30 13235 H 1259.87 1.12808 -0.895007 0
M  V30 13236 H 1261.82 4.20463 -0.280856 0
M  V30 13237 H 1260.54 3.22918 0.489041 0
M  V30 13238 H 1259.2 3.27725 -1.64293 0
M  V30 13239 H 1258.85 5.02886 0.107142 0
M  V30 13240 H 1258.55 5.67441 -1.52592 0
M  V30 13241 H 1260.07 6.06795 -0.680609 0
M  V30 13242 H 1261.49 5.05112 -2.71173 0
M  V30 13243 H 1259.88 4.88514 -3.48532 0
M  V30 13244 H 1260.95 3.47541 -3.38147 0
M  V30 13245 N 1262.3 0.988223 1.22768 0
M  V30 13246 C 1263.25 0.527454 2.26541 0
M  V30 13247 C 1264.24 -0.419506 1.64123 0
M  V30 13248 O 1265.45 -0.292539 1.77607 0
M  V30 13249 H 1261.82 0.152165 0.736444 0
M  V30 13250 H 1263.79 1.41422 2.62759 0
M  V30 13251 C 1262.54 -0.146845 3.4739 0
M  V30 13252 H 1261.86 0.572752 3.95676 0
M  V30 13253 H 1263.3 -0.432768 4.21786 0
M  V30 13254 C 1261.76 -1.38065 3.0731 0
M  V30 13255 O 1262.29 -2.47634 3.16291 0
M  V30 13256 N 1260.5 -1.25418 2.62143 0
M  V30 13257 H 1260.05 -0.362641 2.55035 0
M  V30 13258 H 1260 -2.08077 2.35694 0
M  V30 13259 N 1263.78 -1.38018 0.760839 0
M  V30 13260 C 1264.69 -2.34181 0.140232 0
M  V30 13261 C 1265.7 -1.59635 -0.692287 0
M  V30 13262 O 1266.88 -1.91788 -0.614752 0
M  V30 13263 C 1263.94 -3.38778 -0.73693 0
M  V30 13264 C 1263 -4.29157 0.110792 0
M  V30 13265 C 1262.24 -5.28758 -0.724599 0
M  V30 13266 O 1262.46 -5.35585 -1.96226 0
M  V30 13267 O 1261.39 -6.01738 -0.139565 0
M  V30 13268 H 1265.22 -2.88962 0.934588 0
M  V30 13269 H 1262.8 -1.3999 0.521835 0
M  V30 13270 H 1264.69 -4.02804 -1.23803 0
M  V30 13271 H 1263.36 -2.86341 -1.50966 0
M  V30 13272 H 1262.27 -3.68268 0.658007 0
M  V30 13273 H 1263.6 -4.84869 0.846346 0
M  V30 13274 N 1265.25 -0.510493 -1.49103 0
M  V30 13275 C 1266.2 0.262848 -2.29298 0
M  V30 13276 C 1267.17 0.951714 -1.36131 0
M  V30 13277 O 1268.36 0.956534 -1.65091 0
M  V30 13278 C 1265.5 1.31565 -3.19037 0
M  V30 13279 C 1264.61 0.637598 -4.27269 0
M  V30 13280 C 1263.74 1.67165 -5.04212 0
M  V30 13281 C 1262.78 0.975992 -6.04269 0
M  V30 13282 N 1261.92 1.95468 -6.74342 0
M  V30 13283 H 1266.76 -0.427246 -2.94921 0
M  V30 13284 H 1264.3 -0.222538 -1.45407 0
M  V30 13285 H 1266.25 1.93813 -3.69449 0
M  V30 13286 H 1264.88 1.97438 -2.55379 0
M  V30 13287 H 1263.94 -0.0983863 -3.80273 0
M  V30 13288 H 1265.25 0.0904435 -4.98718 0
M  V30 13289 H 1264.4 2.36893 -5.5854 0
M  V30 13290 H 1263.14 2.25267 -4.32557 0
M  V30 13291 H 1262.15 0.264534 -5.49163 0
M  V30 13292 H 1263.37 0.40134 -6.77913 0
M  V30 13293 H 1261.32 2.52515 -6.05452 0
M  V30 13294 H 1261.23 1.45845 -7.41799 0
M  V30 13295 H 1262.5 2.64455 -7.33269 0
M  V30 13296 N 1266.73 1.55688 -0.24474 0
M  V30 13297 C 1267.97 2.00796 0.382167 0
M  V30 13298 C 1268.34 1.12917 1.55286 0
M  V30 13299 O 1269.54 1.47471 2.24735 0
M  V30 13300 C 1267.81 3.48702 0.783708 0
M  V30 13301 S 1269.37 4.15818 1.40145 0
M  V30 13302 H 1266.18 0.700742 0.120343 0
M  V30 13303 H 1268.79 1.92167 -0.359468 0
M  V30 13304 H 1267.49 4.10327 -0.0776558 0
M  V30 13305 H 1267.02 3.61252 1.55758 0
M  V30 13306 H 1269.04 4.16925 2.6905 0
M  V30 13307 N 1268.21 -0.0283989 1.57574 0
M  V30 13308 C 1269.43 -0.734537 1.93957 0
M  V30 13309 C 1269.86 -1.68062 0.844787 0
M  V30 13310 O 1269.22 -1.802 -0.199432 0
M  V30 13311 C 1269.27 -1.46716 3.29404 0
M  V30 13312 O 1268.37 -2.58036 3.217 0
M  V30 13313 H 1267.71 -0.197507 0.633946 0
M  V30 13314 H 1270.24 0.0163258 2.04593 0
M  V30 13315 H 1270.25 -1.83693 3.64309 0
M  V30 13316 H 1268.93 -0.773292 4.08648 0
M  V30 13317 H 1267.5 -2.23597 2.98427 0
M  V30 13318 N 1269.69 -1.54705 -0.300681 0
M  V30 13319 C 1270.93 -1.74259 -1.03738 0
M  V30 13320 C 1271.27 -0.52703 -1.86912 0
M  V30 13321 O 1270.54 0.475862 -1.88589 0
M  V30 13322 C 1270.82 -3.03175 -1.94311 0
M  V30 13323 C 1270.68 -4.35031 -1.14315 0
M  V30 13324 C 1272 -3.27962 -2.93478 0
M  V30 13325 H 1269.12 -0.634031 -0.37573 0
M  V30 13326 H 1271.76 -1.87421 -0.312012 0
M  V30 13327 H 1269.91 -2.92086 -2.5616 0
M  V30 13328 H 1271.58 -4.5804 -0.547489 0
M  V30 13329 H 1269.82 -4.31503 -0.44587 0
M  V30 13330 H 1270.49 -5.21502 -1.80941 0
M  V30 13331 H 1272.97 -3.38663 -2.41757 0
M  V30 13332 H 1271.85 -4.19481 -3.54016 0
M  V30 13333 H 1272.11 -2.46273 -3.67154 0
M  V30 13334 N 1271.17 0.563888 -1.47167 0
M  V30 13335 C 1272.4 1.34498 -1.56825 0
M  V30 13336 C 1272.8 1.87974 -0.215011 0
M  V30 13337 O 1272.15 1.65323 0.80087 0
M  V30 13338 C 1272.21 2.55602 -2.528 0
M  V30 13339 C 1271.87 2.23459 -3.98642 0
M  V30 13340 C 1272.87 1.81155 -4.87318 0
M  V30 13341 C 1270.56 2.35024 -4.43925 0
M  V30 13342 C 1272.55 1.50835 -6.19296 0
M  V30 13343 C 1270.24 2.04317 -5.75932 0
M  V30 13344 C 1271.23 1.6229 -6.63439 0
M  V30 13345 O 1270.92 1.31969 -7.92994 0
M  V30 13346 H 1270.65 0.416551 -0.532411 0
M  V30 13347 H 1273.21 0.690611 -1.93442 0
M  V30 13348 H 1271.44 3.23907 -2.11237 0
M  V30 13349 H 1273.13 3.17677 -2.52659 0
M  V30 13350 H 1273.89 1.71719 -4.53583 0
M  V30 13351 H 1269.77 2.66696 -3.76024 0
M  V30 13352 H 1273.32 1.17958 -6.87555 0
M  V30 13353 H 1269.21 2.13383 -6.09211 0
M  V30 13354 H 1269.98 1.45656 -8.05436 0
M  V30 13355 N 1272.64 1.35187 0.810078 0
M  V30 13356 C 1273.87 1.31371 1.59841 0
M  V30 13357 C 1274.29 -0.109547 1.88482 0
M  V30 13358 O 1273.64 -1.06047 1.48527 0
M  V30 13359 C 1273.7 2.11496 2.93175 0
M  V30 13360 O 1273.42 3.48273 2.65777 0
M  V30 13361 C 1274.92 2.15226 3.87547 0
M  V30 13362 H 1272.14 0.451428 0.496441 0
M  V30 13363 H 1274.68 1.7799 1.00697 0
M  V30 13364 H 1272.84 1.68486 3.48843 0
M  V30 13365 H 1273.25 3.89845 3.50886 0
M  V30 13366 H 1274.72 2.75687 4.78226 0
M  V30 13367 H 1275.2 1.15007 4.23875 0
M  V30 13368 H 1275.81 2.58382 3.37815 0
M  V30 13369 N 1274.12 -1.03182 1.19127 0
M  V30 13370 C 1275.37 -1.76794 0.993563 0
M  V30 13371 C 1275.7 -1.88306 -0.474809 0
M  V30 13372 O 1274.98 -1.39769 -1.35258 0
M  V30 13373 C 1275.26 -3.19573 1.65968 0
M  V30 13374 C 1275.11 -3.1595 3.2015 0
M  V30 13375 C 1276.43 -4.17897 1.38023 0
M  V30 13376 H 1273.55 -0.641768 0.362357 0
M  V30 13377 H 1276.19 -1.20472 1.46924 0
M  V30 13378 H 1274.34 -3.67663 1.25524 0
M  V30 13379 H 1276.01 -2.7578 3.69788 0
M  V30 13380 H 1274.26 -2.53743 3.51848 0
M  V30 13381 H 1274.93 -4.16811 3.61901 0
M  V30 13382 H 1277.4 -3.78394 1.73082 0
M  V30 13383 H 1276.28 -5.15997 1.87186 0
M  V30 13384 H 1276.54 -4.41048 0.304812 0
M  V30 13385 N 1275.6 -0.99472 -1.22242 0
M  V30 13386 C 1276.51 -0.555502 -2.27928 0
M  V30 13387 C 1277.53 0.396584 -1.6942 0
M  V30 13388 O 1278.7 0.262965 -1.99676 0
M  V30 13389 C 1275.77 0.121121 -3.46488 0
M  V30 13390 C 1274.83 -0.874155 -4.20306 0
M  V30 13391 C 1274.06 -0.229726 -5.33205 0
M  V30 13392 O 1274.28 0.975935 -5.61989 0
M  V30 13393 O 1273.22 -0.935501 -5.94586 0
M  V30 13394 H 1277.04 -1.4348 -2.6767 0
M  V30 13395 H 1274.63 -0.763061 -1.28444 0
M  V30 13396 H 1276.51 0.500043 -4.18423 0
M  V30 13397 H 1275.19 0.974959 -3.08668 0
M  V30 13398 H 1274.09 -1.30404 -3.50636 0
M  V30 13399 H 1275.43 -1.69725 -4.62011 0
M  V30 13400 N 1277.08 1.37613 -0.768148 0
M  V30 13401 C 1278.3 2.04579 -0.340892 0
M  V30 13402 C 1278.73 1.57556 1.02751 0
M  V30 13403 O 1278.09 0.734151 1.65771 0
M  V30 13404 C 1278.13 3.58495 -0.389099 0
M  V30 13405 O 1277.24 4.07838 0.611741 0
M  V30 13406 H 1276.58 0.647246 -0.148216 0
M  V30 13407 H 1279.11 1.75999 -1.04333 0
M  V30 13408 H 1279.12 4.07263 -0.245116 0
M  V30 13409 H 1277.79 3.92076 -1.38742 0
M  V30 13410 H 1276.37 3.70399 0.431173 0
M  V30 13411 N 1278.56 0.518393 1.4883 0
M  V30 13412 C 1279.8 -0.019866 2.0209 0
M  V30 13413 C 1280.13 -1.35863 1.3988 0
M  V30 13414 O 1279.4 -1.87722 0.560117 0
M  V30 13415 H 1277.98 -0.0103306 0.746929 0
M  V30 13416 H 1280.64 0.679591 1.82668 0
M  V30 13417 H 1279.73 -0.136749 3.118 0
M  V30 13418 N 1280.03 -1.55556 0.252993 0
M  V30 13419 C 1281.26 -2.03491 -0.374022 0
M  V30 13420 C 1281.68 -1.13208 -1.51094 0
M  V30 13421 O 1281.03 -0.147705 -1.81901 0
M  V30 13422 C 1281.09 -3.50724 -0.876047 0
M  V30 13423 O 1280.81 -4.37569 0.215574 0
M  V30 13424 C 1282.31 -4.14448 -1.57313 0
M  V30 13425 H 1279.53 -0.665183 -0.0881644 0
M  V30 13426 H 1282.07 -2.00964 0.378636 0
M  V30 13427 H 1280.23 -3.53766 -1.57886 0
M  V30 13428 H 1280.64 -5.24235 -0.166625 0
M  V30 13429 H 1282.11 -5.19142 -1.87606 0
M  V30 13430 H 1282.59 -3.61299 -2.49719 0
M  V30 13431 H 1283.2 -4.15346 -0.914735 0
M  V30 13432 N 1281.51 0.0200419 -1.57587 0
M  V30 13433 C 1282.42 1.0346 -2.10555 0
M  V30 13434 C 1283.44 1.39035 -1.0462 0
M  V30 13435 O 1284.61 1.48172 -1.36407 0
M  V30 13436 C 1281.68 2.31389 -2.58186 0
M  V30 13437 C 1280.74 2.02311 -3.7864 0
M  V30 13438 C 1279.97 3.24141 -4.23991 0
M  V30 13439 O 1280.2 4.35132 -3.68803 0
M  V30 13440 O 1279.13 3.09312 -5.16342 0
M  V30 13441 H 1282.96 0.614419 -2.9742 0
M  V30 13442 H 1280.54 0.237604 -1.47498 0
M  V30 13443 H 1282.42 3.06582 -2.89112 0
M  V30 13444 H 1281.1 2.72684 -1.74428 0
M  V30 13445 H 1280.01 1.24658 -3.5272 0
M  V30 13446 H 1281.34 1.65866 -4.6341 0
M  V30 13447 N 1282.99 1.54862 0.292472 0
M  V30 13448 C 1284.24 1.74807 1.02813 0
M  V30 13449 C 1284.57 0.536935 1.8663 0
M  V30 13450 O 1283.84 -0.465854 1.88839 0
M  V30 13451 C 1284.13 3.04202 1.927 0
M  V30 13452 C 1283.98 4.35631 1.12006 0
M  V30 13453 C 1285.3 3.29514 2.91734 0
M  V30 13454 H 1282.42 0.636015 0.372362 0
M  V30 13455 H 1285.06 1.87583 0.302069 0
M  V30 13456 H 1283.21 2.9344 2.54608 0
M  V30 13457 H 1284.88 4.58323 0.52319 0
M  V30 13458 H 1283.13 4.31733 0.42298 0
M  V30 13459 H 1283.8 5.22454 1.78172 0
M  V30 13460 H 1286.27 3.39941 2.39957 0
M  V30 13461 H 1285.15 4.21352 3.51786 0
M  V30 13462 H 1285.41 2.48216 3.65843 0
M  V30 13463 N 1284.47 -0.556076 1.47464 0
M  V30 13464 C 1285.7 -1.33858 1.57764 0
M  V30 13465 C 1286.11 -1.87415 0.22825 0
M  V30 13466 O 1285.47 -1.65054 -0.778674 0
M  V30 13467 C 1285.52 -2.5077 2.60378 0
M  V30 13468 O 1285.24 -1.99426 3.90078 0
M  V30 13469 C 1286.74 -3.42965 2.80873 0
M  V30 13470 H 1283.96 -0.408003 0.532705 0
M  V30 13471 H 1286.51 -0.673501 1.93091 0
M  V30 13472 H 1284.66 -3.13214 2.27982 0
M  V30 13473 H 1285.07 -2.75759 4.46158 0
M  V30 13474 H 1286.55 -4.21412 3.56533 0
M  V30 13475 H 1287.03 -3.96579 1.88737 0
M  V30 13476 H 1287.63 -2.86336 3.14471 0
M  V30 13477 N 1285.95 -1.35615 -0.802897 0
M  V30 13478 C 1286.86 -1.3096 -1.94645 0
M  V30 13479 C 1287.87 -0.213909 -1.7268 0
M  V30 13480 O 1289.05 -0.443932 -1.96446 0
M  V30 13481 C 1286.11 -1.08483 -3.2929 0
M  V30 13482 C 1285.18 -2.27401 -3.64126 0
M  V30 13483 C 1284.41 -2.05987 -4.92347 0
M  V30 13484 O 1284.63 -1.02819 -5.61057 0
M  V30 13485 O 1283.57 -2.93439 -5.25526 0
M  V30 13486 H 1287.39 -2.27209 -2.01519 0
M  V30 13487 H 1284.98 -1.16024 -0.941214 0
M  V30 13488 H 1286.86 -0.978118 -4.09891 0
M  V30 13489 H 1285.53 -0.152885 -3.23339 0
M  V30 13490 H 1284.44 -2.43638 -2.83886 0
M  V30 13491 H 1285.77 -3.19055 -3.74786 0
M  V30 13492 N 1287.43 1.02549 -1.19673 0
M  V30 13493 C 1288.67 1.76004 -1.00144 0
M  V30 13494 C 1289 1.888 0.467423 0
M  V30 13495 O 1288.26 1.404 1.36331 0
M  V30 13496 C 1288.55 3.18597 -1.61959 0
M  V30 13497 C 1288.22 3.258 -3.11713 0
M  V30 13498 C 1286.88 3.27473 -3.52583 0
M  V30 13499 C 1289.23 3.24675 -4.0772 0
M  V30 13500 C 1286.56 3.25681 -4.88005 0
M  V30 13501 C 1288.91 3.24424 -5.43076 0
M  V30 13502 C 1287.58 3.24396 -5.83372 0
M  V30 13503 H 1286.85 0.644044 -0.366453 0
M  V30 13504 H 1289.5 1.20338 -1.48966 0
M  V30 13505 H 1287.8 3.77364 -1.05375 0
M  V30 13506 H 1289.5 3.74109 -1.44374 0
M  V30 13507 H 1286.09 3.25228 -2.7915 0
M  V30 13508 H 1290.27 3.2256 -3.77185 0
M  V30 13509 H 1285.53 3.23986 -5.18501 0
M  V30 13510 H 1289.7 3.22504 -6.17223 0
M  V30 13511 H 1287.33 3.22762 -6.8828 0
M  V30 13512 N 1288.9 1.00119 1.21713 0
M  V30 13513 C 1289.87 0.563409 2.22167 0
M  V30 13514 C 1290.87 -0.35819 1.5676 0
M  V30 13515 O 1292.06 -0.149001 1.73562 0
M  V30 13516 C 1289.19 -0.179365 3.40428 0
M  V30 13517 H 1290.38 1.45189 2.62412 0
M  V30 13518 H 1287.93 0.789286 1.34907 0
M  V30 13519 H 1288.67 -1.08345 3.05666 0
M  V30 13520 H 1288.45 0.482471 3.8912 0
M  V30 13521 H 1289.94 -0.473537 4.14906 0
M  V30 13522 N 1290.38 -1.37203 0.775435 0
M  V30 13523 C 1291.62 -2.01439 0.346649 0
M  V30 13524 C 1291.99 -1.60223 -1.05795 0
M  V30 13525 O 1293.19 -2.16947 -1.58706 0
M  V30 13526 C 1291.46 -3.54031 0.489584 0
M  V30 13527 S 1293.02 -4.38555 0.146606 0
M  V30 13528 H 1289.83 -0.698417 0.133173 0
M  V30 13529 H 1292.44 -1.67338 1.01086 0
M  V30 13530 H 1291.14 -3.81516 1.51241 0
M  V30 13531 H 1290.67 -3.92936 -0.19105 0
M  V30 13532 H 1292.69 -4.8482 -1.05661 0
M  V30 13533 N 1291.86 -0.526279 -1.48553 0
M  V30 13534 C 1293.11 0.00918008 -2.02798 0
M  V30 13535 C 1293.44 1.34284 -1.4029 0
M  V30 13536 O 1292.71 1.86639 -0.547355 0
M  V30 13537 C 1293 0.135102 -3.59846 0
M  V30 13538 C 1292.85 -1.22347 -4.32841 0
M  V30 13539 C 1294.17 0.863673 -4.31542 0
M  V30 13540 H 1291.29 0.00186216 -0.736998 0
M  V30 13541 H 1293.93 -0.682591 -1.77315 0
M  V30 13542 H 1292.08 0.724279 -3.81689 0
M  V30 13543 H 1293.75 -1.85347 -4.22427 0
M  V30 13544 H 1291.99 -1.80631 -3.94405 0
M  V30 13545 H 1292.67 -1.08839 -5.41164 0
M  V30 13546 H 1295.14 0.363734 -4.14507 0
M  V30 13547 H 1294.02 0.92067 -5.41124 0
M  V30 13548 H 1294.28 1.91313 -3.98562 0
M  V30 13549 N 1293.34 1.5542 -0.261239 0
M  V30 13550 C 1294.58 1.99579 0.36002 0
M  V30 13551 C 1294.92 1.14933 1.56538 0
M  V30 13552 O 1294.19 0.216082 1.93296 0
M  V30 13553 C 1294.47 3.52078 0.755842 0
M  V30 13554 C 1294.33 4.47484 -0.455896 0
M  V30 13555 C 1295.65 4.10083 1.5975 0
M  V30 13556 H 1292.77 0.725554 0.129385 0
M  V30 13557 H 1295.41 1.86453 -0.365415 0
M  V30 13558 H 1293.56 3.63394 1.37393 0
M  V30 13559 H 1295.23 4.4813 -1.09441 0
M  V30 13560 H 1293.47 4.19714 -1.09646 0
M  V30 13561 H 1294.14 5.51834 -0.13539 0
M  V30 13562 H 1296.62 4.01957 1.07562 0
M  V30 13563 H 1295.5 5.17024 1.84329 0
M  V30 13564 H 1295.76 3.59438 2.57404 0
M  V30 13565 N 1294.82 -0.0116844 1.57596 0
M  V30 13566 C 1295.78 -0.991601 2.0664 0
M  V30 13567 C 1296.78 -1.27973 0.973629 0
M  V30 13568 O 1297.97 -1.22686 1.23668 0
M  V30 13569 C 1295.1 -2.31975 2.49801 0
M  V30 13570 H 1296.29 -0.567607 2.9448 0
M  V30 13571 H 1293.85 -0.258906 1.54141 0
M  V30 13572 H 1294.58 -2.79087 1.65169 0
M  V30 13573 H 1294.37 -2.12386 3.29598 0
M  V30 13574 H 1295.86 -3.02294 2.88112 0
M  V30 13575 N 1296.29 -1.55015 -0.284256 0
M  V30 13576 C 1297.2 -1.90203 -1.37332 0
M  V30 13577 C 1298.22 -0.797994 -1.54622 0
M  V30 13578 O 1299.4 -1.09602 -1.68965 0
M  V30 13579 C 1296.46 -2.15687 -2.71441 0
M  V30 13580 C 1295.52 -3.39313 -2.62993 0
M  V30 13581 C 1294.75 -3.63571 -3.90707 0
M  V30 13582 O 1294.98 -2.90538 -4.9086 0
M  V30 13583 O 1293.91 -4.57102 -3.91589 0
M  V30 13584 H 1297.74 -2.82888 -1.1049 0
M  V30 13585 H 1295.32 -1.41418 -0.481798 0
M  V30 13586 H 1297.2 -2.33553 -3.50758 0
M  V30 13587 H 1295.88 -1.26185 -2.98092 0
M  V30 13588 H 1294.79 -3.26793 -1.82091 0
M  V30 13589 H 1296.12 -4.28997 -2.41293 0
M  V30 13590 N 1297.77 0.548248 -1.47757 0
M  V30 13591 C 1298.73 1.63666 -1.60456 0
M  V30 13592 C 1299.73 1.53499 -0.479028 0
M  V30 13593 O 1300.92 1.57497 -0.744342 0
M  V30 13594 C 1298.06 3.03239 -1.55754 0
M  V30 13595 H 1299.25 1.53752 -2.57488 0
M  V30 13596 H 1296.8 0.768881 -1.36081 0
M  V30 13597 H 1297.54 3.18677 -0.601303 0
M  V30 13598 H 1297.32 3.12027 -2.37448 0
M  V30 13599 H 1298.81 3.82406 -1.67797 0
M  V30 13600 N 1299.25 1.36039 0.795694 0
M  V30 13601 C 1300.5 1.30112 1.5556 0
M  V30 13602 C 1300.83 -0.121197 1.93821 0
M  V30 13603 O 1300.1 -1.07313 1.62216 0
M  V30 13604 C 1300.39 2.21792 2.8369 0
M  V30 13605 C 1300.24 3.72691 2.51836 0
M  V30 13606 C 1301.56 2.12365 3.85472 0
M  V30 13607 H 1298.68 0.473971 0.564376 0
M  V30 13608 H 1301.32 1.66536 0.91465 0
M  V30 13609 H 1299.47 1.9086 3.38386 0
M  V30 13610 H 1301.14 4.14115 2.0324 0
M  V30 13611 H 1299.38 3.92436 1.84869 0
M  V30 13612 H 1300.06 4.32242 3.43323 0
M  V30 13613 H 1302.53 2.3958 3.40207 0
M  V30 13614 H 1301.41 2.78695 4.72885 0
M  V30 13615 H 1301.67 1.10898 4.27965 0
M  V30 13616 N 1300.73 -1.01913 1.20215 0
M  V30 13617 C 1301.97 -1.7573 1.01226 0
M  V30 13618 C 1302.31 -1.88799 -0.45481 0
M  V30 13619 O 1301.58 -1.41196 -1.33768 0
M  V30 13620 C 1301.87 -3.17795 1.69348 0
M  V30 13621 C 1301.72 -3.12536 3.23483 0
M  V30 13622 C 1303.04 -4.16409 1.42448 0
M  V30 13623 H 1300.16 -0.637889 0.369144 0
M  V30 13624 H 1302.8 -1.18907 1.48193 0
M  V30 13625 H 1300.95 -3.66311 1.29416 0
M  V30 13626 H 1302.62 -2.71843 3.72692 0
M  V30 13627 H 1300.86 -2.49997 3.54519 0
M  V30 13628 H 1301.53 -4.12949 3.66302 0
M  V30 13629 H 1304.01 -3.76537 1.77086 0
M  V30 13630 H 1302.89 -5.13983 1.92648 0
M  V30 13631 H 1303.15 -4.407 0.351574 0
M  V30 13632 N 1302.21 -1.00763 -1.2118 0
M  V30 13633 C 1303.15 -0.570257 -2.23644 0
M  V30 13634 C 1304.12 0.405039 -1.61086 0
M  V30 13635 O 1305.31 0.306496 -1.88322 0
M  V30 13636 C 1302.45 0.094325 -3.44971 0
M  V30 13637 C 1301.56 -0.924463 -4.21993 0
M  V30 13638 C 1300.7 -0.231869 -5.30694 0
M  V30 13639 C 1299.74 -1.23803 -5.99449 0
M  V30 13640 N 1298.87 -0.572725 -6.9976 0
M  V30 13641 H 1303.71 -1.44869 -2.60417 0
M  V30 13642 H 1301.25 -0.725369 -1.27972 0
M  V30 13643 H 1303.21 0.496689 -4.14233 0
M  V30 13644 H 1301.84 0.936457 -3.08918 0
M  V30 13645 H 1300.89 -1.44505 -3.51884 0
M  V30 13646 H 1302.2 -1.69004 -4.69296 0
M  V30 13647 H 1301.36 0.226465 -6.06277 0
M  V30 13648 H 1300.09 0.566092 -4.84403 0
M  V30 13649 H 1299.1 -1.70684 -5.22635 0
M  V30 13650 H 1300.32 -2.03711 -6.47826 0
M  V30 13651 H 1298.27 0.205531 -6.55678 0
M  V30 13652 H 1298.19 -1.27651 -7.45145 0
M  V30 13653 H 1299.46 -0.137683 -7.79378 0
M  V30 13654 N 1303.68 1.3679 -0.7827 0
M  V30 13655 C 1304.91 2.03678 -0.363734 0
M  V30 13656 C 1305.33 1.59024 1.01768 0
M  V30 13657 O 1304.68 0.776541 1.65155 0
M  V30 13658 C 1304.74 3.59165 -0.410213 0
M  V30 13659 O 1304.46 4.02188 -1.73714 0
M  V30 13660 C 1305.96 4.43296 0.018972 0
M  V30 13661 H 1303.18 0.653828 -0.150829 0
M  V30 13662 H 1305.72 1.74903 -1.05968 0
M  V30 13663 H 1303.88 3.86673 0.237249 0
M  V30 13664 H 1304.29 4.96754 -1.68332 0
M  V30 13665 H 1305.76 5.51962 -0.0646943 0
M  V30 13666 H 1306.24 4.25948 1.07076 0
M  V30 13667 H 1306.85 4.21036 -0.600721 0
M  V30 13668 N 1305.16 0.53415 1.48272 0
M  V30 13669 C 1306.09 -0.215037 2.32508 0
M  V30 13670 C 1307.07 -0.931083 1.42355 0
M  V30 13671 O 1308.26 -0.916051 1.71237 0
M  V30 13672 C 1305.39 -1.25985 3.23643 0
M  V30 13673 C 1304.34 -0.661692 4.22854 0
M  V30 13674 C 1303.67 -1.80946 5.03153 0
M  V30 13675 C 1304.97 0.369358 5.20992 0
M  V30 13676 H 1306.66 0.488158 2.95394 0
M  V30 13677 H 1304.21 0.236206 1.4205 0
M  V30 13678 H 1306.16 -1.79195 3.81402 0
M  V30 13679 H 1304.89 -1.99268 2.58766 0
M  V30 13680 H 1303.54 -0.151082 3.66289 0
M  V30 13681 H 1303.19 -2.53077 4.34696 0
M  V30 13682 H 1302.89 -1.41513 5.70305 0
M  V30 13683 H 1304.42 -2.34526 5.63764 0
M  V30 13684 H 1305.83 -0.0758076 5.7325 0
M  V30 13685 H 1304.23 0.681301 5.9622 0
M  V30 13686 H 1305.3 1.27363 4.67875 0
M  V30 13687 N 1306.64 -1.55279 0.269478 0
M  V30 13688 C 1307.57 -2.19684 -0.653573 0
M  V30 13689 C 1308.59 -1.17985 -1.12176 0
M  V30 13690 O 1309.77 -1.44739 -1.04464 0
M  V30 13691 C 1306.87 -2.80438 -1.90284 0
M  V30 13692 C 1306.05 -4.07774 -1.58239 0
M  V30 13693 C 1305.11 -4.52629 -2.68354 0
M  V30 13694 O 1304.13 -5.18524 -2.3478 0
M  V30 13695 N 1305.33 -4.22297 -3.98303 0
M  V30 13696 H 1308.1 -2.99525 -0.102379 0
M  V30 13697 H 1305.66 -1.61648 0.0903465 0
M  V30 13698 H 1307.65 -3.07392 -2.63234 0
M  V30 13699 H 1306.22 -2.04622 -2.36323 0
M  V30 13700 H 1305.44 -3.88168 -0.686983 0
M  V30 13701 H 1306.73 -4.90749 -1.34323 0
M  V30 13702 H 1306.13 -3.69441 -4.28404 0
M  V30 13703 H 1304.69 -4.54035 -4.67649 0
M  V30 13704 N 1308.12 0.00332656 -1.576 0
M  V30 13705 C 1309.53 0.546581 -1.7852 0
M  V30 13706 C 1309.88 1.74147 -0.903722 0
M  V30 13707 O 1309.01 2.16144 -0.105314 0
M  V30 13708 C 1309.6 0.998344 -3.23757 0
M  V30 13709 C 1308.16 1.48693 -3.45785 0
M  V30 13710 C 1307.31 0.436617 -2.73841 0
M  V30 13711 H 1310.26 -0.222852 -1.57128 0
M  V30 13712 H 1310.28 1.86452 -3.31686 0
M  V30 13713 H 1309.79 0.128479 -3.87887 0
M  V30 13714 H 1307.89 2.3778 -2.86865 0
M  V30 13715 H 1308 1.51668 -4.5446 0
M  V30 13716 H 1306.37 0.897506 -2.38363 0
M  V30 13717 H 1307.15 -0.424225 -3.40669 0
M  V30 13718 N 1309.6 1.55164 0.276031 0
M  V30 13719 C 1310.84 1.75887 1.00953 0
M  V30 13720 C 1311.18 0.5567 1.8605 0
M  V30 13721 O 1310.45 -0.445799 1.89322 0
M  V30 13722 C 1310.73 3.06228 1.89463 0
M  V30 13723 C 1310.59 4.36795 1.07379 0
M  V30 13724 C 1311.91 3.32589 2.88223 0
M  V30 13725 H 1309.02 0.639929 0.365596 0
M  V30 13726 H 1311.67 1.87893 0.282156 0
M  V30 13727 H 1309.82 2.96124 2.51481 0
M  V30 13728 H 1311.49 4.58853 0.474549 0
M  V30 13729 H 1309.73 4.32157 0.377165 0
M  V30 13730 H 1310.4 5.24315 1.72621 0
M  V30 13731 H 1312.88 3.42467 2.36338 0
M  V30 13732 H 1311.75 4.2506 3.47297 0
M  V30 13733 H 1312.02 2.52083 3.6319 0
M  V30 13734 N 1311.07 -0.540404 1.48045 0
M  V30 13735 C 1312.3 -1.32656 1.59427 0
M  V30 13736 C 1312.72 -1.86419 0.250924 0
M  V30 13737 O 1312.08 -1.63861 -0.775838 0
M  V30 13738 C 1312.13 -2.46062 2.63602 0
M  V30 13739 O 1311.23 -3.48794 2.20038 0
M  V30 13740 H 1310.58 -0.393334 0.534962 0
M  V30 13741 H 1313.11 -0.651363 1.93955 0
M  V30 13742 H 1313.12 -2.92396 2.84549 0
M  V30 13743 H 1311.79 -2.06291 3.61133 0
M  V30 13744 H 1310.37 -3.0865 2.0926 0
M  V30 13745 N 1312.55 -1.36459 -0.788468 0
M  V30 13746 C 1313.83 -1.21289 -1.53455 0
M  V30 13747 C 1314.21 0.200549 -2.10145 0
M  V30 13748 O 1313.56 1.20629 -1.94064 0
M  V30 13749 C 1313.77 -2.29562 -2.62873 0
M  V30 13750 C 1315.12 -2.66277 -3.30729 0
M  V30 13751 O 1316.14 -2.28612 -2.73157 0
M  V30 13752 O 1315 -3.31106 -4.34777 0
M  V30 13753 H 1312.09 -0.472306 -0.678864 0
M  V30 13754 H 1314.64 -1.48192 -0.826869 0
M  V30 13755 H 1313.41 -3.24286 -2.18984 0
M  V30 13756 H 1313.03 -2.0403 -3.41259 0
M  V30 13757 N 1314.03 1.01274 -1.20754 0
M  V30 13758 C 1314.96 2.11763 -0.983805 0
M  V30 13759 C 1315.94 1.69869 0.0885635 0
M  V30 13760 O 1317.13 1.94075 -0.0697239 0
M  V30 13761 C 1314.26 3.43087 -0.539287 0
M  V30 13762 C 1313.21 3.9874 -1.55534 0
M  V30 13763 C 1312.54 5.25877 -0.967322 0
M  V30 13764 C 1313.84 4.31688 -2.94012 0
M  V30 13765 H 1315.53 2.30737 -1.90789 0
M  V30 13766 H 1313.08 1.10884 -0.918734 0
M  V30 13767 H 1315.03 4.19773 -0.369979 0
M  V30 13768 H 1313.75 3.23883 0.420435 0
M  V30 13769 H 1312.41 3.24166 -1.71207 0
M  V30 13770 H 1312.06 5.03 0.000448307 0
M  V30 13771 H 1311.76 5.64077 -1.64594 0
M  V30 13772 H 1313.28 6.05215 -0.809167 0
M  V30 13773 H 1314.7 4.99246 -2.81827 0
M  V30 13774 H 1313.1 4.81011 -3.58815 0
M  V30 13775 H 1314.17 3.4029 -3.45442 0
M  V30 13776 N 1315.51 1.01404 1.20644 0
M  V30 13777 C 1316.44 0.602465 2.25594 0
M  V30 13778 C 1317.42 -0.381216 1.65773 0
M  V30 13779 O 1318.61 -0.267209 1.92353 0
M  V30 13780 C 1315.74 -0.0626245 3.47244 0
M  V30 13781 C 1314.69 0.841776 4.1964 0
M  V30 13782 C 1314.02 0.0426002 5.34683 0
M  V30 13783 C 1315.32 2.14864 4.76058 0
M  V30 13784 H 1317.01 1.47977 2.60275 0
M  V30 13785 H 1314.56 0.712966 1.25111 0
M  V30 13786 H 1316.51 -0.362095 4.19841 0
M  V30 13787 H 1315.23 -0.974627 3.11719 0
M  V30 13788 H 1313.89 1.12521 3.48905 0
M  V30 13789 H 1313.54 -0.870973 4.95402 0
M  V30 13790 H 1313.24 0.644866 5.84051 0
M  V30 13791 H 1314.76 -0.250476 6.10086 0
M  V30 13792 H 1316.18 1.9117 5.40488 0
M  V30 13793 H 1314.57 2.70153 5.35852 0
M  V30 13794 H 1315.64 2.81336 3.9494 0
M  V30 13795 N 1316.99 -1.36373 0.789944 0
M  V30 13796 C 1318.22 -2.03482 0.37453 0
M  V30 13797 C 1318.63 -1.59562 -1.00923 0
M  V30 13798 O 1317.99 -0.785289 -1.64741 0
M  V30 13799 C 1318.04 -3.58942 0.429255 0
M  V30 13800 O 1317.76 -4.01261 1.75845 0
M  V30 13801 C 1319.26 -4.433 0.00453729 0
M  V30 13802 H 1316.48 -0.653019 0.154295 0
M  V30 13803 H 1319.02 -1.74339 1.06894 0
M  V30 13804 H 1317.18 -3.86793 -0.21674 0
M  V30 13805 H 1317.59 -4.95854 1.70964 0
M  V30 13806 H 1319.07 -5.5192 0.0939653 0
M  V30 13807 H 1319.54 -4.26509 -1.04816 0
M  V30 13808 H 1320.15 -4.20712 0.623041 0
M  V30 13809 N 1318.47 -0.542005 -1.47987 0
M  V30 13810 C 1319.41 0.227398 -2.31486 0
M  V30 13811 C 1320.41 0.923984 -1.41982 0
M  V30 13812 O 1321.61 0.847 -1.58827 0
M  V30 13813 H 1317.99 0.0922034 -0.746326 0
M  V30 13814 H 1319.96 -0.49625 -2.94245 0
M  V30 13815 C 1318.71 1.25384 -3.24306 0
M  V30 13816 H 1318.03 0.727243 -3.9313 0
M  V30 13817 H 1319.47 1.76337 -3.85592 0
M  V30 13818 C 1317.93 2.29378 -2.46754 0
M  V30 13819 O 1318.46 3.36034 -2.201 0
M  V30 13820 N 1316.67 2.02905 -2.08033 0
M  V30 13821 H 1316.21 1.16186 -2.2991 0
M  V30 13822 H 1316.17 2.72705 -1.56458 0
M  V30 13823 N 1319.94 1.55134 -0.277709 0
M  V30 13824 C 1320.88 2.18745 0.650058 0
M  V30 13825 C 1321.85 1.14922 1.15029 0
M  V30 13826 O 1323.04 1.43458 1.22278 0
M  V30 13827 C 1320.17 2.81277 1.88683 0
M  V30 13828 C 1319.21 3.98425 1.52185 0
M  V30 13829 S 1320.04 5.32153 0.597782 0
M  V30 13830 C 1321.2 5.98155 1.84287 0
M  V30 13831 H 1321.43 2.97098 0.109571 0
M  V30 13832 H 1318.97 1.54276 -0.0619536 0
M  V30 13833 H 1320.92 3.17934 2.59669 0
M  V30 13834 H 1319.59 2.02813 2.39845 0
M  V30 13835 H 1318.78 4.40877 2.4422 0
M  V30 13836 H 1318.38 3.63203 0.892146 0
M  V30 13837 H 1320.67 6.17546 2.78646 0
M  V30 13838 H 1321.62 6.92857 1.46131 0
M  V30 13839 H 1322.02 5.27541 2.00899 0
M  V30 13840 N 1321.42 0.00503138 1.57599 0
M  V30 13841 C 1322.67 -0.67742 1.90409 0
M  V30 13842 C 1322.99 -1.74033 0.87963 0
M  V30 13843 O 1322.26 -1.95727 -0.0822757 0
M  V30 13844 H 1320.84 -0.2532 0.702779 0
M  V30 13845 H 1323.5 0.0471466 1.94843 0
M  V30 13846 H 1322.6 -1.14548 2.90319 0
M  V30 13847 N 1322.9 -1.55308 -0.267798 0
M  V30 13848 C 1324.15 -1.75364 -0.996515 0
M  V30 13849 C 1324.46 -0.565028 -1.87261 0
M  V30 13850 O 1325.67 -0.648119 -2.63651 0
M  V30 13851 C 1324.12 -3.10388 -1.82175 0
M  V30 13852 C 1323.73 -4.36832 -0.994062 0
M  V30 13853 C 1325.48 -3.39791 -2.54445 0
M  V30 13854 C 1323.38 -5.62893 -1.81398 0
M  V30 13855 H 1322.31 -0.653679 -0.375793 0
M  V30 13856 H 1324.96 -1.81762 -0.251975 0
M  V30 13857 H 1323.35 -2.98041 -2.60744 0
M  V30 13858 H 1324.52 -4.6011 -0.252167 0
M  V30 13859 H 1322.83 -4.1461 -0.385662 0
M  V30 13860 H 1325.43 -4.31184 -3.16203 0
M  V30 13861 H 1325.77 -2.60159 -3.24997 0
M  V30 13862 H 1326.31 -3.53259 -1.82902 0
M  V30 13863 H 1323.05 -6.45287 -1.15258 0
M  V30 13864 H 1322.57 -5.43751 -2.5317 0
M  V30 13865 H 1324.25 -6.01384 -2.38634 0
M  V30 13866 N 1324.38 0.532545 -1.4833 0
M  V30 13867 C 1325.65 1.29371 -1.46705 0
M  V30 13868 C 1326.03 2.10354 -0.177329 0
M  V30 13869 O 1325.38 2.12462 0.840968 0
M  V30 13870 C 1325.59 2.17733 -2.72751 0
M  V30 13871 C 1326.94 2.77956 -3.20976 0
M  V30 13872 O 1327.96 2.28022 -2.7365 0
M  V30 13873 O 1326.82 3.68779 -4.03317 0
M  V30 13874 H 1323.92 0.58378 -0.585773 0
M  V30 13875 H 1326.46 0.549411 -1.6056 0
M  V30 13876 H 1325.24 1.57659 -3.58133 0
M  V30 13877 H 1324.86 2.99415 -2.61603 0
M  V30 13878 N 1325.86 1.36875 0.78122 0
M  V30 13879 C 1326.79 1.34559 1.9083 0
M  V30 13880 C 1327.77 0.215713 1.68727 0
M  V30 13881 O 1328.95 0.41462 1.89722 0
M  V30 13882 C 1326.08 1.14233 3.27976 0
M  V30 13883 C 1325.04 2.24132 3.64621 0
M  V30 13884 C 1324.36 1.8894 5.00206 0
M  V30 13885 C 1325.66 3.66266 3.72353 0
M  V30 13886 H 1327.36 2.28871 1.93025 0
M  V30 13887 H 1324.9 1.10171 0.927275 0
M  V30 13888 H 1326.85 1.11246 4.06451 0
M  V30 13889 H 1325.58 0.163747 3.26189 0
M  V30 13890 H 1324.24 2.26259 2.88448 0
M  V30 13891 H 1323.89 0.896351 4.94949 0
M  V30 13892 H 1323.59 2.62525 5.25694 0
M  V30 13893 H 1325.11 1.87523 5.81092 0
M  V30 13894 H 1326.52 3.66321 4.41001 0
M  V30 13895 H 1324.92 4.38825 4.09332 0
M  V30 13896 H 1325.99 4.00578 2.7325 0
M  V30 13897 N 1327.33 -1.00632 1.21289 0
M  V30 13898 C 1328.61 -1.71635 0.938124 0
M  V30 13899 C 1328.99 -2.03798 -0.550416 0
M  V30 13900 O 1328.34 -1.71065 -1.5149 0
M  V30 13901 C 1328.55 -2.97674 1.82184 0
M  V30 13902 C 1329.9 -3.7073 2.06989 0
M  V30 13903 O 1330.92 -3.07653 1.79522 0
M  V30 13904 O 1329.78 -4.84183 2.53435 0
M  V30 13905 H 1326.87 -0.748506 0.351664 0
M  V30 13906 H 1329.42 -1.06387 1.32212 0
M  V30 13907 H 1328.19 -2.70306 2.82931 0
M  V30 13908 H 1327.81 -3.70663 1.43858 0
M  V30 13909 N 1328.81 -1.02043 -1.20104 0
M  V30 13910 C 1329.72 -0.603724 -2.26699 0
M  V30 13911 C 1330.74 0.360558 -1.70223 0
M  V30 13912 O 1331.91 0.220552 -2.00189 0
M  V30 13913 C 1328.98 0.0475988 -3.46667 0
M  V30 13914 C 1328.04 -0.963111 -4.18357 0
M  V30 13915 C 1327.27 -0.342775 -5.32598 0
M  V30 13916 O 1327.5 0.856509 -5.63933 0
M  V30 13917 O 1326.43 -1.06141 -5.92467 0
M  V30 13918 H 1330.26 -1.49125 -2.64566 0
M  V30 13919 H 1327.84 -0.790134 -1.26796 0
M  V30 13920 H 1329.72 0.411177 -4.19389 0
M  V30 13921 H 1328.4 0.909266 -3.10667 0
M  V30 13922 H 1327.3 -1.37813 -3.47791 0
M  V30 13923 H 1328.64 -1.79487 -4.58307 0
M  V30 13924 N 1330.29 1.35952 -0.797165 0
M  V30 13925 C 1331.54 1.99765 -0.382794 0
M  V30 13926 C 1331.89 1.62119 1.0361 0
M  V30 13927 O 1331.18 0.869648 1.70727 0
M  V30 13928 C 1331.38 3.53986 -0.492805 0
M  V30 13929 C 1331.21 4.06612 -1.92085 0
M  V30 13930 C 1329.98 4.36403 -2.54716 0
M  V30 13931 C 1332.18 4.25823 -2.88409 0
M  V30 13932 N 1330.16 4.749 -3.89028 0
M  V30 13933 C 1331.53 4.67211 -4.07571 0
M  V30 13934 C 1333.58 4.0801 -2.85364 0
M  V30 13935 C 1332.29 4.9265 -5.24107 0
M  V30 13936 C 1334.31 4.346 -4.01095 0
M  V30 13937 C 1333.67 4.76252 -5.19003 0
M  V30 13938 H 1329.77 0.759152 -0.18765 0
M  V30 13939 H 1332.36 1.64823 -1.03641 0
M  V30 13940 H 1330.53 3.8818 0.130762 0
M  V30 13941 H 1332.26 4.04664 -0.0539319 0
M  V30 13942 H 1329.02 4.26384 -2.06139 0
M  V30 13943 H 1329.44 4.98422 -4.58154 0
M  V30 13944 H 1334.08 3.74958 -1.95363 0
M  V30 13945 H 1331.8 5.2458 -6.14688 0
M  V30 13946 H 1335.39 4.2238 -4.00108 0
M  V30 13947 H 1334.27 4.96427 -6.07066 0
M  V30 13948 N 1331.77 0.549846 1.47697 0
M  V30 13949 C 1332.99 0.0256819 2.07384 0
M  V30 13950 C 1333.42 -1.25525 1.4009 0
M  V30 13951 O 1332.78 -1.7501 0.473406 0
M  V30 13952 C 1332.82 -0.160835 3.60241 0
M  V30 13953 O 1331.93 -1.22509 3.93783 0
M  V30 13954 H 1331.27 0.0480204 0.662261 0
M  V30 13955 H 1333.8 0.763429 1.89823 0
M  V30 13956 H 1333.81 -0.377337 4.06251 0
M  V30 13957 H 1332.48 0.774774 4.0862 0
M  V30 13958 H 1331.06 -0.98967 3.59527 0
M  V30 13959 N 1333.25 -1.54984 0.285932 0
M  V30 13960 C 1334.49 -2.00126 -0.328223 0
M  V30 13961 C 1334.83 -1.17409 -1.54689 0
M  V30 13962 O 1334.1 -0.246806 -1.92928 0
M  V30 13963 C 1334.38 -3.53236 -0.699733 0
M  V30 13964 C 1334.24 -4.46702 0.527029 0
M  V30 13965 C 1335.56 -4.12572 -1.53206 0
M  V30 13966 H 1332.67 -0.727521 -0.117825 0
M  V30 13967 H 1335.32 -1.85848 0.395032 0
M  V30 13968 H 1333.47 -3.65534 -1.31594 0
M  V30 13969 H 1335.14 -4.46332 1.16557 0
M  V30 13970 H 1333.38 -4.17917 1.1631 0
M  V30 13971 H 1334.05 -5.51549 0.223165 0
M  V30 13972 H 1336.53 -4.03618 -1.01154 0
M  V30 13973 H 1335.4 -5.19891 -1.7608 0
M  V30 13974 H 1335.67 -3.63487 -2.51654 0
M  V30 13975 N 1334.72 -0.0133892 -1.57594 0
M  V30 13976 C 1335.69 0.958601 -2.08191 0
M  V30 13977 C 1336.69 1.26408 -0.993865 0
M  V30 13978 O 1337.88 1.20703 -1.25604 0
M  V30 13979 C 1335.01 2.27971 -2.5346 0
M  V30 13980 H 1336.2 0.520686 -2.95345 0
M  V30 13981 H 1333.76 0.234351 -1.54533 0
M  V30 13982 H 1334.49 2.76424 -1.69588 0
M  V30 13983 H 1334.28 2.07116 -3.32935 0
M  V30 13984 H 1335.77 2.97672 -2.92884 0
M  V30 13985 N 1336.2 1.55448 0.259558 0
M  V30 13986 C 1337.43 1.80727 1.00723 0
M  V30 13987 C 1337.85 0.587354 1.79431 0
M  V30 13988 O 1337.2 -0.443819 1.77021 0
M  V30 13989 C 1337.25 3.04064 1.95517 0
M  V30 13990 O 1336.97 4.21346 1.19996 0
M  V30 13991 C 1338.48 3.42049 2.81988 0
M  V30 13992 H 1335.7 0.601713 0.296956 0
M  V30 13993 H 1338.24 2.02486 0.286273 0
M  V30 13994 H 1336.39 2.84392 2.63058 0
M  V30 13995 H 1336.81 4.91164 1.84006 0
M  V30 13996 H 1338.28 4.31485 3.44274 0
M  V30 13997 H 1338.76 2.62059 3.52451 0
M  V30 13998 H 1339.37 3.64027 2.19918 0
M  V30 13999 N 1337.68 -0.524672 1.4861 0
M  V30 14000 C 1338.93 -1.28021 1.56898 0
M  V30 14001 C 1339.26 -1.92948 0.245203 0
M  V30 14002 O 1338.51 -1.8013 -0.764966 0
M  V30 14003 C 1338.81 -2.3871 2.65993 0
M  V30 14004 C 1338.48 -1.914 4.08261 0
M  V30 14005 C 1337.14 -1.78215 4.46982 0
M  V30 14006 C 1339.49 -1.55713 4.97396 0
M  V30 14007 C 1336.82 -1.27687 5.72637 0
M  V30 14008 C 1339.17 -1.06645 6.23546 0
M  V30 14009 C 1337.83 -0.920818 6.61118 0
M  V30 14010 H 1337.1 -0.468461 0.57413 0
M  V30 14011 H 1339.75 -0.584901 1.82349 0
M  V30 14012 H 1338.06 -3.13932 2.34422 0
M  V30 14013 H 1339.75 -2.96827 2.6962 0
M  V30 14014 H 1336.34 -2.02614 3.77684 0
M  V30 14015 H 1340.53 -1.64757 4.68155 0
M  V30 14016 H 1335.78 -1.15103 6.00468 0
M  V30 14017 H 1339.96 -0.781048 6.92006 0
M  V30 14018 H 1337.58 -0.527091 7.5837 0
M  V30 14019 N 1339.16 -1.37287 -0.77395 0
M  V30 14020 C 1340.39 -1.35366 -1.56075 0
M  V30 14021 C 1340.8 0.0634437 -1.89094 0
M  V30 14022 O 1340.14 1.03503 -1.51766 0
M  V30 14023 C 1340.2 -2.12512 -2.89964 0
M  V30 14024 C 1339.87 -3.61492 -2.79593 0
M  V30 14025 C 1340.86 -4.55421 -2.50774 0
M  V30 14026 C 1338.55 -4.04585 -2.97684 0
M  V30 14027 C 1340.54 -5.90421 -2.4017 0
M  V30 14028 C 1338.23 -5.39672 -2.86701 0
M  V30 14029 C 1339.23 -6.32403 -2.57984 0
M  V30 14030 O 1338.91 -7.65006 -2.47024 0
M  V30 14031 H 1338.65 -0.465447 -0.49024 0
M  V30 14032 H 1341.2 -1.81199 -0.967273 0
M  V30 14033 H 1339.43 -1.61366 -3.51423 0
M  V30 14034 H 1341.12 -2.03253 -3.51345 0
M  V30 14035 H 1341.89 -4.23438 -2.36485 0
M  V30 14036 H 1337.76 -3.32769 -3.19038 0
M  V30 14037 H 1341.31 -6.62769 -2.17676 0
M  V30 14038 H 1337.21 -5.71258 -3.00558 0
M  V30 14039 H 1337.97 -7.75302 -2.6239 0
M  V30 14040 N 1340.64 0.999871 -1.21821 0
M  V30 14041 C 1341.57 2.10708 -1.00621 0
M  V30 14042 C 1342.55 1.69954 0.0705417 0
M  V30 14043 O 1343.73 1.9399 -0.0903042 0
M  V30 14044 C 1340.86 3.42496 -0.575646 0
M  V30 14045 C 1339.82 3.97068 -1.59754 0
M  V30 14046 C 1339.14 5.24822 -1.02304 0
M  V30 14047 C 1340.44 4.28545 -2.98574 0
M  V30 14048 H 1342.14 2.28701 -1.93226 0
M  V30 14049 H 1339.68 1.09903 -0.930443 0
M  V30 14050 H 1341.64 4.19357 -0.414481 0
M  V30 14051 H 1340.36 3.2431 0.386059 0
M  V30 14052 H 1339.02 3.22332 -1.74636 0
M  V30 14053 H 1338.67 5.02972 -0.0529016 0
M  V30 14054 H 1338.37 5.62299 -1.70567 0
M  V30 14055 H 1339.89 6.04322 -0.873312 0
M  V30 14056 H 1341.3 4.96229 -2.87106 0
M  V30 14057 H 1339.7 4.77178 -3.63897 0
M  V30 14058 H 1340.77 3.36607 -3.49032 0
M  V30 14059 N 1342.11 1.02678 1.19562 0
M  V30 14060 C 1343.36 0.722016 1.89191 0
M  V30 14061 C 1343.69 -0.749217 1.79491 0
M  V30 14062 O 1342.94 -1.56105 1.18025 0
M  V30 14063 C 1343.24 1.11603 3.39529 0
M  V30 14064 C 1342.91 2.58518 3.69431 0
M  V30 14065 C 1341.57 2.98658 3.77302 0
M  V30 14066 C 1343.92 3.53579 3.82925 0
M  V30 14067 C 1341.25 4.32776 3.96134 0
M  V30 14068 C 1343.6 4.87398 4.0327 0
M  V30 14069 C 1342.27 5.27229 4.09373 0
M  V30 14070 H 1341.54 0.264204 0.692298 0
M  V30 14071 H 1344.18 1.28924 1.41601 0
M  V30 14072 H 1342.49 0.467374 3.89002 0
M  V30 14073 H 1344.19 0.857771 3.91718 0
M  V30 14074 H 1340.78 2.26421 3.63911 0
M  V30 14075 H 1344.96 3.23721 3.76189 0
M  V30 14076 H 1340.22 4.63175 3.99098 0
M  V30 14077 H 1344.39 5.60973 4.12653 0
M  V30 14078 H 1342.02 6.31164 4.23718 0
M  V30 14079 N 1343.59 -1.35528 0.804364 0
M  V30 14080 C 1344.87 -1.93175 0.307049 0
M  V30 14081 C 1345.25 -1.73466 -1.20303 0
M  V30 14082 O 1344.6 -1.10235 -2.00151 0
M  V30 14083 C 1344.81 -3.41576 0.716018 0
M  V30 14084 C 1346.16 -4.18719 0.704242 0
M  V30 14085 O 1347.18 -3.50081 0.657423 0
M  V30 14086 O 1346.04 -5.41181 0.760601 0
M  V30 14087 H 1343.13 -0.823142 0.0797888 0
M  V30 14088 H 1345.68 -1.44617 0.887912 0
M  V30 14089 H 1344.45 -3.49642 1.75688 0
M  V30 14090 H 1344.07 -3.97448 0.109843 0
M  V30 14091 N 1345.07 -0.557671 -1.47404 0
M  V30 14092 C 1346.35 0.031908 -1.95574 0
M  V30 14093 C 1346.73 1.48509 -1.50027 0
M  V30 14094 O 1346.08 2.16209 -0.73932 0
M  V30 14095 C 1346.29 -0.114055 -3.48814 0
M  V30 14096 C 1347.63 0.0310533 -4.24589 0
M  V30 14097 O 1348.66 -0.041626 -3.56176 0
M  V30 14098 O 1347.52 0.187487 -5.46178 0
M  V30 14099 H 1344.61 0.0638747 -0.82453 0
M  V30 14100 H 1347.16 -0.624227 -1.57802 0
M  V30 14101 H 1345.93 -1.12525 -3.74772 0
M  V30 14102 H 1345.55 0.57967 -3.93352 0
M  V30 14103 N 1346.55 1.54831 -0.294147 0
M  V30 14104 C 1347.51 2.21946 0.572061 0
M  V30 14105 C 1348.51 1.20331 1.06663 0
M  V30 14106 O 1349.7 1.45112 0.963757 0
M  V30 14107 C 1346.83 2.90044 1.7913 0
M  V30 14108 H 1348.03 2.99897 -0.0142234 0
M  V30 14109 H 1345.58 1.56235 -0.0449187 0
M  V30 14110 H 1346.32 2.16154 2.4176 0
M  V30 14111 H 1346.1 3.64527 1.44439 0
M  V30 14112 H 1347.59 3.41263 2.40684 0
M  V30 14113 N 1348.03 0.0217466 1.57585 0
M  V30 14114 C 1349.28 -0.657187 1.91116 0
M  V30 14115 C 1349.6 -1.7309 0.898039 0
M  V30 14116 O 1348.87 -1.95803 -0.0615116 0
M  V30 14117 H 1347.45 -0.245732 0.705425 0
M  V30 14118 H 1350.11 0.0678096 1.94782 0
M  V30 14119 H 1349.2 -1.11462 2.91518 0
M  V30 14120 N 1349.51 -1.55583 -0.251311 0
M  V30 14121 C 1350.42 -1.93073 -1.33266 0
M  V30 14122 C 1351.43 -0.830612 -1.52895 0
M  V30 14123 O 1352.61 -1.13162 -1.66602 0
M  V30 14124 C 1349.67 -2.21396 -2.66805 0
M  V30 14125 C 1348.73 -3.44815 -2.55737 0
M  V30 14126 C 1347.97 -3.71777 -3.82907 0
M  V30 14127 O 1348.19 -3.00884 -4.84587 0
M  V30 14128 O 1347.12 -4.65305 -3.81805 0
M  V30 14129 H 1350.95 -2.85168 -1.04465 0
M  V30 14130 H 1348.53 -1.42408 -0.451693 0
M  V30 14131 H 1350.42 -2.4094 -3.45725 0
M  V30 14132 H 1349.09 -1.3248 -2.95348 0
M  V30 14133 H 1348 -3.30582 -1.75118 0
M  V30 14134 H 1349.33 -4.34019 -2.32139 0
M  V30 14135 N 1350.98 0.516783 -1.48886 0
M  V30 14136 C 1351.89 1.6467 -1.67095 0
M  V30 14137 C 1352.91 1.64963 -0.553466 0
M  V30 14138 O 1354.09 1.83673 -0.826206 0
M  V30 14139 C 1351.15 3.01095 -1.71879 0
M  V30 14140 C 1350.21 3.11554 -2.95352 0
M  V30 14141 C 1349.44 4.41471 -2.99898 0
M  V30 14142 O 1349.67 5.29348 -2.12477 0
M  V30 14143 O 1348.6 4.56573 -3.92205 0
M  V30 14144 H 1352.43 1.52242 -2.62785 0
M  V30 14145 H 1350.01 0.69134 -1.32442 0
M  V30 14146 H 1351.89 3.82207 -1.77471 0
M  V30 14147 H 1350.57 3.1382 -0.793656 0
M  V30 14148 H 1349.48 2.29689 -2.95286 0
M  V30 14149 H 1350.81 3.03751 -3.87294 0
M  V30 14150 N 1352.46 1.37696 0.766659 0
M  V30 14151 C 1353.41 1.33966 1.90147 0
M  V30 14152 C 1354.4 0.2276 1.67864 0
M  V30 14153 O 1355.61 0.395912 1.75592 0
M  V30 14154 H 1351.98 0.417611 0.625384 0
M  V30 14155 H 1353.96 2.29753 1.9041 0
M  V30 14156 C 1352.7 1.16859 3.27474 0
M  V30 14157 H 1352.03 2.01686 3.452 0
M  V30 14158 H 1353.47 1.18301 4.07162 0
M  V30 14159 C 1351.93 -0.125418 3.36666 0
M  V30 14160 O 1352.46 -1.10717 3.86141 0
M  V30 14161 N 1350.66 -0.17784 2.90055 0
M  V30 14162 H 1350.21 0.621737 2.49984 0
M  V30 14163 H 1350.17 -1.04325 2.96587 0
M  V30 14164 N 1353.94 -0.993397 1.22349 0
M  V30 14165 C 1355.19 -1.73287 1.04775 0
M  V30 14166 C 1355.51 -1.89973 -0.417201 0
M  V30 14167 O 1354.77 -1.43966 -1.32561 0
M  V30 14168 C 1355.07 -3.14191 1.70349 0
M  V30 14169 C 1354.73 -3.17421 3.20241 0
M  V30 14170 C 1353.4 -3.1801 3.61141 0
M  V30 14171 C 1355.75 -3.13751 4.16185 0
M  V30 14172 C 1353.08 -3.12628 4.96468 0
M  V30 14173 C 1355.43 -3.09911 5.51487 0
M  V30 14174 C 1354.09 -3.08815 5.91768 0
M  V30 14175 H 1353.36 -0.634102 0.3834 0
M  V30 14176 H 1356.01 -1.16346 1.52105 0
M  V30 14177 H 1354.31 -3.74437 1.15343 0
M  V30 14178 H 1356.01 -3.70149 1.54242 0
M  V30 14179 H 1352.6 -3.17713 2.87674 0
M  V30 14180 H 1356.79 -3.12446 3.85605 0
M  V30 14181 H 1352.04 -3.10125 5.26909 0
M  V30 14182 H 1356.22 -3.06026 6.25556 0
M  V30 14183 H 1353.84 -3.044 6.96595 0
M  V30 14184 N 1355.42 -1.03311 -1.19015 0
M  V30 14185 C 1356.64 -0.751686 -1.93299 0
M  V30 14186 C 1357.07 0.68392 -1.75226 0
M  V30 14187 O 1356.43 1.47274 -1.05736 0
M  V30 14188 C 1356.47 -1.11335 -3.42982 0
M  V30 14189 O 1355.58 -0.234434 -4.11733 0
M  V30 14190 H 1354.92 -0.277331 -0.60331 0
M  V30 14191 H 1357.45 -1.38092 -1.5097 0
M  V30 14192 H 1357.46 -1.07204 -3.93664 0
M  V30 14193 H 1356.13 -2.15922 -3.55458 0
M  V30 14194 H 1354.71 -0.3347 -3.71395 0
M  V30 14195 N 1356.9 1.35099 -0.81154 0
M  V30 14196 C 1358.12 2.03391 -0.405805 0
M  V30 14197 C 1358.55 1.60745 0.97686 0
M  V30 14198 O 1357.9 0.786518 1.63351 0
M  V30 14199 C 1357.95 3.57075 -0.502954 0
M  V30 14200 O 1357.06 4.09577 0.481681 0
M  V30 14201 H 1356.4 0.642203 -0.168733 0
M  V30 14202 H 1358.93 1.72591 -1.0988 0
M  V30 14203 H 1358.94 4.06277 -0.37456 0
M  V30 14204 H 1357.61 3.87463 -1.51145 0
M  V30 14205 H 1356.19 3.71583 0.313115 0
M  V30 14206 N 1358.37 0.56548 1.47106 0
M  V30 14207 C 1359.79 0.225855 1.57994 0
M  V30 14208 C 1359.99 -1.27173 1.56299 0
M  V30 14209 O 1359.05 -2.05242 1.47078 0
M  V30 14210 C 1360.36 0.859829 2.88145 0
M  V30 14211 C 1361.91 0.831821 3.01744 0
M  V30 14212 C 1362.38 1.44502 4.34607 0
M  V30 14213 N 1363.87 1.40857 4.41263 0
M  V30 14214 C 1364.61 1.85258 5.42648 0
M  V30 14215 N 1364.1 2.37553 6.508 0
M  V30 14216 N 1365.9 1.76279 5.33744 0
M  V30 14217 H 1358.05 1.53837 1.46451 0
M  V30 14218 H 1360.31 0.642013 0.697512 0
M  V30 14219 H 1360.02 1.91264 2.95146 0
M  V30 14220 H 1359.89 0.357762 3.755 0
M  V30 14221 H 1362.28 -0.212319 2.94335 0
M  V30 14222 H 1362.36 1.37173 2.1591 0
M  V30 14223 H 1362 2.48827 4.42773 0
M  V30 14224 H 1361.93 0.880479 5.19187 0
M  V30 14225 H 1364.42 1.02614 3.63702 0
M  V30 14226 H 1364.74 2.69335 7.24347 0
M  V30 14227 H 1363.08 2.41569 6.51667 0
M  V30 14228 H 1366.27 1.35195 4.48152 0
M  V30 14229 H 1366.45 2.11199 6.12616 0
M  V30 14230 N 1359.85 -1.54672 0.302354 0
M  V30 14231 C 1360.79 -2.19752 -0.615175 0
M  V30 14232 C 1361.76 -1.16737 -1.13186 0
M  V30 14233 O 1362.95 -1.45385 -1.19981 0
M  V30 14234 C 1360.07 -2.84243 -1.84184 0
M  V30 14235 C 1359.12 -4.00795 -1.45827 0
M  V30 14236 S 1359.95 -5.33037 -0.513046 0
M  V30 14237 C 1361.11 -6.01011 -1.74747 0
M  V30 14238 H 1361.34 -2.97235 -0.0622917 0
M  V30 14239 H 1358.88 -1.54158 0.0864897 0
M  V30 14240 H 1360.83 -3.22025 -2.54578 0
M  V30 14241 H 1359.49 -2.06603 -2.36589 0
M  V30 14242 H 1358.69 -4.44707 -2.37175 0
M  V30 14243 H 1358.29 -3.64577 -0.83425 0
M  V30 14244 H 1360.58 -6.21901 -2.68786 0
M  V30 14245 H 1361.52 -6.95095 -1.35089 0
M  V30 14246 H 1361.93 -5.30671 -1.9248 0
M  V30 14247 N 1361.33 -0.0301034 -1.57571 0
M  V30 14248 C 1362.56 0.657533 -1.95857 0
M  V30 14249 C 1362.97 1.66138 -0.905244 0
M  V30 14250 O 1362.31 1.83299 0.12134 0
M  V30 14251 C 1362.37 1.41946 -3.3029 0
M  V30 14252 C 1362.04 0.573834 -4.53383 0
M  V30 14253 C 1363.03 -0.151282 -5.1968 0
M  V30 14254 C 1360.72 0.510947 -4.99695 0
M  V30 14255 C 1362.71 -0.927947 -6.30609 0
M  V30 14256 C 1360.4 -0.269422 -6.10506 0
M  V30 14257 C 1361.4 -0.987575 -6.75822 0
M  V30 14258 O 1361.09 -1.75515 -7.84506 0
M  V30 14259 H 1360.82 0.1861 -0.649879 0
M  V30 14260 H 1363.37 -0.0864526 -2.05218 0
M  V30 14261 H 1361.6 2.20861 -3.17423 0
M  V30 14262 H 1363.29 1.9953 -3.53472 0
M  V30 14263 H 1364.06 -0.112036 -4.84871 0
M  V30 14264 H 1359.94 1.05949 -4.4866 0
M  V30 14265 H 1363.48 -1.48901 -6.81524 0
M  V30 14266 H 1359.38 -0.310381 -6.44753 0
M  V30 14267 H 1360.15 -1.67503 -8.01177 0
M  V30 14268 N 1362.81 1.55714 0.243056 0
M  V30 14269 C 1364.05 1.79491 0.977867 0
M  V30 14270 C 1364.41 0.600239 1.82376 0
M  V30 14271 O 1365.61 0.716857 2.59065 0
M  V30 14272 C 1363.88 3.08034 1.81245 0
M  V30 14273 S 1365.44 3.53046 2.60583 0
M  V30 14274 H 1362.26 0.630377 0.328855 0
M  V30 14275 H 1364.86 1.93954 0.245371 0
M  V30 14276 H 1363.57 3.93047 1.18079 0
M  V30 14277 H 1363.1 2.9632 2.58763 0
M  V30 14278 H 1365.11 3.14683 3.83652 0
M  V30 14279 N 1364.29 -0.50888 1.49158 0
M  V30 14280 C 1365.51 -1.29245 1.62205 0
M  V30 14281 C 1365.94 -1.85845 0.29041 0
M  V30 14282 O 1365.29 -1.6547 -0.740906 0
M  V30 14283 C 1365.34 -2.40415 2.68762 0
M  V30 14284 O 1364.45 -3.44048 2.27387 0
M  V30 14285 H 1363.79 -0.381898 0.543185 0
M  V30 14286 H 1366.32 -0.610076 1.95293 0
M  V30 14287 H 1366.33 -2.86295 2.90688 0
M  V30 14288 H 1365 -1.98584 3.65427 0
M  V30 14289 H 1363.58 -3.04141 2.1576 0
M  V30 14290 N 1365.76 -1.381 -0.759346 0
M  V30 14291 C 1367.01 -1.33992 -1.5183 0
M  V30 14292 C 1367.34 0.0718172 -1.94367 0
M  V30 14293 O 1366.59 1.0477 -1.65293 0
M  V30 14294 C 1366.89 -2.23636 -2.78786 0
M  V30 14295 C 1366.56 -3.71703 -2.5524 0
M  V30 14296 C 1365.22 -4.12053 -2.48528 0
M  V30 14297 C 1367.57 -4.65455 -2.34523 0
M  V30 14298 C 1364.9 -5.44252 -2.19105 0
M  V30 14299 C 1367.25 -5.97905 -2.06622 0
M  V30 14300 C 1365.92 -6.37345 -1.98362 0
M  V30 14301 H 1365.19 -0.490311 -0.555587 0
M  V30 14302 H 1367.83 -1.70411 -0.873637 0
M  V30 14303 H 1366.14 -1.80253 -3.47874 0
M  V30 14304 H 1367.84 -2.17764 -3.36719 0
M  V30 14305 H 1364.43 -3.3971 -2.61333 0
M  V30 14306 H 1368.61 -4.35132 -2.38691 0
M  V30 14307 H 1363.87 -5.73758 -2.11214 0
M  V30 14308 H 1368.04 -6.70095 -1.89594 0
M  V30 14309 H 1365.67 -7.39706 -1.75328 0
M  V30 14310 N 1367.24 0.986894 -1.22875 0
M  V30 14311 C 1368.47 1.7601 -1.08185 0
M  V30 14312 C 1368.88 1.85545 0.370088 0
M  V30 14313 O 1368.22 1.32915 1.26804 0
M  V30 14314 C 1368.29 3.20661 -1.62532 0
M  V30 14315 C 1367.95 3.34655 -3.11216 0
M  V30 14316 C 1368.95 3.21493 -4.08581 0
M  V30 14317 C 1366.63 3.59512 -3.50794 0
M  V30 14318 C 1368.63 3.32983 -5.43508 0
M  V30 14319 C 1366.31 3.70642 -4.85868 0
M  V30 14320 C 1367.31 3.57387 -5.82034 0
M  V30 14321 O 1367 3.68135 -7.14655 0
M  V30 14322 H 1366.73 0.559402 -0.379533 0
M  V30 14323 H 1369.28 1.24905 -1.63058 0
M  V30 14324 H 1367.51 3.72985 -1.02073 0
M  V30 14325 H 1369.2 3.7972 -1.43415 0
M  V30 14326 H 1369.97 3.02193 -3.79347 0
M  V30 14327 H 1365.85 3.68904 -2.76461 0
M  V30 14328 H 1369.39 3.22553 -6.18551 0
M  V30 14329 H 1365.29 3.89451 -5.1478 0
M  V30 14330 H 1366.06 3.84971 -7.22316 0
M  V30 14331 N 1368.72 1.0394 1.18466 0
M  V30 14332 C 1370.13 0.77011 1.70077 0
M  V30 14333 C 1370.48 -0.70916 1.82935 0
M  V30 14334 O 1369.61 -1.55209 1.50795 0
M  V30 14335 C 1370.2 1.39132 3.08914 0
M  V30 14336 C 1368.76 1.17037 3.57742 0
M  V30 14337 C 1367.91 1.48279 2.34326 0
M  V30 14338 H 1370.86 1.20598 1.03159 0
M  V30 14339 H 1370.88 0.793861 3.72126 0
M  V30 14340 H 1370.39 2.46795 2.99523 0
M  V30 14341 H 1368.49 0.112435 3.7243 0
M  V30 14342 H 1368.61 1.8665 4.41247 0
M  V30 14343 H 1366.97 0.902438 2.38177 0
M  V30 14344 H 1367.75 2.57047 2.27556 0
M  V30 14345 N 1370.2 -1.34667 0.818693 0
M  V30 14346 C 1371.61 -1.80839 0.46414 0
M  V30 14347 C 1371.96 -1.67902 -1.01506 0
M  V30 14348 O 1371.09 -1.21658 -1.78964 0
M  V30 14349 C 1371.68 -3.28331 0.835698 0
M  V30 14350 C 1370.24 -3.72599 0.533575 0
M  V30 14351 C 1369.39 -2.56452 1.05487 0
M  V30 14352 H 1372.34 -1.22474 1.00925 0
M  V30 14353 H 1372.36 -3.8025 0.13785 0
M  V30 14354 H 1371.87 -3.37715 1.91233 0
M  V30 14355 H 1369.97 -3.68756 -0.533819 0
M  V30 14356 H 1370.08 -4.66891 1.07468 0
M  V30 14357 H 1368.45 -2.50201 0.476612 0
M  V30 14358 H 1369.23 -2.68608 2.13786 0
M  V30 14359 N 1371.68 -0.573274 -1.46804 0
M  V30 14360 C 1372.95 0.011163 -1.95597 0
M  V30 14361 C 1373.33 1.4691 -1.51594 0
M  V30 14362 O 1372.68 2.15413 -0.76221 0
M  V30 14363 C 1372.89 -0.151045 -3.48673 0
M  V30 14364 C 1374.24 -0.0139817 -4.24598 0
M  V30 14365 O 1375.26 -0.0794008 -3.56111 0
M  V30 14366 O 1374.12 0.129547 -5.46346 0
M  V30 14367 H 1371.22 0.0551258 -0.825161 0
M  V30 14368 H 1373.76 -0.640928 -1.57131 0
M  V30 14369 H 1372.53 -1.16494 -3.73557 0
M  V30 14370 H 1372.16 0.537917 -3.93944 0
M  V30 14371 N 1373.15 1.5451 -0.310553 0
M  V30 14372 C 1374.06 2.27557 0.570518 0
M  V30 14373 C 1375.08 1.31426 1.14032 0
M  V30 14374 O 1376.26 1.64423 1.16306 0
M  V30 14375 C 1373.32 3.00933 1.72163 0
M  V30 14376 C 1372.38 4.12623 1.18495 0
M  V30 14377 C 1371.62 4.8249 2.28121 0
M  V30 14378 O 1371.84 4.5178 3.48211 0
M  V30 14379 O 1370.77 5.69686 1.94273 0
M  V30 14380 H 1374.6 3.03692 -0.0223195 0
M  V30 14381 H 1372.18 1.49203 -0.0766821 0
M  V30 14382 H 1374.07 3.46925 2.39208 0
M  V30 14383 H 1372.74 2.27685 2.3009 0
M  V30 14384 H 1371.65 3.71008 0.479956 0
M  V30 14385 H 1372.98 4.87876 0.650994 0
M  V30 14386 N 1374.63 0.0384594 1.57553 0
M  V30 14387 C 1375.54 -0.955737 2.14249 0
M  V30 14388 C 1376.56 -1.35056 1.09708 0
M  V30 14389 O 1377.74 -1.43008 1.41812 0
M  V30 14390 C 1374.8 -2.21647 2.66596 0
M  V30 14391 C 1373.86 -1.88119 3.85888 0
M  V30 14392 C 1373.09 -3.08182 4.35729 0
M  V30 14393 O 1373.32 -4.21145 3.84699 0
M  V30 14394 O 1372.25 -2.89936 5.27467 0
M  V30 14395 H 1376.08 -0.50361 2.99495 0
M  V30 14396 H 1373.66 -0.182698 1.48279 0
M  V30 14397 H 1375.54 -2.9564 3.00291 0
M  V30 14398 H 1374.22 -2.66022 1.84428 0
M  V30 14399 H 1373.13 -1.11481 3.57103 0
M  V30 14400 H 1374.46 -1.48553 4.69247 0
M  V30 14401 N 1376.11 -1.55841 -0.234795 0
M  V30 14402 C 1377.02 -1.94476 -1.31211 0
M  V30 14403 C 1378.04 -0.846782 -1.52005 0
M  V30 14404 O 1379.21 -1.14922 -1.65393 0
M  V30 14405 C 1376.28 -2.24213 -2.64442 0
M  V30 14406 C 1375.34 -3.47508 -2.52065 0
M  V30 14407 C 1374.57 -3.75817 -3.78942 0
M  V30 14408 O 1374.8 -3.06007 -4.81369 0
M  V30 14409 O 1373.73 -4.69328 -3.76848 0
M  V30 14410 H 1377.56 -2.8626 -1.01434 0
M  V30 14411 H 1375.14 -1.42879 -0.436563 0
M  V30 14412 H 1377.02 -2.44594 -3.4315 0
M  V30 14413 H 1375.7 -1.35605 -2.93927 0
M  V30 14414 H 1374.6 -3.32421 -1.71602 0
M  V30 14415 H 1375.94 -4.36457 -2.27523 0
M  V30 14416 N 1377.59 0.500963 -1.49426 0
M  V30 14417 C 1378.5 1.62889 -1.68833 0
M  V30 14418 C 1379.52 1.64367 -0.570932 0
M  V30 14419 O 1380.69 1.82786 -0.845641 0
M  V30 14420 C 1377.76 2.99255 -1.75063 0
M  V30 14421 C 1376.82 3.08404 -2.9864 0
M  V30 14422 C 1376.05 4.38266 -3.04564 0
M  V30 14423 O 1376.27 5.27065 -2.1808 0
M  V30 14424 O 1375.21 4.52387 -3.97026 0
M  V30 14425 H 1379.03 1.49446 -2.64385 0
M  V30 14426 H 1376.62 0.677254 -1.33168 0
M  V30 14427 H 1378.5 3.80303 -1.81515 0
M  V30 14428 H 1377.18 3.1296 -0.826896 0
M  V30 14429 H 1376.08 2.26544 -2.97706 0
M  V30 14430 H 1377.42 2.99626 -3.90494 0
M  V30 14431 N 1379.07 1.38501 0.752011 0
M  V30 14432 C 1380.34 1.25315 1.50185 0
M  V30 14433 C 1380.72 -0.144762 2.10603 0
M  V30 14434 O 1380.07 -1.15441 1.97194 0
M  V30 14435 C 1380.28 2.36451 2.56694 0
M  V30 14436 C 1381.63 2.74952 3.23553 0
M  V30 14437 O 1382.65 2.35774 2.67 0
M  V30 14438 O 1381.51 3.42517 4.25845 0
M  V30 14439 H 1378.61 0.490139 0.666103 0
M  V30 14440 H 1381.15 1.50333 0.787288 0
M  V30 14441 H 1379.93 3.29978 2.10309 0
M  V30 14442 H 1379.55 2.13006 3.35729 0
M  V30 14443 N 1380.55 -0.980364 1.23396 0
M  V30 14444 C 1381.82 -1.69607 0.974319 0
M  V30 14445 C 1382.2 -2.0492 -0.507064 0
M  V30 14446 O 1381.55 -1.74239 -1.47827 0
M  V30 14447 C 1381.76 -2.93743 1.88457 0
M  V30 14448 C 1383.11 -3.66256 2.14806 0
M  V30 14449 O 1384.13 -3.03776 1.86007 0
M  V30 14450 O 1382.99 -4.78698 2.63648 0
M  V30 14451 H 1380.09 -0.740878 0.367462 0
M  V30 14452 H 1382.63 -1.03558 1.34439 0
M  V30 14453 H 1381.4 -2.64244 2.88601 0
M  V30 14454 H 1381.03 -3.67528 1.51688 0
M  V30 14455 N 1382.02 -1.04567 -1.17913 0
M  V30 14456 C 1382.99 -0.645476 -2.19923 0
M  V30 14457 C 1383.99 0.299763 -1.57981 0
M  V30 14458 O 1385.18 0.0844825 -1.73995 0
M  V30 14459 C 1382.31 0.0528935 -3.40859 0
M  V30 14460 H 1383.5 -1.54828 -2.56843 0
M  V30 14461 H 1381.05 -0.838812 -1.31885 0
M  V30 14462 H 1381.79 0.969261 -3.09477 0
M  V30 14463 H 1381.57 -0.626558 -3.87062 0
M  V30 14464 H 1383.06 0.319221 -4.16378 0
M  V30 14465 N 1383.5 1.34231 -0.825823 0
M  V30 14466 C 1384.41 2.33245 -0.251803 0
M  V30 14467 C 1385.43 1.62756 0.615334 0
M  V30 14468 O 1386.6 1.94503 0.522547 0
M  V30 14469 C 1383.67 3.41908 0.574456 0
M  V30 14470 C 1382.73 4.2814 -0.315422 0
M  V30 14471 C 1381.96 5.31613 0.471496 0
M  V30 14472 O 1382.19 5.44337 1.70449 0
M  V30 14473 O 1381.12 6.01719 -0.147691 0
M  V30 14474 H 1384.95 2.84174 -1.07139 0
M  V30 14475 H 1382.53 1.37341 -0.588032 0
M  V30 14476 H 1384.41 4.08252 1.04444 0
M  V30 14477 H 1383.09 2.93217 1.37132 0
M  V30 14478 H 1381.99 3.64709 -0.832963 0
M  V30 14479 H 1383.33 4.80279 -1.07672 0
M  V30 14480 N 1384.98 0.581051 1.46498 0
M  V30 14481 C 1386.22 0.0686577 2.04285 0
M  V30 14482 C 1386.58 -1.2666 1.44296 0
M  V30 14483 O 1387.78 -1.86813 1.93273 0
M  V30 14484 C 1386.06 0.0021308 3.574 0
M  V30 14485 S 1387.61 -0.452928 4.36456 0
M  V30 14486 H 1384.43 0.0366686 0.710054 0
M  V30 14487 H 1387.03 0.773174 1.79561 0
M  V30 14488 H 1385.74 0.977908 3.98579 0
M  V30 14489 H 1385.27 -0.725207 3.86658 0
M  V30 14490 H 1387.28 -1.708 4.65877 0
M  V30 14491 N 1386.46 -1.54343 0.318742 0
M  V30 14492 C 1387.37 -2.27856 -0.558442 0
M  V30 14493 C 1388.38 -1.32029 -1.13333 0
M  V30 14494 O 1389.56 -1.65037 -1.15433 0
M  V30 14495 C 1386.62 -3.01842 -1.70565 0
M  V30 14496 C 1385.69 -4.13245 -1.16305 0
M  V30 14497 C 1384.92 -4.83693 -2.25559 0
M  V30 14498 O 1385.14 -4.53621 -3.4581 0
M  V30 14499 O 1384.08 -5.70708 -1.91249 0
M  V30 14500 H 1387.9 -3.03676 0.0384247 0
M  V30 14501 H 1385.49 -1.4916 0.0845936 0
M  V30 14502 H 1387.37 -3.48189 -2.37365 0
M  V30 14503 H 1386.04 -2.28902 -2.28879 0
M  V30 14504 H 1384.95 -3.71258 -0.460274 0
M  V30 14505 H 1386.28 -4.88214 -0.625111 0
M  V30 14506 N 1387.94 -0.0468143 -1.5753 0
M  V30 14507 C 1388.85 0.944362 -2.14753 0
M  V30 14508 C 1389.86 1.34473 -1.10422 0
M  V30 14509 O 1391.04 1.42254 -1.42569 0
M  V30 14510 C 1388.1 2.2023 -2.67768 0
M  V30 14511 C 1387.16 1.8607 -3.8688 0
M  V30 14512 C 1386.4 3.05867 -4.37357 0
M  V30 14513 O 1386.62 4.19099 -3.86927 0
M  V30 14514 O 1385.55 2.87134 -5.28997 0
M  V30 14515 H 1389.38 0.48772 -2.99758 0
M  V30 14516 H 1386.96 0.174831 -1.48374 0
M  V30 14517 H 1388.85 2.94044 -3.01855 0
M  V30 14518 H 1387.52 2.65041 -1.85836 0
M  V30 14519 H 1386.43 1.09586 -3.5769 0
M  V30 14520 H 1387.76 1.46062 -4.70028 0
M  V30 14521 N 1389.41 1.55964 0.226527 0
M  V30 14522 C 1390.32 1.95169 1.30178 0
M  V30 14523 C 1391.34 0.854831 1.51554 0
M  V30 14524 O 1392.52 1.15798 1.64781 0
M  V30 14525 C 1389.58 2.25612 2.63249 0
M  V30 14526 C 1388.64 3.4884 2.50219 0
M  V30 14527 C 1387.88 3.77822 3.76944 0
M  V30 14528 O 1388.1 3.08556 4.79739 0
M  V30 14529 O 1387.03 4.7132 3.74354 0
M  V30 14530 H 1390.86 2.86794 0.999145 0
M  V30 14531 H 1388.44 1.43109 0.42898 0
M  V30 14532 H 1390.33 2.4641 3.41848 0
M  V30 14533 H 1389 1.37162 2.93203 0
M  V30 14534 H 1387.91 3.33326 1.69836 0
M  V30 14535 H 1389.24 4.37657 2.25205 0
M  V30 14536 N 1390.89 -0.493031 1.4969 0
M  V30 14537 C 1391.8 -1.61991 1.69694 0
M  V30 14538 C 1392.82 -1.64061 0.579641 0
M  V30 14539 O 1393.99 -1.82335 0.855323 0
M  V30 14540 C 1391.06 -2.98323 1.76648 0
M  V30 14541 C 1390.12 -3.06816 3.00271 0
M  V30 14542 C 1389.35 -4.36644 3.06883 0
M  V30 14543 O 1389.58 -5.25901 2.20872 0
M  V30 14544 O 1388.51 -4.50275 3.99419 0
M  V30 14545 H 1392.34 -1.48042 2.65174 0
M  V30 14546 H 1389.92 -0.670182 1.33525 0
M  V30 14547 H 1391.8 -3.79335 1.83529 0
M  V30 14548 H 1390.48 -3.12517 0.843482 0
M  V30 14549 H 1389.39 -2.24962 2.98903 0
M  V30 14550 H 1390.72 -2.97551 3.92077 0
M  V30 14551 N 1392.37 -1.38898 -0.744656 0
M  V30 14552 C 1393.62 -1.34909 -1.49941 0
M  V30 14553 C 1393.93 0.0553979 -1.95522 0
M  V30 14554 O 1395.14 0.21785 -2.70625 0
M  V30 14555 C 1393.59 -2.36954 -2.70889 0
M  V30 14556 C 1393.2 -3.83069 -2.32298 0
M  V30 14557 C 1394.95 -2.42024 -3.48747 0
M  V30 14558 C 1392.85 -4.76777 -3.4991 0
M  V30 14559 H 1391.78 -0.501512 -0.563029 0
M  V30 14560 H 1394.43 -1.64497 -0.813201 0
M  V30 14561 H 1392.82 -2.00421 -3.41537 0
M  V30 14562 H 1393.99 -4.28588 -1.69259 0
M  V30 14563 H 1392.31 -3.81202 -1.67554 0
M  V30 14564 H 1394.9 -3.0923 -4.36212 0
M  V30 14565 H 1395.25 -1.44184 -3.90534 0
M  V30 14566 H 1395.78 -2.774 -2.85121 0
M  V30 14567 H 1392.52 -5.75844 -3.13183 0
M  V30 14568 H 1392.04 -4.35944 -4.11962 0
M  V30 14569 H 1393.72 -4.95219 -4.16374 0
M  V30 14570 N 1393.85 0.973806 -1.23914 0
M  V30 14571 C 1395.13 1.69087 -0.9833 0
M  V30 14572 C 1395.51 2.05186 0.49619 0
M  V30 14573 O 1394.85 1.75021 1.46901 0
M  V30 14574 C 1395.06 2.92739 -1.90012 0
M  V30 14575 C 1396.41 3.65112 -2.16745 0
M  V30 14576 O 1397.44 3.02785 -1.87616 0
M  V30 14577 O 1396.29 4.77293 -2.66183 0
M  V30 14578 H 1393.39 0.738919 -0.371386 0
M  V30 14579 H 1395.93 1.02844 -1.34986 0
M  V30 14580 H 1394.71 2.6271 -2.89999 0
M  V30 14581 H 1394.33 3.66718 -1.53635 0
M  V30 14582 N 1395.33 1.05191 1.17357 0
M  V30 14583 C 1396.24 0.663617 2.25018 0
M  V30 14584 C 1397.25 -0.315299 1.71119 0
M  V30 14585 O 1398.43 -0.167398 2.00703 0
M  V30 14586 C 1395.49 0.0443307 3.46672 0
M  V30 14587 C 1394.55 1.07369 4.15656 0
M  V30 14588 C 1393.79 0.483864 5.31502 0
M  V30 14589 O 1394.01 -0.706692 5.66005 0
M  V30 14590 O 1392.94 1.21812 5.89445 0
M  V30 14591 H 1396.77 1.56088 2.60519 0
M  V30 14592 H 1394.36 0.823474 1.24657 0
M  V30 14593 H 1396.24 -0.299839 4.20332 0
M  V30 14594 H 1394.91 -0.826579 3.12969 0
M  V30 14595 H 1393.82 1.46985 3.44015 0
M  V30 14596 H 1395.15 1.91575 4.53387 0
M  V30 14597 N 1396.8 -1.33791 0.83293 0
M  V30 14598 C 1398.03 -2.02187 0.439077 0
M  V30 14599 C 1398.45 -1.62692 -0.957958 0
M  V30 14600 O 1397.8 -0.837302 -1.62159 0
M  V30 14601 C 1397.86 -3.57395 0.543232 0
M  V30 14602 O 1397.58 -3.95463 1.88522 0
M  V30 14603 C 1399.08 -4.43061 0.145567 0
M  V30 14604 H 1396.3 -0.64778 0.174992 0
M  V30 14605 H 1398.84 -1.7085 1.12386 0
M  V30 14606 H 1397 -3.87287 -0.0935746 0
M  V30 14607 H 1397.41 -4.90164 1.86653 0
M  V30 14608 H 1398.88 -5.51342 0.269507 0
M  V30 14609 H 1399.36 -4.29628 -0.911934 0
M  V30 14610 H 1399.97 -4.18517 0.756572 0
M  V30 14611 N 1398.28 -0.588812 -1.46187 0
M  V30 14612 C 1399.52 -0.0794904 -2.04245 0
M  V30 14613 C 1399.89 1.25893 -1.44965 0
M  V30 14614 O 1401.09 1.85785 -1.94261 0
M  V30 14615 C 1399.36 -0.0210846 -3.57394 0
M  V30 14616 S 1400.92 0.429775 -4.3669 0
M  V30 14617 H 1397.74 -0.0404337 -0.709849 0
M  V30 14618 H 1400.34 -0.782686 -1.79149 0
M  V30 14619 H 1399.04 -0.999032 -3.98055 0
M  V30 14620 H 1398.57 0.704691 -3.87037 0
M  V30 14621 H 1400.59 1.68327 -4.66777 0
M  V30 14622 N 1399.76 1.54172 -0.326923 0
M  V30 14623 C 1400.67 2.28149 0.546351 0
M  V30 14624 C 1401.69 1.32628 1.12631 0
M  V30 14625 O 1402.86 1.65647 1.14556 0
M  V30 14626 C 1399.93 3.02742 1.68962 0
M  V30 14627 C 1398.99 4.13856 1.14112 0
M  V30 14628 C 1398.22 4.84882 2.2299 0
M  V30 14629 O 1398.44 4.55448 3.43399 0
M  V30 14630 O 1397.38 5.71714 1.8822 0
M  V30 14631 H 1401.2 3.03651 -0.0545288 0
M  V30 14632 H 1398.79 1.49113 -0.0925027 0
M  V30 14633 H 1400.67 3.49443 2.35515 0
M  V30 14634 H 1399.35 2.30113 2.27662 0
M  V30 14635 H 1398.25 3.71497 0.440579 0
M  V30 14636 H 1399.59 4.88539 0.599211 0
M  V30 14637 N 1401.24 0.0551678 1.57503 0
M  V30 14638 C 1402.19 -0.927586 2.08278 0
M  V30 14639 C 1403.17 -1.26931 0.988802 0
M  V30 14640 O 1404.36 -1.25107 1.25209 0
M  V30 14641 C 1401.49 -2.20105 2.63456 0
M  V30 14642 C 1400.58 -1.88654 3.7983 0
M  V30 14643 N 1400.97 -1.2758 4.89446 0
M  V30 14644 C 1399.27 -2.185 3.8881 0
M  V30 14645 C 1399.97 -1.13848 5.7045 0
M  V30 14646 N 1398.95 -1.6427 5.18186 0
M  V30 14647 H 1402.75 -0.450784 2.90422 0
M  V30 14648 H 1400.26 -0.149178 1.61713 0
M  V30 14649 H 1402.26 -2.9141 2.98137 0
M  V30 14650 H 1400.92 -2.68388 1.82752 0
M  V30 14651 H 1401.93 -0.947506 5.09159 0
M  V30 14652 H 1398.61 -2.69276 3.19056 0
M  V30 14653 H 1400 -0.664014 6.68611 0
M  V30 14654 N 1402.72 -1.56081 -0.218252 0
M  V30 14655 C 1403.63 -1.95856 -1.29141 0
M  V30 14656 C 1404.64 -0.862857 -1.51099 0
M  V30 14657 O 1405.82 -1.1667 -1.64165 0
M  V30 14658 C 1402.88 -2.27005 -2.62049 0
M  V30 14659 C 1401.94 -3.50162 -2.48365 0
M  V30 14660 C 1401.18 -3.79815 -3.74935 0
M  V30 14661 O 1401.4 -3.11095 -4.78096 0
M  V30 14662 O 1400.33 -4.73299 -3.71849 0
M  V30 14663 H 1404.16 -2.8732 -0.983922 0
M  V30 14664 H 1401.75 -1.43334 -0.421385 0
M  V30 14665 H 1403.63 -2.4822 -3.40536 0
M  V30 14666 H 1402.3 -1.38715 -2.92472 0
M  V30 14667 H 1401.21 -3.34222 -1.68066 0
M  V30 14668 H 1402.54 -4.38845 -2.22881 0
M  V30 14669 N 1404.2 0.485086 -1.49949 0
M  V30 14670 C 1405.43 1.25996 -1.63733 0
M  V30 14671 C 1405.83 1.8657 -0.31435 0
M  V30 14672 O 1405.18 1.69336 0.71211 0
M  V30 14673 C 1405.24 2.41842 -2.65994 0
M  V30 14674 C 1404.9 2.02014 -4.09926 0
M  V30 14675 C 1405.9 1.55068 -4.96236 0
M  V30 14676 C 1403.58 2.11162 -4.55759 0
M  V30 14677 C 1405.58 1.17796 -6.26421 0
M  V30 14678 C 1403.27 1.73501 -5.85953 0
M  V30 14679 C 1404.26 1.26894 -6.71109 0
M  V30 14680 O 1403.95 0.89749 -7.98874 0
M  V30 14681 H 1403.68 0.387743 -0.553743 0
M  V30 14682 H 1406.24 0.5871 -1.96831 0
M  V30 14683 H 1404.47 3.12254 -2.2811 0
M  V30 14684 H 1406.16 3.03837 -2.69143 0
M  V30 14685 H 1406.92 1.47434 -4.62048 0
M  V30 14686 H 1402.8 2.46389 -3.89633 0
M  V30 14687 H 1406.35 0.813467 -6.92841 0
M  V30 14688 H 1402.24 1.8079 -6.19665 0
M  V30 14689 H 1403.01 1.02757 -8.12024 0
M  V30 14690 N 1405.67 1.39291 0.737279 0
M  V30 14691 C 1406.92 1.36121 1.49384 0
M  V30 14692 C 1407.24 -0.0429406 1.94953 0
M  V30 14693 O 1406.51 -0.993756 1.68823 0
M  V30 14694 H 1405.09 0.500916 0.554159 0
M  V30 14695 H 1407.75 1.74134 0.875402 0
M  V30 14696 H 1406.85 2.02246 2.37704 0
M  V30 14697 N 1407.15 -0.967221 1.24429 0
M  V30 14698 C 1408.38 -1.7452 1.11133 0
M  V30 14699 C 1408.79 -1.85785 -0.336087 0
M  V30 14700 O 1408.15 -1.34652 -1.23188 0
M  V30 14701 C 1408.2 -3.16544 1.74591 0
M  V30 14702 O 1407.92 -3.05845 3.13673 0
M  V30 14703 C 1409.42 -4.10677 1.6691 0
M  V30 14704 H 1406.64 -0.547267 0.388253 0
M  V30 14705 H 1409.19 -1.2143 1.64545 0
M  V30 14706 H 1407.34 -3.66618 1.2518 0
M  V30 14707 H 1407.76 -3.95346 3.44676 0
M  V30 14708 H 1409.23 -5.07987 2.15992 0
M  V30 14709 H 1409.71 -4.34652 0.630411 0
M  V30 14710 H 1410.31 -3.66514 2.15749 0
M  V30 14711 N 1408.63 -1.05812 -1.16797 0
M  V30 14712 C 1409.54 -0.675541 -2.24663 0
M  V30 14713 C 1410.56 0.30622 -1.71284 0
M  V30 14714 O 1411.73 0.156752 -2.00789 0
M  V30 14715 C 1408.8 -0.0627149 -3.46643 0
M  V30 14716 C 1407.86 -1.09572 -4.15081 0
M  V30 14717 C 1407.09 -0.512044 -5.31238 0
M  V30 14718 O 1407.31 0.676665 -5.66372 0
M  V30 14719 O 1406.25 -1.24936 -5.88791 0
M  V30 14720 H 1410.07 -1.57467 -2.59688 0
M  V30 14721 H 1407.66 -0.830073 -1.24218 0
M  V30 14722 H 1409.54 0.277543 -4.20485 0
M  V30 14723 H 1408.22 0.80997 -3.13403 0
M  V30 14724 H 1407.12 -1.48807 -3.4323 0
M  V30 14725 H 1408.46 -1.93977 -4.52365 0
M  V30 14726 N 1410.11 1.33347 -0.840014 0
M  V30 14727 C 1411.38 1.92293 -0.358158 0
M  V30 14728 C 1411.76 1.76594 1.15662 0
M  V30 14729 O 1411.11 1.15503 1.97158 0
M  V30 14730 C 1411.32 3.39558 -0.806329 0
M  V30 14731 C 1412.67 4.16705 -0.81501 0
M  V30 14732 O 1413.69 3.48214 -0.75001 0
M  V30 14733 O 1412.55 5.38974 -0.903818 0
M  V30 14734 H 1409.65 0.820737 -0.101585 0
M  V30 14735 H 1412.19 1.42213 -0.925942 0
M  V30 14736 H 1410.97 3.44861 -1.84897 0
M  V30 14737 H 1410.59 3.97017 -0.215181 0
M  V30 14738 N 1411.59 0.596556 1.45873 0
M  V30 14739 C 1412.86 0.0199562 1.9559 0
M  V30 14740 C 1413.24 -1.44479 1.53912 0
M  V30 14741 O 1412.59 -2.14173 0.796384 0
M  V30 14742 C 1412.8 0.206497 3.48389 0
M  V30 14743 C 1414.15 0.0815298 4.24522 0
M  V30 14744 O 1415.17 0.136045 3.5594 0
M  V30 14745 O 1414.03 -0.0426117 5.46483 0
M  V30 14746 H 1411.13 -0.0419913 0.825933 0
M  V30 14747 H 1413.67 0.665846 1.56092 0
M  V30 14748 H 1412.44 1.22422 3.71656 0
M  V30 14749 H 1412.07 -0.475175 3.9475 0
M  V30 14750 N 1413.06 -1.53996 0.335095 0
M  V30 14751 C 1414.29 -2.0489 -0.265245 0
M  V30 14752 C 1414.7 -1.21024 -1.4543 0
M  V30 14753 O 1414.04 -0.236417 -1.82172 0
M  V30 14754 C 1414.11 -3.51546 -0.752018 0
M  V30 14755 C 1413.77 -4.55904 0.316261 0
M  V30 14756 C 1414.77 -5.06881 1.15617 0
M  V30 14757 C 1412.45 -5.00117 0.467762 0
M  V30 14758 C 1414.45 -6.00644 2.13321 0
M  V30 14759 C 1412.13 -5.93692 1.4482 0
M  V30 14760 C 1413.13 -6.43842 2.27938 0
M  V30 14761 O 1412.82 -7.35578 3.24315 0
M  V30 14762 H 1412.55 -0.673631 -0.0565427 0
M  V30 14763 H 1415.11 -1.99646 0.482771 0
M  V30 14764 H 1413.34 -3.54227 -1.55114 0
M  V30 14765 H 1415.02 -3.85455 -1.27197 0
M  V30 14766 H 1415.79 -4.73494 1.05017 0
M  V30 14767 H 1411.67 -4.60689 -0.169338 0
M  V30 14768 H 1415.21 -6.39711 2.78236 0
M  V30 14769 H 1411.11 -6.26495 1.5548 0
M  V30 14770 H 1411.88 -7.53487 3.19688 0
M  V30 14771 N 1414.54 -0.0635198 -1.57472 0
M  V30 14772 C 1415.47 0.93602 -2.09216 0
M  V30 14773 C 1416.49 1.2668 -1.02255 0
M  V30 14774 O 1417.68 1.22543 -1.2979 0
M  V30 14775 C 1414.78 2.25417 -2.53062 0
M  V30 14776 C 1413.95 2.10347 -3.83501 0
M  V30 14777 C 1413.01 3.25394 -4.13528 0
M  V30 14778 O 1412.03 3.00751 -4.83257 0
M  V30 14779 N 1413.24 4.50243 -3.66417 0
M  V30 14780 H 1416 0.494288 -2.95596 0
M  V30 14781 H 1413.56 0.122416 -1.61437 0
M  V30 14782 H 1415.55 3.01272 -2.70217 0
M  V30 14783 H 1414.12 2.61116 -1.71864 0
M  V30 14784 H 1413.34 1.19009 -3.75807 0
M  V30 14785 H 1414.63 1.97519 -4.68896 0
M  V30 14786 H 1414.03 4.73152 -3.1007 0
M  V30 14787 H 1412.59 5.23152 -3.88787 0
M  V30 14788 N 1416.02 1.56195 0.209972 0
M  V30 14789 C 1417.27 1.7939 0.930796 0
M  V30 14790 C 1417.59 0.634038 1.84404 0
M  V30 14791 O 1416.86 -0.348467 1.92776 0
M  V30 14792 H 1415.44 0.661676 0.346689 0
M  V30 14793 H 1418.1 1.93665 0.219049 0
M  V30 14794 H 1417.2 2.71982 1.53075 0
M  V30 14795 N 1417.5 -0.477127 1.50204 0
M  V30 14796 C 1418.43 -1.58405 1.71552 0
M  V30 14797 C 1419.41 -1.60463 0.564413 0
M  V30 14798 O 1420.59 -1.76826 0.802893 0
M  V30 14799 C 1417.72 -2.96765 1.8041 0
M  V30 14800 C 1416.68 -3.09573 2.95548 0
M  V30 14801 C 1416 -4.49522 2.89542 0
M  V30 14802 C 1417.3 -2.87356 4.36147 0
M  V30 14803 H 1419 -1.40792 2.64231 0
M  V30 14804 H 1416.54 -0.675886 1.27153 0
M  V30 14805 H 1418.5 -3.74125 1.9393 0
M  V30 14806 H 1417.22 -3.1552 0.843489 0
M  V30 14807 H 1415.88 -2.34645 2.81669 0
M  V30 14808 H 1415.53 -4.65186 1.91339 0
M  V30 14809 H 1415.23 -4.59028 3.66834 0
M  V30 14810 H 1416.75 -5.28909 3.05102 0
M  V30 14811 H 1418.17 -3.54469 4.50583 0
M  V30 14812 H 1416.56 -3.08313 5.14843 0
M  V30 14813 H 1417.63 -1.83264 4.48935 0
M  V30 14814 N 1418.98 -1.3968 -0.729882 0
M  V30 14815 C 1420.39 -1.33184 -1.30839 0
M  V30 14816 C 1420.74 0.00141129 -1.962 0
M  V30 14817 O 1419.86 0.903523 -1.96635 0
M  V30 14818 C 1420.46 -2.41211 -2.37913 0
M  V30 14819 C 1419.02 -2.3822 -2.91424 0
M  V30 14820 C 1418.16 -2.22832 -1.65049 0
M  V30 14821 H 1421.12 -1.49694 -0.527023 0
M  V30 14822 H 1421.14 -2.08294 -3.18424 0
M  V30 14823 H 1420.65 -3.38234 -1.90313 0
M  V30 14824 H 1418.75 -1.4485 -3.43292 0
M  V30 14825 H 1418.86 -3.33271 -3.44191 0
M  V30 14826 H 1417.23 -1.70095 -1.89578 0
M  V30 14827 H 1418.01 -3.21832 -1.19494 0
M  V30 14828 N 1420.45 0.960609 -1.2494 0
M  V30 14829 C 1421.38 2.074 -1.07274 0
M  V30 14830 C 1422.37 1.70092 0.0164365 0
M  V30 14831 O 1423.55 1.93604 -0.151975 0
M  V30 14832 C 1420.68 3.40491 -0.684317 0
M  V30 14833 C 1419.63 3.91784 -1.72306 0
M  V30 14834 C 1418.96 5.21301 -1.18949 0
M  V30 14835 C 1420.26 4.18829 -3.12056 0
M  V30 14836 H 1421.95 2.22438 -2.00404 0
M  V30 14837 H 1419.5 1.06888 -0.964937 0
M  V30 14838 H 1421.45 4.17826 -0.547686 0
M  V30 14839 H 1420.18 3.25374 0.282687 0
M  V30 14840 H 1418.84 3.16613 -1.84802 0
M  V30 14841 H 1418.48 5.02549 -0.212892 0
M  V30 14842 H 1418.18 5.56588 -1.8837 0
M  V30 14843 H 1419.71 6.01238 -1.06513 0
M  V30 14844 H 1421.12 4.86844 -3.02748 0
M  V30 14845 H 1419.52 4.6536 -3.78894 0
M  V30 14846 H 1420.59 3.25333 -3.59564 0
M  V30 14847 N 1421.93 1.0643 1.16234 0
M  V30 14848 C 1422.84 0.687446 2.24302 0
M  V30 14849 C 1423.86 -0.297132 1.71444 0
M  V30 14850 O 1425.03 -0.146101 2.00869 0
M  V30 14851 C 1422.1 0.0810973 3.46605 0
M  V30 14852 C 1421.16 1.11772 4.14494 0
M  V30 14853 C 1420.39 0.54021 5.30959 0
M  V30 14854 O 1420.62 -0.646619 5.66723 0
M  V30 14855 O 1419.55 1.28057 5.8812 0
M  V30 14856 H 1423.38 1.58842 2.58849 0
M  V30 14857 H 1420.96 0.836649 1.23776 0
M  V30 14858 H 1422.84 -0.25524 4.20626 0
M  V30 14859 H 1421.52 -0.793338 3.13828 0
M  V30 14860 H 1420.43 1.50626 3.42436 0
M  V30 14861 H 1421.76 1.96373 4.5133 0
M  V30 14862 N 1423.41 -1.329 0.847073 0
M  V30 14863 C 1424.66 -1.9751 0.446755 0
M  V30 14864 C 1424.99 -1.67069 -0.995905 0
M  V30 14865 O 1424.24 -0.947232 -1.71248 0
M  V30 14866 C 1424.54 -3.51913 0.623845 0
M  V30 14867 C 1424.21 -4.02324 2.03583 0
M  V30 14868 C 1422.87 -4.15802 2.42203 0
M  V30 14869 C 1425.22 -4.29147 2.95774 0
M  V30 14870 C 1422.55 -4.53441 3.72301 0
M  V30 14871 C 1424.9 -4.68242 4.25362 0
M  V30 14872 C 1423.56 -4.79925 4.63927 0
M  V30 14873 H 1422.83 -0.722742 0.163479 0
M  V30 14874 H 1425.48 -1.58435 1.07567 0
M  V30 14875 H 1423.79 -3.917 -0.0883447 0
M  V30 14876 H 1425.48 -3.99919 0.294268 0
M  V30 14877 H 1422.07 -3.92314 1.72591 0
M  V30 14878 H 1426.26 -4.1825 2.67171 0
M  V30 14879 H 1421.51 -4.60681 4.01974 0
M  V30 14880 H 1425.69 -4.87952 4.96866 0
M  V30 14881 H 1423.31 -5.08847 5.64782 0
M  V30 14882 N 1424.89 -0.604284 -1.45555 0
M  V30 14883 C 1426.14 -0.0979922 -2.01862 0
M  V30 14884 C 1426.46 1.27476 -1.47563 0
M  V30 14885 O 1425.73 1.84137 -0.668612 0
M  V30 14886 H 1424.31 -0.033235 -0.74626 0
M  V30 14887 H 1426.97 -0.784936 -1.78395 0
M  V30 14888 H 1426.07 -0.0452716 -3.12067 0
M  V30 14889 N 1426.37 1.53816 -0.343257 0
M  V30 14890 C 1427.33 2.23654 0.501161 0
M  V30 14891 C 1428.33 1.23664 1.02781 0
M  V30 14892 O 1429.52 1.48104 0.917103 0
M  V30 14893 C 1426.65 2.95596 1.69812 0
M  V30 14894 H 1427.84 2.997 -0.109626 0
M  V30 14895 H 1425.4 1.56013 -0.0946011 0
M  V30 14896 H 1426.13 2.23736 2.34761 0
M  V30 14897 H 1425.92 3.68938 1.32768 0
M  V30 14898 H 1427.41 3.48748 2.29706 0
M  V30 14899 N 1427.84 0.0718701 1.57436 0
M  V30 14900 C 1429.07 -0.609701 1.98236 0
M  V30 14901 C 1429.49 -1.6235 0.949959 0
M  V30 14902 O 1428.85 -1.81103 -0.0844281 0
M  V30 14903 C 1428.9 -1.2547 3.38068 0
M  V30 14904 O 1428 -2.37055 3.37459 0
M  V30 14905 H 1427.35 -0.15679 0.645223 0
M  V30 14906 H 1429.88 0.146407 2.04076 0
M  V30 14907 H 1429.89 -1.60152 3.75254 0
M  V30 14908 H 1428.56 -0.511842 4.12738 0
M  V30 14909 H 1427.14 -2.04165 3.12043 0
M  V30 14910 N 1429.32 -1.56304 -0.201686 0
M  V30 14911 C 1430.29 -1.93171 -1.2336 0
M  V30 14912 C 1431.29 -0.812164 -1.38782 0
M  V30 14913 O 1432.48 -1.07967 -1.36707 0
M  V30 14914 C 1429.61 -2.19997 -2.60411 0
M  V30 14915 H 1430.8 -2.85483 -0.918654 0
M  V30 14916 H 1428.35 -1.49893 -0.442935 0
M  V30 14917 H 1429.09 -1.30301 -2.96972 0
M  V30 14918 H 1428.87 -3.01574 -2.5059 0
M  V30 14919 H 1430.36 -2.49547 -3.34838 0
M  V30 14920 N 1430.8 0.469154 -1.50455 0
M  V30 14921 C 1431.71 1.59271 -1.7225 0
M  V30 14922 C 1432.73 1.63119 -0.605668 0
M  V30 14923 O 1433.9 1.80952 -0.884222 0
M  V30 14924 C 1430.97 2.95475 -1.81372 0
M  V30 14925 C 1430.03 3.02 -3.05114 0
M  V30 14926 C 1429.26 4.31707 -3.13791 0
M  V30 14927 O 1429.48 5.2232 -2.29211 0
M  V30 14928 O 1428.42 4.43864 -4.06532 0
M  V30 14929 H 1432.24 1.43804 -2.67496 0
M  V30 14930 H 1429.83 0.648855 -1.34574 0
M  V30 14931 H 1431.71 3.76367 -1.89541 0
M  V30 14932 H 1430.39 3.11136 -0.893094 0
M  V30 14933 H 1429.29 2.20178 -3.02444 0
M  V30 14934 H 1430.63 2.91275 -3.96761 0
M  V30 14935 N 1432.28 1.40065 0.722464 0
M  V30 14936 C 1433.51 1.41271 1.51163 0
M  V30 14937 C 1433.92 0.0105425 1.88797 0
M  V30 14938 O 1433.28 -0.963867 1.5497 0
M  V30 14939 C 1433.33 2.29713 2.79131 0
M  V30 14940 O 1433.05 3.6447 2.43091 0
M  V30 14941 C 1434.55 2.39437 3.73075 0
M  V30 14942 H 1431.77 0.482086 0.466727 0
M  V30 14943 H 1434.32 1.84033 0.891736 0
M  V30 14944 H 1432.47 1.9033 3.37421 0
M  V30 14945 H 1432.88 4.11371 3.25383 0
M  V30 14946 H 1434.36 3.05543 4.59726 0
M  V30 14947 H 1434.84 1.41731 4.15703 0
M  V30 14948 H 1435.44 2.79342 3.20699 0
M  V30 14949 N 1433.76 -0.95397 1.25448 0
M  V30 14950 C 1435 -1.70118 1.10399 0
M  V30 14951 C 1435.34 -1.90945 -0.354093 0
M  V30 14952 O 1434.61 -1.48088 -1.26096 0
M  V30 14953 C 1434.89 -3.08371 1.85955 0
M  V30 14954 C 1434.75 -2.9495 3.39595 0
M  V30 14955 C 1436.07 -4.08273 1.64321 0
M  V30 14956 H 1433.19 -0.617424 0.402438 0
M  V30 14957 H 1435.83 -1.10884 1.54288 0
M  V30 14958 H 1433.98 -3.58936 1.48651 0
M  V30 14959 H 1435.65 -2.51705 3.86578 0
M  V30 14960 H 1433.89 -2.30853 3.67273 0
M  V30 14961 H 1434.56 -3.92952 3.87676 0
M  V30 14962 H 1437.04 -3.6662 1.96796 0
M  V30 14963 H 1435.92 -5.03048 2.19622 0
M  V30 14964 H 1436.18 -4.38217 0.584685 0
M  V30 14965 N 1435.24 -1.07045 -1.15668 0
M  V30 14966 C 1436.65 -0.795369 -1.38369 0
M  V30 14967 C 1436.85 0.601829 -1.92303 0
M  V30 14968 O 1435.91 1.36109 -2.12675 0
M  V30 14969 C 1437.22 -1.86659 -2.35752 0
M  V30 14970 C 1438.77 -1.89098 -2.49421 0
M  V30 14971 C 1439.24 -2.95296 -3.50092 0
M  V30 14972 N 1440.73 -2.94378 -3.57625 0
M  V30 14973 C 1441.47 -3.73194 -4.35331 0
M  V30 14974 N 1440.97 -4.61851 -5.16397 0
M  V30 14975 N 1442.76 -3.61554 -4.30389 0
M  V30 14976 H 1434.91 -1.97162 -0.790004 0
M  V30 14977 H 1437.17 -0.854816 -0.40987 0
M  V30 14978 H 1436.88 -2.87036 -2.03232 0
M  V30 14979 H 1436.75 -1.72406 -3.35494 0
M  V30 14980 H 1439.14 -0.893752 -2.8124 0
M  V30 14981 H 1439.22 -2.07429 -1.49689 0
M  V30 14982 H 1438.86 -3.95217 -3.19008 0
M  V30 14983 H 1438.79 -2.74212 -4.49572 0
M  V30 14984 H 1441.29 -2.3011 -2.99763 0
M  V30 14985 H 1441.6 -5.18629 -5.72926 0
M  V30 14986 H 1439.94 -4.65902 -5.15714 0
M  V30 14987 H 1443.13 -2.91672 -3.66122 0
M  V30 14988 H 1443.31 -4.23221 -4.90701 0
M  V30 14989 N 1436.71 1.32449 -0.85411 0
M  V30 14990 C 1437.96 1.97563 -0.4579 0
M  V30 14991 C 1438.29 1.67435 0.983835 0
M  V30 14992 O 1437.57 0.962292 1.69027 0
M  V30 14993 C 1437.85 3.53292 -0.69688 0
M  V30 14994 C 1437.7 3.93053 -2.18699 0
M  V30 14995 C 1439.02 4.39834 -0.152917 0
M  V30 14996 H 1436.14 0.717634 -0.167842 0
M  V30 14997 H 1438.78 1.5684 -1.07243 0
M  V30 14998 H 1436.93 3.88111 -0.173807 0
M  V30 14999 H 1438.61 3.68416 -2.7761 0
M  V30 15000 H 1436.85 3.42232 -2.6657 0
M  V30 15001 H 1437.52 5.01576 -2.3049 0
M  V30 15002 H 1440 4.11748 -0.600216 0
M  V30 15003 H 1438.87 5.47785 -0.349703 0
M  V30 15004 H 1439.13 4.31898 0.944276 0
M  V30 15005 N 1438.19 0.611994 1.45232 0
M  V30 15006 C 1439.1 -0.105981 2.3436 0
M  V30 15007 C 1440.12 -0.855785 1.515 0
M  V30 15008 O 1441.29 -0.812376 1.84289 0
M  V30 15009 C 1438.36 -1.08794 3.29188 0
M  V30 15010 C 1437.42 -0.339611 4.27955 0
M  V30 15011 C 1436.65 -1.27479 5.18252 0
M  V30 15012 O 1436.88 -2.51279 5.12069 0
M  V30 15013 O 1435.81 -0.769469 5.96961 0
M  V30 15014 H 1439.64 0.626584 2.97166 0
M  V30 15015 H 1437.22 0.37224 1.44688 0
M  V30 15016 H 1439.1 -1.65338 3.8761 0
M  V30 15017 H 1437.78 -1.80145 2.68941 0
M  V30 15018 H 1436.68 0.268408 3.73136 0
M  V30 15019 H 1438.02 0.333501 4.91069 0
M  V30 15020 N 1439.67 -1.53632 0.351409 0
M  V30 15021 C 1440.58 -2.2899 -0.509985 0
M  V30 15022 C 1441.6 -1.34403 -1.10507 0
M  V30 15023 O 1442.77 -1.67448 -1.11906 0
M  V30 15024 C 1439.84 -3.05392 -1.64124 0
M  V30 15025 C 1438.9 -4.15619 -1.07514 0
M  V30 15026 C 1438.13 -4.88369 -2.15248 0
M  V30 15027 O 1438.35 -4.60854 -3.3611 0
M  V30 15028 O 1437.29 -5.74636 -1.79101 0
M  V30 15029 H 1441.11 -3.03526 0.10283 0
M  V30 15030 H 1438.7 -1.48947 0.116214 0
M  V30 15031 H 1440.58 -3.53146 -2.29926 0
M  V30 15032 H 1439.26 -2.33705 -2.23972 0
M  V30 15033 H 1438.16 -3.7215 -0.381421 0
M  V30 15034 H 1439.5 -4.8943 -0.521413 0
M  V30 15035 N 1441.15 -0.0802183 -1.57396 0
M  V30 15036 C 1442.06 0.898597 -2.16708 0
M  V30 15037 C 1443.07 1.321 -1.1325 0
M  V30 15038 O 1444.25 1.39197 -1.45554 0
M  V30 15039 C 1441.31 2.14501 -2.72379 0
M  V30 15040 C 1440.38 1.77822 -3.9074 0
M  V30 15041 C 1439.61 2.96521 -4.43747 0
M  V30 15042 O 1439.83 4.10797 -3.9573 0
M  V30 15043 O 1438.77 2.75849 -5.34968 0
M  V30 15044 H 1442.59 0.424027 -3.00725 0
M  V30 15045 H 1440.18 0.14332 -1.48711 0
M  V30 15046 H 1442.06 2.87575 -3.08024 0
M  V30 15047 H 1440.73 2.61039 -1.91416 0
M  V30 15048 H 1439.64 1.01974 -3.59934 0
M  V30 15049 H 1440.97 1.36059 -4.73021 0
M  V30 15050 N 1442.63 1.56409 0.193394 0
M  V30 15051 C 1443.54 1.97886 1.26009 0
M  V30 15052 C 1444.55 0.886786 1.49707 0
M  V30 15053 O 1445.73 1.19267 1.62288 0
M  V30 15054 C 1442.79 2.31145 2.58404 0
M  V30 15055 C 1441.85 3.54069 2.42763 0
M  V30 15056 C 1441.09 3.85732 3.68845 0
M  V30 15057 O 1441.31 3.18662 4.73086 0
M  V30 15058 O 1440.24 4.79155 3.64272 0
M  V30 15059 H 1444.07 2.88849 0.938087 0
M  V30 15060 H 1441.65 1.43987 0.398528 0
M  V30 15061 H 1443.54 2.53606 3.36544 0
M  V30 15062 H 1442.21 1.4335 2.90228 0
M  V30 15063 H 1441.12 3.36854 1.62728 0
M  V30 15064 H 1442.45 4.42335 2.15871 0
M  V30 15065 N 1444.1 -0.461169 1.50702 0
M  V30 15066 C 1445.01 -1.58355 1.73092 0
M  V30 15067 C 1446.03 -1.62795 0.61431 0
M  V30 15068 O 1447.21 -1.8048 0.893806 0
M  V30 15069 C 1444.27 -2.94509 1.82936 0
M  V30 15070 C 1443.33 -3.00378 3.06711 0
M  V30 15071 C 1442.56 -4.30037 3.16076 0
M  V30 15072 O 1442.79 -5.21097 2.31978 0
M  V30 15073 O 1441.72 -4.41702 4.08881 0
M  V30 15074 H 1445.55 -1.42384 2.68255 0
M  V30 15075 H 1443.13 -0.641709 1.34916 0
M  V30 15076 H 1445.01 -3.75357 1.91534 0
M  V30 15077 H 1443.69 -3.10658 0.909581 0
M  V30 15078 H 1442.6 -2.18571 3.03608 0
M  V30 15079 H 1443.93 -2.89167 3.983 0
M  V30 15080 N 1445.58 -1.40446 -0.715026 0
M  V30 15081 C 1446.49 -1.43074 -1.85922 0
M  V30 15082 C 1447.51 -0.323294 -1.7097 0
M  V30 15083 O 1448.68 -0.567966 -1.93226 0
M  V30 15084 C 1445.75 -1.29206 -3.21725 0
M  V30 15085 C 1444.81 -2.50097 -3.48927 0
M  V30 15086 C 1444.04 -2.36881 -4.7825 0
M  V30 15087 O 1444.27 -1.38292 -5.53382 0
M  V30 15088 O 1443.2 -3.26266 -5.058 0
M  V30 15089 H 1447.03 -2.39565 -1.86661 0
M  V30 15090 H 1444.61 -1.21775 -0.865522 0
M  V30 15091 H 1446.49 -1.23681 -4.02841 0
M  V30 15092 H 1445.17 -0.358207 -3.21712 0
M  V30 15093 H 1444.07 -2.61199 -2.67817 0
M  V30 15094 H 1445.41 -3.42244 -3.53737 0
M  V30 15095 N 1447.06 0.947303 -1.25952 0
M  V30 15096 C 1448.34 1.66964 -1.01894 0
M  V30 15097 C 1448.72 2.06192 0.452555 0
M  V30 15098 O 1448.06 1.78098 1.43156 0
M  V30 15099 C 1448.27 2.88643 -1.96179 0
M  V30 15100 C 1449.62 3.60432 -2.24441 0
M  V30 15101 O 1450.65 2.98737 -1.93996 0
M  V30 15102 O 1449.51 4.7154 -2.76247 0
M  V30 15103 H 1446.6 0.730875 -0.386976 0
M  V30 15104 H 1449.15 0.999577 -1.37137 0
M  V30 15105 H 1447.92 2.565 -2.95506 0
M  V30 15106 H 1447.54 3.63377 -1.61379 0
M  V30 15107 N 1448.54 1.07657 1.15099 0
M  V30 15108 C 1449.78 0.812636 1.86461 0
M  V30 15109 C 1450.14 -0.654311 1.80932 0
M  V30 15110 O 1449.43 -1.47429 1.22373 0
M  V30 15111 C 1449.63 1.25903 3.3449 0
M  V30 15112 C 1449.46 2.76783 3.54431 0
M  V30 15113 C 1448.23 3.44432 3.69722 0
M  V30 15114 C 1450.42 3.74974 3.51993 0
M  V30 15115 N 1448.41 4.83922 3.77747 0
M  V30 15116 C 1449.78 5.0032 3.66169 0
M  V30 15117 C 1451.83 3.68087 3.35285 0
M  V30 15118 C 1450.53 6.19598 3.65364 0
M  V30 15119 C 1452.56 4.86832 3.3578 0
M  V30 15120 C 1451.92 6.11013 3.50489 0
M  V30 15121 H 1448.02 0.349967 0.699319 0
M  V30 15122 H 1450.61 1.37343 1.38003 0
M  V30 15123 H 1448.78 0.725898 3.81556 0
M  V30 15124 H 1450.51 0.942315 3.93577 0
M  V30 15125 H 1447.26 2.94841 3.70629 0
M  V30 15126 H 1447.69 5.56527 3.85495 0
M  V30 15127 H 1452.33 2.73021 3.2283 0
M  V30 15128 H 1450.05 7.14982 3.76597 0
M  V30 15129 H 1453.63 4.83183 3.24076 0
M  V30 15130 H 1452.51 7.01358 3.50809 0
M  V30 15131 N 1450.02 -1.31994 0.861122 0
M  V30 15132 C 1450.95 -2.31214 0.325963 0
M  V30 15133 C 1451.93 -1.59965 -0.578383 0
M  V30 15134 O 1453.11 -1.87726 -0.497268 0
M  V30 15135 C 1450.24 -3.43953 -0.481001 0
M  V30 15136 C 1449.2 -4.2673 0.329474 0
M  V30 15137 C 1448.52 -5.31293 -0.602627 0
M  V30 15138 C 1449.82 -4.98498 1.55874 0
M  V30 15139 H 1451.52 -2.76223 1.15503 0
M  V30 15140 H 1449.06 -1.32797 0.556856 0
M  V30 15141 H 1451.02 -4.12409 -0.86585 0
M  V30 15142 H 1449.74 -2.97687 -1.3435 0
M  V30 15143 H 1448.4 -3.59929 0.696159 0
M  V30 15144 H 1448.05 -4.8128 -1.46215 0
M  V30 15145 H 1447.75 -5.87565 -0.0643044 0
M  V30 15146 H 1449.27 -6.02611 -0.984512 0
M  V30 15147 H 1450.68 -5.596 1.24583 0
M  V30 15148 H 1449.08 -5.64525 2.03548 0
M  V30 15149 H 1450.15 -4.25991 2.31646 0
M  V30 15150 N 1451.49 -0.619688 -1.44906 0
M  V30 15151 C 1452.77 -0.0510703 -1.95533 0
M  V30 15152 C 1453.15 1.42013 -1.56191 0
M  V30 15153 O 1452.5 2.12879 -0.830356 0
M  V30 15154 C 1452.71 -0.261896 -3.48016 0
M  V30 15155 C 1454.06 -0.149057 -4.24338 0
M  V30 15156 O 1455.08 -0.192655 -3.55679 0
M  V30 15157 O 1453.94 -0.0443345 -5.46482 0
M  V30 15158 H 1451.03 0.0288461 -0.826497 0
M  V30 15159 H 1453.58 -0.690594 -1.55013 0
M  V30 15160 H 1452.35 -1.28319 -3.69662 0
M  V30 15161 H 1451.98 0.412314 -3.95456 0
M  V30 15162 N 1452.97 1.53444 -0.359552 0
M  V30 15163 C 1454.25 1.93467 0.288106 0
M  V30 15164 C 1454.63 1.29256 1.66901 0
M  V30 15165 O 1453.98 0.449402 2.24037 0
M  V30 15166 C 1454.19 3.47297 0.344359 0
M  V30 15167 C 1455.54 4.20515 0.587585 0
M  V30 15168 O 1456.56 3.53646 0.425818 0
M  V30 15169 O 1455.42 5.39003 0.902119 0
M  V30 15170 H 1452.51 0.809033 0.171451 0
M  V30 15171 H 1455.06 1.64625 -0.411896 0
M  V30 15172 H 1453.83 3.86292 -0.624064 0
M  V30 15173 H 1453.45 3.82353 1.0905 0
M  V30 15174 N 1454.45 0.0885642 1.57351 0
M  V30 15175 C 1455.68 -0.585238 1.9845 0
M  V30 15176 C 1456.09 -1.62127 0.967483 0
M  V30 15177 O 1455.45 -1.82448 -0.0437565 0
M  V30 15178 C 1455.5 -1.23881 3.39611 0
M  V30 15179 O 1455.22 -0.244223 4.37419 0
M  V30 15180 C 1456.72 -1.99885 3.95678 0
M  V30 15181 H 1453.94 -0.157396 0.652279 0
M  V30 15182 H 1456.49 0.165923 2.03826 0
M  V30 15183 H 1454.64 -1.94094 3.3527 0
M  V30 15184 H 1455.06 -0.715149 5.19602 0
M  V30 15185 H 1456.53 -2.40983 4.9662 0
M  V30 15186 H 1457.01 -2.8621 3.33137 0
M  V30 15187 H 1457.61 -1.34501 4.03472 0
M  V30 15188 N 1455.93 -1.56509 -0.185096 0
M  V30 15189 C 1457.16 -1.85327 -0.91986 0
M  V30 15190 C 1457.57 -0.672294 -1.76425 0
M  V30 15191 O 1456.93 0.358854 -1.78937 0
M  V30 15192 C 1456.98 -3.13047 -1.80787 0
M  V30 15193 O 1456.7 -4.26591 -0.997569 0
M  V30 15194 C 1458.2 -3.55114 -2.65347 0
M  V30 15195 H 1455.42 -0.615196 -0.267909 0
M  V30 15196 H 1457.97 -2.03622 -0.189338 0
M  V30 15197 H 1456.12 -2.96619 -2.4919 0
M  V30 15198 H 1456.53 -4.99384 -1.60362 0
M  V30 15199 H 1458.01 -4.47419 -3.23295 0
M  V30 15200 H 1458.49 -2.78576 -3.39547 0
M  V30 15201 H 1459.09 -3.74105 -2.023 0
M  V30 15202 N 1457.41 0.45317 -1.50944 0
M  V30 15203 C 1458.32 1.57435 -1.73929 0
M  V30 15204 C 1459.33 1.62467 -0.622935 0
M  V30 15205 O 1460.51 1.80004 -0.903365 0
M  V30 15206 C 1457.57 2.93534 -1.84495 0
M  V30 15207 C 1456.63 2.98747 -3.083 0
M  V30 15208 C 1455.87 4.28354 -3.18352 0
M  V30 15209 O 1456.09 5.1986 -2.34738 0
M  V30 15210 O 1455.02 4.39527 -4.11217 0
M  V30 15211 H 1458.85 1.40959 -2.69006 0
M  V30 15212 H 1456.44 0.634545 -1.35255 0
M  V30 15213 H 1458.32 3.74336 -1.93522 0
M  V30 15214 H 1456.99 3.10171 -0.926044 0
M  V30 15215 H 1455.9 2.16958 -3.04762 0
M  V30 15216 H 1457.23 2.87051 -3.99828 0
M  V30 15217 N 1458.88 1.40823 0.707568 0
M  V30 15218 C 1459.82 1.37646 1.83265 0
M  V30 15219 C 1460.83 0.280547 1.60365 0
M  V30 15220 O 1462.02 0.541453 1.7009 0
M  V30 15221 C 1459.12 1.12121 3.19816 0
M  V30 15222 C 1458.29 2.33522 3.69846 0
M  V30 15223 C 1457.35 2.04035 4.85032 0
M  V30 15224 O 1456.38 2.76971 4.97268 0
M  V30 15225 N 1457.58 1.02322 5.71411 0
M  V30 15226 H 1460.34 2.34612 1.86486 0
M  V30 15227 H 1457.9 1.35281 0.889424 0
M  V30 15228 H 1459.9 0.903663 3.94482 0
M  V30 15229 H 1458.47 0.237941 3.11693 0
M  V30 15230 H 1457.69 2.71055 2.86221 0
M  V30 15231 H 1458.97 3.14436 4.00009 0
M  V30 15232 H 1458.37 0.419311 5.64144 0
M  V30 15233 H 1456.93 0.865571 6.46027 0
M  V30 15234 N 1460.36 -0.94061 1.26453 0
M  V30 15235 C 1461.59 -1.72654 1.14914 0
M  V30 15236 C 1462.01 -1.85823 -0.291789 0
M  V30 15237 O 1461.37 -1.34888 -1.2114 0
M  V30 15238 C 1461.42 -3.11083 1.82372 0
M  V30 15239 O 1460.52 -3.971 1.1129 0
M  V30 15240 H 1459.86 -0.529704 0.400387 0
M  V30 15241 H 1462.39 -1.17803 1.67283 0
M  V30 15242 H 1462.4 -3.6147 1.89219 0
M  V30 15243 H 1461.08 -3.00815 2.87199 0
M  V30 15244 H 1459.66 -3.5555 1.12423 0
M  V30 15245 N 1461.84 -1.08266 -1.14527 0
M  V30 15246 C 1462.75 -0.723043 -2.2318 0
M  V30 15247 C 1463.77 0.269819 -1.71895 0
M  V30 15248 O 1464.94 0.114126 -2.01076 0
M  V30 15249 C 1462.01 -0.136229 -3.46432 0
M  V30 15250 C 1461.07 -1.18352 -4.12664 0
M  V30 15251 C 1460.3 -0.624612 -5.30032 0
M  V30 15252 O 1460.52 0.556377 -5.6768 0
M  V30 15253 O 1459.46 -1.37397 -5.86008 0
M  V30 15254 H 1463.28 -1.6294 -2.56289 0
M  V30 15255 H 1460.87 -0.856235 -1.22429 0
M  V30 15256 H 1462.75 0.18829 -4.20979 0
M  V30 15257 H 1461.43 0.74331 -3.1505 0
M  V30 15258 H 1460.33 -1.56054 -3.39997 0
M  V30 15259 H 1461.67 -2.03528 -4.48148 0
M  V30 15260 N 1463.32 1.31536 -0.86811 0
M  V30 15261 C 1464.57 1.96045 -0.474271 0
M  V30 15262 C 1464.88 1.6939 0.978071 0
M  V30 15263 O 1466.09 2.27746 1.47797 0
M  V30 15264 C 1464.54 3.5096 -0.797203 0
M  V30 15265 C 1464.15 3.86456 -2.26618 0
M  V30 15266 C 1465.9 4.21871 -0.471745 0
M  V30 15267 C 1463.8 5.34474 -2.53162 0
M  V30 15268 H 1462.73 0.733737 -0.173627 0
M  V30 15269 H 1465.38 1.49734 -1.06076 0
M  V30 15270 H 1463.77 3.95752 -0.139994 0
M  V30 15271 H 1464.94 3.52629 -2.9663 0
M  V30 15272 H 1463.25 3.28605 -2.55749 0
M  V30 15273 H 1465.85 5.30767 -0.647317 0
M  V30 15274 H 1466.19 4.12131 0.58768 0
M  V30 15275 H 1466.73 3.82706 -1.08542 0
M  V30 15276 H 1463.47 5.49248 -3.57781 0
M  V30 15277 H 1462.99 5.6966 -1.87743 0
M  V30 15278 H 1464.67 6.01716 -2.37797 0
M  V30 15279 N 1464.8 0.627364 1.44575 0
M  V30 15280 C 1465.71 -0.0811184 2.3446 0
M  V30 15281 C 1466.72 -0.839668 1.52399 0
M  V30 15282 O 1467.9 -0.792784 1.8514 0
M  V30 15283 C 1464.96 -1.05296 3.30323 0
M  V30 15284 C 1464.03 -0.294201 4.28291 0
M  V30 15285 C 1463.26 -1.21975 5.19575 0
M  V30 15286 O 1463.48 -2.45834 5.14706 0
M  V30 15287 O 1462.42 -0.70611 5.97744 0
M  V30 15288 H 1466.24 0.658067 2.96485 0
M  V30 15289 H 1463.83 0.387565 1.44285 0
M  V30 15290 H 1465.71 -1.61218 3.89341 0
M  V30 15291 H 1464.38 -1.77283 2.70837 0
M  V30 15292 H 1463.29 0.307969 3.7283 0
M  V30 15293 H 1464.62 0.385567 4.90687 0
M  V30 15294 N 1466.28 -1.53251 0.367684 0
M  V30 15295 C 1467.69 -1.86369 -0.111073 0
M  V30 15296 C 1468.04 -1.2882 -1.47986 0
M  V30 15297 O 1467.16 -0.611058 -2.07593 0
M  V30 15298 C 1467.76 -3.38159 -0.208325 0
M  V30 15299 C 1466.32 -3.71067 -0.63134 0
M  V30 15300 C 1465.46 -2.76425 0.220144 0
M  V30 15301 H 1468.41 -1.47469 0.586398 0
M  V30 15302 H 1468.44 -3.66252 -1.03151 0
M  V30 15303 H 1467.95 -3.80015 0.788038 0
M  V30 15304 H 1466.05 -3.34769 -1.63586 0
M  V30 15305 H 1466.16 -4.77389 -0.404491 0
M  V30 15306 H 1464.53 -2.5279 -0.311298 0
M  V30 15307 H 1465.31 -3.21115 1.21409 0
M  V30 15308 N 1467.75 -0.0969077 -1.57302 0
M  V30 15309 C 1468.66 0.875561 -2.17649 0
M  V30 15310 C 1469.68 1.30892 -1.14645 0
M  V30 15311 O 1470.86 1.37646 -1.47022 0
M  V30 15312 C 1467.92 2.116 -2.74639 0
M  V30 15313 C 1466.98 1.73667 -3.92604 0
M  V30 15314 C 1466.21 2.91798 -4.46867 0
M  V30 15315 O 1466.44 4.06577 -4.00064 0
M  V30 15316 O 1465.37 2.70159 -5.37864 0
M  V30 15317 H 1469.2 0.392107 -3.01158 0
M  V30 15318 H 1466.78 0.127539 -1.48855 0
M  V30 15319 H 1468.66 2.84292 -3.11057 0
M  V30 15320 H 1467.34 2.58994 -1.94174 0
M  V30 15321 H 1466.25 0.981505 -3.60995 0
M  V30 15322 H 1467.58 1.31035 -4.74437 0
M  V30 15323 N 1469.23 1.56605 0.176793 0
M  V30 15324 C 1470.64 1.71418 0.739775 0
M  V30 15325 C 1470.99 0.706527 1.83037 0
M  V30 15326 O 1470.12 -0.133259 2.15989 0
M  V30 15327 C 1470.71 3.10799 1.34867 0
M  V30 15328 C 1469.27 3.27315 1.85854 0
M  V30 15329 C 1468.42 2.67371 0.73541 0
M  V30 15330 H 1471.37 1.58626 -0.0485305 0
M  V30 15331 H 1471.39 3.09146 2.21831 0
M  V30 15332 H 1470.9 3.84116 0.554688 0
M  V30 15333 H 1469 2.58947 2.67913 0
M  V30 15334 H 1469.12 4.35002 2.00774 0
M  V30 15335 H 1467.48 2.27035 1.15444 0
M  V30 15336 H 1468.26 3.43268 -0.0466351 0
M  V30 15337 N 1470.71 -0.445159 1.51182 0
M  V30 15338 C 1471.62 -1.5651 1.74762 0
M  V30 15339 C 1472.64 -1.62134 0.631542 0
M  V30 15340 O 1473.81 -1.79522 0.912898 0
M  V30 15341 C 1470.88 -2.92552 1.86049 0
M  V30 15342 C 1469.94 -2.97108 3.0988 0
M  V30 15343 C 1469.17 -4.2666 3.2062 0
M  V30 15344 O 1469.39 -5.18608 2.37491 0
M  V30 15345 O 1468.33 -4.3734 4.13542 0
M  V30 15346 H 1472.15 -1.3953 2.6975 0
M  V30 15347 H 1469.74 -0.627363 1.3559 0
M  V30 15348 H 1471.62 -3.73304 1.95504 0
M  V30 15349 H 1470.3 -3.09676 0.94248 0
M  V30 15350 H 1469.2 -2.15338 3.05909 0
M  V30 15351 H 1470.54 -2.84927 4.01345 0
M  V30 15352 N 1472.19 -1.41197 -0.700089 0
M  V30 15353 C 1473.6 -1.3593 -1.27985 0
M  V30 15354 C 1473.95 -0.0402059 -1.96159 0
M  V30 15355 O 1473.07 0.861611 -1.98508 0
M  V30 15356 C 1473.67 -2.46203 -2.32743 0
M  V30 15357 C 1472.23 -2.44348 -2.86306 0
M  V30 15358 C 1471.38 -2.26283 -1.60285 0
M  V30 15359 H 1474.33 -1.50778 -0.495152 0
M  V30 15360 H 1474.35 -2.15001 -3.13934 0
M  V30 15361 H 1473.86 -3.42195 -1.83096 0
M  V30 15362 H 1471.96 -1.521 -3.40142 0
M  V30 15363 H 1472.07 -3.40497 -3.37044 0
M  V30 15364 H 1470.44 -1.74078 -1.85928 0
M  V30 15365 H 1471.22 -3.24295 -1.1264 0
M  V30 15366 N 1473.67 0.933891 -1.2695 0
M  V30 15367 C 1474.89 1.71512 -1.15721 0
M  V30 15368 C 1475.31 1.8661 0.286712 0
M  V30 15369 O 1474.67 1.3787 1.19574 0
M  V30 15370 C 1474.72 3.11804 -1.82922 0
M  V30 15371 O 1474.44 2.97421 -3.21672 0
M  V30 15372 C 1475.94 4.06108 -1.7774 0
M  V30 15373 H 1473.16 0.53678 -0.402626 0
M  V30 15374 H 1475.7 1.17025 -1.67706 0
M  V30 15375 H 1473.86 3.6317 -1.34856 0
M  V30 15376 H 1474.27 3.86069 -3.55037 0
M  V30 15377 H 1475.75 5.02082 -2.29385 0
M  V30 15378 H 1476.22 4.32828 -0.74543 0
M  V30 15379 H 1476.83 3.60665 -2.25391 0
M  V30 15380 N 1475.14 1.08871 1.13951 0
M  V30 15381 C 1476.55 0.841552 1.66658 0
M  V30 15382 C 1476.91 -0.630932 1.85779 0
M  V30 15383 O 1476.03 -1.48673 1.57243 0
M  V30 15384 C 1476.63 1.52109 3.02735 0
M  V30 15385 C 1475.18 1.32105 3.52456 0
M  V30 15386 C 1474.33 1.58084 2.27826 0
M  V30 15387 H 1477.28 1.24865 0.97951 0
M  V30 15388 H 1477.3 0.950978 3.68425 0
M  V30 15389 H 1476.82 2.59276 2.88786 0
M  V30 15390 H 1474.92 0.270294 3.71618 0
M  V30 15391 H 1475.03 2.05197 4.32933 0
M  V30 15392 H 1473.39 1.00264 2.34135 0
M  V30 15393 H 1474.18 2.66467 2.16449 0
M  V30 15394 N 1476.62 -1.31073 0.875073 0
M  V30 15395 C 1477.53 -2.3215 0.338196 0
M  V30 15396 C 1478.55 -1.64928 -0.554504 0
M  V30 15397 O 1479.72 -1.96308 -0.449998 0
M  V30 15398 C 1476.79 -3.43804 -0.447163 0
M  V30 15399 C 1475.85 -4.26674 0.474106 0
M  V30 15400 C 1475.08 -5.32997 -0.273867 0
M  V30 15401 O 1475.31 -5.50288 -1.50129 0
M  V30 15402 O 1474.24 -6.00756 0.370913 0
M  V30 15403 H 1478.07 -2.80002 1.17612 0
M  V30 15404 H 1475.65 -1.35064 0.6386 0
M  V30 15405 H 1477.53 -4.11847 -0.892199 0
M  V30 15406 H 1476.21 -2.98105 -1.26155 0
M  V30 15407 H 1475.11 -3.61366 0.967748 0
M  V30 15408 H 1476.45 -4.75952 1.25423 0
M  V30 15409 N 1478.1 -0.635022 -1.4424 0
M  V30 15410 C 1479.01 0.0686832 -2.34499 0
M  V30 15411 C 1480.03 0.831574 -1.52843 0
M  V30 15412 O 1481.2 0.782954 -1.85558 0
M  V30 15413 C 1478.27 1.03543 -3.30877 0
M  V30 15414 C 1477.33 0.271484 -4.28441 0
M  V30 15415 C 1476.56 1.19218 -5.20214 0
M  V30 15416 O 1476.78 2.43101 -5.16002 0
M  V30 15417 O 1475.72 0.6744 -5.9811 0
M  V30 15418 H 1479.54 -0.673781 -2.96132 0
M  V30 15419 H 1477.13 -0.395211 -1.44078 0
M  V30 15420 H 1479.01 1.59151 -3.90191 0
M  V30 15421 H 1477.69 1.75844 -2.71773 0
M  V30 15422 H 1476.59 -0.327736 -3.72662 0
M  V30 15423 H 1477.93 -0.411584 -4.90476 0
M  V30 15424 N 1479.58 1.53054 -0.375806 0
M  V30 15425 C 1480.99 1.86426 0.101188 0
M  V30 15426 C 1481.34 1.29603 1.47301 0
M  V30 15427 O 1480.47 0.622059 2.07266 0
M  V30 15428 C 1481.06 3.38265 0.190389 0
M  V30 15429 C 1479.62 3.71397 0.611653 0
M  V30 15430 C 1478.77 2.76304 -0.234801 0
M  V30 15431 H 1481.72 1.47156 -0.594211 0
M  V30 15432 H 1481.74 3.66793 1.01207 0
M  V30 15433 H 1481.25 3.79592 -0.80818 0
M  V30 15434 H 1479.35 3.35632 1.61808 0
M  V30 15435 H 1479.46 4.77597 0.379168 0
M  V30 15436 H 1477.83 2.52952 0.297888 0
M  V30 15437 H 1478.61 3.20467 -1.2311 0
M  V30 15438 N 1481.06 0.105248 1.57248 0
M  V30 15439 C 1482.3 -0.556878 1.95004 0
M  V30 15440 C 1482.64 -1.672 0.987818 0
M  V30 15441 O 1481.91 -1.94487 0.022616 0
M  V30 15442 C 1482.19 -1.10252 3.42807 0
M  V30 15443 C 1482.05 0.00823908 4.49799 0
M  V30 15444 C 1483.37 -1.99774 3.92146 0
M  V30 15445 H 1480.48 -0.200959 0.709073 0
M  V30 15446 H 1483.13 0.178019 1.89164 0
M  V30 15447 H 1481.28 -1.7288 3.47915 0
M  V30 15448 H 1482.95 0.642944 4.56797 0
M  V30 15449 H 1481.19 0.673265 4.28544 0
M  V30 15450 H 1481.86 -0.414538 5.50441 0
M  V30 15451 H 1484.34 -1.47036 3.89255 0
M  V30 15452 H 1483.21 -2.34874 4.9611 0
M  V30 15453 H 1483.48 -2.91902 3.32033 0
M  V30 15454 N 1482.53 -1.56697 -0.168486 0
M  V30 15455 C 1483.48 -1.9755 -1.22787 0
M  V30 15456 C 1484.48 -0.864668 -1.4567 0
M  V30 15457 O 1485.68 -1.04979 -1.46217 0
M  V30 15458 H 1482.06 -0.628561 -0.412813 0
M  V30 15459 H 1484.03 -2.85845 -0.85646 0
M  V30 15460 C 1482.78 -2.35394 -2.559 0
M  V30 15461 H 1482.1 -3.20412 -2.39115 0
M  V30 15462 H 1483.54 -2.67821 -3.28706 0
M  V30 15463 C 1482 -1.19842 -3.14864 0
M  V30 15464 O 1482.53 -0.487601 -3.9873 0
M  V30 15465 N 1480.74 -0.968249 -2.73995 0
M  V30 15466 H 1480.28 -1.54804 -2.05897 0
M  V30 15467 H 1480.24 -0.196951 -3.13783 0
M  V30 15468 N 1484.01 0.437135 -1.51416 0
M  V30 15469 C 1484.94 1.54894 -1.68939 0
M  V30 15470 C 1485.96 1.52493 -0.570059 0
M  V30 15471 O 1487.15 1.57266 -0.844381 0
M  V30 15472 C 1484.25 2.9381 -1.68904 0
M  V30 15473 C 1483.42 3.20714 -2.97425 0
M  V30 15474 C 1482.48 4.39355 -2.89575 0
M  V30 15475 O 1481.5 4.37999 -3.63519 0
M  V30 15476 N 1482.71 5.42931 -2.05441 0
M  V30 15477 H 1485.47 1.40267 -2.64849 0
M  V30 15478 H 1483.03 0.626075 -1.49305 0
M  V30 15479 H 1485.02 3.71201 -1.61221 0
M  V30 15480 H 1483.59 3.02034 -0.805871 0
M  V30 15481 H 1482.81 2.31621 -3.18975 0
M  V30 15482 H 1484.1 3.35516 -3.825 0
M  V30 15483 H 1483.5 5.4687 -1.44742 0
M  V30 15484 H 1482.06 6.19173 -2.03636 0
M  V30 15485 N 1485.49 1.41566 0.692592 0
M  V30 15486 C 1486.74 1.41083 1.45265 0
M  V30 15487 C 1487.07 0.0209998 1.94489 0
M  V30 15488 O 1486.32 -0.96764 1.70104 0
M  V30 15489 C 1486.62 2.36683 2.67799 0
M  V30 15490 C 1486.29 3.83458 2.37215 0
M  V30 15491 C 1484.95 4.23441 2.28585 0
M  V30 15492 C 1487.3 4.76114 2.12048 0
M  V30 15493 C 1484.63 5.54086 1.92888 0
M  V30 15494 C 1486.98 6.07082 1.7786 0
M  V30 15495 C 1485.64 6.46083 1.67727 0
M  V30 15496 H 1484.91 0.51626 0.531561 0
M  V30 15497 H 1487.56 1.74385 0.791337 0
M  V30 15498 H 1485.87 1.96645 3.38877 0
M  V30 15499 H 1487.56 2.33581 3.25946 0
M  V30 15500 H 1484.15 3.51792 2.44828 0
M  V30 15501 H 1488.34 4.46025 2.17659 0
M  V30 15502 H 1483.59 5.83182 1.83599 0
M  V30 15503 H 1487.77 6.78378 1.57407 0
M  V30 15504 H 1485.39 7.47228 1.39836 0
M  V30 15505 N 1486.97 -0.927146 1.27443 0
M  V30 15506 C 1488.2 -1.70896 1.16629 0
M  V30 15507 C 1488.61 -1.8676 -0.276811 0
M  V30 15508 O 1487.97 -1.38503 -1.18842 0
M  V30 15509 C 1488.02 -3.1083 1.84573 0
M  V30 15510 O 1487.74 -2.9571 3.23244 0
M  V30 15511 C 1489.24 -4.05159 1.79891 0
M  V30 15512 H 1486.46 -0.534638 0.405467 0
M  V30 15513 H 1489.01 -1.16134 1.68325 0
M  V30 15514 H 1487.16 -3.6245 1.3678 0
M  V30 15515 H 1487.57 -3.84181 3.57079 0
M  V30 15516 H 1489.05 -5.00859 2.32044 0
M  V30 15517 H 1489.53 -4.32426 0.768373 0
M  V30 15518 H 1490.13 -3.59464 2.273 0
M  V30 15519 N 1488.45 -1.09474 -1.13372 0
M  V30 15520 C 1489.69 -0.82945 -1.84295 0
M  V30 15521 C 1490.02 0.646788 -1.83961 0
M  V30 15522 O 1489.29 1.46929 -1.29572 0
M  V30 15523 H 1487.87 -0.303853 -0.682409 0
M  V30 15524 H 1490.53 -1.38298 -1.3733 0
M  V30 15525 H 1489.62 -1.18342 -2.88793 0
M  V30 15526 N 1489.92 1.30607 -0.882012 0
M  V30 15527 C 1491.15 2.00128 -0.51307 0
M  V30 15528 C 1491.56 1.66307 0.902144 0
M  V30 15529 O 1490.91 0.894797 1.60434 0
M  V30 15530 C 1490.97 3.5438 -0.604547 0
M  V30 15531 C 1490.63 4.1171 -1.98354 0
M  V30 15532 C 1491.63 4.27924 -2.95257 0
M  V30 15533 C 1489.31 4.47158 -2.28812 0
M  V30 15534 C 1491.31 4.78795 -4.20755 0
M  V30 15535 C 1488.99 4.97728 -3.54556 0
M  V30 15536 C 1489.99 5.13499 -4.50342 0
M  V30 15537 O 1489.68 5.62978 -5.73856 0
M  V30 15538 H 1489.41 0.646608 -0.197165 0
M  V30 15539 H 1491.97 1.67532 -1.18837 0
M  V30 15540 H 1490.2 3.86489 0.127719 0
M  V30 15541 H 1491.89 4.05146 -0.247308 0
M  V30 15542 H 1492.65 4.00844 -2.73037 0
M  V30 15543 H 1488.53 4.34152 -1.55026 0
M  V30 15544 H 1492.07 4.91019 -4.95526 0
M  V30 15545 H 1487.97 5.24244 -3.76615 0
M  V30 15546 H 1488.74 5.81326 -5.76196 0
M  V30 15547 N 1491.4 0.642663 1.43901 0
M  V30 15548 C 1492.33 -0.0419756 2.33462 0
M  V30 15549 C 1493.31 -0.822923 1.48869 0
M  V30 15550 O 1494.5 -0.786508 1.7756 0
M  V30 15551 C 1491.63 -1.01631 3.32097 0
M  V30 15552 C 1490.58 -0.346206 4.26597 0
M  V30 15553 C 1489.91 -1.43125 5.15189 0
M  V30 15554 C 1491.21 0.754799 5.16817 0
M  V30 15555 H 1492.9 0.705929 2.90959 0
M  V30 15556 H 1490.45 0.340924 1.39906 0
M  V30 15557 H 1492.4 -1.5041 3.93643 0
M  V30 15558 H 1491.13 -1.79525 2.72834 0
M  V30 15559 H 1489.78 0.121038 3.664 0
M  V30 15560 H 1489.43 -2.20135 4.52271 0
M  V30 15561 H 1489.13 -0.988194 5.79231 0
M  V30 15562 H 1490.66 -1.92061 5.79607 0
M  V30 15563 H 1492.07 0.349624 5.72233 0
M  V30 15564 H 1490.47 1.12169 5.89524 0
M  V30 15565 H 1491.54 1.61718 4.57138 0
M  V30 15566 N 1492.88 -1.52852 0.383918 0
M  V30 15567 C 1493.83 -2.26294 -0.453826 0
M  V30 15568 C 1494.8 -1.27688 -1.0623 0
M  V30 15569 O 1495.98 -1.56507 -1.09134 0
M  V30 15570 C 1493.12 -3.06907 -1.57803 0
M  V30 15571 C 1492.24 -4.20434 -0.992943 0
M  V30 15572 C 1491.37 -4.88453 -2.08776 0
M  V30 15573 C 1490.41 -5.93981 -1.47828 0
M  V30 15574 N 1489.55 -6.55617 -2.51218 0
M  V30 15575 H 1494.39 -2.97462 0.178927 0
M  V30 15576 H 1491.92 -1.46759 0.100066 0
M  V30 15577 H 1493.88 -3.51933 -2.24052 0
M  V30 15578 H 1492.51 -2.37959 -2.18118 0
M  V30 15579 H 1491.56 -3.79762 -0.22021 0
M  V30 15580 H 1492.88 -4.96211 -0.507504 0
M  V30 15581 H 1492.03 -5.36755 -2.82806 0
M  V30 15582 H 1490.77 -4.12187 -2.60678 0
M  V30 15583 H 1489.77 -5.45023 -0.723202 0
M  V30 15584 H 1491 -6.72176 -0.967278 0
M  V30 15585 H 1488.95 -5.82195 -3.02299 0
M  V30 15586 H 1488.86 -7.26991 -2.07414 0
M  V30 15587 H 1490.13 -7.08564 -3.24895 0
M  V30 15588 N 1494.36 -0.113586 -1.5719 0
M  V30 15589 C 1495.29 0.835363 -2.18046 0
M  V30 15590 C 1496.27 1.28114 -1.11897 0
M  V30 15591 O 1497.46 1.34472 -1.40111 0
M  V30 15592 C 1494.59 2.08759 -2.77556 0
M  V30 15593 C 1493.54 1.77979 -3.8924 0
M  V30 15594 C 1492.87 3.10185 -4.35533 0
M  V30 15595 C 1494.17 1.05231 -5.11589 0
M  V30 15596 H 1495.86 0.328275 -2.97595 0
M  V30 15597 H 1493.41 0.156456 -1.43148 0
M  V30 15598 H 1495.36 2.75597 -3.18785 0
M  V30 15599 H 1494.08 2.61783 -1.95288 0
M  V30 15600 H 1492.74 1.13532 -3.48577 0
M  V30 15601 H 1492.39 3.61133 -3.50131 0
M  V30 15602 H 1492.09 2.90367 -5.10843 0
M  V30 15603 H 1493.61 3.78151 -4.7941 0
M  V30 15604 H 1495.03 1.62213 -5.49872 0
M  V30 15605 H 1493.42 0.955269 -5.92448 0
M  V30 15606 H 1494.49 0.038137 -4.84885 0
M  V30 15607 N 1495.84 1.56784 0.160173 0
M  V30 15608 C 1497.07 1.86767 0.89026 0
M  V30 15609 C 1497.48 0.700276 1.75333 0
M  V30 15610 O 1496.84 -0.330342 1.79485 0
M  V30 15611 C 1496.89 3.15883 1.75784 0
M  V30 15612 O 1496.61 4.28124 0.929575 0
M  V30 15613 C 1498.11 3.5929 2.59664 0
M  V30 15614 H 1495.33 0.61938 0.258088 0
M  V30 15615 H 1497.87 2.03897 0.156919 0
M  V30 15616 H 1496.03 3.00546 2.4444 0
M  V30 15617 H 1496.44 5.01872 1.52397 0
M  V30 15618 H 1497.92 4.52506 3.16136 0
M  V30 15619 H 1498.39 2.83943 3.35072 0
M  V30 15620 H 1499 3.77277 1.96323 0
M  V30 15621 N 1497.32 -0.429099 1.51646 0
M  V30 15622 C 1498.59 -1.18958 1.55269 0
M  V30 15623 C 1498.97 -2.08633 0.321816 0
M  V30 15624 O 1498.32 -2.1775 -0.69261 0
M  V30 15625 C 1498.53 -1.98427 2.87102 0
M  V30 15626 C 1499.88 -2.55185 3.39361 0
M  V30 15627 O 1500.9 -2.08629 2.88708 0
M  V30 15628 O 1499.76 -3.40119 4.27763 0
M  V30 15629 H 1496.86 -0.542041 0.624596 0
M  V30 15630 H 1499.4 -0.437499 1.63964 0
M  V30 15631 H 1498.17 -1.32613 3.68143 0
M  V30 15632 H 1497.8 -2.80683 2.81608 0
M  V30 15633 N 1498.79 -1.41931 -0.685074 0
M  V30 15634 C 1499.74 -1.44824 -1.82013 0
M  V30 15635 C 1500.74 -0.325083 -1.66252 0
M  V30 15636 O 1501.94 -0.497614 -1.72985 0
M  V30 15637 H 1498.32 -0.453362 -0.599972 0
M  V30 15638 H 1500.29 -2.40464 -1.76691 0
M  V30 15639 C 1499.04 -1.35753 -3.20104 0
M  V30 15640 H 1498.36 -2.21469 -3.32854 0
M  V30 15641 H 1499.8 -1.41838 -3.99572 0
M  V30 15642 C 1498.26 -0.0710816 -3.36825 0
M  V30 15643 O 1498.79 0.880155 -3.91939 0
M  V30 15644 N 1496.99 0.00842652 -2.90599 0
M  V30 15645 H 1496.54 -0.766427 -2.45934 0
M  V30 15646 H 1496.5 0.868559 -3.02165 0
M  V30 15647 N 1500.27 0.920374 -1.27933 0
M  V30 15648 C 1501.52 1.67131 -1.1487 0
M  V30 15649 C 1501.85 1.91816 0.303343 0
M  V30 15650 O 1501.13 1.51379 1.22125 0
M  V30 15651 C 1501.41 3.03332 -1.94066 0
M  V30 15652 C 1501.26 2.85842 -3.47296 0
M  V30 15653 C 1502.58 4.03773 -1.75087 0
M  V30 15654 H 1499.7 0.606537 -0.418666 0
M  V30 15655 H 1502.34 1.06755 -1.57173 0
M  V30 15656 H 1500.49 3.54869 -1.58116 0
M  V30 15657 H 1502.16 2.41367 -3.93115 0
M  V30 15658 H 1500.41 2.21035 -3.73264 0
M  V30 15659 H 1501.08 3.82535 -3.97958 0
M  V30 15660 H 1503.55 3.61274 -2.06447 0
M  V30 15661 H 1502.43 4.97048 -2.32882 0
M  V30 15662 H 1502.69 4.36512 -0.700665 0
M  V30 15663 N 1501.75 1.10074 1.1279 0
M  V30 15664 C 1502.71 0.74967 2.16593 0
M  V30 15665 C 1503.71 -0.224046 1.59232 0
M  V30 15666 O 1504.9 -0.00137104 1.742 0
M  V30 15667 C 1502.03 0.109795 3.40723 0
M  V30 15668 H 1503.23 1.66906 2.49164 0
M  V30 15669 H 1500.78 0.900781 1.27733 0
M  V30 15670 H 1501.52 -0.820501 3.13749 0
M  V30 15671 H 1501.3 0.810517 3.83631 0
M  V30 15672 H 1502.79 -0.120198 4.17427 0
M  V30 15673 N 1503.23 -1.30138 0.888926 0
M  V30 15674 C 1504.48 -1.95265 0.5054 0
M  V30 15675 C 1504.79 -1.70925 -0.950998 0
M  V30 15676 O 1506 -2.30069 -1.44155 0
M  V30 15677 C 1504.45 -3.49647 0.852937 0
M  V30 15678 C 1504.06 -3.82802 2.32737 0
M  V30 15679 C 1505.8 -4.21067 0.538801 0
M  V30 15680 C 1503.71 -5.30379 2.61633 0
M  V30 15681 H 1502.64 -0.730882 0.185278 0
M  V30 15682 H 1505.29 -1.48027 1.08444 0
M  V30 15683 H 1503.67 -3.9548 0.202937 0
M  V30 15684 H 1504.85 -3.47866 3.02202 0
M  V30 15685 H 1503.16 -3.24495 2.60944 0
M  V30 15686 H 1505.76 -5.2967 0.731676 0
M  V30 15687 H 1506.1 -4.13014 -0.522039 0
M  V30 15688 H 1506.64 -3.8093 1.14617 0
M  V30 15689 H 1503.37 -5.43486 3.66473 0
M  V30 15690 H 1502.89 -5.66601 1.96782 0
M  V30 15691 H 1504.57 -5.97856 2.47339 0
M  V30 15692 N 1504.71 -0.650285 -1.43559 0
M  V30 15693 C 1505.65 0.043098 -2.3076 0
M  V30 15694 C 1506.62 0.81763 -1.44582 0
M  V30 15695 O 1507.81 0.794825 -1.73457 0
M  V30 15696 C 1504.95 1.00557 -3.30125 0
M  V30 15697 C 1504.06 0.227448 -4.31401 0
M  V30 15698 C 1503.2 1.18345 -5.17849 0
M  V30 15699 C 1502.23 0.395596 -6.1082 0
M  V30 15700 N 1501.37 1.30304 -6.89902 0
M  V30 15701 H 1506.21 -0.706402 -2.89506 0
M  V30 15702 H 1503.75 -0.360118 -1.42624 0
M  V30 15703 H 1505.71 1.57717 -3.8624 0
M  V30 15704 H 1504.34 1.72198 -2.73034 0
M  V30 15705 H 1503.39 -0.460391 -3.77604 0
M  V30 15706 H 1504.7 -0.385316 -4.9731 0
M  V30 15707 H 1503.85 1.82578 -5.78576 0
M  V30 15708 H 1502.59 1.83013 -4.52059 0
M  V30 15709 H 1501.6 -0.260099 -5.49184 0
M  V30 15710 H 1502.82 -0.246633 -6.78652 0
M  V30 15711 H 1500.77 1.93657 -6.26764 0
M  V30 15712 H 1500.69 0.744768 -7.52323 0
M  V30 15713 H 1501.95 1.93361 -7.55137 0
M  V30 15714 N 1506.18 1.52647 -0.392018 0
M  V30 15715 C 1507.42 2.03524 0.189041 0
M  V30 15716 C 1507.79 1.27204 1.43816 0
M  V30 15717 O 1508.99 1.6822 2.09656 0
M  V30 15718 C 1507.26 3.54584 0.447779 0
M  V30 15719 S 1508.82 4.27283 0.998734 0
M  V30 15720 H 1505.64 0.709022 0.0530042 0
M  V30 15721 H 1508.24 1.87866 -0.540993 0
M  V30 15722 H 1506.94 4.07718 -0.468401 0
M  V30 15723 H 1506.47 3.74453 1.20616 0
M  V30 15724 H 1508.49 4.40671 2.28086 0
M  V30 15725 N 1507.66 0.121921 1.57128 0
M  V30 15726 C 1508.91 -0.536164 1.95584 0
M  V30 15727 C 1509.24 -1.66143 1.0055 0
M  V30 15728 O 1508.52 -1.94452 0.0432427 0
M  V30 15729 C 1508.8 -1.0661 3.43957 0
M  V30 15730 C 1508.65 0.0559458 4.49765 0
M  V30 15731 C 1509.97 -1.95603 3.94243 0
M  V30 15732 H 1507.09 -0.193427 0.711165 0
M  V30 15733 H 1509.73 0.198072 1.88965 0
M  V30 15734 H 1507.88 -1.69181 3.49729 0
M  V30 15735 H 1509.55 0.691357 4.5609 0
M  V30 15736 H 1507.8 0.71868 4.27805 0
M  V30 15737 H 1508.47 -0.356133 5.5085 0
M  V30 15738 H 1510.94 -1.42899 3.90793 0
M  V30 15739 H 1509.82 -2.29599 4.98573 0
M  V30 15740 H 1510.08 -2.88364 3.3511 0
M  V30 15741 N 1509.14 -1.56867 -0.151857 0
M  V30 15742 C 1510.42 -1.7399 -0.893694 0
M  V30 15743 C 1510.8 -0.688628 -1.99552 0
M  V30 15744 O 1510.15 0.293289 -2.2661 0
M  V30 15745 C 1510.36 -3.1788 -1.44061 0
M  V30 15746 C 1511.7 -3.7942 -1.90592 0
M  V30 15747 O 1512.73 -3.21279 -1.53813 0
M  V30 15748 O 1511.59 -4.81549 -2.58404 0
M  V30 15749 H 1508.68 -0.711229 -0.421998 0
M  V30 15750 H 1511.23 -1.69137 -0.138162 0
M  V30 15751 H 1510 -3.85888 -0.648529 0
M  V30 15752 H 1509.62 -3.27139 -2.25978 0
M  V30 15753 N 1510.62 0.421051 -1.51871 0
M  V30 15754 C 1511.87 1.16611 -1.64574 0
M  V30 15755 C 1512.18 1.91955 -0.375835 0
M  V30 15756 O 1513.39 2.68792 -0.382481 0
M  V30 15757 C 1511.84 2.12164 -2.90714 0
M  V30 15758 C 1511.45 1.42392 -4.24769 0
M  V30 15759 C 1513.19 2.87002 -3.12778 0
M  V30 15760 C 1511.1 2.36523 -5.42043 0
M  V30 15761 H 1510.03 0.438989 -0.613029 0
M  V30 15762 H 1512.68 0.431636 -1.78351 0
M  V30 15763 H 1511.06 2.89114 -2.70608 0
M  V30 15764 H 1512.24 0.708875 -4.55315 0
M  V30 15765 H 1510.55 0.796421 -4.08713 0
M  V30 15766 H 1513.15 3.5755 -3.9757 0
M  V30 15767 H 1513.49 3.49277 -2.2652 0
M  V30 15768 H 1514.03 2.17154 -3.333 0
M  V30 15769 H 1510.77 1.78913 -6.30611 0
M  V30 15770 H 1510.29 3.06034 -5.15852 0
M  V30 15771 H 1511.96 2.97306 -5.74646 0
M  V30 15772 N 1512.1 1.42293 0.677538 0
M  V30 15773 C 1513.34 1.42827 1.43973 0
M  V30 15774 C 1513.68 0.0435041 1.94151 0
M  V30 15775 O 1512.95 -0.931794 1.70727 0
M  V30 15776 C 1513.23 2.45037 2.63873 0
M  V30 15777 C 1513.09 3.92694 2.19344 0
M  V30 15778 C 1514.41 2.4427 3.66087 0
M  V30 15779 H 1511.52 0.520097 0.522176 0
M  V30 15780 H 1514.17 1.73688 0.770219 0
M  V30 15781 H 1512.32 2.18851 3.20993 0
M  V30 15782 H 1513.99 4.2985 1.67412 0
M  V30 15783 H 1512.23 4.06692 1.50944 0
M  V30 15784 H 1512.9 4.59784 3.05455 0
M  V30 15785 H 1515.38 2.67551 3.18678 0
M  V30 15786 H 1514.25 3.17769 4.47564 0
M  V30 15787 H 1514.52 1.46769 4.17027 0
M  V30 15788 N 1513.57 -0.913576 1.28419 0
M  V30 15789 C 1514.52 -2.01603 1.12361 0
M  V30 15790 C 1515.49 -1.66087 0.0206953 0
M  V30 15791 O 1516.68 -1.89895 0.185659 0
M  V30 15792 C 1513.82 -3.35897 0.791655 0
M  V30 15793 C 1512.93 -3.84281 1.97363 0
M  V30 15794 C 1512.06 -5.07087 1.58228 0
M  V30 15795 C 1511.1 -5.47804 2.73089 0
M  V30 15796 N 1510.24 -6.618 2.34446 0
M  V30 15797 H 1515.08 -2.1467 2.0669 0
M  V30 15798 H 1512.62 -1.05147 1.02871 0
M  V30 15799 H 1514.58 -4.13149 0.579943 0
M  V30 15800 H 1513.21 -3.22596 -0.114699 0
M  V30 15801 H 1512.26 -3.03184 2.29746 0
M  V30 15802 H 1513.57 -4.10417 2.83477 0
M  V30 15803 H 1512.72 -5.91883 1.33264 0
M  V30 15804 H 1511.46 -4.82759 0.692429 0
M  V30 15805 H 1510.47 -4.61549 2.98751 0
M  V30 15806 H 1511.69 -5.74119 3.62717 0
M  V30 15807 H 1509.64 -6.39103 1.4793 0
M  V30 15808 H 1509.56 -6.87663 3.14096 0
M  V30 15809 H 1510.82 -7.49901 2.12766 0
M  V30 15810 N 1515.05 -1.1067 -1.12204 0
M  V30 15811 C 1515.96 -0.770221 -2.21596 0
M  V30 15812 C 1516.98 0.233297 -1.72429 0
M  V30 15813 O 1518.15 0.0714493 -2.01273 0
M  V30 15814 C 1515.22 -0.209682 -3.46065 0
M  V30 15815 C 1514.28 -1.27079 -4.1006 0
M  V30 15816 C 1513.51 -0.736899 -5.28588 0
M  V30 15817 O 1513.74 0.435838 -5.68732 0
M  V30 15818 O 1512.67 -1.49797 -5.82962 0
M  V30 15819 H 1516.5 -1.6834 -2.52776 0
M  V30 15820 H 1514.08 -0.882012 -1.20586 0
M  V30 15821 H 1515.96 0.0989516 -4.21284 0
M  V30 15822 H 1514.64 0.676316 -3.16556 0
M  V30 15823 H 1513.55 -1.63231 -3.3661 0
M  V30 15824 H 1514.88 -2.12989 -4.4373 0
M  V30 15825 N 1516.53 1.29665 -0.895815 0
M  V30 15826 C 1517.49 2.26103 -0.3755 0
M  V30 15827 C 1518.49 1.53212 0.488126 0
M  V30 15828 O 1519.68 1.71706 0.293733 0
M  V30 15829 C 1516.82 3.37732 0.46364 0
M  V30 15830 H 1518.01 2.73643 -1.22718 0
M  V30 15831 H 1515.56 1.4104 -0.673613 0
M  V30 15832 H 1516.3 2.95526 1.33546 0
M  V30 15833 H 1516.08 3.91793 -0.155123 0
M  V30 15834 H 1517.57 4.09488 0.819112 0
M  V30 15835 N 1518.01 0.657889 1.43212 0
M  V30 15836 C 1518.94 -0.0695999 2.29094 0
M  V30 15837 C 1519.95 -0.782463 1.42763 0
M  V30 15838 O 1521.14 -0.63944 1.66654 0
M  V30 15839 C 1518.24 -1.12178 3.19796 0
M  V30 15840 C 1517.42 -0.486131 4.3469 0
M  V30 15841 C 1516.47 -1.43582 5.06232 0
M  V30 15842 O 1515.5 -0.942622 5.61341 0
M  V30 15843 N 1516.7 -2.76966 5.10167 0
M  V30 15844 H 1519.47 0.667565 2.92171 0
M  V30 15845 H 1517.03 0.501022 1.53953 0
M  V30 15846 H 1519.02 -1.75801 3.64522 0
M  V30 15847 H 1517.59 -1.76087 2.58287 0
M  V30 15848 H 1516.81 0.329281 3.92822 0
M  V30 15849 H 1518.1 -0.0425918 5.08782 0
M  V30 15850 H 1517.5 -3.19592 4.66774 0
M  V30 15851 H 1516.05 -3.3588 5.58595 0
M  V30 15852 N 1519.49 -1.52437 0.400108 0
M  V30 15853 C 1520.71 -2.0661 -0.180861 0
M  V30 15854 C 1521.14 -1.269 -1.38845 0
M  V30 15855 O 1520.49 -0.296862 -1.78853 0
M  V30 15856 C 1520.54 -3.56851 -0.518595 0
M  V30 15857 O 1519.65 -3.79634 -1.61095 0
M  V30 15858 H 1518.99 -0.663752 -0.0181348 0
M  V30 15859 H 1521.52 -1.96479 0.570702 0
M  V30 15860 H 1521.53 -4.00478 -0.779817 0
M  V30 15861 H 1520.2 -4.14302 0.364216 0
M  V30 15862 H 1518.78 -3.47892 -1.3426 0
M  V30 15863 N 1520.96 -0.130252 -1.57061 0
M  V30 15864 C 1521.93 0.801529 -2.14728 0
M  V30 15865 C 1522.93 1.18687 -1.08489 0
M  V30 15866 O 1524.12 1.11054 -1.34211 0
M  V30 15867 C 1521.25 2.08542 -2.69672 0
M  V30 15868 H 1522.44 0.300172 -2.98394 0
M  V30 15869 H 1520 0.119077 -1.55846 0
M  V30 15870 H 1520.73 2.63083 -1.89625 0
M  V30 15871 H 1520.52 1.81849 -3.47381 0
M  V30 15872 H 1522.01 2.75126 -3.14158 0
M  V30 15873 N 1522.44 1.56945 0.143535 0
M  V30 15874 C 1523.39 1.99479 1.19628 0
M  V30 15875 C 1524.39 0.887733 1.44276 0
M  V30 15876 O 1525.59 1.07292 1.44528 0
M  V30 15877 H 1521.97 0.635049 0.402761 0
M  V30 15878 H 1523.94 2.87171 0.810877 0
M  V30 15879 C 1522.69 2.39436 2.52123 0
M  V30 15880 H 1522.01 3.24176 2.33987 0
M  V30 15881 H 1523.45 2.73017 3.24404 0
M  V30 15882 C 1521.91 1.24836 3.12918 0
M  V30 15883 O 1522.44 0.550973 3.97903 0
M  V30 15884 N 1520.64 1.01172 2.7242 0
M  V30 15885 H 1520.19 1.5806 2.03408 0
M  V30 15886 H 1520.15 0.246846 3.13429 0
M  V30 15887 N 1523.92 -0.412991 1.52093 0
M  V30 15888 C 1525.33 -0.991955 1.58168 0
M  V30 15889 C 1525.68 -1.91655 0.419834 0
M  V30 15890 O 1524.81 -2.11448 -0.460308 0
M  V30 15891 C 1525.4 -1.80581 2.86663 0
M  V30 15892 C 1523.96 -2.33487 2.9523 0
M  V30 15893 C 1523.11 -1.13362 2.5307 0
M  V30 15894 H 1526.06 -0.193364 1.57518 0
M  V30 15895 H 1526.08 -2.66282 2.71798 0
M  V30 15896 H 1525.59 -1.13262 3.71205 0
M  V30 15897 H 1523.69 -3.0419 2.15173 0
M  V30 15898 H 1523.81 -2.64617 3.99393 0
M  V30 15899 H 1522.17 -1.48641 2.06828 0
M  V30 15900 H 1522.95 -0.476148 3.39982 0
M  V30 15901 N 1525.4 -1.4265 -0.669982 0
M  V30 15902 C 1526.33 -1.4094 -1.79475 0
M  V30 15903 C 1527.31 -0.273018 -1.60292 0
M  V30 15904 O 1528.49 -0.463994 -1.827 0
M  V30 15905 C 1525.62 -1.20489 -3.16544 0
M  V30 15906 C 1524.67 -2.37184 -3.54466 0
M  V30 15907 S 1525.5 -3.99722 -3.56346 0
M  V30 15908 C 1526.66 -3.81624 -4.96099 0
M  V30 15909 H 1526.89 -2.36119 -1.80652 0
M  V30 15910 H 1524.42 -1.2948 -0.841092 0
M  V30 15911 H 1526.38 -1.09377 -3.9566 0
M  V30 15912 H 1525.04 -0.268876 -3.12947 0
M  V30 15913 H 1524.23 -2.18636 -4.54108 0
M  V30 15914 H 1523.84 -2.44836 -2.82722 0
M  V30 15915 H 1526.13 -3.42912 -5.8431 0
M  V30 15916 H 1527.07 -4.8096 -5.19696 0
M  V30 15917 H 1527.48 -3.14397 -4.68844 0
M  V30 15918 N 1526.88 0.906753 -1.28902 0
M  V30 15919 C 1528.12 1.65903 -1.16636 0
M  V30 15920 C 1528.46 1.92127 0.282981 0
M  V30 15921 O 1527.73 1.52666 1.20513 0
M  V30 15922 C 1528.01 3.01257 -1.97272 0
M  V30 15923 C 1527.87 2.82143 -3.50308 0
M  V30 15924 C 1529.19 4.01893 -1.7936 0
M  V30 15925 H 1526.31 0.602063 -0.425076 0
M  V30 15926 H 1528.95 1.05081 -1.58297 0
M  V30 15927 H 1527.1 3.53172 -1.61871 0
M  V30 15928 H 1528.77 2.37184 -3.95653 0
M  V30 15929 H 1527.01 2.17063 -3.75588 0
M  V30 15930 H 1527.68 3.78293 -4.01993 0
M  V30 15931 H 1530.16 3.59064 -2.10267 0
M  V30 15932 H 1529.04 4.9455 -2.38141 0
M  V30 15933 H 1529.3 4.35745 -0.746923 0
M  V30 15934 N 1528.36 1.11264 1.11616 0
M  V30 15935 C 1529.6 0.855139 1.82675 0
M  V30 15936 C 1529.92 -0.621194 1.85474 0
M  V30 15937 O 1531.12 -0.994886 2.52615 0
M  V30 15938 C 1529.58 1.48007 3.28058 0
M  V30 15939 C 1529.19 2.99031 3.33593 0
M  V30 15940 C 1530.93 1.30233 4.04029 0
M  V30 15941 C 1528.84 3.54517 4.73362 0
M  V30 15942 H 1527.77 0.316252 0.684471 0
M  V30 15943 H 1530.42 1.33766 1.25614 0
M  V30 15944 H 1528.8 0.925214 3.8504 0
M  V30 15945 H 1529.98 3.60905 2.86503 0
M  V30 15946 H 1528.29 3.16059 2.711 0
M  V30 15947 H 1530.89 1.69122 5.07249 0
M  V30 15948 H 1531.23 0.244724 4.1558 0
M  V30 15949 H 1531.76 1.82573 3.53429 0
M  V30 15950 H 1528.5 4.59982 4.67008 0
M  V30 15951 H 1528.02 2.97414 5.20869 0
M  V30 15952 H 1529.7 3.52848 5.42316 0
M  V30 15953 N 1529.83 -1.29188 0.902679 0
M  V30 15954 C 1531.08 -1.95727 0.530909 0
M  V30 15955 C 1531.41 -1.70971 -0.921014 0
M  V30 15956 O 1530.69 -1.02436 -1.65339 0
M  V30 15957 C 1530.97 -3.50463 0.827523 0
M  V30 15958 C 1530.82 -3.84665 2.33137 0
M  V30 15959 C 1532.14 -4.38964 0.316053 0
M  V30 15960 H 1529.26 -0.71091 0.194361 0
M  V30 15961 H 1531.9 -1.52752 1.1299 0
M  V30 15962 H 1530.05 -3.87199 0.317732 0
M  V30 15963 H 1531.73 -3.57859 2.91093 0
M  V30 15964 H 1529.97 -3.32102 2.79088 0
M  V30 15965 H 1530.64 -4.92676 2.48947 0
M  V30 15966 H 1533.12 -4.09237 0.75262 0
M  V30 15967 H 1531.99 -5.4611 0.552769 0
M  V30 15968 H 1532.25 -4.35105 -0.783329 0
M  V30 15969 N 1531.31 -0.665475 -1.42861 0
M  V30 15970 C 1532.26 0.030395 -2.3258 0
M  V30 15971 C 1533.25 0.800329 -1.49302 0
M  V30 15972 O 1534.46 0.709346 -1.65434 0
M  V30 15973 H 1530.83 0.0286201 -0.751455 0
M  V30 15974 H 1532.81 -0.743838 -2.8898 0
M  V30 15975 C 1531.55 0.974474 -3.33765 0
M  V30 15976 H 1530.88 0.391447 -3.97879 0
M  V30 15977 H 1532.32 1.43023 -3.99149 0
M  V30 15978 C 1530.78 2.0764 -2.65306 0
M  V30 15979 O 1531.31 3.16172 -2.47787 0
M  V30 15980 N 1529.51 1.84544 -2.24481 0
M  V30 15981 H 1529.06 0.962826 -2.3893 0
M  V30 15982 H 1529.02 2.58464 -1.79007 0
M  V30 15983 N 1532.79 1.52222 -0.408187 0
M  V30 15984 C 1533.75 2.25578 0.405851 0
M  V30 15985 C 1534.75 1.27912 0.974434 0
M  V30 15986 O 1535.94 1.51861 0.853461 0
M  V30 15987 C 1533.07 3.02532 1.57122 0
M  V30 15988 H 1534.27 2.98965 -0.23664 0
M  V30 15989 H 1531.82 1.55472 -0.160687 0
M  V30 15990 H 1532.56 2.33492 2.2506 0
M  V30 15991 H 1532.34 3.74237 1.17001 0
M  V30 15992 H 1533.83 3.58177 2.14707 0
M  V30 15993 N 1534.27 0.138579 1.5699 0
M  V30 15994 C 1535.23 -0.79013 2.1515 0
M  V30 15995 C 1536.23 -1.1811 1.09117 0
M  V30 15996 O 1537.42 -1.1034 1.34798 0
M  V30 15997 C 1534.55 -2.07109 2.70774 0
M  V30 15998 H 1535.75 -0.284343 2.98549 0
M  V30 15999 H 1533.3 -0.11081 1.55907 0
M  V30 16000 H 1534.03 -2.62074 1.91018 0
M  V30 16001 H 1533.82 -1.80004 3.4834 0
M  V30 16002 H 1535.31 -2.73456 3.15613 0
M  V30 16003 N 1535.75 -1.57019 -0.13521 0
M  V30 16004 C 1536.69 -2.0011 -1.18569 0
M  V30 16005 C 1537.69 -0.895372 -1.43804 0
M  V30 16006 O 1538.89 -1.08057 -1.43957 0
M  V30 16007 H 1535.27 -0.637176 -0.399388 0
M  V30 16008 H 1537.24 -2.87597 -0.795636 0
M  V30 16009 C 1535.99 -2.40769 -2.50849 0
M  V30 16010 H 1535.31 -3.25412 -2.32265 0
M  V30 16011 H 1536.75 -2.74733 -3.22951 0
M  V30 16012 C 1535.21 -1.26494 -3.12251 0
M  V30 16013 O 1535.74 -0.572067 -3.97606 0
M  V30 16014 N 1533.95 -1.02615 -2.7188 0
M  V30 16015 H 1533.49 -1.59136 -2.02567 0
M  V30 16016 H 1533.45 -0.263464 -3.13294 0
M  V30 16017 N 1537.22 0.404919 -1.52309 0
M  V30 16018 C 1538.47 1.14859 -1.65802 0
M  V30 16019 C 1538.79 1.91546 -0.396174 0
M  V30 16020 O 1539.99 2.68372 -0.410969 0
M  V30 16021 C 1538.45 2.09068 -2.92948 0
M  V30 16022 C 1538.06 1.37878 -4.26255 0
M  V30 16023 C 1539.8 2.83669 -3.15804 0
M  V30 16024 C 1537.71 2.30761 -5.44521 0
M  V30 16025 H 1536.64 0.432463 -0.61765 0
M  V30 16026 H 1539.29 0.412695 -1.78799 0
M  V30 16027 H 1537.67 2.86228 -2.7366 0
M  V30 16028 H 1538.84 0.660543 -4.56041 0
M  V30 16029 H 1537.16 0.753026 -4.09534 0
M  V30 16030 H 1539.76 3.53313 -4.0134 0
M  V30 16031 H 1540.1 3.46855 -2.30212 0
M  V30 16032 H 1540.63 2.13607 -3.35584 0
M  V30 16033 H 1537.37 1.72214 -6.32473 0
M  V30 16034 H 1536.89 3.00546 -5.19069 0
M  V30 16035 H 1538.57 2.91195 -5.77767 0
M  V30 16036 N 1538.7 1.43003 0.662408 0
M  V30 16037 C 1539.65 1.43898 1.76854 0
M  V30 16038 C 1540.64 0.308629 1.57912 0
M  V30 16039 O 1541.83 0.551757 1.6818 0
M  V30 16040 C 1538.96 1.35585 3.15391 0
M  V30 16041 C 1538.04 2.53614 3.39913 0
M  V30 16042 N 1538.43 3.78998 3.34954 0
M  V30 16043 C 1536.73 2.48141 3.70597 0
M  V30 16044 C 1537.43 4.57467 3.59303 0
M  V30 16045 N 1536.41 3.8806 3.80671 0
M  V30 16046 H 1540.21 2.38722 1.71432 0
M  V30 16047 H 1537.73 1.37526 0.863728 0
M  V30 16048 H 1539.72 1.34308 3.94673 0
M  V30 16049 H 1538.38 0.417735 3.22002 0
M  V30 16050 H 1539.39 4.11417 3.14574 0
M  V30 16051 H 1536.07 1.62971 3.84379 0
M  V30 16052 H 1537.46 5.66475 3.61326 0
M  V30 16053 N 1540.18 -0.899904 1.29381 0
M  V30 16054 C 1541.11 -2.02045 1.17047 0
M  V30 16055 C 1542.09 -1.69977 0.0647354 0
M  V30 16056 O 1543.28 -1.92659 0.244173 0
M  V30 16057 C 1540.41 -3.36839 0.845991 0
M  V30 16058 C 1539.36 -3.83117 1.90802 0
M  V30 16059 C 1538.69 -5.15032 1.43686 0
M  V30 16060 C 1539.99 -4.03464 3.31684 0
M  V30 16061 H 1541.68 -2.12623 2.10789 0
M  V30 16062 H 1539.23 -1.02162 1.01484 0
M  V30 16063 H 1541.18 -4.14737 0.746413 0
M  V30 16064 H 1539.9 -3.26352 -0.127125 0
M  V30 16065 H 1538.56 -3.07435 1.99698 0
M  V30 16066 H 1538.21 -5.00961 0.452422 0
M  V30 16067 H 1537.91 -5.46967 2.14711 0
M  V30 16068 H 1539.43 -5.95472 1.35078 0
M  V30 16069 H 1540.85 -4.71845 3.25631 0
M  V30 16070 H 1539.25 -4.46752 4.00665 0
M  V30 16071 H 1540.32 -3.07807 3.74677 0
M  V30 16072 N 1541.66 -1.11854 -1.11024 0
M  V30 16073 C 1542.61 -0.780825 -2.17191 0
M  V30 16074 C 1543.58 0.249657 -1.64213 0
M  V30 16075 O 1544.76 0.125603 -1.90386 0
M  V30 16076 C 1541.9 -0.23491 -3.443 0
M  V30 16077 C 1541.01 -1.32247 -4.1126 0
M  V30 16078 C 1540.15 -0.736638 -5.26068 0
M  V30 16079 C 1539.19 -1.80375 -5.8492 0
M  V30 16080 N 1538.32 -1.23709 -6.91115 0
M  V30 16081 H 1543.16 -1.69031 -2.45423 0
M  V30 16082 H 1540.7 -0.844041 -1.20476 0
M  V30 16083 H 1542.66 0.0996064 -4.17081 0
M  V30 16084 H 1541.29 0.637752 -3.16437 0
M  V30 16085 H 1540.34 -1.77387 -3.36509 0
M  V30 16086 H 1541.65 -2.12965 -4.51051 0
M  V30 16087 H 1540.81 -0.352432 -6.05675 0
M  V30 16088 H 1539.55 0.101811 -4.87594 0
M  V30 16089 H 1538.55 -2.19721 -5.03987 0
M  V30 16090 H 1539.78 -2.64531 -6.2546 0
M  V30 16091 H 1537.72 -0.420357 -6.54652 0
M  V30 16092 H 1537.64 -1.98093 -7.29586 0
M  V30 16093 H 1538.91 -0.879912 -7.74518 0
M  V30 16094 N 1543.14 1.28707 -0.909517 0
M  V30 16095 C 1544.09 2.25045 -0.365899 0
M  V30 16096 C 1545.07 1.5228 0.51959 0
M  V30 16097 O 1546.26 1.733 0.360004 0
M  V30 16098 C 1543.39 3.41 0.396725 0
M  V30 16099 C 1542.48 4.21092 -0.504243 0
M  V30 16100 N 1542.87 4.79293 -1.61592 0
M  V30 16101 C 1541.17 4.44964 -0.303843 0
M  V30 16102 C 1541.87 5.39516 -2.17481 0
M  V30 16103 N 1540.84 5.23442 -1.4666 0
M  V30 16104 H 1544.65 2.67611 -1.21497 0
M  V30 16105 H 1542.16 1.4343 -0.761686 0
M  V30 16106 H 1544.16 4.09094 0.80299 0
M  V30 16107 H 1542.82 2.99969 1.24294 0
M  V30 16108 H 1543.83 4.77785 -1.99856 0
M  V30 16109 H 1540.5 4.14456 0.503201 0
M  V30 16110 H 1541.89 5.95606 -3.10972 0
M  V30 16111 N 1544.61 0.673042 1.42506 0
M  V30 16112 C 1545.86 0.194192 2.01165 0
M  V30 16113 C 1546.18 -1.2029 1.53477 0
M  V30 16114 O 1545.45 -1.80737 0.755704 0
M  V30 16115 H 1544.03 0.0688022 0.743825 0
M  V30 16116 H 1546.7 0.869157 1.74447 0
M  V30 16117 H 1545.79 0.194111 3.11496 0
M  V30 16118 N 1546.09 -1.52004 0.416254 0
M  V30 16119 C 1547.34 -2.0149 -0.15689 0
M  V30 16120 C 1547.66 -1.30343 -1.45037 0
M  V30 16121 O 1546.93 -0.431503 -1.91089 0
M  V30 16122 H 1545.51 -0.744508 -0.0609682 0
M  V30 16123 H 1548.17 -1.86857 0.55413 0
M  V30 16124 H 1547.27 -3.10155 -0.347917 0
M  V30 16125 N 1547.57 -0.146903 -1.56914 0
M  V30 16126 C 1548.82 0.503237 -1.95734 0
M  V30 16127 C 1549.14 1.65407 -1.03275 0
M  V30 16128 O 1548.41 1.95673 -0.0942784 0
M  V30 16129 H 1546.99 0.188899 -0.722721 0
M  V30 16130 H 1549.65 -0.222379 -1.93627 0
M  V30 16131 H 1548.75 0.879445 -2.99453 0
M  V30 16132 N 1549.05 1.57088 0.126881 0
M  V30 16133 C 1550.29 1.84709 0.837287 0
M  V30 16134 C 1550.63 0.731496 1.79897 0
M  V30 16135 O 1549.9 -0.263319 1.92709 0
M  V30 16136 C 1550.19 3.22893 1.59412 0
M  V30 16137 C 1550.04 4.45041 0.652578 0
M  V30 16138 C 1551.36 3.58547 2.5521 0
M  V30 16139 H 1548.48 0.671862 0.302937 0
M  V30 16140 H 1551.12 1.89727 0.101783 0
M  V30 16141 H 1549.27 3.18746 2.22112 0
M  V30 16142 H 1550.94 4.61287 0.0350382 0
M  V30 16143 H 1549.18 4.33785 -0.0364578 0
M  V30 16144 H 1549.85 5.38381 1.21861 0
M  V30 16145 H 1552.33 3.63434 2.0262 0
M  V30 16146 H 1551.21 4.56227 3.05202 0
M  V30 16147 H 1551.47 2.85552 3.37509 0
M  V30 16148 N 1550.53 -0.396836 1.52522 0
M  V30 16149 C 1551.49 -1.46695 1.76106 0
M  V30 16150 C 1552.49 -1.47902 0.631005 0
M  V30 16151 O 1553.68 -1.4921 0.898995 0
M  V30 16152 C 1550.81 -2.86033 1.85467 0
M  V30 16153 H 1552 -1.27071 2.71649 0
M  V30 16154 H 1549.56 -0.628096 1.43125 0
M  V30 16155 H 1550.29 -3.11012 0.918816 0
M  V30 16156 H 1550.08 -2.86559 2.67631 0
M  V30 16157 H 1551.57 -3.63587 2.05412 0
M  V30 16158 N 1552.01 -1.43353 -0.654814 0
M  V30 16159 C 1553.25 -1.44599 -1.41193 0
M  V30 16160 C 1553.57 -0.0707955 -1.94871 0
M  V30 16161 O 1552.84 0.893637 -1.7433 0
M  V30 16162 H 1551.42 -0.532373 -0.524011 0
M  V30 16163 H 1554.09 -1.78942 -0.772388 0
M  V30 16164 H 1553.18 -2.15761 -2.25508 0
M  V30 16165 N 1553.48 0.89303 -1.29857 0
M  V30 16166 C 1554.45 1.97944 -1.15546 0
M  V30 16167 C 1555.45 1.60554 -0.088989 0
M  V30 16168 O 1556.64 1.7092 -0.336464 0
M  V30 16169 C 1553.77 3.32126 -0.768442 0
M  V30 16170 H 1554.96 2.12067 -2.12055 0
M  V30 16171 H 1552.51 1.0784 -1.13138 0
M  V30 16172 H 1553.25 3.23704 0.196504 0
M  V30 16173 H 1553.03 3.60631 -1.53907 0
M  V30 16174 H 1554.52 4.11834 -0.691559 0
M  V30 16175 N 1554.96 1.12442 1.10429 0
M  V30 16176 C 1555.89 0.814745 2.18824 0
M  V30 16177 C 1556.87 -0.221476 1.68652 0
M  V30 16178 O 1558.06 -0.0826537 1.94024 0
M  V30 16179 C 1555.19 0.268632 3.4626 0
M  V30 16180 C 1554.14 1.23792 4.09707 0
M  V30 16181 C 1553.47 0.552034 5.31843 0
M  V30 16182 C 1554.77 2.5926 4.53411 0
M  V30 16183 H 1556.46 1.72111 2.44986 0
M  V30 16184 H 1554.01 0.828968 1.17746 0
M  V30 16185 H 1555.96 0.0397207 4.21381 0
M  V30 16186 H 1554.68 -0.673079 3.19589 0
M  V30 16187 H 1553.34 1.45264 3.36592 0
M  V30 16188 H 1552.99 -0.394821 5.01448 0
M  V30 16189 H 1552.69 1.19861 5.75245 0
M  V30 16190 H 1554.22 0.332161 6.09696 0
M  V30 16191 H 1555.63 2.41816 5.19806 0
M  V30 16192 H 1554.03 3.19997 5.07663 0
M  V30 16193 H 1555.1 3.17699 3.66327 0
M  V30 16194 N 1556.44 -1.28223 0.91633 0
M  V30 16195 C 1557.39 -2.29188 0.396916 0
M  V30 16196 C 1558.38 -1.61453 -0.512763 0
M  V30 16197 O 1559.59 -1.75641 -0.393723 0
M  V30 16198 H 1555.96 -0.743947 0.109761 0
M  V30 16199 H 1557.93 -2.70423 1.2615 0
M  V30 16200 C 1556.68 -3.4598 -0.345452 0
M  V30 16201 H 1556.01 -3.98306 0.345326 0
M  V30 16202 H 1557.45 -4.18617 -0.67349 0
M  V30 16203 C 1555.9 -2.98904 -1.55429 0
M  V30 16204 O 1556.43 -3.01598 -2.65333 0
M  V30 16205 N 1554.64 -2.54534 -1.40217 0
M  V30 16206 H 1554.19 -2.52541 -0.508029 0
M  V30 16207 H 1554.15 -2.23397 -2.21227 0
M  V30 16208 N 1557.92 -0.68059 -1.42147 0
M  V30 16209 C 1558.86 -0.00585926 -2.30799 0
M  V30 16210 C 1559.83 0.786778 -1.46284 0
M  V30 16211 O 1561.02 0.757853 -1.75103 0
M  V30 16212 C 1558.16 0.935319 -3.32183 0
M  V30 16213 C 1557.27 0.13589 -4.31786 0
M  V30 16214 C 1556.41 1.07335 -5.20243 0
M  V30 16215 C 1555.45 0.265943 -6.11522 0
M  V30 16216 N 1554.58 1.15641 -6.92511 0
M  V30 16217 H 1559.42 -0.767651 -2.87943 0
M  V30 16218 H 1556.96 -0.39029 -1.41828 0
M  V30 16219 H 1558.92 1.49489 -3.89498 0
M  V30 16220 H 1557.55 1.66368 -2.76626 0
M  V30 16221 H 1556.6 -0.540383 -3.76542 0
M  V30 16222 H 1557.91 -0.490716 -4.9638 0
M  V30 16223 H 1557.07 1.70265 -5.82319 0
M  V30 16224 H 1555.81 1.73383 -4.55839 0
M  V30 16225 H 1554.81 -0.376531 -5.48509 0
M  V30 16226 H 1556.04 -0.39053 -6.77976 0
M  V30 16227 H 1553.98 1.80319 -6.30731 0
M  V30 16228 H 1553.9 0.585022 -7.53733 0
M  V30 16229 H 1555.17 1.773 -7.59069 0
M  V30 16230 N 1559.4 1.51781 -0.424309 0
M  V30 16231 C 1560.36 2.25996 0.381903 0
M  V30 16232 C 1561.36 1.28938 0.960813 0
M  V30 16233 O 1562.55 1.52757 0.837306 0
M  V30 16234 C 1559.68 3.04181 1.53904 0
M  V30 16235 H 1560.87 2.98697 -0.268336 0
M  V30 16236 H 1558.43 1.55293 -0.177167 0
M  V30 16237 H 1559.16 2.35866 2.22571 0
M  V30 16238 H 1558.95 3.75457 1.13025 0
M  V30 16239 H 1560.44 3.60434 2.10896 0
M  V30 16240 N 1560.87 0.155222 1.56834 0
M  V30 16241 C 1562.1 -0.500542 2.00754 0
M  V30 16242 C 1562.52 -1.57878 1.03538 0
M  V30 16243 O 1561.87 -1.82469 0.0336651 0
M  V30 16244 C 1561.92 -1.09366 3.4456 0
M  V30 16245 O 1561.65 -0.0584788 4.38061 0
M  V30 16246 C 1563.15 -1.82923 4.038 0
M  V30 16247 H 1560.37 -0.129589 0.658368 0
M  V30 16248 H 1562.91 0.252223 2.02939 0
M  V30 16249 H 1561.07 -1.797 3.43201 0
M  V30 16250 H 1561.48 -0.494125 5.22167 0
M  V30 16251 H 1562.95 -2.19703 5.06394 0
M  V30 16252 H 1563.43 -2.71823 3.44976 0
M  V30 16253 H 1564.04 -1.17268 4.08813 0
M  V30 16254 N 1562.35 -1.57153 -0.118549 0
M  V30 16255 C 1563.3 -2.01357 -1.1644 0
M  V30 16256 C 1564.29 -0.910574 -1.42846 0
M  V30 16257 O 1565.5 -1.09578 -1.42803 0
M  V30 16258 H 1561.87 -0.641376 -0.392607 0
M  V30 16259 H 1563.85 -2.88425 -0.765087 0
M  V30 16260 C 1562.59 -2.43416 -2.48282 0
M  V30 16261 H 1561.92 -3.27857 -2.288 0
M  V30 16262 H 1563.36 -2.78143 -3.20019 0
M  V30 16263 C 1561.82 -1.29799 -3.10892 0
M  V30 16264 O 1562.35 -0.614207 -3.96977 0
M  V30 16265 N 1560.55 -1.05493 -2.70776 0
M  V30 16266 H 1560.1 -1.61276 -2.00868 0
M  V30 16267 H 1560.06 -0.296678 -3.12997 0
M  V30 16268 N 1563.83 0.388742 -1.5273 0
M  V30 16269 C 1565.08 1.13151 -1.67455 0
M  V30 16270 C 1565.4 1.90487 -0.417095 0
M  V30 16271 O 1564.67 1.87469 0.568509 0
M  V30 16272 H 1563.25 0.4207 -0.617269 0
M  V30 16273 H 1565.91 0.44098 -1.89846 0
M  V30 16274 H 1565.01 1.83427 -2.52509 0
M  V30 16275 N 1565.31 1.43698 0.647203 0
M  V30 16276 C 1566.27 1.48986 1.74172 0
M  V30 16277 C 1567.27 0.373812 1.56395 0
M  V30 16278 O 1568.46 0.635804 1.62183 0
M  V30 16279 C 1565.59 1.34827 3.13104 0
M  V30 16280 H 1566.79 2.46467 1.70863 0
M  V30 16281 H 1564.34 1.30552 0.859409 0
M  V30 16282 H 1565.07 0.383772 3.22021 0
M  V30 16283 H 1564.86 2.15738 3.27414 0
M  V30 16284 H 1566.35 1.41473 3.92906 0
M  V30 16285 N 1566.79 -0.886131 1.30328 0
M  V30 16286 C 1567.72 -1.99419 1.10938 0
M  V30 16287 C 1568.7 -1.62591 0.0173539 0
M  V30 16288 O 1569.88 -1.87726 0.170684 0
M  V30 16289 C 1567.01 -3.31561 0.691713 0
M  V30 16290 C 1566.05 -3.87376 1.78444 0
M  V30 16291 S 1566.89 -4.14812 3.38661 0
M  V30 16292 C 1568.04 -5.49976 2.98793 0
M  V30 16293 H 1568.28 -2.15561 2.04746 0
M  V30 16294 H 1565.81 -1.03438 1.14629 0
M  V30 16295 H 1567.77 -4.07943 0.457465 0
M  V30 16296 H 1566.43 -3.13279 -0.226981 0
M  V30 16297 H 1565.62 -4.82858 1.44445 0
M  V30 16298 H 1565.22 -3.1773 1.97291 0
M  V30 16299 H 1567.52 -6.30995 2.46682 0
M  V30 16300 H 1568.46 -5.88911 3.93178 0
M  V30 16301 H 1568.87 -5.1248 2.36694 0
M  V30 16302 N 1568.26 -1.13026 -1.09832 0
M  V30 16303 C 1569.2 -0.761606 -2.16176 0
M  V30 16304 C 1570.21 0.214709 -1.61378 0
M  V30 16305 O 1571.4 -0.00487178 -1.78499 0
M  V30 16306 C 1568.5 -0.107513 -3.38729 0
M  V30 16307 C 1567.67 -1.11487 -4.22953 0
M  V30 16308 C 1566.73 -0.487243 -5.23939 0
M  V30 16309 O 1565.76 -1.14605 -5.57543 0
M  V30 16310 N 1566.96 0.742571 -5.75731 0
M  V30 16311 H 1569.72 -1.67669 -2.48409 0
M  V30 16312 H 1567.28 -1.0227 -1.25509 0
M  V30 16313 H 1569.28 0.324507 -4.03397 0
M  V30 16314 H 1567.85 0.710438 -3.0442 0
M  V30 16315 H 1567.07 -1.72432 -3.54487 0
M  V30 16316 H 1568.35 -1.79584 -4.76053 0
M  V30 16317 H 1567.75 1.29667 -5.50639 0
M  V30 16318 H 1566.31 1.11731 -6.42152 0
M  V30 16319 N 1569.74 1.27735 -0.923117 0
M  V30 16320 C 1570.69 2.26997 -0.417254 0
M  V30 16321 C 1571.66 1.57968 0.513364 0
M  V30 16322 O 1572.84 1.8581 0.433521 0
M  V30 16323 C 1569.98 3.43537 0.328089 0
M  V30 16324 C 1569.1 4.27291 -0.636112 0
M  V30 16325 C 1568.23 5.31044 0.128614 0
M  V30 16326 C 1567.27 6.06466 -0.828592 0
M  V30 16327 N 1566.41 7.02033 -0.0967858 0
M  V30 16328 H 1571.25 2.69643 -1.26872 0
M  V30 16329 H 1568.79 1.32597 -0.6369 0
M  V30 16330 H 1570.74 4.0991 0.776504 0
M  V30 16331 H 1569.37 3.01855 1.14383 0
M  V30 16332 H 1568.43 3.60875 -1.20306 0
M  V30 16333 H 1569.74 4.79679 -1.36784 0
M  V30 16334 H 1568.89 6.03345 0.637159 0
M  V30 16335 H 1567.63 4.79448 0.893341 0
M  V30 16336 H 1566.64 5.33008 -1.34843 0
M  V30 16337 H 1567.86 6.60151 -1.59303 0
M  V30 16338 H 1565.81 6.52774 0.649779 0
M  V30 16339 H 1565.72 7.52087 -0.768171 0
M  V30 16340 H 1566.99 7.78517 0.391257 0
M  V30 16341 N 1571.22 0.688118 1.41784 0
M  V30 16342 C 1572.13 0.018397 2.34593 0
M  V30 16343 C 1573.15 -0.774275 1.55824 0
M  V30 16344 O 1574.32 -0.713546 1.88336 0
M  V30 16345 C 1571.39 -0.911914 3.34492 0
M  V30 16346 C 1570.45 -0.112284 4.29153 0
M  V30 16347 C 1569.68 -0.998285 5.2428 0
M  V30 16348 O 1569.9 -2.23782 5.24669 0
M  V30 16349 O 1568.84 -0.451951 6.00201 0
M  V30 16350 H 1572.66 0.783224 2.93427 0
M  V30 16351 H 1570.25 0.448413 1.42512 0
M  V30 16352 H 1572.13 -1.4456 3.95829 0
M  V30 16353 H 1570.81 -1.65636 2.78112 0
M  V30 16354 H 1569.71 0.465822 3.71189 0
M  V30 16355 H 1571.05 0.593338 4.88611 0
M  V30 16356 N 1572.7 -1.51554 0.432352 0
M  V30 16357 C 1573.92 -2.06947 -0.136995 0
M  V30 16358 C 1574.35 -1.29817 -1.36122 0
M  V30 16359 O 1573.71 -0.334733 -1.78183 0
M  V30 16360 C 1573.75 -3.57871 -0.442785 0
M  V30 16361 O 1572.86 -3.82966 -1.53007 0
M  V30 16362 H 1572.2 -0.663988 -0.00405152 0
M  V30 16363 H 1574.73 -1.95225 0.612249 0
M  V30 16364 H 1574.74 -4.02042 -0.694694 0
M  V30 16365 H 1573.41 -4.13436 0.452013 0
M  V30 16366 H 1571.99 -3.50661 -1.26851 0
M  V30 16367 N 1574.18 -0.163538 -1.56749 0
M  V30 16368 C 1575.45 0.529349 -1.88301 0
M  V30 16369 C 1575.83 1.81844 -1.07219 0
M  V30 16370 O 1575.18 2.27912 -0.16381 0
M  V30 16371 C 1575.39 0.778796 -3.402 0
M  V30 16372 C 1576.74 1.11225 -4.09773 0
M  V30 16373 O 1577.76 0.867598 -3.45472 0
M  V30 16374 O 1576.62 1.57344 -5.2336 0
M  V30 16375 H 1573.72 0.271928 -0.781015 0
M  V30 16376 H 1576.26 -0.20139 -1.68501 0
M  V30 16377 H 1575.03 -0.132839 -3.91074 0
M  V30 16378 H 1574.66 1.56313 -3.65584 0
M  V30 16379 N 1575.65 1.57214 0.110213 0
M  V30 16380 C 1576.93 1.76298 0.847249 0
M  V30 16381 C 1577.31 0.741294 1.97656 0
M  V30 16382 O 1576.66 -0.233104 2.27308 0
M  V30 16383 C 1576.87 3.21588 1.35582 0
M  V30 16384 C 1578.22 3.8434 1.80465 0
M  V30 16385 O 1579.24 3.25244 1.45241 0
M  V30 16386 O 1578.1 4.88231 2.45546 0
M  V30 16387 H 1575.19 0.722167 0.402993 0
M  V30 16388 H 1577.74 1.69443 0.0932694 0
M  V30 16389 H 1576.51 3.87472 0.54599 0
M  V30 16390 H 1576.14 3.33015 2.17225 0
M  V30 16391 N 1577.13 -0.380637 1.52934 0
M  V30 16392 C 1578.36 -1.14417 1.72024 0
M  V30 16393 C 1578.77 -1.83962 0.442128 0
M  V30 16394 O 1578.11 -1.73839 -0.593766 0
M  V30 16395 C 1578.18 -2.22944 2.82022 0
M  V30 16396 C 1577.84 -1.73295 4.22869 0
M  V30 16397 C 1578.84 -1.20515 5.05739 0
M  V30 16398 C 1576.52 -1.79264 4.69222 0
M  V30 16399 C 1578.52 -0.743632 6.33047 0
M  V30 16400 C 1576.2 -1.32724 5.96513 0
M  V30 16401 C 1577.2 -0.803615 6.78256 0
M  V30 16402 O 1576.89 -0.34503 8.03159 0
M  V30 16403 H 1576.62 -0.348676 0.579138 0
M  V30 16404 H 1579.17 -0.450113 2.00407 0
M  V30 16405 H 1577.4 -2.95798 2.49079 0
M  V30 16406 H 1579.09 -2.84575 2.89434 0
M  V30 16407 H 1579.86 -1.15254 4.71107 0
M  V30 16408 H 1575.74 -2.18962 4.0568 0
M  V30 16409 H 1579.28 -0.334251 6.96799 0
M  V30 16410 H 1575.18 -1.37673 6.30648 0
M  V30 16411 H 1575.95 -0.465743 8.17174 0
M  V30 16412 N 1578.61 -1.44039 -0.639573 0
M  V30 16413 C 1579.86 -1.4566 -1.39521 0
M  V30 16414 C 1580.17 -0.0897878 -1.95394 0
M  V30 16415 O 1581.38 0.0165074 -2.71495 0
M  V30 16416 C 1579.83 -2.56395 -2.52566 0
M  V30 16417 C 1579.44 -3.99245 -2.03243 0
M  V30 16418 C 1581.19 -2.67226 -3.29834 0
M  V30 16419 C 1579.09 -5.01419 -3.1358 0
M  V30 16420 H 1578.02 -0.541894 -0.524277 0
M  V30 16421 H 1580.67 -1.70076 -0.688941 0
M  V30 16422 H 1579.06 -2.25204 -3.25729 0
M  V30 16423 H 1580.23 -4.39963 -1.37002 0
M  V30 16424 H 1578.55 -3.9258 -1.38816 0
M  V30 16425 H 1581.14 -3.40736 -4.12072 0
M  V30 16426 H 1581.49 -1.72756 -3.78763 0
M  V30 16427 H 1582.02 -2.97786 -2.63758 0
M  V30 16428 H 1578.76 -5.97489 -2.69605 0
M  V30 16429 H 1578.28 -4.65301 -3.7849 0
M  V30 16430 H 1579.96 -5.2474 -3.78493 0
M  V30 16431 N 1580.09 0.879207 -1.30796 0
M  V30 16432 C 1581.04 1.98553 -1.17667 0
M  V30 16433 C 1582.01 1.65974 -0.0647231 0
M  V30 16434 O 1583.19 1.89336 -0.235941 0
M  V30 16435 C 1580.33 3.3368 -0.880434 0
M  V30 16436 C 1579.44 3.78913 -2.07482 0
M  V30 16437 C 1578.58 5.02714 -1.71617 0
M  V30 16438 C 1577.62 5.40371 -2.87517 0
M  V30 16439 N 1576.75 6.55352 -2.5191 0
M  V30 16440 H 1581.59 2.09115 -2.12309 0
M  V30 16441 H 1579.13 1.02382 -1.05623 0
M  V30 16442 H 1581.09 4.11467 -0.689278 0
M  V30 16443 H 1579.72 3.22787 0.0291283 0
M  V30 16444 H 1578.77 2.96987 -2.37704 0
M  V30 16445 H 1580.08 4.02757 -2.94259 0
M  V30 16446 H 1579.24 5.88142 -1.4891 0
M  V30 16447 H 1577.98 4.80754 -0.820181 0
M  V30 16448 H 1576.98 4.53466 -3.10883 0
M  V30 16449 H 1578.21 5.64301 -3.77811 0
M  V30 16450 H 1576.15 6.34956 -1.64823 0
M  V30 16451 H 1576.07 6.79093 -3.32217 0
M  V30 16452 H 1577.34 7.43996 -2.32573 0
M  V30 16453 N 1581.57 1.13606 1.09231 0
M  V30 16454 C 1582.5 0.837908 2.17948 0
M  V30 16455 C 1583.48 -0.203575 1.68877 0
M  V30 16456 O 1584.66 -0.0620702 1.94101 0
M  V30 16457 C 1581.79 0.305342 3.45955 0
M  V30 16458 C 1580.75 1.2813 4.08371 0
M  V30 16459 C 1580.07 0.608412 5.31227 0
M  V30 16460 C 1581.37 2.64055 4.50636 0
M  V30 16461 H 1583.07 1.747 2.43147 0
M  V30 16462 H 1580.61 0.84141 1.1686 0
M  V30 16463 H 1582.57 0.0844116 4.21315 0
M  V30 16464 H 1581.29 -0.639144 3.20285 0
M  V30 16465 H 1579.95 1.48826 3.35032 0
M  V30 16466 H 1579.6 -0.341613 5.01839 0
M  V30 16467 H 1579.3 1.25956 5.73942 0
M  V30 16468 H 1580.82 0.396809 6.09309 0
M  V30 16469 H 1582.24 2.47316 5.17212 0
M  V30 16470 H 1580.63 3.25364 5.0424 0
M  V30 16471 H 1581.7 3.21566 3.62937 0
M  V30 16472 N 1583.05 -1.27244 0.929878 0
M  V30 16473 C 1583.99 -2.28755 0.421202 0
M  V30 16474 C 1584.99 -1.61988 -0.49561 0
M  V30 16475 O 1586.19 -1.76049 -0.375071 0
M  V30 16476 H 1582.57 -0.742741 0.117646 0
M  V30 16477 H 1584.54 -2.6907 1.29011 0
M  V30 16478 C 1583.29 -3.46327 -0.308737 0
M  V30 16479 H 1582.61 -3.97917 0.387552 0
M  V30 16480 H 1584.05 -4.19308 -0.629052 0
M  V30 16481 C 1582.51 -3.00535 -1.5225 0
M  V30 16482 O 1583.04 -3.04395 -2.62119 0
M  V30 16483 N 1581.25 -2.56007 -1.3751 0
M  V30 16484 H 1580.79 -2.53065 -0.481215 0
M  V30 16485 H 1580.75 -2.25731 -2.18845 0
M  V30 16486 N 1584.52 -0.695628 -1.41417 0
M  V30 16487 C 1585.77 -0.226171 -2.0083 0
M  V30 16488 C 1586.09 1.17833 -1.55371 0
M  V30 16489 O 1585.36 1.79512 -0.784362 0
M  V30 16490 H 1583.94 -0.0806271 -0.742636 0
M  V30 16491 H 1586.6 -0.8968 -1.73042 0
M  V30 16492 H 1585.7 -0.243643 -3.11148 0
M  V30 16493 N 1586 1.51322 -0.440383 0
M  V30 16494 C 1587.41 1.86687 0.0220272 0
M  V30 16495 C 1587.76 1.35734 1.41671 0
M  V30 16496 O 1586.89 0.709408 2.04442 0
M  V30 16497 C 1587.48 3.38768 0.0467477 0
M  V30 16498 C 1586.04 3.73657 0.45358 0
M  V30 16499 C 1585.19 2.7506 -0.351779 0
M  V30 16500 H 1588.14 1.44503 -0.65609 0
M  V30 16501 H 1588.16 3.70756 0.855589 0
M  V30 16502 H 1587.67 3.75823 -0.968451 0
M  V30 16503 H 1585.77 3.42193 1.47427 0
M  V30 16504 H 1585.89 4.78776 0.176262 0
M  V30 16505 H 1584.25 2.53988 0.190334 0
M  V30 16506 H 1585.03 3.14957 -1.36591 0
M  V30 16507 N 1587.48 0.171848 1.5666 0
M  V30 16508 C 1588.41 -0.753861 2.20996 0
M  V30 16509 C 1589.39 -1.23873 1.16574 0
M  V30 16510 O 1590.58 -1.29179 1.45005 0
M  V30 16511 C 1587.71 -1.98314 2.85112 0
M  V30 16512 C 1586.66 -1.6341 3.95577 0
M  V30 16513 C 1585.99 -2.93807 4.46745 0
M  V30 16514 C 1587.29 -0.861713 5.15142 0
M  V30 16515 H 1588.98 -0.217598 2.98608 0
M  V30 16516 H 1586.53 -0.10322 1.4363 0
M  V30 16517 H 1588.48 -2.63576 3.28794 0
M  V30 16518 H 1587.2 -2.54354 2.04869 0
M  V30 16519 H 1585.86 -1.00516 3.52551 0
M  V30 16520 H 1585.51 -3.47889 3.63293 0
M  V30 16521 H 1585.21 -2.71207 5.21268 0
M  V30 16522 H 1586.73 -3.60098 4.93114 0
M  V30 16523 H 1588.15 -1.41693 5.55514 0
M  V30 16524 H 1586.54 -0.734727 5.95585 0
M  V30 16525 H 1587.61 0.141851 4.84692 0
M  V30 16526 N 1588.96 -1.5727 -0.101874 0
M  V30 16527 C 1590.19 -1.89943 -0.820329 0
M  V30 16528 C 1590.6 -0.764867 -1.72613 0
M  V30 16529 O 1589.96 0.263499 -1.80588 0
M  V30 16530 C 1590.01 -3.2219 -1.63939 0
M  V30 16531 O 1589.73 -4.31279 -0.770039 0
M  V30 16532 C 1591.23 -3.6868 -2.46151 0
M  V30 16533 H 1588.45 -0.628532 -0.234922 0
M  V30 16534 H 1590.99 -2.04339 -0.0811362 0
M  V30 16535 H 1589.15 -3.09411 -2.33117 0
M  V30 16536 H 1589.56 -5.07182 -1.33665 0
M  V30 16537 H 1591.04 -4.63928 -2.99124 0
M  V30 16538 H 1591.51 -2.96183 -3.24303 0
M  V30 16539 H 1592.12 -3.84303 -1.82185 0
M  V30 16540 N 1590.44 0.372521 -1.53134 0
M  V30 16541 C 1591.68 1.11754 -1.6923 0
M  V30 16542 C 1592.01 1.89167 -0.439265 0
M  V30 16543 O 1591.29 1.86164 0.563317 0
M  V30 16544 C 1591.57 2.08242 -2.93781 0
M  V30 16545 C 1591.43 1.34484 -4.29225 0
M  V30 16546 C 1592.74 3.08457 -3.13914 0
M  V30 16547 H 1589.86 0.404898 -0.615814 0
M  V30 16548 H 1592.51 0.399101 -1.85761 0
M  V30 16549 H 1590.66 2.69507 -2.79818 0
M  V30 16550 H 1592.33 0.76056 -4.54987 0
M  V30 16551 H 1590.57 0.646673 -4.28953 0
M  V30 16552 H 1591.24 2.05071 -5.12494 0
M  V30 16553 H 1593.72 2.57292 -3.27017 0
M  V30 16554 H 1592.59 3.73198 -4.0251 0
M  V30 16555 H 1592.85 3.78243 -2.28878 0
M  V30 16556 N 1591.91 1.44376 0.631925 0
M  V30 16557 C 1593.16 1.46827 1.38875 0
M  V30 16558 C 1593.48 0.101789 1.94734 0
M  V30 16559 O 1592.75 -0.86579 1.7573 0
M  V30 16560 H 1591.33 0.540642 0.515475 0
M  V30 16561 H 1593.99 1.80148 0.743822 0
M  V30 16562 H 1593.09 2.19321 2.22047 0
M  V30 16563 N 1593.39 -0.872258 1.31261 0
M  V30 16564 C 1594.64 -1.6219 1.20576 0
M  V30 16565 C 1594.96 -1.93557 -0.236769 0
M  V30 16566 O 1594.23 -1.58094 -1.15686 0
M  V30 16567 H 1592.81 -0.601265 0.443272 0
M  V30 16568 H 1595.47 -1.04438 1.64556 0
M  V30 16569 H 1594.57 -2.56653 1.77582 0
M  V30 16570 N 1594.87 -1.14184 -1.08627 0
M  V30 16571 C 1596.09 -0.932504 -1.85254 0
M  V30 16572 C 1596.52 0.513792 -1.80947 0
M  V30 16573 O 1595.88 1.36525 -1.19292 0
M  V30 16574 C 1595.93 -1.43519 -3.30809 0
M  V30 16575 O 1595.03 -0.625806 -4.07624 0
M  V30 16576 H 1594.37 -0.333573 -0.57413 0
M  V30 16577 H 1596.9 -1.51853 -1.3712 0
M  V30 16578 H 1596.91 -1.44238 -3.81654 0
M  V30 16579 H 1595.59 -2.48819 -3.3326 0
M  V30 16580 H 1594.16 -0.687168 -3.66514 0
M  V30 16581 N 1596.35 1.26749 -0.936613 0
M  V30 16582 C 1597.59 1.95725 -0.58917 0
M  V30 16583 C 1597.95 1.71905 0.855145 0
M  V30 16584 O 1599.15 2.34645 1.3113 0
M  V30 16585 C 1597.42 3.45444 -0.916706 0
M  V30 16586 S 1598.98 4.33513 -0.67912 0
M  V30 16587 H 1595.8 0.677024 -0.217162 0
M  V30 16588 H 1598.4 1.53795 -1.20695 0
M  V30 16589 H 1597.11 3.60279 -1.96537 0
M  V30 16590 H 1596.64 3.92341 -0.288466 0
M  V30 16591 H 1598.65 4.94074 0.458864 0
M  V30 16592 N 1597.83 0.703118 1.41046 0
M  V30 16593 C 1598.76 0.0570815 2.3343 0
M  V30 16594 C 1599.74 -0.759042 1.52225 0
M  V30 16595 O 1600.92 -0.710491 1.80736 0
M  V30 16596 C 1598.05 -0.874541 3.36109 0
M  V30 16597 C 1597.01 -0.16496 4.27682 0
M  V30 16598 C 1596.33 -1.21145 5.20795 0
M  V30 16599 C 1597.63 0.97332 5.13151 0
M  V30 16600 H 1599.33 0.828699 2.87703 0
M  V30 16601 H 1596.87 0.399956 1.38334 0
M  V30 16602 H 1598.83 -1.33579 3.99668 0
M  V30 16603 H 1597.55 -1.67791 2.80203 0
M  V30 16604 H 1596.21 0.276332 3.65557 0
M  V30 16605 H 1595.86 -2.00755 4.61201 0
M  V30 16606 H 1595.56 -0.741633 5.82901 0
M  V30 16607 H 1597.08 -1.67305 5.87232 0
M  V30 16608 H 1598.49 0.592013 5.70235 0
M  V30 16609 H 1596.89 1.37071 5.84236 0
M  V30 16610 H 1597.96 1.80961 4.49868 0
M  V30 16611 N 1599.3 -1.51086 0.448402 0
M  V30 16612 C 1600.23 -2.30896 -0.347773 0
M  V30 16613 C 1601.22 -1.36792 -1.01104 0
M  V30 16614 O 1602.4 -1.65713 -1.01257 0
M  V30 16615 C 1599.53 -3.15901 -1.44304 0
M  V30 16616 C 1598.48 -4.18373 -0.90265 0
M  V30 16617 C 1597.81 -4.9197 -2.0945 0
M  V30 16618 C 1599.11 -5.22252 0.0705335 0
M  V30 16619 H 1600.8 -2.97704 0.318273 0
M  V30 16620 H 1598.35 -1.43169 0.154509 0
M  V30 16621 H 1600.3 -3.70519 -2.00733 0
M  V30 16622 H 1599.03 -2.46935 -2.13753 0
M  V30 16623 H 1597.69 -3.64823 -0.3605 0
M  V30 16624 H 1597.33 -4.19497 -2.77545 0
M  V30 16625 H 1597.03 -5.6127 -1.73926 0
M  V30 16626 H 1598.56 -5.49415 -2.66412 0
M  V30 16627 H 1599.97 -5.71876 -0.403814 0
M  V30 16628 H 1598.37 -5.99142 0.338905 0
M  V30 16629 H 1599.44 -4.74398 1.00373 0
M  V30 16630 N 1600.78 -0.180154 -1.56567 0
M  V30 16631 C 1602.01 0.471692 -2.01965 0
M  V30 16632 C 1602.43 1.5542 -1.05954 0
M  V30 16633 O 1601.79 1.81255 -0.0405307 0
M  V30 16634 C 1601.84 1.01883 -3.45908 0
M  V30 16635 O 1600.94 2.13245 -3.52988 0
M  V30 16636 H 1600.28 0.11197 -0.654491 0
M  V30 16637 H 1602.81 -0.286642 -2.02582 0
M  V30 16638 H 1602.82 1.33922 -3.85395 0
M  V30 16639 H 1601.5 0.226299 -4.15284 0
M  V30 16640 H 1600.08 1.82184 -3.25367 0
M  V30 16641 N 1602.26 1.57322 0.0935319 0
M  V30 16642 C 1603.51 1.858 0.795165 0
M  V30 16643 C 1603.83 0.769078 1.79193 0
M  V30 16644 O 1603.1 -0.204511 1.9483 0
M  V30 16645 H 1601.68 0.68557 0.296653 0
M  V30 16646 H 1604.34 1.94756 0.0747892 0
M  V30 16647 H 1603.44 2.82588 1.32479 0
M  V30 16648 N 1603.74 -0.364395 1.53329 0
M  V30 16649 C 1604.69 -1.4466 1.76232 0
M  V30 16650 C 1605.67 -1.48605 0.616884 0
M  V30 16651 O 1606.86 -1.53826 0.875589 0
M  V30 16652 C 1603.99 -2.82078 1.95671 0
M  V30 16653 C 1603.08 -2.82606 3.16219 0
M  V30 16654 N 1603.47 -2.52781 4.38105 0
M  V30 16655 C 1601.77 -3.13766 3.16965 0
M  V30 16656 C 1602.47 -2.61017 5.19851 0
M  V30 16657 N 1601.45 -2.95777 4.56088 0
M  V30 16658 H 1605.25 -1.20465 2.68077 0
M  V30 16659 H 1602.76 -0.572589 1.51971 0
M  V30 16660 H 1604.76 -3.60026 2.10206 0
M  V30 16661 H 1603.42 -3.07236 1.05054 0
M  V30 16662 H 1604.43 -2.26353 4.65816 0
M  V30 16663 H 1601.11 -3.44231 2.36245 0
M  V30 16664 H 1602.5 -2.41294 6.27078 0
M  V30 16665 N 1605.22 -1.44709 -0.62426 0
M  V30 16666 C 1606.16 -1.52413 -1.75707 0
M  V30 16667 C 1607.16 -0.395303 -1.64723 0
M  V30 16668 O 1608.36 -0.570535 -1.70719 0
M  V30 16669 H 1604.74 -0.478401 -0.580204 0
M  V30 16670 H 1606.71 -2.47742 -1.66333 0
M  V30 16671 C 1605.46 -1.49208 -3.14058 0
M  V30 16672 H 1604.78 -2.35387 -3.23161 0
M  V30 16673 H 1606.22 -1.58658 -3.93197 0
M  V30 16674 C 1604.68 -0.213877 -3.3622 0
M  V30 16675 O 1605.21 0.713128 -3.95319 0
M  V30 16676 N 1603.42 -0.114834 -2.90373 0
M  V30 16677 H 1602.96 -0.870047 -2.42462 0
M  V30 16678 H 1602.92 0.739619 -3.05576 0
M  V30 16679 N 1606.69 0.865285 -1.31722 0
M  V30 16680 C 1607.62 1.98871 -1.22362 0
M  V30 16681 C 1608.61 1.69745 -0.109779 0
M  V30 16682 O 1609.79 1.91944 -0.295167 0
M  V30 16683 C 1606.92 3.34477 -0.935 0
M  V30 16684 C 1605.87 3.77924 -2.00892 0
M  V30 16685 C 1605.2 5.11042 -1.57291 0
M  V30 16686 C 1606.5 3.94528 -3.42264 0
M  V30 16687 H 1608.19 2.06959 -2.16352 0
M  V30 16688 H 1605.74 0.994355 -1.04157 0
M  V30 16689 H 1607.69 4.12612 -0.856111 0
M  V30 16690 H 1606.42 3.26575 0.0405536 0
M  V30 16691 H 1605.08 3.02032 -2.07779 0
M  V30 16692 H 1604.72 4.99586 -0.585084 0
M  V30 16693 H 1604.42 5.41082 -2.29138 0
M  V30 16694 H 1605.95 5.91681 -1.50818 0
M  V30 16695 H 1607.36 4.63045 -3.38027 0
M  V30 16696 H 1605.76 4.35972 -4.12369 0
M  V30 16697 H 1606.83 2.97765 -3.82706 0
M  V30 16698 N 1608.17 1.14759 1.0802 0
M  V30 16699 C 1609.14 0.840859 2.13219 0
M  V30 16700 C 1610.14 -0.156309 1.60038 0
M  V30 16701 O 1611.33 0.0725143 1.74049 0
M  V30 16702 C 1608.46 0.254208 3.39951 0
M  V30 16703 H 1609.65 1.77323 2.4186 0
M  V30 16704 H 1607.2 0.954146 1.23797 0
M  V30 16705 H 1607.94 -0.686692 3.16946 0
M  V30 16706 H 1607.72 0.972499 3.79848 0
M  V30 16707 H 1609.21 0.0569551 4.17561 0
M  V30 16708 N 1609.65 -1.26251 0.943322 0
M  V30 16709 C 1610.6 -2.26304 0.453315 0
M  V30 16710 C 1611.57 -1.58764 -0.488168 0
M  V30 16711 O 1612.75 -1.86476 -0.403906 0
M  V30 16712 C 1609.89 -3.44015 -0.273393 0
M  V30 16713 C 1609.01 -4.26225 0.70401 0
M  V30 16714 C 1608.14 -5.31182 -0.0441134 0
M  V30 16715 C 1607.18 -6.05071 0.924971 0
M  V30 16716 N 1606.32 -7.0179 0.208461 0
M  V30 16717 H 1611.16 -2.67591 1.31146 0
M  V30 16718 H 1608.69 -1.31567 0.657914 0
M  V30 16719 H 1610.65 -4.11094 -0.711192 0
M  V30 16720 H 1609.28 -3.03636 -1.09566 0
M  V30 16721 H 1608.33 -3.58915 1.26032 0
M  V30 16722 H 1609.65 -4.77442 1.44398 0
M  V30 16723 H 1608.8 -6.04282 -0.541091 0
M  V30 16724 H 1607.54 -4.80809 -0.816952 0
M  V30 16725 H 1606.54 -5.30795 1.43305 0
M  V30 16726 H 1607.77 -6.57533 1.69785 0
M  V30 16727 H 1605.71 -6.53725 -0.545846 0
M  V30 16728 H 1605.63 -7.5077 0.887725 0
M  V30 16729 H 1606.9 -7.79041 -0.267352 0
M  V30 16730 N 1611.13 -0.710588 -1.40671 0
M  V30 16731 C 1612.08 -0.0548139 -2.30735 0
M  V30 16732 C 1613.05 0.755572 -1.4792 0
M  V30 16733 O 1614.23 0.720541 -1.76672 0
M  V30 16734 C 1611.37 0.864648 -3.34093 0
M  V30 16735 C 1610.48 0.0442717 -4.31977 0
M  V30 16736 C 1609.62 0.962752 -5.22403 0
M  V30 16737 C 1608.66 0.13617 -6.11949 0
M  V30 16738 N 1607.8 1.00926 -6.94808 0
M  V30 16739 H 1612.64 -0.828555 -2.8625 0
M  V30 16740 H 1610.17 -0.420286 -1.40968 0
M  V30 16741 H 1612.13 1.41193 -3.92582 0
M  V30 16742 H 1610.76 1.60462 -2.80092 0
M  V30 16743 H 1609.81 -0.620132 -3.75311 0
M  V30 16744 H 1611.12 -0.595895 -4.95228 0
M  V30 16745 H 1610.28 1.57874 -5.85799 0
M  V30 16746 H 1609.02 1.63675 -4.59415 0
M  V30 16747 H 1608.02 -0.492793 -5.47587 0
M  V30 16748 H 1609.25 -0.534251 -6.76995 0
M  V30 16749 H 1607.19 1.669 -6.34413 0
M  V30 16750 H 1607.11 0.425013 -7.54804 0
M  V30 16751 H 1608.38 1.61159 -7.62659 0
M  V30 16752 N 1612.61 1.50847 -0.456408 0
M  V30 16753 C 1613.85 2.04143 0.102549 0
M  V30 16754 C 1614.21 1.33189 1.38292 0
M  V30 16755 O 1615.41 1.7696 2.02333 0
M  V30 16756 C 1613.68 3.56164 0.296985 0
M  V30 16757 S 1615.24 4.31134 0.816609 0
M  V30 16758 H 1612.06 0.710632 0.0228845 0
M  V30 16759 H 1614.66 1.85402 -0.620186 0
M  V30 16760 H 1613.37 4.05365 -0.640906 0
M  V30 16761 H 1612.9 3.79232 1.04626 0
M  V30 16762 H 1614.91 4.49949 2.0919 0
M  V30 16763 N 1614.09 0.188454 1.56469 0
M  V30 16764 C 1615.02 -0.730379 2.21783 0
M  V30 16765 C 1616 -1.22629 1.17882 0
M  V30 16766 O 1617.18 -1.27634 1.46367 0
M  V30 16767 C 1614.31 -1.95278 2.872 0
M  V30 16768 C 1613.27 -1.59205 3.97288 0
M  V30 16769 C 1612.59 -2.89052 4.49836 0
M  V30 16770 C 1613.89 -0.807027 5.16027 0
M  V30 16771 H 1615.59 -0.185914 2.98822 0
M  V30 16772 H 1613.13 -0.0879804 1.43731 0
M  V30 16773 H 1615.08 -2.60074 3.31571 0
M  V30 16774 H 1613.81 -2.52167 2.07556 0
M  V30 16775 H 1612.47 -0.967713 3.53597 0
M  V30 16776 H 1612.12 -3.44017 3.66963 0
M  V30 16777 H 1611.82 -2.65663 5.24115 0
M  V30 16778 H 1613.34 -3.54847 4.96906 0
M  V30 16779 H 1614.75 -1.35794 5.56986 0
M  V30 16780 H 1613.15 -0.671516 5.96331 0
M  V30 16781 H 1614.22 0.193251 4.84515 0
M  V30 16782 N 1615.56 -1.5737 -0.0851874 0
M  V30 16783 C 1616.51 -1.99199 -1.10922 0
M  V30 16784 C 1617.5 -0.871945 -1.35225 0
M  V30 16785 O 1618.69 -1.13581 -1.35751 0
M  V30 16786 C 1615.82 -2.42827 -2.42672 0
M  V30 16787 C 1614.9 -3.61538 -2.217 0
M  V30 16788 N 1615.3 -4.76153 -1.70622 0
M  V30 16789 C 1613.59 -3.67828 -2.52228 0
M  V30 16790 C 1614.29 -5.58058 -1.64152 0
M  V30 16791 N 1613.27 -5.01515 -2.09723 0
M  V30 16792 H 1617.07 -2.8526 -0.707395 0
M  V30 16793 H 1614.59 -1.59745 -0.292468 0
M  V30 16794 H 1616.58 -2.71027 -3.16781 0
M  V30 16795 H 1615.24 -1.58147 -2.83583 0
M  V30 16796 H 1616.25 -4.98709 -1.39677 0
M  V30 16797 H 1612.93 -2.93832 -2.96596 0
M  V30 16798 H 1614.32 -6.60051 -1.25627 0
M  V30 16799 N 1617.04 0.356258 -1.53521 0
M  V30 16800 C 1618.29 1.09953 -1.70406 0
M  V30 16801 C 1618.62 1.8869 -0.459304 0
M  V30 16802 O 1617.9 1.86751 0.54354 0
M  V30 16803 C 1618.18 2.05114 -2.95973 0
M  V30 16804 C 1618.03 1.29924 -4.30627 0
M  V30 16805 C 1619.35 3.0511 -3.17168 0
M  V30 16806 H 1616.47 0.398343 -0.620074 0
M  V30 16807 H 1619.11 0.379376 -1.86174 0
M  V30 16808 H 1617.26 2.66524 -2.82661 0
M  V30 16809 H 1618.93 0.71226 -4.55768 0
M  V30 16810 H 1617.18 0.601141 -4.29615 0
M  V30 16811 H 1617.85 1.99624 -5.1464 0
M  V30 16812 H 1620.32 2.53809 -3.29728 0
M  V30 16813 H 1619.2 3.68908 -4.06445 0
M  V30 16814 H 1619.46 3.75794 -2.32876 0
M  V30 16815 N 1618.52 1.45038 0.616577 0
M  V30 16816 C 1619.77 1.48805 1.37786 0
M  V30 16817 C 1620.1 0.125811 1.93792 0
M  V30 16818 O 1619.37 -0.858544 1.74526 0
M  V30 16819 C 1619.66 2.56008 2.53242 0
M  V30 16820 C 1619.51 4.01643 2.02491 0
M  V30 16821 C 1620.83 2.59578 3.55398 0
M  V30 16822 H 1617.95 0.541776 0.499647 0
M  V30 16823 H 1620.59 1.76799 0.695859 0
M  V30 16824 H 1618.74 2.32269 3.11422 0
M  V30 16825 H 1620.41 4.36564 1.4903 0
M  V30 16826 H 1618.65 4.12728 1.33559 0
M  V30 16827 H 1619.33 4.72326 2.85679 0
M  V30 16828 H 1621.8 2.80826 3.07044 0
M  V30 16829 H 1620.68 3.36466 4.33684 0
M  V30 16830 H 1620.94 1.64325 4.10426 0
M  V30 16831 N 1620 -0.858287 1.32179 0
M  V30 16832 C 1621.25 -1.60902 1.2229 0
M  V30 16833 C 1621.57 -1.93797 -0.216227 0
M  V30 16834 O 1620.84 -1.59312 -1.14002 0
M  V30 16835 H 1619.42 -0.596529 0.449624 0
M  V30 16836 H 1622.08 -1.02686 1.65655 0
M  V30 16837 H 1621.17 -2.54755 1.80295 0
M  V30 16838 N 1621.48 -1.1533 -1.07409 0
M  V30 16839 C 1622.89 -0.937287 -1.61468 0
M  V30 16840 C 1623.24 0.521545 -1.89141 0
M  V30 16841 O 1622.36 1.39253 -1.65643 0
M  V30 16842 C 1622.96 -1.69501 -2.93351 0
M  V30 16843 C 1621.52 -1.52429 -3.44154 0
M  V30 16844 C 1620.66 -1.71098 -2.18222 0
M  V30 16845 H 1623.61 -1.30364 -0.905044 0
M  V30 16846 H 1623.64 -1.16416 -3.62253 0
M  V30 16847 H 1623.15 -2.75672 -2.73178 0
M  V30 16848 H 1621.25 -0.486498 -3.6941 0
M  V30 16849 H 1621.36 -2.30089 -4.20233 0
M  V30 16850 H 1619.73 -1.13745 -2.27891 0
M  V30 16851 H 1620.51 -2.78634 -2.00545 0
M  V30 16852 N 1622.95 1.25748 -0.950004 0
M  V30 16853 C 1623.9 2.28056 -0.457542 0
M  V30 16854 C 1624.9 1.62756 0.469776 0
M  V30 16855 O 1626.1 1.76623 0.347016 0
M  V30 16856 H 1622.48 0.740775 -0.129447 0
M  V30 16857 H 1624.45 2.66984 -1.33275 0
M  V30 16858 C 1623.2 3.46774 0.2536 0
M  V30 16859 H 1622.52 3.9725 -0.450808 0
M  V30 16860 H 1623.96 4.20255 0.562264 0
M  V30 16861 C 1622.42 3.02919 1.4745 0
M  V30 16862 O 1622.95 3.08527 2.57243 0
M  V30 16863 N 1621.15 2.58162 1.33419 0
M  V30 16864 H 1620.7 2.53799 0.440894 0
M  V30 16865 H 1620.66 2.29184 2.15226 0
M  V30 16866 N 1624.43 0.718038 1.40292 0
M  V30 16867 C 1625.36 0.0818367 2.33357 0
M  V30 16868 C 1626.34 -0.742854 1.53022 0
M  V30 16869 O 1627.53 -0.691281 1.8148 0
M  V30 16870 C 1624.66 -0.838843 3.37017 0
M  V30 16871 C 1623.61 -0.119589 4.27833 0
M  V30 16872 C 1622.94 -1.15615 5.22051 0
M  V30 16873 C 1624.24 1.02769 5.1209 0
M  V30 16874 H 1625.93 0.859167 2.86808 0
M  V30 16875 H 1623.48 0.414606 1.37902 0
M  V30 16876 H 1625.43 -1.29332 4.01063 0
M  V30 16877 H 1624.15 -1.6481 2.81967 0
M  V30 16878 H 1622.81 0.315088 3.65243 0
M  V30 16879 H 1622.46 -1.95852 4.63304 0
M  V30 16880 H 1622.16 -0.679767 5.83655 0
M  V30 16881 H 1623.69 -1.61068 5.88973 0
M  V30 16882 H 1625.1 0.652461 5.69575 0
M  V30 16883 H 1623.5 1.4326 5.82749 0
M  V30 16884 H 1624.57 1.85723 4.47923 0
M  V30 16885 N 1625.91 -1.50602 0.464402 0
M  V30 16886 C 1626.86 -2.29992 -0.347337 0
M  V30 16887 C 1627.85 -1.36991 -0.996489 0
M  V30 16888 O 1629.06 -1.54213 -0.928359 0
M  V30 16889 H 1625.43 -0.740529 -0.130847 0
M  V30 16890 H 1627.4 -2.96425 0.342734 0
M  V30 16891 C 1626.15 -3.17355 -1.4206 0
M  V30 16892 H 1625.48 -3.88822 -0.930473 0
M  V30 16893 H 1626.92 -3.75912 -1.96129 0
M  V30 16894 C 1625.38 -2.34506 -2.41886 0
M  V30 16895 O 1625.91 -2.02347 -3.47014 0
M  V30 16896 N 1624.11 -1.97212 -2.13438 0
M  V30 16897 H 1623.66 -2.23564 -1.27971 0
M  V30 16898 H 1623.62 -1.42081 -2.80464 0
M  V30 16899 N 1627.39 -0.19675 -1.56367 0
M  V30 16900 C 1628.35 0.709734 -2.17934 0
M  V30 16901 C 1629.35 1.13979 -1.13426 0
M  V30 16902 O 1630.54 1.05261 -1.38801 0
M  V30 16903 C 1627.67 1.96917 -2.78274 0
M  V30 16904 H 1628.87 0.173342 -2.99399 0
M  V30 16905 H 1626.42 0.0528698 -1.56211 0
M  V30 16906 H 1627.15 2.54804 -2.00613 0
M  V30 16907 H 1626.94 1.66951 -3.54781 0
M  V30 16908 H 1628.43 2.61554 -3.25545 0
M  V30 16909 N 1628.87 1.57413 0.0768405 0
M  V30 16910 C 1630.11 1.86633 0.775414 0
M  V30 16911 C 1630.44 0.788041 1.78367 0
M  V30 16912 O 1629.71 -0.183835 1.95036 0
M  V30 16913 H 1628.29 0.688678 0.289365 0
M  V30 16914 H 1630.95 1.94825 0.0541285 0
M  V30 16915 H 1630.04 2.83977 1.29474 0
M  V30 16916 N 1630.34 -0.348112 1.53707 0
M  V30 16917 C 1631.25 -1.45079 1.84361 0
M  V30 16918 C 1632.27 -1.5779 0.733375 0
M  V30 16919 O 1633.45 -1.73353 1.02522 0
M  V30 16920 C 1630.51 -2.80127 2.04278 0
M  V30 16921 C 1629.57 -2.76799 3.28148 0
M  V30 16922 C 1628.81 -4.05406 3.47105 0
M  V30 16923 O 1629.03 -5.02454 2.69992 0
M  V30 16924 O 1627.96 -4.10155 4.40519 0
M  V30 16925 H 1631.79 -1.22093 2.78077 0
M  V30 16926 H 1629.37 -0.539863 1.39305 0
M  V30 16927 H 1631.26 -3.60115 2.18849 0
M  V30 16928 H 1629.93 -3.03055 1.13751 0
M  V30 16929 H 1628.84 -1.95448 3.18984 0
M  V30 16930 H 1630.17 -2.58826 4.18653 0
M  V30 16931 N 1631.82 -1.45363 -0.608876 0
M  V30 16932 C 1633.1 -1.39787 -1.36817 0
M  V30 16933 C 1633.48 -0.067821 -2.10991 0
M  V30 16934 O 1632.83 0.950196 -2.07806 0
M  V30 16935 C 1633.04 -2.61073 -2.31608 0
M  V30 16936 C 1634.39 -3.06104 -2.94254 0
M  V30 16937 O 1635.41 -2.61436 -2.41929 0
M  V30 16938 O 1634.27 -3.83616 -3.89231 0
M  V30 16939 H 1631.36 -0.554657 -0.61342 0
M  V30 16940 H 1633.91 -1.57489 -0.632073 0
M  V30 16941 H 1632.68 -3.4946 -1.76049 0
M  V30 16942 H 1632.3 -2.45697 -3.126 0
M  V30 16943 N 1633.3 0.851265 -1.32632 0
M  V30 16944 C 1634.55 1.60057 -1.22738 0
M  V30 16945 C 1634.86 1.94485 0.208525 0
M  V30 16946 O 1636.07 2.68083 0.429361 0
M  V30 16947 C 1634.52 2.88634 -2.14985 0
M  V30 16948 C 1634.13 2.61617 -3.63676 0
M  V30 16949 C 1635.88 3.6665 -2.13935 0
M  V30 16950 C 1633.78 3.86215 -4.47875 0
M  V30 16951 H 1632.71 0.600617 -0.455824 0
M  V30 16952 H 1635.36 0.939671 -1.57615 0
M  V30 16953 H 1633.75 3.56199 -1.73027 0
M  V30 16954 H 1634.92 2.02342 -4.13998 0
M  V30 16955 H 1633.24 1.96926 -3.66891 0
M  V30 16956 H 1635.83 4.59114 -2.74078 0
M  V30 16957 H 1636.18 4.00636 -1.13121 0
M  V30 16958 H 1636.71 3.05993 -2.54192 0
M  V30 16959 H 1633.45 3.57367 -5.49517 0
M  V30 16960 H 1632.97 4.44874 -4.02302 0
M  V30 16961 H 1634.65 4.5392 -4.61049 0
M  V30 16962 N 1634.78 1.15898 1.06796 0
M  V30 16963 C 1635.71 0.818654 2.14081 0
M  V30 16964 C 1636.72 -0.171847 1.6189 0
M  V30 16965 O 1637.91 0.052196 1.78424 0
M  V30 16966 C 1635.01 0.197283 3.38325 0
M  V30 16967 C 1634.19 1.22662 4.19849 0
M  V30 16968 C 1633.24 0.625985 5.22463 0
M  V30 16969 O 1632.27 1.29347 5.54309 0
M  V30 16970 N 1633.47 -0.589665 5.77497 0
M  V30 16971 H 1636.24 1.74196 2.43877 0
M  V30 16972 H 1633.8 1.05562 1.22753 0
M  V30 16973 H 1635.79 -0.217439 4.04115 0
M  V30 16974 H 1634.36 -0.629476 3.06197 0
M  V30 16975 H 1633.58 1.8177 3.49791 0
M  V30 16976 H 1634.87 1.92143 4.71125 0
M  V30 16977 H 1634.27 -1.15022 5.53883 0
M  V30 16978 H 1632.82 -0.946667 6.44889 0
M  V30 16979 N 1636.26 -1.25243 0.956659 0
M  V30 16980 C 1637.19 -2.28159 0.496574 0
M  V30 16981 C 1638.17 -1.63814 -0.458132 0
M  V30 16982 O 1639.35 -1.90897 -0.356648 0
M  V30 16983 C 1636.48 -3.46573 -0.22454 0
M  V30 16984 C 1635.44 -4.2311 0.645104 0
M  V30 16985 C 1634.76 -5.343 -0.206867 0
M  V30 16986 C 1636.06 -4.85562 1.92422 0
M  V30 16987 H 1637.76 -2.66895 1.35675 0
M  V30 16988 H 1635.3 -1.28301 0.653827 0
M  V30 16989 H 1637.26 -4.17695 -0.55755 0
M  V30 16990 H 1635.98 -3.06833 -1.11898 0
M  V30 16991 H 1634.64 -3.53774 0.961228 0
M  V30 16992 H 1634.29 -4.908 -1.10112 0
M  V30 16993 H 1633.99 -5.86423 0.371714 0
M  V30 16994 H 1635.51 -6.08253 -0.534798 0
M  V30 16995 H 1636.92 -5.48817 1.65749 0
M  V30 16996 H 1635.32 -5.47871 2.44862 0
M  V30 16997 H 1636.39 -4.07634 2.62607 0
M  V30 16998 N 1637.73 -0.725468 -1.3991 0
M  V30 16999 C 1638.66 -0.094211 -2.3331 0
M  V30 17000 C 1639.65 0.734728 -1.53414 0
M  V30 17001 O 1640.83 0.681647 -1.81844 0
M  V30 17002 C 1637.96 0.820958 -3.37457 0
M  V30 17003 C 1636.91 0.0968983 -4.2789 0
M  V30 17004 C 1636.24 1.12845 -5.22657 0
M  V30 17005 C 1637.54 -1.05483 -5.11537 0
M  V30 17006 H 1639.23 -0.874365 -2.86348 0
M  V30 17007 H 1636.78 -0.421913 -1.3768 0
M  V30 17008 H 1638.73 1.27203 -4.01743 0
M  V30 17009 H 1637.46 1.63312 -2.82837 0
M  V30 17010 H 1636.12 -0.334454 -3.65071 0
M  V30 17011 H 1635.76 1.93392 -4.64337 0
M  V30 17012 H 1635.46 0.648805 -5.84007 0
M  V30 17013 H 1636.99 1.57942 -5.89819 0
M  V30 17014 H 1638.4 -0.682657 -5.69221 0
M  V30 17015 H 1636.8 -1.46349 -5.81981 0
M  V30 17016 H 1637.87 -1.88095 -4.46932 0
M  V30 17017 N 1639.21 1.50354 -0.472382 0
M  V30 17018 C 1640.16 2.28555 0.321118 0
M  V30 17019 C 1641.13 1.33665 0.98605 0
M  V30 17020 O 1642.31 1.62603 0.998239 0
M  V30 17021 C 1639.45 3.15586 1.39641 0
M  V30 17022 C 1638.57 4.25508 0.746129 0
M  V30 17023 C 1637.7 4.99794 1.79943 0
M  V30 17024 C 1636.74 6.01589 1.12946 0
M  V30 17025 N 1635.88 6.69149 2.12567 0
M  V30 17026 H 1640.72 2.95913 -0.352051 0
M  V30 17027 H 1638.26 1.45926 -0.185461 0
M  V30 17028 H 1640.21 3.64397 2.03152 0
M  V30 17029 H 1638.84 2.50271 2.03873 0
M  V30 17030 H 1637.9 3.804 -0.00157718 0
M  V30 17031 H 1639.21 4.98326 0.217335 0
M  V30 17032 H 1638.36 5.5233 2.51031 0
M  V30 17033 H 1637.1 4.26684 2.36203 0
M  V30 17034 H 1636.11 5.48312 0.404207 0
M  V30 17035 H 1637.33 6.76672 0.573735 0
M  V30 17036 H 1635.28 5.9883 2.67841 0
M  V30 17037 H 1635.19 7.37847 1.64676 0
M  V30 17038 H 1636.46 7.26301 2.83031 0
M  V30 17039 N 1640.69 0.205039 1.56261 0
M  V30 17040 C 1641.65 -0.698166 2.18308 0
M  V30 17041 C 1642.65 -1.13376 1.14029 0
M  V30 17042 O 1643.84 -1.04524 1.39357 0
M  V30 17043 C 1640.98 -1.95438 2.79315 0
M  V30 17044 H 1642.17 -0.157462 2.99486 0
M  V30 17045 H 1639.72 -0.0445849 1.56236 0
M  V30 17046 H 1640.46 -2.53736 2.01962 0
M  V30 17047 H 1640.24 -1.65068 3.55662 0
M  V30 17048 H 1641.73 -2.59824 3.26927 0
M  V30 17049 N 1642.17 -1.57451 -0.0684915 0
M  V30 17050 C 1643.13 -2.0293 -1.06545 0
M  V30 17051 C 1644.13 -0.926861 -1.314 0
M  V30 17052 O 1645.32 -1.19164 -1.27065 0
M  V30 17053 C 1642.45 -2.41276 -2.4083 0
M  V30 17054 H 1643.65 -2.92242 -0.673401 0
M  V30 17055 H 1641.2 -1.53107 -0.314307 0
M  V30 17056 H 1641.94 -1.55 -2.8486 0
M  V30 17057 H 1641.72 -3.21727 -2.2413 0
M  V30 17058 H 1643.21 -2.77026 -3.12484 0
M  V30 17059 N 1643.65 0.339955 -1.5389 0
M  V30 17060 C 1644.88 1.09816 -1.74997 0
M  V30 17061 C 1645.29 1.82725 -0.490746 0
M  V30 17062 O 1644.63 1.75352 0.547467 0
M  V30 17063 C 1644.69 2.15388 -2.87834 0
M  V30 17064 C 1644.35 1.62022 -4.27315 0
M  V30 17065 C 1645.35 1.07064 -5.08757 0
M  V30 17066 C 1643.04 1.6676 -4.7381 0
M  V30 17067 C 1645.03 0.575529 -6.34796 0
M  V30 17068 C 1642.72 1.16861 -5.99822 0
M  V30 17069 C 1643.72 0.623505 -6.80148 0
M  V30 17070 O 1643.4 0.131966 -8.03792 0
M  V30 17071 H 1643.14 0.333199 -0.588179 0
M  V30 17072 H 1645.69 0.39682 -2.0153 0
M  V30 17073 H 1643.92 2.89091 -2.56834 0
M  V30 17074 H 1645.61 2.76801 -2.96877 0
M  V30 17075 H 1646.37 1.02723 -4.73997 0
M  V30 17076 H 1642.25 2.08129 -4.11343 0
M  V30 17077 H 1645.8 0.149389 -6.9744 0
M  V30 17078 H 1641.69 1.20904 -6.34076 0
M  V30 17079 H 1642.46 0.24892 -8.18121 0
M  V30 17080 N 1645.13 1.45684 0.601159 0
M  V30 17081 C 1646.04 1.57396 1.73965 0
M  V30 17082 C 1647.05 0.458133 1.6786 0
M  V30 17083 O 1648.23 0.719717 1.88101 0
M  V30 17084 C 1645.29 1.54363 3.1044 0
M  V30 17085 C 1644.35 2.77034 3.27949 0
M  V30 17086 C 1643.59 2.74136 4.57914 0
M  V30 17087 O 1643.81 1.81829 5.40643 0
M  V30 17088 O 1642.74 3.65428 4.78274 0
M  V30 17089 H 1646.57 2.5364 1.67034 0
M  V30 17090 H 1644.15 1.28267 0.766017 0
M  V30 17091 H 1646.04 1.55302 3.91739 0
M  V30 17092 H 1644.71 0.612723 3.17848 0
M  V30 17093 H 1643.62 2.81655 2.46214 0
M  V30 17094 H 1644.95 3.69272 3.25422 0
M  V30 17095 N 1646.6 -0.84422 1.33082 0
M  V30 17096 C 1647.55 -1.97504 1.22862 0
M  V30 17097 C 1648.55 -1.68892 0.131141 0
M  V30 17098 O 1649.75 -1.7757 0.294753 0
M  V30 17099 H 1646.13 -0.648263 0.381129 0
M  V30 17100 H 1648.1 -2.03249 2.18478 0
M  V30 17101 C 1646.85 -3.33626 0.979228 0
M  V30 17102 H 1646.17 -3.56178 1.81596 0
M  V30 17103 H 1647.61 -4.13266 0.948007 0
M  V30 17104 C 1646.07 -3.35397 -0.317922 0
M  V30 17105 O 1646.6 -3.7917 -1.32638 0
M  V30 17106 N 1644.8 -2.88562 -0.343577 0
M  V30 17107 H 1644.35 -2.53133 0.477625 0
M  V30 17108 H 1644.31 -2.90129 -1.21131 0
M  V30 17109 N 1648.08 -1.16463 -1.0618 0
M  V30 17110 C 1649.33 -0.946846 -1.79 0
M  V30 17111 C 1649.66 0.525259 -1.87273 0
M  V30 17112 O 1648.91 1.40584 -1.36142 0
M  V30 17113 C 1649.21 -1.52085 -3.23427 0
M  V30 17114 C 1648.88 -3.01547 -3.35232 0
M  V30 17115 C 1647.54 -3.42346 -3.38161 0
M  V30 17116 C 1649.89 -3.97543 -3.37059 0
M  V30 17117 C 1647.22 -4.77759 -3.40534 0
M  V30 17118 C 1649.57 -5.32843 -3.4097 0
M  V30 17119 C 1648.23 -5.73121 -3.42182 0
M  V30 17120 H 1647.5 -0.346475 -0.655008 0
M  V30 17121 H 1650.15 -1.45195 -1.24862 0
M  V30 17122 H 1648.46 -0.937212 -3.80426 0
M  V30 17123 H 1650.15 -1.32801 -3.78371 0
M  V30 17124 H 1646.74 -2.69017 -3.33658 0
M  V30 17125 H 1650.93 -3.67088 -3.34006 0
M  V30 17126 H 1646.18 -5.08293 -3.39777 0
M  V30 17127 H 1650.36 -6.07014 -3.41332 0
M  V30 17128 H 1647.98 -6.78029 -3.43774 0
M  V30 17129 N 1649.56 1.24734 -0.963288 0
M  V30 17130 C 1650.51 2.27557 -0.481704 0
M  V30 17131 C 1651.5 1.63245 0.452488 0
M  V30 17132 O 1652.71 1.76981 0.328263 0
M  V30 17133 H 1649.08 0.73936 -0.137297 0
M  V30 17134 H 1651.05 2.65555 -1.361 0
M  V30 17135 C 1649.8 3.47023 0.216806 0
M  V30 17136 H 1649.13 3.9675 -0.492916 0
M  V30 17137 H 1650.57 4.20828 0.517659 0
M  V30 17138 C 1649.02 3.04466 1.44229 0
M  V30 17139 O 1649.55 3.11238 2.53956 0
M  V30 17140 N 1647.76 2.59563 1.30674 0
M  V30 17141 H 1647.31 2.54252 0.41395 0
M  V30 17142 H 1647.27 2.31453 2.12783 0
M  V30 17143 N 1651.04 0.732878 1.39523 0
M  V30 17144 C 1652.26 0.288717 2.05381 0
M  V30 17145 C 1652.69 -1.06727 1.5489 0
M  V30 17146 O 1652.05 -1.67585 0.691726 0
M  V30 17147 C 1652.09 0.297738 3.59369 0
M  V30 17148 O 1651.2 -0.715335 4.06149 0
M  V30 17149 H 1650.54 0.131696 0.650809 0
M  V30 17150 H 1653.07 0.998206 1.78597 0
M  V30 17151 H 1653.08 0.141391 4.07755 0
M  V30 17152 H 1651.75 1.28719 3.9548 0
M  V30 17153 H 1650.33 -0.525298 3.69182 0
M  V30 17154 N 1652.52 -1.50101 0.480349 0
M  V30 17155 C 1653.45 -2.26582 -0.345418 0
M  V30 17156 C 1654.46 -1.32283 -0.948947 0
M  V30 17157 O 1655.65 -1.57724 -0.835784 0
M  V30 17158 C 1652.75 -3.0393 -1.49932 0
M  V30 17159 C 1651.92 -4.25653 -1.00689 0
M  V30 17160 C 1650.98 -4.85217 -2.03594 0
M  V30 17161 O 1650.01 -5.45873 -1.61281 0
M  V30 17162 N 1651.21 -4.73035 -3.36479 0
M  V30 17163 H 1653.97 -2.98089 0.310285 0
M  V30 17164 H 1651.54 -1.58872 0.311671 0
M  V30 17165 H 1653.53 -3.40656 -2.18485 0
M  V30 17166 H 1652.1 -2.35162 -2.05955 0
M  V30 17167 H 1651.32 -3.93926 -0.146932 0
M  V30 17168 H 1652.61 -5.04554 -0.655957 0
M  V30 17169 H 1652 -4.24818 -3.73559 0
M  V30 17170 H 1650.56 -5.14004 -4.00804 0
M  V30 17171 N 1653.99 -0.213323 -1.5615 0
M  V30 17172 C 1655.27 0.469174 -1.8989 0
M  V30 17173 C 1655.65 1.78341 -1.1295 0
M  V30 17174 O 1655 2.27276 -0.236236 0
M  V30 17175 C 1655.21 0.67017 -3.42505 0
M  V30 17176 C 1656.56 0.981324 -4.13104 0
M  V30 17177 O 1657.58 0.757249 -3.48058 0
M  V30 17178 O 1656.44 1.40614 -5.281 0
M  V30 17179 H 1653.53 0.246943 -0.789271 0
M  V30 17180 H 1656.08 -0.254896 -1.67775 0
M  V30 17181 H 1654.85 -0.257189 -3.90454 0
M  V30 17182 H 1654.47 1.44603 -3.70372 0
M  V30 17183 N 1655.47 1.57485 0.0601405 0
M  V30 17184 C 1656.72 1.86998 0.75595 0
M  V30 17185 C 1657.03 0.807616 1.78149 0
M  V30 17186 O 1658.24 0.99096 2.52769 0
M  V30 17187 C 1656.7 3.31746 1.39545 0
M  V30 17188 C 1656.3 4.46139 0.407874 0
M  V30 17189 C 1658.05 3.70445 2.07294 0
M  V30 17190 C 1655.96 5.81933 1.05395 0
M  V30 17191 H 1654.89 0.697619 0.286083 0
M  V30 17192 H 1657.54 1.83498 0.00948593 0
M  V30 17193 H 1655.92 3.29894 2.19057 0
M  V30 17194 H 1657.09 4.59405 -0.358281 0
M  V30 17195 H 1655.41 4.1607 -0.16581 0
M  V30 17196 H 1658 4.692 2.56428 0
M  V30 17197 H 1658.35 3.00839 2.87753 0
M  V30 17198 H 1658.88 3.74337 1.34598 0
M  V30 17199 H 1655.62 6.54861 0.289437 0
M  V30 17200 H 1655.14 5.72446 1.79068 0
M  V30 17201 H 1656.82 6.27652 1.5704 0
M  V30 17202 N 1656.95 -0.331789 1.54068 0
M  V30 17203 C 1657.88 -1.41332 1.8587 0
M  V30 17204 C 1658.86 -1.54353 0.714787 0
M  V30 17205 O 1660.05 -1.68368 0.967777 0
M  V30 17206 C 1657.18 -2.78218 2.07875 0
M  V30 17207 C 1656.13 -2.79994 3.23709 0
M  V30 17208 C 1655.46 -4.19878 3.31069 0
M  V30 17209 C 1656.76 -2.44476 4.6155 0
M  V30 17210 H 1658.45 -1.14966 2.76447 0
M  V30 17211 H 1656 -0.551615 1.33016 0
M  V30 17212 H 1657.95 -3.53937 2.28706 0
M  V30 17213 H 1656.67 -3.06044 1.14038 0
M  V30 17214 H 1655.33 -2.0673 3.02751 0
M  V30 17215 H 1654.98 -4.44831 2.34807 0
M  V30 17216 H 1654.68 -4.21974 4.08915 0
M  V30 17217 H 1656.2 -4.97421 3.54125 0
M  V30 17218 H 1657.62 -3.09908 4.82317 0
M  V30 17219 H 1656.02 -2.57837 5.41886 0
M  V30 17220 H 1657.09 -1.3964 4.64358 0
M  V30 17221 N 1658.43 -1.46001 -0.593424 0
M  V30 17222 C 1659.36 -1.58605 -1.71367 0
M  V30 17223 C 1660.34 -0.436866 -1.64394 0
M  V30 17224 O 1661.52 -0.661782 -1.82576 0
M  V30 17225 C 1658.65 -1.56587 -3.09996 0
M  V30 17226 C 1657.61 -2.70366 -3.31792 0
M  V30 17227 C 1656.93 -2.53406 -4.70839 0
M  V30 17228 C 1658.23 -4.12274 -3.20667 0
M  V30 17229 H 1659.93 -2.52379 -1.61076 0
M  V30 17230 H 1657.47 -1.21462 -0.773499 0
M  V30 17231 H 1659.43 -1.64 -3.88178 0
M  V30 17232 H 1658.15 -0.593511 -3.21162 0
M  V30 17233 H 1656.81 -2.62405 -2.56006 0
M  V30 17234 H 1656.46 -1.54278 -4.78756 0
M  V30 17235 H 1656.16 -3.29715 -4.86376 0
M  V30 17236 H 1657.68 -2.62694 -5.51203 0
M  V30 17237 H 1659.1 -4.21404 -3.88705 0
M  V30 17238 H 1657.49 -4.89085 -3.47729 0
M  V30 17239 H 1658.56 -4.33184 -2.17898 0
M  V30 17240 N 1659.91 0.83715 -1.33527 0
M  V30 17241 C 1660.87 1.92865 -1.23837 0
M  V30 17242 C 1661.87 1.60032 -0.157005 0
M  V30 17243 O 1663.06 1.69339 -0.408654 0
M  V30 17244 C 1660.19 3.28568 -0.908617 0
M  V30 17245 H 1661.38 2.02883 -2.20859 0
M  V30 17246 H 1658.94 1.02944 -1.1761 0
M  V30 17247 H 1659.67 3.24246 0.0590328 0
M  V30 17248 H 1659.46 3.53779 -1.69064 0
M  V30 17249 H 1660.95 4.0853 -0.86561 0
M  V30 17250 N 1661.38 1.17024 1.05561 0
M  V30 17251 C 1662.8 0.962856 1.59956 0
M  V30 17252 C 1663.15 -0.491388 1.89947 0
M  V30 17253 O 1662.27 -1.366 1.67838 0
M  V30 17254 C 1662.87 1.74146 2.90617 0
M  V30 17255 C 1661.43 1.57885 3.41686 0
M  V30 17256 C 1660.57 1.74548 2.15472 0
M  V30 17257 H 1663.52 1.31787 0.88419 0
M  V30 17258 H 1663.54 1.22165 3.60355 0
M  V30 17259 H 1663.06 2.79984 2.68758 0
M  V30 17260 H 1661.16 0.545207 3.6859 0
M  V30 17261 H 1661.27 2.36745 4.16519 0
M  V30 17262 H 1659.63 1.17356 2.26052 0
M  V30 17263 H 1660.42 2.81789 1.96087 0
M  V30 17264 N 1662.86 -1.24221 0.969889 0
M  V30 17265 C 1663.79 -2.27619 0.520745 0
M  V30 17266 C 1664.77 -1.64291 -0.440731 0
M  V30 17267 O 1665.96 -1.91265 -0.336381 0
M  V30 17268 C 1663.09 -3.46792 -0.187768 0
M  V30 17269 C 1662.04 -4.22402 0.689945 0
M  V30 17270 C 1661.37 -5.34489 -0.150186 0
M  V30 17271 C 1662.67 -4.83494 1.97562 0
M  V30 17272 H 1664.36 -2.65441 1.38498 0
M  V30 17273 H 1661.91 -1.276 0.667398 0
M  V30 17274 H 1663.86 -4.18263 -0.513216 0
M  V30 17275 H 1662.59 -3.08002 -1.08637 0
M  V30 17276 H 1661.24 -3.52734 0.998696 0
M  V30 17277 H 1660.89 -4.9194 -1.049 0
M  V30 17278 H 1660.59 -5.85996 0.433891 0
M  V30 17279 H 1662.12 -6.08786 -0.470255 0
M  V30 17280 H 1663.53 -5.47028 1.71561 0
M  V30 17281 H 1661.93 -5.45243 2.5066 0
M  V30 17282 H 1663 -4.04826 2.66915 0
M  V30 17283 N 1664.34 -0.740267 -1.39132 0
M  V30 17284 C 1665.27 -0.118951 -2.33197 0
M  V30 17285 C 1666.25 0.718416 -1.54184 0
M  V30 17286 O 1667.44 0.662322 -1.82557 0
M  V30 17287 C 1664.57 0.78512 -3.38309 0
M  V30 17288 C 1663.52 0.0515093 -4.27969 0
M  V30 17289 C 1662.85 1.07295 -5.23824 0
M  V30 17290 C 1664.15 -1.10903 -5.1039 0
M  V30 17291 H 1665.84 -0.904687 -2.85405 0
M  V30 17292 H 1663.39 -0.436493 -1.37225 0
M  V30 17293 H 1665.34 1.22935 -4.03069 0
M  V30 17294 H 1664.06 1.60303 -2.84553 0
M  V30 17295 H 1662.72 -0.373156 -3.64696 0
M  V30 17296 H 1662.37 1.88456 -4.66362 0
M  V30 17297 H 1662.07 0.586827 -5.84662 0
M  V30 17298 H 1663.59 1.51677 -5.91461 0
M  V30 17299 H 1665.01 -0.742993 -5.68465 0
M  V30 17300 H 1663.41 -1.52513 -5.80396 0
M  V30 17301 H 1664.48 -1.92825 -4.44912 0
M  V30 17302 N 1665.82 1.49844 -0.488302 0
M  V30 17303 C 1667.04 2.07313 0.0600937 0
M  V30 17304 C 1667.47 1.3478 1.3121 0
M  V30 17305 O 1666.83 0.400634 1.76818 0
M  V30 17306 C 1666.87 3.59268 0.309658 0
M  V30 17307 O 1665.98 3.88381 1.38688 0
M  V30 17308 H 1665.32 0.663681 -0.0205947 0
M  V30 17309 H 1667.85 1.92818 -0.684284 0
M  V30 17310 H 1667.86 4.04344 0.545 0
M  V30 17311 H 1666.53 4.11474 -0.605146 0
M  V30 17312 H 1665.11 3.55128 1.13749 0
M  V30 17313 N 1667.3 0.221601 1.56034 0
M  V30 17314 C 1668.26 -0.674973 2.19036 0
M  V30 17315 C 1669.26 -1.1216 1.15225 0
M  V30 17316 O 1670.45 -1.0304 1.40458 0
M  V30 17317 C 1667.58 -1.92465 2.81372 0
M  V30 17318 H 1668.77 -0.125689 2.99637 0
M  V30 17319 H 1666.33 -0.0280114 1.56275 0
M  V30 17320 H 1667.06 -2.5158 2.04641 0
M  V30 17321 H 1666.85 -1.61286 3.57392 0
M  V30 17322 H 1668.34 -2.56342 3.29664 0
M  V30 17323 N 1668.77 -1.57515 -0.0517878 0
M  V30 17324 C 1670.02 -1.87843 -0.745624 0
M  V30 17325 C 1670.34 -0.816318 -1.77091 0
M  V30 17326 O 1669.61 0.152784 -1.95303 0
M  V30 17327 H 1668.19 -0.693194 -0.278372 0
M  V30 17328 H 1670.86 -1.94886 -0.0231267 0
M  V30 17329 H 1669.95 -2.86001 -1.2494 0
M  V30 17330 N 1670.25 0.323614 -1.54242 0
M  V30 17331 C 1671.5 1.05909 -1.71657 0
M  V30 17332 C 1671.82 1.89177 -0.497151 0
M  V30 17333 O 1673.02 2.65816 -0.552649 0
M  V30 17334 C 1671.48 1.93246 -3.03618 0
M  V30 17335 C 1671.09 1.1509 -4.32965 0
M  V30 17336 C 1672.83 2.6653 -3.30397 0
M  V30 17337 C 1670.74 2.01573 -5.55988 0
M  V30 17338 H 1669.67 0.399114 -0.639706 0
M  V30 17339 H 1672.32 0.317338 -1.80735 0
M  V30 17340 H 1670.7 2.71319 -2.88447 0
M  V30 17341 H 1671.87 0.417877 -4.58901 0
M  V30 17342 H 1670.19 0.534882 -4.1295 0
M  V30 17343 H 1672.79 3.31542 -4.19504 0
M  V30 17344 H 1673.13 3.34164 -2.48274 0
M  V30 17345 H 1673.66 1.95518 -3.46435 0
M  V30 17346 H 1670.4 1.38446 -6.40713 0
M  V30 17347 H 1669.92 2.72609 -5.3427 0
M  V30 17348 H 1671.6 2.60159 -5.9239 0
M  V30 17349 N 1671.73 1.46313 0.585673 0
M  V30 17350 C 1672.98 1.5147 1.34399 0
M  V30 17351 C 1673.31 0.165209 1.93797 0
M  V30 17352 O 1672.56 -0.838796 1.76813 0
M  V30 17353 C 1672.86 2.55895 2.49504 0
M  V30 17354 C 1672.53 3.99997 2.08118 0
M  V30 17355 C 1671.19 4.3923 1.96545 0
M  V30 17356 C 1673.54 4.90532 1.76147 0
M  V30 17357 C 1670.87 5.66867 1.51256 0
M  V30 17358 C 1673.22 6.18603 1.32338 0
M  V30 17359 C 1671.88 6.56745 1.1934 0
M  V30 17360 H 1671.15 0.554268 0.491801 0
M  V30 17361 H 1673.8 1.79774 0.659803 0
M  V30 17362 H 1672.11 2.21241 3.23357 0
M  V30 17363 H 1673.8 2.57116 3.07722 0
M  V30 17364 H 1670.39 3.68983 2.18058 0
M  V30 17365 H 1674.58 4.60942 1.83974 0
M  V30 17366 H 1669.83 5.95194 1.39834 0
M  V30 17367 H 1674.01 6.88185 1.06653 0
M  V30 17368 H 1671.63 7.55542 0.840228 0
M  V30 17369 N 1673.21 -0.830057 1.33969 0
M  V30 17370 C 1674.46 -1.58272 1.25675 0
M  V30 17371 C 1674.78 -1.94213 -0.175071 0
M  V30 17372 O 1674.05 -1.61694 -1.10597 0
M  V30 17373 H 1672.63 -0.586858 0.462176 0
M  V30 17374 H 1675.29 -0.991495 1.67796 0
M  V30 17375 H 1674.39 -2.50874 1.85658 0
M  V30 17376 N 1674.69 -1.17582 -1.04939 0
M  V30 17377 C 1675.65 -0.897095 -2.10914 0
M  V30 17378 C 1676.65 0.113823 -1.60397 0
M  V30 17379 O 1677.84 -0.118635 -1.73796 0
M  V30 17380 C 1674.97 -0.344251 -3.39157 0
M  V30 17381 H 1676.17 -1.83674 -2.37074 0
M  V30 17382 H 1673.72 -0.986634 -1.21224 0
M  V30 17383 H 1674.45 0.602417 -3.18656 0
M  V30 17384 H 1674.24 -1.07287 -3.77137 0
M  V30 17385 H 1675.73 -0.167644 -4.17263 0
M  V30 17386 N 1676.17 1.23705 -0.976463 0
M  V30 17387 C 1677.11 2.25023 -0.513156 0
M  V30 17388 C 1678.08 1.60003 0.445903 0
M  V30 17389 O 1679.27 1.87481 0.354323 0
M  V30 17390 C 1676.41 3.44619 0.182088 0
M  V30 17391 C 1675.52 4.24209 -0.816769 0
M  V30 17392 C 1674.66 5.31112 -0.0967355 0
M  V30 17393 C 1673.69 6.02406 -1.08507 0
M  V30 17394 N 1672.83 7.00991 -0.394455 0
M  V30 17395 H 1677.67 2.64019 -1.38194 0
M  V30 17396 H 1675.21 1.29777 -0.692566 0
M  V30 17397 H 1677.17 4.12835 0.601948 0
M  V30 17398 H 1675.8 3.06435 1.01477 0
M  V30 17399 H 1674.85 3.55448 -1.35503 0
M  V30 17400 H 1676.16 4.73445 -1.57006 0
M  V30 17401 H 1675.31 6.05504 0.380686 0
M  V30 17402 H 1674.05 4.82806 0.689187 0
M  V30 17403 H 1673.06 5.26809 -1.57328 0
M  V30 17404 H 1674.28 6.528 -1.87159 0
M  V30 17405 H 1672.23 6.54943 0.372331 0
M  V30 17406 H 1672.15 7.48152 -1.08647 0
M  V30 17407 H 1673.41 7.79476 0.0607087 0
M  V30 17408 N 1677.64 0.747635 1.38738 0
M  V30 17409 C 1679.05 0.369576 1.83006 0
M  V30 17410 C 1679.41 -1.10091 1.62402 0
M  V30 17411 O 1678.53 -1.85042 1.12198 0
M  V30 17412 C 1679.13 0.664018 3.32229 0
M  V30 17413 C 1677.68 0.339308 3.74868 0
M  V30 17414 C 1676.83 0.920231 2.61586 0
M  V30 17415 H 1679.78 0.944268 1.27551 0
M  V30 17416 H 1679.8 -0.0598575 3.80453 0
M  V30 17417 H 1679.32 1.73432 3.47193 0
M  V30 17418 H 1677.42 -0.724649 3.65485 0
M  V30 17419 H 1677.53 0.830699 4.71843 0
M  V30 17420 H 1675.89 0.346002 2.52339 0
M  V30 17421 H 1676.68 1.99544 2.79351 0
M  V30 17422 N 1679.12 -1.49583 0.496242 0
M  V30 17423 C 1680.05 -2.31885 -0.274139 0
M  V30 17424 C 1681.03 -1.39939 -0.96701 0
M  V30 17425 O 1682.22 -1.6885 -0.959333 0
M  V30 17426 C 1679.35 -3.20332 -1.34181 0
M  V30 17427 C 1678.3 -4.21033 -0.769091 0
M  V30 17428 C 1677.63 -4.98385 -1.93693 0
M  V30 17429 C 1678.93 -5.21764 0.236648 0
M  V30 17430 H 1680.62 -2.9654 0.412824 0
M  V30 17431 H 1678.17 -1.42605 0.199979 0
M  V30 17432 H 1680.12 -3.76718 -1.88843 0
M  V30 17433 H 1678.84 -2.53611 -2.05789 0
M  V30 17434 H 1677.5 -3.65785 -0.244252 0
M  V30 17435 H 1677.15 -4.28115 -2.64058 0
M  V30 17436 H 1676.85 -5.66519 -1.55981 0
M  V30 17437 H 1678.38 -5.57613 -2.48798 0
M  V30 17438 H 1679.79 -5.72871 -0.221672 0
M  V30 17439 H 1678.19 -5.97761 0.529346 0
M  V30 17440 H 1679.26 -4.70964 1.15415 0
M  V30 17441 N 1680.6 -0.229873 -1.55915 0
M  V30 17442 C 1681.53 0.70927 -2.1795 0
M  V30 17443 C 1682.54 1.15142 -1.15092 0
M  V30 17444 O 1683.73 1.08114 -1.42034 0
M  V30 17445 C 1680.83 1.97359 -2.75504 0
M  V30 17446 C 1680.01 1.68565 -4.03614 0
M  V30 17447 C 1679.07 2.79786 -4.45652 0
M  V30 17448 O 1678.09 2.479 -5.12381 0
M  V30 17449 N 1679.29 4.08921 -4.12024 0
M  V30 17450 H 1682.06 0.178573 -2.99168 0
M  V30 17451 H 1679.62 -0.0491789 -1.61825 0
M  V30 17452 H 1681.61 2.70972 -3.00593 0
M  V30 17453 H 1680.18 2.41454 -1.98542 0
M  V30 17454 H 1679.4 0.785547 -3.86294 0
M  V30 17455 H 1680.69 1.46769 -4.87172 0
M  V30 17456 H 1680.09 4.37667 -3.58419 0
M  V30 17457 H 1678.64 4.79052 -4.41987 0
M  V30 17458 N 1682.08 1.5754 0.0434337 0
M  V30 17459 C 1683.3 1.93247 0.753012 0
M  V30 17460 C 1683.73 0.828712 1.68861 0
M  V30 17461 O 1683.09 -0.216618 1.80001 0
M  V30 17462 C 1683.13 3.27989 1.49852 0
M  V30 17463 O 1682.24 3.19223 2.61094 0
M  V30 17464 H 1681.58 0.632032 0.203547 0
M  V30 17465 H 1684.11 2.046 0.00319776 0
M  V30 17466 H 1684.12 3.62539 1.87161 0
M  V30 17467 H 1682.79 4.07891 0.812251 0
M  V30 17468 H 1681.37 2.9628 2.26434 0
M  V30 17469 N 1683.56 -0.31543 1.54411 0
M  V30 17470 C 1684.49 -1.39353 1.87358 0
M  V30 17471 C 1685.47 -1.53586 0.731118 0
M  V30 17472 O 1686.65 -1.67332 0.98558 0
M  V30 17473 C 1683.78 -2.75998 2.10814 0
M  V30 17474 C 1682.74 -2.76545 3.2666 0
M  V30 17475 C 1682.06 -4.16343 3.35504 0
M  V30 17476 C 1683.36 -2.39567 4.64117 0
M  V30 17477 H 1685.06 -1.12028 2.77651 0
M  V30 17478 H 1682.6 -0.537476 1.33593 0
M  V30 17479 H 1684.55 -3.51491 2.32447 0
M  V30 17480 H 1683.28 -3.04817 1.17278 0
M  V30 17481 H 1681.94 -2.03507 3.04927 0
M  V30 17482 H 1681.59 -4.42316 2.39512 0
M  V30 17483 H 1681.29 -4.17613 4.13368 0
M  V30 17484 H 1682.81 -4.93637 3.59381 0
M  V30 17485 H 1684.22 -3.04775 4.85577 0
M  V30 17486 H 1682.62 -2.52075 5.4459 0
M  V30 17487 H 1683.69 -1.34707 4.65813 0
M  V30 17488 N 1685.03 -1.46622 -0.577906 0
M  V30 17489 C 1685.97 -1.53587 -1.70128 0
M  V30 17490 C 1686.98 -0.423789 -1.57187 0
M  V30 17491 O 1688.17 -0.692392 -1.64524 0
M  V30 17492 C 1685.27 -1.40459 -3.08422 0
M  V30 17493 C 1684.44 -2.65872 -3.47319 0
M  V30 17494 C 1683.5 -2.46875 -4.64693 0
M  V30 17495 O 1682.53 -3.20617 -4.70312 0
M  V30 17496 N 1683.73 -1.53352 -5.59878 0
M  V30 17497 H 1686.49 -2.50449 -1.64606 0
M  V30 17498 H 1684.05 -1.42739 -0.764014 0
M  V30 17499 H 1686.05 -1.25516 -3.84744 0
M  V30 17500 H 1684.62 -0.517603 -3.08285 0
M  V30 17501 H 1683.84 -2.95724 -2.60655 0
M  V30 17502 H 1685.12 -3.49173 -3.70075 0
M  V30 17503 H 1684.52 -0.925526 -5.58078 0
M  V30 17504 H 1683.08 -1.4437 -6.3561 0
M  V30 17505 N 1686.51 0.822941 -1.34408 0
M  V30 17506 C 1687.76 1.58149 -1.26951 0
M  V30 17507 C 1688.09 1.93538 0.160222 0
M  V30 17508 O 1687.37 1.60021 1.1056 0
M  V30 17509 C 1687.65 2.88101 -2.16032 0
M  V30 17510 C 1687.5 2.59293 -3.67542 0
M  V30 17511 C 1688.82 3.89673 -2.04556 0
M  V30 17512 H 1685.94 0.573811 -0.462504 0
M  V30 17513 H 1688.58 0.948017 -1.64659 0
M  V30 17514 H 1686.73 3.42162 -1.84003 0
M  V30 17515 H 1688.4 2.11542 -4.09936 0
M  V30 17516 H 1686.65 1.92738 -3.88632 0
M  V30 17517 H 1687.32 3.51962 -4.25238 0
M  V30 17518 H 1689.79 3.44965 -2.32677 0
M  V30 17519 H 1688.67 4.78404 -2.69111 0
M  V30 17520 H 1688.93 4.30113 -1.02253 0
M  V30 17521 N 1687.99 1.18137 1.04314 0
M  V30 17522 C 1689.23 0.986144 1.79038 0
M  V30 17523 C 1689.59 -0.476023 1.86005 0
M  V30 17524 O 1690.8 -0.790612 2.5691 0
M  V30 17525 C 1689.07 1.62008 3.18572 0
M  V30 17526 S 1690.63 1.57227 4.09665 0
M  V30 17527 H 1687.44 0.354181 0.616503 0
M  V30 17528 H 1690.05 1.50237 1.25096 0
M  V30 17529 H 1688.75 2.67655 3.11109 0
M  V30 17530 H 1688.28 1.10403 3.77591 0
M  V30 17531 H 1690.3 0.586418 4.92723 0
M  V30 17532 N 1689.47 -1.23186 0.98301 0
M  V30 17533 C 1690.71 -1.91955 0.65431 0
M  V30 17534 C 1691.05 -1.76482 -0.810419 0
M  V30 17535 O 1690.32 -1.12744 -1.5849 0
M  V30 17536 C 1690.61 -3.4449 1.04873 0
M  V30 17537 C 1690.46 -3.6906 2.57128 0
M  V30 17538 C 1691.78 -4.36065 0.594578 0
M  V30 17539 H 1688.9 -0.69711 0.239179 0
M  V30 17540 H 1691.54 -1.45257 1.22476 0
M  V30 17541 H 1689.69 -3.84394 0.563333 0
M  V30 17542 H 1691.36 -3.38622 3.13262 0
M  V30 17543 H 1689.6 -3.13681 2.99644 0
M  V30 17544 H 1690.27 -4.75846 2.79776 0
M  V30 17545 H 1692.75 -4.03622 1.01136 0
M  V30 17546 H 1691.63 -5.41489 0.898955 0
M  V30 17547 H 1691.89 -4.39206 -0.505033 0
M  V30 17548 N 1690.95 -0.754982 -1.38339 0
M  V30 17549 C 1691.88 -0.0883836 -2.2903 0
M  V30 17550 C 1692.89 0.682258 -1.47814 0
M  V30 17551 O 1694.08 0.523117 -1.70663 0
M  V30 17552 C 1691.18 0.898819 -3.26764 0
M  V30 17553 C 1690.35 0.185527 -4.37006 0
M  V30 17554 C 1689.41 1.08368 -5.1492 0
M  V30 17555 O 1688.44 0.553687 -5.66501 0
M  V30 17556 N 1689.64 2.41164 -5.28034 0
M  V30 17557 H 1692.41 -0.86725 -2.86878 0
M  V30 17558 H 1689.97 -0.605886 -1.50135 0
M  V30 17559 H 1691.96 1.50273 -3.75766 0
M  V30 17560 H 1690.53 1.57876 -2.69804 0
M  V30 17561 H 1689.75 -0.599106 -3.89621 0
M  V30 17562 H 1691.04 -0.307999 -5.07867 0
M  V30 17563 H 1690.43 2.86677 -4.87681 0
M  V30 17564 H 1688.99 2.96602 -5.80406 0
M  V30 17565 N 1692.42 1.49318 -0.504168 0
M  V30 17566 C 1693.65 2.06869 0.0359415 0
M  V30 17567 C 1694.07 1.3641 1.30529 0
M  V30 17568 O 1693.42 0.443416 1.77031 0
M  V30 17569 C 1693.48 3.60333 0.290233 0
M  V30 17570 O 1693.2 4.28141 -0.928801 0
M  V30 17571 C 1694.7 4.34606 0.873628 0
M  V30 17572 H 1691.92 0.670643 -0.0218893 0
M  V30 17573 H 1694.46 1.92058 -0.702432 0
M  V30 17574 H 1692.62 3.74836 0.978594 0
M  V30 17575 H 1693.03 5.19894 -0.693595 0
M  V30 17576 H 1694.5 5.42846 1.00112 0
M  V30 17577 H 1694.98 3.97297 1.87221 0
M  V30 17578 H 1695.59 4.24717 0.222638 0
M  V30 17579 N 1693.9 0.238138 1.5579 0
M  V30 17580 C 1695.15 -0.389608 1.99022 0
M  V30 17581 C 1695.48 -1.58226 1.12597 0
M  V30 17582 O 1694.76 -1.93595 0.187363 0
M  V30 17583 C 1695.04 -0.808025 3.50917 0
M  V30 17584 C 1694.89 0.389417 4.48111 0
M  V30 17585 C 1696.21 -1.6582 4.07666 0
M  V30 17586 H 1693.33 -0.140141 0.723553 0
M  V30 17587 H 1695.97 0.337696 1.86975 0
M  V30 17588 H 1694.12 -1.42772 3.61315 0
M  V30 17589 H 1695.79 1.02777 4.49705 0
M  V30 17590 H 1694.04 1.03404 4.21296 0
M  V30 17591 H 1694.71 0.0534549 5.51974 0
M  V30 17592 H 1697.18 -1.13518 4.00316 0
M  V30 17593 H 1696.06 -1.91984 5.14231 0
M  V30 17594 H 1696.32 -2.62712 3.55577 0
M  V30 17595 N 1695.38 -1.57561 -0.0350783 0
M  V30 17596 C 1696.8 -1.54746 -0.390618 0
M  V30 17597 C 1697 -0.963454 -1.76974 0
M  V30 17598 O 1696.05 -0.581878 -2.45704 0
M  V30 17599 C 1697.37 -2.9922 -0.297984 0
M  V30 17600 C 1698.91 -3.10739 -0.375506 0
M  V30 17601 C 1699.39 -4.56933 -0.312387 0
M  V30 17602 N 1700.88 -4.61709 -0.371364 0
M  V30 17603 C 1701.61 -5.72359 -0.34532 0
M  V30 17604 N 1701.11 -6.92266 -0.271921 0
M  V30 17605 N 1702.9 -5.60713 -0.394605 0
M  V30 17606 H 1695.05 -1.93876 0.867519 0
M  V30 17607 H 1697.32 -0.888974 0.329285 0
M  V30 17608 H 1697.02 -3.45651 0.649499 0
M  V30 17609 H 1696.9 -3.60987 -1.094 0
M  V30 17610 H 1699.28 -2.6426 -1.31342 0
M  V30 17611 H 1699.37 -2.51815 0.449752 0
M  V30 17612 H 1699.01 -5.04079 0.621834 0
M  V30 17613 H 1698.94 -5.13762 -1.15567 0
M  V30 17614 H 1701.43 -3.75436 -0.430848 0
M  V30 17615 H 1701.74 -7.72373 -0.256983 0
M  V30 17616 H 1700.09 -6.94592 -0.238058 0
M  V30 17617 H 1703.28 -4.65933 -0.449896 0
M  V30 17618 H 1703.45 -6.46938 -0.37084 0
M  V30 17619 N 1696.86 0.307236 -1.54576 0
M  V30 17620 C 1698.09 1.06233 -1.77545 0
M  V30 17621 C 1698.5 1.81153 -0.5319 0
M  V30 17622 O 1697.86 1.75573 0.498044 0
M  V30 17623 C 1697.91 2.04775 -2.97908 0
M  V30 17624 O 1697.63 1.32896 -4.17457 0
M  V30 17625 C 1699.13 2.92373 -3.33216 0
M  V30 17626 H 1696.35 0.315318 -0.592297 0
M  V30 17627 H 1698.9 0.348403 -2.0151 0
M  V30 17628 H 1697.05 2.71679 -2.76169 0
M  V30 17629 H 1697.46 1.99022 -4.85274 0
M  V30 17630 H 1698.94 3.5738 -4.20694 0
M  V30 17631 H 1699.42 3.60343 -2.51097 0
M  V30 17632 H 1700.02 2.31009 -3.57093 0
M  V30 17633 N 1698.34 1.46926 0.570122 0
M  V30 17634 C 1699.27 1.54487 1.69311 0
M  V30 17635 C 1700.28 0.432119 1.5696 0
M  V30 17636 O 1701.47 0.701107 1.64155 0
M  V30 17637 C 1698.57 1.42093 3.07673 0
M  V30 17638 C 1697.74 2.6771 3.45905 0
M  V30 17639 C 1696.8 2.49336 4.63377 0
M  V30 17640 O 1695.83 3.23107 4.68605 0
M  V30 17641 N 1697.03 1.56319 5.59057 0
M  V30 17642 H 1699.8 2.51319 1.63276 0
M  V30 17643 H 1697.36 1.43142 0.756434 0
M  V30 17644 H 1699.35 1.27554 3.84073 0
M  V30 17645 H 1697.92 0.533945 3.08006 0
M  V30 17646 H 1697.14 2.97102 2.59083 0
M  V30 17647 H 1698.43 3.51131 3.68218 0
M  V30 17648 H 1697.82 0.955109 5.57579 0
M  V30 17649 H 1696.38 1.47738 6.34836 0
M  V30 17650 N 1699.82 -0.815801 1.34842 0
M  V30 17651 C 1701.06 -1.57474 1.27788 0
M  V30 17652 C 1701.39 -1.9362 -0.149956 0
M  V30 17653 O 1700.67 -1.60605 -1.0971 0
M  V30 17654 C 1700.95 -2.86952 2.17556 0
M  V30 17655 C 1700.81 -2.5734 3.68912 0
M  V30 17656 C 1702.12 -3.88582 2.0662 0
M  V30 17657 H 1699.24 -0.57135 0.465541 0
M  V30 17658 H 1701.89 -0.939271 1.6516 0
M  V30 17659 H 1700.04 -3.41182 1.85815 0
M  V30 17660 H 1701.71 -2.09365 4.11052 0
M  V30 17661 H 1699.95 -1.90674 3.89648 0
M  V30 17662 H 1700.62 -3.49702 4.27098 0
M  V30 17663 H 1703.1 -3.43726 2.34503 0
M  V30 17664 H 1701.97 -4.7697 2.71644 0
M  V30 17665 H 1702.23 -4.29564 1.04532 0
M  V30 17666 N 1701.29 -1.18689 -1.03686 0
M  V30 17667 C 1702.52 -1.00814 -1.80333 0
M  V30 17668 C 1702.93 0.446495 -1.83856 0
M  V30 17669 O 1702.27 1.32192 -1.27558 0
M  V30 17670 C 1702.34 -1.49133 -3.27108 0
M  V30 17671 C 1702 -2.97112 -3.47237 0
M  V30 17672 C 1703 -3.94938 -3.38113 0
M  V30 17673 C 1700.68 -3.35628 -3.7371 0
M  V30 17674 C 1702.68 -5.29274 -3.55172 0
M  V30 17675 C 1700.36 -4.70126 -3.90416 0
M  V30 17676 C 1701.36 -5.66758 -3.81148 0
M  V30 17677 O 1701.05 -6.98821 -3.97371 0
M  V30 17678 H 1700.78 -0.356077 -0.574617 0
M  V30 17679 H 1703.34 -1.57754 -1.31541 0
M  V30 17680 H 1701.57 -0.865624 -3.76887 0
M  V30 17681 H 1703.25 -1.27591 -3.85325 0
M  V30 17682 H 1704.02 -3.66527 -3.17621 0
M  V30 17683 H 1699.9 -2.6097 -3.8002 0
M  V30 17684 H 1703.44 -6.04684 -3.47854 0
M  V30 17685 H 1699.34 -4.98236 -4.10404 0
M  V30 17686 H 1700.11 -7.05779 -4.14509 0
M  V30 17687 N 1702.77 1.22662 -0.989529 0
M  V30 17688 C 1704.02 1.90632 -0.65897 0
M  V30 17689 C 1704.33 1.77942 0.812165 0
M  V30 17690 O 1705.54 2.40796 1.25417 0
M  V30 17691 C 1704 3.41763 -1.12809 0
M  V30 17692 C 1703.6 3.63097 -2.62421 0
M  V30 17693 C 1705.35 4.15454 -0.871698 0
M  V30 17694 C 1703.25 5.07911 -3.02953 0
M  V30 17695 H 1702.18 0.713847 -0.242772 0
M  V30 17696 H 1704.84 1.38942 -1.19864 0
M  V30 17697 H 1703.22 3.92616 -0.516564 0
M  V30 17698 H 1704.39 3.22751 -3.2889 0
M  V30 17699 H 1702.71 3.02733 -2.85905 0
M  V30 17700 H 1705.3 5.22181 -1.15027 0
M  V30 17701 H 1705.65 4.15856 0.192186 0
M  V30 17702 H 1706.18 3.70618 -1.44525 0
M  V30 17703 H 1702.92 5.12646 -4.08503 0
M  V30 17704 H 1702.44 5.49172 -2.41185 0
M  V30 17705 H 1704.12 5.76311 -2.94066 0
M  V30 17706 N 1704.25 0.762308 1.37937 0
M  V30 17707 C 1705.21 0.148588 2.28718 0
M  V30 17708 C 1706.21 -0.638198 1.47593 0
M  V30 17709 O 1707.4 -0.463178 1.67929 0
M  V30 17710 C 1704.53 -0.797492 3.31441 0
M  V30 17711 H 1705.73 0.94872 2.84498 0
M  V30 17712 H 1703.28 0.529888 1.47044 0
M  V30 17713 H 1704.02 -1.62298 2.80767 0
M  V30 17714 H 1703.8 -0.23561 3.91391 0
M  V30 17715 H 1705.29 -1.22262 3.99302 0
M  V30 17716 N 1705.73 -1.49049 0.51208 0
M  V30 17717 C 1706.97 -2.0278 -0.0285311 0
M  V30 17718 C 1707.31 -1.39003 -1.35617 0
M  V30 17719 O 1706.58 -0.52952 -1.87153 0
M  V30 17720 C 1706.86 -3.59701 -0.169433 0
M  V30 17721 C 1706.72 -4.33989 1.18211 0
M  V30 17722 C 1708.04 -4.30698 -0.904812 0
M  V30 17723 H 1705.16 -0.736946 -0.00889467 0
M  V30 17724 H 1707.8 -1.77959 0.66564 0
M  V30 17725 H 1705.95 -3.8098 -0.760667 0
M  V30 17726 H 1707.62 -4.24176 1.81307 0
M  V30 17727 H 1705.86 -3.9611 1.76859 0
M  V30 17728 H 1706.53 -5.42177 1.03671 0
M  V30 17729 H 1709.01 -4.14141 -0.40327 0
M  V30 17730 H 1707.89 -5.40221 -0.972264 0
M  V30 17731 H 1708.15 -3.96718 -1.95108 0
M  V30 17732 N 1707.21 -0.246397 -1.55662 0
M  V30 17733 C 1708.15 0.66961 -2.22753 0
M  V30 17734 C 1709.15 1.18048 -1.21495 0
M  V30 17735 O 1710.35 1.13743 -1.39508 0
M  V30 17736 H 1706.73 0.234421 -0.714529 0
M  V30 17737 H 1708.7 0.0805962 -2.98291 0
M  V30 17738 C 1707.45 1.8558 -2.94033 0
M  V30 17739 H 1706.77 1.47184 -3.71721 0
M  V30 17740 H 1708.21 2.47397 -3.44341 0
M  V30 17741 C 1706.67 2.72664 -1.97879 0
M  V30 17742 O 1707.2 3.72177 -1.51154 0
M  V30 17743 N 1705.41 2.3922 -1.64991 0
M  V30 17744 H 1704.95 1.58348 -2.03184 0
M  V30 17745 H 1704.91 2.97762 -1.00922 0
M  V30 17746 N 1708.68 1.57577 0.026722 0
M  V30 17747 C 1709.96 1.80541 0.752606 0
M  V30 17748 C 1710.34 0.845025 1.93449 0
M  V30 17749 O 1709.69 -0.112286 2.28224 0
M  V30 17750 C 1709.9 3.28322 1.18345 0
M  V30 17751 C 1711.25 3.93366 1.59839 0
M  V30 17752 O 1712.27 3.32486 1.27796 0
M  V30 17753 O 1711.13 5.0056 2.19321 0
M  V30 17754 H 1708.22 0.742514 0.364146 0
M  V30 17755 H 1710.77 1.697 0.00332 0
M  V30 17756 H 1709.54 3.89822 0.339832 0
M  V30 17757 H 1709.16 3.44061 1.99267 0
M  V30 17758 N 1710.16 -0.299034 1.54737 0
M  V30 17759 C 1711.11 -1.36887 1.85824 0
M  V30 17760 C 1712.08 -1.50287 0.70733 0
M  V30 17761 O 1713.26 -1.65114 0.956143 0
M  V30 17762 C 1710.4 -2.7286 2.11286 0
M  V30 17763 C 1709.52 -2.67893 3.38906 0
M  V30 17764 C 1708.65 -3.95873 3.542 0
M  V30 17765 C 1707.69 -3.85312 4.75606 0
M  V30 17766 N 1706.83 -5.05072 4.87695 0
M  V30 17767 H 1711.67 -1.09676 2.77083 0
M  V30 17768 H 1709.2 -0.530427 1.37204 0
M  V30 17769 H 1711.16 -3.51938 2.24043 0
M  V30 17770 H 1709.79 -2.98327 1.23291 0
M  V30 17771 H 1708.84 -1.80669 3.34758 0
M  V30 17772 H 1710.16 -2.5598 4.28107 0
M  V30 17773 H 1709.31 -4.83389 3.66633 0
M  V30 17774 H 1708.05 -4.10622 2.63136 0
M  V30 17775 H 1707.05 -2.9618 4.63203 0
M  V30 17776 H 1708.28 -3.72106 5.68079 0
M  V30 17777 H 1706.23 -5.20281 3.99554 0
M  V30 17778 H 1706.14 -4.9559 5.709 0
M  V30 17779 H 1707.41 -5.94233 5.04487 0
M  V30 17780 N 1711.64 -1.47227 -0.562322 0
M  V30 17781 C 1712.6 -1.58887 -1.6519 0
M  V30 17782 C 1713.6 -0.464359 -1.53949 0
M  V30 17783 O 1714.79 -0.729279 -1.582 0
M  V30 17784 C 1711.92 -1.52853 -3.04711 0
M  V30 17785 H 1713.12 -2.5601 -1.56202 0
M  V30 17786 H 1710.67 -1.35341 -0.781832 0
M  V30 17787 H 1711.41 -0.570867 -3.19236 0
M  V30 17788 H 1711.19 -2.3446 -3.14279 0
M  V30 17789 H 1712.68 -1.6414 -3.83989 0
M  V30 17790 N 1713.12 0.808639 -1.35273 0
M  V30 17791 C 1714.05 1.93502 -1.30687 0
M  V30 17792 C 1715.03 1.69127 -0.181675 0
M  V30 17793 O 1716.21 1.90519 -0.376312 0
M  V30 17794 C 1713.34 3.30211 -1.07602 0
M  V30 17795 C 1712.3 3.69063 -2.16741 0
M  V30 17796 C 1711.62 5.03911 -1.78824 0
M  V30 17797 C 1712.92 3.79656 -3.5869 0
M  V30 17798 H 1714.62 1.97597 -2.24935 0
M  V30 17799 H 1712.16 0.949284 -1.0828 0
M  V30 17800 H 1714.12 4.0861 -1.03034 0
M  V30 17801 H 1712.84 3.26453 -0.0979944 0
M  V30 17802 H 1711.5 2.92948 -2.20402 0
M  V30 17803 H 1711.15 4.96655 -0.796449 0
M  V30 17804 H 1710.85 5.30877 -2.51881 0
M  V30 17805 H 1712.37 5.84752 -1.75777 0
M  V30 17806 H 1713.79 4.48292 -3.57362 0
M  V30 17807 H 1712.18 4.1809 -4.30489 0
M  V30 17808 H 1713.25 2.81265 -3.94991 0
M  V30 17809 N 1714.6 1.19237 1.03055 0
M  V30 17810 C 1715.83 1.01769 1.79796 0
M  V30 17811 C 1716.23 -0.436738 1.8409 0
M  V30 17812 O 1715.58 -1.31514 1.28257 0
M  V30 17813 C 1715.64 1.50866 3.26312 0
M  V30 17814 C 1715.3 2.98949 3.45657 0
M  V30 17815 C 1716.3 3.96725 3.36014 0
M  V30 17816 C 1713.99 3.37605 3.71925 0
M  V30 17817 C 1715.98 5.31151 3.5236 0
M  V30 17818 C 1713.67 4.7219 3.87918 0
M  V30 17819 C 1714.66 5.68772 3.78137 0
M  V30 17820 O 1714.35 7.00919 3.9366 0
M  V30 17821 H 1714.08 0.359119 0.572721 0
M  V30 17822 H 1716.64 1.58449 1.30702 0
M  V30 17823 H 1714.87 0.885599 3.76423 0
M  V30 17824 H 1716.56 1.29633 3.84643 0
M  V30 17825 H 1717.32 3.68206 3.15672 0
M  V30 17826 H 1713.2 2.62982 3.78631 0
M  V30 17827 H 1716.75 6.06521 3.44643 0
M  V30 17828 H 1712.64 5.00405 4.07756 0
M  V30 17829 H 1713.41 7.07968 4.10761 0
M  V30 17830 N 1716.07 -1.22136 0.99602 0
M  V30 17831 C 1716.98 -2.27869 0.557927 0
M  V30 17832 C 1718 -1.69462 -0.394781 0
M  V30 17833 O 1719.18 -1.99704 -0.26084 0
M  V30 17834 C 1716.24 -3.46501 -0.117434 0
M  V30 17835 C 1715.3 -4.20213 0.878627 0
M  V30 17836 C 1714.54 -5.33181 0.2354 0
M  V30 17837 O 1714.76 -5.62093 -0.969954 0
M  V30 17838 O 1713.69 -5.94486 0.941828 0
M  V30 17839 H 1717.52 -2.67517 1.43765 0
M  V30 17840 H 1715.1 -1.28362 0.764428 0
M  V30 17841 H 1716.99 -4.18476 -0.49559 0
M  V30 17842 H 1715.66 -3.08772 -0.971674 0
M  V30 17843 H 1714.57 -3.50497 1.30777 0
M  V30 17844 H 1715.9 -4.6183 1.70217 0
M  V30 17845 N 1717.55 -0.769612 -1.37531 0
M  V30 17846 C 1718.48 -0.11267 -2.28923 0
M  V30 17847 C 1719.5 0.666541 -1.4853 0
M  V30 17848 O 1720.69 0.504986 -1.71208 0
M  V30 17849 C 1717.79 0.864111 -3.27699 0
M  V30 17850 C 1716.96 0.139166 -4.37179 0
M  V30 17851 C 1716.02 1.029 -5.16041 0
M  V30 17852 O 1715.04 0.493571 -5.67056 0
M  V30 17853 N 1716.25 2.3555 -5.30562 0
M  V30 17854 H 1719.01 -0.897628 -2.85942 0
M  V30 17855 H 1716.57 -0.621776 -1.49484 0
M  V30 17856 H 1718.56 1.46279 -3.77339 0
M  V30 17857 H 1717.13 1.55005 -2.71463 0
M  V30 17858 H 1716.35 -0.640396 -3.88963 0
M  V30 17859 H 1717.64 -0.361847 -5.07512 0
M  V30 17860 H 1717.04 2.81489 -4.90694 0
M  V30 17861 H 1715.6 2.90429 -5.83519 0
M  V30 17862 N 1719.03 1.48775 -0.519977 0
M  V30 17863 C 1720.28 2.02792 0.0177768 0
M  V30 17864 C 1720.61 1.3972 1.34878 0
M  V30 17865 O 1719.88 0.539438 1.8687 0
M  V30 17866 C 1720.17 3.59786 0.150355 0
M  V30 17867 C 1720.02 4.33356 -1.20511 0
M  V30 17868 C 1721.34 4.31172 0.881959 0
M  V30 17869 H 1718.46 0.736983 0.00498634 0
M  V30 17870 H 1721.1 1.77603 -0.675069 0
M  V30 17871 H 1719.25 3.81378 0.740452 0
M  V30 17872 H 1720.92 4.23209 -1.83554 0
M  V30 17873 H 1719.17 3.95167 -1.78957 0
M  V30 17874 H 1719.84 5.4162 -1.06544 0
M  V30 17875 H 1722.31 4.14349 0.381302 0
M  V30 17876 H 1721.19 5.40729 0.943601 0
M  V30 17877 H 1721.45 3.97747 1.93001 0
M  V30 17878 N 1720.51 0.254649 1.55529 0
M  V30 17879 C 1721.75 -0.368477 1.99424 0
M  V30 17880 C 1722.09 -1.57023 1.14269 0
M  V30 17881 O 1721.36 -1.93386 0.207886 0
M  V30 17882 C 1721.65 -0.77076 3.51755 0
M  V30 17883 C 1721.5 0.436923 4.47673 0
M  V30 17884 C 1722.82 -1.61487 4.09402 0
M  V30 17885 H 1719.94 -0.132459 0.724999 0
M  V30 17886 H 1722.58 0.357508 1.86606 0
M  V30 17887 H 1720.73 -1.38932 3.62809 0
M  V30 17888 H 1722.4 1.07541 4.4859 0
M  V30 17889 H 1720.64 1.07866 4.20175 0
M  V30 17890 H 1721.31 0.111996 5.51886 0
M  V30 17891 H 1723.79 -1.09265 4.01498 0
M  V30 17892 H 1722.67 -1.86519 5.16238 0
M  V30 17893 H 1722.93 -2.58926 3.58343 0
M  V30 17894 N 1721.99 -1.57589 -0.0183649 0
M  V30 17895 C 1722.92 -2.02659 -1.04903 0
M  V30 17896 C 1723.9 -0.912926 -1.34553 0
M  V30 17897 O 1725.08 -1.17961 -1.47029 0
M  V30 17898 C 1722.21 -2.40869 -2.38117 0
M  V30 17899 C 1721.25 -3.62785 -2.24253 0
M  V30 17900 S 1722.09 -5.11479 -1.58585 0
M  V30 17901 C 1723.24 -5.52942 -2.93268 0
M  V30 17902 H 1723.48 -2.89763 -0.665188 0
M  V30 17903 H 1721.01 -1.52697 -0.228676 0
M  V30 17904 H 1722.97 -2.63553 -3.14722 0
M  V30 17905 H 1721.63 -1.54197 -2.73646 0
M  V30 17906 H 1720.82 -3.87211 -3.2262 0
M  V30 17907 H 1720.42 -3.40007 -1.55792 0
M  V30 17908 H 1722.72 -5.5428 -3.8959 0
M  V30 17909 H 1723.66 -6.53123 -2.73563 0
M  V30 17910 H 1724.07 -4.80466 -2.96333 0
M  V30 17911 N 1723.46 0.290824 -1.54893 0
M  V30 17912 C 1724.74 1.04495 -1.65348 0
M  V30 17913 C 1725.12 2.04888 -0.508348 0
M  V30 17914 O 1724.47 2.23102 0.493749 0
M  V30 17915 C 1724.68 1.71772 -3.03801 0
M  V30 17916 C 1726.03 2.23595 -3.60958 0
M  V30 17917 O 1727.05 1.81788 -3.06319 0
M  V30 17918 O 1725.91 3.00225 -4.56648 0
M  V30 17919 H 1723 0.483605 -0.670862 0
M  V30 17920 H 1725.55 0.288101 -1.67237 0
M  V30 17921 H 1724.32 0.989296 -3.78588 0
M  V30 17922 H 1723.95 2.54188 -3.05735 0
M  V30 17923 N 1724.94 1.47523 0.554506 0
M  V30 17924 C 1726.17 1.57678 1.33496 0
M  V30 17925 C 1726.58 0.226976 1.87834 0
M  V30 17926 O 1725.92 -0.790327 1.6583 0
M  V30 17927 C 1725.99 2.54423 2.53987 0
M  V30 17928 C 1725.65 4.00056 2.20916 0
M  V30 17929 C 1726.65 4.88462 1.78048 0
M  V30 17930 C 1724.33 4.45412 2.32192 0
M  V30 17931 C 1726.33 6.20244 1.46889 0
M  V30 17932 C 1724.01 5.77221 2.00646 0
M  V30 17933 C 1725.01 6.64459 1.58062 0
M  V30 17934 O 1724.7 7.93818 1.26917 0
M  V30 17935 H 1724.43 0.535053 0.413152 0
M  V30 17936 H 1726.98 1.93878 0.678279 0
M  V30 17937 H 1725.21 2.13296 3.22555 0
M  V30 17938 H 1726.9 2.54676 3.16061 0
M  V30 17939 H 1727.67 4.54667 1.68827 0
M  V30 17940 H 1723.55 3.77715 2.64296 0
M  V30 17941 H 1727.09 6.88292 1.13578 0
M  V30 17942 H 1722.99 6.10557 2.095 0
M  V30 17943 H 1723.76 8.06347 1.40525 0
M  V30 17944 N 1726.42 -0.801453 1.357 0
M  V30 17945 C 1727.35 -1.92807 1.31711 0
M  V30 17946 C 1728.33 -1.69028 0.190642 0
M  V30 17947 O 1729.52 -1.90317 0.38641 0
M  V30 17948 C 1726.65 -3.29635 1.09352 0
M  V30 17949 C 1725.6 -3.67908 2.18695 0
M  V30 17950 C 1724.93 -5.02955 1.81494 0
M  V30 17951 C 1726.23 -3.77749 3.60698 0
M  V30 17952 H 1727.92 -1.96401 2.2598 0
M  V30 17953 H 1725.47 -0.943528 1.08782 0
M  V30 17954 H 1727.42 -4.08058 1.052 0
M  V30 17955 H 1726.14 -3.26396 0.115306 0
M  V30 17956 H 1724.8 -2.91775 2.21952 0
M  V30 17957 H 1724.45 -4.96225 0.822776 0
M  V30 17958 H 1724.15 -5.29533 2.54692 0
M  V30 17959 H 1725.67 -5.83811 1.78876 0
M  V30 17960 H 1727.09 -4.4639 3.59734 0
M  V30 17961 H 1725.49 -4.15801 4.327 0
M  V30 17962 H 1726.56 -2.79167 3.96477 0
M  V30 17963 N 1727.9 -1.19782 -1.02421 0
M  V30 17964 C 1729.18 -0.912541 -1.73009 0
M  V30 17965 C 1729.56 0.58061 -2.02958 0
M  V30 17966 O 1728.9 1.54013 -1.68797 0
M  V30 17967 C 1729.11 -1.77745 -3.00346 0
M  V30 17968 C 1730.46 -2.01462 -3.73762 0
M  V30 17969 O 1731.49 -1.74935 -3.10284 0
M  V30 17970 O 1730.34 -2.46219 -4.87892 0
M  V30 17971 H 1727.44 -0.340513 -0.753644 0
M  V30 17972 H 1729.98 -1.30618 -1.08338 0
M  V30 17973 H 1728.76 -2.78887 -2.74477 0
M  V30 17974 H 1728.38 -1.38339 -3.72757 0
M  V30 17975 N 1729.38 1.21606 -1.00248 0
M  V30 17976 C 1730.33 2.2591 -0.553856 0
M  V30 17977 C 1731.32 1.64602 0.400323 0
M  V30 17978 O 1732.53 1.77936 0.271792 0
M  V30 17979 H 1728.9 0.734618 -0.160749 0
M  V30 17980 H 1730.87 2.61091 -1.44479 0
M  V30 17981 C 1729.62 3.47537 0.106293 0
M  V30 17982 H 1728.94 3.94981 -0.61889 0
M  V30 17983 H 1730.38 4.22262 0.383514 0
M  V30 17984 C 1728.84 3.08901 1.34469 0
M  V30 17985 O 1729.37 3.1916 2.43926 0
M  V30 17986 N 1727.58 2.63588 1.2235 0
M  V30 17987 H 1727.13 2.55441 0.332852 0
M  V30 17988 H 1727.08 2.38106 2.05312 0
M  V30 17989 N 1730.86 0.776895 1.37121 0
M  V30 17990 C 1731.79 0.180738 2.32799 0
M  V30 17991 C 1732.77 -0.677284 1.56035 0
M  V30 17992 O 1733.95 -0.613687 1.84249 0
M  V30 17993 C 1731.08 -0.695148 3.40272 0
M  V30 17994 C 1730.04 0.0619772 4.27955 0
M  V30 17995 C 1729.36 -0.933688 5.26485 0
M  V30 17996 C 1730.66 1.24396 5.0727 0
M  V30 17997 H 1732.36 0.980039 2.82906 0
M  V30 17998 H 1729.9 0.472722 1.3602 0
M  V30 17999 H 1731.85 -1.12205 4.06187 0
M  V30 18000 H 1730.58 -1.52702 2.88703 0
M  V30 18001 H 1729.24 0.469717 3.63578 0
M  V30 18002 H 1728.89 -1.76025 4.71194 0
M  V30 18003 H 1728.59 -0.431608 5.86013 0
M  V30 18004 H 1730.11 -1.35942 5.95275 0
M  V30 18005 H 1731.52 0.89345 5.66295 0
M  V30 18006 H 1729.92 1.67848 5.76149 0
M  V30 18007 H 1730.99 2.04553 4.39643 0
M  V30 18008 N 1732.33 -1.48497 0.527859 0
M  V30 18009 C 1733.28 -2.2959 -0.23607 0
M  V30 18010 C 1734.25 -1.37232 -0.935762 0
M  V30 18011 O 1735.44 -1.66196 -0.937202 0
M  V30 18012 C 1732.58 -3.20551 -1.27832 0
M  V30 18013 C 1731.69 -4.27984 -0.58769 0
M  V30 18014 C 1730.82 -5.06128 -1.61269 0
M  V30 18015 C 1729.86 -6.05367 -0.905404 0
M  V30 18016 N 1729 -6.76577 -1.87585 0
M  V30 18017 H 1733.84 -2.94403 0.461635 0
M  V30 18018 H 1731.38 -1.45137 0.239493 0
M  V30 18019 H 1733.33 -3.71686 -1.89488 0
M  V30 18020 H 1731.96 -2.57665 -1.94444 0
M  V30 18021 H 1731.02 -3.80132 0.142759 0
M  V30 18022 H 1732.33 -4.9879 -0.0322348 0
M  V30 18023 H 1731.48 -5.61266 -2.30359 0
M  V30 18024 H 1730.22 -4.35157 -2.20204 0
M  V30 18025 H 1729.23 -5.49435 -0.200426 0
M  V30 18026 H 1730.45 -6.78335 -0.322197 0
M  V30 18027 H 1728.4 -6.08358 -2.45432 0
M  V30 18028 H 1728.31 -7.4345 -1.37178 0
M  V30 18029 H 1729.58 -7.36305 -2.5588 0
M  V30 18030 N 1733.81 -0.262893 -1.55392 0
M  V30 18031 C 1735.22 0.237224 -1.85187 0
M  V30 18032 C 1735.57 1.56383 -1.18486 0
M  V30 18033 O 1734.7 2.1126 -0.468849 0
M  V30 18034 C 1735.29 0.437206 -3.35967 0
M  V30 18035 C 1733.85 0.881568 -3.65931 0
M  V30 18036 C 1733 -0.0321489 -2.77281 0
M  V30 18037 H 1735.95 -0.485025 -1.51107 0
M  V30 18038 H 1735.97 1.27755 -3.58412 0
M  V30 18039 H 1735.48 -0.528474 -3.84485 0
M  V30 18040 H 1733.58 1.85915 -3.22903 0
M  V30 18041 H 1733.7 0.727355 -4.73547 0
M  V30 18042 H 1732.06 0.48204 -2.50097 0
M  V30 18043 H 1732.84 -0.99349 -3.2861 0
M  V30 18044 N 1735.29 1.57597 0.0100073 0
M  V30 18045 C 1736.71 1.55348 0.365949 0
M  V30 18046 C 1736.91 0.991487 1.75419 0
M  V30 18047 O 1735.96 0.620894 2.44747 0
M  V30 18048 C 1737.27 2.99656 0.250343 0
M  V30 18049 C 1738.82 3.11297 0.326023 0
M  V30 18050 C 1739.3 4.57373 0.239653 0
M  V30 18051 N 1740.79 4.62241 0.297863 0
M  V30 18052 C 1741.52 5.72836 0.254219 0
M  V30 18053 N 1741.02 6.92611 0.161753 0
M  V30 18054 N 1742.81 5.6127 0.30535 0
M  V30 18055 H 1734.96 1.92471 -0.898253 0
M  V30 18056 H 1737.23 0.883623 -0.343386 0
M  V30 18057 H 1736.93 3.44574 -0.704407 0
M  V30 18058 H 1736.81 3.62682 1.03643 0
M  V30 18059 H 1739.19 2.66316 1.27121 0
M  V30 18060 H 1739.27 2.51068 -0.489756 0
M  V30 18061 H 1738.92 5.03026 -0.70195 0
M  V30 18062 H 1738.85 5.15536 1.07379 0
M  V30 18063 H 1741.34 3.76074 0.371065 0
M  V30 18064 H 1741.65 7.72684 0.134073 0
M  V30 18065 H 1740 6.94883 0.127524 0
M  V30 18066 H 1743.19 4.6659 0.375713 0
M  V30 18067 H 1743.36 6.47446 0.267871 0
M  V30 18068 N 1736.77 -0.282606 1.55045 0
M  V30 18069 C 1738.01 -1.01698 1.75458 0
M  V30 18070 C 1738.35 -1.86284 0.548808 0
M  V30 18071 O 1737.62 -1.89131 -0.45382 0
M  V30 18072 C 1737.9 -1.90759 3.05423 0
M  V30 18073 C 1737.76 -1.0923 4.36336 0
M  V30 18074 C 1739.08 -2.8963 3.31364 0
M  V30 18075 H 1736.2 -0.368305 0.638373 0
M  V30 18076 H 1738.84 -0.290118 1.87772 0
M  V30 18077 H 1736.99 -2.52734 2.95055 0
M  V30 18078 H 1738.66 -0.493996 4.58647 0
M  V30 18079 H 1736.9 -0.395481 4.31994 0
M  V30 18080 H 1737.57 -1.74842 5.23578 0
M  V30 18081 H 1740.05 -2.37788 3.41462 0
M  V30 18082 H 1738.93 -3.49096 4.23584 0
M  V30 18083 H 1739.19 -3.64255 2.50541 0
M  V30 18084 N 1738.25 -1.47815 -0.546675 0
M  V30 18085 C 1739.16 -1.63744 -1.68003 0
M  V30 18086 C 1740.17 -0.520118 -1.66044 0
M  V30 18087 O 1741.35 -0.789033 -1.853 0
M  V30 18088 C 1738.41 -1.65778 -3.04497 0
M  V30 18089 C 1737.47 -2.89015 -3.17441 0
M  V30 18090 C 1736.71 -2.90943 -4.47424 0
M  V30 18091 O 1736.93 -2.01769 -5.33522 0
M  V30 18092 O 1735.86 -3.82927 -4.64382 0
M  V30 18093 H 1739.69 -2.59665 -1.57505 0
M  V30 18094 H 1737.27 -1.31022 -0.717883 0
M  V30 18095 H 1739.16 -1.69734 -3.85705 0
M  V30 18096 H 1737.83 -0.730268 -3.15355 0
M  V30 18097 H 1736.74 -2.90599 -2.35591 0
M  V30 18098 H 1738.07 -3.81095 -3.11492 0
M  V30 18099 N 1739.72 0.794246 -1.36123 0
M  V30 18100 C 1740.69 1.88828 -1.2991 0
M  V30 18101 C 1741.69 1.59451 -0.207839 0
M  V30 18102 O 1742.88 1.67953 -0.462321 0
M  V30 18103 C 1740.01 3.25511 -1.01269 0
M  V30 18104 H 1741.2 1.95753 -2.27202 0
M  V30 18105 H 1738.75 0.991505 -1.20826 0
M  V30 18106 H 1739.49 3.2427 -0.0441535 0
M  V30 18107 H 1739.27 3.48221 -1.80234 0
M  V30 18108 H 1740.76 4.0557 -0.995142 0
M  V30 18109 N 1741.2 1.20323 1.01785 0
M  V30 18110 C 1742.61 1.01326 1.56812 0
M  V30 18111 C 1742.96 -0.430709 1.91414 0
M  V30 18112 O 1742.09 -1.31191 1.72098 0
M  V30 18113 C 1742.68 1.83304 2.8493 0
M  V30 18114 C 1741.24 1.68676 3.3649 0
M  V30 18115 C 1740.39 1.81315 2.0981 0
M  V30 18116 H 1743.34 1.34533 0.841815 0
M  V30 18117 H 1743.36 1.33567 3.56286 0
M  V30 18118 H 1742.87 2.88392 2.59714 0
M  V30 18119 H 1740.97 0.662195 3.66668 0
M  V30 18120 H 1741.09 2.49877 4.08777 0
M  V30 18121 H 1739.45 1.24488 2.22204 0
M  V30 18122 H 1740.23 2.87885 1.87022 0
M  V30 18123 N 1742.68 -1.21073 1.00892 0
M  V30 18124 C 1743.63 -2.23583 0.572636 0
M  V30 18125 C 1744.6 -1.61129 -0.403324 0
M  V30 18126 O 1745.78 -1.88355 -0.304491 0
M  V30 18127 C 1742.92 -3.44981 -0.0906539 0
M  V30 18128 C 1742.03 -4.21894 0.928953 0
M  V30 18129 C 1741.17 -5.30669 0.237516 0
M  V30 18130 C 1740.21 -5.99317 1.24441 0
M  V30 18131 N 1739.35 -6.99699 0.580172 0
M  V30 18132 H 1744.19 -2.60263 1.45146 0
M  V30 18133 H 1741.72 -1.27895 0.72673 0
M  V30 18134 H 1743.68 -4.14285 -0.492281 0
M  V30 18135 H 1742.31 -3.09017 -0.933169 0
M  V30 18136 H 1741.36 -3.5173 1.4488 0
M  V30 18137 H 1742.67 -4.69116 1.69503 0
M  V30 18138 H 1741.83 -6.06301 -0.220013 0
M  V30 18139 H 1740.57 -4.84463 -0.560937 0
M  V30 18140 H 1739.57 -5.22453 1.7124 0
M  V30 18141 H 1740.8 -6.47609 2.04401 0
M  V30 18142 H 1738.74 -6.55699 -0.198553 0
M  V30 18143 H 1738.66 -7.45009 1.28444 0
M  V30 18144 H 1739.93 -7.79363 0.145977 0
M  V30 18145 N 1744.16 -0.784156 -1.36707 0
M  V30 18146 C 1745.09 -0.136944 -2.28791 0
M  V30 18147 C 1746.1 0.65075 -1.49228 0
M  V30 18148 O 1747.29 0.486799 -1.71734 0
M  V30 18149 C 1744.39 0.829306 -3.28597 0
M  V30 18150 C 1743.57 0.09279 -4.37302 0
M  V30 18151 C 1742.62 0.974213 -5.17103 0
M  V30 18152 O 1741.65 0.433399 -5.67548 0
M  V30 18153 N 1742.85 2.29909 -5.33031 0
M  V30 18154 H 1745.62 -0.927906 -2.84974 0
M  V30 18155 H 1743.18 -0.637596 -1.48816 0
M  V30 18156 H 1745.17 1.42268 -3.78869 0
M  V30 18157 H 1743.74 1.52117 -2.73092 0
M  V30 18158 H 1742.96 -0.681615 -3.88262 0
M  V30 18159 H 1744.25 -0.415655 -5.07099 0
M  V30 18160 H 1743.65 2.76268 -4.93652 0
M  V30 18161 H 1742.2 2.84224 -5.86566 0
M  V30 18162 N 1745.64 1.48215 -0.535727 0
M  V30 18163 C 1746.55 2.33494 0.227577 0
M  V30 18164 C 1747.56 1.4685 0.933327 0
M  V30 18165 O 1748.74 1.7982 0.907008 0
M  V30 18166 C 1745.8 3.23092 1.25747 0
M  V30 18167 C 1744.86 4.25613 0.561454 0
M  V30 18168 C 1744.1 5.1093 1.54228 0
M  V30 18169 O 1744.32 4.98325 2.77539 0
M  V30 18170 O 1743.25 5.92158 1.07852 0
M  V30 18171 H 1747.08 3.0002 -0.471375 0
M  V30 18172 H 1744.67 1.46427 -0.296579 0
M  V30 18173 H 1746.55 3.78498 1.8525 0
M  V30 18174 H 1745.22 2.5922 1.93872 0
M  V30 18175 H 1744.13 3.74026 -0.0742194 0
M  V30 18176 H 1745.46 4.92138 -0.0779649 0
M  V30 18177 N 1747.11 0.27113 1.5525 0
M  V30 18178 C 1748.02 -0.628245 2.26031 0
M  V30 18179 C 1749.04 -1.17339 1.28481 0
M  V30 18180 O 1750.22 -1.20453 1.61409 0
M  V30 18181 C 1747.28 -1.79766 2.96454 0
M  V30 18182 C 1746.34 -1.28958 4.09473 0
M  V30 18183 C 1745.58 -2.40326 4.76528 0
M  V30 18184 O 1745.8 -3.59595 4.42772 0
M  V30 18185 O 1744.73 -2.08708 5.64557 0
M  V30 18186 H 1748.56 -0.0549756 3.0365 0
M  V30 18187 H 1746.14 0.0386859 1.4935 0
M  V30 18188 H 1748.03 -2.4796 3.40725 0
M  V30 18189 H 1746.7 -2.35809 2.21756 0
M  V30 18190 H 1745.61 -0.57422 3.69667 0
M  V30 18191 H 1746.94 -0.774945 4.86061 0
M  V30 18192 N 1748.59 -1.576 -0.00164943 0
M  V30 18193 C 1750 -1.78578 -0.544681 0
M  V30 18194 C 1750.35 -0.905575 -1.74051 0
M  V30 18195 O 1749.48 -0.107614 -2.16132 0
M  V30 18196 C 1750.07 -3.23863 -0.994898 0
M  V30 18197 C 1748.63 -3.45943 -1.48325 0
M  V30 18198 C 1747.78 -2.73887 -0.433702 0
M  V30 18199 H 1750.73 -1.57104 0.224524 0
M  V30 18200 H 1750.75 -3.31885 -1.86099 0
M  V30 18201 H 1750.26 -3.87901 -0.124352 0
M  V30 18202 H 1748.37 -2.87118 -2.37474 0
M  V30 18203 H 1748.48 -4.54621 -1.51185 0
M  V30 18204 H 1746.84 -2.38458 -0.894969 0
M  V30 18205 H 1747.63 -3.40623 0.42785 0
M  V30 18206 N 1750.07 0.274379 -1.55193 0
M  V30 18207 C 1751.48 0.845522 -1.66457 0
M  V30 18208 C 1751.83 1.87097 -0.590684 0
M  V30 18209 O 1750.96 2.14733 0.268065 0
M  V30 18210 C 1751.55 1.54039 -3.01757 0
M  V30 18211 C 1750.11 2.05958 -3.15053 0
M  V30 18212 C 1749.26 0.901169 -2.62248 0
M  V30 18213 H 1752.21 0.0507599 -1.58619 0
M  V30 18214 H 1752.23 2.40729 -2.94669 0
M  V30 18215 H 1751.74 0.793807 -3.79895 0
M  V30 18216 H 1749.84 2.83582 -2.41686 0
M  V30 18217 H 1749.96 2.27584 -4.21595 0
M  V30 18218 H 1748.32 1.29416 -2.19371 0
M  V30 18219 H 1749.1 0.168116 -3.42888 0
M  V30 18220 N 1751.55 1.48103 0.538828 0
M  V30 18221 C 1752.5 1.62398 1.66522 0
M  V30 18222 C 1753.49 0.490669 1.62138 0
M  V30 18223 O 1754.7 0.669098 1.67102 0
M  V30 18224 H 1751.07 0.511415 0.551324 0
M  V30 18225 H 1753.04 2.57018 1.51606 0
M  V30 18226 C 1751.79 1.67264 3.04824 0
M  V30 18227 H 1751.11 2.53828 3.08887 0
M  V30 18228 H 1752.55 1.81312 3.83278 0
M  V30 18229 C 1751.01 0.409539 3.34402 0
M  V30 18230 O 1751.54 -0.481433 3.98805 0
M  V30 18231 N 1749.75 0.283934 2.8921 0
M  V30 18232 H 1749.3 1.00993 2.36977 0
M  V30 18233 H 1749.25 -0.560201 3.09369 0
M  V30 18234 N 1753.03 -0.787016 1.36542 0
M  V30 18235 C 1754.25 -1.57588 1.34065 0
M  V30 18236 C 1754.67 -1.88641 -0.0775397 0
M  V30 18237 O 1754.03 -1.50306 -1.03511 0
M  V30 18238 C 1754.08 -2.89543 2.16442 0
M  V30 18239 O 1753.8 -2.59828 3.52734 0
M  V30 18240 C 1755.3 -3.83838 2.21773 0
M  V30 18241 H 1752.52 -0.488708 0.459789 0
M  V30 18242 H 1755.06 -0.976614 1.79673 0
M  V30 18243 H 1753.22 -3.45933 1.74383 0
M  V30 18244 H 1753.63 -3.44219 3.95744 0
M  V30 18245 H 1755.11 -4.73478 2.83765 0
M  V30 18246 H 1755.58 -4.21862 1.22185 0
M  V30 18247 H 1756.19 -3.33381 2.64078 0
M  V30 18248 N 1754.5 -1.20861 -1.01145 0
M  V30 18249 C 1755.41 -0.977926 -2.13246 0
M  V30 18250 C 1756.43 0.0678862 -1.73868 0
M  V30 18251 O 1757.61 -0.120717 -2.01038 0
M  V30 18252 C 1754.67 -0.538575 -3.42491 0
M  V30 18253 C 1753.73 -1.65584 -3.96081 0
M  V30 18254 C 1752.97 -1.23736 -5.19158 0
M  V30 18255 O 1753.19 -0.108227 -5.70297 0
M  V30 18256 O 1752.12 -2.04679 -5.6603 0
M  V30 18257 H 1755.95 -1.91666 -2.3558 0
M  V30 18258 H 1753.53 -0.992931 -1.1163 0
M  V30 18259 H 1755.42 -0.303041 -4.20309 0
M  V30 18260 H 1754.09 0.371515 -3.21561 0
M  V30 18261 H 1753 -1.94572 -3.19519 0
M  V30 18262 H 1754.33 -2.54313 -4.21409 0
M  V30 18263 N 1755.98 1.20536 -1.01532 0
M  V30 18264 C 1757.26 1.85545 -0.619063 0
M  V30 18265 C 1757.64 1.90816 0.902916 0
M  V30 18266 O 1756.99 1.41506 1.79411 0
M  V30 18267 C 1757.2 3.25252 -1.26539 0
M  V30 18268 C 1758.55 4.01547 -1.38003 0
M  V30 18269 O 1759.57 3.34601 -1.22151 0
M  V30 18270 O 1758.43 5.21436 -1.63605 0
M  V30 18271 H 1755.52 0.798985 -0.21343 0
M  V30 18272 H 1758.07 1.28136 -1.11262 0
M  V30 18273 H 1756.84 3.16174 -2.30542 0
M  V30 18274 H 1756.46 3.90292 -0.758833 0
M  V30 18275 N 1757.46 0.791395 1.36289 0
M  V30 18276 C 1758.69 0.375566 2.03971 0
M  V30 18277 C 1759.11 -1.00061 1.59277 0
M  V30 18278 O 1758.47 -1.64501 0.762182 0
M  V30 18279 C 1758.52 0.449891 3.57783 0
M  V30 18280 O 1757.62 -0.54243 4.08817 0
M  V30 18281 H 1756.96 0.159181 0.644637 0
M  V30 18282 H 1759.49 1.07306 1.74203 0
M  V30 18283 H 1759.5 0.314206 4.06788 0
M  V30 18284 H 1758.18 1.45377 3.89665 0
M  V30 18285 H 1756.75 -0.368243 3.71077 0
M  V30 18286 N 1758.94 -1.47929 0.54358 0
M  V30 18287 C 1759.89 -2.29827 -0.211706 0
M  V30 18288 C 1760.86 -1.38217 -0.921154 0
M  V30 18289 O 1762.04 -1.67181 -0.919522 0
M  V30 18290 C 1759.18 -3.21889 -1.24425 0
M  V30 18291 C 1758.29 -4.28583 -0.542264 0
M  V30 18292 C 1757.43 -5.0781 -1.55892 0
M  V30 18293 C 1756.47 -6.06293 -0.841146 0
M  V30 18294 N 1755.61 -6.78528 -1.80399 0
M  V30 18295 H 1760.45 -2.93896 0.492835 0
M  V30 18296 H 1757.98 -1.44875 0.254873 0
M  V30 18297 H 1759.94 -3.73674 -1.85535 0
M  V30 18298 H 1758.57 -2.59713 -1.917 0
M  V30 18299 H 1757.62 -3.79959 0.183069 0
M  V30 18300 H 1758.93 -4.98796 0.0206703 0
M  V30 18301 H 1758.09 -5.63678 -2.24393 0
M  V30 18302 H 1756.83 -4.37468 -2.15576 0
M  V30 18303 H 1755.83 -5.49616 -0.14214 0
M  V30 18304 H 1757.06 -6.78639 -0.250232 0
M  V30 18305 H 1755 -6.10927 -2.38965 0
M  V30 18306 H 1754.92 -7.44863 -1.29285 0
M  V30 18307 H 1756.19 -7.38978 -2.48056 0
M  V30 18308 N 1760.42 -0.27936 -1.55104 0
M  V30 18309 C 1761.65 0.339429 -2.04097 0
M  V30 18310 C 1762.06 1.49151 -1.15756 0
M  V30 18311 O 1761.42 1.81624 -0.178558 0
M  V30 18312 C 1761.47 0.816392 -3.52161 0
M  V30 18313 O 1761.19 -0.289812 -4.3714 0
M  V30 18314 C 1762.69 1.50256 -4.17059 0
M  V30 18315 H 1759.91 0.0768615 -0.666583 0
M  V30 18316 H 1762.45 -0.412691 -2.00293 0
M  V30 18317 H 1760.61 1.51859 -3.56395 0
M  V30 18318 H 1761.02 0.0776213 -5.24443 0
M  V30 18319 H 1762.5 1.78767 -5.22251 0
M  V30 18320 H 1762.97 2.4355 -3.65486 0
M  V30 18321 H 1763.58 0.844106 -4.16839 0
M  V30 18322 N 1761.9 1.57599 -0.0067085 0
M  V30 18323 C 1762.81 2.1228 0.998709 0
M  V30 18324 C 1763.82 1.06964 1.37239 0
M  V30 18325 O 1765 1.38902 1.45836 0
M  V30 18326 C 1762.06 2.62076 2.26973 0
M  V30 18327 C 1761.12 3.8202 1.95855 0
M  V30 18328 C 1760.36 4.29431 3.16898 0
M  V30 18329 O 1760.58 3.76136 4.2881 0
M  V30 18330 O 1759.51 5.21518 3.00504 0
M  V30 18331 H 1763.34 2.9842 0.563849 0
M  V30 18332 H 1760.92 1.47881 0.212535 0
M  V30 18333 H 1762.81 2.94274 3.01631 0
M  V30 18334 H 1761.48 1.79031 2.69684 0
M  V30 18335 H 1760.39 3.54785 1.18653 0
M  V30 18336 H 1761.72 4.66159 1.57977 0
M  V30 18337 N 1763.37 -0.266145 1.55336 0
M  V30 18338 C 1764.28 -1.35103 1.91793 0
M  V30 18339 C 1765.3 -1.5368 0.815985 0
M  V30 18340 O 1766.48 -1.67675 1.11567 0
M  V30 18341 C 1763.54 -2.68905 2.1884 0
M  V30 18342 C 1762.6 -2.59015 3.42359 0
M  V30 18343 C 1761.83 -3.86437 3.68106 0
M  V30 18344 O 1762.06 -4.87436 2.96247 0
M  V30 18345 O 1760.99 -3.86227 4.61641 0
M  V30 18346 H 1764.82 -1.07181 2.84158 0
M  V30 18347 H 1762.4 -0.465262 1.41971 0
M  V30 18348 H 1764.28 -3.48008 2.3763 0
M  V30 18349 H 1762.96 -2.96599 1.29656 0
M  V30 18350 H 1761.87 -1.78264 3.28896 0
M  V30 18351 H 1763.2 -2.3627 4.31784 0
M  V30 18352 N 1764.85 -1.48386 -0.530967 0
M  V30 18353 C 1765.8 -1.62835 -1.63564 0
M  V30 18354 C 1766.77 -0.470453 -1.59298 0
M  V30 18355 O 1767.95 -0.693813 -1.77738 0
M  V30 18356 C 1765.09 -1.67314 -3.01828 0
M  V30 18357 C 1764.21 -2.94204 -3.16335 0
M  V30 18358 C 1763.34 -2.8985 -4.45152 0
M  V30 18359 C 1762.38 -4.11449 -4.53185 0
M  V30 18360 N 1761.52 -4.05178 -5.7339 0
M  V30 18361 H 1766.36 -2.57172 -1.50554 0
M  V30 18362 H 1763.89 -1.27537 -0.732991 0
M  V30 18363 H 1765.85 -1.67892 -3.81927 0
M  V30 18364 H 1764.48 -0.764688 -3.13612 0
M  V30 18365 H 1763.53 -3.03375 -2.29495 0
M  V30 18366 H 1764.85 -3.84179 -3.18132 0
M  V30 18367 H 1764 -2.88824 -5.33541 0
M  V30 18368 H 1762.74 -1.97602 -4.45875 0
M  V30 18369 H 1761.74 -4.12751 -3.63203 0
M  V30 18370 H 1762.97 -5.04855 -4.54201 0
M  V30 18371 H 1760.92 -3.15749 -5.75012 0
M  V30 18372 H 1760.83 -4.88857 -5.76676 0
M  V30 18373 H 1762.1 -4.08209 -6.64067 0
M  V30 18374 N 1766.33 0.779763 -1.36958 0
M  V30 18375 C 1767.55 1.57389 -1.35068 0
M  V30 18376 C 1767.98 1.87993 0.0635244 0
M  V30 18377 O 1767.34 1.48625 1.03828 0
M  V30 18378 C 1767.39 2.86582 -2.18868 0
M  V30 18379 O 1766.49 3.80609 -1.58779 0
M  V30 18380 H 1765.83 0.477052 -0.461863 0
M  V30 18381 H 1768.36 0.965741 -1.80373 0
M  V30 18382 H 1768.37 3.35761 -2.31794 0
M  V30 18383 H 1767.05 2.63635 -3.21666 0
M  V30 18384 H 1765.62 3.39229 -1.54848 0
M  V30 18385 N 1767.81 1.21396 1.00503 0
M  V30 18386 C 1769.05 1.0327 1.74537 0
M  V30 18387 C 1769.39 -0.432746 1.89317 0
M  V30 18388 O 1768.66 -1.32111 1.42747 0
M  V30 18389 C 1768.94 1.73045 3.15797 0
M  V30 18390 C 1768.8 3.27108 3.0874 0
M  V30 18391 C 1770.12 1.47298 4.14718 0
M  V30 18392 H 1767.24 0.376563 0.633537 0
M  V30 18393 H 1769.88 1.49571 1.17169 0
M  V30 18394 H 1768.03 1.33682 3.64776 0
M  V30 18395 H 1769.7 3.75839 2.67475 0
M  V30 18396 H 1767.94 3.57413 2.45843 0
M  V30 18397 H 1768.61 3.71096 4.08646 0
M  V30 18398 H 1771.09 1.81468 3.74444 0
M  V30 18399 H 1769.97 1.98633 5.11699 0
M  V30 18400 H 1770.23 0.402981 4.4026 0
M  V30 18401 N 1769.29 -1.19996 1.0217 0
M  V30 18402 C 1770.53 -1.89776 0.715047 0
M  V30 18403 C 1770.86 -1.78971 -0.753862 0
M  V30 18404 O 1770.14 -1.17729 -1.54823 0
M  V30 18405 C 1770.42 -3.4098 1.15779 0
M  V30 18406 C 1770.28 -3.60693 2.68739 0
M  V30 18407 C 1771.59 -4.33953 0.733008 0
M  V30 18408 H 1768.71 -0.689148 0.261236 0
M  V30 18409 H 1771.36 -1.41287 1.27035 0
M  V30 18410 H 1769.51 -3.82407 0.68534 0
M  V30 18411 H 1771.18 -3.28484 3.23876 0
M  V30 18412 H 1769.42 -3.0399 3.09472 0
M  V30 18413 H 1770.09 -4.66704 2.94773 0
M  V30 18414 H 1772.57 -4.002 1.13925 0
M  V30 18415 H 1771.44 -5.38355 1.07077 0
M  V30 18416 H 1771.7 -4.4059 -0.365047 0
M  V30 18417 N 1770.76 -0.798611 -1.35867 0
M  V30 18418 C 1771.7 -0.161203 -2.28632 0
M  V30 18419 C 1772.71 0.634886 -1.4991 0
M  V30 18420 O 1773.9 0.468557 -1.72241 0
M  V30 18421 C 1771 0.794407 -3.29458 0
M  V30 18422 C 1770.17 0.0464031 -4.37375 0
M  V30 18423 C 1769.23 0.919313 -5.18107 0
M  V30 18424 O 1768.26 0.373179 -5.67975 0
M  V30 18425 N 1769.46 2.24243 -5.35439 0
M  V30 18426 H 1772.22 -0.958079 -2.83973 0
M  V30 18427 H 1769.78 -0.653344 -1.48132 0
M  V30 18428 H 1771.78 1.38242 -3.80357 0
M  V30 18429 H 1770.35 1.49212 -2.7469 0
M  V30 18430 H 1769.57 -0.722757 -3.87518 0
M  V30 18431 H 1770.85 -0.469417 -5.0663 0
M  V30 18432 H 1770.25 2.71017 -4.96554 0
M  V30 18433 H 1768.81 2.77986 -5.89548 0
M  V30 18434 N 1772.24 1.47639 -0.551417 0
M  V30 18435 C 1773.19 2.29936 0.199514 0
M  V30 18436 C 1774.16 1.38704 0.913811 0
M  V30 18437 O 1775.34 1.67666 0.910643 0
M  V30 18438 C 1772.48 3.22544 1.22717 0
M  V30 18439 C 1771.6 4.28865 0.519527 0
M  V30 18440 C 1770.73 5.0863 1.53197 0
M  V30 18441 C 1769.77 6.06731 0.808981 0
M  V30 18442 N 1768.91 6.79476 1.76798 0
M  V30 18443 H 1773.75 2.93631 -0.508414 0
M  V30 18444 H 1771.28 1.44738 -0.262553 0
M  V30 18445 H 1773.24 3.74653 1.83551 0
M  V30 18446 H 1771.87 2.60726 1.9032 0
M  V30 18447 H 1770.92 3.79857 -0.203217 0
M  V30 18448 H 1772.24 4.98778 -0.0471224 0
M  V30 18449 H 1771.39 5.6486 2.214 0
M  V30 18450 H 1770.13 4.38605 2.13253 0
M  V30 18451 H 1769.13 5.49684 0.112991 0
M  V30 18452 H 1770.36 6.78762 0.214239 0
M  V30 18453 H 1768.31 6.12185 2.35722 0
M  V30 18454 H 1768.22 7.45539 1.25333 0
M  V30 18455 H 1769.49 7.40283 2.44133 0
M  V30 18456 N 1773.72 0.287581 1.54954 0
M  V30 18457 C 1775.13 -0.207733 1.85541 0
M  V30 18458 C 1775.48 -1.54478 1.20959 0
M  V30 18459 O 1774.61 -2.10487 0.502399 0
M  V30 18460 C 1775.2 -0.383701 3.3662 0
M  V30 18461 C 1773.76 -0.82324 3.67287 0
M  V30 18462 C 1772.91 0.0762579 2.77195 0
M  V30 18463 H 1775.86 0.509004 1.50316 0
M  V30 18464 H 1775.88 -1.22036 3.60399 0
M  V30 18465 H 1775.39 0.589575 3.83596 0
M  V30 18466 H 1773.49 -1.80754 3.2582 0
M  V30 18467 H 1773.61 -0.651925 4.74644 0
M  V30 18468 H 1771.97 -0.44219 2.50832 0
M  V30 18469 H 1772.75 1.04564 3.26988 0
M  V30 18470 N 1775.2 -1.57593 0.0150662 0
M  V30 18471 C 1776.44 -1.91497 -0.667587 0
M  V30 18472 C 1776.78 -0.890493 -1.7258 0
M  V30 18473 O 1776.05 0.0887462 -1.94297 0
M  V30 18474 C 1776.34 -3.35934 -1.29694 0
M  V30 18475 C 1776.19 -4.49109 -0.249242 0
M  V30 18476 C 1777.51 -3.80068 -2.21893 0
M  V30 18477 H 1774.63 -0.696408 -0.241217 0
M  V30 18478 H 1777.27 -1.89873 0.0694484 0
M  V30 18479 H 1775.42 -3.37448 -1.92512 0
M  V30 18480 H 1777.09 -4.59729 0.380417 0
M  V30 18481 H 1775.33 -4.31695 0.426861 0
M  V30 18482 H 1776 -5.47166 -0.728934 0
M  V30 18483 H 1778.48 -3.80201 -1.69076 0
M  V30 18484 H 1777.36 -4.81852 -2.62887 0
M  V30 18485 H 1777.62 -3.1478 -3.10429 0
M  V30 18486 N 1776.68 0.257904 -1.55475 0
M  V30 18487 C 1777.95 1.00965 -1.67528 0
M  V30 18488 C 1778.33 2.03763 -0.551694 0
M  V30 18489 O 1777.68 2.24099 0.446314 0
M  V30 18490 C 1777.89 1.65289 -3.07377 0
M  V30 18491 C 1779.24 2.15888 -3.65619 0
M  V30 18492 O 1780.26 1.7525 -3.10106 0
M  V30 18493 O 1779.12 2.90471 -4.62913 0
M  V30 18494 H 1776.22 0.469266 -0.680969 0
M  V30 18495 H 1778.76 0.252562 -1.6781 0
M  V30 18496 H 1777.53 0.908769 -3.80601 0
M  V30 18497 H 1777.16 2.47646 -3.11058 0
M  V30 18498 N 1778.15 1.48666 0.52309 0
M  V30 18499 C 1779.4 1.57267 1.28043 0
M  V30 18500 C 1779.73 0.248801 1.926 0
M  V30 18501 O 1779.01 -0.745814 1.79633 0
M  V30 18502 C 1779.29 2.71595 2.36449 0
M  V30 18503 C 1779.14 4.13708 1.76538 0
M  V30 18504 C 1780.46 2.81654 3.3817 0
M  V30 18505 H 1777.58 0.572455 0.464181 0
M  V30 18506 H 1780.22 1.80866 0.582013 0
M  V30 18507 H 1778.37 2.51604 2.9602 0
M  V30 18508 H 1780.05 4.45158 1.20964 0
M  V30 18509 H 1778.29 4.20386 1.07041 0
M  V30 18510 H 1778.96 4.89538 2.55062 0
M  V30 18511 H 1781.44 2.99784 2.88563 0
M  V30 18512 H 1780.31 3.63366 4.11408 0
M  V30 18513 H 1780.57 1.90093 3.99145 0
M  V30 18514 N 1779.63 -0.772489 1.37369 0
M  V30 18515 C 1780.58 -1.88575 1.33073 0
M  V30 18516 C 1781.55 -1.64935 0.19641 0
M  V30 18517 O 1782.73 -1.86862 0.385651 0
M  V30 18518 C 1779.87 -3.25628 1.14281 0
M  V30 18519 C 1778.99 -3.61227 2.36936 0
M  V30 18520 C 1778.12 -4.87486 2.11023 0
M  V30 18521 C 1777.16 -5.15814 3.29548 0
M  V30 18522 N 1776.3 -6.33261 3.03191 0
M  V30 18523 H 1781.14 -1.91583 2.28255 0
M  V30 18524 H 1778.68 -0.936654 1.13425 0
M  V30 18525 H 1780.63 -4.04688 1.01407 0
M  V30 18526 H 1779.26 -3.21998 0.227467 0
M  V30 18527 H 1778.32 -2.77158 2.60552 0
M  V30 18528 H 1779.63 -3.781 3.25333 0
M  V30 18529 H 1778.78 -5.74449 1.95176 0
M  V30 18530 H 1777.52 -4.72716 1.19962 0
M  V30 18531 H 1776.53 -4.27328 3.45935 0
M  V30 18532 H 1777.75 -5.32493 4.21459 0
M  V30 18533 H 1775.7 -6.19851 2.14759 0
M  V30 18534 H 1775.61 -6.50546 3.85131 0
M  V30 18535 H 1776.88 -7.23162 2.9096 0
M  V30 18536 N 1781.11 -1.21927 -0.998575 0
M  V30 18537 C 1782.52 -1.03808 -1.5518 0
M  V30 18538 C 1782.87 0.400202 -1.92075 0
M  V30 18539 O 1782 1.28436 -1.74164 0
M  V30 18540 C 1782.59 -1.87814 -2.81978 0
M  V30 18541 C 1781.15 -1.74008 -3.33764 0
M  V30 18542 C 1780.3 -1.8463 -2.06899 0
M  V30 18543 H 1783.25 -1.35855 -0.820305 0
M  V30 18544 H 1783.27 -1.39219 -3.54116 0
M  V30 18545 H 1782.78 -2.92487 -2.55094 0
M  V30 18546 H 1780.88 -0.720445 -3.65569 0
M  V30 18547 H 1781 -2.56348 -4.0475 0
M  V30 18548 H 1779.36 -1.28007 -2.20196 0
M  V30 18549 H 1780.14 -2.90824 -1.82419 0
M  V30 18550 N 1782.59 1.19452 -1.02805 0
M  V30 18551 C 1783.54 2.22644 -0.608134 0
M  V30 18552 C 1784.51 1.6175 0.377639 0
M  V30 18553 O 1785.69 1.88815 0.274487 0
M  V30 18554 C 1782.83 3.45081 0.0357589 0
M  V30 18555 C 1781.94 4.20363 -0.995955 0
M  V30 18556 C 1781.08 5.30224 -0.321911 0
M  V30 18557 C 1780.12 5.97261 -1.33959 0
M  V30 18558 N 1779.25 6.98687 -0.691414 0
M  V30 18559 H 1784.09 2.57921 -1.49268 0
M  V30 18560 H 1781.63 1.26722 -0.746985 0
M  V30 18561 H 1783.59 4.15016 0.426309 0
M  V30 18562 H 1782.22 3.10463 0.883889 0
M  V30 18563 H 1781.27 3.49381 -1.50457 0
M  V30 18564 H 1782.58 4.6636 -1.76945 0
M  V30 18565 H 1781.74 6.06574 0.123528 0
M  V30 18566 H 1780.48 4.85294 0.483792 0
M  V30 18567 H 1779.48 5.19662 -1.7953 0
M  V30 18568 H 1780.71 6.44275 -2.14678 0
M  V30 18569 H 1778.65 6.55932 0.0942121 0
M  V30 18570 H 1778.57 7.42871 -1.40281 0
M  V30 18571 H 1779.84 7.79032 -0.269948 0
M  V30 18572 N 1784.07 0.805805 1.35442 0
M  V30 18573 C 1785.32 0.382303 1.98044 0
M  V30 18574 C 1785.63 -1.05602 1.64644 0
M  V30 18575 O 1786.83 -1.5826 2.20604 0
M  V30 18576 C 1785.29 0.632619 3.54296 0
M  V30 18577 C 1784.9 2.08344 3.96607 0
M  V30 18578 C 1786.64 0.274435 4.23612 0
M  V30 18579 C 1784.55 2.27954 5.45702 0
M  V30 18580 H 1783.48 0.13921 0.741037 0
M  V30 18581 H 1786.13 0.989752 1.54519 0
M  V30 18582 H 1784.51 -0.0447699 3.95975 0
M  V30 18583 H 1785.69 2.79857 3.66083 0
M  V30 18584 H 1784 2.40142 3.40178 0
M  V30 18585 H 1786.6 0.399019 5.33209 0
M  V30 18586 H 1786.94 -0.779292 4.08941 0
M  V30 18587 H 1787.47 0.90571 3.87352 0
M  V30 18588 H 1784.21 3.3177 5.6534 0
M  V30 18589 H 1783.73 1.60965 5.77798 0
M  V30 18590 H 1785.41 2.09469 6.12153 0
M  V30 18591 N 1785.54 -1.47344 0.559239 0
M  V30 18592 C 1786.49 -2.30039 -0.187317 0
M  V30 18593 C 1787.46 -1.39186 -0.906443 0
M  V30 18594 O 1788.65 -1.68147 -0.901739 0
M  V30 18595 C 1785.79 -3.2319 -1.21004 0
M  V30 18596 C 1784.9 -4.29134 -0.496776 0
M  V30 18597 C 1784.03 -5.09435 -1.50497 0
M  V30 18598 C 1783.07 -6.07151 -0.776794 0
M  V30 18599 N 1782.21 -6.80404 -1.73192 0
M  V30 18600 H 1787.05 -2.93357 0.523978 0
M  V30 18601 H 1784.59 -1.44597 0.270225 0
M  V30 18602 H 1786.55 -3.75621 -1.81561 0
M  V30 18603 H 1785.18 -2.61732 -1.88935 0
M  V30 18604 H 1784.23 -3.79744 0.223359 0
M  V30 18605 H 1785.54 -4.98746 0.0735731 0
M  V30 18606 H 1784.69 -5.66026 -2.18402 0
M  V30 18607 H 1783.43 -4.3973 -2.10924 0
M  V30 18608 H 1782.44 -5.49736 -0.0838382 0
M  V30 18609 H 1783.66 -6.78866 -0.178239 0
M  V30 18610 H 1781.61 -6.13427 -2.32472 0
M  V30 18611 H 1781.53 -7.46193 -1.21377 0
M  V30 18612 H 1782.79 -7.41567 -2.40204 0
M  V30 18613 N 1787.02 -0.295795 -1.54799 0
M  V30 18614 C 1787.99 0.569699 -2.22007 0
M  V30 18615 C 1788.99 1.06535 -1.20445 0
M  V30 18616 O 1790.18 0.962212 -1.45214 0
M  V30 18617 C 1787.31 1.78821 -2.90234 0
M  V30 18618 H 1788.5 -0.0174148 -2.99895 0
M  V30 18619 H 1786.05 -0.0465813 -1.56231 0
M  V30 18620 H 1786.79 2.4153 -2.16412 0
M  V30 18621 H 1786.57 1.44051 -3.6468 0
M  V30 18622 H 1788.06 2.40321 -3.41519 0
M  V30 18623 N 1788.5 1.57583 -0.0234236 0
M  V30 18624 C 1789.74 1.93428 0.660675 0
M  V30 18625 C 1790.11 0.899634 1.69619 0
M  V30 18626 O 1791.31 1.1441 2.43236 0
M  V30 18627 C 1789.58 3.3422 1.26617 0
M  V30 18628 S 1791.14 3.91985 1.97214 0
M  V30 18629 H 1787.95 0.676862 0.217666 0
M  V30 18630 H 1790.56 1.95312 -0.0857251 0
M  V30 18631 H 1789.26 4.07343 0.500004 0
M  V30 18632 H 1788.79 3.35766 2.05 0
M  V30 18633 H 1790.81 3.74958 3.24994 0
M  V30 18634 N 1789.98 -0.249655 1.5561 0
M  V30 18635 C 1791.23 -0.975982 1.76515 0
M  V30 18636 C 1791.54 -1.86589 0.586843 0
M  V30 18637 O 1792.75 -2.62876 0.678844 0
M  V30 18638 C 1791.2 -1.7854 3.12492 0
M  V30 18639 C 1790.81 -0.943014 4.37963 0
M  V30 18640 C 1792.56 -2.50462 3.42737 0
M  V30 18641 C 1790.46 -1.74816 5.64972 0
M  V30 18642 H 1789.39 -0.368139 0.65802 0
M  V30 18643 H 1792.04 -0.230745 1.82043 0
M  V30 18644 H 1790.43 -2.57248 3.01064 0
M  V30 18645 H 1791.6 -0.198453 4.60372 0
M  V30 18646 H 1789.91 -0.337249 4.15032 0
M  V30 18647 H 1792.51 -3.1115 4.34845 0
M  V30 18648 H 1792.85 -3.21938 2.63935 0
M  V30 18649 H 1793.39 -1.78767 3.55369 0
M  V30 18650 H 1790.13 -1.07719 6.46589 0
M  V30 18651 H 1789.65 -2.46807 5.46668 0
M  V30 18652 H 1791.33 -2.31599 6.04128 0
M  V30 18653 N 1791.46 -1.48941 -0.515198 0
M  V30 18654 C 1792.73 -1.48205 -1.27651 0
M  V30 18655 C 1793.11 -0.201866 -2.10133 0
M  V30 18656 O 1792.46 0.816115 -2.13429 0
M  V30 18657 C 1792.67 -2.75274 -2.14535 0
M  V30 18658 C 1794.02 -3.24198 -2.74192 0
M  V30 18659 O 1795.04 -2.76293 -2.24813 0
M  V30 18660 O 1793.9 -4.07593 -3.64047 0
M  V30 18661 H 1791 -0.592546 -0.576904 0
M  V30 18662 H 1793.54 -1.6119 -0.530636 0
M  V30 18663 H 1792.32 -3.59949 -1.53469 0
M  V30 18664 H 1791.94 -2.6508 -2.96342 0
M  V30 18665 N 1792.94 0.765193 -1.37777 0
M  V30 18666 C 1793.85 1.90959 -1.36278 0
M  V30 18667 C 1794.86 1.72025 -0.261448 0
M  V30 18668 O 1796.04 1.95148 -0.497937 0
M  V30 18669 C 1793.1 3.26174 -1.17523 0
M  V30 18670 C 1792.16 3.57716 -2.37356 0
M  V30 18671 C 1791.4 4.86479 -2.19486 0
M  V30 18672 O 1791.62 5.58008 -1.18252 0
M  V30 18673 O 1790.55 5.17234 -3.0782 0
M  V30 18674 H 1794.38 1.95176 -2.3268 0
M  V30 18675 H 1791.96 0.90886 -1.18575 0
M  V30 18676 H 1793.85 4.07038 -1.09078 0
M  V30 18677 H 1792.52 3.22794 -0.241994 0
M  V30 18678 H 1791.43 2.7706 -2.51374 0
M  V30 18679 H 1792.76 3.65845 -3.29269 0
M  V30 18680 N 1794.41 1.22455 0.992094 0
M  V30 18681 C 1795.66 1.05115 1.73432 0
M  V30 18682 C 1795.99 -0.412642 1.89765 0
M  V30 18683 O 1795.27 -1.3059 1.44141 0
M  V30 18684 C 1795.55 1.76385 3.13943 0
M  V30 18685 C 1795.4 3.30364 3.05253 0
M  V30 18686 C 1796.72 1.51688 4.13133 0
M  V30 18687 H 1793.84 0.383261 0.629508 0
M  V30 18688 H 1796.48 1.50805 1.15576 0
M  V30 18689 H 1794.63 1.37544 3.63337 0
M  V30 18690 H 1796.31 3.78655 2.63474 0
M  V30 18691 H 1794.55 3.6 2.42038 0
M  V30 18692 H 1795.22 3.75409 4.04687 0
M  V30 18693 H 1797.7 1.85429 3.72499 0
M  V30 18694 H 1796.57 2.04049 5.09564 0
M  V30 18695 H 1796.83 0.449654 4.39807 0
M  V30 18696 N 1795.89 -1.18905 1.03437 0
M  V30 18697 C 1797.12 -1.92678 0.753853 0
M  V30 18698 C 1797.53 -1.75814 -0.688111 0
M  V30 18699 O 1796.89 -1.08363 -1.46846 0
M  V30 18700 C 1796.94 -3.44275 1.10258 0
M  V30 18701 O 1796.66 -3.60602 2.48793 0
M  V30 18702 C 1798.16 -4.35159 0.84566 0
M  V30 18703 H 1795.38 -0.611875 0.275408 0
M  V30 18704 H 1797.93 -1.50887 1.38034 0
M  V30 18705 H 1796.08 -3.83878 0.521177 0
M  V30 18706 H 1796.5 -4.54403 2.61951 0
M  V30 18707 H 1797.97 -5.40109 1.13958 0
M  V30 18708 H 1798.45 -4.3865 -0.219767 0
M  V30 18709 H 1799.05 -4.01245 1.41006 0
M  V30 18710 N 1797.37 -0.812977 -1.35013 0
M  V30 18711 C 1798.6 -0.409014 -2.02817 0
M  V30 18712 C 1799.01 0.982004 -1.61252 0
M  V30 18713 O 1798.37 1.63384 -0.813137 0
M  V30 18714 C 1798.42 -0.490117 -3.58162 0
M  V30 18715 O 1798.14 -1.8263 -3.98218 0
M  V30 18716 C 1799.64 -0.0797786 -4.43228 0
M  V30 18717 H 1796.86 -0.165356 -0.650306 0
M  V30 18718 H 1799.41 -1.09837 -1.72499 0
M  V30 18719 H 1797.56 0.151057 -3.87105 0
M  V30 18720 H 1797.98 -1.79356 -4.92881 0
M  V30 18721 H 1799.45 -0.18763 -5.51681 0
M  V30 18722 H 1799.93 0.975612 -4.28227 0
M  V30 18723 H 1800.53 -0.694359 -4.19594 0
M  V30 18724 N 1798.85 1.47045 -0.567045 0
M  V30 18725 C 1800.08 2.06835 -0.0518309 0
M  V30 18726 C 1800.49 1.41823 1.24626 0
M  V30 18727 O 1799.85 0.518102 1.74991 0
M  V30 18728 C 1799.9 3.6124 0.137142 0
M  V30 18729 O 1799.62 4.23817 -1.10955 0
M  V30 18730 C 1801.12 4.37921 0.688511 0
M  V30 18731 H 1798.34 0.669111 -0.0503138 0
M  V30 18732 H 1800.88 1.88906 -0.783258 0
M  V30 18733 H 1799.04 3.7865 0.818733 0
M  V30 18734 H 1799.45 5.16484 -0.913475 0
M  V30 18735 H 1800.93 5.46603 0.769984 0
M  V30 18736 H 1801.4 4.0488 1.70201 0
M  V30 18737 H 1802.01 4.25279 0.0423004 0
M  V30 18738 N 1800.33 0.304 1.5464 0
M  V30 18739 C 1801.26 -0.563854 2.2659 0
M  V30 18740 C 1802.24 -1.13547 1.26653 0
M  V30 18741 O 1803.42 -1.16425 1.55431 0
M  V30 18742 C 1800.55 -1.73437 3.00894 0
M  V30 18743 C 1799.51 -1.29297 4.08003 0
M  V30 18744 C 1798.83 -2.54888 4.70038 0
M  V30 18745 C 1800.13 -0.422027 5.20592 0
M  V30 18746 H 1801.83 0.0362569 2.99378 0
M  V30 18747 H 1799.37 0.0188781 1.43988 0
M  V30 18748 H 1801.32 -2.34762 3.4995 0
M  V30 18749 H 1800.05 -2.36076 2.25689 0
M  V30 18750 H 1798.71 -0.702757 3.59801 0
M  V30 18751 H 1798.36 -3.15848 3.9147 0
M  V30 18752 H 1798.06 -2.26054 5.42378 0
M  V30 18753 H 1799.58 -3.17011 5.21859 0
M  V30 18754 H 1800.99 -0.941036 5.65524 0
M  V30 18755 H 1799.39 -0.227323 5.99669 0
M  V30 18756 H 1800.46 0.55212 4.81746 0
M  V30 18757 N 1801.8 -1.57568 0.0317802 0
M  V30 18758 C 1802.71 -2.13842 -0.964811 0
M  V30 18759 C 1803.73 -1.09134 -1.3552 0
M  V30 18760 O 1804.91 -1.41205 -1.43608 0
M  V30 18761 C 1801.97 -2.65654 -2.22775 0
M  V30 18762 C 1801.03 -3.85087 -1.89753 0
M  V30 18763 C 1800.26 -4.34419 -3.10026 0
M  V30 18764 O 1800.49 -3.8291 -4.22772 0
M  V30 18765 O 1799.42 -5.26233 -2.92169 0
M  V30 18766 H 1803.25 -2.99279 -0.516302 0
M  V30 18767 H 1800.83 -1.482 -0.188982 0
M  V30 18768 H 1802.71 -2.99035 -2.96911 0
M  V30 18769 H 1801.39 -1.83299 -2.66802 0
M  V30 18770 H 1800.3 -3.56628 -1.12994 0
M  V30 18771 H 1801.63 -4.68613 -1.50541 0
M  V30 18772 N 1803.28 0.241399 -1.5574 0
M  V30 18773 C 1804.19 1.32034 -1.93918 0
M  V30 18774 C 1805.21 1.52363 -0.840331 0
M  V30 18775 O 1806.38 1.65879 -1.1422 0
M  V30 18776 C 1803.45 2.6539 -2.2309 0
M  V30 18777 C 1802.51 2.53536 -3.46436 0
M  V30 18778 C 1801.74 3.80532 -3.74208 0
M  V30 18779 O 1801.97 4.82662 -3.03964 0
M  V30 18780 O 1800.9 3.78834 -4.67727 0
M  V30 18781 H 1804.73 1.02647 -2.85827 0
M  V30 18782 H 1802.31 0.442616 -1.42693 0
M  V30 18783 H 1804.19 3.44184 -2.43137 0
M  V30 18784 H 1802.87 2.94499 -1.34358 0
M  V30 18785 H 1801.78 1.73009 -3.3169 0
M  V30 18786 H 1803.11 2.29371 -4.35488 0
M  V30 18787 N 1804.76 1.49212 0.507292 0
M  V30 18788 C 1805.99 1.6208 1.28599 0
M  V30 18789 C 1806.4 0.289745 1.86563 0
M  V30 18790 O 1805.76 -0.723987 1.67525 0
M  V30 18791 C 1805.81 2.68482 2.42074 0
M  V30 18792 O 1805.53 3.96424 1.86493 0
M  V30 18793 C 1807.03 2.91997 3.33546 0
M  V30 18794 H 1804.25 0.545831 0.390268 0
M  V30 18795 H 1806.8 1.95201 0.609652 0
M  V30 18796 H 1804.95 2.38156 3.05549 0
M  V30 18797 H 1805.37 4.54983 2.60942 0
M  V30 18798 H 1806.84 3.70195 4.09463 0
M  V30 18799 H 1807.32 2.01673 3.9016 0
M  V30 18800 H 1807.92 3.23715 2.75842 0
M  V30 18801 N 1806.24 -0.757876 1.38181 0
M  V30 18802 C 1807.19 -1.87152 1.35065 0
M  V30 18803 C 1808.16 -1.64717 0.213892 0
M  V30 18804 O 1809.34 -1.86442 0.405448 0
M  V30 18805 C 1806.48 -3.24398 1.17728 0
M  V30 18806 C 1805.59 -3.58694 2.40754 0
M  V30 18807 C 1804.73 -4.85221 2.16181 0
M  V30 18808 C 1803.77 -5.1229 3.35001 0
M  V30 18809 N 1802.9 -6.3001 3.0989 0
M  V30 18810 H 1807.74 -1.89151 2.30274 0
M  V30 18811 H 1805.28 -0.924571 1.14412 0
M  V30 18812 H 1807.24 -4.0359 1.05694 0
M  V30 18813 H 1805.87 -3.21738 0.261606 0
M  V30 18814 H 1804.92 -2.74379 2.63477 0
M  V30 18815 H 1806.23 -3.74628 3.29325 0
M  V30 18816 H 1805.39 -5.72346 2.01258 0
M  V30 18817 H 1804.13 -4.71417 1.24969 0
M  V30 18818 H 1803.13 -4.23635 3.50448 0
M  V30 18819 H 1804.36 -5.27993 4.27083 0
M  V30 18820 H 1802.3 -6.17538 2.21321 0
M  V30 18821 H 1802.22 -6.46425 3.92009 0
M  V30 18822 H 1803.49 -7.20035 2.98613 0
M  V30 18823 N 1807.72 -1.22979 -0.985586 0
M  V30 18824 C 1808.96 -1.05877 -1.72616 0
M  V30 18825 C 1809.29 0.405097 -1.90235 0
M  V30 18826 O 1808.55 1.31642 -1.44807 0
M  V30 18827 C 1808.85 -1.72346 -3.131 0
M  V30 18828 C 1808.51 -3.22256 -3.15376 0
M  V30 18829 C 1807.17 -3.63159 -3.15704 0
M  V30 18830 C 1809.53 -4.18174 -3.11094 0
M  V30 18831 C 1806.85 -4.98448 -3.09461 0
M  V30 18832 C 1809.21 -5.53449 -3.06393 0
M  V30 18833 C 1807.87 -5.93722 -3.05041 0
M  V30 18834 H 1807.14 -0.38743 -0.631648 0
M  V30 18835 H 1809.79 -1.52842 -1.15375 0
M  V30 18836 H 1808.09 -1.17725 -3.73695 0
M  V30 18837 H 1809.79 -1.56595 -3.6916 0
M  V30 18838 H 1806.38 -2.89692 -3.15875 0
M  V30 18839 H 1810.56 -3.87586 -3.09985 0
M  V30 18840 H 1805.82 -5.28873 -3.06763 0
M  V30 18841 H 1809.99 -6.27492 -3.02037 0
M  V30 18842 H 1807.62 -6.98519 -2.99958 0
M  V30 18843 N 1809.19 1.18355 -1.04066 0
M  V30 18844 C 1810.12 2.24196 -0.652568 0
M  V30 18845 C 1811.11 1.66581 0.344195 0
M  V30 18846 O 1812.29 1.929 0.224296 0
M  V30 18847 C 1809.42 3.47297 -0.0147409 0
M  V30 18848 C 1808.37 4.17661 -0.935044 0
M  V30 18849 C 1807.7 5.34455 -0.161692 0
M  V30 18850 C 1809 4.71153 -2.25415 0
M  V30 18851 H 1810.69 2.56914 -1.53738 0
M  V30 18852 H 1808.24 1.23492 -0.740658 0
M  V30 18853 H 1810.19 4.20544 0.268484 0
M  V30 18854 H 1808.92 3.13812 0.904949 0
M  V30 18855 H 1807.58 3.46312 -1.20265 0
M  V30 18856 H 1807.22 4.97219 0.760404 0
M  V30 18857 H 1806.92 5.82469 -0.774805 0
M  V30 18858 H 1808.45 6.10493 0.114515 0
M  V30 18859 H 1809.86 5.36095 -2.03163 0
M  V30 18860 H 1808.26 5.29701 -2.82022 0
M  V30 18861 H 1809.33 3.88576 -2.90064 0
M  V30 18862 N 1810.67 0.820125 1.3458 0
M  V30 18863 C 1811.9 0.419764 2.02597 0
M  V30 18864 C 1812.32 -0.973439 1.6177 0
M  V30 18865 O 1811.67 -1.6295 0.821791 0
M  V30 18866 C 1811.72 0.509104 3.57897 0
M  V30 18867 O 1811.44 1.84739 3.97244 0
M  V30 18868 C 1812.95 0.103283 4.4318 0
M  V30 18869 H 1810.17 0.168803 0.64942 0
M  V30 18870 H 1812.71 1.10751 1.71914 0
M  V30 18871 H 1810.86 -0.130526 3.8718 0
M  V30 18872 H 1811.28 1.81967 4.91923 0
M  V30 18873 H 1812.75 0.216884 5.51574 0
M  V30 18874 H 1813.23 -0.952888 4.28738 0
M  V30 18875 H 1813.84 0.716601 4.19219 0
M  V30 18876 N 1812.15 -1.46743 0.574835 0
M  V30 18877 C 1813.1 -2.31935 -0.175778 0
M  V30 18878 C 1814.09 -1.44005 -0.892128 0
M  V30 18879 O 1815.3 -1.60674 -0.81141 0
M  V30 18880 H 1811.67 -0.748195 -0.0755558 0
M  V30 18881 H 1813.64 -2.93066 0.561671 0
M  V30 18882 C 1812.39 -3.27018 -1.18128 0
M  V30 18883 H 1811.72 -3.94652 -0.639492 0
M  V30 18884 H 1813.16 -3.89424 -1.67704 0
M  V30 18885 C 1811.62 -2.51802 -2.23824 0
M  V30 18886 O 1812.15 -2.2753 -3.31048 0
M  V30 18887 N 1810.35 -2.12501 -1.98221 0
M  V30 18888 H 1809.9 -2.32441 -1.11035 0
M  V30 18889 H 1809.86 -1.62494 -2.69153 0
M  V30 18890 N 1813.63 -0.312197 -1.54477 0
M  V30 18891 C 1814.58 0.558894 -2.23931 0
M  V30 18892 C 1815.55 1.12071 -1.22594 0
M  V30 18893 O 1816.73 1.16316 -1.51245 0
M  V30 18894 C 1813.87 1.71948 -2.99212 0
M  V30 18895 C 1812.98 1.18799 -4.15344 0
M  V30 18896 C 1812.12 2.31334 -4.78182 0
M  V30 18897 C 1811.16 1.75375 -5.86438 0
M  V30 18898 N 1810.29 2.81528 -6.43184 0
M  V30 18899 H 1815.13 -0.0399708 -2.97973 0
M  V30 18900 H 1812.67 -0.0314967 -1.47066 0
M  V30 18901 H 1814.63 2.40225 -3.41098 0
M  V30 18902 H 1813.26 2.28981 -2.27525 0
M  V30 18903 H 1812.31 0.397122 -3.78321 0
M  V30 18904 H 1813.62 0.738426 -4.93304 0
M  V30 18905 H 1812.78 3.07537 -5.22978 0
M  V30 18906 H 1811.52 2.79622 -3.99578 0
M  V30 18907 H 1810.52 0.976658 -5.41056 0
M  V30 18908 H 1811.75 1.27978 -6.66932 0
M  V30 18909 H 1809.69 3.29129 -5.6746 0
M  V30 18910 H 1809.61 2.41101 -7.16524 0
M  V30 18911 H 1810.88 3.57595 -6.92637 0
M  V30 18912 N 1815.11 1.57549 -0.040136 0
M  V30 18913 C 1816.04 2.13912 0.936168 0
M  V30 18914 C 1817.02 1.05798 1.33194 0
M  V30 18915 O 1818.2 1.33685 1.40861 0
M  V30 18916 C 1815.33 2.67515 2.21479 0
M  V30 18917 C 1814.29 3.80513 1.95943 0
M  V30 18918 C 1813.61 4.20589 3.30165 0
M  V30 18919 C 1814.91 5.06124 1.28981 0
M  V30 18920 H 1816.61 2.9574 0.46674 0
M  V30 18921 H 1814.15 1.42262 0.223062 0
M  V30 18922 H 1816.11 3.05582 2.90168 0
M  V30 18923 H 1814.83 1.82864 2.70608 0
M  V30 18924 H 1813.49 3.42902 1.29669 0
M  V30 18925 H 1813.14 3.32904 3.77073 0
M  V30 18926 H 1812.84 4.96742 3.13881 0
M  V30 18927 H 1814.36 4.61248 4.00103 0
M  V30 18928 H 1815.77 5.41707 1.87687 0
M  V30 18929 H 1814.17 5.87347 1.2306 0
M  V30 18930 H 1815.24 4.84179 0.264286 0
M  V30 18931 N 1816.58 -0.233136 1.55866 0
M  V30 18932 C 1817.51 -1.29225 1.94482 0
M  V30 18933 C 1818.5 -1.49495 0.811503 0
M  V30 18934 O 1819.68 -1.61872 1.07289 0
M  V30 18935 C 1816.81 -2.64435 2.25147 0
M  V30 18936 C 1815.76 -2.5884 3.4086 0
M  V30 18937 C 1815.09 -3.97973 3.57102 0
M  V30 18938 C 1816.39 -2.14629 4.76164 0
M  V30 18939 H 1818.08 -0.971527 2.83199 0
M  V30 18940 H 1815.63 -0.465905 1.36255 0
M  V30 18941 H 1817.58 -3.38676 2.50752 0
M  V30 18942 H 1816.31 -2.98172 1.33271 0
M  V30 18943 H 1814.97 -1.87057 3.15286 0
M  V30 18944 H 1814.61 -4.28998 2.62621 0
M  V30 18945 H 1814.31 -3.95114 4.34924 0
M  V30 18946 H 1815.84 -4.73893 3.85043 0
M  V30 18947 H 1817.25 -2.78607 5.0105 0
M  V30 18948 H 1815.65 -2.22853 5.57186 0
M  V30 18949 H 1816.72 -1.09826 4.72299 0
M  V30 18950 N 1818.06 -1.49479 -0.499372 0
M  V30 18951 C 1818.99 -1.69182 -1.60934 0
M  V30 18952 C 1819.97 -0.54053 -1.61283 0
M  V30 18953 O 1821.16 -0.776554 -1.77998 0
M  V30 18954 C 1818.29 -1.75985 -2.99411 0
M  V30 18955 C 1817.24 -2.9092 -3.13926 0
M  V30 18956 C 1816.57 -2.82837 -4.5377 0
M  V30 18957 C 1817.87 -4.31833 -2.93799 0
M  V30 18958 H 1819.56 -2.62112 -1.44699 0
M  V30 18959 H 1817.11 -1.26135 -0.694688 0
M  V30 18960 H 1819.06 -1.88354 -3.76962 0
M  V30 18961 H 1817.79 -0.796557 -3.16737 0
M  V30 18962 H 1816.45 -2.78155 -2.388 0
M  V30 18963 H 1816.09 -1.84412 -4.67976 0
M  V30 18964 H 1815.79 -3.59979 -4.64423 0
M  V30 18965 H 1817.32 -2.97217 -5.3338 0
M  V30 18966 H 1818.73 -4.45271 -3.61119 0
M  V30 18967 H 1817.13 -5.10209 -3.15922 0
M  V30 18968 H 1818.2 -4.46165 -1.89908 0
M  V30 18969 N 1819.54 0.750537 -1.38581 0
M  V30 18970 C 1820.79 1.50974 -1.34956 0
M  V30 18971 C 1821.12 1.94409 0.0594396 0
M  V30 18972 O 1820.37 1.65957 1.03715 0
M  V30 18973 C 1820.67 2.77356 -2.25407 0
M  V30 18974 C 1820.34 2.52868 -3.73321 0
M  V30 18975 C 1819 2.45899 -4.13627 0
M  V30 18976 C 1821.35 2.31554 -4.66939 0
M  V30 18977 C 1818.68 2.15635 -5.45636 0
M  V30 18978 C 1821.03 2.02811 -5.99208 0
M  V30 18979 C 1819.69 1.943 -6.38595 0
M  V30 18980 H 1818.96 0.552453 -0.493838 0
M  V30 18981 H 1821.61 0.862769 -1.70964 0
M  V30 18982 H 1819.92 3.46719 -1.82465 0
M  V30 18983 H 1821.61 3.35326 -2.19904 0
M  V30 18984 H 1818.2 2.59165 -3.41367 0
M  V30 18985 H 1822.39 2.35916 -4.36643 0
M  V30 18986 H 1817.64 2.07556 -5.75092 0
M  V30 18987 H 1821.82 1.85323 -6.71289 0
M  V30 18988 H 1819.44 1.70614 -7.40807 0
M  V30 18989 N 1821.02 1.235 0.979051 0
M  V30 18990 C 1821.98 1.01854 2.05325 0
M  V30 18991 C 1822.98 -0.0201133 1.60787 0
M  V30 18992 O 1824.17 0.219761 1.72808 0
M  V30 18993 C 1821.3 0.541404 3.36573 0
M  V30 18994 H 1822.5 1.97183 2.25962 0
M  V30 18995 H 1820.05 1.05563 1.15265 0
M  V30 18996 H 1820.79 -0.415607 3.21626 0
M  V30 18997 H 1820.57 1.29092 3.7024 0
M  V30 18998 H 1822.06 0.410635 4.15576 0
M  V30 18999 N 1822.5 -1.17802 1.04693 0
M  V30 19000 C 1823.77 -1.83839 0.668039 0
M  V30 19001 C 1824.15 -1.93143 -0.852008 0
M  V30 19002 O 1823.5 -1.46213 -1.75596 0
M  V30 19003 C 1823.71 -3.21783 1.35118 0
M  V30 19004 C 1825.06 -3.97747 1.48601 0
M  V30 19005 O 1826.08 -3.31244 1.30979 0
M  V30 19006 O 1824.94 -5.16915 1.77373 0
M  V30 19007 H 1822.04 -0.793045 0.234538 0
M  V30 19008 H 1824.58 -1.25141 1.1462 0
M  V30 19009 H 1823.36 -3.0995 2.38844 0
M  V30 19010 H 1822.98 -3.88142 0.862045 0
M  V30 19011 N 1823.98 -0.827251 -1.34143 0
M  V30 19012 C 1825.22 -0.413762 -1.9741 0
M  V30 19013 C 1825.54 1.0297 -1.66303 0
M  V30 19014 O 1826.74 1.5473 -2.23094 0
M  V30 19015 C 1825.2 -0.688904 -3.53245 0
M  V30 19016 C 1824.81 -2.14627 -3.93242 0
M  V30 19017 C 1826.55 -0.341794 -4.23122 0
M  V30 19018 C 1824.46 -2.36607 -5.42006 0
M  V30 19019 H 1823.39 -0.150982 -0.738729 0
M  V30 19020 H 1826.04 -1.01421 -1.52925 0
M  V30 19021 H 1824.42 -0.0182319 -3.95996 0
M  V30 19022 H 1825.6 -2.85646 -3.61584 0
M  V30 19023 H 1823.91 -2.45523 -3.36314 0
M  V30 19024 H 1826.51 -0.483797 -5.32507 0
M  V30 19025 H 1826.85 0.714135 -4.10129 0
M  V30 19026 H 1827.38 -0.96722 -3.85862 0
M  V30 19027 H 1824.12 -3.40722 -5.5999 0
M  V30 19028 H 1823.64 -1.70137 -5.75164 0
M  V30 19029 H 1825.32 -2.19181 -6.08744 0
M  V30 19030 N 1825.45 1.46436 -0.582609 0
M  V30 19031 C 1826.4 2.32025 0.163475 0
M  V30 19032 C 1827.4 1.44476 0.884478 0
M  V30 19033 O 1828.6 1.61102 0.802878 0
M  V30 19034 H 1824.98 0.748585 0.0715868 0
M  V30 19035 H 1826.95 2.92764 -0.577205 0
M  V30 19036 C 1825.7 3.2764 1.16392 0
M  V30 19037 H 1825.02 3.94986 0.618553 0
M  V30 19038 H 1826.46 3.90308 1.65636 0
M  V30 19039 C 1824.92 2.52986 2.22486 0
M  V30 19040 O 1825.45 2.29283 3.29837 0
M  V30 19041 N 1823.65 2.1355 1.97091 0
M  V30 19042 H 1823.2 2.33027 1.09801 0
M  V30 19043 H 1823.16 1.63919 2.68287 0
M  V30 19044 N 1826.93 0.320385 1.54309 0
M  V30 19045 C 1828.18 -0.282584 2.00115 0
M  V30 19046 C 1828.5 -1.52904 1.21018 0
M  V30 19047 O 1827.77 -1.93413 0.311163 0
M  V30 19048 H 1826.35 -0.107406 0.739238 0
M  V30 19049 H 1829.01 0.436196 1.89956 0
M  V30 19050 H 1828.11 -0.541189 3.07372 0
M  V30 19051 N 1828.41 -1.57525 0.0484906 0
M  V30 19052 C 1829.36 -2.11374 -0.926816 0
M  V30 19053 C 1830.33 -1.02045 -1.31058 0
M  V30 19054 O 1831.51 -1.29577 -1.40052 0
M  V30 19055 C 1828.65 -2.66107 -2.19729 0
M  V30 19056 C 1827.76 -3.89513 -1.86826 0
M  V30 19057 C 1826.9 -4.32571 -3.08312 0
M  V30 19058 C 1825.94 -5.48684 -2.71317 0
M  V30 19059 N 1825.08 -5.86808 -3.85488 0
M  V30 19060 H 1829.92 -2.94417 -0.460721 0
M  V30 19061 H 1827.45 -1.45509 -0.215789 0
M  V30 19062 H 1829.41 -2.95939 -2.94068 0
M  V30 19063 H 1828.04 -1.85865 -2.63921 0
M  V30 19064 H 1827.09 -3.66289 -1.02647 0
M  V30 19065 H 1828.4 -4.73912 -1.55592 0
M  V30 19066 H 1827.56 -4.63941 -3.90952 0
M  V30 19067 H 1826.3 -3.46978 -3.42721 0
M  V30 19068 H 1825.3 -5.16988 -1.87092 0
M  V30 19069 H 1826.53 -6.35991 -2.38102 0
M  V30 19070 H 1824.47 -5.04168 -4.19703 0
M  V30 19071 H 1824.39 -6.65892 -3.57944 0
M  V30 19072 H 1825.66 -6.22792 -4.68776 0
M  V30 19073 N 1829.89 0.224867 -1.55988 0
M  V30 19074 C 1830.82 1.28192 -1.95164 0
M  V30 19075 C 1831.8 1.49062 -0.81942 0
M  V30 19076 O 1832.98 1.61301 -1.08146 0
M  V30 19077 C 1830.11 2.63237 -2.26547 0
M  V30 19078 C 1829.07 2.57029 -3.42228 0
M  V30 19079 C 1828.39 3.96073 -3.59207 0
M  V30 19080 C 1829.69 2.12101 -4.77295 0
M  V30 19081 H 1831.39 0.956495 -2.8371 0
M  V30 19082 H 1828.93 0.458673 -1.365 0
M  V30 19083 H 1830.89 3.37341 -2.52545 0
M  V30 19084 H 1829.61 2.97461 -1.3485 0
M  V30 19085 H 1828.27 1.85382 -3.16273 0
M  V30 19086 H 1827.92 4.27599 -2.64892 0
M  V30 19087 H 1827.62 3.92802 -4.37013 0
M  V30 19088 H 1829.14 4.71844 -3.8755 0
M  V30 19089 H 1830.56 2.75946 -5.0252 0
M  V30 19090 H 1828.95 2.19895 -5.5836 0
M  V30 19091 H 1830.02 1.07319 -4.72875 0
M  V30 19092 N 1831.37 1.49742 0.491438 0
M  V30 19093 C 1832.6 1.63198 1.26689 0
M  V30 19094 C 1833 0.306438 1.86702 0
M  V30 19095 O 1832.35 -0.719282 1.69033 0
M  V30 19096 C 1832.41 2.64966 2.42967 0
M  V30 19097 C 1832.07 4.09066 2.0375 0
M  V30 19098 C 1833.07 4.95574 1.57171 0
M  V30 19099 C 1830.75 4.54859 2.13092 0
M  V30 19100 C 1832.75 6.25916 1.2045 0
M  V30 19101 C 1830.44 5.85212 1.75983 0
M  V30 19102 C 1831.43 6.70565 1.29738 0
M  V30 19103 O 1831.12 7.98487 0.931347 0
M  V30 19104 H 1830.85 0.552094 0.390087 0
M  V30 19105 H 1833.41 1.9658 0.595439 0
M  V30 19106 H 1831.64 2.26784 3.13218 0
M  V30 19107 H 1833.33 2.67852 3.04975 0
M  V30 19108 H 1834.09 4.61419 1.49391 0
M  V30 19109 H 1829.97 3.88585 2.48038 0
M  V30 19110 H 1833.52 6.9249 0.84283 0
M  V30 19111 H 1829.41 6.18893 1.83415 0
M  V30 19112 H 1830.18 8.11581 1.06198 0
M  V30 19113 N 1832.84 -0.743177 1.38977 0
M  V30 19114 C 1833.79 -1.84801 1.33539 0
M  V30 19115 C 1834.78 -1.5942 0.217733 0
M  V30 19116 O 1835.97 -1.71063 0.454585 0
M  V30 19117 C 1833.1 -3.22635 1.1731 0
M  V30 19118 C 1832.19 -3.53872 2.33741 0
M  V30 19119 N 1832.58 -3.56099 3.59204 0
M  V30 19120 C 1830.87 -3.84193 2.26521 0
M  V30 19121 C 1831.58 -3.849 4.3615 0
M  V30 19122 N 1830.55 -4.02259 3.65634 0
M  V30 19123 H 1834.35 -1.84816 2.28518 0
M  V30 19124 H 1831.87 -0.941033 1.32357 0
M  V30 19125 H 1833.86 -4.01714 1.11497 0
M  V30 19126 H 1832.52 -3.23865 0.232735 0
M  V30 19127 H 1833.54 -3.37607 3.92736 0
M  V30 19128 H 1830.21 -3.93077 1.40701 0
M  V30 19129 H 1831.6 -3.93158 5.44863 0
M  V30 19130 N 1834.32 -1.24018 -0.972487 0
M  V30 19131 C 1835.6 -0.985099 -1.68983 0
M  V30 19132 C 1835.98 0.494006 -2.05238 0
M  V30 19133 O 1835.33 1.46715 -1.75177 0
M  V30 19134 C 1835.54 -1.90324 -2.92537 0
M  V30 19135 C 1836.89 -2.17134 -3.64881 0
M  V30 19136 O 1837.91 -1.87938 -3.02585 0
M  V30 19137 O 1836.77 -2.66691 -4.7701 0
M  V30 19138 H 1833.86 -0.372172 -0.738524 0
M  V30 19139 H 1836.41 -1.35095 -1.027 0
M  V30 19140 H 1835.18 -2.90278 -2.62401 0
M  V30 19141 H 1834.8 -1.54025 -3.66554 0
M  V30 19142 N 1835.8 1.17245 -1.05316 0
M  V30 19143 C 1837.03 1.91995 -0.784387 0
M  V30 19144 C 1837.45 1.76362 0.65408 0
M  V30 19145 O 1836.81 1.0822 1.45458 0
M  V30 19146 C 1836.86 3.41043 -1.1714 0
M  V30 19147 O 1835.96 4.11276 -0.304285 0
M  V30 19148 H 1835.3 0.598516 -0.287532 0
M  V30 19149 H 1837.83 1.48604 -1.40634 0
M  V30 19150 H 1837.84 3.91788 -1.13871 0
M  V30 19151 H 1836.52 3.51742 -2.21924 0
M  V30 19152 H 1835.09 3.70773 -0.39769 0
M  V30 19153 N 1837.28 0.834353 1.33702 0
M  V30 19154 C 1838.21 0.221764 2.28125 0
M  V30 19155 C 1839.22 -0.594917 1.51541 0
M  V30 19156 O 1840.41 -0.422726 1.73422 0
M  V30 19157 C 1837.51 -0.706778 3.31448 0
M  V30 19158 C 1836.69 0.0695756 4.37345 0
M  V30 19159 C 1835.74 -0.781623 5.20362 0
M  V30 19160 O 1834.77 -0.222459 5.68765 0
M  V30 19161 N 1835.97 -2.09968 5.41197 0
M  V30 19162 H 1838.74 1.03303 2.81333 0
M  V30 19163 H 1836.3 0.692389 1.46348 0
M  V30 19164 H 1838.29 -1.28109 3.83888 0
M  V30 19165 H 1836.86 -1.41877 2.78549 0
M  V30 19166 H 1836.08 0.825247 3.85465 0
M  V30 19167 H 1837.37 0.603576 5.05207 0
M  V30 19168 H 1836.77 -2.57756 5.03565 0
M  V30 19169 H 1835.32 -2.62258 5.96711 0
M  V30 19170 N 1838.76 -1.46125 0.590367 0
M  V30 19171 C 1839.7 -2.32108 -0.151168 0
M  V30 19172 C 1840.7 -1.44943 -0.876804 0
M  V30 19173 O 1841.9 -1.61526 -0.794323 0
M  V30 19174 H 1838.28 -0.748954 -0.0676159 0
M  V30 19175 H 1840.25 -2.92454 0.592723 0
M  V30 19176 C 1839 -3.28253 -1.14653 0
M  V30 19177 H 1838.32 -3.95309 -0.597597 0
M  V30 19178 H 1839.76 -3.91181 -1.63564 0
M  V30 19179 C 1838.22 -2.54162 -2.21141 0
M  V30 19180 O 1838.75 -2.31029 -3.28616 0
M  V30 19181 N 1836.96 -2.14592 -1.95956 0
M  V30 19182 H 1836.5 -2.33606 -1.08564 0
M  V30 19183 H 1836.46 -1.65339 -2.67414 0
M  V30 19184 N 1840.23 -0.328564 -1.54137 0
M  V30 19185 C 1841.17 0.577788 -2.20764 0
M  V30 19186 C 1842.15 1.11189 -1.18642 0
M  V30 19187 O 1843.33 1.17496 -1.47401 0
M  V30 19188 C 1840.46 1.79333 -2.87328 0
M  V30 19189 C 1839.5 1.39003 -4.03213 0
M  V30 19190 S 1840.34 0.422499 -5.33831 0
M  V30 19191 C 1841.49 1.64521 -6.0389 0
M  V30 19192 H 1841.72 0.0118326 -2.97298 0
M  V30 19193 H 1839.26 -0.112643 -1.53989 0
M  V30 19194 H 1841.22 2.49076 -3.263 0
M  V30 19195 H 1839.88 2.33048 -2.10589 0
M  V30 19196 H 1839.07 2.29593 -4.48668 0
M  V30 19197 H 1838.67 0.77225 -3.6594 0
M  V30 19198 H 1840.96 2.58192 -6.26373 0
M  V30 19199 H 1841.91 1.23272 -6.97287 0
M  V30 19200 H 1842.31 1.83446 -5.33861 0
M  V30 19201 N 1841.71 1.57497 -0.0568439 0
M  V30 19202 C 1842.64 2.14892 0.913427 0
M  V30 19203 C 1843.62 1.07205 1.32065 0
M  V30 19204 O 1844.81 1.35172 1.39435 0
M  V30 19205 C 1841.94 2.69849 2.18629 0
M  V30 19206 C 1840.89 3.8257 1.91896 0
M  V30 19207 C 1840.22 4.24068 3.25685 0
M  V30 19208 C 1841.52 5.07463 1.23606 0
M  V30 19209 H 1843.21 2.96218 0.435347 0
M  V30 19210 H 1840.76 1.4249 0.20796 0
M  V30 19211 H 1842.71 3.08643 2.86911 0
M  V30 19212 H 1841.44 1.85723 2.68653 0
M  V30 19213 H 1840.09 3.44258 1.26024 0
M  V30 19214 H 1839.74 3.36884 3.73521 0
M  V30 19215 H 1839.44 5.00043 3.08594 0
M  V30 19216 H 1840.97 4.65466 3.95189 0
M  V30 19217 H 1842.38 5.43667 1.81931 0
M  V30 19218 H 1840.78 5.88619 1.16823 0
M  V30 19219 H 1841.85 4.84432 0.212918 0
M  V30 19220 N 1843.19 -0.216591 1.56105 0
M  V30 19221 C 1844.61 -0.56651 1.49207 0
M  V30 19222 C 1844.81 -1.86906 0.752882 0
M  V30 19223 O 1843.86 -2.50776 0.294573 0
M  V30 19224 C 1845.18 -0.641146 2.93785 0
M  V30 19225 C 1846.72 -0.731439 3.04334 0
M  V30 19226 C 1847.2 -0.837376 4.5028 0
M  V30 19227 N 1848.69 -0.901468 4.54343 0
M  V30 19228 C 1849.42 -1.00323 5.64555 0
M  V30 19229 N 1848.92 -1.06864 6.84509 0
M  V30 19230 N 1850.71 -1.03876 5.52419 0
M  V30 19231 H 1842.86 0.638091 2.02589 0
M  V30 19232 H 1845.13 0.224543 0.921024 0
M  V30 19233 H 1844.83 0.246454 3.50835 0
M  V30 19234 H 1844.71 -1.5031 3.45958 0
M  V30 19235 H 1847.09 -1.60948 2.47346 0
M  V30 19236 H 1847.18 0.15628 2.55322 0
M  V30 19237 H 1846.82 0.0362262 5.07887 0
M  V30 19238 H 1846.75 -1.74058 4.97002 0
M  V30 19239 H 1849.24 -0.861039 3.6796 0
M  V30 19240 H 1849.55 -1.1462 7.64253 0
M  V30 19241 H 1847.9 -1.03768 6.8721 0
M  V30 19242 H 1851.09 -0.984348 4.57633 0
M  V30 19243 H 1851.26 -1.11461 6.38342 0
M  V30 19244 N 1844.67 -1.5 -0.48349 0
M  V30 19245 C 1845.92 -1.60052 -1.23401 0
M  V30 19246 C 1846.24 -0.297159 -1.92723 0
M  V30 19247 O 1845.51 0.684629 -1.83547 0
M  V30 19248 H 1844.09 -0.589753 -0.458477 0
M  V30 19249 H 1846.75 -1.86716 -0.558835 0
M  V30 19250 H 1845.85 -2.40545 -1.98858 0
M  V30 19251 N 1846.15 0.735796 -1.39369 0
M  V30 19252 C 1847.06 1.88026 -1.40298 0
M  V30 19253 C 1848.07 1.71431 -0.297878 0
M  V30 19254 O 1849.25 1.94047 -0.539219 0
M  V30 19255 C 1846.31 3.23607 -1.24415 0
M  V30 19256 C 1845.37 3.52601 -2.4489 0
M  V30 19257 C 1844.61 4.81714 -2.29755 0
M  V30 19258 O 1844.83 5.55374 -1.30061 0
M  V30 19259 O 1843.76 5.10588 -3.18722 0
M  V30 19260 H 1847.59 1.90197 -2.36767 0
M  V30 19261 H 1845.18 0.883504 -1.20476 0
M  V30 19262 H 1847.06 4.04633 -1.17688 0
M  V30 19263 H 1845.73 3.22208 -0.310409 0
M  V30 19264 H 1844.64 2.71665 -2.57194 0
M  V30 19265 H 1845.97 3.58778 -3.36955 0
M  V30 19266 N 1847.63 1.24532 0.965897 0
M  V30 19267 C 1848.9 0.994047 1.68458 0
M  V30 19268 C 1849.28 -0.483115 2.05497 0
M  V30 19269 O 1848.63 -1.45784 1.75953 0
M  V30 19270 C 1848.84 1.91872 2.91524 0
M  V30 19271 C 1850.19 2.19066 3.63724 0
M  V30 19272 O 1851.21 1.8954 3.01584 0
M  V30 19273 O 1850.07 2.69217 4.75589 0
M  V30 19274 H 1847.17 0.376083 0.73654 0
M  V30 19275 H 1849.71 1.35638 1.01982 0
M  V30 19276 H 1848.48 2.91665 2.60858 0
M  V30 19277 H 1848.11 1.55966 3.65732 0
M  V30 19278 N 1849.1 -1.16685 1.05936 0
M  V30 19279 C 1850.04 -2.19862 0.611219 0
M  V30 19280 C 1851.01 -1.58471 -0.364111 0
M  V30 19281 O 1852.2 -1.86499 -0.273946 0
M  V30 19282 C 1849.33 -3.38539 -0.104458 0
M  V30 19283 C 1848.37 -4.18404 0.82706 0
M  V30 19284 S 1849.2 -4.82619 2.32034 0
M  V30 19285 C 1850.36 -6.04677 1.61605 0
M  V30 19286 H 1850.59 -2.57535 1.48536 0
M  V30 19287 H 1848.13 -1.27418 0.872005 0
M  V30 19288 H 1850.08 -4.07305 -0.511162 0
M  V30 19289 H 1848.75 -2.99238 -0.954736 0
M  V30 19290 H 1847.94 -5.03261 0.272804 0
M  V30 19291 H 1847.54 -3.55113 1.17348 0
M  V30 19292 H 1849.83 -6.7123 0.919598 0
M  V30 19293 H 1850.78 -6.64645 2.44238 0
M  V30 19294 H 1851.18 -5.53675 1.1002 0
M  V30 19295 N 1850.58 -0.841432 -1.33258 0
M  V30 19296 C 1851.81 -0.45101 -2.02437 0
M  V30 19297 C 1852.23 0.940811 -1.62881 0
M  V30 19298 O 1851.59 1.61559 -0.82271 0
M  V30 19299 C 1851.64 -0.58237 -3.55866 0
M  V30 19300 O 1850.74 0.390326 -4.10549 0
M  V30 19301 H 1850.08 -0.182996 -0.638285 0
M  V30 19302 H 1852.61 -1.13697 -1.701 0
M  V30 19303 H 1852.62 -0.464967 -4.05342 0
M  V30 19304 H 1851.3 -1.59739 -3.84 0
M  V30 19305 H 1849.87 0.230266 -3.72188 0
M  V30 19306 N 1852.06 1.4581 -0.598108 0
M  V30 19307 C 1853.31 2.02302 -0.0896112 0
M  V30 19308 C 1853.63 1.46772 1.27625 0
M  V30 19309 O 1852.89 0.628712 1.85326 0
M  V30 19310 C 1853.19 3.57399 0.00976809 0
M  V30 19311 C 1852.85 4.32038 -1.29051 0
M  V30 19312 C 1851.52 4.52147 -1.64671 0
M  V30 19313 C 1853.87 4.74776 -2.15028 0
M  V30 19314 C 1851.2 5.12249 -2.86038 0
M  V30 19315 C 1853.55 5.3622 -3.35635 0
M  V30 19316 C 1852.21 5.54554 -3.71519 0
M  V30 19317 H 1851.48 0.740274 -0.0327911 0
M  V30 19318 H 1854.13 1.74992 -0.77783 0
M  V30 19319 H 1852.43 3.83933 0.781201 0
M  V30 19320 H 1854.13 3.98803 0.419212 0
M  V30 19321 H 1850.72 4.16693 -1.00324 0
M  V30 19322 H 1854.91 4.58982 -1.8881 0
M  V30 19323 H 1850.16 5.24633 -3.13958 0
M  V30 19324 H 1854.34 5.68292 -4.02514 0
M  V30 19325 H 1851.96 6.00894 -4.65651 0
M  V30 19326 N 1853.54 0.336733 1.53961 0
M  V30 19327 C 1854.47 -0.515664 2.27735 0
M  V30 19328 C 1855.45 -1.10835 1.29033 0
M  V30 19329 O 1856.63 -1.13102 1.57866 0
M  V30 19330 C 1853.76 -1.67015 3.04505 0
M  V30 19331 C 1852.72 -1.20613 4.10654 0
M  V30 19332 C 1852.04 -2.44861 4.75339 0
M  V30 19333 C 1853.34 -0.311507 5.2137 0
M  V30 19334 H 1855.04 0.0997513 2.99234 0
M  V30 19335 H 1852.58 0.0494157 1.43915 0
M  V30 19336 H 1854.54 -2.27286 3.54851 0
M  V30 19337 H 1853.26 -2.31236 2.30646 0
M  V30 19338 H 1851.92 -0.62628 3.61211 0
M  V30 19339 H 1851.57 -3.07474 3.98081 0
M  V30 19340 H 1851.27 -2.14498 5.47051 0
M  V30 19341 H 1852.79 -3.0587 5.28466 0
M  V30 19342 H 1854.21 -0.820868 5.67393 0
M  V30 19343 H 1852.6 -0.100073 6.00017 0
M  V30 19344 H 1853.67 0.654181 4.80467 0
M  V30 19345 N 1855.02 -1.57465 0.0651956 0
M  V30 19346 C 1855.93 -2.15841 -0.919235 0
M  V30 19347 C 1856.94 -1.11984 -1.33175 0
M  V30 19348 O 1858.12 -1.44219 -1.4058 0
M  V30 19349 C 1855.18 -2.7032 -2.1709 0
M  V30 19350 C 1854.24 -3.89026 -1.81542 0
M  V30 19351 C 1853.48 -4.40897 -3.00742 0
M  V30 19352 O 1853.7 -3.91792 -4.14555 0
M  V30 19353 O 1852.63 -5.32312 -2.80941 0
M  V30 19354 H 1856.46 -3.00307 -0.452704 0
M  V30 19355 H 1854.04 -1.48567 -0.157504 0
M  V30 19356 H 1855.93 -3.05266 -2.90501 0
M  V30 19357 H 1854.6 -1.88917 -2.62854 0
M  V30 19358 H 1853.51 -3.58944 -1.05404 0
M  V30 19359 H 1854.84 -4.71701 -1.40567 0
M  V30 19360 N 1856.49 0.20831 -1.56217 0
M  V30 19361 C 1857.44 1.2582 -1.93489 0
M  V30 19362 C 1858.41 1.45907 -0.793748 0
M  V30 19363 O 1859.6 1.59258 -1.05078 0
M  V30 19364 C 1856.74 2.60077 -2.26835 0
M  V30 19365 C 1855.85 2.47678 -3.53948 0
M  V30 19366 C 1854.98 3.74549 -3.76678 0
M  V30 19367 C 1854.02 3.56928 -4.97261 0
M  V30 19368 N 1853.16 4.75779 -5.16313 0
M  V30 19369 H 1858 0.933346 -2.83006 0
M  V30 19370 H 1855.54 0.449531 -1.40063 0
M  V30 19371 H 1857.49 3.38277 -2.44181 0
M  V30 19372 H 1856.12 2.90632 -1.40474 0
M  V30 19373 H 1855.18 1.60844 -3.44722 0
M  V30 19374 H 1856.49 2.30585 -4.42303 0
M  V30 19375 H 1855.64 4.61191 -3.94193 0
M  V30 19376 H 1854.38 3.94582 -2.86629 0
M  V30 19377 H 1853.39 2.6867 -4.79683 0
M  V30 19378 H 1854.61 3.38353 -5.88808 0
M  V30 19379 H 1852.56 4.96101 -4.29209 0
M  V30 19380 H 1852.47 4.61462 -5.98823 0
M  V30 19381 H 1853.74 5.6381 -5.38274 0
M  V30 19382 N 1857.97 1.50255 0.475528 0
M  V30 19383 C 1859.25 1.51537 1.23676 0
M  V30 19384 C 1859.63 0.257508 2.09524 0
M  V30 19385 O 1858.98 -0.759242 2.15517 0
M  V30 19386 C 1859.19 2.80865 2.07162 0
M  V30 19387 C 1860.53 3.31353 2.655 0
M  V30 19388 O 1861.56 2.82156 2.17408 0
M  V30 19389 O 1860.42 4.17102 3.53112 0
M  V30 19390 H 1857.51 0.607633 0.560991 0
M  V30 19391 H 1860.06 1.62541 0.487712 0
M  V30 19392 H 1858.83 3.63891 1.43871 0
M  V30 19393 H 1858.45 2.72844 2.89209 0
M  V30 19394 N 1859.45 -0.728395 1.39758 0
M  V30 19395 C 1860.41 -1.82415 1.38772 0
M  V30 19396 C 1861.41 -1.58278 0.283678 0
M  V30 19397 O 1862.6 -1.65556 0.541927 0
M  V30 19398 C 1859.73 -3.20309 1.16684 0
M  V30 19399 H 1860.93 -1.8469 2.36283 0
M  V30 19400 H 1858.48 -0.932729 1.25419 0
M  V30 19401 H 1859.22 -3.2369 0.198817 0
M  V30 19402 H 1859 -3.39226 1.96643 0
M  V30 19403 H 1860.49 -4.0036 1.18751 0
M  V30 19404 N 1860.93 -1.25042 -0.959279 0
M  V30 19405 C 1862.34 -1.08692 -1.51799 0
M  V30 19406 C 1862.69 0.338893 -1.93251 0
M  V30 19407 O 1861.81 1.22831 -1.78162 0
M  V30 19408 C 1862.41 -1.9669 -2.7586 0
M  V30 19409 C 1860.97 -1.84538 -3.28059 0
M  V30 19410 C 1860.12 -1.91119 -2.0092 0
M  V30 19411 H 1863.07 -1.38396 -0.776669 0
M  V30 19412 H 1863.09 -1.50414 -3.49508 0
M  V30 19413 H 1862.6 -3.00455 -2.45659 0
M  V30 19414 H 1860.7 -0.836383 -3.63091 0
M  V30 19415 H 1860.81 -2.69095 -3.96389 0
M  V30 19416 H 1859.18 -1.34948 -2.16012 0
M  V30 19417 H 1859.96 -2.9648 -1.73074 0
M  V30 19418 N 1862.41 1.16121 -1.06553 0
M  V30 19419 C 1863.64 1.90335 -0.803506 0
M  V30 19420 C 1864.04 1.77824 0.646172 0
M  V30 19421 O 1863.39 1.12231 1.4543 0
M  V30 19422 C 1863.45 3.41537 -1.12219 0
M  V30 19423 C 1863.11 3.77833 -2.57082 0
M  V30 19424 C 1864.11 3.79533 -3.55318 0
M  V30 19425 C 1861.8 4.08385 -2.92449 0
M  V30 19426 C 1863.79 4.11277 -4.8696 0
M  V30 19427 C 1861.48 4.39795 -4.24291 0
M  V30 19428 C 1862.47 4.41221 -5.21357 0
M  V30 19429 O 1862.16 4.71883 -6.50831 0
M  V30 19430 H 1861.89 0.610323 -0.290658 0
M  V30 19431 H 1864.45 1.48107 -1.42315 0
M  V30 19432 H 1862.68 3.84125 -0.445483 0
M  V30 19433 H 1864.37 3.97029 -0.843985 0
M  V30 19434 H 1865.13 3.56038 -3.29336 0
M  V30 19435 H 1861.01 4.06439 -2.17551 0
M  V30 19436 H 1864.56 4.12305 -5.62717 0
M  V30 19437 H 1860.45 4.62756 -4.5003 0
M  V30 19438 H 1861.22 4.89683 -6.5586 0
M  V30 19439 N 1863.88 0.848487 1.3281 0
M  V30 19440 C 1864.82 0.233527 2.27002 0
M  V30 19441 C 1865.8 -0.624927 1.50111 0
M  V30 19442 O 1866.98 -0.583083 1.79255 0
M  V30 19443 C 1864.11 -0.671187 3.31983 0
M  V30 19444 C 1863.15 0.113068 4.2635 0
M  V30 19445 S 1863.99 1.47738 5.14717 0
M  V30 19446 C 1865.14 0.578218 6.23223 0
M  V30 19447 H 1865.37 1.03203 2.78813 0
M  V30 19448 H 1862.91 0.645772 1.40247 0
M  V30 19449 H 1864.87 -1.18754 3.92948 0
M  V30 19450 H 1863.53 -1.44344 2.78969 0
M  V30 19451 H 1862.72 -0.575751 5.00701 0
M  V30 19452 H 1862.32 0.560799 3.69772 0
M  V30 19453 H 1864.61 -0.220055 6.77143 0
M  V30 19454 H 1865.56 1.29218 6.9621 0
M  V30 19455 H 1865.96 0.155296 5.64286 0
M  V30 19456 N 1865.36 -1.4549 0.605832 0
M  V30 19457 C 1866.61 -2.02551 0.100487 0
M  V30 19458 C 1866.94 -1.47346 -1.26502 0
M  V30 19459 O 1866.22 -0.647471 -1.83407 0
M  V30 19460 C 1866.5 -3.60051 0.0596664 0
M  V30 19461 C 1866.35 -4.25592 1.45572 0
M  V30 19462 C 1867.67 -4.35581 -0.629073 0
M  V30 19463 H 1864.79 -0.73602 0.0379904 0
M  V30 19464 H 1867.43 -1.73365 0.777468 0
M  V30 19465 H 1865.58 -3.85047 -0.516838 0
M  V30 19466 H 1867.25 -4.11787 2.07916 0
M  V30 19467 H 1865.5 -3.84061 2.01692 0
M  V30 19468 H 1866.17 -5.34487 1.37941 0
M  V30 19469 H 1868.64 -4.15868 -0.139076 0
M  V30 19470 H 1867.52 -5.4531 -0.626735 0
M  V30 19471 H 1867.78 -4.08323 -1.69483 0
M  V30 19472 N 1866.84 -0.344893 -1.5378 0
M  V30 19473 C 1868.09 0.250711 -2.00539 0
M  V30 19474 C 1868.41 1.5096 -1.23435 0
M  V30 19475 O 1867.68 1.92893 -0.341893 0
M  V30 19476 H 1866.26 0.0956318 -0.740853 0
M  V30 19477 H 1868.92 -0.466361 -1.89238 0
M  V30 19478 H 1868.02 0.49222 -3.08194 0
M  V30 19479 N 1868.32 1.57428 -0.0735454 0
M  V30 19480 C 1869.6 1.84962 0.636265 0
M  V30 19481 C 1869.98 0.966341 1.87683 0
M  V30 19482 O 1869.32 0.0330837 2.28476 0
M  V30 19483 C 1869.53 3.35184 0.972251 0
M  V30 19484 C 1870.88 4.02735 1.34499 0
M  V30 19485 O 1871.91 3.3994 1.06393 0
M  V30 19486 O 1870.76 5.13495 1.87043 0
M  V30 19487 H 1867.86 0.764169 0.316187 0
M  V30 19488 H 1870.4 1.69377 -0.104609 0
M  V30 19489 H 1869.18 3.91194 0.0912319 0
M  V30 19490 H 1868.8 3.56038 1.76983 0
M  V30 19491 N 1869.8 -0.200022 1.56326 0
M  V30 19492 C 1871.04 -0.922539 1.80602 0
M  V30 19493 C 1871.38 -1.83113 0.646781 0
M  V30 19494 O 1870.65 -1.91271 -0.352928 0
M  V30 19495 C 1870.93 -1.74301 3.15105 0
M  V30 19496 C 1870.79 -0.859471 4.41512 0
M  V30 19497 C 1872.11 -2.71658 3.46251 0
M  V30 19498 H 1869.22 -0.333949 0.656999 0
M  V30 19499 H 1871.87 -0.190177 1.89046 0
M  V30 19500 H 1870.02 -2.36739 3.08037 0
M  V30 19501 H 1871.69 -0.250183 4.60621 0
M  V30 19502 H 1869.93 -0.165935 4.33483 0
M  V30 19503 H 1870.6 -1.46842 5.3211 0
M  V30 19504 H 1873.08 -2.19353 3.53586 0
M  V30 19505 H 1871.95 -3.26152 4.41493 0
M  V30 19506 H 1872.22 -3.50462 2.69497 0
M  V30 19507 N 1871.27 -1.50505 -0.467553 0
M  V30 19508 C 1872.52 -1.60911 -1.21617 0
M  V30 19509 C 1872.84 -0.31663 -1.9302 0
M  V30 19510 O 1874.04 -0.299645 -2.69841 0
M  V30 19511 C 1872.5 -2.84052 -2.21003 0
M  V30 19512 C 1872.11 -4.20189 -1.55386 0
M  V30 19513 C 1873.85 -3.03805 -2.96484 0
M  V30 19514 C 1871.76 -5.34514 -2.5308 0
M  V30 19515 H 1870.69 -0.59924 -0.457633 0
M  V30 19516 H 1873.34 -1.7694 -0.486276 0
M  V30 19517 H 1871.72 -2.6159 -2.97299 0
M  V30 19518 H 1872.89 -4.5292 -0.848552 0
M  V30 19519 H 1871.21 -4.0607 -0.921725 0
M  V30 19520 H 1873.81 -3.86387 -3.69606 0
M  V30 19521 H 1874.15 -2.15672 -3.56078 0
M  V30 19522 H 1874.68 -3.26465 -2.27301 0
M  V30 19523 H 1871.42 -6.24811 -1.9822 0
M  V30 19524 H 1870.94 -5.06197 -3.21752 0
M  V30 19525 H 1872.62 -5.65232 -3.14836 0
M  V30 19526 N 1872.75 0.720973 -1.40142 0
M  V30 19527 C 1873.98 1.51012 -1.41431 0
M  V30 19528 C 1874.4 1.88796 -0.0125516 0
M  V30 19529 O 1873.75 1.55073 0.962217 0
M  V30 19530 C 1873.8 2.78886 -2.3001 0
M  V30 19531 O 1873.52 2.42703 -3.64729 0
M  V30 19532 C 1875.03 3.7282 -2.39834 0
M  V30 19533 H 1872.25 0.466214 -0.482582 0
M  V30 19534 H 1874.79 0.889777 -1.84128 0
M  V30 19535 H 1872.94 3.37219 -1.90689 0
M  V30 19536 H 1873.36 3.24945 -4.11717 0
M  V30 19537 H 1874.83 4.594 -3.06032 0
M  V30 19538 H 1875.31 4.15552 -1.42173 0
M  V30 19539 H 1875.92 3.20402 -2.79684 0
M  V30 19540 N 1874.23 1.25549 0.952634 0
M  V30 19541 C 1875.46 1.13262 1.73743 0
M  V30 19542 C 1875.88 -0.309507 1.85536 0
M  V30 19543 O 1875.24 -1.22422 1.33726 0
M  V30 19544 C 1875.29 1.79395 3.12809 0
M  V30 19545 O 1874.39 1.07496 3.98144 0
M  V30 19546 H 1873.73 0.395314 0.5335 0
M  V30 19547 H 1876.26 1.66151 1.19394 0
M  V30 19548 H 1876.27 1.85761 3.63259 0
M  V30 19549 H 1874.95 2.84316 3.03542 0
M  V30 19550 H 1873.52 1.09025 3.56606 0
M  V30 19551 N 1875.71 -1.15554 1.07168 0
M  V30 19552 C 1876.96 -1.85928 0.792151 0
M  V30 19553 C 1877.28 -1.82621 -0.68372 0
M  V30 19554 O 1876.55 -1.26585 -1.49509 0
M  V30 19555 H 1875.13 -0.688393 0.290043 0
M  V30 19556 H 1877.79 -1.40089 1.35503 0
M  V30 19557 H 1876.89 -2.91119 1.125 0
M  V30 19558 N 1877.19 -0.855519 -1.32358 0
M  V30 19559 C 1878.46 -0.380575 -1.91862 0
M  V30 19560 C 1878.84 1.13593 -1.77932 0
M  V30 19561 O 1878.19 1.95797 -1.17796 0
M  V30 19562 C 1878.4 -0.845902 -3.38593 0
M  V30 19563 C 1879.75 -0.863586 -4.15725 0
M  V30 19564 O 1880.77 -0.790597 -3.47315 0
M  V30 19565 O 1879.63 -0.966658 -5.37883 0
M  V30 19566 H 1876.73 -0.111156 -0.819496 0
M  V30 19567 H 1879.27 -0.942476 -1.41122 0
M  V30 19568 H 1878.05 -1.88909 -3.42679 0
M  V30 19569 H 1877.67 -0.2615 -3.96739 0
M  V30 19570 N 1878.67 1.45167 -0.61354 0
M  V30 19571 C 1879.91 2.01407 -0.10861 0
M  V30 19572 C 1880.23 1.48701 1.27072 0
M  V30 19573 O 1881.43 1.96956 1.8687 0
M  V30 19574 C 1879.89 3.59614 -0.143466 0
M  V30 19575 C 1879.5 4.21317 -1.52302 0
M  V30 19576 C 1881.24 4.23396 0.305912 0
M  V30 19577 C 1879.15 5.71694 -1.51393 0
M  V30 19578 H 1878.08 0.7531 -0.0368359 0
M  V30 19579 H 1880.73 1.66575 -0.769748 0
M  V30 19580 H 1879.11 3.91664 0.584438 0
M  V30 19581 H 1880.29 4.00832 -2.2731 0
M  V30 19582 H 1878.6 3.69753 -1.91499 0
M  V30 19583 H 1881.2 5.33668 0.331977 0
M  V30 19584 H 1881.54 3.9449 1.32978 0
M  V30 19585 H 1882.07 3.96086 -0.36892 0
M  V30 19586 H 1878.81 6.05308 -2.5156 0
M  V30 19587 H 1878.33 5.94353 -0.80652 0
M  V30 19588 H 1880.01 6.35003 -1.24017 0
M  V30 19589 N 1880.14 0.353044 1.53595 0
M  V30 19590 C 1881.37 -0.241665 2.05484 0
M  V30 19591 C 1881.79 -1.43458 1.2274 0
M  V30 19592 O 1881.14 -1.80566 0.26501 0
M  V30 19593 C 1881.19 -0.647442 3.55655 0
M  V30 19594 O 1880.92 0.498047 4.3526 0
M  V30 19595 C 1882.42 -1.30187 4.23753 0
M  V30 19596 H 1879.64 -0.0449704 0.669491 0
M  V30 19597 H 1882.18 0.507783 1.98095 0
M  V30 19598 H 1880.34 -1.34682 3.63235 0
M  V30 19599 H 1880.75 0.172685 5.24216 0
M  V30 19600 H 1882.22 -1.53646 5.30186 0
M  V30 19601 H 1882.7 -2.25835 3.7669 0
M  V30 19602 H 1883.31 -0.644265 4.20392 0
M  V30 19603 N 1881.62 -1.57387 0.0818932 0
M  V30 19604 C 1882.86 -1.95747 -0.58843 0
M  V30 19605 C 1883.23 -0.961967 -1.66163 0
M  V30 19606 O 1884.43 -1.23358 -2.38822 0
M  V30 19607 C 1882.7 -3.38689 -1.14126 0
M  V30 19608 S 1884.26 -3.99034 -1.8253 0
M  V30 19609 H 1881.07 -0.684474 -0.192395 0
M  V30 19610 H 1883.68 -1.94859 0.158155 0
M  V30 19611 H 1882.38 -4.08918 -0.348477 0
M  V30 19612 H 1881.91 -3.43143 -1.92397 0
M  V30 19613 H 1883.93 -3.86762 -3.10854 0
M  V30 19614 N 1883.1 0.191729 -1.56429 0
M  V30 19615 C 1884.35 0.912948 -1.81089 0
M  V30 19616 C 1884.68 1.82767 -0.656483 0
M  V30 19617 O 1883.95 1.91456 0.342779 0
M  V30 19618 C 1884.24 1.72628 -3.16025 0
M  V30 19619 C 1884.09 0.836045 -4.41962 0
M  V30 19620 C 1885.41 2.69818 -3.47687 0
M  V30 19621 H 1882.53 0.33046 -0.658761 0
M  V30 19622 H 1885.17 0.180148 -1.89144 0
M  V30 19623 H 1883.32 2.35102 -3.09289 0
M  V30 19624 H 1884.99 0.225751 -4.60747 0
M  V30 19625 H 1883.23 0.142944 -4.33564 0
M  V30 19626 H 1883.91 1.44019 -5.32881 0
M  V30 19627 H 1886.38 2.17475 -3.54745 0
M  V30 19628 H 1885.26 3.23806 -4.43216 0
M  V30 19629 H 1885.52 3.49028 -2.71352 0
M  V30 19630 N 1884.58 1.50751 0.459565 0
M  V30 19631 C 1885.82 1.62556 1.21258 0
M  V30 19632 C 1886.16 0.330265 1.91371 0
M  V30 19633 O 1885.43 -0.668955 1.82634 0
M  V30 19634 C 1885.71 2.8138 2.24716 0
M  V30 19635 C 1885.57 4.20823 1.58832 0
M  V30 19636 C 1886.89 2.95744 3.2592 0
M  V30 19637 H 1884.01 0.591628 0.439483 0
M  V30 19638 H 1886.65 1.83172 0.504777 0
M  V30 19639 H 1884.8 2.63933 2.85082 0
M  V30 19640 H 1886.47 4.49888 1.01975 0
M  V30 19641 H 1884.71 4.24548 0.891148 0
M  V30 19642 H 1885.38 4.99915 2.3407 0
M  V30 19643 H 1887.86 3.11754 2.75588 0
M  V30 19644 H 1886.74 3.80488 3.95626 0
M  V30 19645 H 1887 2.06852 3.90723 0
M  V30 19646 N 1886.06 -0.713531 1.40522 0
M  V30 19647 C 1887.3 -1.46899 1.38216 0
M  V30 19648 C 1887.62 -1.95596 -0.011831 0
M  V30 19649 O 1888.82 -2.71043 -0.157513 0
M  V30 19650 C 1887.28 -2.65544 2.42929 0
M  V30 19651 C 1886.89 -2.23707 3.88148 0
M  V30 19652 C 1888.63 -3.4327 2.49732 0
M  V30 19653 C 1886.54 -3.39203 4.84453 0
M  V30 19654 H 1885.47 -0.551718 0.513929 0
M  V30 19655 H 1888.12 -0.776357 1.66268 0
M  V30 19656 H 1886.5 -3.36987 2.0798 0
M  V30 19657 H 1887.68 -1.5967 4.32252 0
M  V30 19658 H 1885.99 -1.59021 3.84839 0
M  V30 19659 H 1888.59 -4.29215 3.18871 0
M  V30 19660 H 1888.93 -3.87225 1.52848 0
M  V30 19661 H 1889.46 -2.78871 2.83683 0
M  V30 19662 H 1886.2 -3.00278 5.82678 0
M  V30 19663 H 1885.72 -4.02149 4.45012 0
M  V30 19664 H 1887.4 -4.0524 5.04371 0
M  V30 19665 N 1887.53 -1.26053 -0.945962 0
M  V30 19666 C 1888.94 -1.10296 -1.50638 0
M  V30 19667 C 1889.3 0.318377 -1.936 0
M  V30 19668 O 1888.42 1.20934 -1.79454 0
M  V30 19669 C 1889.02 -1.99604 -2.73758 0
M  V30 19670 C 1887.57 -1.88007 -3.26083 0
M  V30 19671 C 1886.72 -1.93239 -1.98882 0
M  V30 19672 H 1889.67 -1.39212 -0.761946 0
M  V30 19673 H 1889.69 -1.54113 -3.47893 0
M  V30 19674 H 1889.21 -3.03044 -2.42459 0
M  V30 19675 H 1887.31 -0.874846 -3.62184 0
M  V30 19676 H 1887.42 -2.73285 -3.93513 0
M  V30 19677 H 1885.78 -1.37231 -2.14568 0
M  V30 19678 H 1886.57 -2.98299 -1.6992 0
M  V30 19679 N 1889.01 1.14984 -1.07779 0
M  V30 19680 C 1890.24 1.90288 -0.824935 0
M  V30 19681 C 1890.66 1.77709 0.616524 0
M  V30 19682 O 1890.02 1.11281 1.4313 0
M  V30 19683 C 1890.07 3.38482 -1.24348 0
M  V30 19684 O 1889.17 4.10538 -0.391454 0
M  V30 19685 H 1888.51 0.592283 -0.300162 0
M  V30 19686 H 1891.04 1.45588 -1.43755 0
M  V30 19687 H 1891.05 3.89284 -1.22155 0
M  V30 19688 H 1889.73 3.46956 -2.29335 0
M  V30 19689 H 1888.3 3.69846 -0.476247 0
M  V30 19690 N 1890.49 0.862526 1.31902 0
M  V30 19691 C 1891.44 0.31091 2.28696 0
M  V30 19692 C 1892.41 -0.586495 1.55401 0
M  V30 19693 O 1893.59 -0.519727 1.83585 0
M  V30 19694 C 1890.73 -0.487986 3.41632 0
M  V30 19695 C 1889.84 0.436096 4.29793 0
M  V30 19696 C 1888.98 -0.376197 5.29866 0
M  V30 19697 C 1888.02 0.544784 6.09671 0
M  V30 19698 N 1887.16 -0.230806 7.01721 0
M  V30 19699 H 1892 1.14156 2.75268 0
M  V30 19700 H 1889.53 0.574352 1.35424 0
M  V30 19701 H 1891.49 -0.966875 4.05842 0
M  V30 19702 H 1890.12 -1.28339 2.96191 0
M  V30 19703 H 1889.17 1.03341 3.66094 0
M  V30 19704 H 1890.48 1.14259 4.85537 0
M  V30 19705 H 1889.64 -0.917915 5.99716 0
M  V30 19706 H 1888.38 -1.11602 4.74759 0
M  V30 19707 H 1887.38 1.09832 5.38718 0
M  V30 19708 H 1888.61 1.28334 6.66864 0
M  V30 19709 H 1886.55 -0.95358 6.49032 0
M  V30 19710 H 1886.47 0.416499 7.54852 0
M  V30 19711 H 1887.74 -0.753996 7.75845 0
M  V30 19712 N 1891.97 -1.4484 0.62123 0
M  V30 19713 C 1892.92 -2.30626 -0.0895817 0
M  V30 19714 C 1893.89 -1.42906 -0.846593 0
M  V30 19715 O 1895.07 -1.7182 -0.829611 0
M  V30 19716 C 1892.21 -3.28032 -1.07188 0
M  V30 19717 C 1891.32 -4.30855 -0.314319 0
M  V30 19718 C 1890.46 -5.1536 -1.28755 0
M  V30 19719 C 1889.5 -6.09899 -0.518581 0
M  V30 19720 N 1888.63 -6.87137 -1.44178 0
M  V30 19721 H 1893.47 -2.90871 0.64793 0
M  V30 19722 H 1891.01 -1.4332 0.33131 0
M  V30 19723 H 1892.97 -3.82984 -1.65467 0
M  V30 19724 H 1891.6 -2.6951 -1.77664 0
M  V30 19725 H 1890.65 -3.78455 0.38422 0
M  V30 19726 H 1891.96 -4.97985 0.285042 0
M  V30 19727 H 1891.12 -5.7478 -1.94198 0
M  V30 19728 H 1889.86 -4.4828 -1.92084 0
M  V30 19729 H 1888.86 -5.49597 0.149399 0
M  V30 19730 H 1890.09 -6.79011 0.109851 0
M  V30 19731 H 1888.03 -6.22735 -2.06246 0
M  V30 19732 H 1887.95 -7.50669 -0.896192 0
M  V30 19733 H 1889.22 -7.51088 -2.08536 0
M  V30 19734 N 1893.45 -0.361184 -1.53405 0
M  V30 19735 C 1894.41 0.475026 -2.24223 0
M  V30 19736 C 1895.41 1.01331 -1.24855 0
M  V30 19737 O 1896.6 0.899756 -1.49164 0
M  V30 19738 C 1893.73 1.6635 -2.97557 0
M  V30 19739 H 1894.92 -0.144595 -2.99551 0
M  V30 19740 H 1892.48 -0.112802 -1.55892 0
M  V30 19741 H 1893.21 2.32133 -2.26461 0
M  V30 19742 H 1893 1.28454 -3.70462 0
M  V30 19743 H 1894.49 2.2562 -3.51405 0
M  V30 19744 N 1894.92 1.57341 -0.0902386 0
M  V30 19745 C 1896.17 1.93793 0.573474 0
M  V30 19746 C 1896.49 0.972444 1.69022 0
M  V30 19747 O 1895.76 0.0236753 1.95886 0
M  V30 19748 H 1894.34 0.715442 0.21483 0
M  V30 19749 H 1897.01 1.94303 -0.15243 0
M  V30 19750 H 1896.1 2.96088 0.986829 0
M  V30 19751 N 1896.4 -0.183431 1.56529 0
M  V30 19752 C 1897.65 -0.900214 1.80944 0
M  V30 19753 C 1897.97 -1.83302 0.665246 0
M  V30 19754 O 1897.24 -1.9334 -0.315697 0
M  V30 19755 H 1895.82 -0.335409 0.667465 0
M  V30 19756 H 1898.48 -0.186146 1.94009 0
M  V30 19757 H 1897.58 -1.48437 2.74541 0
M  V30 19758 N 1897.88 -1.50992 -0.451564 0
M  V30 19759 C 1899.11 -1.66741 -1.22495 0
M  V30 19760 C 1899.52 -0.358787 -1.8536 0
M  V30 19761 O 1898.88 0.661312 -1.70097 0
M  V30 19762 C 1898.93 -2.77281 -2.31943 0
M  V30 19763 O 1898.65 -4.03072 -1.71652 0
M  V30 19764 C 1900.15 -3.04175 -3.22479 0
M  V30 19765 H 1897.37 -0.55994 -0.369741 0
M  V30 19766 H 1899.92 -1.97329 -0.536785 0
M  V30 19767 H 1898.07 -2.49332 -2.965 0
M  V30 19768 H 1898.49 -4.64354 -2.43875 0
M  V30 19769 H 1899.96 -3.85137 -3.95441 0
M  V30 19770 H 1900.44 -2.16015 -3.82406 0
M  V30 19771 H 1901.04 -3.33729 -2.63638 0
M  V30 19772 N 1899.36 0.706069 -1.40899 0
M  V30 19773 C 1900.59 1.49504 -1.43025 0
M  V30 19774 C 1901 1.88772 -0.0325752 0
M  V30 19775 O 1900.36 1.56085 0.945716 0
M  V30 19776 C 1900.41 2.76431 -2.32955 0
M  V30 19777 O 1900.13 2.38821 -3.67282 0
M  V30 19778 C 1901.63 3.70255 -2.43774 0
M  V30 19779 H 1898.85 0.461069 -0.4875 0
M  V30 19780 H 1901.4 0.870198 -1.85062 0
M  V30 19781 H 1899.55 3.35177 -1.94255 0
M  V30 19782 H 1899.96 3.2056 -4.1514 0
M  V30 19783 H 1901.44 4.56129 -3.10887 0
M  V30 19784 H 1901.92 4.14021 -1.46573 0
M  V30 19785 H 1902.52 3.17417 -2.83066 0
M  V30 19786 N 1900.84 1.26553 0.939264 0
M  V30 19787 C 1901.75 1.10059 2.07181 0
M  V30 19788 C 1902.76 0.033599 1.73968 0
M  V30 19789 O 1903.94 0.237723 1.99992 0
M  V30 19790 C 1901 0.737342 3.38769 0
M  V30 19791 C 1900.06 1.88395 3.85753 0
M  V30 19792 C 1899.3 1.53794 5.11061 0
M  V30 19793 O 1899.52 0.440543 5.68696 0
M  V30 19794 O 1898.45 2.37332 5.53134 0
M  V30 19795 H 1902.28 2.05075 2.24004 0
M  V30 19796 H 1899.87 1.05633 1.05651 0
M  V30 19797 H 1901.75 0.547578 4.17827 0
M  V30 19798 H 1900.42 -0.183404 3.2318 0
M  V30 19799 H 1899.33 2.1287 3.07632 0
M  V30 19800 H 1900.66 2.78449 4.05865 0
M  V30 19801 N 1902.31 -1.14411 1.08387 0
M  V30 19802 C 1903.25 -2.18516 0.657718 0
M  V30 19803 C 1904.23 -1.59207 -0.330415 0
M  V30 19804 O 1905.41 -1.87038 -0.234325 0
M  V30 19805 C 1902.54 -3.38684 -0.0326254 0
M  V30 19806 C 1901.58 -4.16556 0.915623 0
M  V30 19807 S 1902.42 -4.77588 2.42218 0
M  V30 19808 C 1903.57 -6.01113 1.74395 0
M  V30 19809 H 1903.8 -2.54327 1.53965 0
M  V30 19810 H 1901.34 -1.2554 0.898836 0
M  V30 19811 H 1903.3 -4.08298 -0.424651 0
M  V30 19812 H 1901.96 -3.01196 -0.891048 0
M  V30 19813 H 1901.15 -5.02569 0.379492 0
M  V30 19814 H 1900.75 -3.52544 1.24854 0
M  V30 19815 H 1903.04 -6.69128 1.06177 0
M  V30 19816 H 1903.99 -6.59315 2.58281 0
M  V30 19817 H 1904.39 -5.51217 1.2174 0
M  V30 19818 N 1903.79 -0.869509 -1.31443 0
M  V30 19819 C 1904.72 -0.340679 -2.31001 0
M  V30 19820 C 1905.7 0.568186 -1.6033 0
M  V30 19821 O 1906.89 0.485305 -1.88038 0
M  V30 19822 C 1904.02 0.45909 -3.44252 0
M  V30 19823 C 1902.97 -0.356639 -4.26512 0
M  V30 19824 C 1902.3 0.568786 -5.31666 0
M  V30 19825 C 1903.6 -1.59045 -4.97496 0
M  V30 19826 H 1905.29 -1.1726 -2.75482 0
M  V30 19827 H 1902.84 -0.5653 -1.3244 0
M  V30 19828 H 1904.79 0.839573 -4.12952 0
M  V30 19829 H 1903.52 1.32451 -2.98537 0
M  V30 19830 H 1902.17 -0.719063 -3.59479 0
M  V30 19831 H 1901.82 1.43148 -4.82201 0
M  V30 19832 H 1901.52 0.0268906 -5.87594 0
M  V30 19833 H 1903.05 0.946122 -6.03225 0
M  V30 19834 H 1904.46 -1.28144 -5.58795 0
M  V30 19835 H 1902.86 -2.07139 -5.63217 0
M  V30 19836 H 1903.93 -2.34354 -4.24507 0
M  V30 19837 N 1905.27 1.44508 -0.628902 0
M  V30 19838 C 1906.5 2.06942 -0.137778 0
M  V30 19839 C 1906.92 1.46672 1.17766 0
M  V30 19840 O 1906.28 0.567342 1.72194 0
M  V30 19841 C 1906.33 3.60584 -0.0341843 0
M  V30 19842 O 1905.43 3.99831 1.01038 0
M  V30 19843 H 1904.77 0.658696 -0.083759 0
M  V30 19844 H 1907.3 1.85418 -0.864951 0
M  V30 19845 H 1907.31 4.07697 0.157123 0
M  V30 19846 H 1905.99 4.03833 -0.994583 0
M  V30 19847 H 1904.56 3.64353 0.793824 0
M  V30 19848 N 1906.75 0.369315 1.53212 0
M  V30 19849 C 1908.17 0.0184115 1.59589 0
M  V30 19850 C 1908.37 -1.46424 1.38428 0
M  V30 19851 O 1907.42 -2.2263 1.1913 0
M  V30 19852 C 1908.73 0.477693 2.96881 0
M  V30 19853 C 1910.28 0.432233 3.10001 0
M  V30 19854 C 1910.76 0.867386 4.49711 0
M  V30 19855 N 1912.25 0.822594 4.55837 0
M  V30 19856 C 1912.98 1.13094 5.62136 0
M  V30 19857 N 1912.48 1.50876 6.76172 0
M  V30 19858 N 1914.27 1.0535 5.52139 0
M  V30 19859 H 1906.42 1.33479 1.65218 0
M  V30 19860 H 1908.69 0.545823 0.775101 0
M  V30 19861 H 1908.39 1.51245 3.17518 0
M  V30 19862 H 1908.27 -0.133741 3.76963 0
M  V30 19863 H 1910.65 -0.593397 2.89072 0
M  V30 19864 H 1910.73 1.07921 2.3192 0
M  V30 19865 H 1910.38 1.89115 4.71379 0
M  V30 19866 H 1910.31 0.19762 5.26229 0
M  V30 19867 H 1912.8 0.544303 3.7396 0
M  V30 19868 H 1913.11 1.72821 7.53228 0
M  V30 19869 H 1911.46 1.54745 6.77554 0
M  V30 19870 H 1914.65 0.757487 4.6193 0
M  V30 19871 H 1914.82 1.29713 6.34885 0
M  V30 19872 N 1908.23 -1.57291 0.0985816 0
M  V30 19873 C 1909.19 -2.1307 -0.844628 0
M  V30 19874 C 1910.19 -1.06076 -1.20849 0
M  V30 19875 O 1911.38 -1.31947 -1.13735 0
M  V30 19876 C 1908.51 -2.65416 -2.13933 0
M  V30 19877 H 1909.71 -2.97729 -0.36023 0
M  V30 19878 H 1907.26 -1.55574 -0.150451 0
M  V30 19879 H 1907.99 -1.84287 -2.6685 0
M  V30 19880 H 1907.78 -3.43647 -1.88811 0
M  V30 19881 H 1909.27 -3.08551 -2.814 0
M  V30 19882 N 1909.71 0.175127 -1.56624 0
M  V30 19883 C 1910.64 1.21918 -1.99144 0
M  V30 19884 C 1911.62 1.4638 -0.866428 0
M  V30 19885 O 1912.8 1.57779 -1.13223 0
M  V30 19886 C 1909.93 2.55897 -2.34807 0
M  V30 19887 C 1908.89 2.46011 -3.50232 0
M  V30 19888 C 1908.21 3.84445 -3.71626 0
M  V30 19889 C 1909.51 1.96808 -4.83801 0
M  V30 19890 H 1911.21 0.86575 -2.8661 0
M  V30 19891 H 1908.75 0.415014 -1.3789 0
M  V30 19892 H 1910.7 3.29136 -2.63149 0
M  V30 19893 H 1909.43 2.9302 -1.44245 0
M  V30 19894 H 1908.09 1.75227 -3.22011 0
M  V30 19895 H 1907.74 4.18955 -2.78362 0
M  V30 19896 H 1907.44 3.787 -4.49288 0
M  V30 19897 H 1908.96 4.59276 -4.02366 0
M  V30 19898 H 1910.37 2.59819 -5.11045 0
M  V30 19899 H 1908.77 2.0202 -5.65073 0
M  V30 19900 H 1909.84 0.922209 -4.7605 0
M  V30 19901 N 1911.18 1.5123 0.44355 0
M  V30 19902 C 1912.13 1.72095 1.53792 0
M  V30 19903 C 1913.1 0.562529 1.56284 0
M  V30 19904 O 1914.29 0.796259 1.73391 0
M  V30 19905 C 1911.43 1.84627 2.9156 0
M  V30 19906 C 1910.54 3.12147 2.98644 0
M  V30 19907 C 1909.67 3.1531 4.27496 0
M  V30 19908 C 1908.71 4.37171 4.28425 0
M  V30 19909 N 1907.85 4.37919 5.48791 0
M  V30 19910 H 1912.69 2.65512 1.35304 0
M  V30 19911 H 1910.23 1.31593 0.657387 0
M  V30 19912 H 1912.18 1.89874 3.71488 0
M  V30 19913 H 1910.81 0.946232 3.0862 0
M  V30 19914 H 1909.87 3.16239 2.11417 0
M  V30 19915 H 1911.18 4.02074 2.95192 0
M  V30 19916 H 1910.33 3.19439 5.15794 0
M  V30 19917 H 1909.07 2.23261 4.33596 0
M  V30 19918 H 1908.08 4.33225 3.38521 0
M  V30 19919 H 1909.3 5.30477 4.23994 0
M  V30 19920 H 1907.25 3.48737 5.55624 0
M  V30 19921 H 1907.16 5.21647 5.47193 0
M  V30 19922 H 1908.43 4.46232 6.39138 0
M  V30 19923 N 1912.66 -0.698586 1.41271 0
M  V30 19924 C 1913.61 -1.81256 1.42881 0
M  V30 19925 C 1914.58 -1.63662 0.283562 0
M  V30 19926 O 1915.76 -1.84555 0.48416 0
M  V30 19927 C 1912.9 -3.19113 1.31381 0
M  V30 19928 C 1912.02 -3.4816 2.55751 0
M  V30 19929 C 1911.15 -4.75615 2.36566 0
M  V30 19930 C 1910.19 -4.9762 3.56427 0
M  V30 19931 N 1909.33 -6.16299 3.36332 0
M  V30 19932 H 1914.17 -1.79214 2.38089 0
M  V30 19933 H 1911.7 -0.875213 1.1823 0
M  V30 19934 H 1913.66 -3.98744 1.22716 0
M  V30 19935 H 1912.29 -3.20339 0.397831 0
M  V30 19936 H 1911.34 -2.62957 2.74878 0
M  V30 19937 H 1912.66 -3.60323 3.44918 0
M  V30 19938 H 1911.81 -5.63295 2.25352 0
M  V30 19939 H 1910.55 -4.65693 1.44851 0
M  V30 19940 H 1909.55 -4.0839 3.681 0
M  V30 19941 H 1910.78 -5.09404 4.49093 0
M  V30 19942 H 1908.73 -6.07595 2.47314 0
M  V30 19943 H 1908.64 -6.29216 4.19074 0
M  V30 19944 H 1909.91 -7.06722 3.28884 0
M  V30 19945 N 1914.14 -1.27049 -0.93254 0
M  V30 19946 C 1915.39 -1.1327 -1.68219 0
M  V30 19947 C 1915.72 0.321632 -1.91518 0
M  V30 19948 O 1914.99 1.23564 -1.50207 0
M  V30 19949 C 1915.28 -1.91162 -3.0517 0
M  V30 19950 C 1915.13 -3.44552 -2.89143 0
M  V30 19951 C 1916.45 -1.71227 -4.05425 0
M  V30 19952 H 1913.57 -0.412859 -0.610505 0
M  V30 19953 H 1916.21 -1.56148 -1.08249 0
M  V30 19954 H 1914.36 -1.54722 -3.56361 0
M  V30 19955 H 1916.03 -3.90794 -2.45107 0
M  V30 19956 H 1914.27 -3.71138 -2.24586 0
M  V30 19957 H 1914.95 -3.9429 -3.86315 0
M  V30 19958 H 1917.42 -2.0299 -3.63227 0
M  V30 19959 H 1916.3 -2.28129 -4.99248 0
M  V30 19960 H 1916.56 -0.65898 -4.37161 0
M  V30 19961 N 1915.62 1.13835 -1.08993 0
M  V30 19962 C 1917.03 1.66568 -0.843325 0
M  V30 19963 C 1917.38 1.85846 0.628955 0
M  V30 19964 O 1916.5 1.57401 1.48506 0
M  V30 19965 C 1917.1 3.02573 -1.52431 0
M  V30 19966 C 1915.66 3.52315 -1.3248 0
M  V30 19967 C 1914.81 2.27658 -1.58326 0
M  V30 19968 H 1917.76 0.978181 -1.24969 0
M  V30 19969 H 1917.78 3.68323 -0.954898 0
M  V30 19970 H 1917.29 2.8851 -2.59584 0
M  V30 19971 H 1915.39 3.71589 -0.274248 0
M  V30 19972 H 1915.5 4.32715 -2.05657 0
M  V30 19973 H 1913.87 2.34028 -1.00514 0
M  V30 19974 H 1914.65 2.16165 -2.66698 0
M  V30 19975 N 1917.1 0.876467 1.3098 0
M  V30 19976 C 1918.34 0.491367 1.96757 0
M  V30 19977 C 1918.67 -0.955274 1.6908 0
M  V30 19978 O 1917.95 -1.6737 0.990843 0
M  V30 19979 C 1918.23 0.756745 3.52059 0
M  V30 19980 C 1918.09 2.25339 3.89284 0
M  V30 19981 C 1919.4 0.227549 4.39511 0
M  V30 19982 H 1916.52 0.179998 0.714681 0
M  V30 19983 H 1919.17 1.0989 1.54997 0
M  V30 19984 H 1917.32 0.239657 3.8776 0
M  V30 19985 H 1918.99 2.83824 3.63651 0
M  V30 19986 H 1917.23 2.72341 3.37658 0
M  V30 19987 H 1917.9 2.38971 4.97591 0
M  V30 19988 H 1920.38 0.670016 4.1067 0
M  V30 19989 H 1919.25 0.442629 5.47112 0
M  V30 19990 H 1919.51 -0.870833 4.33438 0
M  V30 19991 N 1918.57 -1.44173 0.636557 0
M  V30 19992 C 1919.85 -1.9546 0.0738864 0
M  V30 19993 C 1920.23 -1.57838 -1.4018 0
M  V30 19994 O 1919.58 -0.855144 -2.11895 0
M  V30 19995 C 1919.79 -3.47687 0.302493 0
M  V30 19996 C 1921.14 -4.24135 0.198569 0
M  V30 19997 O 1922.16 -3.5543 0.234151 0
M  V30 19998 O 1921.02 -5.46393 0.108108 0
M  V30 19999 H 1918.11 -0.826777 -0.0191985 0
M  V30 20000 H 1920.66 -1.54196 0.708638 0
M  V30 20001 H 1919.43 -3.68139 1.32625 0
M  V30 20002 H 1919.05 -3.95911 -0.366134 0
M  V30 20003 N 1920.05 -0.377435 -1.53014 0
M  V30 20004 C 1920.96 0.471045 -2.29822 0
M  V30 20005 C 1921.98 1.0821 -1.36259 0
M  V30 20006 O 1923.15 1.09048 -1.69324 0
M  V30 20007 C 1920.22 1.58917 -3.08134 0
M  V30 20008 C 1919.28 1.00444 -4.17384 0
M  V30 20009 C 1918.51 2.06928 -4.91952 0
M  V30 20010 O 1918.74 3.2824 -4.66492 0
M  V30 20011 O 1917.67 1.69321 -5.77593 0
M  V30 20012 H 1921.5 -0.154333 -3.03308 0
M  V30 20013 H 1919.08 -0.141478 -1.48729 0
M  V30 20014 H 1920.96 2.23899 -3.56997 0
M  V30 20015 H 1919.64 2.19973 -2.37473 0
M  V30 20016 H 1918.54 0.3182 -3.72744 0
M  V30 20017 H 1919.88 0.438266 -4.90245 0
M  V30 20018 N 1921.53 1.57237 -0.106922 0
M  V30 20019 C 1922.76 1.98831 0.561223 0
M  V30 20020 C 1923.17 0.985199 1.61525 0
M  V30 20021 O 1922.51 -0.0317928 1.83672 0
M  V30 20022 C 1922.57 3.3682 1.25668 0
M  V30 20023 C 1922.24 4.55642 0.352017 0
M  V30 20024 C 1923.23 5.18323 -0.404571 0
M  V30 20025 C 1920.92 5.01592 0.266617 0
M  V30 20026 C 1922.91 6.25333 -1.23442 0
M  V30 20027 C 1920.6 6.08465 -0.566871 0
M  V30 20028 C 1921.6 6.70201 -1.31603 0
M  V30 20029 O 1921.29 7.75012 -2.1357 0
M  V30 20030 H 1921.02 0.658182 0.154181 0
M  V30 20031 H 1923.57 2.04552 -0.186443 0
M  V30 20032 H 1921.8 3.27817 2.05116 0
M  V30 20033 H 1923.49 3.62783 1.82053 0
M  V30 20034 H 1924.26 4.83747 -0.348395 0
M  V30 20035 H 1920.14 4.53294 0.839401 0
M  V30 20036 H 1923.68 6.7345 -1.81964 0
M  V30 20037 H 1919.58 6.42472 -0.624485 0
M  V30 20038 H 1920.35 7.92054 -2.0638 0
M  V30 20039 N 1923.01 -0.166818 1.56715 0
M  V30 20040 C 1924.26 -0.881043 1.8144 0
M  V30 20041 C 1924.57 -1.83216 0.684925 0
M  V30 20042 O 1925.78 -2.58908 0.817234 0
M  V30 20043 C 1924.23 -1.61724 3.21517 0
M  V30 20044 C 1923.84 -0.709534 4.42346 0
M  V30 20045 C 1925.58 -2.31943 3.55532 0
M  V30 20046 C 1923.49 -1.44622 5.73444 0
M  V30 20047 H 1922.42 -0.332741 0.676609 0
M  V30 20048 H 1925.07 -0.133924 1.83011 0
M  V30 20049 H 1923.45 -2.40928 3.14277 0
M  V30 20050 H 1924.63 0.0458591 4.60777 0
M  V30 20051 H 1922.94 -0.116776 4.16236 0
M  V30 20052 H 1925.54 -2.87662 4.50727 0
M  V30 20053 H 1925.88 -3.07495 2.80629 0
M  V30 20054 H 1926.42 -1.59678 3.64346 0
M  V30 20055 H 1923.16 -0.732937 6.51389 0
M  V30 20056 H 1922.68 -2.17483 5.58982 0
M  V30 20057 H 1924.35 -1.9925 6.15555 0
M  V30 20058 N 1924.49 -1.51463 -0.435524 0
M  V30 20059 C 1925.71 -1.68031 -1.20719 0
M  V30 20060 C 1926.13 -0.378427 -1.84969 0
M  V30 20061 O 1925.49 0.643234 -1.70789 0
M  V30 20062 C 1925.54 -2.79726 -2.28989 0
M  V30 20063 O 1925.26 -4.0487 -1.67367 0
M  V30 20064 C 1926.76 -3.07578 -3.19234 0
M  V30 20065 H 1923.98 -0.56383 -0.363781 0
M  V30 20066 H 1926.52 -1.97888 -0.515825 0
M  V30 20067 H 1924.68 -2.52463 -2.93839 0
M  V30 20068 H 1925.09 -4.66915 -2.38937 0
M  V30 20069 H 1926.57 -3.89309 -3.91334 0
M  V30 20070 H 1927.04 -2.20059 -3.80093 0
M  V30 20071 H 1927.65 -3.36507 -2.60083 0
M  V30 20072 N 1925.96 0.691085 -1.4164 0
M  V30 20073 C 1927.19 1.47978 -1.44603 0
M  V30 20074 C 1927.61 1.88727 -0.0525951 0
M  V30 20075 O 1926.96 1.57079 0.929107 0
M  V30 20076 C 1927.02 2.73945 -2.35874 0
M  V30 20077 O 1926.74 2.34912 -3.69795 0
M  V30 20078 C 1928.24 3.67649 -2.47688 0
M  V30 20079 H 1925.46 0.455873 -0.492363 0
M  V30 20080 H 1928 0.850521 -1.85974 0
M  V30 20081 H 1926.16 3.33098 -1.97799 0
M  V30 20082 H 1926.57 3.16139 -4.18517 0
M  V30 20083 H 1928.04 4.52806 -3.15707 0
M  V30 20084 H 1928.52 4.12443 -1.50956 0
M  V30 20085 H 1929.13 3.14397 -2.86417 0
M  V30 20086 N 1927.44 1.27542 0.925789 0
M  V30 20087 C 1928.67 1.16641 1.70524 0
M  V30 20088 C 1929.08 -0.279149 1.87129 0
M  V30 20089 O 1928.42 -1.20171 1.38941 0
M  V30 20090 C 1928.49 1.77978 3.12352 0
M  V30 20091 C 1928.15 3.27168 3.19077 0
M  V30 20092 C 1929.15 4.23775 3.01182 0
M  V30 20093 C 1926.83 3.67911 3.41975 0
M  V30 20094 C 1928.83 5.59102 3.06077 0
M  V30 20095 C 1926.51 5.03367 3.46504 0
M  V30 20096 C 1927.51 5.98773 3.28573 0
M  V30 20097 O 1927.2 7.3176 3.3284 0
M  V30 20098 H 1926.93 0.406366 0.540225 0
M  V30 20099 H 1929.48 1.68956 1.16803 0
M  V30 20100 H 1927.71 1.20143 3.67563 0
M  V30 20101 H 1929.4 1.61765 3.72273 0
M  V30 20102 H 1930.17 3.93635 2.83331 0
M  V30 20103 H 1926.05 2.94125 3.54981 0
M  V30 20104 H 1929.59 6.33547 2.92 0
M  V30 20105 H 1925.49 5.33162 3.63879 0
M  V30 20106 H 1926.26 7.40233 3.49282 0
M  V30 20107 N 1928.92 -1.13255 1.09595 0
M  V30 20108 C 1930.33 -1.66118 0.852147 0
M  V30 20109 C 1930.68 -1.86177 -0.61909 0
M  V30 20110 O 1929.81 -1.58186 -1.47669 0
M  V30 20111 C 1930.4 -3.0176 1.54034 0
M  V30 20112 C 1928.96 -3.51608 1.34347 0
M  V30 20113 C 1928.11 -2.26815 1.59531 0
M  V30 20114 H 1931.06 -0.971539 1.25486 0
M  V30 20115 H 1931.08 -3.67812 0.974418 0
M  V30 20116 H 1930.59 -2.87129 2.6111 0
M  V30 20117 H 1928.69 -3.71439 0.293951 0
M  V30 20118 H 1928.81 -4.31618 2.07949 0
M  V30 20119 H 1927.17 -2.33492 1.01753 0
M  V30 20120 H 1927.95 -2.14748 2.6784 0
M  V30 20121 N 1930.4 -0.883401 -1.30514 0
M  V30 20122 C 1931.65 -0.500062 -1.95816 0
M  V30 20123 C 1931.97 0.953596 -1.70093 0
M  V30 20124 O 1931.24 1.67027 -1.02365 0
M  V30 20125 H 1929.82 -0.181936 -0.724506 0
M  V30 20126 H 1932.48 -1.12613 -1.59073 0
M  V30 20127 H 1931.58 -0.668998 -3.04846 0
M  V30 20128 N 1931.88 1.43833 -0.644194 0
M  V30 20129 C 1932.81 2.29017 0.0914574 0
M  V30 20130 C 1933.82 1.4201 0.79605 0
M  V30 20131 O 1935.01 1.66036 0.655313 0
M  V30 20132 C 1932.11 3.18711 1.15225 0
M  V30 20133 C 1931.28 4.34206 0.527588 0
M  V30 20134 C 1930.34 5.04839 1.48406 0
M  V30 20135 O 1929.37 5.60416 0.996143 0
M  V30 20136 N 1930.57 5.075 2.81822 0
M  V30 20137 H 1933.34 2.92794 -0.639656 0
M  V30 20138 H 1930.9 1.54424 -0.486308 0
M  V30 20139 H 1932.89 3.62827 1.79272 0
M  V30 20140 H 1931.46 2.56595 1.78543 0
M  V30 20141 H 1930.68 3.93119 -0.291782 0
M  V30 20142 H 1931.97 5.08718 0.091139 0
M  V30 20143 H 1931.36 4.63703 3.24031 0
M  V30 20144 H 1929.92 5.55364 3.41195 0
M  V30 20145 N 1933.35 0.385544 1.52811 0
M  V30 20146 C 1934.6 -0.197454 2.01133 0
M  V30 20147 C 1934.92 -1.47634 1.27394 0
M  V30 20148 O 1934.19 -1.91919 0.392916 0
M  V30 20149 H 1932.77 -0.0759558 0.743128 0
M  V30 20150 H 1935.44 0.51637 1.87935 0
M  V30 20151 H 1934.53 -0.410335 3.09391 0
M  V30 20152 N 1934.83 -1.57178 0.115259 0
M  V30 20153 C 1936.07 -1.96951 -0.546776 0
M  V30 20154 C 1936.44 -0.996997 -1.64085 0
M  V30 20155 O 1937.64 -1.28396 -2.36152 0
M  V30 20156 C 1935.91 -3.41033 -1.06916 0
M  V30 20157 S 1937.47 -4.02816 -1.74024 0
M  V30 20158 H 1934.29 -0.688401 -0.177833 0
M  V30 20159 H 1936.89 -1.9448 0.199452 0
M  V30 20160 H 1935.59 -4.09565 -0.261661 0
M  V30 20161 H 1935.12 -3.47147 -1.85075 0
M  V30 20162 H 1937.14 -3.93268 -3.0258 0
M  V30 20163 N 1936.31 0.158505 -1.56801 0
M  V30 20164 C 1937.27 1.17986 -1.96499 0
M  V30 20165 C 1938.27 1.3649 -0.850127 0
M  V30 20166 O 1939.46 1.33678 -1.11696 0
M  V30 20167 C 1936.6 2.54245 -2.27095 0
M  V30 20168 H 1937.79 0.839577 -2.87908 0
M  V30 20169 H 1935.34 0.401431 -1.51057 0
M  V30 20170 H 1936.08 2.93266 -1.38441 0
M  V30 20171 H 1935.86 2.42179 -3.0837 0
M  V30 20172 H 1937.35 3.27829 -2.58686 0
M  V30 20173 N 1937.79 1.51692 0.427485 0
M  V30 20174 C 1939.04 1.64521 1.17376 0
M  V30 20175 C 1939.36 0.368482 1.91487 0
M  V30 20176 O 1938.63 -0.616035 1.85962 0
M  V30 20177 H 1937.21 0.606362 0.436273 0
M  V30 20178 H 1939.87 1.88662 0.489152 0
M  V30 20179 H 1938.97 2.47759 1.89794 0
M  V30 20180 N 1939.27 -0.683564 1.42004 0
M  V30 20181 C 1940.5 -1.46996 1.45175 0
M  V30 20182 C 1940.91 -1.89108 0.0589536 0
M  V30 20183 O 1940.25 -1.5814 -0.934737 0
M  V30 20184 C 1940.31 -2.75616 2.30816 0
M  V30 20185 C 1939.97 -2.55634 3.78814 0
M  V30 20186 C 1940.97 -2.20802 4.70683 0
M  V30 20187 C 1938.66 -2.70901 4.22987 0
M  V30 20188 C 1940.65 -2.01492 6.04715 0
M  V30 20189 C 1938.34 -2.51207 5.5708 0
M  V30 20190 C 1939.34 -2.16555 6.4776 0
M  V30 20191 O 1939.02 -1.97043 7.79378 0
M  V30 20192 H 1938.76 -0.459119 0.496171 0
M  V30 20193 H 1941.31 -0.848089 1.87074 0
M  V30 20194 H 1939.54 -3.40254 1.83751 0
M  V30 20195 H 1941.23 -3.37467 2.25545 0
M  V30 20196 H 1941.99 -2.08611 4.37843 0
M  V30 20197 H 1937.87 -2.96855 3.52702 0
M  V30 20198 H 1941.42 -1.74367 6.75457 0
M  V30 20199 H 1937.31 -2.62992 5.89496 0
M  V30 20200 H 1938.08 -2.11711 7.90646 0
M  V30 20201 N 1940.75 -1.28031 -0.919012 0
M  V30 20202 C 1941.97 -1.17714 -1.7015 0
M  V30 20203 C 1942.39 0.264914 -1.86932 0
M  V30 20204 O 1941.75 1.17957 -1.39256 0
M  V30 20205 C 1941.8 -1.86548 -3.09648 0
M  V30 20206 O 1941.52 -3.25121 -2.93646 0
M  V30 20207 C 1943.02 -1.82467 -4.04006 0
M  V30 20208 H 1940.24 -0.408863 -0.532045 0
M  V30 20209 H 1942.78 -1.69061 -1.1506 0
M  V30 20210 H 1940.94 -1.39085 -3.61572 0
M  V30 20211 H 1941.35 -3.59518 -3.81899 0
M  V30 20212 H 1942.83 -2.35229 -4.99371 0
M  V30 20213 H 1943.3 -0.795892 -4.31928 0
M  V30 20214 H 1943.91 -2.29585 -3.5801 0
M  V30 20215 N 1942.22 1.12672 -1.10194 0
M  V30 20216 C 1943.15 2.20422 -0.770492 0
M  V30 20217 C 1944.13 1.68172 0.25541 0
M  V30 20218 O 1945.32 1.93818 0.121728 0
M  V30 20219 C 1942.45 3.4673 -0.198815 0
M  V30 20220 C 1941.4 4.12118 -1.15512 0
M  V30 20221 C 1940.73 5.32847 -0.444768 0
M  V30 20222 C 1942.03 4.58542 -2.50073 0
M  V30 20223 H 1943.72 2.48404 -1.67141 0
M  V30 20224 H 1941.27 1.19392 -0.805077 0
M  V30 20225 H 1943.22 4.21376 0.0451853 0
M  V30 20226 H 1941.95 3.18168 0.737331 0
M  V30 20227 H 1940.61 3.3945 -1.38453 0
M  V30 20228 H 1940.25 5.00551 0.49577 0
M  V30 20229 H 1939.95 5.77543 -1.08247 0
M  V30 20230 H 1941.48 6.10241 -0.209255 0
M  V30 20231 H 1942.89 5.24572 -2.31294 0
M  V30 20232 H 1941.29 5.14007 -3.09704 0
M  V30 20233 H 1942.36 3.72654 -3.10254 0
M  V30 20234 N 1943.7 0.89031 1.30043 0
M  V30 20235 C 1944.61 0.365266 2.31739 0
M  V30 20236 C 1945.63 -0.535219 1.65564 0
M  V30 20237 O 1946.8 -0.427058 1.9682 0
M  V30 20238 C 1943.87 -0.407009 3.44303 0
M  V30 20239 C 1942.93 0.523869 4.26092 0
M  V30 20240 C 1942.16 -0.211645 5.3328 0
M  V30 20241 O 1942.39 -1.43697 5.52003 0
M  V30 20242 O 1941.32 0.440999 6.00282 0
M  V30 20243 H 1945.15 1.20872 2.7861 0
M  V30 20244 H 1942.73 0.654319 1.34309 0
M  V30 20245 H 1944.61 -0.844074 4.1286 0
M  V30 20246 H 1943.29 -1.22668 2.99557 0
M  V30 20247 H 1942.19 1.00986 3.60212 0
M  V30 20248 H 1943.53 1.30969 4.74455 0
M  V30 20249 N 1945.18 -1.43489 0.651812 0
M  V30 20250 C 1946.09 -2.34564 -0.0413115 0
M  V30 20251 C 1947.11 -1.53803 -0.81368 0
M  V30 20252 O 1948.28 -1.86459 -0.761246 0
M  V30 20253 C 1945.35 -3.32063 -0.996745 0
M  V30 20254 C 1944.41 -4.28728 -0.221464 0
M  V30 20255 C 1943.64 -5.2157 -1.13139 0
M  V30 20256 O 1943.86 -5.18804 -2.37062 0
M  V30 20257 O 1942.8 -5.98856 -0.604552 0
M  V30 20258 H 1946.62 -2.95325 0.708295 0
M  V30 20259 H 1944.21 -1.43607 0.411999 0
M  V30 20260 H 1946.09 -3.92022 -1.54586 0
M  V30 20261 H 1944.77 -2.73807 -1.7266 0
M  V30 20262 H 1943.67 -3.72254 0.371205 0
M  V30 20263 H 1945.01 -4.89962 0.468797 0
M  V30 20264 N 1946.66 -0.393643 -1.52605 0
M  V30 20265 C 1947.62 0.427358 -2.25181 0
M  V30 20266 C 1948.62 0.986595 -1.26976 0
M  V30 20267 O 1949.81 0.867913 -1.51039 0
M  V30 20268 C 1946.94 1.60001 -3.01019 0
M  V30 20269 H 1948.14 -0.208101 -2.99177 0
M  V30 20270 H 1945.69 -0.145844 -1.55618 0
M  V30 20271 H 1946.42 2.27278 -2.31334 0
M  V30 20272 H 1946.21 1.20567 -3.73103 0
M  V30 20273 H 1947.7 2.18115 -3.56112 0
M  V30 20274 N 1948.14 1.57115 -0.123593 0
M  V30 20275 C 1949.08 2.15555 0.824912 0
M  V30 20276 C 1950.05 1.08181 1.2604 0
M  V30 20277 O 1951.24 1.36111 1.3371 0
M  V30 20278 C 1948.38 2.76288 2.06783 0
M  V30 20279 C 1947.49 3.97983 1.68029 0
M  V30 20280 C 1946.63 4.46788 2.87322 0
M  V30 20281 C 1945.66 5.61004 2.44829 0
M  V30 20282 N 1944.8 6.04532 3.57052 0
M  V30 20283 H 1949.64 2.9628 0.319726 0
M  V30 20284 H 1947.18 1.46372 0.14612 0
M  V30 20285 H 1949.14 3.09632 2.79613 0
M  V30 20286 H 1947.77 1.98245 2.54752 0
M  V30 20287 H 1946.82 3.70769 0.850542 0
M  V30 20288 H 1948.13 4.80796 1.32804 0
M  V30 20289 H 1947.28 4.82066 3.68372 0
M  V30 20290 H 1946.02 3.62934 3.25776 0
M  V30 20291 H 1945.03 5.25326 1.62213 0
M  V30 20292 H 1946.25 6.46627 2.07487 0
M  V30 20293 H 1944.2 5.23618 3.95171 0
M  V30 20294 H 1944.12 6.82212 3.25766 0
M  V30 20295 H 1945.38 6.44449 4.38527 0
M  V30 20296 N 1949.61 -0.150187 1.56883 0
M  V30 20297 C 1950.84 -0.87835 1.8733 0
M  V30 20298 C 1951.26 -1.74883 0.711426 0
M  V30 20299 O 1950.61 -1.79692 -0.318906 0
M  V30 20300 C 1950.66 -1.73769 3.16996 0
M  V30 20301 O 1950.39 -0.902296 4.28708 0
M  V30 20302 C 1951.89 -2.57371 3.60936 0
M  V30 20303 H 1949.11 -0.254139 0.621011 0
M  V30 20304 H 1951.65 -0.143933 2.03993 0
M  V30 20305 H 1949.81 -2.42521 3.02097 0
M  V30 20306 H 1950.22 -1.49198 5.02832 0
M  V30 20307 H 1951.69 -3.13249 4.5451 0
M  V30 20308 H 1952.17 -3.33257 2.86071 0
M  V30 20309 H 1952.78 -1.93916 3.78519 0
M  V30 20310 N 1951.09 -1.51916 -0.419434 0
M  V30 20311 C 1952.06 -1.73908 -1.49293 0
M  V30 20312 C 1953.06 -0.60898 -1.48822 0
M  V30 20313 O 1954.25 -0.876745 -1.50528 0
M  V30 20314 C 1951.38 -1.812 -2.88755 0
M  V30 20315 H 1952.57 -2.69732 -1.3109 0
M  V30 20316 H 1950.12 -1.42176 -0.649274 0
M  V30 20317 H 1950.86 -0.872544 -3.12341 0
M  V30 20318 H 1950.64 -2.63348 -2.905 0
M  V30 20319 H 1952.13 -1.99992 -3.66596 0
M  V30 20320 N 1952.57 0.676023 -1.42365 0
M  V30 20321 C 1953.5 1.80165 -1.48536 0
M  V30 20322 C 1954.48 1.66625 -0.342049 0
M  V30 20323 O 1955.67 1.86065 -0.55619 0
M  V30 20324 C 1952.8 3.18451 -1.38586 0
M  V30 20325 C 1951.75 3.46724 -2.50931 0
M  V30 20326 C 1951.08 4.84572 -2.2604 0
M  V30 20327 C 1952.38 3.4374 -3.93243 0
M  V30 20328 H 1954.07 1.75258 -2.42745 0
M  V30 20329 H 1951.62 0.841756 -1.16835 0
M  V30 20330 H 1953.57 3.96929 -1.41511 0
M  V30 20331 H 1952.29 3.24033 -0.408703 0
M  V30 20332 H 1950.95 2.70607 -2.47321 0
M  V30 20333 H 1950.6 4.86802 -1.2662 0
M  V30 20334 H 1950.3 5.04452 -3.01334 0
M  V30 20335 H 1951.82 5.65336 -2.30712 0
M  V30 20336 H 1953.24 4.12189 -3.98463 0
M  V30 20337 H 1951.64 3.75155 -4.68379 0
M  V30 20338 H 1952.71 2.42337 -4.20001 0
M  V30 20339 N 1954.05 1.28517 0.912209 0
M  V30 20340 C 1955 1.12575 2.01483 0
M  V30 20341 C 1955.97 0.0224628 1.66085 0
M  V30 20342 O 1957.15 0.18768 1.89875 0
M  V30 20343 C 1954.29 0.795229 3.35813 0
M  V30 20344 C 1953.4 1.97772 3.84071 0
M  V30 20345 C 1952.54 1.58768 5.06918 0
M  V30 20346 C 1951.58 2.73672 5.47513 0
M  V30 20347 N 1950.71 2.3515 6.6155 0
M  V30 20348 H 1955.55 2.06918 2.1445 0
M  V30 20349 H 1953.09 1.02983 1.05037 0
M  V30 20350 H 1955.05 0.584339 4.13088 0
M  V30 20351 H 1953.68 -0.111266 3.22608 0
M  V30 20352 H 1952.73 2.30069 3.0294 0
M  V30 20353 H 1954.04 2.83913 4.10115 0
M  V30 20354 H 1953.2 1.33894 5.91741 0
M  V30 20355 H 1951.94 0.697566 4.82686 0
M  V30 20356 H 1950.94 2.99242 4.61231 0
M  V30 20357 H 1952.17 3.63328 5.73733 0
M  V30 20358 H 1950.11 1.4861 6.38945 0
M  V30 20359 H 1950.03 3.14827 6.87328 0
M  V30 20360 H 1951.3 2.13564 7.49674 0
M  V30 20361 N 1955.53 -1.12086 1.1079 0
M  V30 20362 C 1956.47 -2.17926 0.760064 0
M  V30 20363 C 1957.44 -1.63967 -0.265316 0
M  V30 20364 O 1958.63 -1.90258 -0.143764 0
M  V30 20365 C 1955.77 -3.44508 0.202045 0
M  V30 20366 C 1954.88 -4.12503 1.28317 0
M  V30 20367 C 1954.02 -5.26747 0.686406 0
M  V30 20368 C 1953.06 -5.86614 1.74785 0
M  V30 20369 N 1952.19 -6.92264 1.17108 0
M  V30 20370 H 1957.03 -2.47025 1.66681 0
M  V30 20371 H 1954.57 -1.21275 0.832507 0
M  V30 20372 H 1956.53 -4.16967 -0.139401 0
M  V30 20373 H 1955.16 -3.15814 -0.667918 0
M  V30 20374 H 1954.21 -3.38186 1.74168 0
M  V30 20375 H 1955.52 -4.53063 2.08651 0
M  V30 20376 H 1954.68 -6.05984 0.294621 0
M  V30 20377 H 1953.41 -4.87474 -0.148334 0
M  V30 20378 H 1952.42 -5.0606 2.14902 0
M  V30 20379 H 1953.64 -6.27956 2.5855 0
M  V30 20380 H 1951.59 -6.55023 0.35787 0
M  V30 20381 H 1951.51 -7.31443 1.91122 0
M  V30 20382 H 1952.78 -7.75322 0.805966 0
M  V30 20383 N 1957 -0.897194 -1.29569 0
M  V30 20384 C 1958.24 -0.528705 -1.97444 0
M  V30 20385 C 1958.61 0.907603 -1.69194 0
M  V30 20386 O 1959.81 1.38284 -2.30502 0
M  V30 20387 C 1958.08 -0.810047 -3.48099 0
M  V30 20388 S 1959.64 -0.545491 -4.35396 0
M  V30 20389 H 1956.46 -0.196241 -0.683382 0
M  V30 20390 H 1959.06 -1.15909 -1.57434 0
M  V30 20391 H 1957.76 -1.85366 -3.66153 0
M  V30 20392 H 1957.29 -0.167682 -3.93042 0
M  V30 20393 H 1959.31 0.610577 -4.92429 0
M  V30 20394 N 1958.48 1.43142 -0.659413 0
M  V30 20395 C 1959.43 2.30783 0.0284037 0
M  V30 20396 C 1960.4 1.451 0.808407 0
M  V30 20397 O 1961.58 1.73959 0.783764 0
M  V30 20398 C 1958.72 3.30758 0.984529 0
M  V30 20399 C 1957.84 4.31537 0.199975 0
M  V30 20400 C 1956.97 5.18592 1.15046 0
M  V30 20401 C 1956.01 6.1106 0.356695 0
M  V30 20402 N 1955.15 6.90718 1.25909 0
M  V30 20403 H 1959.99 2.89051 -0.724821 0
M  V30 20404 H 1957.53 1.42392 -0.369192 0
M  V30 20405 H 1959.48 3.87236 1.55254 0
M  V30 20406 H 1958.11 2.74125 1.70456 0
M  V30 20407 H 1957.17 3.77303 -0.484425 0
M  V30 20408 H 1958.48 4.97054 -0.416974 0
M  V30 20409 H 1957.63 5.79727 1.7889 0
M  V30 20410 H 1956.37 4.53215 1.80131 0
M  V30 20411 H 1955.38 5.49008 -0.295063 0
M  V30 20412 H 1956.6 6.78481 -0.28984 0
M  V30 20413 H 1954.55 6.27984 1.89662 0
M  V30 20414 H 1954.46 7.52782 0.69685 0
M  V30 20415 H 1955.73 7.56353 1.88549 0
M  V30 20416 N 1959.96 0.40173 1.52394 0
M  V30 20417 C 1961.19 -0.178662 2.06629 0
M  V30 20418 C 1961.61 -1.3871 1.27048 0
M  V30 20419 O 1960.97 -1.78821 0.298765 0
M  V30 20420 C 1961.02 -0.514797 3.56906 0
M  V30 20421 O 1960.12 -1.60691 3.79805 0
M  V30 20422 H 1959.46 -0.0174284 0.663771 0
M  V30 20423 H 1961.99 0.572792 1.96419 0
M  V30 20424 H 1962 -0.775554 4.00561 0
M  V30 20425 H 1960.68 0.368624 4.14263 0
M  V30 20426 H 1959.25 -1.3389 3.48034 0
M  V30 20427 N 1961.44 -1.57047 0.131923 0
M  V30 20428 C 1962.4 -2.14813 -0.799243 0
M  V30 20429 C 1963.4 -1.08616 -1.18572 0
M  V30 20430 O 1964.59 -1.3433 -1.10911 0
M  V30 20431 C 1961.72 -2.69894 -2.08255 0
M  V30 20432 H 1962.92 -2.98426 -0.296996 0
M  V30 20433 H 1960.47 -1.55858 -0.117418 0
M  V30 20434 H 1961.2 -1.89905 -2.62881 0
M  V30 20435 H 1960.99 -3.47574 -1.81479 0
M  V30 20436 H 1962.48 -3.14451 -2.74792 0
M  V30 20437 N 1962.92 0.141865 -1.5696 0
M  V30 20438 C 1964.16 0.853609 -1.83629 0
M  V30 20439 C 1964.49 1.80937 -0.713591 0
M  V30 20440 O 1963.75 1.93433 0.296981 0
M  V30 20441 C 1964.05 1.65717 -3.16658 0
M  V30 20442 C 1963.71 0.847748 -4.42859 0
M  V30 20443 C 1962.37 0.624458 -4.77131 0
M  V30 20444 C 1964.73 0.282029 -5.20436 0
M  V30 20445 C 1962.05 -0.175174 -5.86438 0
M  V30 20446 C 1964.41 -0.50467 -6.30584 0
M  V30 20447 C 1963.07 -0.738489 -6.63402 0
M  V30 20448 H 1962.34 0.312358 -0.671948 0
M  V30 20449 H 1964.99 0.117006 -1.91142 0
M  V30 20450 H 1963.29 2.46403 -3.04619 0
M  V30 20451 H 1964.99 2.21144 -3.34509 0
M  V30 20452 H 1961.58 1.03185 -4.15994 0
M  V30 20453 H 1965.76 0.441806 -4.9433 0
M  V30 20454 H 1961.02 -0.365778 -6.10305 0
M  V30 20455 H 1965.19 -0.950134 -6.89888 0
M  V30 20456 H 1962.82 -1.35995 -7.47937 0
M  V30 20457 N 1964.39 1.52136 0.411372 0
M  V30 20458 C 1965.62 1.69684 1.1786 0
M  V30 20459 C 1966.03 0.404974 1.84815 0
M  V30 20460 O 1965.38 -0.62867 1.72608 0
M  V30 20461 C 1965.44 2.77473 2.2858 0
M  V30 20462 C 1965.1 4.19291 1.81779 0
M  V30 20463 C 1966.1 5.03208 1.3068 0
M  V30 20464 C 1963.78 4.65515 1.88681 0
M  V30 20465 C 1965.78 6.31421 0.871024 0
M  V30 20466 C 1963.46 5.93718 1.44715 0
M  V30 20467 C 1964.46 6.76499 0.940104 0
M  V30 20468 O 1964.15 8.02301 0.506777 0
M  V30 20469 H 1963.88 0.571996 0.360273 0
M  V30 20470 H 1966.44 1.9946 0.490399 0
M  V30 20471 H 1964.67 2.43068 3.00757 0
M  V30 20472 H 1966.36 2.83642 2.90348 0
M  V30 20473 H 1967.12 4.68689 1.24722 0
M  V30 20474 H 1963 4.01186 2.27091 0
M  V30 20475 H 1966.54 6.95984 0.474571 0
M  V30 20476 H 1962.44 6.27746 1.50351 0
M  V30 20477 H 1963.21 8.1607 0.630289 0
M  V30 20478 N 1965.87 -0.668464 1.42721 0
M  V30 20479 C 1967.12 -1.43061 1.43741 0
M  V30 20480 C 1967.45 -1.9412 0.0558656 0
M  V30 20481 O 1966.73 -1.71317 -0.920904 0
M  V30 20482 C 1967.01 -2.62307 2.46712 0
M  V30 20483 C 1966.86 -2.16839 3.94082 0
M  V30 20484 C 1968.18 -3.64525 2.46596 0
M  V30 20485 H 1965.3 -0.518854 0.523412 0
M  V30 20486 H 1967.94 -0.759144 1.74175 0
M  V30 20487 H 1966.09 -3.19593 2.20891 0
M  V30 20488 H 1967.77 -1.64672 4.30907 0
M  V30 20489 H 1966.01 -1.48352 4.07645 0
M  V30 20490 H 1966.68 -3.02521 4.6172 0
M  V30 20491 H 1969.16 -3.16968 2.69574 0
M  V30 20492 H 1968.03 -4.45532 3.20613 0
M  V30 20493 H 1968.29 -4.16084 1.49421 0
M  V30 20494 N 1967.35 -1.28999 -0.905381 0
M  V30 20495 C 1968.28 -1.16189 -2.0254 0
M  V30 20496 C 1969.26 -0.0575293 -1.70003 0
M  V30 20497 O 1970.45 -0.236004 -1.92761 0
M  V30 20498 C 1967.58 -0.831704 -3.37194 0
M  V30 20499 C 1966.53 -1.89176 -3.83922 0
M  V30 20500 C 1965.86 -1.41501 -5.15637 0
M  V30 20501 C 1967.16 -3.29971 -4.04866 0
M  V30 20502 H 1968.85 -2.09886 -2.13514 0
M  V30 20503 H 1966.4 -1.0105 -1.02591 0
M  V30 20504 H 1968.35 -0.728825 -4.1505 0
M  V30 20505 H 1967.07 0.140958 -3.26296 0
M  V30 20506 H 1965.73 -1.98393 -3.08279 0
M  V30 20507 H 1965.38 -0.431182 -5.01149 0
M  V30 20508 H 1965.08 -2.12391 -5.47872 0
M  V30 20509 H 1966.61 -1.32552 -5.96039 0
M  V30 20510 H 1968.02 -3.23628 -4.73221 0
M  V30 20511 H 1966.42 -3.98768 -4.48447 0
M  V30 20512 H 1967.49 -3.73369 -3.09393 0
M  V30 20513 N 1968.83 1.11497 -1.11383 0
M  V30 20514 C 1970.24 1.64742 -0.878467 0
M  V30 20515 C 1970.59 1.87138 0.589393 0
M  V30 20516 O 1969.72 1.60515 1.45134 0
M  V30 20517 C 1970.31 2.99271 -1.58815 0
M  V30 20518 C 1968.87 3.49426 -1.39923 0
M  V30 20519 C 1968.02 2.24248 -1.6312 0
M  V30 20520 H 1970.97 0.951453 -1.27016 0
M  V30 20521 H 1970.99 3.66215 -1.03281 0
M  V30 20522 H 1970.5 2.82939 -2.65645 0
M  V30 20523 H 1968.6 3.70924 -0.353006 0
M  V30 20524 H 1968.72 4.28255 -2.1479 0
M  V30 20525 H 1967.08 2.31843 -1.05455 0
M  V30 20526 H 1967.86 2.10459 -2.71223 0
M  V30 20527 N 1970.31 0.904053 1.29092 0
M  V30 20528 C 1971.53 0.547082 2.00054 0
M  V30 20529 C 1971.96 -0.862026 1.67185 0
M  V30 20530 O 1971.32 -1.57449 0.898855 0
M  V30 20531 C 1971.36 0.751495 3.52682 0
M  V30 20532 O 1970.47 -0.194004 4.11943 0
M  V30 20533 H 1969.81 0.213241 0.628828 0
M  V30 20534 H 1972.34 1.21683 1.64482 0
M  V30 20535 H 1972.35 0.657831 4.02662 0
M  V30 20536 H 1971.02 1.77878 3.75942 0
M  V30 20537 H 1969.6 -0.0524281 3.72863 0
M  V30 20538 N 1971.79 -1.4279 0.666995 0
M  V30 20539 C 1972.7 -2.34594 -0.0164305 0
M  V30 20540 C 1973.71 -1.54657 -0.797322 0
M  V30 20541 O 1974.89 -1.87256 -0.741426 0
M  V30 20542 C 1971.95 -3.33102 -0.961469 0
M  V30 20543 C 1971.01 -4.28939 -0.17598 0
M  V30 20544 C 1970.25 -5.22741 -1.076 0
M  V30 20545 O 1970.47 -5.21289 -2.31546 0
M  V30 20546 O 1969.4 -5.99464 -0.541001 0
M  V30 20547 H 1973.23 -2.94557 0.739579 0
M  V30 20548 H 1970.81 -1.43162 0.427207 0
M  V30 20549 H 1972.7 -3.93639 -1.5042 0
M  V30 20550 H 1971.37 -2.75623 -1.69746 0
M  V30 20551 H 1970.28 -3.71839 0.410667 0
M  V30 20552 H 1971.61 -4.89438 0.520737 0
M  V30 20553 N 1973.26 -0.409806 -1.52179 0
M  V30 20554 C 1974.23 0.40345 -2.25621 0
M  V30 20555 C 1975.23 0.973072 -1.28015 0
M  V30 20556 O 1976.42 0.851845 -1.51951 0
M  V30 20557 C 1973.55 1.568 -3.02699 0
M  V30 20558 H 1974.74 -0.239822 -2.9894 0
M  V30 20559 H 1972.29 -0.162341 -1.55455 0
M  V30 20560 H 1973.03 2.24811 -2.33731 0
M  V30 20561 H 1972.81 1.16603 -3.74361 0
M  V30 20562 H 1974.3 2.14326 -3.58405 0
M  V30 20563 N 1974.74 1.56975 -0.14025 0
M  V30 20564 C 1976.15 1.82757 0.381688 0
M  V30 20565 C 1976.5 1.0586 1.65191 0
M  V30 20566 O 1975.63 0.301768 2.14286 0
M  V30 20567 C 1976.22 3.31505 0.699272 0
M  V30 20568 C 1974.78 3.57892 1.16576 0
M  V30 20569 C 1973.93 2.7668 0.185351 0
M  V30 20570 H 1976.88 1.54444 -0.365058 0
M  V30 20571 H 1976.9 3.47292 1.55462 0
M  V30 20572 H 1976.41 3.87445 -0.225394 0
M  V30 20573 H 1974.51 3.07332 2.1066 0
M  V30 20574 H 1974.63 4.66386 1.0964 0
M  V30 20575 H 1972.99 2.45548 0.676642 0
M  V30 20576 H 1973.77 3.35388 -0.732787 0
M  V30 20577 N 1976.22 -0.133539 1.57033 0
M  V30 20578 C 1977.17 -1.18356 2.00237 0
M  V30 20579 C 1978.16 -1.43708 0.896902 0
M  V30 20580 O 1979.37 -1.43842 1.0821 0
M  V30 20581 H 1975.74 -0.398709 0.637601 0
M  V30 20582 H 1977.71 -0.792575 2.87682 0
M  V30 20583 C 1976.46 -2.50593 2.41036 0
M  V30 20584 H 1975.79 -2.31919 3.25659 0
M  V30 20585 H 1977.23 -3.22659 2.75077 0
M  V30 20586 C 1975.68 -3.12117 1.26826 0
M  V30 20587 O 1976.21 -3.97545 0.576298 0
M  V30 20588 N 1974.42 -2.7177 1.02904 0
M  V30 20589 H 1973.97 -2.02398 1.59352 0
M  V30 20590 H 1973.93 -3.13266 0.266798 0
M  V30 20591 N 1977.7 -1.52352 -0.403298 0
M  V30 20592 C 1978.66 -1.75482 -1.4744 0
M  V30 20593 C 1979.66 -0.62473 -1.48168 0
M  V30 20594 O 1980.85 -0.892662 -1.4959 0
M  V30 20595 C 1977.98 -1.84253 -2.86817 0
M  V30 20596 H 1979.18 -2.71107 -1.28222 0
M  V30 20597 H 1976.73 -1.42857 -0.634157 0
M  V30 20598 H 1977.46 -0.905623 -3.11398 0
M  V30 20599 H 1977.25 -2.66414 -2.87691 0
M  V30 20600 H 1978.74 -2.03869 -3.64454 0
M  V30 20601 N 1979.18 0.660885 -1.43074 0
M  V30 20602 C 1980.12 1.77404 -1.47637 0
M  V30 20603 C 1981.09 1.62852 -0.326854 0
M  V30 20604 O 1982.28 1.83206 -0.532921 0
M  V30 20605 C 1979.42 3.15517 -1.39796 0
M  V30 20606 C 1978.53 3.41257 -2.64892 0
M  V30 20607 C 1977.67 4.69176 -2.49093 0
M  V30 20608 C 1976.7 4.87995 -3.69496 0
M  V30 20609 N 1975.84 6.07166 -3.52554 0
M  V30 20610 H 1980.68 1.72838 -2.42757 0
M  V30 20611 H 1978.22 0.843558 -1.20509 0
M  V30 20612 H 1980.18 3.9535 -1.33245 0
M  V30 20613 H 1978.81 3.19172 -0.482623 0
M  V30 20614 H 1977.86 2.55577 -2.81753 0
M  V30 20615 H 1979.17 3.51052 -3.5435 0
M  V30 20616 H 1978.32 5.57122 -2.40207 0
M  V30 20617 H 1977.06 4.61688 -1.57147 0
M  V30 20618 H 1976.07 3.98487 -3.78799 0
M  V30 20619 H 1977.29 4.97318 -4.62441 0
M  V30 20620 H 1975.24 6.00825 -2.63336 0
M  V30 20621 H 1975.16 6.17884 -4.35609 0
M  V30 20622 H 1976.42 6.97754 -3.47506 0
M  V30 20623 N 1980.65 1.29477 0.898527 0
M  V30 20624 C 1981.56 1.16595 2.03575 0
M  V30 20625 C 1982.58 0.0889285 1.73773 0
M  V30 20626 O 1983.76 0.301228 1.99135 0
M  V30 20627 C 1980.82 0.844745 3.36251 0
M  V30 20628 C 1979.88 2.00573 3.79564 0
M  V30 20629 C 1979.12 1.69975 5.05909 0
M  V30 20630 O 1979.34 0.621246 5.67007 0
M  V30 20631 O 1978.27 2.54809 5.45303 0
M  V30 20632 H 1982.1 2.12098 2.17367 0
M  V30 20633 H 1979.68 1.0894 1.02237 0
M  V30 20634 H 1981.57 0.680229 4.15874 0
M  V30 20635 H 1980.24 -0.080494 3.236 0
M  V30 20636 H 1979.15 2.22549 3.00704 0
M  V30 20637 H 1980.48 2.91221 3.96801 0
M  V30 20638 N 1982.13 -1.10905 1.11972 0
M  V30 20639 C 1983.04 -2.20682 0.796029 0
M  V30 20640 C 1984.06 -1.72689 -0.213158 0
M  V30 20641 O 1985.23 -2.01343 -0.047955 0
M  V30 20642 C 1982.3 -3.45797 0.250055 0
M  V30 20643 C 1981.36 -4.08549 1.31855 0
M  V30 20644 C 1980.59 -5.27692 0.798538 0
M  V30 20645 O 1980.82 -5.69202 -0.369435 0
M  V30 20646 O 1979.75 -5.81174 1.5659 0
M  V30 20647 H 1983.58 -2.50794 1.71278 0
M  V30 20648 H 1981.16 -1.19548 0.896024 0
M  V30 20649 H 1983.04 -4.21371 -0.0497791 0
M  V30 20650 H 1981.72 -3.17324 -0.639327 0
M  V30 20651 H 1980.63 -3.34682 1.67148 0
M  V30 20652 H 1981.96 -4.41215 2.18153 0
M  V30 20653 N 1983.61 -0.910886 -1.2861 0
M  V30 20654 C 1984.86 -0.53847 -1.94379 0
M  V30 20655 C 1985.17 0.92185 -1.72515 0
M  V30 20656 O 1986.38 1.40229 -2.32482 0
M  V30 20657 C 1984.83 -0.91216 -3.48149 0
M  V30 20658 C 1984.44 -2.39201 -3.78796 0
M  V30 20659 C 1986.19 -0.610192 -4.20092 0
M  V30 20660 C 1984.09 -2.70598 -5.25862 0
M  V30 20661 H 1983.02 -0.197657 -0.727632 0
M  V30 20662 H 1985.67 -1.10941 -1.46165 0
M  V30 20663 H 1984.06 -0.270034 -3.95078 0
M  V30 20664 H 1985.23 -3.08063 -3.42686 0
M  V30 20665 H 1983.55 -2.66414 -3.20019 0
M  V30 20666 H 1986.14 -0.821472 -5.28352 0
M  V30 20667 H 1986.49 0.451862 -4.1384 0
M  V30 20668 H 1987.02 -1.21066 -3.7893 0
M  V30 20669 H 1983.76 -3.75645 -5.37188 0
M  V30 20670 H 1983.28 -2.0637 -5.6318 0
M  V30 20671 H 1984.96 -2.57451 -5.93572 0
M  V30 20672 N 1985.09 1.42434 -0.674558 0
M  V30 20673 C 1986.02 2.33498 -0.0100395 0
M  V30 20674 C 1987 1.50665 0.789558 0
M  V30 20675 O 1988.18 1.79268 0.74676 0
M  V30 20676 C 1985.31 3.34279 0.942081 0
M  V30 20677 C 1984.27 4.27263 0.251094 0
M  V30 20678 C 1983.59 5.18249 1.31614 0
M  V30 20679 C 1984.89 5.15008 -0.869735 0
M  V30 20680 H 1986.59 2.89314 -0.770566 0
M  V30 20681 H 1984.13 1.39112 -0.372004 0
M  V30 20682 H 1986.09 3.96896 1.41604 0
M  V30 20683 H 1984.81 2.76765 1.73403 0
M  V30 20684 H 1983.47 3.6604 -0.202625 0
M  V30 20685 H 1983.12 4.57063 2.10006 0
M  V30 20686 H 1982.82 5.81288 0.858923 0
M  V30 20687 H 1984.34 5.83742 1.79103 0
M  V30 20688 H 1985.76 5.71312 -0.477004 0
M  V30 20689 H 1984.15 5.86879 -1.25273 0
M  V30 20690 H 1985.22 4.53422 -1.71861 0
M  V30 20691 N 1986.57 0.417871 1.51959 0
M  V30 20692 C 1987.81 -0.154746 2.01507 0
M  V30 20693 C 1988.14 -1.44898 1.30497 0
M  V30 20694 O 1987.41 -1.91043 0.433536 0
M  V30 20695 H 1985.99 -0.0601759 0.744572 0
M  V30 20696 H 1988.65 0.556118 1.86798 0
M  V30 20697 H 1987.74 -0.344616 3.10192 0
M  V30 20698 N 1988.04 -1.56898 0.148573 0
M  V30 20699 C 1989.27 -2.0054 -0.509047 0
M  V30 20700 C 1989.69 -1.02867 -1.58315 0
M  V30 20701 O 1989.04 -0.0259297 -1.82482 0
M  V30 20702 C 1989.1 -3.44093 -1.10825 0
M  V30 20703 O 1988.82 -4.38032 -0.077048 0
M  V30 20704 C 1990.32 -4.03021 -1.84633 0
M  V30 20705 H 1987.54 -0.657812 -0.132378 0
M  V30 20706 H 1990.08 -2.03044 0.243618 0
M  V30 20707 H 1988.24 -3.42436 -1.81153 0
M  V30 20708 H 1988.65 -5.21953 -0.516256 0
M  V30 20709 H 1990.12 -5.05458 -2.21847 0
M  V30 20710 H 1990.6 -3.43821 -2.73283 0
M  V30 20711 H 1991.21 -4.08313 -1.19 0
M  V30 20712 N 1989.52 0.125209 -1.57102 0
M  V30 20713 C 1990.77 0.835321 -1.84798 0
M  V30 20714 C 1991.1 1.79819 -0.73341 0
M  V30 20715 O 1990.38 1.92737 0.261268 0
M  V30 20716 C 1990.66 1.59069 -3.23062 0
M  V30 20717 C 1990.51 0.647841 -4.4511 0
M  V30 20718 C 1991.83 2.54829 -3.58818 0
M  V30 20719 H 1988.95 0.302222 -0.672184 0
M  V30 20720 H 1991.59 0.0997638 -1.89738 0
M  V30 20721 H 1989.74 2.21772 -3.18982 0
M  V30 20722 H 1991.41 0.0301293 -4.6129 0
M  V30 20723 H 1989.66 -0.041074 -4.33781 0
M  V30 20724 H 1990.33 1.21288 -5.3851 0
M  V30 20725 H 1992.8 2.02233 -3.63649 0
M  V30 20726 H 1991.68 3.04716 -4.56551 0
M  V30 20727 H 1991.94 3.37205 -2.85911 0
M  V30 20728 N 1991 1.52564 0.395213 0
M  V30 20729 C 1992.23 1.7147 1.16674 0
M  V30 20730 C 1992.65 0.429414 1.83133 0
M  V30 20731 O 1992.01 -0.614309 1.70575 0
M  V30 20732 C 1992.06 2.86088 2.19513 0
M  V30 20733 O 1991.16 2.52628 3.25964 0
M  V30 20734 H 1990.5 0.570379 0.339947 0
M  V30 20735 H 1993.03 1.99329 0.461411 0
M  V30 20736 H 1993.04 3.11404 2.63612 0
M  V30 20737 H 1991.72 3.79333 1.70527 0
M  V30 20738 H 1990.29 2.38032 2.87046 0
M  V30 20739 N 1992.48 -0.653289 1.43422 0
M  V30 20740 C 1993.72 -1.41363 1.46247 0
M  V30 20741 C 1994.08 -1.92211 0.0853544 0
M  V30 20742 O 1993.37 -1.69359 -0.896004 0
M  V30 20743 C 1993.57 -2.6117 2.43978 0
M  V30 20744 C 1993.4 -2.22048 3.91056 0
M  V30 20745 C 1992.17 -2.10378 4.59423 0
M  V30 20746 C 1994.36 -1.82338 4.80892 0
M  V30 20747 N 1992.35 -1.64586 5.91426 0
M  V30 20748 C 1993.72 -1.47628 6.02168 0
M  V30 20749 C 1995.77 -1.69521 4.68153 0
M  V30 20750 C 1994.47 -1.01384 7.12119 0
M  V30 20751 C 1996.5 -1.24682 5.78108 0
M  V30 20752 C 1995.86 -0.909083 6.98509 0
M  V30 20753 H 1991.96 -0.51294 0.590268 0
M  V30 20754 H 1994.55 -0.75177 1.79601 0
M  V30 20755 H 1992.72 -3.25015 2.1265 0
M  V30 20756 H 1994.45 -3.2787 2.37241 0
M  V30 20757 H 1991.2 -2.30133 4.13927 0
M  V30 20758 H 1991.63 -1.44052 6.61497 0
M  V30 20759 H 1996.27 -1.94272 3.75524 0
M  V30 20760 H 1993.99 -0.75382 8.04576 0
M  V30 20761 H 1997.57 -1.15254 5.7027 0
M  V30 20762 H 1996.45 -0.567412 7.82145 0
M  V30 20763 N 1993.96 -1.29952 -0.891648 0
M  V30 20764 C 1994.9 -1.15662 -2.01805 0
M  V30 20765 C 1995.9 -0.0701689 -1.69255 0
M  V30 20766 O 1997.1 -0.230546 -1.78517 0
M  V30 20767 H 1993.48 -0.357511 -0.661581 0
M  V30 20768 H 1995.45 -2.11008 -2.10993 0
M  V30 20769 C 1994.2 -0.858316 -3.36939 0
M  V30 20770 H 1993.52 -1.68637 -3.62494 0
M  V30 20771 H 1994.96 -0.798404 -4.16415 0
M  V30 20772 C 1993.42 0.438629 -3.34032 0
M  V30 20773 O 1993.95 1.46221 -3.74142 0
M  V30 20774 N 1992.16 0.447383 -2.87136 0
M  V30 20775 H 1991.7 -0.386058 -2.54691 0
M  V30 20776 H 1991.66 1.31512 -2.85573 0
M  V30 20777 N 1995.44 1.1031 -1.12559 0
M  V30 20778 C 1996.37 2.18738 -0.817073 0
M  V30 20779 C 1997.35 1.68675 0.219681 0
M  V30 20780 O 1998.53 1.94033 0.0805889 0
M  V30 20781 C 1995.66 3.46231 -0.272317 0
M  V30 20782 C 1994.62 4.09575 -1.24228 0
M  V30 20783 C 1993.94 5.31784 -0.557693 0
M  V30 20784 C 1995.24 4.53135 -2.59743 0
M  V30 20785 H 1996.94 2.44802 -1.72372 0
M  V30 20786 H 1994.48 1.17658 -0.830221 0
M  V30 20787 H 1996.43 4.21377 -0.0442049 0
M  V30 20788 H 1995.16 3.19661 0.669677 0
M  V30 20789 H 1993.82 3.36437 -1.45622 0
M  V30 20790 H 1993.47 5.0149 0.389484 0
M  V30 20791 H 1993.17 5.75117 -1.20473 0
M  V30 20792 H 1994.69 6.0966 -0.338649 0
M  V30 20793 H 1996.1 5.19548 -2.42369 0
M  V30 20794 H 1994.5 5.07322 -3.20537 0
M  V30 20795 H 1995.57 3.65989 -3.18088 0
M  V30 20796 N 1996.91 0.917694 1.28125 0
M  V30 20797 C 1998.33 0.616431 1.47215 0
M  V30 20798 C 1998.53 -0.837161 1.83286 0
M  V30 20799 O 1997.59 -1.61591 1.94022 0
M  V30 20800 C 1998.9 1.55772 2.57207 0
M  V30 20801 C 2000.45 1.56486 2.71074 0
M  V30 20802 C 2000.92 2.49286 3.84214 0
M  V30 20803 N 2002.41 2.47436 3.91573 0
M  V30 20804 C 2003.15 3.15936 4.7851 0
M  V30 20805 N 2002.64 3.9378 5.70008 0
M  V30 20806 N 2004.44 3.05004 4.72154 0
M  V30 20807 H 1996.59 1.85758 1.02993 0
M  V30 20808 H 1998.85 0.796969 0.513366 0
M  V30 20809 H 1998.56 2.59423 2.37471 0
M  V30 20810 H 1998.43 1.2918 3.5439 0
M  V30 20811 H 2000.82 0.535708 2.90197 0
M  V30 20812 H 2000.9 1.87122 1.7441 0
M  V30 20813 H 2000.54 3.52306 3.65846 0
M  V30 20814 H 2000.47 2.1595 4.80284 0
M  V30 20815 H 2002.96 1.90893 3.26141 0
M  V30 20816 H 2003.28 4.43058 6.33182 0
M  V30 20817 H 2001.62 3.97885 5.69836 0
M  V30 20818 H 2004.81 2.4369 3.99666 0
M  V30 20819 H 2004.99 3.5866 5.39691 0
M  V30 20820 N 1998.39 -1.42074 0.682102 0
M  V30 20821 C 1999.3 -2.34598 0.00845226 0
M  V30 20822 C 2000.32 -1.55494 -0.780873 0
M  V30 20823 O 2001.49 -1.88032 -0.721524 0
M  V30 20824 C 1998.56 -3.34103 -0.926085 0
M  V30 20825 C 1997.62 -4.29102 -0.130475 0
M  V30 20826 C 1996.85 -5.23853 -1.0205 0
M  V30 20827 O 1997.08 -5.23716 -2.26004 0
M  V30 20828 O 1996.01 -6.00004 -0.47739 0
M  V30 20829 H 1999.84 -2.93756 0.770779 0
M  V30 20830 H 1997.42 -1.42701 0.442368 0
M  V30 20831 H 1999.3 -3.95212 -1.46236 0
M  V30 20832 H 1997.98 -2.77408 -1.66814 0
M  V30 20833 H 1996.88 -3.71383 0.450082 0
M  V30 20834 H 1998.22 -4.88858 0.57262 0
M  V30 20835 N 1999.87 -0.425924 -1.51735 0
M  V30 20836 C 2000.8 0.43622 -2.23992 0
M  V30 20837 C 2001.78 1.03418 -1.25473 0
M  V30 20838 O 2002.96 1.07884 -1.54575 0
M  V30 20839 C 2000.09 1.60697 -2.98151 0
M  V30 20840 C 1999.14 1.13079 -4.11236 0
M  V30 20841 S 1999.97 0.0821469 -5.35437 0
M  V30 20842 C 2001.13 1.25783 -6.13131 0
M  V30 20843 H 2001.36 -0.177262 -2.96771 0
M  V30 20844 H 1998.89 -0.210346 -1.5296 0
M  V30 20845 H 2000.85 2.2782 -3.4148 0
M  V30 20846 H 1999.51 2.19183 -2.24983 0
M  V30 20847 H 1998.7 2.00594 -4.62361 0
M  V30 20848 H 1998.31 0.537962 -3.70111 0
M  V30 20849 H 2000.6 2.17834 -6.41525 0
M  V30 20850 H 2001.54 0.786776 -7.03715 0
M  V30 20851 H 2001.95 1.49123 -5.44447 0
M  V30 20852 N 2001.35 1.56817 -0.156891 0
M  V30 20853 C 2002.28 2.20266 0.774915 0
M  V30 20854 C 2003.26 1.15387 1.24979 0
M  V30 20855 O 2004.44 1.43766 1.30557 0
M  V30 20856 C 2001.57 2.83207 2.01025 0
M  V30 20857 C 2000.53 3.94 1.67177 0
M  V30 20858 C 1999.85 4.43921 2.98057 0
M  V30 20859 C 2001.15 5.14297 0.91083 0
M  V30 20860 H 2002.85 2.98387 0.246082 0
M  V30 20861 H 2000.39 1.43525 0.116921 0
M  V30 20862 H 2002.35 3.26264 2.66701 0
M  V30 20863 H 2001.07 2.02433 2.56298 0
M  V30 20864 H 1999.73 3.51576 1.03876 0
M  V30 20865 H 1999.38 3.59957 3.5134 0
M  V30 20866 H 1999.08 5.18657 2.76169 0
M  V30 20867 H 2000.6 4.89656 3.64787 0
M  V30 20868 H 2002.02 5.54137 1.46988 0
M  V30 20869 H 2000.41 5.94857 0.791526 0
M  V30 20870 H 2001.48 4.84806 -0.0955943 0
M  V30 20871 N 2002.83 -0.116876 1.57166 0
M  V30 20872 C 2003.79 -1.12735 1.99558 0
M  V30 20873 C 2004.79 -1.34188 0.886016 0
M  V30 20874 O 2005.98 -1.30669 1.15201 0
M  V30 20875 C 2003.11 -2.48135 2.33756 0
M  V30 20876 H 2004.3 -0.762948 2.90033 0
M  V30 20877 H 2001.86 -0.36124 1.52068 0
M  V30 20878 H 2002.59 -2.89492 1.46167 0
M  V30 20879 H 2002.38 -2.33918 3.14682 0
M  V30 20880 H 2003.87 -3.20855 2.67286 0
M  V30 20881 N 2004.3 -1.52772 -0.387116 0
M  V30 20882 C 2005.25 -1.74065 -1.4726 0
M  V30 20883 C 2006.24 -0.594755 -1.49504 0
M  V30 20884 O 2007.43 -0.852657 -1.55109 0
M  V30 20885 C 2004.56 -1.91462 -2.84951 0
M  V30 20886 C 2003.64 -3.11989 -2.8727 0
M  V30 20887 N 2004.04 -4.34304 -2.59256 0
M  V30 20888 C 2002.33 -3.12272 -3.18437 0
M  V30 20889 C 2003.03 -5.15919 -2.68706 0
M  V30 20890 N 2002.01 -4.51647 -3.02515 0
M  V30 20891 H 2005.81 -2.66259 -1.24431 0
M  V30 20892 H 2003.33 -1.51104 -0.595086 0
M  V30 20893 H 2005.32 -2.04839 -3.63107 0
M  V30 20894 H 2003.98 -1.00481 -3.08761 0
M  V30 20895 H 2004.99 -4.62405 -2.33243 0
M  V30 20896 H 2001.67 -2.31108 -3.477 0
M  V30 20897 H 2003.06 -6.23427 -2.50576 0
M  V30 20898 N 2005.78 0.645673 -1.43767 0
M  V30 20899 C 2006.74 1.74013 -1.49171 0
M  V30 20900 C 2007.74 1.56355 -0.375476 0
M  V30 20901 O 2008.93 1.62115 -0.637529 0
M  V30 20902 C 2006.07 3.12961 -1.3516 0
M  V30 20903 H 2007.26 1.706 -2.46649 0
M  V30 20904 H 2004.81 0.858019 -1.30643 0
M  V30 20905 H 2005.55 3.2198 -0.387199 0
M  V30 20906 H 2005.33 3.27184 -2.16086 0
M  V30 20907 H 2006.82 3.92755 -1.41891 0
M  V30 20908 N 2007.26 1.30423 0.884744 0
M  V30 20909 C 2008.17 1.18747 2.02327 0
M  V30 20910 C 2009.19 0.107354 1.73669 0
M  V30 20911 O 2010.36 0.322332 1.98804 0
M  V30 20912 C 2007.43 0.880361 3.35336 0
M  V30 20913 C 2006.49 2.04587 3.77416 0
M  V30 20914 C 2005.72 1.75332 5.04078 0
M  V30 20915 O 2005.94 0.68135 5.66316 0
M  V30 20916 O 2004.88 2.60579 5.4257 0
M  V30 20917 H 2008.7 2.14391 2.15105 0
M  V30 20918 H 2006.29 1.10019 1.01076 0
M  V30 20919 H 2008.17 0.7243 4.15129 0
M  V30 20920 H 2006.85 -0.0461673 3.23667 0
M  V30 20921 H 2005.75 2.25726 2.98326 0
M  V30 20922 H 2007.09 2.95413 3.9369 0
M  V30 20923 N 2008.74 -1.09711 1.13142 0
M  V30 20924 C 2009.65 -2.19825 0.819391 0
M  V30 20925 C 2010.66 -1.72906 -0.19483 0
M  V30 20926 O 2011.84 -2.01382 -0.0265972 0
M  V30 20927 C 2008.9 -3.45512 0.286717 0
M  V30 20928 C 2007.97 -4.07128 1.36181 0
M  V30 20929 C 2007.2 -5.26816 0.854462 0
M  V30 20930 O 2007.42 -5.69562 -0.309043 0
M  V30 20931 O 2006.36 -5.79481 1.62745 0
M  V30 20932 H 2010.18 -2.48963 1.73928 0
M  V30 20933 H 2007.77 -1.18591 0.908654 0
M  V30 20934 H 2009.65 -4.214 -0.00508436 0
M  V30 20935 H 2008.32 -3.17984 -0.605634 0
M  V30 20936 H 2007.23 -3.32891 1.70689 0
M  V30 20937 H 2008.56 -4.38876 2.2282 0
M  V30 20938 N 2010.22 -0.924476 -1.27637 0
M  V30 20939 C 2011.44 -0.579431 -1.98621 0
M  V30 20940 C 2011.86 0.84181 -1.68994 0
M  V30 20941 O 2011.22 1.55905 -0.948681 0
M  V30 20942 C 2011.27 -0.791898 -3.5272 0
M  V30 20943 O 2010.99 -2.15722 -3.81308 0
M  V30 20944 C 2012.49 -0.45513 -4.40957 0
M  V30 20945 H 2009.71 -0.219875 -0.633953 0
M  V30 20946 H 2012.25 -1.24062 -1.6257 0
M  V30 20947 H 2010.41 -0.17756 -3.86993 0
M  V30 20948 H 2010.82 -2.20483 -4.75907 0
M  V30 20949 H 2012.3 -0.654507 -5.48106 0
M  V30 20950 H 2012.77 0.609177 -4.34955 0
M  V30 20951 H 2013.38 -1.04747 -4.12199 0
M  V30 20952 N 2011.69 1.41711 -0.689627 0
M  V30 20953 C 2013.11 1.55473 -0.360597 0
M  V30 20954 C 2013.31 1.66635 1.13292 0
M  V30 20955 O 2012.37 1.64148 1.91864 0
M  V30 20956 C 2013.68 2.79704 -1.10392 0
M  V30 20957 C 2015.23 2.93494 -1.08768 0
M  V30 20958 C 2015.7 4.20604 -1.81263 0
M  V30 20959 N 2017.19 4.27549 -1.78203 0
M  V30 20960 C 2017.93 5.24749 -2.3114 0
M  V30 20961 N 2017.42 6.28015 -2.92522 0
M  V30 20962 N 2019.22 5.16648 -2.21429 0
M  V30 20963 H 2011.37 1.3271 -1.65837 0
M  V30 20964 H 2013.63 0.639848 -0.699499 0
M  V30 20965 H 2013.34 2.77645 -2.15885 0
M  V30 20966 H 2013.21 3.71044 -0.678662 0
M  V30 20967 H 2015.6 2.95071 -0.0410356 0
M  V30 20968 H 2015.68 2.03343 -1.55195 0
M  V30 20969 H 2015.32 4.19788 -2.85904 0
M  V30 20970 H 2015.25 5.09716 -1.32275 0
M  V30 20971 H 2017.74 3.53555 -1.33445 0
M  V30 20972 H 2018.06 6.98563 -3.30498 0
M  V30 20973 H 2016.4 6.28534 -2.96598 0
M  V30 20974 H 2019.59 4.34898 -1.73152 0
M  V30 20975 H 2019.77 5.92234 -2.62989 0
M  V30 20976 N 2013.17 0.433965 1.51507 0
M  V30 20977 C 2014.12 -0.37918 2.27664 0
M  V30 20978 C 2015.09 -1.01975 1.31112 0
M  V30 20979 O 2016.27 -1.0393 1.6001 0
M  V30 20980 C 2013.41 -1.47628 3.1193 0
M  V30 20981 C 2012.53 -0.854176 4.23471 0
M  V30 20982 C 2011.66 -1.92604 4.95053 0
M  V30 20983 C 2010.7 -1.28219 5.9852 0
M  V30 20984 N 2009.84 -2.29527 6.63522 0
M  V30 20985 H 2014.68 0.276629 2.96713 0
M  V30 20986 H 2012.22 0.148264 1.46351 0
M  V30 20987 H 2014.17 -2.1236 3.59109 0
M  V30 20988 H 2012.8 -2.10176 2.45002 0
M  V30 20989 H 2011.86 -0.0952329 3.80281 0
M  V30 20990 H 2013.17 -0.344086 4.97612 0
M  V30 20991 H 2012.32 -2.65006 5.45762 0
M  V30 20992 H 2011.06 -2.46985 4.20535 0
M  V30 20993 H 2010.07 -0.543619 5.47106 0
M  V30 20994 H 2011.29 -0.745758 6.74993 0
M  V30 20995 H 2009.24 -2.82995 5.91819 0
M  V30 20996 H 2009.15 -1.834 7.33417 0
M  V30 20997 H 2010.42 -3.01423 7.18863 0
M  V30 20998 N 2014.65 -1.56732 0.165206 0
M  V30 20999 C 2015.58 -2.20674 -0.763223 0
M  V30 21000 C 2016.56 -1.16048 -1.24366 0
M  V30 21001 O 2017.75 -1.44456 -1.29793 0
M  V30 21002 C 2014.88 -2.84269 -1.9952 0
M  V30 21003 C 2013.83 -3.94881 -1.65085 0
M  V30 21004 C 2013.16 -4.45496 -2.95698 0
M  V30 21005 C 2014.46 -5.14773 -0.883543 0
M  V30 21006 H 2016.15 -2.98513 -0.230254 0
M  V30 21007 H 2013.7 -1.43585 -0.109308 0
M  V30 21008 H 2015.65 -3.27674 -2.64967 0
M  V30 21009 H 2014.37 -2.03789 -2.55221 0
M  V30 21010 H 2013.03 -3.52122 -1.0201 0
M  V30 21011 H 2012.68 -3.61815 -3.49426 0
M  V30 21012 H 2012.38 -5.20114 -2.73414 0
M  V30 21013 H 2013.9 -4.91584 -3.62185 0
M  V30 21014 H 2015.32 -5.54908 -1.44047 0
M  V30 21015 H 2013.72 -5.95268 -0.759968 0
M  V30 21016 H 2014.79 -4.84748 0.121303 0
M  V30 21017 N 2016.13 0.10854 -1.57226 0
M  V30 21018 C 2017.06 1.16331 -1.96322 0
M  V30 21019 C 2018.04 1.39558 -0.834411 0
M  V30 21020 O 2019.22 1.5354 -1.09352 0
M  V30 21021 C 2016.35 2.51514 -2.26844 0
M  V30 21022 C 2015.4 2.44651 -3.49354 0
M  V30 21023 S 2016.23 1.87602 -5.01563 0
M  V30 21024 C 2017.39 3.24438 -5.35249 0
M  V30 21025 H 2017.62 0.829959 -2.8548 0
M  V30 21026 H 2015.15 0.315706 -1.51138 0
M  V30 21027 H 2017.11 3.29292 -2.45106 0
M  V30 21028 H 2015.77 2.82023 -1.38281 0
M  V30 21029 H 2014.96 3.44255 -3.68109 0
M  V30 21030 H 2014.57 1.74998 -3.30532 0
M  V30 21031 H 2016.86 4.20678 -5.31071 0
M  V30 21032 H 2017.8 3.10499 -6.36393 0
M  V30 21033 H 2018.21 3.23349 -4.62716 0
M  V30 21034 N 2017.61 1.52975 0.379009 0
M  V30 21035 C 2019.02 1.60338 0.956477 0
M  V30 21036 C 2019.37 0.462422 1.90673 0
M  V30 21037 O 2018.49 -0.413093 2.12421 0
M  V30 21038 C 2019.09 2.90615 1.74151 0
M  V30 21039 C 2017.65 3.00358 2.26853 0
M  V30 21040 C 2016.79 2.55532 1.07697 0
M  V30 21041 H 2019.75 1.57909 0.158228 0
M  V30 21042 H 2019.77 2.77662 2.60161 0
M  V30 21043 H 2019.28 3.73636 1.04965 0
M  V30 21044 H 2017.38 2.21895 2.99321 0
M  V30 21045 H 2017.49 4.05188 2.55655 0
M  V30 21046 H 2015.86 2.10088 1.43997 0
M  V30 21047 H 2016.64 3.40958 0.400297 0
M  V30 21048 N 2019.08 -0.63804 1.44107 0
M  V30 21049 C 2020.33 -1.39366 1.45808 0
M  V30 21050 C 2020.65 -1.95384 0.091867 0
M  V30 21051 O 2021.85 -2.71497 -0.0136182 0
M  V30 21052 C 2020.31 -2.52293 2.56663 0
M  V30 21053 C 2019.92 -2.02818 3.99461 0
M  V30 21054 C 2021.66 -3.29549 2.67577 0
M  V30 21055 C 2019.57 -3.13047 5.01753 0
M  V30 21056 H 2018.5 -0.5237 0.542452 0
M  V30 21057 H 2021.15 -0.687131 1.70149 0
M  V30 21058 H 2019.53 -3.25489 2.2555 0
M  V30 21059 H 2020.7 -1.36533 4.40108 0
M  V30 21060 H 2019.02 -1.38398 3.92728 0
M  V30 21061 H 2021.62 -4.11709 3.41174 0
M  V30 21062 H 2021.96 -3.78579 1.73159 0
M  V30 21063 H 2022.49 -2.63441 2.98066 0
M  V30 21064 H 2019.23 -2.68969 5.97776 0
M  V30 21065 H 2018.75 -3.77995 4.65704 0
M  V30 21066 H 2020.43 -3.77934 5.25142 0
M  V30 21067 N 2020.56 -1.3089 -0.877815 0
M  V30 21068 C 2021.8 -1.21417 -1.6443 0
M  V30 21069 C 2022.17 0.225958 -1.90666 0
M  V30 21070 O 2023.37 0.444054 -2.65107 0
M  V30 21071 C 2021.64 -2.02699 -2.9436 0
M  V30 21072 S 2023.2 -2.10002 -3.85285 0
M  V30 21073 H 2020.02 -0.432571 -0.564272 0
M  V30 21074 H 2022.62 -1.65456 -1.04138 0
M  V30 21075 H 2021.32 -3.06433 -2.72996 0
M  V30 21076 H 2020.85 -1.59349 -3.59682 0
M  V30 21077 H 2022.87 -1.23262 -4.80646 0
M  V30 21078 N 2022.04 1.0911 -1.13723 0
M  V30 21079 C 2022.97 2.15129 -0.761226 0
M  V30 21080 C 2023.95 1.60603 0.254079 0
M  V30 21081 O 2025.14 1.87943 0.14482 0
M  V30 21082 C 2022.26 3.38454 -0.129002 0
M  V30 21083 C 2021.31 4.11713 -1.11332 0
M  V30 21084 S 2022.14 4.65488 -2.64729 0
M  V30 21085 C 2023.3 5.92108 -2.02876 0
M  V30 21086 H 2023.53 2.46691 -1.65924 0
M  V30 21087 H 2021.06 1.21109 -0.957709 0
M  V30 21088 H 2023.02 4.09859 0.229363 0
M  V30 21089 H 2021.68 3.05104 0.746329 0
M  V30 21090 H 2020.88 5.00186 -0.618842 0
M  V30 21091 H 2020.48 3.46186 -1.41532 0
M  V30 21092 H 2022.77 6.633 -1.37981 0
M  V30 21093 H 2023.71 6.46241 -2.89444 0
M  V30 21094 H 2024.12 5.4478 -1.479 0
M  V30 21095 N 2023.52 0.931232 1.27145 0
M  V30 21096 C 2024.8 0.491789 1.89317 0
M  V30 21097 C 2025.18 -1.03026 1.84252 0
M  V30 21098 O 2024.52 -1.88596 1.29011 0
M  V30 21099 C 2024.73 1.04187 3.33086 0
M  V30 21100 C 2026.08 1.1045 4.09983 0
M  V30 21101 O 2027.11 0.991747 3.42115 0
M  V30 21102 O 2025.96 1.27861 5.31332 0
M  V30 21103 H 2023.06 0.158746 0.811621 0
M  V30 21104 H 2025.6 1.02315 1.35387 0
M  V30 21105 H 2024.38 2.08566 3.31083 0
M  V30 21106 H 2024 0.492365 3.9454 0
M  V30 21107 N 2025 -1.41343 0.697132 0
M  V30 21108 C 2026.24 -2.01502 0.229099 0
M  V30 21109 C 2026.58 -1.55093 -1.16875 0
M  V30 21110 O 2025.85 -0.7628 -1.78918 0
M  V30 21111 C 2026.13 -3.58942 0.288524 0
M  V30 21112 C 2025.99 -4.15473 1.72343 0
M  V30 21113 C 2027.31 -4.387 -0.350786 0
M  V30 21114 H 2024.43 -0.732114 0.0847216 0
M  V30 21115 H 2027.07 -1.6807 0.886148 0
M  V30 21116 H 2025.22 -3.87554 -0.270916 0
M  V30 21117 H 2026.89 -3.97731 2.33684 0
M  V30 21118 H 2025.13 -3.70456 2.25709 0
M  V30 21119 H 2025.8 -5.24632 1.71653 0
M  V30 21120 H 2028.28 -4.1591 0.125682 0
M  V30 21121 H 2027.16 -5.48192 -0.27867 0
M  V30 21122 H 2027.42 -4.18275 -1.43172 0
M  V30 21123 N 2026.48 -0.441993 -1.51275 0
M  V30 21124 C 2027.89 -0.0945327 -1.5932 0
M  V30 21125 C 2028.09 1.39653 -1.45256 0
M  V30 21126 O 2027.15 2.16693 -1.29616 0
M  V30 21127 C 2028.46 -0.618795 -2.94264 0
M  V30 21128 C 2030.01 -0.579646 -3.07586 0
M  V30 21129 C 2030.48 -1.08096 -4.45061 0
M  V30 21130 N 2031.97 -1.03914 -4.51393 0
M  V30 21131 C 2032.71 -1.39786 -5.561 0
M  V30 21132 N 2032.21 -1.82965 -6.68203 0
M  V30 21133 N 2034 -1.31573 -5.46484 0
M  V30 21134 H 2026.15 -1.4121 -1.58662 0
M  V30 21135 H 2028.41 -0.582182 -0.748176 0
M  V30 21136 H 2028.12 -1.66222 -3.09941 0
M  V30 21137 H 2027.99 -0.0462651 -3.77172 0
M  V30 21138 H 2030.38 0.454801 -2.91574 0
M  V30 21139 H 2030.46 -1.18863 -2.26506 0
M  V30 21140 H 2030.1 -2.1139 -4.61819 0
M  V30 21141 H 2030.03 -0.448465 -5.24687 0
M  V30 21142 H 2032.53 -0.722104 -3.70937 0
M  V30 21143 H 2032.84 -2.08561 -7.44125 0
M  V30 21144 H 2031.18 -1.86895 -6.69399 0
M  V30 21145 H 2034.37 -0.977017 -4.5779 0
M  V30 21146 H 2034.55 -1.59857 -6.27973 0
M  V30 21147 N 2027.95 1.56642 -0.173515 0
M  V30 21148 C 2028.92 2.16857 0.742008 0
M  V30 21149 C 2029.92 1.11721 1.1565 0
M  V30 21150 O 2031.11 1.37223 1.0731 0
M  V30 21151 C 2028.24 2.7532 2.01026 0
M  V30 21152 H 2029.43 2.99108 0.217769 0
M  V30 21153 H 2026.98 1.56115 0.0760536 0
M  V30 21154 H 2027.72 1.96808 2.57754 0
M  V30 21155 H 2027.5 3.52264 1.722 0
M  V30 21156 H 2028.99 3.21626 2.66358 0
M  V30 21157 N 2029.43 -0.1002 1.57281 0
M  V30 21158 C 2030.68 -0.803295 1.85014 0
M  V30 21159 C 2030.99 -1.80146 0.762017 0
M  V30 21160 O 2032.2 -2.55209 0.926311 0
M  V30 21161 C 2030.66 -1.47942 3.28087 0
M  V30 21162 C 2030.26 -0.521281 4.44957 0
M  V30 21163 C 2032.01 -2.16654 3.65049 0
M  V30 21164 C 2029.91 -1.20171 5.79062 0
M  V30 21165 H 2028.84 -0.303744 0.690113 0
M  V30 21166 H 2031.5 -0.0561819 1.83414 0
M  V30 21167 H 2029.88 -2.27382 3.24212 0
M  V30 21168 H 2031.05 0.241249 4.60168 0
M  V30 21169 H 2029.37 0.0598694 4.16357 0
M  V30 21170 H 2031.96 -2.68286 4.62522 0
M  V30 21171 H 2032.31 -2.95316 2.93418 0
M  V30 21172 H 2032.84 -1.44081 3.7079 0
M  V30 21173 H 2029.58 -0.456001 6.53912 0
M  V30 21174 H 2029.1 -1.93579 5.67704 0
M  V30 21175 H 2030.78 -1.72963 6.23452 0
M  V30 21176 N 2030.91 -1.53174 -0.370891 0
M  V30 21177 C 2031.84 -1.74012 -1.47632 0
M  V30 21178 C 2032.82 -0.588337 -1.51583 0
M  V30 21179 O 2034 -0.820302 -1.69715 0
M  V30 21180 C 2031.13 -1.81411 -2.8602 0
M  V30 21181 C 2030.18 -3.03335 -2.99817 0
M  V30 21182 S 2031.01 -4.6296 -2.69125 0
M  V30 21183 C 2032.17 -4.73201 -4.09672 0
M  V30 21184 H 2032.4 -2.675 -1.29734 0
M  V30 21185 H 2029.93 -1.43695 -0.5649 0
M  V30 21186 H 2031.89 -1.8636 -3.6576 0
M  V30 21187 H 2030.55 -0.889838 -3.01232 0
M  V30 21188 H 2029.74 -3.05107 -4.01156 0
M  V30 21189 H 2029.35 -2.96471 -2.27993 0
M  V30 21190 H 2031.64 -4.52929 -5.03846 0
M  V30 21191 H 2032.58 -5.7525 -4.12908 0
M  V30 21192 H 2032.99 -4.0188 -3.96425 0
M  V30 21193 N 2032.39 0.630389 -1.44443 0
M  V30 21194 C 2033.35 1.72422 -1.51008 0
M  V30 21195 C 2034.35 1.55948 -0.392038 0
M  V30 21196 O 2035.54 1.61429 -0.654688 0
M  V30 21197 C 2032.67 3.1151 -1.38472 0
M  V30 21198 H 2033.87 1.67975 -2.48444 0
M  V30 21199 H 2031.42 0.844115 -1.31546 0
M  V30 21200 H 2032.15 3.21551 -0.421327 0
M  V30 21201 H 2031.94 3.24874 -2.19544 0
M  V30 21202 H 2033.43 3.91228 -1.46049 0
M  V30 21203 N 2033.87 1.31354 0.870861 0
M  V30 21204 C 2035.09 1.23948 1.65664 0
M  V30 21205 C 2035.51 -0.195353 1.87787 0
M  V30 21206 O 2034.87 -1.12708 1.43538 0
M  V30 21207 C 2034.92 1.97912 3.02511 0
M  V30 21208 O 2034.64 3.35795 2.81377 0
M  V30 21209 C 2036.14 1.97336 3.96955 0
M  V30 21210 H 2033.36 0.428328 0.516504 0
M  V30 21211 H 2035.9 1.73214 1.08706 0
M  V30 21212 H 2034.06 1.52409 3.5616 0
M  V30 21213 H 2034.47 3.73444 3.68293 0
M  V30 21214 H 2035.95 2.53601 4.90297 0
M  V30 21215 H 2036.42 0.955651 4.28677 0
M  V30 21216 H 2037.03 2.42714 3.49242 0
M  V30 21217 N 2035.34 -1.08505 1.143 0
M  V30 21218 C 2036.59 -1.80248 0.90519 0
M  V30 21219 C 2036.91 -1.87116 -0.56981 0
M  V30 21220 O 2038.11 -2.55262 -0.924844 0
M  V30 21221 C 2036.57 -3.23851 1.56998 0
M  V30 21222 C 2036.18 -3.2522 3.08117 0
M  V30 21223 C 2037.92 -4.00284 1.41325 0
M  V30 21224 C 2035.83 -4.63405 3.67437 0
M  V30 21225 H 2034.76 -0.67549 0.335007 0
M  V30 21226 H 2037.41 -1.21877 1.3718 0
M  V30 21227 H 2035.79 -3.82342 1.03104 0
M  V30 21228 H 2036.96 -2.76441 3.68669 0
M  V30 21229 H 2035.28 -2.62281 3.23415 0
M  V30 21230 H 2037.88 -5.02393 1.83046 0
M  V30 21231 H 2038.22 -4.14747 0.359236 0
M  V30 21232 H 2038.75 -3.4826 1.9225 0
M  V30 21233 H 2035.49 -4.54145 4.72686 0
M  V30 21234 H 2035.01 -5.1247 3.11665 0
M  V30 21235 H 2036.69 -5.3238 3.6767 0
M  V30 21236 N 2036.82 -0.937962 -1.26649 0
M  V30 21237 C 2037.75 -0.402342 -2.25641 0
M  V30 21238 C 2038.77 0.472614 -1.55789 0
M  V30 21239 O 2039.96 0.283579 -1.76233 0
M  V30 21240 C 2037.06 0.441157 -3.36016 0
M  V30 21241 C 2036.23 -0.416892 -4.35409 0
M  V30 21242 C 2035.29 0.365644 -5.24928 0
M  V30 21243 O 2034.31 -0.230215 -5.68734 0
M  V30 21244 N 2035.52 1.66298 -5.5617 0
M  V30 21245 H 2038.28 -1.25333 -2.72235 0
M  V30 21246 H 2035.84 -0.806494 -1.40383 0
M  V30 21247 H 2037.83 0.971979 -3.92855 0
M  V30 21248 H 2036.4 1.19293 -2.88943 0
M  V30 21249 H 2035.62 -1.12895 -3.77688 0
M  V30 21250 H 2036.91 -1.00313 -4.98813 0
M  V30 21251 H 2036.31 2.16925 -5.22456 0
M  V30 21252 H 2034.87 2.14011 -6.15664 0
M  V30 21253 N 2038.3 1.40971 -0.704618 0
M  V30 21254 C 2039.72 1.55082 -0.377067 0
M  V30 21255 C 2039.92 1.67827 1.11518 0
M  V30 21256 O 2038.97 1.66173 1.90112 0
M  V30 21257 C 2040.28 2.78517 -1.13352 0
M  V30 21258 C 2041.83 2.92323 -1.11875 0
M  V30 21259 C 2042.31 4.18658 -1.85714 0
M  V30 21260 N 2043.8 4.25635 -1.82728 0
M  V30 21261 C 2044.53 5.22268 -2.36693 0
M  V30 21262 N 2044.03 6.24877 -2.99167 0
M  V30 21263 N 2045.82 5.14271 -2.26897 0
M  V30 21264 H 2037.97 1.30944 -1.67235 0
M  V30 21265 H 2040.24 0.632393 -0.706246 0
M  V30 21266 H 2039.94 2.75339 -2.18818 0
M  V30 21267 H 2039.82 3.70304 -0.717978 0
M  V30 21268 H 2042.2 2.95011 -0.0723296 0
M  V30 21269 H 2042.28 2.01685 -1.57343 0
M  V30 21270 H 2041.93 4.16732 -2.9034 0
M  V30 21271 H 2041.86 5.08285 -1.37674 0
M  V30 21272 H 2044.35 3.52119 -1.37187 0
M  V30 21273 H 2044.66 6.95019 -3.37889 0
M  V30 21274 H 2043.01 6.25353 -3.03247 0
M  V30 21275 H 2046.2 4.33037 -1.77755 0
M  V30 21276 H 2046.37 5.89411 -2.69256 0
M  V30 21277 N 2039.78 0.45001 1.51039 0
M  V30 21278 C 2040.73 -0.355012 2.28053 0
M  V30 21279 C 2041.7 -1.00578 1.32186 0
M  V30 21280 O 2042.88 -1.02227 1.61103 0
M  V30 21281 C 2040.02 -1.44311 3.13478 0
M  V30 21282 C 2039.13 -0.809213 4.24353 0
M  V30 21283 C 2038.27 -1.87342 4.97068 0
M  V30 21284 C 2037.31 -1.21864 5.99846 0
M  V30 21285 N 2036.44 -2.22477 6.65919 0
M  V30 21286 H 2041.28 0.308084 2.96403 0
M  V30 21287 H 2038.82 0.163778 1.46185 0
M  V30 21288 H 2040.78 -2.08539 3.61341 0
M  V30 21289 H 2039.41 -2.07566 2.47217 0
M  V30 21290 H 2038.46 -0.0548937 3.8036 0
M  V30 21291 H 2039.77 -0.291288 4.97949 0
M  V30 21292 H 2038.93 -2.59203 5.48542 0
M  V30 21293 H 2037.67 -2.42511 4.23131 0
M  V30 21294 H 2036.67 -0.48556 5.47652 0
M  V30 21295 H 2037.9 -0.674124 6.75746 0
M  V30 21296 H 2035.84 -2.76702 5.94788 0
M  V30 21297 H 2035.76 -1.75611 7.35321 0
M  V30 21298 H 2037.03 -2.93782 7.2202 0
M  V30 21299 N 2041.26 -1.56548 0.18182 0
M  V30 21300 C 2042.49 -2.01282 -0.465719 0
M  V30 21301 C 2042.89 -1.06114 -1.56641 0
M  V30 21302 O 2042.24 -0.0558759 -1.83615 0
M  V30 21303 C 2042.3 -3.42432 -1.09454 0
M  V30 21304 C 2041.96 -4.56803 -0.134223 0
M  V30 21305 C 2042.96 -5.15803 0.651409 0
M  V30 21306 C 2040.65 -5.02293 -0.026997 0
M  V30 21307 C 2042.64 -6.18731 1.53137 0
M  V30 21308 C 2040.33 -6.05068 0.856532 0
M  V30 21309 C 2041.32 -6.63159 1.63429 0
M  V30 21310 O 2041.01 -7.63939 2.50303 0
M  V30 21311 H 2040.74 -0.664789 -0.122603 0
M  V30 21312 H 2043.3 -2.0343 0.283825 0
M  V30 21313 H 2041.53 -3.3723 -1.89242 0
M  V30 21314 H 2043.22 -3.71056 -1.64536 0
M  V30 21315 H 2043.98 -4.81534 0.5788 0
M  V30 21316 H 2039.86 -4.56782 -0.622173 0
M  V30 21317 H 2043.41 -6.64001 2.13888 0
M  V30 21318 H 2039.3 -6.38761 0.930305 0
M  V30 21319 H 2040.07 -7.81305 2.43935 0
M  V30 21320 N 2042.73 0.0918577 -1.57332 0
M  V30 21321 C 2043.68 1.11121 -2.02289 0
M  V30 21322 C 2044.65 1.39617 -0.899791 0
M  V30 21323 O 2045.84 1.51025 -1.16602 0
M  V30 21324 C 2042.98 2.42534 -2.45502 0
M  V30 21325 C 2042.09 2.20741 -3.71345 0
M  V30 21326 C 2041.22 3.45576 -4.03424 0
M  V30 21327 C 2040.26 3.19059 -5.22368 0
M  V30 21328 N 2039.4 4.36169 -5.50182 0
M  V30 21329 H 2044.24 0.720847 -2.8915 0
M  V30 21330 H 2041.78 0.344398 -1.43012 0
M  V30 21331 H 2043.74 3.19232 -2.68601 0
M  V30 21332 H 2042.37 2.79411 -1.61646 0
M  V30 21333 H 2041.42 1.3483 -3.55704 0
M  V30 21334 H 2042.73 1.97141 -4.58189 0
M  V30 21335 H 2041.88 4.3068 -4.27317 0
M  V30 21336 H 2040.62 3.72234 -3.15108 0
M  V30 21337 H 2039.63 2.32349 -4.98291 0
M  V30 21338 H 2040.85 2.93744 -6.12284 0
M  V30 21339 H 2038.8 4.62896 -4.64826 0
M  V30 21340 H 2038.72 4.15771 -6.31404 0
M  V30 21341 H 2039.98 5.22328 -5.78613 0
M  V30 21342 N 2044.21 1.53368 0.362763 0
M  V30 21343 C 2045.46 1.69352 1.10292 0
M  V30 21344 C 2045.78 0.449366 1.89752 0
M  V30 21345 O 2045.05 -0.536608 1.88407 0
M  V30 21346 H 2043.63 0.62432 0.410162 0
M  V30 21347 H 2046.29 1.90567 0.408694 0
M  V30 21348 H 2045.39 2.55586 1.79115 0
M  V30 21349 N 2045.69 -0.62272 1.44776 0
M  V30 21350 C 2046.94 -1.37812 1.47278 0
M  V30 21351 C 2047.25 -1.95276 0.112585 0
M  V30 21352 O 2048.46 -2.71496 0.0151784 0
M  V30 21353 C 2046.91 -2.49557 2.59325 0
M  V30 21354 C 2046.52 -1.9857 4.01589 0
M  V30 21355 C 2048.27 -3.26693 2.71057 0
M  V30 21356 C 2046.17 -3.07707 5.05045 0
M  V30 21357 H 2045.1 -0.517918 0.547976 0
M  V30 21358 H 2047.75 -0.669045 1.70868 0
M  V30 21359 H 2046.14 -3.23078 2.2899 0
M  V30 21360 H 2047.31 -1.31858 4.41532 0
M  V30 21361 H 2045.63 -1.34224 3.94174 0
M  V30 21362 H 2048.22 -4.08067 3.45521 0
M  V30 21363 H 2048.57 -3.76721 1.77164 0
M  V30 21364 H 2049.1 -2.60265 3.00844 0
M  V30 21365 H 2045.84 -2.62614 6.00595 0
M  V30 21366 H 2045.36 -3.73034 4.69687 0
M  V30 21367 H 2047.04 -3.72343 5.29121 0
M  V30 21368 N 2047.17 -1.31814 -0.863883 0
M  V30 21369 C 2048.12 -1.19976 -1.97166 0
M  V30 21370 C 2049.09 -0.0840886 -1.65887 0
M  V30 21371 O 2050.27 -0.258021 -1.89047 0
M  V30 21372 C 2047.41 -0.919316 -3.3263 0
M  V30 21373 C 2046.52 -2.1189 -3.76466 0
M  V30 21374 C 2045.66 -1.77472 -5.00677 0
M  V30 21375 C 2044.7 -2.93804 -5.36978 0
M  V30 21376 N 2043.83 -2.59541 -6.52367 0
M  V30 21377 H 2048.67 -2.14735 -2.06623 0
M  V30 21378 H 2046.21 -1.06811 -1.01143 0
M  V30 21379 H 2048.17 -0.737251 -4.10634 0
M  V30 21380 H 2046.8 -0.0085443 -3.22799 0
M  V30 21381 H 2045.85 -2.41154 -2.94192 0
M  V30 21382 H 2047.16 -2.98939 -3.99295 0
M  V30 21383 H 2046.32 -1.55764 -5.86364 0
M  V30 21384 H 2045.06 -0.876231 -4.79764 0
M  V30 21385 H 2044.06 -3.16154 -4.49807 0
M  V30 21386 H 2045.29 -3.84371 -5.59853 0
M  V30 21387 H 2043.23 -1.72222 -6.32989 0
M  V30 21388 H 2043.15 -3.4012 -6.7517 0
M  V30 21389 H 2044.42 -2.4124 -7.41231 0
M  V30 21390 N 2048.65 1.07897 -1.14873 0
M  V30 21391 C 2049.9 1.79765 -0.914736 0
M  V30 21392 C 2050.21 1.87416 0.559879 0
M  V30 21393 O 2051.41 2.55749 0.911294 0
M  V30 21394 C 2049.87 3.23014 -1.58713 0
M  V30 21395 C 2049.48 3.23581 -3.09837 0
M  V30 21396 C 2051.22 3.99529 -1.43446 0
M  V30 21397 C 2049.13 4.6145 -3.69889 0
M  V30 21398 H 2048.06 0.673704 -0.338585 0
M  V30 21399 H 2050.71 1.21148 -1.37824 0
M  V30 21400 H 2049.09 3.8179 -1.05131 0
M  V30 21401 H 2050.27 2.74482 -3.7013 0
M  V30 21402 H 2048.58 2.60562 -3.24802 0
M  V30 21403 H 2051.18 5.01415 -1.85708 0
M  V30 21404 H 2051.52 4.14551 -0.381226 0
M  V30 21405 H 2052.05 3.47235 -1.94094 0
M  V30 21406 H 2048.79 4.51632 -4.75088 0
M  V30 21407 H 2048.31 5.10809 -3.14378 0
M  V30 21408 H 2049.99 5.30422 -3.70488 0
M  V30 21409 N 2050.12 0.944665 1.2615 0
M  V30 21410 C 2051.06 0.414303 2.25424 0
M  V30 21411 C 2052.07 -0.464345 1.56037 0
M  V30 21412 O 2053.26 -0.274229 1.76381 0
M  V30 21413 C 2050.36 -0.423331 3.36246 0
M  V30 21414 C 2049.53 0.439977 4.35182 0
M  V30 21415 C 2048.59 -0.337801 5.25115 0
M  V30 21416 O 2047.62 0.260373 5.68604 0
M  V30 21417 N 2048.82 -1.63346 5.57044 0
M  V30 21418 H 2051.58 1.26775 2.71566 0
M  V30 21419 H 2049.14 0.813928 1.39953 0
M  V30 21420 H 2051.14 -0.951131 3.93364 0
M  V30 21421 H 2049.71 -1.17759 2.89571 0
M  V30 21422 H 2048.93 1.14896 3.77084 0
M  V30 21423 H 2050.21 1.02957 4.98274 0
M  V30 21424 H 2049.61 -2.14152 5.23599 0
M  V30 21425 H 2048.17 -2.10743 6.16791 0
M  V30 21426 N 2051.6 -1.40596 0.712085 0
M  V30 21427 C 2052.51 -2.34528 0.0582122 0
M  V30 21428 C 2053.53 -1.57115 -0.747715 0
M  V30 21429 O 2054.7 -1.8952 -0.681477 0
M  V30 21430 C 2051.77 -3.35992 -0.855008 0
M  V30 21431 C 2050.83 -4.29282 -0.0394267 0
M  V30 21432 C 2050.06 -5.25899 -0.909154 0
M  V30 21433 O 2050.29 -5.28392 -2.14845 0
M  V30 21434 O 2049.22 -6.00881 -0.350012 0
M  V30 21435 H 2053.05 -2.92055 0.832915 0
M  V30 21436 H 2050.63 -1.4173 0.472537 0
M  V30 21437 H 2052.51 -3.98225 -1.3782 0
M  V30 21438 H 2051.19 -2.80883 -1.60892 0
M  V30 21439 H 2050.1 -3.70344 0.528757 0
M  V30 21440 H 2051.43 -4.87533 0.676185 0
M  V30 21441 N 2053.08 -0.458013 -1.50798 0
M  V30 21442 C 2054.33 0.101266 -2.01846 0
M  V30 21443 C 2054.65 1.41388 -1.34293 0
M  V30 21444 O 2053.92 1.89826 -0.484035 0
M  V30 21445 H 2052.5 0.0404137 -0.745906 0
M  V30 21446 H 2055.16 -0.605448 -1.85257 0
M  V30 21447 H 2054.26 0.262253 -3.10996 0
M  V30 21448 N 2054.56 1.56449 -0.190119 0
M  V30 21449 C 2055.81 1.96613 0.450146 0
M  V30 21450 C 2056.12 1.07965 1.63104 0
M  V30 21451 O 2057.33 1.3789 2.33877 0
M  V30 21452 C 2055.78 3.49664 0.852245 0
M  V30 21453 C 2055.39 4.46967 -0.304086 0
M  V30 21454 C 2057.14 3.98608 1.45987 0
M  V30 21455 C 2055.04 5.91281 0.118694 0
M  V30 21456 H 2053.97 0.734132 0.171947 0
M  V30 21457 H 2056.62 1.8133 -0.281345 0
M  V30 21458 H 2055.01 3.60432 1.64026 0
M  V30 21459 H 2056.18 4.47927 -1.08158 0
M  V30 21460 H 2054.49 4.08188 -0.822886 0
M  V30 21461 H 2057.09 5.039 1.78856 0
M  V30 21462 H 2057.43 3.42627 2.36458 0
M  V30 21463 H 2057.97 3.90933 0.735928 0
M  V30 21464 H 2054.71 6.51176 -0.751699 0
M  V30 21465 H 2054.23 5.93586 0.861154 0
M  V30 21466 H 2055.91 6.44605 0.556195 0
M  V30 21467 N 2056.04 -0.0835127 1.57379 0
M  V30 21468 C 2057.28 -0.786031 1.86948 0
M  V30 21469 C 2057.62 -1.77811 0.780828 0
M  V30 21470 O 2056.89 -1.93362 -0.210075 0
M  V30 21471 C 2057.17 -1.50447 3.27166 0
M  V30 21472 C 2057.03 -0.529601 4.46671 0
M  V30 21473 C 2058.35 -2.45226 3.65448 0
M  V30 21474 H 2055.47 -0.284294 0.67996 0
M  V30 21475 H 2058.11 -0.0494231 1.89936 0
M  V30 21476 H 2056.26 -2.13237 3.24749 0
M  V30 21477 H 2057.93 0.0921842 4.61208 0
M  V30 21478 H 2056.17 0.156069 4.33519 0
M  V30 21479 H 2056.84 -1.06967 5.41537 0
M  V30 21480 H 2059.32 -1.92521 3.68883 0
M  V30 21481 H 2058.2 -2.92505 4.6447 0
M  V30 21482 H 2058.46 -3.29506 2.94751 0
M  V30 21483 N 2057.52 -1.53558 -0.354624 0
M  V30 21484 C 2058.79 -1.60886 -1.11243 0
M  V30 21485 C 2059.17 -0.423192 -2.06815 0
M  V30 21486 O 2058.52 0.585579 -2.20869 0
M  V30 21487 C 2058.73 -2.96439 -1.84188 0
M  V30 21488 C 2060.08 -3.51404 -2.38329 0
M  V30 21489 O 2061.1 -2.9854 -1.94299 0
M  V30 21490 O 2059.96 -4.43843 -3.1885 0
M  V30 21491 H 2057.06 -0.650291 -0.510932 0
M  V30 21492 H 2059.6 -1.65902 -0.357007 0
M  V30 21493 H 2058.37 -3.74173 -1.145 0
M  V30 21494 H 2058 -2.94963 -2.66613 0
M  V30 21495 N 2058.99 0.615033 -1.45104 0
M  V30 21496 C 2060.22 1.39902 -1.52023 0
M  V30 21497 C 2060.63 1.88611 -0.149112 0
M  V30 21498 O 2059.97 1.6242 0.858222 0
M  V30 21499 C 2060.04 2.6429 -2.43703 0
M  V30 21500 C 2059.7 2.3727 -3.90579 0
M  V30 21501 C 2060.7 1.98094 -4.80682 0
M  V30 21502 C 2058.38 2.50412 -4.3543 0
M  V30 21503 C 2060.38 1.72411 -6.13639 0
M  V30 21504 C 2058.06 2.24342 -5.68431 0
M  V30 21505 C 2059.06 1.85402 -6.57354 0
M  V30 21506 O 2058.75 1.59633 -7.87891 0
M  V30 21507 H 2058.48 0.434923 -0.517511 0
M  V30 21508 H 2061.04 0.757868 -1.90907 0
M  V30 21509 H 2059.27 3.31099 -1.99775 0
M  V30 21510 H 2060.95 3.26322 -2.41389 0
M  V30 21511 H 2061.72 1.87483 -4.47297 0
M  V30 21512 H 2057.6 2.79689 -3.66463 0
M  V30 21513 H 2061.14 1.41942 -6.83007 0
M  V30 21514 H 2057.04 2.34567 -6.01372 0
M  V30 21515 H 2057.81 1.73747 -7.99846 0
M  V30 21516 N 2060.47 1.3227 0.85688 0
M  V30 21517 C 2061.72 1.22461 1.60772 0
M  V30 21518 C 2062.04 -0.214164 1.9382 0
M  V30 21519 O 2061.31 -1.13833 1.59433 0
M  V30 21520 H 2059.89 0.450259 0.596051 0
M  V30 21521 H 2062.55 1.65764 1.0251 0
M  V30 21522 H 2061.65 1.80566 2.54563 0
M  V30 21523 N 2061.95 -1.07287 1.15444 0
M  V30 21524 C 2063.2 -1.80162 0.931099 0
M  V30 21525 C 2063.53 -1.8653 -0.540402 0
M  V30 21526 O 2062.8 -1.34951 -1.40066 0
M  V30 21527 C 2063.09 -3.25184 1.54685 0
M  V30 21528 C 2062.94 -3.26957 3.089 0
M  V30 21529 C 2064.26 -4.2247 1.23318 0
M  V30 21530 H 2061.38 -0.654053 0.339682 0
M  V30 21531 H 2064.02 -1.25539 1.42619 0
M  V30 21532 H 2062.17 -3.7183 1.12583 0
M  V30 21533 H 2063.84 -2.88549 3.59912 0
M  V30 21534 H 2062.08 -2.65898 3.42755 0
M  V30 21535 H 2062.76 -4.29218 3.47097 0
M  V30 21536 H 2065.23 -3.84218 1.59737 0
M  V30 21537 H 2064.11 -5.2223 1.69018 0
M  V30 21538 H 2064.37 -4.41844 0.150314 0
M  V30 21539 N 2063.43 -0.951342 -1.25647 0
M  V30 21540 C 2064.84 -0.655246 -1.45529 0
M  V30 21541 C 2065.04 0.788272 -1.85441 0
M  V30 21542 O 2064.1 1.5639 -1.98238 0
M  V30 21543 C 2065.41 -1.62536 -2.52987 0
M  V30 21544 C 2066.96 -1.63618 -2.6683 0
M  V30 21545 C 2067.44 -2.59385 -3.77469 0
M  V30 21546 N 2068.93 -2.57731 -3.84876 0
M  V30 21547 C 2069.66 -3.28512 -4.69966 0
M  V30 21548 N 2069.16 -4.08754 -5.59367 0
M  V30 21549 N 2070.95 -3.17415 -4.63901 0
M  V30 21550 H 2063.1 -1.88424 -0.980317 0
M  V30 21551 H 2065.36 -0.8103 -0.492055 0
M  V30 21552 H 2065.07 -2.65628 -2.3051 0
M  V30 21553 H 2064.94 -1.38531 -3.5084 0
M  V30 21554 H 2067.33 -0.61246 -2.88674 0
M  V30 21555 H 2067.41 -1.91681 -1.69387 0
M  V30 21556 H 2067.06 -3.61882 -3.56376 0
M  V30 21557 H 2066.99 -2.28608 -4.7439 0
M  V30 21558 H 2069.48 -1.99473 -3.20966 0
M  V30 21559 H 2069.79 -4.5969 -6.21212 0
M  V30 21560 H 2068.14 -4.12853 -5.59086 0
M  V30 21561 H 2071.33 -2.54201 -3.93064 0
M  V30 21562 H 2071.5 -3.72843 -5.29992 0
M  V30 21563 N 2064.91 1.40216 -0.719531 0
M  V30 21564 C 2066.15 2.00814 -0.26074 0
M  V30 21565 C 2066.48 1.5706 1.14727 0
M  V30 21566 O 2065.74 0.783515 1.79331 0
M  V30 21567 C 2066.03 3.56196 -0.293164 0
M  V30 21568 C 2065.7 4.19546 -1.65202 0
M  V30 21569 C 2064.36 4.36564 -2.02398 0
M  V30 21570 C 2066.71 4.54844 -2.54492 0
M  V30 21571 C 2064.04 4.86164 -3.28422 0
M  V30 21572 C 2066.39 5.05845 -3.79873 0
M  V30 21573 C 2065.06 5.21072 -4.17181 0
M  V30 21574 H 2064.33 0.734832 -0.0954117 0
M  V30 21575 H 2066.98 1.6777 -0.923337 0
M  V30 21576 H 2065.28 3.89172 0.453006 0
M  V30 21577 H 2066.98 4.00921 0.0797168 0
M  V30 21578 H 2063.57 4.06691 -1.35278 0
M  V30 21579 H 2067.75 4.41329 -2.2703 0
M  V30 21580 H 2063.01 4.96138 -3.57292 0
M  V30 21581 H 2067.18 5.32134 -4.49229 0
M  V30 21582 H 2064.81 5.59268 -5.14902 0
M  V30 21583 N 2066.38 0.466004 1.50553 0
M  V30 21584 C 2067.63 -0.0907392 2.02297 0
M  V30 21585 C 2067.96 -1.40178 1.34835 0
M  V30 21586 O 2067.21 -1.90185 0.461328 0
M  V30 21587 C 2067.51 -0.32772 3.55894 0
M  V30 21588 C 2067.18 0.900994 4.41806 0
M  V30 21589 C 2065.84 1.23789 4.65005 0
M  V30 21590 C 2068.19 1.71933 4.92025 0
M  V30 21591 C 2065.52 2.39327 5.35667 0
M  V30 21592 C 2067.87 2.86595 5.63956 0
M  V30 21593 C 2066.54 3.20705 5.8541 0
M  V30 21594 H 2065.81 -0.0332038 0.740256 0
M  V30 21595 H 2068.45 0.619048 1.81218 0
M  V30 21596 H 2066.76 -1.1197 3.7546 0
M  V30 21597 H 2068.46 -0.772379 3.93491 0
M  V30 21598 H 2065.05 0.628519 4.23966 0
M  V30 21599 H 2069.23 1.47224 4.73961 0
M  V30 21600 H 2064.49 2.66035 5.50487 0
M  V30 21601 H 2068.66 3.50355 6.01851 0
M  V30 21602 H 2066.29 4.10341 6.39941 0
M  V30 21603 N 2067.86 -1.56346 0.198413 0
M  V30 21604 C 2069.11 -1.97674 -0.43948 0
M  V30 21605 C 2069.44 -1.0854 -1.61398 0
M  V30 21606 O 2068.69 -0.125218 -1.95299 0
M  V30 21607 C 2068.99 -3.44852 -0.938713 0
M  V30 21608 C 2068.66 -4.50733 0.122773 0
M  V30 21609 C 2067.32 -4.79412 0.414434 0
M  V30 21610 C 2069.67 -5.14356 0.841848 0
M  V30 21611 C 2067 -5.69004 1.43009 0
M  V30 21612 C 2069.35 -6.05046 1.84667 0
M  V30 21613 C 2068.01 -6.3208 2.1455 0
M  V30 21614 H 2067.28 -0.723339 -0.160817 0
M  V30 21615 H 2069.93 -1.89197 0.296077 0
M  V30 21616 H 2068.24 -3.50415 -1.75261 0
M  V30 21617 H 2069.93 -3.74186 -1.44173 0
M  V30 21618 H 2066.52 -4.28446 -0.114715 0
M  V30 21619 H 2070.71 -4.92288 0.629749 0
M  V30 21620 H 2065.96 -5.88222 1.66749 0
M  V30 21621 H 2070.14 -6.53404 2.40907 0
M  V30 21622 H 2067.76 -7.01301 2.93395 0
M  V30 21623 N 2069.34 0.0751653 -1.57421 0
M  V30 21624 C 2070.57 0.786829 -1.9103 0
M  V30 21625 C 2070.98 1.71812 -0.792303 0
M  V30 21626 O 2070.32 1.8208 0.243447 0
M  V30 21627 C 2070.38 1.63681 -3.20076 0
M  V30 21628 C 2070.05 0.875252 -4.4854 0
M  V30 21629 C 2071.04 0.196017 -5.1953 0
M  V30 21630 C 2068.73 0.843425 -4.95168 0
M  V30 21631 C 2070.72 -0.504853 -6.35398 0
M  V30 21632 C 2068.41 0.13878 -6.10942 0
M  V30 21633 C 2069.41 -0.534162 -6.80908 0
M  V30 21634 O 2069.1 -1.22746 -7.94474 0
M  V30 21635 H 2068.83 0.229074 -0.636004 0
M  V30 21636 H 2071.38 0.0507529 -2.05337 0
M  V30 21637 H 2069.61 2.41561 -3.01969 0
M  V30 21638 H 2071.3 2.22685 -3.39362 0
M  V30 21639 H 2072.07 0.211935 -4.84537 0
M  V30 21640 H 2067.95 1.35667 -4.40585 0
M  V30 21641 H 2071.49 -1.03067 -6.89944 0
M  V30 21642 H 2067.39 0.120778 -6.45387 0
M  V30 21643 H 2068.16 -1.13639 -8.10573 0
M  V30 21644 N 2070.82 1.53744 0.346476 0
M  V30 21645 C 2072.05 1.74784 1.10717 0
M  V30 21646 C 2072.46 0.485625 1.82448 0
M  V30 21647 O 2071.82 -0.542565 1.74248 0
M  V30 21648 C 2071.87 2.926 2.1229 0
M  V30 21649 O 2071.59 4.13939 1.43477 0
M  V30 21650 C 2073.09 3.25667 3.00758 0
M  V30 21651 H 2070.31 0.58408 0.33029 0
M  V30 21652 H 2072.86 2.00558 0.399573 0
M  V30 21653 H 2071.01 2.69165 2.7862 0
M  V30 21654 H 2071.42 4.80051 2.11308 0
M  V30 21655 H 2072.9 4.11463 3.6797 0
M  V30 21656 H 2073.38 2.41845 3.66617 0
M  V30 21657 H 2073.98 3.51098 2.40022 0
M  V30 21658 N 2072.3 -0.607329 1.45428 0
M  V30 21659 C 2073.52 -1.39786 1.53214 0
M  V30 21660 C 2073.95 -1.87369 0.165684 0
M  V30 21661 O 2073.3 -1.60154 -0.849728 0
M  V30 21662 C 2073.35 -2.57823 2.52111 0
M  V30 21663 O 2072.46 -3.58462 2.03909 0
M  V30 21664 H 2071.8 -0.417312 0.516476 0
M  V30 21665 H 2074.33 -0.739101 1.90784 0
M  V30 21666 H 2074.34 -3.05064 2.70925 0
M  V30 21667 H 2073.01 -2.22539 3.51354 0
M  V30 21668 H 2071.59 -3.17868 1.94973 0
M  V30 21669 N 2073.77 -1.32722 -0.849853 0
M  V30 21670 C 2074.72 -1.2206 -1.95882 0
M  V30 21671 C 2075.69 -0.101678 -1.65788 0
M  V30 21672 O 2076.88 -0.278058 -1.88763 0
M  V30 21673 C 2074.02 -0.954544 -3.31636 0
M  V30 21674 C 2073.13 -2.15871 -3.74198 0
M  V30 21675 C 2072.26 -1.82773 -4.98766 0
M  V30 21676 C 2071.3 -2.99483 -5.33832 0
M  V30 21677 N 2070.44 -2.66445 -6.49578 0
M  V30 21678 H 2075.28 -2.16914 -2.04334 0
M  V30 21679 H 2072.82 -1.07877 -1.00004 0
M  V30 21680 H 2074.78 -0.780763 -4.09829 0
M  V30 21681 H 2073.41 -0.042781 -3.22772 0
M  V30 21682 H 2072.46 -2.4426 -2.91618 0
M  V30 21683 H 2073.77 -3.03157 -3.96102 0
M  V30 21684 H 2072.92 -1.61974 -5.84679 0
M  V30 21685 H 2071.66 -0.927067 -4.78808 0
M  V30 21686 H 2070.67 -3.20907 -4.46429 0
M  V30 21687 H 2071.89 -3.90288 -5.55745 0
M  V30 21688 H 2069.84 -1.78926 -6.31127 0
M  V30 21689 H 2069.76 -3.47262 -6.71524 0
M  V30 21690 H 2071.02 -2.49088 -7.38631 0
M  V30 21691 N 2075.25 1.06673 -1.16011 0
M  V30 21692 C 2076.16 2.17576 -0.877386 0
M  V30 21693 C 2077.18 1.73362 0.148919 0
M  V30 21694 O 2078.35 2.01382 -0.0268051 0
M  V30 21695 C 2075.42 3.44631 -0.378223 0
M  V30 21696 C 2074.48 4.03374 -1.46928 0
M  V30 21697 C 2073.71 5.24365 -0.993837 0
M  V30 21698 O 2073.94 5.70181 0.157925 0
M  V30 21699 O 2072.87 5.74962 -1.78052 0
M  V30 21700 H 2076.7 2.44264 -1.80468 0
M  V30 21701 H 2074.28 1.1614 -0.939777 0
M  V30 21702 H 2076.16 4.21265 -0.106644 0
M  V30 21703 H 2074.84 3.19478 0.521114 0
M  V30 21704 H 2073.75 3.28248 -1.79455 0
M  V30 21705 H 2075.08 4.32814 -2.34378 0
M  V30 21706 N 2076.73 0.957992 1.25141 0
M  V30 21707 C 2078.14 0.65484 1.74839 0
M  V30 21708 C 2078.49 -0.829713 1.77793 0
M  V30 21709 O 2077.62 -1.6493 1.40096 0
M  V30 21710 C 2078.21 1.18197 3.17513 0
M  V30 21711 C 2076.77 0.928917 3.64758 0
M  V30 21712 C 2075.92 1.32303 2.43703 0
M  V30 21713 H 2078.87 1.13442 1.1098 0
M  V30 21714 H 2078.89 0.543641 3.76596 0
M  V30 21715 H 2078.4 2.26246 3.15332 0
M  V30 21716 H 2076.5 -0.136467 3.7235 0
M  V30 21717 H 2076.62 1.56774 4.52724 0
M  V30 21718 H 2074.98 0.741407 2.4367 0
M  V30 21719 H 2075.76 2.41281 2.4421 0
M  V30 21720 N 2078.21 -1.39832 0.726957 0
M  V30 21721 C 2079.45 -2.00971 0.271788 0
M  V30 21722 C 2079.79 -1.57537 -1.13559 0
M  V30 21723 O 2079.06 -0.800579 -1.7726 0
M  V30 21724 C 2079.35 -3.5825 0.364596 0
M  V30 21725 C 2079.2 -4.11724 1.81117 0
M  V30 21726 C 2080.52 -4.39345 -0.257652 0
M  V30 21727 H 2077.64 -0.730152 0.100232 0
M  V30 21728 H 2080.28 -1.66152 0.921599 0
M  V30 21729 H 2078.43 -3.88042 -0.18865 0
M  V30 21730 H 2080.1 -3.92684 2.42068 0
M  V30 21731 H 2078.34 -3.65585 2.33516 0
M  V30 21732 H 2079.01 -5.20873 1.82743 0
M  V30 21733 H 2081.49 -4.1555 0.213875 0
M  V30 21734 H 2080.37 -5.4866 -0.162327 0
M  V30 21735 H 2080.63 -4.21218 -1.34267 0
M  V30 21736 N 2079.69 -0.473982 -1.50304 0
M  V30 21737 C 2080.65 0.307394 -2.27129 0
M  V30 21738 C 2081.65 0.917901 -1.32027 0
M  V30 21739 O 2082.84 0.78663 -1.55428 0
M  V30 21740 C 2079.97 1.4382 -3.09077 0
M  V30 21741 H 2081.16 -0.366396 -2.97653 0
M  V30 21742 H 2078.72 -0.228128 -1.54626 0
M  V30 21743 H 2079.45 2.14696 -2.43056 0
M  V30 21744 H 2079.24 1.0062 -3.7897 0
M  V30 21745 H 2080.73 1.98932 -3.67173 0
M  V30 21746 N 2081.16 1.56239 -0.206702 0
M  V30 21747 C 2082.39 2.02736 0.437344 0
M  V30 21748 C 2082.81 1.08577 1.53599 0
M  V30 21749 O 2082.17 0.0712895 1.8116 0
M  V30 21750 C 2082.22 3.47587 0.959974 0
M  V30 21751 O 2081.32 3.56556 2.07223 0
M  V30 21752 H 2080.67 0.656297 0.100845 0
M  V30 21753 H 2083.2 2.02066 -0.320985 0
M  V30 21754 H 2083.21 3.87612 1.27361 0
M  V30 21755 H 2081.88 4.15608 0.15578 0
M  V30 21756 H 2080.46 3.28412 1.76635 0
M  V30 21757 N 2082.64 -0.0668159 1.57458 0
M  V30 21758 C 2083.89 -0.76387 1.86676 0
M  V30 21759 C 2084.2 -1.78489 0.800057 0
M  V30 21760 O 2085.41 -2.53187 0.980236 0
M  V30 21761 C 2083.87 -1.4095 3.31151 0
M  V30 21762 C 2083.47 -0.426782 4.45963 0
M  V30 21763 C 2085.22 -2.08863 3.69563 0
M  V30 21764 C 2083.13 -1.07861 5.81481 0
M  V30 21765 H 2082.06 -0.289037 0.6964 0
M  V30 21766 H 2084.71 -0.0172645 1.83492 0
M  V30 21767 H 2083.09 -2.20453 3.28962 0
M  V30 21768 H 2084.26 0.338803 4.59553 0
M  V30 21769 H 2082.58 0.148171 4.16136 0
M  V30 21770 H 2085.17 -2.58415 4.68109 0
M  V30 21771 H 2085.52 -2.89026 2.99616 0
M  V30 21772 H 2086.05 -1.36184 3.73763 0
M  V30 21773 H 2082.79 -0.317194 6.54732 0
M  V30 21774 H 2082.31 -1.81493 5.71682 0
M  V30 21775 H 2083.99 -1.597 6.26981 0
M  V30 21776 N 2084.12 -1.53926 -0.338317 0
M  V30 21777 C 2085.37 -1.70639 -1.07542 0
M  V30 21778 C 2085.68 -0.479077 -1.89642 0
M  V30 21779 O 2086.89 -0.527259 -2.66331 0
M  V30 21780 C 2085.35 -3.0176 -1.96134 0
M  V30 21781 C 2084.95 -4.31847 -1.19216 0
M  V30 21782 C 2086.7 -3.27839 -2.6967 0
M  V30 21783 C 2084.6 -5.54039 -2.06869 0
M  V30 21784 H 2083.53 -0.635868 -0.4052 0
M  V30 21785 H 2086.19 -1.80424 -0.334569 0
M  V30 21786 H 2084.57 -2.85845 -2.7406 0
M  V30 21787 H 2085.74 -4.58482 -0.461647 0
M  V30 21788 H 2084.06 -4.12421 -0.574263 0
M  V30 21789 H 2086.65 -4.16322 -3.3553 0
M  V30 21790 H 2087 -2.45074 -3.36518 0
M  V30 21791 H 2087.53 -3.44554 -1.98815 0
M  V30 21792 H 2084.27 -6.39363 -1.44554 0
M  V30 21793 H 2083.79 -5.31645 -2.77694 0
M  V30 21794 H 2085.47 -5.89881 -2.658 0
M  V30 21795 N 2085.6 0.599608 -1.45748 0
M  V30 21796 C 2086.83 1.38483 -1.53721 0
M  V30 21797 C 2087.24 1.8801 -0.172512 0
M  V30 21798 O 2086.6 1.6267 0.82733 0
M  V30 21799 C 2086.65 2.5839 -2.52818 0
M  V30 21800 O 2086.37 2.10918 -3.83986 0
M  V30 21801 C 2087.87 3.51153 -2.70567 0
M  V30 21802 H 2085.09 0.423637 -0.520358 0
M  V30 21803 H 2087.64 0.730527 -1.91007 0
M  V30 21804 H 2085.79 3.19844 -2.18583 0
M  V30 21805 H 2086.21 2.88883 -4.37775 0
M  V30 21806 H 2087.68 4.31811 -3.43865 0
M  V30 21807 H 2088.16 4.02008 -1.7688 0
M  V30 21808 H 2088.76 2.95546 -3.05831 0
M  V30 21809 N 2087.08 1.33171 0.842803 0
M  V30 21810 C 2088.02 1.23097 1.95232 0
M  V30 21811 C 2088.99 0.110469 1.65732 0
M  V30 21812 O 2090.18 0.288065 1.88613 0
M  V30 21813 C 2087.32 0.972118 3.31125 0
M  V30 21814 C 2086.43 2.17852 3.73047 0
M  V30 21815 C 2085.57 1.85415 4.9779 0
M  V30 21816 C 2084.61 3.0231 5.32236 0
M  V30 21817 N 2083.74 2.69887 6.48156 0
M  V30 21818 H 2088.58 2.17995 2.03181 0
M  V30 21819 H 2086.12 1.08406 0.994308 0
M  V30 21820 H 2088.08 0.802486 4.09409 0
M  V30 21821 H 2086.71 0.0598977 3.22744 0
M  V30 21822 H 2085.76 2.45803 2.90318 0
M  V30 21823 H 2087.07 3.05254 3.94489 0
M  V30 21824 H 2086.23 1.65073 5.83812 0
M  V30 21825 H 2084.97 0.952447 4.78309 0
M  V30 21826 H 2083.97 3.2327 4.44721 0
M  V30 21827 H 2085.2 3.93229 5.53667 0
M  V30 21828 H 2083.14 1.82271 6.30169 0
M  V30 21829 H 2083.06 3.50818 6.69673 0
M  V30 21830 H 2084.33 2.53002 7.37299 0
M  V30 21831 N 2088.56 -1.06056 1.16576 0
M  V30 21832 C 2089.49 -2.15554 0.897693 0
M  V30 21833 C 2090.47 -1.69375 -0.156927 0
M  V30 21834 O 2091.65 -1.94198 -0.00851939 0
M  V30 21835 C 2088.78 -3.44982 0.40063 0
M  V30 21836 C 2087.74 -4.04682 1.39343 0
M  V30 21837 C 2087.06 -5.29347 0.754677 0
M  V30 21838 C 2088.36 -4.43182 2.76381 0
M  V30 21839 H 2090.06 -2.38236 1.81339 0
M  V30 21840 H 2087.6 -1.14495 0.873316 0
M  V30 21841 H 2089.55 -4.20922 0.200566 0
M  V30 21842 H 2088.28 -3.21926 -0.550576 0
M  V30 21843 H 2086.94 -3.308 1.58009 0
M  V30 21844 H 2086.59 -5.0259 -0.203091 0
M  V30 21845 H 2086.29 -5.7025 1.41735 0
M  V30 21846 H 2087.81 -6.07983 0.564687 0
M  V30 21847 H 2089.22 -5.10195 2.61485 0
M  V30 21848 H 2087.62 -4.95076 3.39146 0
M  V30 21849 H 2088.69 -3.53931 3.31453 0
M  V30 21850 N 2090.03 -0.964615 -1.24631 0
M  V30 21851 C 2090.98 -0.484126 -2.27506 0
M  V30 21852 C 2091.98 0.45075 -1.63293 0
M  V30 21853 O 2093.18 0.32638 -1.77016 0
M  V30 21854 H 2089.56 -0.138083 -0.739214 0
M  V30 21855 H 2091.53 -1.36382 -2.6541 0
M  V30 21856 C 2090.28 0.213113 -3.47046 0
M  V30 21857 H 2089.6 -0.497138 -3.96697 0
M  V30 21858 H 2091.04 0.513181 -4.20883 0
M  V30 21859 C 2089.5 1.43904 -3.0462 0
M  V30 21860 O 2090.03 2.53625 -3.11508 0
M  V30 21861 N 2088.23 1.30398 -2.59701 0
M  V30 21862 H 2087.78 0.411244 -2.54296 0
M  V30 21863 H 2087.74 2.12537 -2.3168 0
M  V30 21864 N 2091.51 1.39445 -0.734362 0
M  V30 21865 C 2092.74 2.0535 -0.290903 0
M  V30 21866 C 2093.16 1.55004 1.06562 0
M  V30 21867 O 2092.52 0.693509 1.67512 0
M  V30 21868 C 2092.57 3.59337 -0.301562 0
M  V30 21869 O 2091.67 4.06225 0.711013 0
M  V30 21870 H 2091.01 0.650668 -0.132389 0
M  V30 21871 H 2093.54 1.78491 -1.00011 0
M  V30 21872 H 2093.55 4.0774 -0.14573 0
M  V30 21873 H 2092.23 3.95343 -1.2914 0
M  V30 21874 H 2090.8 3.69237 0.521369 0
M  V30 21875 N 2092.99 0.481946 1.5005 0
M  V30 21876 C 2093.92 -0.296253 2.31613 0
M  V30 21877 C 2094.9 -0.98032 1.3901 0
M  V30 21878 O 2096.09 -0.975402 1.67927 0
M  V30 21879 C 2093.22 -1.37231 3.19037 0
M  V30 21880 C 2092.17 -0.809232 4.2028 0
M  V30 21881 C 2091.5 -1.98439 4.96514 0
M  V30 21882 C 2092.8 0.18685 5.21966 0
M  V30 21883 H 2094.49 0.384509 2.96921 0
M  V30 21884 H 2092.04 0.186362 1.42789 0
M  V30 21885 H 2093.99 -1.92429 3.74899 0
M  V30 21886 H 2092.71 -2.082 2.51636 0
M  V30 21887 H 2091.37 -0.279145 3.65536 0
M  V30 21888 H 2091.02 -2.68131 4.25576 0
M  V30 21889 H 2090.72 -1.6138 5.65005 0
M  V30 21890 H 2092.24 -2.54107 5.55213 0
M  V30 21891 H 2093.66 -0.276326 5.72634 0
M  V30 21892 H 2092.05 0.472282 5.98239 0
M  V30 21893 H 2093.12 1.10915 4.72044 0
M  V30 21894 N 2094.47 -1.56127 0.214985 0
M  V30 21895 C 2095.42 -2.21359 -0.714353 0
M  V30 21896 C 2096.41 -1.19092 -1.20472 0
M  V30 21897 O 2097.62 -1.37188 -1.16531 0
M  V30 21898 H 2093.99 -0.70966 -0.248769 0
M  V30 21899 H 2095.96 -2.98068 -0.140678 0
M  V30 21900 C 2094.71 -2.90234 -1.91466 0
M  V30 21901 H 2094.03 -3.68681 -1.54644 0
M  V30 21902 H 2095.47 -3.39286 -2.54285 0
M  V30 21903 C 2093.93 -1.92345 -2.76595 0
M  V30 21904 O 2094.46 -1.43625 -3.75146 0
M  V30 21905 N 2092.67 -1.60138 -2.42496 0
M  V30 21906 H 2092.22 -1.99952 -1.6241 0
M  V30 21907 H 2092.17 -0.949023 -2.99735 0
M  V30 21908 N 2095.95 0.0584645 -1.57492 0
M  V30 21909 C 2096.86 1.08563 -2.07969 0
M  V30 21910 C 2097.87 1.41545 -1.01198 0
M  V30 21911 O 2099.05 1.51455 -1.32753 0
M  V30 21912 C 2096.11 2.37616 -2.52467 0
M  V30 21913 C 2095.17 2.11485 -3.73594 0
M  V30 21914 C 2094.41 3.34384 -4.1596 0
M  V30 21915 O 2094.63 4.43997 -3.58083 0
M  V30 21916 O 2093.56 3.21812 -5.08646 0
M  V30 21917 H 2097.39 0.686764 -2.95833 0
M  V30 21918 H 2094.97 0.273502 -1.46875 0
M  V30 21919 H 2096.86 3.13541 -2.81549 0
M  V30 21920 H 2095.53 2.76857 -1.67726 0
M  V30 21921 H 2094.44 1.33222 -3.49575 0
M  V30 21922 H 2095.77 1.77117 -4.59228 0
M  V30 21923 N 2097.42 1.54103 0.330149 0
M  V30 21924 C 2098.83 1.633 0.904982 0
M  V30 21925 C 2099.19 0.522849 1.89105 0
M  V30 21926 O 2098.31 -0.345304 2.13627 0
M  V30 21927 C 2098.91 2.96008 1.64817 0
M  V30 21928 C 2097.46 3.07423 2.17182 0
M  V30 21929 C 2096.61 2.58829 0.995126 0
M  V30 21930 H 2099.56 1.58333 0.10791 0
M  V30 21931 H 2099.58 2.85799 2.51196 0
M  V30 21932 H 2099.1 3.76786 0.930246 0
M  V30 21933 H 2097.2 2.31306 2.9211 0
M  V30 21934 H 2097.31 4.13117 2.42635 0
M  V30 21935 H 2095.67 2.14563 1.3724 0
M  V30 21936 H 2096.46 3.42059 0.291621 0
M  V30 21937 N 2098.9 -0.59187 1.46064 0
M  V30 21938 C 2099.83 -1.71199 1.58787 0
M  V30 21939 C 2100.81 -1.64348 0.438615 0
M  V30 21940 O 2102 -1.82506 0.663725 0
M  V30 21941 C 2099.13 -3.0983 1.56917 0
M  V30 21942 C 2098.08 -3.31505 2.70719 0
M  V30 21943 C 2097.41 -4.70569 2.53907 0
M  V30 21944 C 2098.71 -3.20228 4.12615 0
M  V30 21945 H 2100.4 -1.60807 2.5255 0
M  V30 21946 H 2097.95 -0.772206 1.21544 0
M  V30 21947 H 2099.9 -3.88003 1.64413 0
M  V30 21948 H 2098.63 -3.21099 0.596928 0
M  V30 21949 H 2097.28 -2.55727 2.62677 0
M  V30 21950 H 2096.93 -4.78592 1.54787 0
M  V30 21951 H 2096.63 -4.86025 3.30232 0
M  V30 21952 H 2098.16 -5.50923 2.6328 0
M  V30 21953 H 2099.57 -3.88257 4.21817 0
M  V30 21954 H 2097.97 -3.47209 4.89455 0
M  V30 21955 H 2099.04 -2.17437 4.33416 0
M  V30 21956 N 2100.38 -1.33616 -0.835729 0
M  V30 21957 C 2101.63 -1.25436 -1.59354 0
M  V30 21958 C 2101.96 0.178683 -1.93376 0
M  V30 21959 O 2101.23 1.12082 -1.58959 0
M  V30 21960 C 2101.52 -2.13273 -2.9015 0
M  V30 21961 C 2101.37 -3.65051 -2.62789 0
M  V30 21962 C 2102.69 -2.00828 -3.91607 0
M  V30 21963 H 2099.81 -0.457008 -0.578198 0
M  V30 21964 H 2102.45 -1.63747 -0.963686 0
M  V30 21965 H 2100.6 -1.8073 -3.43902 0
M  V30 21966 H 2102.27 -4.07899 -2.15444 0
M  V30 21967 H 2100.52 -3.86775 -1.96437 0
M  V30 21968 H 2101.19 -4.2186 -3.56003 0
M  V30 21969 H 2103.66 -2.29375 -3.47169 0
M  V30 21970 H 2102.54 -2.64533 -4.8095 0
M  V30 21971 H 2102.8 -0.98144 -4.31069 0
M  V30 21972 N 2101.86 1.05436 -1.17136 0
M  V30 21973 C 2103.09 1.82074 -0.982688 0
M  V30 21974 C 2103.5 1.8288 0.469081 0
M  V30 21975 O 2102.86 1.25425 1.3257 0
M  V30 21976 C 2102.91 3.28302 -1.51328 0
M  V30 21977 O 2102.63 3.27651 -2.9082 0
M  V30 21978 C 2104.13 4.21637 -1.36885 0
M  V30 21979 H 2101.35 0.57382 -0.347811 0
M  V30 21980 H 2103.9 1.32971 -1.55367 0
M  V30 21981 H 2102.05 3.74685 -0.984381 0
M  V30 21982 H 2102.46 4.19154 -3.15294 0
M  V30 21983 H 2103.94 5.2223 -1.78828 0
M  V30 21984 H 2104.42 4.38065 -0.315584 0
M  V30 21985 H 2105.02 3.81107 -1.88779 0
M  V30 21986 N 2103.34 0.971211 1.24118 0
M  V30 21987 C 2104.27 0.448828 2.23743 0
M  V30 21988 C 2105.25 -0.479005 1.55384 0
M  V30 21989 O 2106.43 -0.409573 1.83997 0
M  V30 21990 C 2103.56 -0.351705 3.36869 0
M  V30 21991 C 2102.6 0.518924 4.23331 0
M  V30 21992 S 2103.44 1.96125 4.98292 0
M  V30 21993 C 2104.59 1.1696 6.14875 0
M  V30 21994 H 2104.83 1.29308 2.67706 0
M  V30 21995 H 2102.36 0.776507 1.33453 0
M  V30 21996 H 2104.32 -0.8076 4.02477 0
M  V30 21997 H 2102.98 -1.17097 2.91457 0
M  V30 21998 H 2102.17 -0.095892 5.03909 0
M  V30 21999 H 2101.77 0.910689 3.62743 0
M  V30 22000 H 2104.07 0.426358 6.76157 0
M  V30 22001 H 2105.01 1.94988 6.80724 0
M  V30 22002 H 2105.42 0.692432 5.60237 0
M  V30 22003 N 2104.81 -1.39054 0.741747 0
M  V30 22004 C 2106.23 -1.83161 0.361815 0
M  V30 22005 C 2106.58 -1.61934 -1.10778 0
M  V30 22006 O 2105.7 -1.11412 -1.85516 0
M  V30 22007 C 2106.3 -3.32508 0.649929 0
M  V30 22008 C 2104.86 -3.75008 0.323414 0
M  V30 22009 C 2104 -2.61973 0.909134 0
M  V30 22010 H 2106.95 -1.2795 0.938853 0
M  V30 22011 H 2106.97 -3.80424 -0.0759846 0
M  V30 22012 H 2106.49 -3.47925 1.71959 0
M  V30 22013 H 2104.59 -3.65175 -0.740136 0
M  V30 22014 H 2104.7 -4.72191 0.81069 0
M  V30 22015 H 2103.06 -2.52483 0.335302 0
M  V30 22016 H 2103.85 -2.80194 1.98358 0
M  V30 22017 N 2106.29 -0.489897 -1.49792 0
M  V30 22018 C 2107.54 0.0603289 -2.0161 0
M  V30 22019 C 2107.85 1.39071 -1.37545 0
M  V30 22020 O 2109.06 2.02698 -1.80626 0
M  V30 22021 C 2107.52 0.157998 -3.59553 0
M  V30 22022 C 2107.12 -1.16507 -4.32585 0
M  V30 22023 C 2108.87 0.65918 -4.19351 0
M  V30 22024 C 2106.78 -1.03017 -5.82358 0
M  V30 22025 H 2105.71 0.0263203 -0.75354 0
M  V30 22026 H 2108.36 -0.627641 -1.72432 0
M  V30 22027 H 2106.74 0.910172 -3.85398 0
M  V30 22028 H 2107.91 -1.92967 -4.1845 0
M  V30 22029 H 2106.23 -1.59883 -3.84482 0
M  V30 22030 H 2108.82 0.77744 -5.29018 0
M  V30 22031 H 2109.17 1.65527 -3.81977 0
M  V30 22032 H 2109.7 -0.0361409 -3.97784 0
M  V30 22033 H 2106.44 -2.00019 -6.24238 0
M  V30 22034 H 2105.96 -0.306276 -5.99018 0
M  V30 22035 H 2107.64 -0.704383 -6.43154 0
M  V30 22036 N 2107.77 1.56011 -0.223262 0
M  V30 22037 C 2109.02 1.97956 0.407171 0
M  V30 22038 C 2109.34 1.11219 1.60173 0
M  V30 22039 O 2108.61 0.189604 1.9498 0
M  V30 22040 H 2107.19 0.731075 0.153424 0
M  V30 22041 H 2109.85 1.92312 -0.316554 0
M  V30 22042 H 2108.95 3.03386 0.732342 0
M  V30 22043 N 2109.25 -0.0501116 1.5752 0
M  V30 22044 C 2110.48 -0.756338 1.92258 0
M  V30 22045 C 2110.89 -1.70529 0.819536 0
M  V30 22046 O 2110.23 -1.82444 -0.214449 0
M  V30 22047 C 2110.29 -1.58568 3.2264 0
M  V30 22048 C 2109.96 -0.803782 4.49876 0
M  V30 22049 C 2110.95 -0.11334 5.19776 0
M  V30 22050 C 2108.64 -0.764541 4.96447 0
M  V30 22051 C 2110.63 0.605876 6.34514 0
M  V30 22052 C 2108.32 -0.0415669 6.11086 0
M  V30 22053 C 2109.32 0.642421 6.79972 0
M  V30 22054 O 2109 1.3537 7.9242 0
M  V30 22055 H 2108.74 -0.218926 0.639568 0
M  V30 22056 H 2111.29 -0.0180791 2.05392 0
M  V30 22057 H 2109.52 -2.36726 3.05774 0
M  V30 22058 H 2111.21 -2.17257 3.42862 0
M  V30 22059 H 2111.98 -0.134822 4.84813 0
M  V30 22060 H 2107.85 -1.28641 4.42688 0
M  V30 22061 H 2111.4 1.1403 6.88217 0
M  V30 22062 H 2107.3 -0.0180871 6.45497 0
M  V30 22063 H 2108.06 1.2652 8.08662 0
M  V30 22064 N 2110.73 -1.54276 -0.321972 0
M  V30 22065 C 2111.97 -1.72813 -1.0613 0
M  V30 22066 C 2112.31 -0.501222 -1.8762 0
M  V30 22067 O 2111.58 0.501806 -1.87915 0
M  V30 22068 C 2111.86 -3.00469 -1.9847 0
M  V30 22069 C 2111.72 -4.33415 -1.20299 0
M  V30 22070 C 2113.04 -3.23886 -2.97969 0
M  V30 22071 H 2110.15 -0.628793 -0.384432 0
M  V30 22072 H 2112.8 -1.86973 -0.337811 0
M  V30 22073 H 2110.95 -2.88528 -2.60161 0
M  V30 22074 H 2112.62 -4.57242 -0.610559 0
M  V30 22075 H 2110.86 -4.30847 -0.505293 0
M  V30 22076 H 2111.53 -5.18959 -1.8811 0
M  V30 22077 H 2114.01 -3.353 -2.46401 0
M  V30 22078 H 2112.88 -4.14562 -3.59763 0
M  V30 22079 H 2113.15 -2.4119 -3.70513 0
M  V30 22080 N 2112.2 0.584116 -1.46376 0
M  V30 22081 C 2113.43 1.36845 -1.55181 0
M  V30 22082 C 2113.85 1.87817 -0.192443 0
M  V30 22083 O 2113.2 1.63538 0.81003 0
M  V30 22084 C 2113.26 2.55694 -2.55545 0
M  V30 22085 O 2112.98 2.06834 -3.86201 0
M  V30 22086 C 2114.48 3.48263 -2.74277 0
M  V30 22087 H 2111.7 0.418095 -0.524822 0
M  V30 22088 H 2114.24 0.710227 -1.91771 0
M  V30 22089 H 2112.4 3.17508 -2.21963 0
M  V30 22090 H 2112.81 2.84224 -4.40814 0
M  V30 22091 H 2114.28 4.2814 -3.48426 0
M  V30 22092 H 2114.76 4.00109 -1.81134 0
M  V30 22093 H 2115.37 2.92285 -3.08949 0
M  V30 22094 N 2113.68 1.34058 0.828631 0
M  V30 22095 C 2114.63 1.21721 1.9279 0
M  V30 22096 C 2115.62 0.117615 1.6047 0
M  V30 22097 O 2116.81 0.346722 1.73571 0
M  V30 22098 C 2113.94 0.969045 3.29339 0
M  V30 22099 C 2113.02 2.11155 3.67797 0
M  V30 22100 N 2113.42 3.36232 3.77865 0
M  V30 22101 C 2111.71 2.02052 3.97606 0
M  V30 22102 C 2112.41 4.11227 4.11421 0
M  V30 22103 N 2111.39 3.39763 4.24337 0
M  V30 22104 H 2115.19 2.16513 1.98744 0
M  V30 22105 H 2112.71 1.26213 1.02196 0
M  V30 22106 H 2114.7 0.861579 4.079 0
M  V30 22107 H 2113.36 0.0297527 3.24686 0
M  V30 22108 H 2114.37 3.70855 3.61506 0
M  V30 22109 H 2111.05 1.15845 4.01106 0
M  V30 22110 H 2112.44 5.19211 4.26462 0
M  V30 22111 N 2115.16 -1.04814 1.17694 0
M  V30 22112 C 2116.41 -1.77532 0.96576 0
M  V30 22113 C 2116.73 -1.88306 -0.506545 0
M  V30 22114 O 2116 -1.40259 -1.36763 0
M  V30 22115 H 2114.58 -0.657613 0.354336 0
M  V30 22116 H 2117.24 -1.26536 1.48239 0
M  V30 22117 H 2116.34 -2.79071 1.39735 0
M  V30 22118 N 2116.64 -0.977779 -1.23601 0
M  V30 22119 C 2117.89 -0.645211 -1.91946 0
M  V30 22120 C 2118.21 0.82092 -1.76327 0
M  V30 22121 O 2117.47 1.60733 -1.1164 0
M  V30 22122 C 2117.77 -0.978335 -3.43749 0
M  V30 22123 C 2117.43 -2.43425 -3.79546 0
M  V30 22124 C 2116.1 -2.83215 -3.89028 0
M  V30 22125 C 2118.45 -3.37865 -3.96859 0
M  V30 22126 C 2115.78 -4.16465 -4.13248 0
M  V30 22127 C 2118.13 -4.70755 -4.22578 0
M  V30 22128 C 2116.79 -5.10308 -4.30281 0
M  V30 22129 H 2116.06 -0.236099 -0.70238 0
M  V30 22130 H 2118.71 -1.23115 -1.4668 0
M  V30 22131 H 2117.01 -0.310278 -3.90569 0
M  V30 22132 H 2118.71 -0.699263 -3.94856 0
M  V30 22133 H 2115.3 -2.11576 -3.72738 0
M  V30 22134 H 2119.49 -3.08303 -3.88926 0
M  V30 22135 H 2114.74 -4.4672 -4.17434 0
M  V30 22136 H 2118.92 -5.43893 -4.34918 0
M  V30 22137 H 2116.54 -6.13581 -4.48801 0
M  V30 22138 N 2118.12 1.38658 -0.749111 0
M  V30 22139 C 2119.07 2.3235 -0.10773 0
M  V30 22140 C 2120.06 1.5379 0.710284 0
M  V30 22141 O 2121.27 1.69353 0.609885 0
M  V30 22142 H 2117.64 0.751829 -0.0160406 0
M  V30 22143 H 2119.61 2.84055 -0.91408 0
M  V30 22144 C 2118.36 3.38962 0.774615 0
M  V30 22145 H 2117.68 3.99501 0.154555 0
M  V30 22146 H 2119.12 4.06936 1.19076 0
M  V30 22147 C 2117.58 2.77165 1.91524 0
M  V30 22148 O 2118.11 2.66119 3.00904 0
M  V30 22149 N 2116.32 2.35041 1.70892 0
M  V30 22150 H 2115.87 2.44224 0.819286 0
M  V30 22151 H 2115.82 1.94035 2.47382 0
M  V30 22152 N 2119.6 0.497834 1.49531 0
M  V30 22153 C 2120.53 -0.271671 2.31914 0
M  V30 22154 C 2121.51 -0.965521 1.40042 0
M  V30 22155 O 2122.69 -0.957536 1.68952 0
M  V30 22156 C 2119.82 -1.3384 3.20475 0
M  V30 22157 C 2118.78 -0.76461 4.21115 0
M  V30 22158 C 2118.1 -1.93162 4.98591 0
M  V30 22159 C 2119.4 0.242201 5.21738 0
M  V30 22160 H 2121.1 0.415979 2.96496 0
M  V30 22161 H 2118.64 0.201496 1.42583 0
M  V30 22162 H 2120.59 -1.88442 3.76918 0
M  V30 22163 H 2119.32 -2.05519 2.5383 0
M  V30 22164 H 2117.98 -0.240359 3.65811 0
M  V30 22165 H 2117.63 -2.63602 4.28396 0
M  V30 22166 H 2117.33 -1.55378 5.66685 0
M  V30 22167 H 2118.85 -2.48204 5.57877 0
M  V30 22168 H 2120.26 -0.215575 5.72895 0
M  V30 22169 H 2118.66 0.535707 5.97704 0
M  V30 22170 H 2119.73 1.15916 4.70841 0
M  V30 22171 N 2121.07 -1.5589 0.231532 0
M  V30 22172 C 2121.98 -2.24359 -0.685566 0
M  V30 22173 C 2123 -1.25454 -1.20571 0
M  V30 22174 O 2124.18 -1.58292 -1.24522 0
M  V30 22175 C 2121.24 -2.91783 -1.87252 0
M  V30 22176 C 2120.3 -4.06059 -1.39337 0
M  V30 22177 C 2119.53 -4.70258 -2.52375 0
M  V30 22178 O 2119.76 -4.33477 -3.70747 0
M  V30 22179 O 2118.69 -5.59063 -2.23008 0
M  V30 22180 H 2122.52 -3.03412 -0.132235 0
M  V30 22181 H 2120.1 -1.494 0.000664697 0
M  V30 22182 H 2121.98 -3.34305 -2.56551 0
M  V30 22183 H 2120.66 -2.15683 -2.41377 0
M  V30 22184 H 2119.57 -3.68086 -0.668112 0
M  V30 22185 H 2120.9 -4.83932 -0.898393 0
M  V30 22186 N 2122.55 0.0417572 -1.57545 0
M  V30 22187 C 2123.46 1.06351 -2.09109 0
M  V30 22188 C 2124.48 1.40464 -1.02694 0
M  V30 22189 O 2125.65 1.50038 -1.34352 0
M  V30 22190 C 2122.72 2.34925 -2.54973 0
M  V30 22191 C 2121.78 2.0751 -3.75816 0
M  V30 22192 C 2121.01 3.29954 -4.19483 0
M  V30 22193 O 2121.24 4.40174 -3.62772 0
M  V30 22194 O 2120.17 3.16399 -5.12031 0
M  V30 22195 H 2124 0.655348 -2.96545 0
M  V30 22196 H 2121.58 0.257909 -1.47157 0
M  V30 22197 H 2123.46 3.10537 -2.84859 0
M  V30 22198 H 2122.14 2.75062 -1.70653 0
M  V30 22199 H 2121.04 1.29507 -3.50968 0
M  V30 22200 H 2122.38 1.72237 -4.61081 0
M  V30 22201 N 2124.03 1.54445 0.313786 0
M  V30 22202 C 2124.99 1.8378 1.36959 0
M  V30 22203 C 2125.99 0.710053 1.44274 0
M  V30 22204 O 2127.18 0.978359 1.44131 0
M  V30 22205 C 2124.31 2.00661 2.75586 0
M  V30 22206 H 2125.51 2.78122 1.12197 0
M  V30 22207 H 2123.06 1.46311 0.549789 0
M  V30 22208 H 2123.8 1.08564 3.05589 0
M  V30 22209 H 2123.58 2.82734 2.71669 0
M  V30 22210 H 2125.07 2.24771 3.51948 0
M  V30 22211 N 2125.51 -0.576345 1.46683 0
M  V30 22212 C 2126.47 -1.66698 1.57303 0
M  V30 22213 C 2127.47 -1.54385 0.449647 0
M  V30 22214 O 2128.66 -1.58888 0.71415 0
M  V30 22215 C 2125.79 -3.06156 1.49938 0
M  V30 22216 H 2126.99 -1.58638 2.54507 0
M  V30 22217 H 2124.54 -0.79471 1.34588 0
M  V30 22218 H 2125.27 -3.19766 0.540379 0
M  V30 22219 H 2125.06 -3.16502 2.3145 0
M  V30 22220 H 2126.55 -3.85538 1.60469 0
M  V30 22221 N 2126.99 -1.34495 -0.82151 0
M  V30 22222 C 2128.4 -1.14208 -1.11484 0
M  V30 22223 C 2128.6 0.0554729 -2.01424 0
M  V30 22224 O 2127.66 0.730574 -2.417 0
M  V30 22225 C 2128.97 -2.43799 -1.76019 0
M  V30 22226 C 2130.52 -2.49868 -1.88508 0
M  V30 22227 C 2130.99 -3.79464 -2.56459 0
M  V30 22228 N 2132.48 -3.80632 -2.63957 0
M  V30 22229 C 2133.22 -4.77629 -3.17267 0
M  V30 22230 N 2132.72 -5.85009 -3.71129 0
M  V30 22231 N 2134.51 -4.65083 -3.15681 0
M  V30 22232 H 2126.66 -2.11223 -0.223307 0
M  V30 22233 H 2128.92 -0.93412 -0.161627 0
M  V30 22234 H 2128.63 -3.31528 -1.17397 0
M  V30 22235 H 2128.5 -2.57243 -2.75873 0
M  V30 22236 H 2130.89 -1.62577 -2.46278 0
M  V30 22237 H 2130.97 -2.4035 -0.875522 0
M  V30 22238 H 2130.61 -4.67146 -1.99342 0
M  V30 22239 H 2130.54 -3.86264 -3.57921 0
M  V30 22240 H 2133.04 -3.03038 -2.2578 0
M  V30 22241 H 2133.35 -6.55034 -4.10062 0
M  V30 22242 H 2131.69 -5.88721 -3.69369 0
M  V30 22243 H 2134.88 -3.80342 -2.72869 0
M  V30 22244 H 2135.06 -5.40842 -3.56922 0
M  V30 22245 N 2128.46 1.04188 -1.18248 0
M  V30 22246 C 2129.7 1.78933 -0.988049 0
M  V30 22247 C 2130.07 1.86056 0.474043 0
M  V30 22248 O 2131.27 2.56994 0.787877 0
M  V30 22249 C 2129.54 3.184 -1.62347 0
M  V30 22250 S 2131.1 4.09497 -1.57663 0
M  V30 22251 H 2127.92 0.616126 -0.354837 0
M  V30 22252 H 2130.52 1.24936 -1.5037 0
M  V30 22253 H 2129.22 3.10824 -2.67986 0
M  V30 22254 H 2128.75 3.77473 -1.10805 0
M  V30 22255 H 2130.77 4.9266 -0.591661 0
M  V30 22256 N 2129.94 0.98432 1.23081 0
M  V30 22257 C 2130.88 0.472534 2.23254 0
M  V30 22258 C 2131.85 -0.462497 1.55884 0
M  V30 22259 O 2133.04 -0.390035 1.84421 0
M  V30 22260 C 2130.16 -0.315956 3.37223 0
M  V30 22261 C 2129.21 0.563795 4.22757 0
M  V30 22262 S 2130.04 2.01399 4.96184 0
M  V30 22263 C 2131.2 1.23475 6.136 0
M  V30 22264 H 2131.43 1.3214 2.6632 0
M  V30 22265 H 2128.97 0.790618 1.32622 0
M  V30 22266 H 2130.92 -0.764866 4.03311 0
M  V30 22267 H 2129.58 -1.13999 2.92682 0
M  V30 22268 H 2128.78 -0.0424403 5.03982 0
M  V30 22269 H 2128.38 0.949112 3.61757 0
M  V30 22270 H 2130.67 0.498049 6.75667 0
M  V30 22271 H 2131.61 2.02197 6.78618 0
M  V30 22272 H 2132.02 0.751814 5.59471 0
M  V30 22273 N 2131.42 -1.38259 0.756453 0
M  V30 22274 C 2132.84 -1.53575 0.434365 0
M  V30 22275 C 2133.04 -1.71851 -1.05212 0
M  V30 22276 O 2132.09 -1.73115 -1.83814 0
M  V30 22277 C 2133.41 -2.74118 1.23611 0
M  V30 22278 C 2134.95 -2.8797 1.22647 0
M  V30 22279 C 2135.43 -4.11477 2.01124 0
M  V30 22280 N 2136.92 -4.1856 1.98399 0
M  V30 22281 C 2137.65 -5.13124 2.55913 0
M  V30 22282 N 2137.15 -6.13343 3.22153 0
M  V30 22283 N 2138.94 -5.05495 2.45827 0
M  V30 22284 H 2131.09 -1.24647 1.7198 0
M  V30 22285 H 2133.36 -0.605745 0.72923 0
M  V30 22286 H 2133.06 -2.67028 2.28886 0
M  V30 22287 H 2132.94 -3.67384 0.854919 0
M  V30 22288 H 2135.32 -2.9454 0.181771 0
M  V30 22289 H 2135.41 -1.95707 1.6472 0
M  V30 22290 H 2135.05 -4.05669 3.05607 0
M  V30 22291 H 2134.98 -5.02825 1.56444 0
M  V30 22292 H 2137.47 -3.46785 1.50161 0
M  V30 22293 H 2137.78 -6.81999 3.63451 0
M  V30 22294 H 2136.13 -6.13667 3.26248 0
M  V30 22295 H 2139.32 -4.26141 1.93705 0
M  V30 22296 H 2139.49 -5.79012 2.90946 0
M  V30 22297 N 2132.9 -0.505757 -1.49264 0
M  V30 22298 C 2134.12 0.0358953 -2.07369 0
M  V30 22299 C 2134.55 1.29628 -1.36302 0
M  V30 22300 O 2133.91 1.76338 -0.421242 0
M  V30 22301 C 2133.95 0.267709 -3.59605 0
M  V30 22302 O 2133.06 1.34146 -3.89973 0
M  V30 22303 H 2132.4 -0.0283388 -0.663395 0
M  V30 22304 H 2134.93 -0.70674 -1.92006 0
M  V30 22305 H 2134.94 0.497774 -4.04952 0
M  V30 22306 H 2133.61 -0.653126 -4.1074 0
M  V30 22307 H 2132.19 1.09597 -3.56431 0
M  V30 22308 N 2134.38 1.55765 -0.239796 0
M  V30 22309 C 2135.31 2.24064 0.657067 0
M  V30 22310 C 2136.29 1.2185 1.18687 0
M  V30 22311 O 2137.47 1.50484 1.22753 0
M  V30 22312 C 2134.6 2.93465 1.8573 0
M  V30 22313 C 2133.56 4.02307 1.46057 0
M  V30 22314 C 2132.88 4.59097 2.74106 0
M  V30 22315 C 2134.18 5.18402 0.636932 0
M  V30 22316 H 2135.88 2.99272 0.0875675 0
M  V30 22317 H 2133.42 1.43943 0.0406772 0
M  V30 22318 H 2135.38 3.39943 2.49032 0
M  V30 22319 H 2134.1 2.15734 2.45207 0
M  V30 22320 H 2132.76 3.56588 0.850935 0
M  V30 22321 H 2132.41 3.78075 3.31766 0
M  V30 22322 H 2132.11 5.32566 2.48288 0
M  V30 22323 H 2133.63 5.08304 3.38318 0
M  V30 22324 H 2135.04 5.61149 1.17408 0
M  V30 22325 H 2133.44 5.98216 0.475092 0
M  V30 22326 H 2134.51 4.83617 -0.352445 0
M  V30 22327 N 2135.85 -0.0334016 1.57565 0
M  V30 22328 C 2136.8 -1.03536 2.06274 0
M  V30 22329 C 2137.77 -1.36182 0.950989 0
M  V30 22330 O 2138.96 -1.46593 1.22127 0
M  V30 22331 C 2136.1 -2.33256 2.54334 0
M  V30 22332 C 2135.21 -2.06807 3.79282 0
M  V30 22333 C 2134.34 -3.30365 4.15971 0
M  V30 22334 C 2133.38 -2.99452 5.33849 0
M  V30 22335 N 2132.52 -4.15449 5.65991 0
M  V30 22336 H 2137.36 -0.613034 2.91626 0
M  V30 22337 H 2134.9 -0.291083 1.44191 0
M  V30 22338 H 2136.86 -3.09044 2.80264 0
M  V30 22339 H 2135.49 -2.73219 1.71905 0
M  V30 22340 H 2134.54 -1.21536 3.60463 0
M  V30 22341 H 2135.85 -1.8 4.6519 0
M  V30 22342 H 2135 -4.14524 4.43007 0
M  V30 22343 H 2133.74 -3.60282 3.28706 0
M  V30 22344 H 2132.75 -2.13695 5.06571 0
M  V30 22345 H 2133.97 -2.70817 6.22764 0
M  V30 22346 H 2131.92 -4.45326 4.81686 0
M  V30 22347 H 2131.84 -3.9205 6.464 0
M  V30 22348 H 2133.1 -5.00494 5.976 0
M  V30 22349 N 2137.33 -1.54609 -0.305591 0
M  V30 22350 C 2138.3 -1.84504 -1.35982 0
M  V30 22351 C 2139.3 -0.717695 -1.43895 0
M  V30 22352 O 2140.49 -0.985988 -1.4361 0
M  V30 22353 C 2137.62 -2.0212 -2.74518 0
M  V30 22354 H 2138.81 -2.78713 -1.10721 0
M  V30 22355 H 2136.36 -1.46601 -0.542022 0
M  V30 22356 H 2137.1 -1.10183 -3.05009 0
M  V30 22357 H 2136.88 -2.84171 -2.70166 0
M  V30 22358 H 2138.37 -2.26635 -3.50751 0
M  V30 22359 N 2138.81 0.568558 -1.46987 0
M  V30 22360 C 2140.22 1.1507 -1.47023 0
M  V30 22361 C 2140.57 1.94977 -0.218726 0
M  V30 22362 O 2139.7 2.05531 0.677201 0
M  V30 22363 C 2140.29 2.09348 -2.66381 0
M  V30 22364 C 2138.85 2.62857 -2.69413 0
M  V30 22365 C 2138 1.39006 -2.39943 0
M  V30 22366 H 2140.95 0.355745 -1.54661 0
M  V30 22367 H 2140.97 2.93044 -2.42705 0
M  V30 22368 H 2140.48 1.51163 -3.57451 0
M  V30 22369 H 2138.58 3.24872 -1.82452 0
M  V30 22370 H 2138.7 3.04626 -3.69784 0
M  V30 22371 H 2137.06 1.69297 -1.90291 0
M  V30 22372 H 2137.84 0.826309 -3.33207 0
M  V30 22373 N 2140.29 1.34929 0.814366 0
M  V30 22374 C 2141.25 1.27093 1.90736 0
M  V30 22375 C 2142.25 0.184145 1.59742 0
M  V30 22376 O 2143.44 0.437337 1.68621 0
M  V30 22377 C 2140.57 0.964254 3.26979 0
M  V30 22378 H 2141.77 2.24271 1.99105 0
M  V30 22379 H 2139.32 1.19341 1.00933 0
M  V30 22380 H 2140.05 -0.0039895 3.243 0
M  V30 22381 H 2139.84 1.75045 3.50859 0
M  V30 22382 H 2141.33 0.934826 4.07002 0
M  V30 22383 N 2141.77 -1.0356 1.18799 0
M  V30 22384 C 2143.01 -1.77109 0.987945 0
M  V30 22385 C 2143.35 -1.88154 -0.480786 0
M  V30 22386 O 2142.62 -1.39339 -1.35702 0
M  V30 22387 C 2142.9 -3.20098 1.64952 0
M  V30 22388 C 2142.76 -3.16964 3.19145 0
M  V30 22389 C 2144.08 -4.18333 1.36696 0
M  V30 22390 H 2141.19 -0.642915 0.360318 0
M  V30 22391 H 2143.84 -1.20938 1.4654 0
M  V30 22392 H 2141.99 -3.6806 1.24356 0
M  V30 22393 H 2143.66 -2.76953 3.6891 0
M  V30 22394 H 2141.9 -2.54859 3.5104 0
M  V30 22395 H 2142.57 -4.17958 3.60576 0
M  V30 22396 H 2145.05 -3.78941 1.7188 0
M  V30 22397 H 2143.92 -5.16589 1.85546 0
M  V30 22398 H 2144.19 -4.41143 0.290807 0
M  V30 22399 N 2143.25 -0.990834 -1.22557 0
M  V30 22400 C 2144.49 -0.666519 -1.91534 0
M  V30 22401 C 2144.82 0.799165 -1.76994 0
M  V30 22402 O 2144.1 1.57769 -1.13751 0
M  V30 22403 C 2144.38 -1.07064 -3.43816 0
M  V30 22404 C 2144.24 -2.59473 -3.67415 0
M  V30 22405 C 2145.55 -0.622332 -4.35678 0
M  V30 22406 H 2142.67 -0.243613 -0.695573 0
M  V30 22407 H 2145.32 -1.23399 -1.44474 0
M  V30 22408 H 2143.47 -0.587797 -3.84028 0
M  V30 22409 H 2145.14 -3.15412 -3.3662 0
M  V30 22410 H 2143.38 -3.01635 -3.11767 0
M  V30 22411 H 2144.05 -2.828 -4.74055 0
M  V30 22412 H 2146.53 -1.03704 -4.0297 0
M  V30 22413 H 2145.4 -0.933416 -5.40905 0
M  V30 22414 H 2145.66 0.477057 -4.39519 0
M  V30 22415 N 2144.72 1.37856 -0.763775 0
M  V30 22416 C 2145.95 2.04686 -0.334395 0
M  V30 22417 C 2146.37 1.57229 1.0325 0
M  V30 22418 O 2145.73 0.728884 1.66003 0
M  V30 22419 C 2145.78 3.58616 -0.377715 0
M  V30 22420 O 2144.88 4.07641 0.624687 0
M  V30 22421 H 2144.22 0.647714 -0.146161 0
M  V30 22422 H 2146.75 1.76329 -1.03774 0
M  V30 22423 H 2146.76 4.07339 -0.232185 0
M  V30 22424 H 2145.44 3.92514 -1.37496 0
M  V30 22425 H 2144.02 3.7026 0.442931 0
M  V30 22426 N 2146.2 0.513665 1.48994 0
M  V30 22427 C 2147.45 -0.0263732 2.02783 0
M  V30 22428 C 2147.78 -1.35469 1.39147 0
M  V30 22429 O 2147.06 -1.87097 0.531511 0
M  V30 22430 C 2147.34 -0.165605 3.59719 0
M  V30 22431 C 2147.19 1.18673 4.33863 0
M  V30 22432 C 2148.51 -0.900228 4.30794 0
M  V30 22433 H 2145.63 -0.00811043 0.736955 0
M  V30 22434 H 2148.27 0.667534 1.77888 0
M  V30 22435 H 2146.42 -0.756613 3.81061 0
M  V30 22436 H 2148.09 1.81759 4.23983 0
M  V30 22437 H 2146.34 1.77281 3.95922 0
M  V30 22438 H 2147.01 1.04247 5.42067 0
M  V30 22439 H 2149.48 -0.398863 4.14184 0
M  V30 22440 H 2148.36 -0.966514 5.40324 0
M  V30 22441 H 2148.62 -1.94685 3.96926 0
M  V30 22442 N 2147.68 -1.55636 0.248053 0
M  V30 22443 C 2148.9 -2.03825 -0.383439 0
M  V30 22444 C 2149.33 -1.12611 -1.50666 0
M  V30 22445 O 2148.69 -0.119296 -1.80907 0
M  V30 22446 C 2148.74 -3.5001 -0.86748 0
M  V30 22447 O 2147.84 -3.61925 -1.97696 0
M  V30 22448 H 2147.18 -0.65874 -0.0834089 0
M  V30 22449 H 2149.71 -2.01144 0.374447 0
M  V30 22450 H 2149.72 -3.90853 -1.17039 0
M  V30 22451 H 2148.4 -4.15875 -0.0455341 0
M  V30 22452 H 2146.97 -3.3298 -1.67866 0
M  V30 22453 N 2149.16 0.0250451 -1.5758 0
M  V30 22454 C 2150.38 0.730408 -1.94113 0
M  V30 22455 C 2150.81 1.67882 -0.848362 0
M  V30 22456 O 2150.17 1.80242 0.195596 0
M  V30 22457 C 2150.21 1.46014 -3.29715 0
M  V30 22458 O 2149.32 2.57351 -3.22249 0
M  V30 22459 H 2148.66 0.196157 -0.634365 0
M  V30 22460 H 2151.19 -0.0206802 -2.0459 0
M  V30 22461 H 2151.2 1.82917 -3.64699 0
M  V30 22462 H 2149.87 0.764593 -4.08811 0
M  V30 22463 H 2148.45 2.22961 -2.98903 0
M  V30 22464 N 2150.64 1.54769 0.297388 0
M  V30 22465 C 2152.05 1.65183 0.87014 0
M  V30 22466 C 2152.4 0.562844 1.87953 0
M  V30 22467 O 2151.52 -0.299913 2.14312 0
M  V30 22468 C 2152.12 2.99437 1.58501 0
M  V30 22469 C 2150.68 3.1196 2.10612 0
M  V30 22470 C 2149.82 2.60882 0.94 0
M  V30 22471 H 2152.77 1.58526 0.0743014 0
M  V30 22472 H 2152.8 2.91063 2.45077 0
M  V30 22473 H 2152.31 3.78675 0.850115 0
M  V30 22474 H 2150.41 2.3745 2.87138 0
M  V30 22475 H 2150.52 4.1817 2.33817 0
M  V30 22476 H 2148.89 2.17426 1.32658 0
M  V30 22477 H 2149.67 3.42601 0.219 0
M  V30 22478 N 2152.11 -0.560755 1.47286 0
M  V30 22479 C 2153.39 -1.32148 1.4421 0
M  V30 22480 C 2153.77 -2.10654 0.137154 0
M  V30 22481 O 2153.12 -2.10818 -0.88136 0
M  V30 22482 C 2153.33 -2.22899 2.68546 0
M  V30 22483 C 2154.68 -2.84031 3.15613 0
M  V30 22484 O 2155.7 -2.33202 2.69249 0
M  V30 22485 O 2154.56 -3.76408 3.96206 0
M  V30 22486 H 2151.65 -0.594853 0.574525 0
M  V30 22487 H 2154.2 -0.579952 1.59482 0
M  V30 22488 H 2152.97 -1.64465 3.55059 0
M  V30 22489 H 2152.59 -3.04353 2.55842 0
M  V30 22490 N 2153.59 -1.35359 -0.807199 0
M  V30 22491 C 2154.55 -1.28103 -1.90059 0
M  V30 22492 C 2155.55 -0.192614 -1.59642 0
M  V30 22493 O 2156.74 -0.446274 -1.68387 0
M  V30 22494 C 2153.88 -0.981581 -3.26463 0
M  V30 22495 H 2155.07 -2.25323 -1.97912 0
M  V30 22496 H 2152.62 -1.19874 -1.00299 0
M  V30 22497 H 2153.36 -0.013209 -3.24297 0
M  V30 22498 H 2153.14 -1.76903 -3.49925 0
M  V30 22499 H 2154.63 -0.956397 -4.06501 0
M  V30 22500 N 2155.07 1.02928 -1.19346 0
M  V30 22501 C 2156.32 1.76582 -0.997324 0
M  V30 22502 C 2156.65 1.88407 0.470801 0
M  V30 22503 O 2155.92 1.40057 1.34961 0
M  V30 22504 C 2156.21 3.19219 -1.66647 0
M  V30 22505 C 2156.06 3.15268 -3.20822 0
M  V30 22506 C 2157.38 4.17602 -1.38912 0
M  V30 22507 H 2154.5 0.640995 -0.363722 0
M  V30 22508 H 2157.14 1.20159 -1.4718 0
M  V30 22509 H 2155.29 3.67395 -1.26306 0
M  V30 22510 H 2156.96 2.74993 -3.70374 0
M  V30 22511 H 2155.2 2.52994 -3.52387 0
M  V30 22512 H 2155.88 4.1604 -3.62788 0
M  V30 22513 H 2158.35 3.78025 -1.73887 0
M  V30 22514 H 2157.23 5.15597 -1.88283 0
M  V30 22515 H 2157.49 4.40982 -0.314198 0
M  V30 22516 N 2156.55 0.997319 1.2203 0
M  V30 22517 C 2157.78 0.694247 1.94905 0
M  V30 22518 C 2158.19 -0.741849 1.73615 0
M  V30 22519 O 2157.55 -1.50108 1.03796 0
M  V30 22520 C 2157.6 0.996196 3.47503 0
M  V30 22521 O 2157.32 2.37587 3.68082 0
M  V30 22522 C 2158.82 0.711446 4.37554 0
M  V30 22523 H 2156.04 0.256462 0.620055 0
M  V30 22524 H 2158.58 1.33329 1.5506 0
M  V30 22525 H 2156.74 0.402886 3.85299 0
M  V30 22526 H 2157.15 2.47854 4.62243 0
M  V30 22527 H 2158.63 0.972956 5.43358 0
M  V30 22528 H 2159.1 -0.35455 4.37767 0
M  V30 22529 H 2159.71 1.28601 4.05391 0
M  V30 22530 N 2158.03 -1.37449 0.771075 0
M  V30 22531 C 2159.25 -2.03979 0.346453 0
M  V30 22532 C 2159.67 -1.58156 -1.03113 0
M  V30 22533 O 2159.03 -0.762511 -1.65807 0
M  V30 22534 C 2159.08 -3.595 0.379748 0
M  V30 22535 O 2158.8 -4.03646 1.70298 0
M  V30 22536 C 2160.3 -4.43264 -0.0565544 0
M  V30 22537 H 2157.52 -0.655084 0.145281 0
M  V30 22538 H 2160.06 -1.75795 1.04481 0
M  V30 22539 H 2158.22 -3.86458 -0.270023 0
M  V30 22540 H 2158.63 -4.98163 1.64115 0
M  V30 22541 H 2160.11 -5.51997 0.0178961 0
M  V30 22542 H 2160.58 -4.25025 -1.10683 0
M  V30 22543 H 2161.19 -4.2153 0.565003 0
M  V30 22544 N 2159.5 -0.52156 -1.4872 0
M  V30 22545 C 2160.73 0.0117795 -2.06597 0
M  V30 22546 C 2161.14 1.29478 -1.37957 0
M  V30 22547 O 2160.49 1.77894 -0.458208 0
M  V30 22548 C 2160.55 0.314883 -3.58118 0
M  V30 22549 C 2160.21 -0.873397 -4.48576 0
M  V30 22550 C 2161.21 -1.76953 -4.8886 0
M  V30 22551 C 2158.89 -1.07801 -4.90596 0
M  V30 22552 C 2160.89 -2.85425 -5.69922 0
M  V30 22553 C 2158.57 -2.16589 -5.7143 0
M  V30 22554 C 2159.57 -3.05234 -6.11 0
M  V30 22555 O 2159.26 -4.1214 -6.90214 0
M  V30 22556 H 2158.99 -0.0265589 -0.675478 0
M  V30 22557 H 2161.55 -0.724145 -1.92212 0
M  V30 22558 H 2159.78 1.10467 -3.70586 0
M  V30 22559 H 2161.47 0.789292 -3.98152 0
M  V30 22560 H 2162.23 -1.62335 -4.57026 0
M  V30 22561 H 2158.11 -0.397342 -4.59284 0
M  V30 22562 H 2161.65 -3.54643 -6.00728 0
M  V30 22563 H 2157.55 -2.31193 -6.02677 0
M  V30 22564 H 2158.32 -4.09746 -7.08555 0
M  V30 22565 N 2160.98 1.55502 -0.256304 0
M  V30 22566 C 2161.93 2.23175 0.655412 0
M  V30 22567 C 2162.92 1.22244 1.17272 0
M  V30 22568 O 2164.13 1.40229 1.12853 0
M  V30 22569 H 2160.51 0.716007 0.229866 0
M  V30 22570 H 2162.48 2.98336 0.0616012 0
M  V30 22571 C 2161.23 2.95209 1.83704 0
M  V30 22572 H 2160.55 3.72651 1.44814 0
M  V30 22573 H 2161.99 3.45909 2.452 0
M  V30 22574 C 2160.45 1.99611 2.71398 0
M  V30 22575 O 2160.98 1.53521 3.71207 0
M  V30 22576 N 2159.18 1.66511 2.38165 0
M  V30 22577 H 2158.73 2.04188 1.57051 0
M  V30 22578 H 2158.69 1.02816 2.97113 0
M  V30 22579 N 2162.46 -0.0166879 1.57591 0
M  V30 22580 C 2163.71 -0.703596 1.89457 0
M  V30 22581 C 2164.03 -1.75229 0.855563 0
M  V30 22582 O 2163.3 -1.95595 -0.109241 0
M  V30 22583 H 2161.88 -0.262861 0.699223 0
M  V30 22584 H 2164.54 0.0202908 1.94889 0
M  V30 22585 H 2163.64 -1.18538 2.88713 0
M  V30 22586 N 2163.94 -1.54924 -0.289176 0
M  V30 22587 C 2165.17 -1.78513 -1.04003 0
M  V30 22588 C 2165.58 -0.550557 -1.81012 0
M  V30 22589 O 2164.92 0.489519 -1.77058 0
M  V30 22590 C 2164.98 -2.9476 -2.05808 0
M  V30 22591 C 2164.65 -4.32411 -1.47886 0
M  V30 22592 C 2165.64 -5.12002 -0.902795 0
M  V30 22593 C 2163.33 -4.79037 -1.51092 0
M  V30 22594 C 2165.32 -6.36345 -0.366511 0
M  V30 22595 C 2163.01 -6.0334 -0.970774 0
M  V30 22596 C 2164.01 -6.8183 -0.39955 0
M  V30 22597 O 2163.69 -8.03791 0.132375 0
M  V30 22598 H 2163.43 -0.598816 -0.31368 0
M  V30 22599 H 2165.98 -2.02726 -0.330347 0
M  V30 22600 H 2164.21 -2.66199 -2.8049 0
M  V30 22601 H 2165.9 -3.05817 -2.6689 0
M  V30 22602 H 2166.67 -4.77118 -0.870835 0
M  V30 22603 H 2162.54 -4.17964 -1.94493 0
M  V30 22604 H 2166.09 -6.97554 0.0799946 0
M  V30 22605 H 2161.99 -6.37708 -0.99992 0
M  V30 22606 H 2162.75 -8.18498 0.0201954 0
M  V30 22607 N 2165.42 0.552936 -1.47582 0
M  V30 22608 C 2166.35 1.66928 -1.6327 0
M  V30 22609 C 2167.33 1.63127 -0.482035 0
M  V30 22610 O 2168.51 1.80682 -0.71188 0
M  V30 22611 C 2165.64 3.0556 -1.65076 0
M  V30 22612 C 2164.6 3.2421 -2.79413 0
M  V30 22613 C 2163.92 4.63672 -2.66294 0
M  V30 22614 C 2165.22 3.09176 -4.20961 0
M  V30 22615 H 2166.92 1.54055 -2.56725 0
M  V30 22616 H 2164.46 0.739709 -1.23549 0
M  V30 22617 H 2166.42 3.83508 -1.74642 0
M  V30 22618 H 2165.14 3.19403 -0.681852 0
M  V30 22619 H 2163.8 2.48673 -2.69365 0
M  V30 22620 H 2163.45 4.7432 -1.67422 0
M  V30 22621 H 2163.15 4.77099 -3.43002 0
M  V30 22622 H 2164.67 5.43749 -2.77795 0
M  V30 22623 H 2166.08 3.76936 -4.31963 0
M  V30 22624 H 2164.48 3.3411 -4.98488 0
M  V30 22625 H 2165.55 2.05869 -4.39028 0
M  V30 22626 N 2166.89 1.35785 0.800009 0
M  V30 22627 C 2168.12 1.32556 1.5886 0
M  V30 22628 C 2168.54 -0.0955366 1.88558 0
M  V30 22629 O 2167.89 -1.0494 1.49311 0
M  V30 22630 C 2167.95 2.13669 2.91595 0
M  V30 22631 O 2167.67 3.50238 2.63182 0
M  V30 22632 C 2169.17 2.181 3.85937 0
M  V30 22633 H 2166.39 0.455105 0.493073 0
M  V30 22634 H 2168.93 1.78733 0.993714 0
M  V30 22635 H 2167.09 1.71074 3.47581 0
M  V30 22636 H 2167.5 3.92442 3.47979 0
M  V30 22637 H 2168.97 2.79234 4.76164 0
M  V30 22638 H 2169.45 1.18154 4.23009 0
M  V30 22639 H 2170.06 2.60885 3.35886 0
M  V30 22640 N 2168.37 -1.02294 1.19891 0
M  V30 22641 C 2169.6 -1.79941 1.03131 0
M  V30 22642 C 2170.02 -1.8346 -0.415201 0
M  V30 22643 O 2169.38 -1.26499 -1.29876 0
M  V30 22644 C 2169.43 -3.22565 1.61196 0
M  V30 22645 O 2168.53 -4.03644 0.845295 0
M  V30 22646 H 2167.87 -0.555254 0.364128 0
M  V30 22647 H 2170.4 -1.28709 1.59045 0
M  V30 22648 H 2170.41 -3.73296 1.64663 0
M  V30 22649 H 2169.09 -3.19318 2.66474 0
M  V30 22650 H 2167.67 -3.62262 0.884338 0
M  V30 22651 N 2169.85 -1.00378 -1.21499 0
M  V30 22652 C 2171.08 -0.704325 -1.95074 0
M  V30 22653 C 2171.5 0.726447 -1.73506 0
M  V30 22654 O 2170.86 1.49809 -1.02113 0
M  V30 22655 C 2170.91 -1.02938 -3.45595 0
M  V30 22656 O 2170.01 -0.133961 -4.12182 0
M  V30 22657 H 2169.35 -0.262537 -0.609894 0
M  V30 22658 H 2171.88 -1.34369 -1.54292 0
M  V30 22659 H 2171.89 -0.975727 -3.96161 0
M  V30 22660 H 2170.57 -2.0719 -3.60618 0
M  V30 22661 H 2169.14 -0.244034 -3.72101 0
M  V30 22662 N 2171.33 1.37038 -0.778354 0
M  V30 22663 C 2172.55 2.0432 -0.356086 0
M  V30 22664 C 2172.98 1.58315 1.01577 0
M  V30 22665 O 2172.34 0.74645 1.65221 0
M  V30 22666 C 2172.38 3.58196 -0.41573 0
M  V30 22667 O 2171.49 4.08281 0.581416 0
M  V30 22668 H 2170.83 0.646127 -0.153022 0
M  V30 22669 H 2173.36 1.75219 -1.05639 0
M  V30 22670 H 2173.37 4.0707 -0.275375 0
M  V30 22671 H 2172.04 3.91034 -1.41652 0
M  V30 22672 H 2170.62 3.70709 0.403635 0
M  V30 22673 N 2172.81 0.529439 1.48441 0
M  V30 22674 C 2173.75 -0.233627 2.29615 0
M  V30 22675 C 2174.72 -0.934301 1.37332 0
M  V30 22676 O 2175.91 -0.935433 1.66296 0
M  V30 22677 C 2173.05 -1.27491 3.20687 0
M  V30 22678 C 2172.16 -0.583135 4.28046 0
M  V30 22679 C 2171.3 -1.6073 5.06299 0
M  V30 22680 C 2170.34 -0.898962 6.05463 0
M  V30 22681 N 2169.47 -1.86865 6.76776 0
M  V30 22682 H 2174.31 0.464768 2.94353 0
M  V30 22683 H 2171.85 0.241037 1.45112 0
M  V30 22684 H 2173.81 -1.89092 3.71887 0
M  V30 22685 H 2172.44 -1.9417 2.57872 0
M  V30 22686 H 2171.49 0.146804 3.80117 0
M  V30 22687 H 2172.8 -0.0269268 4.98793 0
M  V30 22688 H 2171.96 -2.29761 5.61511 0
M  V30 22689 H 2170.7 -2.19741 4.35391 0
M  V30 22690 H 2169.7 -0.194579 5.49456 0
M  V30 22691 H 2170.93 -0.314978 6.78369 0
M  V30 22692 H 2168.87 -2.44784 6.08619 0
M  V30 22693 H 2168.79 -1.36386 7.43596 0
M  V30 22694 H 2170.06 -2.55096 7.36577 0
M  V30 22695 N 2174.29 -1.55364 0.264547 0
M  V30 22696 C 2175.51 -2.03764 -0.358889 0
M  V30 22697 C 2175.93 -1.14327 -1.50249 0
M  V30 22698 O 2175.29 -0.161219 -1.81787 0
M  V30 22699 C 2175.34 -3.51366 -0.849959 0
M  V30 22700 O 2175.06 -4.37397 0.248086 0
M  V30 22701 C 2176.56 -4.15606 -1.54229 0
M  V30 22702 H 2173.78 -0.66582 -0.0832187 0
M  V30 22703 H 2176.32 -2.00677 0.39356 0
M  V30 22704 H 2174.48 -3.5493 -1.55253 0
M  V30 22705 H 2174.89 -5.24345 -0.127661 0
M  V30 22706 H 2176.37 -5.20522 -1.83742 0
M  V30 22707 H 2176.84 -3.63145 -2.47027 0
M  V30 22708 H 2177.45 -4.16015 -0.883843 0
M  V30 22709 N 2175.76 0.00833021 -1.57598 0
M  V30 22710 C 2176.99 0.709778 -1.94877 0
M  V30 22711 C 2177.41 1.66973 -0.866121 0
M  V30 22712 O 2176.77 1.80439 0.176468 0
M  V30 22713 C 2176.82 1.42509 -3.31245 0
M  V30 22714 O 2175.92 2.53918 -3.2496 0
M  V30 22715 H 2175.26 0.189418 -0.636409 0
M  V30 22716 H 2177.79 -0.0423784 -2.04556 0
M  V30 22717 H 2177.8 1.79039 -3.66618 0
M  V30 22718 H 2176.48 0.72119 -4.09599 0
M  V30 22719 H 2175.06 2.19778 -3.01251 0
M  V30 22720 N 2177.24 1.55075 0.280956 0
M  V30 22721 C 2178.15 1.90495 1.36927 0
M  V30 22722 C 2179.17 0.801283 1.54452 0
M  V30 22723 O 2180.34 1.09962 1.68732 0
M  V30 22724 C 2177.41 2.16264 2.70981 0
M  V30 22725 C 2176.47 3.39872 2.6227 0
M  V30 22726 C 2175.7 3.64402 3.89932 0
M  V30 22727 O 2175.93 2.91582 4.90241 0
M  V30 22728 O 2174.86 4.57934 3.90615 0
M  V30 22729 H 2178.69 2.83123 1.09888 0
M  V30 22730 H 2176.27 1.4152 0.478787 0
M  V30 22731 H 2178.15 2.34299 3.5026 0
M  V30 22732 H 2176.83 1.2682 2.97823 0
M  V30 22733 H 2175.73 3.2718 1.81395 0
M  V30 22734 H 2177.07 4.2951 2.40379 0
M  V30 22735 N 2178.72 -0.545102 1.47873 0
M  V30 22736 C 2179.63 -1.67829 1.63922 0
M  V30 22737 C 2180.65 -1.65989 0.521885 0
M  V30 22738 O 2181.82 -1.85216 0.791005 0
M  V30 22739 C 2178.89 -3.0432 1.66102 0
M  V30 22740 C 2177.95 -3.17134 2.89352 0
M  V30 22741 C 2177.18 -4.47114 2.91419 0
M  V30 22742 O 2177.4 -5.33307 2.02337 0
M  V30 22743 O 2176.34 -4.63974 3.83421 0
M  V30 22744 H 2180.16 -1.57229 2.59832 0
M  V30 22745 H 2177.75 -0.716489 1.31098 0
M  V30 22746 H 2179.63 -3.85524 1.70145 0
M  V30 22747 H 2178.31 -3.15277 0.733623 0
M  V30 22748 H 2177.21 -2.35282 2.90849 0
M  V30 22749 H 2178.55 -3.11086 3.81426 0
M  V30 22750 N 2180.2 -1.36208 -0.792797 0
M  V30 22751 C 2181.15 -1.2679 -1.89495 0
M  V30 22752 C 2182.13 -0.160119 -1.60101 0
M  V30 22753 O 2183.32 -0.39262 -1.72591 0
M  V30 22754 C 2180.45 -1.05602 -3.26654 0
M  V30 22755 C 2179.54 -2.20832 -3.62069 0
M  V30 22756 N 2179.93 -3.46132 -3.68817 0
M  V30 22757 C 2178.23 -2.12523 -3.9211 0
M  V30 22758 C 2178.93 -4.21991 -4.00373 0
M  V30 22759 N 2177.9 -3.50895 -4.15179 0
M  V30 22760 H 2181.71 -2.21707 -1.92934 0
M  V30 22761 H 2179.22 -1.28878 -0.988137 0
M  V30 22762 H 2181.22 -0.969423 -4.05472 0
M  V30 22763 H 2179.88 -0.115827 -3.24493 0
M  V30 22764 H 2180.89 -3.8031 -3.51547 0
M  V30 22765 H 2177.57 -1.26439 -3.97894 0
M  V30 22766 H 2178.96 -5.30335 -4.12546 0
M  V30 22767 N 2181.68 1.01656 -1.20431 0
M  V30 22768 C 2182.92 1.75255 -1.01449 0
M  V30 22769 C 2183.25 1.89142 0.453379 0
M  V30 22770 O 2182.51 1.4141 1.35284 0
M  V30 22771 C 2182.8 3.17385 -1.64322 0
M  V30 22772 C 2182.47 3.23475 -3.14126 0
M  V30 22773 C 2181.13 3.24844 -3.55007 0
M  V30 22774 C 2183.48 3.21636 -4.10122 0
M  V30 22775 C 2180.81 3.22046 -4.90411 0
M  V30 22776 C 2183.16 3.20379 -5.45472 0
M  V30 22777 C 2181.83 3.20052 -5.85767 0
M  V30 22778 H 2181.1 0.641303 -0.37123 0
M  V30 22779 H 2183.75 1.19228 -1.49857 0
M  V30 22780 H 2182.05 3.7657 -1.08177 0
M  V30 22781 H 2183.75 3.73025 -1.4715 0
M  V30 22782 H 2180.34 3.23145 -2.81559 0
M  V30 22783 H 2184.52 3.19748 -3.79572 0
M  V30 22784 H 2179.78 3.20123 -5.20894 0
M  V30 22785 H 2183.95 3.17908 -6.19602 0
M  V30 22786 H 2181.58 3.17638 -6.90659 0
M  V30 22787 N 2183.15 1.01021 1.20965 0
M  V30 22788 C 2184.4 0.696906 1.9045 0
M  V30 22789 C 2184.73 -0.770906 1.78243 0
M  V30 22790 O 2184.01 -1.55939 1.16246 0
M  V30 22791 C 2184.29 1.1252 3.42069 0
M  V30 22792 C 2184.14 2.65285 3.63241 0
M  V30 22793 C 2185.46 0.691566 4.34632 0
M  V30 22794 H 2182.58 0.254648 0.691609 0
M  V30 22795 H 2185.22 1.25681 1.42493 0
M  V30 22796 H 2183.37 0.648818 3.83044 0
M  V30 22797 H 2185.05 3.20727 3.3156 0
M  V30 22798 H 2183.29 3.06557 3.06929 0
M  V30 22799 H 2183.96 2.90306 4.69496 0
M  V30 22800 H 2186.44 1.10101 4.01269 0
M  V30 22801 H 2185.31 1.01935 5.39352 0
M  V30 22802 H 2185.57 -0.407073 4.40222 0
M  V30 22803 N 2184.63 -1.36623 0.78561 0
M  V30 22804 C 2185.54 -2.33889 0.182448 0
M  V30 22805 C 2186.56 -1.60858 -0.66338 0
M  V30 22806 O 2187.73 -1.92866 -0.580058 0
M  V30 22807 C 2184.8 -3.40052 -0.675704 0
M  V30 22808 C 2183.86 -4.28887 0.188182 0
M  V30 22809 C 2183.09 -5.29979 -0.629108 0
M  V30 22810 O 2183.32 -5.39037 -1.86534 0
M  V30 22811 O 2182.25 -6.01892 -0.0310062 0
M  V30 22812 H 2186.08 -2.87229 0.986556 0
M  V30 22813 H 2183.66 -1.39026 0.547001 0
M  V30 22814 H 2185.54 -4.04971 -1.16518 0
M  V30 22815 H 2184.22 -2.89017 -1.45777 0
M  V30 22816 H 2183.12 -3.67021 0.724325 0
M  V30 22817 H 2184.46 -4.83263 0.933665 0
M  V30 22818 N 2186.11 -0.537304 -1.48158 0
M  V30 22819 C 2187.34 -0.0101482 -2.06898 0
M  V30 22820 C 2187.75 1.27458 -1.39283 0
M  V30 22821 O 2187.11 1.76 -0.48274 0
M  V30 22822 C 2187.16 0.209896 -3.6089 0
M  V30 22823 O 2186.88 -1.02394 -4.25966 0
M  V30 22824 C 2188.38 0.776601 -4.36444 0
M  V30 22825 H 2185.6 -0.0368227 -0.669989 0
M  V30 22826 H 2188.15 -0.745039 -1.90445 0
M  V30 22827 H 2186.3 0.894855 -3.76923 0
M  V30 22828 H 2186.72 -0.809231 -5.1822 0
M  V30 22829 H 2188.19 0.879955 -5.44941 0
M  V30 22830 H 2188.67 1.78324 -4.01369 0
M  V30 22831 H 2189.27 0.127975 -4.25107 0
M  V30 22832 N 2187.59 1.55221 -0.272782 0
M  V30 22833 C 2188.83 1.99841 0.345178 0
M  V30 22834 C 2189.17 1.16093 1.55679 0
M  V30 22835 O 2188.44 0.230441 1.9313 0
M  V30 22836 C 2188.73 3.5263 0.729656 0
M  V30 22837 C 2188.58 4.47133 -0.489138 0
M  V30 22838 C 2189.9 4.11259 1.56698 0
M  V30 22839 H 2187.02 0.726495 0.123989 0
M  V30 22840 H 2189.66 1.86176 -0.379262 0
M  V30 22841 H 2187.81 3.64405 1.34689 0
M  V30 22842 H 2189.48 4.47304 -1.12769 0
M  V30 22843 H 2187.72 4.18888 -1.12762 0
M  V30 22844 H 2188.39 5.51718 -0.176396 0
M  V30 22845 H 2190.87 4.02745 1.04572 0
M  V30 22846 H 2189.75 5.1838 1.80481 0
M  V30 22847 H 2190.01 3.61341 2.54726 0
M  V30 22848 N 2189.07 2.77022e-05 1.576 0
M  V30 22849 C 2190.29 -0.699433 1.9525 0
M  V30 22850 C 2190.72 -1.66511 0.874964 0
M  V30 22851 O 2190.07 -1.8053 -0.166897 0
M  V30 22852 C 2190.12 -1.4075 3.31996 0
M  V30 22853 O 2189.23 -2.52192 3.26302 0
M  V30 22854 H 2188.57 -0.18604 0.637405 0
M  V30 22855 H 2191.1 0.053226 2.04531 0
M  V30 22856 H 2191.11 -1.77092 3.67563 0
M  V30 22857 H 2189.78 -0.699458 4.09976 0
M  V30 22858 H 2188.36 -2.18177 3.02412 0
M  V30 22859 N 2190.54 -1.55222 -0.272728 0
M  V30 22860 C 2191.47 -1.9113 -1.34133 0
M  V30 22861 C 2192.46 -0.773195 -1.51511 0
M  V30 22862 O 2193.64 -1.03135 -1.6455 0
M  V30 22863 C 2190.77 -2.18345 -2.70079 0
M  V30 22864 C 2189.72 -3.34162 -2.67431 0
M  V30 22865 C 2189.05 -3.46858 -4.06932 0
M  V30 22866 C 2190.35 -4.70547 -2.26677 0
M  V30 22867 H 2192.04 -2.80635 -1.04328 0
M  V30 22868 H 2189.59 -1.35025 -0.50043 0
M  V30 22869 H 2191.54 -2.42052 -3.44948 0
M  V30 22870 H 2190.27 -1.25639 -3.01467 0
M  V30 22871 H 2188.93 -3.10423 -1.9502 0
M  V30 22872 H 2188.57 -2.51618 -4.35542 0
M  V30 22873 H 2188.27 -4.24727 -4.06055 0
M  V30 22874 H 2189.8 -3.72858 -4.83539 0
M  V30 22875 H 2191.21 -4.93797 -2.91268 0
M  V30 22876 H 2189.61 -5.51334 -2.36961 0
M  V30 22877 H 2190.68 -4.69351 -1.2181 0
M  V30 22878 N 2192.02 0.537252 -1.4816 0
M  V30 22879 C 2192.99 1.62469 -1.61668 0
M  V30 22880 C 2193.99 1.53139 -0.490422 0
M  V30 22881 O 2195.18 1.56939 -0.756026 0
M  V30 22882 C 2192.31 3.02073 -1.58003 0
M  V30 22883 H 2193.5 1.51834 -2.58624 0
M  V30 22884 H 2191.05 0.758747 -1.36648 0
M  V30 22885 H 2191.79 3.18221 -0.624969 0
M  V30 22886 H 2191.57 3.10254 -2.3976 0
M  V30 22887 H 2193.06 3.81148 -1.70634 0
M  V30 22888 N 2193.5 1.36626 0.785562 0
M  V30 22889 C 2194.75 1.30811 1.54055 0
M  V30 22890 C 2195.07 -0.111123 1.94683 0
M  V30 22891 O 2194.34 -1.05221 1.65243 0
M  V30 22892 H 2192.92 0.481221 0.571345 0
M  V30 22893 H 2195.58 1.70965 0.935791 0
M  V30 22894 H 2194.68 1.93806 2.44634 0
M  V30 22895 N 2194.98 -1.01016 1.20969 0
M  V30 22896 C 2196.2 -1.78837 1.05034 0
M  V30 22897 C 2196.63 -1.8389 -0.39572 0
M  V30 22898 O 2195.99 -1.2787 -1.28527 0
M  V30 22899 C 2196.03 -3.20837 1.64608 0
M  V30 22900 O 2195.14 -4.02725 0.888059 0
M  V30 22901 H 2194.48 -0.55136 0.369997 0
M  V30 22902 H 2197.01 -1.27015 1.60401 0
M  V30 22903 H 2197.02 -3.71529 1.68613 0
M  V30 22904 H 2195.69 -3.16474 2.69846 0
M  V30 22905 H 2194.27 -3.61304 0.922711 0
M  V30 22906 N 2196.46 -1.01661 -1.20428 0
M  V30 22907 C 2197.69 -0.724115 -1.93495 0
M  V30 22908 C 2198.09 0.719149 -1.75 0
M  V30 22909 O 2197.44 1.49947 -1.06121 0
M  V30 22910 C 2197.5 -0.980001 -3.45885 0
M  V30 22911 C 2197.16 -2.41238 -3.8814 0
M  V30 22912 C 2198.16 -3.3932 -3.93901 0
M  V30 22913 C 2195.85 -2.75313 -4.20129 0
M  V30 22914 C 2197.84 -4.69537 -4.31061 0
M  V30 22915 C 2195.53 -4.05743 -4.56964 0
M  V30 22916 C 2196.52 -5.02666 -4.62402 0
M  V30 22917 O 2196.21 -6.30762 -4.98392 0
M  V30 22918 H 2195.94 -0.265173 -0.621819 0
M  V30 22919 H 2198.5 -1.36069 -1.53865 0
M  V30 22920 H 2196.73 -0.286265 -3.85639 0
M  V30 22921 H 2198.42 -0.679091 -4.00179 0
M  V30 22922 H 2199.18 -3.14332 -3.69352 0
M  V30 22923 H 2195.06 -2.00559 -4.15087 0
M  V30 22924 H 2198.61 -5.45187 -4.3522 0
M  V30 22925 H 2194.5 -4.3051 -4.80969 0
M  V30 22926 H 2195.27 -6.35051 -5.16384 0
M  V30 22927 N 2197.93 1.36205 -0.792844 0
M  V30 22928 C 2199.35 1.5237 -0.47493 0
M  V30 22929 C 2199.55 1.7458 1.00619 0
M  V30 22930 O 2198.61 1.77927 1.79159 0
M  V30 22931 C 2199.92 2.70745 -1.30835 0
M  V30 22932 C 2201.47 2.84617 -1.30239 0
M  V30 22933 C 2201.94 4.06 -2.11963 0
M  V30 22934 N 2203.43 4.13152 -2.09427 0
M  V30 22935 C 2204.17 5.06158 -2.69428 0
M  V30 22936 N 2203.66 6.04586 -3.38301 0
M  V30 22937 N 2205.46 4.988 -2.59143 0
M  V30 22938 H 2197.61 1.20043 -1.75224 0
M  V30 22939 H 2199.87 0.586198 -0.745034 0
M  V30 22940 H 2199.58 2.60866 -2.35885 0
M  V30 22941 H 2199.45 3.64988 -0.952024 0
M  V30 22942 H 2201.84 2.93954 -0.259799 0
M  V30 22943 H 2201.92 1.91271 -1.6985 0
M  V30 22944 H 2201.56 3.97423 -3.16255 0
M  V30 22945 H 2201.49 4.985 -1.6972 0
M  V30 22946 H 2203.98 3.42682 -1.59303 0
M  V30 22947 H 2204.3 6.72123 -3.81405 0
M  V30 22948 H 2202.64 6.04801 -3.42404 0
M  V30 22949 H 2205.83 4.20855 -2.04935 0
M  V30 22950 H 2206.01 5.71094 -3.06195 0
M  V30 22951 N 2199.41 0.545154 1.47871 0
M  V30 22952 C 2200.69 -0.0484878 1.9554 0
M  V30 22953 C 2201.07 -1.49776 1.48763 0
M  V30 22954 O 2200.42 -2.16828 0.720963 0
M  V30 22955 C 2200.63 0.0844783 3.48898 0
M  V30 22956 C 2201.98 -0.0670492 4.24547 0
M  V30 22957 O 2203 0.0114276 3.56198 0
M  V30 22958 O 2201.86 -0.233786 5.46 0
M  V30 22959 H 2198.95 -0.0708628 0.823958 0
M  V30 22960 H 2201.5 0.610825 1.58326 0
M  V30 22961 H 2200.27 1.09344 3.75712 0
M  V30 22962 H 2199.89 -0.612997 3.92846 0
M  V30 22963 N 2200.89 -1.55074 0.28101 0
M  V30 22964 C 2202.14 -2.00745 -0.327538 0
M  V30 22965 C 2202.49 -1.166 -1.53043 0
M  V30 22966 O 2201.78 -0.229484 -1.90221 0
M  V30 22967 C 2201.98 -3.49343 -0.754595 0
M  V30 22968 C 2201.81 -4.47869 0.405369 0
M  V30 22969 C 2200.58 -4.97382 0.891034 0
M  V30 22970 C 2202.78 -4.99033 1.2438 0
M  V30 22971 N 2200.76 -5.7972 2.01985 0
M  V30 22972 C 2202.13 -5.78876 2.22041 0
M  V30 22973 C 2204.18 -4.8126 1.27646 0
M  V30 22974 C 2202.89 -6.42841 3.22721 0
M  V30 22975 C 2204.91 -5.46027 2.27174 0
M  V30 22976 C 2204.27 -6.25687 3.23567 0
M  V30 22977 H 2200.37 -0.777382 -0.0848637 0
M  V30 22978 H 2202.96 -1.90412 0.406375 0
M  V30 22979 H 2201.13 -3.60007 -1.45772 0
M  V30 22980 H 2202.86 -3.81837 -1.34098 0
M  V30 22981 H 2199.62 -4.71269 0.469345 0
M  V30 22982 H 2200.04 -6.25579 2.58805 0
M  V30 22983 H 2204.68 -4.19273 0.54501 0
M  V30 22984 H 2202.4 -7.03973 3.96796 0
M  V30 22985 H 2205.99 -5.34213 2.3045 0
M  V30 22986 H 2204.87 -6.74917 3.99321 0
M  V30 22987 N 2202.37 -0.00838561 -1.57598 0
M  V30 22988 C 2203.59 0.689069 -1.95619 0
M  V30 22989 C 2204.02 1.66045 -0.883782 0
M  V30 22990 O 2203.38 1.80616 0.15732 0
M  V30 22991 C 2203.43 1.38988 -3.32738 0
M  V30 22992 O 2202.53 2.50458 -3.27635 0
M  V30 22993 H 2201.87 0.182657 -0.638383 0
M  V30 22994 H 2204.4 -0.064072 -2.045 0
M  V30 22995 H 2204.41 1.7514 -3.68497 0
M  V30 22996 H 2203.09 0.677706 -4.10341 0
M  V30 22997 H 2201.66 2.16571 -3.03565 0
M  V30 22998 N 2203.85 1.55365 0.264492 0
M  V30 22999 C 2205.08 1.80145 1.0115 0
M  V30 23000 C 2205.49 0.579285 1.80114 0
M  V30 23001 O 2204.83 -0.461288 1.77814 0
M  V30 23002 C 2204.89 2.97997 2.01093 0
M  V30 23003 C 2204.55 4.34709 1.40988 0
M  V30 23004 C 2205.55 5.13373 0.821226 0
M  V30 23005 C 2203.24 4.8138 1.43452 0
M  V30 23006 C 2205.23 6.36848 0.265227 0
M  V30 23007 C 2202.92 6.04808 0.874665 0
M  V30 23008 C 2203.92 6.8238 0.291026 0
M  V30 23009 O 2203.6 8.03479 -0.260235 0
M  V30 23010 H 2203.34 0.603731 0.304114 0
M  V30 23011 H 2205.89 2.03226 0.298053 0
M  V30 23012 H 2204.12 2.70628 2.7622 0
M  V30 23013 H 2205.81 3.10025 2.61991 0
M  V30 23014 H 2206.57 4.78443 0.794819 0
M  V30 23015 H 2202.45 4.21005 1.87819 0
M  V30 23016 H 2206 6.97339 -0.190959 0
M  V30 23017 H 2201.89 6.39218 0.89834 0
M  V30 23018 H 2202.66 8.18362 -0.150409 0
M  V30 23019 N 2205.33 -0.529387 1.48443 0
M  V30 23020 C 2206.55 -1.31468 1.60409 0
M  V30 23021 C 2206.98 -1.86227 0.264771 0
M  V30 23022 O 2206.33 -1.64433 -0.763639 0
M  V30 23023 C 2206.38 -2.44096 2.65423 0
M  V30 23024 O 2205.49 -3.47149 2.22624 0
M  V30 23025 H 2204.83 -0.389348 0.53787 0
M  V30 23026 H 2207.36 -0.636931 1.94433 0
M  V30 23027 H 2207.37 -2.90274 2.86715 0
M  V30 23028 H 2206.04 -2.03601 3.62656 0
M  V30 23029 H 2204.62 -3.07086 2.11548 0
M  V30 23030 N 2206.8 -1.37041 -0.778305 0
M  V30 23031 C 2208.05 -1.31626 -1.53359 0
M  V30 23032 C 2208.37 0.100797 -1.94739 0
M  V30 23033 O 2207.64 1.04344 -1.65799 0
M  V30 23034 H 2206.22 -0.484244 -0.568785 0
M  V30 23035 H 2208.88 -1.71459 -0.926712 0
M  V30 23036 H 2207.98 -1.951 -2.43603 0
M  V30 23037 N 2208.28 1.00373 -1.21503 0
M  V30 23038 C 2209.21 2.09341 -0.933211 0
M  V30 23039 C 2210.23 1.62583 0.084061 0
M  V30 23040 O 2211.42 1.7788 -0.148594 0
M  V30 23041 C 2208.52 3.36764 -0.379928 0
M  V30 23042 C 2207.69 4.12602 -1.45184 0
M  V30 23043 C 2206.75 5.18314 -0.907567 0
M  V30 23044 O 2205.77 5.46504 -1.59129 0
M  V30 23045 N 2206.98 5.79841 0.276547 0
M  V30 23046 H 2209.74 2.34101 -1.87128 0
M  V30 23047 H 2207.3 1.16866 -1.12045 0
M  V30 23048 H 2209.29 4.047 -0.00138601 0
M  V30 23049 H 2207.86 3.09152 0.462994 0
M  V30 23050 H 2207.08 3.39451 -2.00417 0
M  V30 23051 H 2208.37 4.60046 -2.17336 0
M  V30 23052 H 2207.77 5.59292 0.849049 0
M  V30 23053 H 2206.33 6.49064 0.596588 0
M  V30 23054 N 2209.76 1.02298 1.19887 0
M  V30 23055 C 2211.18 0.738979 1.41461 0
M  V30 23056 C 2211.38 -0.678813 1.89722 0
M  V30 23057 O 2210.43 -1.44566 2.07019 0
M  V30 23058 C 2211.74 1.7701 2.4308 0
M  V30 23059 C 2213.29 1.78896 2.56837 0
M  V30 23060 C 2213.77 2.80952 3.61704 0
M  V30 23061 N 2215.26 2.79732 3.69194 0
M  V30 23062 C 2215.99 3.55353 4.50013 0
M  V30 23063 N 2215.49 4.40672 5.34584 0
M  V30 23064 N 2217.28 3.43922 4.44606 0
M  V30 23065 H 2209.43 1.93819 0.868793 0
M  V30 23066 H 2211.7 0.83761 0.443975 0
M  V30 23067 H 2211.4 2.78615 2.14631 0
M  V30 23068 H 2211.28 1.5875 3.42167 0
M  V30 23069 H 2213.66 0.779724 2.84613 0
M  V30 23070 H 2213.74 2.01231 1.57924 0
M  V30 23071 H 2213.39 3.82044 3.34671 0
M  V30 23072 H 2213.32 2.55878 4.60254 0
M  V30 23073 H 2215.81 2.17847 3.0879 0
M  V30 23074 H 2216.12 4.95127 5.93354 0
M  V30 23075 H 2214.47 4.44747 5.34065 0
M  V30 23076 H 2217.66 2.76685 3.77575 0
M  V30 23077 H 2217.83 4.03109 5.07353 0
M  V30 23078 N 2211.24 -1.35782 0.800057 0
M  V30 23079 C 2212.47 -2.03198 0.389642 0
M  V30 23080 C 2212.88 -1.60307 -0.997347 0
M  V30 23081 O 2212.24 -0.79751 -1.64152 0
M  V30 23082 C 2212.29 -3.58613 0.455918 0
M  V30 23083 O 2212.01 -3.99943 1.78822 0
M  V30 23084 C 2213.51 -4.43284 0.0374812 0
M  V30 23085 H 2210.73 -0.651855 0.159143 0
M  V30 23086 H 2213.27 -1.7354 1.08186 0
M  V30 23087 H 2211.43 -3.86944 -0.187989 0
M  V30 23088 H 2211.84 -4.9457 1.74645 0
M  V30 23089 H 2213.32 -5.51835 0.134979 0
M  V30 23090 H 2213.79 -4.27277 -1.01643 0
M  V30 23091 H 2214.4 -4.20237 0.654289 0
M  V30 23092 N 2212.72 -0.552988 -1.4758 0
M  V30 23093 C 2213.63 0.200312 -2.33743 0
M  V30 23094 C 2214.64 0.916125 -1.4793 0
M  V30 23095 O 2215.82 0.885961 -1.80867 0
M  V30 23096 C 2212.88 1.21968 -3.24538 0
M  V30 23097 C 2211.94 0.511745 -4.26239 0
M  V30 23098 C 2211.18 1.48254 -5.12695 0
M  V30 23099 O 2211.4 2.71705 -5.0153 0
M  V30 23100 O 2210.33 1.00934 -5.93377 0
M  V30 23101 H 2214.16 -0.506356 -2.99449 0
M  V30 23102 H 2211.74 -0.313647 -1.46071 0
M  V30 23103 H 2213.63 1.8082 -3.80634 0
M  V30 23104 H 2212.3 1.90834 -2.61465 0
M  V30 23105 H 2211.21 -0.117865 -3.73914 0
M  V30 23106 H 2212.54 -0.135394 -4.92014 0
M  V30 23107 N 2214.19 1.54923 -0.28923 0
M  V30 23108 C 2215.12 2.26041 0.58545 0
M  V30 23109 C 2216.1 1.25564 1.14751 0
M  V30 23110 O 2217.29 1.54313 1.17903 0
M  V30 23111 C 2214.42 2.99225 1.763 0
M  V30 23112 C 2213.37 4.06751 1.33184 0
M  V30 23113 C 2212.7 4.67585 2.59362 0
M  V30 23114 C 2214 5.20166 0.471684 0
M  V30 23115 H 2215.69 2.99399 -0.00768794 0
M  V30 23116 H 2213.24 1.43999 -0.0051376 0
M  V30 23117 H 2215.19 3.47694 2.38091 0
M  V30 23118 H 2213.92 2.23426 2.38219 0
M  V30 23119 H 2212.58 3.59114 0.737058 0
M  V30 23120 H 2212.22 3.88438 3.1957 0
M  V30 23121 H 2211.92 5.40196 2.31219 0
M  V30 23122 H 2213.45 5.1881 3.21976 0
M  V30 23123 H 2214.86 5.646 0.994956 0
M  V30 23124 H 2213.26 5.99425 0.284534 0
M  V30 23125 H 2214.33 4.82251 -0.506126 0
M  V30 23126 N 2215.67 0.0167433 1.57591 0
M  V30 23127 C 2216.92 -0.663251 1.90907 0
M  V30 23128 C 2217.24 -1.73375 0.892539 0
M  V30 23129 O 2216.51 -1.95783 -0.0677279 0
M  V30 23130 H 2215.09 -0.247971 0.704641 0
M  V30 23131 H 2217.75 0.0616251 1.94803 0
M  V30 23132 H 2216.85 -1.12387 2.91162 0
M  V30 23133 N 2217.15 -1.55503 -0.256249 0
M  V30 23134 C 2218.4 -1.77159 -0.987048 0
M  V30 23135 C 2218.73 -0.580347 -1.85326 0
M  V30 23136 O 2218 0.421653 -1.89875 0
M  V30 23137 C 2218.29 -3.08616 -1.85548 0
M  V30 23138 C 2218.14 -4.38127 -1.01808 0
M  V30 23139 C 2219.46 -3.36233 -2.83964 0
M  V30 23140 H 2216.58 -0.644533 -0.357417 0
M  V30 23141 H 2219.22 -1.88237 -0.258206 0
M  V30 23142 H 2217.37 -2.99302 -2.4769 0
M  V30 23143 H 2219.04 -4.5942 -0.416078 0
M  V30 23144 H 2217.29 -4.32603 -0.322102 0
M  V30 23145 H 2217.96 -5.26471 -1.6593 0
M  V30 23146 H 2220.43 -3.45449 -2.31958 0
M  V30 23147 H 2219.31 -4.29448 -3.41856 0
M  V30 23148 H 2219.57 -2.56687 -3.5995 0
M  V30 23149 N 2218.63 0.521507 -1.48721 0
M  V30 23150 C 2219.54 1.652 -1.66572 0
M  V30 23151 C 2220.55 1.65138 -0.548226 0
M  V30 23152 O 2221.73 1.83934 -0.820371 0
M  V30 23153 C 2218.8 3.01639 -1.70923 0
M  V30 23154 C 2217.86 3.1249 -2.94361 0
M  V30 23155 C 2217.09 4.42421 -2.98495 0
M  V30 23156 O 2217.31 5.3002 -2.10796 0
M  V30 23157 O 2216.25 4.57815 -3.90754 0
M  V30 23158 H 2220.07 1.53075 -2.62301 0
M  V30 23159 H 2217.66 0.695541 -1.32222 0
M  V30 23160 H 2219.54 3.82768 -1.76256 0
M  V30 23161 H 2218.21 3.1407 -0.783688 0
M  V30 23162 H 2217.12 2.30625 -2.94556 0
M  V30 23163 H 2218.45 3.04979 -3.86327 0
M  V30 23164 N 2220.11 1.37452 0.771027 0
M  V30 23165 C 2221.35 1.327 1.52961 0
M  V30 23166 C 2221.68 -0.0882932 1.94299 0
M  V30 23167 O 2220.94 -1.06167 1.64399 0
M  V30 23168 C 2221.24 2.21264 2.80672 0
M  V30 23169 C 2220.9 3.69526 2.58382 0
M  V30 23170 C 2219.56 4.09931 2.52012 0
M  V30 23171 C 2221.92 4.6345 2.38461 0
M  V30 23172 C 2219.24 5.42375 2.23711 0
M  V30 23173 C 2221.6 5.96132 2.11684 0
M  V30 23174 C 2220.26 6.35641 2.03758 0
M  V30 23175 H 2219.53 0.485583 0.559724 0
M  V30 23176 H 2222.18 1.69664 0.888054 0
M  V30 23177 H 2220.48 1.77297 3.49389 0
M  V30 23178 H 2222.18 2.14901 3.38553 0
M  V30 23179 H 2218.77 3.37482 2.64204 0
M  V30 23180 H 2222.95 4.33093 2.42372 0
M  V30 23181 H 2218.21 5.71947 2.16071 0
M  V30 23182 H 2222.38 6.68463 1.95268 0
M  V30 23183 H 2220.01 7.38193 1.81593 0
M  V30 23184 N 2221.58 -0.997276 1.22033 0
M  V30 23185 C 2222.51 -2.10493 1.01069 0
M  V30 23186 C 2223.5 -1.69968 -0.0669243 0
M  V30 23187 O 2224.68 -1.9397 0.0944328 0
M  V30 23188 C 2221.81 -3.42373 0.582934 0
M  V30 23189 C 2220.76 -3.96727 1.60599 0
M  V30 23190 C 2220.09 -5.24603 1.03421 0
M  V30 23191 C 2221.39 -4.27909 2.99485 0
M  V30 23192 H 2223.08 -2.28289 1.93712 0
M  V30 23193 H 2220.63 -1.09705 0.93278 0
M  V30 23194 H 2222.58 -4.19268 0.423406 0
M  V30 23195 H 2221.31 -3.24392 -0.379156 0
M  V30 23196 H 2219.97 -3.21959 1.75322 0
M  V30 23197 H 2219.61 -5.0296 0.0636064 0
M  V30 23198 H 2219.31 -5.61935 1.71764 0
M  V30 23199 H 2220.84 -6.04135 0.886172 0
M  V30 23200 H 2222.25 -4.95617 2.88161 0
M  V30 23201 H 2220.65 -4.76403 3.64912 0
M  V30 23202 H 2221.72 -3.35864 3.49748 0
M  V30 23203 N 2223.06 -1.02932 -1.19343 0
M  V30 23204 C 2224.01 -0.610503 -2.22579 0
M  V30 23205 C 2224.98 0.375917 -1.6179 0
M  V30 23206 O 2226.16 0.272478 -1.88844 0
M  V30 23207 C 2223.3 0.0320867 -3.45085 0
M  V30 23208 C 2222.42 -1.00043 -4.20256 0
M  V30 23209 C 2221.55 -0.327553 -5.30189 0
M  V30 23210 C 2220.59 -1.34595 -5.97119 0
M  V30 23211 N 2219.73 -0.698849 -6.98613 0
M  V30 23212 H 2224.57 -1.49542 -2.57762 0
M  V30 23213 H 2222.11 -0.748333 -1.26643 0
M  V30 23214 H 2224.06 0.421893 -4.15061 0
M  V30 23215 H 2222.69 0.880585 -3.10557 0
M  V30 23216 H 2221.75 -1.50829 -3.4922 0
M  V30 23217 H 2223.06 -1.77441 -4.66172 0
M  V30 23218 H 2222.21 0.117073 -6.06587 0
M  V30 23219 H 2220.95 0.478627 -4.85346 0
M  V30 23220 H 2219.96 -1.80083 -5.19471 0
M  V30 23221 H 2221.18 -2.15363 -6.44046 0
M  V30 23222 H 2219.13 0.0872318 -6.55942 0
M  V30 23223 H 2219.04 -1.41071 -7.42721 0
M  V30 23224 H 2220.31 -0.278239 -7.79003 0
M  V30 23225 N 2224.54 1.35356 -0.807246 0
M  V30 23226 C 2225.96 1.51858 -0.491064 0
M  V30 23227 C 2226.16 1.75637 0.987617 0
M  V30 23228 O 2225.21 1.79818 1.77262 0
M  V30 23229 C 2226.53 2.69342 -1.337 0
M  V30 23230 C 2228.07 2.83219 -1.33251 0
M  V30 23231 C 2228.55 4.03729 -2.16257 0
M  V30 23232 N 2230.04 4.10908 -2.13797 0
M  V30 23233 C 2230.77 5.03272 -2.74781 0
M  V30 23234 N 2230.27 6.00964 -3.44694 0
M  V30 23235 N 2232.06 4.96023 -2.64419 0
M  V30 23236 H 2224.21 1.18178 -1.76487 0
M  V30 23237 H 2226.48 0.578263 -0.75121 0
M  V30 23238 H 2226.18 2.5835 -2.38639 0
M  V30 23239 H 2226.06 3.63958 -0.990682 0
M  V30 23240 H 2228.44 2.93662 -0.290963 0
M  V30 23241 H 2228.53 1.89458 -1.7187 0
M  V30 23242 H 2228.17 3.94047 -3.20452 0
M  V30 23243 H 2228.1 4.96672 -1.74998 0
M  V30 23244 H 2230.59 3.40973 -1.62929 0
M  V30 23245 H 2230.9 6.6804 -3.88513 0
M  V30 23246 H 2229.25 6.01136 -3.48799 0
M  V30 23247 H 2232.44 4.18658 -2.09387 0
M  V30 23248 H 2232.61 5.67814 -3.12235 0
M  V30 23249 N 2226.02 0.560807 1.47284 0
M  V30 23250 C 2227.27 0.0380223 2.02064 0
M  V30 23251 C 2227.59 -1.31801 1.43714 0
M  V30 23252 O 2226.86 -1.86041 0.613652 0
M  V30 23253 H 2225.44 0.0110662 0.746918 0
M  V30 23254 H 2228.1 0.73163 1.80647 0
M  V30 23255 H 2227.2 -0.0473914 3.12064 0
M  V30 23256 N 2227.5 -1.54768 0.297442 0
M  V30 23257 C 2228.77 -1.92149 -0.365813 0
M  V30 23258 C 2229.15 -1.22427 -1.71973 0
M  V30 23259 O 2228.5 -0.358779 -2.25666 0
M  V30 23260 C 2228.71 -3.45628 -0.483995 0
M  V30 23261 C 2230.06 -4.17806 -0.756521 0
M  V30 23262 O 2231.08 -3.51643 -0.567945 0
M  V30 23263 O 2229.94 -5.34931 -1.11853 0
M  V30 23264 H 2227.04 -0.801468 -0.203905 0
M  V30 23265 H 2229.58 -1.66151 0.345239 0
M  V30 23266 H 2228.35 -3.88492 0.467933 0
M  V30 23267 H 2227.98 -3.77649 -1.24365 0
M  V30 23268 N 2228.97 -0.0251005 -1.5758 0
M  V30 23269 C 2229.92 0.958093 -2.09974 0
M  V30 23270 C 2230.89 1.32558 -1.00088 0
M  V30 23271 O 2232.08 1.4196 -1.27484 0
M  V30 23272 C 2229.22 2.23656 -2.62816 0
M  V30 23273 C 2228.33 1.92587 -3.86696 0
M  V30 23274 C 2227.46 3.14699 -4.27946 0
M  V30 23275 C 2226.5 2.79432 -5.44595 0
M  V30 23276 N 2225.64 3.94157 -5.81021 0
M  V30 23277 H 2230.48 0.504377 -2.93701 0
M  V30 23278 H 2228.02 0.237366 -1.45172 0
M  V30 23279 H 2229.98 2.98429 -2.91541 0
M  V30 23280 H 2228.61 2.66651 -1.81926 0
M  V30 23281 H 2227.66 1.08073 -3.64725 0
M  V30 23282 H 2228.97 1.6261 -4.7155 0
M  V30 23283 H 2228.12 3.97796 -4.58086 0
M  V30 23284 H 2226.86 3.47834 -3.41852 0
M  V30 23285 H 2225.87 1.94746 -5.14154 0
M  V30 23286 H 2227.09 2.47517 -6.32386 0
M  V30 23287 H 2225.04 4.27141 -4.97882 0
M  V30 23288 H 2224.96 3.6779 -6.60505 0
M  V30 23289 H 2226.22 4.77969 -6.15764 0
M  V30 23290 N 2230.45 1.55637 0.247999 0
M  V30 23291 C 2231.7 1.76619 0.974103 0
M  V30 23292 C 2232.01 0.588829 1.86527 0
M  V30 23293 O 2233.22 0.681641 2.62804 0
M  V30 23294 C 2231.68 3.12682 1.78207 0
M  V30 23295 C 2231.28 4.38063 0.938353 0
M  V30 23296 C 2233.03 3.43004 2.50098 0
M  V30 23297 C 2230.94 5.65158 1.74215 0
M  V30 23298 H 2229.87 0.658411 0.367438 0
M  V30 23299 H 2232.52 1.82068 0.228808 0
M  V30 23300 H 2230.9 3.01337 2.56928 0
M  V30 23301 H 2232.07 4.60393 0.193554 0
M  V30 23302 H 2230.39 4.15068 0.332832 0
M  V30 23303 H 2232.98 4.35176 3.10687 0
M  V30 23304 H 2233.33 2.64277 3.21657 0
M  V30 23305 H 2233.86 3.55559 1.78388 0
M  V30 23306 H 2230.6 6.46703 1.07031 0
M  V30 23307 H 2230.12 5.46931 2.46226 0
M  V30 23308 H 2231.8 6.04374 2.30956 0
M  V30 23309 N 2231.93 -0.513613 1.48996 0
M  V30 23310 C 2233.18 -1.27039 1.58079 0
M  V30 23311 C 2233.51 -1.92437 0.261059 0
M  V30 23312 O 2232.79 -1.80104 -0.734361 0
M  V30 23313 C 2233.07 -2.34714 2.73096 0
M  V30 23314 C 2232.92 -1.739 4.14824 0
M  V30 23315 C 2234.24 -3.3637 2.83802 0
M  V30 23316 H 2231.36 -0.460526 0.575399 0
M  V30 23317 H 2234 -0.570484 1.81233 0
M  V30 23318 H 2232.15 -2.94412 2.53484 0
M  V30 23319 H 2233.82 -1.18128 4.45919 0
M  V30 23320 H 2232.07 -1.04362 4.21059 0
M  V30 23321 H 2232.74 -2.5194 4.91152 0
M  V30 23322 H 2235.21 -2.86648 3.01616 0
M  V30 23323 H 2234.09 -4.09086 3.65978 0
M  V30 23324 H 2234.35 -3.97927 1.92631 0
M  V30 23325 N 2233.41 -1.37859 -0.763727 0
M  V30 23326 C 2234.64 -1.36523 -1.55065 0
M  V30 23327 C 2235.05 0.0493894 -1.89136 0
M  V30 23328 O 2234.39 1.02372 -1.52531 0
M  V30 23329 C 2234.45 -2.14661 -2.88376 0
M  V30 23330 C 2234.12 -3.6356 -2.76899 0
M  V30 23331 C 2235.11 -4.57272 -2.47382 0
M  V30 23332 C 2232.8 -4.06787 -2.94669 0
M  V30 23333 C 2234.79 -5.9219 -2.35776 0
M  V30 23334 C 2232.48 -5.41787 -2.82683 0
M  V30 23335 C 2233.48 -6.34302 -2.53278 0
M  V30 23336 O 2233.17 -7.66821 -2.41332 0
M  V30 23337 H 2232.9 -0.469077 -0.486768 0
M  V30 23338 H 2235.45 -1.81913 -0.953781 0
M  V30 23339 H 2233.68 -1.63973 -3.50214 0
M  V30 23340 H 2235.37 -2.05858 -3.49824 0
M  V30 23341 H 2236.14 -4.25184 -2.33331 0
M  V30 23342 H 2232.02 -3.35131 -3.16557 0
M  V30 23343 H 2235.56 -6.64368 -2.12745 0
M  V30 23344 H 2231.46 -5.73475 -2.96304 0
M  V30 23345 H 2232.22 -7.77231 -2.56621 0
M  V30 23346 N 2234.89 0.990791 -1.22561 0
M  V30 23347 C 2235.84 2.06579 -0.964844 0
M  V30 23348 C 2236.82 1.60674 0.085319 0
M  V30 23349 O 2238.01 1.76555 -0.125474 0
M  V30 23350 C 2235.14 3.38918 -0.546767 0
M  V30 23351 C 2234.23 3.91451 -1.63177 0
M  V30 23352 N 2234.62 4.17184 -2.85992 0
M  V30 23353 C 2232.92 4.19878 -1.50395 0
M  V30 23354 C 2233.62 4.59913 -3.56167 0
M  V30 23355 N 2232.59 4.63731 -2.83646 0
M  V30 23356 H 2236.4 2.24418 -1.89773 0
M  V30 23357 H 2233.91 1.17271 -1.12345 0
M  V30 23358 H 2235.91 4.15501 -0.341263 0
M  V30 23359 H 2234.57 3.22478 0.379197 0
M  V30 23360 H 2235.58 4.05314 -3.22399 0
M  V30 23361 H 2232.26 4.12498 -0.644327 0
M  V30 23362 H 2233.65 4.88427 -4.61398 0
M  V30 23363 N 2236.37 1.03564 1.18795 0
M  V30 23364 C 2237.59 0.755903 1.92597 0
M  V30 23365 C 2238.01 -0.68624 1.75887 0
M  V30 23366 O 2237.37 -1.4673 1.08519 0
M  V30 23367 C 2237.42 1.10625 3.44158 0
M  V30 23368 O 2237.14 2.49177 3.60337 0
M  V30 23369 C 2238.64 0.850291 4.35069 0
M  V30 23370 H 2235.86 0.276059 0.611582 0
M  V30 23371 H 2238.4 1.38194 1.5074 0
M  V30 23372 H 2236.56 0.525262 3.83823 0
M  V30 23373 H 2236.97 2.62435 4.54124 0
M  V30 23374 H 2238.45 1.14533 5.39987 0
M  V30 23375 H 2238.92 -0.215098 4.38673 0
M  V30 23376 H 2239.53 1.41433 4.01094 0
M  V30 23377 N 2237.84 -1.34926 0.814413 0
M  V30 23378 C 2238.77 -2.32213 0.244868 0
M  V30 23379 C 2239.75 -1.57843 -0.633996 0
M  V30 23380 O 2240.94 -1.85871 -0.562644 0
M  V30 23381 C 2238.07 -3.4206 -0.601046 0
M  V30 23382 C 2237.02 -4.27621 0.179971 0
M  V30 23383 C 2236.35 -5.2886 -0.788144 0
M  V30 23384 C 2237.65 -5.03647 1.38338 0
M  V30 23385 H 2239.34 -2.80095 1.05768 0
M  V30 23386 H 2236.89 -1.34664 0.510052 0
M  V30 23387 H 2238.84 -4.09127 -1.00961 0
M  V30 23388 H 2237.57 -2.92805 -1.44683 0
M  V30 23389 H 2236.23 -3.62145 0.569803 0
M  V30 23390 H 2235.87 -4.75869 -1.62964 0
M  V30 23391 H 2235.57 -5.8698 -0.269839 0
M  V30 23392 H 2237.1 -5.98797 -1.19475 0
M  V30 23393 H 2238.51 -5.63616 1.04928 0
M  V30 23394 H 2236.91 -5.71301 1.83672 0
M  V30 23395 H 2237.98 -4.33835 2.166 0
M  V30 23396 N 2239.32 -0.56861 -1.46985 0
M  V30 23397 C 2240.23 0.175509 -2.33943 0
M  V30 23398 C 2241.25 0.900383 -1.48893 0
M  V30 23399 O 2242.42 0.866728 -1.81796 0
M  V30 23400 C 2239.49 1.18518 -3.25813 0
M  V30 23401 C 2238.55 0.466507 -4.26758 0
M  V30 23402 C 2237.78 1.42808 -5.14239 0
M  V30 23403 O 2238.01 2.6637 -5.04384 0
M  V30 23404 O 2236.94 0.946349 -5.94414 0
M  V30 23405 H 2240.77 -0.538089 -2.98895 0
M  V30 23406 H 2238.35 -0.329122 -1.4573 0
M  V30 23407 H 2240.23 1.76773 -3.8253 0
M  V30 23408 H 2238.91 1.8805 -2.63475 0
M  V30 23409 H 2237.81 -0.157517 -3.73768 0
M  V30 23410 H 2239.15 -0.187571 -4.91842 0
M  V30 23411 N 2240.8 1.54608 -0.305646 0
M  V30 23412 C 2242.02 2.05107 0.307526 0
M  V30 23413 C 2242.45 1.18125 1.46383 0
M  V30 23414 O 2241.81 0.186356 1.8034 0
M  V30 23415 C 2241.86 3.52989 0.736978 0
M  V30 23416 O 2240.96 3.69013 1.84128 0
M  V30 23417 H 2240.3 0.661382 0.0589027 0
M  V30 23418 H 2242.83 1.99616 -0.448842 0
M  V30 23419 H 2242.84 3.94927 1.02452 0
M  V30 23420 H 2241.52 4.15758 -0.108847 0
M  V30 23421 H 2240.09 3.3898 1.55392 0
M  V30 23422 N 2242.28 0.033457 1.57564 0
M  V30 23423 C 2243.69 -0.504766 1.79747 0
M  V30 23424 C 2244.04 -1.71991 0.944121 0
M  V30 23425 O 2243.16 -2.15839 0.155732 0
M  V30 23426 C 2243.76 -0.922509 3.25999 0
M  V30 23427 C 2242.32 -1.40582 3.49161 0
M  V30 23428 C 2241.47 -0.372585 2.74786 0
M  V30 23429 H 2244.42 0.259464 1.56565 0
M  V30 23430 H 2244.44 -1.7866 3.35948 0
M  V30 23431 H 2243.95 -0.0379142 3.88081 0
M  V30 23432 H 2242.05 -2.3102 2.92336 0
M  V30 23433 H 2242.16 -1.4102 4.57876 0
M  V30 23434 H 2240.53 -0.84163 2.40393 0
M  V30 23435 H 2241.31 0.503619 3.39586 0
M  V30 23436 N 2243.76 -1.55766 -0.239741 0
M  V30 23437 C 2245 -1.78196 -0.968202 0
M  V30 23438 C 2245.33 -0.599971 -1.847 0
M  V30 23439 O 2244.61 0.401491 -1.90311 0
M  V30 23440 C 2244.89 -3.10567 -1.82264 0
M  V30 23441 C 2244.75 -4.39182 -0.971555 0
M  V30 23442 C 2246.06 -3.39226 -2.80382 0
M  V30 23443 H 2243.18 -0.648287 -0.350561 0
M  V30 23444 H 2245.83 -1.88501 -0.238226 0
M  V30 23445 H 2243.98 -3.01913 -2.44501 0
M  V30 23446 H 2245.65 -4.59835 -0.367327 0
M  V30 23447 H 2243.89 -4.3292 -0.2762 0
M  V30 23448 H 2244.56 -5.28201 -1.60337 0
M  V30 23449 H 2247.04 -3.47889 -2.28281 0
M  V30 23450 H 2245.91 -4.3305 -3.37282 0
M  V30 23451 H 2246.17 -2.60491 -3.57207 0
M  V30 23452 N 2245.23 0.505704 -1.49266 0
M  V30 23453 C 2246.14 1.63424 -1.68315 0
M  V30 23454 C 2247.16 1.64547 -0.56571 0
M  V30 23455 O 2248.34 1.83054 -0.839833 0
M  V30 23456 C 2245.4 2.9981 -1.74112 0
M  V30 23457 C 2244.46 3.0935 -2.97659 0
M  V30 23458 C 2243.69 4.3923 -3.03171 0
M  V30 23459 O 2243.92 5.27755 -2.16405 0
M  V30 23460 O 2242.85 4.53645 -3.95588 0
M  V30 23461 H 2246.68 1.50284 -2.6391 0
M  V30 23462 H 2244.26 0.681478 -1.32952 0
M  V30 23463 H 2246.14 3.80877 -1.80306 0
M  V30 23464 H 2244.82 3.13221 -0.816956 0
M  V30 23465 H 2243.73 2.27488 -2.96985 0
M  V30 23466 H 2245.06 3.00864 -3.8954 0
M  V30 23467 N 2246.71 1.38262 0.756405 0
M  V30 23468 C 2247.96 1.34315 1.51545 0
M  V30 23469 C 2248.29 -0.0676802 1.94382 0
M  V30 23470 O 2247.54 -1.04418 1.65516 0
M  V30 23471 C 2247.84 2.24229 2.78309 0
M  V30 23472 C 2247.51 3.72246 2.54449 0
M  V30 23473 C 2246.17 4.12581 2.4765 0
M  V30 23474 C 2248.52 4.65953 2.33532 0
M  V30 23475 C 2245.85 5.44717 2.17946 0
M  V30 23476 C 2248.2 5.98343 2.05349 0
M  V30 23477 C 2246.87 6.37766 1.97005 0
M  V30 23478 H 2246.14 0.491492 0.554542 0
M  V30 23479 H 2248.78 1.70596 0.870009 0
M  V30 23480 H 2247.09 1.80993 3.47489 0
M  V30 23481 H 2248.78 2.1848 3.36255 0
M  V30 23482 H 2245.37 3.40265 2.6061 0
M  V30 23483 H 2249.56 4.35639 2.37765 0
M  V30 23484 H 2244.81 5.74207 2.09992 0
M  V30 23485 H 2248.99 6.70497 1.88167 0
M  V30 23486 H 2246.62 7.40077 1.73753 0
M  V30 23487 N 2248.19 -0.984277 1.23084 0
M  V30 23488 C 2249.14 -2.06064 0.975786 0
M  V30 23489 C 2250.12 -1.60717 -0.0767969 0
M  V30 23490 O 2251.32 -1.76486 0.134836 0
M  V30 23491 C 2248.45 -3.38623 0.564733 0
M  V30 23492 C 2247.53 -3.9058 1.65251 0
M  V30 23493 N 2247.92 -4.15661 2.88201 0
M  V30 23494 C 2246.22 -4.19074 1.52619 0
M  V30 23495 C 2246.92 -4.58018 3.58601 0
M  V30 23496 N 2245.9 -4.6222 2.86101 0
M  V30 23497 H 2249.7 -2.23408 1.90961 0
M  V30 23498 H 2247.21 -1.16673 1.12965 0
M  V30 23499 H 2249.21 -4.15314 0.363293 0
M  V30 23500 H 2247.87 -3.22675 -0.36209 0
M  V30 23501 H 2248.88 -4.03598 3.24544 0
M  V30 23502 H 2245.56 -4.12151 0.666193 0
M  V30 23503 H 2246.95 -4.85974 4.63982 0
M  V30 23504 N 2249.67 -1.04192 -1.18244 0
M  V30 23505 C 2250.6 -0.654953 -2.24126 0
M  V30 23506 C 2251.58 0.342422 -1.66618 0
M  V30 23507 O 2252.76 0.222243 -1.92924 0
M  V30 23508 C 2249.89 -0.0184367 -3.47295 0
M  V30 23509 C 2248.85 -0.939488 -4.17562 0
M  V30 23510 C 2248.17 -0.16738 -5.34438 0
M  V30 23511 C 2249.47 -2.25916 -4.70913 0
M  V30 23512 H 2251.17 -1.54012 -2.5675 0
M  V30 23513 H 2248.71 -0.741971 -1.23413 0
M  V30 23514 H 2250.67 0.264009 -4.20572 0
M  V30 23515 H 2249.39 0.901609 -3.13909 0
M  V30 23516 H 2248.05 -1.20634 -3.46184 0
M  V30 23517 H 2247.7 0.755112 -4.973 0
M  V30 23518 H 2247.4 -0.781003 -5.82387 0
M  V30 23519 H 2248.92 0.108018 -6.10504 0
M  V30 23520 H 2250.34 -2.03733 -5.35879 0
M  V30 23521 H 2248.73 -2.82586 -5.29401 0
M  V30 23522 H 2249.8 -2.90477 -3.88267 0
M  V30 23523 N 2251.15 1.34492 -0.821557 0
M  V30 23524 C 2252.42 1.92768 -0.331624 0
M  V30 23525 C 2252.8 1.74983 1.18085 0
M  V30 23526 O 2252.15 1.12775 1.98731 0
M  V30 23527 C 2252.36 3.40637 -0.759458 0
M  V30 23528 C 2253.71 4.17788 -0.757507 0
M  V30 23529 O 2254.73 3.49215 -0.701951 0
M  V30 23530 O 2253.59 5.40169 -0.829456 0
M  V30 23531 H 2250.69 0.822059 -0.0902646 0
M  V30 23532 H 2253.23 1.43475 -0.906256 0
M  V30 23533 H 2252 3.47376 -1.80126 0
M  V30 23534 H 2251.63 3.97276 -0.160447 0
M  V30 23535 N 2252.62 0.576397 1.46681 0
M  V30 23536 C 2253.87 0.0594518 2.02013 0
M  V30 23537 C 2254.19 -1.30269 1.45104 0
M  V30 23538 O 2253.46 -1.85379 0.63335 0
M  V30 23539 H 2252.04 0.0189876 0.746759 0
M  V30 23540 H 2254.71 0.750749 1.7986 0
M  V30 23541 H 2253.8 -0.0142902 3.12097 0
M  V30 23542 N 2254.1 -1.54444 0.313841 0
M  V30 23543 C 2255.01 -2.27678 -0.565674 0
M  V30 23544 C 2256.03 -1.31668 -1.13752 0
M  V30 23545 O 2257.2 -1.6467 -1.15956 0
M  V30 23546 C 2254.27 -3.01299 -1.71522 0
M  V30 23547 C 2253.33 -4.12874 -1.17617 0
M  V30 23548 C 2252.56 -4.82974 -2.27093 0
M  V30 23549 O 2252.79 -4.5252 -3.47248 0
M  V30 23550 O 2251.72 -5.70098 -1.9306 0
M  V30 23551 H 2255.55 -3.03686 0.028783 0
M  V30 23552 H 2253.13 -1.49186 0.0798574 0
M  V30 23553 H 2255.01 -3.47434 -2.3847 0
M  V30 23554 H 2253.69 -2.28174 -2.29604 0
M  V30 23555 H 2252.6 -3.7111 -0.472059 0
M  V30 23556 H 2253.93 -4.88013 -0.640609 0
M  V30 23557 N 2255.58 -0.0418125 -1.57545 0
M  V30 23558 C 2256.83 0.634987 -1.92603 0
M  V30 23559 C 2257.16 1.71044 -0.919657 0
M  V30 23560 O 2256.43 1.9442 0.055755 0
M  V30 23561 C 2256.72 1.23973 -3.38087 0
M  V30 23562 C 2256.57 0.172978 -4.49467 0
M  V30 23563 C 2257.89 2.1541 -3.83779 0
M  V30 23564 H 2255.01 0.229362 -0.700401 0
M  V30 23565 H 2257.65 -0.101666 -1.89728 0
M  V30 23566 H 2255.8 1.86756 -3.40667 0
M  V30 23567 H 2257.47 -0.458392 -4.59017 0
M  V30 23568 H 2255.72 -0.500072 -4.30908 0
M  V30 23569 H 2256.39 0.635957 -5.48324 0
M  V30 23570 H 2258.86 1.62599 -3.83016 0
M  V30 23571 H 2257.74 2.5467 -4.86245 0
M  V30 23572 H 2258 3.05042 -3.20003 0
M  V30 23573 N 2257.06 1.55891 0.231477 0
M  V30 23574 C 2257.99 1.94619 1.29018 0
M  V30 23575 C 2258.97 0.813093 1.49408 0
M  V30 23576 O 2260.15 1.07462 1.61758 0
M  V30 23577 C 2257.28 2.25429 2.64195 0
M  V30 23578 C 2256.24 3.41135 2.58478 0
M  V30 23579 C 2255.56 3.57525 3.97593 0
M  V30 23580 C 2256.86 4.76392 2.14122 0
M  V30 23581 H 2258.56 2.83302 0.968513 0
M  V30 23582 H 2256.1 1.36304 0.464455 0
M  V30 23583 H 2258.06 2.51112 3.38409 0
M  V30 23584 H 2256.78 1.33588 2.9803 0
M  V30 23585 H 2255.44 3.15485 1.86722 0
M  V30 23586 H 2255.09 2.63077 4.28718 0
M  V30 23587 H 2254.79 4.35344 3.94651 0
M  V30 23588 H 2256.31 3.85547 4.73483 0
M  V30 23589 H 2257.73 5.01346 2.78074 0
M  V30 23590 H 2256.12 5.57423 2.2226 0
M  V30 23591 H 2257.19 4.72416 1.09323 0
M  V30 23592 N 2258.54 -0.497781 1.49532 0
M  V30 23593 C 2259.76 -1.28036 1.63161 0
M  V30 23594 C 2260.19 -1.85624 0.304213 0
M  V30 23595 O 2259.54 -1.66016 -0.728589 0
M  V30 23596 C 2259.59 -2.38411 2.70541 0
M  V30 23597 O 2258.7 -3.42349 2.29937 0
M  V30 23598 H 2258.04 -0.377851 0.546008 0
M  V30 23599 H 2260.57 -0.595546 1.95741 0
M  V30 23600 H 2260.58 -2.84127 2.92807 0
M  V30 23601 H 2259.25 -1.95863 3.66893 0
M  V30 23602 H 2257.83 -3.0253 2.18014 0
M  V30 23603 N 2260.01 -1.38661 -0.749062 0
M  V30 23604 C 2260.94 -1.38976 -1.87637 0
M  V30 23605 C 2261.93 -0.255034 -1.68177 0
M  V30 23606 O 2263.11 -0.458787 -1.88703 0
M  V30 23607 C 2260.24 -1.21857 -3.2522 0
M  V30 23608 C 2259.19 -2.32581 -3.59291 0
M  V30 23609 C 2258.52 -2.00563 -4.9566 0
M  V30 23610 C 2259.82 -3.74857 -3.63703 0
M  V30 23611 H 2261.51 -2.33313 -1.87631 0
M  V30 23612 H 2259.06 -1.12305 -0.90131 0
M  V30 23613 H 2261.01 -1.20702 -4.03744 0
M  V30 23614 H 2259.74 -0.239832 -3.25718 0
M  V30 23615 H 2258.4 -2.3293 -2.83089 0
M  V30 23616 H 2258.04 -1.01162 -4.92722 0
M  V30 23617 H 2257.74 -2.74723 -5.19424 0
M  V30 23618 H 2259.27 -2.01034 -5.76557 0
M  V30 23619 H 2260.68 -3.76514 -4.32331 0
M  V30 23620 H 2259.08 -4.48259 -3.98978 0
M  V30 23621 H 2260.15 -4.06846 -2.63826 0
M  V30 23622 N 2261.49 0.977736 -1.23605 0
M  V30 23623 C 2262.77 1.69399 -0.977927 0
M  V30 23624 C 2263.15 2.05027 0.502702 0
M  V30 23625 O 2262.5 1.74554 1.47456 0
M  V30 23626 C 2262.71 2.93341 -1.89082 0
M  V30 23627 C 2264.06 3.65798 -2.15585 0
M  V30 23628 O 2265.08 3.03379 -1.86653 0
M  V30 23629 O 2263.94 4.78136 -2.64666 0
M  V30 23630 H 2261.03 0.740095 -0.369038 0
M  V30 23631 H 2263.58 1.03272 -1.34659 0
M  V30 23632 H 2262.35 2.63629 -2.89163 0
M  V30 23633 H 2261.97 3.67204 -1.52469 0
M  V30 23634 N 2262.97 1.04818 1.1769 0
M  V30 23635 C 2263.92 0.645836 2.2158 0
M  V30 23636 C 2264.89 -0.35013 1.62368 0
M  V30 23637 O 2266.07 -0.2424 1.89254 0
M  V30 23638 C 2263.21 0.0228174 3.45092 0
M  V30 23639 C 2262.33 1.06716 4.18612 0
M  V30 23640 C 2261.46 0.411861 5.29601 0
M  V30 23641 C 2260.5 1.44077 5.94902 0
M  V30 23642 N 2259.64 0.809904 6.97413 0
M  V30 23643 H 2264.48 1.53624 2.5535 0
M  V30 23644 H 2262.01 0.768386 1.25436 0
M  V30 23645 H 2263.97 -0.355807 4.1568 0
M  V30 23646 H 2262.6 -0.831067 3.11918 0
M  V30 23647 H 2261.65 1.56366 3.46777 0
M  V30 23648 H 2262.97 1.84835 4.6329 0
M  V30 23649 H 2262.12 -0.0205557 6.06697 0
M  V30 23650 H 2260.86 -0.401352 4.86046 0
M  V30 23651 H 2259.86 1.88325 5.1654 0
M  V30 23652 H 2261.09 2.25582 6.40538 0
M  V30 23653 H 2259.04 0.0171339 6.55998 0
M  V30 23654 H 2258.95 1.52869 7.40383 0
M  V30 23655 H 2260.22 0.402136 7.78462 0
M  V30 23656 N 2264.45 -1.34055 0.828678 0
M  V30 23657 C 2265.38 -2.3194 0.269483 0
M  V30 23658 C 2266.36 -1.58507 -0.617219 0
M  V30 23659 O 2267.55 -1.86457 -0.542898 0
M  V30 23660 C 2264.68 -3.42678 -0.564733 0
M  V30 23661 C 2263.63 -4.27407 0.225316 0
M  V30 23662 C 2262.96 -5.29666 -0.732007 0
M  V30 23663 C 2264.26 -5.02151 1.43672 0
M  V30 23664 H 2265.95 -2.78958 1.08733 0
M  V30 23665 H 2263.5 -1.34116 0.524307 0
M  V30 23666 H 2265.45 -4.10175 -0.966161 0
M  V30 23667 H 2264.17 -2.94323 -1.41569 0
M  V30 23668 H 2262.83 -3.6152 0.608181 0
M  V30 23669 H 2262.48 -4.77571 -1.57908 0
M  V30 23670 H 2262.18 -5.87233 -0.207566 0
M  V30 23671 H 2263.7 -6.00031 -1.13117 0
M  V30 23672 H 2265.12 -5.62471 1.109 0
M  V30 23673 H 2263.51 -5.6932 1.89721 0
M  V30 23674 H 2264.58 -4.31513 2.21189 0
M  V30 23675 N 2265.93 -0.584167 -1.46374 0
M  V30 23676 C 2266.87 0.148246 -2.30323 0
M  V30 23677 C 2267.84 0.882688 -1.40705 0
M  V30 23678 O 2269.03 0.873069 -1.69653 0
M  V30 23679 C 2266.17 1.15501 -3.25198 0
M  V30 23680 C 2265.28 0.423867 -4.29916 0
M  V30 23681 C 2264.42 1.41829 -5.11916 0
M  V30 23682 C 2263.46 0.673629 -6.08382 0
M  V30 23683 N 2262.59 1.61618 -6.83245 0
M  V30 23684 H 2267.43 -0.573695 -2.92426 0
M  V30 23685 H 2264.97 -0.294728 -1.44117 0
M  V30 23686 H 2266.93 1.7516 -3.78649 0
M  V30 23687 H 2265.56 1.84465 -2.64901 0
M  V30 23688 H 2264.61 -0.287781 -3.7931 0
M  V30 23689 H 2265.92 -0.158215 -4.98549 0
M  V30 23690 H 2265.08 2.08763 -5.69652 0
M  V30 23691 H 2263.82 2.0343 -4.43247 0
M  V30 23692 H 2262.82 -0.00948147 -5.49799 0
M  V30 23693 H 2264.05 0.0629888 -6.79071 0
M  V30 23694 H 2261.99 2.22027 -6.17284 0
M  V30 23695 H 2261.91 1.08694 -7.48145 0
M  V30 23696 H 2263.18 2.27583 -7.45538 0
M  V30 23697 N 2267.41 1.54275 -0.322027 0
M  V30 23698 C 2268.63 2.05422 0.285755 0
M  V30 23699 C 2269.06 1.19671 1.45122 0
M  V30 23700 O 2268.41 0.205473 1.80132 0
M  V30 23701 C 2268.46 3.5375 0.699497 0
M  V30 23702 O 2267.57 3.70945 1.80203 0
M  V30 23703 H 2266.91 0.66197 0.0518846 0
M  V30 23704 H 2269.44 1.99129 -0.469989 0
M  V30 23705 H 2269.45 3.95992 0.982579 0
M  V30 23706 H 2268.12 4.15619 -0.152937 0
M  V30 23707 H 2266.7 3.40609 1.51788 0
M  V30 23708 N 2268.88 0.0501669 1.5752 0
M  V30 23709 C 2269.81 -0.922529 2.14503 0
M  V30 23710 C 2270.79 -1.32518 1.06644 0
M  V30 23711 O 2271.98 -1.40007 1.34579 0
M  V30 23712 C 2269.11 -2.19771 2.6892 0
M  V30 23713 C 2268.06 -1.93516 3.81753 0
M  V30 23714 C 2267.39 -3.2748 4.22683 0
M  V30 23715 C 2268.69 -1.25756 5.06935 0
M  V30 23716 H 2270.38 -0.4479 2.96031 0
M  V30 23717 H 2267.93 -0.213999 1.42401 0
M  V30 23718 H 2269.88 -2.88216 3.07424 0
M  V30 23719 H 2268.61 -2.69438 1.84583 0
M  V30 23720 H 2267.27 -1.27483 3.4372 0
M  V30 23721 H 2266.91 -3.74946 3.35298 0
M  V30 23722 H 2266.61 -3.10711 4.98731 0
M  V30 23723 H 2268.14 -3.97158 4.63786 0
M  V30 23724 H 2269.55 -1.84234 5.42891 0
M  V30 23725 H 2267.95 -1.19317 5.88119 0
M  V30 23726 H 2269.02 -0.233451 4.84338 0
M  V30 23727 N 2270.36 -1.56011 -0.223207 0
M  V30 23728 C 2271.29 -1.953 -1.27984 0
M  V30 23729 C 2272.27 -0.821005 -1.48975 0
M  V30 23730 O 2273.46 -1.08318 -1.61186 0
M  V30 23731 C 2270.59 -2.26827 -2.62996 0
M  V30 23732 C 2269.54 -3.42501 -2.56665 0
M  V30 23733 C 2268.87 -3.59629 -3.95691 0
M  V30 23734 C 2270.17 -4.77521 -2.11592 0
M  V30 23735 H 2271.86 -2.83812 -0.953475 0
M  V30 23736 H 2269.41 -1.36549 -0.45722 0
M  V30 23737 H 2271.36 -2.52904 -3.37072 0
M  V30 23738 H 2270.08 -1.35167 -2.97317 0
M  V30 23739 H 2268.74 -3.16471 -1.85046 0
M  V30 23740 H 2268.39 -2.65347 -4.27317 0
M  V30 23741 H 2268.09 -4.37431 -3.92337 0
M  V30 23742 H 2269.62 -3.88052 -4.71432 0
M  V30 23743 H 2271.03 -5.02814 -2.75411 0
M  V30 23744 H 2269.43 -5.58594 -2.19301 0
M  V30 23745 H 2270.5 -4.72989 -1.06816 0
M  V30 23746 N 2271.84 0.489844 -1.49794 0
M  V30 23747 C 2273.06 1.27169 -1.63838 0
M  V30 23748 C 2273.49 1.8546 -0.314053 0
M  V30 23749 O 2272.85 1.664 0.719774 0
M  V30 23750 C 2272.9 2.36973 -2.71801 0
M  V30 23751 O 2272 3.41124 -2.3175 0
M  V30 23752 H 2271.34 0.37495 -0.548004 0
M  V30 23753 H 2273.87 0.585157 -1.96054 0
M  V30 23754 H 2273.88 2.8257 -2.9431 0
M  V30 23755 H 2272.56 1.93915 -3.67927 0
M  V30 23756 H 2271.13 3.01369 -2.19616 0
M  V30 23757 N 2273.32 1.39056 0.741698 0
M  V30 23758 C 2274.25 1.39969 1.86898 0
M  V30 23759 C 2275.23 0.263949 1.6804 0
M  V30 23760 O 2276.41 0.468788 1.88457 0
M  V30 23761 C 2273.54 1.2358 3.24569 0
M  V30 23762 C 2272.5 2.34484 3.58052 0
M  V30 23763 C 2271.82 2.03189 4.94589 0
M  V30 23764 C 2273.12 3.7678 3.6171 0
M  V30 23765 H 2274.82 2.34305 1.86391 0
M  V30 23766 H 2272.36 1.12781 0.895341 0
M  V30 23767 H 2274.32 1.22841 4.03098 0
M  V30 23768 H 2273.04 0.257103 3.25586 0
M  V30 23769 H 2271.7 2.34428 2.81849 0
M  V30 23770 H 2271.35 1.03774 4.92179 0
M  V30 23771 H 2271.05 2.77474 5.17959 0
M  V30 23772 H 2272.57 2.04089 5.75482 0
M  V30 23773 H 2273.99 3.78802 4.30328 0
M  V30 23774 H 2272.38 4.50369 3.96595 0
M  V30 23775 H 2273.45 4.08239 2.61665 0
M  V30 23776 N 2274.8 -0.971167 1.24121 0
M  V30 23777 C 2276.21 -1.23914 1.00586 0
M  V30 23778 C 2276.41 -1.99439 -0.287446 0
M  V30 23779 O 2275.47 -2.31659 -1.0045 0
M  V30 23780 C 2276.78 -2.02966 2.21867 0
M  V30 23781 C 2278.33 -2.16072 2.26455 0
M  V30 23782 C 2278.8 -2.98518 3.47348 0
M  V30 23783 N 2280.29 -3.06101 3.47644 0
M  V30 23784 C 2281.03 -3.70243 4.37844 0
M  V30 23785 N 2280.53 -4.36133 5.38294 0
M  V30 23786 N 2282.32 -3.67221 4.25565 0
M  V30 23787 H 2274.47 -0.465463 2.07237 0
M  V30 23788 H 2276.73 -0.268299 0.909241 0
M  V30 23789 H 2276.44 -1.54855 3.15773 0
M  V30 23790 H 2276.31 -3.03705 2.23704 0
M  V30 23791 H 2278.7 -2.63387 1.33083 0
M  V30 23792 H 2278.78 -1.14692 2.28647 0
M  V30 23793 H 2278.42 -2.51897 4.41033 0
M  V30 23794 H 2278.35 -4.00087 3.424 0
M  V30 23795 H 2280.85 -2.59228 2.74971 0
M  V30 23796 H 2281.16 -4.82883 6.03361 0
M  V30 23797 H 2279.5 -4.34812 5.42184 0
M  V30 23798 H 2282.69 -3.14921 3.46327 0
M  V30 23799 H 2282.87 -4.16926 4.96061 0
M  V30 23800 N 2276.27 -1.05441 -1.17133 0
M  V30 23801 C 2277.18 -0.668405 -2.24877 0
M  V30 23802 C 2278.2 0.311657 -1.71186 0
M  V30 23803 O 2279.38 0.163126 -2.00738 0
M  V30 23804 C 2276.44 -0.0517089 -3.46661 0
M  V30 23805 C 2275.5 -1.08254 -4.15427 0
M  V30 23806 C 2274.74 -0.495175 -5.31398 0
M  V30 23807 O 2274.96 0.694643 -5.66154 0
M  V30 23808 O 2273.89 -1.23066 -5.89184 0
M  V30 23809 H 2277.72 -1.56642 -2.60187 0
M  V30 23810 H 2275.3 -0.826125 -1.24481 0
M  V30 23811 H 2277.19 0.290892 -4.20395 0
M  V30 23812 H 2275.86 0.819916 -3.13144 0
M  V30 23813 H 2274.77 -1.47717 -3.43701 0
M  V30 23814 H 2276.1 -1.9254 -4.52978 0
M  V30 23815 N 2277.75 1.33613 -0.835776 0
M  V30 23816 C 2279 1.98175 -0.430631 0
M  V30 23817 C 2279.33 1.66063 1.00682 0
M  V30 23818 O 2278.61 0.938907 1.70337 0
M  V30 23819 C 2278.89 3.54219 -0.648127 0
M  V30 23820 C 2278.74 3.96029 -2.13262 0
M  V30 23821 C 2280.06 4.40003 -0.0922887 0
M  V30 23822 H 2277.18 0.719879 -0.157936 0
M  V30 23823 H 2279.82 1.58303 -1.05072 0
M  V30 23824 H 2277.97 3.88314 -0.120305 0
M  V30 23825 H 2279.64 3.72207 -2.72507 0
M  V30 23826 H 2277.89 3.45873 -2.61829 0
M  V30 23827 H 2278.56 5.04704 -2.23556 0
M  V30 23828 H 2281.03 4.12536 -0.543416 0
M  V30 23829 H 2279.91 5.48215 -0.274179 0
M  V30 23830 H 2280.17 4.30556 1.00371 0
M  V30 23831 N 2279.23 0.591922 1.46062 0
M  V30 23832 C 2280.18 -0.136029 2.30399 0
M  V30 23833 C 2281.15 -0.875214 1.41171 0
M  V30 23834 O 2282.33 -0.86406 1.70114 0
M  V30 23835 C 2279.47 -1.13775 3.25806 0
M  V30 23836 C 2278.59 -0.401062 4.30134 0
M  V30 23837 C 2277.72 -1.39112 5.12661 0
M  V30 23838 C 2276.76 -0.641355 6.08731 0
M  V30 23839 N 2275.9 -1.57992 6.84093 0
M  V30 23840 H 2280.74 0.589195 2.92117 0
M  V30 23841 H 2278.27 0.302367 1.43959 0
M  V30 23842 H 2280.23 -1.73149 3.79572 0
M  V30 23843 H 2278.86 -1.83058 2.65875 0
M  V30 23844 H 2277.91 0.307893 3.79152 0
M  V30 23845 H 2279.23 0.184652 4.98458 0
M  V30 23846 H 2278.38 -2.05739 5.70751 0
M  V30 23847 H 2277.12 -2.01076 4.44319 0
M  V30 23848 H 2276.12 0.0386385 5.49786 0
M  V30 23849 H 2277.35 -0.0269751 6.79095 0
M  V30 23850 H 2275.29 -2.1875 6.18453 0
M  V30 23851 H 2275.21 -1.04725 7.48711 0
M  V30 23852 H 2276.48 -2.23626 7.46734 0
M  V30 23853 N 2280.71 -1.54102 0.330204 0
M  V30 23854 C 2281.94 -2.05102 -0.272143 0
M  V30 23855 C 2282.35 -1.20597 -1.45264 0
M  V30 23856 O 2281.71 -0.238175 -1.80939 0
M  V30 23857 C 2281.76 -3.54655 -0.700168 0
M  V30 23858 O 2281.48 -4.35951 0.433378 0
M  V30 23859 C 2282.98 -4.21773 -1.36463 0
M  V30 23860 H 2280.2 -0.66875 -0.0549041 0
M  V30 23861 H 2282.75 -1.98827 0.47832 0
M  V30 23862 H 2280.9 -3.61195 -1.40059 0
M  V30 23863 H 2281.31 -5.24414 0.0948461 0
M  V30 23864 H 2282.79 -5.27846 -1.615 0
M  V30 23865 H 2283.27 -3.73296 -2.31402 0
M  V30 23866 H 2283.87 -4.19389 -0.706601 0
M  V30 23867 N 2282.19 -0.0585199 -1.57491 0
M  V30 23868 C 2283.44 0.613112 -1.92156 0
M  V30 23869 C 2283.75 1.71567 -0.939364 0
M  V30 23870 O 2284.95 2.44597 -1.17833 0
M  V30 23871 C 2283.41 1.14189 -3.41305 0
M  V30 23872 C 2283.02 0.0710478 -4.47944 0
M  V30 23873 C 2284.76 1.78835 -3.84991 0
M  V30 23874 C 2282.67 0.613122 -5.88213 0
M  V30 23875 H 2281.6 0.232784 -0.717166 0
M  V30 23876 H 2284.25 -0.128602 -1.83049 0
M  V30 23877 H 2282.63 1.93615 -3.45441 0
M  V30 23878 H 2283.81 -0.702916 -4.55407 0
M  V30 23879 H 2282.12 -0.478386 -4.13643 0
M  V30 23880 H 2284.72 2.204 -4.87163 0
M  V30 23881 H 2285.06 2.64303 -3.21636 0
M  V30 23882 H 2285.59 1.06052 -3.83403 0
M  V30 23883 H 2282.33 -0.204093 -6.55182 0
M  V30 23884 H 2281.85 1.35491 -5.84296 0
M  V30 23885 H 2283.53 1.09371 -6.37689 0
M  V30 23886 N 2283.66 1.56128 0.21493 0
M  V30 23887 C 2284.61 1.92954 1.26639 0
M  V30 23888 C 2285.58 0.787555 1.46242 0
M  V30 23889 O 2286.77 1.04402 1.59702 0
M  V30 23890 C 2283.91 2.2573 2.61036 0
M  V30 23891 C 2283.02 3.52895 2.49177 0
M  V30 23892 C 2282.15 3.75087 3.76143 0
M  V30 23893 C 2281.19 4.95744 3.59033 0
M  V30 23894 N 2280.33 5.14291 4.77963 0
M  V30 23895 H 2285.17 2.82608 0.945334 0
M  V30 23896 H 2282.71 1.39871 0.455465 0
M  V30 23897 H 2284.67 2.42745 3.39309 0
M  V30 23898 H 2283.3 1.39241 2.91225 0
M  V30 23899 H 2282.35 3.44037 1.62304 0
M  V30 23900 H 2283.66 4.41322 2.32458 0
M  V30 23901 H 2282.81 3.92234 4.62858 0
M  V30 23902 H 2281.55 2.84954 3.95794 0
M  V30 23903 H 2280.56 4.7854 2.70701 0
M  V30 23904 H 2281.78 5.87368 3.40846 0
M  V30 23905 H 2279.73 4.27102 4.97916 0
M  V30 23906 H 2279.65 5.96862 4.63996 0
M  V30 23907 H 2280.91 5.35879 5.66086 0
M  V30 23908 N 2285.14 -0.481893 1.50052 0
M  V30 23909 C 2286.39 -1.23658 1.60738 0
M  V30 23910 C 2286.72 -1.9184 0.30182 0
M  V30 23911 O 2286 -1.81621 -0.695993 0
M  V30 23912 C 2286.28 -2.28869 2.78013 0
M  V30 23913 C 2286.13 -1.65062 4.18419 0
M  V30 23914 C 2287.45 -3.30274 2.90873 0
M  V30 23915 H 2284.57 -0.448218 0.585038 0
M  V30 23916 H 2287.21 -0.531914 1.82403 0
M  V30 23917 H 2285.36 -2.88969 2.59672 0
M  V30 23918 H 2287.03 -1.08642 4.48324 0
M  V30 23919 H 2285.28 -0.954074 4.23178 0
M  V30 23920 H 2285.95 -2.41465 4.96385 0
M  V30 23921 H 2288.42 -2.80186 3.07628 0
M  V30 23922 H 2287.3 -4.01231 3.74573 0
M  V30 23923 H 2287.56 -3.93751 2.01028 0
M  V30 23924 N 2286.62 -1.39448 -0.734313 0
M  V30 23925 C 2287.87 -1.36709 -1.49389 0
M  V30 23926 C 2288.2 0.0367471 -1.94465 0
M  V30 23927 O 2287.45 1.01771 -1.67156 0
M  V30 23928 C 2287.75 -2.28628 -2.74707 0
M  V30 23929 C 2287.42 -3.76246 -2.48494 0
M  V30 23930 C 2286.08 -4.16468 -2.41055 0
M  V30 23931 C 2288.43 -4.69609 -2.26089 0
M  V30 23932 C 2285.76 -5.48115 -2.09253 0
M  V30 23933 C 2288.11 -6.01534 -1.95804 0
M  V30 23934 C 2286.77 -6.40819 -1.86834 0
M  V30 23935 H 2286.04 -0.500252 -0.546652 0
M  V30 23936 H 2288.69 -1.71959 -0.842758 0
M  V30 23937 H 2287 -1.86499 -3.44566 0
M  V30 23938 H 2288.69 -2.23802 -3.32737 0
M  V30 23939 H 2285.28 -3.44368 -2.55163 0
M  V30 23940 H 2289.47 -4.39367 -2.30804 0
M  V30 23941 H 2284.72 -5.77475 -2.00831 0
M  V30 23942 H 2288.9 -6.73406 -1.77476 0
M  V30 23943 H 2286.52 -7.42748 -1.61957 0
M  V30 23944 N 2288.1 0.964571 -1.24635 0
M  V30 23945 C 2289.33 1.74283 -1.11504 0
M  V30 23946 C 2289.74 1.85856 0.332133 0
M  V30 23947 O 2289.1 1.34913 1.22901 0
M  V30 23948 C 2289.15 3.16172 -1.75264 0
M  V30 23949 O 2288.87 3.05176 -3.14323 0
M  V30 23950 C 2290.37 4.10321 -1.67784 0
M  V30 23951 H 2287.59 0.546439 -0.389417 0
M  V30 23952 H 2290.14 1.2108 -1.64803 0
M  V30 23953 H 2288.29 3.66351 -1.2596 0
M  V30 23954 H 2288.7 3.94612 -3.45517 0
M  V30 23955 H 2290.18 5.07527 -2.17073 0
M  V30 23956 H 2290.66 4.34517 -0.639661 0
M  V30 23957 H 2291.26 3.66054 -2.16529 0
M  V30 23958 N 2289.58 1.0606 1.16572 0
M  V30 23959 C 2290.8 0.796585 1.90951 0
M  V30 23960 C 2291.22 -0.648777 1.77303 0
M  V30 23961 O 2290.58 -1.44395 1.11607 0
M  V30 23962 C 2290.63 1.179 3.41734 0
M  V30 23963 O 2290.35 2.56764 3.5497 0
M  V30 23964 C 2291.85 0.942384 4.33167 0
M  V30 23965 H 2289.07 0.28897 0.605589 0
M  V30 23966 H 2291.61 1.41361 1.47775 0
M  V30 23967 H 2289.77 0.606558 3.82622 0
M  V30 23968 H 2290.18 2.72008 4.48455 0
M  V30 23969 H 2291.66 1.25961 5.37436 0
M  V30 23970 H 2292.13 -0.122001 4.39031 0
M  V30 23971 H 2292.74 1.49909 3.98004 0
M  V30 23972 N 2291.06 -1.33168 0.84285 0
M  V30 23973 C 2292.3 -1.97944 0.441134 0
M  V30 23974 C 2292.63 -1.66594 -0.997994 0
M  V30 23975 O 2291.91 -0.947927 -1.69837 0
M  V30 23976 C 2292.19 -3.53871 0.666903 0
M  V30 23977 C 2292.05 -3.94893 2.15359 0
M  V30 23978 C 2293.36 -4.39948 0.115622 0
M  V30 23979 H 2290.48 -0.719031 0.161752 0
M  V30 23980 H 2293.13 -1.57744 1.0591 0
M  V30 23981 H 2291.28 -3.88244 0.140896 0
M  V30 23982 H 2292.95 -3.70756 2.74477 0
M  V30 23983 H 2291.19 -3.4448 2.63659 0
M  V30 23984 H 2291.86 -5.03512 2.2623 0
M  V30 23985 H 2294.34 -4.12242 0.565286 0
M  V30 23986 H 2293.21 -5.48062 0.303249 0
M  V30 23987 H 2293.47 -4.31082 -0.980859 0
M  V30 23988 N 2292.53 -0.599659 -1.45746 0
M  V30 23989 C 2293.81 -0.024119 -1.95585 0
M  V30 23990 C 2294.19 1.44152 -1.54219 0
M  V30 23991 O 2293.54 2.14003 -0.800941 0
M  V30 23992 C 2293.75 -0.213911 -3.48344 0
M  V30 23993 C 2295.1 -0.0905648 -4.24503 0
M  V30 23994 O 2296.12 -0.14362 -3.5591 0
M  V30 23995 O 2294.98 0.0309806 -5.46491 0
M  V30 23996 H 2292.07 0.0402333 -0.826021 0
M  V30 23997 H 2294.62 -0.669166 -1.5595 0
M  V30 23998 H 2293.39 -1.23213 -3.71395 0
M  V30 23999 H 2293.01 0.466773 -3.94851 0
M  V30 24000 N 2294.01 1.53925 -0.338371 0
M  V30 24001 C 2294.96 2.26335 0.536191 0
M  V30 24002 C 2295.95 1.28288 1.10628 0
M  V30 24003 O 2297.16 1.46014 1.05261 0
M  V30 24004 H 2293.53 0.727185 0.191589 0
M  V30 24005 H 2295.51 2.98244 -0.0966271 0
M  V30 24006 C 2294.25 3.04531 1.67798 0
M  V30 24007 H 2293.58 3.79803 1.24857 0
M  V30 24008 H 2295.02 3.5842 2.26519 0
M  V30 24009 C 2293.48 2.13717 2.60436 0
M  V30 24010 O 2294.01 1.72982 3.62547 0
M  V30 24011 N 2292.21 1.78902 2.29003 0
M  V30 24012 H 2291.76 2.12226 1.46007 0
M  V30 24013 H 2291.72 1.18421 2.91245 0
M  V30 24014 N 2295.49 0.0668712 1.57458 0
M  V30 24015 C 2296.72 -0.612531 1.97625 0
M  V30 24016 C 2297.13 -1.63445 0.945048 0
M  V30 24017 O 2296.49 -1.8237 -0.0688955 0
M  V30 24018 C 2296.54 -1.2855 3.37872 0
M  V30 24019 O 2296.26 -0.30448 4.37041 0
M  V30 24020 C 2297.76 -2.05318 3.92886 0
M  V30 24021 H 2294.98 -0.16637 0.650048 0
M  V30 24022 H 2297.53 0.137818 2.04035 0
M  V30 24023 H 2295.68 -1.98696 3.32564 0
M  V30 24024 H 2296.1 -0.786688 5.18567 0
M  V30 24025 H 2297.57 -2.47804 4.93252 0
M  V30 24026 H 2298.05 -2.90774 3.29161 0
M  V30 24027 H 2298.65 -1.40049 4.0158 0
M  V30 24028 N 2296.97 -1.56239 -0.206647 0
M  V30 24029 C 2297.92 -1.94497 -1.27568 0
M  V30 24030 C 2298.91 -0.828888 -1.47736 0
M  V30 24031 O 2300.12 -1.01382 -1.48733 0
M  V30 24032 H 2296.49 -0.618308 -0.428018 0
M  V30 24033 H 2298.46 -2.83671 -0.925911 0
M  V30 24034 C 2297.21 -2.29084 -2.61564 0
M  V30 24035 H 2296.53 -3.14486 -2.46858 0
M  V30 24036 H 2297.97 -2.59726 -3.3514 0
M  V30 24037 C 2296.43 -1.12128 -3.17693 0
M  V30 24038 O 2296.96 -0.390223 -3.998 0
M  V30 24039 N 2295.17 -0.901146 -2.76275 0
M  V30 24040 H 2294.72 -1.49737 -2.09611 0
M  V30 24041 H 2294.67 -0.120374 -3.14169 0
M  V30 24042 N 2298.45 0.473929 -1.50305 0
M  V30 24043 C 2299.38 1.58039 -1.71889 0
M  V30 24044 C 2300.36 1.60343 -0.567827 0
M  V30 24045 O 2301.54 1.76654 -0.806654 0
M  V30 24046 C 2298.67 2.9638 -1.81041 0
M  V30 24047 C 2297.63 3.08943 -2.96206 0
M  V30 24048 C 2296.95 4.48904 -2.90498 0
M  V30 24049 C 2298.25 2.86427 -4.36757 0
M  V30 24050 H 2299.95 1.4023 -2.6453 0
M  V30 24051 H 2297.49 0.673178 -1.27296 0
M  V30 24052 H 2299.44 3.73711 -1.94726 0
M  V30 24053 H 2298.17 3.1534 -0.850202 0
M  V30 24054 H 2296.83 2.34045 -2.82168 0
M  V30 24055 H 2296.48 4.64778 -1.92329 0
M  V30 24056 H 2296.18 4.58246 -3.6781 0
M  V30 24057 H 2297.7 5.28259 -3.06227 0
M  V30 24058 H 2299.11 3.53509 -4.51336 0
M  V30 24059 H 2297.51 3.07216 -5.15498 0
M  V30 24060 H 2298.58 1.82308 -4.49324 0
M  V30 24061 N 2299.92 1.39835 0.726907 0
M  V30 24062 C 2300.87 1.35686 1.8323 0
M  V30 24063 C 2301.86 0.236323 1.59155 0
M  V30 24064 O 2303.05 0.474518 1.70521 0
M  V30 24065 C 2300.18 1.21067 3.21244 0
M  V30 24066 C 2299.26 2.37855 3.51121 0
M  V30 24067 N 2299.66 3.63335 3.51883 0
M  V30 24068 C 2297.95 2.30989 3.81523 0
M  V30 24069 C 2298.65 4.40613 3.79783 0
M  V30 24070 N 2297.63 3.70304 3.97965 0
M  V30 24071 H 2301.43 2.30659 1.82136 0
M  V30 24072 H 2298.95 1.33446 0.925522 0
M  V30 24073 H 2300.94 1.16178 4.00385 0
M  V30 24074 H 2299.6 0.270515 3.23571 0
M  V30 24075 H 2300.61 3.96649 3.33001 0
M  V30 24076 H 2297.29 1.45279 3.91408 0
M  V30 24077 H 2298.68 5.49415 3.86773 0
M  V30 24078 N 2301.4 -0.957948 1.25144 0
M  V30 24079 C 2302.63 -1.73689 1.12427 0
M  V30 24080 C 2303.04 -1.86029 -0.322272 0
M  V30 24081 O 2302.4 -1.35563 -1.22184 0
M  V30 24082 C 2302.45 -3.15238 1.76938 0
M  V30 24083 O 2302.17 -3.03505 3.15937 0
M  V30 24084 C 2303.67 -4.09426 1.69957 0
M  V30 24085 H 2300.89 -0.544366 0.392309 0
M  V30 24086 H 2303.44 -1.20204 1.65442 0
M  V30 24087 H 2301.59 -3.65678 1.27901 0
M  V30 24088 H 2302.01 -3.92774 3.47605 0
M  V30 24089 H 2303.48 -5.06368 2.19762 0
M  V30 24090 H 2303.96 -4.34172 0.662695 0
M  V30 24091 H 2304.56 -3.649 2.18467 0
M  V30 24092 N 2302.88 -1.06677 -1.16008 0
M  V30 24093 C 2303.81 -0.63896 -2.20113 0
M  V30 24094 C 2304.82 0.305029 -1.59917 0
M  V30 24095 O 2306.01 0.0954133 -1.78245 0
M  V30 24096 C 2303.11 0.0829487 -3.38798 0
M  V30 24097 C 2302.29 -0.875502 -4.28548 0
M  V30 24098 C 2301.35 -0.192134 -5.25849 0
M  V30 24099 O 2300.37 -0.83102 -5.63101 0
M  V30 24100 N 2301.57 1.06483 -5.7065 0
M  V30 24101 H 2304.34 -1.53449 -2.57436 0
M  V30 24102 H 2301.9 -0.95058 -1.31056 0
M  V30 24103 H 2303.89 0.550615 -4.00937 0
M  V30 24104 H 2302.46 0.880333 -2.99948 0
M  V30 24105 H 2301.68 -1.52245 -3.63614 0
M  V30 24106 H 2302.97 -1.52557 -4.8539 0
M  V30 24107 H 2302.37 1.60396 -5.42485 0
M  V30 24108 H 2300.92 1.4763 -6.34861 0
M  V30 24109 N 2304.36 1.32719 -0.8499 0
M  V30 24110 C 2305.29 2.31482 -0.306349 0
M  V30 24111 C 2306.27 1.59469 0.591924 0
M  V30 24112 O 2307.45 1.87297 0.513166 0
M  V30 24113 C 2304.58 3.43533 0.510144 0
M  V30 24114 C 2303.54 4.26994 -0.293284 0
M  V30 24115 C 2302.86 5.30763 0.647649 0
M  V30 24116 C 2304.16 4.99802 -1.51643 0
M  V30 24117 H 2305.86 2.77193 -1.13157 0
M  V30 24118 H 2303.4 1.33265 -0.545577 0
M  V30 24119 H 2305.36 4.1166 0.900783 0
M  V30 24120 H 2304.08 2.96538 1.36869 0
M  V30 24121 H 2302.74 3.60507 -0.665619 0
M  V30 24122 H 2302.39 4.80023 1.5029 0
M  V30 24123 H 2302.09 5.87489 0.114116 0
M  V30 24124 H 2303.61 6.01754 1.03557 0
M  V30 24125 H 2305.03 5.60636 -1.19834 0
M  V30 24126 H 2303.42 5.6623 -1.98755 0
M  V30 24127 H 2304.49 4.27939 -2.28026 0
M  V30 24128 N 2305.84 0.60738 1.45426 0
M  V30 24129 C 2307.08 0.102643 2.0254 0
M  V30 24130 C 2307.42 -1.26345 1.47481 0
M  V30 24131 O 2306.69 -1.83338 0.649422 0
M  V30 24132 C 2306.97 0.063498 3.60044 0
M  V30 24133 C 2306.83 1.46024 4.25437 0
M  V30 24134 C 2308.15 -0.624437 4.35648 0
M  V30 24135 H 2305.26 0.0387736 0.735979 0
M  V30 24136 H 2307.91 0.779312 1.73282 0
M  V30 24137 H 2306.06 -0.51274 3.85102 0
M  V30 24138 H 2307.73 2.08355 4.11565 0
M  V30 24139 H 2305.97 2.02101 3.83846 0
M  V30 24140 H 2306.64 1.3851 5.3434 0
M  V30 24141 H 2309.12 -0.13465 4.15882 0
M  V30 24142 H 2307.99 -0.620932 5.45377 0
M  V30 24143 H 2308.26 -1.69048 4.08504 0
M  V30 24144 N 2307.31 -1.53743 0.34653 0
M  V30 24145 C 2308.59 -1.93215 -0.304498 0
M  V30 24146 C 2308.97 -1.27837 -1.67991 0
M  V30 24147 O 2308.32 -0.430391 -2.2441 0
M  V30 24148 C 2308.53 -3.46993 -0.373791 0
M  V30 24149 C 2309.88 -4.20001 -0.623216 0
M  V30 24150 O 2310.9 -3.53272 -0.455785 0
M  V30 24151 O 2309.76 -5.38219 -0.947784 0
M  V30 24152 H 2306.85 -0.80755 -0.178304 0
M  V30 24153 H 2309.4 -1.64969 0.397924 0
M  V30 24154 H 2308.17 -3.86807 0.591292 0
M  V30 24155 H 2307.8 -3.81415 -1.12288 0
M  V30 24156 N 2308.79 -0.0752207 -1.5742 0
M  V30 24157 C 2309.73 0.926868 -2.08529 0
M  V30 24158 C 2310.7 1.28896 -0.991193 0
M  V30 24159 O 2311.89 1.39766 -1.26482 0
M  V30 24160 C 2309.01 2.23398 -2.5458 0
M  V30 24161 C 2308.06 2.02321 -3.75458 0
M  V30 24162 S 2308.89 1.27941 -5.19992 0
M  V30 24163 C 2310.05 2.59925 -5.69377 0
M  V30 24164 H 2310.28 0.491996 -2.93201 0
M  V30 24165 H 2307.82 0.137624 -1.53785 0
M  V30 24166 H 2309.77 2.98521 -2.81772 0
M  V30 24167 H 2308.43 2.64009 -1.7017 0
M  V30 24168 H 2307.63 2.99064 -4.0568 0
M  V30 24169 H 2307.23 1.35332 -3.48656 0
M  V30 24170 H 2309.52 3.55998 -5.7643 0
M  V30 24171 H 2310.46 2.34308 -6.68211 0
M  V30 24172 H 2310.87 2.67287 -4.9721 0
M  V30 24173 N 2310.27 1.56347 0.198358 0
M  V30 24174 C 2311.5 1.84893 0.93965 0
M  V30 24175 C 2311.92 0.6584 1.76201 0
M  V30 24176 O 2311.28 -0.39282 1.76993 0
M  V30 24177 C 2311.33 3.11638 1.81422 0
M  V30 24178 O 2310.43 2.91961 2.9126 0
M  V30 24179 H 2309.77 0.608916 0.264796 0
M  V30 24180 H 2312.3 2.03574 0.20466 0
M  V30 24181 H 2312.31 3.42347 2.21952 0
M  V30 24182 H 2310.99 3.9791 1.20997 0
M  V30 24183 H 2309.56 2.72542 2.54509 0
M  V30 24184 N 2311.75 -0.465951 1.50554 0
M  V30 24185 C 2312.68 -1.58225 1.64439 0
M  V30 24186 C 2313.66 -1.54965 0.492394 0
M  V30 24187 O 2314.84 -1.74513 0.712566 0
M  V30 24188 C 2311.97 -2.96805 1.6317 0
M  V30 24189 C 2311.02 -3.18199 2.83992 0
M  V30 24190 S 2311.85 -2.97549 4.45225 0
M  V30 24191 C 2313.01 -4.38462 4.46656 0
M  V30 24192 H 2313.24 -1.46208 2.58864 0
M  V30 24193 H 2310.77 -0.653653 1.39881 0
M  V30 24194 H 2312.73 -3.76698 1.63123 0
M  V30 24195 H 2311.39 -3.06207 0.699724 0
M  V30 24196 H 2310.58 -4.1945 2.79424 0
M  V30 24197 H 2310.19 -2.46087 2.81633 0
M  V30 24198 H 2312.48 -5.31184 4.20535 0
M  V30 24199 H 2313.42 -4.48073 5.48303 0
M  V30 24200 H 2313.83 -4.2078 3.76303 0
M  V30 24201 N 2313.23 -1.40218 -0.719481 0
M  V30 24202 C 2314.45 -1.41592 -1.50862 0
M  V30 24203 C 2314.87 -0.0145607 -1.88794 0
M  V30 24204 O 2314.23 0.960566 -1.55175 0
M  V30 24205 C 2314.28 -2.30307 -2.78641 0
M  V30 24206 O 2314 -3.64987 -2.42314 0
M  V30 24207 C 2315.5 -2.4023 -3.72564 0
M  V30 24208 H 2312.72 -0.483078 -0.4657 0
M  V30 24209 H 2315.26 -1.84223 -0.887817 0
M  V30 24210 H 2313.42 -1.91048 -3.37015 0
M  V30 24211 H 2313.83 -4.12062 -3.24507 0
M  V30 24212 H 2315.31 -3.0652 -4.59074 0
M  V30 24213 H 2315.78 -1.42616 -4.154 0
M  V30 24214 H 2316.39 -2.80024 -3.20104 0
M  V30 24215 N 2314.7 0.951297 -1.25651 0
M  V30 24216 C 2315.93 1.72839 -1.13182 0
M  V30 24217 C 2316.34 1.86529 0.316795 0
M  V30 24218 O 2315.69 1.36492 1.22946 0
M  V30 24219 C 2315.75 3.15875 -1.71649 0
M  V30 24220 C 2315.41 3.25604 -3.20673 0
M  V30 24221 C 2316.41 3.09659 -4.17621 0
M  V30 24222 C 2314.09 3.49318 -3.60946 0
M  V30 24223 C 2316.09 3.1728 -5.52822 0
M  V30 24224 C 2313.77 3.56575 -4.96284 0
M  V30 24225 C 2314.77 3.4057 -5.92031 0
M  V30 24226 O 2314.46 3.47516 -7.24906 0
M  V30 24227 H 2314.19 0.548303 -0.395399 0
M  V30 24228 H 2316.75 1.20184 -1.66568 0
M  V30 24229 H 2314.98 3.69909 -1.12713 0
M  V30 24230 H 2316.67 3.75456 -1.54232 0
M  V30 24231 H 2317.43 2.91204 -3.87847 0
M  V30 24232 H 2313.31 3.60835 -2.86913 0
M  V30 24233 H 2316.85 3.04705 -6.27535 0
M  V30 24234 H 2312.75 3.74547 -5.25723 0
M  V30 24235 H 2313.52 3.64125 -7.33045 0
M  V30 24236 N 2316.18 1.07291 1.1544 0
M  V30 24237 C 2317.43 0.794129 1.85844 0
M  V30 24238 C 2317.75 -0.681776 1.82693 0
M  V30 24239 O 2317.02 -1.49375 1.26744 0
M  V30 24240 H 2315.6 0.290775 0.688083 0
M  V30 24241 H 2318.26 1.35652 1.39945 0
M  V30 24242 H 2317.36 1.12809 2.90999 0
M  V30 24243 N 2317.66 -1.32267 0.856927 0
M  V30 24244 C 2318.59 -2.27715 0.260452 0
M  V30 24245 C 2319.61 -1.52529 -0.56911 0
M  V30 24246 O 2320.79 -1.74115 -0.39323 0
M  V30 24247 C 2317.89 -3.326 -0.650419 0
M  V30 24248 C 2317.07 -4.37164 0.143797 0
M  V30 24249 C 2316.13 -5.21614 -0.693188 0
M  V30 24250 O 2315.15 -5.69061 -0.12589 0
M  V30 24251 N 2316.35 -5.44682 -2.00752 0
M  V30 24252 H 2319.12 -2.7954 1.08063 0
M  V30 24253 H 2316.68 -1.45151 0.717129 0
M  V30 24254 H 2318.67 -3.86007 -1.21574 0
M  V30 24255 H 2317.24 -2.80917 -1.37128 0
M  V30 24256 H 2316.46 -3.84009 0.890553 0
M  V30 24257 H 2317.75 -5.0411 0.689238 0
M  V30 24258 H 2317.15 -5.07868 -2.49172 0
M  V30 24259 H 2315.71 -6.01076 -2.52092 0
M  V30 24260 N 2319.14 -0.615084 -1.45102 0
M  V30 24261 C 2320.07 0.13758 -2.28787 0
M  V30 24262 C 2321.08 0.8245 -1.40377 0
M  V30 24263 O 2322.27 0.688633 -1.64682 0
M  V30 24264 C 2319.37 1.21623 -3.16324 0
M  V30 24265 C 2318.55 0.614963 -4.33055 0
M  V30 24266 C 2317.6 1.58547 -5.01746 0
M  V30 24267 O 2316.63 1.10885 -5.58295 0
M  V30 24268 N 2317.83 2.9199 -5.01719 0
M  V30 24269 H 2320.6 -0.580535 -2.94024 0
M  V30 24270 H 2318.16 -0.455097 -1.55372 0
M  V30 24271 H 2320.15 1.86545 -3.59142 0
M  V30 24272 H 2318.72 1.83677 -2.52946 0
M  V30 24273 H 2317.94 -0.212519 -3.93627 0
M  V30 24274 H 2319.23 0.193615 -5.08431 0
M  V30 24275 H 2318.63 3.33308 -4.5708 0
M  V30 24276 H 2317.18 3.52315 -5.48377 0
M  V30 24277 N 2320.62 1.53557 -0.354678 0
M  V30 24278 C 2321.86 2.01092 0.238408 0
M  V30 24279 C 2322.19 1.24225 1.49661 0
M  V30 24280 O 2321.45 0.321037 1.93049 0
M  V30 24281 C 2321.75 3.52546 0.587059 0
M  V30 24282 C 2321.41 4.47212 -0.57555 0
M  V30 24283 C 2320.07 4.72811 -0.89458 0
M  V30 24284 C 2322.43 5.03279 -1.35498 0
M  V30 24285 C 2319.75 5.51732 -1.99521 0
M  V30 24286 C 2322.11 5.83401 -2.44593 0
M  V30 24287 C 2320.77 6.07292 -2.77044 0
M  V30 24288 H 2320.04 0.735847 0.0872397 0
M  V30 24289 H 2322.69 1.85259 -0.484892 0
M  V30 24290 H 2320.99 3.66268 1.39123 0
M  V30 24291 H 2322.69 3.86791 1.05802 0
M  V30 24292 H 2319.28 4.27427 -0.316849 0
M  V30 24293 H 2323.46 4.83457 -1.12176 0
M  V30 24294 H 2318.72 5.68465 -2.25073 0
M  V30 24295 H 2322.89 6.25857 -3.05412 0
M  V30 24296 H 2320.52 6.68231 -3.62452 0
M  V30 24297 N 2322.1 0.083568 1.57378 0
M  V30 24298 C 2323.34 -0.581684 1.93548 0
M  V30 24299 C 2323.66 -1.69433 0.96527 0
M  V30 24300 O 2322.93 -1.95894 0.0153713 0
M  V30 24301 H 2321.51 -0.217861 0.714525 0
M  V30 24302 H 2324.18 0.144192 1.94366 0
M  V30 24303 H 2323.27 -0.999371 2.95667 0
M  V30 24304 N 2323.57 -1.5645 -0.190064 0
M  V30 24305 C 2324.98 -1.70785 -0.754282 0
M  V30 24306 C 2325.34 -0.690984 -1.8363 0
M  V30 24307 O 2324.46 0.151566 -2.15869 0
M  V30 24308 C 2325.06 -3.09645 -1.37497 0
M  V30 24309 C 2323.61 -3.25728 -1.88622 0
M  V30 24310 C 2322.76 -2.66737 -0.758051 0
M  V30 24311 H 2325.71 -1.58661 0.0350803 0
M  V30 24312 H 2325.73 -3.07254 -2.24444 0
M  V30 24313 H 2325.25 -3.83632 -0.587234 0
M  V30 24314 H 2323.35 -2.56666 -2.70099 0
M  V30 24315 H 2323.46 -4.33284 -2.04455 0
M  V30 24316 H 2321.82 -2.26048 -1.17365 0
M  V30 24317 H 2322.61 -3.43296 0.0175308 0
M  V30 24318 N 2325.05 0.45796 -1.50799 0
M  V30 24319 C 2326.28 1.23201 -1.6622 0
M  V30 24320 C 2326.69 1.8551 -0.350926 0
M  V30 24321 O 2326.05 1.69815 0.668517 0
M  V30 24322 C 2326.1 2.33116 -2.76295 0
M  V30 24323 O 2325.82 1.73359 -4.02341 0
M  V30 24324 C 2327.32 3.23765 -3.02805 0
M  V30 24325 H 2324.54 0.372111 -0.558367 0
M  V30 24326 H 2327.09 0.545145 -1.971 0
M  V30 24327 H 2325.24 2.97554 -2.48073 0
M  V30 24328 H 2325.66 2.45842 -4.63316 0
M  V30 24329 H 2327.13 3.9707 -3.83457 0
M  V30 24330 H 2327.61 3.83318 -2.14392 0
M  V30 24331 H 2328.21 2.6505 -3.32609 0
M  V30 24332 N 2326.53 1.40598 0.712035 0
M  V30 24333 C 2327.76 1.42184 1.49891 0
M  V30 24334 C 2328.17 0.020841 1.89189 0
M  V30 24335 O 2327.51 -0.966409 1.56225 0
M  V30 24336 C 2327.57 2.25216 2.80211 0
M  V30 24337 C 2327.24 3.73587 2.63215 0
M  V30 24338 C 2328.23 4.66139 2.3024 0
M  V30 24339 C 2325.92 4.17443 2.79369 0
M  V30 24340 C 2327.91 6.00532 2.13634 0
M  V30 24341 C 2325.6 5.51906 2.6238 0
M  V30 24342 C 2326.6 6.43266 2.29561 0
M  V30 24343 O 2326.29 7.75249 2.12705 0
M  V30 24344 H 2326.02 0.48682 0.469023 0
M  V30 24345 H 2328.57 1.85327 0.885608 0
M  V30 24346 H 2326.8 1.76858 3.43887 0
M  V30 24347 H 2328.49 2.187 3.41943 0
M  V30 24348 H 2329.26 4.33551 2.1739 0
M  V30 24349 H 2325.14 3.46649 3.039 0
M  V30 24350 H 2328.68 6.71807 1.87941 0
M  V30 24351 H 2324.58 5.84077 2.74816 0
M  V30 24352 H 2325.34 7.8622 2.27598 0
M  V30 24353 N 2328.01 -0.94462 1.26153 0
M  V30 24354 C 2328.94 -2.06017 1.09906 0
M  V30 24355 C 2329.92 -1.70099 0.00522528 0
M  V30 24356 O 2331.1 -1.93395 0.176617 0
M  V30 24357 C 2328.23 -3.39592 0.727622 0
M  V30 24358 C 2327.19 -3.89558 1.77281 0
M  V30 24359 C 2326.51 -5.19744 1.25578 0
M  V30 24360 C 2327.81 -4.14822 3.17365 0
M  V30 24361 H 2329.51 -2.19868 2.03221 0
M  V30 24362 H 2327.05 -1.0565 0.97847 0
M  V30 24363 H 2329.01 -4.17094 0.60085 0
M  V30 24364 H 2327.73 -3.25708 -0.241229 0
M  V30 24365 H 2326.39 -3.14234 1.88819 0
M  V30 24366 H 2326.04 -5.02237 0.276872 0
M  V30 24367 H 2325.74 -5.54144 1.95443 0
M  V30 24368 H 2327.26 -5.99833 1.14161 0
M  V30 24369 H 2328.68 -4.82949 3.08923 0
M  V30 24370 H 2327.07 -4.60497 3.84789 0
M  V30 24371 H 2328.14 -3.20728 3.63678 0
M  V30 24372 N 2329.49 -1.07901 -1.1487 0
M  V30 24373 C 2330.76 -0.718482 -1.81926 0
M  V30 24374 C 2331.14 0.798421 -1.95419 0
M  V30 24375 O 2330.49 1.71497 -1.51 0
M  V30 24376 C 2330.7 -1.43941 -3.17934 0
M  V30 24377 C 2332.05 -1.59513 -3.93498 0
M  V30 24378 O 2333.07 -1.40064 -3.27507 0
M  V30 24379 O 2331.93 -1.9156 -5.11827 0
M  V30 24380 H 2329.03 -0.256319 -0.786276 0
M  V30 24381 H 2331.57 -1.18028 -1.21932 0
M  V30 24382 H 2330.34 -2.47301 -3.03246 0
M  V30 24383 H 2329.97 -0.968755 -3.85618 0
M  V30 24384 N 2330.96 1.31811 -0.863929 0
M  V30 24385 C 2332.21 1.96536 -0.470938 0
M  V30 24386 C 2332.53 1.68658 0.978741 0
M  V30 24387 O 2331.8 0.998746 1.68529 0
M  V30 24388 H 2330.38 0.727127 -0.171161 0
M  V30 24389 H 2333.04 1.60727 -1.10239 0
M  V30 24390 H 2332.14 3.05805 -0.62367 0
M  V30 24391 N 2332.44 0.62277 1.44773 0
M  V30 24392 C 2333.4 -0.0773612 2.29069 0
M  V30 24393 C 2334.4 -0.780437 1.40591 0
M  V30 24394 O 2335.59 -0.626293 1.62552 0
M  V30 24395 C 2332.73 -1.12 3.21976 0
M  V30 24396 H 2333.92 0.663952 2.92458 0
M  V30 24397 H 2331.47 0.382512 1.51547 0
M  V30 24398 H 2332.21 -1.89157 2.6342 0
M  V30 24399 H 2331.99 -0.619883 3.87169 0
M  V30 24400 H 2333.48 -1.60988 3.85321 0
M  V30 24401 N 2333.92 -1.53367 0.362817 0
M  V30 24402 C 2335.2 -1.93527 -0.283987 0
M  V30 24403 C 2335.58 -1.29611 -1.66626 0
M  V30 24404 O 2334.92 -0.454169 -2.23941 0
M  V30 24405 C 2335.13 -3.47369 -0.336967 0
M  V30 24406 C 2336.48 -4.20639 -0.578634 0
M  V30 24407 O 2337.51 -3.53735 -0.41829 0
M  V30 24408 O 2336.37 -5.39194 -0.890645 0
M  V30 24409 H 2333.46 -0.809396 -0.169729 0
M  V30 24410 H 2336.01 -1.64537 0.415399 0
M  V30 24411 H 2334.78 -3.86158 0.632285 0
M  V30 24412 H 2334.4 -3.82584 -1.08236 0
M  V30 24413 N 2335.4 -0.091913 -1.57332 0
M  V30 24414 C 2336.64 0.573391 -1.94525 0
M  V30 24415 C 2336.98 1.68031 -0.973607 0
M  V30 24416 O 2336.25 1.94499 -0.00612645 0
M  V30 24417 C 2336.54 1.13155 -3.4186 0
M  V30 24418 C 2336.39 0.0298956 -4.4979 0
M  V30 24419 C 2337.71 2.03091 -3.90438 0
M  V30 24420 H 2334.83 0.206963 -0.707344 0
M  V30 24421 H 2337.47 -0.161975 -1.89308 0
M  V30 24422 H 2335.62 1.75824 -3.46436 0
M  V30 24423 H 2337.29 -0.604193 -4.57326 0
M  V30 24424 H 2335.53 -0.636909 -4.29099 0
M  V30 24425 H 2336.2 0.46119 -5.5007 0
M  V30 24426 H 2338.68 1.50331 -3.87995 0
M  V30 24427 H 2337.56 2.39072 -4.94101 0
M  V30 24428 H 2337.82 2.94707 -3.29546 0
M  V30 24429 N 2336.88 1.56548 0.181765 0
M  V30 24430 C 2338.1 1.85523 0.915914 0
M  V30 24431 C 2338.52 0.676047 1.76281 0
M  V30 24432 O 2337.88 -0.355045 1.79013 0
M  V30 24433 C 2337.93 3.13431 1.80121 0
M  V30 24434 O 2337.65 4.26803 0.988487 0
M  V30 24435 C 2339.15 3.55678 2.64591 0
M  V30 24436 H 2336.37 0.615765 0.266599 0
M  V30 24437 H 2338.91 2.03661 0.185004 0
M  V30 24438 H 2337.07 2.97149 2.48558 0
M  V30 24439 H 2337.48 4.99724 1.59299 0
M  V30 24440 H 2338.96 4.48107 3.22342 0
M  V30 24441 H 2339.43 2.79298 3.38953 0
M  V30 24442 H 2340.04 3.74535 2.01503 0
M  V30 24443 N 2338.35 -0.449957 1.5104 0
M  V30 24444 C 2339.3 -1.5452 1.71441 0
M  V30 24445 C 2340.27 -1.56521 0.555899 0
M  V30 24446 O 2341.46 -1.73727 0.788902 0
M  V30 24447 C 2338.6 -2.9234 1.83389 0
M  V30 24448 C 2337.71 -2.99965 3.10878 0
M  V30 24449 C 2336.84 -4.28829 3.13495 0
M  V30 24450 C 2335.88 -4.30274 4.35351 0
M  V30 24451 N 2335.02 -5.50643 4.35588 0
M  V30 24452 H 2339.86 -1.36428 2.64936 0
M  V30 24453 H 2337.4 -0.662959 1.31314 0
M  V30 24454 H 2339.36 -3.7229 1.88298 0
M  V30 24455 H 2337.99 -3.09018 0.93314 0
M  V30 24456 H 2337.04 -2.12755 3.1534 0
M  V30 24457 H 2338.35 -2.96893 4.00819 0
M  V30 24458 H 2337.5 -5.17143 3.1725 0
M  V30 24459 H 2336.24 -4.34539 2.21421 0
M  V30 24460 H 2335.25 -3.40354 4.31786 0
M  V30 24461 H 2336.47 -4.26239 5.28675 0
M  V30 24462 H 2334.42 -5.57098 3.46378 0
M  V30 24463 H 2334.34 -5.494 5.19323 0
M  V30 24464 H 2335.6 -6.41024 4.43518 0
M  V30 24465 N 2339.83 -1.40974 -0.704569 0
M  V30 24466 C 2341.08 -1.39148 -1.46016 0
M  V30 24467 C 2341.39 -0.000623636 -1.956 0
M  V30 24468 O 2342.6 0.140252 -2.71138 0
M  V30 24469 C 2341.06 -2.44615 -2.63992 0
M  V30 24470 C 2340.66 -3.89565 -2.21231 0
M  V30 24471 C 2342.41 -2.51913 -3.41673 0
M  V30 24472 C 2340.32 -4.86603 -3.36112 0
M  V30 24473 H 2339.25 -0.517431 -0.548435 0
M  V30 24474 H 2341.9 -1.66759 -0.765754 0
M  V30 24475 H 2340.28 -2.10121 -3.35656 0
M  V30 24476 H 2341.45 -4.3326 -1.56915 0
M  V30 24477 H 2339.77 -3.85844 -1.56567 0
M  V30 24478 H 2342.36 -3.21597 -4.27176 0
M  V30 24479 H 2342.71 -1.5531 -3.86244 0
M  V30 24480 H 2343.24 -2.85453 -2.77059 0
M  V30 24481 H 2339.98 -5.84578 -2.96562 0
M  V30 24482 H 2339.5 -4.47564 -3.99307 0
M  V30 24483 H 2341.18 -5.06941 -4.0202 0
M  V30 24484 N 2341.31 0.937917 -1.26653 0
M  V30 24485 C 2342.26 2.0371 -1.08493 0
M  V30 24486 C 2343.23 1.66096 0.0110038 0
M  V30 24487 O 2344.41 1.90214 -0.149387 0
M  V30 24488 C 2341.55 3.37347 -0.72741 0
M  V30 24489 C 2340.67 3.87978 -1.89993 0
M  V30 24490 C 2339.8 5.10014 -1.48522 0
M  V30 24491 C 2338.84 5.52915 -2.62585 0
M  V30 24492 N 2337.98 6.66154 -2.21773 0
M  V30 24493 H 2342.82 2.18576 -2.02555 0
M  V30 24494 H 2340.35 1.07091 -1.00846 0
M  V30 24495 H 2342.31 4.14181 -0.500993 0
M  V30 24496 H 2340.94 3.22319 0.176241 0
M  V30 24497 H 2339.99 3.07514 -2.23919 0
M  V30 24498 H 2341.31 4.15752 -2.75593 0
M  V30 24499 H 2340.46 5.94318 -1.21945 0
M  V30 24500 H 2339.2 4.83993 -0.600175 0
M  V30 24501 H 2338.2 4.67167 -2.89889 0
M  V30 24502 H 2339.43 5.80937 -3.51695 0
M  V30 24503 H 2337.37 6.4181 -1.35707 0
M  V30 24504 H 2337.29 6.93532 -3.00915 0
M  V30 24505 H 2338.56 7.53824 -1.98416 0
M  V30 24506 N 2342.79 1.08509 1.14296 0
M  V30 24507 C 2344.2 0.836257 1.66924 0
M  V30 24508 C 2344.55 -0.636828 1.85577 0
M  V30 24509 O 2343.68 -1.49172 1.5677 0
M  V30 24510 C 2344.27 1.51147 3.03216 0
M  V30 24511 C 2342.83 1.30985 3.52874 0
M  V30 24512 C 2341.98 1.5736 2.28327 0
M  V30 24513 H 2344.93 1.24553 0.983469 0
M  V30 24514 H 2344.95 0.939276 3.68725 0
M  V30 24515 H 2344.46 2.58358 2.89608 0
M  V30 24516 H 2342.56 0.258494 3.71702 0
M  V30 24517 H 2342.67 2.03821 4.33582 0
M  V30 24518 H 2341.04 0.995206 2.34452 0
M  V30 24519 H 2341.82 2.65779 2.17294 0
M  V30 24520 N 2344.27 -1.31351 0.870907 0
M  V30 24521 C 2345.22 -2.26032 0.298929 0
M  V30 24522 C 2346.2 -1.5067 -0.564568 0
M  V30 24523 O 2347.39 -1.72155 -0.411292 0
M  V30 24524 C 2344.52 -3.39672 -0.497782 0
M  V30 24525 C 2343.61 -4.22403 0.379011 0
M  V30 24526 N 2344 -4.83879 1.47292 0
M  V30 24527 C 2342.3 -4.4567 0.171613 0
M  V30 24528 C 2343 -5.45734 2.01368 0
M  V30 24529 N 2341.97 -5.27565 1.31056 0
M  V30 24530 H 2345.78 -2.711 1.13499 0
M  V30 24531 H 2343.29 -1.45628 0.71877 0
M  V30 24532 H 2345.29 -4.0653 -0.924083 0
M  V30 24533 H 2343.95 -2.96146 -1.33144 0
M  V30 24534 H 2344.96 -4.83507 1.85584 0
M  V30 24535 H 2341.63 -4.1278 -0.626018 0
M  V30 24536 H 2343.02 -6.04575 2.93153 0
M  V30 24537 N 2345.74 -0.630439 -1.44441 0
M  V30 24538 C 2346.99 -0.134852 -2.02351 0
M  V30 24539 C 2347.32 1.23983 -1.49472 0
M  V30 24540 O 2346.6 1.82281 -0.678507 0
M  V30 24541 C 2346.88 -0.12077 -3.59897 0
M  V30 24542 C 2346.73 -1.52774 -4.2306 0
M  V30 24543 C 2348.05 0.55505 -4.36586 0
M  V30 24544 H 2345.17 -0.0504775 -0.735269 0
M  V30 24545 H 2347.81 -0.806781 -1.7202 0
M  V30 24546 H 2345.96 0.451409 -3.85869 0
M  V30 24547 H 2347.64 -2.14876 -4.08199 0
M  V30 24548 H 2345.88 -2.08182 -3.80582 0
M  V30 24549 H 2346.55 -1.46993 -5.32069 0
M  V30 24550 H 2349.03 0.0684697 -4.16044 0
M  V30 24551 H 2347.9 0.534089 -5.46295 0
M  V30 24552 H 2348.16 1.62528 -4.11141 0
M  V30 24553 N 2347.22 1.53172 -0.370945 0
M  V30 24554 C 2348.17 2.27422 0.488061 0
M  V30 24555 C 2349.16 1.30606 1.07882 0
M  V30 24556 O 2350.37 1.48214 1.0214 0
M  V30 24557 H 2346.75 0.731085 0.176121 0
M  V30 24558 H 2348.72 2.97971 -0.159867 0
M  V30 24559 C 2347.47 3.08022 1.613 0
M  V30 24560 H 2346.79 3.82366 1.16773 0
M  V30 24561 H 2348.23 3.63144 2.18866 0
M  V30 24562 C 2346.69 2.19193 2.55844 0
M  V30 24563 O 2347.22 1.80633 3.58796 0
M  V30 24564 N 2345.42 1.83719 2.25157 0
M  V30 24565 H 2344.97 2.15275 1.41472 0
M  V30 24566 H 2344.93 1.24572 2.88668 0
M  V30 24567 N 2348.7 0.100255 1.57281 0
M  V30 24568 C 2349.65 -0.867553 2.1085 0
M  V30 24569 C 2350.63 -1.24047 1.02475 0
M  V30 24570 O 2351.83 -1.21469 1.28741 0
M  V30 24571 C 2348.96 -2.12469 2.69651 0
M  V30 24572 C 2348.04 -1.77698 3.85077 0
M  V30 24573 N 2348.43 -1.13509 4.92899 0
M  V30 24574 C 2346.73 -2.07275 3.94909 0
M  V30 24575 C 2347.43 -0.974634 5.73477 0
M  V30 24576 N 2346.41 -1.49361 5.22678 0
M  V30 24577 H 2350.21 -0.36742 2.91594 0
M  V30 24578 H 2347.72 -0.102801 1.62074 0
M  V30 24579 H 2349.72 -2.82752 3.06361 0
M  V30 24580 H 2348.38 -2.63043 1.90364 0
M  V30 24581 H 2349.39 -0.801291 5.11664 0
M  V30 24582 H 2346.07 -2.60028 3.26637 0
M  V30 24583 H 2347.46 -0.472246 6.70238 0
M  V30 24584 N 2350.18 -1.56643 -0.17346 0
M  V30 24585 C 2351.09 -1.99475 -1.23479 0
M  V30 24586 C 2352.11 -0.905778 -1.48565 0
M  V30 24587 O 2353.28 -1.21324 -1.60756 0
M  V30 24588 C 2350.35 -2.34417 -2.5544 0
M  V30 24589 C 2349.41 -3.57131 -2.38234 0
M  V30 24590 C 2348.64 -3.90398 -3.63903 0
M  V30 24591 O 2348.86 -3.24661 -4.6899 0
M  V30 24592 O 2347.8 -4.83755 -3.58141 0
M  V30 24593 H 2351.62 -2.9002 -0.901228 0
M  V30 24594 H 2349.21 -1.44482 -0.38016 0
M  V30 24595 H 2351.09 -2.57871 -3.33287 0
M  V30 24596 H 2349.77 -1.47035 -2.88379 0
M  V30 24597 H 2348.67 -3.38899 -1.58425 0
M  V30 24598 H 2350.01 -4.45049 -2.1022 0
M  V30 24599 N 2351.66 0.44194 -1.51277 0
M  V30 24600 C 2352.91 1.1894 -1.63394 0
M  V30 24601 C 2353.23 1.9183 -0.350193 0
M  V30 24602 O 2352.5 1.85366 0.633752 0
M  V30 24603 H 2351.08 0.442039 -0.602172 0
M  V30 24604 H 2353.74 0.507132 -1.88187 0
M  V30 24605 H 2352.83 1.92149 -2.45937 0
M  V30 24606 N 2353.14 1.41345 0.697083 0
M  V30 24607 C 2354.08 1.43074 1.81103 0
M  V30 24608 C 2355.05 0.285303 1.63631 0
M  V30 24609 O 2356.24 0.486124 1.84503 0
M  V30 24610 C 2353.38 1.31721 3.18973 0
M  V30 24611 C 2352.49 2.56121 3.47888 0
M  V30 24612 C 2351.63 2.37072 4.75363 0
M  V30 24613 C 2350.66 3.56957 4.97241 0
M  V30 24614 N 2349.8 3.36988 6.15941 0
M  V30 24615 H 2354.64 2.3828 1.7896 0
M  V30 24616 H 2352.18 1.18324 0.873954 0
M  V30 24617 H 2354.14 1.2314 3.98613 0
M  V30 24618 H 2352.77 0.40124 3.20297 0
M  V30 24619 H 2351.82 2.75157 2.62665 0
M  V30 24620 H 2353.13 3.45301 3.59956 0
M  V30 24621 H 2352.28 2.25951 5.63055 0
M  V30 24622 H 2351.02 1.45346 4.65538 0
M  V30 24623 H 2350.03 3.68535 4.07998 0
M  V30 24624 H 2351.25 4.49634 5.08926 0
M  V30 24625 H 2349.2 2.4796 6.07332 0
M  V30 24626 H 2349.12 4.19743 6.2877 0
M  V30 24627 H 2350.38 3.29636 7.06371 0
M  V30 24628 N 2354.61 -0.931187 1.27148 0
M  V30 24629 C 2355.84 -1.71265 1.16085 0
M  V30 24630 C 2356.26 -1.86671 -0.282739 0
M  V30 24631 O 2355.61 -1.38124 -1.19281 0
M  V30 24632 C 2355.66 -3.11414 1.83585 0
M  V30 24633 O 2355.39 -2.96735 3.22304 0
M  V30 24634 C 2356.89 -4.05729 1.78604 0
M  V30 24635 H 2354.11 -0.535922 0.403768 0
M  V30 24636 H 2356.65 -1.16668 1.67955 0
M  V30 24637 H 2354.81 -3.62882 1.35629 0
M  V30 24638 H 2355.22 -3.85312 3.55858 0
M  V30 24639 H 2356.69 -5.01593 2.30453 0
M  V30 24640 H 2357.17 -4.32668 0.75464 0
M  V30 24641 H 2357.78 -3.60184 2.26158 0
M  V30 24642 N 2356.09 -1.09114 -1.13719 0
M  V30 24643 C 2357.34 -0.825224 -1.84922 0
M  V30 24644 C 2357.67 0.649119 -1.83349 0
M  V30 24645 O 2356.92 1.4936 -1.26452 0
M  V30 24646 C 2357.22 -1.30152 -3.32859 0
M  V30 24647 C 2356.89 -2.78493 -3.54616 0
M  V30 24648 C 2355.55 -3.19005 -3.60263 0
M  V30 24649 C 2357.9 -3.74153 -3.62849 0
M  V30 24650 C 2355.23 -4.53957 -3.71671 0
M  V30 24651 C 2357.58 -5.0889 -3.75785 0
M  V30 24652 C 2356.24 -5.48997 -3.79682 0
M  V30 24653 H 2355.51 -0.301971 -0.676679 0
M  V30 24654 H 2358.16 -1.36535 -1.34277 0
M  V30 24655 H 2356.47 -0.681132 -3.85834 0
M  V30 24656 H 2358.16 -1.07243 -3.86393 0
M  V30 24657 H 2354.75 -2.4614 -3.50875 0
M  V30 24658 H 2358.94 -3.43969 -3.57769 0
M  V30 24659 H 2354.19 -4.84474 -3.72954 0
M  V30 24660 H 2358.37 -5.8287 -3.81097 0
M  V30 24661 H 2355.99 -6.53564 -3.88275 0
M  V30 24662 N 2357.57 1.30887 -0.877861 0
M  V30 24663 C 2358.82 1.96414 -0.492731 0
M  V30 24664 C 2359.14 1.69348 0.956641 0
M  V30 24665 O 2358.4 0.986943 1.68991 0
M  V30 24666 C 2358.7 3.50361 -0.705809 0
M  V30 24667 C 2358.36 3.97463 -2.12917 0
M  V30 24668 C 2357.03 4.10036 -2.51842 0
M  V30 24669 C 2359.38 4.22127 -3.05709 0
M  V30 24670 C 2356.71 4.44628 -3.82783 0
M  V30 24671 C 2359.06 4.58186 -4.36174 0
M  V30 24672 C 2357.72 4.68967 -4.75002 0
M  V30 24673 H 2356.99 0.718729 -0.180303 0
M  V30 24674 H 2359.64 1.55881 -1.11236 0
M  V30 24675 H 2357.94 3.918 -0.00309945 0
M  V30 24676 H 2359.64 3.99123 -0.387526 0
M  V30 24677 H 2356.23 3.88179 -1.81701 0
M  V30 24678 H 2360.42 4.11901 -2.7686 0
M  V30 24679 H 2355.67 4.51173 -4.12617 0
M  V30 24680 H 2359.85 4.76222 -5.08119 0
M  V30 24681 H 2357.47 4.95527 -5.76504 0
M  V30 24682 N 2359.05 0.638091 1.44105 0
M  V30 24683 C 2360.29 0.145581 2.02277 0
M  V30 24684 C 2360.63 -1.23189 1.50127 0
M  V30 24685 O 2359.9 -1.81919 0.688165 0
M  V30 24686 C 2360.18 0.139854 3.59828 0
M  V30 24687 C 2360.04 1.55016 4.22244 0
M  V30 24688 C 2361.36 -0.531889 4.36874 0
M  V30 24689 H 2358.48 0.0543761 0.734991 0
M  V30 24690 H 2361.12 0.815893 1.7159 0
M  V30 24691 H 2359.27 -0.430939 3.86103 0
M  V30 24692 H 2360.94 2.17038 4.07053 0
M  V30 24693 H 2359.18 2.10197 3.79473 0
M  V30 24694 H 2359.85 1.49813 5.31282 0
M  V30 24695 H 2362.33 -0.046405 4.16074 0
M  V30 24696 H 2361.21 -0.50511 5.46571 0
M  V30 24697 H 2361.47 -1.60345 4.11997 0
M  V30 24698 N 2360.53 -1.52973 0.379063 0
M  V30 24699 C 2361.46 -2.2907 -0.452665 0
M  V30 24700 C 2362.44 -1.32041 -1.07235 0
M  V30 24701 O 2363.62 -1.60925 -1.08705 0
M  V30 24702 C 2360.75 -3.08995 -1.58554 0
M  V30 24703 C 2359.71 -4.13824 -1.09243 0
M  V30 24704 C 2359.03 -4.81911 -2.31659 0
M  V30 24705 C 2360.33 -5.22031 -0.16761 0
M  V30 24706 H 2362.03 -2.98845 0.182233 0
M  V30 24707 H 2359.57 -1.43724 0.0890845 0
M  V30 24708 H 2361.52 -3.60983 -2.17414 0
M  V30 24709 H 2360.25 -2.36935 -2.24788 0
M  V30 24710 H 2358.91 -3.62801 -0.526431 0
M  V30 24711 H 2358.56 -4.06409 -2.96379 0
M  V30 24712 H 2358.26 -5.52758 -1.9933 0
M  V30 24713 H 2359.78 -5.367 -2.9118 0
M  V30 24714 H 2361.19 -5.69441 -0.664086 0
M  V30 24715 H 2359.59 -6.00064 0.065432 0
M  V30 24716 H 2360.66 -4.7848 0.786431 0
M  V30 24717 N 2362 -0.108595 -1.57225 0
M  V30 24718 C 2363.41 0.418432 -1.81951 0
M  V30 24719 C 2363.77 1.6729 -1.0251 0
M  V30 24720 O 2362.89 2.1485 -0.258534 0
M  V30 24721 C 2363.49 0.765921 -3.30029 0
M  V30 24722 C 2362.04 1.23763 -3.55471 0
M  V30 24723 C 2361.19 0.241057 -2.7625 0
M  V30 24724 H 2364.14 -0.333868 -1.55148 0
M  V30 24725 H 2364.16 1.62428 -3.44089 0
M  V30 24726 H 2363.68 -0.147288 -3.8782 0
M  V30 24727 H 2361.78 2.16809 -3.03026 0
M  V30 24728 H 2361.89 1.19014 -4.64082 0
M  V30 24729 H 2360.25 0.725977 -2.44135 0
M  V30 24730 H 2361.04 -0.665066 -3.36796 0
M  V30 24731 N 2363.48 1.56732 0.16515 0
M  V30 24732 C 2364.71 1.86844 0.90022 0
M  V30 24733 C 2365.13 0.695627 1.74765 0
M  V30 24734 O 2364.49 -0.355188 1.77787 0
M  V30 24735 C 2364.54 3.15416 1.74771 0
M  V30 24736 O 2363.64 2.98073 2.85002 0
M  V30 24737 H 2362.98 0.614396 0.251821 0
M  V30 24738 H 2365.51 2.03962 0.161433 0
M  V30 24739 H 2365.52 3.46978 2.1464 0
M  V30 24740 H 2364.2 4.00387 1.12529 0
M  V30 24741 H 2362.77 2.7788 2.48671 0
M  V30 24742 N 2364.96 -0.433911 1.51509 0
M  V30 24743 C 2366.24 -1.1945 1.5489 0
M  V30 24744 C 2366.62 -2.08734 0.315191 0
M  V30 24745 O 2365.97 -2.17529 -0.69952 0
M  V30 24746 C 2366.18 -1.99337 2.86471 0
M  V30 24747 C 2367.52 -2.56261 3.38549 0
M  V30 24748 O 2368.55 -2.09544 2.88044 0
M  V30 24749 O 2367.41 -3.41475 4.26681 0
M  V30 24750 H 2364.5 -0.544021 0.622872 0
M  V30 24751 H 2367.05 -0.442703 1.63824 0
M  V30 24752 H 2365.82 -1.33782 3.6772 0
M  V30 24753 H 2365.44 -2.81575 2.80715 0
M  V30 24754 N 2366.44 -1.41713 -0.689577 0
M  V30 24755 C 2367.72 -1.3188 -1.44454 0
M  V30 24756 C 2368.1 0.0508166 -2.11039 0
M  V30 24757 O 2367.44 1.06544 -2.0214 0
M  V30 24758 C 2367.65 -2.47649 -2.45908 0
M  V30 24759 C 2369 -2.8909 -3.10986 0
M  V30 24760 O 2370.03 -2.47432 -2.56234 0
M  V30 24761 O 2368.88 -3.61144 -4.10167 0
M  V30 24762 H 2365.98 -0.51932 -0.643611 0
M  V30 24763 H 2368.52 -1.5369 -0.719549 0
M  V30 24764 H 2367.3 -3.39018 -1.95403 0
M  V30 24765 H 2366.92 -2.27748 -3.25909 0
M  V30 24766 N 2367.92 0.924431 -1.2764 0
M  V30 24767 C 2369.14 1.70647 -1.16992 0
M  V30 24768 C 2369.56 1.86818 0.272836 0
M  V30 24769 O 2368.92 1.38755 1.18546 0
M  V30 24770 C 2368.97 3.10436 -1.85234 0
M  V30 24771 O 2368.69 2.95022 -3.23873 0
M  V30 24772 C 2370.19 4.04776 -1.80753 0
M  V30 24773 H 2367.41 0.533773 -0.406604 0
M  V30 24774 H 2369.95 1.15775 -1.68571 0
M  V30 24775 H 2368.11 3.62158 -1.37551 0
M  V30 24776 H 2368.52 3.8342 -3.57896 0
M  V30 24777 H 2370 5.00364 -2.3311 0
M  V30 24778 H 2370.47 4.32262 -0.777575 0
M  V30 24779 H 2371.08 3.5898 -2.28065 0
M  V30 24780 N 2369.39 1.09715 1.13139 0
M  V30 24781 C 2370.32 0.761141 2.20746 0
M  V30 24782 C 2371.31 -0.262537 1.68062 0
M  V30 24783 O 2372.49 -0.129943 1.93765 0
M  V30 24784 C 2369.62 0.184115 3.46812 0
M  V30 24785 C 2368.57 1.13764 4.12604 0
M  V30 24786 C 2367.9 0.422176 5.33031 0
M  V30 24787 C 2369.2 2.48127 4.59598 0
M  V30 24788 H 2370.89 1.66086 2.4911 0
M  V30 24789 H 2368.44 0.800008 1.19732 0
M  V30 24790 H 2370.39 -0.0630474 4.21353 0
M  V30 24791 H 2369.12 -0.750812 3.17853 0
M  V30 24792 H 2367.78 1.37013 3.40034 0
M  V30 24793 H 2367.42 -0.516984 5.00336 0
M  V30 24794 H 2367.12 1.05798 5.77997 0
M  V30 24795 H 2368.65 0.183385 6.10325 0
M  V30 24796 H 2370.06 2.29068 5.25548 0
M  V30 24797 H 2368.46 3.07523 5.15315 0
M  V30 24798 H 2369.53 3.08671 3.73965 0
M  V30 24799 N 2370.87 -1.30419 0.88479 0
M  V30 24800 C 2372.29 -1.48736 0.578766 0
M  V30 24801 C 2372.49 -1.81096 -0.883535 0
M  V30 24802 O 2371.54 -1.89847 -1.66477 0
M  V30 24803 C 2372.86 -2.61088 1.49175 0
M  V30 24804 C 2374.41 -2.74969 1.49536 0
M  V30 24805 C 2374.88 -3.90434 2.39428 0
M  V30 24806 N 2376.37 -3.97744 2.3739 0
M  V30 24807 C 2377.11 -4.86396 3.03656 0
M  V30 24808 N 2376.6 -5.79845 3.79146 0
M  V30 24809 N 2378.4 -4.79763 2.92889 0
M  V30 24810 H 2370.55 -1.07687 1.83077 0
M  V30 24811 H 2372.81 -0.533482 0.783646 0
M  V30 24812 H 2372.52 -2.43997 2.53295 0
M  V30 24813 H 2372.39 -3.57563 1.20119 0
M  V30 24814 H 2374.78 -2.91466 0.461681 0
M  V30 24815 H 2374.86 -1.79116 1.82623 0
M  V30 24816 H 2374.5 -3.74693 3.42881 0
M  V30 24817 H 2374.43 -4.85625 2.03658 0
M  V30 24818 H 2376.92 -3.30894 1.82531 0
M  V30 24819 H 2377.24 -6.44252 4.268 0
M  V30 24820 H 2375.58 -5.79777 3.83254 0
M  V30 24821 H 2378.77 -4.05738 2.3344 0
M  V30 24822 H 2378.94 -5.48644 3.44809 0
M  V30 24823 N 2372.35 -0.645724 -1.43764 0
M  V30 24824 C 2373.58 -0.16192 -2.06767 0
M  V30 24825 C 2374 1.16047 -1.48037 0
M  V30 24826 O 2373.36 1.71521 -0.587399 0
M  V30 24827 C 2373.41 -0.0762636 -3.60519 0
M  V30 24828 O 2372.51 0.96365 -4.00983 0
M  V30 24829 H 2371.85 -0.0914405 -0.657674 0
M  V30 24830 H 2374.38 -0.886531 -1.84396 0
M  V30 24831 H 2374.39 0.109532 -4.07853 0
M  V30 24832 H 2373.07 -1.04164 -4.02644 0
M  V30 24833 H 2371.64 0.751248 -3.65254 0
M  V30 24834 N 2373.83 1.5277 -0.38717 0
M  V30 24835 C 2374.74 2.30118 0.456401 0
M  V30 24836 C 2375.75 1.36946 1.0734 0
M  V30 24837 O 2376.93 1.70015 1.07968 0
M  V30 24838 C 2374 3.09139 1.56952 0
M  V30 24839 C 2373.06 4.18015 0.977842 0
M  V30 24840 C 2372.29 4.93259 2.03791 0
M  V30 24841 O 2372.51 4.68573 3.25263 0
M  V30 24842 O 2371.45 5.7866 1.6564 0
M  V30 24843 H 2375.27 3.03203 -0.173643 0
M  V30 24844 H 2372.86 1.48636 -0.150945 0
M  V30 24845 H 2374.74 3.58416 2.21621 0
M  V30 24846 H 2373.41 2.38869 2.18456 0
M  V30 24847 H 2372.32 3.72939 0.29446 0
M  V30 24848 H 2373.65 4.90514 0.407042 0
M  V30 24849 N 2375.31 0.116931 1.57166 0
M  V30 24850 C 2376.27 -0.819705 2.14041 0
M  V30 24851 C 2377.27 -1.19603 1.07479 0
M  V30 24852 O 2378.46 -1.12188 1.33265 0
M  V30 24853 C 2375.59 -2.10821 2.67894 0
M  V30 24854 H 2376.78 -0.325459 2.98129 0
M  V30 24855 H 2374.34 -0.132285 1.55739 0
M  V30 24856 H 2375.07 -2.64681 1.87388 0
M  V30 24857 H 2374.86 -1.84787 3.45827 0
M  V30 24858 H 2376.35 -2.7778 3.11814 0
M  V30 24859 N 2376.78 -1.56818 -0.156836 0
M  V30 24860 C 2378.03 -1.82807 -0.871093 0
M  V30 24861 C 2378.36 -0.696294 -1.81609 0
M  V30 24862 O 2377.61 0.315425 -1.93141 0
M  V30 24863 C 2377.91 -3.15063 -1.68731 0
M  V30 24864 C 2377.58 -4.4203 -0.889968 0
M  V30 24865 C 2376.24 -4.76513 -0.669958 0
M  V30 24866 C 2378.59 -5.20144 -0.331678 0
M  V30 24867 C 2375.92 -5.86579 0.119207 0
M  V30 24868 C 2378.27 -6.31037 0.444476 0
M  V30 24869 C 2376.94 -6.64077 0.675152 0
M  V30 24870 H 2376.21 -0.668936 -0.318755 0
M  V30 24871 H 2378.85 -1.91022 -0.13524 0
M  V30 24872 H 2377.16 -3.02254 -2.49299 0
M  V30 24873 H 2378.86 -3.32384 -2.24326 0
M  V30 24874 H 2375.45 -4.1499 -1.0715 0
M  V30 24875 H 2379.63 -4.93886 -0.488956 0
M  V30 24876 H 2374.89 -6.10626 0.307525 0
M  V30 24877 H 2379.06 -6.90763 0.884261 0
M  V30 24878 H 2376.69 -7.492 1.28852 0
M  V30 24879 N 2378.26 0.425871 -1.51737 0
M  V30 24880 C 2379.17 1.54272 -1.76741 0
M  V30 24881 C 2380.19 1.61317 -0.652138 0
M  V30 24882 O 2381.36 1.78345 -0.935686 0
M  V30 24883 C 2378.43 2.90159 -1.8976 0
M  V30 24884 C 2377.49 2.93137 -3.13638 0
M  V30 24885 C 2376.72 4.22542 -3.26027 0
M  V30 24886 O 2376.95 5.15541 -2.44076 0
M  V30 24887 O 2375.88 4.32038 -4.19078 0
M  V30 24888 H 2379.71 1.36084 -2.71505 0
M  V30 24889 H 2377.29 0.610045 -1.36377 0
M  V30 24890 H 2379.17 3.70784 -2.00242 0
M  V30 24891 H 2377.85 3.0845 -0.981839 0
M  V30 24892 H 2376.76 2.11425 -3.08626 0
M  V30 24893 H 2378.09 2.79792 -4.04941 0
M  V30 24894 N 2379.74 1.42077 0.682052 0
M  V30 24895 C 2380.97 1.45331 1.46842 0
M  V30 24896 C 2381.38 0.060966 1.89102 0
M  V30 24897 O 2380.72 -0.933054 1.5824 0
M  V30 24898 C 2380.78 2.31109 2.75371 0
M  V30 24899 C 2380.45 3.79086 2.55231 0
M  V30 24900 C 2381.44 4.70918 2.20301 0
M  V30 24901 C 2379.13 4.23275 2.70451 0
M  V30 24902 C 2381.12 6.04929 2.00848 0
M  V30 24903 C 2378.81 5.57347 2.50614 0
M  V30 24904 C 2379.81 6.4799 2.15865 0
M  V30 24905 O 2379.5 7.79587 1.96213 0
M  V30 24906 H 2379.23 0.496659 0.458591 0
M  V30 24907 H 2381.78 1.87164 0.846098 0
M  V30 24908 H 2380.01 1.84113 3.40058 0
M  V30 24909 H 2381.7 2.25904 3.37227 0
M  V30 24910 H 2382.47 4.38065 2.08145 0
M  V30 24911 H 2378.35 3.53017 2.96479 0
M  V30 24912 H 2381.89 6.75642 1.73648 0
M  V30 24913 H 2377.79 5.89775 2.62365 0
M  V30 24914 H 2378.56 7.90871 2.10869 0
M  V30 24915 N 2381.22 -0.917649 1.28129 0
M  V30 24916 C 2382.45 -1.69778 1.17725 0
M  V30 24917 C 2382.86 -1.87303 -0.267228 0
M  V30 24918 O 2382.2 -1.39704 -1.19284 0
M  V30 24919 C 2382.26 -3.11213 1.79964 0
M  V30 24920 C 2381.93 -3.16987 3.29193 0
M  V30 24921 C 2382.92 -2.98477 4.25684 0
M  V30 24922 C 2380.61 -3.39625 3.70081 0
M  V30 24923 C 2382.6 -3.02511 5.6104 0
M  V30 24924 C 2380.29 -3.43291 5.05563 0
M  V30 24925 C 2381.29 -3.24754 6.00853 0
M  V30 24926 O 2380.98 -3.28174 7.33864 0
M  V30 24927 H 2380.71 -0.537627 0.409797 0
M  V30 24928 H 2383.26 -1.15725 1.69696 0
M  V30 24929 H 2381.49 -3.6679 1.22481 0
M  V30 24930 H 2383.18 -3.71235 1.64132 0
M  V30 24931 H 2383.95 -2.80819 3.95431 0
M  V30 24932 H 2379.83 -3.53101 2.96379 0
M  V30 24933 H 2383.37 -2.8796 6.35393 0
M  V30 24934 H 2379.27 -3.60477 5.35469 0
M  V30 24935 H 2380.03 -3.44562 7.42442 0
M  V30 24936 N 2382.7 -1.10314 -1.12555 0
M  V30 24937 C 2383.65 -0.720114 -2.16329 0
M  V30 24938 C 2384.63 0.270087 -1.58617 0
M  V30 24939 O 2385.82 0.0790196 -1.76824 0
M  V30 24940 C 2382.95 -0.152174 -3.42963 0
M  V30 24941 C 2382.04 -1.16934 -4.07661 0
M  V30 24942 N 2382.43 -2.35961 -4.47388 0
M  V30 24943 C 2380.73 -1.00958 -4.34423 0
M  V30 24944 C 2381.43 -3.00738 -4.97927 0
M  V30 24945 N 2380.4 -2.28261 -4.93354 0
M  V30 24946 H 2384.21 -1.6262 -2.4481 0
M  V30 24947 H 2381.72 -0.980677 -1.29447 0
M  V30 24948 H 2383.72 0.140297 -4.16664 0
M  V30 24949 H 2382.38 0.748646 -3.15952 0
M  V30 24950 H 2383.39 -2.73494 -4.39797 0
M  V30 24951 H 2380.07 -0.164208 -4.17177 0
M  V30 24952 H 2381.46 -4.01978 -5.38389 0
M  V30 24953 N 2384.18 1.29948 -0.891694 0
M  V30 24954 C 2385.4 2.00031 -0.528695 0
M  V30 24955 C 2385.82 1.66797 0.884545 0
M  V30 24956 O 2385.18 0.908697 1.58269 0
M  V30 24957 C 2385.23 3.54621 -0.701876 0
M  V30 24958 O 2384.95 3.86674 -2.05948 0
M  V30 24959 C 2386.45 4.41973 -0.342761 0
M  V30 24960 H 2383.67 0.639343 -0.20367 0
M  V30 24961 H 2386.21 1.65675 -1.19884 0
M  V30 24962 H 2384.37 3.87319 -0.0790149 0
M  V30 24963 H 2384.78 4.81364 -2.083 0
M  V30 24964 H 2386.26 5.49594 -0.514806 0
M  V30 24965 H 2386.73 4.33264 0.719674 0
M  V30 24966 H 2387.34 4.14731 -0.942227 0
M  V30 24967 N 2385.65 0.653339 1.4342 0
M  V30 24968 C 2386.58 -0.0246246 2.33487 0
M  V30 24969 C 2387.56 -0.811837 1.49476 0
M  V30 24970 O 2388.75 -0.773291 1.7814 0
M  V30 24971 C 2385.88 -0.991601 3.32843 0
M  V30 24972 C 2384.83 -0.314493 4.26843 0
M  V30 24973 C 2384.16 -1.39292 5.16238 0
M  V30 24974 C 2385.46 0.793186 5.16242 0
M  V30 24975 H 2387.15 0.727532 2.90426 0
M  V30 24976 H 2384.7 0.351312 1.39649 0
M  V30 24977 H 2386.65 -1.4748 3.9475 0
M  V30 24978 H 2385.38 -1.77492 2.74161 0
M  V30 24979 H 2384.04 0.148264 3.663 0
M  V30 24980 H 2383.68 -2.16768 4.53895 0
M  V30 24981 H 2383.38 -0.945121 5.79949 0
M  V30 24982 H 2384.91 -1.87749 5.81019 0
M  V30 24983 H 2386.32 0.39214 5.71957 0
M  V30 24984 H 2384.72 1.16547 5.88674 0
M  V30 24985 H 2385.79 1.65111 4.55924 0
M  V30 24986 N 2387.13 -1.52563 0.395266 0
M  V30 24987 C 2388.41 -1.94086 -0.242873 0
M  V30 24988 C 2388.79 -1.33116 -1.63839 0
M  V30 24989 O 2388.14 -0.501568 -2.22927 0
M  V30 24990 C 2388.35 -3.48006 -0.263209 0
M  V30 24991 C 2389.69 -4.21772 -0.48928 0
M  V30 24992 O 2390.72 -3.54543 -0.343163 0
M  V30 24993 O 2389.58 -5.40961 -0.776074 0
M  V30 24994 H 2386.67 -0.812814 -0.152522 0
M  V30 24995 H 2389.22 -1.63619 0.450206 0
M  V30 24996 H 2387.99 -3.8473 0.714052 0
M  V30 24997 H 2387.61 -3.84794 -1.00096 0
M  V30 24998 N 2388.61 -0.125265 -1.57101 0
M  V30 24999 C 2389.52 0.836161 -2.19193 0
M  V30 25000 C 2390.54 1.28802 -1.16987 0
M  V30 25001 O 2391.71 1.34972 -1.49481 0
M  V30 25002 C 2388.78 2.06612 -2.78411 0
M  V30 25003 C 2387.84 1.66558 -3.95673 0
M  V30 25004 C 2387.07 2.8369 -4.52057 0
M  V30 25005 O 2387.29 3.99295 -4.07333 0
M  V30 25006 O 2386.23 2.60414 -5.42649 0
M  V30 25007 H 2390.05 0.337723 -3.01816 0
M  V30 25008 H 2387.64 0.100669 -1.4906 0
M  V30 25009 H 2389.52 2.78635 -3.16134 0
M  V30 25010 H 2388.2 2.5545 -1.98814 0
M  V30 25011 H 2387.1 0.916232 -3.62706 0
M  V30 25012 H 2388.44 1.22456 -4.76724 0
M  V30 25013 N 2390.09 1.56899 0.148518 0
M  V30 25014 C 2391.31 1.87789 0.880352 0
M  V30 25015 C 2391.74 0.714124 1.74017 0
M  V30 25016 O 2391.1 -0.336312 1.78153 0
M  V30 25017 C 2391.14 3.17252 1.71416 0
M  V30 25018 O 2390.25 3.01079 2.81824 0
M  V30 25019 H 2389.59 0.617032 0.24529 0
M  V30 25020 H 2392.12 2.04122 0.139791 0
M  V30 25021 H 2392.13 3.49235 2.10948 0
M  V30 25022 H 2390.8 4.01558 1.08277 0
M  V30 25023 H 2389.38 2.80501 2.4571 0
M  V30 25024 N 2391.57 -0.417818 1.51961 0
M  V30 25025 C 2392.81 -1.16556 1.65593 0
M  V30 25026 C 2393.14 -1.9072 0.381598 0
M  V30 25027 O 2392.4 -1.85107 -0.635123 0
M  V30 25028 C 2392.69 -2.19219 2.82273 0
M  V30 25029 C 2392.36 -1.61925 4.20822 0
M  V30 25030 C 2391.02 -1.46024 4.58509 0
M  V30 25031 C 2393.37 -1.19999 5.07198 0
M  V30 25032 C 2390.7 -0.867011 5.80258 0
M  V30 25033 C 2393.05 -0.620975 6.29545 0
M  V30 25034 C 2391.72 -0.449027 6.65988 0
M  V30 25035 H 2390.99 -0.426509 0.605946 0
M  V30 25036 H 2393.64 -0.453937 1.86042 0
M  V30 25037 H 2391.94 -2.96493 2.56123 0
M  V30 25038 H 2393.64 -2.76931 2.90017 0
M  V30 25039 H 2390.23 -1.75283 3.91119 0
M  V30 25040 H 2394.41 -1.31097 4.78672 0
M  V30 25041 H 2389.67 -0.721726 6.07125 0
M  V30 25042 H 2393.84 -0.287676 6.95806 0
M  V30 25043 H 2391.47 0.0127657 7.60199 0
M  V30 25044 N 2393.04 -1.42436 -0.674508 0
M  V30 25045 C 2393.97 -1.48727 -1.80007 0
M  V30 25046 C 2394.95 -0.343822 -1.66589 0
M  V30 25047 O 2396.14 -0.558169 -1.86006 0
M  V30 25048 C 2393.27 -1.38925 -3.18304 0
M  V30 25049 C 2392.22 -2.513 -3.46457 0
M  V30 25050 C 2391.55 -2.26555 -4.84331 0
M  V30 25051 C 2392.85 -3.93609 -3.43321 0
M  V30 25052 H 2394.54 -2.42931 -1.74999 0
M  V30 25053 H 2392.09 -1.16925 -0.840512 0
M  V30 25054 H 2394.04 -1.41934 -3.96778 0
M  V30 25055 H 2392.77 -0.412151 -3.23989 0
M  V30 25056 H 2391.43 -2.47608 -2.70344 0
M  V30 25057 H 2391.07 -1.27138 -4.86667 0
M  V30 25058 H 2390.77 -3.0187 -5.04131 0
M  V30 25059 H 2392.3 -2.31314 -5.6509 0
M  V30 25060 H 2393.71 -3.98902 -4.11765 0
M  V30 25061 H 2392.11 -4.68778 -3.74656 0
M  V30 25062 H 2393.18 -4.20259 -2.41889 0
M  V30 25063 N 2394.52 0.910841 -1.28614 0
M  V30 25064 C 2395.77 1.65699 -1.15708 0
M  V30 25065 C 2396.09 1.92769 0.294126 0
M  V30 25066 O 2395.36 1.5459 1.20328 0
M  V30 25067 H 2393.94 0.614159 -0.425227 0
M  V30 25068 H 2396.6 1.09277 -1.61383 0
M  V30 25069 H 2395.7 2.61812 -1.69885 0
M  V30 25070 N 2396 1.10909 1.11969 0
M  V30 25071 C 2397.42 0.841876 1.3559 0
M  V30 25072 C 2397.62 -0.536212 1.94234 0
M  V30 25073 O 2396.67 -1.28812 2.17172 0
M  V30 25074 C 2397.99 1.94553 2.29281 0
M  V30 25075 C 2399.53 1.97455 2.42859 0
M  V30 25076 C 2400.01 3.07008 3.39868 0
M  V30 25077 N 2401.5 3.06347 3.47427 0
M  V30 25078 C 2402.23 3.87755 4.22414 0
M  V30 25079 N 2401.73 4.79112 5.00424 0
M  V30 25080 N 2403.52 3.75954 4.1787 0
M  V30 25081 H 2395.67 1.99729 0.722629 0
M  V30 25082 H 2397.94 0.868235 0.38062 0
M  V30 25083 H 2397.64 2.93769 1.93373 0
M  V30 25084 H 2397.52 1.83694 3.29449 0
M  V30 25085 H 2399.9 0.988694 2.78045 0
M  V30 25086 H 2399.99 2.12391 1.42562 0
M  V30 25087 H 2399.63 4.05816 3.0541 0
M  V30 25088 H 2399.56 2.89313 4.40006 0
M  V30 25089 H 2402.05 2.40152 2.9178 0
M  V30 25090 H 2402.36 5.37776 5.54993 0
M  V30 25091 H 2400.71 4.83137 4.99603 0
M  V30 25092 H 2403.9 3.03931 3.56011 0
M  V30 25093 H 2404.07 4.39633 4.76054 0
M  V30 25094 N 2397.48 -1.29474 0.898573 0
M  V30 25095 C 2398.71 -1.99458 0.538514 0
M  V30 25096 C 2399.12 -1.67442 -0.880893 0
M  V30 25097 O 2398.46 -0.915155 -1.59282 0
M  V30 25098 C 2398.52 -3.53582 0.649626 0
M  V30 25099 C 2398.19 -4.0915 2.0358 0
M  V30 25100 C 2399.18 -4.2413 3.00683 0
M  V30 25101 C 2396.87 -4.44208 2.34488 0
M  V30 25102 C 2398.86 -4.73398 4.26818 0
M  V30 25103 C 2396.55 -4.93173 3.60866 0
M  V30 25104 C 2397.55 -5.07722 4.56845 0
M  V30 25105 O 2397.23 -5.55625 5.80979 0
M  V30 25106 H 2396.97 -0.644045 0.205383 0
M  V30 25107 H 2399.52 -1.66005 1.20961 0
M  V30 25108 H 2397.75 -3.8662 -0.0784913 0
M  V30 25109 H 2399.44 -4.04798 0.298881 0
M  V30 25110 H 2400.21 -3.97334 2.78119 0
M  V30 25111 H 2396.08 -4.32143 1.60542 0
M  V30 25112 H 2399.63 -4.84669 5.01738 0
M  V30 25113 H 2395.53 -5.19405 3.8326 0
M  V30 25114 H 2396.29 -5.73942 5.83552 0
M  V30 25115 N 2398.96 -0.660936 -1.43071 0
M  V30 25116 C 2399.89 0.0758461 -2.28074 0
M  V30 25117 C 2400.87 0.822338 -1.40272 0
M  V30 25118 O 2402.05 0.820322 -1.69714 0
M  V30 25119 C 2399.18 1.11432 -3.19845 0
M  V30 25120 C 2398.22 0.464994 -4.23958 0
M  V30 25121 S 2399.06 -0.767171 -5.29976 0
M  V30 25122 C 2400.21 0.270572 -6.25315 0
M  V30 25123 H 2400.45 -0.64519 -2.90215 0
M  V30 25124 H 2397.98 -0.450021 -1.47696 0
M  V30 25125 H 2399.94 1.70843 -3.7326 0
M  V30 25126 H 2398.6 1.80772 -2.56867 0
M  V30 25127 H 2397.79 1.2481 -4.88302 0
M  V30 25128 H 2397.39 -0.05519 -3.73959 0
M  V30 25129 H 2399.69 1.13448 -6.67934 0
M  V30 25130 H 2400.63 -0.33804 -7.07293 0
M  V30 25131 H 2401.04 0.609838 -5.61196 0
M  V30 25132 N 2400.43 1.52351 -0.403352 0
M  V30 25133 C 2401.66 2.06648 0.176463 0
M  V30 25134 C 2402.08 1.27196 1.38574 0
M  V30 25135 O 2401.44 0.300668 1.78789 0
M  V30 25136 C 2401.49 3.56961 0.510999 0
M  V30 25137 O 2400.59 3.79976 1.60287 0
M  V30 25138 H 2399.94 0.663789 0.016722 0
M  V30 25139 H 2402.47 1.96357 -0.574882 0
M  V30 25140 H 2402.48 4.00643 0.771291 0
M  V30 25141 H 2401.15 4.14224 -0.373033 0
M  V30 25142 H 2399.73 3.48177 1.3352 0
M  V30 25143 N 2401.91 0.133594 1.57033 0
M  V30 25144 C 2402.88 -0.796957 2.14898 0
M  V30 25145 C 2403.88 -1.18456 1.08742 0
M  V30 25146 O 2405.07 -1.10768 1.34447 0
M  V30 25147 C 2402.2 -2.07968 2.70115 0
M  V30 25148 H 2403.39 -0.29382 2.98457 0
M  V30 25149 H 2400.94 -0.115759 1.55871 0
M  V30 25150 H 2401.68 -2.62679 1.90185 0
M  V30 25151 H 2401.46 -1.81109 3.47767 0
M  V30 25152 H 2402.95 -2.74457 3.14743 0
M  V30 25153 N 2403.39 -1.56975 -0.140195 0
M  V30 25154 C 2404.32 -2.0181 -1.17452 0
M  V30 25155 C 2405.3 -0.898819 -1.44413 0
M  V30 25156 O 2406.49 -1.1671 -1.55218 0
M  V30 25157 C 2403.62 -2.40449 -2.50603 0
M  V30 25158 C 2402.57 -3.55625 -2.38149 0
M  V30 25159 C 2401.9 -3.80098 -3.76072 0
M  V30 25160 C 2403.2 -4.88065 -1.85983 0
M  V30 25161 H 2404.89 -2.88467 -0.801692 0
M  V30 25162 H 2402.44 -1.3878 -0.384196 0
M  V30 25163 H 2404.39 -2.70416 -3.23193 0
M  V30 25164 H 2403.11 -1.50737 -2.89734 0
M  V30 25165 H 2401.77 -3.25834 -1.6801 0
M  V30 25166 H 2401.42 -2.87625 -4.12651 0
M  V30 25167 H 2401.12 -4.57613 -3.68598 0
M  V30 25168 H 2402.64 -4.12496 -4.50199 0
M  V30 25169 H 2404.06 -5.16706 -2.48371 0
M  V30 25170 H 2402.46 -5.69433 -1.89383 0
M  V30 25171 H 2403.53 -4.77986 -0.815938 0
M  V30 25172 N 2404.87 0.409753 -1.5218 0
M  V30 25173 C 2405.82 1.51972 -1.76089 0
M  V30 25174 C 2406.81 1.5733 -0.627991 0
M  V30 25175 O 2408.02 1.60744 -0.810022 0
M  V30 25176 H 2404.39 0.505406 -0.556838 0
M  V30 25177 H 2406.36 1.28992 -2.69079 0
M  V30 25178 C 2405.11 2.89347 -1.92805 0
M  V30 25179 H 2404.43 2.85967 -2.79397 0
M  V30 25180 H 2405.87 3.66305 -2.13533 0
M  V30 25181 C 2404.33 3.29654 -0.694981 0
M  V30 25182 O 2404.86 4.01465 0.13744 0
M  V30 25183 N 2403.07 2.85706 -0.53106 0
M  V30 25184 H 2402.62 2.27437 -1.20956 0
M  V30 25185 H 2402.57 3.13035 0.292663 0
M  V30 25186 N 2406.35 1.42792 0.666944 0
M  V30 25187 C 2407.3 1.43336 1.7731 0
M  V30 25188 C 2408.28 0.303614 1.58009 0
M  V30 25189 O 2409.47 0.546414 1.68355 0
M  V30 25190 C 2406.6 1.34583 3.1582 0
M  V30 25191 C 2405.69 2.52534 3.40716 0
M  V30 25192 N 2406.08 3.77932 3.36156 0
M  V30 25193 C 2404.38 2.46963 3.71383 0
M  V30 25194 C 2405.08 4.56324 3.60754 0
M  V30 25195 N 2404.05 3.8685 3.81901 0
M  V30 25196 H 2407.86 2.38177 1.72189 0
M  V30 25197 H 2405.37 1.37251 0.86809 0
M  V30 25198 H 2407.37 1.33055 3.95098 0
M  V30 25199 H 2406.03 0.407509 3.22133 0
M  V30 25200 H 2407.04 4.10416 3.15878 0
M  V30 25201 H 2403.71 1.61749 3.84894 0
M  V30 25202 H 2405.1 5.65325 3.63122 0
M  V30 25203 N 2407.82 -0.904008 1.29095 0
M  V30 25204 C 2409.05 -1.68764 1.19692 0
M  V30 25205 C 2409.47 -1.87229 -0.24308 0
M  V30 25206 O 2408.82 -1.40624 -1.16324 0
M  V30 25207 C 2408.88 -3.0745 1.90149 0
M  V30 25208 O 2408.6 -2.89832 3.28526 0
M  V30 25209 C 2410.1 -4.01849 1.8717 0
M  V30 25210 H 2407.32 -0.527237 0.415045 0
M  V30 25211 H 2409.86 -1.13079 1.70392 0
M  V30 25212 H 2408.02 -3.59924 1.43296 0
M  V30 25213 H 2408.43 -3.77677 3.63951 0
M  V30 25214 H 2409.9 -4.96592 2.41041 0
M  V30 25215 H 2410.38 -4.3097 0.846246 0
M  V30 25216 H 2410.99 -3.55306 2.33747 0
M  V30 25217 N 2409.3 -1.11501 -1.11379 0
M  V30 25218 C 2410.25 -0.773925 -2.17437 0
M  V30 25219 C 2411.22 0.25487 -1.64133 0
M  V30 25220 O 2412.4 0.131647 -1.90345 0
M  V30 25221 C 2409.54 -0.223977 -3.44372 0
M  V30 25222 C 2408.66 -1.30941 -4.11678 0
M  V30 25223 C 2407.79 -0.719932 -5.26299 0
M  V30 25224 C 2406.83 -1.78517 -5.8549 0
M  V30 25225 N 2405.97 -1.21514 -6.91505 0
M  V30 25226 H 2410.81 -1.68251 -2.45959 0
M  V30 25227 H 2408.35 -0.840212 -1.20743 0
M  V30 25228 H 2410.3 0.112848 -4.17047 0
M  V30 25229 H 2408.93 0.647796 -3.16233 0
M  V30 25230 H 2407.99 -1.76318 -3.3707 0
M  V30 25231 H 2409.3 -2.11532 -4.51725 0
M  V30 25232 H 2408.45 -0.333201 -6.05784 0
M  V30 25233 H 2407.19 0.117291 -4.87559 0
M  V30 25234 H 2406.2 -2.1812 -5.04682 0
M  V30 25235 H 2407.42 -2.62544 -6.26297 0
M  V30 25236 H 2405.37 -0.39957 -6.54782 0
M  V30 25237 H 2405.28 -1.95776 -7.30211 0
M  V30 25238 H 2406.55 -0.855318 -7.74793 0
M  V30 25239 N 2410.78 1.28995 -0.905426 0
M  V30 25240 C 2411.73 2.2755 -0.385932 0
M  V30 25241 C 2412.7 1.57245 0.535085 0
M  V30 25242 O 2413.88 1.85195 0.459087 0
M  V30 25243 C 2411.02 3.43052 0.3754 0
M  V30 25244 C 2410.14 4.28127 -0.577167 0
M  V30 25245 C 2409.27 5.30817 0.201785 0
M  V30 25246 C 2408.31 6.0755 -0.744936 0
M  V30 25247 N 2407.45 7.021 -2.91531e-05 0
M  V30 25248 H 2412.29 2.71366 -1.23144 0
M  V30 25249 H 2409.82 1.33462 -0.618566 0
M  V30 25250 H 2411.78 4.08801 0.83292 0
M  V30 25251 H 2410.41 3.0025 1.18532 0
M  V30 25252 H 2409.46 3.62499 -1.15321 0
M  V30 25253 H 2410.78 4.81518 -1.30161 0
M  V30 25254 H 2409.93 6.0241 0.720245 0
M  V30 25255 H 2408.67 4.78172 0.959329 0
M  V30 25256 H 2407.67 5.34816 -1.27485 0
M  V30 25257 H 2408.9 6.62284 -1.5019 0
M  V30 25258 H 2406.85 6.51817 0.739676 0
M  V30 25259 H 2406.76 7.53074 -0.664453 0
M  V30 25260 H 2408.03 7.77904 0.498507 0
M  V30 25261 N 2412.26 0.668514 1.42719 0
M  V30 25262 C 2413.51 0.197111 2.02443 0
M  V30 25263 C 2413.86 -1.18106 1.51884 0
M  V30 25264 O 2413.15 -1.78013 0.708649 0
M  V30 25265 C 2413.35 0.164562 3.57021 0
M  V30 25266 C 2413.18 1.53804 4.22581 0
M  V30 25267 C 2411.95 2.13425 4.58015 0
M  V30 25268 C 2414.14 2.47949 4.50584 0
M  V30 25269 N 2412.13 3.43619 5.08723 0
M  V30 25270 C 2413.5 3.62791 5.02775 0
M  V30 25271 C 2415.55 2.46558 4.32566 0
M  V30 25272 C 2414.26 4.76487 5.38844 0
M  V30 25273 C 2416.28 3.59346 4.69706 0
M  V30 25274 C 2415.64 4.72915 5.22044 0
M  V30 25275 H 2411.74 0.116907 0.773212 0
M  V30 25276 H 2414.33 0.880138 1.73671 0
M  V30 25277 H 2412.5 -0.487857 3.85324 0
M  V30 25278 H 2414.23 -0.319137 4.0344 0
M  V30 25279 H 2410.98 1.65977 4.43563 0
M  V30 25280 H 2411.41 4.10283 5.38514 0
M  V30 25281 H 2416.05 1.59985 3.91363 0
M  V30 25282 H 2413.77 5.63741 5.78983 0
M  V30 25283 H 2417.35 3.5949 4.57447 0
M  V30 25284 H 2416.23 5.58746 5.50248 0
M  V30 25285 N 2413.74 -1.52135 0.411426 0
M  V30 25286 C 2414.68 -2.27076 -0.412935 0
M  V30 25287 C 2415.65 -1.29584 -1.0391 0
M  V30 25288 O 2416.84 -1.5845 -1.06294 0
M  V30 25289 C 2413.98 -3.09704 -1.52242 0
M  V30 25290 C 2413.09 -4.22156 -0.916947 0
M  V30 25291 C 2412.23 -4.92139 -1.99932 0
M  V30 25292 C 2411.27 -5.96551 -1.3709 0
M  V30 25293 N 2410.4 -6.60042 -2.39352 0
M  V30 25294 H 2415.24 -2.97091 0.232551 0
M  V30 25295 H 2412.78 -1.46555 0.126521 0
M  V30 25296 H 2414.74 -3.55917 -2.17668 0
M  V30 25297 H 2413.37 -2.41855 -2.1379 0
M  V30 25298 H 2412.42 -3.80097 -0.151675 0
M  V30 25299 H 2413.73 -4.97046 -0.417919 0
M  V30 25300 H 2412.89 -5.41768 -2.73079 0
M  V30 25301 H 2411.63 -4.16822 -2.53201 0
M  V30 25302 H 2410.63 -5.46239 -0.624777 0
M  V30 25303 H 2411.86 -6.73811 -0.845879 0
M  V30 25304 H 2409.8 -5.87553 -2.91749 0
M  V30 25305 H 2409.72 -7.30614 -1.94268 0
M  V30 25306 H 2410.99 -7.14309 -3.12062 0
M  V30 25307 N 2415.22 -0.14192 -1.5696 0
M  V30 25308 C 2416.46 0.510458 -1.95961 0
M  V30 25309 C 2416.79 1.65206 -1.02651 0
M  V30 25310 O 2416.05 1.95623 -0.0547291 0
M  V30 25311 C 2416.34 1.06243 -3.41244 0
M  V30 25312 C 2416.01 0.0397998 -4.50882 0
M  V30 25313 C 2414.67 -0.241332 -4.80594 0
M  V30 25314 C 2417.02 -0.655871 -5.17057 0
M  V30 25315 C 2414.35 -1.22403 -5.7379 0
M  V30 25316 C 2416.7 -1.62735 -6.1131 0
M  V30 25317 C 2415.37 -1.91623 -6.39403 0
M  V30 25318 H 2414.64 0.18679 -0.717071 0
M  V30 25319 H 2417.29 -0.227677 -1.90142 0
M  V30 25320 H 2415.59 1.87779 -3.43869 0
M  V30 25321 H 2417.29 1.57569 -3.68745 0
M  V30 25322 H 2413.88 0.269099 -4.27754 0
M  V30 25323 H 2418.06 -0.451866 -4.94239 0
M  V30 25324 H 2413.32 -1.45434 -5.93851 0
M  V30 25325 H 2417.49 -2.17195 -6.61664 0
M  V30 25326 H 2415.12 -2.67922 -7.11422 0
M  V30 25327 N 2416.69 1.57047 0.131868 0
M  V30 25328 C 2418.1 1.73467 0.690376 0
M  V30 25329 C 2418.46 0.758661 1.80939 0
M  V30 25330 O 2417.58 -0.0713433 2.16282 0
M  V30 25331 C 2418.18 3.14535 1.2591 0
M  V30 25332 C 2416.73 3.32504 1.76403 0
M  V30 25333 C 2415.88 2.69367 0.658531 0
M  V30 25334 H 2418.83 1.58422 -0.0939422 0
M  V30 25335 H 2418.85 3.15372 2.12886 0
M  V30 25336 H 2418.37 3.85547 0.444447 0
M  V30 25337 H 2416.47 2.66514 2.60387 0
M  V30 25338 H 2416.58 4.40574 1.88233 0
M  V30 25339 H 2414.94 2.30248 1.08895 0
M  V30 25340 H 2415.73 3.42994 -0.144931 0
M  V30 25341 N 2418.17 -0.401677 1.52395 0
M  V30 25342 C 2419.1 -1.50909 1.72508 0
M  V30 25343 C 2420.12 -1.51121 0.605494 0
M  V30 25344 O 2421.31 -1.55252 0.880855 0
M  V30 25345 C 2418.41 -2.89788 1.75716 0
M  V30 25346 C 2417.58 -3.13684 3.04829 0
M  V30 25347 C 2416.64 -4.32476 2.99751 0
M  V30 25348 O 2415.66 -4.29395 3.73642 0
M  V30 25349 N 2416.87 -5.37989 2.18056 0
M  V30 25350 H 2419.63 -1.34048 2.68051 0
M  V30 25351 H 2417.19 -0.591058 1.50725 0
M  V30 25352 H 2419.18 -3.67337 1.69841 0
M  V30 25353 H 2417.75 -3.00071 0.876144 0
M  V30 25354 H 2416.97 -2.24113 3.24294 0
M  V30 25355 H 2418.26 -3.26498 3.90227 0
M  V30 25356 H 2417.66 -5.43342 1.57466 0
M  V30 25357 H 2416.22 -6.14252 2.18032 0
M  V30 25358 N 2419.65 -1.43144 -0.659362 0
M  V30 25359 C 2420.9 -1.44649 -1.42142 0
M  V30 25360 C 2421.23 -0.0682248 -1.9408 0
M  V30 25361 O 2420.5 0.909977 -1.719 0
M  V30 25362 C 2420.79 -2.48378 -2.60731 0
M  V30 25363 C 2420.64 -3.95455 -2.14325 0
M  V30 25364 C 2421.96 -2.48913 -3.62947 0
M  V30 25365 H 2419.08 -0.526705 -0.515511 0
M  V30 25366 H 2421.72 -1.74655 -0.748038 0
M  V30 25367 H 2419.87 -2.22921 -3.1818 0
M  V30 25368 H 2421.54 -4.31947 -1.61925 0
M  V30 25369 H 2419.78 -4.08581 -1.45753 0
M  V30 25370 H 2420.46 -4.63637 -2.99575 0
M  V30 25371 H 2422.93 -2.71587 -3.15245 0
M  V30 25372 H 2421.81 -3.23443 -4.43482 0
M  V30 25373 H 2422.07 -1.52068 -4.15124 0
M  V30 25374 N 2421.13 0.897149 -1.29572 0
M  V30 25375 C 2422.38 1.64462 -1.17459 0
M  V30 25376 C 2422.7 1.9307 0.273664 0
M  V30 25377 O 2421.97 1.55857 1.18682 0
M  V30 25378 H 2420.55 0.609614 -0.431717 0
M  V30 25379 H 2423.21 1.07559 -1.62533 0
M  V30 25380 H 2422.3 2.59995 -1.72652 0
M  V30 25381 N 2422.61 1.1209 1.10786 0
M  V30 25382 C 2423.85 0.872237 1.82309 0
M  V30 25383 C 2424.17 -0.603677 1.8542 0
M  V30 25384 O 2423.44 -1.43865 1.32965 0
M  V30 25385 H 2422.02 0.319697 0.675132 0
M  V30 25386 H 2424.69 1.41466 1.34065 0
M  V30 25387 H 2423.78 1.2505 2.85953 0
M  V30 25388 N 2424.08 -1.28513 0.912254 0
M  V30 25389 C 2425.01 -2.29756 0.416443 0
M  V30 25390 C 2425.99 -1.62111 -0.515166 0
M  V30 25391 O 2427.18 -1.89532 -0.423219 0
M  V30 25392 C 2424.31 -3.45576 -0.345659 0
M  V30 25393 C 2423.26 -4.25108 0.496674 0
M  V30 25394 C 2422.59 -5.33249 -0.393678 0
M  V30 25395 C 2423.89 -4.91998 1.75316 0
M  V30 25396 H 2425.58 -2.71478 1.26254 0
M  V30 25397 H 2423.13 -1.3051 0.608538 0
M  V30 25398 H 2425.08 -4.15489 -0.703349 0
M  V30 25399 H 2423.81 -3.0273 -1.22565 0
M  V30 25400 H 2422.47 -3.5692 0.836863 0
M  V30 25401 H 2422.11 -4.86647 -1.27217 0
M  V30 25402 H 2421.81 -5.87365 0.166312 0
M  V30 25403 H 2423.34 -6.0601 -0.747283 0
M  V30 25404 H 2424.75 -5.5428 1.46446 0
M  V30 25405 H 2423.15 -5.56102 2.25544 0
M  V30 25406 H 2424.22 -4.16573 2.48184 0
M  V30 25407 N 2425.56 -0.676073 -1.42362 0
M  V30 25408 C 2426.79 -0.207304 -2.05859 0
M  V30 25409 C 2427.21 1.13602 -1.50798 0
M  V30 25410 O 2426.56 1.70597 -0.648295 0
M  V30 25411 C 2426.61 -0.135039 -3.61248 0
M  V30 25412 O 2426.33 -1.42528 -4.14267 0
M  V30 25413 C 2427.84 0.357073 -4.4186 0
M  V30 25414 H 2425.06 -0.100514 -0.663429 0
M  V30 25415 H 2427.6 -0.923168 -1.82477 0
M  V30 25416 H 2425.75 0.531521 -3.83736 0
M  V30 25417 H 2426.17 -1.29948 -5.08147 0
M  V30 25418 H 2427.64 0.356544 -5.50847 0
M  V30 25419 H 2428.12 1.39256 -4.16539 0
M  V30 25420 H 2428.73 -0.277794 -4.24392 0
M  V30 25421 N 2427.04 1.51915 -0.419488 0
M  V30 25422 C 2428.27 2.06823 0.154535 0
M  V30 25423 C 2428.69 1.28658 1.37218 0
M  V30 25424 O 2428.05 0.319614 1.78461 0
M  V30 25425 C 2428.1 3.57483 0.473109 0
M  V30 25426 O 2427.2 3.81655 1.56248 0
M  V30 25427 H 2426.54 0.663929 0.00968073 0
M  V30 25428 H 2429.07 1.95737 -0.595676 0
M  V30 25429 H 2429.08 4.01439 0.728754 0
M  V30 25430 H 2427.76 4.13805 -0.416946 0
M  V30 25431 H 2426.33 3.49573 1.29819 0
M  V30 25432 N 2428.52 0.150242 1.56882 0
M  V30 25433 C 2429.77 -0.500037 1.95403 0
M  V30 25434 C 2430.08 -1.65799 1.03779 0
M  V30 25435 O 2431.29 -2.37311 1.31893 0
M  V30 25436 C 2429.74 -0.940957 3.47382 0
M  V30 25437 C 2429.35 0.190237 4.47596 0
M  V30 25438 C 2431.09 -1.56084 3.94763 0
M  V30 25439 C 2429 -0.269134 5.90787 0
M  V30 25440 H 2427.93 -0.190575 0.729518 0
M  V30 25441 H 2430.58 0.235106 1.81988 0
M  V30 25442 H 2428.96 -1.73146 3.56141 0
M  V30 25443 H 2430.14 0.967236 4.50534 0
M  V30 25444 H 2428.45 0.718738 4.1015 0
M  V30 25445 H 2431.05 -1.91622 4.99185 0
M  V30 25446 H 2431.39 -2.45101 3.36499 0
M  V30 25447 H 2431.93 -0.83518 3.88934 0
M  V30 25448 H 2428.67 0.585736 6.52878 0
M  V30 25449 H 2428.19 -1.01194 5.91202 0
M  V30 25450 H 2429.86 -0.720063 6.42981 0
M  V30 25451 N 2430 -1.57115 -0.123538 0
M  V30 25452 C 2430.94 -2.00009 -1.15174 0
M  V30 25453 C 2431.91 -0.871479 -1.41402 0
M  V30 25454 O 2433.1 -1.13536 -1.53344 0
M  V30 25455 C 2430.24 -2.40565 -2.47431 0
M  V30 25456 C 2429.35 -3.66823 -2.28178 0
M  V30 25457 C 2428.49 -3.96379 -3.53634 0
M  V30 25458 C 2427.53 -5.15833 -3.29519 0
M  V30 25459 N 2426.66 -5.41283 -4.47166 0
M  V30 25460 H 2431.5 -2.87639 -0.778957 0
M  V30 25461 H 2429.04 -1.42289 -0.373141 0
M  V30 25462 H 2431 -2.62115 -3.24579 0
M  V30 25463 H 2429.63 -1.55983 -2.82611 0
M  V30 25464 H 2428.68 -3.52915 -1.41969 0
M  V30 25465 H 2429.99 -4.54124 -2.06332 0
M  V30 25466 H 2429.15 -4.18553 -4.39202 0
M  V30 25467 H 2427.88 -3.07545 -3.78507 0
M  V30 25468 H 2426.89 -4.93509 -2.42341 0
M  V30 25469 H 2428.11 -6.06241 -3.06021 0
M  V30 25470 H 2426.06 -4.55405 -4.72167 0
M  V30 25471 H 2425.98 -6.22899 -4.28408 0
M  V30 25472 H 2427.25 -5.67972 -5.3388 0
M  V30 25473 N 2431.47 0.393589 -1.52606 0
M  V30 25474 C 2432.72 1.1374 -1.68626 0
M  V30 25475 C 2433.08 1.87788 -0.41872 0
M  V30 25476 O 2432.37 1.82373 0.587438 0
M  V30 25477 C 2432.56 2.147 -2.85725 0
M  V30 25478 C 2432.39 1.50567 -4.23745 0
M  V30 25479 C 2431.16 1.27172 -4.89035 0
M  V30 25480 C 2433.36 0.958222 -5.05295 0
M  V30 25481 N 2431.34 0.59095 -6.11049 0
M  V30 25482 C 2432.71 0.405259 -6.18674 0
M  V30 25483 C 2434.77 0.854188 -4.90518 0
M  V30 25484 C 2433.47 -0.241561 -7.18894 0
M  V30 25485 C 2435.5 0.221197 -5.90986 0
M  V30 25486 C 2434.86 -0.321018 -7.03668 0
M  V30 25487 H 2430.96 0.40233 -0.670563 0
M  V30 25488 H 2433.54 0.427574 -1.89947 0
M  V30 25489 H 2431.71 2.83024 -2.65992 0
M  V30 25490 H 2433.44 2.81555 -2.90704 0
M  V30 25491 H 2430.2 1.54547 -4.47674 0
M  V30 25492 H 2430.62 0.266743 -6.76474 0
M  V30 25493 H 2435.27 1.25919 -4.03614 0
M  V30 25494 H 2432.98 -0.65859 -8.05412 0
M  V30 25495 H 2436.57 0.142009 -5.81627 0
M  V30 25496 H 2435.45 -0.803093 -7.80077 0
M  V30 25497 N 2432.95 1.43492 0.651762 0
M  V30 25498 C 2433.92 1.48432 1.74644 0
M  V30 25499 C 2434.92 0.368845 1.56513 0
M  V30 25500 O 2436.11 0.630651 1.62384 0
M  V30 25501 C 2433.24 1.33833 3.13531 0
M  V30 25502 H 2434.43 2.45923 1.71644 0
M  V30 25503 H 2431.98 1.30279 0.86355 0
M  V30 25504 H 2432.72 0.373546 3.22141 0
M  V30 25505 H 2432.5 2.14697 3.28097 0
M  V30 25506 H 2433.99 1.40225 3.93353 0
M  V30 25507 N 2434.43 -0.890264 1.30046 0
M  V30 25508 C 2435.71 -1.6226 1.0923 0
M  V30 25509 C 2436.09 -2.08003 -0.360268 0
M  V30 25510 O 2435.44 -1.84297 -1.35081 0
M  V30 25511 C 2435.65 -2.79619 2.0884 0
M  V30 25512 C 2436.99 -3.50078 2.40272 0
M  V30 25513 O 2438.02 -2.898 2.07109 0
M  V30 25514 O 2436.88 -4.58768 2.96975 0
M  V30 25515 H 2433.97 -0.712914 0.419145 0
M  V30 25516 H 2436.52 -0.937504 1.41453 0
M  V30 25517 H 2435.29 -2.43083 3.06637 0
M  V30 25518 H 2434.91 -3.55828 1.77403 0
M  V30 25519 N 2435.91 -1.12676 -1.1019 0
M  V30 25520 C 2436.86 -0.792234 -2.18692 0
M  V30 25521 C 2437.85 0.222028 -1.67939 0
M  V30 25522 O 2439.06 0.0799758 -1.79822 0
M  V30 25523 H 2435.43 -0.238377 -0.713218 0
M  V30 25524 H 2437.4 -1.71568 -2.44146 0
M  V30 25525 C 2436.15 -0.26592 -3.46682 0
M  V30 25526 H 2435.47 -1.03767 -3.86099 0
M  V30 25527 H 2436.91 -0.0701873 -4.23942 0
M  V30 25528 C 2435.37 1.00669 -3.21508 0
M  V30 25529 O 2435.9 2.08402 -3.43412 0
M  V30 25530 N 2434.11 0.934644 -2.7516 0
M  V30 25531 H 2433.66 0.0578151 -2.57535 0
M  V30 25532 H 2433.61 1.78675 -2.58694 0
M  V30 25533 N 2437.39 1.28028 -0.919057 0
M  V30 25534 C 2438.33 2.29103 -0.401793 0
M  V30 25535 C 2439.33 1.61562 0.509326 0
M  V30 25536 O 2440.53 1.75725 0.389983 0
M  V30 25537 H 2436.91 0.743711 -0.111344 0
M  V30 25538 H 2438.88 2.70154 -1.26725 0
M  V30 25539 C 2437.63 3.46052 0.338088 0
M  V30 25540 H 2436.95 3.98231 -0.353802 0
M  V30 25541 H 2438.39 4.18759 0.664579 0
M  V30 25542 C 2436.85 2.99234 1.54793 0
M  V30 25543 O 2437.38 3.02162 2.6469 0
M  V30 25544 N 2435.59 2.54832 1.39675 0
M  V30 25545 H 2435.13 2.52648 0.502653 0
M  V30 25546 H 2435.09 2.23867 2.20751 0
M  V30 25547 N 2438.86 0.683613 1.42002 0
M  V30 25548 C 2440.1 0.213549 2.03281 0
M  V30 25549 C 2440.47 -1.16094 1.52926 0
M  V30 25550 O 2441.67 -1.72617 2.06051 0
M  V30 25551 C 2439.94 0.255919 3.56483 0
M  V30 25552 S 2441.5 -0.141852 4.38571 0
M  V30 25553 H 2438.32 0.0869977 0.705657 0
M  V30 25554 H 2440.92 0.89873 1.73618 0
M  V30 25555 H 2439.62 1.25847 3.90628 0
M  V30 25556 H 2439.15 -0.448807 3.90832 0
M  V30 25557 H 2441.17 -1.37286 4.7683 0
M  V30 25558 N 2440.34 -1.5169 0.427538 0
M  V30 25559 C 2441.57 -2.06119 -0.14095 0
M  V30 25560 C 2441.98 -1.2959 -1.37851 0
M  V30 25561 O 2441.32 -0.346067 -1.80411 0
M  V30 25562 C 2441.39 -3.55448 -0.538213 0
M  V30 25563 C 2441.05 -4.5316 0.591174 0
M  V30 25564 C 2442.05 -4.98969 1.46036 0
M  V30 25565 C 2439.73 -4.96377 0.769115 0
M  V30 25566 C 2441.73 -5.86656 2.49227 0
M  V30 25567 C 2439.41 -5.83856 1.80431 0
M  V30 25568 C 2440.41 -6.28892 2.66428 0
M  V30 25569 O 2440.1 -7.14636 3.68171 0
M  V30 25570 H 2439.83 -0.675817 -0.0157336 0
M  V30 25571 H 2442.39 -1.96364 0.60253 0
M  V30 25572 H 2440.62 -3.62953 -1.33425 0
M  V30 25573 H 2442.3 -3.92437 -1.03673 0
M  V30 25574 H 2443.07 -4.66283 1.33437 0
M  V30 25575 H 2438.95 -4.6087 0.109354 0
M  V30 25576 H 2442.49 -6.21729 3.16383 0
M  V30 25577 H 2438.39 -6.15955 1.93053 0
M  V30 25578 H 2439.16 -7.32792 3.64635 0
M  V30 25579 N 2441.82 -0.15856 -1.568 0
M  V30 25580 C 2442.75 0.77257 -2.20349 0
M  V30 25581 C 2443.73 1.24857 -1.1552 0
M  V30 25582 O 2444.92 1.30404 -1.43905 0
M  V30 25583 C 2442.05 2.00724 -2.83421 0
M  V30 25584 C 2441 1.66758 -3.94177 0
M  V30 25585 C 2440.33 2.97584 -4.44238 0
M  V30 25586 C 2441.63 0.905357 -5.14393 0
M  V30 25587 H 2443.32 0.242906 -2.98413 0
M  V30 25588 H 2440.87 0.115393 -1.43537 0
M  V30 25589 H 2442.82 2.66354 -3.26548 0
M  V30 25590 H 2441.54 2.56082 -2.02705 0
M  V30 25591 H 2440.2 1.03502 -3.51686 0
M  V30 25592 H 2439.85 3.50957 -3.60331 0
M  V30 25593 H 2439.55 2.75617 -5.1895 0
M  V30 25594 H 2441.08 3.64266 -4.90044 0
M  V30 25595 H 2442.49 1.46398 -5.54293 0
M  V30 25596 H 2440.89 0.785195 -5.94941 0
M  V30 25597 H 2441.96 -0.100753 -4.84795 0
M  V30 25598 N 2443.3 1.57178 0.115204 0
M  V30 25599 C 2444.52 1.89614 0.840321 0
M  V30 25600 C 2444.95 0.750875 1.72463 0
M  V30 25601 O 2444.31 -0.298447 1.78827 0
M  V30 25602 C 2444.36 3.20817 1.64648 0
M  V30 25603 O 2443.46 3.0699 2.75375 0
M  V30 25604 H 2442.8 0.622096 0.232147 0
M  V30 25605 H 2445.33 2.04372 0.0964618 0
M  V30 25606 H 2445.34 3.53631 2.03493 0
M  V30 25607 H 2444.02 4.03765 0.997345 0
M  V30 25608 H 2442.59 2.8565 2.39705 0
M  V30 25609 N 2444.78 -0.38549 1.52813 0
M  V30 25610 C 2446 -1.1558 1.72209 0
M  V30 25611 C 2446.43 -1.82856 0.441066 0
M  V30 25612 O 2445.79 -1.70963 -0.603435 0
M  V30 25613 C 2445.83 -2.17687 2.8748 0
M  V30 25614 O 2444.94 -3.24349 2.54699 0
M  V30 25615 H 2444.28 -0.336309 0.572532 0
M  V30 25616 H 2446.81 -0.448709 1.99619 0
M  V30 25617 H 2446.82 -2.61624 3.13076 0
M  V30 25618 H 2445.49 -1.68108 3.80411 0
M  V30 25619 H 2444.07 -2.85524 2.39855 0
M  V30 25620 N 2446.26 -1.43835 -0.644143 0
M  V30 25621 C 2447.5 -1.46149 -1.406 0
M  V30 25622 C 2447.83 -0.0888058 -1.93997 0
M  V30 25623 O 2447.11 0.891693 -1.72856 0
M  V30 25624 C 2447.39 -2.51129 -2.58082 0
M  V30 25625 C 2447.25 -3.97706 -2.10119 0
M  V30 25626 C 2448.56 -2.52748 -3.60287 0
M  V30 25627 H 2445.68 -0.532143 -0.509895 0
M  V30 25628 H 2448.33 -1.75439 -0.729472 0
M  V30 25629 H 2446.48 -2.26284 -3.15797 0
M  V30 25630 H 2448.15 -4.3364 -1.57334 0
M  V30 25631 H 2446.39 -4.10104 -1.41411 0
M  V30 25632 H 2447.06 -4.66788 -2.9464 0
M  V30 25633 H 2449.54 -2.74915 -3.12347 0
M  V30 25634 H 2448.41 -3.28128 -4.40026 0
M  V30 25635 H 2448.67 -1.56462 -4.13488 0
M  V30 25636 N 2447.73 0.883355 -1.30517 0
M  V30 25637 C 2448.66 2.00538 -1.1961 0
M  V30 25638 C 2449.64 1.69881 -0.0863759 0
M  V30 25639 O 2450.83 1.92332 -0.268687 0
M  V30 25640 C 2447.96 3.35734 -0.888817 0
M  V30 25641 C 2446.91 3.80656 -1.95665 0
M  V30 25642 C 2446.24 5.13161 -1.50233 0
M  V30 25643 C 2447.54 3.99207 -3.36795 0
M  V30 25644 H 2449.23 2.09921 -2.13479 0
M  V30 25645 H 2446.78 1.00861 -1.02776 0
M  V30 25646 H 2448.73 4.13753 -0.799167 0
M  V30 25647 H 2447.46 3.26488 0.0855552 0
M  V30 25648 H 2446.12 3.04867 -2.03597 0
M  V30 25649 H 2445.76 5.00344 -0.51618 0
M  V30 25650 H 2445.46 5.44188 -2.21659 0
M  V30 25651 H 2446.99 5.93703 -1.4265 0
M  V30 25652 H 2448.4 4.6766 -3.31613 0
M  V30 25653 H 2446.8 4.41614 -4.06322 0
M  V30 25654 H 2447.87 3.03011 -3.78566 0
M  V30 25655 N 2449.21 1.13259 1.09591 0
M  V30 25656 C 2450.14 0.830984 2.18213 0
M  V30 25657 C 2451.12 -0.208936 1.68812 0
M  V30 25658 O 2452.31 -0.0682324 1.9408 0
M  V30 25659 C 2449.44 0.294357 3.4605 0
M  V30 25660 C 2448.39 1.26833 4.08775 0
M  V30 25661 C 2447.72 0.591542 5.31418 0
M  V30 25662 C 2449.02 2.62623 4.51472 0
M  V30 25663 H 2450.71 1.73927 2.437 0
M  V30 25664 H 2448.26 0.837695 1.17127 0
M  V30 25665 H 2450.21 0.0710347 4.2134 0
M  V30 25666 H 2448.93 -0.64931 3.20081 0
M  V30 25667 H 2447.59 1.47762 3.35503 0
M  V30 25668 H 2447.24 -0.357544 5.01728 0
M  V30 25669 H 2446.94 1.24133 5.74339 0
M  V30 25670 H 2448.47 0.377462 6.09432 0
M  V30 25671 H 2449.88 2.45672 5.17994 0
M  V30 25672 H 2448.28 3.23761 5.05271 0
M  V30 25673 H 2449.35 3.20412 3.63956 0
M  V30 25674 N 2450.69 -1.27539 0.925834 0
M  V30 25675 C 2451.65 -2.25165 0.428168 0
M  V30 25676 C 2452.65 -1.5431 -0.452234 0
M  V30 25677 O 2453.84 -1.72344 -0.253578 0
M  V30 25678 C 2450.97 -3.38723 -0.384689 0
M  V30 25679 H 2452.17 -2.70704 1.29071 0
M  V30 25680 H 2449.72 -1.39429 0.706347 0
M  V30 25681 H 2450.46 -2.98563 -1.26613 0
M  V30 25682 H 2450.24 -3.91324 0.246523 0
M  V30 25683 H 2451.73 -4.11288 -0.723317 0
M  V30 25684 N 2452.17 -0.691135 -1.41637 0
M  V30 25685 C 2453.1 -0.037289 -2.3347 0
M  V30 25686 C 2454.08 0.771921 -1.51576 0
M  V30 25687 O 2455.26 0.725788 -1.80128 0
M  V30 25688 C 2452.39 0.903005 -3.35355 0
M  V30 25689 C 2451.35 0.201213 -4.27527 0
M  V30 25690 C 2450.67 1.25556 -5.1975 0
M  V30 25691 C 2451.97 -0.92978 -5.13958 0
M  V30 25692 H 2453.67 -0.804278 -2.88395 0
M  V30 25693 H 2451.21 -0.388214 -1.38668 0
M  V30 25694 H 2453.17 1.36962 -3.98521 0
M  V30 25695 H 2451.89 1.70161 -2.7877 0
M  V30 25696 H 2450.55 -0.24533 -3.65778 0
M  V30 25697 H 2450.2 2.04658 -4.59483 0
M  V30 25698 H 2449.9 0.791026 -5.82251 0
M  V30 25699 H 2451.42 1.72278 -5.85792 0
M  V30 25700 H 2452.84 -0.543647 -5.70717 0
M  V30 25701 H 2451.23 -1.32113 -5.85377 0
M  V30 25702 H 2452.3 -1.77141 -4.51386 0
M  V30 25703 N 2453.65 1.51461 -0.435577 0
M  V30 25704 C 2454.58 2.25457 0.412531 0
M  V30 25705 C 2455.59 1.29408 0.987799 0
M  V30 25706 O 2456.78 1.55173 0.882239 0
M  V30 25707 C 2453.88 2.99345 1.58889 0
M  V30 25708 C 2453.05 4.22476 1.13281 0
M  V30 25709 C 2452.11 4.78959 2.17909 0
M  V30 25710 O 2451.14 5.40844 1.77415 0
M  V30 25711 N 2452.34 4.62838 3.50373 0
M  V30 25712 H 2455.1 2.98879 -0.221655 0
M  V30 25713 H 2452.67 1.59727 -0.26437 0
M  V30 25714 H 2454.66 3.34019 2.28502 0
M  V30 25715 H 2453.23 2.28945 2.12845 0
M  V30 25716 H 2452.45 3.93316 0.263812 0
M  V30 25717 H 2453.74 5.02384 0.805454 0
M  V30 25718 H 2453.13 4.13541 3.86006 0
M  V30 25719 H 2451.69 5.01878 4.15886 0
M  V30 25720 N 2455.12 0.166873 1.56714 0
M  V30 25721 C 2456.06 -0.796499 2.14915 0
M  V30 25722 C 2457.07 -1.19686 1.10359 0
M  V30 25723 O 2458.26 -1.13748 1.37563 0
M  V30 25724 C 2455.36 -2.08298 2.6733 0
M  V30 25725 C 2454.53 -1.84689 3.96496 0
M  V30 25726 C 2453.59 -2.97513 4.34019 0
M  V30 25727 O 2452.62 -2.68341 5.01978 0
M  V30 25728 N 2453.82 -4.25189 3.95215 0
M  V30 25729 H 2456.58 -0.298953 2.98205 0
M  V30 25730 H 2454.14 -0.0160555 1.61892 0
M  V30 25731 H 2456.14 -2.82862 2.89433 0
M  V30 25732 H 2454.71 -2.49256 1.88653 0
M  V30 25733 H 2453.93 -0.940535 3.82815 0
M  V30 25734 H 2455.21 -1.66277 4.80863 0
M  V30 25735 H 2454.61 -4.51752 3.40495 0
M  V30 25736 H 2453.17 -4.96469 4.22329 0
M  V30 25737 N 2456.6 -1.57237 -0.106866 0
M  V30 25738 C 2457.53 -2.04256 -1.13145 0
M  V30 25739 C 2458.51 -0.929249 -1.42474 0
M  V30 25740 O 2459.7 -1.19976 -1.52707 0
M  V30 25741 C 2456.83 -2.4571 -2.45446 0
M  V30 25742 C 2455.78 -3.60597 -2.30552 0
M  V30 25743 C 2455.11 -3.87989 -3.67925 0
M  V30 25744 C 2456.41 -4.919 -1.75588 0
M  V30 25745 H 2458.1 -2.90103 -0.740323 0
M  V30 25746 H 2455.65 -1.39564 -0.354672 0
M  V30 25747 H 2457.6 -2.7721 -3.17384 0
M  V30 25748 H 2456.33 -1.56848 -2.86472 0
M  V30 25749 H 2454.98 -3.29325 -1.61061 0
M  V30 25750 H 2454.63 -2.96314 -4.06457 0
M  V30 25751 H 2454.33 -4.65328 -3.58808 0
M  V30 25752 H 2455.86 -4.21953 -4.41348 0
M  V30 25753 H 2457.27 -5.21858 -2.37355 0
M  V30 25754 H 2455.67 -5.73322 -1.77262 0
M  V30 25755 H 2456.74 -4.79609 -0.714367 0
M  V30 25756 N 2458.08 0.377381 -1.53015 0
M  V30 25757 C 2458.99 1.48571 -1.81559 0
M  V30 25758 C 2460.01 1.59161 -0.70313 0
M  V30 25759 O 2461.18 1.75278 -0.991951 0
M  V30 25760 C 2458.25 2.83975 -1.98895 0
M  V30 25761 C 2457.31 2.83011 -3.22806 0
M  V30 25762 C 2456.54 4.11956 -3.39305 0
M  V30 25763 O 2456.76 5.07515 -2.60354 0
M  V30 25764 O 2455.7 4.18487 -4.32611 0
M  V30 25765 H 2459.52 1.27377 -2.75697 0
M  V30 25766 H 2457.11 0.566349 -1.38249 0
M  V30 25767 H 2458.99 3.64226 -2.11937 0
M  V30 25768 H 2457.67 3.05171 -1.07947 0
M  V30 25769 H 2456.57 2.015 -3.15196 0
M  V30 25770 H 2457.91 2.66768 -4.13637 0
M  V30 25771 N 2459.56 1.44175 0.636506 0
M  V30 25772 C 2460.8 1.46892 1.39823 0
M  V30 25773 C 2461.14 0.0990926 1.93947 0
M  V30 25774 O 2460.41 -0.882514 1.73326 0
M  V30 25775 C 2460.7 2.52494 2.56746 0
M  V30 25776 C 2460.55 3.98815 2.08007 0
M  V30 25777 C 2461.87 2.54655 3.58941 0
M  V30 25778 H 2458.99 0.534839 0.507066 0
M  V30 25779 H 2461.63 1.75823 0.720157 0
M  V30 25780 H 2459.78 2.27955 3.14593 0
M  V30 25781 H 2461.45 4.34468 1.55032 0
M  V30 25782 H 2459.69 4.10848 1.39235 0
M  V30 25783 H 2460.36 4.68344 2.92161 0
M  V30 25784 H 2462.84 2.76568 3.10885 0
M  V30 25785 H 2461.72 3.30457 4.3828 0
M  V30 25786 H 2461.98 1.58653 4.12652 0
M  V30 25787 N 2461.04 -0.876421 1.30983 0
M  V30 25788 C 2461.98 -1.98302 1.18089 0
M  V30 25789 C 2462.95 -1.6596 0.0682555 0
M  V30 25790 O 2464.14 -1.89285 0.23997 0
M  V30 25791 C 2461.28 -3.33492 0.887534 0
M  V30 25792 C 2460.39 -3.78471 2.08288 0
M  V30 25793 C 2459.53 -5.02347 1.72687 0
M  V30 25794 C 2458.57 -5.39757 2.88666 0
M  V30 25795 N 2457.7 -6.54814 2.53304 0
M  V30 25796 H 2462.54 -2.08663 2.12753 0
M  V30 25797 H 2460.08 -1.02157 1.05841 0
M  V30 25798 H 2462.04 -4.11319 0.698034 0
M  V30 25799 H 2460.67 -3.22792 -0.0222583 0
M  V30 25800 H 2459.72 -2.9648 2.38335 0
M  V30 25801 H 2461.03 -4.0213 2.95115 0
M  V30 25802 H 2460.19 -5.87823 1.50161 0
M  V30 25803 H 2458.92 -4.80578 0.830411 0
M  V30 25804 H 2457.93 -4.52804 3.11848 0
M  V30 25805 H 2459.15 -5.63495 3.79012 0
M  V30 25806 H 2457.1 -6.34604 1.66174 0
M  V30 25807 H 2457.02 -6.78385 3.33662 0
M  V30 25808 H 2458.29 -7.43499 2.34156 0
M  V30 25809 N 2462.51 -1.13839 -1.08989 0
M  V30 25810 C 2463.76 -0.902914 -1.81256 0
M  V30 25811 C 2464.09 0.57077 -1.85937 0
M  V30 25812 O 2463.34 1.43862 -1.32673 0
M  V30 25813 C 2463.64 -1.44153 -3.27039 0
M  V30 25814 C 2463.31 -2.93282 -3.42485 0
M  V30 25815 C 2461.97 -3.33998 -3.46408 0
M  V30 25816 C 2464.32 -3.89206 -3.46653 0
M  V30 25817 C 2461.65 -4.69313 -3.52083 0
M  V30 25818 C 2464 -5.2437 -3.53863 0
M  V30 25819 C 2462.67 -5.64606 -3.56056 0
M  V30 25820 H 2461.94 -0.3304 -0.663262 0
M  V30 25821 H 2464.58 -1.42107 -1.28366 0
M  V30 25822 H 2462.89 -0.844165 -3.82598 0
M  V30 25823 H 2464.59 -1.23535 -3.81497 0
M  V30 25824 H 2461.18 -2.608 -3.40119 0
M  V30 25825 H 2465.36 -3.58834 -3.42859 0
M  V30 25826 H 2460.62 -4.99856 -3.52071 0
M  V30 25827 H 2464.79 -5.9851 -3.56033 0
M  V30 25828 H 2462.42 -6.69444 -3.60206 0
M  V30 25829 N 2463.99 1.27046 -0.932584 0
M  V30 25830 C 2464.94 2.28664 -0.42607 0
M  V30 25831 C 2465.93 1.62093 0.492161 0
M  V30 25832 O 2467.14 1.76128 0.371324 0
M  V30 25833 H 2463.52 0.742488 -0.119226 0
M  V30 25834 H 2465.49 2.68795 -1.29583 0
M  V30 25835 C 2464.24 3.46392 0.301365 0
M  V30 25836 H 2463.56 3.97834 -0.39602 0
M  V30 25837 H 2465 4.19441 0.620127 0
M  V30 25838 C 2463.46 3.00859 1.5161 0
M  V30 25839 O 2463.99 3.04952 2.61471 0
M  V30 25840 N 2462.19 2.56299 1.36965 0
M  V30 25841 H 2461.74 2.53167 0.475828 0
M  V30 25842 H 2461.7 2.26196 2.18364 0
M  V30 25843 N 2465.47 0.698636 1.41269 0
M  V30 25844 C 2466.43 0.0441722 2.29157 0
M  V30 25845 C 2467.43 -0.704815 1.4453 0
M  V30 25846 O 2468.62 -0.539247 1.65643 0
M  V30 25847 C 2465.76 -0.947751 3.27461 0
M  V30 25848 H 2466.95 0.818044 2.88527 0
M  V30 25849 H 2464.5 0.462307 1.49306 0
M  V30 25850 H 2465.24 -1.74928 2.73076 0
M  V30 25851 H 2465.02 -0.413782 3.89911 0
M  V30 25852 H 2466.51 -1.40337 3.93313 0
M  V30 25853 N 2466.95 -1.51228 0.443603 0
M  V30 25854 C 2468.36 -1.86691 -0.0180538 0
M  V30 25855 C 2468.71 -1.36035 -1.41382 0
M  V30 25856 O 2467.84 -0.713758 -2.0429 0
M  V30 25857 C 2468.43 -3.38777 -0.0395375 0
M  V30 25858 C 2466.99 -3.73753 -0.445627 0
M  V30 25859 C 2466.14 -2.74984 0.357633 0
M  V30 25860 H 2469.09 -1.44363 0.659164 0
M  V30 25861 H 2469.11 -3.70937 -0.847696 0
M  V30 25862 H 2468.62 -3.75616 0.976448 0
M  V30 25863 H 2466.72 -3.42506 -1.46698 0
M  V30 25864 H 2466.83 -4.78812 -0.166071 0
M  V30 25865 H 2465.2 -2.54028 -0.184928 0
M  V30 25866 H 2465.98 -3.14665 1.37261 0
M  V30 25867 N 2468.43 -0.175182 -1.56623 0
M  V30 25868 C 2469.39 0.7397 -2.16936 0
M  V30 25869 C 2470.39 1.15532 -1.11844 0
M  V30 25870 O 2471.58 1.07164 -1.37337 0
M  V30 25871 C 2468.71 2.00733 -2.75534 0
M  V30 25872 H 2469.9 0.214586 -2.99131 0
M  V30 25873 H 2467.46 0.0743922 -1.56123 0
M  V30 25874 H 2468.19 2.57544 -1.97083 0
M  V30 25875 H 2467.98 1.71825 -3.52447 0
M  V30 25876 H 2469.47 2.66016 -3.21909 0
M  V30 25877 N 2469.91 1.57292 0.0985263 0
M  V30 25878 C 2470.84 2.04853 1.1206 0
M  V30 25879 C 2471.82 0.936792 1.4198 0
M  V30 25880 O 2473 1.20784 1.52069 0
M  V30 25881 C 2470.13 2.47008 2.4414 0
M  V30 25882 C 2469.09 3.61814 2.28636 0
M  V30 25883 C 2468.41 3.89935 3.65862 0
M  V30 25884 C 2469.71 4.92825 1.72977 0
M  V30 25885 H 2471.41 2.90491 0.724928 0
M  V30 25886 H 2468.95 1.3975 0.347266 0
M  V30 25887 H 2470.9 2.78889 3.15909 0
M  V30 25888 H 2469.63 1.58365 2.85636 0
M  V30 25889 H 2468.29 3.30174 1.59312 0
M  V30 25890 H 2467.94 2.98465 4.0488 0
M  V30 25891 H 2467.64 4.67224 3.56336 0
M  V30 25892 H 2469.16 4.24288 4.39104 0
M  V30 25893 H 2470.57 5.23109 2.34584 0
M  V30 25894 H 2468.97 5.74254 1.74219 0
M  V30 25895 H 2470.04 4.79981 0.688922 0
M  V30 25896 N 2471.38 -0.369261 1.53213 0
M  V30 25897 C 2472.32 -1.47216 1.7567 0
M  V30 25898 C 2473.33 -1.49803 0.637413 0
M  V30 25899 O 2474.52 -1.53349 0.913588 0
M  V30 25900 C 2471.62 -2.85996 1.81823 0
M  V30 25901 C 2470.79 -3.07148 3.11414 0
M  V30 25902 C 2469.85 -4.26021 3.08857 0
M  V30 25903 O 2468.88 -4.21373 3.82666 0
M  V30 25904 N 2470.08 -5.33242 2.29419 0
M  V30 25905 H 2472.84 -1.28332 2.70834 0
M  V30 25906 H 2470.4 -0.558954 1.51945 0
M  V30 25907 H 2472.4 -3.63651 1.77594 0
M  V30 25908 H 2470.97 -2.98145 0.939597 0
M  V30 25909 H 2470.19 -2.17184 3.28975 0
M  V30 25910 H 2471.47 -3.18147 3.97064 0
M  V30 25911 H 2470.87 -5.3988 1.68956 0
M  V30 25912 H 2469.43 -6.09489 2.31012 0
M  V30 25913 N 2472.86 -1.4451 -0.628851 0
M  V30 25914 C 2473.77 -1.54047 -1.76937 0
M  V30 25915 C 2474.79 -0.426016 -1.68704 0
M  V30 25916 O 2475.96 -0.683689 -1.8944 0
M  V30 25917 C 2473.03 -1.4841 -3.13329 0
M  V30 25918 C 2472.09 -2.70725 -3.33176 0
M  V30 25919 C 2471.32 -2.65348 -4.63062 0
M  V30 25920 O 2471.55 -1.71478 -5.44014 0
M  V30 25921 O 2470.48 -3.56234 -4.85161 0
M  V30 25922 H 2474.31 -2.50406 -1.71844 0
M  V30 25923 H 2471.89 -1.26782 -0.790355 0
M  V30 25924 H 2473.77 -1.47798 -3.94631 0
M  V30 25925 H 2472.45 -0.551955 -3.18959 0
M  V30 25926 H 2471.35 -2.76905 -2.51544 0
M  V30 25927 H 2472.69 -3.62994 -3.32409 0
M  V30 25928 N 2474.34 0.869463 -1.31446 0
M  V30 25929 C 2475.3 1.95828 -1.19097 0
M  V30 25930 C 2476.3 1.60367 -0.117934 0
M  V30 25931 O 2477.49 1.70285 -0.367238 0
M  V30 25932 C 2474.62 3.30686 -0.828223 0
M  V30 25933 H 2475.82 2.08208 -2.15846 0
M  V30 25934 H 2473.37 1.05782 -1.15065 0
M  V30 25935 H 2474.11 3.24006 0.138085 0
M  V30 25936 H 2473.89 3.57797 -1.60387 0
M  V30 25937 H 2475.38 4.1052 -0.76573 0
M  V30 25938 N 2475.82 1.14415 1.08383 0
M  V30 25939 C 2477.05 0.934676 1.84248 0
M  V30 25940 C 2477.46 -0.520202 1.81908 0
M  V30 25941 O 2476.8 -1.37224 1.22128 0
M  V30 25942 C 2476.86 1.35834 3.3285 0
M  V30 25943 C 2476.52 2.82881 3.58925 0
M  V30 25944 C 2477.52 3.80996 3.53749 0
M  V30 25945 C 2475.21 3.20299 3.86928 0
M  V30 25946 C 2477.2 5.14536 3.76207 0
M  V30 25947 C 2474.89 4.54016 4.09039 0
M  V30 25948 C 2475.89 5.50943 4.03672 0
M  V30 25949 O 2475.57 6.82245 4.25202 0
M  V30 25950 H 2475.31 0.332638 0.588496 0
M  V30 25951 H 2477.86 1.52326 1.37789 0
M  V30 25952 H 2476.09 0.713085 3.80068 0
M  V30 25953 H 2477.78 1.11964 3.90152 0
M  V30 25954 H 2478.54 3.53434 3.32129 0
M  V30 25955 H 2474.42 2.45448 3.90226 0
M  V30 25956 H 2477.97 5.90179 3.71933 0
M  V30 25957 H 2473.86 4.81297 4.30143 0
M  V30 25958 H 2474.63 6.88507 4.42606 0
M  V30 25959 N 2477.3 -1.26549 0.939309 0
M  V30 25960 C 2478.53 -1.97644 0.601697 0
M  V30 25961 C 2478.93 -1.7016 -0.827176 0
M  V30 25962 O 2478.28 -0.965366 -1.56289 0
M  V30 25963 C 2478.34 -3.51336 0.761787 0
M  V30 25964 C 2478 -4.02466 2.16494 0
M  V30 25965 C 2479 -4.14349 3.14024 0
M  V30 25966 C 2476.68 -4.36523 2.48501 0
M  V30 25967 C 2478.68 -4.59579 4.41662 0
M  V30 25968 C 2476.37 -4.81442 3.76373 0
M  V30 25969 C 2477.36 -4.92931 4.72766 0
M  V30 25970 O 2477.05 -5.3686 5.98361 0
M  V30 25971 H 2476.78 -0.637185 0.225769 0
M  V30 25972 H 2479.34 -1.62073 1.26181 0
M  V30 25973 H 2477.57 -3.86674 0.0445488 0
M  V30 25974 H 2479.26 -4.03642 0.427513 0
M  V30 25975 H 2480.02 -3.88285 2.90619 0
M  V30 25976 H 2475.9 -4.26816 1.74209 0
M  V30 25977 H 2479.45 -4.68461 5.16904 0
M  V30 25978 H 2475.34 -5.06949 3.99591 0
M  V30 25979 H 2476.11 -5.55086 6.01516 0
M  V30 25980 N 2478.77 -0.706118 -1.40896 0
M  V30 25981 C 2480.19 -0.378717 -1.55042 0
M  V30 25982 C 2480.39 1.11339 -1.67946 0
M  V30 25983 O 2479.45 1.89935 -1.66376 0
M  V30 25984 C 2480.76 -1.13648 -2.78396 0
M  V30 25985 C 2482.31 -1.12186 -2.92204 0
M  V30 25986 C 2482.78 -1.86159 -4.1846 0
M  V30 25987 N 2484.27 -1.83181 -4.2544 0
M  V30 25988 C 2485.01 -2.37248 -5.22016 0
M  V30 25989 N 2484.5 -2.99832 -6.24558 0
M  V30 25990 N 2486.3 -2.27444 -5.14029 0
M  V30 25991 H 2478.45 -1.67374 -1.30766 0
M  V30 25992 H 2480.71 -0.706919 -0.631641 0
M  V30 25993 H 2480.42 -2.1911 -2.75106 0
M  V30 25994 H 2480.29 -0.721918 -3.70227 0
M  V30 25995 H 2482.68 -0.075469 -2.95003 0
M  V30 25996 H 2482.76 -1.57557 -2.01518 0
M  V30 25997 H 2482.4 -2.90783 -4.16422 0
M  V30 25998 H 2482.33 -1.38215 -5.08138 0
M  V30 25999 H 2484.82 -1.37562 -3.51973 0
M  V30 26000 H 2485.14 -3.38628 -6.94659 0
M  V30 26001 H 2483.48 -3.03913 -6.2503 0
M  V30 26002 H 2486.67 -1.78216 -4.32847 0
M  V30 26003 H 2486.85 -2.69883 -5.89124 0
M  V30 26004 N 2480.25 1.50991 -0.451617 0
M  V30 26005 C 2481.21 2.26648 0.341077 0
M  V30 26006 C 2482.21 1.3065 0.937399 0
M  V30 26007 O 2483.4 1.54243 0.809617 0
M  V30 26008 C 2480.54 3.06908 1.48392 0
M  V30 26009 H 2481.73 2.98165 -0.322169 0
M  V30 26010 H 2479.28 1.54948 -0.205149 0
M  V30 26011 H 2480.02 2.39842 2.1828 0
M  V30 26012 H 2479.8 3.77434 1.06235 0
M  V30 26013 H 2481.29 3.64179 2.04361 0
M  V30 26014 N 2481.73 0.183486 1.56528 0
M  V30 26015 C 2483.15 -0.172526 1.58665 0
M  V30 26016 C 2483.35 -1.61924 1.19928 0
M  V30 26017 O 2482.4 -2.35277 0.916576 0
M  V30 26018 C 2483.71 0.119315 3.00463 0
M  V30 26019 C 2485.26 0.0584946 3.12945 0
M  V30 26020 C 2485.74 0.323488 4.56856 0
M  V30 26021 N 2487.23 0.271694 4.62402 0
M  V30 26022 C 2487.96 0.45074 5.71626 0
M  V30 26023 N 2487.46 0.689505 6.8936 0
M  V30 26024 N 2489.25 0.3858 5.60774 0
M  V30 26025 H 2481.4 1.12768 1.79992 0
M  V30 26026 H 2483.67 0.449236 0.8348 0
M  V30 26027 H 2483.37 1.12197 3.33324 0
M  V30 26028 H 2483.25 -0.583479 3.7266 0
M  V30 26029 H 2485.63 -0.934756 2.79904 0
M  V30 26030 H 2485.71 0.794187 2.43159 0
M  V30 26031 H 2485.36 1.314 4.90608 0
M  V30 26032 H 2485.29 -0.432958 5.24817 0
M  V30 26033 H 2487.78 0.093292 3.77785 0
M  V30 26034 H 2488.09 0.815249 7.68488 0
M  V30 26035 H 2486.44 0.726264 6.91195 0
M  V30 26036 H 2489.63 0.199769 4.67674 0
M  V30 26037 H 2489.8 0.528759 6.45839 0
M  V30 26038 N 2483.21 -1.57342 -0.0901833 0
M  V30 26039 C 2484.17 -2.01443 -1.09332 0
M  V30 26040 C 2485.17 -0.908664 -1.32665 0
M  V30 26041 O 2486.36 -1.17402 -1.28695 0
M  V30 26042 C 2483.49 -2.37934 -2.44132 0
M  V30 26043 H 2484.69 -2.91286 -0.713611 0
M  V30 26044 H 2482.24 -1.52659 -0.335377 0
M  V30 26045 H 2482.97 -1.5106 -2.86969 0
M  V30 26046 H 2482.76 -3.18607 -2.28543 0
M  V30 26047 H 2484.25 -2.72694 -3.16272 0
M  V30 26048 N 2484.69 0.36113 -1.53407 0
M  V30 26049 C 2485.93 1.10112 -1.69469 0
M  V30 26050 C 2486.26 1.89704 -0.451385 0
M  V30 26051 O 2485.53 1.88464 0.534602 0
M  V30 26052 H 2484.11 0.409498 -0.624757 0
M  V30 26053 H 2486.77 0.406666 -1.9061 0
M  V30 26054 H 2485.86 1.78843 -2.55777 0
M  V30 26055 N 2486.16 1.44842 0.621179 0
M  V30 26056 C 2487.44 1.38622 1.37998 0
M  V30 26057 C 2487.82 0.0499306 2.11041 0
M  V30 26058 O 2487.17 -0.96778 2.06993 0
M  V30 26059 C 2487.38 2.591 2.33813 0
M  V30 26060 C 2488.73 3.03598 2.96839 0
M  V30 26061 O 2489.75 2.59376 2.44137 0
M  V30 26062 O 2488.61 3.80302 3.92469 0
M  V30 26063 H 2485.7 0.549437 0.618101 0
M  V30 26064 H 2488.25 1.56948 0.645402 0
M  V30 26065 H 2487.02 3.47955 1.79006 0
M  V30 26066 H 2486.65 2.43038 3.14672 0
M  V30 26067 N 2487.64 -0.862479 1.31905 0
M  V30 26068 C 2488.61 -1.95193 1.20134 0
M  V30 26069 C 2489.61 -1.60302 0.126437 0
M  V30 26070 O 2490.8 -1.70088 0.376264 0
M  V30 26071 C 2487.93 -3.30242 0.845749 0
M  V30 26072 H 2489.12 -2.0706 2.16947 0
M  V30 26073 H 2486.67 -1.0517 1.15624 0
M  V30 26074 H 2487.41 -3.24075 -0.1209 0
M  V30 26075 H 2487.19 -3.56941 1.62282 0
M  V30 26076 H 2488.68 -4.10108 0.78749 0
M  V30 26077 N 2489.12 -1.14988 -1.07775 0
M  V30 26078 C 2490.08 -0.845396 -2.13039 0
M  V30 26079 C 2491.08 0.152903 -1.60071 0
M  V30 26080 O 2492.27 -0.0762185 -1.74033 0
M  V30 26081 C 2489.41 -0.261443 -3.39896 0
M  V30 26082 H 2490.6 -1.77838 -2.41482 0
M  V30 26083 H 2488.15 -0.956779 -1.23594 0
M  V30 26084 H 2488.89 0.679944 -3.17092 0
M  V30 26085 H 2488.67 -0.980581 -3.79641 0
M  V30 26086 H 2490.16 -0.0658421 -4.17548 0
M  V30 26087 N 2490.6 1.26049 -0.946007 0
M  V30 26088 C 2491.55 2.282 -0.450299 0
M  V30 26089 C 2492.54 1.62606 0.474941 0
M  V30 26090 O 2493.75 1.76512 0.352622 0
M  V30 26091 H 2490.12 0.741182 -0.127095 0
M  V30 26092 H 2492.09 2.67405 -1.32427 0
M  V30 26093 C 2490.84 3.46692 0.264609 0
M  V30 26094 H 2490.16 3.97391 -0.438193 0
M  V30 26095 H 2491.6 4.20075 0.575604 0
M  V30 26096 C 2490.06 3.0245 1.48411 0
M  V30 26097 O 2490.59 3.07709 2.58221 0
M  V30 26098 N 2488.8 2.57737 1.34238 0
M  V30 26099 H 2488.35 2.53658 0.44895 0
M  V30 26100 H 2488.3 2.28499 2.15953 0
M  V30 26101 N 2492.08 0.71358 1.4052 0
M  V30 26102 C 2493.32 0.252225 2.00923 0
M  V30 26103 C 2493.65 -1.15392 1.56573 0
M  V30 26104 O 2492.91 -1.79661 0.775906 0
M  V30 26105 C 2493.21 0.278062 3.56317 0
M  V30 26106 C 2492.87 1.63422 4.20243 0
M  V30 26107 C 2491.53 2.00546 4.37418 0
M  V30 26108 C 2493.89 2.52562 4.55919 0
M  V30 26109 C 2491.21 3.26359 4.87552 0
M  V30 26110 C 2493.57 3.77725 5.07451 0
M  V30 26111 C 2492.23 4.14968 5.22836 0
M  V30 26112 H 2491.5 0.0922958 0.73523 0
M  V30 26113 H 2494.15 0.916217 1.6816 0
M  V30 26114 H 2492.45 -0.469499 3.88977 0
M  V30 26115 H 2494.15 -0.0967115 4.00883 0
M  V30 26116 H 2490.74 1.33553 4.07261 0
M  V30 26117 H 2494.92 2.25157 4.42287 0
M  V30 26118 H 2490.18 3.55185 4.97648 0
M  V30 26119 H 2494.35 4.46969 5.34033 0
M  V30 26120 H 2491.98 5.12526 5.61445 0
M  V30 26121 N 2493.55 -1.50749 0.459618 0
M  V30 26122 C 2494.79 -2.04164 -0.0982042 0
M  V30 26123 C 2495.16 -1.33483 -1.38008 0
M  V30 26124 O 2496.36 -1.77391 -2.01955 0
M  V30 26125 C 2494.63 -3.56226 -0.289404 0
M  V30 26126 S 2496.19 -4.31307 -0.807432 0
M  V30 26127 H 2493.01 -0.710679 -0.021372 0
M  V30 26128 H 2495.61 -1.8527 0.624131 0
M  V30 26129 H 2494.31 -4.05227 0.649532 0
M  V30 26130 H 2493.84 -3.79454 -1.03818 0
M  V30 26131 H 2495.86 -4.50393 -2.08232 0
M  V30 26132 N 2495.03 -0.191784 -1.56429 0
M  V30 26133 C 2496 0.71665 -2.17708 0
M  V30 26134 C 2497 1.14339 -1.13063 0
M  V30 26135 O 2498.19 1.05702 -1.38466 0
M  V30 26136 C 2495.32 1.97799 -2.77648 0
M  V30 26137 H 2496.51 0.182847 -2.99342 0
M  V30 26138 H 2494.06 0.0578291 -1.56193 0
M  V30 26139 H 2494.8 2.55439 -1.99803 0
M  V30 26140 H 2494.58 1.68077 -3.54249 0
M  V30 26141 H 2496.07 2.62586 -3.24712 0
M  V30 26142 N 2496.51 1.57387 0.0818378 0
M  V30 26143 C 2497.44 2.0603 1.09881 0
M  V30 26144 C 2498.42 0.951798 1.40978 0
M  V30 26145 O 2499.61 1.2239 1.50779 0
M  V30 26146 C 2496.74 2.49584 2.41506 0
M  V30 26147 C 2495.69 3.64219 2.24786 0
M  V30 26148 C 2495.02 3.93793 3.61705 0
M  V30 26149 C 2496.32 4.94632 1.6774 0
M  V30 26150 H 2498.01 2.91244 0.694077 0
M  V30 26151 H 2495.56 1.4011 0.332424 0
M  V30 26152 H 2497.51 2.82224 3.12934 0
M  V30 26153 H 2496.23 1.61386 2.8394 0
M  V30 26154 H 2494.89 3.31846 1.55801 0
M  V30 26155 H 2494.54 3.02743 4.01691 0
M  V30 26156 H 2494.24 4.70978 3.5136 0
M  V30 26157 H 2495.76 4.28921 4.34579 0
M  V30 26158 H 2497.18 5.25568 2.29023 0
M  V30 26159 H 2495.58 5.7607 1.68118 0
M  V30 26160 H 2496.65 4.80685 0.637975 0
M  V30 26161 N 2497.99 -0.35299 1.53596 0
M  V30 26162 C 2499.24 -1.09165 1.69605 0
M  V30 26163 C 2499.55 -1.90091 0.460959 0
M  V30 26164 O 2500.76 -2.66822 0.501821 0
M  V30 26165 C 2499.21 -1.99005 2.99875 0
M  V30 26166 C 2498.82 -1.23331 4.30689 0
M  V30 26167 C 2500.56 -2.72786 3.25251 0
M  V30 26168 C 2498.47 -2.12146 5.5204 0
M  V30 26169 H 2497.4 -0.41125 0.631973 0
M  V30 26170 H 2500.05 -0.351771 1.80097 0
M  V30 26171 H 2498.43 -2.76775 2.83217 0
M  V30 26172 H 2499.61 -0.505376 4.5802 0
M  V30 26173 H 2497.92 -0.613591 4.11854 0
M  V30 26174 H 2500.52 -3.39487 4.13101 0
M  V30 26175 H 2500.86 -3.38841 2.41852 0
M  V30 26176 H 2501.4 -2.02094 3.42641 0
M  V30 26177 H 2498.14 -1.50648 6.37954 0
M  V30 26178 H 2497.66 -2.82755 5.28971 0
M  V30 26179 H 2499.33 -2.71417 5.87318 0
M  V30 26180 N 2499.47 -1.45169 -0.613489 0
M  V30 26181 C 2500.4 -1.56228 -1.73537 0
M  V30 26182 C 2501.38 -0.414169 -1.64981 0
M  V30 26183 O 2502.56 -0.636558 -1.83471 0
M  V30 26184 C 2499.69 -1.523 -3.12125 0
M  V30 26185 C 2498.65 -2.65768 -3.35487 0
M  V30 26186 C 2497.97 -2.46893 -4.74287 0
M  V30 26187 C 2499.27 -4.07816 -3.26318 0
M  V30 26188 H 2500.97 -2.50135 -1.64538 0
M  V30 26189 H 2498.51 -1.20384 -0.790164 0
M  V30 26190 H 2500.47 -1.58635 -3.90401 0
M  V30 26191 H 2499.19 -0.549195 -3.21949 0
M  V30 26192 H 2497.85 -2.58852 -2.59598 0
M  V30 26193 H 2497.5 -1.47665 -4.80837 0
M  V30 26194 H 2497.2 -3.22981 -4.90874 0
M  V30 26195 H 2498.72 -2.55073 -5.5477 0
M  V30 26196 H 2500.14 -4.16007 -3.94476 0
M  V30 26197 H 2498.53 -4.84247 -3.54437 0
M  V30 26198 H 2499.6 -4.3014 -2.23847 0
M  V30 26199 N 2500.95 0.855472 -1.32361 0
M  V30 26200 C 2501.91 1.94553 -1.21168 0
M  V30 26201 C 2502.91 1.60233 -0.134936 0
M  V30 26202 O 2504.1 1.69886 -0.385279 0
M  V30 26203 C 2501.23 3.29789 -0.86325 0
M  V30 26204 H 2502.42 2.05907 -2.18042 0
M  V30 26205 H 2499.98 1.04555 -1.1618 0
M  V30 26206 H 2500.71 3.24134 0.103712 0
M  V30 26207 H 2500.5 3.56075 -1.64173 0
M  V30 26208 H 2501.99 4.09684 -0.809228 0
M  V30 26209 N 2502.42 1.15558 1.07164 0
M  V30 26210 C 2503.65 0.954165 1.83246 0
M  V30 26211 C 2504.06 -0.500879 1.8245 0
M  V30 26212 O 2503.4 -1.35921 1.23577 0
M  V30 26213 C 2503.47 1.39357 3.31391 0
M  V30 26214 C 2503.13 2.86672 3.55904 0
M  V30 26215 C 2504.13 3.84726 3.49688 0
M  V30 26216 C 2501.81 3.24385 3.83509 0
M  V30 26217 C 2503.81 5.18497 3.70728 0
M  V30 26218 C 2501.49 4.58328 4.04201 0
M  V30 26219 C 2502.49 5.55193 3.97806 0
M  V30 26220 O 2502.18 6.86717 4.17942 0
M  V30 26221 H 2501.91 0.338861 0.584935 0
M  V30 26222 H 2504.47 1.53779 1.36166 0
M  V30 26223 H 2502.7 0.753357 3.79291 0
M  V30 26224 H 2504.38 1.16096 3.88943 0
M  V30 26225 H 2505.15 3.56936 3.28362 0
M  V30 26226 H 2501.03 2.49574 3.876 0
M  V30 26227 H 2504.57 5.94091 3.65652 0
M  V30 26228 H 2500.47 4.85833 4.25014 0
M  V30 26229 H 2501.24 6.93163 4.35279 0
M  V30 26230 N 2503.9 -1.25546 0.952678 0
M  V30 26231 C 2505.13 -1.9782 0.623059 0
M  V30 26232 C 2505.55 -1.70354 -0.79757 0
M  V30 26233 O 2504.91 -0.95831 -1.53903 0
M  V30 26234 C 2504.96 -3.49556 0.885593 0
M  V30 26235 O 2504.06 -4.12384 -0.0365917 0
M  V30 26236 H 2503.4 -0.620228 0.237093 0
M  V30 26237 H 2505.93 -1.59716 1.27874 0
M  V30 26238 H 2505.94 -3.99857 0.811079 0
M  V30 26239 H 2504.62 -3.68877 1.92101 0
M  V30 26240 H 2503.19 -3.72791 0.089961 0
M  V30 26241 N 2505.38 -0.721022 -1.40139 0
M  V30 26242 C 2506.33 -0.0608955 -2.3252 0
M  V30 26243 C 2507.32 0.741125 -1.52328 0
M  V30 26244 O 2508.53 0.643882 -1.6809 0
M  V30 26245 H 2504.9 -0.000889883 -0.751999 0
M  V30 26246 H 2506.87 -0.856665 -2.85839 0
M  V30 26247 C 2505.62 0.84275 -3.37332 0
M  V30 26248 H 2504.95 0.235013 -3.99109 0
M  V30 26249 H 2506.39 1.2725 -4.04454 0
M  V30 26250 C 2504.84 1.97069 -2.7325 0
M  V30 26251 O 2505.37 3.06205 -2.60003 0
M  V30 26252 N 2503.58 1.75593 -2.3155 0
M  V30 26253 H 2503.13 0.868325 -2.42524 0
M  V30 26254 H 2503.09 2.51241 -1.89012 0
M  V30 26255 N 2506.86 1.50503 -0.467606 0
M  V30 26256 C 2507.8 2.28452 0.328373 0
M  V30 26257 C 2508.77 1.33351 0.990289 0
M  V30 26258 O 2509.96 1.62286 1.0034 0
M  V30 26259 C 2507.1 3.15141 1.40643 0
M  V30 26260 C 2506.21 4.25269 0.759634 0
M  V30 26261 C 2505.35 4.9922 1.81529 0
M  V30 26262 C 2504.39 6.01228 1.14855 0
M  V30 26263 N 2503.52 6.6847 2.1469 0
M  V30 26264 H 2508.36 2.96023 -0.342655 0
M  V30 26265 H 2505.9 1.45984 -0.180827 0
M  V30 26266 H 2507.86 3.6375 2.04308 0
M  V30 26267 H 2506.49 2.49623 2.04667 0
M  V30 26268 H 2505.54 3.80399 0.0105002 0
M  V30 26269 H 2506.85 4.98255 0.233155 0
M  V30 26270 H 2506.01 5.5153 2.52783 0
M  V30 26271 H 2504.75 4.25932 2.37556 0
M  V30 26272 H 2503.75 5.48181 0.421614 0
M  V30 26273 H 2504.98 6.76487 0.595216 0
M  V30 26274 H 2502.92 5.97976 2.69741 0
M  V30 26275 H 2502.84 7.3732 1.67017 0
M  V30 26276 H 2504.11 7.25399 2.85336 0
M  V30 26277 N 2508.34 0.200077 1.56325 0
M  V30 26278 C 2509.56 -0.442839 2.02105 0
M  V30 26279 C 2509.98 -1.54848 1.08017 0
M  V30 26280 O 2509.34 -1.82298 0.0859117 0
M  V30 26281 C 2509.39 -0.994522 3.47551 0
M  V30 26282 O 2509.11 0.0670092 4.38049 0
M  V30 26283 C 2510.61 -1.71282 4.08873 0
M  V30 26284 H 2507.83 -0.110679 0.661809 0
M  V30 26285 H 2510.37 0.310243 2.02133 0
M  V30 26286 H 2508.53 -1.69797 3.48207 0
M  V30 26287 H 2508.94 -0.34437 5.23368 0
M  V30 26288 H 2510.42 -2.05109 5.12479 0
M  V30 26289 H 2510.89 -2.61831 3.5262 0
M  V30 26290 H 2511.5 -1.05511 4.12004 0
M  V30 26291 N 2509.81 -1.57429 -0.0734901 0
M  V30 26292 C 2511.06 -1.87444 -0.774112 0
M  V30 26293 C 2511.39 -0.792134 -1.7731 0
M  V30 26294 O 2510.67 0.197759 -1.93492 0
M  V30 26295 C 2510.95 -3.28117 -1.48361 0
M  V30 26296 C 2510.8 -4.46999 -0.501149 0
M  V30 26297 C 2512.12 -3.67002 -2.42894 0
M  V30 26298 H 2509.24 -0.681757 -0.279959 0
M  V30 26299 H 2511.88 -1.89963 -0.0373282 0
M  V30 26300 H 2510.03 -3.26101 -2.11165 0
M  V30 26301 H 2511.71 -4.6114 0.121549 0
M  V30 26302 H 2509.95 -4.33411 0.18367 0
M  V30 26303 H 2510.62 -5.42207 -1.03517 0
M  V30 26304 H 2513.1 -3.70102 -1.90168 0
M  V30 26305 H 2511.97 -4.66323 -2.89541 0
M  V30 26306 H 2512.23 -2.96843 -3.27623 0
M  V30 26307 N 2511.29 0.344839 -1.53781 0
M  V30 26308 C 2512.54 1.08308 -1.70627 0
M  V30 26309 C 2512.86 1.89214 -0.471481 0
M  V30 26310 O 2512.13 1.89021 0.514583 0
M  V30 26311 H 2510.71 0.402848 -0.629065 0
M  V30 26312 H 2513.37 0.386426 -1.91031 0
M  V30 26313 H 2512.47 1.7612 -2.57659 0
M  V30 26314 N 2512.77 1.45492 0.605781 0
M  V30 26315 C 2513.68 1.56843 1.74464 0
M  V30 26316 C 2514.7 0.452802 1.68005 0
M  V30 26317 O 2515.87 0.713741 1.88329 0
M  V30 26318 C 2512.94 1.53376 3.10929 0
M  V30 26319 C 2512 2.75991 3.28827 0
M  V30 26320 C 2511.23 2.72681 4.58782 0
M  V30 26321 O 2511.45 1.80112 5.41217 0
M  V30 26322 O 2510.39 3.63908 4.79432 0
M  V30 26323 H 2514.21 2.53109 1.67838 0
M  V30 26324 H 2511.8 1.28024 0.770085 0
M  V30 26325 H 2513.68 1.54058 3.9223 0
M  V30 26326 H 2512.36 0.602628 3.18041 0
M  V30 26327 H 2511.26 2.80872 2.47107 0
M  V30 26328 H 2512.6 3.68237 3.26592 0
M  V30 26329 N 2514.25 -0.848441 1.32813 0
M  V30 26330 C 2515.18 -1.97297 1.24885 0
M  V30 26331 C 2516.16 -1.69592 0.131386 0
M  V30 26332 O 2517.34 -1.91552 0.319586 0
M  V30 26333 C 2514.47 -3.33259 0.977518 0
M  V30 26334 C 2513.43 -3.75335 2.05689 0
M  V30 26335 C 2512.75 -5.08997 1.63786 0
M  V30 26336 C 2514.05 -3.90137 3.47261 0
M  V30 26337 H 2515.75 -2.04187 2.1897 0
M  V30 26338 H 2513.29 -0.98101 1.05414 0
M  V30 26339 H 2515.25 -4.11488 0.908585 0
M  V30 26340 H 2513.97 -3.266 0.00103742 0
M  V30 26341 H 2512.63 -2.99362 2.11608 0
M  V30 26342 H 2512.28 -4.988 0.648656 0
M  V30 26343 H 2511.98 -5.3812 2.36009 0
M  V30 26344 H 2513.5 -5.89712 1.58341 0
M  V30 26345 H 2514.92 -4.58703 3.43896 0
M  V30 26346 H 2513.31 -4.30685 4.17888 0
M  V30 26347 H 2514.38 -2.92867 3.86467 0
M  V30 26348 N 2515.73 -1.16125 -1.06549 0
M  V30 26349 C 2516.97 -0.939299 -1.78946 0
M  V30 26350 C 2517.3 0.534443 -1.87533 0
M  V30 26351 O 2516.57 1.3883 -1.38213 0
M  V30 26352 H 2515.15 -0.344534 -0.662801 0
M  V30 26353 H 2517.81 -1.46344 -1.28722 0
M  V30 26354 H 2516.9 -1.35577 -2.81114 0
M  V30 26355 N 2517.2 1.25039 -0.959323 0
M  V30 26356 C 2518.48 1.88174 -0.533838 0
M  V30 26357 C 2518.86 1.86501 0.988962 0
M  V30 26358 O 2518.21 1.3318 1.85675 0
M  V30 26359 C 2518.42 3.30682 -1.11581 0
M  V30 26360 C 2519.77 4.07421 -1.19555 0
M  V30 26361 O 2520.79 3.39821 -1.06771 0
M  V30 26362 O 2519.65 5.28352 -1.39665 0
M  V30 26363 H 2516.74 0.807883 -0.176786 0
M  V30 26364 H 2519.29 1.33075 -1.05306 0
M  V30 26365 H 2518.06 3.26355 -2.1589 0
M  V30 26366 H 2517.69 3.93345 -0.580128 0
M  V30 26367 N 2518.68 0.728444 1.39755 0
M  V30 26368 C 2519.93 0.273927 2.00941 0
M  V30 26369 C 2520.26 -1.13392 1.57658 0
M  V30 26370 O 2519.54 -1.77174 0.802465 0
M  V30 26371 C 2519.82 0.368409 3.5821 0
M  V30 26372 C 2519.67 1.81555 4.11531 0
M  V30 26373 C 2520.99 -0.252977 4.39372 0
M  V30 26374 H 2518.11 0.101009 0.730045 0
M  V30 26375 H 2520.75 0.923366 1.66054 0
M  V30 26376 H 2518.9 -0.18452 3.88062 0
M  V30 26377 H 2520.57 2.42485 3.92426 0
M  V30 26378 H 2518.82 2.33905 3.65337 0
M  V30 26379 H 2519.49 1.83297 5.20679 0
M  V30 26380 H 2521.96 0.218297 4.15527 0
M  V30 26381 H 2520.84 -0.156489 5.48677 0
M  V30 26382 H 2521.1 -1.33819 4.21361 0
M  V30 26383 N 2520.16 -1.50253 0.475581 0
M  V30 26384 C 2521.58 -1.5907 0.129998 0
M  V30 26385 C 2521.78 -1.48331 -1.36383 0
M  V30 26386 O 2520.83 -1.34411 -2.13752 0
M  V30 26387 C 2522.15 -2.92813 0.68419 0
M  V30 26388 C 2523.69 -3.06218 0.648018 0
M  V30 26389 C 2524.17 -4.42543 1.17983 0
M  V30 26390 N 2525.66 -4.48967 1.13943 0
M  V30 26391 C 2526.39 -5.52848 1.52138 0
M  V30 26392 N 2525.89 -6.63962 1.97804 0
M  V30 26393 N 2527.68 -5.43418 1.43713 0
M  V30 26394 H 2519.83 -1.55477 1.44709 0
M  V30 26395 H 2522.1 -0.735022 0.598704 0
M  V30 26396 H 2521.8 -3.06161 1.73085 0
M  V30 26397 H 2521.68 -3.76975 0.13027 0
M  V30 26398 H 2524.06 -2.92515 -0.389739 0
M  V30 26399 H 2524.15 -2.23802 1.23879 0
M  V30 26400 H 2523.79 -4.56996 2.21624 0
M  V30 26401 H 2523.72 -5.23558 0.56523 0
M  V30 26402 H 2526.21 -3.69236 0.804552 0
M  V30 26403 H 2526.52 -7.39295 2.25085 0
M  V30 26404 H 2524.87 -6.6507 2.0176 0
M  V30 26405 H 2528.06 -4.555 1.07875 0
M  V30 26406 H 2528.23 -6.24256 1.73805 0
M  V30 26407 N 2521.64 -0.208365 -1.56217 0
M  V30 26408 C 2522.55 0.718796 -2.23317 0
M  V30 26409 C 2523.56 1.2242 -1.2365 0
M  V30 26410 O 2524.74 1.26858 -1.56426 0
M  V30 26411 C 2521.81 1.91563 -2.88971 0
M  V30 26412 C 2520.87 1.4535 -4.03945 0
M  V30 26413 C 2520.1 2.59329 -4.66459 0
M  V30 26414 O 2520.32 3.77141 -4.27926 0
M  V30 26415 O 2519.26 2.31283 -5.5569 0
M  V30 26416 H 2523.08 0.177262 -3.03182 0
M  V30 26417 H 2520.67 0.0215139 -1.49385 0
M  V30 26418 H 2522.55 2.61486 -3.30459 0
M  V30 26419 H 2521.22 2.44552 -2.12076 0
M  V30 26420 H 2520.13 0.722681 -3.67053 0
M  V30 26421 H 2521.46 0.970134 -4.82545 0
M  V30 26422 N 2523.12 1.57465 0.0651402 0
M  V30 26423 C 2524.34 1.91805 0.775775 0
M  V30 26424 C 2524.76 0.804946 1.70781 0
M  V30 26425 O 2524.12 -0.221279 1.81154 0
M  V30 26426 C 2524.17 3.25928 1.56375 0
M  V30 26427 O 2523.89 4.32959 0.669172 0
M  V30 26428 C 2525.39 3.74324 2.37479 0
M  V30 26429 H 2522.61 0.633844 0.220189 0
M  V30 26430 H 2525.15 2.04473 0.0334228 0
M  V30 26431 H 2523.31 3.14768 2.25832 0
M  V30 26432 H 2523.72 5.10164 1.21792 0
M  V30 26433 H 2525.2 4.70783 2.88215 0
M  V30 26434 H 2525.67 3.03671 3.17302 0
M  V30 26435 H 2526.28 3.8845 1.73166 0
M  V30 26436 N 2524.59 -0.336679 1.53962 0
M  V30 26437 C 2525.53 -1.43719 1.77257 0
M  V30 26438 C 2526.51 -1.50235 0.621957 0
M  V30 26439 O 2527.69 -1.67846 0.857903 0
M  V30 26440 C 2524.82 -2.81908 1.87738 0
M  V30 26441 C 2523.86 -2.92986 3.09938 0
M  V30 26442 S 2524.7 -2.58745 4.6884 0
M  V30 26443 C 2525.85 -3.9903 4.82209 0
M  V30 26444 H 2526.08 -1.23743 2.70324 0
M  V30 26445 H 2523.62 -0.532751 1.44918 0
M  V30 26446 H 2525.58 -3.61518 1.94461 0
M  V30 26447 H 2524.24 -2.99175 0.956718 0
M  V30 26448 H 2523.43 -3.9426 3.13967 0
M  V30 26449 H 2523.03 -2.21333 3.01476 0
M  V30 26450 H 2525.32 -4.93632 4.6404 0
M  V30 26451 H 2526.27 -3.99992 5.84305 0
M  V30 26452 H 2526.67 -3.87375 4.10611 0
M  V30 26453 N 2526.07 -1.45812 -0.598057 0
M  V30 26454 C 2527.3 -1.53868 -1.38319 0
M  V30 26455 C 2527.72 -0.174512 -1.87992 0
M  V30 26456 O 2527.07 0.825599 -1.62758 0
M  V30 26457 C 2527.12 -2.53093 -2.5812 0
M  V30 26458 O 2526.84 -3.8421 -2.1051 0
M  V30 26459 C 2528.35 -2.70941 -3.50864 0
M  V30 26460 H 2525.57 -0.520808 -0.423083 0
M  V30 26461 H 2528.11 -1.91084 -0.728494 0
M  V30 26462 H 2526.26 -2.18923 -3.19611 0
M  V30 26463 H 2526.68 -4.38082 -2.88417 0
M  V30 26464 H 2528.15 -3.44324 -4.31445 0
M  V30 26465 H 2528.63 -1.77308 -4.01819 0
M  V30 26466 H 2529.24 -3.06146 -2.9522 0
M  V30 26467 N 2527.55 0.841385 -1.33261 0
M  V30 26468 C 2528.5 1.93943 -1.19876 0
M  V30 26469 C 2529.48 1.60574 -0.102297 0
M  V30 26470 O 2530.68 1.73894 -0.330144 0
M  V30 26471 C 2527.81 3.30249 -0.937575 0
M  V30 26472 C 2526.89 3.69795 -2.07636 0
M  V30 26473 N 2527.28 3.81056 -3.32611 0
M  V30 26474 C 2525.58 3.99516 -1.98249 0
M  V30 26475 C 2526.28 4.15326 -4.07283 0
M  V30 26476 N 2525.26 4.2756 -3.35699 0
M  V30 26477 H 2529.06 2.00801 -2.14607 0
M  V30 26478 H 2526.57 1.03396 -1.25232 0
M  V30 26479 H 2528.57 4.08704 -0.822617 0
M  V30 26480 H 2527.23 3.247 0.0012309 0
M  V30 26481 H 2528.24 3.65028 -3.67389 0
M  V30 26482 H 2524.92 4.02193 -1.12012 0
M  V30 26483 H 2526.31 4.31397 -5.15118 0
M  V30 26484 N 2529.03 1.16688 1.05932 0
M  V30 26485 C 2529.96 0.899986 2.15459 0
M  V30 26486 C 2530.94 -0.155124 1.69391 0
M  V30 26487 O 2532.13 -0.00645279 1.94199 0
M  V30 26488 C 2529.26 0.404301 3.44939 0
M  V30 26489 C 2528.21 1.39774 4.04533 0
M  V30 26490 C 2527.54 0.760309 5.29267 0
M  V30 26491 C 2528.84 2.76853 4.42888 0
M  V30 26492 H 2530.53 1.81592 2.38043 0
M  V30 26493 H 2528.08 0.874534 1.14402 0
M  V30 26494 H 2530.03 0.205045 4.20901 0
M  V30 26495 H 2528.75 -0.54715 3.21984 0
M  V30 26496 H 2527.41 1.58361 3.30632 0
M  V30 26497 H 2527.06 -0.197743 5.02611 0
M  V30 26498 H 2526.76 1.42342 5.70099 0
M  V30 26499 H 2528.28 0.571157 6.07923 0
M  V30 26500 H 2529.7 2.62028 5.09916 0
M  V30 26501 H 2528.09 3.39672 4.94715 0
M  V30 26502 H 2529.16 3.31829 3.53578 0
M  V30 26503 N 2530.51 -1.24529 0.96594 0
M  V30 26504 C 2531.44 -2.27783 0.513516 0
M  V30 26505 C 2532.42 -1.6415 -0.445945 0
M  V30 26506 O 2533.6 -1.91157 -0.342451 0
M  V30 26507 C 2530.73 -3.46731 -0.198778 0
M  V30 26508 C 2529.69 -4.22619 0.67653 0
M  V30 26509 C 2529.01 -5.34439 -0.167154 0
M  V30 26510 C 2530.31 -4.84119 1.96026 0
M  V30 26511 H 2532.01 -2.65879 1.37654 0
M  V30 26512 H 2529.55 -1.27811 0.663344 0
M  V30 26513 H 2531.51 -4.18098 -0.526493 0
M  V30 26514 H 2530.23 -3.07656 -1.09614 0
M  V30 26515 H 2528.89 -3.5305 0.987492 0
M  V30 26516 H 2528.54 -4.91604 -1.06462 0
M  V30 26517 H 2528.24 -5.86131 0.415284 0
M  V30 26518 H 2529.76 -6.08634 -0.489581 0
M  V30 26519 H 2531.18 -5.4757 1.69823 0
M  V30 26520 H 2529.57 -5.46036 2.48927 0
M  V30 26521 H 2530.64 -4.05672 2.65629 0
M  V30 26522 N 2531.99 -0.735845 -1.39367 0
M  V30 26523 C 2532.92 -0.0568126 -2.2913 0
M  V30 26524 C 2533.93 0.702563 -1.4686 0
M  V30 26525 O 2535.12 0.546586 -1.69926 0
M  V30 26526 C 2532.22 0.943765 -3.25494 0
M  V30 26527 C 2531.39 0.245734 -4.36709 0
M  V30 26528 C 2530.45 1.15454 -5.13378 0
M  V30 26529 O 2529.48 0.631704 -5.65684 0
M  V30 26530 N 2530.68 2.48418 -5.24661 0
M  V30 26531 H 2533.44 -0.827633 -2.88046 0
M  V30 26532 H 2531.01 -0.585138 -1.50956 0
M  V30 26533 H 2533 1.55437 -3.7366 0
M  V30 26534 H 2531.57 1.61579 -2.67602 0
M  V30 26535 H 2530.79 -0.545355 -3.90409 0
M  V30 26536 H 2532.08 -0.23798 -5.08243 0
M  V30 26537 H 2531.47 2.93371 -4.83684 0
M  V30 26538 H 2530.03 3.04572 -5.76263 0
M  V30 26539 N 2533.46 1.49999 -0.483543 0
M  V30 26540 C 2534.41 2.257 0.32302 0
M  V30 26541 C 2535.4 1.29807 0.950732 0
M  V30 26542 O 2536.59 1.54635 0.86122 0
M  V30 26543 C 2533.72 3.13582 1.39719 0
M  V30 26544 C 2532.8 4.16929 0.776589 0
M  V30 26545 N 2533.2 5.05679 -0.110489 0
M  V30 26546 C 2531.49 4.33725 1.03915 0
M  V30 26547 C 2532.19 5.79847 -0.463972 0
M  V30 26548 N 2531.17 5.43353 0.163891 0
M  V30 26549 H 2534.97 2.91685 -0.360138 0
M  V30 26550 H 2532.49 1.59633 -0.298484 0
M  V30 26551 H 2534.48 3.66432 1.9883 0
M  V30 26552 H 2533.14 2.49147 2.08221 0
M  V30 26553 H 2534.15 5.15669 -0.48016 0
M  V30 26554 H 2530.83 3.80504 1.71822 0
M  V30 26555 H 2532.22 6.61302 -1.18866 0
M  V30 26556 N 2534.94 0.216646 1.56104 0
M  V30 26557 C 2535.9 -0.681923 2.18821 0
M  V30 26558 C 2536.9 -1.12526 1.14868 0
M  V30 26559 O 2538.09 -1.03485 1.4013 0
M  V30 26560 C 2535.23 -1.93357 2.80759 0
M  V30 26561 H 2536.42 -0.135201 2.99595 0
M  V30 26562 H 2533.97 -0.0329729 1.56265 0
M  V30 26563 H 2534.71 -2.52228 2.03842 0
M  V30 26564 H 2534.49 -1.6242 3.56878 0
M  V30 26565 H 2535.98 -2.57387 3.28849 0
M  V30 26566 N 2536.42 -1.57498 -0.0567885 0
M  V30 26567 C 2537.37 -2.05771 -1.08449 0
M  V30 26568 C 2538.36 -0.965927 -1.39163 0
M  V30 26569 O 2539.57 -1.15097 -1.38393 0
M  V30 26570 H 2535.94 -0.656289 -0.367136 0
M  V30 26571 H 2537.91 -2.91205 -0.651317 0
M  V30 26572 C 2536.66 -2.52972 -2.38538 0
M  V30 26573 H 2535.99 -3.36583 -2.15759 0
M  V30 26574 H 2537.43 -2.90487 -3.08858 0
M  V30 26575 C 2535.88 -1.41898 -3.05559 0
M  V30 26576 O 2536.41 -0.769512 -3.94261 0
M  V30 26577 N 2534.62 -1.16037 -2.66428 0
M  V30 26578 H 2534.17 -1.69034 -1.94384 0
M  V30 26579 H 2534.13 -0.419274 -3.11592 0
M  V30 26580 N 2537.9 0.328509 -1.54138 0
M  V30 26581 C 2538.83 1.40936 -1.8617 0
M  V30 26582 C 2539.81 1.542 -0.718071 0
M  V30 26583 O 2540.99 1.68161 -0.971358 0
M  V30 26584 C 2538.12 2.77775 -2.08466 0
M  V30 26585 C 2537.08 2.79304 -3.24304 0
M  V30 26586 C 2536.4 4.19172 -3.31962 0
M  V30 26587 C 2537.7 2.43494 -4.62069 0
M  V30 26588 H 2539.4 1.14378 -2.76691 0
M  V30 26589 H 2536.94 0.548783 -1.33133 0
M  V30 26590 H 2538.9 3.5345 -2.29459 0
M  V30 26591 H 2537.62 3.058 -1.14689 0
M  V30 26592 H 2536.28 2.06085 -3.03191 0
M  V30 26593 H 2535.93 4.4433 -2.35753 0
M  V30 26594 H 2535.63 4.21103 -4.09813 0
M  V30 26595 H 2537.15 4.96666 -3.55183 0
M  V30 26596 H 2538.57 3.08881 -4.82976 0
M  V30 26597 H 2536.96 2.56683 -5.42433 0
M  V30 26598 H 2538.03 1.38651 -4.64655 0
M  V30 26599 N 2539.38 1.46127 0.590316 0
M  V30 26600 C 2540.29 1.58684 1.7279 0
M  V30 26601 C 2541.3 0.470595 1.67515 0
M  V30 26602 O 2542.48 0.733675 1.87561 0
M  V30 26603 C 2539.54 1.56666 3.09284 0
M  V30 26604 C 2538.6 2.79463 3.25881 0
M  V30 26605 C 2537.84 2.77532 4.55864 0
M  V30 26606 O 2538.06 1.85842 5.39276 0
M  V30 26607 O 2536.99 3.68972 4.75545 0
M  V30 26608 H 2540.82 2.54875 1.65144 0
M  V30 26609 H 2538.4 1.28833 0.756463 0
M  V30 26610 H 2540.29 1.58209 3.90574 0
M  V30 26611 H 2538.96 0.636327 3.17384 0
M  V30 26612 H 2537.87 2.83477 2.44114 0
M  V30 26613 H 2539.2 3.7168 3.22668 0
M  V30 26614 N 2540.85 -0.834306 1.33705 0
M  V30 26615 C 2542.08 -1.62703 1.28618 0
M  V30 26616 C 2542.5 -1.87584 -0.139209 0
M  V30 26617 O 2541.86 -1.44322 -1.09731 0
M  V30 26618 C 2541.91 -2.95167 2.07144 0
M  V30 26619 O 2541.01 -3.86696 1.43317 0
M  V30 26620 H 2540.35 -0.495272 0.442269 0
M  V30 26621 H 2542.88 -1.03762 1.76336 0
M  V30 26622 H 2542.89 -3.44827 2.18079 0
M  V30 26623 H 2541.57 -2.7638 3.10784 0
M  V30 26624 H 2540.15 -3.45192 1.41056 0
M  V30 26625 N 2542.33 -1.17248 -1.05312 0
M  V30 26626 C 2543.29 -0.890394 -2.11198 0
M  V30 26627 C 2544.29 0.118915 -1.6036 0
M  V30 26628 O 2545.48 -0.113116 -1.73832 0
M  V30 26629 C 2542.62 -0.333481 -3.39265 0
M  V30 26630 H 2543.81 -1.8292 -2.37656 0
M  V30 26631 H 2541.36 -0.98278 -1.21537 0
M  V30 26632 H 2542.1 0.612531 -3.18463 0
M  V30 26633 H 2541.88 -1.06089 -3.77475 0
M  V30 26634 H 2543.37 -0.154395 -4.17314 0
M  V30 26635 N 2543.81 1.24015 -0.972531 0
M  V30 26636 C 2544.76 2.25185 -0.506009 0
M  V30 26637 C 2545.73 1.5986 0.450981 0
M  V30 26638 O 2546.91 1.87368 0.360274 0
M  V30 26639 C 2544.05 3.4456 0.193028 0
M  V30 26640 C 2543.17 4.24466 -0.803296 0
M  V30 26641 C 2542.3 5.3114 -0.0798726 0
M  V30 26642 C 2541.34 6.02747 -1.06594 0
M  V30 26643 N 2540.48 7.01113 -0.372197 0
M  V30 26644 H 2545.32 2.64457 -1.37356 0
M  V30 26645 H 2542.85 1.29996 -0.688442 0
M  V30 26646 H 2544.81 4.12641 0.615052 0
M  V30 26647 H 2543.44 3.06111 1.0245 0
M  V30 26648 H 2542.49 3.55876 -1.34374 0
M  V30 26649 H 2543.81 4.73941 -1.55502 0
M  V30 26650 H 2542.96 6.05381 0.399908 0
M  V30 26651 H 2541.7 4.82585 0.704512 0
M  V30 26652 H 2540.7 5.27306 -1.55655 0
M  V30 26653 H 2541.93 6.53391 -1.85085 0
M  V30 26654 H 2539.87 6.54821 0.393123 0
M  V30 26655 H 2539.79 7.48494 -1.06271 0
M  V30 26656 H 2541.06 7.79453 0.0854562 0
M  V30 26657 N 2545.29 0.743226 1.38974 0
M  V30 26658 C 2546.7 0.419691 1.53983 0
M  V30 26659 C 2546.9 -1.06847 1.70839 0
M  V30 26660 O 2545.96 -1.85457 1.71353 0
M  V30 26661 C 2547.27 1.2099 2.75285 0
M  V30 26662 C 2548.82 1.19894 2.89127 0
M  V30 26663 C 2549.3 1.97188 4.13377 0
M  V30 26664 N 2550.79 1.94396 4.20434 0
M  V30 26665 C 2551.52 2.51005 5.15542 0
M  V30 26666 N 2551.02 3.16285 6.16389 0
M  V30 26667 N 2552.81 2.40992 5.07818 0
M  V30 26668 H 2544.96 1.70782 1.26282 0
M  V30 26669 H 2547.23 0.723417 0.612676 0
M  V30 26670 H 2546.93 2.26327 2.692 0
M  V30 26671 H 2546.81 0.819824 3.68183 0
M  V30 26672 H 2549.19 0.153657 2.947 0
M  V30 26673 H 2549.27 1.62845 1.9727 0
M  V30 26674 H 2548.92 3.01722 4.08566 0
M  V30 26675 H 2548.85 1.51638 5.04295 0
M  V30 26676 H 2551.34 1.46845 3.48202 0
M  V30 26677 H 2551.65 3.56927 6.85436 0
M  V30 26678 H 2550 3.20377 6.16752 0
M  V30 26679 H 2553.19 1.89629 4.2797 0
M  V30 26680 H 2553.36 2.85408 5.81761 0
M  V30 26681 N 2546.77 -1.4974 0.491491 0
M  V30 26682 C 2548.01 -2.02721 -0.0564735 0
M  V30 26683 C 2548.35 -1.37121 -1.37519 0
M  V30 26684 O 2547.62 -0.503678 -1.87865 0
M  V30 26685 C 2547.9 -3.59434 -0.218988 0
M  V30 26686 C 2547.76 -4.35577 1.12219 0
M  V30 26687 C 2549.08 -4.29411 -0.964081 0
M  V30 26688 H 2546.19 -0.736754 -0.0190497 0
M  V30 26689 H 2548.84 -1.78859 0.641053 0
M  V30 26690 H 2546.99 -3.79896 -0.813098 0
M  V30 26691 H 2548.66 -4.26634 1.75445 0
M  V30 26692 H 2546.9 -3.9851 1.71384 0
M  V30 26693 H 2547.57 -5.43555 0.961889 0
M  V30 26694 H 2550.05 -4.13546 -0.460305 0
M  V30 26695 H 2548.92 -5.38829 -1.04662 0
M  V30 26696 H 2549.19 -3.93992 -2.00556 0
M  V30 26697 N 2548.24 -0.224922 -1.55987 0
M  V30 26698 C 2549.17 0.678418 -2.23427 0
M  V30 26699 C 2550.16 1.19845 -1.20712 0
M  V30 26700 O 2551.34 1.24183 -1.49306 0
M  V30 26701 C 2548.47 1.88522 -2.91679 0
M  V30 26702 C 2547.42 1.49889 -4.00895 0
M  V30 26703 C 2546.75 2.78475 -4.5646 0
M  V30 26704 C 2548.05 0.68637 -5.1777 0
M  V30 26705 H 2549.74 0.116121 -2.99175 0
M  V30 26706 H 2547.29 0.0544107 -1.43897 0
M  V30 26707 H 2549.24 2.52264 -3.37551 0
M  V30 26708 H 2547.97 2.47254 -2.13384 0
M  V30 26709 H 2546.63 0.884922 -3.55759 0
M  V30 26710 H 2546.27 3.35358 -3.74892 0
M  V30 26711 H 2545.97 2.53358 -5.30173 0
M  V30 26712 H 2547.5 3.43153 -5.05053 0
M  V30 26713 H 2548.91 1.22757 -5.60003 0
M  V30 26714 H 2547.31 0.532154 -5.97736 0
M  V30 26715 H 2548.38 -0.306281 -4.83932 0
M  V30 26716 N 2549.72 1.57526 0.0484352 0
M  V30 26717 C 2550.67 2.06343 1.07356 0
M  V30 26718 C 2551.66 0.973294 1.38648 0
M  V30 26719 O 2552.87 1.1583 1.37781 0
M  V30 26720 H 2549.25 0.658227 0.363651 0
M  V30 26721 H 2551.22 2.91546 0.635864 0
M  V30 26722 C 2549.97 2.54233 2.37193 0
M  V30 26723 H 2549.29 3.37723 2.13971 0
M  V30 26724 H 2550.73 2.92121 3.07313 0
M  V30 26725 C 2549.19 1.43517 3.04802 0
M  V30 26726 O 2549.72 0.79041 3.93847 0
M  V30 26727 N 2547.92 1.17448 2.65809 0
M  V30 26728 H 2547.47 1.70062 1.93485 0
M  V30 26729 H 2547.43 0.435792 3.11365 0
M  V30 26730 N 2551.2 -0.32033 1.5431 0
M  V30 26731 C 2552.45 -1.05946 1.72926 0
M  V30 26732 C 2552.78 -1.87567 0.503218 0
M  V30 26733 O 2552.05 -1.87969 -0.499806 0
M  V30 26734 C 2552.34 -1.9815 3.0068 0
M  V30 26735 C 2552.19 -1.19838 4.33542 0
M  V30 26736 C 2553.51 -2.97625 3.24203 0
M  V30 26737 H 2550.63 -0.383763 0.629202 0
M  V30 26738 H 2553.27 -0.335821 1.87009 0
M  V30 26739 H 2551.42 -2.59854 2.88804 0
M  V30 26740 H 2553.09 -0.605693 4.57306 0
M  V30 26741 H 2551.34 -0.500708 4.30901 0
M  V30 26742 H 2552.01 -1.87558 5.19159 0
M  V30 26743 H 2554.48 -2.46044 3.35562 0
M  V30 26744 H 2553.36 -3.59322 4.14945 0
M  V30 26745 H 2553.62 -3.70256 2.41584 0
M  V30 26746 N 2552.68 -1.46438 -0.582558 0
M  V30 26747 C 2553.92 -1.5198 -1.34275 0
M  V30 26748 C 2554.26 -0.171007 -1.93446 0
M  V30 26749 O 2553.53 0.817577 -1.76482 0
M  V30 26750 C 2553.82 -2.61849 -2.47198 0
M  V30 26751 C 2553.67 -4.0626 -1.93062 0
M  V30 26752 C 2554.99 -2.67802 -3.49242 0
M  V30 26753 H 2552.11 -0.55329 -0.486866 0
M  V30 26754 H 2554.75 -1.78375 -0.654406 0
M  V30 26755 H 2552.9 -2.39474 -3.05916 0
M  V30 26756 H 2554.57 -4.39923 -1.388 0
M  V30 26757 H 2552.81 -4.15733 -1.2389 0
M  V30 26758 H 2553.48 -4.78865 -2.74577 0
M  V30 26759 H 2555.96 -2.87916 -3.00406 0
M  V30 26760 H 2554.84 -3.46496 -4.25713 0
M  V30 26761 H 2555.1 -1.73859 -4.06479 0
M  V30 26762 N 2554.16 0.827204 -1.34146 0
M  V30 26763 C 2555.4 1.59675 -1.27606 0
M  V30 26764 C 2555.76 1.91389 0.153001 0
M  V30 26765 O 2556.96 2.66609 0.342519 0
M  V30 26766 C 2555.23 2.86407 -2.13789 0
M  V30 26767 S 2556.79 3.76987 -2.24559 0
M  V30 26768 H 2553.61 0.547346 -0.453798 0
M  V30 26769 H 2556.21 0.977449 -1.69311 0
M  V30 26770 H 2554.92 2.61098 -3.16632 0
M  V30 26771 H 2554.45 3.53337 -1.72965 0
M  V30 26772 H 2556.46 4.7559 -1.41522 0
M  V30 26773 N 2555.63 1.17805 1.04688 0
M  V30 26774 C 2556.58 0.899381 2.12555 0
M  V30 26775 C 2557.55 -0.158742 1.6534 0
M  V30 26776 O 2558.74 -0.0204462 1.90789 0
M  V30 26777 C 2555.88 0.424375 3.42481 0
M  V30 26778 C 2554.99 1.5472 4.03343 0
M  V30 26779 C 2554.12 1.02556 5.21206 0
M  V30 26780 C 2553.16 2.12349 5.74086 0
M  V30 26781 N 2552.3 1.61624 6.83244 0
M  V30 26782 H 2557.14 1.82305 2.35731 0
M  V30 26783 H 2554.68 0.909179 1.15639 0
M  V30 26784 H 2556.64 0.130495 4.16996 0
M  V30 26785 H 2555.27 -0.462321 3.19472 0
M  V30 26786 H 2554.32 1.9567 3.26217 0
M  V30 26787 H 2555.63 2.37509 4.38624 0
M  V30 26788 H 2554.78 0.685824 6.02811 0
M  V30 26789 H 2553.52 0.167169 4.87413 0
M  V30 26790 H 2552.53 2.47174 4.91106 0
M  V30 26791 H 2553.75 2.98612 6.09924 0
M  V30 26792 H 2551.7 0.780647 6.51339 0
M  V30 26793 H 2551.62 2.38016 7.17554 0
M  V30 26794 H 2552.88 1.30559 7.68489 0
M  V30 26795 N 2557.11 -1.23497 0.979094 0
M  V30 26796 C 2558.06 -2.22685 0.489417 0
M  V30 26797 C 2559.05 -1.54913 -0.434843 0
M  V30 26798 O 2560.24 -1.75021 -0.26391 0
M  V30 26799 C 2557.37 -3.42669 -0.208118 0
M  V30 26800 C 2556.45 -4.17671 0.735637 0
M  V30 26801 N 2556.84 -4.69655 1.87771 0
M  V30 26802 C 2555.14 -4.42612 0.548703 0
M  V30 26803 C 2555.84 -5.26705 2.46895 0
M  V30 26804 N 2554.82 -5.1456 1.75296 0
M  V30 26805 H 2558.62 -2.60506 1.36066 0
M  V30 26806 H 2556.14 -1.39012 0.839605 0
M  V30 26807 H 2558.13 -4.12899 -0.576223 0
M  V30 26808 H 2556.79 -3.06365 -1.07567 0
M  V30 26809 H 2557.8 -4.66039 2.25893 0
M  V30 26810 H 2554.48 -4.166 -0.273933 0
M  V30 26811 H 2555.87 -5.77555 3.43336 0
M  V30 26812 N 2558.59 -0.750586 -1.38578 0
M  V30 26813 C 2559.83 -0.310294 -2.02031 0
M  V30 26814 C 2560.2 1.08665 -1.5829 0
M  V30 26815 O 2561.4 1.62589 -2.14052 0
M  V30 26816 C 2559.67 -0.42571 -3.54856 0
M  V30 26817 S 2561.23 -0.0675569 -4.38748 0
M  V30 26818 H 2558.04 -0.120566 -0.700703 0
M  V30 26819 H 2560.65 -0.980542 -1.69132 0
M  V30 26820 H 2559.35 -1.44341 -3.84179 0
M  V30 26821 H 2558.88 0.261825 -3.92528 0
M  V30 26822 H 2560.9 1.1438 -4.82837 0
M  V30 26823 N 2560.07 1.49477 -0.499425 0
M  V30 26824 C 2561.32 2.02049 0.0455641 0
M  V30 26825 C 2561.64 1.38141 1.3763 0
M  V30 26826 O 2560.91 0.536199 1.88419 0
M  V30 26827 H 2559.49 0.746737 0.0198285 0
M  V30 26828 H 2562.15 1.83517 -0.656307 0
M  V30 26829 H 2561.25 3.11601 0.17639 0
M  V30 26830 N 2561.55 0.233191 1.55865 0
M  V30 26831 C 2562.48 -0.704629 2.181 0
M  V30 26832 C 2563.49 -1.14897 1.15336 0
M  V30 26833 O 2564.68 -1.07811 1.42264 0
M  V30 26834 C 2561.78 -1.96772 2.75924 0
M  V30 26835 C 2560.95 -1.67706 4.03972 0
M  V30 26836 C 2560.01 -2.78837 4.46247 0
M  V30 26837 O 2559.04 -2.46809 5.12908 0
M  V30 26838 N 2560.24 -4.08044 4.12893 0
M  V30 26839 H 2563.01 -0.172205 2.99205 0
M  V30 26840 H 2560.57 0.0526229 1.61814 0
M  V30 26841 H 2562.56 -2.70331 3.01169 0
M  V30 26842 H 2561.13 -2.41031 1.99055 0
M  V30 26843 H 2560.35 -0.777323 3.8646 0
M  V30 26844 H 2561.64 -1.45732 4.87483 0
M  V30 26845 H 2561.04 -4.36903 3.59349 0
M  V30 26846 H 2559.59 -4.7811 4.43005 0
M  V30 26847 N 2563.03 -1.57549 -0.0400806 0
M  V30 26848 C 2563.97 -2.05833 -1.0441 0
M  V30 26849 C 2564.94 -0.945208 -1.36583 0
M  V30 26850 O 2566.13 -1.21505 -1.4711 0
M  V30 26851 C 2563.27 -2.53343 -2.34332 0
M  V30 26852 C 2562.38 -3.78402 -2.08413 0
M  V30 26853 C 2561.52 -4.14567 -3.32126 0
M  V30 26854 C 2560.55 -5.32575 -3.01712 0
M  V30 26855 N 2559.69 -5.64225 -4.17845 0
M  V30 26856 H 2564.53 -2.91364 -0.625391 0
M  V30 26857 H 2562.07 -1.44067 -0.297192 0
M  V30 26858 H 2564.03 -2.78951 -3.10229 0
M  V30 26859 H 2562.66 -1.70745 -2.73945 0
M  V30 26860 H 2561.71 -3.59944 -1.23062 0
M  V30 26861 H 2563.02 -4.64423 -1.8197 0
M  V30 26862 H 2562.17 -4.41245 -4.16398 0
M  V30 26863 H 2560.91 -3.27176 -3.61673 0
M  V30 26864 H 2559.92 -5.05661 -2.1584 0
M  V30 26865 H 2561.14 -6.2161 -2.73455 0
M  V30 26866 H 2559.09 -4.79794 -4.47364 0
M  V30 26867 H 2559.01 -6.44732 -3.94787 0
M  V30 26868 H 2560.27 -5.95473 -5.03022 0
M  V30 26869 N 2564.5 0.312142 -1.54478 0
M  V30 26870 C 2565.73 1.06796 -1.77206 0
M  V30 26871 C 2566.15 1.81321 -0.526145 0
M  V30 26872 O 2565.5 1.75414 0.503616 0
M  V30 26873 C 2565.55 2.0572 -2.97257 0
M  V30 26874 O 2565.28 1.34221 -4.17033 0
M  V30 26875 C 2566.78 2.93429 -3.32286 0
M  V30 26876 H 2564 0.317197 -0.591293 0
M  V30 26877 H 2566.54 0.354799 -2.01399 0
M  V30 26878 H 2564.7 2.72555 -2.75305 0
M  V30 26879 H 2565.11 2.00562 -4.84639 0
M  V30 26880 H 2566.58 3.58714 -4.19558 0
M  V30 26881 H 2567.06 3.61138 -2.49951 0
M  V30 26882 H 2567.67 2.32141 -3.56357 0
M  V30 26883 N 2565.98 1.46745 0.574784 0
M  V30 26884 C 2567.21 1.56049 1.35854 0
M  V30 26885 C 2567.62 0.204398 1.8769 0
M  V30 26886 O 2566.98 -0.799601 1.64051 0
M  V30 26887 C 2567.03 2.57168 2.54061 0
M  V30 26888 O 2566.75 3.8751 2.04371 0
M  V30 26889 C 2568.25 2.76489 3.4651 0
M  V30 26890 H 2565.47 0.527473 0.414744 0
M  V30 26891 H 2568.02 1.92219 0.698001 0
M  V30 26892 H 2566.17 2.2398 3.16088 0
M  V30 26893 H 2566.59 4.42615 2.81411 0
M  V30 26894 H 2568.06 3.51145 4.25912 0
M  V30 26895 H 2568.54 1.83678 3.98947 0
M  V30 26896 H 2569.14 3.10804 2.90312 0
M  V30 26897 N 2567.46 -0.820078 1.34583 0
M  V30 26898 C 2568.69 -1.60811 1.30183 0
M  V30 26899 C 2569.1 -1.88396 -0.123518 0
M  V30 26900 O 2568.46 -1.47737 -1.07145 0
M  V30 26901 C 2568.51 -2.94735 2.09317 0
M  V30 26902 O 2568.23 -2.68352 3.46293 0
M  V30 26903 C 2569.73 -3.89132 2.12347 0
M  V30 26904 H 2566.95 -0.499774 0.447735 0
M  V30 26905 H 2569.5 -1.02014 1.77238 0
M  V30 26906 H 2567.65 -3.50082 1.65895 0
M  V30 26907 H 2568.07 -3.53767 3.87233 0
M  V30 26908 H 2569.54 -4.80257 2.72134 0
M  V30 26909 H 2570.02 -4.24716 1.11861 0
M  V30 26910 H 2570.62 -3.39721 2.5587 0
M  V30 26911 N 2568.94 -1.18359 -1.04062 0
M  V30 26912 C 2569.87 -0.93415 -2.14 0
M  V30 26913 C 2570.85 0.128156 -1.69617 0
M  V30 26914 O 2572.03 -0.0244434 -1.94185 0
M  V30 26915 C 2569.16 -0.459127 -3.44252 0
M  V30 26916 C 2568.12 -1.46192 -4.02258 0
M  V30 26917 C 2567.44 -0.844415 -5.2799 0
M  V30 26918 C 2568.74 -2.83864 -4.38427 0
M  V30 26919 H 2570.44 -1.85356 -2.35124 0
M  V30 26920 H 2567.98 -0.892624 -1.12997 0
M  V30 26921 H 2569.94 -0.271981 -4.20521 0
M  V30 26922 H 2568.66 0.495856 -3.22814 0
M  V30 26923 H 2567.32 -1.63601 -3.28071 0
M  V30 26924 H 2566.97 0.117756 -5.02862 0
M  V30 26925 H 2566.67 -1.51394 -5.67762 0
M  V30 26926 H 2568.19 -0.6678 -6.06937 0
M  V30 26927 H 2569.61 -2.70107 -5.05683 0
M  V30 26928 H 2568 -3.475 -4.89248 0
M  V30 26929 H 2569.07 -3.37412 -3.48254 0
M  V30 26930 N 2570.42 1.22976 -0.98563 0
M  V30 26931 C 2571.64 1.95558 -0.675617 0
M  V30 26932 C 2572.06 1.72899 0.758382 0
M  V30 26933 O 2571.42 1.02359 1.51092 0
M  V30 26934 C 2571.47 3.48438 -0.962992 0
M  V30 26935 O 2571.19 3.70332 -2.34063 0
M  V30 26936 C 2572.69 4.38213 -0.669662 0
M  V30 26937 H 2569.91 0.622474 -0.250534 0
M  V30 26938 H 2572.45 1.56325 -1.31843 0
M  V30 26939 H 2570.61 3.85666 -0.366101 0
M  V30 26940 H 2571.02 4.64587 -2.43432 0
M  V30 26941 H 2572.5 5.44261 -0.921063 0
M  V30 26942 H 2572.97 4.37408 0.396307 0
M  V30 26943 H 2573.58 4.066 -1.24727 0
M  V30 26944 N 2571.89 0.757924 1.38178 0
M  V30 26945 C 2573.14 0.315396 1.99624 0
M  V30 26946 C 2573.46 -1.10796 1.60465 0
M  V30 26947 O 2572.73 -1.7584 0.863538 0
M  V30 26948 H 2571.31 0.113624 0.738308 0
M  V30 26949 H 2573.97 0.972982 1.68876 0
M  V30 26950 H 2573.07 0.381986 3.09754 0
M  V30 26951 N 2573.37 -1.4921 0.507345 0
M  V30 26952 C 2574.62 -2.0277 -0.0349691 0
M  V30 26953 C 2574.95 -1.38571 -1.36057 0
M  V30 26954 O 2574.23 -0.523575 -1.8732 0
M  V30 26955 C 2574.51 -3.59646 -0.180852 0
M  V30 26956 C 2574.36 -4.34362 1.16832 0
M  V30 26957 C 2575.68 -4.30409 -0.918482 0
M  V30 26958 H 2572.8 -0.736914 -0.0112344 0
M  V30 26959 H 2575.44 -1.78169 0.659987 0
M  V30 26960 H 2573.59 -3.80737 -0.772759 0
M  V30 26961 H 2575.26 -4.2475 1.7996 0
M  V30 26962 H 2573.51 -3.9667 1.75601 0
M  V30 26963 H 2574.18 -5.42504 1.01949 0
M  V30 26964 H 2576.65 -4.14011 -0.416417 0
M  V30 26965 H 2575.53 -5.39909 -0.98941 0
M  V30 26966 H 2575.79 -3.96097 -1.96366 0
M  V30 26967 N 2574.85 -0.241454 -1.55739 0
M  V30 26968 C 2575.76 0.671266 -2.24791 0
M  V30 26969 C 2576.78 1.1977 -1.26219 0
M  V30 26970 O 2577.95 1.23512 -1.59081 0
M  V30 26971 C 2575.02 1.85391 -2.9297 0
M  V30 26972 C 2574.08 1.36749 -4.06938 0
M  V30 26973 C 2573.31 2.49376 -4.71855 0
M  V30 26974 O 2573.53 3.6798 -4.35829 0
M  V30 26975 O 2572.47 2.19444 -5.60471 0
M  V30 26976 H 2576.29 0.112913 -3.0349 0
M  V30 26977 H 2573.88 -0.0101776 -1.49397 0
M  V30 26978 H 2575.76 2.54417 -3.35931 0
M  V30 26979 H 2574.44 2.39998 -2.17215 0
M  V30 26980 H 2573.34 0.644661 -3.68504 0
M  V30 26981 H 2574.68 0.867561 -4.84494 0
M  V30 26982 N 2576.33 1.57568 0.0317248 0
M  V30 26983 C 2577.29 2.05362 1.0178 0
M  V30 26984 C 2578.29 0.957276 1.29201 0
M  V30 26985 O 2579.48 1.22098 1.24249 0
M  V30 26986 C 2576.61 2.46831 2.35133 0
M  V30 26987 H 2577.81 2.93734 0.60501 0
M  V30 26988 H 2575.36 1.53799 0.278487 0
M  V30 26989 H 2576.09 1.61607 2.81165 0
M  V30 26990 H 2575.88 3.2687 2.1656 0
M  V30 26991 H 2577.37 2.84244 3.05933 0
M  V30 26992 N 2577.81 -0.303946 1.54641 0
M  V30 26993 C 2579.05 -1.04106 1.7404 0
M  V30 26994 C 2579.39 -1.87023 0.523084 0
M  V30 26995 O 2578.66 -1.88488 -0.479841 0
M  V30 26996 C 2578.94 -1.9495 3.02765 0
M  V30 26997 C 2578.8 -1.15233 4.34789 0
M  V30 26998 C 2580.12 -2.94169 3.27342 0
M  V30 26999 H 2577.23 -0.377068 0.633237 0
M  V30 27000 H 2579.88 -0.315968 1.87354 0
M  V30 27001 H 2578.03 -2.56776 2.91544 0
M  V30 27002 H 2579.7 -0.557155 4.57923 0
M  V30 27003 H 2577.94 -0.454977 4.31407 0
M  V30 27004 H 2578.61 -1.82041 5.21119 0
M  V30 27005 H 2581.09 -2.42471 3.38152 0
M  V30 27006 H 2579.96 -3.549 4.18733 0
M  V30 27007 H 2580.23 -3.67673 2.45497 0
M  V30 27008 N 2579.28 -1.47047 -0.566994 0
M  V30 27009 C 2580.22 -1.53329 -1.69013 0
M  V30 27010 C 2581.2 -0.386153 -1.57948 0
M  V30 27011 O 2582.38 -0.59256 -1.78944 0
M  V30 27012 C 2579.51 -1.42663 -3.07189 0
M  V30 27013 C 2578.55 -2.61756 -3.36728 0
M  V30 27014 S 2579.39 -4.24018 -3.27061 0
M  V30 27015 C 2580.54 -4.15889 -4.67747 0
M  V30 27016 H 2580.77 -2.48351 -1.63429 0
M  V30 27017 H 2578.31 -1.35126 -0.747024 0
M  V30 27018 H 2580.27 -1.37197 -3.86894 0
M  V30 27019 H 2578.93 -0.490424 -3.10248 0
M  V30 27020 H 2578.12 -2.5033 -4.37437 0
M  V30 27021 H 2577.72 -2.64294 -2.64622 0
M  V30 27022 H 2580.01 -3.83539 -5.58484 0
M  V30 27023 H 2580.96 -5.1665 -4.8423 0
M  V30 27024 H 2581.36 -3.46897 -4.45335 0
M  V30 27025 N 2580.76 0.812929 -1.35016 0
M  V30 27026 C 2581.99 1.59886 -1.30844 0
M  V30 27027 C 2582.4 1.88835 0.117542 0
M  V30 27028 O 2581.74 1.48741 1.07805 0
M  V30 27029 C 2581.81 2.95928 -2.04125 0
M  V30 27030 C 2581.47 2.89826 -3.53341 0
M  V30 27031 C 2582.47 2.63707 -4.48057 0
M  V30 27032 C 2580.15 3.09143 -3.95899 0
M  V30 27033 C 2582.15 2.56971 -5.83305 0
M  V30 27034 C 2579.83 3.02031 -5.31244 0
M  V30 27035 C 2580.83 2.7598 -6.24759 0
M  V30 27036 O 2580.52 2.68819 -7.57622 0
M  V30 27037 H 2580.25 0.503362 -0.451224 0
M  V30 27038 H 2582.8 1.01874 -1.78356 0
M  V30 27039 H 2581.03 3.55898 -1.51241 0
M  V30 27040 H 2582.72 3.57018 -1.93113 0
M  V30 27041 H 2583.49 2.48508 -4.16496 0
M  V30 27042 H 2579.37 3.28433 -3.23501 0
M  V30 27043 H 2582.91 2.36558 -6.56267 0
M  V30 27044 H 2578.81 3.16786 -5.62421 0
M  V30 27045 H 2579.58 2.84474 -7.67474 0
M  V30 27046 N 2582.24 1.18909 1.03433 0
M  V30 27047 C 2583.17 0.865247 2.1116 0
M  V30 27048 C 2584.15 -0.175444 1.61651 0
M  V30 27049 O 2585.34 -0.0529798 1.88426 0
M  V30 27050 C 2582.46 0.293927 3.37422 0
M  V30 27051 C 2581.51 1.31281 4.05793 0
M  V30 27052 S 2582.34 2.87118 4.52022 0
M  V30 27053 C 2583.5 2.31514 5.81508 0
M  V30 27054 H 2583.73 1.77758 2.38305 0
M  V30 27055 H 2581.26 1.01564 1.16293 0
M  V30 27056 H 2583.22 -0.029185 4.1049 0
M  V30 27057 H 2581.88 -0.596628 3.08382 0
M  V30 27058 H 2581.08 0.862067 4.96573 0
M  V30 27059 H 2580.68 1.58248 3.38871 0
M  V30 27060 H 2582.97 1.70169 6.55781 0
M  V30 27061 H 2583.91 3.2062 6.31355 0
M  V30 27062 H 2584.32 1.74296 5.36918 0
M  V30 27063 N 2583.72 -1.22452 0.992137 0
M  V30 27064 C 2584.97 -1.90802 0.666249 0
M  V30 27065 C 2585.29 -1.77648 -0.80412 0
M  V30 27066 O 2584.56 -1.16321 -1.57627 0
M  V30 27067 H 2583.14 -0.706221 0.243435 0
M  V30 27068 H 2585.8 -1.48823 1.25848 0
M  V30 27069 H 2584.9 -2.9798 0.928121 0
M  V30 27070 N 2585.2 -0.765242 -1.37774 0
M  V30 27071 C 2586.42 -0.337803 -2.04124 0
M  V30 27072 C 2586.84 1.03782 -1.57717 0
M  V30 27073 O 2586.2 1.66129 -0.755476 0
M  V30 27074 C 2586.25 -0.364505 -3.59658 0
M  V30 27075 O 2585.97 -1.68586 -4.04364 0
M  V30 27076 C 2587.47 0.0753442 -4.43236 0
M  V30 27077 H 2584.69 -0.142502 -0.655694 0
M  V30 27078 H 2587.23 -1.03735 -1.76237 0
M  V30 27079 H 2585.39 0.286403 -3.8634 0
M  V30 27080 H 2585.8 -1.62001 -4.98854 0
M  V30 27081 H 2587.28 0.00550365 -5.52 0
M  V30 27082 H 2587.75 1.12484 -4.24552 0
M  V30 27083 H 2588.36 -0.547129 -4.21766 0
M  V30 27084 N 2586.67 1.48939 -0.515251 0
M  V30 27085 C 2587.6 2.32215 0.244587 0
M  V30 27086 C 2588.59 1.41159 0.949111 0
M  V30 27087 O 2589.77 1.70058 0.937753 0
M  V30 27088 C 2586.9 3.22015 1.30091 0
M  V30 27089 C 2585.85 4.21978 0.715412 0
M  V30 27090 C 2585.18 5.00811 1.8733 0
M  V30 27091 C 2586.48 5.2142 -0.303073 0
M  V30 27092 H 2588.17 2.95991 -0.450553 0
M  V30 27093 H 2585.72 1.42338 -0.218123 0
M  V30 27094 H 2587.67 3.79092 1.84031 0
M  V30 27095 H 2586.4 2.56211 2.02543 0
M  V30 27096 H 2585.06 3.66067 0.197651 0
M  V30 27097 H 2584.7 4.31443 2.58585 0
M  V30 27098 H 2584.4 5.68459 1.48754 0
M  V30 27099 H 2585.93 5.60736 2.41677 0
M  V30 27100 H 2587.34 5.73107 0.148701 0
M  V30 27101 H 2585.74 5.97038 -0.605425 0
M  V30 27102 H 2586.81 4.69456 -1.21403 0
M  V30 27103 N 2588.15 0.249709 1.55609 0
M  V30 27104 C 2589.38 -0.381269 2.03865 0
M  V30 27105 C 2589.8 -1.50546 1.12771 0
M  V30 27106 O 2589.16 -1.80894 0.121221 0
M  V30 27107 C 2589.21 -0.863754 3.50102 0
M  V30 27108 O 2588.31 -1.97311 3.62135 0
M  V30 27109 H 2587.65 -0.0827079 0.658829 0
M  V30 27110 H 2590.18 0.376587 2.01104 0
M  V30 27111 H 2590.19 -1.16623 3.90977 0
M  V30 27112 H 2588.87 -0.0411085 4.1588 0
M  V30 27113 H 2587.45 -1.67512 3.33158 0
M  V30 27114 N 2589.63 -1.57583 -0.0233682 0
M  V30 27115 C 2590.86 -1.93514 -0.723597 0
M  V30 27116 C 2591.27 -0.848362 -1.69114 0
M  V30 27117 O 2590.61 0.183452 -1.82782 0
M  V30 27118 C 2590.67 -3.25285 -1.53069 0
M  V30 27119 C 2590.34 -4.51175 -0.727308 0
M  V30 27120 C 2591.34 -5.19894 -0.025101 0
M  V30 27121 C 2589.02 -4.97674 -0.680168 0
M  V30 27122 C 2591.01 -6.33394 0.713486 0
M  V30 27123 C 2588.7 -6.11068 0.0621597 0
M  V30 27124 C 2589.7 -6.78784 0.757741 0
M  V30 27125 O 2589.39 -7.90009 1.48801 0
M  V30 27126 H 2589.12 -0.643192 -0.208039 0
M  V30 27127 H 2591.67 -2.05393 0.016785 0
M  V30 27128 H 2589.9 -3.09748 -2.31502 0
M  V30 27129 H 2591.59 -3.465 -2.11407 0
M  V30 27130 H 2592.36 -4.84972 -0.0525151 0
M  V30 27131 H 2588.24 -4.44808 -1.21109 0
M  V30 27132 H 2591.78 -6.86183 1.25695 0
M  V30 27133 H 2587.68 -6.45435 0.0914768 0
M  V30 27134 H 2588.45 -8.06398 1.40228 0
M  V30 27135 N 2591.11 0.29574 -1.548 0
M  V30 27136 C 2592.39 1.0502 -1.65016 0
M  V30 27137 C 2592.77 2.05048 -0.501841 0
M  V30 27138 O 2592.11 2.22944 0.50083 0
M  V30 27139 C 2592.32 1.72736 -3.03255 0
M  V30 27140 C 2593.67 2.24739 -3.60246 0
M  V30 27141 O 2594.7 1.8276 -3.05741 0
M  V30 27142 O 2593.56 3.01673 -4.55693 0
M  V30 27143 H 2590.65 0.485732 -0.669323 0
M  V30 27144 H 2593.2 0.293409 -1.67144 0
M  V30 27145 H 2591.97 1.00131 -3.78272 0
M  V30 27146 H 2591.59 2.55158 -3.04927 0
M  V30 27147 N 2592.59 1.47346 0.559187 0
M  V30 27148 C 2593.54 1.60088 1.68744 0
M  V30 27149 C 2594.53 0.468278 1.62799 0
M  V30 27150 O 2595.74 0.646006 1.68008 0
M  V30 27151 H 2592.11 0.503769 0.55832 0
M  V30 27152 H 2594.08 2.54904 1.55133 0
M  V30 27153 C 2592.83 1.63048 3.07101 0
M  V30 27154 H 2592.15 2.49547 3.12356 0
M  V30 27155 H 2593.59 1.76013 3.8574 0
M  V30 27156 C 2592.05 0.363416 3.34934 0
M  V30 27157 O 2592.58 -0.536346 3.98103 0
M  V30 27158 N 2590.79 0.244051 2.89573 0
M  V30 27159 H 2590.34 0.977175 2.38346 0
M  V30 27160 H 2590.29 -0.602782 3.08567 0
M  V30 27161 N 2594.07 -0.805758 1.35445 0
M  V30 27162 C 2595 -1.93224 1.31099 0
M  V30 27163 C 2595.98 -1.69088 0.185274 0
M  V30 27164 O 2597.16 -1.90439 0.380366 0
M  V30 27165 C 2594.29 -3.29981 1.08305 0
M  V30 27166 C 2593.25 -3.68601 2.17526 0
M  V30 27167 C 2592.57 -5.03529 1.79896 0
M  V30 27168 C 2593.87 -3.78892 3.59497 0
M  V30 27169 H 2595.57 -1.97118 2.25355 0
M  V30 27170 H 2593.11 -0.946977 1.08482 0
M  V30 27171 H 2595.06 -4.08389 1.03904 0
M  V30 27172 H 2593.79 -3.26431 0.104942 0
M  V30 27173 H 2592.45 -2.92478 2.21025 0
M  V30 27174 H 2592.1 -4.96484 0.807017 0
M  V30 27175 H 2591.8 -5.30339 2.5301 0
M  V30 27176 H 2593.32 -5.84376 1.77022 0
M  V30 27177 H 2594.73 -4.4753 3.58315 0
M  V30 27178 H 2593.13 -4.17173 4.31378 0
M  V30 27179 H 2594.2 -2.80424 3.95589 0
M  V30 27180 N 2595.54 -1.19456 -1.02801 0
M  V30 27181 C 2596.49 -0.933083 -2.11098 0
M  V30 27182 C 2597.46 0.132418 -1.65571 0
M  V30 27183 O 2598.65 -0.0099093 -1.90797 0
M  V30 27184 C 2595.79 -0.478807 -3.41762 0
M  V30 27185 C 2594.9 -1.61117 -4.00831 0
M  V30 27186 C 2594.03 -1.10834 -5.19509 0
M  V30 27187 C 2593.07 -2.21455 -5.70635 0
M  V30 27188 N 2592.21 -1.72473 -6.80586 0
M  V30 27189 H 2597.05 -1.86032 -2.32801 0
M  V30 27190 H 2594.59 -0.927461 -1.14178 0
M  V30 27191 H 2596.54 -0.196819 -4.16735 0
M  V30 27192 H 2595.17 0.411437 -3.20167 0
M  V30 27193 H 2594.23 -2.00835 -3.23063 0
M  V30 27194 H 2595.54 -2.44457 -4.3479 0
M  V30 27195 H 2594.69 -0.781639 -6.01644 0
M  V30 27196 H 2593.43 -0.244691 -4.87086 0
M  V30 27197 H 2592.44 -2.54955 -4.87112 0
M  V30 27198 H 2593.66 -3.08278 -6.05097 0
M  V30 27199 H 2591.61 -0.884171 -6.50014 0
M  V30 27200 H 2591.52 -2.49401 -7.13677 0
M  V30 27201 H 2592.79 -1.42768 -7.66314 0
M  V30 27202 N 2597.02 1.21924 -0.998617 0
M  V30 27203 C 2598.25 1.94831 -0.69632 0
M  V30 27204 C 2598.66 1.73693 0.740001 0
M  V30 27205 O 2598.02 1.03956 1.49998 0
M  V30 27206 C 2598.07 3.47397 -0.999894 0
M  V30 27207 O 2597.79 3.67829 -2.37978 0
M  V30 27208 C 2599.29 4.37478 -0.716102 0
M  V30 27209 H 2596.51 0.619782 -0.257122 0
M  V30 27210 H 2599.06 1.54918 -1.33494 0
M  V30 27211 H 2597.21 3.85256 -0.406986 0
M  V30 27212 H 2597.63 4.61979 -2.48346 0
M  V30 27213 H 2599.1 5.43254 -0.978737 0
M  V30 27214 H 2599.58 4.37804 0.349891 0
M  V30 27215 H 2600.18 4.05254 -1.29032 0
M  V30 27216 N 2598.5 0.772537 1.37367 0
M  V30 27217 C 2599.75 0.336551 1.99278 0
M  V30 27218 C 2600.07 -1.09088 1.61632 0
M  V30 27219 O 2599.34 -1.74915 0.88214 0
M  V30 27220 H 2597.92 0.121448 0.737061 0
M  V30 27221 H 2600.58 0.990839 1.67834 0
M  V30 27222 H 2599.68 0.414818 3.09331 0
M  V30 27223 N 2599.98 -1.48664 0.523142 0
M  V30 27224 C 2601.22 -2.02796 -0.0134606 0
M  V30 27225 C 2601.56 -1.40007 -1.3458 0
M  V30 27226 O 2600.83 -0.543414 -1.86755 0
M  V30 27227 C 2601.11 -3.59817 -0.142697 0
M  V30 27228 C 2600.97 -4.33098 1.21433 0
M  V30 27229 C 2602.29 -4.31359 -0.87278 0
M  V30 27230 H 2599.41 -0.736992 -0.00341778 0
M  V30 27231 H 2602.05 -1.77459 0.678847 0
M  V30 27232 H 2600.2 -3.81535 -0.732334 0
M  V30 27233 H 2601.87 -4.22817 1.84455 0
M  V30 27234 H 2600.11 -3.94785 1.79798 0
M  V30 27235 H 2600.78 -5.41392 1.07697 0
M  V30 27236 H 2603.26 -4.14429 -0.372482 0
M  V30 27237 H 2602.14 -5.40928 -0.93209 0
M  V30 27238 H 2602.4 -3.98157 -1.92154 0
M  V30 27239 N 2601.46 -0.257958 -1.55475 0
M  V30 27240 C 2602.68 0.370453 -2.04065 0
M  V30 27241 C 2603.11 1.49946 -1.13568 0
M  V30 27242 O 2602.46 1.80827 -0.130812 0
M  V30 27243 C 2602.51 0.845176 -3.50555 0
M  V30 27244 O 2601.62 1.95388 -3.63177 0
M  V30 27245 H 2600.96 0.0792128 -0.659258 0
M  V30 27246 H 2603.49 -0.387247 -2.00902 0
M  V30 27247 H 2603.5 1.14548 -3.9159 0
M  V30 27248 H 2602.17 0.0190528 -4.15896 0
M  V30 27249 H 2600.75 1.65742 -3.34042 0
M  V30 27250 N 2602.93 1.57593 0.0150108 0
M  V30 27251 C 2604.18 1.89086 0.702082 0
M  V30 27252 C 2604.5 0.858308 1.75762 0
M  V30 27253 O 2605.7 1.06295 2.49827 0
M  V30 27254 C 2604.16 3.35606 1.29986 0
M  V30 27255 C 2603.77 4.47125 0.279929 0
M  V30 27256 C 2605.51 3.7623 1.96599 0
M  V30 27257 C 2603.42 5.84713 0.886846 0
M  V30 27258 H 2602.35 0.705527 0.265985 0
M  V30 27259 H 2605 1.83449 -0.0430731 0
M  V30 27260 H 2603.38 3.36033 2.09519 0
M  V30 27261 H 2604.55 4.5819 -0.489711 0
M  V30 27262 H 2602.87 4.15424 -0.284908 0
M  V30 27263 H 2605.47 4.76352 2.42885 0
M  V30 27264 H 2605.81 3.08957 2.79019 0
M  V30 27265 H 2606.34 3.78038 1.23822 0
M  V30 27266 H 2603.08 6.55421 0.101761 0
M  V30 27267 H 2602.6 5.7734 1.626 0
M  V30 27268 H 2604.28 6.31893 1.38999 0
M  V30 27269 N 2604.41 -0.287527 1.54955 0
M  V30 27270 C 2605.82 -0.859604 1.65734 0
M  V30 27271 C 2606.17 -1.87591 0.5748 0
M  V30 27272 O 2605.3 -2.14498 -0.286261 0
M  V30 27273 C 2605.89 -1.56592 3.00441 0
M  V30 27274 C 2604.45 -2.08622 3.13295 0
M  V30 27275 C 2603.6 -0.92337 2.61475 0
M  V30 27276 H 2606.55 -0.0642059 1.5857 0
M  V30 27277 H 2606.57 -2.43219 2.92617 0
M  V30 27278 H 2606.08 -0.825986 3.79208 0
M  V30 27279 H 2604.19 -2.85621 2.39273 0
M  V30 27280 H 2604.3 -2.3115 4.19651 0
M  V30 27281 H 2602.66 -1.31271 2.18266 0
M  V30 27282 H 2603.45 -0.197181 3.42733 0
M  V30 27283 N 2605.89 -1.47641 -0.551365 0
M  V30 27284 C 2607.13 -1.56148 -1.31899 0
M  V30 27285 C 2607.49 -0.221046 -1.90723 0
M  V30 27286 O 2608.7 -0.180992 -2.6819 0
M  V30 27287 C 2606.97 -2.65271 -2.39512 0
M  V30 27288 S 2608.53 -2.93401 -3.26284 0
M  V30 27289 H 2605.34 -0.551326 -0.448956 0
M  V30 27290 H 2607.95 -1.85052 -0.630567 0
M  V30 27291 H 2606.65 -3.61254 -1.94741 0
M  V30 27292 H 2606.18 -2.38201 -3.13088 0
M  V30 27293 H 2608.2 -2.31062 -4.39118 0
M  V30 27294 N 2607.37 0.798563 -1.3587 0
M  V30 27295 C 2608.61 1.55834 -1.29783 0
M  V30 27296 C 2608.95 1.93795 0.125287 0
M  V30 27297 O 2608.22 1.61989 1.07656 0
M  V30 27298 C 2608.51 2.84158 -2.21193 0
M  V30 27299 C 2608.36 2.52622 -3.72159 0
M  V30 27300 C 2609.68 3.8592 -2.11551 0
M  V30 27301 H 2606.8 0.565375 -0.472779 0
M  V30 27302 H 2609.44 0.918163 -1.66342 0
M  V30 27303 H 2607.59 3.38788 -1.90145 0
M  V30 27304 H 2609.26 2.04113 -4.13685 0
M  V30 27305 H 2607.5 1.85697 -3.92045 0
M  V30 27306 H 2608.17 3.44234 -4.31517 0
M  V30 27307 H 2610.65 3.40712 -2.38861 0
M  V30 27308 H 2609.53 4.73473 -2.77696 0
M  V30 27309 H 2609.79 4.28198 -1.09994 0
M  V30 27310 N 2608.85 1.19999 1.02166 0
M  V30 27311 C 2610.09 1.01828 1.7723 0
M  V30 27312 C 2610.45 -0.442395 1.86834 0
M  V30 27313 O 2611.65 -0.744144 2.58294 0
M  V30 27314 C 2609.92 1.67727 3.15598 0
M  V30 27315 S 2611.48 1.64591 4.06762 0
M  V30 27316 H 2608.3 0.365244 0.610015 0
M  V30 27317 H 2610.9 1.52469 1.22366 0
M  V30 27318 H 2609.61 2.73223 3.06231 0
M  V30 27319 H 2609.14 1.17196 3.75538 0
M  V30 27320 H 2611.15 0.675196 4.91585 0
M  V30 27321 N 2610.32 -1.21392 1.00507 0
M  V30 27322 C 2611.57 -1.90085 0.686449 0
M  V30 27323 C 2611.89 -1.78491 -0.785233 0
M  V30 27324 O 2611.16 -1.17986 -1.56385 0
M  V30 27325 H 2609.74 -0.703599 0.250912 0
M  V30 27326 H 2612.41 -1.4748 1.27419 0
M  V30 27327 H 2611.5 -2.96979 0.959674 0
M  V30 27328 N 2611.8 -0.779811 -1.36955 0
M  V30 27329 C 2613.22 -0.460369 -1.52816 0
M  V30 27330 C 2613.42 1.0228 -1.73612 0
M  V30 27331 O 2612.47 1.80849 -1.7621 0
M  V30 27332 C 2613.79 -1.28246 -2.71981 0
M  V30 27333 C 2615.34 -1.27517 -2.85847 0
M  V30 27334 C 2615.81 -2.08079 -4.08004 0
M  V30 27335 N 2617.3 -2.05475 -4.15132 0
M  V30 27336 C 2618.04 -2.64586 -5.08706 0
M  V30 27337 N 2617.53 -3.32517 -6.07787 0
M  V30 27338 N 2619.33 -2.54372 -5.0125 0
M  V30 27339 H 2611.48 -1.74071 -1.2171 0
M  V30 27340 H 2613.74 -0.739407 -0.593281 0
M  V30 27341 H 2613.45 -2.33385 -2.63105 0
M  V30 27342 H 2613.32 -0.917153 -3.6588 0
M  V30 27343 H 2615.71 -0.231738 -2.94189 0
M  V30 27344 H 2615.79 -1.68018 -1.92883 0
M  V30 27345 H 2615.43 -3.12448 -4.00423 0
M  V30 27346 H 2615.36 -1.64956 -5.00097 0
M  V30 27347 H 2617.85 -1.56026 -3.44187 0
M  V30 27348 H 2618.17 -3.74974 -6.75732 0
M  V30 27349 H 2616.51 -3.36617 -6.08041 0
M  V30 27350 H 2619.7 -2.0091 -4.22792 0
M  V30 27351 H 2619.87 -3.00732 -5.7399 0
M  V30 27352 N 2613.28 1.48384 -0.531019 0
M  V30 27353 C 2614.56 1.95485 0.0671445 0
M  V30 27354 C 2614.94 1.47327 1.51189 0
M  V30 27355 O 2614.29 0.70024 2.17506 0
M  V30 27356 C 2614.5 3.48962 -0.0511819 0
M  V30 27357 C 2615.84 4.24464 0.107557 0
M  V30 27358 O 2616.87 3.56193 0.0225622 0
M  V30 27359 O 2615.73 5.45752 0.285876 0
M  V30 27360 H 2612.82 0.823245 0.078722 0
M  V30 27361 H 2615.37 1.58901 -0.59569 0
M  V30 27362 H 2614.14 3.76738 -1.05754 0
M  V30 27363 H 2613.76 3.92243 0.650456 0
M  V30 27364 N 2614.76 0.2662 1.55336 0
M  V30 27365 C 2615.72 -0.611962 2.20879 0
M  V30 27366 C 2616.72 -1.08814 1.1839 0
M  V30 27367 O 2617.91 -0.989749 1.43351 0
M  V30 27368 C 2615.04 -1.84327 2.86769 0
M  V30 27369 H 2616.24 -0.0398191 2.99874 0
M  V30 27370 H 2613.79 0.0167584 1.56291 0
M  V30 27371 H 2614.52 -2.45615 2.11763 0
M  V30 27372 H 2614.31 -1.50984 3.61865 0
M  V30 27373 H 2615.8 -2.46795 3.36871 0
M  V30 27374 N 2616.24 -1.57599 -0.0066531 0
M  V30 27375 C 2617.46 -1.94553 -0.704053 0
M  V30 27376 C 2617.88 -0.867775 -1.67676 0
M  V30 27377 O 2617.24 0.153893 -1.8185 0
M  V30 27378 C 2617.29 -3.31507 -1.44171 0
M  V30 27379 O 2617.01 -4.35145 -0.508021 0
M  V30 27380 C 2618.51 -3.8288 -2.23422 0
M  V30 27381 H 2615.73 -0.641579 -0.196512 0
M  V30 27382 H 2618.27 -2.04456 0.0424889 0
M  V30 27383 H 2616.43 -3.22933 -2.13994 0
M  V30 27384 H 2616.84 -5.14332 -1.02773 0
M  V30 27385 H 2618.32 -4.81155 -2.70543 0
M  V30 27386 H 2618.79 -3.15239 -3.05812 0
M  V30 27387 H 2619.4 -3.9461 -1.5863 0
M  V30 27388 N 2617.72 0.279305 -1.55105 0
M  V30 27389 C 2618.65 1.36724 -1.83955 0
M  V30 27390 C 2619.66 1.45832 -0.723668 0
M  V30 27391 O 2620.85 1.47761 -1.00144 0
M  V30 27392 C 2617.95 2.74909 -1.98188 0
M  V30 27393 C 2617.12 2.88469 -3.28792 0
M  V30 27394 C 2616.18 4.07289 -3.3317 0
M  V30 27395 O 2615.21 3.98346 -4.06583 0
M  V30 27396 N 2616.41 5.18959 -2.60118 0
M  V30 27397 H 2619.17 1.12323 -2.77855 0
M  V30 27398 H 2616.74 0.469414 -1.54946 0
M  V30 27399 H 2618.73 3.52679 -1.98494 0
M  V30 27400 H 2617.3 2.9216 -1.11183 0
M  V30 27401 H 2616.52 1.97635 -3.41078 0
M  V30 27402 H 2617.81 2.94456 -4.14938 0
M  V30 27403 H 2617.2 5.29111 -2.00145 0
M  V30 27404 H 2615.76 5.94984 -2.66154 0
M  V30 27405 N 2619.19 1.47931 0.543528 0
M  V30 27406 C 2620.42 1.58665 1.32321 0
M  V30 27407 C 2620.83 0.240929 1.8766 0
M  V30 27408 O 2620.17 -0.777981 1.66413 0
M  V30 27409 C 2620.24 2.56303 2.52089 0
M  V30 27410 C 2619.9 4.01687 2.17937 0
M  V30 27411 C 2620.9 4.89771 1.74413 0
M  V30 27412 C 2618.58 4.47125 2.28876 0
M  V30 27413 C 2620.58 6.21318 1.42276 0
M  V30 27414 C 2618.26 5.78697 1.9635 0
M  V30 27415 C 2619.26 6.65615 1.5312 0
M  V30 27416 O 2618.95 7.94739 1.21015 0
M  V30 27417 H 2618.68 0.538108 0.409165 0
M  V30 27418 H 2621.24 1.94376 0.663852 0
M  V30 27419 H 2619.47 2.15687 3.20961 0
M  V30 27420 H 2621.15 2.57018 3.1416 0
M  V30 27421 H 2621.92 4.55909 1.65444 0
M  V30 27422 H 2617.8 3.79669 2.61482 0
M  V30 27423 H 2621.34 6.89117 1.0846 0
M  V30 27424 H 2617.24 6.12097 2.04957 0
M  V30 27425 H 2618.01 8.07369 1.34528 0
M  V30 27426 N 2620.67 -0.791347 1.36292 0
M  V30 27427 C 2621.6 -1.91822 1.33141 0
M  V30 27428 C 2622.58 -1.68882 0.203198 0
M  V30 27429 O 2623.77 -1.90024 0.400543 0
M  V30 27430 C 2620.9 -3.28814 1.11799 0
M  V30 27431 C 2619.85 -3.66273 2.21423 0
M  V30 27432 C 2619.18 -5.01593 1.85227 0
M  V30 27433 C 2620.48 -3.75058 3.63495 0
M  V30 27434 H 2622.17 -1.94716 2.27433 0
M  V30 27435 H 2619.72 -0.935418 1.0948 0
M  V30 27436 H 2621.67 -4.07264 1.08229 0
M  V30 27437 H 2620.39 -3.26302 0.139559 0
M  V30 27438 H 2619.05 -2.90118 2.24115 0
M  V30 27439 H 2618.7 -4.956 0.859631 0
M  V30 27440 H 2618.4 -5.27626 2.58621 0
M  V30 27441 H 2619.93 -5.82466 1.8321 0
M  V30 27442 H 2621.34 -4.43705 3.63042 0
M  V30 27443 H 2619.74 -4.12574 4.35778 0
M  V30 27444 H 2620.81 -2.76212 3.98541 0
M  V30 27445 N 2622.15 -1.2054 -1.01528 0
M  V30 27446 C 2623.4 -1.01786 -1.75406 0
M  V30 27447 C 2623.73 0.448781 -1.88943 0
M  V30 27448 O 2623 1.33317 -1.41622 0
M  V30 27449 C 2623.29 -1.70361 -3.17252 0
M  V30 27450 C 2623.14 -3.24479 -3.11502 0
M  V30 27451 C 2624.46 -1.43777 -4.15952 0
M  V30 27452 H 2621.58 -0.371178 -0.636707 0
M  V30 27453 H 2624.22 -1.48572 -1.18433 0
M  V30 27454 H 2622.37 -1.30585 -3.65896 0
M  V30 27455 H 2624.04 -3.73558 -2.70652 0
M  V30 27456 H 2622.28 -3.55316 -2.48864 0
M  V30 27457 H 2622.96 -3.67618 -4.11778 0
M  V30 27458 H 2625.43 -1.78287 -3.75969 0
M  V30 27459 H 2624.31 -1.94288 -5.13365 0
M  V30 27460 H 2624.57 -0.365641 -4.40585 0
M  V30 27461 N 2623.63 1.20858 -1.01149 0
M  V30 27462 C 2624.56 2.22854 -0.535585 0
M  V30 27463 C 2625.57 1.5832 0.379296 0
M  V30 27464 O 2626.76 1.77606 0.178458 0
M  V30 27465 C 2623.86 3.38043 0.240902 0
M  V30 27466 C 2623.03 4.32166 -0.674638 0
M  V30 27467 C 2622.09 5.26173 0.0533745 0
M  V30 27468 O 2621.12 5.66365 -0.567439 0
M  V30 27469 N 2622.32 5.65062 1.32987 0
M  V30 27470 H 2625.09 2.64314 -1.41273 0
M  V30 27471 H 2622.65 1.35347 -0.88841 0
M  V30 27472 H 2624.64 3.97932 0.737046 0
M  V30 27473 H 2623.21 2.95515 1.0193 0
M  V30 27474 H 2622.43 3.7032 -1.35117 0
M  V30 27475 H 2623.72 4.91978 -1.29748 0
M  V30 27476 H 2623.12 5.34412 1.85527 0
M  V30 27477 H 2621.67 6.27283 1.77084 0
M  V30 27478 N 2625.11 0.787064 1.3654 0
M  V30 27479 C 2626.04 0.141813 2.28761 0
M  V30 27480 C 2627.05 -0.647573 1.49366 0
M  V30 27481 O 2628.24 -0.483143 1.71837 0
M  V30 27482 C 2625.34 -0.82231 3.28772 0
M  V30 27483 C 2624.51 -0.0834825 4.3732 0
M  V30 27484 C 2623.57 -0.963205 5.17309 0
M  V30 27485 O 2622.6 -0.421319 5.67639 0
M  V30 27486 N 2623.8 -2.28774 5.33519 0
M  V30 27487 H 2626.56 0.933969 2.84776 0
M  V30 27488 H 2624.13 0.640761 1.4868 0
M  V30 27489 H 2626.12 -1.41462 3.79171 0
M  V30 27490 H 2624.69 -1.51536 2.73415 0
M  V30 27491 H 2623.91 0.689877 3.88116 0
M  V30 27492 H 2625.2 0.426447 5.0701 0
M  V30 27493 H 2624.59 -2.75217 4.94239 0
M  V30 27494 H 2623.15 -2.82975 5.8717 0
M  V30 27495 N 2626.58 -1.48101 0.53888 0
M  V30 27496 C 2627.49 -2.33541 -0.222607 0
M  V30 27497 C 2628.51 -1.47049 -0.930199 0
M  V30 27498 O 2629.69 -1.80013 -0.903179 0
M  V30 27499 C 2626.75 -3.23359 -1.25059 0
M  V30 27500 C 2625.81 -4.25731 -0.552394 0
M  V30 27501 C 2625.04 -5.11257 -1.5314 0
M  V30 27502 O 2625.27 -4.98915 -2.76478 0
M  V30 27503 O 2624.2 -5.92387 -1.06592 0
M  V30 27504 H 2628.03 -2.99919 0.477759 0
M  V30 27505 H 2625.61 -1.46363 0.299695 0
M  V30 27506 H 2627.49 -3.78891 -1.84444 0
M  V30 27507 H 2626.17 -2.59632 -1.9332 0
M  V30 27508 H 2625.08 -3.7401 0.0821798 0
M  V30 27509 H 2626.41 -4.92121 0.0884391 0
M  V30 27510 N 2628.06 -0.274434 -1.55192 0
M  V30 27511 C 2629.29 0.348788 -2.04446 0
M  V30 27512 C 2629.71 1.48733 -1.15152 0
M  V30 27513 O 2629.07 1.80679 -0.149984 0
M  V30 27514 C 2629.12 0.807947 -3.51432 0
M  V30 27515 O 2628.22 1.91525 -3.65229 0
M  V30 27516 H 2627.56 0.072216 -0.660061 0
M  V30 27517 H 2630.09 -0.408533 -2.0048 0
M  V30 27518 H 2630.1 1.10388 -3.92783 0
M  V30 27519 H 2628.78 -0.0250596 -4.15892 0
M  V30 27520 H 2627.35 1.6219 -3.35781 0
M  V30 27521 N 2629.54 1.576 -0.00170483 0
M  V30 27522 C 2630.76 1.95325 0.697355 0
M  V30 27523 C 2631.19 0.876735 1.66418 0
M  V30 27524 O 2630.55 -0.164976 1.80548 0
M  V30 27525 C 2630.6 3.32146 1.40397 0
M  V30 27526 O 2629.7 3.2657 2.51844 0
M  V30 27527 H 2629.04 0.637603 0.185362 0
M  V30 27528 H 2631.57 2.04525 -0.0554025 0
M  V30 27529 H 2631.58 3.67751 1.76701 0
M  V30 27530 H 2630.26 4.1005 0.695095 0
M  V30 27531 H 2628.83 3.02644 2.17856 0
M  V30 27532 N 2631.02 -0.271076 1.55251 0
M  V30 27533 C 2632.26 -1.00242 1.75948 0
M  V30 27534 C 2632.59 -1.86214 0.561644 0
M  V30 27535 O 2631.85 -1.90318 -0.455799 0
M  V30 27536 C 2632.15 -1.91316 3.01882 0
M  V30 27537 C 2631.81 -1.21078 4.3434 0
M  V30 27538 C 2630.47 -1.01657 4.70339 0
M  V30 27539 C 2632.83 -0.7111 5.16326 0
M  V30 27540 C 2630.15 -0.309997 5.8588 0
M  V30 27541 C 2632.51 -0.0181045 6.32597 0
M  V30 27542 C 2631.17 0.187797 6.67236 0
M  V30 27543 H 2630.44 -0.366812 0.64384 0
M  V30 27544 H 2633.09 -0.274546 1.89522 0
M  V30 27545 H 2631.39 -2.70731 2.83217 0
M  V30 27546 H 2633.09 -2.48028 3.15092 0
M  V30 27547 H 2629.68 -1.37206 4.06045 0
M  V30 27548 H 2633.86 -0.848758 4.88989 0
M  V30 27549 H 2629.12 -0.139766 6.1124 0
M  V30 27550 H 2633.29 0.376833 6.9538 0
M  V30 27551 H 2630.92 0.737283 7.56616 0
M  V30 27552 N 2632.5 -1.48217 -0.535675 0
M  V30 27553 C 2633.74 -1.56175 -1.29372 0
M  V30 27554 C 2634.08 -0.232463 -1.92804 0
M  V30 27555 O 2633.35 0.761017 -1.78994 0
M  V30 27556 C 2633.63 -2.69581 -2.38743 0
M  V30 27557 C 2633.49 -4.12197 -1.80039 0
M  V30 27558 C 2634.81 -2.78777 -3.40546 0
M  V30 27559 H 2631.92 -0.5685 -0.469017 0
M  V30 27560 H 2634.57 -1.80366 -0.597326 0
M  V30 27561 H 2632.72 -2.49085 -2.98142 0
M  V30 27562 H 2634.39 -4.44116 -1.24734 0
M  V30 27563 H 2632.63 -4.19464 -1.10601 0
M  V30 27564 H 2633.3 -4.87358 -2.59204 0
M  V30 27565 H 2635.78 -2.97327 -2.91094 0
M  V30 27566 H 2634.65 -3.59865 -4.14474 0
M  V30 27567 H 2634.92 -1.86703 -4.00742 0
M  V30 27568 N 2633.97 0.784108 -1.3671 0
M  V30 27569 C 2634.91 1.90373 -1.25831 0
M  V30 27570 C 2635.89 1.61984 -0.14136 0
M  V30 27571 O 2637.07 1.85876 -0.313421 0
M  V30 27572 C 2634.2 3.25317 -0.942678 0
M  V30 27573 C 2633.24 3.72631 -2.0748 0
M  V30 27574 S 2634.08 3.87763 -3.69324 0
M  V30 27575 C 2635.23 5.25575 -3.39886 0
M  V30 27576 H 2635.46 1.9931 -2.20596 0
M  V30 27577 H 2633 0.943905 -1.22188 0
M  V30 27578 H 2634.96 4.03263 -0.767392 0
M  V30 27579 H 2633.62 3.14097 -0.0127118 0
M  V30 27580 H 2632.81 4.70429 -1.80866 0
M  V30 27581 H 2632.41 3.01751 -2.20958 0
M  V30 27582 H 2634.7 6.10333 -2.94108 0
M  V30 27583 H 2635.65 5.57195 -4.36966 0
M  V30 27584 H 2636.05 4.92927 -2.75106 0
M  V30 27585 N 2635.45 1.21076 1.00888 0
M  V30 27586 C 2636.39 0.909843 2.09278 0
M  V30 27587 C 2637.36 -0.141116 1.61986 0
M  V30 27588 O 2638.55 -0.013 1.88496 0
M  V30 27589 C 2635.67 0.365433 3.36723 0
M  V30 27590 C 2634.72 1.39859 4.02917 0
M  V30 27591 S 2635.55 2.96641 4.4583 0
M  V30 27592 C 2636.71 2.43797 5.76467 0
M  V30 27593 H 2636.94 1.82773 2.34481 0
M  V30 27594 H 2634.48 1.04008 1.14113 0
M  V30 27595 H 2636.43 0.0578925 4.10459 0
M  V30 27596 H 2635.09 -0.531082 3.09578 0
M  V30 27597 H 2634.29 0.967204 4.94632 0
M  V30 27598 H 2633.89 1.65401 3.35438 0
M  V30 27599 H 2636.18 1.8404 6.52024 0
M  V30 27600 H 2637.12 3.33939 6.24412 0
M  V30 27601 H 2637.53 1.85645 5.331 0
M  V30 27602 N 2636.93 -1.2032 1.01789 0
M  V30 27603 C 2638.16 -1.94239 0.727043 0
M  V30 27604 C 2638.58 -1.74342 -0.706148 0
M  V30 27605 O 2637.94 -1.03854 -1.48607 0
M  V30 27606 C 2637.99 -3.44371 1.06964 0
M  V30 27607 O 2637.09 -4.11998 0.182055 0
M  V30 27608 H 2636.43 -0.606788 0.269637 0
M  V30 27609 H 2638.96 -1.52714 1.36161 0
M  V30 27610 H 2638.97 -3.94995 1.02189 0
M  V30 27611 H 2637.65 -3.58175 2.11384 0
M  V30 27612 H 2636.22 -3.7179 0.287443 0
M  V30 27613 N 2638.41 -0.794293 -1.3612 0
M  V30 27614 C 2639.37 -0.201929 -2.28309 0
M  V30 27615 C 2640.37 0.603577 -1.49042 0
M  V30 27616 O 2641.56 0.423858 -1.68965 0
M  V30 27617 C 2638.69 0.719919 -3.33212 0
M  V30 27618 H 2639.89 -1.01486 -2.82207 0
M  V30 27619 H 2637.44 -0.564062 -1.45767 0
M  V30 27620 H 2638.17 1.55701 -2.84478 0
M  V30 27621 H 2637.96 0.144197 -3.91835 0
M  V30 27622 H 2639.45 1.12909 -4.02046 0
M  V30 27623 N 2639.89 1.47813 -0.546727 0
M  V30 27624 C 2641.3 1.86372 -0.110597 0
M  V30 27625 C 2641.65 1.45451 1.31675 0
M  V30 27626 O 2640.77 0.852793 1.98888 0
M  V30 27627 C 2641.37 3.38244 -0.193933 0
M  V30 27628 C 2639.93 3.75935 0.187098 0
M  V30 27629 C 2639.07 2.71867 -0.546214 0
M  V30 27630 H 2642.03 1.39479 -0.757047 0
M  V30 27631 H 2642.05 3.75896 0.590152 0
M  V30 27632 H 2641.56 3.67997 -1.23288 0
M  V30 27633 H 2639.66 3.51798 1.22755 0
M  V30 27634 H 2639.77 4.78819 -0.164167 0
M  V30 27635 H 2638.14 2.54698 0.00949427 0
M  V30 27636 H 2638.92 3.04462 -1.58612 0
M  V30 27637 N 2641.36 0.28266 1.55044 0
M  V30 27638 C 2642.78 -0.213622 1.85474 0
M  V30 27639 C 2643.13 -1.54861 1.20468 0
M  V30 27640 O 2642.25 -2.10646 0.495713 0
M  V30 27641 C 2642.85 -0.394386 3.36497 0
M  V30 27642 C 2641.41 -0.834896 3.67024 0
M  V30 27643 C 2640.55 0.0674568 2.77218 0
M  V30 27644 H 2643.5 0.504229 1.50477 0
M  V30 27645 H 2643.52 -1.2318 3.6001 0
M  V30 27646 H 2643.04 0.577393 3.83781 0
M  V30 27647 H 2641.14 -1.81788 3.25244 0
M  V30 27648 H 2641.25 -0.666992 4.74434 0
M  V30 27649 H 2639.61 -0.450152 2.5069 0
M  V30 27650 H 2640.4 1.03526 3.27318 0
M  V30 27651 N 2642.84 -1.57597 0.0100627 0
M  V30 27652 C 2643.81 -2.07988 -0.962993 0
M  V30 27653 C 2644.81 -0.991195 -1.26617 0
M  V30 27654 O 2646 -1.25349 -1.20968 0
M  V30 27655 C 2643.13 -2.52978 -2.28506 0
M  V30 27656 H 2644.32 -2.95235 -0.526919 0
M  V30 27657 H 2641.87 -1.54483 -0.237612 0
M  V30 27658 H 2642.61 -1.69004 -2.76782 0
M  V30 27659 H 2642.39 -3.32497 -2.07818 0
M  V30 27660 H 2643.88 -2.92256 -2.98289 0
M  V30 27661 N 2644.32 0.262839 -1.55393 0
M  V30 27662 C 2645.23 1.34694 -1.9208 0
M  V30 27663 C 2646.25 1.53506 -0.819254 0
M  V30 27664 O 2647.42 1.67437 -1.11924 0
M  V30 27665 C 2644.49 2.68439 -2.19412 0
M  V30 27666 C 2643.55 2.58286 -3.42909 0
M  V30 27667 C 2642.78 3.85653 -3.68928 0
M  V30 27668 O 2643 4.86805 -2.97283 0
M  V30 27669 O 2641.94 3.85244 -4.62462 0
M  V30 27670 H 2645.76 1.06576 -2.84386 0
M  V30 27671 H 2643.35 0.462239 -1.42069 0
M  V30 27672 H 2645.23 3.47502 -2.38371 0
M  V30 27673 H 2643.91 2.96323 -1.30287 0
M  V30 27674 H 2642.81 1.77564 -3.29275 0
M  V30 27675 H 2644.15 2.3535 -4.32286 0
M  V30 27676 N 2645.8 1.48499 0.527807 0
M  V30 27677 C 2647.03 1.6006 1.30631 0
M  V30 27678 C 2647.44 0.260819 1.87394 0
M  V30 27679 O 2646.78 -0.760287 1.67228 0
M  V30 27680 C 2646.84 2.58963 2.49356 0
M  V30 27681 C 2646.51 4.03976 2.13664 0
M  V30 27682 C 2647.5 4.91594 1.69209 0
M  V30 27683 C 2645.19 4.49528 2.24121 0
M  V30 27684 C 2647.18 6.22792 1.35678 0
M  V30 27685 C 2644.87 5.80747 1.90202 0
M  V30 27686 C 2645.87 6.67202 1.46051 0
M  V30 27687 O 2645.55 7.95978 1.12579 0
M  V30 27688 H 2645.29 0.542418 0.403434 0
M  V30 27689 H 2647.84 1.9507 0.643199 0
M  V30 27690 H 2646.07 2.19079 3.18656 0
M  V30 27691 H 2647.76 2.60336 3.11416 0
M  V30 27692 H 2648.53 4.57639 1.60599 0
M  V30 27693 H 2644.4 3.82421 2.5744 0
M  V30 27694 H 2647.95 6.90229 1.01145 0
M  V30 27695 H 2643.85 6.14237 1.98453 0
M  V30 27696 H 2644.61 8.0875 1.25958 0
M  V30 27697 N 2647.28 -0.776847 1.37123 0
M  V30 27698 C 2648.22 -1.88996 1.32473 0
M  V30 27699 C 2649.19 -1.64996 0.191172 0
M  V30 27700 O 2650.38 -1.86983 0.379716 0
M  V30 27701 C 2647.52 -3.2599 1.13246 0
M  V30 27702 C 2646.63 -3.61978 2.35788 0
M  V30 27703 C 2645.77 -4.88154 2.09474 0
M  V30 27704 C 2644.81 -5.16858 3.27909 0
M  V30 27705 N 2643.94 -6.34221 3.01179 0
M  V30 27706 H 2648.78 -1.92306 2.27645 0
M  V30 27707 H 2646.32 -0.94025 1.13127 0
M  V30 27708 H 2648.28 -4.05008 1.00122 0
M  V30 27709 H 2646.91 -3.22068 0.217243 0
M  V30 27710 H 2645.96 -2.77984 2.59671 0
M  V30 27711 H 2647.27 -3.79131 3.24131 0
M  V30 27712 H 2646.43 -5.75065 1.93351 0
M  V30 27713 H 2645.17 -4.73095 1.1846 0
M  V30 27714 H 2644.17 -4.28424 3.44576 0
M  V30 27715 H 2645.4 -5.33829 4.19766 0
M  V30 27716 H 2643.34 -6.20529 2.1279 0
M  V30 27717 H 2643.26 -6.51765 3.83064 0
M  V30 27718 H 2644.53 -7.24082 2.88662 0
M  V30 27719 N 2648.76 -1.2161 -1.00244 0
M  V30 27720 C 2649.69 -1.00176 -2.10919 0
M  V30 27721 C 2650.67 0.0741288 -1.69938 0
M  V30 27722 O 2651.85 -0.0862094 -1.94009 0
M  V30 27723 C 2648.98 -0.568416 -3.42617 0
M  V30 27724 C 2647.94 -1.58916 -3.97404 0
M  V30 27725 C 2647.26 -1.01196 -5.25037 0
M  V30 27726 C 2648.56 -2.97668 -4.29175 0
M  V30 27727 H 2650.26 -1.92743 -2.29108 0
M  V30 27728 H 2647.8 -0.928121 -1.101 0
M  V30 27729 H 2649.75 -0.405629 -4.19443 0
M  V30 27730 H 2648.48 0.392904 -3.24228 0
M  V30 27731 H 2647.14 -1.73955 -3.227 0
M  V30 27732 H 2646.79 -0.0422849 -5.02982 0
M  V30 27733 H 2646.49 -1.6938 -5.62658 0
M  V30 27734 H 2648.01 -0.860554 -6.04505 0
M  V30 27735 H 2649.42 -2.86058 -4.96834 0
M  V30 27736 H 2647.82 -3.62889 -4.77945 0
M  V30 27737 H 2648.89 -3.48321 -3.37343 0
M  V30 27738 N 2650.23 1.19778 -1.02425 0
M  V30 27739 C 2651.17 2.22274 -0.559192 0
M  V30 27740 C 2652.18 1.58713 0.362482 0
M  V30 27741 O 2653.37 1.77785 0.15961 0
M  V30 27742 C 2650.47 3.38279 0.205035 0
M  V30 27743 C 2649.64 4.31426 -0.720437 0
M  V30 27744 C 2648.7 5.262 -0.00243618 0
M  V30 27745 O 2647.73 5.65731 -0.627477 0
M  V30 27746 N 2648.93 5.6644 1.26987 0
M  V30 27747 H 2651.69 2.62801 -1.44068 0
M  V30 27748 H 2649.25 1.34397 -0.902716 0
M  V30 27749 H 2651.25 3.98691 0.694798 0
M  V30 27750 H 2649.82 2.9658 0.987895 0
M  V30 27751 H 2649.04 3.68866 -1.39037 0
M  V30 27752 H 2650.32 4.90575 -1.34959 0
M  V30 27753 H 2649.72 5.3635 1.79849 0
M  V30 27754 H 2648.28 6.29126 1.70421 0
M  V30 27755 N 2651.71 0.801501 1.35697 0
M  V30 27756 C 2652.64 0.166069 2.28598 0
M  V30 27757 C 2653.66 -0.631694 1.50045 0
M  V30 27758 O 2654.85 -0.46489 1.7234 0
M  V30 27759 C 2651.95 -0.787393 3.29626 0
M  V30 27760 C 2651.12 -0.0370941 4.37384 0
M  V30 27761 C 2650.18 -0.908284 5.18302 0
M  V30 27762 O 2649.2 -0.361089 5.68054 0
M  V30 27763 N 2650.41 -2.23103 5.35915 0
M  V30 27764 H 2653.17 0.96412 2.83769 0
M  V30 27765 H 2650.73 0.656495 1.47992 0
M  V30 27766 H 2652.72 -1.37432 3.8065 0
M  V30 27767 H 2651.29 -1.48627 2.75007 0
M  V30 27768 H 2650.51 0.731003 3.87363 0
M  V30 27769 H 2651.8 0.480198 5.06529 0
M  V30 27770 H 2651.2 -2.69959 4.9713 0
M  V30 27771 H 2649.76 -2.76731 5.90138 0
M  V30 27772 N 2653.19 -1.47521 0.554558 0
M  V30 27773 C 2654.44 -2.02079 0.0294563 0
M  V30 27774 C 2654.76 -1.43154 -1.32409 0
M  V30 27775 O 2654.03 -0.605761 -1.86299 0
M  V30 27776 H 2652.61 -0.746958 0.00789985 0
M  V30 27777 H 2655.27 -1.80955 0.723966 0
M  V30 27778 H 2654.37 -3.12041 -0.0606196 0
M  V30 27779 N 2654.67 -0.290879 -1.54892 0
M  V30 27780 C 2655.9 0.324252 -2.04343 0
M  V30 27781 C 2656.31 1.48287 -1.16861 0
M  V30 27782 O 2655.67 1.81487 -0.19205 0
M  V30 27783 C 2655.72 0.790198 -3.52758 0
M  V30 27784 O 2655.44 -0.32229 -4.36913 0
M  V30 27785 C 2656.94 1.47153 -4.18164 0
M  V30 27786 H 2654.16 0.0719056 -0.667136 0
M  V30 27787 H 2656.7 -0.427564 -1.9998 0
M  V30 27788 H 2654.86 1.49206 -3.57514 0
M  V30 27789 H 2655.27 0.038645 -5.24486 0
M  V30 27790 H 2656.75 1.74881 -5.23565 0
M  V30 27791 H 2657.22 2.40827 -3.67286 0
M  V30 27792 H 2657.83 0.813105 -4.17455 0
M  V30 27793 N 2656.15 1.57589 -0.0184203 0
M  V30 27794 C 2657.39 1.91355 0.662528 0
M  V30 27795 C 2657.72 0.893818 1.72746 0
M  V30 27796 O 2656.98 -0.0988166 1.9545 0
M  V30 27797 C 2657.27 3.31863 1.3267 0
M  V30 27798 C 2656.94 4.49182 0.393189 0
M  V30 27799 C 2655.6 4.81007 0.136218 0
M  V30 27800 C 2657.95 5.20607 -0.248457 0
M  V30 27801 C 2655.28 5.8162 -0.770384 0
M  V30 27802 C 2657.63 6.22187 -1.14305 0
M  V30 27803 C 2656.3 6.52459 -1.40901 0
M  V30 27804 H 2655.57 0.700218 0.242436 0
M  V30 27805 H 2658.22 1.91342 -0.0778966 0
M  V30 27806 H 2656.52 3.28088 2.14162 0
M  V30 27807 H 2658.22 3.55256 1.85995 0
M  V30 27808 H 2654.81 4.24328 0.603648 0
M  V30 27809 H 2658.99 4.9626 -0.0629703 0
M  V30 27810 H 2654.25 6.03425 -0.98426 0
M  V30 27811 H 2658.42 6.76656 -1.64649 0
M  V30 27812 H 2656.05 7.30239 -2.11319 0
M  V30 27813 N 2657.62 -0.254594 1.5553 0
M  V30 27814 C 2658.55 -1.31893 1.92682 0
M  V30 27815 C 2659.53 -1.50599 0.790824 0
M  V30 27816 O 2660.72 -1.63335 1.05048 0
M  V30 27817 C 2657.85 -2.67513 2.21482 0
M  V30 27818 C 2656.8 -2.63513 3.37261 0
M  V30 27819 C 2656.13 -4.02856 3.51583 0
M  V30 27820 C 2657.43 -2.2117 4.73161 0
M  V30 27821 H 2659.12 -1.01046 2.81833 0
M  V30 27822 H 2656.67 -0.484638 1.356 0
M  V30 27823 H 2658.62 -3.42099 2.46061 0
M  V30 27824 H 2657.35 -2.9998 1.29149 0
M  V30 27825 H 2656.01 -1.91384 3.12678 0
M  V30 27826 H 2655.65 -4.32576 2.56684 0
M  V30 27827 H 2655.35 -4.0107 4.29437 0
M  V30 27828 H 2656.88 -4.79154 3.78475 0
M  V30 27829 H 2658.29 -2.85486 4.97163 0
M  V30 27830 H 2656.69 -2.30511 5.54062 0
M  V30 27831 H 2657.76 -1.16324 4.70741 0
M  V30 27832 N 2659.1 -1.48777 -0.519925 0
M  V30 27833 C 2660.34 -1.5891 -1.28557 0
M  V30 27834 C 2660.71 -0.261452 -1.90212 0
M  V30 27835 O 2661.91 -0.237838 -2.67746 0
M  V30 27836 C 2660.18 -2.70292 -2.33831 0
M  V30 27837 S 2661.74 -3.00256 -3.19987 0
M  V30 27838 H 2658.55 -0.560724 -0.43716 0
M  V30 27839 H 2661.16 -1.86348 -0.591172 0
M  V30 27840 H 2659.86 -3.65303 -1.87034 0
M  V30 27841 H 2659.39 -2.44788 -3.07965 0
M  V30 27842 H 2661.41 -2.40325 -4.34118 0
M  V30 27843 N 2660.58 0.769564 -1.37534 0
M  V30 27844 C 2661.54 1.86454 -1.33295 0
M  V30 27845 C 2662.54 1.5905 -0.236565 0
M  V30 27846 O 2663.73 1.67092 -0.49254 0
M  V30 27847 C 2660.86 3.23631 -1.07124 0
M  V30 27848 H 2662.06 1.91623 -2.30696 0
M  V30 27849 H 2659.61 0.96955 -1.22594 0
M  V30 27850 H 2660.35 3.24138 -0.102635 0
M  V30 27851 H 2660.13 3.44914 -1.86485 0
M  V30 27852 H 2661.62 4.03709 -1.06813 0
M  V30 27853 N 2662.06 1.22139 0.995977 0
M  V30 27854 C 2663.01 0.985913 2.10672 0
M  V30 27855 C 2664 -0.0699255 1.69256 0
M  V30 27856 O 2665.21 0.0822492 1.79812 0
M  V30 27857 H 2661.58 0.301622 0.68886 0
M  V30 27858 H 2663.55 1.92852 2.27707 0
M  V30 27859 C 2662.3 0.576969 3.4288 0
M  V30 27860 H 2661.62 1.38108 3.75188 0
M  V30 27861 H 2663.06 0.451592 4.21588 0
M  V30 27862 C 2661.52 -0.713138 3.29266 0
M  V30 27863 O 2662.05 -1.76637 3.6078 0
M  V30 27864 N 2660.26 -0.683112 2.82457 0
M  V30 27865 H 2659.81 0.174287 2.5701 0
M  V30 27866 H 2659.76 -1.54659 2.7373 0
M  V30 27867 N 2663.54 -1.19233 1.03059 0
M  V30 27868 C 2664.45 -2.26178 0.622962 0
M  V30 27869 C 2665.46 -1.70523 -0.346083 0
M  V30 27870 O 2666.64 -2.00369 -0.203537 0
M  V30 27871 C 2663.7 -3.46695 -0.0181454 0
M  V30 27872 C 2662.76 -4.17524 0.998619 0
M  V30 27873 C 2662 -5.32288 0.388011 0
M  V30 27874 O 2662.22 -5.6464 -0.808569 0
M  V30 27875 O 2661.15 -5.91544 1.11171 0
M  V30 27876 H 2664.98 -2.6329 1.51368 0
M  V30 27877 H 2662.57 -1.2612 0.800878 0
M  V30 27878 H 2664.45 -4.19723 -0.375532 0
M  V30 27879 H 2663.12 -3.11428 -0.88284 0
M  V30 27880 H 2662.03 -3.46608 1.40762 0
M  V30 27881 H 2663.36 -4.56766 1.83374 0
M  V30 27882 N 2665.01 -0.808686 -1.3527 0
M  V30 27883 C 2666.24 -0.401989 -2.02651 0
M  V30 27884 C 2666.65 0.992434 -1.61082 0
M  V30 27885 O 2666 1.65122 -0.805013 0
M  V30 27886 C 2666.06 -0.408309 -3.57174 0
M  V30 27887 C 2665.72 -1.75361 -4.22016 0
M  V30 27888 C 2666.72 -2.71223 -4.43547 0
M  V30 27889 C 2664.4 -2.03819 -4.59089 0
M  V30 27890 C 2666.4 -3.93726 -5.01257 0
M  V30 27891 C 2664.08 -3.26585 -5.16513 0
M  V30 27892 C 2665.08 -4.21356 -5.37539 0
M  V30 27893 O 2664.77 -5.41955 -5.93751 0
M  V30 27894 H 2664.5 -0.161227 -0.656492 0
M  V30 27895 H 2667.06 -1.09423 -1.73827 0
M  V30 27896 H 2665.29 0.34054 -3.85198 0
M  V30 27897 H 2666.98 -0.0236337 -4.05893 0
M  V30 27898 H 2667.74 -2.50529 -4.15283 0
M  V30 27899 H 2663.62 -1.30862 -4.42036 0
M  V30 27900 H 2667.16 -4.6771 -5.17584 0
M  V30 27901 H 2663.06 -3.47148 -5.44204 0
M  V30 27902 H 2663.83 -5.4328 -6.122 0
M  V30 27903 N 2666.49 1.47225 -0.562374 0
M  V30 27904 C 2667.72 2.0685 -0.0452638 0
M  V30 27905 C 2668.14 1.41427 1.25076 0
M  V30 27906 O 2667.49 0.512544 1.75155 0
M  V30 27907 C 2667.54 3.61194 0.148611 0
M  V30 27908 O 2667.26 4.24167 -1.09609 0
M  V30 27909 C 2668.77 4.377 0.702411 0
M  V30 27910 H 2665.99 0.669267 -0.0481892 0
M  V30 27911 H 2668.53 1.89153 -0.777256 0
M  V30 27912 H 2666.68 3.78388 0.830751 0
M  V30 27913 H 2667.1 5.16772 -0.897073 0
M  V30 27914 H 2668.57 5.46356 0.787334 0
M  V30 27915 H 2669.05 4.04338 1.71486 0
M  V30 27916 H 2669.66 4.25263 0.0558025 0
M  V30 27917 N 2667.97 0.299089 1.54736 0
M  V30 27918 C 2669.22 -0.310135 1.99706 0
M  V30 27919 C 2669.54 -1.54557 1.18899 0
M  V30 27920 O 2668.81 -1.93823 0.284479 0
M  V30 27921 H 2667.39 -0.117583 0.737688 0
M  V30 27922 H 2670.05 0.409976 1.90539 0
M  V30 27923 H 2669.15 -0.583496 3.06597 0
M  V30 27924 N 2669.45 -1.57577 0.0267774 0
M  V30 27925 C 2670.4 -2.1123 -0.973886 0
M  V30 27926 C 2671.39 -1.03834 -1.33847 0
M  V30 27927 O 2672.6 -1.22271 -1.32097 0
M  V30 27928 H 2668.97 -0.674827 -0.331832 0
M  V30 27929 H 2670.94 -2.94248 -0.49604 0
M  V30 27930 C 2669.69 -2.65261 -2.24794 0
M  V30 27931 H 2669.01 -3.47547 -1.97614 0
M  V30 27932 H 2670.45 -3.0645 -2.93026 0
M  V30 27933 C 2668.91 -1.57896 -2.97608 0
M  V30 27934 O 2669.44 -0.977419 -3.89627 0
M  V30 27935 N 2667.65 -1.29997 -2.59902 0
M  V30 27936 H 2667.2 -1.791 -1.85151 0
M  V30 27937 H 2667.15 -0.583852 -3.08931 0
M  V30 27938 N 2670.93 0.246342 -1.55663 0
M  V30 27939 C 2672.16 0.990406 -1.81313 0
M  V30 27940 C 2672.56 1.79425 -0.600266 0
M  V30 27941 O 2671.91 1.7834 0.440505 0
M  V30 27942 C 2671.97 1.97601 -3.00323 0
M  V30 27943 C 2671.63 1.35905 -4.36324 0
M  V30 27944 C 2672.63 0.761257 -5.14296 0
M  V30 27945 C 2670.32 1.37825 -4.83021 0
M  V30 27946 C 2672.31 0.190886 -6.37114 0
M  V30 27947 C 2670 0.804021 -6.05788 0
M  V30 27948 C 2670.99 0.211369 -6.82673 0
M  V30 27949 O 2670.68 -0.353986 -8.0312 0
M  V30 27950 H 2670.41 0.297047 -0.607239 0
M  V30 27951 H 2672.97 0.274316 -2.0356 0
M  V30 27952 H 2671.2 2.73043 -2.73833 0
M  V30 27953 H 2672.89 2.58355 -3.13061 0
M  V30 27954 H 2673.65 0.738929 -4.79338 0
M  V30 27955 H 2669.53 1.82893 -4.23168 0
M  V30 27956 H 2673.08 -0.272329 -6.97068 0
M  V30 27957 H 2668.97 0.823679 -6.40223 0
M  V30 27958 H 2669.74 -0.245905 -8.18131 0
M  V30 27959 N 2672.4 1.4905 0.512027 0
M  V30 27960 C 2673.34 1.61012 1.63119 0
M  V30 27961 C 2674.35 0.493379 1.55144 0
M  V30 27962 O 2675.54 0.764983 1.61277 0
M  V30 27963 C 2672.64 1.54057 3.0186 0
M  V30 27964 C 2671.81 2.81078 3.35133 0
M  V30 27965 C 2670.87 2.67327 4.53236 0
M  V30 27966 O 2669.9 3.41246 4.55565 0
M  V30 27967 N 2671.1 1.78137 5.52492 0
M  V30 27968 H 2673.86 2.57532 1.53288 0
M  V30 27969 H 2671.42 1.46 0.69968 0
M  V30 27970 H 2673.42 1.42528 3.78772 0
M  V30 27971 H 2671.99 0.654399 3.05674 0
M  V30 27972 H 2671.21 3.0704 2.47225 0
M  V30 27973 H 2672.49 3.6531 3.54156 0
M  V30 27974 H 2671.89 1.17317 5.53401 0
M  V30 27975 H 2670.45 1.72536 6.28549 0
M  V30 27976 N 2673.88 -0.762259 1.3794 0
M  V30 27977 C 2675.12 -1.53405 1.35079 0
M  V30 27978 C 2675.49 -1.91901 -0.0615123 0
M  V30 27979 O 2676.69 -2.67939 -0.214926 0
M  V30 27980 C 2674.96 -2.7588 2.27211 0
M  V30 27981 S 2676.52 -3.65843 2.42289 0
M  V30 27982 H 2673.34 -0.525072 0.479396 0
M  V30 27983 H 2675.94 -0.895556 1.73782 0
M  V30 27984 H 2674.64 -2.45694 3.28729 0
M  V30 27985 H 2674.17 -3.44682 1.89626 0
M  V30 27986 H 2676.19 -4.68296 1.64052 0
M  V30 27987 N 2675.36 -1.22666 -0.989486 0
M  V30 27988 C 2676.61 -1.0512 -1.7261 0
M  V30 27989 C 2676.93 0.414097 -1.90552 0
M  V30 27990 O 2676.2 1.2976 -1.46763 0
M  V30 27991 H 2674.78 -0.385988 -0.639548 0
M  V30 27992 H 2677.44 -1.54234 -1.19155 0
M  V30 27993 H 2676.54 -1.5318 -2.71923 0
M  V30 27994 N 2676.84 1.18685 -1.0369 0
M  V30 27995 C 2677.79 2.20097 -0.595105 0
M  V30 27996 C 2678.77 1.56811 0.360437 0
M  V30 27997 O 2679.97 1.76081 0.180105 0
M  V30 27998 C 2677.09 3.43271 0.0443891 0
M  V30 27999 C 2676.18 4.13686 -0.934075 0
M  V30 28000 N 2676.57 4.60161 -2.09965 0
M  V30 28001 C 2674.87 4.3949 -0.759254 0
M  V30 28002 C 2675.57 5.14325 -2.71744 0
M  V30 28003 N 2674.55 5.05611 -1.99647 0
M  V30 28004 H 2678.35 2.53717 -1.4834 0
M  V30 28005 H 2675.86 1.34848 -0.904973 0
M  V30 28006 H 2677.86 4.15178 0.378567 0
M  V30 28007 H 2676.52 3.11148 0.928271 0
M  V30 28008 H 2677.53 4.54731 -2.47871 0
M  V30 28009 H 2674.21 4.17433 0.0748558 0
M  V30 28010 H 2675.6 5.60516 -3.70501 0
M  V30 28011 N 2678.32 0.815849 1.34839 0
M  V30 28012 C 2679.55 0.41273 2.02435 0
M  V30 28013 C 2679.96 -0.983878 1.61606 0
M  V30 28014 O 2679.3 -1.64693 0.813758 0
M  V30 28015 C 2679.36 0.427245 3.56952 0
M  V30 28016 C 2679.02 1.77596 4.2108 0
M  V30 28017 C 2680.02 2.73571 4.42103 0
M  V30 28018 C 2677.71 2.06251 4.58002 0
M  V30 28019 C 2679.7 3.96379 4.99162 0
M  V30 28020 C 2677.39 3.29319 5.14774 0
M  V30 28021 C 2678.39 4.24201 5.35297 0
M  V30 28022 O 2678.07 5.45096 5.90869 0
M  V30 28023 H 2677.81 0.164706 0.655628 0
M  V30 28024 H 2680.36 1.10343 1.73244 0
M  V30 28025 H 2678.59 -0.320108 3.85373 0
M  V30 28026 H 2680.28 0.0451588 4.05875 0
M  V30 28027 H 2681.04 2.52728 4.13949 0
M  V30 28028 H 2676.92 1.33204 4.41336 0
M  V30 28029 H 2680.47 4.70448 5.15096 0
M  V30 28030 H 2676.36 3.5003 5.42356 0
M  V30 28031 H 2677.13 5.46519 6.0931 0
M  V30 28032 N 2679.8 -1.46924 0.570174 0
M  V30 28033 C 2681.02 -2.06824 0.056233 0
M  V30 28034 C 2681.44 -1.42088 -1.24324 0
M  V30 28035 O 2680.8 -0.521825 -1.74881 0
M  V30 28036 C 2680.85 -3.61268 -0.129454 0
M  V30 28037 O 2680.57 -4.23579 1.11857 0
M  V30 28038 C 2682.07 -4.38066 -0.679189 0
M  V30 28039 H 2679.29 -0.669002 0.0517378 0
M  V30 28040 H 2681.83 -1.88738 0.787277 0
M  V30 28041 H 2679.99 -3.78823 -0.810672 0
M  V30 28042 H 2680.4 -5.16289 0.924466 0
M  V30 28043 H 2681.88 -5.46766 -0.758348 0
M  V30 28044 H 2682.35 -4.05242 -1.69339 0
M  V30 28045 H 2682.96 -4.25287 -0.0332489 0
M  V30 28046 N 2681.27 -0.307291 -1.54575 0
M  V30 28047 C 2682.22 0.58121 -2.20468 0
M  V30 28048 C 2683.21 1.09412 -1.17974 0
M  V30 28049 O 2684.4 1.03384 -1.43669 0
M  V30 28050 C 2681.53 1.74958 -2.95372 0
M  V30 28051 C 2680.61 1.25233 -4.05188 0
M  V30 28052 N 2681.01 0.473551 -5.03578 0
M  V30 28053 C 2679.3 1.53251 -4.18844 0
M  V30 28054 C 2680 0.20798 -5.81328 0
M  V30 28055 N 2678.98 0.789557 -5.37835 0
M  V30 28056 H 2682.78 -0.0212737 -2.93892 0
M  V30 28057 H 2680.3 -0.112353 -1.62011 0
M  V30 28058 H 2682.29 2.39771 -3.4105 0
M  V30 28059 H 2680.95 2.3557 -2.23466 0
M  V30 28060 H 2681.96 0.117872 -5.17766 0
M  V30 28061 H 2678.64 2.14566 -3.58145 0
M  V30 28062 H 2680.03 -0.41791 -6.70599 0
M  V30 28063 N 2682.75 1.57561 -0.0351337 0
M  V30 28064 C 2684 1.91224 0.64157 0
M  V30 28065 C 2684.31 0.913791 1.72943 0
M  V30 28066 O 2685.52 1.14189 2.46319 0
M  V30 28067 C 2683.98 3.39572 1.19243 0
M  V30 28068 C 2683.58 4.47789 0.137538 0
M  V30 28069 C 2685.33 3.82294 1.8453 0
M  V30 28070 C 2683.23 5.87238 0.700375 0
M  V30 28071 H 2682.16 0.713632 0.243405 0
M  V30 28072 H 2684.82 1.8322 -0.101414 0
M  V30 28073 H 2683.2 3.42528 1.98722 0
M  V30 28074 H 2684.37 4.56401 -0.635233 0
M  V30 28075 H 2682.69 4.14307 -0.416928 0
M  V30 28076 H 2685.28 4.83838 2.27607 0
M  V30 28077 H 2685.63 3.17677 2.69048 0
M  V30 28078 H 2686.16 3.81786 1.11732 0
M  V30 28079 H 2682.9 6.55413 -0.106808 0
M  V30 28080 H 2682.42 5.82221 1.4415 0
M  V30 28081 H 2684.1 6.35995 1.18826 0
M  V30 28082 N 2684.23 -0.238084 1.55791 0
M  V30 28083 C 2685.46 -0.982201 1.821 0
M  V30 28084 C 2685.87 -1.78604 0.612057 0
M  V30 28085 O 2685.23 -1.77617 -0.41935 0
M  V30 28086 C 2685.28 -1.91303 3.06733 0
M  V30 28087 O 2685 -1.14171 4.22962 0
M  V30 28088 C 2686.5 -2.77241 3.45908 0
M  V30 28089 H 2683.72 -0.288625 0.605753 0
M  V30 28090 H 2686.27 -0.258305 2.02862 0
M  V30 28091 H 2684.42 -2.59109 2.87995 0
M  V30 28092 H 2684.84 -1.77211 4.93656 0
M  V30 28093 H 2686.31 -3.38287 4.36195 0
M  V30 28094 H 2686.79 -3.48802 2.66897 0
M  V30 28095 H 2687.39 -2.14874 3.67027 0
M  V30 28096 N 2685.71 -1.4932 -0.504115 0
M  V30 28097 C 2686.67 -1.65247 -1.58827 0
M  V30 28098 C 2687.67 -0.524412 -1.52008 0
M  V30 28099 O 2688.86 -0.790797 -1.55216 0
M  V30 28100 C 2685.99 -1.64692 -2.98478 0
M  V30 28101 H 2687.19 -2.61942 -1.46036 0
M  V30 28102 H 2684.74 -1.38304 -0.72812 0
M  V30 28103 H 2685.47 -0.695699 -3.1675 0
M  V30 28104 H 2685.26 -2.46612 -3.04836 0
M  V30 28105 H 2686.75 -1.79082 -3.77252 0
M  V30 28106 N 2687.19 0.754933 -1.38342 0
M  V30 28107 C 2688.13 1.86865 -1.35463 0
M  V30 28108 C 2689.1 1.64671 -0.217398 0
M  V30 28109 O 2690.29 1.86356 -0.409416 0
M  V30 28110 C 2687.43 3.24147 -1.18418 0
M  V30 28111 C 2686.54 3.58181 -2.41517 0
M  V30 28112 C 2685.68 4.8476 -2.17213 0
M  V30 28113 C 2684.71 5.11576 -3.3609 0
M  V30 28114 N 2683.85 6.29349 -3.1123 0
M  V30 28115 H 2688.69 1.8866 -2.30676 0
M  V30 28116 H 2686.23 0.922134 -1.14608 0
M  V30 28117 H 2688.19 4.03364 -1.06552 0
M  V30 28118 H 2686.82 3.21682 -0.268453 0
M  V30 28119 H 2685.87 2.73818 -2.64061 0
M  V30 28120 H 2687.18 3.73926 -3.30122 0
M  V30 28121 H 2686.33 5.71917 -2.02475 0
M  V30 28122 H 2685.07 4.7115 -1.25972 0
M  V30 28123 H 2684.08 4.22888 -3.51349 0
M  V30 28124 H 2685.3 5.27083 -4.28206 0
M  V30 28125 H 2683.25 6.17065 -2.22635 0
M  V30 28126 H 2683.17 6.45589 -3.93384 0
M  V30 28127 H 2684.43 7.19398 -3.00145 0
M  V30 28128 N 2688.66 1.23189 0.982967 0
M  V30 28129 C 2689.57 1.02743 2.10905 0
M  V30 28130 C 2690.59 -0.0272883 1.73979 0
M  V30 28131 O 2691.77 0.167605 2.00701 0
M  V30 28132 C 2688.83 0.618364 3.41141 0
M  V30 28133 C 2687.89 1.74784 3.92109 0
M  V30 28134 C 2687.12 1.35819 5.16129 0
M  V30 28135 O 2687.35 0.241301 5.69889 0
M  V30 28136 O 2686.28 2.17834 5.61099 0
M  V30 28137 H 2690.11 1.97112 2.31042 0
M  V30 28138 H 2687.69 1.01871 1.09282 0
M  V30 28139 H 2689.57 0.401056 4.19487 0
M  V30 28140 H 2688.25 -0.296364 3.2234 0
M  V30 28141 H 2687.16 2.01976 3.14891 0
M  V30 28142 H 2688.49 2.64079 4.15359 0
M  V30 28143 N 2690.14 -1.18133 1.04318 0
M  V30 28144 C 2691.37 -1.92112 0.768151 0
M  V30 28145 C 2691.78 -1.7632 -0.675026 0
M  V30 28146 O 2691.14 -1.09452 -1.46036 0
M  V30 28147 C 2691.19 -3.43446 1.12814 0
M  V30 28148 O 2690.91 -3.58743 2.51466 0
M  V30 28149 C 2692.41 -4.34519 0.877976 0
M  V30 28150 H 2689.63 -0.609812 0.279948 0
M  V30 28151 H 2692.18 -1.49857 1.39151 0
M  V30 28152 H 2690.33 -3.8348 0.549691 0
M  V30 28153 H 2690.75 -4.52443 2.65321 0
M  V30 28154 H 2692.22 -5.39247 1.17969 0
M  V30 28155 H 2692.7 -4.38801 -0.187162 0
M  V30 28156 H 2693.3 -4.00186 1.43984 0
M  V30 28157 N 2691.62 -0.822988 -1.34405 0
M  V30 28158 C 2692.55 -0.259649 -2.32052 0
M  V30 28159 C 2693.53 0.623933 -1.58244 0
M  V30 28160 O 2694.72 0.550797 -1.86225 0
M  V30 28161 C 2691.85 0.579254 -3.42435 0
M  V30 28162 C 2690.8 -0.207196 -4.27498 0
M  V30 28163 C 2690.13 0.754453 -5.29351 0
M  V30 28164 C 2691.43 -1.41542 -5.02756 0
M  V30 28165 H 2693.12 -1.0755 -2.79416 0
M  V30 28166 H 2690.67 -0.518617 -1.34337 0
M  V30 28167 H 2692.62 0.98354 -4.09761 0
M  V30 28168 H 2691.34 1.42815 -2.9372 0
M  V30 28169 H 2690 -0.59285 -3.61775 0
M  V30 28170 H 2689.65 1.59931 -4.76897 0
M  V30 28171 H 2689.35 0.232458 -5.8714 0
M  V30 28172 H 2690.87 1.1566 -5.99546 0
M  V30 28173 H 2692.29 -1.08514 -5.62937 0
M  V30 28174 H 2690.69 -1.87306 -5.7012 0
M  V30 28175 H 2691.76 -2.19358 -4.32447 0
M  V30 28176 N 2693.1 1.4662 -0.577957 0
M  V30 28177 C 2694.33 2.06491 -0.0671031 0
M  V30 28178 C 2694.74 1.428 1.24116 0
M  V30 28179 O 2694.08 0.52579 1.76015 0
M  V30 28180 C 2694.14 3.59059 0.177932 0
M  V30 28181 C 2693.81 4.44915 -1.04402 0
M  V30 28182 C 2694.8 4.81748 -1.95487 0
M  V30 28183 C 2692.49 4.86122 -1.26453 0
M  V30 28184 C 2694.48 5.5861 -3.06975 0
M  V30 28185 C 2692.17 5.62745 -2.38247 0
M  V30 28186 C 2693.17 5.98902 -3.28338 0
M  V30 28187 O 2692.85 6.73977 -4.3819 0
M  V30 28188 H 2692.59 0.673972 -0.0523278 0
M  V30 28189 H 2695.14 1.89307 -0.796999 0
M  V30 28190 H 2693.37 3.74533 0.962385 0
M  V30 28191 H 2695.06 4.00875 0.636711 0
M  V30 28192 H 2695.83 4.50495 -1.79665 0
M  V30 28193 H 2691.7 4.57433 -0.572397 0
M  V30 28194 H 2695.25 5.8675 -3.77319 0
M  V30 28195 H 2691.15 5.93411 -2.54034 0
M  V30 28196 H 2691.91 6.92396 -4.36498 0
M  V30 28197 N 2694.58 0.315484 1.5441 0
M  V30 28198 C 2695.99 -0.0374359 1.59556 0
M  V30 28199 C 2696.19 -1.51178 1.3322 0
M  V30 28200 O 2695.25 -2.26662 1.11268 0
M  V30 28201 C 2696.56 0.37353 2.98371 0
M  V30 28202 C 2698.11 0.323507 3.11324 0
M  V30 28203 C 2698.58 0.709512 4.52471 0
M  V30 28204 N 2700.08 0.662605 4.58436 0
M  V30 28205 C 2700.81 0.933574 5.65749 0
M  V30 28206 N 2700.31 1.27126 6.81037 0
M  V30 28207 N 2702.1 0.859671 5.55487 0
M  V30 28208 H 2694.25 1.27617 1.69787 0
M  V30 28209 H 2696.51 0.51837 0.793723 0
M  V30 28210 H 2696.22 1.40043 3.22616 0
M  V30 28211 H 2696.09 -0.265549 3.76264 0
M  V30 28212 H 2698.48 -0.694172 2.86819 0
M  V30 28213 H 2698.56 0.997408 2.35553 0
M  V30 28214 H 2698.21 1.72507 4.77707 0
M  V30 28215 H 2698.14 0.0133849 5.26598 0
M  V30 28216 H 2700.63 0.413131 3.75635 0
M  V30 28217 H 2700.94 1.46361 7.58814 0
M  V30 28218 H 2699.28 1.30944 6.82553 0
M  V30 28219 H 2702.48 0.595406 4.64298 0
M  V30 28220 H 2702.65 1.07421 6.39034 0
M  V30 28221 N 2696.05 -1.5754 0.0434891 0
M  V30 28222 C 2697.3 -1.91562 -0.63142 0
M  V30 28223 C 2697.62 -0.92295 -1.72456 0
M  V30 28224 O 2698.82 -1.15494 -2.4571 0
M  V30 28225 C 2697.28 -3.402 -1.17441 0
M  V30 28226 C 2696.89 -4.47855 -0.113788 0
M  V30 28227 C 2698.63 -3.83267 -1.825 0
M  V30 28228 C 2696.54 -5.87601 -0.669222 0
M  V30 28229 H 2695.47 -0.714912 -0.239617 0
M  V30 28230 H 2698.12 -1.83163 0.111129 0
M  V30 28231 H 2696.5 -3.43577 -1.96903 0
M  V30 28232 H 2697.67 -4.56057 0.659428 0
M  V30 28233 H 2695.99 -4.14081 0.438894 0
M  V30 28234 H 2698.59 -4.85038 -2.25038 0
M  V30 28235 H 2698.93 -3.191 -2.6736 0
M  V30 28236 H 2699.46 -3.82374 -1.09706 0
M  V30 28237 H 2696.2 -6.55347 0.141564 0
M  V30 28238 H 2695.72 -5.82977 -1.4106 0
M  V30 28239 H 2697.4 -6.36616 -1.15451 0
M  V30 28240 N 2697.53 0.229818 -1.55915 0
M  V30 28241 C 2698.81 0.979265 -1.69321 0
M  V30 28242 C 2699.19 2.02735 -0.588357 0
M  V30 28243 O 2698.54 2.24867 0.405821 0
M  V30 28244 C 2698.75 1.59718 -3.10308 0
M  V30 28245 C 2700.1 2.09258 -3.69454 0
M  V30 28246 O 2701.12 1.69628 -3.13217 0
M  V30 28247 O 2699.98 2.82074 -4.68077 0
M  V30 28248 H 2697.07 0.456907 -0.689322 0
M  V30 28249 H 2699.62 0.222253 -1.68238 0
M  V30 28250 H 2698.39 0.839972 -3.82178 0
M  V30 28251 H 2698.01 2.41995 -3.15474 0
M  V30 28252 N 2699.01 1.49585 0.49619 0
M  V30 28253 C 2700.26 1.59 1.24754 0
M  V30 28254 C 2700.58 0.280809 1.92968 0
M  V30 28255 O 2699.85 -0.700166 1.8296 0
M  V30 28256 H 2698.43 0.585844 0.46346 0
M  V30 28257 H 2701.09 1.86236 0.574645 0
M  V30 28258 H 2700.19 2.3885 2.00891 0
M  V30 28259 N 2700.49 -0.747586 1.3874 0
M  V30 28260 C 2701.45 -1.8431 1.36245 0
M  V30 28261 C 2702.45 -1.58654 0.261839 0
M  V30 28262 O 2703.64 -1.66287 0.51906 0
M  V30 28263 C 2700.77 -3.21886 1.12259 0
M  V30 28264 H 2701.97 -1.87929 2.33715 0
M  V30 28265 H 2699.52 -0.949924 1.24121 0
M  V30 28266 H 2700.25 -3.23933 0.15419 0
M  V30 28267 H 2700.04 -3.41903 1.91949 0
M  V30 28268 H 2701.53 -4.01958 1.13223 0
M  V30 28269 N 2701.97 -1.23709 -0.97642 0
M  V30 28270 C 2702.92 -0.988887 -2.05439 0
M  V30 28271 C 2703.9 0.0665619 -1.60762 0
M  V30 28272 O 2705.09 -0.146071 -1.76396 0
M  V30 28273 C 2702.22 -0.586283 -3.38257 0
M  V30 28274 C 2701.31 -1.67734 -3.8952 0
M  V30 28275 N 2701.7 -2.90841 -4.13817 0
M  V30 28276 C 2700 -1.55284 -4.18094 0
M  V30 28277 C 2700.7 -3.6151 -4.55725 0
M  V30 28278 N 2699.67 -2.89038 -4.60389 0
M  V30 28279 H 2703.48 -1.92379 -2.22188 0
M  V30 28280 H 2700.99 -1.13706 -1.15952 0
M  V30 28281 H 2702.99 -0.389731 -4.15074 0
M  V30 28282 H 2701.65 0.341537 -3.22899 0
M  V30 28283 H 2702.66 -3.27107 -4.01524 0
M  V30 28284 H 2699.33 -0.692423 -4.11718 0
M  V30 28285 H 2700.72 -4.67067 -4.83009 0
M  V30 28286 N 2703.44 1.17579 -1.04943 0
M  V30 28287 C 2704.37 2.23705 -0.669211 0
M  V30 28288 C 2705.36 1.66832 0.331806 0
M  V30 28289 O 2706.54 1.93062 0.209954 0
M  V30 28290 C 2703.67 3.47276 -0.04055 0
M  V30 28291 C 2702.62 4.16955 -0.966057 0
M  V30 28292 C 2701.95 5.34321 -0.201406 0
M  V30 28293 C 2703.25 4.69465 -2.2891 0
M  V30 28294 H 2704.94 2.55765 -1.55643 0
M  V30 28295 H 2702.49 1.22938 -0.749815 0
M  V30 28296 H 2704.44 4.20732 0.237224 0
M  V30 28297 H 2703.17 3.14476 0.881603 0
M  V30 28298 H 2701.83 3.45408 -1.22835 0
M  V30 28299 H 2701.47 4.9777 0.723432 0
M  V30 28300 H 2701.17 5.81877 -0.81807 0
M  V30 28301 H 2702.7 6.10561 0.0691426 0
M  V30 28302 H 2704.11 5.3457 -2.07141 0
M  V30 28303 H 2702.51 5.27591 -2.85951 0
M  V30 28304 H 2703.58 3.86409 -2.92944 0
M  V30 28305 N 2704.92 0.830104 1.33967 0
M  V30 28306 C 2706.15 0.434808 2.0228 0
M  V30 28307 C 2706.57 -0.96139 1.62489 0
M  V30 28308 O 2705.92 -1.62335 0.833878 0
M  V30 28309 C 2705.97 0.535687 3.57509 0
M  V30 28310 O 2705.69 1.87686 3.9586 0
M  V30 28311 C 2707.2 0.136215 4.43091 0
M  V30 28312 H 2704.42 0.173624 0.648148 0
M  V30 28313 H 2706.96 1.12025 1.71087 0
M  V30 28314 H 2705.11 -0.101749 3.87266 0
M  V30 28315 H 2705.53 1.85618 4.90557 0
M  V30 28316 H 2707 0.257869 5.51397 0
M  V30 28317 H 2707.48 -0.921 4.29435 0
M  V30 28318 H 2708.09 0.747736 4.18675 0
M  V30 28319 N 2706.4 -1.46311 0.585725 0
M  V30 28320 C 2707.35 -2.30339 -0.145795 0
M  V30 28321 C 2708.32 -1.40799 -0.88119 0
M  V30 28322 O 2709.5 -1.69746 -0.871263 0
M  V30 28323 C 2706.64 -3.2532 -1.15155 0
M  V30 28324 C 2705.76 -4.2996 -0.419292 0
M  V30 28325 C 2704.89 -5.12067 -1.41284 0
M  V30 28326 C 2703.93 -6.08453 -0.667154 0
M  V30 28327 N 2703.07 -6.83417 -1.60891 0
M  V30 28328 H 2707.91 -2.92364 0.576807 0
M  V30 28329 H 2705.44 -1.44086 0.296262 0
M  V30 28330 H 2707.4 -3.78835 -1.74757 0
M  V30 28331 H 2706.03 -2.65097 -1.84183 0
M  V30 28332 H 2705.08 -3.79279 0.291817 0
M  V30 28333 H 2706.4 -4.98532 0.163521 0
M  V30 28334 H 2705.55 -5.69873 -2.08157 0
M  V30 28335 H 2704.29 -4.43463 -2.02958 0
M  V30 28336 H 2703.29 -5.49798 0.0153323 0
M  V30 28337 H 2704.52 -6.79077 -0.0557623 0
M  V30 28338 H 2702.47 -6.1752 -2.2137 0
M  V30 28339 H 2702.38 -7.48261 -1.07898 0
M  V30 28340 H 2703.65 -7.45779 -2.26789 0
M  V30 28341 N 2707.88 -0.323668 -1.54241 0
M  V30 28342 C 2708.81 0.584794 -2.2058 0
M  V30 28343 C 2709.79 1.11565 -1.18288 0
M  V30 28344 O 2710.97 1.17963 -1.47027 0
M  V30 28345 C 2708.1 1.80244 -2.86757 0
M  V30 28346 C 2707.15 1.40282 -4.02769 0
M  V30 28347 S 2707.98 0.439445 -5.33694 0
M  V30 28348 C 2709.14 1.66437 -6.03365 0
M  V30 28349 H 2709.37 0.0212716 -2.97292 0
M  V30 28350 H 2706.9 -0.107753 -1.54024 0
M  V30 28351 H 2708.86 2.5011 -3.25507 0
M  V30 28352 H 2707.52 2.33715 -2.09848 0
M  V30 28353 H 2706.71 2.31016 -4.47937 0
M  V30 28354 H 2706.32 0.783864 -3.65693 0
M  V30 28355 H 2708.61 2.60179 -6.2555 0
M  V30 28356 H 2709.55 1.25485 -6.96892 0
M  V30 28357 H 2709.96 1.8514 -5.33276 0
M  V30 28358 N 2709.36 1.57515 -0.0518432 0
M  V30 28359 C 2710.58 1.97444 0.634861 0
M  V30 28360 C 2711.01 0.929236 1.63545 0
M  V30 28361 O 2710.37 -0.107452 1.80981 0
M  V30 28362 C 2710.41 3.36445 1.29759 0
M  V30 28363 O 2709.52 3.34417 2.41327 0
M  V30 28364 H 2708.86 0.643177 0.164983 0
M  V30 28365 H 2711.39 2.04245 -0.120442 0
M  V30 28366 H 2711.4 3.73187 1.64912 0
M  V30 28367 H 2710.07 4.12054 0.564288 0
M  V30 28368 H 2708.65 3.09422 2.08117 0
M  V30 28369 N 2710.84 -0.221546 1.56035 0
M  V30 28370 C 2711.75 -1.29554 1.95583 0
M  V30 28371 C 2712.76 -1.5128 0.859665 0
M  V30 28372 O 2713.94 -1.64411 1.16323 0
M  V30 28373 C 2711 -2.62527 2.26452 0
M  V30 28374 C 2710.06 -2.49104 3.49637 0
M  V30 28375 C 2709.3 -3.75735 3.79023 0
M  V30 28376 O 2709.52 -4.78752 3.10086 0
M  V30 28377 O 2708.45 -3.72847 4.72513 0
M  V30 28378 H 2712.28 -0.989984 2.87111 0
M  V30 28379 H 2709.86 -0.424409 1.43245 0
M  V30 28380 H 2711.75 -3.4106 2.475 0
M  V30 28381 H 2710.42 -2.92764 1.38097 0
M  V30 28382 H 2709.33 -1.68771 3.33867 0
M  V30 28383 H 2710.66 -2.23806 4.38374 0
M  V30 28384 N 2712.31 -1.49846 -0.48825 0
M  V30 28385 C 2713.54 -1.63467 -1.26341 0
M  V30 28386 C 2713.95 -0.310411 -1.86636 0
M  V30 28387 O 2713.29 0.715682 -1.69185 0
M  V30 28388 C 2713.36 -2.65483 -2.42403 0
M  V30 28389 C 2713.02 -4.09499 -2.02879 0
M  V30 28390 C 2714.02 -4.95907 -1.56115 0
M  V30 28391 C 2711.7 -4.55312 -2.12123 0
M  V30 28392 C 2713.7 -6.26171 -1.19118 0
M  V30 28393 C 2711.38 -5.85585 -1.74737 0
M  V30 28394 C 2712.38 -6.70839 -1.2831 0
M  V30 28395 O 2712.07 -7.98683 -0.91435 0
M  V30 28396 H 2711.8 -0.552923 -0.388911 0
M  V30 28397 H 2714.36 -1.96706 -0.591254 0
M  V30 28398 H 2712.59 -2.2745 -3.12735 0
M  V30 28399 H 2714.27 -2.68501 -3.04405 0
M  V30 28400 H 2715.04 -4.61736 -1.48409 0
M  V30 28401 H 2710.92 -3.89112 -2.4721 0
M  V30 28402 H 2714.46 -6.92668 -0.828089 0
M  V30 28403 H 2710.36 -6.19282 -1.82098 0
M  V30 28404 H 2711.13 -8.11805 -1.04471 0
M  V30 28405 N 2713.79 0.740218 -1.39135 0
M  V30 28406 C 2714.74 1.85417 -1.37437 0
M  V30 28407 C 2715.71 1.64431 -0.234851 0
M  V30 28408 O 2716.89 1.85911 -0.429158 0
M  V30 28409 C 2714.03 3.22873 -1.2185 0
M  V30 28410 C 2713.15 3.55599 -2.45302 0
M  V30 28411 C 2712.28 4.82428 -2.22343 0
M  V30 28412 C 2711.32 5.07982 -3.41497 0
M  V30 28413 N 2710.46 6.26012 -3.17888 0
M  V30 28414 H 2715.3 1.86203 -2.32664 0
M  V30 28415 H 2712.83 0.909926 -1.1558 0
M  V30 28416 H 2714.79 4.02211 -1.10825 0
M  V30 28417 H 2713.42 3.21379 -0.302557 0
M  V30 28418 H 2712.47 2.71002 -2.6695 0
M  V30 28419 H 2713.79 3.70404 -3.34069 0
M  V30 28420 H 2712.94 5.69737 -2.0853 0
M  V30 28421 H 2711.68 4.69787 -1.30962 0
M  V30 28422 H 2710.68 4.19138 -3.55814 0
M  V30 28423 H 2711.91 5.22512 -4.33772 0
M  V30 28424 H 2709.86 6.14669 -2.29167 0
M  V30 28425 H 2709.77 6.4138 -4.00209 0
M  V30 28426 H 2711.04 7.16174 -3.07758 0
M  V30 28427 N 2715.27 1.24225 0.969846 0
M  V30 28428 C 2716.52 1.07853 1.70916 0
M  V30 28429 C 2716.84 -0.383729 1.91187 0
M  V30 28430 O 2716.11 -1.27408 1.48808 0
M  V30 28431 H 2714.69 0.396114 0.633327 0
M  V30 28432 H 2717.35 1.5611 1.16686 0
M  V30 28433 H 2716.45 1.57487 2.69452 0
M  V30 28434 N 2716.75 -1.1702 1.05565 0
M  V30 28435 C 2718.16 -1.68998 0.793504 0
M  V30 28436 C 2718.51 -1.83897 -0.68385 0
M  V30 28437 O 2717.63 -1.52923 -1.53113 0
M  V30 28438 C 2718.23 -3.06964 1.43382 0
M  V30 28439 C 2716.79 -3.56093 1.21962 0
M  V30 28440 C 2715.94 -2.32258 1.51498 0
M  V30 28441 H 2718.89 -1.01485 1.2201 0
M  V30 28442 H 2718.91 -3.70996 0.845133 0
M  V30 28443 H 2718.42 -2.96089 2.50904 0
M  V30 28444 H 2716.52 -3.7224 0.163814 0
M  V30 28445 H 2716.63 -4.38629 1.92721 0
M  V30 28446 H 2715 -2.36909 0.935217 0
M  V30 28447 H 2715.78 -2.23987 2.60163 0
M  V30 28448 N 2718.23 -0.837197 -1.33524 0
M  V30 28449 C 2719.47 -0.432739 -1.98129 0
M  V30 28450 C 2719.8 1.00505 -1.6617 0
M  V30 28451 O 2719.08 1.70237 -0.940719 0
M  V30 28452 C 2719.36 -0.651896 -3.5415 0
M  V30 28453 C 2719.22 -2.13683 -3.95802 0
M  V30 28454 C 2720.53 -0.096971 -4.39993 0
M  V30 28455 H 2717.65 -0.158702 -0.71971 0
M  V30 28456 H 2720.3 -1.0524 -1.58191 0
M  V30 28457 H 2718.45 -0.124437 -3.88301 0
M  V30 28458 H 2720.12 -2.72903 -3.71916 0
M  V30 28459 H 2718.36 -2.62197 -3.45594 0
M  V30 28460 H 2719.03 -2.24093 -5.04466 0
M  V30 28461 H 2721.51 -0.547805 -4.12478 0
M  V30 28462 H 2720.38 -0.280013 -5.48185 0
M  V30 28463 H 2720.64 0.999124 -4.30662 0
M  V30 28464 N 2719.7 1.45999 -0.593476 0
M  V30 28465 C 2720.93 2.06708 -0.0891297 0
M  V30 28466 C 2721.35 1.44048 1.22048 0
M  V30 28467 O 2720.7 0.549581 1.74028 0
M  V30 28468 C 2720.75 3.61428 0.0719628 0
M  V30 28469 O 2720.48 4.21746 -1.18582 0
M  V30 28470 C 2721.98 4.39091 0.60941 0
M  V30 28471 H 2719.2 0.668095 -0.0623745 0
M  V30 28472 H 2721.74 1.87462 -0.817204 0
M  V30 28473 H 2719.9 3.80065 0.750302 0
M  V30 28474 H 2720.31 5.14752 -1.00649 0
M  V30 28475 H 2721.78 5.47903 0.671267 0
M  V30 28476 H 2722.26 4.07884 1.62871 0
M  V30 28477 H 2722.87 4.25286 -0.0344148 0
M  V30 28478 N 2721.18 0.331843 1.54067 0
M  V30 28479 C 2722.46 -0.322921 1.92916 0
M  V30 28480 C 2722.84 -1.69203 1.26228 0
M  V30 28481 O 2722.19 -2.24811 0.408958 0
M  V30 28482 C 2722.4 -0.406885 3.4662 0
M  V30 28483 C 2723.75 -0.663265 4.19388 0
M  V30 28484 O 2724.77 -0.489474 3.52821 0
M  V30 28485 O 2723.63 -0.999099 5.3729 0
M  V30 28486 H 2720.72 -0.186001 0.805812 0
M  V30 28487 H 2723.27 0.382164 1.65341 0
M  V30 28488 H 2722.04 0.554355 3.87353 0
M  V30 28489 H 2721.66 -1.15922 3.80326 0
M  V30 28490 N 2722.66 -1.57485 0.0601958 0
M  V30 28491 C 2723.91 -1.93331 -0.612467 0
M  V30 28492 C 2724.24 -0.939556 -1.69959 0
M  V30 28493 O 2723.51 0.0330616 -1.94472 0
M  V30 28494 C 2723.8 -3.39511 -1.20019 0
M  V30 28495 C 2723.65 -4.49639 -0.120511 0
M  V30 28496 C 2724.97 -3.86267 -2.10916 0
M  V30 28497 H 2722.09 -0.70303 -0.221172 0
M  V30 28498 H 2724.73 -1.89596 0.123801 0
M  V30 28499 H 2722.88 -3.42824 -1.82768 0
M  V30 28500 H 2724.55 -4.58451 0.51193 0
M  V30 28501 H 2722.8 -4.30295 0.550327 0
M  V30 28502 H 2723.47 -5.49029 -0.571922 0
M  V30 28503 H 2725.94 -3.84887 -1.58118 0
M  V30 28504 H 2724.82 -4.89184 -2.48978 0
M  V30 28505 H 2725.08 -3.23541 -3.01286 0
M  V30 28506 N 2724.14 0.213268 -1.5615 0
M  V30 28507 C 2725.39 0.93643 -1.79547 0
M  V30 28508 C 2725.71 1.84002 -0.630369 0
M  V30 28509 O 2724.97 1.91879 0.384849 0
M  V30 28510 C 2725.27 1.7998 -3.08775 0
M  V30 28511 C 2724.93 1.04874 -4.38534 0
M  V30 28512 C 2723.6 0.84131 -4.73788 0
M  V30 28513 C 2725.95 0.518978 -5.1861 0
M  V30 28514 C 2723.28 0.0923372 -5.86627 0
M  V30 28515 C 2725.63 -0.216692 -6.32229 0
M  V30 28516 C 2724.29 -0.435308 -6.66079 0
M  V30 28517 H 2723.56 0.342664 -0.65701 0
M  V30 28518 H 2726.21 0.204017 -1.9041 0
M  V30 28519 H 2724.51 2.60033 -2.9307 0
M  V30 28520 H 2726.21 2.36162 -3.24081 0
M  V30 28521 H 2722.8 1.22041 -4.10858 0
M  V30 28522 H 2726.98 0.666688 -4.91802 0
M  V30 28523 H 2722.24 -0.0871885 -6.11338 0
M  V30 28524 H 2726.41 -0.634659 -6.93502 0
M  V30 28525 H 2724.04 -1.01759 -7.53359 0
M  V30 28526 N 2725.62 1.50103 0.480296 0
M  V30 28527 C 2726.85 1.64135 1.25472 0
M  V30 28528 C 2727.25 0.320305 1.86469 0
M  V30 28529 O 2726.6 -0.7067 1.69562 0
M  V30 28530 C 2726.66 2.66765 2.40991 0
M  V30 28531 C 2726.32 4.10569 2.00704 0
M  V30 28532 C 2727.32 4.96728 1.53483 0
M  V30 28533 C 2725.01 4.5643 2.09706 0
M  V30 28534 C 2727 6.26794 1.15795 0
M  V30 28535 C 2724.69 5.86504 1.71629 0
M  V30 28536 C 2725.68 6.7151 1.24751 0
M  V30 28537 O 2725.37 7.99157 0.871981 0
M  V30 28538 H 2725.1 0.554978 0.385973 0
M  V30 28539 H 2727.66 1.97017 0.580813 0
M  V30 28540 H 2725.89 2.29106 3.11524 0
M  V30 28541 H 2727.58 2.70111 3.02976 0
M  V30 28542 H 2728.34 4.62516 1.45958 0
M  V30 28543 H 2724.22 3.90417 2.45143 0
M  V30 28544 H 2727.77 6.93097 0.791344 0
M  V30 28545 H 2723.66 6.20239 1.78811 0
M  V30 28546 H 2724.43 8.12348 1.00164 0
M  V30 28547 N 2727.09 -0.732829 1.39526 0
M  V30 28548 C 2728.04 -1.84686 1.38419 0
M  V30 28549 C 2729.01 -1.64304 0.243568 0
M  V30 28550 O 2730.2 -1.85681 0.439011 0
M  V30 28551 C 2727.34 -3.22222 1.2356 0
M  V30 28552 C 2726.45 -3.54293 2.47185 0
M  V30 28553 C 2725.58 -4.81242 2.24898 0
M  V30 28554 C 2724.62 -5.06164 3.44187 0
M  V30 28555 N 2723.76 -6.24318 3.21203 0
M  V30 28556 H 2728.6 -1.84967 2.33648 0
M  V30 28557 H 2726.14 -0.903784 1.16061 0
M  V30 28558 H 2728.1 -4.01618 1.12956 0
M  V30 28559 H 2726.73 -3.21214 0.319596 0
M  V30 28560 H 2725.78 -2.69582 2.68383 0
M  V30 28561 H 2727.09 -3.68627 3.36029 0
M  V30 28562 H 2726.24 -5.68623 2.11548 0
M  V30 28563 H 2724.98 -4.69086 1.33452 0
M  V30 28564 H 2723.99 -4.17245 3.58032 0
M  V30 28565 H 2725.21 -5.20204 4.36537 0
M  V30 28566 H 2723.16 -6.13445 2.32424 0
M  V30 28567 H 2723.08 -6.39249 4.03605 0
M  V30 28568 H 2724.34 -7.14532 3.11552 0
M  V30 28569 N 2728.57 -1.24737 -0.963244 0
M  V30 28570 C 2729.48 -1.06085 -2.09244 0
M  V30 28571 C 2730.5 -0.000393686 -1.74 0
M  V30 28572 O 2731.67 -0.199514 -2.00409 0
M  V30 28573 C 2728.74 -0.672558 -3.40114 0
M  V30 28574 C 2727.8 -1.81 -3.89278 0
M  V30 28575 C 2727.03 -1.44013 -5.13903 0
M  V30 28576 O 2727.26 -0.331935 -5.69433 0
M  V30 28577 O 2726.19 -2.26733 -5.57562 0
M  V30 28578 H 2730.02 -2.00763 -2.27877 0
M  V30 28579 H 2727.6 -1.03597 -1.07648 0
M  V30 28580 H 2729.48 -0.467742 -4.18796 0
M  V30 28581 H 2728.16 0.245045 -3.22771 0
M  V30 28582 H 2727.07 -2.0696 -3.11638 0
M  V30 28583 H 2728.4 -2.70653 -4.11105 0
M  V30 28584 N 2730.05 1.16459 -1.06184 0
M  V30 28585 C 2731.28 1.90866 -0.798617 0
M  V30 28586 C 2731.69 1.77372 0.64689 0
M  V30 28587 O 2731.05 1.11761 1.44277 0
M  V30 28588 C 2731.1 3.41608 -1.18264 0
M  V30 28589 O 2730.82 3.54697 -2.57141 0
M  V30 28590 C 2732.32 4.33067 -0.946993 0
M  V30 28591 H 2729.54 0.605281 -0.289614 0
M  V30 28592 H 2732.09 1.47624 -1.41518 0
M  V30 28593 H 2730.24 3.82557 -0.61063 0
M  V30 28594 H 2730.66 4.48165 -2.72485 0
M  V30 28595 H 2732.13 5.37302 -1.26533 0
M  V30 28596 H 2732.61 4.39043 0.117329 0
M  V30 28597 H 2733.21 3.97844 -1.50333 0
M  V30 28598 N 2731.53 0.844266 1.33079 0
M  V30 28599 C 2732.75 0.455318 2.0234 0
M  V30 28600 C 2733.18 -0.937342 1.63081 0
M  V30 28601 O 2732.54 -1.61383 0.826147 0
M  V30 28602 C 2732.58 0.589942 3.55742 0
M  V30 28603 O 2731.69 -0.381588 4.10631 0
M  V30 28604 H 2731.03 0.184354 0.637895 0
M  V30 28605 H 2733.56 1.14059 1.69858 0
M  V30 28606 H 2733.57 0.473593 4.05242 0
M  V30 28607 H 2732.24 1.60556 3.8366 0
M  V30 28608 H 2730.82 -0.222344 3.72237 0
M  V30 28609 N 2733.01 -1.45682 0.60121 0
M  V30 28610 C 2734.24 -2.06358 0.0999455 0
M  V30 28611 C 2734.64 -1.44756 -1.21829 0
M  V30 28612 O 2733.99 -0.553726 -1.75156 0
M  V30 28613 C 2734.05 -3.59297 -0.120786 0
M  V30 28614 C 2733.71 -4.43198 1.11467 0
M  V30 28615 C 2734.71 -4.78577 2.03127 0
M  V30 28616 C 2732.4 -4.84049 1.34171 0
M  V30 28617 C 2734.39 -5.53655 3.15823 0
M  V30 28618 C 2732.08 -5.58883 2.47169 0
M  V30 28619 C 2733.07 -5.93602 3.37824 0
M  V30 28620 O 2732.76 -6.6692 4.48857 0
M  V30 28621 H 2732.49 -0.673054 0.0630434 0
M  V30 28622 H 2735.05 -1.88015 0.827015 0
M  V30 28623 H 2733.28 -3.76017 -0.902678 0
M  V30 28624 H 2734.97 -4.01837 -0.572855 0
M  V30 28625 H 2735.73 -4.4758 1.86809 0
M  V30 28626 H 2731.61 -4.56464 0.645098 0
M  V30 28627 H 2735.16 -5.80673 3.86606 0
M  V30 28628 H 2731.05 -5.89295 2.63442 0
M  V30 28629 H 2731.82 -6.85364 4.47458 0
M  V30 28630 N 2734.48 -0.340009 -1.53889 0
M  V30 28631 C 2735.71 0.259078 -2.05272 0
M  V30 28632 C 2736.13 1.44494 -1.2152 0
M  V30 28633 O 2735.48 1.80784 -0.249692 0
M  V30 28634 C 2735.54 0.677571 -3.55093 0
M  V30 28635 O 2735.26 -0.461128 -4.35666 0
M  V30 28636 C 2736.76 1.33775 -4.22634 0
M  V30 28637 H 2733.98 0.0506448 -0.669086 0
M  V30 28638 H 2736.52 -0.49097 -1.98519 0
M  V30 28639 H 2734.68 1.37757 -3.6208 0
M  V30 28640 H 2735.09 -0.128236 -5.24343 0
M  V30 28641 H 2736.56 1.58136 -5.28864 0
M  V30 28642 H 2737.04 2.2902 -3.74762 0
M  V30 28643 H 2737.65 0.679883 -4.19831 0
M  V30 28644 N 2735.96 1.57451 -0.0685468 0
M  V30 28645 C 2737.19 1.9769 0.610427 0
M  V30 28646 C 2737.61 0.946787 1.63344 0
M  V30 28647 O 2736.96 -0.0669548 1.82377 0
M  V30 28648 C 2737.01 3.38008 1.2819 0
M  V30 28649 O 2736.74 4.37073 0.299829 0
M  V30 28650 C 2738.24 3.93104 2.049 0
M  V30 28651 H 2735.46 0.650224 0.165678 0
M  V30 28652 H 2738 2.0402 -0.139989 0
M  V30 28653 H 2736.16 3.32775 1.98342 0
M  V30 28654 H 2736.57 5.1865 0.781169 0
M  V30 28655 H 2738.04 4.93515 2.47279 0
M  V30 28656 H 2738.52 3.2947 2.90424 0
M  V30 28657 H 2739.13 4.01729 1.39622 0
M  V30 28658 N 2737.44 -0.204984 1.56261 0
M  V30 28659 C 2738.67 -0.943354 1.84142 0
M  V30 28660 C 2739.08 -1.77265 0.649803 0
M  V30 28661 O 2738.44 -1.78466 -0.381581 0
M  V30 28662 C 2738.49 -1.84754 3.10722 0
M  V30 28663 O 2738.21 -1.05174 4.25288 0
M  V30 28664 C 2739.71 -2.69842 3.5171 0
M  V30 28665 H 2736.93 -0.275711 0.611739 0
M  V30 28666 H 2739.48 -0.215217 2.03364 0
M  V30 28667 H 2737.63 -2.52942 2.93427 0
M  V30 28668 H 2738.05 -1.667 4.97304 0
M  V30 28669 H 2739.52 -3.28959 4.43272 0
M  V30 28670 H 2740 -3.43062 2.74236 0
M  V30 28671 H 2740.6 -2.07041 3.71503 0
M  V30 28672 N 2738.92 -1.50356 -0.472329 0
M  V30 28673 C 2740.17 -1.60524 -1.22127 0
M  V30 28674 C 2740.48 -0.3105 -1.9312 0
M  V30 28675 O 2741.69 -0.291076 -2.69935 0
M  V30 28676 C 2740.14 -2.83349 -2.21904 0
M  V30 28677 C 2739.75 -4.19694 -1.5672 0
M  V30 28678 C 2741.5 -3.02862 -2.97448 0
M  V30 28679 C 2739.4 -5.33707 -2.54775 0
M  V30 28680 H 2738.33 -0.597784 -0.459533 0
M  V30 28681 H 2740.98 -1.76784 -0.491891 0
M  V30 28682 H 2739.37 -2.60645 -2.98128 0
M  V30 28683 H 2740.54 -4.52648 -0.862928 0
M  V30 28684 H 2738.85 -4.05776 -0.934613 0
M  V30 28685 H 2741.45 -3.85212 -3.70831 0
M  V30 28686 H 2741.79 -2.14541 -3.56761 0
M  V30 28687 H 2742.33 -3.25741 -2.28336 0
M  V30 28688 H 2739.07 -6.24179 -2.00203 0
M  V30 28689 H 2738.59 -5.05173 -3.23358 0
M  V30 28690 H 2740.27 -5.64229 -3.16629 0
M  V30 28691 N 2740.4 0.725419 -1.39912 0
M  V30 28692 C 2741.34 1.83949 -1.39396 0
M  V30 28693 C 2742.31 1.64173 -0.252278 0
M  V30 28694 O 2743.5 1.85445 -0.448852 0
M  V30 28695 C 2740.64 3.21562 -1.25267 0
M  V30 28696 C 2739.75 3.52977 -2.4906 0
M  V30 28697 C 2738.89 4.80043 -2.27447 0
M  V30 28698 C 2737.93 5.04332 -3.46866 0
M  V30 28699 N 2737.06 6.22606 -3.2451 0
M  V30 28700 H 2741.9 1.83725 -2.34626 0
M  V30 28701 H 2739.44 0.897616 -1.16539 0
M  V30 28702 H 2741.4 4.01013 -1.15084 0
M  V30 28703 H 2740.03 3.2104 -0.336626 0
M  V30 28704 H 2739.08 2.68155 -2.69809 0
M  V30 28705 H 2740.39 3.6684 -3.37979 0
M  V30 28706 H 2739.55 5.67493 -2.14561 0
M  V30 28707 H 2738.29 4.68372 -1.35937 0
M  V30 28708 H 2737.29 4.1534 -3.6024 0
M  V30 28709 H 2738.52 5.17882 -4.3929 0
M  V30 28710 H 2736.46 6.12204 -2.35674 0
M  V30 28711 H 2736.38 6.37099 -4.0699 0
M  V30 28712 H 2737.65 7.12869 -3.15337 0
M  V30 28713 N 2741.88 1.25246 0.956615 0
M  V30 28714 C 2743.29 1.09015 1.51567 0
M  V30 28715 C 2743.64 -0.334779 1.93323 0
M  V30 28716 O 2742.76 -1.22451 1.78423 0
M  V30 28717 C 2743.36 1.97276 2.75441 0
M  V30 28718 C 2741.92 1.85236 3.27665 0
M  V30 28719 C 2741.06 1.91546 2.00513 0
M  V30 28720 H 2744.01 1.38561 0.773722 0
M  V30 28721 H 2744.04 1.51158 3.49187 0
M  V30 28722 H 2743.55 3.00977 2.45019 0
M  V30 28723 H 2741.65 0.844109 3.62913 0
M  V30 28724 H 2741.76 2.69938 3.95816 0
M  V30 28725 H 2740.13 1.35407 2.15724 0
M  V30 28726 H 2740.91 2.96847 1.72443 0
M  V30 28727 N 2743.35 -1.15894 1.068 0
M  V30 28728 C 2744.6 -1.86824 0.788967 0
M  V30 28729 C 2744.93 -1.81791 -0.683052 0
M  V30 28730 O 2744.21 -1.23714 -1.50084 0
M  V30 28731 C 2744.49 -3.36174 1.29071 0
M  V30 28732 C 2744.34 -3.49869 2.82686 0
M  V30 28733 C 2745.66 -4.30742 0.902731 0
M  V30 28734 H 2742.78 -0.678366 0.288077 0
M  V30 28735 H 2745.42 -1.36193 1.32482 0
M  V30 28736 H 2743.57 -3.79423 0.834873 0
M  V30 28737 H 2745.25 -3.15522 3.36517 0
M  V30 28738 H 2743.49 -2.91611 3.21162 0
M  V30 28739 H 2744.16 -4.54778 3.1286 0
M  V30 28740 H 2746.64 -3.95421 1.29542 0
M  V30 28741 H 2745.51 -5.33738 1.2812 0
M  V30 28742 H 2745.77 -4.41683 -0.191874 0
M  V30 28743 N 2744.83 -0.851312 -1.32629 0
M  V30 28744 C 2746.06 -0.466042 -2.02096 0
M  V30 28745 C 2746.48 0.92868 -1.63576 0
M  V30 28746 O 2745.84 1.60943 -0.834694 0
M  V30 28747 C 2745.89 -0.6088 -3.55424 0
M  V30 28748 O 2744.99 0.359806 -4.10827 0
M  V30 28749 H 2744.33 -0.187735 -0.636908 0
M  V30 28750 H 2746.86 -1.14958 -1.69251 0
M  V30 28751 H 2746.87 -0.495077 -4.04985 0
M  V30 28752 H 2745.55 -1.62588 -3.82803 0
M  V30 28753 H 2744.12 0.202601 -3.72349 0
M  V30 28754 N 2746.31 1.45361 -0.608928 0
M  V30 28755 C 2747.54 2.06302 -0.110888 0
M  V30 28756 C 2747.95 1.454 1.21059 0
M  V30 28757 O 2747.29 0.563007 1.7486 0
M  V30 28758 C 2747.35 3.59356 0.10173 0
M  V30 28759 C 2747.02 4.426 -1.13816 0
M  V30 28760 C 2748.01 4.77493 -2.05662 0
M  V30 28761 C 2745.7 4.83331 -1.36736 0
M  V30 28762 C 2747.69 5.51973 -3.18755 0
M  V30 28763 C 2745.38 5.57565 -2.5013 0
M  V30 28764 C 2746.38 5.91803 -3.40967 0
M  V30 28765 O 2746.07 6.6453 -4.52388 0
M  V30 28766 H 2745.8 0.67271 -0.0666119 0
M  V30 28767 H 2748.35 1.87574 -0.836974 0
M  V30 28768 H 2746.58 3.7649 0.882724 0
M  V30 28769 H 2748.27 4.02135 0.551536 0
M  V30 28770 H 2749.04 4.46583 -1.8918 0
M  V30 28771 H 2744.92 4.56116 -0.669296 0
M  V30 28772 H 2748.46 5.78615 -3.8968 0
M  V30 28773 H 2744.36 5.87889 -2.66564 0
M  V30 28774 H 2745.12 6.82981 -4.51087 0
M  V30 28775 N 2747.79 0.348166 1.53706 0
M  V30 28776 C 2748.73 -0.506478 2.25174 0
M  V30 28777 C 2749.7 -1.09179 1.25176 0
M  V30 28778 O 2750.89 -1.12755 1.53919 0
M  V30 28779 C 2748.03 -1.64918 3.03144 0
M  V30 28780 C 2747.14 -1.09073 4.18004 0
M  V30 28781 C 2746.28 -2.20111 4.83451 0
M  V30 28782 C 2745.32 -1.61641 5.90372 0
M  V30 28783 N 2744.45 -2.6644 6.4958 0
M  V30 28784 H 2749.29 0.109505 2.97799 0
M  V30 28785 H 2746.83 0.0658124 1.46953 0
M  V30 28786 H 2748.79 -2.32199 3.46612 0
M  V30 28787 H 2747.42 -2.23608 2.32807 0
M  V30 28788 H 2746.47 -0.308717 3.79145 0
M  V30 28789 H 2747.78 -0.623091 4.94893 0
M  V30 28790 H 2746.94 -2.95248 5.30013 0
M  V30 28791 H 2745.68 -2.7022 4.05996 0
M  V30 28792 H 2744.68 -0.850114 5.43188 0
M  V30 28793 H 2745.91 -1.12378 6.69737 0
M  V30 28794 H 2743.85 -3.15795 5.74987 0
M  V30 28795 H 2743.77 -2.24312 7.21956 0
M  V30 28796 H 2745.04 -3.41332 7.00795 0
M  V30 28797 N 2749.27 -1.57412 0.0768958 0
M  V30 28798 C 2750.2 -2.16038 -0.885988 0
M  V30 28799 C 2751.18 -1.08878 -1.30689 0
M  V30 28800 O 2752.36 -1.36936 -1.37703 0
M  V30 28801 C 2749.49 -2.72611 -2.15175 0
M  V30 28802 C 2748.45 -3.84983 -1.87008 0
M  V30 28803 C 2747.77 -4.28181 -3.20258 0
M  V30 28804 C 2749.07 -5.08996 -1.17134 0
M  V30 28805 H 2750.77 -2.96748 -0.397589 0
M  V30 28806 H 2748.31 -1.42744 -0.189798 0
M  V30 28807 H 2750.26 -3.12271 -2.82957 0
M  V30 28808 H 2748.99 -1.8913 -2.66266 0
M  V30 28809 H 2747.65 -3.45835 -1.2163 0
M  V30 28810 H 2747.3 -3.41614 -3.69201 0
M  V30 28811 H 2747 -5.03933 -3.02201 0
M  V30 28812 H 2748.52 -4.7046 -3.89229 0
M  V30 28813 H 2749.93 -5.4594 -1.74993 0
M  V30 28814 H 2748.33 -5.90059 -1.09318 0
M  V30 28815 H 2749.4 -4.84664 -0.15121 0
M  V30 28816 N 2750.74 0.196695 -1.56368 0
M  V30 28817 C 2752.02 0.943129 -1.71361 0
M  V30 28818 C 2752.4 2.01442 -0.631228 0
M  V30 28819 O 2751.75 2.25678 0.358032 0
M  V30 28820 C 2751.96 1.531 -3.13626 0
M  V30 28821 C 2753.31 2.01374 -3.7381 0
M  V30 28822 O 2754.33 1.62946 -3.16744 0
M  V30 28823 O 2753.19 2.72082 -4.73955 0
M  V30 28824 H 2750.28 0.442183 -0.698859 0
M  V30 28825 H 2752.83 0.186517 -1.68672 0
M  V30 28826 H 2751.6 0.758717 -3.83874 0
M  V30 28827 H 2751.23 2.35249 -3.20536 0
M  V30 28828 N 2752.22 1.50604 0.464349 0
M  V30 28829 C 2753.47 1.6161 1.21353 0
M  V30 28830 C 2753.79 0.321677 1.92328 0
M  V30 28831 O 2753.06 -0.661199 1.84404 0
M  V30 28832 H 2751.64 0.595543 0.450929 0
M  V30 28833 H 2754.3 1.87413 0.535013 0
M  V30 28834 H 2753.4 2.43058 1.95779 0
M  V30 28835 N 2753.7 -0.717989 1.40295 0
M  V30 28836 C 2754.95 -1.48002 1.38648 0
M  V30 28837 C 2755.28 -1.94196 -0.012086 0
M  V30 28838 O 2754.55 -1.6799 -0.98028 0
M  V30 28839 C 2754.84 -2.70778 2.37384 0
M  V30 28840 C 2754.69 -2.30494 3.86255 0
M  V30 28841 C 2756.01 -3.72929 2.33692 0
M  V30 28842 H 2753.13 -0.536849 0.504938 0
M  V30 28843 H 2755.77 -0.819619 1.71413 0
M  V30 28844 H 2753.92 -3.27125 2.09574 0
M  V30 28845 H 2755.59 -1.79647 4.24882 0
M  V30 28846 H 2753.84 -1.62523 4.02205 0
M  V30 28847 H 2754.51 -3.1849 4.50853 0
M  V30 28848 H 2756.98 -3.26206 2.58319 0
M  V30 28849 H 2755.86 -4.56477 3.04828 0
M  V30 28850 H 2756.12 -4.21057 1.34772 0
M  V30 28851 N 2755.18 -1.25752 -0.94996 0
M  V30 28852 C 2756.41 -1.1353 -1.7297 0
M  V30 28853 C 2756.82 0.31042 -1.86231 0
M  V30 28854 O 2756.18 1.21318 -1.36339 0
M  V30 28855 C 2756.23 -1.78942 -3.14105 0
M  V30 28856 O 2755.95 -3.17863 -3.01487 0
M  V30 28857 C 2757.45 -1.72561 -4.08335 0
M  V30 28858 H 2754.67 -0.395768 -0.541857 0
M  V30 28859 H 2757.22 -1.66205 -1.19148 0
M  V30 28860 H 2755.37 -1.30227 -3.64856 0
M  V30 28861 H 2755.78 -3.50098 -3.90553 0
M  V30 28862 H 2757.26 -2.22981 -5.04959 0
M  V30 28863 H 2757.74 -0.690327 -4.33741 0
M  V30 28864 H 2758.34 -2.20786 -3.63502 0
M  V30 28865 N 2756.66 1.15326 -1.07413 0
M  V30 28866 C 2757.89 1.89732 -0.817628 0
M  V30 28867 C 2758.29 1.78299 0.632939 0
M  V30 28868 O 2757.64 1.13308 1.44592 0
M  V30 28869 C 2757.7 3.40693 -1.14754 0
M  V30 28870 C 2757.36 3.75912 -2.59883 0
M  V30 28871 C 2758.36 3.76882 -3.58128 0
M  V30 28872 C 2756.05 4.06201 -2.95476 0
M  V30 28873 C 2758.04 4.07646 -4.90003 0
M  V30 28874 C 2755.73 4.3663 -4.27548 0
M  V30 28875 C 2756.72 4.37335 -5.24621 0
M  V30 28876 O 2756.41 4.67033 -6.5432 0
M  V30 28877 H 2756.14 0.608146 -0.295186 0
M  V30 28878 H 2758.7 1.47045 -1.43412 0
M  V30 28879 H 2756.93 3.83784 -0.474017 0
M  V30 28880 H 2758.62 3.9639 -0.873467 0
M  V30 28881 H 2759.38 3.53581 -3.31972 0
M  V30 28882 H 2755.26 4.04811 -2.20566 0
M  V30 28883 H 2758.81 4.08111 -5.65766 0
M  V30 28884 H 2754.7 4.59399 -4.53457 0
M  V30 28885 H 2755.47 4.84795 -6.59481 0
M  V30 28886 N 2758.13 0.858334 1.32176 0
M  V30 28887 C 2759.36 0.477617 2.01312 0
M  V30 28888 C 2759.78 -0.926707 1.64492 0
M  V30 28889 O 2759.13 -1.6053 0.868124 0
M  V30 28890 C 2759.19 0.6114 3.56292 0
M  V30 28891 O 2758.91 1.96041 3.9179 0
M  V30 28892 C 2760.41 0.230171 4.42702 0
M  V30 28893 H 2757.63 0.187333 0.644319 0
M  V30 28894 H 2760.17 1.15629 1.68672 0
M  V30 28895 H 2758.33 -0.0195813 3.87395 0
M  V30 28896 H 2758.74 1.95982 4.86509 0
M  V30 28897 H 2760.21 0.37477 5.50726 0
M  V30 28898 H 2760.69 -0.829704 4.31292 0
M  V30 28899 H 2761.3 0.836375 4.16995 0
M  V30 28900 N 2759.61 -1.45036 0.616628 0
M  V30 28901 C 2760.52 -2.34393 -0.0984989 0
M  V30 28902 C 2761.54 -1.51773 -0.850944 0
M  V30 28903 O 2762.71 -1.84547 -0.806488 0
M  V30 28904 C 2759.78 -3.29534 -1.07742 0
M  V30 28905 C 2758.84 -4.28061 -0.325946 0
M  V30 28906 C 2758.07 -5.18656 -1.25824 0
M  V30 28907 O 2758.3 -5.12869 -2.49643 0
M  V30 28908 O 2757.23 -5.97204 -0.750407 0
M  V30 28909 H 2761.06 -2.96964 0.636068 0
M  V30 28910 H 2758.64 -1.44569 0.376857 0
M  V30 28911 H 2760.52 -3.88135 -1.641 0
M  V30 28912 H 2759.2 -2.69515 -1.79286 0
M  V30 28913 H 2758.11 -3.73048 0.280319 0
M  V30 28914 H 2759.44 -4.9096 0.349177 0
M  V30 28915 N 2761.09 -0.356312 -1.53519 0
M  V30 28916 C 2762.34 0.237338 -2.00299 0
M  V30 28917 C 2762.65 1.50625 -1.24786 0
M  V30 28918 O 2763.86 2.17793 -1.62107 0
M  V30 28919 C 2762.31 0.473482 -3.56772 0
M  V30 28920 C 2761.92 -0.780261 -4.41153 0
M  V30 28921 C 2763.67 1.02529 -4.11932 0
M  V30 28922 C 2761.57 -0.514211 -5.8916 0
M  V30 28923 H 2760.5 0.0924649 -0.748309 0
M  V30 28924 H 2763.15 -0.473619 -1.77283 0
M  V30 28925 H 2761.54 1.24547 -3.75904 0
M  V30 28926 H 2762.71 -1.55433 -4.33794 0
M  V30 28927 H 2761.03 -1.25462 -3.97049 0
M  V30 28928 H 2763.62 1.23951 -5.20135 0
M  V30 28929 H 2763.97 1.98467 -3.65946 0
M  V30 28930 H 2764.5 0.313705 -3.96561 0
M  V30 28931 H 2761.24 -1.44366 -6.39405 0
M  V30 28932 H 2760.76 0.221527 -5.99391 0
M  V30 28933 H 2762.44 -0.136236 -6.46857 0
M  V30 28934 N 2762.57 1.57369 -0.0852427 0
M  V30 28935 C 2763.48 2.16994 0.891674 0
M  V30 28936 C 2764.49 1.13671 1.31738 0
M  V30 28937 O 2765.67 1.45998 1.38732 0
M  V30 28938 C 2762.74 2.73062 2.1363 0
M  V30 28939 C 2761.8 3.91306 1.76573 0
M  V30 28940 C 2761.03 4.44691 2.95103 0
M  V30 28941 O 2761.25 3.97039 4.09532 0
M  V30 28942 O 2760.19 5.35846 2.7414 0
M  V30 28943 H 2764.01 3.00859 0.414424 0
M  V30 28944 H 2761.6 1.48756 0.138572 0
M  V30 28945 H 2763.48 3.0894 2.8659 0
M  V30 28946 H 2762.15 1.92249 2.60427 0
M  V30 28947 H 2761.06 3.60257 1.00824 0
M  V30 28948 H 2762.39 4.73453 1.34548 0
M  V30 28949 N 2764.05 -0.188399 1.5647 0
M  V30 28950 C 2765.46 -0.752464 1.70865 0
M  V30 28951 C 2765.81 -1.83556 0.692938 0
M  V30 28952 O 2764.93 -2.15885 -0.149269 0
M  V30 28953 C 2765.53 -1.37168 3.09791 0
M  V30 28954 C 2764.09 -1.88275 3.25929 0
M  V30 28955 C 2763.23 -0.755212 2.66818 0
M  V30 28956 H 2766.19 0.0367687 1.58657 0
M  V30 28957 H 2766.21 -2.24117 3.07493 0
M  V30 28958 H 2765.72 -0.583151 3.83694 0
M  V30 28959 H 2763.82 -2.69826 2.56953 0
M  V30 28960 H 2763.93 -2.03994 4.33501 0
M  V30 28961 H 2762.3 -1.17124 2.26172 0
M  V30 28962 H 2763.08 0.0211841 3.43293 0
M  V30 28963 N 2765.53 -1.50848 -0.456355 0
M  V30 28964 C 2766.47 -1.70785 -1.55246 0
M  V30 28965 C 2767.44 -0.549259 -1.56756 0
M  V30 28966 O 2768.63 -0.78153 -1.7406 0
M  V30 28967 C 2765.77 -1.82148 -2.93114 0
M  V30 28968 C 2764.88 -3.09604 -3.0128 0
M  V30 28969 C 2764.02 -3.11675 -4.30154 0
M  V30 28970 C 2763.05 -4.33523 -4.32116 0
M  V30 28971 N 2762.19 -4.3325 -5.52484 0
M  V30 28972 H 2767.03 -2.64356 -1.3755 0
M  V30 28973 H 2764.57 -1.31031 -0.66852 0
M  V30 28974 H 2766.53 -1.86718 -3.73085 0
M  V30 28975 H 2765.16 -0.920033 -3.09411 0
M  V30 28976 H 2764.21 -3.14435 -2.1409 0
M  V30 28977 H 2765.52 -3.99557 -2.9859 0
M  V30 28978 H 2764.67 -3.15055 -5.18484 0
M  V30 28979 H 2763.41 -2.19577 -4.35473 0
M  V30 28980 H 2762.42 -4.30339 -3.42182 0
M  V30 28981 H 2763.64 -5.26864 -4.28476 0
M  V30 28982 H 2761.59 -3.44014 -5.58561 0
M  V30 28983 H 2761.51 -5.16989 -5.51596 0
M  V30 28984 H 2762.77 -4.40797 -6.42898 0
M  V30 28985 N 2767 0.710538 -1.40674 0
M  V30 28986 C 2767.93 1.83734 -1.44098 0
M  V30 28987 C 2768.91 1.6741 -0.301315 0
M  V30 28988 O 2770.1 1.87366 -0.510651 0
M  V30 28989 C 2767.23 3.21736 -1.30779 0
M  V30 28990 C 2766.18 3.5274 -2.42401 0
M  V30 28991 C 2765.51 4.8994 -2.14156 0
M  V30 28992 C 2766.81 3.53227 -3.84744 0
M  V30 28993 H 2768.5 1.81125 -2.38399 0
M  V30 28994 H 2766.05 0.869996 -1.14748 0
M  V30 28995 H 2768 4.00262 -1.3179 0
M  V30 28996 H 2766.73 3.24933 -0.329565 0
M  V30 28997 H 2765.39 2.76558 -2.40648 0
M  V30 28998 H 2765.03 4.89745 -1.14712 0
M  V30 28999 H 2764.73 5.1165 -2.88943 0
M  V30 29000 H 2766.26 5.70793 -2.16858 0
M  V30 29001 H 2767.67 4.21783 -3.88293 0
M  V30 29002 H 2766.07 3.86465 -4.59091 0
M  V30 29003 H 2767.14 2.52506 -4.13967 0
M  V30 29004 N 2768.48 1.26254 0.943277 0
M  V30 29005 C 2769.76 1.02427 1.66638 0
M  V30 29006 C 2770.14 -0.44597 2.06335 0
M  V30 29007 O 2769.49 -1.42586 1.78554 0
M  V30 29008 C 2769.7 1.97099 2.88015 0
M  V30 29009 C 2771.04 2.25591 3.59714 0
M  V30 29010 O 2772.07 1.94949 2.98117 0
M  V30 29011 O 2770.93 2.77751 4.70655 0
M  V30 29012 H 2768.02 0.389307 0.729636 0
M  V30 29013 H 2770.57 1.37455 0.995194 0
M  V30 29014 H 2769.34 2.96323 2.55555 0
M  V30 29015 H 2768.96 1.62538 3.6286 0
M  V30 29016 N 2769.96 -1.14755 1.08024 0
M  V30 29017 C 2771.21 -1.85335 0.805946 0
M  V30 29018 C 2771.53 -1.83124 -0.67013 0
M  V30 29019 O 2770.8 -1.27693 -1.48565 0
M  V30 29020 H 2769.38 -0.686218 0.29515 0
M  V30 29021 H 2772.04 -1.39078 1.36541 0
M  V30 29022 H 2771.14 -2.90275 1.1466 0
M  V30 29023 N 2771.44 -0.865331 -1.31719 0
M  V30 29024 C 2772.67 -0.487578 -2.00764 0
M  V30 29025 C 2773.08 0.923221 -1.65146 0
M  V30 29026 O 2772.42 1.61559 -0.874322 0
M  V30 29027 C 2772.48 -0.559431 -3.55121 0
M  V30 29028 C 2772.14 -1.93102 -4.14199 0
M  V30 29029 C 2773.14 -2.89791 -4.31645 0
M  V30 29030 C 2770.83 -2.23107 -4.50032 0
M  V30 29031 C 2772.82 -4.14632 -4.84107 0
M  V30 29032 C 2770.51 -3.48198 -5.02197 0
M  V30 29033 C 2771.51 -4.43776 -5.19184 0
M  V30 29034 O 2771.19 -5.6665 -5.70231 0
M  V30 29035 H 2770.93 -0.188926 -0.649063 0
M  V30 29036 H 2773.48 -1.16697 -1.6903 0
M  V30 29037 H 2771.71 0.176859 -3.86295 0
M  V30 29038 H 2773.4 -0.195766 -4.05428 0
M  V30 29039 H 2774.16 -2.67917 -4.04284 0
M  V30 29040 H 2770.04 -1.49492 -4.36088 0
M  V30 29041 H 2773.59 -4.89241 -4.97281 0
M  V30 29042 H 2769.48 -3.69918 -5.28991 0
M  V30 29043 H 2770.25 -5.68757 -5.88607 0
M  V30 29044 N 2772.92 1.44707 -0.624311 0
M  V30 29045 C 2774.15 2.06173 -0.132763 0
M  V30 29046 C 2774.55 1.46676 1.1951 0
M  V30 29047 O 2773.9 0.581522 1.74253 0
M  V30 29048 C 2773.96 3.59444 0.0636101 0
M  V30 29049 C 2773.62 4.41368 -1.18503 0
M  V30 29050 C 2774.62 4.75285 -2.10715 0
M  V30 29051 C 2772.3 4.81853 -1.41854 0
M  V30 29052 C 2774.3 5.48561 -3.24592 0
M  V30 29053 C 2771.99 5.5488 -2.56029 0
M  V30 29054 C 2772.98 5.88153 -3.47225 0
M  V30 29055 O 2772.67 6.59695 -4.59411 0
M  V30 29056 H 2772.4 0.671966 -0.0737432 0
M  V30 29057 H 2774.96 1.86675 -0.856822 0
M  V30 29058 H 2773.19 3.77405 0.842743 0
M  V30 29059 H 2774.88 4.02698 0.508853 0
M  V30 29060 H 2775.64 4.44551 -1.93906 0
M  V30 29061 H 2771.52 4.5538 -0.717636 0
M  V30 29062 H 2775.07 5.74449 -3.95795 0
M  V30 29063 H 2770.96 5.85029 -2.72784 0
M  V30 29064 H 2771.73 6.78158 -4.58305 0
M  V30 29065 N 2774.39 0.364449 1.53328 0
M  V30 29066 C 2775.34 -0.482567 2.25699 0
M  V30 29067 C 2776.31 -1.07846 1.26327 0
M  V30 29068 O 2777.5 -1.11116 1.55106 0
M  V30 29069 C 2774.64 -1.61694 3.04876 0
M  V30 29070 C 2773.75 -1.04633 4.19137 0
M  V30 29071 C 2772.88 -2.14971 4.85758 0
M  V30 29072 C 2771.92 -1.5537 5.92053 0
M  V30 29073 N 2771.06 -2.59535 6.52369 0
M  V30 29074 H 2775.9 0.141084 2.97666 0
M  V30 29075 H 2773.44 0.081395 1.46875 0
M  V30 29076 H 2775.39 -2.28509 3.49055 0
M  V30 29077 H 2774.02 -2.21126 2.35166 0
M  V30 29078 H 2773.08 -0.268486 3.79451 0
M  V30 29079 H 2774.39 -0.570566 4.95526 0
M  V30 29080 H 2773.54 -2.89609 5.33115 0
M  V30 29081 H 2772.28 -2.65899 4.08839 0
M  V30 29082 H 2771.29 -0.792453 5.44059 0
M  V30 29083 H 2772.51 -1.05268 6.70892 0
M  V30 29084 H 2770.46 -3.09679 5.78304 0
M  V30 29085 H 2770.37 -2.16642 7.24294 0
M  V30 29086 H 2771.64 -3.3388 7.04375 0
M  V30 29087 N 2775.87 -1.57322 0.0935872 0
M  V30 29088 C 2776.82 -2.13941 -0.865897 0
M  V30 29089 C 2777.79 -1.05756 -1.28081 0
M  V30 29090 O 2778.97 -1.33535 -1.36283 0
M  V30 29091 C 2776.11 -2.72291 -2.12018 0
M  V30 29092 C 2775.23 -3.94704 -1.75593 0
M  V30 29093 C 2774.36 -4.41224 -2.95796 0
M  V30 29094 C 2773.4 -5.56229 -2.55491 0
M  V30 29095 N 2772.54 -5.97608 -3.68523 0
M  V30 29096 H 2777.38 -2.95616 -0.376209 0
M  V30 29097 H 2774.91 -1.46067 -0.174026 0
M  V30 29098 H 2776.87 -3.0424 -2.85471 0
M  V30 29099 H 2775.5 -1.93347 -2.58489 0
M  V30 29100 H 2774.55 -3.69079 -0.921143 0
M  V30 29101 H 2775.87 -4.78174 -1.41955 0
M  V30 29102 H 2775.02 -4.74948 -3.77504 0
M  V30 29103 H 2773.76 -3.56651 -3.32643 0
M  V30 29104 H 2772.76 -5.22134 -1.72209 0
M  V30 29105 H 2773.99 -6.42549 -2.19789 0
M  V30 29106 H 2771.94 -5.15982 -4.05091 0
M  V30 29107 H 2771.85 -6.75871 -3.38725 0
M  V30 29108 H 2773.12 -6.35962 -4.50746 0
M  V30 29109 N 2777.35 0.180099 -1.56568 0
M  V30 29110 C 2778.63 0.924901 -1.72351 0
M  V30 29111 C 2779.01 2.00761 -0.652558 0
M  V30 29112 O 2778.35 2.26045 0.334075 0
M  V30 29113 C 2778.56 1.49765 -3.15232 0
M  V30 29114 C 2779.91 1.97398 -3.75924 0
M  V30 29115 O 2780.94 1.59577 -3.18455 0
M  V30 29116 O 2779.8 2.6704 -4.76814 0
M  V30 29117 H 2776.89 0.434746 -0.703509 0
M  V30 29118 H 2779.44 0.168617 -1.6886 0
M  V30 29119 H 2778.21 0.71796 -3.84657 0
M  V30 29120 H 2777.83 2.31836 -3.23013 0
M  V30 29121 N 2778.83 1.51088 0.448349 0
M  V30 29122 C 2779.78 1.72164 1.56404 0
M  V30 29123 C 2780.77 0.587748 1.58877 0
M  V30 29124 O 2781.98 0.768851 1.62753 0
M  V30 29125 H 2778.35 0.543796 0.519413 0
M  V30 29126 H 2780.32 2.65709 1.35798 0
M  V30 29127 C 2779.07 1.85378 2.9416 0
M  V30 29128 H 2778.39 2.72029 2.92985 0
M  V30 29129 H 2779.83 2.04142 3.71621 0
M  V30 29130 C 2778.29 0.610861 3.31316 0
M  V30 29131 O 2778.82 -0.239566 4.00985 0
M  V30 29132 N 2777.03 0.458177 2.86965 0
M  V30 29133 H 2776.58 1.15128 2.30441 0
M  V30 29134 H 2776.53 -0.372234 3.12189 0
M  V30 29135 N 2780.31 -0.703068 1.41049 0
M  V30 29136 C 2781.27 -1.79882 1.42039 0
M  V30 29137 C 2782.27 -1.57741 0.312181 0
M  V30 29138 O 2783.46 -1.64552 0.571701 0
M  V30 29139 C 2780.59 -3.18152 1.22443 0
M  V30 29140 H 2781.78 -1.80398 2.39575 0
M  V30 29141 H 2779.34 -0.909955 1.27081 0
M  V30 29142 H 2780.07 -3.23279 0.257169 0
M  V30 29143 H 2779.86 -3.35624 2.02729 0
M  V30 29144 H 2781.35 -3.98153 1.25953 0
M  V30 29145 N 2781.78 -1.26752 -0.936569 0
M  V30 29146 C 2783.01 -1.15191 -1.71507 0
M  V30 29147 C 2783.42 0.295004 -1.86886 0
M  V30 29148 O 2782.77 1.21344 -1.37918 0
M  V30 29149 C 2782.83 -1.75324 -3.1385 0
M  V30 29150 C 2782.49 -3.24451 -3.21839 0
M  V30 29151 C 2783.49 -4.21207 -3.04764 0
M  V30 29152 C 2781.17 -3.64998 -3.45082 0
M  V30 29153 C 2783.17 -5.56487 -3.10806 0
M  V30 29154 C 2780.85 -5.00411 -3.50759 0
M  V30 29155 C 2781.85 -5.95965 -3.33638 0
M  V30 29156 O 2781.54 -7.28912 -3.39032 0
M  V30 29157 H 2781.27 -0.401771 -0.543651 0
M  V30 29158 H 2783.83 -1.6796 -1.18231 0
M  V30 29159 H 2782.06 -1.17023 -3.68568 0
M  V30 29160 H 2783.75 -1.58603 -3.73631 0
M  V30 29161 H 2784.51 -3.91219 -2.86658 0
M  V30 29162 H 2780.39 -2.91105 -3.57462 0
M  V30 29163 H 2783.93 -6.31049 -2.97361 0
M  V30 29164 H 2779.83 -5.30058 -3.68386 0
M  V30 29165 H 2780.6 -7.37245 -3.55545 0
M  V30 29166 N 2783.26 1.1418 -1.08631 0
M  V30 29167 C 2784.49 1.88855 -0.837706 0
M  V30 29168 C 2784.9 1.7896 0.613992 0
M  V30 29169 O 2784.24 1.14836 1.43382 0
M  V30 29170 C 2784.31 3.39457 -1.18361 0
M  V30 29171 C 2783.97 3.73135 -2.63855 0
M  V30 29172 C 2784.97 3.73062 -3.62106 0
M  V30 29173 C 2782.65 4.03044 -2.99768 0
M  V30 29174 C 2784.65 4.02426 -4.94299 0
M  V30 29175 C 2782.33 4.32071 -4.32155 0
M  V30 29176 C 2783.33 4.31746 -5.2923 0
M  V30 29177 O 2783.02 4.60067 -6.59237 0
M  V30 29178 H 2782.75 0.604981 -0.30162 0
M  V30 29179 H 2785.3 1.45516 -1.44963 0
M  V30 29180 H 2783.53 3.83259 -0.514696 0
M  V30 29181 H 2785.22 3.95442 -0.91546 0
M  V30 29182 H 2785.99 3.5004 -3.35704 0
M  V30 29183 H 2781.87 4.02449 -2.24847 0
M  V30 29184 H 2785.41 4.02088 -5.70062 0
M  V30 29185 H 2781.31 4.54563 -4.58304 0
M  V30 29186 H 2782.08 4.77773 -6.64586 0
M  V30 29187 N 2784.74 0.872304 1.31258 0
M  V30 29188 C 2785.97 0.498942 2.00794 0
M  V30 29189 C 2786.38 -0.909209 1.65466 0
M  V30 29190 O 2785.74 -1.596 0.885101 0
M  V30 29191 C 2785.79 0.649155 3.55624 0
M  V30 29192 O 2785.51 2.00185 3.89689 0
M  V30 29193 C 2787.01 0.277112 4.42433 0
M  V30 29194 H 2784.23 0.194157 0.642296 0
M  V30 29195 H 2786.78 1.17411 1.67436 0
M  V30 29196 H 2784.93 0.0215083 3.87394 0
M  V30 29197 H 2785.35 2.01131 4.84403 0
M  V30 29198 H 2786.82 0.433161 5.50298 0
M  V30 29199 H 2787.3 -0.783913 4.32147 0
M  V30 29200 H 2787.9 0.880556 4.16084 0
M  V30 29201 N 2786.22 -1.44374 0.631976 0
M  V30 29202 C 2787.13 -2.34484 -0.0736328 0
M  V30 29203 C 2788.14 -1.52667 -0.834798 0
M  V30 29204 O 2789.32 -1.85392 -0.786869 0
M  V30 29205 C 2786.39 -3.30658 -1.04241 0
M  V30 29206 C 2785.45 -4.28382 -0.280527 0
M  V30 29207 C 2784.68 -5.19961 -1.20316 0
M  V30 29208 O 2784.9 -5.15488 -2.44189 0
M  V30 29209 O 2783.84 -5.97966 -0.687023 0
M  V30 29210 H 2787.66 -2.96273 0.667529 0
M  V30 29211 H 2785.25 -1.44161 0.392169 0
M  V30 29212 H 2787.13 -3.89854 -1.59974 0
M  V30 29213 H 2785.8 -2.71401 -1.76417 0
M  V30 29214 H 2784.71 -3.7273 0.31987 0
M  V30 29215 H 2786.04 -4.90562 0.40123 0
M  V30 29216 N 2787.7 -0.372575 -1.53133 0
M  V30 29217 C 2788.63 0.505405 -2.23558 0
M  V30 29218 C 2789.64 1.04046 -1.25213 0
M  V30 29219 O 2790.83 0.945649 -1.51393 0
M  V30 29220 C 2787.93 1.71131 -2.92519 0
M  V30 29221 C 2787.1 1.30654 -4.17431 0
M  V30 29222 C 2786.16 2.37527 -4.69539 0
M  V30 29223 O 2785.19 1.99627 -5.33046 0
M  V30 29224 N 2786.39 3.69212 -4.47954 0
M  V30 29225 H 2789.16 -0.0978785 -2.9954 0
M  V30 29226 H 2786.72 -0.198096 -1.60684 0
M  V30 29227 H 2788.71 2.42118 -3.24285 0
M  V30 29228 H 2787.28 2.2213 -2.19948 0
M  V30 29229 H 2786.5 0.426223 -3.91889 0
M  V30 29230 H 2787.79 1.0125 -4.98624 0
M  V30 29231 H 2787.18 4.02776 -3.97226 0
M  V30 29232 H 2785.74 4.36283 -4.84252 0
M  V30 29233 N 2789.17 1.5727 -0.101929 0
M  V30 29234 C 2790.59 1.81772 0.426141 0
M  V30 29235 C 2790.94 1.018 1.67723 0
M  V30 29236 O 2790.06 0.249424 2.14958 0
M  V30 29237 C 2790.66 3.29701 0.779904 0
M  V30 29238 C 2789.22 3.54943 1.25269 0
M  V30 29239 C 2788.36 2.76146 0.252765 0
M  V30 29240 H 2791.31 1.55288 -0.327288 0
M  V30 29241 H 2791.33 3.43398 1.63885 0
M  V30 29242 H 2790.85 3.87879 -0.130846 0
M  V30 29243 H 2788.95 3.02104 2.18092 0
M  V30 29244 H 2789.06 4.63574 1.2098 0
M  V30 29245 H 2787.42 2.43825 0.736319 0
M  V30 29246 H 2788.21 3.37075 -0.650783 0
M  V30 29247 N 2790.65 -0.171793 1.56661 0
M  V30 29248 C 2791.9 -0.886799 1.8116 0
M  V30 29249 C 2792.21 -1.83433 0.679105 0
M  V30 29250 O 2793.42 -2.59167 0.80901 0
M  V30 29251 C 2791.88 -1.62744 3.21002 0
M  V30 29252 C 2791.48 -0.723574 4.42118 0
M  V30 29253 C 2793.23 -2.3307 3.54794 0
M  V30 29254 C 2791.14 -1.46442 5.72982 0
M  V30 29255 H 2790.07 -0.334887 0.675549 0
M  V30 29256 H 2792.72 -0.139733 1.82967 0
M  V30 29257 H 2791.1 -2.41924 3.1351 0
M  V30 29258 H 2792.27 0.0312295 4.60789 0
M  V30 29259 H 2790.59 -0.12999 4.16197 0
M  V30 29260 H 2793.18 -2.89091 4.49811 0
M  V30 29261 H 2793.53 -3.08384 2.79651 0
M  V30 29262 H 2794.06 -1.60834 3.63837 0
M  V30 29263 H 2790.8 -0.753615 6.51154 0
M  V30 29264 H 2790.32 -2.19256 5.58289 0
M  V30 29265 H 2792 -2.01203 6.1492 0
M  V30 29266 N 2792.13 -1.51324 -0.44033 0
M  V30 29267 C 2793.41 -1.54382 -1.20106 0
M  V30 29268 C 2793.79 -0.306339 -2.08865 0
M  V30 29269 O 2793.14 0.708735 -2.17231 0
M  V30 29270 C 2793.35 -2.85623 -2.0055 0
M  V30 29271 C 2794.69 -3.3746 -2.57694 0
M  V30 29272 O 2795.72 -2.87153 -2.10764 0
M  V30 29273 O 2794.58 -4.2523 -3.43281 0
M  V30 29274 H 2791.67 -0.620561 -0.546657 0
M  V30 29275 H 2794.22 -1.63635 -0.449644 0
M  V30 29276 H 2792.99 -3.6715 -1.35339 0
M  V30 29277 H 2792.61 -2.79519 -2.82763 0
M  V30 29278 N 2793.61 0.695578 -1.41419 0
M  V30 29279 C 2794.54 1.82195 -1.46039 0
M  V30 29280 C 2795.52 1.67081 -0.319054 0
M  V30 29281 O 2796.7 1.86814 -0.530495 0
M  V30 29282 C 2793.83 3.20331 -1.34184 0
M  V30 29283 C 2792.79 3.50149 -2.46129 0
M  V30 29284 C 2792.11 4.87641 -2.1934 0
M  V30 29285 C 2793.41 3.49126 -3.88469 0
M  V30 29286 H 2795.11 1.78587 -2.40306 0
M  V30 29287 H 2792.65 0.857777 -1.15664 0
M  V30 29288 H 2794.61 3.98841 -1.36028 0
M  V30 29289 H 2793.33 3.24565 -0.364009 0
M  V30 29290 H 2791.99 2.7399 -2.43568 0
M  V30 29291 H 2791.64 4.88501 -1.199 0
M  V30 29292 H 2791.34 5.08557 -2.94353 0
M  V30 29293 H 2792.86 5.68461 -2.22899 0
M  V30 29294 H 2794.28 4.17641 -3.92745 0
M  V30 29295 H 2792.67 3.81574 -4.63164 0
M  V30 29296 H 2793.74 2.48102 -4.16622 0
M  V30 29297 N 2795.09 1.27247 0.929833 0
M  V30 29298 C 2796.33 1.13628 1.67978 0
M  V30 29299 C 2796.67 -0.317555 1.91586 0
M  V30 29300 O 2795.94 -1.23244 1.5047 0
M  V30 29301 C 2796.22 1.91812 3.04763 0
M  V30 29302 C 2796.08 3.45167 2.88409 0
M  V30 29303 C 2797.4 1.72089 4.0506 0
M  V30 29304 H 2794.52 0.414158 0.609625 0
M  V30 29305 H 2797.16 1.56378 1.07917 0
M  V30 29306 H 2795.31 1.5548 3.56031 0
M  V30 29307 H 2796.98 3.91315 2.44275 0
M  V30 29308 H 2795.22 3.71615 2.23796 0
M  V30 29309 H 2795.89 3.95111 3.85475 0
M  V30 29310 H 2798.37 2.03763 3.62794 0
M  V30 29311 H 2797.25 2.29191 4.98761 0
M  V30 29312 H 2797.51 0.668282 4.3702 0
M  V30 29313 N 2796.57 -1.13603 1.09235 0
M  V30 29314 C 2797.98 -1.66388 0.846868 0
M  V30 29315 C 2798.33 -1.85979 -0.624998 0
M  V30 29316 O 2797.45 -1.57716 -1.48171 0
M  V30 29317 C 2798.05 -3.02247 1.53075 0
M  V30 29318 C 2796.61 -3.52032 1.3323 0
M  V30 29319 C 2795.75 -2.2732 1.5881 0
M  V30 29320 H 2798.7 -0.975519 1.25177 0
M  V30 29321 H 2798.73 -3.68119 0.962735 0
M  V30 29322 H 2798.24 -2.87957 2.60197 0
M  V30 29323 H 2796.34 -3.7153 0.282156 0
M  V30 29324 H 2796.45 -4.32276 2.06578 0
M  V30 29325 H 2794.82 -2.33814 1.01011 0
M  V30 29326 H 2795.6 -2.15597 2.67157 0
M  V30 29327 N 2798.04 -0.879253 -1.30793 0
M  V30 29328 C 2799.27 -0.509584 -2.00526 0
M  V30 29329 C 2799.69 0.900421 -1.65945 0
M  V30 29330 O 2799.04 1.59129 -0.893553 0
M  V30 29331 C 2799.09 -0.668005 -3.55274 0
M  V30 29332 O 2798.82 -2.02249 -3.88622 0
M  V30 29333 C 2800.32 -0.300572 -4.4228 0
M  V30 29334 H 2797.54 -0.19756 -0.641257 0
M  V30 29335 H 2800.08 -1.18298 -1.66811 0
M  V30 29336 H 2798.24 -0.0420524 -3.87377 0
M  V30 29337 H 2798.65 -2.03697 -4.8333 0
M  V30 29338 H 2800.12 -0.462339 -5.5006 0
M  V30 29339 H 2800.6 0.760984 -4.32557 0
M  V30 29340 H 2801.21 -0.902609 -4.15612 0
M  V30 29341 N 2799.52 1.44037 -0.639624 0
M  V30 29342 C 2800.45 2.28987 0.0987281 0
M  V30 29343 C 2801.47 1.41757 0.800555 0
M  V30 29344 O 2802.66 1.65827 0.660582 0
M  V30 29345 C 2799.76 3.18343 1.16236 0
M  V30 29346 C 2798.93 4.34037 0.541371 0
M  V30 29347 C 2797.99 5.04365 1.50008 0
M  V30 29348 O 2797.01 5.60096 1.01393 0
M  V30 29349 N 2798.22 5.06603 2.83432 0
M  V30 29350 H 2800.98 2.92996 -0.630356 0
M  V30 29351 H 2798.54 1.54577 -0.481403 0
M  V30 29352 H 2800.53 3.62256 1.80423 0
M  V30 29353 H 2799.1 2.56027 1.79357 0
M  V30 29354 H 2798.32 3.93209 -0.279299 0
M  V30 29355 H 2799.61 5.08687 0.10729 0
M  V30 29356 H 2799.01 4.62672 3.25502 0
M  V30 29357 H 2797.57 5.54278 3.42957 0
M  V30 29358 N 2801 0.380691 1.52933 0
M  V30 29359 C 2802.41 -0.0952356 1.86457 0
M  V30 29360 C 2802.76 -1.46886 1.30073 0
M  V30 29361 O 2801.89 -2.07067 0.628673 0
M  V30 29362 C 2802.48 -0.179589 3.38324 0
M  V30 29363 C 2801.04 -0.599793 3.7159 0
M  V30 29364 C 2800.19 0.243621 2.76228 0
M  V30 29365 H 2803.14 0.598906 1.46965 0
M  V30 29366 H 2803.16 -1.00035 3.67115 0
M  V30 29367 H 2802.67 0.820295 3.79332 0
M  V30 29368 H 2800.77 -1.60736 3.36147 0
M  V30 29369 H 2800.89 -0.363919 4.77716 0
M  V30 29370 H 2799.25 -0.289811 2.53046 0
M  V30 29371 H 2800.03 1.24132 3.20072 0
M  V30 29372 N 2802.48 -1.57214 0.110268 0
M  V30 29373 C 2803.41 -2.17869 -0.839964 0
M  V30 29374 C 2804.39 -1.11626 -1.2835 0
M  V30 29375 O 2805.57 -1.39826 -1.34767 0
M  V30 29376 C 2802.7 -2.77114 -2.09344 0
M  V30 29377 C 2801.66 -3.88863 -1.788 0
M  V30 29378 C 2800.98 -4.34877 -3.11104 0
M  V30 29379 C 2802.28 -5.11366 -1.06311 0
M  V30 29380 H 2803.98 -2.97525 -0.334555 0
M  V30 29381 H 2801.52 -1.43114 -0.159477 0
M  V30 29382 H 2803.48 -3.18203 -2.76269 0
M  V30 29383 H 2802.2 -1.94735 -2.62194 0
M  V30 29384 H 2800.86 -3.48337 -1.14267 0
M  V30 29385 H 2800.51 -3.49368 -3.61871 0
M  V30 29386 H 2800.21 -5.10229 -2.91444 0
M  V30 29387 H 2801.73 -4.78611 -3.79162 0
M  V30 29388 H 2803.15 -5.49529 -1.63374 0
M  V30 29389 H 2801.54 -5.92245 -0.967772 0
M  V30 29390 H 2802.61 -4.84876 -0.0483717 0
M  V30 29391 N 2803.96 0.163482 -1.5675 0
M  V30 29392 C 2805.37 0.725185 -1.72041 0
M  V30 29393 C 2805.72 1.8243 -0.722052 0
M  V30 29394 O 2804.84 2.16095 0.114904 0
M  V30 29395 C 2805.44 1.32222 -3.11934 0
M  V30 29396 C 2804 1.83066 -3.28883 0
M  V30 29397 C 2803.14 0.712668 -2.67986 0
M  V30 29398 H 2806.09 -0.0620051 -1.58579 0
M  V30 29399 H 2806.12 2.19197 -3.11019 0
M  V30 29400 H 2805.63 0.522035 -3.84573 0
M  V30 29401 H 2803.73 2.65703 -2.61213 0
M  V30 29402 H 2803.84 1.97071 -4.36692 0
M  V30 29403 H 2802.21 1.13511 -2.28007 0
M  V30 29404 H 2802.99 -0.0757964 -3.43216 0
M  V30 29405 N 2805.43 1.51555 0.432299 0
M  V30 29406 C 2806.38 1.73813 1.54569 0
M  V30 29407 C 2807.38 0.604566 1.58245 0
M  V30 29408 O 2808.58 0.78607 1.61929 0
M  V30 29409 H 2804.96 0.549274 0.513617 0
M  V30 29410 H 2806.93 2.67135 1.32972 0
M  V30 29411 C 2805.68 1.88488 2.92177 0
M  V30 29412 H 2805 2.75121 2.90083 0
M  V30 29413 H 2806.44 2.08072 3.69435 0
M  V30 29414 C 2804.9 0.645967 3.30649 0
M  V30 29415 O 2805.43 -0.197022 4.01217 0
M  V30 29416 N 2803.63 0.488588 2.86463 0
M  V30 29417 H 2803.18 1.17566 2.29207 0
M  V30 29418 H 2803.14 -0.339101 3.12566 0
M  V30 29419 N 2806.91 -0.688069 1.41786 0
M  V30 29420 C 2807.87 -1.78365 1.43939 0
M  V30 29421 C 2808.87 -1.57401 0.328894 0
M  V30 29422 O 2810.06 -1.63936 0.589121 0
M  V30 29423 C 2807.2 -3.16835 1.2581 0
M  V30 29424 H 2808.39 -1.77847 2.41475 0
M  V30 29425 H 2805.94 -0.896425 1.28039 0
M  V30 29426 H 2806.68 -3.22988 0.291442 0
M  V30 29427 H 2806.46 -3.33455 2.06278 0
M  V30 29428 H 2807.95 -3.96794 1.30169 0
M  V30 29429 N 2808.39 -1.27739 -0.923072 0
M  V30 29430 C 2809.61 -1.17286 -1.71052 0
M  V30 29431 C 2810.04 0.26612 -1.86208 0
M  V30 29432 O 2809.4 1.19267 -1.36547 0
M  V30 29433 C 2809.45 -1.86647 -3.08537 0
M  V30 29434 O 2808.55 -1.16759 -3.95526 0
M  V30 29435 H 2807.89 -0.407658 -0.524129 0
M  V30 29436 H 2810.42 -1.68892 -1.15484 0
M  V30 29437 H 2810.43 -1.94188 -3.58824 0
M  V30 29438 H 2809.11 -2.91323 -2.96823 0
M  V30 29439 H 2807.68 -1.17318 -3.53965 0
M  V30 29440 N 2809.87 1.13022 -1.09836 0
M  V30 29441 C 2811.12 1.84393 -0.836982 0
M  V30 29442 C 2811.44 1.83758 0.637431 0
M  V30 29443 O 2810.7 1.274 1.48552 0
M  V30 29444 C 2811 3.32024 -1.32269 0
M  V30 29445 C 2810.66 3.52836 -2.80745 0
M  V30 29446 C 2809.33 3.58224 -3.21293 0
M  V30 29447 C 2811.68 3.60459 -3.76456 0
M  V30 29448 C 2809.01 3.68773 -4.56315 0
M  V30 29449 C 2811.36 3.72537 -5.11272 0
M  V30 29450 C 2810.02 3.76179 -5.51403 0
M  V30 29451 H 2809.29 0.674743 -0.306274 0
M  V30 29452 H 2811.94 1.33405 -1.37387 0
M  V30 29453 H 2810.24 3.85392 -0.705686 0
M  V30 29454 H 2811.94 3.85703 -1.09701 0
M  V30 29455 H 2808.53 3.493 -2.48369 0
M  V30 29456 H 2812.71 3.55572 -3.4624 0
M  V30 29457 H 2807.97 3.69862 -4.86839 0
M  V30 29458 H 2812.14 3.77378 -5.85285 0
M  V30 29459 H 2809.77 3.84106 -6.56023 0
M  V30 29460 N 2811.35 0.886177 1.30325 0
M  V30 29461 C 2812.62 0.425251 1.90921 0
M  V30 29462 C 2813 -1.09409 1.80535 0
M  V30 29463 O 2812.35 -1.92994 1.22334 0
M  V30 29464 C 2812.56 0.924697 3.36527 0
M  V30 29465 C 2813.91 0.960378 4.13596 0
M  V30 29466 O 2814.93 0.871443 3.45376 0
M  V30 29467 O 2813.79 1.09193 5.3548 0
M  V30 29468 H 2810.89 0.130252 0.816678 0
M  V30 29469 H 2813.43 0.975156 1.38884 0
M  V30 29470 H 2812.2 1.96855 3.38177 0
M  V30 29471 H 2811.83 0.354025 3.96021 0
M  V30 29472 N 2812.82 -1.43695 0.647253 0
M  V30 29473 C 2813.77 -2.32523 -0.0599696 0
M  V30 29474 C 2814.77 -1.48272 -0.819251 0
M  V30 29475 O 2815.97 -1.64518 -0.730327 0
M  V30 29476 H 2812.35 -0.75103 -0.038174 0
M  V30 29477 H 2814.32 -2.89903 0.707029 0
M  V30 29478 C 2813.07 -3.32499 -1.01684 0
M  V30 29479 H 2812.39 -3.97349 -0.442014 0
M  V30 29480 H 2813.83 -3.97298 -1.48088 0
M  V30 29481 C 2812.29 -2.62644 -2.10997 0
M  V30 29482 O 2812.82 -2.43746 -3.19297 0
M  V30 29483 N 2811.03 -2.22116 -1.87384 0
M  V30 29484 H 2810.57 -2.37686 -0.993132 0
M  V30 29485 H 2810.53 -1.75706 -2.6072 0
M  V30 29486 N 2814.3 -0.388796 -1.52729 0
M  V30 29487 C 2815.55 0.193555 -2.01573 0
M  V30 29488 C 2815.88 1.46857 -1.27528 0
M  V30 29489 O 2815.13 1.92286 -0.36396 0
M  V30 29490 C 2815.43 0.508383 -3.53766 0
M  V30 29491 C 2815.1 -0.675025 -4.45819 0
M  V30 29492 C 2813.76 -0.999679 -4.70701 0
M  V30 29493 C 2816.11 -1.46675 -5.00136 0
M  V30 29494 C 2813.44 -2.11761 -5.47151 0
M  V30 29495 C 2815.79 -2.57528 -5.77808 0
M  V30 29496 C 2814.46 -2.90502 -6.0097 0
M  V30 29497 H 2813.73 0.0708268 -0.737607 0
M  V30 29498 H 2816.37 -0.526039 -1.84133 0
M  V30 29499 H 2814.68 1.30929 -3.69276 0
M  V30 29500 H 2816.37 0.971596 -3.89051 0
M  V30 29501 H 2812.96 -0.411981 -4.26615 0
M  V30 29502 H 2817.15 -1.22917 -4.80838 0
M  V30 29503 H 2812.4 -2.3768 -5.6331 0
M  V30 29504 H 2816.58 -3.19277 -6.18898 0
M  V30 29505 H 2814.21 -3.77247 -6.59991 0
M  V30 29506 N 2815.78 1.57153 -0.118604 0
M  V30 29507 C 2816.73 2.15292 0.831751 0
M  V30 29508 C 2817.7 1.07781 1.26383 0
M  V30 29509 O 2818.88 1.35686 1.34141 0
M  V30 29510 C 2816.02 2.7563 2.07659 0
M  V30 29511 C 2815.14 3.97447 1.69292 0
M  V30 29512 C 2814.27 4.45874 2.88739 0
M  V30 29513 C 2813.31 5.60223 2.46609 0
M  V30 29514 N 2812.45 6.03395 3.58969 0
M  V30 29515 H 2817.29 2.96177 0.329131 0
M  V30 29516 H 2814.82 1.46325 0.150766 0
M  V30 29517 H 2816.78 3.08743 2.80595 0
M  V30 29518 H 2815.41 1.97435 2.5538 0
M  V30 29519 H 2814.46 3.70497 0.862309 0
M  V30 29520 H 2815.78 4.80372 1.3433 0
M  V30 29521 H 2814.93 4.80894 3.699 0
M  V30 29522 H 2813.67 3.61898 3.26927 0
M  V30 29523 H 2812.67 5.24808 1.6388 0
M  V30 29524 H 2813.9 6.45965 2.09539 0
M  V30 29525 H 2811.84 5.22361 3.96831 0
M  V30 29526 H 2811.76 6.81174 3.2793 0
M  V30 29527 H 2813.03 6.43053 4.40571 0
M  V30 29528 N 2817.26 -0.155167 1.56834 0
M  V30 29529 C 2818.19 -1.19372 2.0068 0
M  V30 29530 C 2819.17 -1.45265 0.884998 0
M  V30 29531 O 2820.35 -1.56324 1.15223 0
M  V30 29532 C 2817.48 -2.52886 2.38046 0
M  V30 29533 C 2816.44 -2.41531 3.53336 0
M  V30 29534 C 2815.76 -3.79681 3.76492 0
M  V30 29535 C 2817.06 -1.90631 4.86268 0
M  V30 29536 H 2818.76 -0.829182 2.87689 0
M  V30 29537 H 2816.3 -0.397421 1.38407 0
M  V30 29538 H 2818.26 -3.25758 2.67319 0
M  V30 29539 H 2816.98 -2.9116 1.47965 0
M  V30 29540 H 2815.64 -1.71112 3.24216 0
M  V30 29541 H 2815.29 -4.15377 2.83675 0
M  V30 29542 H 2814.99 -3.72948 4.54074 0
M  V30 29543 H 2816.51 -4.54115 4.08182 0
M  V30 29544 H 2817.93 -2.5329 5.14312 0
M  V30 29545 H 2816.32 -1.94808 5.676 0
M  V30 29546 H 2817.39 -0.861512 4.77185 0
M  V30 29547 N 2818.74 -1.51782 -0.424256 0
M  V30 29548 C 2819.96 -1.68924 -1.19467 0
M  V30 29549 C 2820.38 -0.392162 -1.84682 0
M  V30 29550 O 2819.74 0.630524 -1.71262 0
M  V30 29551 C 2819.79 -2.8142 -2.26904 0
M  V30 29552 O 2819.51 -4.06103 -1.64354 0
M  V30 29553 C 2821.01 -3.09942 -3.1694 0
M  V30 29554 H 2818.23 -0.566518 -0.359581 0
M  V30 29555 H 2820.77 -1.98265 -0.501105 0
M  V30 29556 H 2818.93 -2.5464 -2.91954 0
M  V30 29557 H 2819.34 -4.68678 -2.3546 0
M  V30 29558 H 2820.82 -3.92207 -3.8843 0
M  V30 29559 H 2821.29 -2.22877 -3.78447 0
M  V30 29560 H 2821.9 -3.3843 -2.57575 0
M  V30 29561 N 2820.21 0.68054 -1.42149 0
M  V30 29562 C 2821.45 1.45269 -1.43793 0
M  V30 29563 C 2821.82 1.91934 -0.0504764 0
M  V30 29564 O 2823.02 2.68737 0.0583444 0
M  V30 29565 C 2821.29 2.62164 -2.42909 0
M  V30 29566 S 2822.85 3.51095 -2.63207 0
M  V30 29567 H 2819.67 0.496228 -0.509194 0
M  V30 29568 H 2822.27 0.792713 -1.78707 0
M  V30 29569 H 2820.97 2.2611 -3.42494 0
M  V30 29570 H 2820.5 3.3304 -2.09399 0
M  V30 29571 H 2822.52 4.57935 -1.91076 0
M  V30 29572 N 2821.69 1.28226 0.916285 0
M  V30 29573 C 2822.92 1.18191 1.70428 0
M  V30 29574 C 2823.34 -0.256241 1.86346 0
M  V30 29575 O 2822.7 -1.18542 1.37177 0
M  V30 29576 C 2822.75 1.88281 3.07543 0
M  V30 29577 O 2821.85 1.18855 3.94902 0
M  V30 29578 H 2821.19 0.410432 0.521959 0
M  V30 29579 H 2823.72 1.69503 1.14586 0
M  V30 29580 H 2823.73 1.96089 3.57789 0
M  V30 29581 H 2822.41 2.92893 2.95274 0
M  V30 29582 H 2820.99 1.19194 3.53337 0
M  V30 29583 N 2823.17 -1.12438 1.10433 0
M  V30 29584 C 2824.12 -2.20244 0.748012 0
M  V30 29585 C 2825.11 -1.67457 -0.255819 0
M  V30 29586 O 2826.32 -1.79625 -0.116189 0
M  V30 29587 H 2822.69 -0.717876 0.223959 0
M  V30 29588 H 2824.66 -2.47553 1.66614 0
M  V30 29589 C 2823.41 -3.47147 0.196018 0
M  V30 29590 H 2822.74 -3.88111 0.959674 0
M  V30 29591 H 2824.18 -4.23997 -0.0152408 0
M  V30 29592 C 2822.64 -3.19414 -1.07126 0
M  V30 29593 O 2823.17 -3.39143 -2.15278 0
M  V30 29594 N 2821.37 -2.73221 -0.989892 0
M  V30 29595 H 2820.92 -2.57366 -0.10969 0
M  V30 29596 H 2820.88 -2.55041 -1.83851 0
M  V30 29597 N 2824.65 -0.893076 -1.29853 0
M  V30 29598 C 2825.88 -0.530823 -1.99975 0
M  V30 29599 C 2826.29 0.88277 -1.66891 0
M  V30 29600 O 2825.65 1.58172 -0.91038 0
M  V30 29601 C 2825.7 -0.705649 -3.54546 0
M  V30 29602 O 2825.42 -2.0636 -3.86455 0
M  V30 29603 C 2826.92 -0.347464 -4.41936 0
M  V30 29604 H 2824.14 -0.20435 -0.639126 0
M  V30 29605 H 2826.69 -1.2006 -1.65547 0
M  V30 29606 H 2824.84 -0.0831366 -3.87311 0
M  V30 29607 H 2825.26 -2.08812 -4.81142 0
M  V30 29608 H 2826.73 -0.520654 -5.49539 0
M  V30 29609 H 2827.21 0.715063 -4.3334 0
M  V30 29610 H 2827.81 -0.94664 -4.14631 0
M  V30 29611 N 2826.13 1.4335 -0.654865 0
M  V30 29612 C 2827.07 2.30772 0.0357308 0
M  V30 29613 C 2828.04 1.44843 0.81301 0
M  V30 29614 O 2829.23 1.73709 0.789283 0
M  V30 29615 C 2826.37 3.30444 0.995025 0
M  V30 29616 C 2825.48 4.31471 0.213675 0
M  V30 29617 C 2824.62 5.18224 1.16692 0
M  V30 29618 C 2823.66 6.10943 0.376094 0
M  V30 29619 N 2822.79 6.90315 1.28101 0
M  V30 29620 H 2827.63 2.89279 -0.71564 0
M  V30 29621 H 2825.17 1.42508 -0.36467 0
M  V30 29622 H 2827.13 3.86741 1.56483 0
M  V30 29623 H 2825.76 2.73583 1.71325 0
M  V30 29624 H 2824.81 3.77455 -0.472444 0
M  V30 29625 H 2826.12 4.97184 -0.401191 0
M  V30 29626 H 2825.28 5.79156 1.8073 0
M  V30 29627 H 2824.02 4.52641 1.81569 0
M  V30 29628 H 2823.02 5.49099 -0.27763 0
M  V30 29629 H 2824.25 6.7857 -0.268298 0
M  V30 29630 H 2822.19 6.27379 1.91655 0
M  V30 29631 H 2822.11 7.52556 0.720747 0
M  V30 29632 H 2823.38 7.5575 1.90949 0
M  V30 29633 N 2827.61 0.39689 1.52521 0
M  V30 29634 C 2828.85 -0.182862 2.01673 0
M  V30 29635 C 2829.18 -1.46179 1.28305 0
M  V30 29636 O 2828.44 -1.9209 0.374152 0
M  V30 29637 C 2828.73 -0.489614 3.5403 0
M  V30 29638 C 2828.4 0.698659 4.45454 0
M  V30 29639 C 2827.06 1.02463 4.70165 0
M  V30 29640 C 2829.41 1.49325 4.99351 0
M  V30 29641 C 2826.74 2.1466 5.4602 0
M  V30 29642 C 2829.09 2.60589 5.76434 0
M  V30 29643 C 2827.76 2.93685 5.99421 0
M  V30 29644 H 2827.03 -0.0669141 0.737973 0
M  V30 29645 H 2829.68 0.535796 1.83852 0
M  V30 29646 H 2827.98 -1.28969 3.69965 0
M  V30 29647 H 2829.68 -0.95095 3.89561 0
M  V30 29648 H 2826.27 0.4346 4.26391 0
M  V30 29649 H 2830.45 1.25465 4.80179 0
M  V30 29650 H 2825.71 2.40664 5.62042 0
M  V30 29651 H 2829.88 3.22555 6.17196 0
M  V30 29652 H 2827.51 3.80742 6.57981 0
M  V30 29653 N 2829.08 -1.57088 0.126936 0
M  V30 29654 C 2830.05 -2.14558 -0.806059 0
M  V30 29655 C 2831.05 -1.08239 -1.18916 0
M  V30 29656 O 2832.24 -1.33977 -1.11337 0
M  V30 29657 C 2829.37 -2.69231 -2.09111 0
M  V30 29658 H 2830.56 -2.9833 -0.306469 0
M  V30 29659 H 2828.11 -1.5582 -0.122366 0
M  V30 29660 H 2828.85 -1.8907 -2.63483 0
M  V30 29661 H 2828.63 -3.46996 -1.82581 0
M  V30 29662 H 2830.12 -3.13577 -2.75789 0
M  V30 29663 N 2830.56 0.146848 -1.56914 0
M  V30 29664 C 2831.84 0.888134 -1.74274 0
M  V30 29665 C 2832.22 1.99331 -0.694995 0
M  V30 29666 O 2831.57 2.26702 0.286053 0
M  V30 29667 C 2831.78 1.43045 -3.18338 0
M  V30 29668 C 2833.12 1.8938 -3.80027 0
M  V30 29669 O 2834.15 1.52786 -3.21768 0
M  V30 29670 O 2833.01 2.56866 -4.82372 0
M  V30 29671 H 2830.1 0.419725 -0.712573 0
M  V30 29672 H 2832.65 0.132761 -1.6918 0
M  V30 29673 H 2831.42 0.636207 -3.86093 0
M  V30 29674 H 2831.04 2.24932 -3.27858 0
M  V30 29675 N 2832.04 1.52005 0.4162 0
M  V30 29676 C 2833.32 1.56274 1.17635 0
M  V30 29677 C 2833.7 0.339529 2.08352 0
M  V30 29678 O 2833.04 -0.674085 2.18331 0
M  V30 29679 C 2833.25 2.88778 1.95981 0
M  V30 29680 C 2834.6 3.41517 2.52293 0
M  V30 29681 O 2835.63 2.9047 2.06169 0
M  V30 29682 O 2834.49 4.30637 3.36473 0
M  V30 29683 H 2831.58 0.629179 0.536715 0
M  V30 29684 H 2834.13 1.64329 0.423554 0
M  V30 29685 H 2832.9 3.69257 1.29481 0
M  V30 29686 H 2832.52 2.83982 2.7828 0
M  V30 29687 N 2833.52 -0.672992 1.42508 0
M  V30 29688 C 2834.45 -1.79848 1.48919 0
M  V30 29689 C 2835.43 -1.66552 0.345595 0
M  V30 29690 O 2836.61 -1.85946 0.560148 0
M  V30 29691 C 2833.74 -3.18156 1.39263 0
M  V30 29692 C 2832.7 -3.46189 2.51668 0
M  V30 29693 C 2832.02 -4.8409 2.2707 0
M  V30 29694 C 2833.32 -3.42902 3.93974 0
M  V30 29695 H 2835.02 -1.74741 2.43117 0
M  V30 29696 H 2832.56 -0.839267 1.17014 0
M  V30 29697 H 2834.52 -3.96627 1.42356 0
M  V30 29698 H 2833.24 -3.23945 0.415599 0
M  V30 29699 H 2831.9 -2.7008 2.47896 0
M  V30 29700 H 2831.55 -4.86532 1.27656 0
M  V30 29701 H 2831.25 -5.03809 3.02407 0
M  V30 29702 H 2832.77 -5.64843 2.31915 0
M  V30 29703 H 2834.19 -4.1134 3.9934 0
M  V30 29704 H 2832.58 -3.74157 4.69176 0
M  V30 29705 H 2833.65 -2.41442 4.20516 0
M  V30 29706 N 2835 -1.2871 -0.909472 0
M  V30 29707 C 2835.94 -1.1287 -2.03379 0
M  V30 29708 C 2836.94 -0.0468372 -1.69335 0
M  V30 29709 O 2838.14 -0.205922 -1.78818 0
M  V30 29710 H 2834.52 -0.34836 -0.666445 0
M  V30 29711 H 2836.49 -2.0808 -2.13881 0
M  V30 29712 C 2835.24 -0.811801 -3.3809 0
M  V30 29713 H 2834.56 -1.63626 -3.64783 0
M  V30 29714 H 2836 -0.740942 -4.17476 0
M  V30 29715 C 2834.46 0.48462 -3.33396 0
M  V30 29716 O 2834.99 1.51364 -3.72091 0
M  V30 29717 N 2833.2 0.486911 -2.86492 0
M  V30 29718 H 2832.74 -0.350922 -2.55199 0
M  V30 29719 H 2832.7 1.35435 -2.83734 0
M  V30 29720 N 2836.47 1.1185 -1.11028 0
M  V30 29721 C 2837.41 2.17514 -0.722528 0
M  V30 29722 C 2838.42 1.60965 0.243754 0
M  V30 29723 O 2839.61 1.78479 0.0272939 0
M  V30 29724 C 2836.71 3.38868 -0.0464574 0
M  V30 29725 C 2835.88 4.24893 -1.03847 0
M  V30 29726 C 2834.94 5.24732 -0.392752 0
M  V30 29727 O 2833.97 5.59518 -1.04539 0
M  V30 29728 N 2835.17 5.74299 0.846195 0
M  V30 29729 H 2837.93 2.5139 -1.63165 0
M  V30 29730 H 2835.49 1.27331 -0.999921 0
M  V30 29731 H 2837.49 4.02747 0.397145 0
M  V30 29732 H 2836.06 3.0309 0.765178 0
M  V30 29733 H 2835.28 3.57537 -1.66016 0
M  V30 29734 H 2836.56 4.79212 -1.70977 0
M  V30 29735 H 2835.96 5.48213 1.39568 0
M  V30 29736 H 2834.52 6.40034 1.23285 0
M  V30 29737 N 2837.95 0.89995 1.29378 0
M  V30 29738 C 2838.88 0.322425 2.25911 0
M  V30 29739 C 2839.86 -0.56554 1.52448 0
M  V30 29740 O 2841.05 -0.512292 1.81405 0
M  V30 29741 C 2838.17 -0.540396 3.34361 0
M  V30 29742 C 2837.22 0.280286 4.25578 0
M  V30 29743 S 2838.05 1.67823 5.08523 0
M  V30 29744 C 2839.21 0.822333 6.20474 0
M  V30 29745 H 2839.44 1.14065 2.74548 0
M  V30 29746 H 2836.97 0.700309 1.37605 0
M  V30 29747 H 2838.93 -1.03243 3.97305 0
M  V30 29748 H 2837.59 -1.33286 2.84418 0
M  V30 29749 H 2836.79 -0.378827 5.02574 0
M  V30 29750 H 2836.39 0.705469 3.67286 0
M  V30 29751 H 2838.68 0.0458329 6.77484 0
M  V30 29752 H 2839.62 1.56439 6.90603 0
M  V30 29753 H 2840.03 0.376609 5.63242 0
M  V30 29754 N 2839.43 -1.43001 0.662458 0
M  V30 29755 C 2840.66 -2.06047 0.187651 0
M  V30 29756 C 2841.07 -1.49707 -1.15036 0
M  V30 29757 O 2840.43 -0.631986 -1.71208 0
M  V30 29758 C 2840.48 -3.6136 0.100561 0
M  V30 29759 O 2840.2 -4.15608 1.38569 0
M  V30 29760 C 2841.7 -4.41499 -0.39922 0
M  V30 29761 H 2838.92 -0.664358 0.0941792 0
M  V30 29762 H 2841.47 -1.8335 0.905714 0
M  V30 29763 H 2839.62 -3.83212 -0.568114 0
M  V30 29764 H 2840.04 -5.09364 1.25093 0
M  V30 29765 H 2841.51 -5.50482 -0.409091 0
M  V30 29766 H 2841.99 -4.15191 -1.43225 0
M  V30 29767 H 2842.59 -4.24638 0.237285 0
M  V30 29768 N 2840.91 -0.404973 -1.52308 0
M  V30 29769 C 2842.16 0.171824 -2.01368 0
M  V30 29770 C 2842.48 1.46 -1.29264 0
M  V30 29771 O 2841.75 1.91403 -0.417324 0
M  V30 29772 H 2840.33 0.0664863 -0.744035 0
M  V30 29773 H 2842.99 -0.540261 -1.87262 0
M  V30 29774 H 2842.09 0.370902 -3.09888 0
M  V30 29775 N 2842.39 1.57018 -0.135265 0
M  V30 29776 C 2843.63 1.95743 0.51876 0
M  V30 29777 C 2843.96 1.01949 1.6564 0
M  V30 29778 O 2843.22 0.046436 1.95645 0
M  V30 29779 C 2843.52 3.4079 1.07688 0
M  V30 29780 C 2843.18 4.50862 0.0589128 0
M  V30 29781 C 2841.84 4.80692 -0.220957 0
M  V30 29782 C 2844.2 5.1733 -0.633947 0
M  V30 29783 C 2841.52 5.74303 -1.19969 0
M  V30 29784 C 2843.88 6.11994 -1.60142 0
M  V30 29785 C 2842.54 6.4021 -1.88911 0
M  V30 29786 H 2841.81 0.716273 0.189828 0
M  V30 29787 H 2844.46 1.90237 -0.219614 0
M  V30 29788 H 2842.76 3.4307 1.89235 0
M  V30 29789 H 2844.46 3.68074 1.59131 0
M  V30 29790 H 2841.05 4.27636 0.287229 0
M  V30 29791 H 2845.23 4.94426 -0.43091 0
M  V30 29792 H 2840.49 5.94462 -1.42916 0
M  V30 29793 H 2844.66 6.62579 -2.14388 0
M  V30 29794 H 2842.29 7.12552 -2.64904 0
M  V30 29795 N 2843.86 -0.138524 1.5699 0
M  V30 29796 C 2845.09 -0.864404 1.87978 0
M  V30 29797 C 2845.51 -1.7435 0.724403 0
M  V30 29798 O 2844.86 -1.79924 -0.305544 0
M  V30 29799 C 2844.92 -1.71409 3.18279 0
M  V30 29800 O 2844.64 -0.870412 4.29366 0
M  V30 29801 C 2846.14 -2.54682 3.62839 0
M  V30 29802 H 2843.36 -0.249517 0.622882 0
M  V30 29803 H 2845.9 -0.128769 2.04094 0
M  V30 29804 H 2844.06 -2.40269 3.03891 0
M  V30 29805 H 2844.47 -1.45457 5.03927 0
M  V30 29806 H 2845.94 -3.09862 4.56825 0
M  V30 29807 H 2846.42 -3.31122 2.88539 0
M  V30 29808 H 2847.03 -1.91098 3.7995 0
M  V30 29809 N 2845.34 -1.52224 -0.408133 0
M  V30 29810 C 2846.29 -1.75637 -1.49734 0
M  V30 29811 C 2847.26 -0.598851 -1.54929 0
M  V30 29812 O 2848.44 -0.836511 -1.71485 0
M  V30 29813 C 2845.58 -1.91381 -2.87171 0
M  V30 29814 C 2844.7 -3.19032 -2.91277 0
M  V30 29815 C 2843.83 -3.25202 -4.2002 0
M  V30 29816 C 2842.87 -4.47051 -4.18105 0
M  V30 29817 N 2842.01 -4.50608 -5.38421 0
M  V30 29818 H 2846.85 -2.68598 -1.2907 0
M  V30 29819 H 2844.39 -1.33092 -0.626495 0
M  V30 29820 H 2846.34 -1.98493 -3.66956 0
M  V30 29821 H 2844.97 -1.018 -3.06327 0
M  V30 29822 H 2844.03 -3.21087 -2.03978 0
M  V30 29823 H 2845.34 -4.08854 -2.85727 0
M  V30 29824 H 2844.49 -3.31391 -5.08198 0
M  V30 29825 H 2843.23 -2.3332 -4.28267 0
M  V30 29826 H 2842.24 -4.41008 -3.28317 0
M  V30 29827 H 2843.46 -5.40228 -4.11497 0
M  V30 29828 H 2841.41 -3.6161 -5.47334 0
M  V30 29829 H 2841.32 -5.34276 -5.34869 0
M  V30 29830 H 2842.59 -4.61027 -6.28549 0
M  V30 29831 N 2846.82 0.665425 -1.42863 0
M  V30 29832 C 2848.23 1.24629 -1.39012 0
M  V30 29833 C 2848.58 1.96002 -0.0880629 0
M  V30 29834 O 2847.71 2.00551 0.812912 0
M  V30 29835 C 2848.3 2.26666 -2.51809 0
M  V30 29836 C 2846.86 2.80258 -2.51262 0
M  V30 29837 C 2846.01 1.54716 -2.30127 0
M  V30 29838 H 2848.96 0.45821 -1.51941 0
M  V30 29839 H 2848.98 3.08594 -2.22598 0
M  V30 29840 H 2848.49 1.74691 -3.46561 0
M  V30 29841 H 2846.59 3.36329 -1.60355 0
M  V30 29842 H 2846.71 3.28635 -3.4862 0
M  V30 29843 H 2845.07 1.81624 -1.78563 0
M  V30 29844 H 2845.85 1.04693 -3.26947 0
M  V30 29845 N 2848.3 1.29191 0.902633 0
M  V30 29846 C 2849.26 1.14075 1.98795 0
M  V30 29847 C 2850.26 0.0770832 1.60615 0
M  V30 29848 O 2851.45 0.323783 1.71165 0
M  V30 29849 C 2848.58 0.743797 3.32687 0
M  V30 29850 H 2849.78 2.10477 2.13634 0
M  V30 29851 H 2847.33 1.12336 1.08676 0
M  V30 29852 H 2848.06 -0.220498 3.2355 0
M  V30 29853 H 2847.85 1.51229 3.61763 0
M  V30 29854 H 2849.34 0.661007 4.12335 0
M  V30 29855 N 2849.78 -1.1126 1.1162 0
M  V30 29856 C 2851 -1.87379 0.889046 0
M  V30 29857 C 2851.43 -1.79699 -0.555852 0
M  V30 29858 O 2850.78 -1.16075 -1.3927 0
M  V30 29859 C 2850.83 -3.34066 1.35765 0
M  V30 29860 O 2849.94 -4.08973 0.530571 0
M  V30 29861 H 2849.28 -0.581753 0.320092 0
M  V30 29862 H 2851.81 -1.40624 1.48613 0
M  V30 29863 H 2851.82 -3.84914 1.35298 0
M  V30 29864 H 2850.49 -3.38972 2.40979 0
M  V30 29865 H 2849.07 -3.68017 0.601503 0
M  V30 29866 N 2851.25 -0.906798 -1.28899 0
M  V30 29867 C 2852.67 -0.603928 -1.47732 0
M  V30 29868 C 2852.87 0.85267 -1.8257 0
M  V30 29869 O 2851.93 1.6323 -1.92645 0
M  V30 29870 C 2853.24 -1.53585 -2.58519 0
M  V30 29871 C 2854.79 -1.54182 -2.72391 0
M  V30 29872 C 2855.26 -2.4602 -3.86314 0
M  V30 29873 N 2856.75 -2.44107 -3.93657 0
M  V30 29874 C 2857.49 -3.11868 -4.81172 0
M  V30 29875 N 2856.98 -3.88933 -5.73326 0
M  V30 29876 N 2858.78 -3.0099 -4.74723 0
M  V30 29877 H 2850.93 -1.84879 -1.04564 0
M  V30 29878 H 2853.19 -0.792588 -0.520104 0
M  V30 29879 H 2852.9 -2.574 -2.39662 0
M  V30 29880 H 2852.77 -1.26171 -3.55472 0
M  V30 29881 H 2855.16 -0.511086 -2.90641 0
M  V30 29882 H 2855.24 -1.85637 -1.7599 0
M  V30 29883 H 2854.88 -3.49191 -3.68819 0
M  V30 29884 H 2854.81 -2.11871 -4.82098 0
M  V30 29885 H 2857.3 -1.88121 -3.27748 0
M  V30 29886 H 2857.62 -4.37674 -6.36915 0
M  V30 29887 H 2855.96 -3.93039 -5.73189 0
M  V30 29888 H 2859.15 -2.40293 -4.01717 0
M  V30 29889 H 2859.33 -3.54072 -5.42713 0
M  V30 29890 N 2852.73 1.42648 -0.670032 0
M  V30 29891 C 2853.64 2.34597 0.0114375 0
M  V30 29892 C 2854.66 1.54826 0.794028 0
M  V30 29893 O 2855.83 1.87413 0.737439 0
M  V30 29894 C 2852.9 3.33305 0.954377 0
M  V30 29895 C 2851.96 4.28976 0.16685 0
M  V30 29896 C 2851.19 5.22969 1.06488 0
M  V30 29897 O 2851.42 5.21781 2.30436 0
M  V30 29898 O 2850.35 5.99578 0.528241 0
M  V30 29899 H 2854.18 2.94399 -0.745846 0
M  V30 29900 H 2851.76 1.43071 -0.430253 0
M  V30 29901 H 2853.64 3.93958 1.49582 0
M  V30 29902 H 2852.32 2.75983 1.69159 0
M  V30 29903 H 2851.23 3.71751 -0.41858 0
M  V30 29904 H 2852.56 4.89326 -0.531153 0
M  V30 29905 N 2854.21 0.413044 1.52091 0
M  V30 29906 C 2855.14 -0.401527 2.30022 0
M  V30 29907 C 2856.12 -1.04267 1.34397 0
M  V30 29908 O 2857.31 -1.05094 1.63306 0
M  V30 29909 C 2854.44 -1.51632 3.1245 0
M  V30 29910 C 2853.39 -0.999977 4.16154 0
M  V30 29911 C 2852.72 -2.20867 4.86952 0
M  V30 29912 C 2854.02 -0.0512839 5.22275 0
M  V30 29913 H 2855.71 0.248757 2.98365 0
M  V30 29914 H 2853.26 0.121077 1.4349 0
M  V30 29915 H 2855.21 -2.09319 3.65737 0
M  V30 29916 H 2853.93 -2.19454 2.41883 0
M  V30 29917 H 2852.59 -0.445485 3.63883 0
M  V30 29918 H 2852.24 -2.87252 4.1291 0
M  V30 29919 H 2851.94 -1.86968 5.57061 0
M  V30 29920 H 2853.47 -2.79153 5.43053 0
M  V30 29921 H 2854.88 -0.537076 5.70779 0
M  V30 29922 H 2853.28 0.199082 5.9977 0
M  V30 29923 H 2854.35 0.892819 4.7661 0
M  V30 29924 N 2855.69 -1.56945 0.143591 0
M  V30 29925 C 2856.91 -2.0081 -0.518666 0
M  V30 29926 C 2857.34 -1.02301 -1.57849 0
M  V30 29927 O 2856.7 0.00175203 -1.813 0
M  V30 29928 C 2856.75 -3.43438 -1.09923 0
M  V30 29929 O 2855.85 -3.47919 -2.21419 0
M  V30 29930 H 2855.19 -0.651702 -0.127203 0
M  V30 29931 H 2857.72 -2.03196 0.239318 0
M  V30 29932 H 2857.73 -3.82167 -1.42873 0
M  V30 29933 H 2856.41 -4.14643 -0.323089 0
M  V30 29934 H 2854.98 -3.21029 -1.89723 0
M  V30 29935 N 2857.17 0.130197 -1.57061 0
M  V30 29936 C 2858.41 0.841184 -1.84532 0
M  V30 29937 C 2858.75 1.80051 -0.727698 0
M  V30 29938 O 2858.02 1.92653 0.267386 0
M  V30 29939 C 2858.3 1.60094 -3.22555 0
M  V30 29940 C 2858.16 0.66197 -4.44902 0
M  V30 29941 C 2859.48 2.55967 -3.58007 0
M  V30 29942 H 2856.6 0.304355 -0.671221 0
M  V30 29943 H 2859.24 0.105787 -1.89705 0
M  V30 29944 H 2857.39 2.22784 -3.18276 0
M  V30 29945 H 2859.06 0.0447748 -4.61278 0
M  V30 29946 H 2857.3 -0.0273016 -4.33791 0
M  V30 29947 H 2857.97 1.22997 -5.38122 0
M  V30 29948 H 2860.45 2.03387 -3.63005 0
M  V30 29949 H 2859.33 3.06164 -4.55582 0
M  V30 29950 H 2859.59 3.38111 -2.84839 0
M  V30 29951 N 2858.65 1.52438 0.400055 0
M  V30 29952 C 2859.87 1.70803 1.16765 0
M  V30 29953 C 2860.29 0.421494 1.84035 0
M  V30 29954 O 2859.65 -0.603198 1.72243 0
M  V30 29955 C 2859.7 2.84994 2.22398 0
M  V30 29956 O 2859.42 4.08666 1.57872 0
M  V30 29957 C 2860.92 3.14945 3.11969 0
M  V30 29958 H 2858.14 0.572167 0.350523 0
M  V30 29959 H 2860.68 1.99038 0.469499 0
M  V30 29960 H 2858.84 2.59252 2.87866 0
M  V30 29961 H 2859.25 4.72364 2.27974 0
M  V30 29962 H 2860.73 3.98337 3.82141 0
M  V30 29963 H 2861.2 2.2887 3.74854 0
M  V30 29964 H 2861.81 3.42485 2.52159 0
M  V30 29965 N 2860.12 -0.657839 1.43214 0
M  V30 29966 C 2861.37 -1.41778 1.44586 0
M  V30 29967 C 2861.7 -1.94379 0.0684549 0
M  V30 29968 O 2860.95 -1.72414 -0.925842 0
M  V30 29969 C 2861.25 -2.61943 2.43147 0
M  V30 29970 C 2860.92 -2.27787 3.89132 0
M  V30 29971 C 2859.58 -2.18184 4.28893 0
M  V30 29972 C 2861.93 -2.00367 4.81147 0
M  V30 29973 C 2859.26 -1.7931 5.58628 0
M  V30 29974 C 2861.61 -1.62992 6.11242 0
M  V30 29975 C 2860.28 -1.51911 6.49984 0
M  V30 29976 H 2859.55 -0.518804 0.529078 0
M  V30 29977 H 2862.19 -0.748546 1.76264 0
M  V30 29978 H 2860.5 -3.33978 2.04857 0
M  V30 29979 H 2862.2 -3.20149 2.41466 0
M  V30 29980 H 2858.79 -2.3617 3.57661 0
M  V30 29981 H 2862.97 -2.0671 4.51204 0
M  V30 29982 H 2858.23 -1.69313 5.87489 0
M  V30 29983 H 2862.4 -1.40805 6.82017 0
M  V30 29984 H 2860.03 -1.21559 7.50418 0
M  V30 29985 N 2861.6 -1.29668 -0.895769 0
M  V30 29986 C 2862.85 -1.17867 -1.64662 0
M  V30 29987 C 2863.18 0.268986 -1.92631 0
M  V30 29988 O 2862.43 1.21026 -1.53789 0
M  V30 29989 C 2862.73 -1.94144 -3.00071 0
M  V30 29990 C 2862.4 -3.43838 -2.91696 0
M  V30 29991 C 2861.06 -3.84661 -2.89119 0
M  V30 29992 C 2863.41 -4.3921 -2.80614 0
M  V30 29993 C 2860.74 -5.19165 -2.73284 0
M  V30 29994 C 2863.09 -5.73809 -2.66319 0
M  V30 29995 C 2861.75 -6.13885 -2.6211 0
M  V30 29996 H 2861.02 -0.431306 -0.602541 0
M  V30 29997 H 2863.67 -1.60649 -1.04231 0
M  V30 29998 H 2861.98 -1.43964 -3.64392 0
M  V30 29999 H 2863.67 -1.82415 -3.57108 0
M  V30 30000 H 2860.26 -3.11391 -2.94506 0
M  V30 30001 H 2864.45 -4.0862 -2.81679 0
M  V30 30002 H 2859.7 -5.49321 -2.68433 0
M  V30 30003 H 2863.88 -6.47356 -2.56716 0
M  V30 30004 H 2861.5 -7.18056 -2.49598 0
M  V30 30005 N 2863.08 1.10667 -1.12208 0
M  V30 30006 C 2864.49 1.64084 -0.890685 0
M  V30 30007 C 2864.84 1.87571 0.575469 0
M  V30 30008 O 2863.97 1.61589 1.43937 0
M  V30 30009 C 2864.56 2.98083 -1.61035 0
M  V30 30010 C 2863.12 3.48376 -1.42516 0
M  V30 30011 C 2862.27 2.2303 -1.64782 0
M  V30 30012 H 2865.22 0.941987 -1.2772 0
M  V30 30013 H 2865.24 3.65437 -1.06 0
M  V30 30014 H 2864.75 2.80957 -2.6774 0
M  V30 30015 H 2862.85 3.70651 -0.380562 0
M  V30 30016 H 2862.97 4.26647 -2.17966 0
M  V30 30017 H 2861.33 2.31053 -1.07175 0
M  V30 30018 H 2862.11 2.08438 -2.72779 0
M  V30 30019 N 2864.56 0.913621 1.28416 0
M  V30 30020 C 2865.83 0.465652 1.89976 0
M  V30 30021 C 2866.21 -1.05555 1.82815 0
M  V30 30022 O 2865.56 -1.90356 1.264 0
M  V30 30023 C 2865.77 0.995871 3.3449 0
M  V30 30024 C 2867.12 1.04789 4.11466 0
M  V30 30025 O 2868.14 0.944506 3.43449 0
M  V30 30026 O 2867 1.20527 5.33044 0
M  V30 30027 H 2864.1 0.147546 0.813732 0
M  V30 30028 H 2866.64 1.0044 1.36784 0
M  V30 30029 H 2865.42 2.03984 3.33925 0
M  V30 30030 H 2865.04 0.437947 3.95181 0
M  V30 30031 N 2866.04 -1.4229 0.677588 0
M  V30 30032 C 2866.97 -2.33495 0.0150091 0
M  V30 30033 C 2867.95 -1.50833 -0.786349 0
M  V30 30034 O 2869.13 -1.79427 -0.742943 0
M  V30 30035 C 2866.26 -3.34478 -0.934964 0
M  V30 30036 C 2865.22 -4.27315 -0.241999 0
M  V30 30037 C 2864.54 -5.18528 -1.3051 0
M  V30 30038 C 2865.84 -5.14821 0.880694 0
M  V30 30039 H 2867.54 -2.89149 0.776722 0
M  V30 30040 H 2865.08 -1.39032 0.374964 0
M  V30 30041 H 2867.03 -3.97196 -1.40759 0
M  V30 30042 H 2865.76 -2.77134 -1.72813 0
M  V30 30043 H 2864.42 -3.65996 0.210415 0
M  V30 30044 H 2864.07 -4.57509 -2.09033 0
M  V30 30045 H 2863.77 -5.8147 -0.846549 0
M  V30 30046 H 2865.29 -5.84122 -1.7786 0
M  V30 30047 H 2866.7 -5.71209 0.489163 0
M  V30 30048 H 2865.1 -5.86611 1.26521 0
M  V30 30049 H 2866.17 -4.53056 1.72826 0
M  V30 30050 N 2867.51 -0.421104 -1.5187 0
M  V30 30051 C 2868.46 0.413026 -2.28904 0
M  V30 30052 C 2869.46 1.03529 -1.34082 0
M  V30 30053 O 2870.66 0.972119 -1.51492 0
M  V30 30054 H 2867.04 0.15199 -0.73648 0
M  V30 30055 H 2869.01 -0.257747 -2.97285 0
M  V30 30056 C 2867.76 1.51086 -3.13159 0
M  V30 30057 H 2867.08 1.04139 -3.85999 0
M  V30 30058 H 2868.52 2.06808 -3.70144 0
M  V30 30059 C 2866.98 2.48499 -2.27486 0
M  V30 30060 O 2867.51 3.52663 -1.92332 0
M  V30 30061 N 2865.71 2.18995 -1.91022 0
M  V30 30062 H 2865.26 1.34318 -2.1981 0
M  V30 30063 H 2865.22 2.84416 -1.33995 0
M  V30 30064 N 2868.99 1.56866 -0.151912 0
M  V30 30065 C 2870.24 1.95894 0.496986 0
M  V30 30066 C 2870.56 1.03802 1.65076 0
M  V30 30067 O 2869.83 0.100525 1.95642 0
M  V30 30068 H 2868.41 0.723321 0.18659 0
M  V30 30069 H 2871.07 1.93555 -0.228559 0
M  V30 30070 H 2870.17 2.99732 0.86988 0
M  V30 30071 N 2870.47 -0.121866 1.57128 0
M  V30 30072 C 2871.75 -0.860296 1.75665 0
M  V30 30073 C 2872.13 -1.98201 0.726619 0
M  V30 30074 O 2871.48 -2.27129 -0.24995 0
M  V30 30075 C 2871.69 -1.37962 3.20573 0
M  V30 30076 C 2873.03 -1.8331 3.82992 0
M  V30 30077 O 2874.06 -1.47648 3.24158 0
M  V30 30078 O 2872.92 -2.49159 4.86397 0
M  V30 30079 H 2870.01 -0.408336 0.71916 0
M  V30 30080 H 2872.56 -0.105829 1.6937 0
M  V30 30081 H 2871.33 -0.574702 3.87057 0
M  V30 30082 H 2870.95 -2.19688 3.31395 0
M  V30 30083 N 2871.95 -1.52648 -0.391965 0
M  V30 30084 C 2873.19 -1.67795 -1.13897 0
M  V30 30085 C 2873.53 -0.415174 -1.8971 0
M  V30 30086 O 2872.8 0.586946 -1.85432 0
M  V30 30087 C 2873.09 -2.91109 -2.11961 0
M  V30 30088 C 2872.94 -4.2748 -1.39931 0
M  V30 30089 C 2874.26 -3.09966 -3.12424 0
M  V30 30090 H 2871.38 -0.610615 -0.412696 0
M  V30 30091 H 2874.02 -1.85239 -0.422692 0
M  V30 30092 H 2872.17 -2.76368 -2.73044 0
M  V30 30093 H 2873.84 -4.53983 -0.818359 0
M  V30 30094 H 2872.08 -4.28096 -0.701171 0
M  V30 30095 H 2872.75 -5.09845 -2.11572 0
M  V30 30096 H 2875.23 -3.23719 -2.61429 0
M  V30 30097 H 2874.11 -3.97731 -3.78287 0
M  V30 30098 H 2874.37 -2.24049 -3.81123 0
M  V30 30099 N 2873.43 0.650235 -1.43561 0
M  V30 30100 C 2874.67 1.41219 -1.45551 0
M  V30 30101 C 2875.01 1.94033 -0.0805813 0
M  V30 30102 O 2874.28 1.72476 0.899013 0
M  V30 30103 C 2874.56 2.59144 -2.50033 0
M  V30 30104 C 2874.42 2.11803 -3.96812 0
M  V30 30105 C 2875.74 3.61355 -2.51218 0
M  V30 30106 H 2872.85 0.512146 -0.529976 0
M  V30 30107 H 2875.5 0.736902 -1.75128 0
M  V30 30108 H 2873.65 3.16754 -2.24943 0
M  V30 30109 H 2875.32 1.59171 -4.32969 0
M  V30 30110 H 2873.56 1.43149 -4.09501 0
M  V30 30111 H 2874.23 2.96617 -4.65535 0
M  V30 30112 H 2876.71 3.1351 -2.73589 0
M  V30 30113 H 2875.58 4.41413 -3.2626 0
M  V30 30114 H 2875.85 4.14147 -1.54708 0
M  V30 30115 N 2874.9 1.30141 0.88888 0
M  V30 30116 C 2875.87 1.16177 1.97574 0
M  V30 30117 C 2876.87 0.0941142 1.60524 0
M  V30 30118 O 2878.06 0.341919 1.70811 0
M  V30 30119 C 2875.19 0.779041 3.31879 0
M  V30 30120 H 2876.38 2.12731 2.11389 0
M  V30 30121 H 2873.94 1.13482 1.07478 0
M  V30 30122 H 2874.67 -0.186168 3.23765 0
M  V30 30123 H 2874.46 1.55058 3.60138 0
M  V30 30124 H 2875.95 0.704704 4.11611 0
M  V30 30125 N 2876.38 -1.1007 1.12794 0
M  V30 30126 C 2877.63 -1.81478 0.880264 0
M  V30 30127 C 2877.94 -1.86313 -0.595542 0
M  V30 30128 O 2879.15 -2.53964 -0.959934 0
M  V30 30129 C 2877.61 -3.25984 1.5252 0
M  V30 30130 C 2877.21 -3.29435 3.03606 0
M  V30 30131 C 2878.96 -4.02194 1.35795 0
M  V30 30132 C 2876.87 -4.68425 3.61015 0
M  V30 30133 H 2875.8 -0.680042 0.325666 0
M  V30 30134 H 2878.45 -1.23756 1.35487 0
M  V30 30135 H 2876.83 -3.83727 0.978256 0
M  V30 30136 H 2878 -2.81496 3.64824 0
M  V30 30137 H 2876.32 -2.66713 3.1977 0
M  V30 30138 H 2878.91 -5.04867 1.76105 0
M  V30 30139 H 2879.26 -4.15203 0.302045 0
M  V30 30140 H 2879.79 -3.50876 1.87432 0
M  V30 30141 H 2876.53 -4.60616 4.66383 0
M  V30 30142 H 2876.05 -5.16716 3.04573 0
M  V30 30143 H 2877.73 -5.37396 3.60298 0
M  V30 30144 N 2877.86 -0.920419 -1.2793 0
M  V30 30145 C 2879.14 -0.475721 -1.89727 0
M  V30 30146 C 2879.52 1.04584 -1.83372 0
M  V30 30147 O 2878.87 1.89683 -1.27408 0
M  V30 30148 C 2879.08 -1.0136 -3.33957 0
M  V30 30149 C 2880.42 -1.0697 -4.10905 0
M  V30 30150 O 2881.45 -0.962707 -3.42944 0
M  V30 30151 O 2880.31 -1.23352 -5.32397 0
M  V30 30152 H 2877.4 -0.151859 -0.812938 0
M  V30 30153 H 2879.95 -1.01164 -1.3625 0
M  V30 30154 H 2878.72 -2.05752 -3.32839 0
M  V30 30155 H 2878.34 -0.458898 -3.94943 0
M  V30 30156 N 2879.34 1.41929 -0.685124 0
M  V30 30157 C 2880.57 2.05424 -0.220088 0
M  V30 30158 C 2880.98 1.51613 1.13182 0
M  V30 30159 O 2880.32 0.654905 1.71629 0
M  V30 30160 C 2880.38 3.5939 -0.0888995 0
M  V30 30161 C 2880.05 4.35945 -1.37117 0
M  V30 30162 C 2881.04 4.6592 -2.30683 0
M  V30 30163 C 2878.73 4.75403 -1.62164 0
M  V30 30164 C 2880.72 5.343 -3.47566 0
M  V30 30165 C 2878.41 5.43522 -2.79333 0
M  V30 30166 C 2879.41 5.72897 -3.71858 0
M  V30 30167 O 2879.09 6.39616 -4.86977 0
M  V30 30168 H 2878.83 0.668233 -0.102177 0
M  V30 30169 H 2881.38 1.82873 -0.935227 0
M  V30 30170 H 2879.61 3.8064 0.681914 0
M  V30 30171 H 2881.3 4.04494 0.337598 0
M  V30 30172 H 2882.07 4.35927 -2.12586 0
M  V30 30173 H 2877.94 4.51927 -0.910132 0
M  V30 30174 H 2881.49 5.57145 -4.19804 0
M  V30 30175 H 2877.39 5.72933 -2.97352 0
M  V30 30176 H 2878.15 6.5811 -4.86656 0
M  V30 30177 N 2880.82 0.429152 1.51644 0
M  V30 30178 C 2882.23 0.081022 1.59394 0
M  V30 30179 C 2882.43 -1.40879 1.44067 0
M  V30 30180 O 2881.49 -2.17784 1.27774 0
M  V30 30181 C 2882.8 0.593825 2.94778 0
M  V30 30182 C 2884.35 0.553548 3.08066 0
M  V30 30183 C 2884.82 1.04319 4.45961 0
M  V30 30184 N 2886.32 1.00084 4.52258 0
M  V30 30185 C 2887.05 1.35066 5.57265 0
M  V30 30186 N 2886.55 1.77293 6.6973 0
M  V30 30187 N 2888.34 1.26935 5.4758 0
M  V30 30188 H 2880.49 1.3986 1.59853 0
M  V30 30189 H 2882.75 0.575818 0.753085 0
M  V30 30190 H 2882.46 1.63588 3.11339 0
M  V30 30191 H 2882.33 0.0142865 3.77197 0
M  V30 30192 H 2884.72 -0.479505 2.91178 0
M  V30 30193 H 2884.8 1.16939 2.27506 0
M  V30 30194 H 2884.45 2.07467 4.63595 0
M  V30 30195 H 2884.38 0.403966 5.25048 0
M  V30 30196 H 2886.87 0.69063 3.71536 0
M  V30 30197 H 2887.18 2.02245 7.45866 0
M  V30 30198 H 2885.52 1.81214 6.7096 0
M  V30 30199 H 2888.72 0.93817 4.58602 0
M  V30 30200 H 2888.89 1.54527 6.29306 0
M  V30 30201 N 2882.29 -1.56783 0.160229 0
M  V30 30202 C 2883.24 -2.14008 -0.786423 0
M  V30 30203 C 2884.23 -1.07136 -1.20044 0
M  V30 30204 O 2885.42 -1.33285 -1.16466 0
M  V30 30205 C 2882.55 -2.77566 -2.02019 0
M  V30 30206 C 2881.64 -3.9158 -1.62867 0
M  V30 30207 N 2882.03 -4.96873 -0.946088 0
M  V30 30208 C 2880.32 -4.02534 -1.92047 0
M  V30 30209 C 2881.03 -5.7678 -0.754983 0
M  V30 30210 N 2880 -5.27999 -1.29298 0
M  V30 30211 H 2883.8 -2.92784 -0.255828 0
M  V30 30212 H 2881.32 -1.62349 -0.0408493 0
M  V30 30213 H 2883.31 -3.16933 -2.70849 0
M  V30 30214 H 2881.97 -2.00267 -2.55584 0
M  V30 30215 H 2882.99 -5.1435 -0.605365 0
M  V30 30216 H 2879.66 -3.36326 -2.47368 0
M  V30 30217 H 2881.05 -6.71553 -0.21602 0
M  V30 30218 N 2883.77 0.113531 -1.57191 0
M  V30 30219 C 2885 0.833179 -1.89055 0
M  V30 30220 C 2885.41 1.73693 -0.75017 0
M  V30 30221 O 2884.75 1.81432 0.287776 0
M  V30 30222 C 2884.82 1.71438 -3.15989 0
M  V30 30223 C 2884.48 0.984371 -4.46272 0
M  V30 30224 C 2885.48 0.32265 -5.18898 0
M  V30 30225 C 2883.16 0.963924 -4.92964 0
M  V30 30226 C 2885.16 -0.349758 -6.3644 0
M  V30 30227 C 2882.84 0.287721 -6.10422 0
M  V30 30228 C 2883.84 -0.36796 -6.82008 0
M  V30 30229 O 2883.53 -1.03336 -7.97231 0
M  V30 30230 H 2883.26 0.244515 -0.630229 0
M  V30 30231 H 2885.82 0.100811 -2.05152 0
M  V30 30232 H 2884.05 2.48853 -2.95989 0
M  V30 30233 H 2885.73 2.30894 -3.33831 0
M  V30 30234 H 2886.5 0.330029 -4.83876 0
M  V30 30235 H 2882.38 1.46371 -4.37146 0
M  V30 30236 H 2885.92 -0.862118 -6.92252 0
M  V30 30237 H 2881.82 0.278123 -6.44901 0
M  V30 30238 H 2882.59 -0.93839 -8.13103 0
M  V30 30239 N 2885.25 1.52854 0.383864 0
M  V30 30240 C 2886.48 1.72332 1.15397 0
M  V30 30241 C 2886.9 0.443012 1.82809 0
M  V30 30242 O 2886.26 -0.601615 1.71027 0
M  V30 30243 C 2886.31 2.87712 2.17381 0
M  V30 30244 O 2885.41 2.55044 3.24078 0
M  V30 30245 H 2884.75 0.572889 0.335699 0
M  V30 30246 H 2887.28 1.99667 0.446585 0
M  V30 30247 H 2887.29 3.13355 2.61291 0
M  V30 30248 H 2885.97 3.8059 1.67703 0
M  V30 30249 H 2884.54 2.40158 2.85269 0
M  V30 30250 N 2886.73 -0.642612 1.43904 0
M  V30 30251 C 2887.69 -1.73696 1.49541 0
M  V30 30252 C 2888.69 -1.56275 0.378803 0
M  V30 30253 O 2889.88 -1.61979 0.640978 0
M  V30 30254 C 2887.01 -3.12672 1.35826 0
M  V30 30255 H 2888.21 -1.70075 2.47011 0
M  V30 30256 H 2885.76 -0.855237 1.30826 0
M  V30 30257 H 2886.5 -3.21897 0.394051 0
M  V30 30258 H 2886.28 -3.26723 2.16782 0
M  V30 30259 H 2887.77 -3.92452 1.42727 0
M  V30 30260 N 2888.21 -1.30611 -0.881966 0
M  V30 30261 C 2889.43 -1.22668 -1.67234 0
M  V30 30262 C 2889.86 0.206745 -1.8696 0
M  V30 30263 O 2889.22 1.14863 -1.40272 0
M  V30 30264 C 2889.26 -1.96369 -3.02443 0
M  V30 30265 O 2888.37 -1.29283 -3.91612 0
M  V30 30266 H 2887.71 -0.424126 -0.510894 0
M  V30 30267 H 2890.24 -1.72481 -1.10052 0
M  V30 30268 H 2890.25 -2.05506 -3.52465 0
M  V30 30269 H 2888.92 -3.00618 -2.87405 0
M  V30 30270 H 2887.5 -1.2852 -3.50053 0
M  V30 30271 N 2889.69 1.0947 -1.13376 0
M  V30 30272 C 2890.93 1.81637 -0.895222 0
M  V30 30273 C 2891.26 1.85693 0.578647 0
M  V30 30274 O 2890.52 1.32062 1.44423 0
M  V30 30275 C 2890.81 3.27648 -1.42765 0
M  V30 30276 C 2890.48 3.43725 -2.91828 0
M  V30 30277 C 2889.14 3.47821 -3.32527 0
M  V30 30278 C 2891.49 3.483 -3.87733 0
M  V30 30279 C 2888.82 3.54069 -4.67816 0
M  V30 30280 C 2891.17 3.56082 -5.22865 0
M  V30 30281 C 2889.84 3.58446 -5.63092 0
M  V30 30282 H 2889.11 0.664657 -0.327585 0
M  V30 30283 H 2891.76 1.28967 -1.41562 0
M  V30 30284 H 2890.06 3.82952 -0.827938 0
M  V30 30285 H 2891.76 3.82017 -1.21917 0
M  V30 30286 H 2888.35 3.41222 -2.59356 0
M  V30 30287 H 2892.53 3.44377 -3.57377 0
M  V30 30288 H 2887.79 3.54186 -4.98359 0
M  V30 30289 H 2891.96 3.58567 -5.96995 0
M  V30 30290 H 2889.59 3.6304 -6.67911 0
M  V30 30291 N 2891.16 0.92719 1.2744 0
M  V30 30292 C 2892.11 0.424499 2.26863 0
M  V30 30293 C 2893.08 -0.508319 1.58131 0
M  V30 30294 O 2894.27 -0.427587 1.85947 0
M  V30 30295 C 2891.41 -0.317119 3.4364 0
M  V30 30296 C 2890.52 0.64975 4.27086 0
M  V30 30297 C 2889.65 -0.11166 5.31083 0
M  V30 30298 C 2888.69 0.847949 6.06198 0
M  V30 30299 N 2887.83 0.119198 7.01999 0
M  V30 30300 H 2892.67 1.27732 2.69237 0
M  V30 30301 H 2890.21 0.64113 1.32393 0
M  V30 30302 H 2892.16 -0.763413 4.10156 0
M  V30 30303 H 2890.79 -1.13419 3.02219 0
M  V30 30304 H 2889.85 1.21457 3.60489 0
M  V30 30305 H 2891.16 1.38315 4.79239 0
M  V30 30306 H 2890.31 -0.617894 6.03545 0
M  V30 30307 H 2889.05 -0.87803 4.79731 0
M  V30 30308 H 2888.06 1.36544 5.32575 0
M  V30 30309 H 2889.28 1.61409 6.59639 0
M  V30 30310 H 2887.23 -0.628936 6.52978 0
M  V30 30311 H 2887.14 0.792178 7.51838 0
M  V30 30312 H 2888.41 -0.3664 7.78638 0
M  V30 30313 N 2892.64 -1.41564 0.692641 0
M  V30 30314 C 2893.59 -2.30786 0.025467 0
M  V30 30315 C 2894.56 -1.46947 -0.774321 0
M  V30 30316 O 2895.74 -1.75741 -0.74295 0
M  V30 30317 C 2892.88 -3.32966 -0.907064 0
M  V30 30318 C 2892 -4.31886 -0.0992024 0
M  V30 30319 C 2891.13 -5.21136 -1.02911 0
M  V30 30320 C 2890.17 -6.11726 -0.213981 0
M  V30 30321 N 2889.31 -6.93469 -1.09754 0
M  V30 30322 H 2894.15 -2.8728 0.792086 0
M  V30 30323 H 2891.68 -1.41491 0.402325 0
M  V30 30324 H 2893.64 -3.90754 -1.46174 0
M  V30 30325 H 2892.27 -2.78029 -1.64011 0
M  V30 30326 H 2891.32 -3.7607 0.572353 0
M  V30 30327 H 2892.64 -4.95946 0.532869 0
M  V30 30328 H 2891.79 -5.83744 -1.65311 0
M  V30 30329 H 2890.53 -4.57296 -1.69504 0
M  V30 30330 H 2889.53 -5.48169 0.423117 0
M  V30 30331 H 2890.76 -6.7762 0.448114 0
M  V30 30332 H 2888.71 -6.3224 -1.74954 0
M  V30 30333 H 2888.62 -7.54203 -0.520966 0
M  V30 30334 H 2889.89 -7.60547 -1.70844 0
M  V30 30335 N 2894.12 -0.437188 -1.51415 0
M  V30 30336 C 2895.37 0.129073 -2.01687 0
M  V30 30337 C 2895.69 1.43225 -1.32332 0
M  V30 30338 O 2894.96 1.90475 -0.457829 0
M  V30 30339 H 2893.54 0.0506892 -0.745278 0
M  V30 30340 H 2896.2 -0.579861 -1.86074 0
M  V30 30341 H 2895.3 0.305087 -3.10605 0
M  V30 30342 N 2895.6 1.56696 -0.168541 0
M  V30 30343 C 2896.56 2.1662 0.74889 0
M  V30 30344 C 2897.56 1.11353 1.16005 0
M  V30 30345 O 2898.75 1.36881 1.07746 0
M  V30 30346 C 2895.88 2.74681 2.01899 0
M  V30 30347 H 2897.08 2.99038 0.227265 0
M  V30 30348 H 2894.63 1.5609 0.0810098 0
M  V30 30349 H 2895.36 1.95989 2.58377 0
M  V30 30350 H 2895.15 3.51715 1.73317 0
M  V30 30351 H 2896.64 3.20779 2.67378 0
M  V30 30352 N 2897.08 -0.105193 1.57249 0
M  V30 30353 C 2898.02 -1.12832 2.0134 0
M  V30 30354 C 2898.99 -1.40375 0.887922 0
M  V30 30355 O 2900.18 -1.52008 1.15318 0
M  V30 30356 C 2897.32 -2.44607 2.43437 0
M  V30 30357 C 2896.43 -2.23881 3.69461 0
M  V30 30358 C 2895.57 -3.48984 4.00479 0
M  V30 30359 C 2894.6 -3.23476 5.19644 0
M  V30 30360 N 2893.74 -4.40818 5.46465 0
M  V30 30361 H 2898.58 -0.745336 2.88529 0
M  V30 30362 H 2896.12 -0.35651 1.42714 0
M  V30 30363 H 2898.08 -3.21498 2.65885 0
M  V30 30364 H 2896.71 -2.80771 1.59271 0
M  V30 30365 H 2895.76 -1.37841 3.54548 0
M  V30 30366 H 2897.07 -2.01018 4.56501 0
M  V30 30367 H 2896.22 -4.34288 4.2365 0
M  V30 30368 H 2894.96 -3.74892 3.11941 0
M  V30 30369 H 2893.97 -2.36565 4.96303 0
M  V30 30370 H 2895.19 -2.98925 6.09771 0
M  V30 30371 H 2893.14 -4.66821 4.60885 0
M  V30 30372 H 2893.06 -4.21109 6.27856 0
M  V30 30373 H 2894.32 -5.27215 5.74164 0
M  V30 30374 N 2898.55 -1.53055 -0.375752 0
M  V30 30375 C 2899.48 -1.81748 -1.46594 0
M  V30 30376 C 2900.47 -0.670314 -1.56336 0
M  V30 30377 O 2901.65 -0.919188 -1.71069 0
M  V30 30378 C 2898.78 -1.99826 -2.84054 0
M  V30 30379 C 2897.73 -3.15562 -2.89145 0
M  V30 30380 C 2897.06 -3.18915 -4.29182 0
M  V30 30381 C 2898.36 -4.54363 -2.57587 0
M  V30 30382 H 2900.05 -2.73043 -1.22832 0
M  V30 30383 H 2897.6 -1.31382 -0.589462 0
M  V30 30384 H 2899.55 -2.18482 -3.60338 0
M  V30 30385 H 2898.28 -1.05232 -3.09183 0
M  V30 30386 H 2896.94 -2.9671 -2.15311 0
M  V30 30387 H 2896.58 -2.21978 -4.5137 0
M  V30 30388 H 2896.28 -3.9667 -4.33505 0
M  V30 30389 H 2897.81 -3.39742 -5.07353 0
M  V30 30390 H 2899.22 -4.73249 -3.23587 0
M  V30 30391 H 2897.62 -5.34283 -2.73242 0
M  V30 30392 H 2898.69 -4.60171 -1.52874 0
M  V30 30393 N 2900.03 0.634971 -1.44242 0
M  V30 30394 C 2900.96 1.75837 -1.53635 0
M  V30 30395 C 2901.94 1.65577 -0.389632 0
M  V30 30396 O 2903.13 1.84396 -0.609252 0
M  V30 30397 C 2900.26 3.14351 -1.4765 0
M  V30 30398 C 2899.21 3.39395 -2.60758 0
M  V30 30399 C 2898.54 4.77899 -2.39825 0
M  V30 30400 C 2899.84 3.32336 -4.02927 0
M  V30 30401 H 2901.53 1.68234 -2.47665 0
M  V30 30402 H 2899.08 0.807948 -1.19198 0
M  V30 30403 H 2901.03 3.92713 -1.52822 0
M  V30 30404 H 2899.76 3.22729 -0.501341 0
M  V30 30405 H 2898.41 2.63412 -2.54969 0
M  V30 30406 H 2898.06 4.82976 -1.40511 0
M  V30 30407 H 2897.76 4.95615 -3.15658 0
M  V30 30408 H 2899.29 5.58496 -2.46809 0
M  V30 30409 H 2900.7 4.00608 -4.10105 0
M  V30 30410 H 2899.1 3.61586 -4.78932 0
M  V30 30411 H 2900.17 2.30208 -4.2677 0
M  V30 30412 N 2901.51 1.31076 0.875027 0
M  V30 30413 C 2902.46 1.14901 1.96931 0
M  V30 30414 C 2903.44 0.0613986 1.60783 0
M  V30 30415 O 2904.64 0.285782 1.74678 0
M  V30 30416 C 2901.77 0.853225 3.32528 0
M  V30 30417 C 2900.85 1.98157 3.74959 0
M  V30 30418 N 2901.24 3.22806 3.89397 0
M  V30 30419 C 2899.54 1.88017 4.04432 0
M  V30 30420 C 2900.24 3.96581 4.25557 0
M  V30 30421 N 2899.22 3.24709 4.35964 0
M  V30 30422 H 2903.02 2.09427 2.06198 0
M  V30 30423 H 2900.53 1.2256 1.06549 0
M  V30 30424 H 2902.53 0.718338 4.10665 0
M  V30 30425 H 2901.19 -0.0838648 3.24592 0
M  V30 30426 H 2902.2 3.5798 3.7426 0
M  V30 30427 H 2898.88 1.01741 4.04914 0
M  V30 30428 H 2900.27 5.03972 4.44366 0
M  V30 30429 N 2902.99 -1.08867 1.13955 0
M  V30 30430 C 2903.94 -2.1566 0.822168 0
M  V30 30431 C 2904.91 -1.6466 -0.218245 0
M  V30 30432 O 2906.09 -1.90591 -0.089214 0
M  V30 30433 C 2903.23 -3.43788 0.300632 0
M  V30 30434 C 2902.34 -4.08659 1.40079 0
M  V30 30435 C 2901.48 -5.24565 0.836989 0
M  V30 30436 C 2900.52 -5.81368 1.91515 0
M  V30 30437 N 2899.65 -6.88626 1.36887 0
M  V30 30438 H 2904.49 -2.4215 1.73688 0
M  V30 30439 H 2902.03 -1.18841 0.866899 0
M  V30 30440 H 2903.99 -4.17195 -0.0199209 0
M  V30 30441 H 2902.62 -3.17598 -0.577193 0
M  V30 30442 H 2901.67 -3.33059 1.83782 0
M  V30 30443 H 2902.98 -4.46901 2.21542 0
M  V30 30444 H 2902.14 -6.04892 0.468059 0
M  V30 30445 H 2900.88 -4.87699 -0.00865635 0
M  V30 30446 H 2899.88 -4.99698 2.29308 0
M  V30 30447 H 2901.11 -6.20293 2.7643 0
M  V30 30448 H 2899.05 -6.53729 0.545326 0
M  V30 30449 H 2898.97 -7.25669 2.11993 0
M  V30 30450 H 2900.24 -7.72696 1.02769 0
M  V30 30451 N 2904.47 -0.933936 -1.26946 0
M  V30 30452 C 2905.88 -0.621355 -1.76057 0
M  V30 30453 C 2906.23 0.863491 -1.76177 0
M  V30 30454 O 2905.35 1.67574 -1.36923 0
M  V30 30455 C 2905.95 -1.12117 -3.19711 0
M  V30 30456 C 2904.51 -0.859139 -3.66464 0
M  V30 30457 C 2903.65 -1.27628 -2.46183 0
M  V30 30458 H 2906.61 -1.11303 -1.13125 0
M  V30 30459 H 2906.63 -0.471674 -3.77565 0
M  V30 30460 H 2906.14 -2.20188 -3.19592 0
M  V30 30461 H 2904.24 0.2075 -3.72022 0
M  V30 30462 H 2904.35 -1.48106 -4.55633 0
M  V30 30463 H 2902.72 -0.694771 -2.45041 0
M  V30 30464 H 2903.5 -2.36577 -2.4877 0
M  V30 30465 N 2905.94 1.41194 -0.700139 0
M  V30 30466 C 2907.19 2.00383 -0.230117 0
M  V30 30467 C 2907.51 1.56108 1.17854 0
M  V30 30468 O 2908.71 2.07888 1.74627 0
M  V30 30469 C 2907.17 3.5809 -0.36051 0
M  V30 30470 C 2906.78 4.11344 -1.77482 0
M  V30 30471 C 2908.52 4.24471 0.0495053 0
M  V30 30472 C 2906.43 5.61501 -1.85663 0
M  V30 30473 H 2905.36 0.749498 -0.0822765 0
M  V30 30474 H 2908.01 1.61619 -0.868998 0
M  V30 30475 H 2906.39 3.94479 0.346698 0
M  V30 30476 H 2907.56 3.86364 -2.51116 0
M  V30 30477 H 2905.88 3.57505 -2.13492 0
M  V30 30478 H 2908.48 5.34699 0.00888821 0
M  V30 30479 H 2908.82 4.01805 1.08897 0
M  V30 30480 H 2909.35 3.93133 -0.60759 0
M  V30 30481 H 2906.09 5.89001 -2.87678 0
M  V30 30482 H 2905.61 5.88393 -1.1642 0
M  V30 30483 H 2907.29 6.26349 -1.62162 0
M  V30 30484 N 2907.42 0.445212 1.51181 0
M  V30 30485 C 2908.67 -0.118785 2.02452 0
M  V30 30486 C 2909 -1.41671 1.32827 0
M  V30 30487 O 2908.28 -1.89325 0.44567 0
M  V30 30488 C 2908.56 -0.329412 3.5859 0
M  V30 30489 C 2908.41 0.987715 4.38821 0
M  V30 30490 C 2909.73 -1.09567 4.26243 0
M  V30 30491 H 2906.85 -0.0416963 0.73582 0
M  V30 30492 H 2909.49 0.585749 1.80746 0
M  V30 30493 H 2907.64 -0.929534 3.77216 0
M  V30 30494 H 2909.31 1.62242 4.31828 0
M  V30 30495 H 2907.56 1.59048 4.03592 0
M  V30 30496 H 2908.23 0.794288 5.46255 0
M  V30 30497 H 2910.7 -0.587255 4.11935 0
M  V30 30498 H 2909.58 -1.21182 5.35356 0
M  V30 30499 H 2909.84 -2.12577 3.87638 0
M  V30 30500 N 2908.9 -1.56605 0.176849 0
M  V30 30501 C 2910.15 -1.98111 -0.460833 0
M  V30 30502 C 2910.5 -1.06122 -1.60486 0
M  V30 30503 O 2909.79 -0.101972 -1.91328 0
M  V30 30504 C 2909.99 -3.43526 -0.986148 0
M  V30 30505 C 2909.82 -4.49576 0.105447 0
M  V30 30506 C 2908.59 -5.02221 0.556972 0
M  V30 30507 C 2910.79 -5.06224 0.907845 0
M  V30 30508 N 2908.77 -5.91912 1.62829 0
M  V30 30509 C 2910.14 -5.92409 1.82897 0
M  V30 30510 C 2912.19 -4.88708 0.952306 0
M  V30 30511 C 2910.9 -6.62952 2.79082 0
M  V30 30512 C 2912.92 -5.59976 1.90212 0
M  V30 30513 C 2912.28 -6.45893 2.81071 0
M  V30 30514 H 2908.38 -0.769981 -0.136576 0
M  V30 30515 H 2910.97 -1.927 0.278341 0
M  V30 30516 H 2909.14 -3.49471 -1.69482 0
M  V30 30517 H 2910.87 -3.72033 -1.59292 0
M  V30 30518 H 2907.63 -4.73351 0.153658 0
M  V30 30519 H 2908.05 -6.41462 2.16461 0
M  V30 30520 H 2912.69 -4.21976 0.263869 0
M  V30 30521 H 2910.41 -7.28894 3.48911 0
M  V30 30522 H 2914 -5.48407 1.9427 0
M  V30 30523 H 2912.88 -7.00071 3.5337 0
M  V30 30524 N 2910.38 0.0968524 -1.57302 0
M  V30 30525 C 2911.33 1.12396 -1.98371 0
M  V30 30526 C 2912.31 1.35868 -0.861896 0
M  V30 30527 O 2913.5 1.36589 -1.12572 0
M  V30 30528 C 2910.63 2.44466 -2.41021 0
M  V30 30529 C 2909.72 2.24375 -3.59884 0
M  V30 30530 N 2910.11 1.74147 -4.74875 0
M  V30 30531 C 2908.41 2.54948 -3.65948 0
M  V30 30532 C 2909.11 1.68285 -5.56826 0
M  V30 30533 N 2908.09 2.13436 -4.99946 0
M  V30 30534 H 2911.89 0.728525 -2.84727 0
M  V30 30535 H 2909.4 0.304304 -1.59524 0
M  V30 30536 H 2911.4 3.18781 -2.68671 0
M  V30 30537 H 2910.06 2.84748 -1.56041 0
M  V30 30538 H 2911.07 1.4337 -4.9766 0
M  V30 30539 H 2907.75 2.98766 -2.91625 0
M  V30 30540 H 2909.14 1.30517 -6.59102 0
M  V30 30541 N 2911.86 1.53252 0.36763 0
M  V30 30542 C 2913.11 1.68556 1.10779 0
M  V30 30543 C 2913.42 0.442799 1.90522 0
M  V30 30544 O 2914.62 0.476337 2.67289 0
M  V30 30545 C 2913.08 2.97962 2.01857 0
M  V30 30546 C 2912.69 4.29493 1.27435 0
M  V30 30547 C 2914.43 3.22633 2.75877 0
M  V30 30548 C 2912.34 5.4999 2.17404 0
M  V30 30549 H 2911.27 0.62802 0.417261 0
M  V30 30550 H 2913.92 1.79753 0.36894 0
M  V30 30551 H 2912.3 2.80563 2.79465 0
M  V30 30552 H 2913.48 4.57517 0.549058 0
M  V30 30553 H 2911.79 4.1125 0.652863 0
M  V30 30554 H 2914.39 4.09843 3.43414 0
M  V30 30555 H 2914.73 2.38607 3.41134 0
M  V30 30556 H 2915.26 3.40697 2.05354 0
M  V30 30557 H 2912 6.36487 1.56729 0
M  V30 30558 H 2911.52 5.26248 2.87789 0
M  V30 30559 H 2913.2 5.84701 2.77009 0
M  V30 30560 N 2913.34 -0.627313 1.44577 0
M  V30 30561 C 2914.28 -1.76028 1.52042 0
M  V30 30562 C 2915.28 -1.64806 0.391825 0
M  V30 30563 O 2916.48 -1.70839 0.56693 0
M  V30 30564 H 2912.86 -0.581212 0.477176 0
M  V30 30565 H 2914.83 -1.66855 2.4739 0
M  V30 30566 C 2913.58 -3.14372 1.48544 0
M  V30 30567 H 2912.9 -3.23657 2.34704 0
M  V30 30568 H 2914.34 -3.93531 1.57828 0
M  V30 30569 C 2912.8 -3.36265 0.206779 0
M  V30 30570 O 2913.33 -3.95168 -0.721471 0
M  V30 30571 N 2911.54 -2.90397 0.108705 0
M  V30 30572 H 2911.08 -2.42645 0.864927 0
M  V30 30573 H 2911.04 -3.0542 -0.746068 0
M  V30 30574 N 2914.81 -1.31539 -0.868063 0
M  V30 30575 C 2915.75 -1.1517 -1.98163 0
M  V30 30576 C 2916.76 -0.0902621 -1.6255 0
M  V30 30577 O 2917.95 -0.33794 -1.75272 0
M  V30 30578 C 2915.05 -0.737834 -3.30771 0
M  V30 30579 C 2914.22 -1.88469 -3.94713 0
M  V30 30580 C 2913.28 -1.45657 -5.05639 0
M  V30 30581 O 2912.31 -2.16652 -5.26356 0
M  V30 30582 N 2913.51 -0.345032 -5.79474 0
M  V30 30583 H 2916.27 -2.11086 -2.1275 0
M  V30 30584 H 2913.83 -1.23898 -1.04215 0
M  V30 30585 H 2915.83 -0.434102 -4.02365 0
M  V30 30586 H 2914.4 0.129779 -3.1233 0
M  V30 30587 H 2913.62 -2.35564 -3.16075 0
M  V30 30588 H 2914.9 -2.6528 -4.3417 0
M  V30 30589 H 2914.3 0.24616 -5.65164 0
M  V30 30590 H 2912.86 -0.100843 -6.51722 0
M  V30 30591 N 2916.29 1.08262 -1.1453 0
M  V30 30592 C 2917.25 2.13396 -0.836357 0
M  V30 30593 C 2918.25 1.60005 0.159687 0
M  V30 30594 O 2919.44 1.74064 -0.0688404 0
M  V30 30595 C 2916.58 3.40004 -0.247032 0
M  V30 30596 H 2917.77 2.42234 -1.76813 0
M  V30 30597 H 2915.32 1.23998 -0.951531 0
M  V30 30598 H 2916.06 3.16801 0.69338 0
M  V30 30599 H 2915.84 3.80053 -0.964479 0
M  V30 30600 H 2917.33 4.17572 -0.0481413 0
M  V30 30601 N 2917.77 0.940655 1.26449 0
M  V30 30602 C 2919 0.604677 1.97867 0
M  V30 30603 C 2919.41 -0.820221 1.70052 0
M  V30 30604 O 2918.77 -1.54684 0.968457 0
M  V30 30605 C 2918.82 0.836751 3.51683 0
M  V30 30606 O 2918.54 2.20561 3.7853 0
M  V30 30607 C 2920.04 0.511247 4.40342 0
M  V30 30608 H 2917.26 0.22793 0.631101 0
M  V30 30609 H 2919.81 1.26122 1.60977 0
M  V30 30610 H 2917.96 0.226827 3.86735 0
M  V30 30611 H 2918.38 2.26525 4.73061 0
M  V30 30612 H 2919.85 0.724253 5.47228 0
M  V30 30613 H 2920.33 -0.553739 4.35695 0
M  V30 30614 H 2920.93 1.09988 4.10832 0
M  V30 30615 N 2919.25 -1.40821 0.707617 0
M  V30 30616 C 2920.48 -2.05346 0.253109 0
M  V30 30617 C 2920.89 -1.53291 -1.10215 0
M  V30 30618 O 2920.25 -0.686135 -1.69111 0
M  V30 30619 C 2920.3 -3.60857 0.215474 0
M  V30 30620 O 2920.02 -4.10989 1.51721 0
M  V30 30621 C 2921.52 -4.42545 -0.258559 0
M  V30 30622 H 2918.74 -0.661025 0.115268 0
M  V30 30623 H 2921.28 -1.80375 0.963586 0
M  V30 30624 H 2919.44 -3.84825 -0.44591 0
M  V30 30625 H 2919.85 -5.05127 1.41235 0
M  V30 30626 H 2921.33 -5.51505 -0.233752 0
M  V30 30627 H 2921.8 -4.19537 -1.29943 0
M  V30 30628 H 2922.41 -4.23668 0.37226 0
M  V30 30629 N 2920.73 -0.453223 -1.50943 0
M  V30 30630 C 2921.67 0.350157 -2.28128 0
M  V30 30631 C 2922.64 1.00297 -1.324 0
M  V30 30632 O 2923.83 1.01884 -1.61321 0
M  V30 30633 C 2920.97 1.43643 -3.13784 0
M  V30 30634 C 2920.08 0.80018 -4.24525 0
M  V30 30635 C 2919.22 1.86284 -4.97465 0
M  V30 30636 C 2918.25 1.20587 -6.00104 0
M  V30 30637 N 2917.39 2.21059 -6.66391 0
M  V30 30638 H 2922.23 -0.314392 -2.96337 0
M  V30 30639 H 2919.77 -0.166889 -1.4615 0
M  V30 30640 H 2921.73 2.0777 -3.61784 0
M  V30 30641 H 2920.36 2.07039 -2.47658 0
M  V30 30642 H 2919.41 0.0467982 -3.80371 0
M  V30 30643 H 2920.72 0.280689 -4.9801 0
M  V30 30644 H 2919.87 2.58035 -5.49093 0
M  V30 30645 H 2918.61 2.4161 -4.23646 0
M  V30 30646 H 2917.62 0.473903 -5.47754 0
M  V30 30647 H 2918.84 0.65974 -6.75888 0
M  V30 30648 H 2916.79 2.75435 -5.95375 0
M  V30 30649 H 2916.71 1.74046 -7.35693 0
M  V30 30650 H 2917.97 2.92245 -7.22643 0
M  V30 30651 N 2922.2 1.56509 -0.185151 0
M  V30 30652 C 2923.43 2.01674 0.462104 0
M  V30 30653 C 2923.85 1.06534 1.55871 0
M  V30 30654 O 2923.2 0.0685126 1.82371 0
M  V30 30655 C 2923.25 3.46586 1.02764 0
M  V30 30656 O 2922.98 4.38093 -0.0252066 0
M  V30 30657 C 2924.48 4.0722 1.75176 0
M  V30 30658 H 2921.7 0.660723 0.116989 0
M  V30 30659 H 2924.24 2.0242 -0.290941 0
M  V30 30660 H 2922.4 3.46571 1.73111 0
M  V30 30661 H 2922.81 5.23016 0.394295 0
M  V30 30662 H 2924.28 5.10498 2.0999 0
M  V30 30663 H 2924.76 3.50106 2.65184 0
M  V30 30664 H 2925.37 4.10979 1.09438 0
M  V30 30665 N 2923.68 -0.0885089 1.57351 0
M  V30 30666 C 2924.91 -0.804163 1.90633 0
M  V30 30667 C 2925.32 -1.71957 0.779504 0
M  V30 30668 O 2924.68 -1.80805 -0.248147 0
M  V30 30669 C 2924.73 -1.61196 3.23571 0
M  V30 30670 O 2924.45 -0.733371 4.31918 0
M  V30 30671 C 2925.95 -2.43009 3.70758 0
M  V30 30672 H 2923.17 -0.229574 0.630505 0
M  V30 30673 H 2925.72 -0.0637733 2.04401 0
M  V30 30674 H 2923.87 -2.30479 3.11381 0
M  V30 30675 H 2924.29 -1.29352 5.083 0
M  V30 30676 H 2925.76 -2.95172 4.66452 0
M  V30 30677 H 2926.24 -3.21775 2.98928 0
M  V30 30678 H 2926.84 -1.78913 3.85837 0
M  V30 30679 N 2925.16 -1.53445 -0.359498 0
M  V30 30680 C 2926.41 -1.69922 -1.10149 0
M  V30 30681 C 2926.73 -0.454133 -1.89124 0
M  V30 30682 O 2925.99 0.56399 -1.87397 0
M  V30 30683 C 2926.29 -2.90436 -2.08282 0
M  V30 30684 C 2925.95 -4.26697 -1.45741 0
M  V30 30685 C 2924.62 -4.63749 -1.28413 0
M  V30 30686 C 2926.97 -5.11409 -1.00548 0
M  V30 30687 C 2924.3 -5.83145 -0.644849 0
M  V30 30688 C 2926.65 -6.31457 -0.380177 0
M  V30 30689 C 2925.31 -6.67217 -0.19444 0
M  V30 30690 H 2924.58 -0.621788 -0.403065 0
M  V30 30691 H 2927.23 -1.87639 -0.382579 0
M  V30 30692 H 2925.53 -2.67256 -2.86499 0
M  V30 30693 H 2927.23 -3.00379 -2.65657 0
M  V30 30694 H 2923.82 -3.97526 -1.60223 0
M  V30 30695 H 2928.01 -4.83328 -1.12727 0
M  V30 30696 H 2923.26 -6.09438 -0.489413 0
M  V30 30697 H 2927.44 -6.96397 -0.0218231 0
M  V30 30698 H 2925.06 -7.59596 0.302983 0
M  V30 30699 N 2926.64 0.619637 -1.44908 0
M  V30 30700 C 2927.58 1.73102 -1.52657 0
M  V30 30701 C 2928.55 1.61849 -0.373362 0
M  V30 30702 O 2929.74 1.81605 -0.585174 0
M  V30 30703 C 2926.88 3.11384 -1.48775 0
M  V30 30704 C 2925.99 3.3353 -2.74557 0
M  V30 30705 C 2925.13 4.61849 -2.62429 0
M  V30 30706 C 2924.17 4.77213 -3.83321 0
M  V30 30707 N 2923.3 5.96819 -3.69799 0
M  V30 30708 H 2928.14 1.65815 -2.47607 0
M  V30 30709 H 2925.68 0.808698 -1.22876 0
M  V30 30710 H 2927.64 3.91372 -1.44513 0
M  V30 30711 H 2926.27 3.17659 -0.573839 0
M  V30 30712 H 2925.32 2.47402 -2.88957 0
M  V30 30713 H 2926.63 3.40759 -3.64259 0
M  V30 30714 H 2925.79 5.50014 -2.56065 0
M  V30 30715 H 2924.53 4.56998 -1.70306 0
M  V30 30716 H 2923.53 3.87474 -3.90056 0
M  V30 30717 H 2924.76 4.8387 -4.76495 0
M  V30 30718 H 2922.7 5.93036 -2.80436 0
M  V30 30719 H 2922.62 6.05155 -4.53127 0
M  V30 30720 H 2923.89 6.87515 -3.67347 0
M  V30 30721 N 2928.12 1.31997 0.861075 0
M  V30 30722 C 2929.53 1.19957 1.43063 0
M  V30 30723 C 2929.88 -0.190455 1.95273 0
M  V30 30724 O 2929 -1.08879 1.87014 0
M  V30 30725 C 2929.6 2.17164 2.60048 0
M  V30 30726 C 2928.16 2.09031 3.13022 0
M  V30 30727 C 2927.3 2.05892 1.85752 0
M  V30 30728 H 2930.26 1.43919 0.668809 0
M  V30 30729 H 2930.28 1.76643 3.37013 0
M  V30 30730 H 2929.79 3.18323 2.22018 0
M  V30 30731 H 2927.89 1.11098 3.55651 0
M  V30 30732 H 2928 2.98555 3.74702 0
M  V30 30733 H 2926.37 1.51036 2.05086 0
M  V30 30734 H 2927.15 3.08821 1.49948 0
M  V30 30735 N 2929.59 -1.07653 1.15103 0
M  V30 30736 C 2930.54 -2.16874 0.840752 0
M  V30 30737 C 2931.54 -1.68392 -0.184564 0
M  V30 30738 O 2932.74 -1.79956 -0.0398998 0
M  V30 30739 H 2929.12 -0.707732 0.254205 0
M  V30 30740 H 2931.09 -2.40263 1.76964 0
M  V30 30741 C 2929.84 -3.46003 0.343078 0
M  V30 30742 H 2929.16 -3.83692 1.12342 0
M  V30 30743 H 2930.6 -4.2368 0.164605 0
M  V30 30744 C 2929.06 -3.23671 -0.934825 0
M  V30 30745 O 2929.59 -3.47969 -2.007 0
M  V30 30746 N 2927.8 -2.77173 -0.873119 0
M  V30 30747 H 2927.34 -2.576 -0.000433793 0
M  V30 30748 H 2927.3 -2.6261 -1.72869 0
M  V30 30749 N 2931.07 -0.947348 -1.25949 0
M  V30 30750 C 2932.3 -0.615162 -1.97543 0
M  V30 30751 C 2932.72 0.811191 -1.70485 0
M  V30 30752 O 2932.07 1.54168 -0.976647 0
M  V30 30753 C 2932.12 -0.85539 -3.51234 0
M  V30 30754 O 2931.84 -2.22565 -3.77355 0
M  V30 30755 C 2933.35 -0.534592 -4.40065 0
M  V30 30756 H 2930.57 -0.231274 -0.629884 0
M  V30 30757 H 2933.11 -1.26974 -1.60306 0
M  V30 30758 H 2931.26 -0.247334 -3.8661 0
M  V30 30759 H 2931.68 -2.29031 -4.71853 0
M  V30 30760 H 2933.15 -0.753264 -5.46836 0
M  V30 30761 H 2933.63 0.530625 -4.35983 0
M  V30 30762 H 2934.24 -1.12165 -4.10243 0
M  V30 30763 N 2932.55 1.40444 -0.715075 0
M  V30 30764 C 2933.8 2.01685 -0.263563 0
M  V30 30765 C 2934.15 1.55685 1.13049 0
M  V30 30766 O 2933.44 0.766793 1.75587 0
M  V30 30767 C 2933.64 3.56287 -0.281854 0
M  V30 30768 C 2933.47 4.17295 -1.67615 0
M  V30 30769 C 2932.24 4.50751 -2.28368 0
M  V30 30770 C 2934.44 4.42188 -2.62629 0
M  V30 30771 N 2932.42 4.97151 -3.60158 0
M  V30 30772 C 2933.79 4.90576 -3.79125 0
M  V30 30773 C 2935.84 4.24226 -2.60647 0
M  V30 30774 C 2934.55 5.22886 -4.93946 0
M  V30 30775 C 2936.57 4.57638 -3.74595 0
M  V30 30776 C 2935.93 5.06214 -4.89824 0
M  V30 30777 H 2932.03 0.76895 -0.142266 0
M  V30 30778 H 2934.62 1.70684 -0.936762 0
M  V30 30779 H 2932.79 3.8672 0.360907 0
M  V30 30780 H 2934.52 4.04271 0.186322 0
M  V30 30781 H 2931.28 4.37867 -1.80471 0
M  V30 30782 H 2931.7 5.24734 -4.27766 0
M  V30 30783 H 2936.34 3.85891 -1.72766 0
M  V30 30784 H 2934.06 5.60136 -5.82472 0
M  V30 30785 H 2937.65 4.45381 -3.74336 0
M  V30 30786 H 2936.53 5.3158 -5.76535 0
M  V30 30787 N 2934.03 0.461222 1.507 0
M  V30 30788 C 2935.27 -0.0960314 2.04174 0
M  V30 30789 C 2935.63 -1.37866 1.3363 0
M  V30 30790 O 2936.83 -2.01767 1.77605 0
M  V30 30791 C 2935.1 -0.285613 3.56257 0
M  V30 30792 S 2936.66 -0.802841 4.31393 0
M  V30 30793 H 2933.48 -0.0206157 0.710701 0
M  V30 30794 H 2936.08 0.626102 1.85203 0
M  V30 30795 H 2934.79 0.653844 4.05158 0
M  V30 30796 H 2934.32 -1.03415 3.79564 0
M  V30 30797 H 2936.33 -2.07753 4.50614 0
M  V30 30798 N 2935.51 -1.56408 0.193449 0
M  V30 30799 C 2936.44 -2.22015 -0.723295 0
M  V30 30800 C 2937.42 -1.18272 -1.22252 0
M  V30 30801 O 2938.6 -1.46774 -1.27166 0
M  V30 30802 C 2935.73 -2.87822 -1.94361 0
M  V30 30803 C 2934.69 -3.97794 -1.57936 0
M  V30 30804 C 2934.01 -4.50757 -2.87615 0
M  V30 30805 C 2935.31 -5.16282 -0.790549 0
M  V30 30806 H 2937.01 -2.9888 -0.176373 0
M  V30 30807 H 2934.55 -1.43758 -0.0833914 0
M  V30 30808 H 2936.51 -3.324 -2.59014 0
M  V30 30809 H 2935.23 -2.08359 -2.51503 0
M  V30 30810 H 2933.89 -3.53904 -0.956419 0
M  V30 30811 H 2933.54 -3.68059 -3.42843 0
M  V30 30812 H 2933.24 -5.24961 -2.63988 0
M  V30 30813 H 2934.76 -4.98036 -3.53259 0
M  V30 30814 H 2936.17 -5.57416 -1.34015 0
M  V30 30815 H 2934.57 -5.96542 -0.652475 0
M  V30 30816 H 2935.64 -4.84451 0.208718 0
M  V30 30817 N 2936.98 0.0801629 -1.57396 0
M  V30 30818 C 2938.4 0.434751 -1.53565 0
M  V30 30819 C 2938.6 1.79659 -0.912403 0
M  V30 30820 O 2937.66 2.47269 -0.511311 0
M  V30 30821 C 2938.97 0.383508 -2.98244 0
M  V30 30822 C 2940.52 0.464296 -3.09537 0
M  V30 30823 C 2940.99 0.443047 -4.55852 0
M  V30 30824 N 2942.48 0.503367 -4.60457 0
M  V30 30825 C 2943.22 0.509006 -5.71136 0
M  V30 30826 N 2942.71 0.469958 -6.91204 0
M  V30 30827 N 2944.51 0.554937 -5.59354 0
M  V30 30828 H 2936.66 -0.81167 -1.9628 0
M  V30 30829 H 2938.92 -0.303705 -0.898035 0
M  V30 30830 H 2938.63 -0.550297 -3.47368 0
M  V30 30831 H 2938.5 1.19688 -3.57708 0
M  V30 30832 H 2940.89 1.38852 -2.60392 0
M  V30 30833 H 2940.97 -0.37749 -2.52999 0
M  V30 30834 H 2940.61 -0.477296 -5.05652 0
M  V30 30835 H 2940.54 1.30225 -5.10244 0
M  V30 30836 H 2943.03 0.538134 -3.74049 0
M  V30 30837 H 2943.35 0.477956 -7.71321 0
M  V30 30838 H 2941.69 0.436775 -6.93626 0
M  V30 30839 H 2944.88 0.583077 -4.64454 0
M  V30 30840 H 2945.06 0.555862 -6.45611 0
M  V30 30841 N 2938.46 1.53634 0.351355 0
M  V30 30842 C 2939.7 1.72213 1.10099 0
M  V30 30843 C 2940.07 0.471231 1.86127 0
M  V30 30844 O 2941.27 0.533933 2.63444 0
M  V30 30845 C 2939.54 2.94605 2.02343 0
M  V30 30846 S 2941.1 3.33959 2.84635 0
M  V30 30847 H 2937.92 0.605836 0.372134 0
M  V30 30848 H 2940.52 1.91763 0.380406 0
M  V30 30849 H 2939.22 3.83827 1.45276 0
M  V30 30850 H 2938.75 2.77498 2.78852 0
M  V30 30851 H 2940.77 2.87083 4.04719 0
M  V30 30852 N 2939.94 -0.611943 1.45234 0
M  V30 30853 C 2940.87 -1.73371 1.56413 0
M  V30 30854 C 2941.85 -1.64937 0.415925 0
M  V30 30855 O 2943.04 -1.83403 0.63851 0
M  V30 30856 C 2940.17 -3.11963 1.52632 0
M  V30 30857 C 2939.12 -3.35204 2.66125 0
M  V30 30858 C 2938.45 -4.74024 2.47398 0
M  V30 30859 C 2939.75 -3.25884 4.08163 0
M  V30 30860 H 2941.44 -1.64272 2.5031 0
M  V30 30861 H 2938.99 -0.788882 1.20468 0
M  V30 30862 H 2940.94 -3.90232 1.5905 0
M  V30 30863 H 2939.66 -3.21891 0.552621 0
M  V30 30864 H 2938.32 -2.59323 2.59128 0
M  V30 30865 H 2937.97 -4.80679 1.48177 0
M  V30 30866 H 2937.67 -4.9053 3.23503 0
M  V30 30867 H 2939.19 -5.54499 2.55663 0
M  V30 30868 H 2940.61 -3.94033 4.16427 0
M  V30 30869 H 2939.01 -3.53921 4.84623 0
M  V30 30870 H 2940.08 -2.23389 4.30378 0
M  V30 30871 N 2941.42 -1.32452 -0.854063 0
M  V30 30872 C 2942.66 -1.24238 -1.61048 0
M  V30 30873 C 2943.02 0.193843 -1.91421 0
M  V30 30874 O 2942.31 1.13177 -1.54601 0
M  V30 30875 C 2942.51 -2.03592 -2.93743 0
M  V30 30876 C 2942.34 -3.54785 -2.76329 0
M  V30 30877 C 2941.11 -4.24121 -2.7468 0
M  V30 30878 C 2943.3 -4.49424 -2.50045 0
M  V30 30879 N 2941.29 -5.61364 -2.48483 0
M  V30 30880 C 2942.66 -5.74448 -2.33259 0
M  V30 30881 C 2944.71 -4.38675 -2.35518 0
M  V30 30882 C 2943.41 -6.89936 -2.03422 0
M  V30 30883 C 2945.44 -5.53963 -2.07071 0
M  V30 30884 C 2944.8 -6.77986 -1.91086 0
M  V30 30885 H 2940.9 -0.509781 -0.592999 0
M  V30 30886 H 2943.49 -1.66824 -1.00389 0
M  V30 30887 H 2941.66 -1.63351 -3.52379 0
M  V30 30888 H 2943.39 -1.87269 -3.58765 0
M  V30 30889 H 2940.14 -3.76245 -2.8764 0
M  V30 30890 H 2940.57 -6.33669 -2.38311 0
M  V30 30891 H 2945.21 -3.43439 -2.46596 0
M  V30 30892 H 2942.93 -7.85184 -1.91081 0
M  V30 30893 H 2946.51 -5.47573 -1.96608 0
M  V30 30894 H 2945.39 -7.65687 -1.69389 0
M  V30 30895 N 2942.9 1.07041 -1.15672 0
M  V30 30896 C 2944.12 1.8395 -0.957978 0
M  V30 30897 C 2944.55 1.81639 0.488775 0
M  V30 30898 O 2943.91 1.21164 1.34866 0
M  V30 30899 C 2943.95 3.28797 -1.4807 0
M  V30 30900 O 2943.06 4.06722 -0.681993 0
M  V30 30901 H 2942.4 0.569473 -0.341463 0
M  V30 30902 H 2944.93 1.35012 -1.5373 0
M  V30 30903 H 2944.94 3.79627 -1.4949 0
M  V30 30904 H 2943.61 3.29794 -2.53394 0
M  V30 30905 H 2942.19 3.65531 -0.737676 0
M  V30 30906 N 2944.38 0.954014 1.25445 0
M  V30 30907 C 2945.6 0.625629 1.97214 0
M  V30 30908 C 2946.02 -0.802138 1.70913 0
M  V30 30909 O 2945.38 -1.53648 0.984809 0
M  V30 30910 C 2945.43 0.874004 3.50775 0
M  V30 30911 O 2945.15 2.24563 3.76169 0
M  V30 30912 C 2946.65 0.557922 4.39775 0
M  V30 30913 H 2943.87 0.234611 0.628648 0
M  V30 30914 H 2946.41 1.27822 1.5963 0
M  V30 30915 H 2944.57 0.267833 3.86473 0
M  V30 30916 H 2944.98 2.3153 4.70632 0
M  V30 30917 H 2946.46 0.782253 5.46429 0
M  V30 30918 H 2946.93 -0.507496 4.36258 0
M  V30 30919 H 2947.54 1.14339 4.09642 0
M  V30 30920 N 2945.85 -1.40063 0.722513 0
M  V30 30921 C 2946.8 -2.3068 0.0744144 0
M  V30 30922 C 2947.77 -1.48557 -0.742978 0
M  V30 30923 O 2948.96 -1.77277 -0.705505 0
M  V30 30924 C 2946.1 -3.34815 -0.836233 0
M  V30 30925 C 2945.21 -4.31999 -0.00757069 0
M  V30 30926 C 2944.34 -5.23202 -0.918336 0
M  V30 30927 C 2943.38 -6.12042 -0.0841763 0
M  V30 30928 N 2942.52 -6.95641 -0.950193 0
M  V30 30929 H 2947.36 -2.85536 0.852844 0
M  V30 30930 H 2944.9 -1.40606 0.432247 0
M  V30 30931 H 2946.85 -3.93767 -1.37853 0
M  V30 30932 H 2945.48 -2.81445 -1.58077 0
M  V30 30933 H 2944.54 -3.74771 0.651994 0
M  V30 30934 H 2945.85 -4.94704 0.637947 0
M  V30 30935 H 2945 -5.87119 -1.52892 0
M  V30 30936 H 2943.74 -4.60789 -1.59766 0
M  V30 30937 H 2942.75 -5.47149 0.539296 0
M  V30 30938 H 2943.97 -6.76517 0.591747 0
M  V30 30939 H 2941.92 -6.35809 -1.61504 0
M  V30 30940 H 2941.83 -7.55138 -0.360872 0
M  V30 30941 H 2943.1 -7.64 -1.54674 0
M  V30 30942 N 2947.33 -0.469207 -1.50453 0
M  V30 30943 C 2948.74 -0.0136362 -1.86695 0
M  V30 30944 C 2949.09 1.39053 -1.38415 0
M  V30 30945 O 2948.22 2.03049 -0.748329 0
M  V30 30946 C 2948.81 -0.0179694 -3.38795 0
M  V30 30947 C 2947.37 0.382125 -3.74455 0
M  V30 30948 C 2946.52 -0.404255 -2.74338 0
M  V30 30949 H 2949.47 -0.683572 -1.43224 0
M  V30 30950 H 2949.49 0.784614 -3.72323 0
M  V30 30951 H 2949 -1.04006 -3.73904 0
M  V30 30952 H 2947.1 1.40864 -3.44947 0
M  V30 30953 H 2947.22 0.0847778 -4.79025 0
M  V30 30954 H 2945.58 0.141785 -2.54305 0
M  V30 30955 H 2946.36 -1.42582 -3.1229 0
M  V30 30956 N 2948.81 1.56303 -0.201741 0
M  V30 30957 C 2950.06 1.9806 0.435917 0
M  V30 30958 C 2950.39 1.08876 1.60809 0
M  V30 30959 O 2949.66 0.142163 1.9398 0
M  V30 30960 C 2949.95 3.48937 0.889645 0
M  V30 30961 C 2949.8 4.48897 -0.284803 0
M  V30 30962 C 2951.12 4.03688 1.75283 0
M  V30 30963 H 2948.24 0.720088 0.156978 0
M  V30 30964 H 2950.88 1.87712 -0.293998 0
M  V30 30965 H 2949.03 3.57887 1.5116 0
M  V30 30966 H 2950.7 4.5198 -0.92261 0
M  V30 30967 H 2948.94 4.23593 -0.935501 0
M  V30 30968 H 2949.62 5.51949 0.0752895 0
M  V30 30969 H 2952.09 3.9756 1.22823 0
M  V30 30970 H 2950.97 5.09614 2.03924 0
M  V30 30971 H 2951.23 3.49353 2.70933 0
M  V30 30972 N 2950.29 -0.0718147 1.57436 0
M  V30 30973 C 2951.56 -0.803974 1.78313 0
M  V30 30974 C 2951.94 -1.95789 0.789308 0
M  V30 30975 O 2951.29 -2.27809 -0.177564 0
M  V30 30976 C 2951.5 -1.27694 3.248 0
M  V30 30977 C 2952.85 -1.71033 3.8863 0
M  V30 30978 O 2953.87 -1.3726 3.28691 0
M  V30 30979 O 2952.73 -2.33559 4.94078 0
M  V30 30980 H 2949.83 -0.38525 0.731787 0
M  V30 30981 H 2952.37 -0.0518921 1.69621 0
M  V30 30982 H 2951.15 -0.451272 3.88689 0
M  V30 30983 H 2950.77 -2.09034 3.38217 0
M  V30 30984 N 2951.77 -1.53818 -0.343203 0
M  V30 30985 C 2952.99 -1.75019 -1.10345 0
M  V30 30986 C 2953.41 -0.489507 -1.82344 0
M  V30 30987 O 2952.77 0.538855 -1.74363 0
M  V30 30988 C 2952.82 -2.93052 -2.11667 0
M  V30 30989 O 2952.54 -4.14244 -1.42596 0
M  V30 30990 C 2954.04 -3.26307 -3.00065 0
M  V30 30991 H 2951.26 -0.584782 -0.329046 0
M  V30 30992 H 2953.8 -2.00643 -0.395304 0
M  V30 30993 H 2951.96 -2.69758 -2.78046 0
M  V30 30994 H 2952.37 -4.805 -2.10286 0
M  V30 30995 H 2953.85 -4.12245 -3.67094 0
M  V30 30996 H 2954.32 -2.42625 -3.66101 0
M  V30 30997 H 2954.93 -3.51608 -2.39274 0
M  V30 30998 N 2953.24 0.604233 -1.45557 0
M  V30 30999 C 2954.47 1.3946 -1.53512 0
M  V30 31000 C 2954.89 1.87333 -0.169671 0
M  V30 31001 O 2954.25 1.60335 0.846317 0
M  V30 31002 C 2954.3 2.57286 -2.52659 0
M  V30 31003 O 2953.4 3.58027 -2.04672 0
M  V30 31004 H 2952.74 0.416211 -0.517363 0
M  V30 31005 H 2955.27 0.735038 -1.90941 0
M  V30 31006 H 2955.28 3.04486 -2.71573 0
M  V30 31007 H 2953.96 2.2179 -3.51826 0
M  V30 31008 H 2952.54 3.17452 -1.95649 0
M  V30 31009 N 2954.72 1.32903 0.847027 0
M  V30 31010 C 2955.67 1.22445 1.97763 0
M  V30 31011 C 2956.66 0.127576 1.68919 0
M  V30 31012 O 2957.87 0.291004 1.77632 0
M  V30 31013 H 2954.24 0.37976 0.649066 0
M  V30 31014 H 2956.22 2.18048 2.0371 0
M  V30 31015 C 2954.96 0.972184 3.33832 0
M  V30 31016 H 2954.29 1.80844 3.56561 0
M  V30 31017 H 2955.73 0.939282 4.13465 0
M  V30 31018 C 2954.19 -0.325 3.35329 0
M  V30 31019 O 2954.72 -1.33438 3.78889 0
M  V30 31020 N 2952.92 -0.349667 2.88489 0
M  V30 31021 H 2952.47 0.472281 2.53234 0
M  V30 31022 H 2952.43 -1.21743 2.89872 0
M  V30 31023 N 2956.2 -1.06426 1.16238 0
M  V30 31024 C 2957.42 -1.83439 0.96772 0
M  V30 31025 C 2957.85 -1.81895 -0.479135 0
M  V30 31026 O 2957.21 -1.21878 -1.34222 0
M  V30 31027 C 2957.26 -3.28007 1.49811 0
M  V30 31028 O 2956.36 -4.06354 0.703553 0
M  V30 31029 H 2955.7 -0.567654 0.344478 0
M  V30 31030 H 2958.23 -1.34195 1.54444 0
M  V30 31031 H 2958.24 -3.78829 1.51502 0
M  V30 31032 H 2956.92 -3.28446 2.55139 0
M  V30 31033 H 2955.49 -3.65134 0.757051 0
M  V30 31034 N 2957.68 -0.960653 -1.24937 0
M  V30 31035 C 2958.93 -0.618697 -1.92817 0
M  V30 31036 C 2959.25 0.845142 -1.75179 0
M  V30 31037 O 2958.51 1.62256 -1.09414 0
M  V30 31038 C 2958.81 -0.93087 -3.45065 0
M  V30 31039 C 2958.47 -2.38171 -3.82865 0
M  V30 31040 C 2957.14 -2.77827 -3.92894 0
M  V30 31041 C 2959.49 -3.32364 -4.01477 0
M  V30 31042 C 2956.82 -4.10731 -4.18948 0
M  V30 31043 C 2959.17 -4.64887 -4.29025 0
M  V30 31044 C 2957.83 -5.0433 -4.37273 0
M  V30 31045 H 2957.1 -0.226397 -0.705567 0
M  V30 31046 H 2959.75 -1.21082 -1.48362 0
M  V30 31047 H 2958.05 -0.256424 -3.9096 0
M  V30 31048 H 2959.75 -0.644782 -3.95782 0
M  V30 31049 H 2956.34 -2.06419 -3.75618 0
M  V30 31050 H 2960.52 -3.02914 -3.93137 0
M  V30 31051 H 2955.78 -4.40925 -4.2355 0
M  V30 31052 H 2959.95 -5.37848 -4.42372 0
M  V30 31053 H 2957.58 -6.07338 -4.57214 0
M  V30 31054 N 2959.16 1.39677 -0.729931 0
M  V30 31055 C 2960.07 2.34435 -0.0880735 0
M  V30 31056 C 2961.08 1.58055 0.727647 0
M  V30 31057 O 2962.26 1.90373 0.657287 0
M  V30 31058 C 2959.32 3.37053 0.812152 0
M  V30 31059 C 2958.38 4.29297 -0.0152435 0
M  V30 31060 C 2957.62 5.27014 0.842109 0
M  V30 31061 O 2957.84 5.31085 2.08098 0
M  V30 31062 O 2956.77 6.01278 0.273465 0
M  V30 31063 H 2960.6 2.90971 -0.87004 0
M  V30 31064 H 2958.19 1.41117 -0.490547 0
M  V30 31065 H 2960.07 3.99948 1.32738 0
M  V30 31066 H 2958.74 2.8291 1.57302 0
M  V30 31067 H 2957.65 3.69641 -0.575876 0
M  V30 31068 H 2958.98 4.86633 -0.738215 0
M  V30 31069 N 2960.63 0.47718 1.50202 0
M  V30 31070 C 2961.88 -0.0758151 2.02658 0
M  V30 31071 C 2962.21 -1.38822 1.35802 0
M  V30 31072 O 2961.49 -1.88337 0.485729 0
M  V30 31073 C 2961.77 -0.253275 3.59208 0
M  V30 31074 C 2961.62 1.08057 4.36628 0
M  V30 31075 C 2962.94 -1.00501 4.28471 0
M  V30 31076 H 2960.06 -0.0260791 0.736538 0
M  V30 31077 H 2962.7 0.623956 1.79462 0
M  V30 31078 H 2960.85 -0.849312 3.79103 0
M  V30 31079 H 2962.53 1.71366 4.28289 0
M  V30 31080 H 2960.77 1.67573 4.00127 0
M  V30 31081 H 2961.44 0.909978 5.44448 0
M  V30 31082 H 2963.92 -0.499745 4.13088 0
M  V30 31083 H 2962.79 -1.09799 5.37806 0
M  V30 31084 H 2963.05 -2.04307 3.9206 0
M  V30 31085 N 2962.11 -1.56194 0.210027 0
M  V30 31086 C 2963.04 -2.2277 -0.699707 0
M  V30 31087 C 2964.02 -1.19562 -1.20991 0
M  V30 31088 O 2965.21 -1.48114 -1.25602 0
M  V30 31089 C 2962.34 -2.89867 -1.91297 0
M  V30 31090 C 2961.29 -3.99447 -1.53708 0
M  V30 31091 C 2960.62 -4.53782 -2.82818 0
M  V30 31092 C 2961.92 -5.17092 -0.735746 0
M  V30 31093 H 2963.61 -2.9905 -0.144663 0
M  V30 31094 H 2961.16 -1.43839 -0.0681392 0
M  V30 31095 H 2963.11 -3.35129 -2.55474 0
M  V30 31096 H 2961.84 -2.11015 -2.49279 0
M  V30 31097 H 2960.49 -3.54899 -0.918829 0
M  V30 31098 H 2960.14 -3.71675 -3.3892 0
M  V30 31099 H 2959.84 -5.27731 -2.58406 0
M  V30 31100 H 2961.37 -5.01755 -3.47957 0
M  V30 31101 H 2962.78 -5.58806 -1.28095 0
M  V30 31102 H 2961.18 -5.97201 -0.589167 0
M  V30 31103 H 2962.25 -4.84202 0.260089 0
M  V30 31104 N 2963.59 0.0634645 -1.57472 0
M  V30 31105 C 2964.55 1.05897 -2.0327 0
M  V30 31106 C 2965.55 1.31103 -0.931051 0
M  V30 31107 O 2966.74 1.26684 -1.19569 0
M  V30 31108 C 2963.88 2.40058 -2.42043 0
M  V30 31109 H 2965.07 0.664067 -2.92455 0
M  V30 31110 H 2962.62 0.309418 -1.53207 0
M  V30 31111 H 2963.36 2.84364 -1.55909 0
M  V30 31112 H 2963.14 2.23102 -3.22441 0
M  V30 31113 H 2964.63 3.11598 -2.78023 0
M  V30 31114 N 2965.07 1.53998 0.33504 0
M  V30 31115 C 2966.31 1.71907 1.07591 0
M  V30 31116 C 2966.65 0.485297 1.88039 0
M  V30 31117 O 2965.92 -0.51772 1.87483 0
M  V30 31118 C 2966.21 2.98775 2.01011 0
M  V30 31119 C 2966.06 4.32379 1.23969 0
M  V30 31120 C 2967.38 3.21348 3.00705 0
M  V30 31121 H 2964.5 0.625511 0.389749 0
M  V30 31122 H 2967.14 1.8668 0.353651 0
M  V30 31123 H 2965.29 2.86312 2.62598 0
M  V30 31124 H 2966.96 4.56708 0.649303 0
M  V30 31125 H 2965.2 4.30403 0.541803 0
M  V30 31126 H 2965.87 5.17346 1.92503 0
M  V30 31127 H 2968.35 3.33199 2.49235 0
M  V30 31128 H 2967.23 4.11497 3.63265 0
M  V30 31129 H 2967.49 2.3804 3.72545 0
M  V30 31130 N 2966.55 -0.596505 1.45875 0
M  V30 31131 C 2967.46 -1.73461 1.5795 0
M  V30 31132 C 2968.47 -1.67713 0.46349 0
M  V30 31133 O 2969.65 -1.8787 0.725718 0
M  V30 31134 C 2966.71 -3.09946 1.55353 0
M  V30 31135 C 2965.77 -3.27063 2.7808 0
M  V30 31136 C 2965.01 -4.57036 2.75597 0
M  V30 31137 O 2965.23 -5.40059 1.83554 0
M  V30 31138 O 2964.16 -4.77105 3.66953 0
M  V30 31139 H 2967.99 -1.66223 2.54172 0
M  V30 31140 H 2965.58 -0.761918 1.28511 0
M  V30 31141 H 2967.46 -3.91241 1.56552 0
M  V30 31142 H 2966.13 -3.17651 0.622867 0
M  V30 31143 H 2965.04 -2.45314 2.82439 0
M  V30 31144 H 2966.37 -3.24241 3.70309 0
M  V30 31145 N 2968.02 -1.3335 -0.839967 0
M  V30 31146 C 2969.3 -1.15345 -1.57971 0
M  V30 31147 C 2969.68 0.280595 -2.09227 0
M  V30 31148 O 2969.03 1.27947 -1.8932 0
M  V30 31149 C 2969.24 -2.19363 -2.71442 0
M  V30 31150 C 2970.59 -2.53462 -3.4065 0
M  V30 31151 O 2971.61 -2.18022 -2.81682 0
M  V30 31152 O 2970.47 -3.14274 -4.47095 0
M  V30 31153 H 2967.56 -0.446056 -0.696393 0
M  V30 31154 H 2970.11 -1.44929 -0.882817 0
M  V30 31155 H 2968.88 -3.15694 -2.31199 0
M  V30 31156 H 2968.51 -1.90859 -3.48796 0
M  V30 31157 N 2969.5 1.05808 -1.16801 0
M  V30 31158 C 2970.73 1.82385 -0.976903 0
M  V30 31159 C 2971.15 1.8273 0.474885 0
M  V30 31160 O 2970.5 1.25004 1.32967 0
M  V30 31161 C 2970.55 3.28781 -1.50285 0
M  V30 31162 O 2970.27 3.28573 -2.89778 0
M  V30 31163 C 2971.78 4.22069 -1.35545 0
M  V30 31164 H 2969 0.574921 -0.345987 0
M  V30 31165 H 2971.54 1.33464 -1.54944 0
M  V30 31166 H 2969.69 3.74995 -0.97248 0
M  V30 31167 H 2970.11 4.20153 -3.13961 0
M  V30 31168 H 2971.58 5.22795 -1.77169 0
M  V30 31169 H 2972.06 4.38163 -0.301675 0
M  V30 31170 H 2972.67 3.81704 -1.87568 0
M  V30 31171 N 2970.98 0.967265 1.24426 0
M  V30 31172 C 2971.91 0.454896 2.2464 0
M  V30 31173 C 2972.93 -0.436125 1.5685 0
M  V30 31174 O 2974.11 -0.24237 1.76847 0
M  V30 31175 C 2971.21 -0.362613 3.36954 0
M  V30 31176 C 2970.39 0.5184 4.34317 0
M  V30 31177 C 2969.45 -0.24303 5.25638 0
M  V30 31178 O 2968.47 0.36289 5.68042 0
M  V30 31179 N 2969.67 -1.53272 5.599 0
M  V30 31180 H 2972.44 1.31652 2.69235 0
M  V30 31181 H 2970 0.839039 1.38462 0
M  V30 31182 H 2971.99 -0.880024 3.95016 0
M  V30 31183 H 2970.56 -1.12517 2.91648 0
M  V30 31184 H 2969.78 1.21679 3.7495 0
M  V30 31185 H 2971.07 1.11928 4.96336 0
M  V30 31186 H 2970.47 -2.04673 5.27376 0
M  V30 31187 H 2969.03 -1.99583 6.20492 0
M  V30 31188 N 2972.46 -1.39288 0.737328 0
M  V30 31189 C 2973.71 -2.0007 0.285727 0
M  V30 31190 C 2974.03 -1.58803 -1.13166 0
M  V30 31191 O 2973.3 -0.837339 -1.77103 0
M  V30 31192 H 2971.88 -0.739913 0.102651 0
M  V30 31193 H 2974.54 -1.70302 0.947805 0
M  V30 31194 H 2973.64 -3.10287 0.33596 0
M  V30 31195 N 2973.94 -0.485139 -1.49947 0
M  V30 31196 C 2974.87 0.347988 -2.25531 0
M  V30 31197 C 2975.85 0.984149 -1.29434 0
M  V30 31198 O 2977.03 1.01735 -1.58689 0
M  V30 31199 C 2974.16 1.48873 -3.04228 0
M  V30 31200 C 2973.21 0.968543 -4.15357 0
M  V30 31201 S 2974.04 -0.128028 -5.35347 0
M  V30 31202 C 2975.19 1.01626 -6.17595 0
M  V30 31203 H 2975.43 -0.293581 -2.95847 0
M  V30 31204 H 2972.96 -0.270207 -1.52017 0
M  V30 31205 H 2974.92 2.14244 -3.50157 0
M  V30 31206 H 2973.58 2.10186 -2.33411 0
M  V30 31207 H 2972.77 1.82296 -4.69877 0
M  V30 31208 H 2972.37 0.392312 -3.71937 0
M  V30 31209 H 2974.67 1.92492 -6.49579 0
M  V30 31210 H 2975.61 0.510025 -7.06261 0
M  V30 31211 H 2976.02 1.27643 -5.4988 0
M  V30 31212 N 2975.42 1.56081 -0.218307 0
M  V30 31213 C 2976.69 1.90039 0.463109 0
M  V30 31214 C 2977.07 1.13518 1.7798 0
M  V30 31215 O 2976.42 0.24349 2.27199 0
M  V30 31216 C 2976.63 3.42717 0.659232 0
M  V30 31217 C 2977.98 4.13416 0.96813 0
M  V30 31218 O 2979 3.48298 0.746133 0
M  V30 31219 O 2977.86 5.28547 1.38927 0
M  V30 31220 H 2974.96 0.790055 0.244422 0
M  V30 31221 H 2977.5 1.67693 -0.26025 0
M  V30 31222 H 2976.27 3.9037 -0.269653 0
M  V30 31223 H 2975.9 3.70832 1.4342 0
M  V30 31224 N 2976.89 -0.0551124 1.57504 0
M  V30 31225 C 2977.84 -1.08229 2.05886 0
M  V30 31226 C 2978.84 -1.3906 0.967407 0
M  V30 31227 O 2980.04 -1.3827 1.15244 0
M  V30 31228 H 2976.42 -0.366438 0.656679 0
M  V30 31229 H 2978.39 -0.648218 2.91274 0
M  V30 31230 C 2977.14 -2.38269 2.53226 0
M  V30 31231 H 2976.46 -2.154 3.36813 0
M  V30 31232 H 2977.9 -3.08549 2.90815 0
M  V30 31233 C 2976.36 -3.05408 1.42223 0
M  V30 31234 O 2976.89 -3.94178 0.773707 0
M  V30 31235 N 2975.09 -2.66304 1.16321 0
M  V30 31236 H 2974.64 -1.94204 1.69241 0
M  V30 31237 H 2974.6 -3.11547 0.422589 0
M  V30 31238 N 2978.37 -1.54173 -0.326869 0
M  V30 31239 C 2979.3 -1.8632 -1.40738 0
M  V30 31240 C 2980.28 -0.719711 -1.54124 0
M  V30 31241 O 2981.47 -0.973147 -1.68058 0
M  V30 31242 C 2978.6 -2.08762 -2.77553 0
M  V30 31243 C 2977.55 -3.24601 -2.78959 0
M  V30 31244 C 2976.88 -3.32408 -4.18819 0
M  V30 31245 C 2978.18 -4.62328 -2.43002 0
M  V30 31246 H 2979.87 -2.76813 -1.14083 0
M  V30 31247 H 2977.42 -1.33191 -0.547366 0
M  V30 31248 H 2979.37 -2.29835 -3.53205 0
M  V30 31249 H 2978.09 -1.15015 -3.05678 0
M  V30 31250 H 2976.75 -3.0341 -2.05762 0
M  V30 31251 H 2976.4 -2.36226 -4.44079 0
M  V30 31252 H 2976.1 -4.1026 -4.20666 0
M  V30 31253 H 2977.63 -3.55712 -4.96288 0
M  V30 31254 H 2979.04 -4.83304 -3.08367 0
M  V30 31255 H 2977.44 -5.42706 -2.56106 0
M  V30 31256 H 2978.51 -4.64802 -1.38157 0
M  V30 31257 N 2979.85 0.58876 -1.4619 0
M  V30 31258 C 2980.81 1.68026 -1.55884 0
M  V30 31259 C 2981.81 1.54761 -0.436542 0
M  V30 31260 O 2983 1.59488 -0.700654 0
M  V30 31261 C 2980.13 3.07416 -1.47337 0
M  V30 31262 H 2981.33 1.6079 -2.53153 0
M  V30 31263 H 2978.88 0.806092 -1.3391 0
M  V30 31264 H 2979.62 3.20213 -0.513249 0
M  V30 31265 H 2979.4 3.18452 -2.28759 0
M  V30 31266 H 2980.89 3.86885 -1.57194 0
M  V30 31267 N 2981.33 1.33794 0.832883 0
M  V30 31268 C 2982.57 1.26928 1.60215 0
M  V30 31269 C 2982.93 -0.161113 1.91323 0
M  V30 31270 O 2984.13 -0.353818 2.66461 0
M  V30 31271 C 2982.4 2.12573 2.87311 0
M  V30 31272 S 2983.96 2.22958 3.77935 0
M  V30 31273 H 2980.78 0.451474 0.549265 0
M  V30 31274 H 2983.38 1.68895 0.984618 0
M  V30 31275 H 2982.09 3.15522 2.62438 0
M  V30 31276 H 2981.62 1.71465 3.54067 0
M  V30 31277 H 2983.63 1.39505 4.76186 0
M  V30 31278 N 2982.81 -1.05187 1.1736 0
M  V30 31279 C 2983.72 -2.16441 0.905022 0
M  V30 31280 C 2984.73 -1.73537 -0.12683 0
M  V30 31281 O 2985.91 -2.01332 0.052448 0
M  V30 31282 C 2982.97 -3.44121 0.422079 0
M  V30 31283 C 2982.03 -4.0147 1.52053 0
M  V30 31284 C 2981.27 -5.23057 1.06053 0
M  V30 31285 O 2981.49 -5.70336 -0.085302 0
M  V30 31286 O 2980.42 -5.72648 1.85359 0
M  V30 31287 H 2984.25 -2.41946 1.83564 0
M  V30 31288 H 2981.83 -1.14934 0.95449 0
M  V30 31289 H 2983.72 -4.21095 0.160282 0
M  V30 31290 H 2982.39 -3.20116 -0.480387 0
M  V30 31291 H 2981.3 -3.25936 1.8362 0
M  V30 31292 H 2982.63 -4.29794 2.3987 0
M  V30 31293 N 2984.28 -0.97385 -1.23911 0
M  V30 31294 C 2985.51 -0.656546 -1.96734 0
M  V30 31295 C 2985.93 0.768541 -1.71683 0
M  V30 31296 O 2985.29 1.52254 -0.984294 0
M  V30 31297 C 2985.34 -0.944796 -3.48003 0
M  V30 31298 O 2984.44 -0.0334082 -4.12386 0
M  V30 31299 H 2983.78 -0.247586 -0.616114 0
M  V30 31300 H 2986.31 -1.30567 -1.57523 0
M  V30 31301 H 2986.32 -0.87883 -3.98423 0
M  V30 31302 H 2985 -1.98334 -3.65563 0
M  V30 31303 H 2983.58 -0.153222 -3.72585 0
M  V30 31304 N 2985.76 1.38895 -0.744705 0
M  V30 31305 C 2986.69 2.29089 -0.071401 0
M  V30 31306 C 2987.71 1.47304 0.693198 0
M  V30 31307 O 2988.9 1.7027 0.535755 0
M  V30 31308 C 2986 3.26088 0.923021 0
M  V30 31309 C 2985.17 4.36857 0.217922 0
M  V30 31310 C 2984.23 5.14103 1.12183 0
M  V30 31311 O 2983.25 5.66075 0.595672 0
M  V30 31312 N 2984.46 5.26232 2.45072 0
M  V30 31313 H 2987.22 2.87513 -0.845957 0
M  V30 31314 H 2984.78 1.5058 -0.594738 0
M  V30 31315 H 2986.77 3.74642 1.53054 0
M  V30 31316 H 2985.34 2.68626 1.59872 0
M  V30 31317 H 2984.56 3.90054 -0.570203 0
M  V30 31318 H 2985.85 5.08081 -0.270337 0
M  V30 31319 H 2985.25 4.85542 2.90285 0
M  V30 31320 H 2983.81 5.78191 3.00897 0
M  V30 31321 N 2987.24 0.493084 1.49688 0
M  V30 31322 C 2988.17 -0.326155 2.26868 0
M  V30 31323 C 2989.19 -0.937674 1.33085 0
M  V30 31324 O 2990.37 -0.822354 1.58429 0
M  V30 31325 C 2987.47 -1.47345 3.05193 0
M  V30 31326 C 2986.65 -0.970692 4.26493 0
M  V30 31327 C 2985.71 -1.99464 4.8693 0
M  V30 31328 O 2984.73 -1.56638 5.47223 0
M  V30 31329 N 2985.93 -3.32448 4.75877 0
M  V30 31330 H 2988.7 0.335599 2.97815 0
M  V30 31331 H 2986.26 0.325157 1.58601 0
M  V30 31332 H 2988.25 -2.15583 3.425 0
M  V30 31333 H 2986.82 -2.0395 2.36904 0
M  V30 31334 H 2986.04 -0.11346 3.94037 0
M  V30 31335 H 2987.33 -0.613068 5.05093 0
M  V30 31336 H 2986.73 -3.69936 4.27976 0
M  V30 31337 H 2985.29 -3.96422 5.1739 0
M  V30 31338 N 2988.72 -1.55963 0.226582 0
M  V30 31339 C 2990.13 -1.84583 -0.280349 0
M  V30 31340 C 2990.48 -1.14807 -1.59103 0
M  V30 31341 O 2989.61 -0.419452 -2.12296 0
M  V30 31342 C 2990.2 -3.34856 -0.51544 0
M  V30 31343 C 2988.76 -3.63775 -0.966669 0
M  V30 31344 C 2987.91 -2.77281 -0.0325266 0
M  V30 31345 H 2990.86 -1.52197 0.449653 0
M  V30 31346 H 2990.88 -3.55335 -1.36079 0
M  V30 31347 H 2990.39 -3.85613 0.438661 0
M  V30 31348 H 2988.49 -3.18479 -1.93395 0
M  V30 31349 H 2988.6 -4.71721 -0.837596 0
M  V30 31350 H 2986.97 -2.48905 -0.540235 0
M  V30 31351 H 2987.75 -3.30838 0.916582 0
M  V30 31352 N 2990.2 0.0467589 -1.57531 0
M  V30 31353 C 2991.42 0.753337 -1.92698 0
M  V30 31354 C 2991.84 1.6983 -0.824822 0
M  V30 31355 O 2991.2 1.81399 0.200123 0
M  V30 31356 C 2991.25 1.52561 -3.27731 0
M  V30 31357 O 2990.97 0.618598 -4.33711 0
M  V30 31358 C 2992.47 2.33094 -3.7707 0
M  V30 31359 H 2989.69 0.212776 -0.63637 0
M  V30 31360 H 2992.23 0.00955767 -2.04498 0
M  V30 31361 H 2990.39 2.22143 -3.17382 0
M  V30 31362 H 2990.8 1.1583 -5.1155 0
M  V30 31363 H 2992.28 2.82701 -4.74114 0
M  V30 31364 H 2992.75 3.13736 -3.07354 0
M  V30 31365 H 2993.36 1.68621 -3.90445 0
M  V30 31366 N 2991.67 1.54344 0.318688 0
M  V30 31367 C 2992.9 1.77071 1.07984 0
M  V30 31368 C 2993.32 0.520148 1.80765 0
M  V30 31369 O 2992.68 -0.528535 1.73425 0
M  V30 31370 C 2992.73 2.96673 2.04982 0
M  V30 31371 O 2991.83 2.68559 3.12969 0
M  V30 31372 H 2991.18 0.586612 0.311099 0
M  V30 31373 H 2993.71 2.01381 0.361497 0
M  V30 31374 H 2993.72 3.24155 2.47765 0
M  V30 31375 H 2992.39 3.8736 1.5141 0
M  V30 31376 H 2990.97 2.52041 2.74826 0
M  V30 31377 N 2993.15 -0.580999 1.465 0
M  V30 31378 C 2994.06 -1.71776 1.59781 0
M  V30 31379 C 2995.08 -1.67212 0.481252 0
M  V30 31380 O 2996.25 -1.8709 0.745603 0
M  V30 31381 C 2993.32 -3.0828 1.58632 0
M  V30 31382 C 2992.38 -3.24095 2.81533 0
M  V30 31383 C 2991.61 -4.54087 2.80429 0
M  V30 31384 O 2991.84 -5.38082 1.89272 0
M  V30 31385 O 2990.77 -4.73186 3.71993 0
M  V30 31386 H 2994.6 -1.63518 2.55921 0
M  V30 31387 H 2992.18 -0.748245 1.29312 0
M  V30 31388 H 2994.06 -3.89558 1.60693 0
M  V30 31389 H 2992.74 -3.16972 0.656523 0
M  V30 31390 H 2991.65 -2.42304 2.85025 0
M  V30 31391 H 2992.98 -3.20295 3.73727 0
M  V30 31392 N 2994.63 -1.34234 -0.825776 0
M  V30 31393 C 2995.54 -1.27641 -1.96837 0
M  V30 31394 C 2996.56 -0.184599 -1.73018 0
M  V30 31395 O 2997.73 -0.410559 -1.97171 0
M  V30 31396 C 2994.8 -1.02885 -3.31083 0
M  V30 31397 C 2993.86 -2.21194 -3.67929 0
M  V30 31398 C 2993.09 -1.97609 -4.95768 0
M  V30 31399 O 2993.31 -0.932909 -5.62719 0
M  V30 31400 O 2992.25 -2.84486 -5.30426 0
M  V30 31401 H 2996.07 -2.23759 -2.05342 0
M  V30 31402 H 2993.66 -1.14411 -0.960752 0
M  V30 31403 H 2995.54 -0.908478 -4.11491 0
M  V30 31404 H 2994.22 -0.098039 -3.23552 0
M  V30 31405 H 2993.12 -2.38789 -2.87977 0
M  V30 31406 H 2994.46 -3.12655 -3.80142 0
M  V30 31407 N 2996.11 1.04563 -1.17917 0
M  V30 31408 C 2997.35 1.7794 -0.972894 0
M  V30 31409 C 2997.69 1.8774 0.49672 0
M  V30 31410 O 2996.96 1.38183 1.36878 0
M  V30 31411 C 2997.25 3.21485 -1.62232 0
M  V30 31412 C 2997.1 3.19659 -3.16446 0
M  V30 31413 C 2998.42 4.19477 -1.33144 0
M  V30 31414 H 2995.54 0.645947 -0.354854 0
M  V30 31415 H 2998.18 1.22176 -1.4551 0
M  V30 31416 H 2996.33 3.69101 -1.21231 0
M  V30 31417 H 2998 2.80071 -3.66549 0
M  V30 31418 H 2996.24 2.57826 -3.48867 0
M  V30 31419 H 2996.91 4.21 -3.5702 0
M  V30 31420 H 2999.39 3.80385 -1.68661 0
M  V30 31421 H 2998.27 5.18143 -1.8116 0
M  V30 31422 H 2998.53 4.41373 -0.253396 0
M  V30 31423 N 2997.59 0.980408 1.23393 0
M  V30 31424 C 2998.83 0.650256 1.92092 0
M  V30 31425 C 2999.17 -0.814142 1.7631 0
M  V30 31426 O 2998.44 -1.58728 1.12409 0
M  V30 31427 C 2998.72 1.04145 3.44711 0
M  V30 31428 C 2998.58 2.56348 3.69602 0
M  V30 31429 C 2999.9 0.585372 4.3619 0
M  V30 31430 H 2997.01 0.237707 0.697613 0
M  V30 31431 H 2999.66 1.22169 1.45515 0
M  V30 31432 H 2997.81 0.555218 3.84512 0
M  V30 31433 H 2999.48 3.12546 3.39282 0
M  V30 31434 H 2997.72 2.98981 3.14313 0
M  V30 31435 H 2998.39 2.78771 4.76436 0
M  V30 31436 H 3000.87 1.00283 4.03835 0
M  V30 31437 H 2999.74 0.887524 5.41677 0
M  V30 31438 H 3000.01 -0.514303 4.39098 0
M  V30 31439 N 2999.06 -1.38498 0.75206 0
M  V30 31440 C 2999.97 -2.34265 0.125359 0
M  V30 31441 C 3000.99 -1.59192 -0.702409 0
M  V30 31442 O 3002.17 -1.91394 -0.626917 0
M  V30 31443 C 2999.23 -3.38303 -0.758427 0
M  V30 31444 C 2998.29 -4.29219 0.0835391 0
M  V30 31445 C 2997.53 -5.28287 -0.758159 0
M  V30 31446 O 2997.75 -5.34328 -1.99623 0
M  V30 31447 O 2996.68 -6.01637 -0.177772 0
M  V30 31448 H 3000.51 -2.8955 0.916221 0
M  V30 31449 H 2998.09 -1.40319 0.512936 0
M  V30 31450 H 2999.98 -4.02009 -1.26358 0
M  V30 31451 H 2998.65 -2.85376 -1.52781 0
M  V30 31452 H 2997.56 -3.68678 0.634609 0
M  V30 31453 H 2998.89 -4.85397 0.815541 0
M  V30 31454 N 3000.54 -0.501015 -1.49424 0
M  V30 31455 C 3001.49 0.291108 -2.30771 0
M  V30 31456 C 3002.48 0.962763 -1.39382 0
M  V30 31457 O 3003.69 0.89045 -1.56432 0
M  V30 31458 H 3000.07 0.112737 -0.743501 0
M  V30 31459 H 3002.04 -0.414969 -2.95501 0
M  V30 31460 C 3000.79 1.34274 -3.20727 0
M  V30 31461 H 3000.11 0.835311 -3.90976 0
M  V30 31462 H 3001.55 1.86897 -3.80586 0
M  V30 31463 C 3000.01 2.36091 -2.40339 0
M  V30 31464 O 3000.54 3.41972 -2.10755 0
M  V30 31465 N 2998.74 2.08561 -2.02362 0
M  V30 31466 H 2998.29 1.22478 -2.26621 0
M  V30 31467 H 2998.25 2.76914 -1.48883 0
M  V30 31468 N 3002.02 1.5584 -0.234849 0
M  V30 31469 C 3003.43 1.84729 0.270556 0
M  V30 31470 C 3003.78 1.15649 1.58492 0
M  V30 31471 O 3002.91 0.430704 2.12071 0
M  V30 31472 C 3003.5 3.35125 0.497674 0
M  V30 31473 C 3002.06 3.64283 0.947364 0
M  V30 31474 C 3001.21 2.77294 0.0178213 0
M  V30 31475 H 3004.16 1.51956 -0.457718 0
M  V30 31476 H 3004.18 3.56052 1.34192 0
M  V30 31477 H 3003.69 3.85375 -0.459105 0
M  V30 31478 H 3001.79 3.195 1.91703 0
M  V30 31479 H 3001.91 4.72159 0.812568 0
M  V30 31480 H 3000.27 2.49188 0.527028 0
M  V30 31481 H 3001.05 3.30347 -0.934114 0
M  V30 31482 N 3003.5 -0.038404 1.57553 0
M  V30 31483 C 3004.73 -0.743107 1.93095 0
M  V30 31484 C 3005.14 -1.6939 0.833817 0
M  V30 31485 O 3004.5 -1.81503 -0.1905 0
M  V30 31486 C 3004.55 -1.50821 3.28535 0
M  V30 31487 O 3004.27 -0.595589 4.34033 0
M  V30 31488 C 3005.77 -2.31091 3.78301 0
M  V30 31489 H 3002.99 -0.209399 0.63749 0
M  V30 31490 H 3005.54 0.00128748 2.045 0
M  V30 31491 H 3003.69 -2.20456 3.18556 0
M  V30 31492 H 3004.11 -1.13115 5.12157 0
M  V30 31493 H 3005.58 -2.80183 4.75607 0
M  V30 31494 H 3006.06 -3.12102 3.09013 0
M  V30 31495 H 3006.66 -1.66548 3.91334 0
M  V30 31496 N 3004.98 -1.54511 -0.310498 0
M  V30 31497 C 3006.23 -1.72551 -1.04447 0
M  V30 31498 C 3006.54 -0.513205 -1.88747 0
M  V30 31499 O 3007.75 -0.575212 -2.65337 0
M  V30 31500 C 3006.2 -3.05249 -1.9066 0
M  V30 31501 C 3005.81 -4.33927 -1.11407 0
M  V30 31502 C 3007.55 -3.32649 -2.63713 0
M  V30 31503 C 3005.46 -5.5768 -1.96842 0
M  V30 31504 H 3004.39 -0.643074 -0.393665 0
M  V30 31505 H 3007.04 -1.80998 -0.301972 0
M  V30 31506 H 3005.42 -2.90742 -2.68859 0
M  V30 31507 H 3006.6 -4.5924 -0.378875 0
M  V30 31508 H 3004.91 -4.1339 -0.49978 0
M  V30 31509 H 3007.51 -4.22306 -3.27966 0
M  V30 31510 H 3007.85 -2.51104 -3.32043 0
M  V30 31511 H 3008.39 -3.48084 -1.92568 0
M  V30 31512 H 3005.12 -6.41866 -1.32998 0
M  V30 31513 H 3004.64 -5.36567 -2.6806 0
M  V30 31514 H 3006.32 -5.94579 -2.55117 0
M  V30 31515 N 3006.46 0.573222 -1.46806 0
M  V30 31516 C 3007.39 1.69637 -1.5413 0
M  V30 31517 C 3008.4 1.57051 -0.428805 0
M  V30 31518 O 3009.59 1.64302 -0.69764 0
M  V30 31519 C 3006.69 3.07972 -1.41443 0
M  V30 31520 C 3005.86 3.46469 -2.6698 0
M  V30 31521 C 3004.92 4.63902 -2.48357 0
M  V30 31522 O 3003.95 4.69286 -3.22117 0
M  V30 31523 N 3005.15 5.59386 -1.55139 0
M  V30 31524 H 3007.91 1.63806 -2.50974 0
M  V30 31525 H 3005.48 0.759453 -1.42982 0
M  V30 31526 H 3007.47 3.84341 -1.26744 0
M  V30 31527 H 3006.04 3.08118 -0.527442 0
M  V30 31528 H 3005.26 2.59709 -2.96555 0
M  V30 31529 H 3006.55 3.68958 -3.50353 0
M  V30 31530 H 3005.94 5.57779 -0.943338 0
M  V30 31531 H 3004.5 6.35146 -1.46398 0
M  V30 31532 N 3007.93 1.3467 0.818645 0
M  V30 31533 C 3008.88 1.26599 1.9298 0
M  V30 31534 C 3009.85 0.140345 1.65506 0
M  V30 31535 O 3011.04 0.322038 1.88063 0
M  V30 31536 C 3008.18 1.03169 3.29318 0
M  V30 31537 C 3007.29 2.24546 3.69057 0
M  V30 31538 C 3006.42 1.94364 4.94364 0
M  V30 31539 C 3005.46 3.1186 5.26697 0
M  V30 31540 N 3004.6 2.81534 6.43182 0
M  V30 31541 H 3009.44 2.21624 1.99216 0
M  V30 31542 H 3006.98 1.10182 0.974593 0
M  V30 31543 H 3008.93 0.876201 4.07895 0
M  V30 31544 H 3007.56 0.118102 3.22584 0
M  V30 31545 H 3006.62 2.51 2.85838 0
M  V30 31546 H 3007.93 3.12319 3.88919 0
M  V30 31547 H 3007.08 1.75576 5.80739 0
M  V30 31548 H 3005.82 1.03857 4.76514 0
M  V30 31549 H 3004.83 3.31239 4.38817 0
M  V30 31550 H 3006.05 4.03152 5.46484 0
M  V30 31551 H 3004 1.93607 6.26779 0
M  V30 31552 H 3003.91 3.6284 6.63237 0
M  V30 31553 H 3005.18 2.6626 7.32616 0
M  V30 31554 N 3009.41 -1.03936 1.1847 0
M  V30 31555 C 3010.32 -2.15468 0.927927 0
M  V30 31556 C 3011.34 -1.73662 -0.108417 0
M  V30 31557 O 3012.51 -2.01265 0.073799 0
M  V30 31558 C 3009.58 -3.43654 0.458554 0
M  V30 31559 C 3008.64 -3.99835 1.56302 0
M  V30 31560 C 3007.87 -5.21903 1.11595 0
M  V30 31561 O 3008.1 -5.70395 -0.0248054 0
M  V30 31562 O 3007.03 -5.7065 1.91422 0
M  V30 31563 H 3010.86 -2.39986 1.8612 0
M  V30 31564 H 3008.44 -1.13915 0.966627 0
M  V30 31565 H 3010.32 -4.20901 0.204935 0
M  V30 31566 H 3009 -3.20607 -0.446408 0
M  V30 31567 H 3007.9 -3.2397 1.87067 0
M  V30 31568 H 3009.24 -4.27226 2.44415 0
M  V30 31569 N 3010.89 -0.986938 -1.22871 0
M  V30 31570 C 3012.14 -0.660434 -1.91745 0
M  V30 31571 C 3012.47 0.804781 -1.7674 0
M  V30 31572 O 3011.74 1.58129 -1.13249 0
M  V30 31573 C 3012.03 -1.05972 -3.44154 0
M  V30 31574 C 3011.88 -2.58305 -3.68237 0
M  V30 31575 C 3013.2 -0.608496 -4.35873 0
M  V30 31576 H 3010.32 -0.241403 -0.696343 0
M  V30 31577 H 3012.96 -1.22939 -1.44865 0
M  V30 31578 H 3011.11 -0.575602 -3.84212 0
M  V30 31579 H 3012.78 -3.14341 -3.3762 0
M  V30 31580 H 3011.02 -3.00644 -3.12723 0
M  V30 31581 H 3011.7 -2.81293 -4.74951 0
M  V30 31582 H 3014.17 -1.02424 -4.03297 0
M  V30 31583 H 3013.05 -0.916238 -5.41199 0
M  V30 31584 H 3013.31 0.491009 -4.39365 0
M  V30 31585 N 3012.37 1.38098 -0.759394 0
M  V30 31586 C 3013.62 1.99227 -0.314899 0
M  V30 31587 C 3013.93 1.60966 1.11127 0
M  V30 31588 O 3015.14 2.15108 1.65653 0
M  V30 31589 C 3013.59 3.56239 -0.512064 0
M  V30 31590 C 3013.2 4.03446 -1.94769 0
M  V30 31591 C 3014.94 4.24299 -0.130572 0
M  V30 31592 C 3012.85 5.53121 -2.09311 0
M  V30 31593 H 3011.78 0.745333 -0.113991 0
M  V30 31594 H 3014.43 1.57788 -0.936764 0
M  V30 31595 H 3012.81 3.95595 0.179074 0
M  V30 31596 H 3013.99 3.75366 -2.67277 0
M  V30 31597 H 3012.3 3.48129 -2.28463 0
M  V30 31598 H 3014.9 5.34256 -0.217904 0
M  V30 31599 H 3015.24 4.06062 0.917572 0
M  V30 31600 H 3015.78 3.90202 -0.773784 0
M  V30 31601 H 3012.51 5.76269 -3.124 0
M  V30 31602 H 3012.03 5.82926 -1.41271 0
M  V30 31603 H 3013.71 6.18907 -1.88581 0
M  V30 31604 N 3013.85 0.508932 1.49156 0
M  V30 31605 C 3014.76 -0.269615 2.33046 0
M  V30 31606 C 3015.77 -0.959637 1.45145 0
M  V30 31607 O 3016.95 -0.939264 1.78157 0
M  V30 31608 C 3014.01 -1.31548 3.20774 0
M  V30 31609 C 3013.07 -0.638056 4.24532 0
M  V30 31610 C 3012.31 -1.63409 5.08068 0
M  V30 31611 O 3012.53 -2.86474 4.93243 0
M  V30 31612 O 3011.46 -1.18505 5.90119 0
M  V30 31613 H 3015.29 0.417236 3.0082 0
M  V30 31614 H 3012.87 0.270145 1.46937 0
M  V30 31615 H 3014.76 -1.9204 3.75098 0
M  V30 31616 H 3013.43 -1.98512 2.55685 0
M  V30 31617 H 3012.34 0.00680933 3.74099 0
M  V30 31618 H 3013.67 -0.010729 4.92199 0
M  V30 31619 N 3015.32 -1.55714 0.243111 0
M  V30 31620 C 3016.56 -2.00755 -0.384268 0
M  V30 31621 C 3016.93 -1.12754 -1.55404 0
M  V30 31622 O 3018.13 -1.47235 -2.24889 0
M  V30 31623 C 3016.4 -3.48619 -0.787357 0
M  V30 31624 S 3017.96 -4.15671 -1.4058 0
M  V30 31625 H 3014.78 -0.700615 -0.121076 0
M  V30 31626 H 3017.38 -1.92204 0.357456 0
M  V30 31627 H 3016.08 -4.10334 0.0733613 0
M  V30 31628 H 3015.61 -3.61089 -1.56136 0
M  V30 31629 H 3017.63 -4.16644 -2.69486 0
M  V30 31630 N 3016.8 0.030048 -1.57571 0
M  V30 31631 C 3018.08 0.756415 -1.80382 0
M  V30 31632 C 3018.46 1.93627 -0.84094 0
M  V30 31633 O 3017.81 2.282 0.117103 0
M  V30 31634 C 3018.02 1.19037 -3.28072 0
M  V30 31635 C 3019.37 1.60669 -3.93028 0
M  V30 31636 O 3020.39 1.28498 -3.32215 0
M  V30 31637 O 3019.25 2.20377 -5.00096 0
M  V30 31638 H 3016.34 0.365712 -0.741744 0
M  V30 31639 H 3018.89 0.00690194 -1.69699 0
M  V30 31640 H 3017.66 0.348059 -3.89749 0
M  V30 31641 H 3017.28 1.99993 -3.4364 0
M  V30 31642 N 3018.28 1.54674 0.3023 0
M  V30 31643 C 3019.53 1.7415 1.03921 0
M  V30 31644 C 3019.86 0.525074 1.86967 0
M  V30 31645 O 3019.13 -0.477835 1.88539 0
M  V30 31646 C 3019.42 3.02972 1.94628 0
M  V30 31647 C 3019.27 4.34911 1.1477 0
M  V30 31648 C 3020.59 3.27654 2.93821 0
M  V30 31649 H 3017.71 0.633638 0.376394 0
M  V30 31650 H 3020.35 1.87388 0.313974 0
M  V30 31651 H 3018.5 2.91817 2.56466 0
M  V30 31652 H 3020.17 4.57982 0.552282 0
M  V30 31653 H 3018.42 4.31456 0.450386 0
M  V30 31654 H 3019.09 5.21313 1.81486 0
M  V30 31655 H 3021.56 3.3841 2.42111 0
M  V30 31656 H 3020.44 4.1911 3.54455 0
M  V30 31657 H 3020.7 2.45888 3.67412 0
M  V30 31658 N 3019.76 -0.565428 1.47108 0
M  V30 31659 C 3020.71 -1.67317 1.58977 0
M  V30 31660 C 3021.68 -1.60352 0.433174 0
M  V30 31661 O 3022.86 -1.79308 0.652173 0
M  V30 31662 C 3020 -3.05648 1.60229 0
M  V30 31663 C 3019.11 -3.2311 2.86747 0
M  V30 31664 C 3018.25 -4.51791 2.79389 0
M  V30 31665 C 3017.29 -4.62657 4.00768 0
M  V30 31666 N 3016.42 -5.82683 3.91695 0
M  V30 31667 H 3021.26 -1.56511 2.53591 0
M  V30 31668 H 3018.8 -0.762536 1.25793 0
M  V30 31669 H 3020.76 -3.85738 1.58939 0
M  V30 31670 H 3019.39 -3.1531 0.69134 0
M  V30 31671 H 3018.44 -2.36508 2.9794 0
M  V30 31672 H 3019.75 -3.27005 3.76655 0
M  V30 31673 H 3018.91 -5.40131 2.76302 0
M  V30 31674 H 3017.65 -4.50362 1.87149 0
M  V30 31675 H 3016.65 -3.72731 4.04168 0
M  V30 31676 H 3017.88 -4.65851 4.94125 0
M  V30 31677 H 3015.82 -5.82219 3.02253 0
M  V30 31678 H 3015.74 -5.8792 4.75275 0
M  V30 31679 H 3017.01 -6.73407 3.92611 0
M  V30 31680 N 3021.24 -1.35102 -0.811492 0
M  V30 31681 C 3022.46 -1.31204 -1.59979 0
M  V30 31682 C 3022.88 0.111519 -1.8847 0
M  V30 31683 O 3022.24 1.06203 -1.48416 0
M  V30 31684 C 3022.29 -2.1119 -2.93396 0
M  V30 31685 O 3022.01 -3.47994 -2.66142 0
M  V30 31686 C 3023.51 -2.1482 -3.87772 0
M  V30 31687 H 3020.73 -0.450908 -0.496913 0
M  V30 31688 H 3023.27 -1.77884 -1.00883 0
M  V30 31689 H 3021.43 -1.68121 -3.49019 0
M  V30 31690 H 3021.84 -3.89478 -3.51294 0
M  V30 31691 H 3023.32 -2.75187 -4.78515 0
M  V30 31692 H 3023.79 -1.14563 -4.23995 0
M  V30 31693 H 3024.4 -2.58028 -3.38085 0
M  V30 31694 N 3022.71 1.03306 -1.19019 0
M  V30 31695 C 3023.94 1.80272 -1.01537 0
M  V30 31696 C 3024.36 1.83696 0.436018 0
M  V30 31697 O 3023.71 1.27796 1.30286 0
M  V30 31698 C 3023.77 3.25519 -1.57225 0
M  V30 31699 O 3023.49 3.22352 -2.96683 0
M  V30 31700 C 3024.99 4.19099 -1.44468 0
M  V30 31701 H 3022.21 0.567453 -0.358104 0
M  V30 31702 H 3024.75 1.30147 -1.5774 0
M  V30 31703 H 3022.91 3.72848 -1.0518 0
M  V30 31704 H 3023.32 4.13399 -3.22803 0
M  V30 31705 H 3024.79 5.1892 -1.88219 0
M  V30 31706 H 3025.27 4.37424 -0.394547 0
M  V30 31707 H 3025.88 3.7764 -1.95623 0
M  V30 31708 N 3024.19 0.99344 1.22346 0
M  V30 31709 C 3025.1 0.553116 2.27986 0
M  V30 31710 C 3026.12 -0.398357 1.69379 0
M  V30 31711 O 3027.29 -0.265055 1.99648 0
M  V30 31712 C 3024.36 -0.124748 3.46475 0
M  V30 31713 C 3023.42 0.869756 4.20397 0
M  V30 31714 C 3022.65 0.224146 5.33229 0
M  V30 31715 O 3022.88 -0.981816 5.61887 0
M  V30 31716 O 3021.81 0.929278 5.94683 0
M  V30 31717 H 3025.64 1.432 2.6782 0
M  V30 31718 H 3023.22 0.761716 1.28523 0
M  V30 31719 H 3025.1 -0.504422 4.1837 0
M  V30 31720 H 3023.78 -0.978189 3.08566 0
M  V30 31721 H 3022.69 1.30037 3.50772 0
M  V30 31722 H 3024.02 1.69242 4.62188 0
M  V30 31723 N 3025.67 -1.37693 0.766707 0
M  V30 31724 C 3026.92 -2.0011 0.329236 0
M  V30 31725 C 3027.25 -1.60725 -1.09001 0
M  V30 31726 O 3026.52 -0.851019 -1.74894 0
M  V30 31727 C 3026.81 -3.57058 0.467052 0
M  V30 31728 C 3026.66 -4.06368 1.92835 0
M  V30 31729 C 3027.98 -4.39903 -0.131715 0
M  V30 31730 H 3025.1 -0.726982 0.121103 0
M  V30 31731 H 3027.74 -1.63445 0.968808 0
M  V30 31732 H 3025.89 -3.88423 -0.0774341 0
M  V30 31733 H 3027.56 -3.8559 2.53215 0
M  V30 31734 H 3025.81 -3.58747 2.43891 0
M  V30 31735 H 3026.48 -5.15426 1.97586 0
M  V30 31736 H 3028.95 -4.14767 0.332803 0
M  V30 31737 H 3027.83 -5.489 -0.00512051 0
M  V30 31738 H 3028.09 -4.24891 -1.22148 0
M  V30 31739 N 3027.15 -0.516835 -1.48884 0
M  V30 31740 C 3028.39 0.0220572 -2.02788 0
M  V30 31741 C 3028.73 1.35172 -1.39435 0
M  V30 31742 O 3028 1.86983 -0.535492 0
M  V30 31743 C 3028.29 0.157949 -3.59753 0
M  V30 31744 C 3028.14 -1.19596 -4.33609 0
M  V30 31745 C 3029.46 0.891058 -4.30985 0
M  V30 31746 H 3026.58 0.00654193 -0.736971 0
M  V30 31747 H 3029.22 -0.671318 -1.77745 0
M  V30 31748 H 3027.37 0.748501 -3.81221 0
M  V30 31749 H 3029.04 -1.82661 -4.23595 0
M  V30 31750 H 3027.28 -1.78123 -3.95544 0
M  V30 31751 H 3027.95 -1.05401 -5.41844 0
M  V30 31752 H 3030.43 0.390047 -4.14268 0
M  V30 31753 H 3029.31 0.955012 -5.40528 0
M  V30 31754 H 3029.57 1.9384 -3.97339 0
M  V30 31755 N 3028.63 1.55583 -0.251365 0
M  V30 31756 C 3029.87 1.98658 0.371399 0
M  V30 31757 C 3030.2 1.1409 1.58141 0
M  V30 31758 O 3029.47 0.224742 1.94607 0
M  V30 31759 H 3028.05 0.733723 0.140212 0
M  V30 31760 H 3030.71 1.9171 -0.351191 0
M  V30 31761 H 3029.8 3.04658 0.677501 0
M  V30 31762 N 3030.1 -0.0216912 1.57585 0
M  V30 31763 C 3031.05 -1.03838 2.08136 0
M  V30 31764 C 3032.05 -1.36976 0.996686 0
M  V30 31765 O 3033.25 -1.35795 1.18151 0
M  V30 31766 H 3029.63 -0.352426 0.664304 0
M  V30 31767 H 3031.6 -0.586288 2.92584 0
M  V30 31768 C 3030.35 -2.32844 2.58223 0
M  V30 31769 H 3029.67 -2.08208 3.41306 0
M  V30 31770 H 3031.11 -3.02311 2.97295 0
M  V30 31771 C 3029.57 -3.02323 1.4867 0
M  V30 31772 O 3030.1 -3.92449 0.857144 0
M  V30 31773 N 3028.31 -2.63777 1.21943 0
M  V30 31774 H 3027.85 -1.90571 1.73322 0
M  V30 31775 H 3027.81 -3.10581 0.488578 0
M  V30 31776 N 3031.58 -1.54832 -0.294093 0
M  V30 31777 C 3032.83 -1.74699 -1.02996 0
M  V30 31778 C 3033.16 -0.534982 -1.86686 0
M  V30 31779 O 3032.44 0.46783 -1.8879 0
M  V30 31780 C 3032.72 -3.04 -1.93018 0
M  V30 31781 C 3032.57 -4.35514 -1.12462 0
M  V30 31782 C 3033.89 -3.29208 -2.92079 0
M  V30 31783 H 3031.01 -0.635625 -0.373028 0
M  V30 31784 H 3033.65 -1.87552 -0.304032 0
M  V30 31785 H 3031.8 -2.93173 -2.54915 0
M  V30 31786 H 3033.48 -4.58268 -0.527986 0
M  V30 31787 H 3031.72 -4.31688 -0.427498 0
M  V30 31788 H 3032.39 -5.22268 -1.78719 0
M  V30 31789 H 3034.87 -3.39689 -2.40313 0
M  V30 31790 H 3033.74 -4.20984 -3.52227 0
M  V30 31791 H 3034 -2.47833 -3.66102 0
M  V30 31792 N 3033.06 0.557619 -1.47405 0
M  V30 31793 C 3034.31 1.31115 -1.5327 0
M  V30 31794 C 3034.62 1.9458 -0.199449 0
M  V30 31795 O 3035.83 2.71159 -0.136087 0
M  V30 31796 C 3034.29 2.37759 -2.70183 0
M  V30 31797 C 3033.89 1.80486 -4.10035 0
M  V30 31798 C 3035.64 3.14296 -2.85339 0
M  V30 31799 C 3033.54 2.84907 -5.18249 0
M  V30 31800 H 3032.47 0.492997 -0.5705 0
M  V30 31801 H 3035.13 0.592277 -1.73679 0
M  V30 31802 H 3033.51 3.12559 -2.43152 0
M  V30 31803 H 3034.68 1.12061 -4.46966 0
M  V30 31804 H 3033 1.16535 -3.99761 0
M  V30 31805 H 3035.59 3.92273 -3.63354 0
M  V30 31806 H 3035.94 3.68456 -1.93768 0
M  V30 31807 H 3036.47 2.46607 -3.12137 0
M  V30 31808 H 3033.21 2.35603 -6.11696 0
M  V30 31809 H 3032.73 3.51744 -4.85836 0
M  V30 31810 H 3034.41 3.48407 -5.4518 0
M  V30 31811 N 3034.54 1.35531 0.804316 0
M  V30 31812 C 3035.47 1.31304 1.93084 0
M  V30 31813 C 3036.45 0.187073 1.69068 0
M  V30 31814 O 3037.64 0.382392 1.90398 0
M  V30 31815 C 3034.77 1.08656 3.29865 0
M  V30 31816 C 3033.72 2.17918 3.68369 0
M  V30 31817 C 3033.05 1.80432 5.03337 0
M  V30 31818 C 3034.35 3.599 3.78509 0
M  V30 31819 H 3036.04 2.25565 1.96878 0
M  V30 31820 H 3033.59 1.08583 0.945822 0
M  V30 31821 H 3035.54 1.04338 4.08279 0
M  V30 31822 H 3034.26 0.108416 3.2642 0
M  V30 31823 H 3032.92 2.21336 2.92243 0
M  V30 31824 H 3032.57 0.8123 4.96398 0
M  V30 31825 H 3032.27 2.53574 5.3007 0
M  V30 31826 H 3033.79 1.77643 5.84188 0
M  V30 31827 H 3035.21 3.58791 4.47149 0
M  V30 31828 H 3033.6 4.31822 4.16713 0
M  V30 31829 H 3034.67 3.95887 2.80003 0
M  V30 31830 N 3036.02 -1.02674 1.19565 0
M  V30 31831 C 3036.96 -2.10998 0.935329 0
M  V30 31832 C 3037.93 -1.65585 -0.130656 0
M  V30 31833 O 3039.12 -1.90796 0.0119397 0
M  V30 31834 C 3036.26 -3.41711 0.482444 0
M  V30 31835 C 3035.37 -4.00659 1.61544 0
M  V30 31836 C 3034.51 -5.1939 1.11387 0
M  V30 31837 C 3033.55 -5.70399 2.22062 0
M  V30 31838 N 3032.68 -6.80402 1.73197 0
M  V30 31839 H 3037.52 -2.32603 1.86279 0
M  V30 31840 H 3035.06 -1.14079 0.928676 0
M  V30 31841 H 3037.02 -4.16714 0.201253 0
M  V30 31842 H 3035.65 -3.20211 -0.40803 0
M  V30 31843 H 3034.7 -3.22849 2.01179 0
M  V30 31844 H 3036.01 -4.34529 2.4492 0
M  V30 31845 H 3035.17 -6.0156 0.788041 0
M  V30 31846 H 3033.91 -4.87059 0.249875 0
M  V30 31847 H 3032.91 -4.8684 2.55474 0
M  V30 31848 H 3034.14 -6.04768 3.08921 0
M  V30 31849 H 3032.08 -6.4992 0.891087 0
M  V30 31850 H 3032 -7.13411 2.50161 0
M  V30 31851 H 3033.27 -7.66162 1.43584 0
M  V30 31852 N 3037.5 -0.999914 -1.21817 0
M  V30 31853 C 3038.91 -0.713806 -1.72516 0
M  V30 31854 C 3039.26 0.76889 -1.80506 0
M  V30 31855 O 3038.38 1.6008 -1.45614 0
M  V30 31856 C 3038.98 -1.28906 -3.13319 0
M  V30 31857 C 3037.54 -1.05219 -3.61395 0
M  V30 31858 C 3036.68 -1.40499 -2.39072 0
M  V30 31859 H 3039.63 -1.17143 -1.07066 0
M  V30 31860 H 3039.66 -0.67115 -3.74534 0
M  V30 31861 H 3039.17 -2.36819 -3.07471 0
M  V30 31862 H 3037.27 0.0100078 -3.72599 0
M  V30 31863 H 3037.38 -1.7205 -4.47142 0
M  V30 31864 H 3035.75 -0.823685 -2.41014 0
M  V30 31865 H 3036.53 -2.49431 -2.35879 0
M  V30 31866 N 3038.97 1.37284 -0.773999 0
M  V30 31867 C 3040.2 2.04432 -0.349597 0
M  V30 31868 C 3040.62 1.57992 1.02079 0
M  V30 31869 O 3039.98 0.741201 1.65457 0
M  V30 31870 C 3040.03 3.58326 -0.404355 0
M  V30 31871 O 3039.13 4.08094 0.594375 0
M  V30 31872 H 3038.47 0.64661 -0.15097 0
M  V30 31873 H 3041 1.75553 -1.05082 0
M  V30 31874 H 3041.01 4.07155 -0.26245 0
M  V30 31875 H 3039.69 3.91482 -1.4041 0
M  V30 31876 H 3038.27 3.70579 0.415403 0
M  V30 31877 N 3040.45 0.524724 1.48608 0
M  V30 31878 C 3041.73 -0.0754306 1.95455 0
M  V30 31879 C 3042.11 -1.51812 1.46685 0
M  V30 31880 O 3041.46 -2.17801 0.691013 0
M  V30 31881 C 3041.67 0.0363886 3.48981 0
M  V30 31882 C 3043.01 -0.12555 4.24414 0
M  V30 31883 O 3044.04 -0.0376613 3.5618 0
M  V30 31884 O 3042.9 -0.309008 5.45626 0
M  V30 31885 H 3039.99 -0.0822111 0.822904 0
M  V30 31886 H 3042.54 0.588949 1.59152 0
M  V30 31887 H 3041.31 1.04156 3.77183 0
M  V30 31888 H 3040.93 -0.667077 3.91964 0
M  V30 31889 N 3041.93 -1.55447 0.259613 0
M  V30 31890 C 3042.84 -2.2556 -0.644986 0
M  V30 31891 C 3043.86 -1.27608 -1.18289 0
M  V30 31892 O 3045.03 -1.60512 -1.21647 0
M  V30 31893 C 3042.1 -2.95113 -1.81959 0
M  V30 31894 C 3041.16 -4.08506 -1.3199 0
M  V30 31895 C 3040.39 -4.74733 -2.43852 0
M  V30 31896 O 3040.61 -4.40094 -3.62868 0
M  V30 31897 O 3039.55 -5.62994 -2.12888 0
M  V30 31898 H 3043.37 -3.03601 -0.0774866 0
M  V30 31899 H 3040.96 -1.49374 0.0276121 0
M  V30 31900 H 3042.84 -3.38878 -2.50479 0
M  V30 31901 H 3041.52 -2.20001 -2.37447 0
M  V30 31902 H 3040.42 -3.69231 -0.601611 0
M  V30 31903 H 3041.76 -4.85473 -0.81096 0
M  V30 31904 N 3043.41 0.0133338 -1.57594 0
M  V30 31905 C 3044.66 0.699562 -1.89606 0
M  V30 31906 C 3044.98 1.75046 -0.85929 0
M  V30 31907 O 3044.25 1.95618 0.105078 0
M  V30 31908 H 3042.83 0.261373 -0.699781 0
M  V30 31909 H 3045.49 -0.0244386 -1.94885 0
M  V30 31910 H 3044.58 1.17923 -2.88965 0
M  V30 31911 N 3044.89 1.54985 0.285878 0
M  V30 31912 C 3046.13 1.75243 1.02068 0
M  V30 31913 C 3046.46 0.544875 1.86399 0
M  V30 31914 O 3045.74 -0.457811 1.89035 0
M  V30 31915 C 3046.02 3.05019 1.91403 0
M  V30 31916 C 3045.88 4.36104 1.10151 0
M  V30 31917 C 3047.19 3.30752 2.90329 0
M  V30 31918 H 3044.31 0.637594 0.369652 0
M  V30 31919 H 3046.96 1.8771 0.294081 0
M  V30 31920 H 3045.11 2.94521 2.53357 0
M  V30 31921 H 3046.78 4.58542 0.503676 0
M  V30 31922 H 3045.02 4.31909 0.404599 0
M  V30 31923 H 3045.69 5.23208 1.75947 0
M  V30 31924 H 3048.17 3.40959 2.38508 0
M  V30 31925 H 3047.04 4.22846 3.49989 0
M  V30 31926 H 3047.3 2.49771 3.64783 0
M  V30 31927 N 3046.36 -0.549794 1.47699 0
M  V30 31928 C 3047.31 -1.65622 1.60742 0
M  V30 31929 C 3048.28 -1.59884 0.450158 0
M  V30 31930 O 3049.47 -1.78606 0.671154 0
M  V30 31931 C 3046.61 -3.03931 1.63462 0
M  V30 31932 C 3045.72 -3.20051 2.90158 0
M  V30 31933 C 3044.85 -4.48802 2.84165 0
M  V30 31934 C 3043.89 -4.5838 4.05652 0
M  V30 31935 N 3043.03 -5.78496 3.97853 0
M  V30 31936 H 3047.87 -1.53812 2.55237 0
M  V30 31937 H 3045.41 -0.749151 1.26594 0
M  V30 31938 H 3047.37 -3.84031 1.63022 0
M  V30 31939 H 3046 -3.14559 0.724744 0
M  V30 31940 H 3045.05 -2.33334 3.00432 0
M  V30 31941 H 3046.36 -3.22992 3.80103 0
M  V30 31942 H 3045.51 -5.37171 2.82015 0
M  V30 31943 H 3044.25 -4.48352 1.91916 0
M  V30 31944 H 3043.26 -3.68423 4.08099 0
M  V30 31945 H 3044.48 -4.60584 4.99038 0
M  V30 31946 H 3042.43 -5.78981 3.08411 0
M  V30 31947 H 3042.35 -5.82846 4.81483 0
M  V30 31948 H 3043.61 -6.69205 3.99731 0
M  V30 31949 N 3047.84 -1.35955 -0.797117 0
M  V30 31950 C 3049.09 -1.29949 -1.55696 0
M  V30 31951 C 3049.42 0.123225 -1.93809 0
M  V30 31952 O 3048.7 1.07483 -1.62104 0
M  V30 31953 C 3048.98 -2.21495 -2.83922 0
M  V30 31954 C 3048.83 -3.72428 -2.52225 0
M  V30 31955 C 3050.15 -2.11962 -3.85694 0
M  V30 31956 H 3047.27 -0.47338 -0.564872 0
M  V30 31957 H 3049.91 -1.6644 -0.916392 0
M  V30 31958 H 3048.06 -1.90506 -3.38585 0
M  V30 31959 H 3049.73 -4.13902 -2.03673 0
M  V30 31960 H 3047.98 -3.92242 -1.85279 0
M  V30 31961 H 3048.65 -4.31883 -3.43775 0
M  V30 31962 H 3051.12 -2.39224 -3.40457 0
M  V30 31963 H 3050 -2.782 -4.73177 0
M  V30 31964 H 3050.26 -1.1045 -4.28081 0
M  V30 31965 N 3049.32 1.02038 -1.20108 0
M  V30 31966 C 3050.55 1.79185 -1.03443 0
M  V30 31967 C 3050.96 1.84148 0.41651 0
M  V30 31968 O 3050.32 1.29171 1.28923 0
M  V30 31969 C 3050.37 3.23833 -1.60669 0
M  V30 31970 O 3050.09 3.19188 -3.00085 0
M  V30 31971 C 3051.59 4.17543 -1.48905 0
M  V30 31972 H 3048.81 0.563623 -0.364102 0
M  V30 31973 H 3051.36 1.28467 -1.59112 0
M  V30 31974 H 3049.51 3.71712 -1.09129 0
M  V30 31975 H 3049.93 4.09952 -3.27169 0
M  V30 31976 H 3051.4 5.16894 -1.93712 0
M  V30 31977 H 3051.88 4.36981 -0.44092 0
M  V30 31978 H 3052.48 3.75544 -1.99617 0
M  V30 31979 N 3050.8 1.00636 1.21285 0
M  V30 31980 C 3051.73 0.526133 2.2308 0
M  V30 31981 C 3052.74 -0.386004 1.58158 0
M  V30 31982 O 3053.93 -0.185985 1.77528 0
M  V30 31983 C 3051.03 -0.25523 3.37938 0
M  V30 31984 C 3050.21 0.656312 4.32448 0
M  V30 31985 C 3049.26 -0.0756789 5.26146 0
M  V30 31986 O 3048.29 0.543425 5.666 0
M  V30 31987 N 3049.49 -1.35381 5.64493 0
M  V30 31988 H 3052.26 1.40151 2.64911 0
M  V30 31989 H 3049.82 0.882665 1.35723 0
M  V30 31990 H 3051.81 -0.753908 3.97616 0
M  V30 31991 H 3050.38 -1.03181 2.9508 0
M  V30 31992 H 3049.6 1.33546 3.7089 0
M  V30 31993 H 3050.89 1.27662 4.92524 0
M  V30 31994 H 3050.29 -1.87791 5.33621 0
M  V30 31995 H 3048.84 -1.79742 6.26527 0
M  V30 31996 N 3052.28 -1.36872 0.781268 0
M  V30 31997 C 3053.19 -2.33946 0.175022 0
M  V30 31998 C 3054.2 -1.60646 -0.668484 0
M  V30 31999 O 3055.38 -1.92681 -0.586179 0
M  V30 32000 C 3052.44 -3.39835 -0.686497 0
M  V30 32001 C 3051.5 -4.28945 0.174564 0
M  V30 32002 C 3050.74 -5.29777 -0.645931 0
M  V30 32003 O 3050.96 -5.38442 -1.88244 0
M  V30 32004 O 3049.89 -6.01879 -0.0501156 0
M  V30 32005 H 3053.72 -2.87541 0.977432 0
M  V30 32006 H 3051.31 -1.39199 0.542584 0
M  V30 32007 H 3053.19 -4.04599 -1.17803 0
M  V30 32008 H 3051.86 -2.88553 -1.46693 0
M  V30 32009 H 3050.77 -3.67249 0.712669 0
M  V30 32010 H 3052.1 -4.83557 0.918317 0
M  V30 32011 N 3053.75 -0.532597 -1.48328 0
M  V30 32012 C 3054.68 0.21747 -2.32485 0
M  V30 32013 C 3055.67 0.932573 -1.42257 0
M  V30 32014 O 3056.85 0.917843 -1.71141 0
M  V30 32015 C 3053.98 1.26324 -3.23511 0
M  V30 32016 C 3052.93 0.666117 -4.22785 0
M  V30 32017 C 3052.26 1.81473 -5.02963 0
M  V30 32018 C 3053.56 -0.363905 -5.21031 0
M  V30 32019 H 3055.25 -0.485066 -2.95445 0
M  V30 32020 H 3052.8 -0.234719 -1.42074 0
M  V30 32021 H 3054.75 1.79594 -3.81214 0
M  V30 32022 H 3053.48 1.99539 -2.58557 0
M  V30 32023 H 3052.14 0.154916 -3.66273 0
M  V30 32024 H 3051.78 2.53532 -4.34431 0
M  V30 32025 H 3051.48 1.4211 -5.70157 0
M  V30 32026 H 3053.01 2.35116 -5.63518 0
M  V30 32027 H 3054.42 0.0818072 -5.73242 0
M  V30 32028 H 3052.82 -0.675061 -5.96291 0
M  V30 32029 H 3053.89 -1.26873 -4.68008 0
M  V30 32030 N 3055.23 1.55307 -0.267853 0
M  V30 32031 C 3056.48 1.99041 0.350308 0
M  V30 32032 C 3056.8 1.15761 1.56922 0
M  V30 32033 O 3056.07 0.24537 1.94357 0
M  V30 32034 H 3054.65 0.735169 0.132422 0
M  V30 32035 H 3057.31 1.91327 -0.371504 0
M  V30 32036 H 3056.41 3.05359 0.64515 0
M  V30 32037 N 3056.71 -0.00497598 1.57599 0
M  V30 32038 C 3057.66 -1.00639 2.04587 0
M  V30 32039 C 3058.64 -1.30612 0.939645 0
M  V30 32040 O 3059.84 -1.29793 1.20344 0
M  V30 32041 C 3056.97 -2.29998 2.54864 0
M  V30 32042 C 3056.05 -2.03011 3.72354 0
M  V30 32043 N 3056.44 -1.46164 4.84221 0
M  V30 32044 C 3054.74 -2.33178 3.80189 0
M  V30 32045 C 3055.44 -1.35534 5.6569 0
M  V30 32046 N 3054.42 -1.83924 5.1154 0
M  V30 32047 H 3058.22 -0.561281 2.88491 0
M  V30 32048 H 3055.73 -0.210779 1.61026 0
M  V30 32049 H 3057.73 -3.02575 2.868 0
M  V30 32050 H 3056.39 -2.75166 1.72377 0
M  V30 32051 H 3057.4 -1.14111 5.05172 0
M  V30 32052 H 3054.08 -2.81255 3.08548 0
M  V30 32053 H 3055.47 -0.918674 6.6559 0
M  V30 32054 N 3058.19 -1.55135 -0.277654 0
M  V30 32055 C 3059.1 -1.90786 -1.36521 0
M  V30 32056 C 3060.11 -0.804569 -1.54281 0
M  V30 32057 O 3061.29 -1.10321 -1.68497 0
M  V30 32058 C 3058.36 -2.1684 -2.7052 0
M  V30 32059 C 3057.42 -3.40429 -2.61546 0
M  V30 32060 C 3056.65 -3.65231 -3.89155 0
M  V30 32061 O 3056.87 -2.92625 -4.89619 0
M  V30 32062 O 3055.81 -4.58764 -3.89639 0
M  V30 32063 H 3059.63 -2.83356 -1.09285 0
M  V30 32064 H 3057.22 -1.41622 -0.475774 0
M  V30 32065 H 3059.1 -2.35044 -3.4976 0
M  V30 32066 H 3057.77 -1.27453 -2.97552 0
M  V30 32067 H 3056.68 -3.27565 -1.80698 0
M  V30 32068 H 3058.01 -4.3002 -2.39465 0
M  V30 32069 N 3059.67 0.541953 -1.47989 0
M  V30 32070 C 3060.94 1.303 -1.45881 0
M  V30 32071 C 3061.32 2.10462 -0.163968 0
M  V30 32072 O 3060.67 2.11923 0.854442 0
M  V30 32073 C 3060.88 2.19461 -2.71363 0
M  V30 32074 C 3062.23 2.79989 -3.19204 0
M  V30 32075 O 3063.25 2.29755 -2.72197 0
M  V30 32076 O 3062.11 3.71332 -4.00967 0
M  V30 32077 H 3059.21 0.587488 -0.582054 0
M  V30 32078 H 3061.75 0.559595 -1.60208 0
M  V30 32079 H 3060.52 1.5993 -3.57125 0
M  V30 32080 H 3060.15 3.0107 -2.59697 0
M  V30 32081 N 3061.15 1.36376 0.789896 0
M  V30 32082 C 3062.08 1.33345 1.91681 0
M  V30 32083 C 3063.06 0.204995 1.6886 0
M  V30 32084 O 3064.24 0.402565 1.89982 0
M  V30 32085 C 3061.37 1.12148 3.28694 0
M  V30 32086 C 3060.33 2.21813 3.66037 0
M  V30 32087 C 3059.65 1.8576 5.01395 0
M  V30 32088 C 3060.95 3.63894 3.74671 0
M  V30 32089 H 3062.65 2.2764 1.94474 0
M  V30 32090 H 3060.19 1.0958 0.934252 0
M  V30 32091 H 3062.14 1.08663 4.07149 0
M  V30 32092 H 3060.87 0.143031 3.26287 0
M  V30 32093 H 3059.53 2.24423 2.89879 0
M  V30 32094 H 3059.18 0.864904 4.95508 0
M  V30 32095 H 3058.88 2.59182 5.2735 0
M  V30 32096 H 3060.4 1.8383 5.82271 0
M  V30 32097 H 3061.81 3.63514 4.43318 0
M  V30 32098 H 3060.21 4.36217 4.1211 0
M  V30 32099 H 3061.28 3.98834 2.75788 0
M  V30 32100 N 3062.62 -1.014 1.20647 0
M  V30 32101 C 3063.56 -2.09661 0.900963 0
M  V30 32102 C 3064.53 -1.61925 -0.147982 0
M  V30 32103 O 3065.72 -1.88488 -0.0209904 0
M  V30 32104 C 3062.85 -3.36875 0.351156 0
M  V30 32105 C 3061.89 -4.03506 1.3815 0
M  V30 32106 S 3062.72 -4.47083 2.94749 0
M  V30 32107 C 3063.88 -5.77495 2.41351 0
M  V30 32108 H 3064.11 -2.35253 1.81778 0
M  V30 32109 H 3061.65 -1.14553 1.03523 0
M  V30 32110 H 3063.6 -4.1048 0.0404922 0
M  V30 32111 H 3062.27 -3.0935 -0.5442 0
M  V30 32112 H 3061.46 -4.95038 0.946227 0
M  V30 32113 H 3061.06 -3.36136 1.63977 0
M  V30 32114 H 3063.35 -6.52798 1.81275 0
M  V30 32115 H 3064.3 -6.25822 3.31289 0
M  V30 32116 H 3064.7 -5.33883 1.83384 0
M  V30 32117 N 3064.1 -1.01278 -1.2075 0
M  V30 32118 C 3065.06 -0.584622 -2.21619 0
M  V30 32119 C 3066.06 0.343187 -1.57095 0
M  V30 32120 O 3067.25 0.132402 -1.73696 0
M  V30 32121 C 3064.39 0.146812 -3.40584 0
M  V30 32122 H 3065.58 -1.4769 -2.61013 0
M  V30 32123 H 3063.13 -0.802147 -1.34147 0
M  V30 32124 H 3063.87 1.05418 -3.06688 0
M  V30 32125 H 3063.65 -0.519648 -3.88641 0
M  V30 32126 H 3065.14 0.433851 -4.1534 0
M  V30 32127 N 3065.58 1.36456 -0.788516 0
M  V30 32128 C 3066.54 2.28392 -0.192249 0
M  V30 32129 C 3067.54 1.48785 0.60989 0
M  V30 32130 O 3068.73 1.68784 0.431017 0
M  V30 32131 C 3065.86 3.32903 0.734038 0
M  V30 32132 H 3067.06 2.82634 -1.00289 0
M  V30 32133 H 3064.61 1.46005 -0.557878 0
M  V30 32134 H 3065.35 2.83815 1.56905 0
M  V30 32135 H 3065.13 3.9177 0.160806 0
M  V30 32136 H 3066.62 4.01564 1.14612 0
M  V30 32137 N 3067.06 0.540456 1.48043 0
M  V30 32138 C 3068.29 0.0145306 2.06595 0
M  V30 32139 C 3068.7 -1.2771 1.39595 0
M  V30 32140 O 3068.04 -1.77296 0.480825 0
M  V30 32141 C 3068.1 -0.269253 3.5849 0
M  V30 32142 C 3067.76 0.930451 4.47428 0
M  V30 32143 C 3068.76 1.83164 4.86567 0
M  V30 32144 C 3066.45 1.1404 4.89183 0
M  V30 32145 C 3068.44 2.92659 5.66241 0
M  V30 32146 C 3066.13 2.23848 5.68626 0
M  V30 32147 C 3067.13 3.1299 6.07064 0
M  V30 32148 O 3066.81 4.20896 6.8491 0
M  V30 32149 H 3066.55 0.0351586 0.675085 0
M  V30 32150 H 3069.1 0.748563 1.91274 0
M  V30 32151 H 3067.33 -1.05739 3.71963 0
M  V30 32152 H 3069.02 -0.738525 3.99125 0
M  V30 32153 H 3069.78 1.68142 4.54921 0
M  V30 32154 H 3065.66 0.455797 4.58741 0
M  V30 32155 H 3069.21 3.62265 5.96163 0
M  V30 32156 H 3065.1 2.3885 5.99684 0
M  V30 32157 H 3065.87 4.18736 7.0328 0
M  V30 32158 N 3068.54 -1.55163 0.276085 0
M  V30 32159 C 3069.78 -1.99914 -0.340924 0
M  V30 32160 C 3070.11 -1.16424 -1.55432 0
M  V30 32161 O 3069.39 -0.234551 -1.93081 0
M  V30 32162 C 3069.67 -3.52785 -0.722149 0
M  V30 32163 C 3069.53 -4.47027 0.498654 0
M  V30 32164 C 3070.84 -4.11591 -1.55822 0
M  V30 32165 H 3067.96 -0.726758 -0.122443 0
M  V30 32166 H 3070.61 -1.86095 0.383223 0
M  V30 32167 H 3068.76 -3.64691 -1.33913 0
M  V30 32168 H 3070.43 -4.47063 1.1372 0
M  V30 32169 H 3068.67 -4.18647 1.13654 0
M  V30 32170 H 3069.34 -5.51679 0.188138 0
M  V30 32171 H 3071.82 -4.02967 -1.03715 0
M  V30 32172 H 3070.69 -5.18763 -1.79378 0
M  V30 32173 H 3070.95 -3.61882 -2.53957 0
M  V30 32174 N 3070.01 -0.00338196 -1.576 0
M  V30 32175 C 3070.92 1.00319 -2.12069 0
M  V30 32176 C 3071.94 1.37465 -1.06674 0
M  V30 32177 O 3073.12 1.46129 -1.38594 0
M  V30 32178 C 3070.18 2.27526 -2.61597 0
M  V30 32179 C 3069.24 1.96661 -3.81606 0
M  V30 32180 C 3068.47 3.17804 -4.28761 0
M  V30 32181 O 3068.7 4.29603 -3.7523 0
M  V30 32182 O 3067.63 3.01604 -5.20882 0
M  V30 32183 H 3071.46 0.570147 -2.983 0
M  V30 32184 H 3069.04 0.215656 -1.47835 0
M  V30 32185 H 3070.92 3.02251 -2.93636 0
M  V30 32186 H 3069.6 2.70062 -1.78461 0
M  V30 32187 H 3068.51 1.19402 -3.54534 0
M  V30 32188 H 3069.84 1.5896 -4.65825 0
M  V30 32189 N 3071.49 1.5528 0.269423 0
M  V30 32190 C 3072.44 1.892 1.353 0
M  V30 32191 C 3073.43 0.768697 1.50955 0
M  V30 32192 O 3074.64 0.953081 1.52697 0
M  V30 32193 H 3071.01 0.600562 0.45258 0
M  V30 32194 H 3072.99 2.79711 1.03944 0
M  V30 32195 C 3071.73 2.1836 2.70581 0
M  V30 32196 H 3071.06 3.04286 2.59327 0
M  V30 32197 H 3072.5 2.46013 3.45331 0
M  V30 32198 C 3070.96 0.992384 3.21952 0
M  V30 32199 O 3071.49 0.228839 4.01048 0
M  V30 32200 N 3069.69 0.789111 2.79681 0
M  V30 32201 H 3069.24 1.41171 2.15473 0
M  V30 32202 H 3069.2 -0.00629249 3.14399 0
M  V30 32203 N 3072.97 -0.534097 1.48274 0
M  V30 32204 C 3074.2 -1.31499 1.59736 0
M  V30 32205 C 3074.61 -1.87055 0.25608 0
M  V30 32206 O 3073.97 -1.66193 -0.754056 0
M  V30 32207 C 3074.02 -2.46873 2.64076 0
M  V30 32208 O 3073.74 -1.93607 3.92999 0
M  V30 32209 C 3075.24 -3.38753 2.85939 0
M  V30 32210 H 3072.46 -0.40004 0.53871 0
M  V30 32211 H 3075.01 -0.644728 1.94071 0
M  V30 32212 H 3073.16 -3.09791 2.32612 0
M  V30 32213 H 3073.58 -2.69098 4.50207 0
M  V30 32214 H 3075.05 -4.16067 3.62757 0
M  V30 32215 H 3075.53 -3.9373 1.9461 0
M  V30 32216 H 3076.13 -2.81631 3.18692 0
M  V30 32217 N 3074.45 -1.36793 -0.782652 0
M  V30 32218 C 3075.67 -1.34735 -1.57674 0
M  V30 32219 C 3076.1 0.0674923 -1.87979 0
M  V30 32220 O 3075.46 1.04141 -1.48406 0
M  V30 32221 C 3075.5 -2.18262 -2.87044 0
M  V30 32222 O 3074.61 -1.57976 -3.80943 0
M  V30 32223 H 3073.95 -0.460855 -0.478026 0
M  V30 32224 H 3076.48 -1.80169 -0.969547 0
M  V30 32225 H 3076.49 -2.31085 -3.3625 0
M  V30 32226 H 3075.16 -3.21109 -2.64314 0
M  V30 32227 H 3073.74 -1.54132 -3.39555 0
M  V30 32228 N 3075.93 1.00759 -1.21184 0
M  V30 32229 C 3077.18 1.73909 -1.02169 0
M  V30 32230 C 3077.49 1.90457 0.445605 0
M  V30 32231 O 3078.69 2.60789 0.755086 0
M  V30 32232 C 3077.15 3.12833 -1.77942 0
M  V30 32233 C 3076.76 3.04267 -3.28824 0
M  V30 32234 C 3078.5 3.90131 -1.67326 0
M  V30 32235 C 3076.41 4.38255 -3.97097 0
M  V30 32236 H 3075.34 0.652013 -0.378676 0
M  V30 32237 H 3077.99 1.12598 -1.44893 0
M  V30 32238 H 3076.37 3.74739 -1.28009 0
M  V30 32239 H 3077.55 2.51615 -3.8604 0
M  V30 32240 H 3075.86 2.40459 -3.39953 0
M  V30 32241 H 3078.46 4.89277 -2.15668 0
M  V30 32242 H 3078.8 4.1149 -0.631032 0
M  V30 32243 H 3079.33 3.34872 -2.14722 0
M  V30 32244 H 3076.07 4.22099 -5.01511 0
M  V30 32245 H 3075.59 4.90879 -3.44671 0
M  V30 32246 H 3077.27 5.07065 -4.01863 0
M  V30 32247 N 3077.4 1.01917 1.20211 0
M  V30 32248 C 3078.63 0.729289 1.93621 0
M  V30 32249 C 3079.05 -0.710413 1.74924 0
M  V30 32250 O 3078.4 -1.48212 1.06487 0
M  V30 32251 C 3078.46 1.05871 3.45649 0
M  V30 32252 O 3078.18 2.44187 3.63737 0
M  V30 32253 C 3079.68 0.790253 4.36199 0
M  V30 32254 H 3076.9 0.267605 0.615328 0
M  V30 32255 H 3079.44 1.36104 1.5263 0
M  V30 32256 H 3077.6 0.472317 3.8451 0
M  V30 32257 H 3078.01 2.56151 4.57697 0
M  V30 32258 H 3079.48 1.0708 5.41514 0
M  V30 32259 H 3079.96 -0.275532 4.38335 0
M  V30 32260 H 3080.57 1.35892 4.03005 0
M  V30 32261 N 3078.88 -1.36036 0.795742 0
M  V30 32262 C 3080.13 -1.98322 0.36761 0
M  V30 32263 C 3080.44 -1.63856 -1.0682 0
M  V30 32264 O 3081.65 -2.19424 -1.59891 0
M  V30 32265 C 3080.11 -3.54756 0.606334 0
M  V30 32266 C 3079.71 -3.98141 2.05397 0
M  V30 32267 C 3081.46 -4.23804 0.243022 0
M  V30 32268 C 3079.37 -5.47377 2.23902 0
M  V30 32269 H 3078.3 -0.742049 0.133712 0
M  V30 32270 H 3080.95 -1.55249 0.978269 0
M  V30 32271 H 3079.33 -3.95931 -0.0741261 0
M  V30 32272 H 3080.5 -3.68148 2.77135 0
M  V30 32273 H 3078.82 -3.41949 2.37613 0
M  V30 32274 H 3081.41 -5.3349 0.359476 0
M  V30 32275 H 3081.76 -4.08352 -0.80959 0
M  V30 32276 H 3082.29 -3.88013 0.876967 0
M  V30 32277 H 3079.03 -5.67784 3.27569 0
M  V30 32278 H 3078.55 -5.78975 1.56676 0
M  V30 32279 H 3080.23 -6.1369 2.04924 0
M  V30 32280 N 3080.36 -0.5483 -1.47755 0
M  V30 32281 C 3081.31 0.204367 -2.29893 0
M  V30 32282 C 3082.28 0.916737 -1.3851 0
M  V30 32283 O 3083.46 0.91418 -1.67474 0
M  V30 32284 C 3080.6 1.23397 -3.22284 0
M  V30 32285 C 3079.72 0.528578 -4.28754 0
M  V30 32286 C 3078.85 1.5427 -5.08305 0
M  V30 32287 C 3077.89 0.821786 -6.06558 0
M  V30 32288 N 3077.03 1.78231 -6.79101 0
M  V30 32289 H 3081.87 -0.502215 -2.93738 0
M  V30 32290 H 3079.4 -0.259497 -1.44793 0
M  V30 32291 H 3081.36 1.84341 -3.74265 0
M  V30 32292 H 3079.99 1.9087 -2.60324 0
M  V30 32293 H 3079.04 -0.195198 -3.79899 0
M  V30 32294 H 3080.36 -0.0365943 -4.98787 0
M  V30 32295 H 3079.51 2.22592 -5.64391 0
M  V30 32296 H 3078.25 2.14178 -4.38154 0
M  V30 32297 H 3077.25 0.124593 -5.49659 0
M  V30 32298 H 3078.48 0.228565 -6.78715 0
M  V30 32299 H 3076.42 2.37014 -6.11687 0
M  V30 32300 H 3076.34 1.26906 -7.45272 0
M  V30 32301 H 3077.61 2.45696 -7.39766 0
M  V30 32302 N 3081.84 1.55014 -0.28431 0
M  V30 32303 C 3082.79 2.22887 0.599155 0
M  V30 32304 C 3083.76 1.20555 1.14262 0
M  V30 32305 O 3084.94 1.49125 1.19023 0
M  V30 32306 C 3082.08 2.96065 1.77312 0
M  V30 32307 C 3081.19 4.13136 1.26264 0
M  V30 32308 C 3080.33 4.73936 2.39913 0
M  V30 32309 C 3079.37 5.83183 1.85914 0
M  V30 32310 N 3078.5 6.38007 2.93072 0
M  V30 32311 H 3083.34 2.97997 0.0137292 0
M  V30 32312 H 3080.88 1.47099 -0.00499088 0
M  V30 32313 H 3082.84 3.36714 2.46333 0
M  V30 32314 H 3081.47 2.23362 2.33043 0
M  V30 32315 H 3080.52 3.77544 0.46523 0
M  V30 32316 H 3081.83 4.91893 0.827197 0
M  V30 32317 H 3080.99 5.17351 3.16911 0
M  V30 32318 H 3079.73 3.94475 2.86777 0
M  V30 32319 H 3078.73 5.39208 1.074 0
M  V30 32320 H 3079.96 6.64518 1.39975 0
M  V30 32321 H 3077.9 5.61437 3.39301 0
M  V30 32322 H 3077.82 7.12063 2.53974 0
M  V30 32323 H 3079.09 6.86081 3.70018 0
M  V30 32324 N 3083.32 0.0117398 1.57596 0
M  V30 32325 C 3084.73 -0.52949 1.79034 0
M  V30 32326 C 3085.08 -1.73275 0.920329 0
M  V30 32327 O 3084.2 -2.16033 0.125972 0
M  V30 32328 C 3084.8 -0.967348 3.24697 0
M  V30 32329 C 3083.36 -1.4538 3.47191 0
M  V30 32330 C 3082.5 -0.410418 2.74246 0
M  V30 32331 H 3085.46 0.237863 1.56907 0
M  V30 32332 H 3085.48 -1.83273 3.33454 0
M  V30 32333 H 3084.99 -0.0913923 3.87992 0
M  V30 32334 H 3083.09 -2.35027 2.89125 0
M  V30 32335 H 3083.2 -1.47317 4.55889 0
M  V30 32336 H 3081.57 -0.874678 2.3921 0
M  V30 32337 H 3082.35 0.456772 3.40248 0
M  V30 32338 N 3084.79 -1.55421 -0.261185 0
M  V30 32339 C 3085.74 -1.89915 -1.34294 0
M  V30 32340 C 3086.74 -0.776692 -1.50545 0
M  V30 32341 O 3087.94 -0.961165 -1.52189 0
M  V30 32342 H 3084.32 -0.602954 -0.449389 0
M  V30 32343 H 3086.29 -2.80258 -1.02459 0
M  V30 32344 C 3085.04 -2.19792 -2.69419 0
M  V30 32345 H 3084.36 -3.05657 -2.57709 0
M  V30 32346 H 3085.8 -2.47841 -3.44021 0
M  V30 32347 C 3084.26 -1.00944 -3.21422 0
M  V30 32348 O 3084.79 -0.250105 -4.00921 0
M  V30 32349 N 3083 -0.803932 -2.79258 0
M  V30 32350 H 3082.54 -1.42311 -2.14721 0
M  V30 32351 H 3082.5 -0.010381 -3.14398 0
M  V30 32352 N 3086.27 0.526227 -1.48555 0
M  V30 32353 C 3087.18 1.65728 -1.66046 0
M  V30 32354 C 3088.2 1.65311 -0.54298 0
M  V30 32355 O 3089.37 1.84194 -0.814527 0
M  V30 32356 C 3086.44 3.02181 -1.69964 0
M  V30 32357 C 3085.5 3.13423 -2.93367 0
M  V30 32358 C 3084.73 4.43367 -2.97089 0
M  V30 32359 O 3084.96 5.30687 -2.09112 0
M  V30 32360 O 3083.89 4.59054 -3.89298 0
M  V30 32361 H 3087.72 1.53907 -2.61813 0
M  V30 32362 H 3085.3 0.699736 -1.32 0
M  V30 32363 H 3087.18 3.83326 -1.7504 0
M  V30 32364 H 3085.86 3.14317 -0.773713 0
M  V30 32365 H 3084.77 2.31559 -2.93822 0
M  V30 32366 H 3086.1 3.06204 -3.85357 0
M  V30 32367 N 3087.75 1.37206 0.775387 0
M  V30 32368 C 3088.68 1.3537 1.90255 0
M  V30 32369 C 3089.66 0.222893 1.68633 0
M  V30 32370 O 3090.85 0.422692 1.89544 0
M  V30 32371 C 3087.98 1.15628 3.27486 0
M  V30 32372 C 3086.93 2.25682 3.63664 0
M  V30 32373 C 3086.26 1.91068 4.99397 0
M  V30 32374 C 3087.56 3.67848 3.7079 0
M  V30 32375 H 3089.25 2.2969 1.92049 0
M  V30 32376 H 3086.8 1.10565 0.922577 0
M  V30 32377 H 3088.75 1.12975 4.05974 0
M  V30 32378 H 3087.47 0.17763 3.26117 0
M  V30 32379 H 3086.13 2.27485 2.87482 0
M  V30 32380 H 3085.78 0.917411 4.94563 0
M  V30 32381 H 3085.48 2.64761 5.24572 0
M  V30 32382 H 3087 1.89995 5.80288 0
M  V30 32383 H 3088.42 3.68195 4.39437 0
M  V30 32384 H 3086.82 4.40564 4.0746 0
M  V30 32385 H 3087.89 4.01737 2.71542 0
M  V30 32386 N 3089.23 -1.00115 1.21716 0
M  V30 32387 C 3090.45 -1.78052 1.0636 0
M  V30 32388 C 3090.88 -1.84179 -0.382043 0
M  V30 32389 O 3090.24 -1.28821 -1.27573 0
M  V30 32390 C 3090.28 -3.19605 1.66988 0
M  V30 32391 O 3089.39 -4.02054 0.917963 0
M  V30 32392 H 3088.73 -0.548596 0.374084 0
M  V30 32393 H 3091.26 -1.25819 1.6134 0
M  V30 32394 H 3091.27 -3.70265 1.71369 0
M  V30 32395 H 3089.94 -3.1446 2.72191 0
M  V30 32396 H 3088.52 -3.60608 0.949536 0
M  V30 32397 N 3090.71 -1.02553 -1.19669 0
M  V30 32398 C 3091.64 -0.624004 -2.25008 0
M  V30 32399 C 3092.62 0.365351 -1.6613 0
M  V30 32400 O 3093.8 0.248809 -1.926 0
M  V30 32401 C 3090.93 0.0294259 -3.47288 0
M  V30 32402 C 3089.89 -0.881854 -4.18817 0
M  V30 32403 C 3089.21 -0.0937128 -5.34618 0
M  V30 32404 C 3090.51 -2.19405 -4.73982 0
M  V30 32405 H 3092.21 -1.50459 -2.58849 0
M  V30 32406 H 3089.75 -0.724893 -1.24424 0
M  V30 32407 H 3091.71 0.321943 -4.20168 0
M  V30 32408 H 3090.43 0.944783 -3.12636 0
M  V30 32409 H 3089.09 -1.15851 -3.47813 0
M  V30 32410 H 3088.74 0.823574 -4.96212 0
M  V30 32411 H 3088.44 -0.70067 -5.83408 0
M  V30 32412 H 3089.96 0.192142 -6.10298 0
M  V30 32413 H 3091.38 -1.96329 -5.38635 0
M  V30 32414 H 3089.77 -2.75263 -5.33245 0
M  V30 32415 H 3090.84 -2.85099 -3.92233 0
M  V30 32416 N 3092.19 1.35612 -0.802945 0
M  V30 32417 C 3093.15 2.28176 -0.216462 0
M  V30 32418 C 3094.15 1.49424 0.594075 0
M  V30 32419 O 3095.34 1.69231 0.413091 0
M  V30 32420 C 3092.47 3.33663 0.698688 0
M  V30 32421 H 3093.66 2.81555 -1.03281 0
M  V30 32422 H 3091.22 1.45405 -0.573332 0
M  V30 32423 H 3091.95 2.85464 1.53886 0
M  V30 32424 H 3091.74 3.91919 0.119245 0
M  V30 32425 H 3093.23 4.02757 1.10347 0
M  V30 32426 N 3093.66 0.556128 1.47462 0
M  V30 32427 C 3094.59 -0.180456 2.32802 0
M  V30 32428 C 3095.57 -0.909823 1.43723 0
M  V30 32429 O 3096.76 -0.8905 1.7258 0
M  V30 32430 C 3093.89 -1.21161 3.2548 0
M  V30 32431 C 3092.84 -0.598771 4.23791 0
M  V30 32432 C 3092.17 -1.73448 5.05786 0
M  V30 32433 C 3093.47 0.44675 5.20386 0
M  V30 32434 H 3095.16 0.532007 2.94635 0
M  V30 32435 H 3092.71 0.257292 1.41683 0
M  V30 32436 H 3094.66 -1.73506 3.84023 0
M  V30 32437 H 3093.39 -1.954 2.61699 0
M  V30 32438 H 3092.05 -0.0966253 3.66473 0
M  V30 32439 H 3091.69 -2.46589 4.3841 0
M  V30 32440 H 3091.39 -1.33021 5.72345 0
M  V30 32441 H 3092.92 -2.26121 5.67187 0
M  V30 32442 H 3094.33 0.00940096 5.73299 0
M  V30 32443 H 3092.73 0.76984 5.95142 0
M  V30 32444 H 3093.8 1.34303 4.6593 0
M  V30 32445 N 3095.14 -1.54861 0.292527 0
M  V30 32446 C 3096.39 -1.99573 -0.318598 0
M  V30 32447 C 3096.71 -1.18243 -1.5506 0
M  V30 32448 O 3095.98 -0.27626 -1.93942 0
M  V30 32449 H 3094.56 -0.737183 -0.120709 0
M  V30 32450 H 3097.22 -1.90711 0.401896 0
M  V30 32451 H 3096.32 -3.06347 -0.596488 0
M  V30 32452 N 3096.62 -0.0200973 -1.57587 0
M  V30 32453 C 3097.55 0.963296 -2.12704 0
M  V30 32454 C 3098.53 1.34529 -1.04096 0
M  V30 32455 O 3099.72 1.4255 -1.31883 0
M  V30 32456 C 3096.85 2.24863 -2.64677 0
M  V30 32457 C 3095.8 2.00766 -3.77991 0
M  V30 32458 C 3095.13 3.35487 -4.16357 0
M  V30 32459 C 3096.43 1.35407 -5.04442 0
M  V30 32460 H 3098.12 0.504311 -2.95122 0
M  V30 32461 H 3095.67 0.241135 -1.41967 0
M  V30 32462 H 3097.62 2.94031 -3.01867 0
M  V30 32463 H 3096.34 2.72911 -1.79408 0
M  V30 32464 H 3095 1.34019 -3.41225 0
M  V30 32465 H 3094.65 3.81276 -3.28082 0
M  V30 32466 H 3094.35 3.20172 -4.9271 0
M  V30 32467 H 3095.87 4.05937 -4.56123 0
M  V30 32468 H 3097.29 1.94561 -5.39276 0
M  V30 32469 H 3095.68 1.30519 -5.85734 0
M  V30 32470 H 3096.75 0.325838 -4.83804 0
M  V30 32471 N 3098.1 1.55557 0.252939 0
M  V30 32472 C 3099.04 1.89808 1.31307 0
M  V30 32473 C 3100.01 0.751659 1.48119 0
M  V30 32474 O 3101.2 1.00477 1.62201 0
M  V30 32475 C 3098.34 2.19298 2.66463 0
M  V30 32476 C 3097.45 3.46714 2.57708 0
M  V30 32477 C 3096.59 3.65803 3.85177 0
M  V30 32478 C 3095.63 4.86841 3.71015 0
M  V30 32479 N 3094.76 5.02483 4.90363 0
M  V30 32480 H 3099.6 2.80219 1.01397 0
M  V30 32481 H 3097.14 1.38719 0.489438 0
M  V30 32482 H 3099.1 2.34399 3.45128 0
M  V30 32483 H 3097.73 1.32098 2.94533 0
M  V30 32484 H 3096.78 3.39977 1.70645 0
M  V30 32485 H 3098.09 4.35522 2.43151 0
M  V30 32486 H 3097.25 3.8083 4.72285 0
M  V30 32487 H 3095.99 2.75217 4.02625 0
M  V30 32488 H 3094.99 4.71797 2.8229 0
M  V30 32489 H 3096.22 5.78882 3.55068 0
M  V30 32490 H 3094.16 4.14833 5.08183 0
M  V30 32491 H 3094.08 5.85369 4.78413 0
M  V30 32492 H 3095.35 5.21916 5.78986 0
M  V30 32493 N 3099.58 -0.518341 1.48832 0
M  V30 32494 C 3100.8 -1.29797 1.61122 0
M  V30 32495 C 3101.22 -1.86773 0.275905 0
M  V30 32496 O 3100.58 -1.66984 -0.736387 0
M  V30 32497 C 3100.63 -2.44058 2.6668 0
M  V30 32498 O 3100.35 -1.89427 3.9503 0
M  V30 32499 C 3101.85 -3.35701 2.89516 0
M  V30 32500 H 3099.07 -0.394304 0.542923 0
M  V30 32501 H 3101.61 -0.624108 1.94744 0
M  V30 32502 H 3099.77 -3.07307 2.35884 0
M  V30 32503 H 3100.18 -2.64308 4.53036 0
M  V30 32504 H 3101.66 -4.12196 3.67149 0
M  V30 32505 H 3102.13 -3.91644 1.98775 0
M  V30 32506 H 3102.74 -2.78235 3.21661 0
M  V30 32507 N 3101.05 -1.37615 -0.7681 0
M  V30 32508 C 3102.3 -1.32347 -1.52207 0
M  V30 32509 C 3102.62 0.0885418 -1.95399 0
M  V30 32510 O 3103.82 0.263705 -2.70216 0
M  V30 32511 C 3102.28 -2.32326 -2.74868 0
M  V30 32512 C 3101.89 -3.79075 -2.3876 0
M  V30 32513 C 3103.63 -2.36076 -3.52801 0
M  V30 32514 C 3101.54 -4.70776 -3.57944 0
M  V30 32515 H 3100.47 -0.491893 -0.571452 0
M  V30 32516 H 3103.12 -1.63095 -0.840976 0
M  V30 32517 H 3101.5 -1.94602 -3.44886 0
M  V30 32518 H 3102.67 -4.25657 -1.76502 0
M  V30 32519 H 3100.99 -3.78306 -1.73993 0
M  V30 32520 H 3103.59 -3.0179 -4.41392 0
M  V30 32521 H 3103.93 -1.37542 -3.92922 0
M  V30 32522 H 3104.46 -2.72526 -2.89783 0
M  V30 32523 H 3101.2 -5.70452 -3.22901 0
M  V30 32524 H 3100.72 -4.28896 -4.19295 0
M  V30 32525 H 3102.4 -4.88088 -4.24711 0
M  V30 32526 N 3102.53 0.994677 -1.22245 0
M  V30 32527 C 3103.49 2.06604 -0.992345 0
M  V30 32528 C 3104.49 1.60749 0.040559 0
M  V30 32529 O 3105.68 1.73074 -0.197767 0
M  V30 32530 C 3102.82 3.37235 -0.498558 0
M  V30 32531 H 3104.01 2.28451 -1.94294 0
M  V30 32532 H 3101.56 1.16598 -1.04089 0
M  V30 32533 H 3102.3 3.21071 0.456475 0
M  V30 32534 H 3102.08 3.71852 -1.24374 0
M  V30 32535 H 3103.57 4.16065 -0.357754 0
M  V30 32536 N 3104.01 1.03186 1.19123 0
M  V30 32537 C 3105.24 0.749784 1.92836 0
M  V30 32538 C 3105.65 -0.69182 1.75668 0
M  V30 32539 O 3105.01 -1.47074 1.08053 0
M  V30 32540 C 3105.06 1.09532 3.44507 0
M  V30 32541 O 3104.78 2.48031 3.61126 0
M  V30 32542 C 3106.28 0.836473 4.35337 0
M  V30 32543 H 3103.5 0.274116 0.612455 0
M  V30 32544 H 3106.05 1.37715 1.51178 0
M  V30 32545 H 3104.2 0.513073 3.83987 0
M  V30 32546 H 3104.62 2.60992 4.54955 0
M  V30 32547 H 3106.09 1.12818 5.40348 0
M  V30 32548 H 3106.57 -0.229025 4.38602 0
M  V30 32549 H 3107.17 1.40159 4.01541 0
M  V30 32550 N 3105.49 -1.35184 0.810125 0
M  V30 32551 C 3106.44 -2.2716 0.195581 0
M  V30 32552 C 3107.42 -1.4794 -0.632665 0
M  V30 32553 O 3108.61 -1.70101 -0.489342 0
M  V30 32554 C 3105.74 -3.3705 -0.652105 0
M  V30 32555 C 3104.83 -4.23692 0.186064 0
M  V30 32556 N 3105.22 -4.9009 1.25081 0
M  V30 32557 C 3103.52 -4.45989 -0.0317249 0
M  V30 32558 C 3104.22 -5.54346 1.76282 0
M  V30 32559 N 3103.2 -5.32991 1.06871 0
M  V30 32560 H 3107 -2.75992 1.01022 0
M  V30 32561 H 3104.51 -1.48753 0.651638 0
M  V30 32562 H 3106.51 -4.01895 -1.10844 0
M  V30 32563 H 3105.17 -2.89769 -1.46506 0
M  V30 32564 H 3106.18 -4.91464 1.6335 0
M  V30 32565 H 3102.86 -4.09497 -0.813535 0
M  V30 32566 H 3104.25 -6.1731 2.65289 0
M  V30 32567 N 3106.97 -0.56394 -1.47165 0
M  V30 32568 C 3108.21 -0.0423228 -2.02056 0
M  V30 32569 C 3108.54 1.31494 -1.43994 0
M  V30 32570 O 3107.81 1.8591 -0.617611 0
M  V30 32571 H 3106.39 -0.0126559 -0.746893 0
M  V30 32572 H 3109.05 -0.735473 -1.8049 0
M  V30 32573 H 3108.14 0.0407495 -3.12073 0
M  V30 32574 N 3108.44 1.54704 -0.300735 0
M  V30 32575 C 3109.69 1.99313 0.309393 0
M  V30 32576 C 3110.01 1.19275 1.55025 0
M  V30 32577 O 3111.21 1.5415 2.23495 0
M  V30 32578 C 3109.67 3.54833 0.601794 0
M  V30 32579 C 3109.28 4.43679 -0.620714 0
M  V30 32580 C 3111.02 4.07968 1.17313 0
M  V30 32581 C 3108.93 5.90631 -0.30148 0
M  V30 32582 H 3107.86 0.744489 0.119382 0
M  V30 32583 H 3110.51 1.78875 -0.409399 0
M  V30 32584 H 3108.89 3.7117 1.38017 0
M  V30 32585 H 3110.06 4.39116 -1.39693 0
M  V30 32586 H 3108.38 4.01314 -1.11067 0
M  V30 32587 H 3110.98 5.15328 1.42622 0
M  V30 32588 H 3111.32 3.58553 2.1153 0
M  V30 32589 H 3111.85 3.95172 0.456465 0
M  V30 32590 H 3108.59 6.44194 -1.21221 0
M  V30 32591 H 3108.11 5.98203 0.437469 0
M  V30 32592 H 3109.79 6.46927 0.0970503 0
M  V30 32593 N 3109.92 0.0284543 1.57574 0
M  V30 32594 C 3110.89 -0.938654 2.09098 0
M  V30 32595 C 3111.89 -1.25452 1.0059 0
M  V30 32596 O 3113.08 -1.19497 1.26752 0
M  V30 32597 C 3110.21 -2.25538 2.55628 0
M  V30 32598 H 3111.4 -0.492428 2.9583 0
M  V30 32599 H 3108.95 -0.219567 1.5475 0
M  V30 32600 H 3109.69 -2.7479 1.72223 0
M  V30 32601 H 3109.47 -2.03923 3.349 0
M  V30 32602 H 3110.96 -2.94858 2.95717 0
M  V30 32603 N 3111.4 -1.55689 -0.244686 0
M  V30 32604 C 3112.36 -1.89697 -1.28637 0
M  V30 32605 C 3113.36 -0.773608 -1.40968 0
M  V30 32606 O 3114.55 -1.04158 -1.39631 0
M  V30 32607 C 3111.69 -2.12737 -2.66375 0
M  V30 32608 H 3112.88 -2.82843 -0.996983 0
M  V30 32609 H 3110.43 -1.48615 -0.484077 0
M  V30 32610 H 3111.17 -1.22067 -3.0045 0
M  V30 32611 H 3110.95 -2.94553 -2.58806 0
M  V30 32612 H 3112.44 -2.40224 -3.41588 0
M  V30 32613 N 3112.88 0.510441 -1.49105 0
M  V30 32614 C 3114.13 1.26173 -1.57364 0
M  V30 32615 C 3114.44 1.93847 -0.261252 0
M  V30 32616 O 3115.65 2.70589 -0.222285 0
M  V30 32617 C 3114.1 2.29043 -2.7761 0
M  V30 32618 C 3113.71 1.6735 -4.1557 0
M  V30 32619 C 3115.45 3.05059 -2.95194 0
M  V30 32620 C 3113.36 2.68275 -5.27051 0
M  V30 32621 H 3112.29 0.474597 -0.585895 0
M  V30 32622 H 3114.94 0.536723 -1.75475 0
M  V30 32623 H 3113.32 3.04665 -2.52973 0
M  V30 32624 H 3114.5 0.977844 -4.50305 0
M  V30 32625 H 3112.81 1.03758 -4.03266 0
M  V30 32626 H 3115.41 3.80515 -3.7565 0
M  V30 32627 H 3115.75 3.62105 -2.05392 0
M  V30 32628 H 3116.29 2.36552 -3.19825 0
M  V30 32629 H 3113.03 2.16023 -6.18882 0
M  V30 32630 H 3112.55 3.3611 -4.9678 0
M  V30 32631 H 3114.22 3.30886 -5.55989 0
M  V30 32632 N 3114.36 1.38021 0.760791 0
M  V30 32633 C 3115.3 1.34774 1.89575 0
M  V30 32634 C 3116.3 0.234744 1.67766 0
M  V30 32635 O 3117.5 0.403383 1.75422 0
M  V30 32636 H 3113.88 0.420269 0.623601 0
M  V30 32637 H 3115.85 2.30562 1.8943 0
M  V30 32638 C 3114.6 1.18252 3.26974 0
M  V30 32639 H 3113.92 2.03153 3.44338 0
M  V30 32640 H 3115.36 1.20033 4.06655 0
M  V30 32641 C 3113.82 -0.111086 3.36717 0
M  V30 32642 O 3114.35 -1.09072 3.86608 0
M  V30 32643 N 3112.56 -0.165491 2.90128 0
M  V30 32644 H 3112.1 0.632372 2.49717 0
M  V30 32645 H 3112.06 -1.03062 2.97028 0
M  V30 32646 N 3115.83 -0.98818 1.22771 0
M  V30 32647 C 3117.06 -1.76914 1.08242 0
M  V30 32648 C 3117.48 -1.84574 -0.362487 0
M  V30 32649 O 3116.84 -1.30167 -1.26199 0
M  V30 32650 C 3116.89 -3.17816 1.70368 0
M  V30 32651 O 3115.99 -4.01057 0.960555 0
M  V30 32652 H 3115.34 -0.544597 0.379882 0
M  V30 32653 H 3117.87 -1.24101 1.62666 0
M  V30 32654 H 3117.88 -3.68427 1.75287 0
M  V30 32655 H 3116.55 -3.11555 2.75511 0
M  V30 32656 H 3115.13 -3.59581 0.98773 0
M  V30 32657 N 3117.31 -1.03816 -1.18575 0
M  V30 32658 C 3118.56 -0.741166 -1.88771 0
M  V30 32659 C 3118.89 0.729095 -1.79994 0
M  V30 32660 O 3118.17 1.53184 -1.19854 0
M  V30 32661 C 3118.45 -1.20473 -3.3935 0
M  V30 32662 C 3118.3 -2.73691 -3.5695 0
M  V30 32663 C 3119.62 -0.792817 -4.329 0
M  V30 32664 H 3116.74 -0.27072 -0.685478 0
M  V30 32665 H 3119.38 -1.28973 -1.39521 0
M  V30 32666 H 3117.53 -0.738041 -3.81425 0
M  V30 32667 H 3119.2 -3.28378 -3.23984 0
M  V30 32668 H 3117.45 -3.13637 -2.9969 0
M  V30 32669 H 3118.12 -3.01185 -4.62593 0
M  V30 32670 H 3120.59 -1.19437 -3.9859 0
M  V30 32671 H 3119.47 -1.14495 -5.36826 0
M  V30 32672 H 3119.73 0.304217 -4.41052 0
M  V30 32673 N 3118.79 1.34753 -0.817283 0
M  V30 32674 C 3120.2 1.80887 -0.462247 0
M  V30 32675 C 3120.55 1.67795 1.01682 0
M  V30 32676 O 3119.68 1.21471 1.79092 0
M  V30 32677 C 3120.27 3.28419 -0.832262 0
M  V30 32678 C 3118.83 3.72655 -0.529675 0
M  V30 32679 C 3117.98 2.56563 -1.05218 0
M  V30 32680 H 3120.93 1.22579 -1.00797 0
M  V30 32681 H 3120.95 3.80264 -0.13387 0
M  V30 32682 H 3120.46 3.37915 -1.90879 0
M  V30 32683 H 3118.56 3.687 0.537678 0
M  V30 32684 H 3118.68 4.67004 -1.06979 0
M  V30 32685 H 3117.04 2.50251 -0.473993 0
M  V30 32686 H 3117.82 2.68832 -2.13505 0
M  V30 32687 N 3120.27 0.571737 1.46864 0
M  V30 32688 C 3121.52 0.0615117 2.03307 0
M  V30 32689 C 3121.87 -1.27983 1.43659 0
M  V30 32690 O 3121.16 -1.82347 0.588218 0
M  V30 32691 C 3121.36 -0.0741683 3.57323 0
M  V30 32692 C 3121.19 1.25248 4.31906 0
M  V30 32693 C 3119.96 1.82369 4.71243 0
M  V30 32694 C 3122.15 2.17312 4.66133 0
M  V30 32695 N 3120.14 3.08887 5.3053 0
M  V30 32696 C 3121.51 3.28414 5.25875 0
M  V30 32697 C 3123.56 2.17128 4.48062 0
M  V30 32698 C 3122.27 4.39449 5.69454 0
M  V30 32699 C 3124.29 3.27185 4.9265 0
M  V30 32700 C 3123.65 4.37006 5.52453 0
M  V30 32701 H 3119.75 0.0650235 0.779292 0
M  V30 32702 H 3122.34 0.762224 1.7916 0
M  V30 32703 H 3120.51 -0.744028 3.81207 0
M  V30 32704 H 3122.24 -0.587779 4.00409 0
M  V30 32705 H 3118.99 1.35992 4.53655 0
M  V30 32706 H 3119.42 3.73413 5.64705 0
M  V30 32707 H 3124.06 1.33499 4.01171 0
M  V30 32708 H 3121.78 5.23828 6.15329 0
M  V30 32709 H 3125.36 3.28147 4.80428 0
M  V30 32710 H 3124.24 5.20762 5.86325 0
M  V30 32711 N 3121.75 -1.54542 0.308935 0
M  V30 32712 C 3122.97 -2.05172 -0.30316 0
M  V30 32713 C 3123.4 -1.18437 -1.46131 0
M  V30 32714 O 3122.76 -0.190194 -1.803 0
M  V30 32715 C 3122.8 -3.53145 -0.729464 0
M  V30 32716 O 3121.91 -3.69404 -1.83342 0
M  V30 32717 H 3121.25 -0.661506 -0.0574949 0
M  V30 32718 H 3123.78 -1.9952 0.45309 0
M  V30 32719 H 3123.79 -3.95144 -1.01612 0
M  V30 32720 H 3122.46 -4.15733 0.117695 0
M  V30 32721 H 3121.04 -3.3931 -1.5467 0
M  V30 32722 N 3123.23 -0.0368104 -1.57557 0
M  V30 32723 C 3124.17 0.942462 -2.10681 0
M  V30 32724 C 3125.14 1.31811 -1.0107 0
M  V30 32725 O 3126.33 1.41008 -1.28535 0
M  V30 32726 C 3123.47 2.21696 -2.64471 0
M  V30 32727 C 3122.58 1.89708 -3.88117 0
M  V30 32728 C 3121.72 3.1151 -4.30273 0
M  V30 32729 C 3120.75 2.75377 -5.46657 0
M  V30 32730 N 3119.89 3.89828 -5.83934 0
M  V30 32731 H 3124.73 0.482536 -2.94067 0
M  V30 32732 H 3122.27 0.226571 -1.45345 0
M  V30 32733 H 3124.23 2.96254 -2.93751 0
M  V30 32734 H 3122.86 2.65291 -1.83903 0
M  V30 32735 H 3121.91 1.0536 -3.65518 0
M  V30 32736 H 3123.22 1.59102 -4.72745 0
M  V30 32737 H 3122.37 3.94381 -4.6103 0
M  V30 32738 H 3121.11 3.45284 -3.44427 0
M  V30 32739 H 3120.12 1.9092 -5.15587 0
M  V30 32740 H 3121.34 2.42811 -6.34208 0
M  V30 32741 H 3119.29 4.2343 -5.01042 0
M  V30 32742 H 3119.21 3.62871 -6.6322 0
M  V30 32743 H 3120.47 4.7338 -6.19299 0
M  V30 32744 N 3124.7 1.55817 0.236426 0
M  V30 32745 C 3125.95 1.77338 0.96095 0
M  V30 32746 C 3126.27 0.602674 1.86084 0
M  V30 32747 O 3127.47 0.701152 2.6229 0
M  V30 32748 C 3125.93 3.13998 1.75879 0
M  V30 32749 C 3125.54 4.38748 0.905772 0
M  V30 32750 C 3127.28 3.44853 2.47542 0
M  V30 32751 C 3125.19 5.66437 1.7001 0
M  V30 32752 H 3124.12 0.661124 0.362535 0
M  V30 32753 H 3126.77 1.82233 0.215271 0
M  V30 32754 H 3125.15 3.03238 2.54681 0
M  V30 32755 H 3126.32 4.60524 0.159334 0
M  V30 32756 H 3124.64 4.15304 0.301977 0
M  V30 32757 H 3127.24 4.37473 3.07444 0
M  V30 32758 H 3127.58 2.6666 3.19684 0
M  V30 32759 H 3128.11 3.56875 1.75741 0
M  V30 32760 H 3124.85 6.4748 1.02222 0
M  V30 32761 H 3124.37 5.48745 2.42154 0
M  V30 32762 H 3126.05 6.06074 2.26458 0
M  V30 32763 N 3126.18 -0.502526 1.49373 0
M  V30 32764 C 3127.11 -1.61291 1.68842 0
M  V30 32765 C 3128.09 -1.61397 0.537125 0
M  V30 32766 O 3129.28 -1.78161 0.772795 0
M  V30 32767 C 3126.41 -2.99781 1.75352 0
M  V30 32768 C 3125.36 -3.1454 2.90256 0
M  V30 32769 C 3124.69 -4.54366 2.81878 0
M  V30 32770 C 3125.99 -2.94709 4.31212 0
M  V30 32771 H 3127.68 -1.45252 2.61806 0
M  V30 32772 H 3125.23 -0.697348 1.25988 0
M  V30 32773 H 3127.18 -3.77359 1.87558 0
M  V30 32774 H 3125.9 -3.16905 0.789869 0
M  V30 32775 H 3124.56 -2.39387 2.7765 0
M  V30 32776 H 3124.21 -4.68364 1.83424 0
M  V30 32777 H 3123.91 -4.65182 3.58998 0
M  V30 32778 H 3125.44 -5.34007 2.9609 0
M  V30 32779 H 3126.85 -3.62058 4.44508 0
M  V30 32780 H 3125.25 -3.16998 5.09541 0
M  V30 32781 H 3126.32 -1.90849 4.45763 0
M  V30 32782 N 3127.66 -1.38422 -0.75346 0
M  V30 32783 C 3128.62 -1.35462 -1.84886 0
M  V30 32784 C 3129.62 -0.255111 -1.58763 0
M  V30 32785 O 3130.81 -0.512007 -1.66506 0
M  V30 32786 C 3127.94 -1.10893 -3.22359 0
M  V30 32787 H 3129.14 -2.32916 -1.88918 0
M  V30 32788 H 3126.69 -1.23718 -0.955177 0
M  V30 32789 H 3127.43 -0.140457 -3.23996 0
M  V30 32790 H 3127.21 -1.90498 -3.42714 0
M  V30 32791 H 3128.7 -1.11518 -4.02435 0
M  V30 32792 N 3129.14 0.981655 -1.23294 0
M  V30 32793 C 3130.37 1.75548 -1.08933 0
M  V30 32794 C 3130.78 1.85701 0.362186 0
M  V30 32795 O 3130.12 1.33453 1.26238 0
M  V30 32796 C 3130.18 3.19967 -1.63895 0
M  V30 32797 C 3129.84 3.33327 -3.12638 0
M  V30 32798 C 3130.84 3.19751 -4.09946 0
M  V30 32799 C 3128.53 3.58016 -3.52321 0
M  V30 32800 C 3130.52 3.30666 -5.44921 0
M  V30 32801 C 3128.21 3.68571 -4.87441 0
M  V30 32802 C 3129.21 3.54906 -5.8355 0
M  V30 32803 O 3128.89 3.6509 -7.16216 0
M  V30 32804 H 3128.63 0.557782 -0.381911 0
M  V30 32805 H 3131.18 1.2421 -1.63588 0
M  V30 32806 H 3129.41 3.72547 -1.03659 0
M  V30 32807 H 3131.1 3.79106 -1.4503 0
M  V30 32808 H 3131.86 3.00576 -3.8063 0
M  V30 32809 H 3127.74 3.67724 -2.78029 0
M  V30 32810 H 3131.29 3.19917 -6.19918 0
M  V30 32811 H 3127.18 3.87256 -5.16433 0
M  V30 32812 H 3127.95 3.81893 -7.23948 0
M  V30 32813 N 3130.62 1.04444 1.18022 0
M  V30 32814 C 3131.86 0.751166 1.88376 0
M  V30 32815 C 3132.19 -0.719539 1.80378 0
M  V30 32816 O 3131.47 -1.52546 1.20665 0
M  V30 32817 C 3131.75 1.22271 3.38706 0
M  V30 32818 C 3131.61 2.7558 3.55494 0
M  V30 32819 C 3132.92 0.815764 4.32473 0
M  V30 32820 H 3130.04 0.274352 0.684032 0
M  V30 32821 H 3132.69 1.29711 1.38835 0
M  V30 32822 H 3130.84 0.758259 3.81028 0
M  V30 32823 H 3132.51 3.30092 3.22238 0
M  V30 32824 H 3130.75 3.15222 2.98023 0
M  V30 32825 H 3131.42 3.03634 4.60989 0
M  V30 32826 H 3133.9 1.21549 3.97951 0
M  V30 32827 H 3132.77 1.17341 5.36211 0
M  V30 32828 H 3133.03 -0.280823 4.41207 0
M  V30 32829 N 3132.09 -1.34317 0.824418 0
M  V30 32830 C 3133.04 -2.29493 0.245322 0
M  V30 32831 C 3134.01 -1.53659 -0.630735 0
M  V30 32832 O 3135.2 -1.82022 -0.572062 0
M  V30 32833 C 3132.34 -3.40096 -0.585572 0
M  V30 32834 C 3131.45 -4.30865 0.312897 0
M  V30 32835 C 3130.58 -5.28572 -0.527708 0
M  V30 32836 C 3129.62 -6.1098 0.370054 0
M  V30 32837 N 3128.76 -7.00772 -0.431566 0
M  V30 32838 H 3133.6 -2.78423 1.0623 0
M  V30 32839 H 3131.14 -1.37012 0.535354 0
M  V30 32840 H 3133.09 -4.02908 -1.08264 0
M  V30 32841 H 3131.72 -2.92396 -1.36765 0
M  V30 32842 H 3130.78 -3.68902 0.928194 0
M  V30 32843 H 3132.09 -4.88609 1.00315 0
M  V30 32844 H 3131.24 -5.96843 -1.0892 0
M  V30 32845 H 3129.98 -4.7137 -1.25146 0
M  V30 32846 H 3128.99 -5.41641 0.943672 0
M  V30 32847 H 3130.21 -6.70264 1.09194 0
M  V30 32848 H 3128.16 -6.46037 -1.13896 0
M  V30 32849 H 3128.07 -7.55735 0.200266 0
M  V30 32850 H 3129.34 -7.73369 -0.975759 0
M  V30 32851 N 3133.57 -0.579517 -1.46558 0
M  V30 32852 C 3134.98 -0.152084 -1.8608 0
M  V30 32853 C 3135.33 1.28402 -1.48348 0
M  V30 32854 O 3134.46 1.96939 -0.896885 0
M  V30 32855 C 3135.05 -0.26923 -3.37729 0
M  V30 32856 C 3133.61 0.10331 -3.76258 0
M  V30 32857 C 3132.76 -0.606638 -2.70583 0
M  V30 32858 H 3135.71 -0.787928 -1.37758 0
M  V30 32859 H 3135.73 0.506273 -3.77117 0
M  V30 32860 H 3135.24 -1.31455 -3.65159 0
M  V30 32861 H 3133.34 1.14889 -3.54445 0
M  V30 32862 H 3133.46 -0.270785 -4.78334 0
M  V30 32863 H 3131.82 -0.0472431 -2.54656 0
M  V30 32864 H 3132.6 -1.65354 -3.00853 0
M  V30 32865 N 3135.05 1.54376 -0.317127 0
M  V30 32866 C 3136.3 2.00451 0.287375 0
M  V30 32867 C 3136.63 1.20538 1.52646 0
M  V30 32868 O 3135.88 0.273865 1.93774 0
M  V30 32869 C 3136.18 3.51009 0.672855 0
M  V30 32870 C 3135.85 4.48482 -0.466324 0
M  V30 32871 C 3134.51 4.74852 -0.779016 0
M  V30 32872 C 3136.86 5.06434 -1.23185 0
M  V30 32873 C 3134.19 5.56434 -1.86007 0
M  V30 32874 C 3136.54 5.89192 -2.30294 0
M  V30 32875 C 3135.2 6.13867 -2.62152 0
M  V30 32876 H 3134.47 0.7335 0.105158 0
M  V30 32877 H 3137.12 1.86387 -0.439571 0
M  V30 32878 H 3135.43 3.62766 1.48013 0
M  V30 32879 H 3137.12 3.84096 1.15202 0
M  V30 32880 H 3133.71 4.28073 -0.212524 0
M  V30 32881 H 3137.9 4.86048 -1.00353 0
M  V30 32882 H 3133.15 5.73784 -2.11144 0
M  V30 32883 H 3137.33 6.33118 -2.90059 0
M  V30 32884 H 3134.95 6.76871 -3.46049 0
M  V30 32885 N 3136.53 0.0451655 1.57535 0
M  V30 32886 C 3137.46 -0.929334 2.14209 0
M  V30 32887 C 3138.44 -1.32856 1.06223 0
M  V30 32888 O 3139.62 -1.40434 1.34134 0
M  V30 32889 C 3136.75 -2.20624 2.68221 0
M  V30 32890 C 3135.71 -1.94727 3.81137 0
M  V30 32891 C 3135.03 -3.2882 4.21641 0
M  V30 32892 C 3136.33 -1.27365 5.06533 0
M  V30 32893 H 3138.03 -0.457296 2.95887 0
M  V30 32894 H 3135.57 -0.218519 1.42332 0
M  V30 32895 H 3137.53 -2.89191 3.06507 0
M  V30 32896 H 3136.25 -2.70022 1.83727 0
M  V30 32897 H 3134.91 -1.28573 3.43314 0
M  V30 32898 H 3134.56 -3.76008 3.34106 0
M  V30 32899 H 3134.26 -3.12293 4.97742 0
M  V30 32900 H 3135.78 -3.98629 4.62523 0
M  V30 32901 H 3137.2 -1.85957 5.42303 0
M  V30 32902 H 3135.59 -1.21184 5.87737 0
M  V30 32903 H 3136.66 -0.248827 4.84261 0
M  V30 32904 N 3138.01 -1.5594 -0.228159 0
M  V30 32905 C 3139.25 -1.78293 -0.951637 0
M  V30 32906 C 3139.58 -0.612507 -1.85131 0
M  V30 32907 O 3138.85 0.370908 -1.92357 0
M  V30 32908 H 3137.43 -0.657591 -0.354376 0
M  V30 32909 H 3140.09 -1.93397 -0.241601 0
M  V30 32910 H 3139.18 -2.7018 -1.56234 0
M  V30 32911 N 3139.48 0.494597 -1.49638 0
M  V30 32912 C 3140.42 1.61228 -1.62905 0
M  V30 32913 C 3141.43 1.54557 -0.511452 0
M  V30 32914 O 3142.62 1.60373 -0.783753 0
M  V30 32915 C 3139.72 3.00042 -1.57569 0
M  V30 32916 C 3138.89 3.3183 -2.8497 0
M  V30 32917 C 3137.95 4.50085 -2.72599 0
M  V30 32918 O 3136.98 4.51552 -3.4654 0
M  V30 32919 N 3138.18 5.50376 -1.84573 0
M  V30 32920 H 3140.94 1.50272 -2.59304 0
M  V30 32921 H 3138.5 0.682594 -1.46807 0
M  V30 32922 H 3140.5 3.77082 -1.46938 0
M  V30 32923 H 3139.07 3.04889 -0.690027 0
M  V30 32924 H 3138.29 2.43625 -3.09904 0
M  V30 32925 H 3139.57 3.49868 -3.69418 0
M  V30 32926 H 3138.97 5.51995 -1.23768 0
M  V30 32927 H 3137.53 6.26493 -1.7986 0
M  V30 32928 N 3140.96 1.3882 0.746109 0
M  V30 32929 C 3141.93 1.36441 1.84165 0
M  V30 32930 C 3142.93 0.263527 1.58626 0
M  V30 32931 O 3144.12 0.52083 1.66232 0
M  V30 32932 C 3141.25 1.12601 3.21767 0
M  V30 32933 H 3142.44 2.33915 1.8768 0
M  V30 32934 H 3139.99 1.24222 0.948603 0
M  V30 32935 H 3140.73 0.157637 3.23917 0
M  V30 32936 H 3140.51 1.92313 3.41699 0
M  V30 32937 H 3142 1.1365 4.01838 0
M  V30 32938 N 3142.44 -0.975103 1.23812 0
M  V30 32939 C 3143.4 -2.04999 1.02509 0
M  V30 32940 C 3144.4 -1.60793 -0.0149801 0
M  V30 32941 O 3145.59 -1.72737 0.225277 0
M  V30 32942 C 3142.73 -3.36399 0.552146 0
M  V30 32943 H 3143.92 -2.25331 1.97904 0
M  V30 32944 H 3141.47 -1.14928 1.05931 0
M  V30 32945 H 3142.21 -3.21757 -0.405337 0
M  V30 32946 H 3141.99 -3.69826 1.30274 0
M  V30 32947 H 3143.48 -4.15443 0.423901 0
M  V30 32948 N 3143.92 -1.05068 -1.17467 0
M  V30 32949 C 3145.17 -0.755147 -1.87031 0
M  V30 32950 C 3145.48 0.72054 -1.81845 0
M  V30 32951 O 3146.69 1.12998 -2.46868 0
M  V30 32952 C 3145.14 -1.30058 -3.35578 0
M  V30 32953 C 3144.75 -2.80562 -3.49269 0
M  V30 32954 C 3146.49 -1.08203 -4.10478 0
M  V30 32955 C 3144.4 -3.28413 -4.91832 0
M  V30 32956 H 3143.33 -0.278792 -0.700565 0
M  V30 32957 H 3145.98 -1.26781 -1.3266 0
M  V30 32958 H 3144.36 -0.715736 -3.89478 0
M  V30 32959 H 3145.54 -3.44891 -3.05592 0
M  V30 32960 H 3143.85 -3.00944 -2.87788 0
M  V30 32961 H 3146.45 -1.41456 -5.15649 0
M  V30 32962 H 3146.79 -0.0197334 -4.16295 0
M  V30 32963 H 3147.33 -1.63202 -3.62781 0
M  V30 32964 H 3144.07 -4.34067 -4.91189 0
M  V30 32965 H 3143.59 -2.68825 -5.36184 0
M  V30 32966 H 3145.26 -3.23019 -5.60596 0
M  V30 32967 N 3145.4 1.33878 -0.831529 0
M  V30 32968 C 3146.62 2.02233 -0.436961 0
M  V30 32969 C 3147.04 1.62591 0.95966 0
M  V30 32970 O 3146.4 0.835605 1.62246 0
M  V30 32971 C 3146.45 3.57452 -0.539492 0
M  V30 32972 O 3146.17 3.9566 -1.88108 0
M  V30 32973 C 3147.67 4.43076 -0.14093 0
M  V30 32974 H 3144.89 0.647963 -0.174314 0
M  V30 32975 H 3147.43 1.70967 -1.12207 0
M  V30 32976 H 3145.59 3.87277 0.0976279 0
M  V30 32977 H 3146 4.90359 -1.8614 0
M  V30 32978 H 3147.48 5.5137 -0.263736 0
M  V30 32979 H 3147.95 4.29533 0.91643 0
M  V30 32980 H 3148.56 4.18595 -0.752191 0
M  V30 32981 N 3146.87 0.587281 1.46249 0
M  V30 32982 C 3148.1 0.0803664 2.06744 0
M  V30 32983 C 3148.52 -1.22657 1.43529 0
M  V30 32984 O 3147.87 -1.7426 0.542199 0
M  V30 32985 C 3147.93 -0.0872834 3.61395 0
M  V30 32986 O 3147.65 1.16793 4.22245 0
M  V30 32987 C 3149.15 -0.628018 4.38829 0
M  V30 32988 H 3146.37 0.0595419 0.668353 0
M  V30 32989 H 3148.91 0.80925 1.87807 0
M  V30 32990 H 3147.07 -0.766407 3.79743 0
M  V30 32991 H 3147.48 0.984656 5.15175 0
M  V30 32992 H 3148.95 -0.694487 5.47614 0
M  V30 32993 H 3149.43 -1.64598 4.0719 0
M  V30 32994 H 3150.04 0.0163862 4.25297 0
M  V30 32995 N 3148.35 -1.54206 0.325309 0
M  V30 32996 C 3149.58 -2.05482 -0.281382 0
M  V30 32997 C 3150 -1.1998 -1.44867 0
M  V30 32998 O 3149.36 -0.209306 -1.80088 0
M  V30 32999 C 3149.41 -3.53899 -0.691967 0
M  V30 33000 O 3148.51 -3.71328 -1.79414 0
M  V30 33001 H 3147.85 -0.662079 -0.0504756 0
M  V30 33002 H 3150.38 -1.99028 0.474226 0
M  V30 33003 H 3150.39 -3.962 -0.974149 0
M  V30 33004 H 3149.07 -4.15585 0.161783 0
M  V30 33005 H 3147.65 -3.40932 -1.51063 0
M  V30 33006 N 3149.83 -0.0535194 -1.57509 0
M  V30 33007 C 3150.78 0.937893 -2.12853 0
M  V30 33008 C 3151.77 1.32065 -1.0609 0
M  V30 33009 O 3152.98 1.30003 -1.24496 0
M  V30 33010 H 3149.35 0.32033 -0.680362 0
M  V30 33011 H 3151.33 0.446025 -2.95048 0
M  V30 33012 C 3150.07 2.20259 -2.69038 0
M  V30 33013 H 3149.4 1.91686 -3.50851 0
M  V30 33014 H 3150.84 2.87782 -3.1138 0
M  V30 33015 C 3149.3 2.94885 -1.62925 0
M  V30 33016 O 3149.83 3.87912 -1.04341 0
M  V30 33017 N 3148.03 2.57658 -1.34389 0
M  V30 33018 H 3147.58 1.82084 -1.82217 0
M  V30 33019 H 3147.54 3.07896 -0.636203 0
M  V30 33020 N 3151.31 1.56059 0.219886 0
M  V30 33021 C 3152.55 1.80925 0.951082 0
M  V30 33022 C 3152.91 0.627279 1.81464 0
M  V30 33023 O 3154.11 0.755282 2.57971 0
M  V30 33024 C 3152.39 3.10694 1.76647 0
M  V30 33025 S 3153.94 3.5688 2.55307 0
M  V30 33026 H 3150.76 0.635195 0.31945 0
M  V30 33027 H 3153.36 1.94297 0.216517 0
M  V30 33028 H 3152.07 3.94758 1.12224 0
M  V30 33029 H 3151.6 3.00133 2.5433 0
M  V30 33030 H 3153.61 3.2035 3.78933 0
M  V30 33031 N 3152.79 -0.486655 1.49898 0
M  V30 33032 C 3153.75 -1.56888 1.67089 0
M  V30 33033 C 3154.75 -1.51386 0.542117 0
M  V30 33034 O 3155.94 -1.54283 0.808858 0
M  V30 33035 C 3153.07 -2.96536 1.68165 0
M  V30 33036 H 3154.27 -1.42969 2.63628 0
M  V30 33037 H 3151.82 -0.71193 1.39145 0
M  V30 33038 H 3152.55 -3.15916 0.732618 0
M  V30 33039 H 3152.34 -3.01937 2.50153 0
M  V30 33040 H 3153.83 -3.75137 1.83472 0
M  V30 33041 N 3154.27 -1.39214 -0.738737 0
M  V30 33042 C 3155.21 -1.37635 -1.85271 0
M  V30 33043 C 3156.18 -0.236601 -1.64406 0
M  V30 33044 O 3157.37 -0.431136 -1.85865 0
M  V30 33045 C 3154.51 -1.22193 -3.22743 0
M  V30 33046 C 3153.62 -2.45681 -3.55338 0
M  V30 33047 C 3152.76 -2.22856 -4.82192 0
M  V30 33048 C 3151.79 -3.42038 -5.07619 0
M  V30 33049 N 3150.93 -3.18554 -6.25674 0
M  V30 33050 H 3155.77 -2.32862 -1.85955 0
M  V30 33051 H 3153.31 -1.15677 -0.908696 0
M  V30 33052 H 3155.27 -1.11253 -4.02093 0
M  V30 33053 H 3153.9 -0.305977 -3.21347 0
M  V30 33054 H 3152.95 -2.67238 -2.70717 0
M  V30 33055 H 3154.26 -3.34463 -3.70048 0
M  V30 33056 H 3153.41 -2.09136 -5.69515 0
M  V30 33057 H 3152.15 -1.31462 -4.69648 0
M  V30 33058 H 3151.16 -3.5626 -4.18759 0
M  V30 33059 H 3152.38 -4.34328 -5.2205 0
M  V30 33060 H 3150.33 -2.29821 -6.14425 0
M  V30 33061 H 3150.25 -4.00892 -6.40954 0
M  V30 33062 H 3151.51 -3.0852 -7.15846 0
M  V30 33063 N 3155.74 0.968523 -1.24328 0
M  V30 33064 C 3157.16 1.23699 -1.00849 0
M  V30 33065 C 3157.36 1.995 0.2832 0
M  V30 33066 O 3156.42 2.31873 0.999567 0
M  V30 33067 C 3157.73 2.02494 -2.22299 0
M  V30 33068 C 3159.28 2.15589 -2.26915 0
M  V30 33069 C 3159.75 2.97778 -3.47983 0
M  V30 33070 N 3161.24 3.05361 -3.48295 0
M  V30 33071 C 3161.98 3.69311 -4.38631 0
M  V30 33072 N 3161.47 4.34986 -5.39221 0
M  V30 33073 N 3163.27 3.66314 -4.26345 0
M  V30 33074 H 3155.42 0.461051 -2.07336 0
M  V30 33075 H 3157.68 0.266364 -0.90981 0
M  V30 33076 H 3157.39 1.54183 -3.16102 0
M  V30 33077 H 3157.26 3.03228 -2.2435 0
M  V30 33078 H 3159.65 2.63104 -1.33643 0
M  V30 33079 H 3159.73 1.14205 -2.2889 0
M  V30 33080 H 3159.37 2.50958 -4.41568 0
M  V30 33081 H 3159.3 3.99358 -3.43251 0
M  V30 33082 H 3161.79 2.58643 -2.75522 0
M  V30 33083 H 3162.11 4.81598 -6.04387 0
M  V30 33084 H 3160.45 4.33657 -5.43108 0
M  V30 33085 H 3163.64 3.14183 -3.46997 0
M  V30 33086 H 3163.82 4.1587 -4.96947 0
M  V30 33087 N 3157.22 1.0569 1.16908 0
M  V30 33088 C 3158.15 0.683442 2.23274 0
M  V30 33089 C 3159.13 -0.321176 1.6704 0
M  V30 33090 O 3160.32 -0.197657 1.93192 0
M  V30 33091 C 3157.45 0.0626616 3.47243 0
M  V30 33092 C 3156.4 0.992586 4.16331 0
M  V30 33093 C 3155.73 0.235424 5.34181 0
M  V30 33094 C 3157.03 2.31894 4.67998 0
M  V30 33095 H 3158.72 1.57269 2.54768 0
M  V30 33096 H 3156.27 0.757627 1.22458 0
M  V30 33097 H 3158.22 -0.210429 4.20874 0
M  V30 33098 H 3156.94 -0.861561 3.15031 0
M  V30 33099 H 3155.6 1.25032 3.44619 0
M  V30 33100 H 3155.25 -0.691722 4.98221 0
M  V30 33101 H 3154.95 0.855104 5.81345 0
M  V30 33102 H 3156.48 -0.0302644 6.10592 0
M  V30 33103 H 3157.89 2.10541 5.33241 0
M  V30 33104 H 3156.29 2.89305 5.25759 0
M  V30 33105 H 3157.36 2.95398 3.84536 0
M  V30 33106 N 3158.7 -1.33435 0.838617 0
M  V30 33107 C 3159.66 -2.27521 0.276883 0
M  V30 33108 C 3160.66 -1.50946 -0.554249 0
M  V30 33109 O 3161.85 -1.70267 -0.368077 0
M  V30 33110 C 3158.98 -3.35398 -0.609977 0
M  V30 33111 H 3160.18 -2.78717 1.1071 0
M  V30 33112 H 3157.73 -1.43834 0.611682 0
M  V30 33113 H 3158.47 -2.89443 -1.46264 0
M  V30 33114 H 3158.25 -3.92097 -0.0152926 0
M  V30 33115 H 3159.74 -4.05541 -0.996297 0
M  V30 33116 N 3160.18 -0.595029 -1.45935 0
M  V30 33117 C 3161.11 0.169096 -2.28575 0
M  V30 33118 C 3162.12 0.843767 -1.39228 0
M  V30 33119 O 3163.31 0.711262 -1.63717 0
M  V30 33120 C 3160.41 1.2597 -3.14618 0
M  V30 33121 C 3159.58 0.674584 -4.32167 0
M  V30 33122 C 3158.64 1.65447 -4.99514 0
M  V30 33123 O 3157.67 1.18568 -5.56714 0
M  V30 33124 N 3158.87 2.98876 -4.97648 0
M  V30 33125 H 3161.64 -0.53996 -2.94796 0
M  V30 33126 H 3159.2 -0.433642 -1.55984 0
M  V30 33127 H 3161.19 1.91477 -3.56537 0
M  V30 33128 H 3159.76 1.87145 -2.5039 0
M  V30 33129 H 3158.98 -0.158253 -3.93882 0
M  V30 33130 H 3160.27 0.263663 -5.08116 0
M  V30 33131 H 3159.67 3.39575 -4.52444 0
M  V30 33132 H 3158.22 3.59839 -5.4347 0
M  V30 33133 N 3161.66 1.54031 -0.333483 0
M  V30 33134 C 3163.07 1.59589 0.0188125 0
M  V30 33135 C 3163.27 1.34975 1.49613 0
M  V30 33136 O 3162.33 1.13905 2.25348 0
M  V30 33137 C 3163.64 2.97915 -0.408325 0
M  V30 33138 C 3165.19 3.10925 -0.359818 0
M  V30 33139 C 3165.66 4.51612 -0.762269 0
M  V30 33140 N 3167.15 4.57632 -0.716061 0
M  V30 33141 C 3167.89 5.64621 -0.999536 0
M  V30 33142 N 3167.39 6.79507 -1.35065 0
M  V30 33143 N 3169.18 5.54446 -0.92444 0
M  V30 33144 H 3161.33 1.68286 -1.2959 0
M  V30 33145 H 3163.59 0.78762 -0.527598 0
M  V30 33146 H 3163.3 3.20959 -1.43799 0
M  V30 33147 H 3163.17 3.76548 0.221619 0
M  V30 33148 H 3165.56 2.8761 0.660652 0
M  V30 33149 H 3165.64 2.34373 -1.02483 0
M  V30 33150 H 3165.28 4.75661 -1.7807 0
M  V30 33151 H 3165.21 5.26547 -0.0748403 0
M  V30 33152 H 3167.71 3.75127 -0.456941 0
M  V30 33153 H 3168.02 7.57054 -1.55207 0
M  V30 33154 H 3166.36 6.80978 -1.38901 0
M  V30 33155 H 3169.55 4.63571 -0.649551 0
M  V30 33156 H 3169.73 6.37737 -1.14871 0
M  V30 33157 N 3163.13 0.0618717 1.57479 0
M  V30 33158 C 3164.38 -0.610409 1.93396 0
M  V30 33159 C 3164.71 -1.69859 0.941364 0
M  V30 33160 O 3163.99 -1.94475 -0.030992 0
M  V30 33161 C 3164.27 -1.19658 3.39638 0
M  V30 33162 C 3164.12 -0.115726 4.49651 0
M  V30 33163 C 3165.44 -2.10505 3.86491 0
M  V30 33164 H 3162.56 -0.220424 0.703265 0
M  V30 33165 H 3165.2 0.125819 1.89583 0
M  V30 33166 H 3163.35 -1.82403 3.43018 0
M  V30 33167 H 3165.03 0.516809 4.58396 0
M  V30 33168 H 3163.27 0.554905 4.30236 0
M  V30 33169 H 3163.94 -0.566079 5.4909 0
M  V30 33170 H 3166.42 -1.57708 3.85055 0
M  V30 33171 H 3165.29 -2.48458 4.89449 0
M  V30 33172 H 3165.55 -3.00942 3.23862 0
M  V30 33173 N 3164.61 -1.56173 -0.211607 0
M  V30 33174 C 3165.86 -1.79647 -0.934519 0
M  V30 33175 C 3166.19 -0.632327 -1.83934 0
M  V30 33176 O 3165.44 0.382807 -1.91919 0
M  V30 33177 C 3165.74 -3.08966 -1.79651 0
M  V30 33178 C 3165.41 -4.38645 -1.04408 0
M  V30 33179 C 3164.07 -4.73878 -0.836268 0
M  V30 33180 C 3166.42 -5.18665 -0.513459 0
M  V30 33181 C 3163.75 -5.86637 -0.0860944 0
M  V30 33182 C 3166.1 -6.32205 0.22342 0
M  V30 33183 C 3164.77 -6.66032 0.442396 0
M  V30 33184 H 3164.04 -0.657374 -0.341965 0
M  V30 33185 H 3166.68 -1.90432 -0.201991 0
M  V30 33186 H 3164.99 -2.93347 -2.59721 0
M  V30 33187 H 3166.68 -3.24332 -2.35817 0
M  V30 33188 H 3163.27 -4.10987 -1.21604 0
M  V30 33189 H 3167.46 -4.91872 -0.661454 0
M  V30 33190 H 3162.71 -6.11328 0.0936941 0
M  V30 33191 H 3166.89 -6.93434 0.642039 0
M  V30 33192 H 3164.52 -7.5325 1.0256 0
M  V30 33193 N 3166.09 0.478699 -1.50154 0
M  V30 33194 C 3167.04 1.59841 -1.68978 0
M  V30 33195 C 3168.03 1.60029 -0.555619 0
M  V30 33196 O 3169.24 1.64269 -0.735904 0
M  V30 33197 H 3165.61 0.530264 -0.53322 0
M  V30 33198 H 3167.58 1.41124 -2.62919 0
M  V30 33199 C 3166.33 2.97835 -1.79414 0
M  V30 33200 H 3165.66 2.98406 -2.66071 0
M  V30 33201 H 3167.1 3.75659 -1.96613 0
M  V30 33202 C 3165.56 3.32479 -0.543985 0
M  V30 33203 O 3166.09 4.00421 0.320305 0
M  V30 33204 N 3164.29 2.8783 -0.400268 0
M  V30 33205 H 3163.84 2.32714 -1.10462 0
M  V30 33206 H 3163.8 3.11375 0.435057 0
M  V30 33207 N 3167.57 1.39603 0.731343 0
M  V30 33208 C 3168.52 1.38765 1.86674 0
M  V30 33209 C 3169.51 0.270277 1.6723 0
M  V30 33210 O 3170.72 0.440502 1.74527 0
M  V30 33211 H 3167.09 0.433402 0.614546 0
M  V30 33212 H 3169.06 2.34528 1.84497 0
M  V30 33213 C 3167.81 1.25161 3.24392 0
M  V30 33214 H 3167.13 2.10412 3.39951 0
M  V30 33215 H 3168.57 1.28632 4.04017 0
M  V30 33216 C 3167.03 -0.0396384 3.36877 0
M  V30 33217 O 3167.56 -1.00847 3.88835 0
M  V30 33218 N 3165.77 -0.103914 2.90414 0
M  V30 33219 H 3165.32 0.685198 2.4832 0
M  V30 33220 H 3165.27 -0.967382 2.99147 0
M  V30 33221 N 3169.05 -0.961916 1.2484 0
M  V30 33222 C 3170.28 -1.73793 1.11712 0
M  V30 33223 C 3170.68 -1.86254 -0.332597 0
M  V30 33224 O 3170.03 -1.35445 -1.24098 0
M  V30 33225 C 3170.09 -3.17319 1.68965 0
M  V30 33226 C 3169.75 -3.28311 3.17901 0
M  V30 33227 C 3170.75 -3.13188 4.14981 0
M  V30 33228 C 3168.44 -3.52366 3.57972 0
M  V30 33229 C 3170.43 -3.21955 5.50112 0
M  V30 33230 C 3168.12 -3.6077 4.93243 0
M  V30 33231 C 3169.11 -3.45577 5.89122 0
M  V30 33232 O 3168.8 -3.53649 7.21933 0
M  V30 33233 H 3168.53 -0.551635 0.390736 0
M  V30 33234 H 3171.09 -1.21591 1.65544 0
M  V30 33235 H 3169.32 -3.70851 1.09573 0
M  V30 33236 H 3171.01 -3.7675 1.51043 0
M  V30 33237 H 3171.77 -2.94482 3.85364 0
M  V30 33238 H 3167.65 -3.63254 2.83844 0
M  V30 33239 H 3171.2 -3.10014 6.24929 0
M  V30 33240 H 3167.09 -3.78991 5.22529 0
M  V30 33241 H 3167.86 -3.70327 7.29932 0
M  V30 33242 N 3170.52 -1.06308 -1.16346 0
M  V30 33243 C 3171.46 -0.618235 -2.19666 0
M  V30 33244 C 3172.44 0.35905 -1.58586 0
M  V30 33245 O 3173.62 0.26799 -1.86585 0
M  V30 33246 C 3170.75 0.0936496 -3.38571 0
M  V30 33247 C 3169.79 -0.840413 -4.18138 0
M  V30 33248 S 3170.63 -2.33573 -4.81875 0
M  V30 33249 C 3171.78 -1.63534 -6.04158 0
M  V30 33250 H 3172.01 -1.49357 -2.5706 0
M  V30 33251 H 3169.55 -0.876068 -1.27139 0
M  V30 33252 H 3171.51 0.498156 -4.07466 0
M  V30 33253 H 3170.17 0.945178 -2.99542 0
M  V30 33254 H 3169.36 -0.288869 -5.03171 0
M  V30 33255 H 3168.96 -1.18481 -3.54737 0
M  V30 33256 H 3171.25 -0.941022 -6.70933 0
M  V30 33257 H 3172.2 -2.46359 -6.63862 0
M  V30 33258 H 3172.6 -1.11787 -5.53321 0
M  V30 33259 N 3172 1.32989 -0.845682 0
M  V30 33260 C 3173.41 1.79866 -0.500512 0
M  V30 33261 C 3173.76 1.69914 0.980997 0
M  V30 33262 O 3172.89 1.25242 1.76475 0
M  V30 33263 C 3173.48 3.26579 -0.901737 0
M  V30 33264 C 3172.04 3.71447 -0.608602 0
M  V30 33265 C 3171.19 2.54273 -1.10637 0
M  V30 33266 H 3174.14 1.20414 -1.03374 0
M  V30 33267 H 3174.16 3.79895 -0.2145 0
M  V30 33268 H 3173.67 3.3379 -1.98004 0
M  V30 33269 H 3171.78 3.69758 0.459351 0
M  V30 33270 H 3171.89 4.64629 -1.16861 0
M  V30 33271 H 3170.25 2.49189 -0.526969 0
M  V30 33272 H 3171.04 2.64243 -2.19159 0
M  V30 33273 N 3173.48 0.60276 1.45618 0
M  V30 33274 C 3174.71 0.102141 2.06347 0
M  V30 33275 C 3175.12 -1.21675 1.44886 0
M  V30 33276 O 3174.46 -1.75097 0.55559 0
M  V30 33277 C 3174.52 -0.116963 3.5931 0
M  V30 33278 C 3174.19 1.11938 4.43079 0
M  V30 33279 C 3175.18 2.03636 4.7836 0
M  V30 33280 C 3172.87 1.34686 4.83906 0
M  V30 33281 C 3174.86 3.16412 5.53319 0
M  V30 33282 C 3172.55 2.47764 5.5862 0
M  V30 33283 C 3173.55 3.38456 5.93243 0
M  V30 33284 O 3173.24 4.49567 6.66442 0
M  V30 33285 H 3172.97 0.0637596 0.672986 0
M  V30 33286 H 3175.52 0.829016 1.87927 0
M  V30 33287 H 3173.75 -0.898676 3.76113 0
M  V30 33288 H 3175.44 -0.568578 4.01898 0
M  V30 33289 H 3176.21 1.87285 4.4738 0
M  V30 33290 H 3172.09 0.649955 4.56395 0
M  V30 33291 H 3175.63 3.87224 5.80261 0
M  V30 33292 H 3171.53 2.64069 5.89014 0
M  V30 33293 H 3172.3 4.48187 6.84887 0
M  V30 33294 N 3174.96 -1.53852 0.341647 0
M  V30 33295 C 3176.2 -2.0118 -0.255827 0
M  V30 33296 C 3176.54 -1.22912 -1.50354 0
M  V30 33297 O 3175.81 -0.316232 -1.91912 0
M  V30 33298 C 3176.1 -3.5553 -0.571871 0
M  V30 33299 C 3175.95 -4.4451 0.687805 0
M  V30 33300 C 3177.27 -4.1783 -1.38225 0
M  V30 33301 H 3174.39 -0.731297 -0.0915081 0
M  V30 33302 H 3177.03 -1.84302 0.461808 0
M  V30 33303 H 3175.18 -3.70043 -1.18324 0
M  V30 33304 H 3176.85 -4.41837 1.3258 0
M  V30 33305 H 3175.09 -4.1345 1.31308 0
M  V30 33306 H 3175.76 -5.50385 0.421955 0
M  V30 33307 H 3178.24 -4.07003 -0.865303 0
M  V30 33308 H 3177.12 -5.25904 -1.57214 0
M  V30 33309 H 3177.38 -3.72327 -2.38379 0
M  V30 33310 N 3176.44 -0.0702223 -1.57443 0
M  V30 33311 C 3177.68 0.599256 -1.9343 0
M  V30 33312 C 3178.01 1.69714 -0.95013 0
M  V30 33313 O 3177.27 1.9567 0.0345033 0
M  V30 33314 C 3177.57 1.21688 -3.36046 0
M  V30 33315 C 3177.23 0.245294 -4.50232 0
M  V30 33316 C 3175.89 -0.0220007 -4.81195 0
M  V30 33317 C 3178.25 -0.419487 -5.19509 0
M  V30 33318 C 3175.57 -0.961192 -5.78773 0
M  V30 33319 C 3177.93 -1.34699 -6.18093 0
M  V30 33320 C 3176.59 -1.62277 -6.47474 0
M  V30 33321 H 3175.86 0.219283 -0.707811 0
M  V30 33322 H 3178.51 -0.140763 -1.90982 0
M  V30 33323 H 3176.81 2.0326 -3.34952 0
M  V30 33324 H 3178.51 1.74215 -3.61179 0
M  V30 33325 H 3175.1 0.463812 -4.26083 0
M  V30 33326 H 3179.28 -0.226096 -4.95785 0
M  V30 33327 H 3174.54 -1.18212 -5.99863 0
M  V30 33328 H 3178.71 -1.86807 -6.70877 0
M  V30 33329 H 3176.34 -2.35213 -7.22896 0
M  V30 33330 N 3177.91 1.56283 0.203321 0
M  V30 33331 C 3179.14 1.84243 0.941394 0
M  V30 33332 C 3179.56 0.651689 1.77196 0
M  V30 33333 O 3178.91 -0.379681 1.78507 0
M  V30 33334 C 3178.97 3.10919 1.84423 0
M  V30 33335 O 3178.69 4.254 1.04721 0
M  V30 33336 C 3180.19 3.51997 2.69467 0
M  V30 33337 H 3177.41 0.612032 0.27506 0
M  V30 33338 H 3179.95 2.03387 0.213053 0
M  V30 33339 H 3178.11 2.93696 2.5263 0
M  V30 33340 H 3178.52 4.97481 1.6617 0
M  V30 33341 H 3179.99 4.43622 3.28487 0
M  V30 33342 H 3180.47 2.74601 3.4277 0
M  V30 33343 H 3181.08 3.71723 2.06645 0
M  V30 33344 N 3179.39 -0.470729 1.50406 0
M  V30 33345 C 3180.32 -1.57673 1.72225 0
M  V30 33346 C 3181.3 -1.60221 0.571238 0
M  V30 33347 O 3182.49 -1.76482 0.810412 0
M  V30 33348 C 3179.62 -2.95994 1.81672 0
M  V30 33349 C 3178.57 -3.08312 2.96863 0
M  V30 33350 C 3177.9 -4.48285 2.91453 0
M  V30 33351 C 3179.2 -2.85496 4.37366 0
M  V30 33352 H 3180.89 -1.39666 2.64828 0
M  V30 33353 H 3178.44 -0.670468 1.27439 0
M  V30 33354 H 3180.39 -3.73296 1.95521 0
M  V30 33355 H 3179.12 -3.15158 0.856912 0
M  V30 33356 H 3177.78 -2.33444 2.82665 0
M  V30 33357 H 3177.42 -4.64368 1.93318 0
M  V30 33358 H 3177.12 -4.57462 3.68784 0
M  V30 33359 H 3178.65 -5.27606 3.07351 0
M  V30 33360 H 3180.06 -3.52548 4.52088 0
M  V30 33361 H 3178.46 -3.06118 5.16151 0
M  V30 33362 H 3179.53 -1.81351 4.49711 0
M  V30 33363 N 3180.87 -1.39989 -0.72393 0
M  V30 33364 C 3181.8 -1.42338 -1.851 0
M  V30 33365 C 3182.78 -0.285327 -1.6769 0
M  V30 33366 O 3183.97 -0.492749 -1.87845 0
M  V30 33367 C 3181.1 -1.27703 -3.22969 0
M  V30 33368 C 3180.05 -2.39024 -3.55037 0
M  V30 33369 C 3179.38 -2.09471 -4.91961 0
M  V30 33370 C 3180.68 -3.81356 -3.56882 0
M  V30 33371 H 3182.37 -2.3666 -1.83392 0
M  V30 33372 H 3179.92 -1.13912 -0.880906 0
M  V30 33373 H 3181.87 -1.27965 -4.01501 0
M  V30 33374 H 3180.59 -0.298544 -3.25233 0
M  V30 33375 H 3179.25 -2.37998 -2.78841 0
M  V30 33376 H 3178.9 -1.10033 -4.90817 0
M  V30 33377 H 3178.6 -2.84047 -5.14384 0
M  V30 33378 H 3180.13 -2.11401 -5.72837 0
M  V30 33379 H 3181.54 -3.84251 -4.25469 0
M  V30 33380 H 3179.94 -4.55383 -3.90828 0
M  V30 33381 H 3181.01 -4.11538 -2.56445 0
M  V30 33382 N 3182.35 0.955282 -1.25348 0
M  V30 33383 C 3183.6 1.69981 -1.10057 0
M  V30 33384 C 3183.92 1.91167 0.358553 0
M  V30 33385 O 3183.18 1.47976 1.28069 0
M  V30 33386 C 3183.48 3.08801 -1.79935 0
M  V30 33387 C 3183.14 3.07418 -3.29856 0
M  V30 33388 C 3181.81 3.06748 -3.70755 0
M  V30 33389 C 3184.16 3.00797 -4.25641 0
M  V30 33390 C 3181.49 2.97205 -5.05852 0
M  V30 33391 C 3183.84 2.92796 -5.60761 0
M  V30 33392 C 3182.5 2.90461 -6.0099 0
M  V30 33393 H 3181.77 0.622005 -0.402729 0
M  V30 33394 H 3184.42 1.11611 -1.55612 0
M  V30 33395 H 3182.72 3.70711 -1.26809 0
M  V30 33396 H 3184.42 3.65228 -1.65557 0
M  V30 33397 H 3181.01 3.08711 -2.97314 0
M  V30 33398 H 3185.2 3.00434 -3.95036 0
M  V30 33399 H 3180.45 2.93766 -5.36201 0
M  V30 33400 H 3184.63 2.86634 -6.34676 0
M  V30 33401 H 3182.25 2.82823 -7.05631 0
M  V30 33402 N 3183.83 1.06924 1.1578 0
M  V30 33403 C 3184.76 0.643643 2.19977 0
M  V30 33404 C 3185.77 -0.301625 1.59981 0
M  V30 33405 O 3186.96 -0.0916194 1.78265 0
M  V30 33406 C 3184.06 -0.0757378 3.38815 0
M  V30 33407 C 3183.23 0.884621 4.28361 0
M  V30 33408 C 3182.29 0.203326 5.25807 0
M  V30 33409 O 3181.32 0.843003 5.62923 0
M  V30 33410 N 3182.52 -1.05269 5.70875 0
M  V30 33411 H 3185.29 1.53997 2.57109 0
M  V30 33412 H 3182.85 0.953367 1.30853 0
M  V30 33413 H 3184.84 -0.54208 4.01053 0
M  V30 33414 H 3183.41 -0.873947 3.00135 0
M  V30 33415 H 3182.63 1.53018 3.63289 0
M  V30 33416 H 3183.92 1.5359 4.85065 0
M  V30 33417 H 3183.32 -1.59241 5.42825 0
M  V30 33418 H 3181.87 -1.46278 6.35174 0
M  V30 33419 N 3185.31 -1.32538 0.852723 0
M  V30 33420 C 3186.24 -2.31416 0.311275 0
M  V30 33421 C 3187.22 -1.59594 -0.588529 0
M  V30 33422 O 3188.4 -1.87406 -0.509178 0
M  V30 33423 C 3185.53 -3.43641 -0.502831 0
M  V30 33424 C 3184.49 -4.26931 0.302371 0
M  V30 33425 C 3183.81 -5.309 -0.636351 0
M  V30 33426 C 3185.11 -4.99478 1.52706 0
M  V30 33427 H 3186.81 -2.76951 1.13747 0
M  V30 33428 H 3184.35 -1.33148 0.548412 0
M  V30 33429 H 3186.3 -4.11851 -0.89202 0
M  V30 33430 H 3185.03 -2.96828 -1.36237 0
M  V30 33431 H 3183.69 -3.60364 0.67329 0
M  V30 33432 H 3183.34 -4.80342 -1.49268 0
M  V30 33433 H 3183.04 -5.87512 -0.101612 0
M  V30 33434 H 3184.56 -6.01973 -1.02276 0
M  V30 33435 H 3185.97 -5.6038 1.21027 0
M  V30 33436 H 3184.37 -5.65806 1.99959 0
M  V30 33437 H 3185.44 -4.27453 2.28936 0
M  V30 33438 N 3186.78 -0.610474 -1.45296 0
M  V30 33439 C 3188.02 -0.109838 -2.04105 0
M  V30 33440 C 3188.39 1.23725 -1.4682 0
M  V30 33441 O 3189.59 1.82878 -1.97001 0
M  V30 33442 C 3187.86 -0.0742005 -3.57323 0
M  V30 33443 S 3189.42 0.364824 -4.37281 0
M  V30 33444 H 3186.24 -0.0509795 -0.70917 0
M  V30 33445 H 3188.84 -0.809225 -1.77966 0
M  V30 33446 H 3187.54 -1.05808 -3.96526 0
M  V30 33447 H 3187.07 0.64709 -3.88042 0
M  V30 33448 H 3189.09 1.61371 -4.69227 0
M  V30 33449 N 3188.26 1.53669 -0.349801 0
M  V30 33450 C 3189.49 2.05432 0.246002 0
M  V30 33451 C 3189.9 1.22437 1.43717 0
M  V30 33452 O 3189.26 0.261198 1.80621 0
M  V30 33453 C 3189.31 3.55517 0.654947 0
M  V30 33454 O 3189.03 4.35364 -0.488859 0
M  V30 33455 C 3190.53 4.23477 1.31081 0
M  V30 33456 H 3187.75 0.669395 0.0463834 0
M  V30 33457 H 3190.3 1.98202 -0.503601 0
M  V30 33458 H 3188.45 3.6295 1.35448 0
M  V30 33459 H 3188.87 5.24251 -0.16162 0
M  V30 33460 H 3190.34 5.2986 1.54765 0
M  V30 33461 H 3190.82 3.76212 2.2663 0
M  V30 33462 H 3191.42 4.20255 0.653137 0
M  V30 33463 N 3189.74 0.0785709 1.57404 0
M  V30 33464 C 3190.99 -0.58899 1.93745 0
M  V30 33465 C 3191.31 -1.69208 0.959117 0
M  V30 33466 O 3190.57 -1.95685 -0.024126 0
M  V30 33467 C 3190.87 -1.19904 3.36687 0
M  V30 33468 C 3190.53 -0.221414 4.50356 0
M  V30 33469 C 3189.2 0.0475193 4.81177 0
M  V30 33470 C 3191.55 0.447032 5.19279 0
M  V30 33471 C 3188.88 0.991872 5.78255 0
M  V30 33472 C 3191.23 1.37975 6.1737 0
M  V30 33473 C 3189.89 1.65708 6.46604 0
M  V30 33474 H 3189.16 -0.215527 0.708964 0
M  V30 33475 H 3191.81 0.15089 1.90905 0
M  V30 33476 H 3190.11 -2.0148 3.36025 0
M  V30 33477 H 3191.81 -1.72297 3.62098 0
M  V30 33478 H 3188.4 -0.441209 4.26323 0
M  V30 33479 H 3192.59 0.252385 4.95658 0
M  V30 33480 H 3187.84 1.21392 5.99228 0
M  V30 33481 H 3192.02 1.90362 6.69877 0
M  V30 33482 H 3189.64 2.39044 7.21639 0
M  V30 33483 N 3191.22 -1.56389 -0.19503 0
M  V30 33484 C 3192.45 -1.84739 -0.93161 0
M  V30 33485 C 3192.86 -0.661077 -1.76848 0
M  V30 33486 O 3192.22 0.370209 -1.78706 0
M  V30 33487 C 3192.27 -3.11892 -1.82772 0
M  V30 33488 O 3191.99 -4.25949 -1.02464 0
M  V30 33489 C 3193.49 -3.53422 -2.67597 0
M  V30 33490 H 3190.71 -0.613482 -0.27181 0
M  V30 33491 H 3193.25 -2.03497 -0.202264 0
M  V30 33492 H 3191.41 -2.95031 -2.51068 0
M  V30 33493 H 3191.82 -4.98356 -1.6353 0
M  V30 33494 H 3193.3 -4.45358 -3.2613 0
M  V30 33495 H 3193.77 -2.76414 -3.41309 0
M  V30 33496 H 3194.38 -3.72813 -2.04671 0
M  V30 33497 N 3192.7 0.462746 -1.50653 0
M  V30 33498 C 3193.64 1.55968 -1.70125 0
M  V30 33499 C 3194.61 1.56987 -0.542609 0
M  V30 33500 O 3195.8 1.74389 -0.774145 0
M  V30 33501 C 3192.94 2.93884 -1.80904 0
M  V30 33502 C 3192.05 3.0259 -3.08324 0
M  V30 33503 C 3191.19 4.31471 -3.09848 0
M  V30 33504 C 3190.22 4.3395 -4.31687 0
M  V30 33505 N 3189.36 5.54316 -4.30904 0
M  V30 33506 H 3194.2 1.3867 -2.6377 0
M  V30 33507 H 3191.74 0.674068 -1.30747 0
M  V30 33508 H 3193.7 3.73873 -1.85135 0
M  V30 33509 H 3192.33 3.09798 -0.906908 0
M  V30 33510 H 3191.38 2.15421 -3.13525 0
M  V30 33511 H 3192.69 3.00281 -3.98287 0
M  V30 33512 H 3191.84 5.19814 -3.12854 0
M  V30 33513 H 3190.58 4.364 -2.17729 0
M  V30 33514 H 3189.59 3.44003 -4.28885 0
M  V30 33515 H 3190.81 4.30706 -5.25042 0
M  V30 33516 H 3188.76 5.60014 -3.41643 0
M  V30 33517 H 3188.68 5.53783 -5.14646 0
M  V30 33518 H 3189.94 6.44761 -4.38068 0
M  V30 33519 N 3194.17 1.40371 0.716495 0
M  V30 33520 C 3195.4 1.42105 1.51066 0
M  V30 33521 C 3195.82 0.0222717 1.88087 0
M  V30 33522 O 3195.18 -0.969421 1.53205 0
M  V30 33523 C 3195.23 2.31709 2.76303 0
M  V30 33524 O 3194.33 1.75971 3.72972 0
M  V30 33525 H 3193.68 0.483137 0.455494 0
M  V30 33526 H 3196.21 1.8459 0.882481 0
M  V30 33527 H 3196.22 2.46864 3.24842 0
M  V30 33528 H 3194.89 3.33354 2.48692 0
M  V30 33529 H 3193.47 1.70157 3.31815 0
M  V30 33530 N 3195.65 -0.948621 1.25853 0
M  V30 33531 C 3196.88 -1.72849 1.13714 0
M  V30 33532 C 3197.3 -1.86264 -0.308438 0
M  V30 33533 O 3196.65 -1.36468 -1.21173 0
M  V30 33534 C 3196.7 -3.13915 1.79276 0
M  V30 33535 O 3196.42 -3.01149 3.18184 0
M  V30 33536 C 3197.93 -4.08151 1.72995 0
M  V30 33537 H 3195.15 -0.541436 0.396344 0
M  V30 33538 H 3197.69 -1.18971 1.66331 0
M  V30 33539 H 3195.84 -3.64717 1.30615 0
M  V30 33540 H 3196.26 -3.9018 3.50514 0
M  V30 33541 H 3197.73 -5.04721 2.23519 0
M  V30 33542 H 3198.21 -4.33667 0.694942 0
M  V30 33543 H 3198.82 -3.63267 2.21173 0
M  V30 33544 N 3197.13 -1.07536 -1.15212 0
M  V30 33545 C 3198.08 -0.691719 -2.22077 0
M  V30 33546 C 3199.07 0.298353 -1.66752 0
M  V30 33547 O 3200.28 0.161865 -1.79271 0
M  V30 33548 H 3196.65 -0.205617 -0.723344 0
M  V30 33549 H 3198.62 -1.6026 -2.51713 0
M  V30 33550 C 3197.37 -0.107607 -3.47533 0
M  V30 33551 H 3196.7 -0.860591 -3.90428 0
M  V30 33552 H 3198.14 0.123141 -4.23821 0
M  V30 33553 C 3196.6 1.15221 -3.16585 0
M  V30 33554 O 3197.13 2.23839 -3.33555 0
M  V30 33555 N 3195.33 1.0591 -2.70613 0
M  V30 33556 H 3194.88 0.175153 -2.57004 0
M  V30 33557 H 3194.84 1.90282 -2.5028 0
M  V30 33558 N 3198.61 1.32084 -0.85974 0
M  V30 33559 C 3199.83 2.01795 -0.478901 0
M  V30 33560 C 3200.26 1.64164 0.918246 0
M  V30 33561 O 3199.62 0.844924 1.60408 0
M  V30 33562 C 3199.66 3.55029 -0.631419 0
M  V30 33563 O 3198.77 4.11048 0.333639 0
M  V30 33564 H 3198.11 0.6357 -0.191786 0
M  V30 33565 H 3200.64 1.68515 -1.16034 0
M  V30 33566 H 3200.65 4.04662 -0.520854 0
M  V30 33567 H 3199.32 3.8176 -1.65022 0
M  V30 33568 H 3197.9 3.72471 0.178887 0
M  V30 33569 N 3200.09 0.618171 1.4497 0
M  V30 33570 C 3201.5 0.282694 1.57076 0
M  V30 33571 C 3201.7 -1.21453 1.60784 0
M  V30 33572 O 3200.76 -1.99804 1.54385 0
M  V30 33573 C 3202.07 0.963198 2.84856 0
M  V30 33574 C 3203.62 0.940115 2.98548 0
M  V30 33575 C 3204.09 1.60083 4.29112 0
M  V30 33576 N 3205.59 1.56681 4.35896 0
M  V30 33577 C 3206.32 2.0471 5.35613 0
M  V30 33578 N 3205.82 2.60872 6.41808 0
M  V30 33579 N 3207.61 1.95415 5.27038 0
M  V30 33580 H 3199.76 1.59019 1.40807 0
M  V30 33581 H 3202.02 0.666753 0.673902 0
M  V30 33582 H 3201.73 2.01785 2.88055 0
M  V30 33583 H 3201.6 0.492967 3.73965 0
M  V30 33584 H 3203.99 -0.106019 2.94909 0
M  V30 33585 H 3204.07 1.44871 2.10822 0
M  V30 33586 H 3203.72 2.64635 4.3351 0
M  V30 33587 H 3203.65 1.06717 5.15673 0
M  V30 33588 H 3206.14 1.15665 3.59764 0
M  V30 33589 H 3206.45 2.95286 7.14161 0
M  V30 33590 H 3204.79 2.64916 6.4253 0
M  V30 33591 H 3207.99 1.51271 4.42984 0
M  V30 33592 H 3208.16 2.33158 6.046 0
M  V30 33593 N 3201.56 -1.53481 0.357946 0
M  V30 33594 C 3202.81 -2.00324 -0.235206 0
M  V30 33595 C 3203.13 -1.24946 -1.50492 0
M  V30 33596 O 3204.33 -1.62339 -2.1762 0
M  V30 33597 C 3202.79 -3.56822 -0.469685 0
M  V30 33598 C 3202.4 -4.4107 0.784955 0
M  V30 33599 C 3204.14 -4.12041 -1.02091 0
M  V30 33600 C 3202.05 -5.89105 0.520481 0
M  V30 33601 H 3200.98 -0.748407 -0.0916685 0
M  V30 33602 H 3203.63 -1.77232 0.475505 0
M  V30 33603 H 3202.01 -3.76037 -1.24146 0
M  V30 33604 H 3203.18 -4.33629 1.55894 0
M  V30 33605 H 3201.5 -3.96916 1.25885 0
M  V30 33606 H 3204.1 -5.20266 -1.23397 0
M  V30 33607 H 3204.44 -3.66157 -1.98077 0
M  V30 33608 H 3204.97 -3.96594 -0.309485 0
M  V30 33609 H 3201.71 -6.39251 1.45046 0
M  V30 33610 H 3201.23 -5.99414 -0.215148 0
M  V30 33611 H 3202.91 -6.46842 0.143119 0
M  V30 33612 N 3203.04 -0.0869173 -1.5736 0
M  V30 33613 C 3204.46 0.269734 -1.57304 0
M  V30 33614 C 3204.66 1.6899 -1.09748 0
M  V30 33615 O 3203.71 2.40466 -0.770213 0
M  V30 33616 C 3205.03 0.0656118 -3.00628 0
M  V30 33617 C 3206.58 0.13399 -3.12713 0
M  V30 33618 C 3207.05 -0.0420374 -4.57981 0
M  V30 33619 N 3208.54 0.0130687 -4.63198 0
M  V30 33620 C 3209.28 -0.0984972 -5.73315 0
M  V30 33621 N 3208.77 -0.264437 -6.92295 0
M  V30 33622 N 3210.57 -0.0403505 -5.62086 0
M  V30 33623 H 3202.72 -1.0149 -1.86584 0
M  V30 33624 H 3204.98 -0.39707 -0.860837 0
M  V30 33625 H 3204.69 -0.914951 -3.3959 0
M  V30 33626 H 3204.56 0.811457 -3.68368 0
M  V30 33627 H 3206.95 1.10505 -2.73629 0
M  V30 33628 H 3207.03 -0.64321 -2.47581 0
M  V30 33629 H 3206.67 -1.00993 -4.97758 0
M  V30 33630 H 3206.6 0.754755 -5.21163 0
M  V30 33631 H 3209.09 0.139117 -3.77644 0
M  V30 33632 H 3209.41 -0.341301 -7.72046 0
M  V30 33633 H 3207.75 -0.299998 -6.94352 0
M  V30 33634 H 3210.94 0.0880978 -4.68017 0
M  V30 33635 H 3211.11 -0.130748 -6.47868 0
M  V30 33636 N 3204.52 1.5649 0.186734 0
M  V30 33637 C 3205.48 1.94341 1.21508 0
M  V30 33638 C 3206.48 0.825394 1.38 0
M  V30 33639 O 3207.67 1.09269 1.35669 0
M  V30 33640 C 3204.81 2.22477 2.58296 0
M  V30 33641 H 3206 2.86349 0.891321 0
M  V30 33642 H 3203.55 1.50309 0.428586 0
M  V30 33643 H 3204.29 1.33134 2.95713 0
M  V30 33644 H 3204.07 3.03956 2.47696 0
M  V30 33645 H 3205.56 2.52736 3.32437 0
M  V30 33646 N 3206 -0.45475 1.50897 0
M  V30 33647 C 3207.22 -1.2331 1.66761 0
M  V30 33648 C 3207.65 -1.84676 0.357252 0
M  V30 33649 O 3207.01 -1.68035 -0.680742 0
M  V30 33650 C 3207.05 -2.30565 2.77258 0
M  V30 33651 O 3206.16 -3.35622 2.39648 0
M  V30 33652 H 3205.5 -0.362058 0.556606 0
M  V30 33653 H 3208.03 -0.53924 1.97366 0
M  V30 33654 H 3208.04 -2.75624 3.00825 0
M  V30 33655 H 3206.71 -1.85275 3.72352 0
M  V30 33656 H 3205.29 -2.96161 2.2659 0
M  V30 33657 N 3207.48 -1.40749 -0.709041 0
M  V30 33658 C 3208.41 -1.44293 -1.8358 0
M  V30 33659 C 3209.39 -0.303096 -1.67378 0
M  V30 33660 O 3210.57 -0.512645 -1.87311 0
M  V30 33661 C 3207.7 -1.31121 -3.21597 0
M  V30 33662 C 3206.66 -2.42776 -3.52482 0
M  V30 33663 C 3205.98 -2.14677 -4.89712 0
M  V30 33664 C 3207.28 -3.8512 -3.52817 0
M  V30 33665 H 3208.98 -2.38591 -1.80871 0
M  V30 33666 H 3206.52 -1.1484 -0.868775 0
M  V30 33667 H 3208.48 -1.32216 -4.00121 0
M  V30 33668 H 3207.2 -0.333022 -3.24898 0
M  V30 33669 H 3205.86 -2.40942 -2.76301 0
M  V30 33670 H 3205.51 -1.15233 -4.89623 0
M  V30 33671 H 3205.21 -2.89487 -5.11342 0
M  V30 33672 H 3206.73 -2.17465 -5.70562 0
M  V30 33673 H 3208.14 -3.88742 -4.2137 0
M  V30 33674 H 3206.54 -4.59502 -3.85976 0
M  V30 33675 H 3207.61 -4.14235 -2.52066 0
M  V30 33676 N 3208.96 0.941933 -1.26354 0
M  V30 33677 C 3210.37 1.50285 -1.10776 0
M  V30 33678 C 3210.72 1.937 0.312194 0
M  V30 33679 O 3209.84 1.7984 1.20361 0
M  V30 33680 C 3210.44 2.7312 -2.00477 0
M  V30 33681 C 3209 3.25481 -1.89047 0
M  V30 33682 C 3208.14 1.98264 -1.93873 0
M  V30 33683 H 3211.09 0.757498 -1.39455 0
M  V30 33684 H 3211.12 3.47399 -1.55222 0
M  V30 33685 H 3210.63 2.4149 -3.03816 0
M  V30 33686 H 3208.73 3.61903 -0.886405 0
M  V30 33687 H 3208.84 3.92638 -2.74539 0
M  V30 33688 H 3207.21 2.14129 -1.37916 0
M  V30 33689 H 3207.99 1.68967 -2.9884 0
M  V30 33690 N 3210.43 1.08146 1.1464 0
M  V30 33691 C 3211.66 0.830898 1.89483 0
M  V30 33692 C 3212.08 -0.616691 1.78444 0
M  V30 33693 O 3211.43 -1.42359 1.14194 0
M  V30 33694 C 3211.48 1.24045 3.39551 0
M  V30 33695 O 3211.21 2.63125 3.50281 0
M  V30 33696 C 3212.71 1.02036 4.31397 0
M  V30 33697 H 3209.93 0.299846 0.600278 0
M  V30 33698 H 3212.47 1.44003 1.45201 0
M  V30 33699 H 3210.63 0.675474 3.81466 0
M  V30 33700 H 3211.04 2.80053 4.43476 0
M  V30 33701 H 3212.51 1.35634 5.35077 0
M  V30 33702 H 3212.99 -0.0427925 4.39179 0
M  V30 33703 H 3213.6 1.57064 3.95236 0
M  V30 33704 N 3211.91 -1.31626 0.866732 0
M  V30 33705 C 3213.14 -2.01004 0.490426 0
M  V30 33706 C 3213.55 -1.65079 -0.916215 0
M  V30 33707 O 3212.91 -0.878328 -1.59974 0
M  V30 33708 C 3212.96 -3.55896 0.634074 0
M  V30 33709 O 3212.68 -3.90534 1.98532 0
M  V30 33710 C 3214.18 -4.42547 0.258355 0
M  V30 33711 H 3211.4 -0.643113 0.191432 0
M  V30 33712 H 3213.95 -1.67932 1.16701 0
M  V30 33713 H 3212.1 -3.874 0.00508611 0
M  V30 33714 H 3212.52 -4.85252 1.99075 0
M  V30 33715 H 3213.99 -5.50477 0.40983 0
M  V30 33716 H 3214.47 -4.31811 -0.802225 0
M  V30 33717 H 3215.07 -4.16454 0.86291 0
M  V30 33718 N 3213.39 -0.62585 -1.4464 0
M  V30 33719 C 3214.64 -0.125717 -2.01308 0
M  V30 33720 C 3214.95 1.25804 -1.49776 0
M  V30 33721 O 3216.16 1.8519 -1.98537 0
M  V30 33722 C 3214.61 -0.174013 -3.59479 0
M  V30 33723 C 3214.22 -1.55876 -4.20008 0
M  V30 33724 C 3215.97 0.26993 -4.23641 0
M  V30 33725 C 3213.87 -1.56245 -5.70387 0
M  V30 33726 H 3212.8 -0.0432327 -0.75276 0
M  V30 33727 H 3215.45 -0.783871 -1.65915 0
M  V30 33728 H 3213.84 0.551143 -3.92146 0
M  V30 33729 H 3215.01 -2.30707 -3.98887 0
M  V30 33730 H 3213.32 -1.94633 -3.68113 0
M  V30 33731 H 3215.92 0.286626 -5.33931 0
M  V30 33732 H 3216.26 1.29622 -3.95606 0
M  V30 33733 H 3216.8 -0.402556 -3.95758 0
M  V30 33734 H 3213.54 -2.56693 -6.03149 0
M  V30 33735 H 3213.06 -0.856986 -5.93646 0
M  V30 33736 H 3214.74 -1.29407 -6.33926 0
M  V30 33737 N 3214.87 1.53289 -0.36608 0
M  V30 33738 C 3215.83 2.24374 0.467865 0
M  V30 33739 C 3216.83 1.25178 1.00932 0
M  V30 33740 O 3218.02 1.49451 0.894989 0
M  V30 33741 C 3215.15 2.98087 1.65399 0
M  V30 33742 H 3216.35 2.99504 -0.154157 0
M  V30 33743 H 3213.9 1.55856 -0.117778 0
M  V30 33744 H 3214.63 2.27201 2.31409 0
M  V30 33745 H 3214.42 3.7087 1.2727 0
M  V30 33746 H 3215.91 3.52123 2.24497 0
M  V30 33747 N 3216.35 0.0952613 1.57312 0
M  V30 33748 C 3217.29 -0.86362 2.14033 0
M  V30 33749 C 3218.26 -1.27969 1.05892 0
M  V30 33750 O 3219.45 -1.36141 1.3368 0
M  V30 33751 C 3216.59 -2.11728 2.72517 0
M  V30 33752 C 3215.7 -1.75173 3.9489 0
M  V30 33753 C 3214.84 -2.95326 4.41538 0
M  V30 33754 C 3213.87 -2.54898 5.56501 0
M  V30 33755 N 3213.01 -3.67887 5.98 0
M  V30 33756 H 3217.85 -0.373063 2.95656 0
M  V30 33757 H 3215.39 -0.172472 1.46085 0
M  V30 33758 H 3217.35 -2.85147 3.04544 0
M  V30 33759 H 3215.98 -2.58283 1.93622 0
M  V30 33760 H 3215.03 -0.917215 3.69177 0
M  V30 33761 H 3216.34 -1.41446 4.78325 0
M  V30 33762 H 3215.49 -3.76999 4.75349 0
M  V30 33763 H 3214.23 -3.32263 3.57005 0
M  V30 33764 H 3213.24 -1.71653 5.22317 0
M  V30 33765 H 3214.46 -2.19105 6.42783 0
M  V30 33766 H 3212.41 -4.04542 5.16412 0
M  V30 33767 H 3212.33 -3.38006 6.76231 0
M  V30 33768 H 3213.59 -4.50069 6.36442 0
M  V30 33769 N 3217.82 -1.56587 -0.178432 0
M  V30 33770 C 3218.77 -1.96767 -1.24039 0
M  V30 33771 C 3219.77 -0.855401 -1.46216 0
M  V30 33772 O 3220.97 -1.04049 -1.4688 0
M  V30 33773 H 3217.35 -0.625927 -0.416796 0
M  V30 33774 H 3219.32 -2.85295 -0.874594 0
M  V30 33775 C 3218.07 -2.33765 -2.5739 0
M  V30 33776 H 3217.39 -3.18887 -2.41145 0
M  V30 33777 H 3218.83 -2.65729 -3.304 0
M  V30 33778 C 3217.29 -1.1784 -3.15619 0
M  V30 33779 O 3217.82 -0.462272 -3.99031 0
M  V30 33780 N 3216.02 -0.950831 -2.74604 0
M  V30 33781 H 3215.57 -1.53493 -2.06876 0
M  V30 33782 H 3215.53 -0.177022 -3.13901 0
M  V30 33783 N 3219.3 0.446741 -1.51136 0
M  V30 33784 C 3220.53 1.22424 -1.67413 0
M  V30 33785 C 3220.95 1.84484 -0.367041 0
M  V30 33786 O 3220.31 1.68393 0.671821 0
M  V30 33787 C 3220.36 2.29092 -2.78477 0
M  V30 33788 O 3219.46 3.34347 -2.41425 0
M  V30 33789 H 3218.8 0.359101 -0.558518 0
M  V30 33790 H 3221.33 0.528765 -1.97649 0
M  V30 33791 H 3221.34 2.74025 -3.02282 0
M  V30 33792 H 3220.02 1.83297 -3.7333 0
M  V30 33793 H 3218.59 2.94956 -2.28157 0
M  V30 33794 N 3220.78 1.41123 0.701567 0
M  V30 33795 C 3222.03 1.40366 1.46374 0
M  V30 33796 C 3222.36 0.0105784 1.94197 0
M  V30 33797 O 3221.63 -0.960608 1.69123 0
M  V30 33798 C 3221.92 2.40528 2.67989 0
M  V30 33799 C 3221.77 3.88918 2.25971 0
M  V30 33800 C 3223.09 2.38028 3.70177 0
M  V30 33801 H 3220.21 0.511169 0.53092 0
M  V30 33802 H 3222.85 1.72357 0.799558 0
M  V30 33803 H 3221 2.13377 3.24657 0
M  V30 33804 H 3222.67 4.26949 1.74676 0
M  V30 33805 H 3220.91 4.04074 1.57818 0
M  V30 33806 H 3221.59 4.54539 3.13207 0
M  V30 33807 H 3224.06 2.62109 3.23169 0
M  V30 33808 H 3222.94 3.10135 4.52888 0
M  V30 33809 H 3223.2 1.39677 4.19455 0
M  V30 33810 N 3222.26 -0.935219 1.26852 0
M  V30 33811 C 3223.2 -2.03479 1.08927 0
M  V30 33812 C 3224.17 -1.66098 -0.00746867 0
M  V30 33813 O 3225.36 -1.90182 0.153435 0
M  V30 33814 C 3222.5 -3.37191 0.734588 0
M  V30 33815 C 3221.61 -3.87572 1.90819 0
M  V30 33816 C 3220.75 -5.09697 1.49607 0
M  V30 33817 C 3219.79 -5.52355 2.63761 0
M  V30 33818 N 3218.92 -6.6568 2.23191 0
M  V30 33819 H 3223.76 -2.18144 2.0302 0
M  V30 33820 H 3221.3 -1.06876 1.01074 0
M  V30 33821 H 3223.26 -4.14073 0.509807 0
M  V30 33822 H 3221.89 -3.22355 -0.169381 0
M  V30 33823 H 3220.94 -3.07036 2.24573 0
M  V30 33824 H 3222.25 -4.15165 2.76477 0
M  V30 33825 H 3221.41 -5.94058 1.23209 0
M  V30 33826 H 3220.15 -4.83864 0.610475 0
M  V30 33827 H 3219.15 -4.66549 2.90882 0
M  V30 33828 H 3220.38 -5.80187 3.5293 0
M  V30 33829 H 3218.32 -6.41519 1.37073 0
M  V30 33830 H 3218.24 -6.92889 3.02391 0
M  V30 33831 H 3219.51 -7.534 2.0002 0
M  V30 33832 N 3223.74 -1.08752 -1.14065 0
M  V30 33833 C 3224.96 -0.841072 -1.8958 0
M  V30 33834 C 3225.39 0.601404 -1.78227 0
M  V30 33835 O 3224.74 1.42179 -1.12493 0
M  V30 33836 C 3224.79 -1.27219 -3.37413 0
M  V30 33837 O 3223.9 -0.426318 -4.10191 0
M  V30 33838 H 3223.24 -0.305183 -0.589711 0
M  V30 33839 H 3225.77 -1.44986 -1.44361 0
M  V30 33840 H 3225.78 -1.25458 -3.88232 0
M  V30 33841 H 3224.45 -2.32274 -3.44995 0
M  V30 33842 H 3223.03 -0.50765 -3.69428 0
M  V30 33843 N 3225.21 1.31165 -0.873701 0
M  V30 33844 C 3226.46 1.96861 -0.487213 0
M  V30 33845 C 3226.79 1.68878 0.958841 0
M  V30 33846 O 3226.07 0.987308 1.67578 0
M  V30 33847 C 3226.35 3.52218 -0.749312 0
M  V30 33848 C 3226.2 3.89759 -2.24517 0
M  V30 33849 C 3227.52 4.39558 -0.218271 0
M  V30 33850 H 3224.64 0.71506 -0.17849 0
M  V30 33851 H 3227.28 1.55229 -1.09563 0
M  V30 33852 H 3225.43 3.8781 -0.231472 0
M  V30 33853 H 3227.11 3.64249 -2.83055 0
M  V30 33854 H 3225.35 3.38232 -2.71627 0
M  V30 33855 H 3226.02 4.98095 -2.3792 0
M  V30 33856 H 3228.5 4.10811 -0.661346 0
M  V30 33857 H 3227.37 5.47205 -0.43108 0
M  V30 33858 H 3227.63 4.33254 0.87998 0
M  V30 33859 N 3226.69 0.633512 1.44307 0
M  V30 33860 C 3227.66 -0.0603357 2.29121 0
M  V30 33861 C 3228.66 -0.769967 1.41167 0
M  V30 33862 O 3229.85 -0.614196 1.63013 0
M  V30 33863 C 3226.98 -1.09604 3.228 0
M  V30 33864 H 3228.17 0.685668 2.91957 0
M  V30 33865 H 3225.72 0.393764 1.51259 0
M  V30 33866 H 3226.46 -1.87194 2.64818 0
M  V30 33867 H 3226.24 -0.591093 3.87619 0
M  V30 33868 H 3227.73 -1.5812 3.86507 0
M  V30 33869 N 3228.17 -1.53093 0.374204 0
M  V30 33870 C 3229.12 -2.26001 -0.468186 0
M  V30 33871 C 3230.09 -1.27011 -1.07039 0
M  V30 33872 O 3231.27 -1.55811 -1.10126 0
M  V30 33873 C 3228.41 -3.05899 -1.59749 0
M  V30 33874 C 3227.53 -4.19795 -1.01962 0
M  V30 33875 C 3226.66 -4.87117 -2.11873 0
M  V30 33876 C 3225.7 -5.9303 -1.51597 0
M  V30 33877 N 3224.84 -6.54009 -2.55376 0
M  V30 33878 H 3229.68 -2.9757 0.160035 0
M  V30 33879 H 3227.21 -1.4682 0.0907454 0
M  V30 33880 H 3229.17 -3.50503 -2.26282 0
M  V30 33881 H 3227.8 -2.36569 -2.19624 0
M  V30 33882 H 3226.85 -3.79615 -0.244319 0
M  V30 33883 H 3228.17 -4.95879 -0.539002 0
M  V30 33884 H 3227.32 -5.34948 -2.86209 0
M  V30 33885 H 3226.06 -4.10524 -2.6329 0
M  V30 33886 H 3225.06 -5.44553 -0.757795 0
M  V30 33887 H 3226.29 -6.71548 -1.00994 0
M  V30 33888 H 3224.23 -5.80264 -3.0599 0
M  V30 33889 H 3224.15 -7.25659 -2.12026 0
M  V30 33890 H 3225.42 -7.06487 -3.29388 0
M  V30 33891 N 3229.65 -0.103603 -1.57259 0
M  V30 33892 C 3230.58 0.849192 -2.17511 0
M  V30 33893 C 3231.56 1.28822 -1.11081 0
M  V30 33894 O 3232.74 1.35359 -1.39254 0
M  V30 33895 C 3229.87 2.10517 -2.76224 0
M  V30 33896 C 3228.83 1.80447 -3.88102 0
M  V30 33897 C 3228.15 3.12945 -4.33555 0
M  V30 33898 C 3229.45 1.08478 -5.10911 0
M  V30 33899 H 3231.15 0.347165 -2.9738 0
M  V30 33900 H 3228.69 0.165543 -1.43045 0
M  V30 33901 H 3230.65 2.77616 -3.17029 0
M  V30 33902 H 3229.37 2.63017 -1.93622 0
M  V30 33903 H 3228.03 1.15743 -3.47849 0
M  V30 33904 H 3227.68 3.63349 -3.47831 0
M  V30 33905 H 3227.38 2.93605 -5.08989 0
M  V30 33906 H 3228.9 3.81188 -4.76999 0
M  V30 33907 H 3230.32 1.65702 -5.48831 0
M  V30 33908 H 3228.71 0.992869 -5.91829 0
M  V30 33909 H 3229.78 0.0689256 -4.84851 0
M  V30 33910 N 3231.13 1.56679 0.170126 0
M  V30 33911 C 3232.37 1.83859 0.89304 0
M  V30 33912 C 3232.73 0.684693 1.79377 0
M  V30 33913 O 3233.93 0.836971 2.55437 0
M  V30 33914 C 3232.2 3.16156 1.66673 0
M  V30 33915 S 3233.76 3.64822 2.43824 0
M  V30 33916 H 3230.58 0.645036 0.29908 0
M  V30 33917 H 3233.18 1.94888 0.154593 0
M  V30 33918 H 3231.89 3.98129 0.996082 0
M  V30 33919 H 3231.42 3.08072 2.44653 0
M  V30 33920 H 3233.43 3.32244 3.68549 0
M  V30 33921 N 3232.6 -0.43872 1.5137 0
M  V30 33922 C 3233.53 -1.53984 1.75531 0
M  V30 33923 C 3234.52 -1.58974 0.605095 0
M  V30 33924 O 3235.7 -1.74723 0.847664 0
M  V30 33925 C 3232.83 -2.92074 1.87909 0
M  V30 33926 C 3231.78 -3.01946 3.03336 0
M  V30 33927 C 3231.11 -4.42002 3.00896 0
M  V30 33928 C 3232.41 -2.76155 4.43323 0
M  V30 33929 H 3234.1 -1.34017 2.67731 0
M  V30 33930 H 3231.65 -0.643285 1.28833 0
M  V30 33931 H 3233.6 -3.69064 2.03395 0
M  V30 33932 H 3232.33 -3.13269 0.923569 0
M  V30 33933 H 3230.99 -2.27395 2.87553 0
M  V30 33934 H 3230.63 -4.60163 2.03124 0
M  V30 33935 H 3230.33 -4.49537 3.78405 0
M  V30 33936 H 3231.86 -5.20968 3.18473 0
M  V30 33937 H 3233.27 -3.42879 4.59464 0
M  V30 33938 H 3231.67 -2.95101 5.22528 0
M  V30 33939 H 3232.74 -1.71771 4.53456 0
M  V30 33940 N 3234.08 -1.41493 -0.694073 0
M  V30 33941 C 3235.36 -1.31421 -1.44872 0
M  V30 33942 C 3235.74 0.0575167 -2.11022 0
M  V30 33943 O 3235.09 1.07185 -2.01801 0
M  V30 33944 C 3235.3 -2.46867 -2.46693 0
M  V30 33945 C 3236.65 -2.88101 -3.11902 0
M  V30 33946 O 3237.67 -2.46618 -2.57018 0
M  V30 33947 O 3236.53 -3.5984 -4.11312 0
M  V30 33948 H 3233.62 -0.517274 -0.645257 0
M  V30 33949 H 3236.17 -1.53461 -0.724425 0
M  V30 33950 H 3234.94 -3.38396 -1.96479 0
M  V30 33951 H 3234.56 -2.26712 -3.2663 0
M  V30 33952 N 3235.56 0.928479 -1.27346 0
M  V30 33953 C 3236.52 2.01053 -1.10047 0
M  V30 33954 C 3237.52 1.60738 -0.0447075 0
M  V30 33955 O 3238.71 1.71782 -0.289232 0
M  V30 33956 C 3235.85 3.34118 -0.676618 0
M  V30 33957 H 3237.04 2.17831 -2.0613 0
M  V30 33958 H 3234.59 1.10917 -1.10123 0
M  V30 33959 H 3235.33 3.2304 0.28564 0
M  V30 33960 H 3235.11 3.64736 -1.4391 0
M  V30 33961 H 3236.6 4.13583 -0.577797 0
M  V30 33962 N 3237.04 1.09355 1.13486 0
M  V30 33963 C 3238.29 0.827521 1.84381 0
M  V30 33964 C 3238.61 -0.648713 1.83893 0
M  V30 33965 O 3237.88 -1.47064 1.29418 0
M  V30 33966 H 3236.46 0.303139 0.682727 0
M  V30 33967 H 3239.12 1.38154 1.37475 0
M  V30 33968 H 3238.22 1.1804 2.88917 0
M  V30 33969 N 3238.52 -1.307 0.880644 0
M  V30 33970 C 3239.77 -1.95582 0.492991 0
M  V30 33971 C 3240.08 -1.70318 -0.961833 0
M  V30 33972 O 3241.29 -2.29149 -1.45613 0
M  V30 33973 C 3239.74 -3.50182 0.830718 0
M  V30 33974 C 3239.35 -3.84272 2.30302 0
M  V30 33975 C 3241.09 -4.214 0.512053 0
M  V30 33976 C 3239 -5.3203 2.5826 0
M  V30 33977 H 3237.93 -0.732043 0.180633 0
M  V30 33978 H 3240.58 -1.48713 1.07502 0
M  V30 33979 H 3238.96 -3.95601 0.177821 0
M  V30 33980 H 3240.14 -3.49778 2.99987 0
M  V30 33981 H 3238.45 -3.26145 2.58879 0
M  V30 33982 H 3241.05 -5.30124 0.698028 0
M  V30 33983 H 3241.39 -4.12674 -0.548254 0
M  V30 33984 H 3241.93 -3.8165 1.12195 0
M  V30 33985 H 3238.66 -5.45803 3.63015 0
M  V30 33986 H 3238.18 -5.67839 1.9318 0
M  V30 33987 H 3239.86 -5.99415 2.43538 0
M  V30 33988 N 3240 -0.641156 -1.43969 0
M  V30 33989 C 3240.94 0.0698259 -2.32495 0
M  V30 33990 C 3241.94 0.825529 -1.47924 0
M  V30 33991 O 3243.14 0.737294 -1.64207 0
M  V30 33992 H 3239.52 0.0413574 -0.750862 0
M  V30 33993 H 3241.49 -0.694733 -2.902 0
M  V30 33994 C 3240.24 1.03093 -3.32065 0
M  V30 33995 H 3239.56 0.458854 -3.97158 0
M  V30 33996 H 3241 1.49771 -3.96667 0
M  V30 33997 C 3239.46 2.12109 -2.61747 0
M  V30 33998 O 3239.99 3.20328 -2.4239 0
M  V30 33999 N 3238.2 1.88324 -2.2132 0
M  V30 34000 H 3237.74 1.0032 -2.37263 0
M  V30 34001 H 3237.7 2.61462 -1.74599 0
M  V30 34002 N 3241.47 1.52892 -0.382318 0
M  V30 34003 C 3242.7 2.05609 0.202078 0
M  V30 34004 C 3243.11 1.25441 1.41638 0
M  V30 34005 O 3242.45 0.292356 1.81359 0
M  V30 34006 C 3242.52 3.53694 0.643498 0
M  V30 34007 C 3242.18 4.54715 -0.456385 0
M  V30 34008 C 3243.18 5.03084 -1.31159 0
M  V30 34009 C 3240.86 4.98441 -0.621417 0
M  V30 34010 C 3242.86 5.93796 -2.31701 0
M  V30 34011 C 3240.54 5.88955 -1.63018 0
M  V30 34012 C 3241.54 6.36524 -2.4764 0
M  V30 34013 O 3241.23 7.25251 -3.46794 0
M  V30 34014 H 3240.96 0.675052 0.0357896 0
M  V30 34015 H 3243.52 1.98066 -0.54397 0
M  V30 34016 H 3241.75 3.58832 1.44141 0
M  V30 34017 H 3243.43 3.89186 1.15277 0
M  V30 34018 H 3244.2 4.70038 -1.19536 0
M  V30 34019 H 3240.08 4.60992 0.027512 0
M  V30 34020 H 3243.62 6.30848 -2.97787 0
M  V30 34021 H 3239.52 6.21415 -1.74682 0
M  V30 34022 H 3240.29 7.43294 -3.4272 0
M  V30 34023 N 3242.95 0.111941 1.57202 0
M  V30 34024 C 3244.2 -0.548573 1.9524 0
M  V30 34025 C 3244.53 -1.66778 0.994927 0
M  V30 34026 O 3243.81 -1.94475 0.0308945 0
M  V30 34027 C 3244.09 -1.08792 3.43273 0
M  V30 34028 C 3243.94 0.0273854 4.49792 0
M  V30 34029 C 3245.26 -1.98102 3.92993 0
M  V30 34030 H 3242.38 -0.197939 0.709922 0
M  V30 34031 H 3245.02 0.186069 1.89087 0
M  V30 34032 H 3243.17 -1.71398 3.48647 0
M  V30 34033 H 3244.84 0.662382 4.5652 0
M  V30 34034 H 3243.09 0.691501 4.28253 0
M  V30 34035 H 3243.76 -0.391104 5.50613 0
M  V30 34036 H 3246.23 -1.45378 3.89878 0
M  V30 34037 H 3245.11 -2.32761 4.97105 0
M  V30 34038 H 3245.37 -2.90486 3.33272 0
M  V30 34039 N 3244.43 -1.56767 -0.161814 0
M  V30 34040 C 3245.38 -1.97141 -1.20017 0
M  V30 34041 C 3246.35 -0.836738 -1.43485 0
M  V30 34042 O 3247.53 -1.09763 -1.56067 0
M  V30 34043 C 3244.67 -2.3446 -2.53224 0
M  V30 34044 C 3243.78 -3.61149 -2.37055 0
M  V30 34045 C 3242.92 -3.87638 -3.63195 0
M  V30 34046 C 3241.96 -5.07644 -3.41999 0
M  V30 34047 N 3241.1 -5.30218 -4.60232 0
M  V30 34048 H 3245.94 -2.85654 -0.848868 0
M  V30 34049 H 3243.47 -1.41336 -0.407728 0
M  V30 34050 H 3245.43 -2.54122 -3.30875 0
M  V30 34051 H 3244.06 -1.49045 -2.86331 0
M  V30 34052 H 3243.11 -3.49348 -1.50533 0
M  V30 34053 H 3244.42 -4.48957 -2.17345 0
M  V30 34054 H 3243.58 -4.07718 -4.49278 0
M  V30 34055 H 3242.32 -2.98223 -3.85894 0
M  V30 34056 H 3241.32 -4.87452 -2.54303 0
M  V30 34057 H 3242.55 -5.98598 -3.20713 0
M  V30 34058 H 3240.49 -4.43756 -4.83132 0
M  V30 34059 H 3240.41 -6.12266 -4.4347 0
M  V30 34060 H 3241.68 -5.54784 -5.47572 0
M  V30 34061 N 3245.91 0.430686 -1.51601 0
M  V30 34062 C 3247.13 1.20642 -1.68702 0
M  V30 34063 C 3247.56 1.84085 -0.386587 0
M  V30 34064 O 3246.92 1.69096 0.653923 0
M  V30 34065 C 3246.96 2.26125 -2.80891 0
M  V30 34066 O 3246.07 3.31767 -2.44957 0
M  V30 34067 H 3245.41 0.353157 -0.562295 0
M  V30 34068 H 3247.94 0.507772 -1.98199 0
M  V30 34069 H 3247.95 2.70803 -3.05172 0
M  V30 34070 H 3246.62 1.79327 -3.75253 0
M  V30 34071 H 3245.2 2.92519 -2.31273 0
M  V30 34072 N 3247.39 1.4186 0.686559 0
M  V30 34073 C 3248.8 1.37147 1.26679 0
M  V30 34074 C 3249.15 0.0589565 1.96111 0
M  V30 34075 O 3248.27 -0.842594 1.99322 0
M  V30 34076 C 3248.87 2.48417 2.30379 0
M  V30 34077 C 3247.43 2.47074 2.83957 0
M  V30 34078 C 3246.57 2.27805 1.58115 0
M  V30 34079 H 3249.52 1.51244 0.480715 0
M  V30 34080 H 3249.55 2.17993 3.11864 0
M  V30 34081 H 3249.06 3.4393 1.79816 0
M  V30 34082 H 3247.16 1.55344 3.38672 0
M  V30 34083 H 3247.27 3.43703 3.33774 0
M  V30 34084 H 3245.64 1.75847 1.84255 0
M  V30 34085 H 3246.42 3.25357 1.09535 0
M  V30 34086 N 3248.86 -0.921712 1.27837 0
M  V30 34087 C 3249.81 -2.02312 1.11079 0
M  V30 34088 C 3250.78 -1.66097 0.0101487 0
M  V30 34089 O 3251.97 -1.90009 0.173598 0
M  V30 34090 C 3249.11 -3.36393 0.77031 0
M  V30 34091 C 3248.22 -3.85527 1.94919 0
M  V30 34092 C 3247.35 -5.08082 1.55005 0
M  V30 34093 C 3246.39 -5.49527 2.69605 0
M  V30 34094 N 3245.53 -6.63276 2.30239 0
M  V30 34095 H 3250.37 -2.15979 2.05322 0
M  V30 34096 H 3247.91 -1.05798 1.02202 0
M  V30 34097 H 3249.86 -4.13509 0.553697 0
M  V30 34098 H 3248.49 -3.22517 -0.135181 0
M  V30 34099 H 3247.55 -3.04637 2.27816 0
M  V30 34100 H 3248.86 -4.12209 2.80865 0
M  V30 34101 H 3248.01 -5.92717 1.29503 0
M  V30 34102 H 3246.75 -4.83189 0.661761 0
M  V30 34103 H 3245.76 -4.63437 2.95814 0
M  V30 34104 H 3246.98 -5.76411 3.59064 0
M  V30 34105 H 3244.93 -6.40029 1.43869 0
M  V30 34106 H 3244.84 -6.89643 3.09723 0
M  V30 34107 H 3246.11 -7.51237 2.08 0
M  V30 34108 N 3250.34 -1.09956 -1.12905 0
M  V30 34109 C 3251.59 -0.838944 -1.84304 0
M  V30 34110 C 3251.92 0.635475 -1.83826 0
M  V30 34111 O 3251.17 1.48416 -1.27558 0
M  V30 34112 C 3251.47 -1.32622 -3.31883 0
M  V30 34113 C 3251.14 -2.8112 -3.52537 0
M  V30 34114 C 3249.8 -3.21674 -3.57882 0
M  V30 34115 C 3252.15 -3.76839 -3.60058 0
M  V30 34116 C 3249.48 -4.56707 -3.68288 0
M  V30 34117 C 3251.83 -5.11668 -3.71992 0
M  V30 34118 C 3250.49 -5.51803 -3.75592 0
M  V30 34119 H 3249.76 -0.306991 -0.674416 0
M  V30 34120 H 3252.41 -1.37529 -1.33259 0
M  V30 34121 H 3250.72 -0.709787 -3.85317 0
M  V30 34122 H 3252.41 -1.10112 -3.85586 0
M  V30 34123 H 3249 -2.48741 -3.49036 0
M  V30 34124 H 3253.19 -3.46618 -3.55203 0
M  V30 34125 H 3248.44 -4.87232 -3.69344 0
M  V30 34126 H 3252.62 -5.85687 -3.76755 0
M  V30 34127 H 3250.24 -6.56432 -3.83407 0
M  V30 34128 N 3251.82 1.30231 -0.887563 0
M  V30 34129 C 3253.04 2.00734 -0.521597 0
M  V30 34130 C 3253.47 1.66075 0.883217 0
M  V30 34131 O 3252.83 0.878759 1.5858 0
M  V30 34132 C 3252.88 3.5361 -0.706583 0
M  V30 34133 O 3251.98 4.11663 0.246375 0
M  V30 34134 H 3251.32 0.631489 -0.205227 0
M  V30 34135 H 3253.85 1.66016 -1.19582 0
M  V30 34136 H 3253.86 4.03466 -0.606572 0
M  V30 34137 H 3252.54 3.78174 -1.73083 0
M  V30 34138 H 3251.11 3.72766 0.0998407 0
M  V30 34139 N 3253.3 0.648782 1.43627 0
M  V30 34140 C 3254.25 -0.0455131 2.30755 0
M  V30 34141 C 3255.22 -0.819142 1.44497 0
M  V30 34142 O 3256.4 -0.79664 1.73373 0
M  V30 34143 C 3253.54 -1.00902 3.30019 0
M  V30 34144 C 3252.65 -0.231963 4.31377 0
M  V30 34145 C 3251.79 -1.18887 5.17725 0
M  V30 34146 C 3250.83 -0.401989 6.10779 0
M  V30 34147 N 3249.96 -1.31026 6.89766 0
M  V30 34148 H 3254.8 0.703371 2.8958 0
M  V30 34149 H 3252.34 0.358625 1.42661 0
M  V30 34150 H 3254.3 -1.58121 3.86075 0
M  V30 34151 H 3252.93 -1.72483 2.72854 0
M  V30 34152 H 3251.98 0.456439 3.77652 0
M  V30 34153 H 3253.29 0.380111 4.9735 0
M  V30 34154 H 3252.45 -1.83184 5.78385 0
M  V30 34155 H 3251.19 -1.83486 4.51867 0
M  V30 34156 H 3250.19 0.254351 5.49211 0
M  V30 34157 H 3251.42 0.23953 6.78677 0
M  V30 34158 H 3249.36 -1.94313 6.26561 0
M  V30 34159 H 3249.28 -0.752642 7.52244 0
M  V30 34160 H 3250.55 -1.94151 7.54934 0
M  V30 34161 N 3254.78 -1.52688 0.390421 0
M  V30 34162 C 3255.71 -2.294 -0.435629 0
M  V30 34163 C 3256.69 -1.32834 -1.0625 0
M  V30 34164 O 3257.87 -1.61728 -1.07506 0
M  V30 34165 C 3255 -3.10165 -1.56254 0
M  V30 34166 C 3253.96 -4.14624 -1.06165 0
M  V30 34167 C 3253.28 -4.83619 -2.28071 0
M  V30 34168 C 3254.58 -5.22141 -0.12881 0
M  V30 34169 H 3256.28 -2.98701 0.204437 0
M  V30 34170 H 3253.82 -1.43654 0.0997629 0
M  V30 34171 H 3255.78 -3.62589 -2.14725 0
M  V30 34172 H 3254.5 -2.38599 -2.23021 0
M  V30 34173 H 3253.16 -3.63182 -0.499455 0
M  V30 34174 H 3252.81 -4.08601 -2.93351 0
M  V30 34175 H 3252.51 -5.54224 -1.95217 0
M  V30 34176 H 3254.03 -5.38849 -2.87183 0
M  V30 34177 H 3255.44 -5.69919 -0.621749 0
M  V30 34178 H 3253.84 -5.99999 0.110024 0
M  V30 34179 H 3254.91 -4.77883 0.821968 0
M  V30 34180 N 3256.25 -0.120276 -1.5714 0
M  V30 34181 C 3257.5 0.537415 -1.95239 0
M  V30 34182 C 3257.83 1.66605 -1.00364 0
M  V30 34183 O 3257.08 1.9568 -0.027765 0
M  V30 34184 C 3257.38 1.10935 -3.39747 0
M  V30 34185 C 3257.05 0.101932 -4.50785 0
M  V30 34186 C 3255.71 -0.175078 -4.80881 0
M  V30 34187 C 3258.06 -0.584553 -5.17912 0
M  V30 34188 C 3255.39 -1.14484 -5.75422 0
M  V30 34189 C 3257.74 -1.54295 -6.13495 0
M  V30 34190 C 3256.41 -1.82794 -6.41983 0
M  V30 34191 H 3255.68 0.196654 -0.714429 0
M  V30 34192 H 3258.32 -0.201452 -1.90437 0
M  V30 34193 H 3256.63 1.925 -3.41249 0
M  V30 34194 H 3258.33 1.62636 -3.66539 0
M  V30 34195 H 3254.92 0.328022 -4.27343 0
M  V30 34196 H 3259.1 -0.383712 -4.94814 0
M  V30 34197 H 3254.36 -1.37237 -5.95799 0
M  V30 34198 H 3258.53 -2.08056 -6.64594 0
M  V30 34199 H 3256.16 -2.58092 -7.15047 0
M  V30 34200 N 3257.73 1.56851 0.153498 0
M  V30 34201 C 3258.96 1.87144 0.882302 0
M  V30 34202 C 3259.38 0.707733 1.75033 0
M  V30 34203 O 3258.73 -0.322698 1.79624 0
M  V30 34204 C 3258.78 3.16628 1.74438 0
M  V30 34205 O 3258.5 4.28516 0.911343 0
M  V30 34206 C 3260.01 3.60392 2.58133 0
M  V30 34207 H 3257.23 0.620473 0.255449 0
M  V30 34208 H 3259.77 2.03962 0.148239 0
M  V30 34209 H 3257.92 3.01584 2.43158 0
M  V30 34210 H 3258.34 5.02516 1.50259 0
M  V30 34211 H 3259.81 4.53848 3.14207 0
M  V30 34212 H 3260.29 2.85366 3.3386 0
M  V30 34213 H 3260.9 3.78109 1.94715 0
M  V30 34214 N 3259.21 -0.42264 1.51827 0
M  V30 34215 C 3260.46 -1.16783 1.64452 0
M  V30 34216 C 3260.77 -1.91995 0.373826 0
M  V30 34217 O 3261.98 -2.68832 0.379668 0
M  V30 34218 C 3260.43 -2.12468 2.90492 0
M  V30 34219 C 3260.04 -1.42836 4.2462 0
M  V30 34220 C 3261.79 -2.87329 3.12477 0
M  V30 34221 C 3259.69 -2.3709 5.41795 0
M  V30 34222 H 3258.62 -0.439631 0.612569 0
M  V30 34223 H 3261.27 -0.433503 1.78306 0
M  V30 34224 H 3259.66 -2.89397 2.70306 0
M  V30 34225 H 3260.83 -0.71364 4.5524 0
M  V30 34226 H 3259.15 -0.800698 4.08629 0
M  V30 34227 H 3261.74 -3.57966 3.97196 0
M  V30 34228 H 3262.09 -3.49514 2.26154 0
M  V30 34229 H 3262.62 -2.17503 3.33072 0
M  V30 34230 H 3259.36 -1.79573 6.30424 0
M  V30 34231 H 3258.88 -3.06574 5.15531 0
M  V30 34232 H 3260.56 -2.97907 5.74335 0
M  V30 34233 N 3260.69 -1.42222 -0.679027 0
M  V30 34234 C 3261.65 -1.45072 -1.77445 0
M  V30 34235 C 3262.65 -0.338909 -1.57188 0
M  V30 34236 O 3263.84 -0.599548 -1.63558 0
M  V30 34237 C 3260.97 -1.27825 -3.16028 0
M  V30 34238 H 3262.17 -2.42603 -1.76306 0
M  V30 34239 H 3259.72 -1.28607 -0.888254 0
M  V30 34240 H 3260.45 -0.312002 -3.22796 0
M  V30 34241 H 3260.24 -2.08397 -3.32134 0
M  V30 34242 H 3261.73 -1.32693 -3.95957 0
M  V30 34243 N 3262.17 0.91492 -1.28324 0
M  V30 34244 C 3263.1 2.01839 -1.06472 0
M  V30 34245 C 3264.08 1.62589 0.0188396 0
M  V30 34246 O 3265.26 1.88059 -0.128858 0
M  V30 34247 C 3262.39 3.33019 -0.617744 0
M  V30 34248 C 3261.43 3.91252 -1.69777 0
M  V30 34249 S 3262.27 4.22247 -3.29344 0
M  V30 34250 C 3263.42 5.5649 -2.86478 0
M  V30 34251 H 3263.66 2.20065 -1.99897 0
M  V30 34252 H 3261.19 1.05964 -1.12299 0
M  V30 34253 H 3263.15 4.0886 -0.366553 0
M  V30 34254 H 3261.81 3.12696 0.296654 0
M  V30 34255 H 3261 4.85953 -1.33662 0
M  V30 34256 H 3260.6 3.22043 -1.9017 0
M  V30 34257 H 3262.9 6.36329 -2.32576 0
M  V30 34258 H 3263.84 5.97517 -3.79973 0
M  V30 34259 H 3264.25 5.17622 -2.25229 0
M  V30 34260 N 3263.64 1.10553 1.1232 0
M  V30 34261 C 3264.89 0.859859 1.84331 0
M  V30 34262 C 3265.25 -0.60802 1.8254 0
M  V30 34263 O 3264.54 -1.44265 1.26088 0
M  V30 34264 C 3264.73 1.3438 3.31175 0
M  V30 34265 C 3264.56 2.8572 3.47267 0
M  V30 34266 C 3263.33 3.53736 3.60831 0
M  V30 34267 C 3265.53 3.83817 3.42329 0
M  V30 34268 N 3263.51 4.93385 3.65301 0
M  V30 34269 C 3264.88 5.09483 3.53309 0
M  V30 34270 C 3266.94 3.76507 3.25802 0
M  V30 34271 C 3265.64 6.28702 3.49466 0
M  V30 34272 C 3267.67 4.95226 3.23273 0
M  V30 34273 C 3267.03 6.19741 3.34815 0
M  V30 34274 H 3263.13 0.367663 0.690179 0
M  V30 34275 H 3265.71 1.40813 1.34461 0
M  V30 34276 H 3263.88 0.822833 3.79584 0
M  V30 34277 H 3265.61 1.04224 3.91049 0
M  V30 34278 H 3262.37 3.04184 3.63 0
M  V30 34279 H 3262.79 5.66164 3.71197 0
M  V30 34280 H 3267.44 2.81154 3.15772 0
M  V30 34281 H 3265.15 7.24341 3.58267 0
M  V30 34282 H 3268.74 4.9128 3.11665 0
M  V30 34283 H 3267.62 7.10064 3.32834 0
M  V30 34284 N 3265.12 -1.29758 0.894457 0
M  V30 34285 C 3266.05 -2.30308 0.384741 0
M  V30 34286 C 3267.03 -1.61386 -0.537457 0
M  V30 34287 O 3268.22 -1.88931 -0.449299 0
M  V30 34288 C 3265.35 -3.45066 -0.39325 0
M  V30 34289 C 3264.3 -4.25752 0.438043 0
M  V30 34290 C 3263.63 -5.32656 -0.467127 0
M  V30 34291 C 3264.93 -4.94367 1.68519 0
M  V30 34292 H 3266.62 -2.73192 1.22501 0
M  V30 34293 H 3264.17 -1.31336 0.590494 0
M  V30 34294 H 3266.12 -4.1448 -0.760541 0
M  V30 34295 H 3264.85 -3.01012 -1.26725 0
M  V30 34296 H 3263.5 -3.5804 0.787596 0
M  V30 34297 H 3263.15 -4.84847 -1.33911 0
M  V30 34298 H 3262.85 -5.87538 0.0853515 0
M  V30 34299 H 3264.38 -6.04923 -0.830726 0
M  V30 34300 H 3265.79 -5.56246 1.38794 0
M  V30 34301 H 3264.19 -5.59158 2.17859 0
M  V30 34302 H 3265.26 -4.19953 2.42419 0
M  V30 34303 N 3266.6 -0.65639 -1.4328 0
M  V30 34304 C 3267.53 0.0196551 -2.33492 0
M  V30 34305 C 3268.51 0.808654 -1.49649 0
M  V30 34306 O 3269.7 0.769498 -1.78304 0
M  V30 34307 C 3266.83 0.984515 -3.33053 0
M  V30 34308 C 3265.78 0.305408 -4.26909 0
M  V30 34309 C 3265.11 1.38193 -5.16533 0
M  V30 34310 C 3266.41 -0.804172 -5.16072 0
M  V30 34311 H 3268.1 -0.733712 -2.90271 0
M  V30 34312 H 3265.65 -0.354283 -1.39574 0
M  V30 34313 H 3267.6 1.4664 -3.95063 0
M  V30 34314 H 3266.32 1.76908 -2.74538 0
M  V30 34315 H 3264.98 -0.156059 -3.66268 0
M  V30 34316 H 3264.63 2.15802 -4.54355 0
M  V30 34317 H 3264.33 0.932776 -5.80149 0
M  V30 34318 H 3265.85 1.86512 -5.81417 0
M  V30 34319 H 3267.27 -0.404312 -5.71873 0
M  V30 34320 H 3265.67 -1.17799 -5.88424 0
M  V30 34321 H 3266.74 -1.66081 -4.55571 0
M  V30 34322 N 3268.08 1.52478 -0.398513 0
M  V30 34323 C 3269.01 2.29628 0.423458 0
M  V30 34324 C 3269.99 1.33395 1.05545 0
M  V30 34325 O 3271.18 1.62296 1.06647 0
M  V30 34326 C 3268.31 3.10989 1.54607 0
M  V30 34327 C 3267.26 4.15181 1.03964 0
M  V30 34328 C 3266.59 4.84822 2.25503 0
M  V30 34329 C 3267.89 5.22202 0.101118 0
M  V30 34330 H 3269.58 2.98589 -0.220275 0
M  V30 34331 H 3267.13 1.43599 -0.10738 0
M  V30 34332 H 3269.08 3.63723 2.128 0
M  V30 34333 H 3267.8 2.39778 2.21752 0
M  V30 34334 H 3266.46 3.63442 0.480187 0
M  V30 34335 H 3266.11 4.10151 2.91179 0
M  V30 34336 H 3265.81 5.55251 1.92275 0
M  V30 34337 H 3267.33 5.40364 2.84322 0
M  V30 34338 H 3268.75 5.7024 0.591516 0
M  V30 34339 H 3267.14 5.99932 -0.141842 0
M  V30 34340 H 3268.21 4.7744 -0.8473 0
M  V30 34341 N 3269.56 0.128608 1.57074 0
M  V30 34342 C 3270.49 -0.81448 2.18834 0
M  V30 34343 C 3271.47 -1.27038 1.13116 0
M  V30 34344 O 3272.65 -1.33126 1.4139 0
M  V30 34345 C 3269.78 -2.06096 2.79539 0
M  V30 34346 C 3268.74 -1.7425 3.90923 0
M  V30 34347 C 3268.06 -3.06008 4.38479 0
M  V30 34348 C 3269.36 -1.00336 5.12572 0
M  V30 34349 H 3271.06 -0.29981 2.97895 0
M  V30 34350 H 3268.6 -0.142764 1.43291 0
M  V30 34351 H 3270.56 -2.72537 3.21406 0
M  V30 34352 H 3269.28 -2.59904 1.97782 0
M  V30 34353 H 3267.94 -1.10194 3.49647 0
M  V30 34354 H 3267.59 -3.57769 3.53568 0
M  V30 34355 H 3267.29 -2.8547 5.13596 0
M  V30 34356 H 3268.81 -3.73551 4.83003 0
M  V30 34357 H 3270.23 -1.56949 5.51398 0
M  V30 34358 H 3268.62 -0.898588 5.93334 0
M  V30 34359 H 3269.69 0.00821874 4.84899 0
M  V30 34360 N 3271.04 -1.5693 -0.145178 0
M  V30 34361 C 3272.26 -1.87976 -0.876353 0
M  V30 34362 C 3272.69 -0.717826 -1.73865 0
M  V30 34363 O 3272.04 0.332519 -1.78225 0
M  V30 34364 C 3272.09 -3.17616 -1.7074 0
M  V30 34365 O 3271.2 -3.01679 -2.81183 0
M  V30 34366 H 3270.54 -0.617553 -0.243976 0
M  V30 34367 H 3273.07 -2.04151 -0.135446 0
M  V30 34368 H 3273.08 -3.49683 -2.10204 0
M  V30 34369 H 3271.75 -4.01788 -1.07422 0
M  V30 34370 H 3270.33 -2.81024 -2.45112 0
M  V30 34371 N 3272.51 0.414582 -1.52049 0
M  V30 34372 C 3273.76 1.1591 -1.65069 0
M  V30 34373 C 3274.08 1.91794 -0.384003 0
M  V30 34374 O 3275.28 2.68627 -0.393919 0
M  V30 34375 C 3273.74 2.10924 -2.91614 0
M  V30 34376 C 3273.35 1.40582 -4.25371 0
M  V30 34377 C 3275.09 2.85668 -3.13997 0
M  V30 34378 C 3273 2.34214 -5.43045 0
M  V30 34379 H 3271.93 0.436376 -0.614892 0
M  V30 34380 H 3274.58 0.42404 -1.78533 0
M  V30 34381 H 3272.96 2.8796 -2.71837 0
M  V30 34382 H 3274.13 0.689488 -4.55612 0
M  V30 34383 H 3272.45 0.779016 -4.09048 0
M  V30 34384 H 3275.05 3.55854 -3.99089 0
M  V30 34385 H 3275.39 3.4831 -2.28004 0
M  V30 34386 H 3275.92 2.15734 -3.34221 0
M  V30 34387 H 3272.66 1.76227 -6.31367 0
M  V30 34388 H 3272.18 3.03836 -5.1715 0
M  V30 34389 H 3273.86 2.94857 -5.75906 0
M  V30 34390 N 3273.99 1.4258 0.671475 0
M  V30 34391 C 3275.23 1.44715 1.4435 0
M  V30 34392 C 3275.6 0.0626965 1.91898 0
M  V30 34393 O 3276.8 -0.0412317 2.68768 0
M  V30 34394 C 3275.07 2.44573 2.60612 0
M  V30 34395 S 3276.63 2.65437 3.49412 0
M  V30 34396 H 3273.44 0.512343 0.492976 0
M  V30 34397 H 3276.05 1.79208 0.781318 0
M  V30 34398 H 3274.75 3.43927 2.23925 0
M  V30 34399 H 3274.28 2.11516 3.317 0
M  V30 34400 H 3276.3 1.93988 4.56709 0
M  V30 34401 N 3275.47 -0.908102 1.28807 0
M  V30 34402 C 3276.4 -2.02785 1.15761 0
M  V30 34403 C 3277.38 -1.70014 0.0539408 0
M  V30 34404 O 3278.57 -1.9281 0.231935 0
M  V30 34405 C 3275.7 -3.37369 0.824585 0
M  V30 34406 C 3274.65 -3.84321 1.88365 0
M  V30 34407 C 3273.98 -5.15934 1.40413 0
M  V30 34408 C 3275.28 -4.05562 3.29115 0
M  V30 34409 H 3276.97 -2.13957 2.09434 0
M  V30 34410 H 3274.52 -1.02804 1.00833 0
M  V30 34411 H 3276.47 -4.15202 0.720063 0
M  V30 34412 H 3275.19 -3.26265 -0.147845 0
M  V30 34413 H 3273.85 -3.08697 1.97742 0
M  V30 34414 H 3273.5 -5.01238 0.420603 0
M  V30 34415 H 3273.2 -5.48319 2.11234 0
M  V30 34416 H 3274.72 -5.96317 1.31294 0
M  V30 34417 H 3276.14 -4.73903 3.22628 0
M  V30 34418 H 3274.53 -4.49287 3.9782 0
M  V30 34419 H 3275.6 -3.1018 3.72715 0
M  V30 34420 N 3276.95 -1.11147 -1.11732 0
M  V30 34421 C 3278.2 -0.856749 -1.83042 0
M  V30 34422 C 3278.52 0.619375 -1.84902 0
M  V30 34423 O 3277.79 1.44987 -1.31741 0
M  V30 34424 H 3276.37 -0.313962 -0.677818 0
M  V30 34425 H 3279.03 -1.40324 -1.3526 0
M  V30 34426 H 3278.12 -1.22621 -2.87003 0
M  V30 34427 N 3278.43 1.29282 -0.901326 0
M  V30 34428 C 3279.65 2.00169 -0.542858 0
M  V30 34429 C 3280.08 1.67002 0.865553 0
M  V30 34430 O 3279.43 0.895529 1.57639 0
M  V30 34431 C 3279.48 3.5284 -0.744049 0
M  V30 34432 O 3278.59 4.11902 0.202699 0
M  V30 34433 H 3277.93 0.629276 -0.211914 0
M  V30 34434 H 3280.46 1.64738 -1.21336 0
M  V30 34435 H 3280.47 4.028 -0.64933 0
M  V30 34436 H 3279.14 3.76316 -1.77084 0
M  V30 34437 H 3277.72 3.72851 0.0602982 0
M  V30 34438 N 3279.9 0.663979 1.4293 0
M  V30 34439 C 3280.83 -0.00727223 2.33499 0
M  V30 34440 C 3281.81 -0.800706 1.50076 0
M  V30 34441 O 3283 -0.760031 1.7871 0
M  V30 34442 C 3280.13 -0.966839 3.33571 0
M  V30 34443 C 3279.08 -0.282764 4.27065 0
M  V30 34444 C 3278.41 -1.35452 5.17259 0
M  V30 34445 C 3279.71 0.831529 5.15638 0
M  V30 34446 H 3281.4 0.749095 2.89877 0
M  V30 34447 H 3278.95 0.36168 1.39384 0
M  V30 34448 H 3280.9 -1.44542 3.95835 0
M  V30 34449 H 3279.63 -1.7545 2.75472 0
M  V30 34450 H 3278.29 0.175481 3.6618 0
M  V30 34451 H 3277.93 -2.13389 4.55493 0
M  V30 34452 H 3277.63 -0.901996 5.80636 0
M  V30 34453 H 3279.16 -1.83426 5.82398 0
M  V30 34454 H 3280.57 0.434634 5.7165 0
M  V30 34455 H 3278.97 1.20918 5.87791 0
M  V30 34456 H 3280.04 1.68495 4.54684 0
M  V30 34457 N 3281.38 -1.52265 0.406593 0
M  V30 34458 C 3282.63 -2.00971 -0.171355 0
M  V30 34459 C 3282.94 -1.29671 -1.4644 0
M  V30 34460 O 3284.15 -1.6918 -2.12345 0
M  V30 34461 C 3282.61 -3.58136 -0.355927 0
M  V30 34462 C 3282.21 -4.38349 0.924881 0
M  V30 34463 C 3283.96 -4.1508 -0.889305 0
M  V30 34464 C 3281.86 -5.87151 0.707637 0
M  V30 34465 H 3280.79 -0.750944 -0.0678121 0
M  V30 34466 H 3283.45 -1.7563 0.53165 0
M  V30 34467 H 3281.83 -3.79796 -1.1212 0
M  V30 34468 H 3283 -4.28449 1.69611 0
M  V30 34469 H 3281.32 -3.9271 1.38449 0
M  V30 34470 H 3283.91 -5.23929 -1.06783 0
M  V30 34471 H 3284.26 -3.72274 -1.86328 0
M  V30 34472 H 3284.79 -3.97378 -0.183154 0
M  V30 34473 H 3281.53 -6.34313 1.6531 0
M  V30 34474 H 3281.05 -5.99795 -0.0243406 0
M  V30 34475 H 3282.73 -6.46059 0.348835 0
M  V30 34476 N 3282.86 -0.136936 -1.57004 0
M  V30 34477 C 3284.1 0.519548 -1.97687 0
M  V30 34478 C 3284.46 1.62694 -1.01954 0
M  V30 34479 O 3285.67 2.34358 -1.31643 0
M  V30 34480 C 3283.94 1.022 -3.42476 0
M  V30 34481 S 3285.5 1.68449 -4.05179 0
M  V30 34482 H 3282.31 0.168317 -0.69079 0
M  V30 34483 H 3284.92 -0.226268 -1.94186 0
M  V30 34484 H 3283.62 0.205122 -4.09887 0
M  V30 34485 H 3283.15 1.80267 -3.49667 0
M  V30 34486 H 3285.17 2.97124 -3.97406 0
M  V30 34487 N 3284.34 1.57005 0.136853 0
M  V30 34488 C 3285.58 1.84173 0.848999 0
M  V30 34489 C 3285.92 0.720059 1.80357 0
M  V30 34490 O 3285.19 -0.27555 1.92538 0
M  V30 34491 C 3285.48 3.21874 1.61459 0
M  V30 34492 C 3285.33 4.44618 0.680824 0
M  V30 34493 C 3286.65 3.56919 2.57482 0
M  V30 34494 H 3283.77 0.669925 0.307197 0
M  V30 34495 H 3286.41 1.89659 0.113828 0
M  V30 34496 H 3284.56 3.17329 2.24131 0
M  V30 34497 H 3286.23 4.61255 0.0643284 0
M  V30 34498 H 3284.47 4.33799 -0.00891254 0
M  V30 34499 H 3285.14 5.37596 1.25277 0
M  V30 34500 H 3287.62 3.6214 2.04924 0
M  V30 34501 H 3286.5 4.5428 3.08093 0
M  V30 34502 H 3286.76 2.83403 3.39316 0
M  V30 34503 N 3285.82 -0.406513 1.52267 0
M  V30 34504 C 3287.04 -1.17488 1.70306 0
M  V30 34505 C 3287.46 -1.84212 0.413689 0
M  V30 34506 O 3286.82 -1.71986 -0.610494 0
M  V30 34507 C 3286.87 -2.23604 2.84049 0
M  V30 34508 O 3286.59 -1.59603 4.07993 0
M  V30 34509 C 3288.09 -3.13301 3.1362 0
M  V30 34510 H 3285.31 -0.352945 0.570676 0
M  V30 34511 H 3287.85 -0.477932 1.98837 0
M  V30 34512 H 3286.01 -2.88963 2.5803 0
M  V30 34513 H 3286.42 -2.29974 4.71394 0
M  V30 34514 H 3287.9 -3.83826 3.96713 0
M  V30 34515 H 3288.37 -3.75821 2.27279 0
M  V30 34516 H 3288.98 -2.53608 3.41413 0
M  V30 34517 N 3287.29 -1.42934 -0.663904 0
M  V30 34518 C 3288.26 -1.46946 -1.75896 0
M  V30 34519 C 3289.26 -0.355562 -1.5682 0
M  V30 34520 O 3290.45 -0.616862 -1.62912 0
M  V30 34521 C 3287.58 -1.3117 -3.14654 0
M  V30 34522 H 3288.77 -2.44459 -1.73723 0
M  V30 34523 H 3286.33 -1.29542 -0.874564 0
M  V30 34524 H 3287.06 -0.346222 -3.22447 0
M  V30 34525 H 3286.85 -2.11908 -3.29905 0
M  V30 34526 H 3288.34 -1.36885 -3.94528 0
M  V30 34527 N 3288.77 0.901258 -1.29287 0
M  V30 34528 C 3289.74 1.98674 -1.14286 0
M  V30 34529 C 3290.74 1.60607 -0.0787923 0
M  V30 34530 O 3291.93 1.7113 -0.325604 0
M  V30 34531 C 3289.06 3.32607 -0.747337 0
M  V30 34532 H 3290.25 2.1341 -2.10704 0
M  V30 34533 H 3287.8 1.08556 -1.12451 0
M  V30 34534 H 3288.54 3.23573 0.217054 0
M  V30 34535 H 3288.32 3.61601 -1.51614 0
M  V30 34536 H 3289.81 4.12265 -0.665395 0
M  V30 34537 N 3290.25 1.11738 1.11141 0
M  V30 34538 C 3291.5 0.868159 1.82946 0
M  V30 34539 C 3291.83 -0.60615 1.84814 0
M  V30 34540 O 3291.08 -1.46368 1.29903 0
M  V30 34541 C 3291.38 1.37885 3.29731 0
M  V30 34542 C 3291.05 2.86693 3.4802 0
M  V30 34543 C 3289.71 3.27327 3.52719 0
M  V30 34544 C 3292.06 3.82519 3.54017 0
M  V30 34545 C 3289.39 4.62508 3.60975 0
M  V30 34546 C 3291.74 5.17522 3.63805 0
M  V30 34547 C 3290.4 5.57709 3.66766 0
M  V30 34548 H 3289.67 0.317682 0.669447 0
M  V30 34549 H 3292.32 1.39632 1.31054 0
M  V30 34550 H 3290.63 0.770998 3.84139 0
M  V30 34551 H 3292.32 1.16232 3.83785 0
M  V30 34552 H 3288.91 2.54262 3.45034 0
M  V30 34553 H 3293.1 3.52225 3.49644 0
M  V30 34554 H 3288.35 4.93046 3.61546 0
M  V30 34555 H 3292.53 5.91606 3.67389 0
M  V30 34556 H 3290.15 6.62448 3.72916 0
M  V30 34557 N 3291.73 -1.28802 0.90817 0
M  V30 34558 C 3292.98 -1.94825 0.537374 0
M  V30 34559 C 3293.3 -1.71883 -0.920932 0
M  V30 34560 O 3292.57 -1.05537 -1.65042 0
M  V30 34561 H 3291.15 -0.720898 0.195742 0
M  V30 34562 H 3293.81 -1.56893 1.15631 0
M  V30 34563 H 3292.91 -3.03512 0.727105 0
M  V30 34564 N 3293.21 -0.67155 -1.42576 0
M  V30 34565 C 3294.45 -0.192752 -2.01882 0
M  V30 34566 C 3294.79 1.19651 -1.52962 0
M  V30 34567 O 3294.06 1.80263 -0.730436 0
M  V30 34568 C 3294.34 -0.223798 -3.59404 0
M  V30 34569 C 3294.2 -1.64828 -4.18511 0
M  V30 34570 C 3295.52 0.429781 -4.37996 0
M  V30 34571 H 3292.63 -0.0715154 -0.733522 0
M  V30 34572 H 3295.28 -0.855718 -1.69639 0
M  V30 34573 H 3293.43 0.340708 -3.87003 0
M  V30 34574 H 3295.1 -2.26479 -4.01877 0
M  V30 34575 H 3293.34 -2.18997 -3.74463 0
M  V30 34576 H 3294.01 -1.62172 -5.2764 0
M  V30 34577 H 3296.49 -0.0507164 -4.16069 0
M  V30 34578 H 3295.36 0.377407 -5.47601 0
M  V30 34579 H 3295.63 1.50686 -4.15627 0
M  V30 34580 N 3294.68 1.52047 -0.414663 0
M  V30 34581 C 3295.61 2.30064 0.399079 0
M  V30 34582 C 3296.6 1.34507 1.04124 0
M  V30 34583 O 3297.78 1.63418 1.0492 0
M  V30 34584 C 3294.91 3.12611 1.513 0
M  V30 34585 C 3293.86 4.16261 0.995548 0
M  V30 34586 C 3293.19 4.87186 2.20348 0
M  V30 34587 C 3294.49 5.2228 0.045726 0
M  V30 34588 H 3296.18 2.98338 -0.251932 0
M  V30 34589 H 3293.73 1.43477 -0.122604 0
M  V30 34590 H 3295.68 3.65959 2.0893 0
M  V30 34591 H 3294.41 2.42117 2.19197 0
M  V30 34592 H 3293.07 3.6393 0.441612 0
M  V30 34593 H 3292.71 4.13216 2.86813 0
M  V30 34594 H 3292.41 5.57259 1.86375 0
M  V30 34595 H 3293.94 5.43349 2.78575 0
M  V30 34596 H 3295.35 5.70836 0.531001 0
M  V30 34597 H 3293.75 5.99748 -0.205465 0
M  V30 34598 H 3294.82 4.76514 -0.897891 0
M  V30 34599 N 3296.16 0.145261 1.56929 0
M  V30 34600 C 3297.09 -0.791224 2.19686 0
M  V30 34601 C 3298.07 -1.25831 1.14457 0
M  V30 34602 O 3299.26 -1.31619 1.42794 0
M  V30 34603 C 3296.39 -2.03119 2.81709 0
M  V30 34604 C 3295.34 -1.70094 3.92749 0
M  V30 34605 C 3294.67 -3.0134 4.417 0
M  V30 34606 C 3295.97 -0.948935 5.13607 0
M  V30 34607 H 3297.66 -0.268197 2.98196 0
M  V30 34608 H 3295.21 -0.127558 1.43434 0
M  V30 34609 H 3297.16 -2.69113 3.24278 0
M  V30 34610 H 3295.89 -2.57791 2.00527 0
M  V30 34611 H 3294.54 -1.06479 3.50796 0
M  V30 34612 H 3294.19 -3.53999 3.57342 0
M  V30 34613 H 3293.89 -2.80006 5.16595 0
M  V30 34614 H 3295.42 -3.68407 4.86938 0
M  V30 34615 H 3296.83 -1.51092 5.53032 0
M  V30 34616 H 3295.23 -0.835607 5.94254 0
M  V30 34617 H 3296.3 0.0596483 4.84863 0
M  V30 34618 N 3297.64 -1.57075 -0.128525 0
M  V30 34619 C 3298.87 -1.88894 -0.856367 0
M  V30 34620 C 3299.29 -0.736226 -1.73093 0
M  V30 34621 O 3298.65 0.313597 -1.78567 0
M  V30 34622 C 3298.7 -3.19409 -1.67362 0
M  V30 34623 O 3297.8 -3.04644 -2.77967 0
M  V30 34624 H 3297.14 -0.620106 -0.237413 0
M  V30 34625 H 3299.67 -2.04283 -0.113785 0
M  V30 34626 H 3299.68 -3.51893 -2.06484 0
M  V30 34627 H 3298.36 -4.02905 -1.03154 0
M  V30 34628 H 3296.93 -2.83608 -2.42118 0
M  V30 34629 N 3299.12 0.398432 -1.5248 0
M  V30 34630 C 3300.07 1.50659 -1.77213 0
M  V30 34631 C 3301.06 1.56859 -0.639666 0
M  V30 34632 O 3302.27 1.60138 -0.821945 0
M  V30 34633 H 3298.64 0.501254 -0.560579 0
M  V30 34634 H 3300.61 1.26989 -2.70031 0
M  V30 34635 C 3299.36 2.87906 -1.94949 0
M  V30 34636 H 3298.69 2.83883 -2.81515 0
M  V30 34637 H 3300.13 3.64708 -2.16249 0
M  V30 34638 C 3298.58 3.29128 -0.71946 0
M  V30 34639 O 3299.11 4.01556 0.107601 0
M  V30 34640 N 3297.32 2.85304 -0.552278 0
M  V30 34641 H 3296.87 2.26532 -1.22642 0
M  V30 34642 H 3296.83 3.13244 0.269392 0
M  V30 34643 N 3300.6 1.43284 0.656314 0
M  V30 34644 C 3301.84 1.44737 1.41624 0
M  V30 34645 C 3302.17 0.0705234 1.94372 0
M  V30 34646 O 3301.43 -0.924006 1.72513 0
M  V30 34647 C 3301.73 2.43426 2.61684 0
M  V30 34648 C 3301.39 3.89374 2.27373 0
M  V30 34649 C 3300.05 4.29125 2.17727 0
M  V30 34650 C 3302.41 4.8136 1.99854 0
M  V30 34651 C 3299.73 5.58818 1.78715 0
M  V30 34652 C 3302.09 6.11415 1.62342 0
M  V30 34653 C 3300.75 6.50145 1.51219 0
M  V30 34654 H 3300.02 0.52963 0.518241 0
M  V30 34655 H 3302.67 1.76344 0.74667 0
M  V30 34656 H 3300.97 2.05212 3.33759 0
M  V30 34657 H 3302.67 2.41806 3.19892 0
M  V30 34658 H 3299.26 3.57913 2.35789 0
M  V30 34659 H 3303.44 4.51423 2.06229 0
M  V30 34660 H 3298.7 5.87669 1.68687 0
M  V30 34661 H 3302.87 6.82166 1.40079 0
M  V30 34662 H 3300.5 7.50547 1.20761 0
M  V30 34663 N 3302.08 -0.894389 1.29763 0
M  V30 34664 C 3303.32 -1.64212 1.17809 0
M  V30 34665 C 3303.64 -1.93128 -0.269554 0
M  V30 34666 O 3302.91 -1.5611 -1.1835 0
M  V30 34667 H 3301.49 -0.608694 0.433013 0
M  V30 34668 H 3304.16 -1.07213 1.62762 0
M  V30 34669 H 3303.25 -2.59627 1.73205 0
M  V30 34670 N 3303.55 -1.12326 -1.10547 0
M  V30 34671 C 3304.52 -0.793193 -2.15037 0
M  V30 34672 C 3305.52 0.191891 -1.59651 0
M  V30 34673 O 3306.71 -0.0337569 -1.74167 0
M  V30 34674 C 3303.84 -0.17848 -3.40432 0
M  V30 34675 H 3305.03 -1.71896 -2.45747 0
M  V30 34676 H 3302.58 -0.926355 -1.2589 0
M  V30 34677 H 3303.32 0.757067 -3.15339 0
M  V30 34678 H 3303.1 -0.887712 -3.81919 0
M  V30 34679 H 3304.59 0.035999 -4.17584 0
M  V30 34680 N 3305.03 1.28319 -0.914988 0
M  V30 34681 C 3306.44 1.7696 -0.595151 0
M  V30 34682 C 3306.79 1.74876 0.88955 0
M  V30 34683 O 3305.92 1.34421 1.69588 0
M  V30 34684 C 3306.51 3.2134 -1.07358 0
M  V30 34685 C 3305.07 3.67699 -0.804642 0
M  V30 34686 C 3304.22 2.48051 -1.2396 0
M  V30 34687 H 3307.17 1.14765 -1.09612 0
M  V30 34688 H 3307.19 3.78224 -0.415572 0
M  V30 34689 H 3306.7 3.22825 -2.15419 0
M  V30 34690 H 3304.8 3.71673 0.262704 0
M  V30 34691 H 3304.92 4.57782 -1.41325 0
M  V30 34692 H 3303.28 2.46045 -0.658317 0
M  V30 34693 H 3304.06 2.52254 -2.32858 0
M  V30 34694 N 3306.51 0.679102 1.42218 0
M  V30 34695 C 3307.73 0.210133 2.06333 0
M  V30 34696 C 3308.16 -1.1256 1.50705 0
M  V30 34697 O 3307.52 -1.70103 0.627271 0
M  V30 34698 C 3307.57 0.160386 3.60243 0
M  V30 34699 O 3306.67 -0.869801 4.03123 0
M  V30 34700 H 3306.01 0.106765 0.65536 0
M  V30 34701 H 3308.54 0.929326 1.82276 0
M  V30 34702 H 3308.55 -0.0143123 4.07997 0
M  V30 34703 H 3307.23 1.13533 4.00104 0
M  V30 34704 H 3305.8 -0.665796 3.66908 0
M  V30 34705 N 3307.99 -1.51825 0.42272 0
M  V30 34706 C 3309.22 -2.06073 -0.147493 0
M  V30 34707 C 3309.63 -1.29152 -1.38262 0
M  V30 34708 O 3308.97 -0.340338 -1.8052 0
M  V30 34709 C 3309.03 -3.55276 -0.549496 0
M  V30 34710 C 3308.69 -4.53346 0.576784 0
M  V30 34711 C 3309.69 -4.9943 1.44451 0
M  V30 34712 C 3307.38 -4.96618 0.753351 0
M  V30 34713 C 3309.37 -5.87444 2.47363 0
M  V30 34714 C 3307.06 -5.84426 1.78576 0
M  V30 34715 C 3308.06 -6.29735 2.6443 0
M  V30 34716 O 3307.74 -7.15802 3.65901 0
M  V30 34717 H 3307.48 -0.675764 -0.0178792 0
M  V30 34718 H 3310.03 -1.96554 0.596292 0
M  V30 34719 H 3308.26 -3.62527 -1.34577 0
M  V30 34720 H 3309.95 -3.92106 -1.04918 0
M  V30 34721 H 3310.71 -4.66704 1.31956 0
M  V30 34722 H 3306.59 -4.60903 0.0947215 0
M  V30 34723 H 3310.14 -6.22731 3.14408 0
M  V30 34724 H 3306.03 -6.16565 1.91096 0
M  V30 34725 H 3306.8 -7.33946 3.62307 0
M  V30 34726 N 3309.47 -0.153581 -1.5685 0
M  V30 34727 C 3310.71 0.498551 -1.98227 0
M  V30 34728 C 3311.07 1.61603 -1.03674 0
M  V30 34729 O 3312.27 2.32948 -1.34121 0
M  V30 34730 C 3310.54 0.985618 -3.43541 0
M  V30 34731 S 3312.1 1.64143 -4.06943 0
M  V30 34732 H 3308.92 0.160981 -0.692536 0
M  V30 34733 H 3311.52 -0.246852 -1.93935 0
M  V30 34734 H 3310.22 0.161636 -4.10082 0
M  V30 34735 H 3309.76 1.76549 -3.5156 0
M  V30 34736 H 3311.77 2.92893 -4.00535 0
M  V30 34737 N 3310.94 1.57141 0.120193 0
M  V30 34738 C 3311.89 2.01235 1.1665 0
M  V30 34739 C 3312.89 0.909079 1.42941 0
M  V30 34740 O 3314.09 1.09428 1.42918 0
M  V30 34741 H 3310.47 0.640965 0.393278 0
M  V30 34742 H 3312.44 2.88345 0.768106 0
M  V30 34743 C 3311.19 2.43156 2.48536 0
M  V30 34744 H 3310.51 3.27618 2.29143 0
M  V30 34745 H 3311.95 2.77808 3.2031 0
M  V30 34746 C 3310.41 1.29473 3.11028 0
M  V30 34747 O 3310.94 0.610052 3.97041 0
M  V30 34748 N 3309.14 1.05209 2.70886 0
M  V30 34749 H 3308.69 1.61066 2.01036 0
M  V30 34750 H 3308.65 0.293402 3.13028 0
M  V30 34751 N 3312.42 -0.39034 1.5269 0
M  V30 34752 C 3313.67 -1.13326 1.67337 0
M  V30 34753 C 3313.99 -1.90531 0.415101 0
M  V30 34754 O 3313.26 -1.8741 -0.570471 0
M  V30 34755 H 3311.84 -0.421346 0.616828 0
M  V30 34756 H 3314.5 -0.442967 1.89799 0
M  V30 34757 H 3313.6 -1.83691 2.52317 0
M  V30 34758 N 3313.9 -1.4363 -0.648706 0
M  V30 34759 C 3315.15 -1.45701 -1.41064 0
M  V30 34760 C 3315.48 -0.0826461 -1.94024 0
M  V30 34761 O 3314.75 0.897177 -1.72572 0
M  V30 34762 C 3315.04 -2.50308 -2.58878 0
M  V30 34763 C 3314.89 -3.97037 -2.1138 0
M  V30 34764 C 3316.21 -2.51603 -3.61087 0
M  V30 34765 H 3313.33 -0.530521 -0.511582 0
M  V30 34766 H 3315.97 -1.75206 -0.735038 0
M  V30 34767 H 3314.12 -2.2528 -3.16514 0
M  V30 34768 H 3315.79 -4.33138 -1.5871 0
M  V30 34769 H 3314.04 -4.09653 -1.42713 0
M  V30 34770 H 3314.71 -4.6585 -2.96121 0
M  V30 34771 H 3317.18 -2.73922 -3.13218 0
M  V30 34772 H 3316.06 -3.2673 -4.41066 0
M  V30 34773 H 3316.32 -1.55149 -4.13982 0
M  V30 34774 N 3315.38 0.887495 -1.30236 0
M  V30 34775 C 3316.79 1.17035 -1.08512 0
M  V30 34776 C 3316.99 2.00897 0.155752 0
M  V30 34777 O 3316.05 2.3776 0.850081 0
M  V30 34778 C 3317.36 1.87947 -2.34727 0
M  V30 34779 C 3318.91 2.00722 -2.40166 0
M  V30 34780 C 3319.39 2.75045 -3.66216 0
M  V30 34781 N 3320.88 2.82592 -3.67009 0
M  V30 34782 C 3321.61 3.40668 -4.6123 0
M  V30 34783 N 3321.11 3.99813 -5.65793 0
M  V30 34784 N 3322.9 3.38459 -4.48778 0
M  V30 34785 H 3315.05 0.32826 -2.09848 0
M  V30 34786 H 3317.32 0.207964 -0.924908 0
M  V30 34787 H 3317.02 1.33768 -3.25268 0
M  V30 34788 H 3316.9 2.88346 -2.4318 0
M  V30 34789 H 3319.28 2.54072 -1.50105 0
M  V30 34790 H 3319.36 0.994176 -2.3569 0
M  V30 34791 H 3319.01 2.22368 -4.56634 0
M  V30 34792 H 3318.94 3.7672 -3.67953 0
M  V30 34793 H 3321.43 2.40597 -2.91413 0
M  V30 34794 H 3321.74 4.42186 -6.33791 0
M  V30 34795 H 3320.09 3.9824 -5.69588 0
M  V30 34796 H 3323.28 2.91479 -3.66275 0
M  V30 34797 H 3323.45 3.83424 -5.22389 0
M  V30 34798 N 3316.86 1.12911 1.0995 0
M  V30 34799 C 3317.77 0.814749 2.19998 0
M  V30 34800 C 3318.78 -0.198479 1.72864 0
M  V30 34801 O 3319.96 -0.0308478 2.01376 0
M  V30 34802 C 3317.02 0.279424 3.45572 0
M  V30 34803 C 3316.08 1.35322 4.07414 0
M  V30 34804 C 3315.32 0.84334 5.26995 0
M  V30 34805 O 3315.54 -0.321064 5.69496 0
M  V30 34806 O 3314.47 1.61522 5.79823 0
M  V30 34807 H 3318.3 1.73403 2.4933 0
M  V30 34808 H 3315.89 0.906149 1.18783 0
M  V30 34809 H 3317.77 -0.0139791 4.21398 0
M  V30 34810 H 3316.44 -0.612345 3.17855 0
M  V30 34811 H 3315.35 1.69986 3.3325 0
M  V30 34812 H 3316.68 2.21893 4.39345 0
M  V30 34813 N 3318.33 -1.27832 0.92178 0
M  V30 34814 C 3319.26 -2.29441 0.433506 0
M  V30 34815 C 3320.25 -1.6249 -0.503104 0
M  V30 34816 O 3321.43 -1.89842 -0.409122 0
M  V30 34817 C 3318.56 -3.45823 -0.319968 0
M  V30 34818 C 3317.51 -4.24728 0.528253 0
M  V30 34819 C 3316.84 -5.33527 -0.354038 0
M  V30 34820 C 3318.14 -4.90681 1.78967 0
M  V30 34821 H 3319.83 -2.70532 1.28268 0
M  V30 34822 H 3317.38 -1.30054 0.61822 0
M  V30 34823 H 3319.33 -4.16 -0.672453 0
M  V30 34824 H 3318.06 -3.03633 -1.20311 0
M  V30 34825 H 3316.72 -3.56289 0.863364 0
M  V30 34826 H 3316.36 -4.87579 -1.23596 0
M  V30 34827 H 3316.06 -5.87225 0.209958 0
M  V30 34828 H 3317.59 -6.06549 -0.702226 0
M  V30 34829 H 3319 -5.53176 1.50561 0
M  V30 34830 H 3317.4 -5.54411 2.2967 0
M  V30 34831 H 3318.47 -4.14717 2.51273 0
M  V30 34832 N 3319.81 -0.686634 -1.41856 0
M  V30 34833 C 3321.04 -0.222274 -2.05401 0
M  V30 34834 C 3321.45 1.1302 -1.51733 0
M  V30 34835 O 3320.79 1.7156 -0.656731 0
M  V30 34836 C 3320.86 -0.092724 -3.5938 0
M  V30 34837 C 3320.52 -1.37581 -4.35799 0
M  V30 34838 C 3321.52 -2.31179 -4.65674 0
M  V30 34839 C 3319.2 -1.6267 -4.7523 0
M  V30 34840 C 3321.2 -3.48134 -5.3393 0
M  V30 34841 C 3318.88 -2.79912 -5.43224 0
M  V30 34842 C 3319.88 -3.72468 -5.72501 0
M  V30 34843 O 3319.57 -4.87658 -6.39097 0
M  V30 34844 H 3319.3 -0.102888 -0.668124 0
M  V30 34845 H 3321.85 -0.937172 -1.82774 0
M  V30 34846 H 3320.08 0.677863 -3.80712 0
M  V30 34847 H 3321.77 0.333293 -4.04529 0
M  V30 34848 H 3322.54 -2.1305 -4.357 0
M  V30 34849 H 3318.42 -0.914941 -4.51829 0
M  V30 34850 H 3321.96 -4.20396 -5.56698 0
M  V30 34851 H 3317.86 -2.97961 -5.72616 0
M  V30 34852 H 3318.63 -4.87356 -6.57591 0
M  V30 34853 N 3321.29 1.51599 -0.430766 0
M  V30 34854 C 3322.22 2.30475 0.374655 0
M  V30 34855 C 3323.2 1.35604 1.02691 0
M  V30 34856 O 3324.39 1.64522 1.03181 0
M  V30 34857 C 3321.52 3.14198 1.47975 0
M  V30 34858 C 3320.47 4.17293 0.951342 0
M  V30 34859 C 3319.8 4.89496 2.15169 0
M  V30 34860 C 3321.1 5.22299 -0.00967132 0
M  V30 34861 H 3322.79 2.98054 -0.28356 0
M  V30 34862 H 3320.34 1.43339 -0.137815 0
M  V30 34863 H 3322.29 3.68155 2.05037 0
M  V30 34864 H 3321.01 2.44428 2.16616 0
M  V30 34865 H 3319.67 3.64378 0.402988 0
M  V30 34866 H 3319.32 4.16235 2.82414 0
M  V30 34867 H 3319.02 5.59205 1.80454 0
M  V30 34868 H 3320.54 5.46274 2.72796 0
M  V30 34869 H 3321.96 5.71367 0.470427 0
M  V30 34870 H 3320.36 5.99496 -0.269065 0
M  V30 34871 H 3321.43 4.75535 -0.948381 0
M  V30 34872 N 3322.77 0.161897 1.56766 0
M  V30 34873 C 3323.72 -0.789035 2.18808 0
M  V30 34874 C 3324.71 -1.24443 1.14936 0
M  V30 34875 O 3325.92 -1.21118 1.33156 0
M  V30 34876 H 3322.29 -0.2727 0.700813 0
M  V30 34877 H 3324.26 -0.241713 2.97419 0
M  V30 34878 C 3323.01 -2.01202 2.83572 0
M  V30 34879 H 3322.33 -1.67062 3.63222 0
M  V30 34880 H 3323.77 -2.65648 3.30465 0
M  V30 34881 C 3322.23 -2.82961 1.82851 0
M  V30 34882 O 3322.76 -3.79803 1.30816 0
M  V30 34883 N 3320.97 -2.47789 1.5182 0
M  V30 34884 H 3320.52 -1.69099 1.94327 0
M  V30 34885 H 3320.47 -3.02782 0.846795 0
M  V30 34886 N 3324.25 -1.57203 -0.111858 0
M  V30 34887 C 3325.47 -1.89792 -0.836284 0
M  V30 34888 C 3325.9 -0.754544 -1.72303 0
M  V30 34889 O 3325.25 0.29464 -1.7889 0
M  V30 34890 C 3325.3 -3.21166 -1.63965 0
M  V30 34891 O 3324.41 -3.07575 -2.74721 0
M  V30 34892 H 3323.75 -0.622589 -0.230822 0
M  V30 34893 H 3326.28 -2.04393 -0.0921118 0
M  V30 34894 H 3326.29 -3.54063 -2.0274 0
M  V30 34895 H 3324.96 -4.03976 -0.988749 0
M  V30 34896 H 3323.54 -2.8616 -2.39096 0
M  V30 34897 N 3325.72 0.382237 -1.52894 0
M  V30 34898 C 3326.95 1.15213 -1.72455 0
M  V30 34899 C 3327.37 1.82761 -0.444957 0
M  V30 34900 O 3326.73 1.71091 0.599795 0
M  V30 34901 C 3326.78 2.17074 -2.87943 0
M  V30 34902 O 3325.88 3.23806 -2.55388 0
M  V30 34903 H 3325.23 0.335089 -0.573246 0
M  V30 34904 H 3327.76 0.44446 -1.99714 0
M  V30 34905 H 3327.77 2.60957 -3.13632 0
M  V30 34906 H 3326.44 1.67298 -3.80768 0
M  V30 34907 H 3325.02 2.85013 -2.40462 0
M  V30 34908 N 3327.2 1.43972 0.64108 0
M  V30 34909 C 3328.15 1.50356 1.77471 0
M  V30 34910 C 3329.15 0.376081 1.65173 0
M  V30 34911 O 3330.35 0.550602 1.71372 0
M  V30 34912 H 3326.73 0.471608 0.585739 0
M  V30 34913 H 3328.7 2.45787 1.69208 0
M  V30 34914 C 3327.45 1.45538 3.15775 0
M  V30 34915 H 3326.77 2.31605 3.25882 0
M  V30 34916 H 3328.21 1.54065 3.95019 0
M  V30 34917 C 3326.67 0.174683 3.36447 0
M  V30 34918 O 3327.2 -0.759146 3.94461 0
M  V30 34919 N 3325.4 0.0809894 2.90487 0
M  V30 34920 H 3324.95 0.841734 2.4346 0
M  V30 34921 H 3324.91 -0.775177 3.04694 0
M  V30 34922 N 3328.68 -0.880575 1.30704 0
M  V30 34923 C 3329.93 -1.63517 1.19958 0
M  V30 34924 C 3330.26 -1.92659 -0.244181 0
M  V30 34925 O 3329.54 -1.55065 -1.1741 0
M  V30 34926 C 3329.82 -2.97218 2.03307 0
M  V30 34927 C 3329.67 -2.75021 3.55926 0
M  V30 34928 C 3330.99 -3.98194 1.87428 0
M  V30 34929 H 3328.11 -0.593369 0.43713 0
M  V30 34930 H 3330.75 -1.01868 1.60384 0
M  V30 34931 H 3328.9 -3.49836 1.68959 0
M  V30 34932 H 3330.57 -2.29157 4.00356 0
M  V30 34933 H 3328.82 -2.09445 3.79888 0
M  V30 34934 H 3329.49 -3.7011 4.0954 0
M  V30 34935 H 3331.96 -3.54751 2.17465 0
M  V30 34936 H 3330.84 -4.89648 2.48065 0
M  V30 34937 H 3331.1 -4.3415 0.83464 0
M  V30 34938 N 3330.16 -1.13492 -1.09349 0
M  V30 34939 C 3331.39 -0.920356 -1.85303 0
M  V30 34940 C 3331.8 0.530851 -1.81183 0
M  V30 34941 O 3331.16 1.36748 -1.20856 0
M  V30 34942 C 3331.21 -1.40104 -3.33246 0
M  V30 34943 O 3330.93 -2.79537 -3.37328 0
M  V30 34944 C 3332.43 -1.22502 -4.26038 0
M  V30 34945 H 3329.65 -0.328144 -0.585288 0
M  V30 34946 H 3332.2 -1.50767 -1.38165 0
M  V30 34947 H 3330.35 -0.856707 -3.77809 0
M  V30 34948 H 3330.77 -3.00893 -4.29609 0
M  V30 34949 H 3332.24 -1.61009 -5.27996 0
M  V30 34950 H 3332.72 -0.166794 -4.38883 0
M  V30 34951 H 3333.32 -1.75742 -3.87292 0
M  V30 34952 N 3331.64 1.27341 -0.928546 0
M  V30 34953 C 3332.87 1.98435 -0.585769 0
M  V30 34954 C 3333.28 1.69262 0.83641 0
M  V30 34955 O 3332.64 0.953653 1.55601 0
M  V30 34956 C 3332.69 3.52465 -0.803154 0
M  V30 34957 O 3332.41 3.80617 -2.16938 0
M  V30 34958 C 3333.91 4.4081 -0.469205 0
M  V30 34959 H 3331.13 0.633247 -0.221898 0
M  V30 34960 H 3333.67 1.62173 -1.2458 0
M  V30 34961 H 3331.83 3.86934 -0.189914 0
M  V30 34962 H 3332.24 4.75201 -2.22001 0
M  V30 34963 H 3333.72 5.47894 -0.672002 0
M  V30 34964 H 3334.19 4.35147 0.595288 0
M  V30 34965 H 3334.8 4.11863 -1.06062 0
M  V30 34966 N 3333.12 0.694147 1.4149 0
M  V30 34967 C 3334.05 -0.0225946 2.28189 0
M  V30 34968 C 3335.03 -0.789375 1.42154 0
M  V30 34969 O 3336.21 -0.780489 1.71583 0
M  V30 34970 C 3333.34 -1.03936 3.22358 0
M  V30 34971 C 3332.38 -0.365919 4.24927 0
M  V30 34972 S 3333.22 0.890655 5.28041 0
M  V30 34973 C 3334.37 -0.124555 6.25776 0
M  V30 34974 H 3334.61 0.712749 2.8863 0
M  V30 34975 H 3332.14 0.484369 1.46606 0
M  V30 34976 H 3334.1 -1.62085 3.77146 0
M  V30 34977 H 3332.76 -1.74727 2.61016 0
M  V30 34978 H 3331.95 -1.1338 4.91082 0
M  V30 34979 H 3331.55 0.142454 3.73729 0
M  V30 34980 H 3333.84 -0.978275 6.704 0
M  V30 34981 H 3334.79 0.503025 7.06311 0
M  V30 34982 H 3335.2 -0.478693 5.62467 0
M  V30 34983 N 3334.59 -1.51368 0.438799 0
M  V30 34984 C 3335.87 -1.94702 -0.187186 0
M  V30 34985 C 3336.25 -1.37754 -1.59959 0
M  V30 34986 O 3335.6 -0.56521 -2.21399 0
M  V30 34987 C 3335.81 -3.48617 -0.163429 0
M  V30 34988 C 3337.16 -4.23 -0.368281 0
M  V30 34989 O 3338.18 -3.55381 -0.241479 0
M  V30 34990 O 3337.04 -5.42962 -0.62082 0
M  V30 34991 H 3334.13 -0.816849 -0.12918 0
M  V30 34992 H 3336.68 -1.62263 0.496883 0
M  V30 34993 H 3335.45 -3.82527 0.823949 0
M  V30 34994 H 3335.07 -3.87503 -0.890346 0
M  V30 34995 N 3336.07 -0.170208 -1.56678 0
M  V30 34996 C 3337.32 0.475029 -1.96849 0
M  V30 34997 C 3337.65 1.63328 -1.05614 0
M  V30 34998 O 3336.9 1.95493 -0.0900051 0
M  V30 34999 C 3337.2 1.0007 -3.43105 0
M  V30 35000 C 3336.87 -0.0415331 -4.50881 0
M  V30 35001 C 3335.53 -0.327978 -4.80081 0
M  V30 35002 C 3337.88 -0.749027 -5.1579 0
M  V30 35003 C 3335.21 -1.32732 -5.71488 0
M  V30 35004 C 3337.56 -1.73735 -6.08275 0
M  V30 35005 C 3336.22 -2.03125 -6.35843 0
M  V30 35006 H 3335.49 0.173825 -0.720323 0
M  V30 35007 H 3338.14 -0.261936 -1.897 0
M  V30 35008 H 3336.45 1.81546 -3.472 0
M  V30 35009 H 3338.14 1.50892 -3.71527 0
M  V30 35010 H 3334.73 0.1919 -4.2817 0
M  V30 35011 H 3338.92 -0.540939 -4.93343 0
M  V30 35012 H 3334.17 -1.56122 -5.91131 0
M  V30 35013 H 3338.35 -2.29094 -6.57639 0
M  V30 35014 H 3335.97 -2.80711 -7.06474 0
M  V30 35015 N 3337.55 1.5726 0.10352 0
M  V30 35016 C 3338.79 1.87481 0.814256 0
M  V30 35017 C 3339.15 0.760157 1.76311 0
M  V30 35018 O 3340.35 0.944558 2.51658 0
M  V30 35019 C 3338.63 3.22941 1.53114 0
M  V30 35020 S 3340.18 3.74835 2.28132 0
M  V30 35021 H 3337 0.657141 0.271453 0
M  V30 35022 H 3339.6 1.95368 0.0717957 0
M  V30 35023 H 3338.31 4.01995 0.826326 0
M  V30 35024 H 3337.84 3.18172 2.31366 0
M  V30 35025 H 3339.85 3.47576 3.54126 0
M  V30 35026 N 3339.03 -0.374123 1.53095 0
M  V30 35027 C 3339.94 -1.48184 1.81875 0
M  V30 35028 C 3340.95 -1.59011 0.706515 0
M  V30 35029 O 3342.13 -1.75066 0.995679 0
M  V30 35030 C 3339.19 -2.83551 1.99499 0
M  V30 35031 C 3338.26 -2.82323 3.23407 0
M  V30 35032 C 3337.49 -4.11233 3.40181 0
M  V30 35033 O 3337.71 -5.0696 2.61434 0
M  V30 35034 O 3336.65 -4.17565 4.33501 0
M  V30 35035 H 3340.47 -1.2679 2.75967 0
M  V30 35036 H 3338.06 -0.563405 1.38369 0
M  V30 35037 H 3339.94 -3.63774 2.12712 0
M  V30 35038 H 3338.61 -3.0494 1.08597 0
M  V30 35039 H 3337.52 -2.00828 3.15624 0
M  V30 35040 H 3338.85 -2.65887 4.14204 0
M  V30 35041 N 3340.51 -1.4431 -0.633436 0
M  V30 35042 C 3341.75 -1.46681 -1.39029 0
M  V30 35043 C 3342.07 -0.0997508 -1.94745 0
M  V30 35044 O 3341.34 0.867628 -1.75639 0
M  V30 35045 H 3339.92 -0.540102 -0.516041 0
M  V30 35046 H 3342.59 -1.8007 -0.745707 0
M  V30 35047 H 3341.68 -2.19089 -2.22276 0
M  V30 35048 N 3341.98 0.873632 -1.3117 0
M  V30 35049 C 3343.21 1.6645 -1.23731 0
M  V30 35050 C 3343.63 1.87088 0.194836 0
M  V30 35051 O 3342.99 1.41 1.13967 0
M  V30 35052 C 3343.04 3.01186 -1.9829 0
M  V30 35053 O 3342.14 3.9078 -1.31774 0
M  V30 35054 H 3341.49 0.508183 -0.427371 0
M  V30 35055 H 3344.02 1.08952 -1.73178 0
M  V30 35056 H 3344.03 3.51149 -2.07746 0
M  V30 35057 H 3342.7 2.85485 -3.02442 0
M  V30 35058 H 3341.28 3.49228 -1.30746 0
M  V30 35059 N 3343.46 1.1407 1.08746 0
M  V30 35060 C 3344.71 0.906769 1.81063 0
M  V30 35061 C 3345.04 -0.566812 1.86058 0
M  V30 35062 O 3344.29 -1.4358 1.32979 0
M  V30 35063 C 3344.59 1.44848 3.26732 0
M  V30 35064 C 3344.26 2.94011 3.4186 0
M  V30 35065 C 3342.92 3.34735 3.45697 0
M  V30 35066 C 3345.27 3.89943 3.45824 0
M  V30 35067 C 3342.6 4.70061 3.51083 0
M  V30 35068 C 3344.95 5.25122 3.52746 0
M  V30 35069 C 3343.62 5.65363 3.54854 0
M  V30 35070 H 3342.89 0.33181 0.662558 0
M  V30 35071 H 3345.53 1.4238 1.28063 0
M  V30 35072 H 3343.84 0.852306 3.82417 0
M  V30 35073 H 3345.53 1.24347 3.81233 0
M  V30 35074 H 3342.12 2.61524 3.39563 0
M  V30 35075 H 3346.31 3.59563 3.42094 0
M  V30 35076 H 3341.56 5.00604 3.51006 0
M  V30 35077 H 3345.74 5.99266 3.54758 0
M  V30 35078 H 3343.37 6.70209 3.5878 0
M  V30 35079 N 3344.94 -1.26847 0.935286 0
M  V30 35080 C 3346.35 -1.75991 0.623229 0
M  V30 35081 C 3346.7 -1.76269 -0.861616 0
M  V30 35082 O 3345.83 -1.37102 -1.67428 0
M  V30 35083 C 3346.42 -3.19592 1.12457 0
M  V30 35084 C 3344.98 -3.66372 0.863038 0
M  V30 35085 C 3344.13 -2.46047 1.2789 0
M  V30 35086 H 3347.08 -1.13006 1.11424 0
M  V30 35087 H 3347.1 -3.77515 0.475692 0
M  V30 35088 H 3346.61 -3.19357 2.20528 0
M  V30 35089 H 3344.71 -3.72044 -0.203541 0
M  V30 35090 H 3344.83 -4.55475 1.4859 0
M  V30 35091 H 3343.19 -2.44967 0.697378 0
M  V30 35092 H 3343.97 -2.48518 2.36841 0
M  V30 35093 N 3346.42 -0.701641 -1.4112 0
M  V30 35094 C 3347.66 -0.239419 -2.02993 0
M  V30 35095 C 3348.02 1.14137 -1.54392 0
M  V30 35096 O 3349.22 1.69979 -2.08232 0
M  V30 35097 C 3347.49 -0.301294 -3.56128 0
M  V30 35098 S 3349.05 0.085991 -4.38716 0
M  V30 35099 H 3345.87 -0.0959768 -0.704492 0
M  V30 35100 H 3348.47 -0.920767 -1.72459 0
M  V30 35101 H 3347.18 -1.30812 -3.88994 0
M  V30 35102 H 3346.71 0.399 -3.91371 0
M  V30 35103 H 3348.72 1.31203 -4.7854 0
M  V30 35104 N 3347.9 1.51133 -0.446821 0
M  V30 35105 C 3349.12 2.07069 0.117205 0
M  V30 35106 C 3349.55 1.31112 1.34875 0
M  V30 35107 O 3348.9 0.351751 1.77855 0
M  V30 35108 C 3348.95 3.58278 0.408553 0
M  V30 35109 O 3348.06 3.84411 1.49338 0
M  V30 35110 H 3347.4 0.663996 -0.00229625 0
M  V30 35111 H 3349.93 1.9463 -0.630884 0
M  V30 35112 H 3349.94 4.02688 0.656228 0
M  V30 35113 H 3348.61 4.12985 -0.491516 0
M  V30 35114 H 3347.19 3.51858 1.23493 0
M  V30 35115 N 3349.37 0.178515 1.56586 0
M  V30 35116 C 3350.62 -0.46471 1.96274 0
M  V30 35117 C 3350.94 -1.639 1.06753 0
M  V30 35118 O 3352.14 -2.34893 1.36152 0
M  V30 35119 C 3350.6 -0.878146 3.49022 0
M  V30 35120 C 3350.21 0.27094 4.4718 0
M  V30 35121 C 3351.95 -1.48939 3.97514 0
M  V30 35122 C 3349.86 -0.162529 5.91177 0
M  V30 35123 H 3348.79 -0.177386 0.732837 0
M  V30 35124 H 3351.44 0.267893 1.81534 0
M  V30 35125 H 3349.82 -1.66694 3.59206 0
M  V30 35126 H 3350.99 1.04834 4.48716 0
M  V30 35127 H 3349.31 0.792601 4.08787 0
M  V30 35128 H 3351.91 -1.82587 5.0256 0
M  V30 35129 H 3352.25 -2.38991 3.40865 0
M  V30 35130 H 3352.78 -0.764892 3.90377 0
M  V30 35131 H 3349.52 0.703401 6.51715 0
M  V30 35132 H 3349.04 -0.905139 5.92931 0
M  V30 35133 H 3350.72 -0.60397 6.44175 0
M  V30 35134 N 3350.85 -1.57312 -0.0951784 0
M  V30 35135 C 3352.09 -1.8791 -0.804302 0
M  V30 35136 C 3352.46 -0.769496 -1.75906 0
M  V30 35137 O 3353.66 -0.957891 -2.51153 0
M  V30 35138 C 3351.93 -3.23749 -1.51399 0
M  V30 35139 S 3353.49 -3.7604 -2.26141 0
M  V30 35140 H 3350.31 -0.658571 -0.267964 0
M  V30 35141 H 3352.91 -1.95403 -0.0614338 0
M  V30 35142 H 3351.61 -4.02428 -0.804996 0
M  V30 35143 H 3351.14 -3.19394 -2.29676 0
M  V30 35144 H 3353.16 -3.49449 -3.52278 0
M  V30 35145 N 3352.33 0.365999 -1.53291 0
M  V30 35146 C 3353.26 1.45434 -1.82678 0
M  V30 35147 C 3354.24 1.55906 -0.680255 0
M  V30 35148 O 3355.43 1.7048 -0.930062 0
M  V30 35149 C 3352.56 2.82776 -2.01631 0
M  V30 35150 C 3351.51 2.8713 -3.17397 0
M  V30 35151 C 3350.84 4.27142 -3.21642 0
M  V30 35152 C 3352.14 2.54689 -4.55994 0
M  V30 35153 H 3353.83 1.21091 -2.7382 0
M  V30 35154 H 3351.38 0.581085 -1.31755 0
M  V30 35155 H 3353.33 3.5894 -2.20772 0
M  V30 35156 H 3352.05 3.08506 -1.07198 0
M  V30 35157 H 3350.71 2.13417 -2.98075 0
M  V30 35158 H 3350.36 4.49947 -2.24848 0
M  V30 35159 H 3350.06 4.30971 -3.99422 0
M  V30 35160 H 3351.58 5.0518 -3.42966 0
M  V30 35161 H 3353 3.20567 -4.753 0
M  V30 35162 H 3351.4 2.69835 -5.36012 0
M  V30 35163 H 3352.47 1.49941 -4.61135 0
M  V30 35164 N 3353.81 1.44644 0.625774 0
M  V30 35165 C 3355.03 1.51424 1.41723 0
M  V30 35166 C 3355.46 0.141843 1.87564 0
M  V30 35167 O 3354.82 -0.870026 1.5906 0
M  V30 35168 C 3354.86 2.48812 2.61008 0
M  V30 35169 O 3353.97 1.99334 3.61026 0
M  V30 35170 H 3353.31 0.511127 0.423846 0
M  V30 35171 H 3355.84 1.89828 0.763303 0
M  V30 35172 H 3355.85 2.67023 3.08484 0
M  V30 35173 H 3354.52 3.48495 2.26989 0
M  V30 35174 H 3353.1 1.90915 3.20322 0
M  V30 35175 N 3355.29 -0.866663 1.31631 0
M  V30 35176 C 3356.53 -1.61676 1.21266 0
M  V30 35177 C 3356.86 -1.93656 -0.228528 0
M  V30 35178 O 3356.13 -1.58585 -1.15012 0
M  V30 35179 H 3354.71 -0.599372 0.445827 0
M  V30 35180 H 3357.37 -1.03736 1.64999 0
M  V30 35181 H 3356.46 -2.55895 1.78673 0
M  V30 35182 N 3356.77 -1.14645 -1.0814 0
M  V30 35183 C 3357.7 -0.858705 -2.17137 0
M  V30 35184 C 3358.68 0.187422 -1.69064 0
M  V30 35185 O 3359.86 0.0435117 -1.94151 0
M  V30 35186 C 3356.99 -0.338401 -3.45647 0
M  V30 35187 C 3355.95 -1.32029 -4.07127 0
M  V30 35188 C 3355.27 -0.659168 -5.30621 0
M  V30 35189 C 3356.57 -2.68351 -4.48091 0
M  V30 35190 H 3358.27 -1.77017 -2.41465 0
M  V30 35191 H 3355.81 -0.852543 -1.1605 0
M  V30 35192 H 3357.76 -0.124685 -4.21216 0
M  V30 35193 H 3356.49 0.608496 -3.20881 0
M  V30 35194 H 3355.15 -1.52022 -3.33594 0
M  V30 35195 H 3354.8 0.293623 -5.02142 0
M  V30 35196 H 3354.5 -1.31437 -5.72711 0
M  V30 35197 H 3356.02 -0.45504 -6.08902 0
M  V30 35198 H 3357.43 -2.52249 -5.14824 0
M  V30 35199 H 3355.83 -3.30169 -5.01107 0
M  V30 35200 H 3356.9 -3.25021 -3.59846 0
M  V30 35201 N 3358.24 1.26349 -0.942 0
M  V30 35202 C 3359.52 1.88892 -0.507855 0
M  V30 35203 C 3359.9 1.85121 1.01457 0
M  V30 35204 O 3359.25 1.30609 1.87493 0
M  V30 35205 C 3359.46 3.32188 -1.07013 0
M  V30 35206 C 3360.81 4.0903 -1.13929 0
M  V30 35207 O 3361.83 3.4126 -1.02078 0
M  V30 35208 O 3360.69 5.30227 -1.32371 0
M  V30 35209 H 3357.78 0.810243 -0.165636 0
M  V30 35210 H 3360.33 1.34513 -1.03462 0
M  V30 35211 H 3359.1 3.29299 -2.11372 0
M  V30 35212 H 3358.72 3.94107 -0.525866 0
M  V30 35213 N 3359.72 0.709115 1.40746 0
M  V30 35214 C 3360.95 0.253852 2.05841 0
M  V30 35215 C 3361.37 -1.09338 1.53058 0
M  V30 35216 O 3360.73 -1.68734 0.663211 0
M  V30 35217 C 3360.78 0.236762 3.59822 0
M  V30 35218 O 3359.88 -0.784097 4.04877 0
M  V30 35219 H 3359.22 0.120642 0.652948 0
M  V30 35220 H 3361.75 0.967781 1.80264 0
M  V30 35221 H 3361.76 0.0722333 4.07936 0
M  V30 35222 H 3360.44 1.21995 3.97605 0
M  V30 35223 H 3359.01 -0.587819 3.68238 0
M  V30 35224 N 3361.2 -1.50894 0.454829 0
M  V30 35225 C 3362.13 -2.31042 -0.337941 0
M  V30 35226 C 3363.11 -1.37221 -1.00521 0
M  V30 35227 O 3364.3 -1.66142 -1.0055 0
M  V30 35228 C 3361.43 -3.16513 -1.42958 0
M  V30 35229 C 3360.38 -4.18754 -0.884833 0
M  V30 35230 C 3359.71 -4.92857 -2.07354 0
M  V30 35231 C 3361.01 -5.22218 0.0927634 0
M  V30 35232 H 3362.7 -2.97565 0.330942 0
M  V30 35233 H 3360.25 -1.43102 0.160602 0
M  V30 35234 H 3362.2 -3.7137 -1.99154 0
M  V30 35235 H 3360.92 -2.47843 -2.127 0
M  V30 35236 H 3359.58 -3.64973 -0.344967 0
M  V30 35237 H 3359.23 -4.20675 -2.75756 0
M  V30 35238 H 3358.93 -5.62005 -1.71535 0
M  V30 35239 H 3360.45 -5.50544 -2.64071 0
M  V30 35240 H 3361.87 -5.72043 -0.379468 0
M  V30 35241 H 3360.26 -5.98993 0.364405 0
M  V30 35242 H 3361.33 -4.73966 1.02391 0
M  V30 35243 N 3362.68 -0.186817 -1.56489 0
M  V30 35244 C 3363.95 0.501304 -1.89067 0
M  V30 35245 C 3364.33 1.80231 -1.0991 0
M  V30 35246 O 3363.68 2.27643 -0.197666 0
M  V30 35247 C 3363.89 0.728147 -3.4132 0
M  V30 35248 C 3365.24 1.05123 -4.11381 0
M  V30 35249 O 3366.26 0.816155 -3.46724 0
M  V30 35250 O 3365.12 1.49548 -5.2564 0
M  V30 35251 H 3362.22 0.26029 -0.78497 0
M  V30 35252 H 3364.76 -0.226412 -1.68183 0
M  V30 35253 H 3363.54 -0.190948 -3.90834 0
M  V30 35254 H 3363.16 1.50862 -3.67867 0
M  V30 35255 N 3364.16 1.57361 0.0868344 0
M  V30 35256 C 3365.38 1.91099 0.805983 0
M  V30 35257 C 3365.81 0.78186 1.71081 0
M  V30 35258 O 3365.16 -0.266143 1.79336 0
M  V30 35259 C 3365.21 3.23734 1.58835 0
M  V30 35260 O 3364.32 3.11907 2.69793 0
M  V30 35261 H 3363.66 0.626182 0.220888 0
M  V30 35262 H 3366.19 2.04513 0.0595831 0
M  V30 35263 H 3366.2 3.57244 1.97081 0
M  V30 35264 H 3364.87 4.05498 0.924355 0
M  V30 35265 H 3363.45 2.89927 2.34513 0
M  V30 35266 N 3365.63 -0.357865 1.53483 0
M  V30 35267 C 3366.86 -1.11848 1.73706 0
M  V30 35268 C 3367.27 -1.83284 0.469421 0
M  V30 35269 O 3366.61 -1.74703 -0.567863 0
M  V30 35270 C 3366.68 -2.18727 2.85304 0
M  V30 35271 C 3366.34 -1.66991 4.25398 0
M  V30 35272 C 3367.34 -1.12985 5.07474 0
M  V30 35273 C 3365.02 -1.7227 4.71835 0
M  V30 35274 C 3367.02 -0.649462 6.34083 0
M  V30 35275 C 3364.7 -1.23843 5.9842 0
M  V30 35276 C 3365.7 -0.702719 6.79375 0
M  V30 35277 O 3365.39 -0.225621 8.03583 0
M  V30 35278 H 3365.12 -0.34003 0.584257 0
M  V30 35279 H 3367.68 -0.420278 2.01054 0
M  V30 35280 H 3365.91 -2.92064 2.53447 0
M  V30 35281 H 3367.59 -2.80241 2.93632 0
M  V30 35282 H 3368.36 -1.08239 4.72768 0
M  V30 35283 H 3364.24 -2.12909 4.0889 0
M  V30 35284 H 3367.78 -0.230651 6.97219 0
M  V30 35285 H 3363.68 -1.28285 6.32624 0
M  V30 35286 H 3364.45 -0.344238 8.17776 0
M  V30 35287 N 3367.11 -1.44974 -0.618094 0
M  V30 35288 C 3368.52 -1.43035 -1.19991 0
M  V30 35289 C 3368.87 -0.152457 -1.95607 0
M  V30 35290 O 3368 0.746536 -2.03115 0
M  V30 35291 C 3368.59 -2.59126 -2.18264 0
M  V30 35292 C 3367.15 -2.6034 -2.71845 0
M  V30 35293 C 3366.3 -2.35089 -1.47066 0
M  V30 35294 H 3369.25 -1.53366 -0.408007 0
M  V30 35295 H 3369.27 -2.32624 -3.01108 0
M  V30 35296 H 3368.78 -3.52117 -1.63202 0
M  V30 35297 H 3366.88 -1.71326 -3.30875 0
M  V30 35298 H 3367 -3.59237 -3.16995 0
M  V30 35299 H 3365.36 -1.84438 -1.75655 0
M  V30 35300 H 3366.14 -3.30212 -0.93887 0
M  V30 35301 N 3368.59 0.85967 -1.32089 0
M  V30 35302 C 3369.55 1.94937 -1.20549 0
M  V30 35303 C 3370.55 1.60275 -0.129848 0
M  V30 35304 O 3371.74 1.70007 -0.379883 0
M  V30 35305 C 3368.87 3.30061 -0.852775 0
M  V30 35306 H 3370.07 2.06598 -2.17387 0
M  V30 35307 H 3367.62 1.04924 -1.15848 0
M  V30 35308 H 3368.36 3.241 0.114002 0
M  V30 35309 H 3368.14 3.56595 -1.63041 0
M  V30 35310 H 3369.63 4.09939 -0.796217 0
M  V30 35311 N 3370.07 1.15217 1.0753 0
M  V30 35312 C 3371 0.870209 2.16679 0
M  V30 35313 C 3371.98 -0.178453 1.69161 0
M  V30 35314 O 3373.16 -0.0332148 1.94172 0
M  V30 35315 C 3370.29 0.356727 3.45463 0
M  V30 35316 C 3369.25 1.34186 4.06421 0
M  V30 35317 C 3368.57 0.687299 5.30264 0
M  V30 35318 C 3369.87 2.70723 4.46661 0
M  V30 35319 H 3371.57 1.78295 2.40523 0
M  V30 35320 H 3369.11 0.858686 1.15597 0
M  V30 35321 H 3371.07 0.147021 4.21143 0
M  V30 35322 H 3369.79 -0.591471 3.212 0
M  V30 35323 H 3368.45 1.53789 3.32783 0
M  V30 35324 H 3368.1 -0.266989 5.02291 0
M  V30 35325 H 3367.8 1.34472 5.72006 0
M  V30 35326 H 3369.32 0.487325 6.08652 0
M  V30 35327 H 3370.74 2.54976 5.13479 0
M  V30 35328 H 3369.13 3.32822 4.99349 0
M  V30 35329 H 3370.2 3.26925 3.58117 0
M  V30 35330 N 3371.55 -1.25848 0.948687 0
M  V30 35331 C 3372.46 -2.29832 0.470566 0
M  V30 35332 C 3373.47 -1.67832 -0.45916 0
M  V30 35333 O 3374.65 -1.98563 -0.336858 0
M  V30 35334 C 3371.71 -3.45801 -0.249574 0
M  V30 35335 C 3370.77 -4.23259 0.717633 0
M  V30 35336 C 3370.01 -5.33691 0.0317662 0
M  V30 35337 O 3370.23 -5.57982 -1.18374 0
M  V30 35338 O 3369.16 -5.97647 0.714285 0
M  V30 35339 H 3372.99 -2.72808 1.33452 0
M  V30 35340 H 3370.58 -1.31186 0.714887 0
M  V30 35341 H 3372.46 -4.1628 -0.65492 0
M  V30 35342 H 3371.13 -3.04839 -1.08879 0
M  V30 35343 H 3370.04 -3.55232 1.17307 0
M  V30 35344 H 3371.37 -4.67989 1.52469 0
M  V30 35345 N 3373.02 -0.716569 -1.40368 0
M  V30 35346 C 3374.25 -0.266179 -2.05181 0
M  V30 35347 C 3374.67 1.09237 -1.5399 0
M  V30 35348 O 3374.02 1.6867 -0.696889 0
M  V30 35349 C 3374.08 -0.238447 -3.60713 0
M  V30 35350 O 3373.8 -1.54335 -4.10015 0
M  V30 35351 C 3375.3 0.230375 -4.42701 0
M  V30 35352 H 3372.52 -0.119474 -0.660278 0
M  V30 35353 H 3375.06 -0.975052 -1.79758 0
M  V30 35354 H 3373.22 0.421398 -3.85101 0
M  V30 35355 H 3373.63 -1.44449 -5.04217 0
M  V30 35356 H 3375.1 0.198631 -5.51643 0
M  V30 35357 H 3375.58 1.27269 -4.20356 0
M  V30 35358 H 3376.19 -0.399229 -4.23422 0
M  V30 35359 N 3374.5 1.50651 -0.462825 0
M  V30 35360 C 3375.75 2.01468 0.0966484 0
M  V30 35361 C 3376.06 1.35017 1.41527 0
M  V30 35362 O 3377.27 1.76944 2.0592 0
M  V30 35363 C 3375.73 3.5921 0.222762 0
M  V30 35364 C 3375.33 4.34614 -1.08693 0
M  V30 35365 C 3377.08 4.18095 0.734638 0
M  V30 35366 C 3374.99 5.8412 -0.925067 0
M  V30 35367 H 3373.92 0.752944 0.0398945 0
M  V30 35368 H 3376.57 1.73535 -0.596467 0
M  V30 35369 H 3374.95 3.83696 0.979471 0
M  V30 35370 H 3376.12 4.21859 -1.85395 0
M  V30 35371 H 3374.44 3.87301 -1.52928 0
M  V30 35372 H 3377.03 5.27531 0.872641 0
M  V30 35373 H 3377.38 3.78933 1.72383 0
M  V30 35374 H 3377.91 3.97784 0.0355439 0
M  V30 35375 H 3374.65 6.27741 -1.88738 0
M  V30 35376 H 3374.17 5.99472 -0.198286 0
M  V30 35377 H 3375.85 6.44319 -0.588375 0
M  V30 35378 N 3375.98 0.195113 1.56388 0
M  V30 35379 C 3376.91 -0.757605 2.16317 0
M  V30 35380 C 3377.93 -1.17676 1.125 0
M  V30 35381 O 3379.11 -1.11248 1.39592 0
M  V30 35382 C 3376.21 -2.03442 2.71043 0
M  V30 35383 C 3375.39 -1.77507 3.99763 0
M  V30 35384 C 3374.45 -2.89636 4.39315 0
M  V30 35385 O 3373.47 -2.59243 5.06736 0
M  V30 35386 N 3374.67 -4.17991 4.0282 0
M  V30 35387 H 3377.44 -0.245117 2.98696 0
M  V30 35388 H 3375 0.0131479 1.61895 0
M  V30 35389 H 3376.99 -2.77595 2.94488 0
M  V30 35390 H 3375.56 -2.45813 1.93118 0
M  V30 35391 H 3374.78 -0.871333 3.8445 0
M  V30 35392 H 3376.07 -1.57576 4.83784 0
M  V30 35393 H 3375.47 -4.45536 3.48588 0
M  V30 35394 H 3374.03 -4.88771 4.31215 0
M  V30 35395 N 3377.46 -1.57404 -0.0784879 0
M  V30 35396 C 3378.7 -1.87198 -0.780059 0
M  V30 35397 C 3379.04 -0.786501 -1.77561 0
M  V30 35398 O 3378.31 0.203901 -1.93428 0
M  V30 35399 C 3378.6 -3.27645 -1.49402 0
M  V30 35400 C 3378.45 -4.46838 -0.515338 0
M  V30 35401 C 3379.77 -3.66229 -2.44058 0
M  V30 35402 H 3376.89 -0.680864 -0.282122 0
M  V30 35403 H 3379.53 -1.89951 -0.0433592 0
M  V30 35404 H 3377.68 -3.25429 -2.12199 0
M  V30 35405 H 3379.35 -4.61176 0.106908 0
M  V30 35406 H 3377.59 -4.33467 0.169908 0
M  V30 35407 H 3378.26 -5.41875 -1.05238 0
M  V30 35408 H 3380.74 -3.69496 -1.91342 0
M  V30 35409 H 3379.62 -4.65401 -2.9102 0
M  V30 35410 H 3379.88 -2.95801 -3.28563 0
M  V30 35411 N 3378.94 0.34972 -1.53671 0
M  V30 35412 C 3380.16 1.11086 -1.74549 0
M  V30 35413 C 3380.58 1.8255 -0.481773 0
M  V30 35414 O 3379.94 1.74133 0.546242 0
M  V30 35415 C 3379.99 2.12908 -2.92152 0
M  V30 35416 O 3379.71 1.44351 -4.13636 0
M  V30 35417 C 3381.21 3.01445 -3.25032 0
M  V30 35418 H 3378.43 0.331522 -0.583382 0
M  V30 35419 H 3380.97 0.403806 -2.00474 0
M  V30 35420 H 3379.13 2.79187 -2.68577 0
M  V30 35421 H 3379.54 2.12321 -4.79604 0
M  V30 35422 H 3381.02 3.68838 -4.10685 0
M  V30 35423 H 3381.49 3.67126 -2.4107 0
M  V30 35424 H 3382.1 2.40762 -3.50591 0
M  V30 35425 N 3380.41 1.45299 0.610397 0
M  V30 35426 C 3381.66 1.48444 1.36556 0
M  V30 35427 C 3381.98 0.129171 1.95173 0
M  V30 35428 O 3383.18 0.0382433 2.71473 0
M  V30 35429 C 3381.64 2.61436 2.47345 0
M  V30 35430 C 3381.25 4.03262 1.95151 0
M  V30 35431 C 3382.99 2.73823 3.24378 0
M  V30 35432 C 3380.9 5.07641 3.03405 0
M  V30 35433 H 3379.83 0.552356 0.513243 0
M  V30 35434 H 3382.48 1.71431 0.654505 0
M  V30 35435 H 3380.86 2.31726 3.21121 0
M  V30 35436 H 3382.03 4.42636 1.28102 0
M  V30 35437 H 3380.35 3.953 1.30871 0
M  V30 35438 H 3382.95 3.48976 4.05117 0
M  V30 35439 H 3383.29 1.80358 3.75202 0
M  V30 35440 H 3383.82 3.03044 2.577 0
M  V30 35441 H 3380.56 6.02804 2.57502 0
M  V30 35442 H 3380.08 4.72839 3.6903 0
M  V30 35443 H 3381.76 5.32266 3.67835 0
M  V30 35444 N 3381.89 -0.852653 1.32543 0
M  V30 35445 C 3383.12 -1.6446 1.26363 0
M  V30 35446 C 3383.54 -1.87375 -0.165047 0
M  V30 35447 O 3382.9 -1.42796 -1.1171 0
M  V30 35448 C 3382.95 -2.97994 2.03057 0
M  V30 35449 O 3382.05 -3.88635 1.37974 0
M  V30 35450 H 3381.39 -0.50132 0.435402 0
M  V30 35451 H 3383.92 -1.06183 1.7489 0
M  V30 35452 H 3383.93 -3.478 2.13306 0
M  V30 35453 H 3382.61 -2.80637 3.06946 0
M  V30 35454 H 3381.19 -3.47103 1.36286 0
M  V30 35455 N 3383.37 -1.15786 -1.06918 0
M  V30 35456 C 3384.6 -0.959935 -1.83848 0
M  V30 35457 C 3385.02 0.486841 -1.81691 0
M  V30 35458 O 3384.38 1.34737 -1.21308 0
M  V30 35459 C 3384.43 -1.4842 -3.2864 0
M  V30 35460 O 3383.53 -0.686321 -4.06649 0
M  V30 35461 H 3382.87 -0.342069 -0.569109 0
M  V30 35462 H 3385.4 -1.53874 -1.34848 0
M  V30 35463 H 3385.41 -1.49894 -3.79468 0
M  V30 35464 H 3384.09 -2.53745 -3.29525 0
M  V30 35465 H 3382.66 -0.741565 -3.65452 0
M  V30 35466 N 3384.85 1.25343 -0.955348 0
M  V30 35467 C 3386.08 1.96862 -0.626818 0
M  V30 35468 C 3386.49 1.712 0.80544 0
M  V30 35469 O 3385.83 0.98519 1.55047 0
M  V30 35470 C 3385.89 3.50338 -0.806466 0
M  V30 35471 C 3385.56 3.99677 -2.21602 0
M  V30 35472 C 3386.55 4.10316 -3.19275 0
M  V30 35473 C 3384.24 4.33323 -2.5404 0
M  V30 35474 C 3386.23 4.53918 -4.47479 0
M  V30 35475 C 3383.92 4.7661 -3.82473 0
M  V30 35476 C 3384.92 4.8687 -4.79005 0
M  V30 35477 O 3384.6 5.29197 -6.05149 0
M  V30 35478 H 3384.34 0.634258 -0.233865 0
M  V30 35479 H 3386.89 1.60453 -1.28234 0
M  V30 35480 H 3385.12 3.86586 -0.0937863 0
M  V30 35481 H 3386.81 4.03065 -0.478881 0
M  V30 35482 H 3387.58 3.84553 -2.9554 0
M  V30 35483 H 3383.45 4.24563 -1.7963 0
M  V30 35484 H 3387 4.61841 -5.22828 0
M  V30 35485 H 3382.9 5.0182 -4.06014 0
M  V30 35486 H 3383.66 5.47381 -6.08536 0
M  V30 35487 N 3386.33 0.724003 1.39986 0
M  V30 35488 C 3387.27 0.0768692 2.30672 0
M  V30 35489 C 3388.24 -0.741396 1.48636 0
M  V30 35490 O 3389.43 -0.703618 1.77352 0
M  V30 35491 C 3386.57 -0.83267 3.34904 0
M  V30 35492 C 3385.68 -0.00297349 4.32 0
M  V30 35493 C 3384.82 -0.912768 5.23299 0
M  V30 35494 C 3383.86 -0.077663 6.12051 0
M  V30 35495 N 3382.99 -0.94279 6.95741 0
M  V30 35496 H 3387.83 0.855883 2.85445 0
M  V30 35497 H 3385.37 0.433743 1.4056 0
M  V30 35498 H 3387.33 -1.37434 3.93913 0
M  V30 35499 H 3385.96 -1.57777 2.81613 0
M  V30 35500 H 3385.01 0.655982 3.74701 0
M  V30 35501 H 3386.32 0.643211 4.94635 0
M  V30 35502 H 3385.48 -1.52267 5.87282 0
M  V30 35503 H 3384.22 -1.59276 4.60958 0
M  V30 35504 H 3383.22 0.545119 5.47091 0
M  V30 35505 H 3384.45 0.598945 6.76454 0
M  V30 35506 H 3382.39 -1.60827 6.3598 0
M  V30 35507 H 3382.31 -0.352835 7.55176 0
M  V30 35508 H 3383.58 -1.53861 7.64164 0
M  V30 35509 N 3387.81 -1.50403 0.470808 0
M  V30 35510 C 3388.74 -2.31387 -0.313417 0
M  V30 35511 C 3389.72 -1.38279 -0.990599 0
M  V30 35512 O 3390.9 -1.67199 -0.987825 0
M  V30 35513 C 3388.03 -3.18011 -1.39593 0
M  V30 35514 C 3386.99 -4.19669 -0.840369 0
M  V30 35515 C 3386.31 -4.95029 -2.02115 0
M  V30 35516 C 3387.61 -5.2209 0.148146 0
M  V30 35517 H 3389.31 -2.97198 0.362484 0
M  V30 35518 H 3386.85 -1.42923 0.175771 0
M  V30 35519 H 3388.8 -3.73462 -1.95203 0
M  V30 35520 H 3387.53 -2.50085 -2.1006 0
M  V30 35521 H 3386.19 -3.65319 -0.306238 0
M  V30 35522 H 3385.84 -4.23576 -2.71279 0
M  V30 35523 H 3385.54 -5.63793 -1.65564 0
M  V30 35524 H 3387.06 -5.53314 -2.58217 0
M  V30 35525 H 3388.47 -5.72413 -0.318774 0
M  V30 35526 H 3386.87 -5.98572 0.427916 0
M  V30 35527 H 3387.94 -4.72854 1.07413 0
M  V30 35528 N 3389.28 -0.203404 -1.56282 0
M  V30 35529 C 3390.56 0.481222 -1.89588 0
M  V30 35530 C 3390.94 1.79055 -1.11815 0
M  V30 35531 O 3390.29 2.27421 -0.221799 0
M  V30 35532 C 3390.5 0.691904 -3.42073 0
M  V30 35533 C 3391.85 1.00754 -4.12473 0
M  V30 35534 O 3392.87 0.779335 -3.4757 0
M  V30 35535 O 3391.73 1.43964 -5.27197 0
M  V30 35536 H 3388.82 0.251949 -0.787687 0
M  V30 35537 H 3391.37 -0.244237 -1.67933 0
M  V30 35538 H 3390.14 -0.232391 -3.90609 0
M  V30 35539 H 3389.76 1.46952 -3.69447 0
M  V30 35540 N 3390.76 1.57444 0.0701393 0
M  V30 35541 C 3391.69 2.06841 1.08347 0
M  V30 35542 C 3392.67 0.962249 1.40267 0
M  V30 35543 O 3393.86 1.23507 1.49865 0
M  V30 35544 C 3390.99 2.51372 2.39645 0
M  V30 35545 C 3389.94 3.65879 2.22073 0
M  V30 35546 C 3389.27 3.96471 3.58769 0
M  V30 35547 C 3390.57 4.95865 1.6406 0
M  V30 35548 H 3392.26 2.91752 0.672414 0
M  V30 35549 H 3389.81 1.40354 0.322002 0
M  V30 35550 H 3391.76 2.84542 3.10828 0
M  V30 35551 H 3390.48 1.63492 2.82733 0
M  V30 35552 H 3389.14 3.32994 1.53331 0
M  V30 35553 H 3388.79 3.05719 3.9943 0
M  V30 35554 H 3388.49 4.73576 3.4785 0
M  V30 35555 H 3390.02 4.32139 4.3138 0
M  V30 35556 H 3391.43 5.27255 2.25111 0
M  V30 35557 H 3389.83 5.77303 1.63833 0
M  V30 35558 H 3390.9 4.81146 0.602235 0
M  V30 35559 N 3392.24 -0.341566 1.53854 0
M  V30 35560 C 3393.47 -1.10159 1.75136 0
M  V30 35561 C 3393.88 -1.82292 0.491447 0
M  V30 35562 O 3393.24 -1.74421 -0.536999 0
M  V30 35563 C 3393.29 -2.11355 2.93277 0
M  V30 35564 O 3393.01 -1.42155 4.14395 0
M  V30 35565 C 3394.51 -2.99717 3.26626 0
M  V30 35566 H 3391.73 -0.328423 0.585132 0
M  V30 35567 H 3394.28 -0.393169 2.00685 0
M  V30 35568 H 3392.43 -2.77759 2.70053 0
M  V30 35569 H 3392.85 -2.09774 4.80723 0
M  V30 35570 H 3394.32 -3.66655 4.12636 0
M  V30 35571 H 3394.8 -3.65843 2.43014 0
M  V30 35572 H 3395.4 -2.38899 3.51862 0
M  V30 35573 N 3393.72 -1.45621 -0.602683 0
M  V30 35574 C 3394.97 -1.49166 -1.35766 0
M  V30 35575 C 3395.28 -0.13952 -1.95102 0
M  V30 35576 O 3396.49 -0.0526396 -2.71449 0
M  V30 35577 C 3394.94 -2.62744 -2.45955 0
M  V30 35578 C 3394.55 -4.04291 -1.9301 0
M  V30 35579 C 3396.29 -2.75539 -3.22922 0
M  V30 35580 C 3394.2 -5.09243 -3.00709 0
M  V30 35581 H 3393.13 -0.55507 -0.510307 0
M  V30 35582 H 3395.78 -1.71775 -0.645404 0
M  V30 35583 H 3394.16 -2.33426 -3.19888 0
M  V30 35584 H 3395.34 -4.43309 -1.25753 0
M  V30 35585 H 3393.65 -3.95988 -1.28773 0
M  V30 35586 H 3396.25 -3.51119 -4.03261 0
M  V30 35587 H 3396.59 -1.82346 -3.7424 0
M  V30 35588 H 3397.13 -3.04406 -2.56089 0
M  V30 35589 H 3393.86 -6.04161 -2.54301 0
M  V30 35590 H 3393.38 -4.74789 -3.66517 0
M  V30 35591 H 3395.06 -5.34209 -3.65007 0
M  V30 35592 N 3395.2 0.845612 -1.32993 0
M  V30 35593 C 3396.13 1.9703 -1.25305 0
M  V30 35594 C 3397.11 1.69563 -0.134996 0
M  V30 35595 O 3398.29 1.91484 -0.323663 0
M  V30 35596 C 3395.42 3.33051 -0.984609 0
M  V30 35597 C 3394.38 3.74896 -2.06487 0
M  V30 35598 C 3393.7 5.08648 -1.64869 0
M  V30 35599 C 3395 3.89397 -3.4809 0
M  V30 35600 H 3396.7 2.03721 -2.19404 0
M  V30 35601 H 3394.24 0.978765 -1.05623 0
M  V30 35602 H 3396.19 4.11294 -0.917341 0
M  V30 35603 H 3394.92 3.26599 -0.00798856 0
M  V30 35604 H 3393.58 2.98911 -2.12245 0
M  V30 35605 H 3393.23 4.98661 -0.659271 0
M  V30 35606 H 3392.93 5.37617 -2.37154 0
M  V30 35607 H 3394.45 5.89374 -1.59595 0
M  V30 35608 H 3395.86 4.5797 -3.44871 0
M  V30 35609 H 3394.26 4.29795 -4.18803 0
M  V30 35610 H 3395.33 2.92044 -3.87089 0
M  V30 35611 N 3396.67 1.16351 1.06302 0
M  V30 35612 C 3397.92 0.943105 1.78745 0
M  V30 35613 C 3398.24 -0.53045 1.87647 0
M  V30 35614 O 3397.51 -1.38536 1.38508 0
M  V30 35615 H 3396.09 0.345944 0.662066 0
M  V30 35616 H 3398.75 1.46618 1.28411 0
M  V30 35617 H 3397.85 1.36175 2.80825 0
M  V30 35618 N 3398.15 -1.24835 0.961982 0
M  V30 35619 C 3399.08 -2.27945 0.506281 0
M  V30 35620 C 3400.06 -1.64008 -0.451154 0
M  V30 35621 O 3401.25 -1.91047 -0.348519 0
M  V30 35622 C 3398.38 -3.46666 -0.209785 0
M  V30 35623 C 3397.33 -4.22832 0.663109 0
M  V30 35624 C 3396.66 -5.34383 -0.184122 0
M  V30 35625 C 3397.96 -4.84739 1.94488 0
M  V30 35626 H 3399.65 -2.66315 1.3681 0
M  V30 35627 H 3397.2 -1.28021 0.659283 0
M  V30 35628 H 3399.15 -4.17929 -0.539765 0
M  V30 35629 H 3397.87 -3.07306 -1.10591 0
M  V30 35630 H 3396.53 -3.53362 0.976278 0
M  V30 35631 H 3396.18 -4.91264 -1.08022 0
M  V30 35632 H 3395.88 -5.8626 0.396673 0
M  V30 35633 H 3397.41 -6.08476 -0.508902 0
M  V30 35634 H 3398.82 -5.48106 1.68084 0
M  V30 35635 H 3397.22 -5.46823 2.47192 0
M  V30 35636 H 3398.29 -4.06513 2.64339 0
M  V30 35637 N 3399.63 -0.731417 -1.396 0
M  V30 35638 C 3400.59 -0.0976439 -2.28992 0
M  V30 35639 C 3401.59 0.670891 -1.46136 0
M  V30 35640 O 3402.78 0.50044 -1.66857 0
M  V30 35641 C 3399.91 0.871066 -3.29583 0
M  V30 35642 H 3401.11 -0.885162 -2.8654 0
M  V30 35643 H 3398.66 -0.497028 -1.48187 0
M  V30 35644 H 3399.4 1.68507 -2.77085 0
M  V30 35645 H 3399.18 0.322666 -3.9077 0
M  V30 35646 H 3400.67 1.31119 -3.96481 0
M  V30 35647 N 3401.11 1.50152 -0.478778 0
M  V30 35648 C 3402.07 2.27226 0.300141 0
M  V30 35649 C 3403.07 1.3232 0.913681 0
M  V30 35650 O 3404.26 1.55678 0.781664 0
M  V30 35651 C 3401.39 3.09535 1.42832 0
M  V30 35652 H 3402.59 2.97535 -0.375897 0
M  V30 35653 H 3400.14 1.54553 -0.233064 0
M  V30 35654 H 3400.87 2.4374 2.13919 0
M  V30 35655 H 3400.66 3.79289 0.994095 0
M  V30 35656 H 3402.15 3.67806 1.97759 0
M  V30 35657 N 3402.59 0.211689 1.56172 0
M  V30 35658 C 3403.5 -0.714042 2.23469 0
M  V30 35659 C 3404.51 -1.22157 1.2391 0
M  V30 35660 O 3405.69 -1.26525 1.56695 0
M  V30 35661 C 3402.75 -1.90948 2.89378 0
M  V30 35662 C 3401.81 -1.4449 4.04254 0
M  V30 35663 C 3401.05 -2.58335 4.6701 0
M  V30 35664 O 3401.27 -3.7623 4.28728 0
M  V30 35665 O 3400.2 -2.301 5.56181 0
M  V30 35666 H 3404.03 -0.170809 3.03219 0
M  V30 35667 H 3401.62 -0.0183345 1.49389 0
M  V30 35668 H 3403.5 -2.60782 3.31015 0
M  V30 35669 H 3402.17 -2.441 2.12596 0
M  V30 35670 H 3401.08 -0.714867 3.67206 0
M  V30 35671 H 3402.41 -0.959862 4.8275 0
M  V30 35672 N 3404.06 -1.57479 -0.0617887 0
M  V30 35673 C 3405.31 -1.88874 -0.75486 0
M  V30 35674 C 3405.67 -0.806569 -1.74677 0
M  V30 35675 O 3404.96 0.188268 -1.90673 0
M  V30 35676 C 3405.15 -3.24683 -1.49385 0
M  V30 35677 C 3404.98 -4.46009 -0.575009 0
M  V30 35678 C 3403.75 -5.04871 -0.208206 0
M  V30 35679 C 3405.95 -5.14129 0.132592 0
M  V30 35680 N 3403.93 -6.09718 0.715308 0
M  V30 35681 C 3405.3 -6.13242 0.912929 0
M  V30 35682 C 3407.36 -4.97486 0.203007 0
M  V30 35683 C 3406.06 -6.97507 1.75715 0
M  V30 35684 C 3408.09 -5.82286 1.03424 0
M  V30 35685 C 3407.45 -6.80945 1.8026 0
M  V30 35686 H 3403.55 -0.740508 -0.251341 0
M  V30 35687 H 3406.13 -1.94693 -0.0159965 0
M  V30 35688 H 3404.3 -3.19853 -2.20337 0
M  V30 35689 H 3406.03 -3.43695 -2.13672 0
M  V30 35690 H 3402.79 -4.70238 -0.563271 0
M  V30 35691 H 3403.21 -6.66803 1.1706 0
M  V30 35692 H 3407.86 -4.21118 -0.376705 0
M  V30 35693 H 3405.57 -7.73243 2.3478 0
M  V30 35694 H 3409.16 -5.71463 1.09183 0
M  V30 35695 H 3408.04 -7.45424 2.43543 0
M  V30 35696 N 3405.54 0.333401 -1.54033 0
M  V30 35697 C 3406.79 1.07408 -1.72021 0
M  V30 35698 C 3407.12 1.87987 -0.487298 0
M  V30 35699 O 3406.4 1.87538 0.515724 0
M  V30 35700 C 3406.68 2.00692 -2.98989 0
M  V30 35701 C 3406.53 1.23509 -4.32511 0
M  V30 35702 C 3407.85 3.00362 -3.21668 0
M  V30 35703 H 3404.97 0.389083 -0.625926 0
M  V30 35704 H 3407.61 0.351664 -1.86717 0
M  V30 35705 H 3405.76 2.62293 -2.86591 0
M  V30 35706 H 3407.43 0.644442 -4.56776 0
M  V30 35707 H 3405.68 0.537222 -4.30461 0
M  V30 35708 H 3406.35 1.91953 -5.1755 0
M  V30 35709 H 3408.82 2.4888 -3.33464 0
M  V30 35710 H 3407.7 3.62827 -4.11884 0
M  V30 35711 H 3407.96 3.72291 -2.38436 0
M  V30 35712 N 3407.02 1.45939 0.594952 0
M  V30 35713 C 3407.95 1.58425 1.71533 0
M  V30 35714 C 3408.93 0.435145 1.6444 0
M  V30 35715 O 3410.12 0.659871 1.82645 0
M  V30 35716 C 3407.25 1.56263 3.1016 0
M  V30 35717 C 3406.2 2.70019 3.32075 0
M  V30 35718 C 3405.53 2.52913 4.71104 0
M  V30 35719 C 3406.83 4.11938 3.21098 0
M  V30 35720 H 3408.52 2.5221 1.6134 0
M  V30 35721 H 3406.07 1.21381 0.774769 0
M  V30 35722 H 3408.02 1.63593 3.88349 0
M  V30 35723 H 3406.74 0.590149 3.21224 0
M  V30 35724 H 3405.4 2.62137 2.56281 0
M  V30 35725 H 3405.05 1.53776 4.78917 0
M  V30 35726 H 3404.75 3.29205 4.86721 0
M  V30 35727 H 3406.27 2.62117 5.51477 0
M  V30 35728 H 3407.69 4.20997 3.89146 0
M  V30 35729 H 3406.09 4.88721 3.48241 0
M  V30 35730 H 3407.16 4.32956 2.18351 0
M  V30 35731 N 3408.5 -0.838547 1.3344 0
M  V30 35732 C 3409.46 -1.92995 1.23635 0
M  V30 35733 C 3410.46 -1.60048 0.15533 0
M  V30 35734 O 3411.65 -1.69382 0.406882 0
M  V30 35735 C 3408.78 -3.28663 0.905177 0
M  V30 35736 H 3409.98 -2.03114 2.20647 0
M  V30 35737 H 3407.53 -1.03067 1.17502 0
M  V30 35738 H 3408.26 -3.2424 -0.0624263 0
M  V30 35739 H 3408.05 -3.53956 1.68694 0
M  V30 35740 H 3409.54 -4.08621 0.861334 0
M  V30 35741 N 3409.98 -1.16914 -1.05683 0
M  V30 35742 C 3411.21 -0.977424 -1.82016 0
M  V30 35743 C 3411.61 0.477604 -1.83073 0
M  V30 35744 O 3410.96 1.34336 -1.25298 0
M  V30 35745 C 3411.02 -1.43566 -3.29589 0
M  V30 35746 C 3410.68 -2.91181 -3.52225 0
M  V30 35747 C 3411.68 -3.89148 -3.44761 0
M  V30 35748 C 3409.37 -3.29243 -3.79347 0
M  V30 35749 C 3411.36 -5.23176 -3.64095 0
M  V30 35750 C 3409.05 -4.63439 -3.98331 0
M  V30 35751 C 3410.04 -5.60214 -3.90703 0
M  V30 35752 O 3409.73 -6.91983 -4.09163 0
M  V30 35753 H 3409.46 -0.346283 -0.580572 0
M  V30 35754 H 3412.02 -1.55501 -1.34196 0
M  V30 35755 H 3410.25 -0.801596 -3.78301 0
M  V30 35756 H 3411.94 -1.21039 -3.87433 0
M  V30 35757 H 3412.7 -3.61089 -3.2379 0
M  V30 35758 H 3408.58 -2.54489 -3.84391 0
M  V30 35759 H 3412.13 -5.98699 -3.58057 0
M  V30 35760 H 3408.02 -4.91206 -4.18793 0
M  V30 35761 H 3408.79 -6.9865 -4.26417 0
M  V30 35762 N 3411.45 1.24323 -0.968589 0
M  V30 35763 C 3412.39 2.23837 -0.444105 0
M  V30 35764 C 3413.37 1.55283 0.482283 0
M  V30 35765 O 3414.55 1.8391 0.413456 0
M  V30 35766 C 3411.68 3.36794 0.358815 0
M  V30 35767 C 3410.72 4.2344 -0.509988 0
M  V30 35768 S 3411.56 4.98705 -1.95073 0
M  V30 35769 C 3412.71 6.1512 -1.15662 0
M  V30 35770 H 3412.94 2.67979 -1.28743 0
M  V30 35771 H 3410.48 1.33617 -0.773688 0
M  V30 35772 H 3412.44 4.02306 0.816093 0
M  V30 35773 H 3411.1 2.91209 1.17712 0
M  V30 35774 H 3410.29 5.03887 0.106528 0
M  V30 35775 H 3409.89 3.62934 -0.903031 0
M  V30 35776 H 3412.18 6.76246 -0.412085 0
M  V30 35777 H 3413.13 6.81134 -1.93551 0
M  V30 35778 H 3413.53 5.60382 -0.680606 0
M  V30 35779 N 3412.93 0.73881 1.3921 0
M  V30 35780 C 3413.86 0.116511 2.33209 0
M  V30 35781 C 3414.84 -0.720029 1.54109 0
M  V30 35782 O 3416.03 -0.664232 1.82487 0
M  V30 35783 C 3413.16 -0.788661 3.38227 0
M  V30 35784 C 3412.11 -0.0559884 4.27963 0
M  V30 35785 C 3411.44 -1.07843 5.23712 0
M  V30 35786 C 3412.74 1.10369 5.10506 0
M  V30 35787 H 3414.43 0.9017 2.85499 0
M  V30 35788 H 3411.98 0.435056 1.37271 0
M  V30 35789 H 3413.93 -1.23357 4.0294 0
M  V30 35790 H 3412.66 -1.60601 2.84385 0
M  V30 35791 H 3411.31 0.369339 3.64735 0
M  V30 35792 H 3410.96 -1.88944 4.66164 0
M  V30 35793 H 3410.66 -0.592946 5.84601 0
M  V30 35794 H 3412.19 -1.52296 5.91302 0
M  V30 35795 H 3413.6 0.737043 5.68542 0
M  V30 35796 H 3412 1.51906 5.80556 0
M  V30 35797 H 3413.07 1.92359 4.45113 0
M  V30 35798 N 3414.41 -1.49895 0.486734 0
M  V30 35799 C 3415.66 -2.02403 -0.0628164 0
M  V30 35800 C 3415.99 -1.36756 -1.38304 0
M  V30 35801 O 3415.24 -0.487527 -1.8953 0
M  V30 35802 C 3415.54 -3.56313 -0.27858 0
M  V30 35803 C 3415.21 -4.40521 0.961871 0
M  V30 35804 C 3413.87 -4.63253 1.30193 0
M  V30 35805 C 3416.22 -4.89606 1.78706 0
M  V30 35806 C 3413.55 -5.32314 2.46696 0
M  V30 35807 C 3415.9 -5.59948 2.94349 0
M  V30 35808 C 3414.56 -5.80929 3.28752 0
M  V30 35809 H 3413.83 -0.740643 -0.0229862 0
M  V30 35810 H 3416.48 -1.80347 0.643995 0
M  V30 35811 H 3414.79 -3.76969 -1.06779 0
M  V30 35812 H 3416.48 -3.94519 -0.718009 0
M  V30 35813 H 3413.07 -4.23059 0.686961 0
M  V30 35814 H 3417.26 -4.71884 1.5375 0
M  V30 35815 H 3412.51 -5.46763 2.73605 0
M  V30 35816 H 3416.69 -5.96959 3.58626 0
M  V30 35817 H 3414.31 -6.34218 4.19132 0
M  V30 35818 N 3415.89 -0.219968 -1.56057 0
M  V30 35819 C 3417.12 0.417066 -2.02653 0
M  V30 35820 C 3417.53 1.5346 -1.0998 0
M  V30 35821 O 3416.89 1.82173 -0.10912 0
M  V30 35822 C 3416.94 0.950183 -3.48789 0
M  V30 35823 O 3416.66 -0.122787 -4.37928 0
M  V30 35824 C 3418.16 1.66062 -4.11021 0
M  V30 35825 H 3415.38 0.102242 -0.663165 0
M  V30 35826 H 3417.93 -0.335958 -2.01722 0
M  V30 35827 H 3416.08 1.65349 -3.50341 0
M  V30 35828 H 3416.5 0.277693 -5.23764 0
M  V30 35829 H 3417.97 1.98566 -5.15049 0
M  V30 35830 H 3418.45 2.5732 -3.55926 0
M  V30 35831 H 3419.05 1.00256 -4.13315 0
M  V30 35832 N 3417.37 1.57509 0.0534363 0
M  V30 35833 C 3418.31 2.0494 1.06151 0
M  V30 35834 C 3419.28 0.933594 1.3738 0
M  V30 35835 O 3420.47 1.20253 1.48135 0
M  V30 35836 C 3417.61 2.51347 2.36471 0
M  V30 35837 C 3416.72 3.76622 2.11613 0
M  V30 35838 C 3415.86 4.11737 3.35628 0
M  V30 35839 C 3414.9 5.29998 3.06216 0
M  V30 35840 N 3414.03 5.60662 4.22613 0
M  V30 35841 H 3418.87 2.90823 0.650071 0
M  V30 35842 H 3416.41 1.43809 0.309396 0
M  V30 35843 H 3418.37 2.76311 3.12583 0
M  V30 35844 H 3417 1.68416 2.75383 0
M  V30 35845 H 3416.05 3.58888 1.2611 0
M  V30 35846 H 3417.36 4.62863 1.85901 0
M  V30 35847 H 3416.52 4.37699 4.20124 0
M  V30 35848 H 3415.26 3.24098 3.64433 0
M  V30 35849 H 3414.26 5.03813 2.20119 0
M  V30 35850 H 3415.49 6.19269 2.78715 0
M  V30 35851 H 3413.43 4.75983 4.51415 0
M  V30 35852 H 3413.35 6.41362 4.00239 0
M  V30 35853 H 3414.62 5.91187 5.08053 0
M  V30 35854 N 3418.85 -0.325228 1.54208 0
M  V30 35855 C 3420.09 -1.06337 1.72333 0
M  V30 35856 C 3420.42 -1.88065 0.496148 0
M  V30 35857 O 3419.68 -1.88607 -0.522107 0
M  V30 35858 C 3419.97 -2.01761 2.95004 0
M  V30 35859 C 3419.64 -1.362 4.29837 0
M  V30 35860 C 3418.3 -1.18051 4.66495 0
M  V30 35861 C 3420.65 -0.891313 5.13522 0
M  V30 35862 C 3417.98 -0.514791 5.84437 0
M  V30 35863 C 3420.33 -0.239423 6.32147 0
M  V30 35864 C 3419 -0.0457665 6.67484 0
M  V30 35865 H 3418.27 -0.389114 0.630612 0
M  V30 35866 H 3420.92 -0.340687 1.88445 0
M  V30 35867 H 3419.22 -2.80474 2.73572 0
M  V30 35868 H 3420.92 -2.589 3.06222 0
M  V30 35869 H 3417.51 -1.51328 4.00996 0
M  V30 35870 H 3421.69 -1.01932 4.8572 0
M  V30 35871 H 3416.95 -0.353537 6.10377 0
M  V30 35872 H 3421.12 0.133307 6.96272 0
M  V30 35873 H 3418.75 0.472111 7.58733 0
M  V30 35874 N 3420.32 -1.46252 -0.587204 0
M  V30 35875 C 3421.57 -1.51329 -1.34558 0
M  V30 35876 C 3421.9 -0.163181 -1.93814 0
M  V30 35877 O 3421.15 0.840646 -1.76725 0
M  V30 35878 C 3421.45 -2.55634 -2.49772 0
M  V30 35879 C 3421.12 -3.99779 -2.08536 0
M  V30 35880 C 3419.78 -4.39024 -1.97005 0
M  V30 35881 C 3422.13 -4.90347 -1.76661 0
M  V30 35882 C 3419.46 -5.66709 -1.5185 0
M  V30 35883 C 3421.81 -6.18464 -1.32985 0
M  V30 35884 C 3420.48 -6.5662 -1.20028 0
M  V30 35885 H 3419.75 -0.553753 -0.492381 0
M  V30 35886 H 3422.39 -1.79705 -0.661684 0
M  V30 35887 H 3420.7 -2.20902 -3.23588 0
M  V30 35888 H 3422.4 -2.56793 -3.07991 0
M  V30 35889 H 3418.99 -3.68755 -2.18444 0
M  V30 35890 H 3423.17 -4.60749 -1.84457 0
M  V30 35891 H 3418.43 -5.95048 -1.40457 0
M  V30 35892 H 3422.6 -6.88073 -1.07373 0
M  V30 35893 H 3420.23 -7.55454 -0.848135 0
M  V30 35894 N 3421.8 0.831459 -1.33883 0
M  V30 35895 C 3423.03 1.61674 -1.28628 0
M  V30 35896 C 3423.44 1.88655 0.143555 0
M  V30 35897 O 3422.78 1.47241 1.09844 0
M  V30 35898 C 3422.84 2.98713 -2.00027 0
M  V30 35899 C 3422.51 2.94667 -3.49314 0
M  V30 35900 C 3423.51 2.69856 -4.4438 0
M  V30 35901 C 3421.19 3.14569 -3.91601 0
M  V30 35902 C 3423.18 2.64985 -5.79708 0
M  V30 35903 C 3420.87 3.09324 -5.27031 0
M  V30 35904 C 3421.87 2.84564 -6.20897 0
M  V30 35905 O 3421.56 2.79235 -7.53846 0
M  V30 35906 H 3421.29 0.509532 -0.444244 0
M  V30 35907 H 3423.84 1.04322 -1.76935 0
M  V30 35908 H 3422.07 3.57948 -1.46322 0
M  V30 35909 H 3423.76 3.59646 -1.88175 0
M  V30 35910 H 3424.53 2.54224 -4.13032 0
M  V30 35911 H 3420.41 3.3286 -3.18944 0
M  V30 35912 H 3423.95 2.45579 -6.52945 0
M  V30 35913 H 3419.85 3.24507 -5.58002 0
M  V30 35914 H 3420.62 2.95023 -7.63481 0
M  V30 35915 N 3423.28 1.17472 1.05062 0
M  V30 35916 C 3424.21 0.915974 2.14784 0
M  V30 35917 C 3425.19 -0.142532 1.69502 0
M  V30 35918 O 3426.38 0.00797935 1.94198 0
M  V30 35919 C 3423.51 0.429924 3.44629 0
M  V30 35920 C 3422.46 1.42776 4.03483 0
M  V30 35921 C 3421.79 0.799621 5.28687 0
M  V30 35922 C 3423.09 2.80137 4.40818 0
M  V30 35923 H 3424.78 1.83356 2.36687 0
M  V30 35924 H 3422.33 0.883012 1.13749 0
M  V30 35925 H 3424.28 0.236319 4.20737 0
M  V30 35926 H 3423 -0.523206 3.22382 0
M  V30 35927 H 3421.66 1.60813 3.29446 0
M  V30 35928 H 3421.31 -0.160385 5.02744 0
M  V30 35929 H 3421.01 1.46575 5.69025 0
M  V30 35930 H 3422.53 0.616319 6.07482 0
M  V30 35931 H 3423.95 2.6581 5.07955 0
M  V30 35932 H 3422.34 3.43339 4.92177 0
M  V30 35933 H 3423.41 3.34448 3.51102 0
M  V30 35934 N 3424.76 -1.23807 0.975168 0
M  V30 35935 C 3425.69 -2.27395 0.530429 0
M  V30 35936 C 3426.67 -1.64477 -0.433734 0
M  V30 35937 O 3427.85 -1.91406 -0.328236 0
M  V30 35938 C 3424.98 -3.46869 -0.173005 0
M  V30 35939 C 3423.94 -4.22105 0.707919 0
M  V30 35940 C 3423.26 -5.34548 -0.127433 0
M  V30 35941 C 3424.56 -4.82649 1.99618 0
M  V30 35942 H 3426.26 -2.64849 1.39627 0
M  V30 35943 H 3423.8 -1.27315 0.672824 0
M  V30 35944 H 3425.76 -4.18478 -0.495408 0
M  V30 35945 H 3424.48 -3.08462 -1.07325 0
M  V30 35946 H 3423.14 -3.52306 1.0137 0
M  V30 35947 H 3422.79 -4.92382 -1.02805 0
M  V30 35948 H 3422.49 -5.85806 0.458831 0
M  V30 35949 H 3424.01 -6.08981 -0.444336 0
M  V30 35950 H 3425.43 -5.46293 1.73888 0
M  V30 35951 H 3423.82 -5.44171 2.52978 0
M  V30 35952 H 3424.89 -4.03686 2.68636 0
M  V30 35953 N 3426.24 -0.746182 -1.38816 0
M  V30 35954 C 3427.48 -0.29846 -1.99884 0
M  V30 35955 C 3427.8 1.12153 -1.5952 0
M  V30 35956 O 3427.07 1.76566 -0.848599 0
M  V30 35957 H 3425.65 -0.10736 -0.739245 0
M  V30 35958 H 3428.32 -0.95863 -1.69695 0
M  V30 35959 H 3427.41 -0.355711 -3.10066 0
M  V30 35960 N 3427.71 1.49635 -0.494676 0
M  V30 35961 C 3428.64 2.31856 0.276566 0
M  V30 35962 C 3429.62 1.39838 0.968474 0
M  V30 35963 O 3430.81 1.6875 0.9611 0
M  V30 35964 C 3427.94 3.20192 1.34516 0
M  V30 35965 C 3426.89 4.20953 0.773497 0
M  V30 35966 C 3426.22 4.98182 1.94214 0
M  V30 35967 C 3427.52 5.21788 -0.231188 0
M  V30 35968 H 3429.21 2.96583 -0.40972 0
M  V30 35969 H 3426.76 1.42625 -0.198486 0
M  V30 35970 H 3428.71 3.7652 1.89237 0
M  V30 35971 H 3427.44 2.53395 2.06054 0
M  V30 35972 H 3426.1 3.6576 0.24808 0
M  V30 35973 H 3425.74 4.27838 2.64506 0
M  V30 35974 H 3425.44 5.66355 1.56574 0
M  V30 35975 H 3426.97 5.57352 2.49381 0
M  V30 35976 H 3428.38 5.72848 0.227667 0
M  V30 35977 H 3426.78 5.97816 -0.52309 0
M  V30 35978 H 3427.85 4.71085 -1.14922 0
M  V30 35979 N 3429.19 0.228241 1.55939 0
M  V30 35980 C 3430.42 -0.409328 2.03321 0
M  V30 35981 C 3430.84 -1.52086 1.10686 0
M  V30 35982 O 3430.2 -1.81044 0.0962802 0
M  V30 35983 C 3430.25 -0.91192 3.48879 0
M  V30 35984 O 3429.35 -2.02283 3.59382 0
M  V30 35985 H 3428.69 -0.0917793 0.657626 0
M  V30 35986 H 3431.22 0.348837 2.01604 0
M  V30 35987 H 3431.23 -1.22 3.89333 0
M  V30 35988 H 3429.91 -0.0984171 4.15784 0
M  V30 35989 H 3428.48 -1.72087 3.30818 0
M  V30 35990 N 3430.67 -1.57536 -0.0450825 0
M  V30 35991 C 3431.63 -2.04492 -1.03517 0
M  V30 35992 C 3432.63 -0.946288 -1.30008 0
M  V30 35993 O 3433.82 -1.2104 -1.2528 0
M  V30 35994 C 3430.96 -2.44828 -2.37217 0
M  V30 35995 H 3432.15 -2.9321 -0.629891 0
M  V30 35996 H 3429.7 -1.53557 -0.291517 0
M  V30 35997 H 3430.44 -1.59217 -2.82525 0
M  V30 35998 H 3430.22 -3.25022 -2.19324 0
M  V30 35999 H 3431.71 -2.8164 -3.08332 0
M  V30 36000 N 3432.15 0.317045 -1.54378 0
M  V30 36001 C 3433.4 1.05177 -1.72107 0
M  V30 36002 C 3433.71 1.88963 -0.505199 0
M  V30 36003 O 3434.92 2.65578 -0.563959 0
M  V30 36004 C 3433.37 1.91952 -3.04438 0
M  V30 36005 C 3432.98 1.13246 -4.33451 0
M  V30 36006 C 3434.72 2.65121 -3.31529 0
M  V30 36007 C 3432.63 1.99204 -5.56841 0
M  V30 36008 H 3431.56 0.396388 -0.641399 0
M  V30 36009 H 3434.21 0.309642 -1.80869 0
M  V30 36010 H 3432.59 2.70089 -2.89599 0
M  V30 36011 H 3433.77 0.398339 -4.59075 0
M  V30 36012 H 3432.08 0.5173 -4.13174 0
M  V30 36013 H 3434.68 3.29753 -4.20912 0
M  V30 36014 H 3435.02 3.33104 -2.49694 0
M  V30 36015 H 3435.56 1.94042 -3.47264 0
M  V30 36016 H 3432.3 1.35718 -6.41296 0
M  V30 36017 H 3431.82 2.70332 -5.35426 0
M  V30 36018 H 3433.49 2.57635 -5.93492 0
M  V30 36019 N 3433.63 1.46561 0.57944 0
M  V30 36020 C 3434.56 1.5189 1.70307 0
M  V30 36021 C 3435.54 0.372748 1.5827 0
M  V30 36022 O 3436.72 0.577368 1.7944 0
M  V30 36023 C 3433.85 1.40054 3.08387 0
M  V30 36024 C 3432.89 2.58892 3.38935 0
M  V30 36025 S 3433.73 4.2123 3.30645 0
M  V30 36026 C 3434.88 4.11908 4.71256 0
M  V30 36027 H 3435.12 2.46956 1.65529 0
M  V30 36028 H 3432.65 1.34487 0.758453 0
M  V30 36029 H 3434.61 1.33912 3.88043 0
M  V30 36030 H 3433.27 0.464103 3.10652 0
M  V30 36031 H 3432.46 2.46613 4.39543 0
M  V30 36032 H 3432.06 2.62041 2.66853 0
M  V30 36033 H 3434.36 3.7879 5.61716 0
M  V30 36034 H 3435.3 5.12526 4.88593 0
M  V30 36035 H 3435.71 3.43109 4.4826 0
M  V30 36036 N 3435.1 -0.824347 1.34322 0
M  V30 36037 C 3436.04 -1.94269 1.21623 0
M  V30 36038 C 3437.05 -1.62165 0.143656 0
M  V30 36039 O 3438.24 -1.74066 0.395383 0
M  V30 36040 C 3435.34 -3.28166 0.846185 0
M  V30 36041 C 3434.51 -3.88303 2.01344 0
M  V30 36042 C 3433.57 -5.00576 1.62203 0
M  V30 36043 O 3432.6 -5.18948 2.3384 0
M  V30 36044 N 3433.8 -5.78026 0.535363 0
M  V30 36045 H 3436.56 -2.05695 2.17967 0
M  V30 36046 H 3434.12 -1.00085 1.27258 0
M  V30 36047 H 3436.12 -4.0072 0.566157 0
M  V30 36048 H 3434.69 -3.12588 -0.0270215 0
M  V30 36049 H 3433.91 -3.08159 2.45828 0
M  V30 36050 H 3435.19 -4.25214 2.79411 0
M  V30 36051 H 3434.59 -5.65668 -0.0602132 0
M  V30 36052 H 3433.15 -6.51038 0.31506 0
M  V30 36053 N 3436.58 -1.18028 -1.04437 0
M  V30 36054 C 3437.83 -0.974787 -1.77836 0
M  V30 36055 C 3438.16 0.494722 -1.87793 0
M  V30 36056 O 3437.44 1.36731 -1.38329 0
M  V30 36057 C 3437.72 -1.62574 -3.21312 0
M  V30 36058 C 3437.57 -3.16786 -3.19322 0
M  V30 36059 C 3438.89 -1.33591 -4.19335 0
M  V30 36060 H 3436.01 -0.355541 -0.645569 0
M  V30 36061 H 3438.65 -1.4564 -1.22021 0
M  V30 36062 H 3436.8 -1.21623 -3.68972 0
M  V30 36063 H 3438.47 -3.66847 -2.79681 0
M  V30 36064 H 3436.72 -3.49141 -2.57455 0
M  V30 36065 H 3437.39 -3.57467 -4.2062 0
M  V30 36066 H 3439.86 -1.69066 -3.80205 0
M  V30 36067 H 3438.74 -1.81711 -5.1795 0
M  V30 36068 H 3439 -0.258093 -4.41346 0
M  V30 36069 N 3438.06 1.23288 -0.98172 0
M  V30 36070 C 3439.31 1.91739 -0.651335 0
M  V30 36071 C 3439.64 1.76588 0.815287 0
M  V30 36072 O 3438.89 1.12153 1.60375 0
M  V30 36073 C 3439.19 3.43435 -0.989304 0
M  V30 36074 C 3438.86 3.78767 -2.44635 0
M  V30 36075 C 3437.52 3.88122 -2.84455 0
M  V30 36076 C 3439.87 3.95778 -3.3913 0
M  V30 36077 C 3437.2 4.11916 -4.17782 0
M  V30 36078 C 3439.55 4.21073 -4.72102 0
M  V30 36079 C 3438.21 4.2865 -5.11679 0
M  V30 36080 H 3437.48 0.701623 -0.23834 0
M  V30 36081 H 3440.13 1.46286 -1.23583 0
M  V30 36082 H 3438.44 3.90468 -0.322745 0
M  V30 36083 H 3440.13 3.94631 -0.711865 0
M  V30 36084 H 3436.72 3.7206 -2.12765 0
M  V30 36085 H 3440.91 3.87939 -3.09543 0
M  V30 36086 H 3436.16 4.16005 -4.48051 0
M  V30 36087 H 3440.34 4.33179 -5.45279 0
M  V30 36088 H 3437.96 4.4684 -6.15011 0
M  V30 36089 N 3439.54 0.753533 1.38418 0
M  V30 36090 C 3440.79 0.309668 2.00118 0
M  V30 36091 C 3441.11 -1.1086 1.59813 0
M  V30 36092 O 3440.37 -1.77365 0.827044 0
M  V30 36093 C 3440.67 0.38 3.55374 0
M  V30 36094 C 3440.33 1.75391 4.1539 0
M  V30 36095 C 3439 2.12992 4.31495 0
M  V30 36096 C 3441.35 2.65516 4.48498 0
M  V30 36097 C 3438.68 3.40189 4.78005 0
M  V30 36098 C 3441.03 3.92104 4.96425 0
M  V30 36099 C 3439.69 4.29773 5.10736 0
M  V30 36100 H 3438.96 0.113315 0.732285 0
M  V30 36101 H 3441.61 0.964004 1.65467 0
M  V30 36102 H 3439.91 -0.3579 3.90162 0
M  V30 36103 H 3441.61 0.0181442 4.00996 0
M  V30 36104 H 3438.2 1.45163 4.03269 0
M  V30 36105 H 3442.38 2.37732 4.35657 0
M  V30 36106 H 3437.64 3.69293 4.87271 0
M  V30 36107 H 3441.81 4.62081 5.21013 0
M  V30 36108 H 3439.44 5.28396 5.46536 0
M  V30 36109 N 3441.02 -1.49371 0.502605 0
M  V30 36110 C 3442.26 -2.02058 -0.0412637 0
M  V30 36111 C 3442.59 -1.38433 -1.37336 0
M  V30 36112 O 3441.86 -0.540208 -1.88304 0
M  V30 36113 H 3440.44 -0.746777 -0.0182391 0
M  V30 36114 H 3443.1 -1.83377 0.660211 0
M  V30 36115 H 3442.19 -3.11638 -0.169758 0
M  V30 36116 N 3442.49 -0.236508 -1.55815 0
M  V30 36117 C 3443.72 0.394975 -2.02789 0
M  V30 36118 C 3444.13 1.5283 -1.11532 0
M  V30 36119 O 3443.48 1.83307 -0.120116 0
M  V30 36120 C 3443.54 0.974006 -3.46054 0
M  V30 36121 C 3443.2 -0.0257629 -4.56993 0
M  V30 36122 C 3444.2 -0.831567 -5.13207 0
M  V30 36123 C 3441.88 -0.148847 -5.02079 0
M  V30 36124 C 3443.88 -1.74701 -6.12991 0
M  V30 36125 C 3441.56 -1.06781 -6.01698 0
M  V30 36126 C 3442.56 -1.86543 -6.57032 0
M  V30 36127 O 3442.25 -2.76892 -7.54709 0
M  V30 36128 H 3441.98 0.099257 -0.668673 0
M  V30 36129 H 3444.54 -0.354862 -2.02311 0
M  V30 36130 H 3442.77 1.77321 -3.43648 0
M  V30 36131 H 3444.46 1.51447 -3.76588 0
M  V30 36132 H 3445.22 -0.747006 -4.79213 0
M  V30 36133 H 3441.1 0.461895 -4.5868 0
M  V30 36134 H 3444.64 -2.37001 -6.56107 0
M  V30 36135 H 3440.54 -1.15333 -6.35113 0
M  V30 36136 H 3441.31 -2.71135 -7.72287 0
M  V30 36137 N 3443.97 1.57557 0.0367273 0
M  V30 36138 C 3445.22 1.8892 0.729072 0
M  V30 36139 C 3445.55 0.832832 1.75767 0
M  V30 36140 O 3444.8 -0.167139 1.94985 0
M  V30 36141 C 3445.1 3.27018 1.442 0
M  V30 36142 C 3444.77 4.47532 0.550105 0
M  V30 36143 C 3443.43 4.80236 0.304426 0
M  V30 36144 C 3445.78 5.21158 -0.066158 0
M  V30 36145 C 3443.11 5.83959 -0.566419 0
M  V30 36146 C 3445.46 6.25806 -0.92466 0
M  V30 36147 C 3444.13 6.5699 -1.17987 0
M  V30 36148 H 3443.4 0.691307 0.266787 0
M  V30 36149 H 3446.04 1.91497 -0.0109035 0
M  V30 36150 H 3444.35 3.20394 2.2551 0
M  V30 36151 H 3446.04 3.48531 1.98311 0
M  V30 36152 H 3442.63 4.21956 0.75174 0
M  V30 36153 H 3446.82 4.96177 0.110697 0
M  V30 36154 H 3442.07 6.065 -0.772535 0
M  V30 36155 H 3446.25 6.82003 -1.40873 0
M  V30 36156 H 3443.88 7.37185 -1.8564 0
M  V30 36157 N 3445.45 -0.308854 1.54544 0
M  V30 36158 C 3446.41 -1.36371 1.84216 0
M  V30 36159 C 3447.41 -1.44046 0.714656 0
M  V30 36160 O 3448.6 -1.43818 0.982955 0
M  V30 36161 C 3445.74 -2.74944 2.0154 0
M  V30 36162 H 3446.93 -1.11309 2.78479 0
M  V30 36163 H 3444.48 -0.545115 1.46486 0
M  V30 36164 H 3445.22 -3.0524 1.09539 0
M  V30 36165 H 3445 -2.70765 2.836 0
M  V30 36166 H 3446.49 -3.51229 2.25894 0
M  V30 36167 N 3446.93 -1.46867 -0.571659 0
M  V30 36168 C 3448.15 -1.5658 -1.36005 0
M  V30 36169 C 3448.58 -0.211358 -1.86909 0
M  V30 36170 O 3447.94 0.810392 -1.6218 0
M  V30 36171 C 3447.99 -2.58327 -2.51594 0
M  V30 36172 O 3447.09 -2.12596 -3.53379 0
M  V30 36173 H 3446.43 -0.526506 -0.404584 0
M  V30 36174 H 3448.96 -1.92531 -0.692323 0
M  V30 36175 H 3448.97 -2.78288 -2.98361 0
M  V30 36176 H 3447.65 -3.5668 -2.13898 0
M  V30 36177 H 3446.22 -2.02672 -3.13015 0
M  V30 36178 N 3448.41 0.817212 -1.34757 0
M  V30 36179 C 3449.36 1.91749 -1.23354 0
M  V30 36180 C 3450.34 1.60364 -0.131243 0
M  V30 36181 O 3451.53 1.7327 -0.361456 0
M  V30 36182 C 3448.66 3.28504 -0.99699 0
M  V30 36183 C 3447.75 3.6599 -2.14272 0
M  V30 36184 N 3448.14 3.74994 -3.3943 0
M  V30 36185 C 3446.44 3.95876 -2.05423 0
M  V30 36186 C 3447.14 4.07912 -4.14708 0
M  V30 36187 N 3446.11 4.21435 -3.43356 0
M  V30 36188 H 3449.92 1.96897 -2.18194 0
M  V30 36189 H 3447.43 1.0112 -1.27077 0
M  V30 36190 H 3449.43 4.07153 -0.896202 0
M  V30 36191 H 3448.09 3.24649 -0.057336 0
M  V30 36192 H 3449.1 3.58342 -3.73913 0
M  V30 36193 H 3445.78 4.00107 -1.19249 0
M  V30 36194 H 3447.17 4.22035 -5.22815 0
M  V30 36195 N 3449.89 1.1858 1.0381 0
M  V30 36196 C 3451.13 0.982749 1.77055 0
M  V30 36197 C 3451.46 -0.487388 1.88294 0
M  V30 36198 O 3450.72 -1.3781 1.38949 0
M  V30 36199 C 3451.01 1.58576 3.20294 0
M  V30 36200 C 3450.68 3.08246 3.29083 0
M  V30 36201 C 3449.34 3.49096 3.31188 0
M  V30 36202 C 3451.69 4.04259 3.28974 0
M  V30 36203 C 3449.02 4.84529 3.30831 0
M  V30 36204 C 3451.37 5.39611 3.30156 0
M  V30 36205 C 3450.04 5.79905 3.30555 0
M  V30 36206 H 3449.31 0.359613 0.647888 0
M  V30 36207 H 3451.96 1.47684 1.21909 0
M  V30 36208 H 3450.26 1.01374 3.78458 0
M  V30 36209 H 3451.96 1.40404 3.75616 0
M  V30 36210 H 3448.55 2.7569 3.28166 0
M  V30 36211 H 3452.73 3.73749 3.26536 0
M  V30 36212 H 3447.99 5.15041 3.29458 0
M  V30 36213 H 3452.16 6.13773 3.29022 0
M  V30 36214 H 3449.79 6.84823 3.30032 0
M  V30 36215 N 3451.36 -1.22766 0.988245 0
M  V30 36216 C 3452.61 -1.90701 0.656974 0
M  V30 36217 C 3452.93 -1.77857 -0.814027 0
M  V30 36218 O 3454.13 -2.40665 -1.25669 0
M  V30 36219 C 3452.59 -3.41881 1.12451 0
M  V30 36220 C 3452.2 -3.63371 2.62041 0
M  V30 36221 C 3453.94 -4.15545 0.86735 0
M  V30 36222 C 3451.85 -5.08228 3.02421 0
M  V30 36223 H 3450.78 -0.714101 0.242024 0
M  V30 36224 H 3453.43 -1.39067 1.19719 0
M  V30 36225 H 3451.81 -3.9267 0.512455 0
M  V30 36226 H 3452.98 -3.23095 3.28552 0
M  V30 36227 H 3451.3 -3.03032 2.85588 0
M  V30 36228 H 3453.9 -5.22301 1.1448 0
M  V30 36229 H 3454.24 -4.15836 -0.196538 0
M  V30 36230 H 3454.77 -3.70769 1.44137 0
M  V30 36231 H 3451.51 -5.13073 4.07966 0
M  V30 36232 H 3451.03 -5.49424 2.4061 0
M  V30 36233 H 3452.71 -5.76618 2.93462 0
M  V30 36234 N 3452.84 -0.760864 -1.38017 0
M  V30 36235 C 3454.07 -0.330074 -2.04757 0
M  V30 36236 C 3454.49 1.03582 -1.57011 0
M  V30 36237 O 3453.85 1.66156 -0.725379 0
M  V30 36238 C 3453.9 -0.370145 -3.58695 0
M  V30 36239 O 3453 0.633289 -4.07509 0
M  V30 36240 H 3452.34 -0.144793 -0.648021 0
M  V30 36241 H 3454.87 -1.03402 -1.76548 0
M  V30 36242 H 3454.88 -0.223586 -4.07387 0
M  V30 36243 H 3453.56 -1.36668 -3.92804 0
M  V30 36244 H 3452.13 0.450745 -3.70166 0
M  V30 36245 N 3454.32 1.49102 -0.510519 0
M  V30 36246 C 3455.27 2.30952 0.276408 0
M  V30 36247 C 3456.26 1.39992 0.953868 0
M  V30 36248 O 3457.47 1.56996 0.880471 0
M  V30 36249 H 3453.84 0.744204 0.108 0
M  V30 36250 H 3455.81 2.9523 -0.433776 0
M  V30 36251 C 3454.56 3.21576 1.32229 0
M  V30 36252 H 3453.89 3.915 0.8104 0
M  V30 36253 H 3455.33 3.81768 1.8447 0
M  V30 36254 C 3453.78 2.41837 2.34556 0
M  V30 36255 O 3454.31 2.12928 3.40624 0
M  V30 36256 N 3452.52 2.03686 2.07269 0
M  V30 36257 H 3452.07 2.27396 1.21032 0
M  V30 36258 H 3452.03 1.50643 2.7596 0
M  V30 36259 N 3455.8 0.244768 1.55688 0
M  V30 36260 C 3457.02 -0.38774 2.03743 0
M  V30 36261 C 3457.45 -1.50904 1.12293 0
M  V30 36262 O 3456.81 -1.80932 0.115477 0
M  V30 36263 C 3456.85 -0.874866 3.49826 0
M  V30 36264 O 3455.96 -1.9846 3.61507 0
M  V30 36265 H 3455.3 -0.0847992 0.658563 0
M  V30 36266 H 3457.83 0.3702 2.01223 0
M  V30 36267 H 3457.84 -1.17864 3.90605 0
M  V30 36268 H 3456.51 -0.0543121 4.15865 0
M  V30 36269 H 3455.09 -1.68568 3.32625 0
M  V30 36270 N 3457.28 -1.57574 -0.0283712 0
M  V30 36271 C 3458.52 -1.90433 -0.714628 0
M  V30 36272 C 3458.88 -0.843439 -1.72927 0
M  V30 36273 O 3458.17 0.147781 -1.91029 0
M  V30 36274 C 3458.36 -3.27779 -1.42464 0
M  V30 36275 C 3458.19 -4.47128 -0.480275 0
M  V30 36276 C 3456.96 -5.05199 -0.101068 0
M  V30 36277 C 3459.16 -5.13732 0.241617 0
M  V30 36278 N 3457.14 -6.08064 0.844477 0
M  V30 36279 C 3458.51 -6.11167 1.0428 0
M  V30 36280 C 3460.57 -4.96943 0.308485 0
M  V30 36281 C 3459.27 -6.93623 1.90471 0
M  V30 36282 C 3461.3 -5.79962 1.15752 0
M  V30 36283 C 3460.66 -6.76968 1.94663 0
M  V30 36284 H 3456.76 -0.745672 -0.235577 0
M  V30 36285 H 3459.34 -1.94684 0.0253045 0
M  V30 36286 H 3457.51 -3.24455 -2.13503 0
M  V30 36287 H 3459.25 -3.4815 -2.06334 0
M  V30 36288 H 3456 -4.71327 -0.4634 0
M  V30 36289 H 3456.42 -6.6417 1.31178 0
M  V30 36290 H 3461.07 -4.21823 -0.287295 0
M  V30 36291 H 3458.78 -7.68089 2.51129 0
M  V30 36292 H 3462.37 -5.69019 1.2128 0
M  V30 36293 H 3461.25 -7.4009 2.59299 0
M  V30 36294 N 3458.75 0.300654 -1.54706 0
M  V30 36295 C 3459.68 1.37555 -1.88682 0
M  V30 36296 C 3460.66 1.5288 -0.745767 0
M  V30 36297 O 3461.85 1.66382 -1.00153 0
M  V30 36298 C 3458.98 2.7397 -2.13443 0
M  V30 36299 C 3457.93 2.73409 -3.29289 0
M  V30 36300 C 3457.26 4.13116 -3.39469 0
M  V30 36301 C 3458.56 2.3512 -4.66386 0
M  V30 36302 H 3460.25 1.09368 -2.78709 0
M  V30 36303 H 3457.8 0.52468 -1.34101 0
M  V30 36304 H 3459.75 3.49253 -2.35797 0
M  V30 36305 H 3458.48 3.03682 -1.20187 0
M  V30 36306 H 3457.14 2.00582 -3.06859 0
M  V30 36307 H 3456.78 4.40006 -2.43729 0
M  V30 36308 H 3456.48 4.13642 -4.17341 0
M  V30 36309 H 3458.01 4.90179 -3.64084 0
M  V30 36310 H 3459.42 3.00119 -4.88468 0
M  V30 36311 H 3457.82 2.46858 -5.46975 0
M  V30 36312 H 3458.89 1.30248 -4.6708 0
M  V30 36313 N 3460.23 1.47168 0.563863 0
M  V30 36314 C 3461.17 1.53688 1.68687 0
M  V30 36315 C 3462.14 0.389514 1.57866 0
M  V30 36316 O 3463.33 0.596367 1.78818 0
M  V30 36317 C 3460.45 1.43317 3.06884 0
M  V30 36318 C 3459.5 2.62472 3.3617 0
M  V30 36319 S 3460.33 4.24713 3.26158 0
M  V30 36320 C 3461.49 4.16883 4.66861 0
M  V30 36321 H 3461.72 2.48698 1.629 0
M  V30 36322 H 3459.26 1.35284 0.744146 0
M  V30 36323 H 3461.21 1.3802 3.86601 0
M  V30 36324 H 3459.87 0.497026 3.10143 0
M  V30 36325 H 3459.07 2.51261 4.36903 0
M  V30 36326 H 3458.67 2.64856 2.64059 0
M  V30 36327 H 3460.96 3.84726 5.57666 0
M  V30 36328 H 3461.9 5.17679 4.8313 0
M  V30 36329 H 3462.31 3.47844 4.44595 0
M  V30 36330 N 3461.71 -0.810054 1.35188 0
M  V30 36331 C 3462.96 -1.56876 1.29466 0
M  V30 36332 C 3463.31 -1.91955 -0.130804 0
M  V30 36333 O 3462.6 -1.58238 -1.08033 0
M  V30 36334 C 3462.8 -2.8689 2.1314 0
M  V30 36335 C 3462.63 -2.64515 3.63679 0
M  V30 36336 C 3461.4 -2.60587 4.32923 0
M  V30 36337 C 3463.6 -2.35133 4.57402 0
M  V30 36338 N 3461.58 -2.29892 5.6923 0
M  V30 36339 C 3462.95 -2.14246 5.81806 0
M  V30 36340 C 3465 -2.20968 4.46181 0
M  V30 36341 C 3463.71 -1.80628 6.96251 0
M  V30 36342 C 3465.73 -1.88746 5.60472 0
M  V30 36343 C 3465.09 -1.68692 6.83902 0
M  V30 36344 H 3461.19 -0.575918 0.529002 0
M  V30 36345 H 3463.78 -0.948499 1.70034 0
M  V30 36346 H 3461.95 -3.46818 1.74848 0
M  V30 36347 H 3463.68 -3.52414 1.98963 0
M  V30 36348 H 3460.44 -2.75114 3.85499 0
M  V30 36349 H 3460.86 -2.17348 6.41162 0
M  V30 36350 H 3465.5 -2.35171 3.51361 0
M  V30 36351 H 3463.22 -1.65162 7.91042 0
M  V30 36352 H 3466.81 -1.78499 5.53741 0
M  V30 36353 H 3465.69 -1.44123 7.70843 0
M  V30 36354 N 3463.19 -1.19129 -1.0318 0
M  V30 36355 C 3464.44 -0.992124 -1.76531 0
M  V30 36356 C 3464.76 0.477396 -1.8855 0
M  V30 36357 O 3464.02 1.37072 -1.39678 0
M  V30 36358 C 3464.32 -1.60272 -3.19449 0
M  V30 36359 C 3463.98 -3.09987 -3.27443 0
M  V30 36360 C 3462.65 -3.50847 -3.29332 0
M  V30 36361 C 3465 -4.05998 -3.26825 0
M  V30 36362 C 3462.33 -4.86276 -3.28256 0
M  V30 36363 C 3464.68 -5.41354 -3.2729 0
M  V30 36364 C 3463.34 -5.8165 -3.27475 0
M  V30 36365 H 3462.61 -0.363044 -0.645972 0
M  V30 36366 H 3465.26 -1.48328 -1.21124 0
M  V30 36367 H 3463.56 -1.03379 -3.77915 0
M  V30 36368 H 3465.26 -1.42394 -3.74866 0
M  V30 36369 H 3461.85 -2.77427 -3.26699 0
M  V30 36370 H 3466.03 -3.75475 -3.24549 0
M  V30 36371 H 3461.29 -5.16781 -3.26722 0
M  V30 36372 H 3465.46 -6.1551 -3.25762 0
M  V30 36373 H 3463.09 -6.86564 -3.26395 0
M  V30 36374 N 3464.67 1.2224 -0.994741 0
M  V30 36375 C 3465.92 1.9035 -0.667079 0
M  V30 36376 C 3466.23 1.78286 0.804583 0
M  V30 36377 O 3467.43 2.41328 1.24391 0
M  V30 36378 C 3465.89 3.4128 -1.14262 0
M  V30 36379 C 3465.5 3.61977 -2.63964 0
M  V30 36380 C 3467.24 4.15079 -0.889375 0
M  V30 36381 C 3465.15 5.06617 -3.05112 0
M  V30 36382 H 3464.08 0.712807 -0.245808 0
M  V30 36383 H 3466.73 1.3843 -1.20455 0
M  V30 36384 H 3465.11 3.92393 -0.533272 0
M  V30 36385 H 3466.29 3.21348 -3.30261 0
M  V30 36386 H 3464.6 3.01513 -2.87191 0
M  V30 36387 H 3467.2 5.21687 -1.17248 0
M  V30 36388 H 3467.54 4.15934 0.174483 0
M  V30 36389 H 3468.07 3.69999 -1.46101 0
M  V30 36390 H 3464.81 5.10902 -4.10681 0
M  V30 36391 H 3464.33 5.48141 -2.4352 0
M  V30 36392 H 3466.01 5.75054 -2.96516 0
M  V30 36393 N 3466.14 0.768172 1.37611 0
M  V30 36394 C 3467.39 0.327578 1.99022 0
M  V30 36395 C 3467.71 -1.101 1.61671 0
M  V30 36396 O 3468.91 -1.6428 2.16158 0
M  V30 36397 C 3467.37 0.534736 3.55905 0
M  V30 36398 C 3466.98 1.97334 4.02198 0
M  V30 36399 C 3468.72 0.157586 4.24207 0
M  V30 36400 C 3466.63 2.12829 5.51777 0
M  V30 36401 H 3465.56 0.118735 0.744593 0
M  V30 36402 H 3468.21 0.946792 1.57188 0
M  V30 36403 H 3466.59 -0.153881 3.95701 0
M  V30 36404 H 3467.76 2.69662 3.73656 0
M  V30 36405 H 3466.08 2.30675 3.46667 0
M  V30 36406 H 3468.68 0.251918 5.34106 0
M  V30 36407 H 3469.02 -0.891698 4.06638 0
M  V30 36408 H 3469.55 0.798614 3.89701 0
M  V30 36409 H 3466.29 3.16063 5.74268 0
M  V30 36410 H 3465.81 1.4498 5.82015 0
M  V30 36411 H 3467.49 1.92519 6.17694 0
M  V30 36412 N 3467.62 -1.48829 0.518419 0
M  V30 36413 C 3468.85 -2.07392 -0.0182766 0
M  V30 36414 C 3469.27 -1.37398 -1.28465 0
M  V30 36415 O 3468.63 -0.436208 -1.75974 0
M  V30 36416 C 3468.68 -3.59819 -0.237148 0
M  V30 36417 O 3467.78 -3.91098 -1.30828 0
M  V30 36418 H 3467.12 -0.66313 0.0339737 0
M  V30 36419 H 3469.65 -1.91399 0.723027 0
M  V30 36420 H 3469.66 -4.0536 -0.463353 0
M  V30 36421 H 3468.34 -4.1017 0.687997 0
M  V30 36422 H 3466.92 -3.57349 -1.06565 0
M  V30 36423 N 3469.1 -0.253021 -1.55556 0
M  V30 36424 C 3470.35 0.370536 -1.98267 0
M  V30 36425 C 3470.66 1.5862 -1.14451 0
M  V30 36426 O 3471.87 2.2813 -1.47204 0
M  V30 36427 C 3470.32 0.710623 -3.52815 0
M  V30 36428 C 3469.93 -0.483986 -4.45378 0
M  V30 36429 C 3471.68 1.29803 -4.04168 0
M  V30 36430 C 3469.58 -0.119715 -5.91279 0
M  V30 36431 H 3468.51 0.142219 -0.740466 0
M  V30 36432 H 3471.16 -0.3542 -1.80049 0
M  V30 36433 H 3469.55 1.49366 -3.6675 0
M  V30 36434 H 3470.72 -1.26124 -4.43204 0
M  V30 36435 H 3469.04 -0.986736 -4.0454 0
M  V30 36436 H 3471.63 1.58401 -5.10699 0
M  V30 36437 H 3471.98 2.22456 -3.51879 0
M  V30 36438 H 3472.51 0.577767 -3.93582 0
M  V30 36439 H 3469.25 -1.01354 -6.47617 0
M  V30 36440 H 3468.77 0.621213 -5.96574 0
M  V30 36441 H 3470.45 0.295938 -6.46323 0
M  V30 36442 N 3470.58 1.57587 0.0200142 0
M  V30 36443 C 3471.82 1.89964 0.710044 0
M  V30 36444 C 3472.16 0.85186 1.74519 0
M  V30 36445 O 3471.43 -0.131971 1.94052 0
M  V30 36446 C 3471.72 3.32964 1.37139 0
M  V30 36447 C 3471.57 4.48443 0.349142 0
M  V30 36448 C 3472.89 3.75035 2.30297 0
M  V30 36449 H 3470.01 0.690866 0.256658 0
M  V30 36450 H 3472.65 1.89981 -0.0271696 0
M  V30 36451 H 3470.8 3.3308 1.99975 0
M  V30 36452 H 3472.47 4.60462 -0.277997 0
M  V30 36453 H 3470.71 4.32538 -0.33067 0
M  V30 36454 H 3471.38 5.45408 0.85054 0
M  V30 36455 H 3473.86 3.76343 1.77497 0
M  V30 36456 H 3472.74 4.75882 2.73547 0
M  V30 36457 H 3473 3.07792 3.17359 0
M  V30 36458 N 3472.06 -0.292445 1.54863 0
M  V30 36459 C 3472.99 -1.38278 1.82789 0
M  V30 36460 C 3474 -1.4644 0.711278 0
M  V30 36461 O 3475.19 -1.48605 0.988878 0
M  V30 36462 C 3472.29 -2.76579 1.9585 0
M  V30 36463 C 3471.46 -2.91246 3.26335 0
M  V30 36464 C 3470.52 -4.10099 3.29705 0
M  V30 36465 O 3469.55 -4.01778 4.03191 0
M  V30 36466 N 3470.75 -5.21146 2.55709 0
M  V30 36467 H 3473.52 -1.14675 2.76893 0
M  V30 36468 H 3471.08 -0.482534 1.54542 0
M  V30 36469 H 3473.07 -3.54349 1.95497 0
M  V30 36470 H 3471.64 -2.93092 1.08702 0
M  V30 36471 H 3470.86 -2.00519 3.3939 0
M  V30 36472 H 3472.15 -2.97963 4.12426 0
M  V30 36473 H 3471.54 -5.30789 1.95652 0
M  V30 36474 H 3470.1 -5.97219 2.611 0
M  V30 36475 N 3473.53 -1.47465 -0.55605 0
M  V30 36476 C 3474.47 -1.5458 -1.67869 0
M  V30 36477 C 3475.45 -0.397881 -1.57657 0
M  V30 36478 O 3476.63 -0.605842 -1.78499 0
M  V30 36479 C 3473.76 -1.44942 -3.0612 0
M  V30 36480 C 3472.8 -2.64251 -3.34774 0
M  V30 36481 S 3473.64 -4.26437 -3.23901 0
M  V30 36482 C 3474.79 -4.19353 -4.64644 0
M  V30 36483 H 3475.02 -2.49559 -1.61579 0
M  V30 36484 H 3472.56 -1.35677 -0.736961 0
M  V30 36485 H 3474.52 -1.40069 -3.85864 0
M  V30 36486 H 3473.18 -0.513466 -3.09875 0
M  V30 36487 H 3472.37 -2.53574 -4.35564 0
M  V30 36488 H 3471.97 -2.66253 -2.62651 0
M  V30 36489 H 3474.26 -3.87678 -5.55618 0
M  V30 36490 H 3475.21 -5.20234 -4.80377 0
M  V30 36491 H 3475.61 -3.50197 -4.42744 0
M  V30 36492 N 3475.01 0.802873 -1.35616 0
M  V30 36493 C 3475.98 1.89649 -1.28709 0
M  V30 36494 C 3476.98 1.5958 -0.197709 0
M  V30 36495 O 3478.17 1.68243 -0.451647 0
M  V30 36496 C 3475.3 3.26148 -0.991998 0
M  V30 36497 H 3476.49 1.97192 -2.25954 0
M  V30 36498 H 3474.04 0.999158 -1.20194 0
M  V30 36499 H 3474.78 3.24291 -0.0235621 0
M  V30 36500 H 3474.56 3.49359 -1.78019 0
M  V30 36501 H 3476.05 4.06193 -0.969369 0
M  V30 36502 N 3476.49 1.19674 1.02547 0
M  V30 36503 C 3477.9 1.00328 1.57452 0
M  V30 36504 C 3478.25 -0.442855 1.91137 0
M  V30 36505 O 3477.38 -1.32281 1.71262 0
M  V30 36506 C 3477.97 1.81491 2.86088 0
M  V30 36507 C 3476.53 1.66536 3.37554 0
M  V30 36508 C 3475.68 1.79979 2.10957 0
M  V30 36509 H 3478.63 1.33996 0.850341 0
M  V30 36510 H 3478.65 1.31302 3.57127 0
M  V30 36511 H 3478.16 2.86737 2.6154 0
M  V30 36512 H 3476.26 0.638898 3.67082 0
M  V30 36513 H 3476.38 2.47276 4.10355 0
M  V30 36514 H 3474.74 1.23075 2.2299 0
M  V30 36515 H 3475.52 2.86691 1.88847 0
M  V30 36516 N 3477.97 -1.21711 1.00121 0
M  V30 36517 C 3479.22 -1.90961 0.682767 0
M  V30 36518 C 3479.55 -1.77667 -0.7841 0
M  V30 36519 O 3478.82 -1.15087 -1.56797 0
M  V30 36520 C 3479.11 -3.42894 1.09981 0
M  V30 36521 C 3478.96 -3.65198 2.62585 0
M  V30 36522 C 3480.28 -4.35133 0.659323 0
M  V30 36523 H 3477.4 -0.693478 0.249513 0
M  V30 36524 H 3480.04 -1.43421 1.24622 0
M  V30 36525 H 3478.19 -3.83514 0.620402 0
M  V30 36526 H 3479.86 -3.33929 3.1826 0
M  V30 36527 H 3478.1 -3.09193 3.04273 0
M  V30 36528 H 3478.78 -4.71635 2.86817 0
M  V30 36529 H 3481.25 -4.02074 1.07123 0
M  V30 36530 H 3480.13 -5.40093 0.979335 0
M  V30 36531 H 3480.39 -4.39908 -0.4397 0
M  V30 36532 N 3479.45 -0.775459 -1.37202 0
M  V30 36533 C 3480.67 -0.351772 -2.04395 0
M  V30 36534 C 3481.1 1.01911 -1.58101 0
M  V30 36535 O 3480.46 1.65378 -0.742961 0
M  V30 36536 C 3480.5 -0.408168 -3.58282 0
M  V30 36537 O 3479.61 0.590032 -4.08157 0
M  V30 36538 H 3478.95 -0.151658 -0.646449 0
M  V30 36539 H 3481.48 -1.05268 -1.75441 0
M  V30 36540 H 3481.49 -0.266783 -4.07127 0
M  V30 36541 H 3480.16 -1.40826 -3.91332 0
M  V30 36542 H 3478.74 0.411459 -3.70623 0
M  V30 36543 N 3480.93 1.48552 -0.526305 0
M  V30 36544 C 3481.89 2.28066 0.227699 0
M  V30 36545 C 3482.89 1.3516 0.871122 0
M  V30 36546 O 3484.08 1.58086 0.731741 0
M  V30 36547 C 3481.21 3.13922 1.32913 0
M  V30 36548 H 3482.4 2.96188 -0.470365 0
M  V30 36549 H 3479.96 1.53733 -0.282116 0
M  V30 36550 H 3480.69 2.50423 2.06056 0
M  V30 36551 H 3480.48 3.8226 0.872924 0
M  V30 36552 H 3481.97 3.73911 1.85957 0
M  V30 36553 N 3482.4 0.261267 1.55419 0
M  V30 36554 C 3483.34 -0.673184 2.18045 0
M  V30 36555 C 3484.31 -1.1624 1.13698 0
M  V30 36556 O 3485.5 -1.23791 1.42155 0
M  V30 36557 C 3482.63 -1.9165 2.79263 0
M  V30 36558 C 3481.67 -1.56395 3.96791 0
M  V30 36559 S 3482.5 -0.654097 5.3149 0
M  V30 36560 C 3483.66 -1.9061 5.9617 0
M  V30 36561 H 3483.89 -0.141024 2.96965 0
M  V30 36562 H 3481.43 0.0456143 1.54333 0
M  V30 36563 H 3483.38 -2.63021 3.15167 0
M  V30 36564 H 3482.05 -2.4198 2.00262 0
M  V30 36565 H 3481.24 -2.48875 4.38266 0
M  V30 36566 H 3480.84 -0.930554 3.62238 0
M  V30 36567 H 3483.13 -2.85169 6.14561 0
M  V30 36568 H 3484.08 -1.53459 6.91271 0
M  V30 36569 H 3484.48 -2.06473 5.25385 0
M  V30 36570 N 3483.88 -1.57596 -0.0116567 0
M  V30 36571 C 3485.13 -1.90338 -0.69996 0
M  V30 36572 C 3485.46 -0.861103 -1.74065 0
M  V30 36573 O 3484.74 0.121678 -1.94119 0
M  V30 36574 C 3485.02 -3.33686 -1.35371 0
M  V30 36575 C 3484.87 -4.48622 -0.325355 0
M  V30 36576 C 3486.19 -3.76251 -2.28305 0
M  V30 36577 H 3483.31 -0.692217 -0.25299 0
M  V30 36578 H 3485.95 -1.89963 0.0372444 0
M  V30 36579 H 3484.1 -3.34136 -1.98206 0
M  V30 36580 H 3485.77 -4.60308 0.302412 0
M  V30 36581 H 3484.02 -4.32356 0.353603 0
M  V30 36582 H 3484.69 -5.45851 -0.821604 0
M  V30 36583 H 3487.16 -3.77279 -1.75498 0
M  V30 36584 H 3486.04 -4.77326 -2.71019 0
M  V30 36585 H 3486.3 -3.09471 -3.15722 0
M  V30 36586 N 3485.36 0.284228 -1.55016 0
M  V30 36587 C 3486.78 0.630819 -1.46604 0
M  V30 36588 C 3486.98 1.90002 -0.670943 0
M  V30 36589 O 3486.03 2.51819 -0.18531 0
M  V30 36590 C 3487.34 0.768217 -2.90721 0
M  V30 36591 C 3488.89 0.863008 -3.00867 0
M  V30 36592 C 3489.37 1.03227 -4.46215 0
M  V30 36593 N 3490.86 1.09807 -4.49996 0
M  V30 36594 C 3491.59 1.24764 -5.59662 0
M  V30 36595 N 3491.09 1.36511 -6.79218 0
M  V30 36596 N 3492.88 1.27785 -5.47382 0
M  V30 36597 H 3485.03 -0.549445 -2.0517 0
M  V30 36598 H 3487.3 -0.184304 -0.929912 0
M  V30 36599 H 3487 -0.0937517 -3.51575 0
M  V30 36600 H 3486.88 1.65203 -3.39099 0
M  V30 36601 H 3489.26 1.71545 -2.40117 0
M  V30 36602 H 3489.34 -0.0451716 -2.5576 0
M  V30 36603 H 3488.99 0.184531 -5.07565 0
M  V30 36604 H 3488.92 1.95493 -4.88968 0
M  V30 36605 H 3491.41 1.02014 -3.6387 0
M  V30 36606 H 3491.72 1.47726 -7.58549 0
M  V30 36607 H 3490.07 1.33536 -6.82051 0
M  V30 36608 H 3493.26 1.1823 -4.52923 0
M  V30 36609 H 3493.43 1.39097 -6.32895 0
M  V30 36610 N 3486.84 1.47758 0.548222 0
M  V30 36611 C 3487.77 1.55469 1.67047 0
M  V30 36612 C 3488.75 0.406236 1.57444 0
M  V30 36613 O 3489.93 0.6153 1.78175 0
M  V30 36614 C 3487.06 1.46564 3.05347 0
M  V30 36615 C 3486.11 2.66023 3.33368 0
M  V30 36616 S 3486.94 4.28148 3.21635 0
M  V30 36617 C 3488.09 4.21811 4.62413 0
M  V30 36618 H 3488.33 2.50412 1.60253 0
M  V30 36619 H 3485.86 1.36066 0.729756 0
M  V30 36620 H 3487.82 1.42113 3.85116 0
M  V30 36621 H 3486.48 0.529893 3.09598 0
M  V30 36622 H 3485.67 2.55881 4.34213 0
M  V30 36623 H 3485.27 2.67642 2.61235 0
M  V30 36624 H 3487.57 3.9062 5.53554 0
M  V30 36625 H 3488.51 5.22774 4.77612 0
M  V30 36626 H 3488.92 3.5254 4.40881 0
M  V30 36627 N 3488.32 -0.79567 1.3604 0
M  V30 36628 C 3489.55 -1.58207 1.32869 0
M  V30 36629 C 3489.95 -1.88969 -0.0934856 0
M  V30 36630 O 3489.3 -1.50102 -1.05902 0
M  V30 36631 C 3489.36 -2.93304 2.07877 0
M  V30 36632 C 3489.02 -2.85302 3.57004 0
M  V30 36633 C 3490.02 -2.57979 4.51379 0
M  V30 36634 C 3487.7 -3.04076 3.99804 0
M  V30 36635 C 3489.7 -2.49522 5.8653 0
M  V30 36636 C 3487.39 -2.95241 5.35047 0
M  V30 36637 C 3488.38 -2.68002 6.28223 0
M  V30 36638 O 3488.07 -2.5915 7.60984 0
M  V30 36639 H 3487.8 -0.497575 0.457597 0
M  V30 36640 H 3490.36 -0.995946 1.79639 0
M  V30 36641 H 3488.59 -3.53943 1.55761 0
M  V30 36642 H 3490.28 -3.5453 1.97644 0
M  V30 36643 H 3491.04 -2.43184 4.19627 0
M  V30 36644 H 3486.92 -3.24286 3.27657 0
M  V30 36645 H 3490.47 -2.28181 6.59226 0
M  V30 36646 H 3486.36 -3.09598 5.66409 0
M  V30 36647 H 3487.13 -2.74677 7.71035 0
M  V30 36648 N 3489.79 -1.20217 -1.0191 0
M  V30 36649 C 3491.04 -1.00505 -1.74876 0
M  V30 36650 C 3491.36 0.463758 -1.90023 0
M  V30 36651 O 3492.56 0.779936 -2.60056 0
M  V30 36652 C 3491.02 -1.74949 -3.14517 0
M  V30 36653 C 3490.63 -3.25906 -3.07391 0
M  V30 36654 C 3492.37 -1.63596 -3.9171 0
M  V30 36655 C 3490.28 -3.92897 -4.42025 0
M  V30 36656 H 3489.21 -0.372437 -0.655596 0
M  V30 36657 H 3491.86 -1.43812 -1.13976 0
M  V30 36658 H 3490.24 -1.24427 -3.75944 0
M  V30 36659 H 3491.41 -3.83621 -2.55287 0
M  V30 36660 H 3489.73 -3.37643 -2.43692 0
M  V30 36661 H 3492.33 -2.10989 -4.91312 0
M  V30 36662 H 3492.67 -0.591738 -4.12073 0
M  V30 36663 H 3493.2 -2.11517 -3.36906 0
M  V30 36664 H 3489.94 -4.9746 -4.26865 0
M  V30 36665 H 3489.46 -3.39971 -4.94146 0
M  V30 36666 H 3491.14 -3.97006 -5.10877 0
M  V30 36667 N 3491.27 1.21178 -1.00765 0
M  V30 36668 C 3492.52 1.90314 -0.691859 0
M  V30 36669 C 3492.85 1.78278 0.777646 0
M  V30 36670 O 3492.1 1.15529 1.5796 0
M  V30 36671 C 3492.4 3.41259 -1.06193 0
M  V30 36672 C 3492.07 3.73493 -2.52614 0
M  V30 36673 C 3490.73 3.82001 -2.92624 0
M  V30 36674 C 3493.08 3.88496 -3.47449 0
M  V30 36675 C 3490.41 4.02962 -4.26426 0
M  V30 36676 C 3492.76 4.10964 -4.80927 0
M  V30 36677 C 3491.43 4.177 -5.20657 0
M  V30 36678 H 3490.7 0.69641 -0.253169 0
M  V30 36679 H 3493.34 1.43632 -1.26658 0
M  V30 36680 H 3491.65 3.89696 -0.405497 0
M  V30 36681 H 3493.34 3.93032 -0.795412 0
M  V30 36682 H 3489.93 3.67464 -2.20609 0
M  V30 36683 H 3494.12 3.81286 -3.17702 0
M  V30 36684 H 3489.37 4.06408 -4.56774 0
M  V30 36685 H 3493.55 4.21515 -5.54344 0
M  V30 36686 H 3491.18 4.33694 -6.2435 0
M  V30 36687 N 3492.75 0.782725 1.36789 0
M  V30 36688 C 3494 0.352046 1.99416 0
M  V30 36689 C 3494.33 -1.07445 1.62129 0
M  V30 36690 O 3493.58 -1.75571 0.86448 0
M  V30 36691 C 3493.88 0.455294 3.54488 0
M  V30 36692 C 3493.55 1.84163 4.11576 0
M  V30 36693 C 3492.21 2.22096 4.2688 0
M  V30 36694 C 3494.56 2.7497 4.42765 0
M  V30 36695 C 3491.89 3.50251 4.70681 0
M  V30 36696 C 3494.24 4.02546 4.87996 0
M  V30 36697 C 3492.9 4.40509 5.01505 0
M  V30 36698 H 3492.17 0.128823 0.729716 0
M  V30 36699 H 3494.82 0.998885 1.63385 0
M  V30 36700 H 3493.13 -0.275061 3.90833 0
M  V30 36701 H 3494.82 0.103197 4.00867 0
M  V30 36702 H 3491.41 1.53684 4.00099 0
M  V30 36703 H 3495.6 2.46919 4.30517 0
M  V30 36704 H 3490.85 3.79545 4.79328 0
M  V30 36705 H 3495.03 4.73028 5.11094 0
M  V30 36706 H 3492.65 5.3987 5.35205 0
M  V30 36707 N 3494.23 -1.48271 0.534176 0
M  V30 36708 C 3495.19 -2.28184 -0.215601 0
M  V30 36709 C 3496.19 -1.3562 -0.863942 0
M  V30 36710 O 3497.38 -1.58472 -0.723347 0
M  V30 36711 C 3494.51 -3.14623 -1.31246 0
M  V30 36712 H 3495.71 -2.95935 0.486066 0
M  V30 36713 H 3493.26 -1.53581 0.290264 0
M  V30 36714 H 3493.99 -2.51512 -2.04725 0
M  V30 36715 H 3493.78 -3.82717 -0.852639 0
M  V30 36716 H 3495.27 -3.74892 -1.83972 0
M  V30 36717 N 3495.71 -0.269505 -1.55279 0
M  V30 36718 C 3496.93 0.355277 -2.04334 0
M  V30 36719 C 3497.36 1.49098 -1.14679 0
M  V30 36720 O 3496.71 1.80725 -0.144247 0
M  V30 36721 C 3496.76 0.819101 -3.51174 0
M  V30 36722 O 3495.87 1.92684 -3.64619 0
M  V30 36723 H 3495.21 0.0743113 -0.659829 0
M  V30 36724 H 3497.74 -0.402166 -2.00609 0
M  V30 36725 H 3497.75 1.11635 -3.9243 0
M  V30 36726 H 3496.42 -0.0118552 -4.15898 0
M  V30 36727 H 3495 1.63255 -3.35264 0
M  V30 36728 N 3497.18 1.576 0.00329885 0
M  V30 36729 C 3498.43 1.90424 0.688836 0
M  V30 36730 C 3498.76 0.869927 1.73961 0
M  V30 36731 O 3498.01 -0.125742 1.95296 0
M  V30 36732 C 3498.31 3.30004 1.37231 0
M  V30 36733 C 3497.98 4.48598 0.455053 0
M  V30 36734 C 3496.64 4.80774 0.202493 0
M  V30 36735 C 3498.99 5.209 -0.176688 0
M  V30 36736 C 3496.32 5.82627 -0.690158 0
M  V30 36737 C 3498.67 6.23704 -1.05719 0
M  V30 36738 C 3497.34 6.54339 -1.31897 0
M  V30 36739 H 3496.61 0.696811 0.252063 0
M  V30 36740 H 3499.25 1.91431 -0.0515203 0
M  V30 36741 H 3497.56 3.25106 2.18663 0
M  V30 36742 H 3499.26 3.52659 1.90873 0
M  V30 36743 H 3495.85 4.23456 0.662068 0
M  V30 36744 H 3500.03 4.963 0.00542547 0
M  V30 36745 H 3495.29 6.04725 -0.901009 0
M  V30 36746 H 3499.46 6.78861 -1.55308 0
M  V30 36747 H 3497.09 7.33081 -2.01235 0
M  V30 36748 N 3498.66 -0.276003 1.55164 0
M  V30 36749 C 3499.89 -1.02483 1.7939 0
M  V30 36750 C 3500.3 -1.80538 0.565915 0
M  V30 36751 O 3499.64 -1.77467 -0.474459 0
M  V30 36752 C 3499.71 -2.03297 2.96498 0
M  V30 36753 C 3499.37 -1.44207 4.33651 0
M  V30 36754 C 3500.37 -0.859265 5.1275 0
M  V30 36755 C 3498.05 -1.47017 4.80303 0
M  V30 36756 C 3500.05 -0.312436 6.36634 0
M  V30 36757 C 3497.73 -0.919481 6.04143 0
M  V30 36758 C 3498.73 -0.341609 6.82145 0
M  V30 36759 O 3498.42 0.200658 8.0365 0
M  V30 36760 H 3498.15 -0.308582 0.601459 0
M  V30 36761 H 3500.7 -0.313112 2.02999 0
M  V30 36762 H 3498.93 -2.78218 2.68573 0
M  V30 36763 H 3500.62 -2.64283 3.08074 0
M  V30 36764 H 3501.39 -0.830269 4.7784 0
M  V30 36765 H 3497.27 -1.90935 4.19601 0
M  V30 36766 H 3500.81 0.139254 6.97461 0
M  V30 36767 H 3496.71 -0.945707 6.38535 0
M  V30 36768 H 3497.48 0.0897315 8.18451 0
M  V30 36769 N 3500.14 -1.48046 -0.540378 0
M  V30 36770 C 3501.37 -1.58947 -1.31983 0
M  V30 36771 C 3501.78 -0.244922 -1.87608 0
M  V30 36772 O 3501.12 0.774438 -1.66578 0
M  V30 36773 C 3501.18 -2.56839 -2.51543 0
M  V30 36774 C 3500.85 -4.0215 -2.17082 0
M  V30 36775 C 3501.84 -4.90142 -1.7337 0
M  V30 36776 C 3499.53 -4.47611 -2.27924 0
M  V30 36777 C 3501.52 -6.2162 -1.40953 0
M  V30 36778 C 3499.21 -5.79113 -1.95118 0
M  V30 36779 C 3500.21 -6.65939 -1.51703 0
M  V30 36780 O 3499.9 -7.94995 -1.19323 0
M  V30 36781 H 3499.63 -0.538978 -0.408018 0
M  V30 36782 H 3502.18 -1.94517 -0.659714 0
M  V30 36783 H 3500.41 -2.16369 -3.20501 0
M  V30 36784 H 3502.1 -2.57686 -3.13612 0
M  V30 36785 H 3502.87 -4.56261 -1.64473 0
M  V30 36786 H 3498.75 -3.80224 -2.60673 0
M  V30 36787 H 3502.29 -6.89346 -1.06993 0
M  V30 36788 H 3498.19 -6.12532 -2.03653 0
M  V30 36789 H 3498.96 -8.07653 -1.3281 0
M  V30 36790 N 3501.62 0.788444 -1.3646 0
M  V30 36791 C 3502.87 1.54155 -1.30073 0
M  V30 36792 C 3503.18 1.95247 0.117539 0
M  V30 36793 O 3504.39 2.69795 0.30379 0
M  V30 36794 C 3502.84 2.78287 -2.2822 0
M  V30 36795 C 3502.45 2.44361 -3.75489 0
M  V30 36796 C 3504.19 3.56267 -2.30812 0
M  V30 36797 C 3502.1 3.64893 -4.6541 0
M  V30 36798 H 3501.03 0.578691 -0.483355 0
M  V30 36799 H 3503.68 0.865094 -1.61828 0
M  V30 36800 H 3502.06 3.47737 -1.8946 0
M  V30 36801 H 3503.24 1.82802 -4.2299 0
M  V30 36802 H 3501.55 1.7959 -3.75681 0
M  V30 36803 H 3504.15 4.45824 -2.95204 0
M  V30 36804 H 3504.49 3.94921 -1.31694 0
M  V30 36805 H 3505.03 2.93797 -2.68194 0
M  V30 36806 H 3501.77 3.31334 -5.65595 0
M  V30 36807 H 3501.29 4.25615 -4.22625 0
M  V30 36808 H 3502.96 4.3191 -4.81729 0
M  V30 36809 N 3503.1 1.20755 1.01271 0
M  V30 36810 C 3504.34 1.03164 1.75296 0
M  V30 36811 C 3504.7 -0.431266 1.87504 0
M  V30 36812 O 3503.99 -1.3159 1.39265 0
M  V30 36813 C 3504.18 1.65334 3.16859 0
M  V30 36814 C 3504.01 3.17518 3.18453 0
M  V30 36815 C 3502.78 3.86518 3.25472 0
M  V30 36816 C 3504.98 4.14698 3.04188 0
M  V30 36817 N 3502.96 5.25957 3.16611 0
M  V30 36818 C 3504.33 5.40839 3.03139 0
M  V30 36819 C 3506.39 4.05846 2.88433 0
M  V30 36820 C 3505.09 6.59148 2.87951 0
M  V30 36821 C 3507.12 5.23783 2.74599 0
M  V30 36822 C 3506.48 6.48832 2.74221 0
M  V30 36823 H 3502.58 0.431773 0.651994 0
M  V30 36824 H 3505.16 1.52988 1.20427 0
M  V30 36825 H 3503.33 1.18088 3.70013 0
M  V30 36826 H 3505.07 1.41022 3.79335 0
M  V30 36827 H 3501.82 3.37398 3.32355 0
M  V30 36828 H 3502.25 5.98967 3.15544 0
M  V30 36829 H 3506.89 3.09972 2.87537 0
M  V30 36830 H 3504.61 7.55191 2.87596 0
M  V30 36831 H 3508.19 5.18749 2.63421 0
M  V30 36832 H 3507.07 7.38555 2.6364 0
M  V30 36833 N 3504.58 -1.20642 1.01406 0
M  V30 36834 C 3505.52 -2.23338 0.582148 0
M  V30 36835 C 3506.49 -1.61299 -0.396462 0
M  V30 36836 O 3507.68 -1.88483 -0.296471 0
M  V30 36837 C 3504.82 -3.45016 -0.0759684 0
M  V30 36838 C 3503.93 -4.21495 0.946903 0
M  V30 36839 C 3503.07 -5.30563 0.260103 0
M  V30 36840 C 3502.1 -5.98782 1.2699 0
M  V30 36841 N 3501.24 -6.99446 0.60995 0
M  V30 36842 H 3506.08 -2.59642 1.46252 0
M  V30 36843 H 3503.62 -1.27584 0.732167 0
M  V30 36844 H 3505.58 -4.14491 -0.474642 0
M  V30 36845 H 3504.21 -3.09412 -0.920007 0
M  V30 36846 H 3503.26 -3.5111 1.46376 0
M  V30 36847 H 3504.57 -4.6839 1.71499 0
M  V30 36848 H 3503.72 -6.06389 -0.194203 0
M  V30 36849 H 3502.46 -4.84698 -0.54031 0
M  V30 36850 H 3501.47 -5.21719 1.73463 0
M  V30 36851 H 3502.69 -6.46733 2.07155 0
M  V30 36852 H 3500.64 -6.55778 -0.170641 0
M  V30 36853 H 3500.56 -7.44455 1.31614 0
M  V30 36854 H 3501.82 -7.79294 0.179151 0
M  V30 36855 N 3506.05 -0.789968 -1.36372 0
M  V30 36856 C 3507.28 -0.373431 -2.0401 0
M  V30 36857 C 3507.7 1.00228 -1.59173 0
M  V30 36858 O 3507.06 1.6458 -0.76046 0
M  V30 36859 C 3507.11 -0.446146 -3.57829 0
M  V30 36860 O 3506.21 0.546708 -4.0876 0
M  V30 36861 H 3505.55 -0.158506 -0.644804 0
M  V30 36862 H 3508.08 -1.07123 -1.74315 0
M  V30 36863 H 3508.09 -0.309949 -4.06821 0
M  V30 36864 H 3506.77 -1.44969 -3.89816 0
M  V30 36865 H 3505.35 0.372126 -3.71039 0
M  V30 36866 N 3507.53 1.47986 -0.542031 0
M  V30 36867 C 3508.76 2.06593 -0.0167291 0
M  V30 36868 C 3509.17 1.39731 1.27562 0
M  V30 36869 O 3508.51 0.482712 1.77244 0
M  V30 36870 C 3508.57 3.58519 0.265438 0
M  V30 36871 C 3508.24 4.47329 -0.935212 0
M  V30 36872 C 3509.24 4.86371 -1.83681 0
M  V30 36873 C 3506.92 4.89061 -1.14561 0
M  V30 36874 C 3508.91 5.6593 -2.93262 0
M  V30 36875 C 3506.6 5.68387 -2.24453 0
M  V30 36876 C 3507.6 6.0673 -3.13635 0
M  V30 36877 O 3507.29 6.84462 -4.21625 0
M  V30 36878 H 3507.02 0.675047 -0.035877 0
M  V30 36879 H 3509.57 1.91194 -0.750598 0
M  V30 36880 H 3507.8 3.72075 1.05343 0
M  V30 36881 H 3509.49 3.99203 0.734277 0
M  V30 36882 H 3510.26 4.54742 -1.68626 0
M  V30 36883 H 3506.14 4.58692 -0.460679 0
M  V30 36884 H 3509.68 5.95777 -3.62899 0
M  V30 36885 H 3505.58 5.9943 -2.39488 0
M  V30 36886 H 3506.35 7.02834 -4.19484 0
M  V30 36887 N 3509.01 0.277736 1.55133 0
M  V30 36888 C 3510.26 -0.338796 1.9995 0
M  V30 36889 C 3510.59 -1.55308 1.1659 0
M  V30 36890 O 3509.86 -1.93056 0.236605 0
M  V30 36891 C 3510.15 -0.718395 3.52861 0
M  V30 36892 C 3510 0.503411 4.46974 0
M  V30 36893 C 3511.32 -1.55384 4.11757 0
M  V30 36894 H 3508.44 -0.121669 0.726888 0
M  V30 36895 H 3511.08 0.385203 1.86054 0
M  V30 36896 H 3509.23 -1.33525 3.64833 0
M  V30 36897 H 3510.9 1.14196 4.46942 0
M  V30 36898 H 3509.14 1.14099 4.18526 0
M  V30 36899 H 3509.82 0.194009 5.51659 0
M  V30 36900 H 3512.29 -1.03286 4.03077 0
M  V30 36901 H 3511.17 -1.78826 5.18953 0
M  V30 36902 H 3511.43 -2.53571 3.62152 0
M  V30 36903 N 3510.49 -1.57599 0.00505908 0
M  V30 36904 C 3511.44 -2.05224 -0.993343 0
M  V30 36905 C 3512.42 -0.947942 -1.30011 0
M  V30 36906 O 3513.61 -1.21168 -1.29025 0
M  V30 36907 C 3510.74 -2.56324 -2.2837 0
M  V30 36908 C 3509.83 -3.73639 -2.00636 0
M  V30 36909 N 3510.22 -4.85142 -1.43078 0
M  V30 36910 C 3508.52 -3.81666 -2.30753 0
M  V30 36911 C 3509.22 -5.66542 -1.31929 0
M  V30 36912 N 3508.19 -5.127 -1.80663 0
M  V30 36913 H 3512 -2.88842 -0.542901 0
M  V30 36914 H 3509.51 -1.61157 -0.200522 0
M  V30 36915 H 3511.51 -2.88721 -3.00742 0
M  V30 36916 H 3510.17 -1.74125 -2.74063 0
M  V30 36917 H 3511.18 -5.05889 -1.10892 0
M  V30 36918 H 3507.86 -3.10332 -2.79285 0
M  V30 36919 H 3509.25 -6.66161 -0.876274 0
M  V30 36920 N 3511.97 0.267771 -1.55309 0
M  V30 36921 C 3513.21 0.996484 -1.75366 0
M  V30 36922 C 3513.53 1.8726 -0.56506 0
M  V30 36923 O 3514.73 2.6365 -0.648165 0
M  V30 36924 C 3513.19 1.82169 -3.10391 0
M  V30 36925 C 3512.8 0.993985 -4.36834 0
M  V30 36926 C 3514.54 2.54439 -3.39795 0
M  V30 36927 C 3512.45 1.81388 -5.62896 0
M  V30 36928 H 3511.38 0.375781 -0.653685 0
M  V30 36929 H 3514.03 0.251943 -1.81762 0
M  V30 36930 H 3512.41 2.60739 -2.98046 0
M  V30 36931 H 3513.59 0.252086 -4.6011 0
M  V30 36932 H 3511.9 0.385589 -4.14611 0
M  V30 36933 H 3514.5 3.16196 -4.3119 0
M  V30 36934 H 3514.84 3.24992 -2.60165 0
M  V30 36935 H 3515.37 1.82896 -3.53262 0
M  V30 36936 H 3512.11 1.15247 -6.45289 0
M  V30 36937 H 3511.63 2.53161 -5.43755 0
M  V30 36938 H 3513.31 2.38623 -6.01388 0
M  V30 36939 N 3513.44 1.48331 0.532519 0
M  V30 36940 C 3514.38 1.57232 1.65389 0
M  V30 36941 C 3515.35 0.422912 1.57004 0
M  V30 36942 O 3516.54 0.634163 1.77512 0
M  V30 36943 C 3513.67 1.49794 3.03775 0
M  V30 36944 C 3512.71 2.69544 3.30527 0
M  V30 36945 S 3513.54 4.31536 3.17076 0
M  V30 36946 C 3514.7 4.26692 4.57913 0
M  V30 36947 H 3514.93 2.52098 1.57588 0
M  V30 36948 H 3512.47 1.36832 0.715283 0
M  V30 36949 H 3514.42 1.4619 3.83587 0
M  V30 36950 H 3513.09 0.5627 3.09019 0
M  V30 36951 H 3512.28 2.60472 4.31475 0
M  V30 36952 H 3511.88 2.70398 2.58381 0
M  V30 36953 H 3514.17 3.96469 5.4938 0
M  V30 36954 H 3515.12 5.2781 4.7204 0
M  V30 36955 H 3515.52 3.57196 4.37117 0
M  V30 36956 N 3514.92 -0.781196 1.36876 0
M  V30 36957 C 3516.2 -1.52807 1.22104 0
M  V30 36958 C 3516.58 -2.10249 -0.189365 0
M  V30 36959 O 3515.93 -1.94703 -1.19595 0
M  V30 36960 C 3516.14 -2.61648 2.30957 0
M  V30 36961 C 3517.48 -3.29308 2.68033 0
M  V30 36962 O 3518.51 -2.71937 2.30062 0
M  V30 36963 O 3517.37 -4.33009 3.33415 0
M  V30 36964 H 3514.46 -0.676341 0.475911 0
M  V30 36965 H 3517.01 -0.818972 1.4863 0
M  V30 36966 H 3515.78 -2.17255 3.25447 0
M  V30 36967 H 3515.4 -3.40168 2.05843 0
M  V30 36968 N 3516.4 -1.21291 -1.0063 0
M  V30 36969 C 3517.65 -1.02731 -1.74042 0
M  V30 36970 C 3517.97 0.440318 -1.89964 0
M  V30 36971 O 3517.24 1.3177 -1.4496 0
M  V30 36972 H 3515.82 -0.377138 -0.644807 0
M  V30 36973 H 3518.48 -1.52577 -1.21269 0
M  V30 36974 H 3517.58 -1.49418 -2.74008 0
M  V30 36975 N 3517.88 1.20103 -1.02045 0
M  V30 36976 C 3519.12 1.91277 -0.7206 0
M  V30 36977 C 3519.48 1.7731 0.736548 0
M  V30 36978 O 3520.68 2.43001 1.14909 0
M  V30 36979 C 3518.95 3.38428 -1.14896 0
M  V30 36980 S 3520.51 4.27907 -0.971667 0
M  V30 36981 H 3517.33 0.660731 -0.262594 0
M  V30 36982 H 3519.93 1.45252 -1.30851 0
M  V30 36983 H 3518.64 3.46115 -2.20527 0
M  V30 36984 H 3518.17 3.8948 -0.55398 0
M  V30 36985 H 3520.18 4.96048 0.122608 0
M  V30 36986 N 3519.36 0.797189 1.35951 0
M  V30 36987 C 3520.58 0.385352 2.0328 0
M  V30 36988 C 3521 -1.00073 1.60096 0
M  V30 36989 O 3520.36 -1.6432 0.794043 0
M  V30 36990 C 3520.41 0.448347 3.58709 0
M  V30 36991 O 3520.13 1.77977 4.00319 0
M  V30 36992 C 3521.63 0.0281244 4.43291 0
M  V30 36993 H 3518.85 0.157767 0.652189 0
M  V30 36994 H 3521.39 1.0782 1.73768 0
M  V30 36995 H 3519.55 -0.196156 3.86903 0
M  V30 36996 H 3519.96 1.736 4.94938 0
M  V30 36997 H 3521.44 0.123331 5.51862 0
M  V30 36998 H 3521.91 -1.02545 4.27061 0
M  V30 36999 H 3522.52 0.645417 4.20374 0
M  V30 37000 N 3520.83 -1.47696 0.549872 0
M  V30 37001 C 3522.06 -2.07384 0.0257184 0
M  V30 37002 C 3522.48 -1.40092 -1.25522 0
M  V30 37003 O 3521.84 -0.473436 -1.75009 0
M  V30 37004 C 3521.89 -3.60241 -0.160772 0
M  V30 37005 O 3520.99 -3.93785 -1.22502 0
M  V30 37006 H 3520.34 -0.66226 0.0480321 0
M  V30 37007 H 3522.87 -1.89822 0.763463 0
M  V30 37008 H 3522.88 -4.06252 -0.377265 0
M  V30 37009 H 3521.55 -4.08618 0.774846 0
M  V30 37010 H 3520.13 -3.59529 -0.989607 0
M  V30 37011 N 3522.31 -0.285959 -1.54984 0
M  V30 37012 C 3523.54 0.333585 -2.047 0
M  V30 37013 C 3523.96 1.47873 -1.16254 0
M  V30 37014 O 3523.32 1.80562 -0.163407 0
M  V30 37015 C 3523.37 0.781808 -3.52023 0
M  V30 37016 O 3522.47 1.88805 -3.66642 0
M  V30 37017 H 3521.81 0.0673087 -0.66058 0
M  V30 37018 H 3524.34 -0.423421 -2.00171 0
M  V30 37019 H 3524.35 1.07466 -3.93592 0
M  V30 37020 H 3523.03 -0.0559661 -4.15862 0
M  V30 37021 H 3521.61 1.5969 -3.36977 0
M  V30 37022 N 3523.79 1.57594 -0.0134169 0
M  V30 37023 C 3525.02 1.95433 0.67922 0
M  V30 37024 C 3525.43 0.889058 1.66557 0
M  V30 37025 O 3524.79 -0.130723 1.82031 0
M  V30 37026 C 3524.84 3.33316 1.39937 0
M  V30 37027 O 3524.56 4.35756 0.452566 0
M  V30 37028 C 3526.06 3.85694 2.18528 0
M  V30 37029 H 3523.28 0.64403 0.188326 0
M  V30 37030 H 3525.83 2.04385 -0.068522 0
M  V30 37031 H 3523.98 3.25632 2.09864 0
M  V30 37032 H 3524.4 5.156 0.962153 0
M  V30 37033 H 3525.87 4.84561 2.64394 0
M  V30 37034 H 3526.35 3.19107 3.01773 0
M  V30 37035 H 3526.95 3.96598 1.53591 0
M  V30 37036 N 3525.27 -0.259531 1.55448 0
M  V30 37037 C 3526.51 -0.996818 1.78446 0
M  V30 37038 C 3526.87 -1.83002 0.580894 0
M  V30 37039 O 3528.07 -2.59809 0.689385 0
M  V30 37040 C 3526.34 -1.84497 3.06098 0
M  V30 37041 S 3527.9 -2.64307 3.50267 0
M  V30 37042 H 3524.72 -0.335512 0.626859 0
M  V30 37043 H 3527.32 -0.265895 1.93683 0
M  V30 37044 H 3526.03 -1.22234 3.91774 0
M  V30 37045 H 3525.56 -2.61886 2.93563 0
M  V30 37046 H 3527.57 -3.86963 3.10603 0
M  V30 37047 N 3526.75 -1.48611 -0.524645 0
M  V30 37048 C 3527.68 -1.58106 -1.64553 0
M  V30 37049 C 3528.66 -0.431232 -1.56777 0
M  V30 37050 O 3529.84 -0.643568 -1.77174 0
M  V30 37051 C 3526.97 -1.51403 -3.02977 0
M  V30 37052 C 3526.01 -2.71293 -3.29093 0
M  V30 37053 S 3526.85 -4.33211 -3.14783 0
M  V30 37054 C 3528 -4.29115 -4.55644 0
M  V30 37055 H 3528.24 -2.5293 -1.56249 0
M  V30 37056 H 3525.77 -1.3721 -0.708016 0
M  V30 37057 H 3527.73 -1.48222 -3.82806 0
M  V30 37058 H 3526.39 -0.57908 -3.08716 0
M  V30 37059 H 3525.58 -2.62756 -4.30087 0
M  V30 37060 H 3525.18 -2.71764 -2.56944 0
M  V30 37061 H 3527.48 -3.99377 -5.4727 0
M  V30 37062 H 3528.42 -5.30306 -4.69234 0
M  V30 37063 H 3528.83 -3.59509 -4.35217 0
M  V30 37064 N 3528.22 0.773926 -1.37289 0
M  V30 37065 C 3529.16 1.89433 -1.27242 0
M  V30 37066 C 3530.14 1.61875 -0.153394 0
M  V30 37067 O 3531.32 1.85638 -0.327226 0
M  V30 37068 C 3528.45 3.24608 -0.966828 0
M  V30 37069 C 3527.49 3.71079 -2.10244 0
M  V30 37070 S 3528.33 3.85008 -3.72195 0
M  V30 37071 C 3529.48 5.23034 -3.43782 0
M  V30 37072 H 3529.71 1.97665 -2.22071 0
M  V30 37073 H 3527.25 0.934798 -1.22886 0
M  V30 37074 H 3529.21 4.02682 -0.797339 0
M  V30 37075 H 3527.87 3.14079 -0.0360537 0
M  V30 37076 H 3527.06 4.69072 -1.84357 0
M  V30 37077 H 3526.66 3.001 -2.23195 0
M  V30 37078 H 3528.95 6.08131 -2.98635 0
M  V30 37079 H 3529.9 5.53933 -4.41095 0
M  V30 37080 H 3530.3 4.90869 -2.78762 0
M  V30 37081 N 3529.7 1.21823 0.99985 0
M  V30 37082 C 3530.94 1.05008 1.75365 0
M  V30 37083 C 3531.31 -0.408623 1.87601 0
M  V30 37084 O 3532.51 -0.697434 2.59594 0
M  V30 37085 C 3530.78 1.73393 3.12522 0
M  V30 37086 S 3532.34 1.71901 4.03727 0
M  V30 37087 H 3529.16 0.376187 0.603328 0
M  V30 37088 H 3531.76 1.54652 1.19596 0
M  V30 37089 H 3530.46 2.78702 3.01253 0
M  V30 37090 H 3529.99 1.2395 3.73363 0
M  V30 37091 H 3532.01 0.763754 4.90287 0
M  V30 37092 N 3531.18 -1.1956 1.0268 0
M  V30 37093 C 3532.41 -1.92872 0.740527 0
M  V30 37094 C 3532.82 -1.75604 -0.704256 0
M  V30 37095 O 3532.16 -1.07391 -1.4904 0
M  V30 37096 C 3532.22 -3.4504 1.00935 0
M  V30 37097 C 3531.89 -3.86077 2.44527 0
M  V30 37098 C 3532.88 -3.91004 3.42654 0
M  V30 37099 C 3530.57 -4.17775 2.78872 0
M  V30 37100 C 3532.56 -4.27056 4.73183 0
M  V30 37101 C 3530.25 -4.535 4.09611 0
M  V30 37102 C 3531.25 -4.58115 5.06576 0
M  V30 37103 O 3530.94 -4.93015 6.34974 0
M  V30 37104 H 3530.67 -0.619544 0.270446 0
M  V30 37105 H 3533.22 -1.52703 1.37371 0
M  V30 37106 H 3531.45 -3.85382 0.319018 0
M  V30 37107 H 3533.14 -3.99588 0.713065 0
M  V30 37108 H 3533.91 -3.66668 3.17458 0
M  V30 37109 H 3529.79 -4.13368 2.04078 0
M  V30 37110 H 3533.33 -4.30573 5.48865 0
M  V30 37111 H 3529.23 -4.77294 4.34581 0
M  V30 37112 H 3530 -5.1097 6.39415 0
M  V30 37113 N 3532.66 -0.804387 -1.35526 0
M  V30 37114 C 3533.61 -0.211227 -2.29831 0
M  V30 37115 C 3534.58 0.653476 -1.52705 0
M  V30 37116 O 3535.76 0.59902 -1.81153 0
M  V30 37117 C 3532.9 0.635995 -3.39189 0
M  V30 37118 C 3532.01 -0.2489 -4.31282 0
M  V30 37119 C 3531.15 0.606117 -5.27731 0
M  V30 37120 C 3530.19 -0.279312 -6.11462 0
M  V30 37121 N 3529.32 0.535549 -7.00054 0
M  V30 37122 H 3534.16 -1.02085 -2.79969 0
M  V30 37123 H 3531.7 -0.514955 -1.37792 0
M  V30 37124 H 3533.66 1.14234 -4.01256 0
M  V30 37125 H 3532.29 1.4109 -2.90333 0
M  V30 37126 H 3531.34 -0.873328 -3.70239 0
M  V30 37127 H 3532.65 -0.930503 -4.90044 0
M  V30 37128 H 3531.81 1.17768 -5.9516 0
M  V30 37129 H 3530.55 1.32129 -4.6946 0
M  V30 37130 H 3529.55 -0.863161 -5.42982 0
M  V30 37131 H 3530.78 -0.992318 -6.71811 0
M  V30 37132 H 3528.72 1.23474 -6.44275 0
M  V30 37133 H 3528.64 -0.0880542 -7.55949 0
M  V30 37134 H 3529.91 1.09046 -7.71835 0
M  V30 37135 N 3534.14 1.47403 -0.557697 0
M  V30 37136 C 3535.55 1.58111 -0.217501 0
M  V30 37137 C 3535.75 1.55624 1.27997 0
M  V30 37138 O 3534.81 1.45991 2.06016 0
M  V30 37139 C 3536.12 2.88595 -0.844586 0
M  V30 37140 C 3537.67 3.0218 -0.81586 0
M  V30 37141 C 3538.15 4.35365 -1.42202 0
M  V30 37142 N 3539.64 4.42002 -1.38523 0
M  V30 37143 C 3540.37 5.4362 -1.82387 0
M  V30 37144 N 3539.87 6.52046 -2.3411 0
M  V30 37145 N 3541.66 5.34668 -1.73455 0
M  V30 37146 H 3533.81 1.47262 -1.53061 0
M  V30 37147 H 3536.07 0.700896 -0.638317 0
M  V30 37148 H 3535.78 2.96153 -1.89701 0
M  V30 37149 H 3535.65 3.75683 -0.33791 0
M  V30 37150 H 3538.04 2.94219 0.227874 0
M  V30 37151 H 3538.12 2.16632 -1.3603 0
M  V30 37152 H 3537.77 4.44082 -2.46483 0
M  V30 37153 H 3537.7 5.19645 -0.853024 0
M  V30 37154 H 3540.19 3.64239 -1.0069 0
M  V30 37155 H 3540.5 7.25761 -2.65502 0
M  V30 37156 H 3538.85 6.52935 -2.38121 0
M  V30 37157 H 3542.04 4.4886 -1.32824 0
M  V30 37158 H 3542.21 6.13724 -2.07958 0
M  V30 37159 N 3535.62 0.294175 1.5483 0
M  V30 37160 C 3536.56 -0.600756 2.24708 0
M  V30 37161 C 3537.56 -1.14254 1.25069 0
M  V30 37162 O 3538.76 -1.09397 1.42941 0
M  V30 37163 H 3535.14 -0.212325 0.721403 0
M  V30 37164 H 3537.11 0.0112207 2.98398 0
M  V30 37165 C 3535.86 -1.76445 2.99604 0
M  V30 37166 H 3535.18 -1.35677 3.76074 0
M  V30 37167 H 3536.62 -2.36686 3.5179 0
M  V30 37168 C 3535.08 -2.66446 2.06175 0
M  V30 37169 O 3535.61 -3.6735 1.62533 0
M  V30 37170 N 3533.82 -2.3403 1.72274 0
M  V30 37171 H 3533.36 -1.52022 2.0796 0
M  V30 37172 H 3533.32 -2.94516 1.10036 0
M  V30 37173 N 3537.09 -1.57585 0.0217743 0
M  V30 37174 C 3538.51 -1.56054 -0.334549 0
M  V30 37175 C 3538.71 -1.02666 -1.73384 0
M  V30 37176 O 3537.77 -0.670121 -2.43445 0
M  V30 37177 C 3539.08 -3.001 -0.189866 0
M  V30 37178 C 3540.63 -3.11892 -0.263183 0
M  V30 37179 C 3541.1 -4.57763 -0.147374 0
M  V30 37180 N 3542.59 -4.62748 -0.204591 0
M  V30 37181 C 3543.33 -5.73232 -0.138654 0
M  V30 37182 N 3542.82 -6.92796 -0.0220544 0
M  V30 37183 N 3544.62 -5.61772 -0.192107 0
M  V30 37184 H 3536.77 -1.90621 0.936882 0
M  V30 37185 H 3539.03 -0.876519 0.361135 0
M  V30 37186 H 3538.74 -3.43083 0.773747 0
M  V30 37187 H 3538.61 -3.64698 -0.963084 0
M  V30 37188 H 3541 -2.68825 -1.21725 0
M  V30 37189 H 3541.08 -2.50029 0.540285 0
M  V30 37190 H 3540.72 -5.01508 0.803243 0
M  V30 37191 H 3540.65 -5.17596 -0.969612 0
M  V30 37192 H 3543.14 -3.76746 -0.295154 0
M  V30 37193 H 3543.46 -7.72797 0.0217668 0
M  V30 37194 H 3541.8 -6.94999 0.0126255 0
M  V30 37195 H 3544.99 -4.67253 -0.281548 0
M  V30 37196 H 3545.17 -6.47855 -0.137258 0
M  V30 37197 N 3538.57 0.251283 -1.55584 0
M  V30 37198 C 3539.53 1.2944 -1.8915 0
M  V30 37199 C 3540.53 1.41295 -0.767625 0
M  V30 37200 O 3541.72 1.40071 -1.03565 0
M  V30 37201 C 3538.86 2.67275 -2.11606 0
M  V30 37202 H 3540.05 1.00896 -2.82418 0
M  V30 37203 H 3537.6 0.490372 -1.48408 0
M  V30 37204 H 3538.34 3.00965 -1.20792 0
M  V30 37205 H 3538.12 2.60053 -2.93454 0
M  V30 37206 H 3539.61 3.42603 -2.38774 0
M  V30 37207 N 3540.05 1.48887 0.516757 0
M  V30 37208 C 3541.28 1.6126 1.29625 0
M  V30 37209 C 3541.69 0.277893 1.86744 0
M  V30 37210 O 3541.05 -0.73461 1.67062 0
M  V30 37211 C 3541.1 2.66939 2.43774 0
M  V30 37212 O 3540.82 3.95232 1.89007 0
M  V30 37213 C 3542.32 2.89873 3.35393 0
M  V30 37214 H 3539.54 0.543342 0.393726 0
M  V30 37215 H 3542.09 1.9481 0.622035 0
M  V30 37216 H 3540.24 2.36211 3.07055 0
M  V30 37217 H 3540.66 4.53317 2.63825 0
M  V30 37218 H 3542.13 3.67588 4.11805 0
M  V30 37219 H 3542.61 1.99192 3.91432 0
M  V30 37220 H 3543.21 3.21957 2.77892 0
M  V30 37221 N 3541.53 -0.766635 1.37697 0
M  V30 37222 C 3542.94 -1.0679 1.18608 0
M  V30 37223 C 3543.14 -2.01484 0.0257549 0
M  V30 37224 O 3542.2 -2.44448 -0.632565 0
M  V30 37225 C 3543.51 -1.6605 2.50695 0
M  V30 37226 C 3545.06 -1.78284 2.57262 0
M  V30 37227 C 3545.54 -2.40956 3.89492 0
M  V30 37228 N 3547.03 -2.48401 3.90962 0
M  V30 37229 C 3547.76 -2.97758 4.90028 0
M  V30 37230 N 3547.26 -3.47249 5.99491 0
M  V30 37231 N 3549.05 -2.96679 4.77428 0
M  V30 37232 H 3541.2 -0.137993 2.11951 0
M  V30 37233 H 3543.46 -0.123847 0.939876 0
M  V30 37234 H 3543.17 -1.03939 3.3599 0
M  V30 37235 H 3543.04 -2.65281 2.68153 0
M  V30 37236 H 3545.43 -2.39525 1.72371 0
M  V30 37237 H 3545.51 -0.777939 2.43684 0
M  V30 37238 H 3545.16 -1.80352 4.74801 0
M  V30 37239 H 3545.09 -3.42062 4.00376 0
M  V30 37240 H 3547.58 -2.13383 3.11891 0
M  V30 37241 H 3547.89 -3.83328 6.71029 0
M  V30 37242 H 3546.24 -3.4534 6.03129 0
M  V30 37243 H 3549.43 -2.57318 3.91031 0
M  V30 37244 H 3549.6 -3.34834 5.54788 0
M  V30 37245 N 3543.01 -1.22351 -0.993375 0
M  V30 37246 C 3544.25 -1.04934 -1.73542 0
M  V30 37247 C 3544.58 0.414628 -1.89722 0
M  V30 37248 O 3543.86 1.30741 -1.44004 0
M  V30 37249 C 3544.14 -1.76056 -3.14128 0
M  V30 37250 C 3544 -3.30045 -3.05599 0
M  V30 37251 C 3545.31 -1.51256 -4.13291 0
M  V30 37252 H 3542.43 -0.382602 -0.629908 0
M  V30 37253 H 3545.08 -1.50684 -1.15734 0
M  V30 37254 H 3543.23 -1.37163 -3.63481 0
M  V30 37255 H 3544.9 -3.78379 -2.6387 0
M  V30 37256 H 3543.14 -3.59747 -2.42415 0
M  V30 37257 H 3543.81 -3.74986 -4.0508 0
M  V30 37258 H 3546.29 -1.85039 -3.72692 0
M  V30 37259 H 3545.16 -2.03516 -5.09777 0
M  V30 37260 H 3545.42 -0.445051 -4.39854 0
M  V30 37261 N 3544.48 1.19014 -1.03313 0
M  V30 37262 C 3545.39 2.26045 -0.627774 0
M  V30 37263 C 3546.41 1.70597 0.342453 0
M  V30 37264 O 3547.59 2.00412 0.199272 0
M  V30 37265 C 3544.65 3.46698 0.0107665 0
M  V30 37266 C 3543.71 4.1731 -1.0075 0
M  V30 37267 C 3542.94 5.32204 -0.399339 0
M  V30 37268 O 3543.17 5.64811 0.796549 0
M  V30 37269 O 3542.1 5.91306 -1.12429 0
M  V30 37270 H 3545.93 2.62967 -1.51928 0
M  V30 37271 H 3543.51 1.25949 -0.80356 0
M  V30 37272 H 3545.39 4.19802 0.366598 0
M  V30 37273 H 3544.07 3.11616 0.87621 0
M  V30 37274 H 3542.98 3.46307 -1.415 0
M  V30 37275 H 3544.31 4.56374 -1.84346 0
M  V30 37276 N 3545.96 0.811563 1.35098 0
M  V30 37277 C 3547.2 0.39997 2.00448 0
M  V30 37278 C 3547.57 -1.01507 1.62973 0
M  V30 37279 O 3548.77 -1.52894 2.21081 0
M  V30 37280 C 3547.04 0.583339 3.52607 0
M  V30 37281 S 3548.6 0.262907 4.38012 0
M  V30 37282 H 3545.41 0.151656 0.694638 0
M  V30 37283 H 3548.02 1.0549 1.64597 0
M  V30 37284 H 3546.72 1.61309 3.77369 0
M  V30 37285 H 3546.25 -0.0867341 3.93304 0
M  V30 37286 H 3548.27 -0.92761 4.87452 0
M  V30 37287 N 3547.44 -1.47105 0.565506 0
M  V30 37288 C 3548.67 -2.0684 0.0496662 0
M  V30 37289 C 3549.08 -1.41693 -1.24774 0
M  V30 37290 O 3548.44 -0.51627 -1.75045 0
M  V30 37291 C 3548.49 -3.61225 -0.140923 0
M  V30 37292 O 3548.21 -4.23932 1.10512 0
M  V30 37293 C 3549.71 -4.37848 -0.693094 0
M  V30 37294 H 3546.93 -0.669163 0.0496135 0
M  V30 37295 H 3549.48 -1.88987 0.78128 0
M  V30 37296 H 3547.63 -3.78564 -0.822695 0
M  V30 37297 H 3548.05 -5.16579 0.908069 0
M  V30 37298 H 3549.52 -5.46522 -0.775704 0
M  V30 37299 H 3550 -4.04702 -1.70625 0
M  V30 37300 H 3550.6 -4.25274 -0.0467513 0
M  V30 37301 N 3548.92 -0.302382 -1.54672 0
M  V30 37302 C 3550.15 0.309057 -2.04579 0
M  V30 37303 C 3550.56 1.47414 -1.1796 0
M  V30 37304 O 3549.92 1.81339 -0.205532 0
M  V30 37305 C 3549.97 0.763961 -3.53335 0
M  V30 37306 O 3549.69 -0.354751 -4.36661 0
M  V30 37307 C 3551.19 1.44041 -4.19246 0
M  V30 37308 H 3548.41 0.0669458 -0.667652 0
M  V30 37309 H 3550.96 -0.442414 -1.99657 0
M  V30 37310 H 3549.11 1.46545 -3.58613 0
M  V30 37311 H 3549.52 -0.000333382 -5.245 0
M  V30 37312 H 3551 1.70985 -5.2485 0
M  V30 37313 H 3551.48 2.38091 -3.69065 0
M  V30 37314 H 3552.08 0.782059 -4.18048 0
M  V30 37315 N 3550.4 1.57571 -0.0301311 0
M  V30 37316 C 3551.65 1.9102 0.647638 0
M  V30 37317 C 3551.96 0.908296 1.73232 0
M  V30 37318 O 3553.16 1.13406 2.4668 0
M  V30 37319 C 3551.62 3.39192 1.20321 0
M  V30 37320 C 3551.23 4.47743 0.151754 0
M  V30 37321 C 3552.97 3.81706 1.85743 0
M  V30 37322 C 3550.88 5.87013 0.719016 0
M  V30 37323 H 3549.81 0.712855 0.245669 0
M  V30 37324 H 3552.46 1.83251 -0.0955967 0
M  V30 37325 H 3550.84 3.41896 1.99808 0
M  V30 37326 H 3552.02 4.566 -0.62074 0
M  V30 37327 H 3550.33 4.14438 -0.403772 0
M  V30 37328 H 3552.93 4.83113 2.29142 0
M  V30 37329 H 3553.27 3.16821 2.70055 0
M  V30 37330 H 3553.8 3.8143 1.12943 0
M  V30 37331 H 3550.54 6.55444 -0.0859984 0
M  V30 37332 H 3550.06 5.8176 1.45997 0
M  V30 37333 H 3551.74 6.35614 1.20845 0
M  V30 37334 N 3551.87 -0.243029 1.55715 0
M  V30 37335 C 3553.12 -0.971961 1.77991 0
M  V30 37336 C 3553.45 -1.84826 0.596071 0
M  V30 37337 O 3552.73 -1.90226 -0.405507 0
M  V30 37338 C 3553.01 -1.82919 3.10182 0
M  V30 37339 C 3552.86 -0.980823 4.38976 0
M  V30 37340 C 3554.18 -2.81097 3.38633 0
M  V30 37341 H 3551.3 -0.351928 0.647546 0
M  V30 37342 H 3553.94 -0.242204 1.8845 0
M  V30 37343 H 3552.09 -2.45138 3.01396 0
M  V30 37344 H 3553.77 -0.377032 4.59757 0
M  V30 37345 H 3552.01 -0.285337 4.32861 0
M  V30 37346 H 3552.68 -1.61451 5.27861 0
M  V30 37347 H 3555.16 -2.29015 3.47407 0
M  V30 37348 H 3554.03 -3.38195 4.32337 0
M  V30 37349 H 3554.29 -3.57756 2.59736 0
M  V30 37350 N 3553.35 -1.49159 -0.508854 0
M  V30 37351 C 3554.3 -1.65723 -1.63213 0
M  V30 37352 C 3555.29 -0.523265 -1.61116 0
M  V30 37353 O 3556.5 -0.702658 -1.65719 0
M  V30 37354 H 3552.88 -0.522429 -0.5409 0
M  V30 37355 H 3554.85 -2.60023 -1.46392 0
M  V30 37356 C 3553.6 -1.73377 -3.0139 0
M  V30 37357 H 3552.92 -2.60005 -3.03706 0
M  V30 37358 H 3554.36 -1.89004 -3.79544 0
M  V30 37359 C 3552.82 -0.476888 -3.33508 0
M  V30 37360 O 3553.35 0.400915 -3.99694 0
M  V30 37361 N 3551.55 -0.342196 -2.88578 0
M  V30 37362 H 3551.1 -1.05751 -2.34892 0
M  V30 37363 H 3551.06 0.497703 -3.10436 0
M  V30 37364 N 3554.83 0.759322 -1.38102 0
M  V30 37365 C 3556.08 1.51528 -1.3373 0
M  V30 37366 C 3556.4 1.9486 0.0739162 0
M  V30 37367 O 3555.67 1.67223 1.02046 0
M  V30 37368 H 3554.25 0.562049 -0.492046 0
M  V30 37369 H 3556.91 0.902964 -1.72721 0
M  V30 37370 H 3556.01 2.40888 -1.98443 0
M  V30 37371 N 3556.31 1.22876 0.986873 0
M  V30 37372 C 3557.24 0.947443 2.07602 0
M  V30 37373 C 3558.22 -0.111875 1.62215 0
M  V30 37374 O 3559.4 0.0210013 1.88488 0
M  V30 37375 C 3556.53 0.426109 3.36009 0
M  V30 37376 C 3555.58 1.47104 4.00328 0
M  V30 37377 S 3556.41 3.04634 4.40407 0
M  V30 37378 C 3557.57 2.54155 5.71976 0
M  V30 37379 H 3557.8 1.86973 2.31146 0
M  V30 37380 H 3555.33 1.06049 1.12218 0
M  V30 37381 H 3557.29 0.131918 4.10288 0
M  V30 37382 H 3555.95 -0.475156 3.10485 0
M  V30 37383 H 3555.14 1.05626 4.92807 0
M  V30 37384 H 3554.75 1.71424 3.324 0
M  V30 37385 H 3557.04 1.95771 6.48598 0
M  V30 37386 H 3557.98 3.45148 6.18287 0
M  V30 37387 H 3558.39 1.95231 5.29665 0
M  V30 37388 N 3557.79 -1.18464 1.03942 0
M  V30 37389 C 3558.73 -2.22053 0.629391 0
M  V30 37390 C 3559.7 -1.62104 -0.362159 0
M  V30 37391 O 3560.89 -1.89069 -0.256424 0
M  V30 37392 C 3558.03 -3.451 -0.00276822 0
M  V30 37393 C 3557.14 -4.19391 1.0361 0
M  V30 37394 C 3556.28 -5.29892 0.372585 0
M  V30 37395 C 3555.32 -5.95954 1.39663 0
M  V30 37396 N 3554.45 -6.97994 0.758176 0
M  V30 37397 H 3559.29 -2.56482 1.51727 0
M  V30 37398 H 3556.83 -1.26002 0.759065 0
M  V30 37399 H 3558.79 -4.15405 -0.386615 0
M  V30 37400 H 3557.42 -3.11294 -0.854169 0
M  V30 37401 H 3556.47 -3.47926 1.5379 0
M  V30 37402 H 3557.78 -4.64647 1.81395 0
M  V30 37403 H 3556.94 -6.06665 -0.0655354 0
M  V30 37404 H 3555.67 -4.85735 -0.437377 0
M  V30 37405 H 3554.68 -5.17922 1.8449 0
M  V30 37406 H 3555.9 -6.42193 2.20827 0
M  V30 37407 H 3553.85 -6.55992 -0.031502 0
M  V30 37408 H 3553.77 -7.41496 1.47376 0
M  V30 37409 H 3555.04 -7.78739 0.34441 0
M  V30 37410 N 3559.26 -0.818716 -1.34665 0
M  V30 37411 C 3560.68 -0.503948 -1.51435 0
M  V30 37412 C 3560.88 0.97266 -1.7647 0
M  V30 37413 O 3559.94 1.75728 -1.81317 0
M  V30 37414 C 3561.25 -1.35983 -2.68196 0
M  V30 37415 C 3562.8 -1.35652 -2.82077 0
M  V30 37416 C 3563.27 -2.19679 -4.01877 0
M  V30 37417 N 3564.76 -2.1728 -4.09077 0
M  V30 37418 C 3565.5 -2.79047 -5.0092 0
M  V30 37419 N 3564.99 -3.49788 -5.98014 0
M  V30 37420 N 3566.79 -2.68623 -4.93759 0
M  V30 37421 H 3558.94 -1.77485 -1.16674 0
M  V30 37422 H 3561.2 -0.756095 -0.57186 0
M  V30 37423 H 3560.91 -2.40825 -2.56313 0
M  V30 37424 H 3560.78 -1.02157 -3.63103 0
M  V30 37425 H 3563.17 -0.315901 -2.93404 0
M  V30 37426 H 3563.25 -1.73473 -1.87991 0
M  V30 37427 H 3562.89 -3.23788 -3.9131 0
M  V30 37428 H 3562.82 -1.79211 -4.95168 0
M  V30 37429 H 3565.31 -1.6582 -3.39577 0
M  V30 37430 H 3565.63 -3.94174 -6.64715 0
M  V30 37431 H 3563.97 -3.53894 -5.98151 0
M  V30 37432 H 3567.16 -2.12936 -4.16864 0
M  V30 37433 H 3567.34 -3.17048 -5.65141 0
M  V30 37434 N 3560.74 1.46803 -0.573299 0
M  V30 37435 C 3561.97 2.07317 -0.0587081 0
M  V30 37436 C 3562.39 1.42071 1.23278 0
M  V30 37437 O 3561.75 0.501219 1.74234 0
M  V30 37438 C 3561.8 3.60452 0.10344 0
M  V30 37439 O 3560.9 3.95684 1.16222 0
M  V30 37440 H 3560.24 0.661412 -0.058562 0
M  V30 37441 H 3562.77 1.88583 -0.793565 0
M  V30 37442 H 3562.78 4.06801 0.312587 0
M  V30 37443 H 3561.46 4.07334 -0.839755 0
M  V30 37444 H 3560.04 3.61058 0.932283 0
M  V30 37445 N 3562.22 0.31058 1.54509 0
M  V30 37446 C 3563.47 -0.295869 2.00327 0
M  V30 37447 C 3563.8 -1.53156 1.1989 0
M  V30 37448 O 3563.05 -1.93889 0.265649 0
M  V30 37449 C 3563.35 -0.687728 3.50721 0
M  V30 37450 C 3563.02 0.447308 4.48676 0
M  V30 37451 C 3561.68 0.75888 4.75178 0
M  V30 37452 C 3564.03 1.21037 5.06951 0
M  V30 37453 C 3561.36 1.83646 5.57217 0
M  V30 37454 C 3563.71 2.27794 5.90163 0
M  V30 37455 C 3562.37 2.59547 6.14973 0
M  V30 37456 H 3561.64 -0.108266 0.733048 0
M  V30 37457 H 3564.29 0.431666 1.86571 0
M  V30 37458 H 3562.6 -1.49549 3.62136 0
M  V30 37459 H 3564.29 -1.1683 3.83604 0
M  V30 37460 H 3560.88 0.194376 4.28159 0
M  V30 37461 H 3565.07 0.982916 4.86469 0
M  V30 37462 H 3560.32 2.08709 5.74674 0
M  V30 37463 H 3564.5 2.87373 6.34342 0
M  V30 37464 H 3562.12 3.43177 6.78332 0
M  V30 37465 N 3563.7 -1.57553 0.0384871 0
M  V30 37466 C 3564.93 -1.96204 -0.647103 0
M  V30 37467 C 3565.34 -0.914071 -1.65654 0
M  V30 37468 O 3564.68 0.111585 -1.83361 0
M  V30 37469 C 3564.74 -3.31041 -1.40187 0
M  V30 37470 C 3564.41 -4.53682 -0.549702 0
M  V30 37471 C 3565.4 -5.19592 0.178931 0
M  V30 37472 C 3563.09 -4.99959 -0.484352 0
M  V30 37473 C 3565.08 -6.30106 0.961487 0
M  V30 37474 C 3562.77 -6.10354 0.301902 0
M  V30 37475 C 3563.77 -6.75287 1.02352 0
M  V30 37476 O 3563.46 -7.83561 1.79687 0
M  V30 37477 H 3563.19 -0.65086 -0.18264 0
M  V30 37478 H 3565.74 -2.05169 0.0973707 0
M  V30 37479 H 3563.97 -3.18594 -2.19169 0
M  V30 37480 H 3565.66 -3.54529 -1.97647 0
M  V30 37481 H 3566.43 -4.84804 0.137834 0
M  V30 37482 H 3562.31 -4.49217 -1.03561 0
M  V30 37483 H 3565.85 -6.80722 1.52525 0
M  V30 37484 H 3561.75 -6.44579 0.344682 0
M  V30 37485 H 3562.51 -8.00275 1.71764 0
M  V30 37486 N 3565.18 0.234767 -1.55842 0
M  V30 37487 C 3566.42 0.962508 -1.78504 0
M  V30 37488 C 3566.76 1.84507 -0.605864 0
M  V30 37489 O 3566.03 1.90438 0.395413 0
M  V30 37490 C 3566.31 1.81272 -3.11147 0
M  V30 37491 C 3566.17 0.95753 -4.3949 0
M  V30 37492 C 3567.49 2.79298 -3.40119 0
M  V30 37493 H 3564.61 0.348489 -0.649403 0
M  V30 37494 H 3567.25 0.232207 -1.88576 0
M  V30 37495 H 3565.4 2.43536 -3.02692 0
M  V30 37496 H 3567.07 0.352645 -4.5995 0
M  V30 37497 H 3565.31 0.262378 -4.33006 0
M  V30 37498 H 3565.98 1.5865 -5.2871 0
M  V30 37499 H 3568.46 2.27169 -3.48616 0
M  V30 37500 H 3567.34 3.35898 -4.34124 0
M  V30 37501 H 3567.6 3.56374 -2.6163 0
M  V30 37502 N 3566.66 1.49427 0.500936 0
M  V30 37503 C 3567.89 1.6239 1.27722 0
M  V30 37504 C 3568.29 0.294577 1.86893 0
M  V30 37505 O 3567.64 -0.73 1.68572 0
M  V30 37506 C 3567.7 2.63418 2.44645 0
M  V30 37507 C 3567.36 4.07764 2.06343 0
M  V30 37508 C 3568.36 4.94566 1.60314 0
M  V30 37509 C 3566.04 4.53497 2.15976 0
M  V30 37510 C 3568.04 6.25138 1.24422 0
M  V30 37511 C 3565.73 5.84083 1.79696 0
M  V30 37512 C 3566.72 6.69727 1.33993 0
M  V30 37513 O 3566.41 7.97879 0.982031 0
M  V30 37514 H 3566.14 0.549606 0.393585 0
M  V30 37515 H 3568.7 1.96198 0.607909 0
M  V30 37516 H 3566.93 2.24791 3.14652 0
M  V30 37517 H 3568.62 2.6591 3.0667 0
M  V30 37518 H 3569.38 4.60461 1.52318 0
M  V30 37519 H 3565.26 3.87002 2.50501 0
M  V30 37520 H 3568.81 6.91941 0.886784 0
M  V30 37521 H 3564.7 6.17716 1.87342 0
M  V30 37522 H 3565.47 8.10891 1.1135 0
M  V30 37523 N 3568.13 -0.751987 1.38502 0
M  V30 37524 C 3569.1 -1.84741 1.35659 0
M  V30 37525 C 3570.1 -1.58736 0.2568 0
M  V30 37526 O 3571.29 -1.66451 0.513778 0
M  V30 37527 C 3568.42 -3.22241 1.11236 0
M  V30 37528 H 3569.61 -1.8867 2.33117 0
M  V30 37529 H 3567.16 -0.95386 1.23819 0
M  V30 37530 H 3567.9 -3.23981 0.143905 0
M  V30 37531 H 3567.68 -3.42511 1.90863 0
M  V30 37532 H 3569.17 -4.02316 1.11946 0
M  V30 37533 N 3569.61 -1.23398 -0.980343 0
M  V30 37534 C 3570.56 -1.01266 -2.09399 0
M  V30 37535 C 3571.55 0.048366 -1.69331 0
M  V30 37536 O 3572.76 -0.105141 -1.79693 0
M  V30 37537 H 3569.13 -0.31037 -0.684963 0
M  V30 37538 H 3571.11 -1.95736 -2.25233 0
M  V30 37539 C 3569.85 -0.620586 -3.42117 0
M  V30 37540 H 3569.18 -1.42874 -3.73399 0
M  V30 37541 H 3570.62 -0.505243 -4.20979 0
M  V30 37542 C 3569.08 0.67115 -3.30147 0
M  V30 37543 O 3569.61 1.72028 -3.63 0
M  V30 37544 N 3567.81 0.647087 -2.83304 0
M  V30 37545 H 3567.36 -0.207002 -2.56767 0
M  V30 37546 H 3567.32 1.5116 -2.75677 0
M  V30 37547 N 3571.09 1.17911 -1.04569 0
M  V30 37548 C 3572.34 1.87646 -0.750571 0
M  V30 37549 C 3572.66 1.81053 0.724198 0
M  V30 37550 O 3571.93 1.23226 1.5229 0
M  V30 37551 H 3570.51 0.694678 -0.274649 0
M  V30 37552 H 3573.17 1.4307 -1.32352 0
M  V30 37553 H 3572.27 2.93551 -1.05992 0
M  V30 37554 N 3572.57 0.825847 1.34229 0
M  V30 37555 C 3573.82 0.41449 1.97804 0
M  V30 37556 C 3574.14 -1.02662 1.65788 0
M  V30 37557 O 3573.41 -1.71318 0.950099 0
M  V30 37558 H 3571.99 0.150278 0.731728 0
M  V30 37559 H 3574.65 1.05594 1.63817 0
M  V30 37560 H 3573.74 0.535883 3.07465 0
M  V30 37561 N 3574.05 -1.46497 0.581077 0
M  V30 37562 C 3575.46 -1.57745 0.242627 0
M  V30 37563 C 3575.66 -1.57641 -1.25505 0
M  V30 37564 O 3574.72 -1.4925 -2.03668 0
M  V30 37565 C 3576.03 -2.87215 0.890392 0
M  V30 37566 C 3577.58 -3.00844 0.863831 0
M  V30 37567 C 3578.05 -4.33047 1.49111 0
M  V30 37568 N 3579.54 -4.39742 1.45537 0
M  V30 37569 C 3580.28 -5.40649 1.91013 0
M  V30 37570 N 3579.78 -6.48239 2.44454 0
M  V30 37571 N 3581.57 -5.31841 1.81939 0
M  V30 37572 H 3573.72 -1.44808 1.55384 0
M  V30 37573 H 3575.98 -0.690652 0.649387 0
M  V30 37574 H 3575.69 -2.93097 1.94388 0
M  V30 37575 H 3575.56 -3.75098 0.397635 0
M  V30 37576 H 3577.95 -2.94544 -0.181037 0
M  V30 37577 H 3578.03 -2.14441 1.39459 0
M  V30 37578 H 3577.67 -4.40104 2.53517 0
M  V30 37579 H 3577.6 -5.18222 0.935587 0
M  V30 37580 H 3580.1 -3.62591 1.06472 0
M  V30 37581 H 3580.41 -7.21445 2.77015 0
M  V30 37582 H 3578.75 -6.49064 2.48478 0
M  V30 37583 H 3581.94 -4.4669 1.39948 0
M  V30 37584 H 3582.12 -6.10338 2.17696 0
M  V30 37585 N 3575.52 -0.31877 -1.54343 0
M  V30 37586 C 3576.77 0.284678 -2.00085 0
M  V30 37587 C 3577.09 1.53031 -1.20858 0
M  V30 37588 O 3576.36 1.93445 -0.309138 0
M  V30 37589 H 3574.94 0.10818 -0.739125 0
M  V30 37590 H 3577.6 -0.434208 -1.90002 0
M  V30 37591 H 3576.7 0.544405 -3.07315 0
M  V30 37592 N 3577 1.5753 -0.0468419 0
M  V30 37593 C 3578.25 1.92519 0.627905 0
M  V30 37594 C 3578.58 0.924831 1.71106 0
M  V30 37595 O 3577.83 -0.0635468 1.95597 0
M  V30 37596 C 3578.13 3.34202 1.26663 0
M  V30 37597 C 3577.8 4.49819 0.312105 0
M  V30 37598 C 3576.46 4.81175 0.0494356 0
M  V30 37599 C 3578.81 5.20075 -0.34232 0
M  V30 37600 C 3576.14 5.80136 -0.875166 0
M  V30 37601 C 3578.49 6.20024 -1.25509 0
M  V30 37602 C 3577.15 6.49812 -1.52647 0
M  V30 37603 H 3576.42 0.704477 0.229767 0
M  V30 37604 H 3579.07 1.9117 -0.112396 0
M  V30 37605 H 3577.38 3.31898 2.0821 0
M  V30 37606 H 3579.07 3.58553 1.79557 0
M  V30 37607 H 3575.66 4.25348 0.527013 0
M  V30 37608 H 3579.85 4.96066 -0.152471 0
M  V30 37609 H 3575.1 6.01552 -1.09294 0
M  V30 37610 H 3579.28 6.73576 -1.76827 0
M  V30 37611 H 3576.9 7.26308 -2.24456 0
M  V30 37612 N 3578.48 -0.226499 1.55964 0
M  V30 37613 C 3579.72 -0.958743 1.8052 0
M  V30 37614 C 3580.08 -1.81728 0.619581 0
M  V30 37615 O 3581.29 -2.58289 0.74434 0
M  V30 37616 C 3579.56 -1.77962 3.09942 0
M  V30 37617 S 3581.12 -2.56818 3.55795 0
M  V30 37618 H 3577.93 -0.32214 0.633835 0
M  V30 37619 H 3580.54 -0.224752 1.94204 0
M  V30 37620 H 3579.24 -1.13896 3.94279 0
M  V30 37621 H 3578.77 -2.556 2.99052 0
M  V30 37622 H 3580.79 -3.80287 3.18741 0
M  V30 37623 N 3579.96 -1.4969 -0.493005 0
M  V30 37624 C 3580.91 -1.66948 -1.59364 0
M  V30 37625 C 3581.88 -0.510869 -1.58049 0
M  V30 37626 O 3583.06 -0.738853 -1.75914 0
M  V30 37627 C 3580.2 -1.74946 -2.97469 0
M  V30 37628 C 3579.31 -3.02165 -3.0874 0
M  V30 37629 C 3578.45 -3.01092 -4.37626 0
M  V30 37630 C 3577.49 -4.22857 -4.42559 0
M  V30 37631 N 3576.62 -4.19649 -5.62885 0
M  V30 37632 H 3581.46 -2.60923 -1.43956 0
M  V30 37633 H 3579 -1.29362 -0.700274 0
M  V30 37634 H 3580.96 -1.77564 -3.77527 0
M  V30 37635 H 3579.59 -0.844307 -3.11563 0
M  V30 37636 H 3578.64 -3.09121 -2.21694 0
M  V30 37637 H 3579.95 -3.92157 -3.08245 0
M  V30 37638 H 3579.11 -3.02318 -5.26012 0
M  V30 37639 H 3577.85 -2.08893 -4.40698 0
M  V30 37640 H 3576.85 -4.21867 -3.52574 0
M  V30 37641 H 3578.08 -5.16258 -4.41196 0
M  V30 37642 H 3576.02 -3.30291 -5.66784 0
M  V30 37643 H 3575.94 -5.03384 -5.64039 0
M  V30 37644 H 3577.21 -4.24988 -6.53456 0
M  V30 37645 N 3581.44 0.744631 -1.38899 0
M  V30 37646 C 3582.66 1.53389 -1.38851 0
M  V30 37647 C 3583.08 1.8879 0.0194617 0
M  V30 37648 O 3582.44 1.53419 0.988372 0
M  V30 37649 C 3582.49 2.82746 -2.25248 0
M  V30 37650 O 3582.21 2.48852 -3.60561 0
M  V30 37651 C 3583.71 3.76833 -2.33478 0
M  V30 37652 H 3580.93 0.474329 -0.474608 0
M  V30 37653 H 3583.47 0.92087 -1.82593 0
M  V30 37654 H 3581.63 3.40403 -1.84944 0
M  V30 37655 H 3582.04 3.31879 -4.06148 0
M  V30 37656 H 3583.52 4.64523 -2.98198 0
M  V30 37657 H 3583.99 4.17903 -1.35107 0
M  V30 37658 H 3584.6 3.25098 -2.74211 0
M  V30 37659 N 3582.91 1.23916 0.973785 0
M  V30 37660 C 3583.86 0.993257 2.05228 0
M  V30 37661 C 3584.85 -0.0631402 1.60776 0
M  V30 37662 O 3586.04 0.149825 1.76365 0
M  V30 37663 C 3583.17 0.59348 3.38131 0
M  V30 37664 C 3582.26 1.68563 3.89162 0
M  V30 37665 N 3582.65 2.91722 4.13198 0
M  V30 37666 C 3580.94 1.56174 4.17763 0
M  V30 37667 C 3581.65 3.62479 4.54955 0
M  V30 37668 N 3580.62 2.90017 4.59773 0
M  V30 37669 H 3584.42 1.92852 2.21778 0
M  V30 37670 H 3581.94 1.13952 1.15709 0
M  V30 37671 H 3583.93 0.398564 4.1499 0
M  V30 37672 H 3582.59 -0.334664 3.22971 0
M  V30 37673 H 3583.61 3.27961 4.00826 0
M  V30 37674 H 3580.28 0.701184 4.1157 0
M  V30 37675 H 3581.67 4.68094 4.82014 0
M  V30 37676 N 3584.39 -1.17355 1.05193 0
M  V30 37677 C 3585.34 -2.23425 0.646836 0
M  V30 37678 C 3586.33 -1.66117 -0.331889 0
M  V30 37679 O 3587.54 -1.78908 -0.197951 0
M  V30 37680 H 3583.92 -0.727339 0.191001 0
M  V30 37681 H 3585.89 -2.5489 1.55156 0
M  V30 37682 C 3584.64 -3.4768 0.0375661 0
M  V30 37683 H 3583.96 -3.92082 0.781755 0
M  V30 37684 H 3585.4 -4.23487 -0.208505 0
M  V30 37685 C 3583.86 -3.14199 -1.21576 0
M  V30 37686 O 3584.39 -3.28977 -2.30514 0
M  V30 37687 N 3582.59 -2.68424 -1.11341 0
M  V30 37688 H 3582.14 -2.56599 -0.226897 0
M  V30 37689 H 3582.1 -2.46395 -1.95286 0
M  V30 37690 N 3585.87 -0.832954 -1.3379 0
M  V30 37691 C 3587.12 -0.435659 -1.9868 0
M  V30 37692 C 3587.47 0.992726 -1.64811 0
M  V30 37693 O 3586.76 1.6836 -0.914637 0
M  V30 37694 C 3586.96 -0.586547 -3.52554 0
M  V30 37695 C 3586.79 -2.02805 -4.01373 0
M  V30 37696 C 3585.56 -2.66205 -4.29492 0
M  V30 37697 C 3587.76 -2.99605 -4.18021 0
M  V30 37698 N 3585.74 -4.01491 -4.64412 0
M  V30 37699 C 3587.11 -4.19823 -4.56233 0
M  V30 37700 C 3589.16 -2.96088 -4.00295 0
M  V30 37701 C 3587.87 -5.36993 -4.78572 0
M  V30 37702 C 3589.89 -4.12484 -4.23806 0
M  V30 37703 C 3589.25 -5.31455 -4.62314 0
M  V30 37704 H 3585.35 -0.207725 -0.753906 0
M  V30 37705 H 3587.94 -1.07977 -1.62016 0
M  V30 37706 H 3586.11 0.0277288 -3.8839 0
M  V30 37707 H 3587.84 -0.161274 -4.04379 0
M  V30 37708 H 3584.6 -2.17379 -4.20765 0
M  V30 37709 H 3585.02 -4.71216 -4.86091 0
M  V30 37710 H 3589.66 -2.05242 -3.69643 0
M  V30 37711 H 3587.38 -6.28389 -5.08087 0
M  V30 37712 H 3590.97 -4.11174 -4.11616 0
M  V30 37713 H 3589.85 -6.20023 -4.80147 0
M  V30 37714 N 3587.35 1.46186 -0.588837 0
M  V30 37715 C 3588.3 2.32092 0.153597 0
M  V30 37716 C 3589.29 1.44851 0.87832 0
M  V30 37717 O 3590.5 1.61442 0.796013 0
M  V30 37718 H 3586.87 0.748883 0.0683997 0
M  V30 37719 H 3588.84 2.92516 -0.589662 0
M  V30 37720 C 3587.59 3.28133 1.14997 0
M  V30 37721 H 3586.91 3.95246 0.601734 0
M  V30 37722 H 3588.35 3.9101 1.63973 0
M  V30 37723 C 3586.81 2.5393 2.21407 0
M  V30 37724 O 3587.34 2.30685 3.28858 0
M  V30 37725 N 3585.55 2.14387 1.9618 0
M  V30 37726 H 3585.1 2.33492 1.08808 0
M  V30 37727 H 3585.05 1.6506 2.67587 0
M  V30 37728 N 3588.83 0.32695 1.54171 0
M  V30 37729 C 3590.07 -0.275157 2.02539 0
M  V30 37730 C 3590.43 -1.4908 1.20992 0
M  V30 37731 O 3591.63 -2.16599 1.5918 0
M  V30 37732 C 3589.9 -0.597705 3.52367 0
M  V30 37733 S 3591.46 -1.17899 4.22665 0
M  V30 37734 H 3588.28 -0.0830161 0.706137 0
M  V30 37735 H 3590.88 0.460859 1.8999 0
M  V30 37736 H 3589.59 0.295124 4.09337 0
M  V30 37737 H 3589.12 -1.36383 3.69003 0
M  V30 37738 H 3591.13 -2.46563 4.30605 0
M  V30 37739 N 3590.3 -1.57503 0.0551955 0
M  V30 37740 C 3591.23 -2.14797 -0.915676 0
M  V30 37741 C 3592.22 -1.07067 -1.32177 0
M  V30 37742 O 3593.4 -1.35026 -1.39577 0
M  V30 37743 C 3590.53 -2.6962 -2.18911 0
M  V30 37744 C 3589.48 -3.82369 -1.92296 0
M  V30 37745 C 3588.81 -4.23726 -3.26129 0
M  V30 37746 C 3590.11 -5.07334 -1.24137 0
M  V30 37747 H 3591.8 -2.96172 -0.438447 0
M  V30 37748 H 3589.35 -1.42469 -0.209452 0
M  V30 37749 H 3591.3 -3.08342 -2.87233 0
M  V30 37750 H 3590.03 -1.85442 -2.68847 0
M  V30 37751 H 3588.69 -3.44126 -1.26385 0
M  V30 37752 H 3588.33 -3.36493 -3.73873 0
M  V30 37753 H 3588.03 -4.9972 -3.09117 0
M  V30 37754 H 3589.56 -4.65052 -3.95676 0
M  V30 37755 H 3590.97 -5.43476 -1.825 0
M  V30 37756 H 3589.37 -5.88496 -1.17439 0
M  V30 37757 H 3590.44 -4.8441 -0.217988 0
M  V30 37758 N 3591.78 0.218225 -1.56082 0
M  V30 37759 C 3592.73 1.29006 -1.93546 0
M  V30 37760 C 3593.72 1.48346 -0.817912 0
M  V30 37761 O 3594.93 1.49481 -1.00277 0
M  V30 37762 H 3591.31 0.432591 -0.615117 0
M  V30 37763 H 3593.28 0.946917 -2.82977 0
M  V30 37764 C 3592.03 2.63255 -2.27139 0
M  V30 37765 H 3591.35 2.49182 -3.12647 0
M  V30 37766 H 3592.79 3.37056 -2.57234 0
M  V30 37767 C 3591.25 3.18516 -1.0977 0
M  V30 37768 O 3591.78 4.00078 -0.360571 0
M  V30 37769 N 3589.98 2.76935 -0.880638 0
M  V30 37770 H 3589.53 2.10715 -1.48179 0
M  V30 37771 H 3589.49 3.1425 -0.0970787 0
M  V30 37772 N 3593.26 1.4995 0.485059 0
M  V30 37773 C 3594.5 1.61867 1.24813 0
M  V30 37774 C 3594.87 0.305775 1.8955 0
M  V30 37775 O 3596.07 0.300263 2.67118 0
M  V30 37776 C 3594.34 2.75676 2.27459 0
M  V30 37777 S 3595.9 3.07643 3.12892 0
M  V30 37778 H 3592.71 0.570775 0.423954 0
M  V30 37779 H 3595.32 1.87677 0.547519 0
M  V30 37780 H 3594.02 3.69569 1.78457 0
M  V30 37781 H 3593.55 2.51909 3.02168 0
M  V30 37782 H 3595.57 2.50391 4.28391 0
M  V30 37783 N 3594.74 -0.737255 1.39292 0
M  V30 37784 C 3596.02 -1.48845 1.26904 0
M  V30 37785 C 3596.4 -2.10745 -0.12238 0
M  V30 37786 O 3595.74 -1.9841 -1.1334 0
M  V30 37787 C 3595.95 -2.54168 2.39164 0
M  V30 37788 C 3597.3 -3.20614 2.78374 0
M  V30 37789 O 3598.33 -2.6448 2.38597 0
M  V30 37790 O 3597.19 -4.22183 3.47022 0
M  V30 37791 H 3594.28 -0.660858 0.497188 0
M  V30 37792 H 3596.83 -0.771272 1.5116 0
M  V30 37793 H 3595.6 -2.06792 3.32194 0
M  V30 37794 H 3595.22 -3.33448 2.16561 0
M  V30 37795 N 3596.22 -1.24431 -0.967199 0
M  V30 37796 C 3597.45 -1.11136 -1.74518 0
M  V30 37797 C 3597.86 0.336055 -1.85785 0
M  V30 37798 O 3597.22 1.23185 -1.34654 0
M  V30 37799 C 3597.27 -1.74596 -3.16541 0
M  V30 37800 O 3596.99 -3.13678 -3.05839 0
M  V30 37801 C 3598.49 -1.66917 -4.10674 0
M  V30 37802 H 3595.71 -0.388263 -0.54726 0
M  V30 37803 H 3598.25 -1.64547 -1.21427 0
M  V30 37804 H 3596.41 -1.25187 -3.66616 0
M  V30 37805 H 3596.82 -3.44683 -3.9534 0
M  V30 37806 H 3598.3 -2.16001 -5.07984 0
M  V30 37807 H 3598.77 -0.630488 -4.34651 0
M  V30 37808 H 3599.38 -2.15756 -3.6651 0
M  V30 37809 N 3597.7 1.16795 -1.05814 0
M  V30 37810 C 3598.94 1.87209 -0.771956 0
M  V30 37811 C 3599.27 1.81415 0.701333 0
M  V30 37812 O 3598.53 1.22125 1.52918 0
M  V30 37813 C 3598.82 3.36448 -1.20571 0
M  V30 37814 C 3598.49 3.62442 -2.68228 0
M  V30 37815 C 3597.15 3.69246 -3.08563 0
M  V30 37816 C 3599.5 3.73409 -3.63614 0
M  V30 37817 C 3596.83 3.84513 -4.43133 0
M  V30 37818 C 3599.18 3.90197 -4.97925 0
M  V30 37819 C 3597.85 3.95241 -5.37904 0
M  V30 37820 H 3597.12 0.685045 -0.282479 0
M  V30 37821 H 3599.77 1.3813 -1.32636 0
M  V30 37822 H 3598.07 3.87625 -0.570415 0
M  V30 37823 H 3599.77 3.89305 -0.961395 0
M  V30 37824 H 3596.36 3.57776 -2.35996 0
M  V30 37825 H 3600.54 3.67468 -3.33588 0
M  V30 37826 H 3595.8 3.86669 -4.736 0
M  V30 37827 H 3599.97 3.97625 -5.71723 0
M  V30 37828 H 3597.6 4.06823 -6.42183 0
M  V30 37829 N 3599.17 0.840037 1.33346 0
M  V30 37830 C 3600.41 0.442398 1.99555 0
M  V30 37831 C 3600.78 -0.980275 1.6509 0
M  V30 37832 O 3601.98 -1.4817 2.24274 0
M  V30 37833 C 3600.25 0.658001 3.51291 0
M  V30 37834 S 3601.81 0.355757 4.37355 0
M  V30 37835 H 3598.63 0.166356 0.691265 0
M  V30 37836 H 3601.23 1.08958 1.62322 0
M  V30 37837 H 3599.93 1.69278 3.73863 0
M  V30 37838 H 3599.46 -0.0032889 3.934 0
M  V30 37839 H 3601.48 -0.824005 4.8931 0
M  V30 37840 N 3600.65 -1.45872 0.596582 0
M  V30 37841 C 3601.88 -2.06688 0.0935289 0
M  V30 37842 C 3602.29 -1.44307 -1.21741 0
M  V30 37843 O 3601.65 -0.553284 -1.73911 0
M  V30 37844 C 3601.7 -3.61443 -0.0642702 0
M  V30 37845 O 3601.42 -4.21493 1.19479 0
M  V30 37846 C 3602.92 -4.3922 -0.600064 0
M  V30 37847 H 3600.14 -0.66796 0.0637963 0
M  V30 37848 H 3602.69 -1.87288 0.821192 0
M  V30 37849 H 3600.84 -3.80224 -0.742211 0
M  V30 37850 H 3601.26 -5.14537 1.01744 0
M  V30 37851 H 3602.73 -5.48045 -0.659604 0
M  V30 37852 H 3603.21 -4.0823 -1.62002 0
M  V30 37853 H 3603.81 -4.25278 0.0434662 0
M  V30 37854 N 3602.13 -0.335122 -1.53996 0
M  V30 37855 C 3603.38 0.26344 -2.00376 0
M  V30 37856 C 3603.7 1.5174 -1.22474 0
M  V30 37857 O 3602.97 1.93107 -0.329638 0
M  V30 37858 H 3601.55 0.100334 -0.740231 0
M  V30 37859 H 3604.21 -0.454335 -1.8953 0
M  V30 37860 H 3603.31 0.51178 -3.07875 0
M  V30 37861 N 3603.61 1.57472 -0.0635475 0
M  V30 37862 C 3604.83 1.97911 0.620171 0
M  V30 37863 C 3605.26 0.941364 1.62849 0
M  V30 37864 O 3604.62 -0.0939994 1.81056 0
M  V30 37865 C 3604.66 3.374 1.27255 0
M  V30 37866 O 3603.77 3.36202 2.38835 0
M  V30 37867 H 3603.11 0.644385 0.160199 0
M  V30 37868 H 3605.64 2.0415 -0.135618 0
M  V30 37869 H 3605.65 3.74402 1.62134 0
M  V30 37870 H 3604.32 4.12462 0.533651 0
M  V30 37871 H 3602.9 3.1096 2.05812 0
M  V30 37872 N 3605.09 -0.209945 1.56195 0
M  V30 37873 C 3606.31 -0.949196 1.83842 0
M  V30 37874 C 3606.73 -1.77471 0.644172 0
M  V30 37875 O 3606.09 -1.78344 -0.387245 0
M  V30 37876 C 3606.14 -1.85739 3.10134 0
M  V30 37877 O 3605.86 -1.06523 4.24952 0
M  V30 37878 C 3607.36 -2.70957 3.50852 0
M  V30 37879 H 3604.58 -0.277652 0.610861 0
M  V30 37880 H 3607.12 -0.221672 2.03295 0
M  V30 37881 H 3605.28 -2.53872 2.92622 0
M  V30 37882 H 3605.69 -1.68278 4.96772 0
M  V30 37883 H 3607.17 -3.30365 4.42225 0
M  V30 37884 H 3607.64 -3.43931 2.73145 0
M  V30 37885 H 3608.25 -2.08219 3.70843 0
M  V30 37886 N 3606.56 -1.50205 -0.4771 0
M  V30 37887 C 3607.81 -1.60893 -1.22962 0
M  V30 37888 C 3608.14 -0.306498 -1.9207 0
M  V30 37889 O 3607.39 0.70724 -1.82474 0
M  V30 37890 C 3607.69 -2.73457 -2.30122 0
M  V30 37891 C 3607.36 -4.14147 -1.78307 0
M  V30 37892 C 3606.02 -4.52428 -1.63896 0
M  V30 37893 C 3608.37 -5.02101 -1.39801 0
M  V30 37894 C 3605.7 -5.76411 -1.09394 0
M  V30 37895 C 3608.05 -6.26625 -0.867428 0
M  V30 37896 C 3606.72 -6.63714 -0.709905 0
M  V30 37897 H 3605.99 -0.588751 -0.449948 0
M  V30 37898 H 3608.63 -1.84118 -0.52656 0
M  V30 37899 H 3606.94 -2.44297 -3.06311 0
M  V30 37900 H 3608.64 -2.78932 -2.88094 0
M  V30 37901 H 3605.23 -3.83943 -1.90489 0
M  V30 37902 H 3609.41 -4.73162 -1.49771 0
M  V30 37903 H 3604.67 -6.03827 -0.959307 0
M  V30 37904 H 3608.84 -6.94142 -0.560374 0
M  V30 37905 H 3606.47 -7.59664 -0.285421 0
M  V30 37906 N 3608.04 0.729857 -1.39681 0
M  V30 37907 C 3609.29 1.485 -1.36494 0
M  V30 37908 C 3609.6 1.95569 0.0346228 0
M  V30 37909 O 3610.81 2.70841 0.189087 0
M  V30 37910 C 3609.27 2.68357 -2.39818 0
M  V30 37911 C 3608.87 2.28215 -3.85515 0
M  V30 37912 C 3610.62 3.46157 -2.45715 0
M  V30 37913 C 3608.53 3.44826 -4.80468 0
M  V30 37914 H 3607.46 0.55767 -0.507465 0
M  V30 37915 H 3610.11 0.795679 -1.65352 0
M  V30 37916 H 3608.49 3.39388 -2.04039 0
M  V30 37917 H 3609.66 1.64697 -4.30362 0
M  V30 37918 H 3607.98 1.63494 -3.8296 0
M  V30 37919 H 3610.57 4.32902 -3.13847 0
M  V30 37920 H 3610.92 3.8898 -1.48325 0
M  V30 37921 H 3611.45 2.82158 -2.80414 0
M  V30 37922 H 3608.19 3.07047 -5.79139 0
M  V30 37923 H 3607.71 4.07308 -4.40296 0
M  V30 37924 H 3609.39 4.1109 -4.99614 0
M  V30 37925 N 3609.52 1.24942 0.960587 0
M  V30 37926 C 3610.75 1.12156 1.74458 0
M  V30 37927 C 3611.17 -0.321282 1.85336 0
M  V30 37928 O 3610.53 -1.23268 1.32946 0
M  V30 37929 C 3610.58 1.77405 3.13942 0
M  V30 37930 O 3609.68 1.04965 3.98818 0
M  V30 37931 H 3609.02 0.391919 0.536 0
M  V30 37932 H 3611.55 1.6539 1.20447 0
M  V30 37933 H 3611.56 1.8345 3.64431 0
M  V30 37934 H 3610.24 2.82382 3.05341 0
M  V30 37935 H 3608.81 1.06758 3.57291 0
M  V30 37936 N 3611 -1.16233 1.06432 0
M  V30 37937 C 3612.28 -1.82825 0.695288 0
M  V30 37938 C 3612.66 -1.94388 -0.823207 0
M  V30 37939 O 3612 -1.48807 -1.73404 0
M  V30 37940 C 3612.21 -3.19739 1.39886 0
M  V30 37941 C 3613.56 -3.95495 1.54496 0
M  V30 37942 O 3614.59 -3.29261 1.35888 0
M  V30 37943 O 3613.44 -5.14222 1.85036 0
M  V30 37944 H 3610.54 -0.789472 0.246299 0
M  V30 37945 H 3613.08 -1.23423 1.16468 0
M  V30 37946 H 3611.86 -3.06366 2.43424 0
M  V30 37947 H 3611.48 -3.86818 0.919638 0
M  V30 37948 N 3612.48 -0.847097 -1.32899 0
M  V30 37949 C 3613.39 -0.288919 -2.32814 0
M  V30 37950 C 3614.4 0.589335 -1.63716 0
M  V30 37951 O 3615.58 0.491503 -1.95311 0
M  V30 37952 C 3612.64 0.519928 -3.42779 0
M  V30 37953 C 3611.7 -0.383571 -4.27583 0
M  V30 37954 C 3610.94 0.386768 -5.32297 0
M  V30 37955 O 3611.16 1.61758 -5.46983 0
M  V30 37956 O 3610.09 -0.243506 -6.01407 0
M  V30 37957 H 3613.92 -1.11651 -2.82432 0
M  V30 37958 H 3611.51 -0.609831 -1.36387 0
M  V30 37959 H 3613.39 0.979285 -4.09863 0
M  V30 37960 H 3612.06 1.32445 -2.95364 0
M  V30 37961 H 3610.97 -0.890943 -3.63336 0
M  V30 37962 H 3612.3 -1.15308 -4.78503 0
M  V30 37963 N 3613.95 1.45554 -0.604309 0
M  V30 37964 C 3615.2 2.02561 -0.0983672 0
M  V30 37965 C 3615.53 1.47214 1.26656 0
M  V30 37966 O 3614.81 0.645551 1.83475 0
M  V30 37967 C 3615.09 3.60057 -0.0558981 0
M  V30 37968 C 3614.94 4.25745 -1.45126 0
M  V30 37969 C 3616.26 4.35515 0.633631 0
M  V30 37970 H 3613.38 0.73606 -0.03722 0
M  V30 37971 H 3616.02 1.73446 -0.775653 0
M  V30 37972 H 3614.17 3.84992 0.520868 0
M  V30 37973 H 3615.85 4.12004 -2.07485 0
M  V30 37974 H 3614.09 3.84272 -2.0129 0
M  V30 37975 H 3614.76 5.34631 -1.37382 0
M  V30 37976 H 3617.24 4.15853 0.143428 0
M  V30 37977 H 3616.11 5.45244 0.632442 0
M  V30 37978 H 3616.37 4.08146 1.6991 0
M  V30 37979 N 3615.43 0.343284 1.53816 0
M  V30 37980 C 3616.4 -0.501122 2.23655 0
M  V30 37981 C 3617.4 -1.02779 1.23666 0
M  V30 37982 O 3618.59 -0.917077 1.48106 0
M  V30 37983 C 3615.72 -1.69806 2.95599 0
M  V30 37984 H 3616.91 0.109679 2.99699 0
M  V30 37985 H 3614.46 0.0946285 1.56013 0
M  V30 37986 H 3615.2 -2.34757 2.23741 0
M  V30 37987 H 3614.98 -1.32762 3.6894 0
M  V30 37988 H 3616.47 -2.29699 3.48752 0
M  V30 37989 N 3616.91 -1.57436 0.0718977 0
M  V30 37990 C 3618.33 -1.5704 -0.284732 0
M  V30 37991 C 3618.53 -1.0813 -1.7003 0
M  V30 37992 O 3617.58 -0.747232 -2.4119 0
M  V30 37993 C 3618.9 -3.00552 -0.0942954 0
M  V30 37994 C 3620.44 -3.12571 -0.163824 0
M  V30 37995 C 3620.92 -4.58 -0.00166607 0
M  V30 37996 N 3622.41 -4.63165 -0.0572675 0
M  V30 37997 C 3623.14 -5.73383 0.0437857 0
M  V30 37998 N 3622.64 -6.92516 0.198365 0
M  V30 37999 N 3624.43 -5.62098 -0.0132867 0
M  V30 38000 H 3616.58 -1.87544 0.997053 0
M  V30 38001 H 3618.85 -0.864586 0.388838 0
M  V30 38002 H 3618.55 -3.40448 0.882505 0
M  V30 38003 H 3618.43 -3.67577 -0.846571 0
M  V30 38004 H 3620.81 -2.72562 -1.13111 0
M  V30 38005 H 3620.9 -2.48184 0.619556 0
M  V30 38006 H 3620.54 -4.98699 0.962387 0
M  V30 38007 H 3620.47 -5.20419 -0.804451 0
M  V30 38008 H 3622.96 -3.77494 -0.175146 0
M  V30 38009 H 3623.27 -7.72336 0.267615 0
M  V30 38010 H 3621.62 -6.94607 0.233728 0
M  V30 38011 H 3624.81 -4.67912 -0.132753 0
M  V30 38012 H 3624.98 -6.47963 0.0689215 0
M  V30 38013 N 3618.39 0.201658 -1.56305 0
M  V30 38014 C 3619.67 0.948565 -1.7106 0
M  V30 38015 C 3620.05 2.01641 -0.624829 0
M  V30 38016 O 3619.39 2.25563 0.365195 0
M  V30 38017 C 3619.6 1.54095 -3.13138 0
M  V30 38018 C 3620.95 2.0256 -3.73168 0
M  V30 38019 O 3621.98 1.63951 -3.16226 0
M  V30 38020 O 3620.83 2.73585 -4.73089 0
M  V30 38021 H 3617.93 0.444399 -0.697451 0
M  V30 38022 H 3620.47 0.191872 -1.68612 0
M  V30 38023 H 3619.25 0.770901 -3.83631 0
M  V30 38024 H 3618.87 2.36266 -3.19788 0
M  V30 38025 N 3619.87 1.50456 0.469128 0
M  V30 38026 C 3620.8 1.72393 1.5749 0
M  V30 38027 C 3621.78 0.572943 1.6016 0
M  V30 38028 O 3622.96 0.81229 1.76396 0
M  V30 38029 C 3620.09 1.81987 2.95801 0
M  V30 38030 C 3619.05 2.97191 3.07996 0
M  V30 38031 C 3618.37 2.9193 4.47975 0
M  V30 38032 C 3619.67 4.3767 2.85031 0
M  V30 38033 H 3621.37 2.64976 1.39384 0
M  V30 38034 H 3618.91 1.2751 0.669111 0
M  V30 38035 H 3620.87 1.95918 3.73087 0
M  V30 38036 H 3619.59 0.860265 3.15067 0
M  V30 38037 H 3618.25 2.82913 2.33143 0
M  V30 38038 H 3617.9 1.93812 4.64162 0
M  V30 38039 H 3617.6 3.69271 4.5707 0
M  V30 38040 H 3619.12 3.07912 5.27279 0
M  V30 38041 H 3620.53 4.52462 3.52066 0
M  V30 38042 H 3618.93 5.16476 3.05569 0
M  V30 38043 H 3620 4.49903 1.80873 0
M  V30 38044 N 3621.34 -0.722439 1.40066 0
M  V30 38045 C 3622.57 -1.51667 1.41463 0
M  V30 38046 C 3622.99 -1.88095 0.0142984 0
M  V30 38047 O 3622.35 -1.52793 -0.975907 0
M  V30 38048 C 3622.4 -2.77283 2.30535 0
M  V30 38049 O 3621.5 -3.73714 1.74388 0
M  V30 38050 H 3620.85 -0.457538 0.481202 0
M  V30 38051 H 3623.38 -0.890298 1.84214 0
M  V30 38052 H 3623.39 -3.25885 2.45485 0
M  V30 38053 H 3622.06 -2.50103 3.32297 0
M  V30 38054 H 3620.64 -3.32533 1.68749 0
M  V30 38055 N 3622.82 -1.2545 -0.953947 0
M  V30 38056 C 3623.75 -1.08376 -2.06826 0
M  V30 38057 C 3624.73 0.00738595 -1.70098 0
M  V30 38058 O 3625.92 -0.162274 -1.93521 0
M  V30 38059 C 3623.05 -0.702424 -3.40122 0
M  V30 38060 C 3622 -1.74388 -3.90862 0
M  V30 38061 C 3621.33 -1.21721 -5.20661 0
M  V30 38062 C 3622.63 -3.1428 -4.17163 0
M  V30 38063 H 3624.32 -2.01585 -2.21368 0
M  V30 38064 H 3621.87 -0.970611 -1.06373 0
M  V30 38065 H 3623.82 -0.56991 -4.17528 0
M  V30 38066 H 3622.55 0.265371 -3.2552 0
M  V30 38067 H 3621.21 -1.86484 -3.15625 0
M  V30 38068 H 3620.85 -0.239628 -5.02429 0
M  V30 38069 H 3620.55 -1.91329 -5.55578 0
M  V30 38070 H 3622.08 -1.09711 -6.00663 0
M  V30 38071 H 3623.49 -3.05334 -4.85226 0
M  V30 38072 H 3621.89 -3.81364 -4.63337 0
M  V30 38073 H 3622.96 -3.6129 -3.23415 0
M  V30 38074 N 3624.3 1.15667 -1.07047 0
M  V30 38075 C 3625.23 2.19908 -0.645984 0
M  V30 38076 C 3626.25 1.60013 0.299922 0
M  V30 38077 O 3627.44 1.78274 0.0897223 0
M  V30 38078 C 3624.54 3.38823 0.0721322 0
M  V30 38079 C 3623.71 4.28267 -0.889179 0
M  V30 38080 C 3622.77 5.25785 -0.208921 0
M  V30 38081 O 3621.79 5.62833 -0.848993 0
M  V30 38082 N 3623 5.70987 1.04661 0
M  V30 38083 H 3625.76 2.56945 -1.5427 0
M  V30 38084 H 3623.32 1.30751 -0.954759 0
M  V30 38085 H 3625.31 4.01111 0.537812 0
M  V30 38086 H 3623.88 3.00228 0.870753 0
M  V30 38087 H 3623.1 3.63126 -1.53405 0
M  V30 38088 H 3624.39 4.84901 -1.54106 0
M  V30 38089 H 3623.79 5.42994 1.58663 0
M  V30 38090 H 3622.35 6.35329 1.45602 0
M  V30 38091 N 3625.78 0.854133 1.32447 0
M  V30 38092 C 3627.03 0.457258 1.9727 0
M  V30 38093 C 3627.35 -0.987001 1.67596 0
M  V30 38094 O 3626.61 -1.70742 0.956331 0
M  V30 38095 C 3626.91 0.642561 3.51576 0
M  V30 38096 C 3626.57 2.05721 4.01235 0
M  V30 38097 C 3625.24 2.44412 4.14507 0
M  V30 38098 C 3627.59 2.98053 4.27567 0
M  V30 38099 C 3624.92 3.74709 4.51454 0
M  V30 38100 C 3627.27 4.27847 4.65972 0
M  V30 38101 C 3625.93 4.66474 4.7745 0
M  V30 38102 H 3625.2 0.167322 0.721862 0
M  V30 38103 H 3627.85 1.08409 1.5786 0
M  V30 38104 H 3626.15 -0.0675018 3.91742 0
M  V30 38105 H 3627.85 0.315543 3.99757 0
M  V30 38106 H 3624.44 1.74676 3.9139 0
M  V30 38107 H 3628.63 2.69393 4.16823 0
M  V30 38108 H 3623.88 4.0442 4.58535 0
M  V30 38109 H 3628.06 4.99455 4.85301 0
M  V30 38110 H 3625.68 5.67481 5.05835 0
M  V30 38111 N 3627.26 -1.45231 0.61202 0
M  V30 38112 C 3628.2 -2.30565 -0.104224 0
M  V30 38113 C 3629.17 -1.42365 -0.855651 0
M  V30 38114 O 3630.36 -1.7129 -0.840504 0
M  V30 38115 C 3627.5 -3.27344 -1.09269 0
M  V30 38116 C 3626.61 -4.30647 -0.341671 0
M  V30 38117 C 3625.75 -5.14532 -1.32025 0
M  V30 38118 C 3624.79 -6.09558 -0.557298 0
M  V30 38119 N 3623.92 -6.86208 -1.48538 0
M  V30 38120 H 3628.76 -2.91276 0.629447 0
M  V30 38121 H 3626.3 -1.43528 0.322203 0
M  V30 38122 H 3628.26 -3.81925 -1.67895 0
M  V30 38123 H 3626.89 -2.68376 -1.79371 0
M  V30 38124 H 3625.94 -3.78691 0.360181 0
M  V30 38125 H 3627.25 -4.98156 0.253415 0
M  V30 38126 H 3626.41 -5.73535 -1.97844 0
M  V30 38127 H 3625.15 -4.47051 -1.94926 0
M  V30 38128 H 3624.15 -5.49681 0.114498 0
M  V30 38129 H 3625.38 -6.79067 0.066733 0
M  V30 38130 H 3623.32 -6.21413 -2.10196 0
M  V30 38131 H 3623.24 -7.50085 -0.94384 0
M  V30 38132 H 3624.51 -7.49749 -2.13301 0
M  V30 38133 N 3628.74 -0.351436 -1.53632 0
M  V30 38134 C 3630.15 0.000186461 -1.596 0
M  V30 38135 C 3630.35 1.48027 -1.36712 0
M  V30 38136 O 3629.41 2.24004 -1.16527 0
M  V30 38137 C 3630.72 -0.443066 -2.97418 0
M  V30 38138 C 3632.27 -0.39608 -3.10484 0
M  V30 38139 C 3632.74 -0.814922 -4.50692 0
M  V30 38140 N 3634.23 -0.76942 -4.56765 0
M  V30 38141 C 3634.97 -1.06536 -5.63416 0
M  V30 38142 N 3634.47 -1.42986 -6.77884 0
M  V30 38143 N 3636.26 -0.989084 -5.5333 0
M  V30 38144 H 3628.41 -1.31545 -1.66763 0
M  V30 38145 H 3630.67 -0.536754 -0.781409 0
M  V30 38146 H 3630.38 -1.47535 -3.19259 0
M  V30 38147 H 3630.25 0.177659 -3.76781 0
M  V30 38148 H 3632.64 0.627042 -2.88361 0
M  V30 38149 H 3632.72 -1.05211 -2.33161 0
M  V30 38150 H 3632.36 -1.83609 -4.73551 0
M  V30 38151 H 3632.29 -0.136286 -5.26424 0
M  V30 38152 H 3634.79 -0.500689 -3.74568 0
M  V30 38153 H 3635.1 -1.64032 -7.55191 0
M  V30 38154 H 3633.44 -1.46839 -6.79311 0
M  V30 38155 H 3636.63 -0.703607 -4.62782 0
M  V30 38156 H 3636.81 -1.22306 -6.36353 0
M  V30 38157 N 3630.21 1.57396 -0.0802459 0
M  V30 38158 C 3631.62 1.81167 0.451151 0
M  V30 38159 C 3631.98 0.994793 1.6911 0
M  V30 38160 O 3631.1 0.219777 2.15281 0
M  V30 38161 C 3631.7 3.28595 0.825266 0
M  V30 38162 C 3630.25 3.53183 1.30148 0
M  V30 38163 C 3629.4 2.75771 0.290797 0
M  V30 38164 H 3632.35 1.55725 -0.305856 0
M  V30 38165 H 3632.37 3.41107 1.68602 0
M  V30 38166 H 3631.89 3.88023 -0.0773801 0
M  V30 38167 H 3629.99 2.9907 2.22234 0
M  V30 38168 H 3630.1 4.61862 1.27357 0
M  V30 38169 H 3628.46 2.42787 0.769851 0
M  V30 38170 H 3629.25 3.3794 -0.604269 0
M  V30 38171 N 3631.69 -0.193366 1.56409 0
M  V30 38172 C 3632.94 -0.91168 1.7992 0
M  V30 38173 C 3633.25 -1.84351 0.653761 0
M  V30 38174 O 3634.46 -2.60257 0.773217 0
M  V30 38175 C 3632.92 -1.67153 3.18729 0
M  V30 38176 C 3632.52 -0.784434 4.41079 0
M  V30 38177 C 3634.27 -2.37937 3.51548 0
M  V30 38178 C 3632.17 -1.54325 5.7091 0
M  V30 38179 H 3631.1 -0.344165 0.67087 0
M  V30 38180 H 3633.76 -0.164935 1.82757 0
M  V30 38181 H 3632.14 -2.46222 3.10146 0
M  V30 38182 H 3633.31 -0.032275 4.60789 0
M  V30 38183 H 3631.63 -0.187334 4.15978 0
M  V30 38184 H 3634.22 -2.95263 4.45785 0
M  V30 38185 H 3634.57 -3.12209 2.75375 0
M  V30 38186 H 3635.1 -1.65833 3.61586 0
M  V30 38187 H 3631.84 -0.843279 6.50053 0
M  V30 38188 H 3631.36 -2.26929 5.55214 0
M  V30 38189 H 3633.04 -2.09658 6.12089 0
M  V30 38190 N 3633.17 -1.50702 -0.461142 0
M  V30 38191 C 3634.12 -1.70832 -1.57858 0
M  V30 38192 C 3635.11 -0.574258 -1.5937 0
M  V30 38193 O 3636.32 -0.755025 -1.63399 0
M  V30 38194 H 3632.69 -0.539372 -0.524005 0
M  V30 38195 H 3634.66 -2.64549 -1.38046 0
M  V30 38196 C 3633.41 -1.82878 -2.95721 0
M  V30 38197 H 3632.74 -2.69536 -2.95281 0
M  V30 38198 H 3634.18 -2.00984 -3.73338 0
M  V30 38199 C 3632.63 -0.58275 -3.31822 0
M  V30 38200 O 3633.16 0.273553 -4.00767 0
M  V30 38201 N 3631.37 -0.433832 -2.87343 0
M  V30 38202 H 3630.92 -1.1317 -2.31409 0
M  V30 38203 H 3630.88 0.398688 -3.11862 0
M  V30 38204 N 3634.65 0.715001 -1.40447 0
M  V30 38205 C 3636.06 1.29417 -1.34567 0
M  V30 38206 C 3636.41 1.9619 -0.0194329 0
M  V30 38207 O 3635.53 1.97584 0.882582 0
M  V30 38208 C 3636.13 2.35337 -2.43725 0
M  V30 38209 C 3634.69 2.88877 -2.41303 0
M  V30 38210 C 3633.84 1.62673 -2.24573 0
M  V30 38211 H 3636.79 0.51109 -1.50245 0
M  V30 38212 H 3636.81 3.16193 -2.11665 0
M  V30 38213 H 3636.32 1.86709 -3.40237 0
M  V30 38214 H 3634.42 3.41733 -1.48489 0
M  V30 38215 H 3634.53 3.40631 -3.36909 0
M  V30 38216 H 3632.9 1.8776 -1.72099 0
M  V30 38217 H 3633.68 1.16068 -3.23084 0
M  V30 38218 N 3636.13 1.25954 0.947281 0
M  V30 38219 C 3637.35 1.13898 1.72728 0
M  V30 38220 C 3637.77 -0.306455 1.86296 0
M  V30 38221 O 3637.13 -1.21028 1.36596 0
M  V30 38222 C 3637.18 1.7961 3.13724 0
M  V30 38223 O 3636.9 3.18504 3.0081 0
M  V30 38224 C 3638.4 1.7343 4.07967 0
M  V30 38225 H 3635.62 0.39692 0.541014 0
M  V30 38226 H 3638.16 1.66458 1.18794 0
M  V30 38227 H 3636.32 1.31003 3.64578 0
M  V30 38228 H 3636.73 3.50929 3.89807 0
M  V30 38229 H 3638.21 2.24056 5.04483 0
M  V30 38230 H 3638.68 0.699557 4.33593 0
M  V30 38231 H 3639.29 2.21559 3.63031 0
M  V30 38232 N 3637.6 -1.15097 1.07659 0
M  V30 38233 C 3638.88 -1.82078 0.71464 0
M  V30 38234 C 3639.26 -1.9525 -0.802544 0
M  V30 38235 O 3638.61 -1.50637 -1.71816 0
M  V30 38236 C 3638.82 -3.18237 1.43269 0
M  V30 38237 C 3640.17 -3.93834 1.58682 0
M  V30 38238 O 3641.19 -3.27801 1.39372 0
M  V30 38239 O 3640.05 -5.1223 1.90479 0
M  V30 38240 H 3637.14 -0.786815 0.254659 0
M  V30 38241 H 3639.69 -1.22181 1.1777 0
M  V30 38242 H 3638.46 -3.03767 2.4666 0
M  V30 38243 H 3638.09 -3.85821 0.960614 0
M  V30 38244 N 3639.08 -0.861145 -1.31993 0
M  V30 38245 C 3640.01 -0.267721 -2.27631 0
M  V30 38246 C 3641.03 0.564238 -1.5271 0
M  V30 38247 O 3642.22 0.387669 -1.74239 0
M  V30 38248 C 3639.32 0.639797 -3.32806 0
M  V30 38249 C 3638.49 -0.157753 -4.37115 0
M  V30 38250 C 3637.55 0.676532 -5.21833 0
M  V30 38251 O 3636.57 0.107722 -5.69098 0
M  V30 38252 N 3637.78 1.99012 -5.45321 0
M  V30 38253 H 3640.54 -1.08955 -2.79193 0
M  V30 38254 H 3638.1 -0.721759 -1.44922 0
M  V30 38255 H 3640.09 1.20342 -3.86394 0
M  V30 38256 H 3638.66 1.36231 -2.81354 0
M  V30 38257 H 3637.88 -0.902808 -3.83723 0
M  V30 38258 H 3639.17 -0.705329 -5.03887 0
M  V30 38259 H 3638.57 2.4755 -5.08661 0
M  V30 38260 H 3637.13 2.50172 -6.01878 0
M  V30 38261 N 3640.56 1.44905 -0.619713 0
M  V30 38262 C 3641.79 2.07025 -0.124635 0
M  V30 38263 C 3642.21 1.45921 1.18695 0
M  V30 38264 O 3641.57 0.556396 1.72551 0
M  V30 38265 C 3641.62 3.60598 -0.0112872 0
M  V30 38266 O 3640.72 3.99182 1.03575 0
M  V30 38267 H 3640.06 0.659215 -0.0795747 0
M  V30 38268 H 3642.59 1.85963 -0.85316 0
M  V30 38269 H 3642.6 4.07589 0.183008 0
M  V30 38270 H 3641.28 4.04456 -0.96892 0
M  V30 38271 H 3639.85 3.63841 0.816944 0
M  V30 38272 N 3642.04 0.359579 1.53443 0
M  V30 38273 C 3643.26 -0.23554 2.06058 0
M  V30 38274 C 3643.69 -1.42158 1.23177 0
M  V30 38275 O 3643.05 -1.79577 0.24937 0
M  V30 38276 C 3643.09 -0.612963 3.55352 0
M  V30 38277 O 3642.2 -1.71098 3.75232 0
M  V30 38278 H 3641.54 -0.035715 0.663039 0
M  V30 38279 H 3644.07 0.518443 1.97923 0
M  V30 38280 H 3644.08 -0.885652 3.98272 0
M  V30 38281 H 3642.75 0.254316 4.15122 0
M  V30 38282 H 3641.33 -1.43431 3.44212 0
M  V30 38283 N 3643.52 -1.57351 0.0885919 0
M  V30 38284 C 3644.75 -1.98164 -0.584354 0
M  V30 38285 C 3645.15 -0.96631 -1.62663 0
M  V30 38286 O 3644.5 0.0531938 -1.83623 0
M  V30 38287 C 3644.56 -3.35333 -1.29584 0
M  V30 38288 C 3644.22 -4.55201 -0.405088 0
M  V30 38289 C 3645.22 -5.1876 0.344144 0
M  V30 38290 C 3642.91 -5.01247 -0.325048 0
M  V30 38291 C 3644.9 -6.26729 1.16146 0
M  V30 38292 C 3642.59 -6.09084 0.495929 0
M  V30 38293 C 3643.58 -6.71689 1.23784 0
M  V30 38294 O 3643.27 -7.77448 2.04524 0
M  V30 38295 H 3643 -0.656341 -0.161841 0
M  V30 38296 H 3645.56 -2.04755 0.162594 0
M  V30 38297 H 3643.79 -3.25405 -2.08922 0
M  V30 38298 H 3645.48 -3.60637 -1.86268 0
M  V30 38299 H 3646.24 -4.8412 0.292001 0
M  V30 38300 H 3642.12 -4.52285 -0.892166 0
M  V30 38301 H 3645.67 -6.75525 1.74104 0
M  V30 38302 H 3641.56 -6.43156 0.549576 0
M  V30 38303 H 3642.33 -7.94405 1.97137 0
M  V30 38304 N 3644.99 0.185069 -1.5651 0
M  V30 38305 C 3646.24 0.902126 -1.80401 0
M  V30 38306 C 3646.56 1.84002 -0.663529 0
M  V30 38307 O 3647.76 2.59843 -0.787009 0
M  V30 38308 C 3646.22 1.6546 -3.19611 0
M  V30 38309 C 3645.83 0.761032 -4.41489 0
M  V30 38310 C 3647.57 2.3607 -3.52805 0
M  V30 38311 C 3645.48 1.51295 -5.7172 0
M  V30 38312 H 3644.41 0.340603 -0.672686 0
M  V30 38313 H 3647.06 0.15524 -1.82842 0
M  V30 38314 H 3645.44 2.44574 -3.11448 0
M  V30 38315 H 3646.61 0.00783778 -4.60799 0
M  V30 38316 H 3644.93 0.165271 -4.16072 0
M  V30 38317 H 3647.53 2.92895 -4.47344 0
M  V30 38318 H 3647.87 3.10744 -2.77026 0
M  V30 38319 H 3648.4 1.63913 -3.6246 0
M  V30 38320 H 3645.14 0.808793 -6.50491 0
M  V30 38321 H 3644.66 2.23982 -5.5641 0
M  V30 38322 H 3646.34 2.06409 -6.13192 0
M  V30 38323 N 3646.47 1.50945 0.453144 0
M  V30 38324 C 3647.72 1.6307 1.20565 0
M  V30 38325 C 3648.05 0.338408 1.91229 0
M  V30 38326 O 3647.33 -0.661174 1.82917 0
M  V30 38327 C 3647.61 2.82334 2.23517 0
M  V30 38328 C 3647.46 4.21496 1.5704 0
M  V30 38329 C 3648.78 2.97128 3.24658 0
M  V30 38330 H 3645.9 0.593493 0.436961 0
M  V30 38331 H 3648.54 1.83385 0.496976 0
M  V30 38332 H 3646.69 2.65144 2.83956 0
M  V30 38333 H 3648.36 4.50318 1.00059 0
M  V30 38334 H 3646.61 4.24923 0.873068 0
M  V30 38335 H 3647.28 5.00907 2.3194 0
M  V30 38336 H 3649.75 3.12924 2.74259 0
M  V30 38337 H 3648.63 3.82168 3.94003 0
M  V30 38338 H 3648.89 2.08513 3.89839 0
M  V30 38339 N 3647.95 -0.707543 1.40825 0
M  V30 38340 C 3649.23 -1.4612 1.30032 0
M  V30 38341 C 3649.61 -2.10957 -0.0776502 0
M  V30 38342 O 3648.96 -2.00769 -1.09106 0
M  V30 38343 C 3649.17 -2.49038 2.44502 0
M  V30 38344 C 3650.51 -3.14637 2.85112 0
M  V30 38345 O 3651.54 -2.5936 2.44154 0
M  V30 38346 O 3650.4 -4.14727 3.55899 0
M  V30 38347 H 3647.49 -0.650163 0.511094 0
M  V30 38348 H 3650.04 -0.739035 1.52762 0
M  V30 38349 H 3648.81 -1.99699 3.36506 0
M  V30 38350 H 3648.43 -3.28779 2.23585 0
M  V30 38351 N 3649.43 -1.26454 -0.940588 0
M  V30 38352 C 3650.65 -1.14917 -1.72652 0
M  V30 38353 C 3651.08 0.291756 -1.85824 0
M  V30 38354 O 3650.44 1.21138 -1.3489 0
M  V30 38355 C 3650.48 -1.82378 -3.1108 0
M  V30 38356 O 3649.59 -1.11297 -3.97098 0
M  V30 38357 H 3648.93 -0.400396 -0.529697 0
M  V30 38358 H 3651.46 -1.67285 -1.178 0
M  V30 38359 H 3651.47 -1.89225 -3.61466 0
M  V30 38360 H 3650.14 -2.87204 -3.0081 0
M  V30 38361 H 3648.72 -1.12429 -3.55548 0
M  V30 38362 N 3650.91 1.14525 -1.08268 0
M  V30 38363 C 3652.15 1.85804 -0.812694 0
M  V30 38364 C 3652.49 1.82646 0.659846 0
M  V30 38365 O 3651.76 1.25615 1.48496 0
M  V30 38366 C 3652.04 3.34503 -1.33341 0
M  V30 38367 C 3651.9 3.46241 -2.87119 0
M  V30 38368 C 3653.22 4.29558 -0.957511 0
M  V30 38369 H 3650.33 0.674642 -0.296693 0
M  V30 38370 H 3652.98 1.34495 -1.34205 0
M  V30 38371 H 3651.13 3.78329 -0.883123 0
M  V30 38372 H 3652.8 3.11211 -3.40508 0
M  V30 38373 H 3651.04 2.87498 -3.2485 0
M  V30 38374 H 3651.71 4.50757 -3.18626 0
M  V30 38375 H 3654.19 3.9374 -1.34567 0
M  V30 38376 H 3653.06 5.32063 -1.34907 0
M  V30 38377 H 3653.33 4.41892 0.135612 0
M  V30 38378 N 3652.39 0.868133 1.31534 0
M  V30 38379 C 3653.35 0.327495 2.26848 0
M  V30 38380 C 3654.35 -0.520488 1.52143 0
M  V30 38381 O 3655.54 -0.330058 1.71045 0
M  V30 38382 C 3652.67 -0.535114 3.36674 0
M  V30 38383 H 3653.86 1.16891 2.76182 0
M  V30 38384 H 3651.42 0.64357 1.42435 0
M  V30 38385 H 3652.15 -1.3978 2.9263 0
M  V30 38386 H 3651.94 0.0720524 3.92034 0
M  V30 38387 H 3653.43 -0.905714 4.0766 0
M  V30 38388 N 3653.86 -1.44574 0.627389 0
M  V30 38389 C 3655.11 -2.02379 0.13058 0
M  V30 38390 C 3655.44 -1.4921 -1.24298 0
M  V30 38391 O 3654.72 -0.674658 -1.82424 0
M  V30 38392 C 3655 -3.59922 0.113173 0
M  V30 38393 C 3654.85 -4.23382 1.51881 0
M  V30 38394 C 3656.17 -4.36468 -0.564264 0
M  V30 38395 H 3653.29 -0.735374 0.0489254 0
M  V30 38396 H 3655.93 -1.7219 0.803149 0
M  V30 38397 H 3654.08 -3.85772 -0.459553 0
M  V30 38398 H 3655.76 -4.08651 2.14014 0
M  V30 38399 H 3654 -3.81021 2.07378 0
M  V30 38400 H 3654.67 -5.32378 1.4587 0
M  V30 38401 H 3657.15 -4.16028 -0.0772513 0
M  V30 38402 H 3656.02 -5.46181 -0.545619 0
M  V30 38403 H 3656.28 -4.10797 -1.63395 0
M  V30 38404 N 3655.34 -0.367711 -1.5325 0
M  V30 38405 C 3656.29 0.477762 -2.25801 0
M  V30 38406 C 3657.26 1.07576 -1.26556 0
M  V30 38407 O 3658.44 1.10785 -1.55342 0
M  V30 38408 C 3655.58 1.61044 -3.05219 0
M  V30 38409 C 3654.7 1.03741 -4.19359 0
M  V30 38410 C 3653.83 2.13936 -4.86215 0
M  V30 38411 C 3652.87 1.54109 -5.92382 0
M  V30 38412 N 3652.01 2.58146 -6.5292 0
M  V30 38413 H 3656.85 -0.147419 -2.97635 0
M  V30 38414 H 3654.38 -0.0845208 -1.46857 0
M  V30 38415 H 3656.34 2.27766 -3.4954 0
M  V30 38416 H 3654.97 2.20625 -2.35636 0
M  V30 38417 H 3654.02 0.260409 -3.79508 0
M  V30 38418 H 3655.34 0.560018 -4.95646 0
M  V30 38419 H 3654.49 2.88474 -5.3373 0
M  V30 38420 H 3653.23 2.65028 -4.09404 0
M  V30 38421 H 3652.23 0.780872 -5.44226 0
M  V30 38422 H 3653.46 1.0384 -6.71114 0
M  V30 38423 H 3651.41 3.08447 -5.78961 0
M  V30 38424 H 3651.32 2.151 -7.24754 0
M  V30 38425 H 3652.59 3.3238 -7.05084 0
M  V30 38426 N 3656.82 1.57302 -0.0969353 0
M  V30 38427 C 3657.77 2.15358 0.878838 0
M  V30 38428 C 3658.76 1.09692 1.29089 0
M  V30 38429 O 3659.97 1.28034 1.2652 0
M  V30 38430 H 3656.34 0.688937 0.301446 0
M  V30 38431 H 3658.31 2.96166 0.36449 0
M  V30 38432 C 3657.06 2.7501 2.12756 0
M  V30 38433 H 3656.39 3.56004 1.81938 0
M  V30 38434 H 3657.83 3.19197 2.79086 0
M  V30 38435 C 3656.28 1.70995 2.9028 0
M  V30 38436 O 3656.81 1.14999 3.84887 0
M  V30 38437 N 3655.02 1.41444 2.53854 0
M  V30 38438 H 3654.57 1.87169 1.7699 0
M  V30 38439 H 3654.53 0.72087 3.06024 0
M  V30 38440 N 3658.3 -0.176766 1.56606 0
M  V30 38441 C 3659.55 -0.892503 1.81325 0
M  V30 38442 C 3659.87 -1.83017 0.673043 0
M  V30 38443 O 3659.14 -1.93472 -0.307464 0
M  V30 38444 H 3657.72 -0.332564 0.668887 0
M  V30 38445 H 3660.38 -0.177886 1.94087 0
M  V30 38446 H 3659.47 -1.47267 2.75171 0
M  V30 38447 N 3659.78 -1.51183 -0.445132 0
M  V30 38448 C 3660.74 -1.71352 -1.52221 0
M  V30 38449 C 3661.74 -0.583658 -1.49833 0
M  V30 38450 O 3662.93 -0.851096 -1.51993 0
M  V30 38451 C 3660.06 -1.76278 -2.91786 0
M  V30 38452 H 3661.25 -2.67471 -1.35644 0
M  V30 38453 H 3658.81 -1.41055 -0.673287 0
M  V30 38454 H 3659.54 -0.81946 -3.13776 0
M  V30 38455 H 3659.33 -2.58384 -2.94924 0
M  V30 38456 H 3660.82 -1.93748 -3.69935 0
M  V30 38457 N 3661.25 0.700065 -1.41198 0
M  V30 38458 C 3662.18 1.82658 -1.45459 0
M  V30 38459 C 3663.16 1.67181 -0.313748 0
M  V30 38460 O 3664.35 1.86981 -0.524561 0
M  V30 38461 C 3661.48 3.20755 -1.33167 0
M  V30 38462 C 3660.43 3.50929 -2.45016 0
M  V30 38463 C 3659.76 4.88335 -2.17791 0
M  V30 38464 C 3661.06 3.50358 -3.87358 0
M  V30 38465 H 3662.75 1.79349 -2.39738 0
M  V30 38466 H 3660.3 0.861445 -1.15391 0
M  V30 38467 H 3662.25 3.99271 -1.34761 0
M  V30 38468 H 3660.98 3.24679 -0.353703 0
M  V30 38469 H 3659.64 2.74761 -2.42697 0
M  V30 38470 H 3659.28 4.88879 -1.18348 0
M  V30 38471 H 3658.98 5.09489 -2.92737 0
M  V30 38472 H 3660.51 5.69166 -2.21093 0
M  V30 38473 H 3661.92 4.18886 -3.91417 0
M  V30 38474 H 3660.32 3.83043 -4.61951 0
M  V30 38475 H 3661.39 2.49423 -4.15832 0
M  V30 38476 N 3662.73 1.26951 0.933869 0
M  V30 38477 C 3663.68 1.05805 2.01964 0
M  V30 38478 C 3664.67 -0.0119585 1.60896 0
M  V30 38479 O 3665.86 0.205858 1.75799 0
M  V30 38480 C 3662.99 0.700754 3.36072 0
M  V30 38481 C 3662.07 1.80859 3.83603 0
M  V30 38482 N 3662.46 3.04719 4.03707 0
M  V30 38483 C 3660.76 1.69386 4.12583 0
M  V30 38484 C 3661.46 3.7677 4.43192 0
M  V30 38485 N 3660.44 3.04498 4.50313 0
M  V30 38486 H 3664.24 1.9981 2.1553 0
M  V30 38487 H 3661.75 1.17576 1.12025 0
M  V30 38488 H 3663.75 0.530388 4.13512 0
M  V30 38489 H 3662.41 -0.231744 3.23872 0
M  V30 38490 H 3663.42 3.40547 3.9019 0
M  V30 38491 H 3660.1 0.831767 4.09131 0
M  V30 38492 H 3661.49 4.83192 4.66878 0
M  V30 38493 N 3664.21 -1.13949 1.08873 0
M  V30 38494 C 3665.14 -2.21304 0.744754 0
M  V30 38495 C 3666.12 -1.67862 -0.274989 0
M  V30 38496 O 3667.31 -1.93663 -0.144305 0
M  V30 38497 C 3664.44 -3.46939 0.158397 0
M  V30 38498 C 3663.39 -4.13436 1.10702 0
M  V30 38499 C 3662.72 -5.33329 0.382646 0
M  V30 38500 C 3664.02 -4.61425 2.44712 0
M  V30 38501 H 3665.71 -2.50334 1.64235 0
M  V30 38502 H 3663.26 -1.20322 0.79111 0
M  V30 38503 H 3665.21 -4.21295 -0.0942846 0
M  V30 38504 H 3663.93 -3.17287 -0.774357 0
M  V30 38505 H 3662.59 -3.4104 1.34488 0
M  V30 38506 H 3662.24 -4.99939 -0.554065 0
M  V30 38507 H 3661.94 -5.78766 1.0151 0
M  V30 38508 H 3663.46 -6.10444 0.13813 0
M  V30 38509 H 3664.88 -5.27232 2.25166 0
M  V30 38510 H 3663.27 -5.17581 3.03694 0
M  V30 38511 H 3664.34 -3.76244 3.0589 0
M  V30 38512 N 3665.69 -0.875096 -1.31072 0
M  V30 38513 C 3666.92 -0.502485 -2.00396 0
M  V30 38514 C 3667.33 0.910922 -1.65828 0
M  V30 38515 O 3666.67 1.60905 -0.886304 0
M  V30 38516 C 3666.73 -0.585807 -3.54695 0
M  V30 38517 C 3666.39 -1.96175 -4.12752 0
M  V30 38518 C 3667.39 -2.92991 -4.29479 0
M  V30 38519 C 3665.08 -2.26445 -4.48361 0
M  V30 38520 C 3667.07 -4.18218 -4.81012 0
M  V30 38521 C 3664.76 -3.5192 -4.99595 0
M  V30 38522 C 3665.76 -4.47622 -5.15872 0
M  V30 38523 O 3665.44 -5.70872 -5.66004 0
M  V30 38524 H 3665.18 -0.193744 -0.647641 0
M  V30 38525 H 3667.73 -1.1795 -1.68158 0
M  V30 38526 H 3665.96 0.148146 -3.86416 0
M  V30 38527 H 3667.65 -0.22589 -4.05271 0
M  V30 38528 H 3668.41 -2.70914 -4.02282 0
M  V30 38529 H 3664.29 -1.52729 -4.34965 0
M  V30 38530 H 3667.84 -4.92923 -4.93632 0
M  V30 38531 H 3663.73 -3.73839 -5.26227 0
M  V30 38532 H 3664.5 -5.73115 -5.84364 0
M  V30 38533 N 3667.17 1.44239 -0.635047 0
M  V30 38534 C 3668.41 2.02008 -0.141102 0
M  V30 38535 C 3668.74 1.49975 1.23846 0
M  V30 38536 O 3668 0.675705 1.83665 0
M  V30 38537 C 3668.3 3.57308 -0.0812538 0
M  V30 38538 C 3667.96 4.28611 -1.40012 0
M  V30 38539 C 3666.62 4.47807 -1.76132 0
M  V30 38540 C 3668.98 4.69146 -2.2705 0
M  V30 38541 C 3666.3 5.04798 -2.98991 0
M  V30 38542 C 3668.66 5.27498 -3.49182 0
M  V30 38543 C 3667.32 5.44912 -3.85521 0
M  V30 38544 H 3666.59 0.739199 -0.051633 0
M  V30 38545 H 3669.24 1.72954 -0.822142 0
M  V30 38546 H 3667.54 3.85798 0.683172 0
M  V30 38547 H 3669.24 3.99741 0.317513 0
M  V30 38548 H 3665.83 4.14003 -1.10904 0
M  V30 38549 H 3670.01 4.54025 -2.00438 0
M  V30 38550 H 3665.27 5.16468 -3.27217 0
M  V30 38551 H 3669.44 5.57856 -4.16856 0
M  V30 38552 H 3667.07 5.8884 -4.80803 0
M  V30 38553 N 3668.64 0.375833 1.53053 0
M  V30 38554 C 3669.92 -0.267536 1.93762 0
M  V30 38555 C 3670.3 -1.65519 1.31022 0
M  V30 38556 O 3669.65 -2.23547 0.473178 0
M  V30 38557 C 3669.86 -0.307443 3.47643 0
M  V30 38558 C 3671.21 -0.542877 4.21115 0
M  V30 38559 O 3672.23 -0.388223 3.54078 0
M  V30 38560 O 3671.09 -0.844805 5.39931 0
M  V30 38561 H 3668.18 -0.162846 0.810808 0
M  V30 38562 H 3670.73 0.429362 1.64178 0
M  V30 38563 H 3669.5 0.665068 3.85607 0
M  V30 38564 H 3669.13 -1.04982 3.8349 0
M  V30 38565 N 3670.12 -1.57248 0.105276 0
M  V30 38566 C 3671.07 -2.14579 -0.849974 0
M  V30 38567 C 3672.04 -1.06705 -1.27292 0
M  V30 38568 O 3673.22 -1.34544 -1.35287 0
M  V30 38569 C 3670.36 -2.73859 -2.09988 0
M  V30 38570 C 3669.48 -3.95998 -1.72655 0
M  V30 38571 C 3668.61 -4.4341 -2.92509 0
M  V30 38572 C 3667.65 -5.58113 -2.5135 0
M  V30 38573 N 3666.79 -6.0033 -3.64072 0
M  V30 38574 H 3671.63 -2.95887 -0.35423 0
M  V30 38575 H 3669.17 -1.46192 -0.163166 0
M  V30 38576 H 3671.12 -3.06353 -2.83203 0
M  V30 38577 H 3669.75 -1.95263 -2.57045 0
M  V30 38578 H 3668.81 -3.69753 -0.893689 0
M  V30 38579 H 3670.12 -4.79216 -1.38398 0
M  V30 38580 H 3669.27 -4.7774 -3.73964 0
M  V30 38581 H 3668.01 -3.59113 -3.29983 0
M  V30 38582 H 3667.02 -5.234 -1.68324 0
M  V30 38583 H 3668.24 -6.44165 -2.15008 0
M  V30 38584 H 3666.19 -5.18978 -4.01246 0
M  V30 38585 H 3666.1 -6.78369 -3.33693 0
M  V30 38586 H 3667.37 -6.39295 -4.46007 0
M  V30 38587 N 3671.6 0.168458 -1.56697 0
M  V30 38588 C 3672.56 1.19232 -1.95746 0
M  V30 38589 C 3673.56 1.37027 -0.841443 0
M  V30 38590 O 3674.75 1.34384 -1.10845 0
M  V30 38591 C 3671.89 2.55682 -2.25476 0
M  V30 38592 H 3673.08 0.857842 -2.87369 0
M  V30 38593 H 3670.63 0.411015 -1.50799 0
M  V30 38594 H 3671.37 2.94139 -1.36576 0
M  V30 38595 H 3671.15 2.44132 -3.06826 0
M  V30 38596 H 3672.64 3.29465 -2.56599 0
M  V30 38597 N 3673.08 1.51417 0.437109 0
M  V30 38598 C 3674.33 1.63773 1.18418 0
M  V30 38599 C 3674.65 0.356315 1.91717 0
M  V30 38600 O 3673.92 -0.627831 1.85567 0
M  V30 38601 H 3672.5 0.60358 0.440114 0
M  V30 38602 H 3675.16 1.88348 0.501122 0
M  V30 38603 H 3674.26 2.46549 1.91363 0
M  V30 38604 N 3674.56 -0.692567 1.41567 0
M  V30 38605 C 3675.49 -1.81792 1.39586 0
M  V30 38606 C 3676.5 -1.60057 0.297568 0
M  V30 38607 O 3677.69 -1.69505 0.559492 0
M  V30 38608 C 3674.79 -3.18607 1.15512 0
M  V30 38609 C 3673.96 -3.67344 2.37438 0
M  V30 38610 C 3673.02 -4.82837 2.09176 0
M  V30 38611 O 3672.05 -4.94298 2.82238 0
M  V30 38612 N 3673.25 -5.70292 1.08387 0
M  V30 38613 H 3676.02 -1.83983 2.3658 0
M  V30 38614 H 3673.58 -0.875002 1.36218 0
M  V30 38615 H 3675.57 -3.935 0.945521 0
M  V30 38616 H 3674.14 -3.11423 0.271042 0
M  V30 38617 H 3673.36 -2.83325 2.74081 0
M  V30 38618 H 3674.65 -3.96646 3.18668 0
M  V30 38619 H 3674.04 -5.63667 0.479221 0
M  V30 38620 H 3672.6 -6.45071 0.934156 0
M  V30 38621 N 3676.03 -1.27445 -0.927123 0
M  V30 38622 C 3676.98 -1.1022 -2.02781 0
M  V30 38623 C 3677.95 -0.00310762 -1.661 0
M  V30 38624 O 3679.14 -0.165541 -1.90081 0
M  V30 38625 C 3676.28 -0.756043 -3.36716 0
M  V30 38626 C 3675.39 -1.93283 -3.86349 0
M  V30 38627 C 3674.52 -1.5285 -5.08734 0
M  V30 38628 C 3673.56 -2.67273 -5.50665 0
M  V30 38629 N 3672.7 -2.27425 -6.64246 0
M  V30 38630 H 3677.54 -2.04405 -2.16847 0
M  V30 38631 H 3675.08 -1.01752 -1.0623 0
M  V30 38632 H 3677.04 -0.536163 -4.1374 0
M  V30 38633 H 3675.67 0.148852 -3.22457 0
M  V30 38634 H 3674.72 -2.26523 -3.056 0
M  V30 38635 H 3676.03 -2.79115 -4.13396 0
M  V30 38636 H 3675.18 -1.26989 -5.93261 0
M  V30 38637 H 3673.92 -0.641272 -4.83466 0
M  V30 38638 H 3672.93 -2.93847 -4.64687 0
M  V30 38639 H 3674.15 -3.56618 -5.77928 0
M  V30 38640 H 3672.1 -1.41155 -6.40634 0
M  V30 38641 H 3672.02 -3.06797 -6.9095 0
M  V30 38642 H 3673.28 -2.04813 -7.52112 0
M  V30 38643 N 3677.51 1.1337 -1.09476 0
M  V30 38644 C 3678.74 1.885 -0.852955 0
M  V30 38645 C 3679.16 1.79152 0.595824 0
M  V30 38646 O 3678.51 1.15847 1.41016 0
M  V30 38647 C 3678.56 3.38081 -1.27999 0
M  V30 38648 O 3678.28 3.47187 -2.67195 0
M  V30 38649 C 3679.79 4.30177 -1.07064 0
M  V30 38650 H 3677.01 0.596738 -0.306831 0
M  V30 38651 H 3679.55 1.43511 -1.45688 0
M  V30 38652 H 3677.7 3.80651 -0.719946 0
M  V30 38653 H 3678.12 4.40177 -2.85209 0
M  V30 38654 H 3679.59 5.33458 -1.4187 0
M  V30 38655 H 3680.07 4.39199 -0.00846452 0
M  V30 38656 H 3680.68 3.93376 -1.61666 0
M  V30 38657 N 3678.99 0.882035 1.30606 0
M  V30 38658 C 3680.22 0.513105 2.00127 0
M  V30 38659 C 3680.63 -0.902115 1.66309 0
M  V30 38660 O 3679.97 -1.60432 0.894825 0
M  V30 38661 C 3680.03 0.604609 3.54379 0
M  V30 38662 C 3679.7 1.98361 4.11706 0
M  V30 38663 C 3680.69 2.95265 4.27919 0
M  V30 38664 C 3678.38 2.2882 4.47154 0
M  V30 38665 C 3680.37 4.20763 4.78787 0
M  V30 38666 C 3678.06 3.54565 4.97722 0
M  V30 38667 C 3679.06 4.50351 5.13491 0
M  V30 38668 O 3678.75 5.73866 5.62968 0
M  V30 38669 H 3678.48 0.197176 0.646605 0
M  V30 38670 H 3681.03 1.1884 1.6753 0
M  V30 38671 H 3679.26 -0.127651 3.86489 0
M  V30 38672 H 3680.95 0.247379 4.05145 0
M  V30 38673 H 3681.72 2.73044 4.00839 0
M  V30 38674 H 3677.6 1.55034 4.34149 0
M  V30 38675 H 3681.14 4.95534 4.91011 0
M  V30 38676 H 3677.04 3.76624 5.24237 0
M  V30 38677 H 3677.81 5.76206 5.81316 0
M  V30 38678 N 3680.47 -1.439 0.642688 0
M  V30 38679 C 3681.38 -2.34533 -0.056205 0
M  V30 38680 C 3682.39 -1.53283 -0.82343 0
M  V30 38681 O 3683.57 -1.85972 -0.77307 0
M  V30 38682 C 3680.64 -3.31423 -1.01781 0
M  V30 38683 C 3679.7 -4.28579 -0.248683 0
M  V30 38684 C 3678.93 -5.20841 -1.16448 0
M  V30 38685 O 3679.15 -5.17288 -2.40352 0
M  V30 38686 O 3678.09 -5.9846 -0.642566 0
M  V30 38687 H 3681.91 -2.95769 0.689528 0
M  V30 38688 H 3679.5 -1.43866 0.402872 0
M  V30 38689 H 3681.38 -3.91032 -1.57073 0
M  V30 38690 H 3680.05 -2.72705 -1.74395 0
M  V30 38691 H 3678.96 -3.72482 0.34756 0
M  V30 38692 H 3680.29 -4.9025 0.437676 0
M  V30 38693 N 3681.95 -0.383945 -1.52852 0
M  V30 38694 C 3683.36 -0.0336671 -1.59564 0
M  V30 38695 C 3683.56 1.45094 -1.39821 0
M  V30 38696 O 3682.62 2.21481 -1.21253 0
M  V30 38697 C 3683.93 -0.506053 -2.96411 0
M  V30 38698 C 3685.48 -0.461849 -3.09574 0
M  V30 38699 C 3685.96 -0.910338 -4.48862 0
M  V30 38700 N 3687.45 -0.866133 -4.5503 0
M  V30 38701 C 3688.18 -1.18463 -5.61029 0
M  V30 38702 N 3687.68 -1.57333 -6.74699 0
M  V30 38703 N 3689.47 -1.10623 -5.51107 0
M  V30 38704 H 3681.62 -1.35052 -1.63935 0
M  V30 38705 H 3683.88 -0.553208 -0.769848 0
M  V30 38706 H 3683.59 -1.54273 -3.16058 0
M  V30 38707 H 3683.46 0.0976981 -3.77073 0
M  V30 38708 H 3685.85 0.565735 -2.89626 0
M  V30 38709 H 3685.93 -1.10133 -2.30877 0
M  V30 38710 H 3685.58 -1.93613 -4.69549 0
M  V30 38711 H 3685.51 -0.247917 -5.26016 0
M  V30 38712 H 3688 -0.580028 -3.73422 0
M  V30 38713 H 3688.31 -1.80013 -7.51542 0
M  V30 38714 H 3686.66 -1.61215 -6.76043 0
M  V30 38715 H 3689.85 -0.801612 -4.61185 0
M  V30 38716 H 3690.02 -1.35777 -6.33616 0
M  V30 38717 N 3683.43 1.5719 -0.113614 0
M  V30 38718 C 3684.38 2.11579 0.849609 0
M  V30 38719 C 3685.36 1.03525 1.23172 0
M  V30 38720 O 3686.55 1.29768 1.20371 0
M  V30 38721 C 3683.68 2.71447 2.1017 0
M  V30 38722 C 3682.77 3.86573 1.7442 0
M  V30 38723 N 3683.16 4.93845 1.09318 0
M  V30 38724 C 3681.46 3.96656 2.03912 0
M  V30 38725 C 3682.16 5.74284 0.925878 0
M  V30 38726 N 3681.13 5.23928 1.44915 0
M  V30 38727 H 3684.93 2.91896 0.342634 0
M  V30 38728 H 3682.45 1.62156 0.0890276 0
M  V30 38729 H 3684.45 3.08752 2.80139 0
M  V30 38730 H 3683.11 1.92591 2.61417 0
M  V30 38731 H 3684.12 5.12326 0.757792 0
M  V30 38732 H 3680.79 3.28834 2.57243 0
M  V30 38733 H 3682.18 6.70615 0.415288 0
M  V30 38734 N 3684.9 -0.160146 1.56784 0
M  V30 38735 C 3686.31 -0.721522 1.72195 0
M  V30 38736 C 3686.67 -1.82276 0.725933 0
M  V30 38737 O 3685.79 -2.16119 -0.110305 0
M  V30 38738 C 3686.39 -1.31558 3.12215 0
M  V30 38739 C 3684.94 -1.82366 3.29272 0
M  V30 38740 C 3684.09 -0.706963 2.68137 0
M  V30 38741 H 3687.04 0.06538 1.58565 0
M  V30 38742 H 3687.06 -2.18534 3.11485 0
M  V30 38743 H 3686.58 -0.513849 3.84683 0
M  V30 38744 H 3684.68 -2.65147 2.61778 0
M  V30 38745 H 3684.79 -1.96141 4.3711 0
M  V30 38746 H 3683.15 -1.13026 2.28248 0
M  V30 38747 H 3683.94 0.083101 3.43199 0
M  V30 38748 N 3686.38 -1.51647 -0.429072 0
M  V30 38749 C 3687.31 -1.76508 -1.52863 0
M  V30 38750 C 3688.29 -0.615205 -1.58585 0
M  V30 38751 O 3689.48 -0.858772 -1.7418 0
M  V30 38752 C 3686.61 -1.89765 -2.90872 0
M  V30 38753 C 3685.56 -3.05252 -3.00008 0
M  V30 38754 C 3684.89 -3.03704 -4.40077 0
M  V30 38755 C 3686.19 -4.45073 -2.73327 0
M  V30 38756 H 3687.88 -2.68579 -1.3231 0
M  V30 38757 H 3685.43 -1.2924 -0.635069 0
M  V30 38758 H 3687.38 -2.05741 -3.67762 0
M  V30 38759 H 3686.1 -0.943497 -3.12675 0
M  V30 38760 H 3684.76 -2.88995 -2.2556 0
M  V30 38761 H 3684.41 -2.0605 -4.5886 0
M  V30 38762 H 3684.11 -3.8126 -4.47118 0
M  V30 38763 H 3685.64 -3.21784 -5.18929 0
M  V30 38764 H 3687.05 -4.61638 -3.39946 0
M  V30 38765 H 3685.45 -5.24396 -2.91768 0
M  V30 38766 H 3686.52 -4.54541 -1.68881 0
M  V30 38767 N 3687.86 0.685049 -1.41932 0
M  V30 38768 C 3689.08 1.47863 -1.45435 0
M  V30 38769 C 3689.51 1.87991 -0.0641633 0
M  V30 38770 O 3688.87 1.55327 0.935054 0
M  V30 38771 C 3688.92 2.71073 -2.37806 0
M  V30 38772 O 3688.02 3.68959 -1.84235 0
M  V30 38773 H 3687.36 0.444619 -0.493164 0
M  V30 38774 H 3689.89 0.841144 -1.8651 0
M  V30 38775 H 3689.9 3.19262 -2.54039 0
M  V30 38776 H 3688.58 2.41205 -3.38811 0
M  V30 38777 H 3687.15 3.27942 -1.77506 0
M  V30 38778 N 3689.34 1.27935 0.920351 0
M  V30 38779 C 3690.29 1.07941 2.0083 0
M  V30 38780 C 3691.27 0.00510728 1.60899 0
M  V30 38781 O 3692.46 0.224492 1.75571 0
M  V30 38782 C 3689.59 0.736359 3.3531 0
M  V30 38783 C 3688.68 1.84917 3.81663 0
M  V30 38784 N 3689.07 3.08984 4.00453 0
M  V30 38785 C 3687.37 1.73752 4.10763 0
M  V30 38786 C 3688.07 3.81449 4.39171 0
M  V30 38787 N 3687.04 3.09257 4.47058 0
M  V30 38788 H 3690.85 2.02085 2.13399 0
M  V30 38789 H 3688.36 1.18757 1.10772 0
M  V30 38790 H 3690.36 0.574217 4.12927 0
M  V30 38791 H 3689.02 -0.19738 3.241 0
M  V30 38792 H 3690.03 3.44667 3.86556 0
M  V30 38793 H 3686.71 0.875114 4.08225 0
M  V30 38794 H 3688.1 4.88117 4.61727 0
M  V30 38795 N 3690.82 -1.12788 1.10076 0
M  V30 38796 C 3692.06 -1.84215 0.840905 0
M  V30 38797 C 3692.39 -1.83893 -0.633519 0
M  V30 38798 O 3691.65 -1.27716 -1.4828 0
M  V30 38799 C 3691.94 -3.31741 1.32975 0
M  V30 38800 C 3691.61 -3.52237 2.81495 0
M  V30 38801 C 3690.27 -3.57539 3.22054 0
M  V30 38802 C 3692.62 -3.59657 3.77222 0
M  V30 38803 C 3689.95 -3.67801 4.57099 0
M  V30 38804 C 3692.3 -3.71448 5.12064 0
M  V30 38805 C 3690.97 -3.75005 5.52203 0
M  V30 38806 H 3690.24 -0.674089 0.307709 0
M  V30 38807 H 3692.89 -1.33113 1.37671 0
M  V30 38808 H 3691.19 -3.85241 0.713887 0
M  V30 38809 H 3692.89 -3.85468 1.10522 0
M  V30 38810 H 3689.48 -3.48771 2.49112 0
M  V30 38811 H 3693.66 -3.54834 3.46996 0
M  V30 38812 H 3688.92 -3.68825 4.87625 0
M  V30 38813 H 3693.09 -3.76131 5.86087 0
M  V30 38814 H 3690.72 -3.82709 6.56839 0
M  V30 38815 N 3692.29 -0.888949 -1.30136 0
M  V30 38816 C 3693.54 -0.510154 -1.96279 0
M  V30 38817 C 3693.87 0.939066 -1.69986 0
M  V30 38818 O 3693.15 1.66415 -1.0068 0
M  V30 38819 C 3693.43 -0.790366 -3.51319 0
M  V30 38820 C 3693.28 -2.2905 -3.87112 0
M  V30 38821 C 3694.6 -0.269555 -4.39274 0
M  V30 38822 H 3691.72 -0.186822 -0.712928 0
M  V30 38823 H 3694.36 -1.11367 -1.5394 0
M  V30 38824 H 3692.51 -0.276715 -3.87513 0
M  V30 38825 H 3694.19 -2.87287 -3.60921 0
M  V30 38826 H 3692.43 -2.75556 -3.35039 0
M  V30 38827 H 3693.1 -2.43716 -4.95284 0
M  V30 38828 H 3695.58 -0.709245 -4.10011 0
M  V30 38829 H 3694.45 -0.494912 -5.46664 0
M  V30 38830 H 3694.71 0.829358 -4.34251 0
M  V30 38831 N 3693.77 1.43557 -0.65031 0
M  V30 38832 C 3694.72 2.32535 0.0550206 0
M  V30 38833 C 3695.71 1.48446 0.816094 0
M  V30 38834 O 3696.92 1.64673 0.726824 0
M  V30 38835 H 3693.29 0.75111 0.0365755 0
M  V30 38836 H 3695.27 2.89752 -0.713197 0
M  V30 38837 C 3694.01 3.32715 1.00976 0
M  V30 38838 H 3693.34 3.97442 0.433556 0
M  V30 38839 H 3694.78 3.97613 1.47242 0
M  V30 38840 C 3693.24 2.63092 2.10438 0
M  V30 38841 O 3693.77 2.44425 3.18778 0
M  V30 38842 N 3691.97 2.22514 1.86911 0
M  V30 38843 H 3691.52 2.37897 0.988071 0
M  V30 38844 H 3691.48 1.7626 2.60345 0
M  V30 38845 N 3695.25 0.392045 1.52646 0
M  V30 38846 C 3696.18 -0.433188 2.29447 0
M  V30 38847 C 3697.16 -1.06109 1.32947 0
M  V30 38848 O 3698.35 -1.07334 1.61842 0
M  V30 38849 C 3695.48 -1.55924 3.10331 0
M  V30 38850 C 3694.43 -1.05723 4.14737 0
M  V30 38851 C 3693.76 -2.27557 4.83862 0
M  V30 38852 C 3695.06 -0.123254 5.22155 0
M  V30 38853 H 3696.75 0.207615 2.98679 0
M  V30 38854 H 3694.3 0.101292 1.43643 0
M  V30 38855 H 3696.25 -2.14339 3.62818 0
M  V30 38856 H 3694.97 -2.22767 2.38836 0
M  V30 38857 H 3693.63 -0.495589 3.63235 0
M  V30 38858 H 3693.28 -2.92916 4.08913 0
M  V30 38859 H 3692.98 -1.94627 5.54431 0
M  V30 38860 H 3694.5 -2.8661 5.39154 0
M  V30 38861 H 3695.92 -0.615684 5.69984 0
M  V30 38862 H 3694.31 0.116409 5.99987 0
M  V30 38863 H 3695.38 0.827053 4.77795 0
M  V30 38864 N 3696.73 -1.57127 0.121948 0
M  V30 38865 C 3698.01 -1.86832 -0.579054 0
M  V30 38866 C 3698.39 -1.02363 -1.84621 0
M  V30 38867 O 3697.73 -0.103366 -2.28266 0
M  V30 38868 C 3697.94 -3.38017 -0.86866 0
M  V30 38869 C 3699.29 -4.06682 -1.22043 0
M  V30 38870 O 3700.32 -3.43052 -0.958828 0
M  V30 38871 O 3699.17 -5.19007 -1.71155 0
M  V30 38872 H 3696.27 -0.773536 -0.292526 0
M  V30 38873 H 3698.81 -1.68975 0.156674 0
M  V30 38874 H 3697.59 -3.91289 0.0291744 0
M  V30 38875 H 3697.21 -3.61315 -1.65944 0
M  V30 38876 N 3698.21 0.151829 -1.56867 0
M  V30 38877 C 3699.15 1.20681 -1.98844 0
M  V30 38878 C 3700.15 1.44744 -0.880095 0
M  V30 38879 O 3701.35 1.45093 -1.06527 0
M  V30 38880 H 3697.73 0.406112 -0.632911 0
M  V30 38881 H 3699.7 0.826044 -2.86739 0
M  V30 38882 C 3698.45 2.53385 -2.381 0
M  V30 38883 H 3697.77 2.35698 -3.22934 0
M  V30 38884 H 3699.21 3.25842 -2.71298 0
M  V30 38885 C 3697.67 3.13573 -1.2318 0
M  V30 38886 O 3698.2 3.98189 -0.529934 0
M  V30 38887 N 3696.41 2.72951 -0.997303 0
M  V30 38888 H 3695.95 2.04241 -1.56982 0
M  V30 38889 H 3695.91 3.13556 -0.230276 0
M  V30 38890 N 3699.68 1.51872 0.421024 0
M  V30 38891 C 3700.61 1.77316 1.51925 0
M  V30 38892 C 3701.6 0.623607 1.58257 0
M  V30 38893 O 3702.78 0.867998 1.73722 0
M  V30 38894 C 3699.91 1.91305 2.89861 0
M  V30 38895 C 3698.86 3.06839 2.98385 0
M  V30 38896 C 3698.19 3.06034 4.3846 0
M  V30 38897 C 3699.49 4.46516 2.70962 0
M  V30 38898 H 3701.18 2.69276 1.30884 0
M  V30 38899 H 3698.73 1.29575 0.628206 0
M  V30 38900 H 3700.68 2.07688 3.66666 0
M  V30 38901 H 3699.41 0.960066 3.1217 0
M  V30 38902 H 3698.07 2.90188 2.24024 0
M  V30 38903 H 3697.71 2.0848 4.57761 0
M  V30 38904 H 3697.41 3.83625 4.4509 0
M  V30 38905 H 3698.94 3.24531 5.17216 0
M  V30 38906 H 3700.35 4.63434 3.37493 0
M  V30 38907 H 3698.75 5.25936 2.88983 0
M  V30 38908 H 3699.82 4.5543 1.66468 0
M  V30 38909 N 3701.16 -0.677513 1.42294 0
M  V30 38910 C 3702.58 -0.990312 1.2516 0
M  V30 38911 C 3702.78 -2.00912 0.153839 0
M  V30 38912 O 3701.83 -2.47976 -0.475824 0
M  V30 38913 C 3703.15 -1.49771 2.60748 0
M  V30 38914 C 3704.7 -1.61562 2.6808 0
M  V30 38915 C 3705.17 -2.15698 4.04028 0
M  V30 38916 N 3706.66 -2.23035 4.05968 0
M  V30 38917 C 3707.4 -2.65991 5.07973 0
M  V30 38918 N 3706.89 -3.08421 6.20362 0
M  V30 38919 N 3708.69 -2.65716 4.9533 0
M  V30 38920 H 3700.84 -0.00292089 2.124 0
M  V30 38921 H 3703.1 -0.0638234 0.945849 0
M  V30 38922 H 3702.81 -0.823612 3.4192 0
M  V30 38923 H 3702.68 -2.4769 2.84481 0
M  V30 38924 H 3705.07 -2.28078 1.87255 0
M  V30 38925 H 3705.15 -0.62139 2.48138 0
M  V30 38926 H 3704.79 -1.49792 4.85309 0
M  V30 38927 H 3704.72 -3.15907 4.2132 0
M  V30 38928 H 3707.21 -1.93116 3.2483 0
M  V30 38929 H 3707.53 -3.39877 6.94049 0
M  V30 38930 H 3705.87 -3.06285 6.23871 0
M  V30 38931 H 3709.06 -2.31929 4.06604 0
M  V30 38932 H 3709.23 -2.98874 5.7496 0
M  V30 38933 N 3702.64 -1.28421 -0.913554 0
M  V30 38934 C 3703.6 -1.12385 -1.99755 0
M  V30 38935 C 3704.6 -0.0634633 -1.60675 0
M  V30 38936 O 3705.79 -0.30926 -1.71433 0
M  V30 38937 C 3702.93 -0.715565 -3.33305 0
M  V30 38938 H 3704.12 -2.08658 -2.1541 0
M  V30 38939 H 3701.67 -1.1141 -1.09624 0
M  V30 38940 H 3702.41 0.24792 -3.23351 0
M  V30 38941 H 3702.19 -1.48157 -3.63032 0
M  V30 38942 H 3703.68 -0.626025 -4.12881 0
M  V30 38943 N 3704.12 1.12202 -1.10672 0
M  V30 38944 C 3705.07 2.20085 -0.752698 0
M  V30 38945 C 3706.06 1.67511 0.252254 0
M  V30 38946 O 3707.27 1.79649 0.112366 0
M  V30 38947 H 3703.64 0.717398 -0.225486 0
M  V30 38948 H 3705.61 2.47197 -1.67141 0
M  V30 38949 C 3704.36 3.47105 -0.203406 0
M  V30 38950 H 3703.68 3.87906 -0.967932 0
M  V30 38951 H 3705.12 4.24 0.0062167 0
M  V30 38952 C 3703.58 3.19642 1.06446 0
M  V30 38953 O 3704.11 3.39601 2.14556 0
M  V30 38954 N 3702.32 2.73431 0.984074 0
M  V30 38955 H 3701.87 2.57389 0.104212 0
M  V30 38956 H 3701.82 2.55432 1.83308 0
M  V30 38957 N 3705.6 0.895838 1.29663 0
M  V30 38958 C 3706.54 0.360444 2.2979 0
M  V30 38959 C 3707.54 -0.538356 1.60618 0
M  V30 38960 O 3708.74 -0.421585 1.74993 0
M  V30 38961 H 3705.12 0.0979249 0.745597 0
M  V30 38962 H 3707.09 1.21836 2.72394 0
M  V30 38963 C 3705.84 -0.40039 3.45387 0
M  V30 38964 H 3705.16 0.281985 3.98804 0
M  V30 38965 H 3706.6 -0.73993 4.17494 0
M  V30 38966 C 3705.06 -1.6016 2.96396 0
M  V30 38967 O 3705.59 -2.70092 2.97343 0
M  V30 38968 N 3703.8 -1.44245 2.52273 0
M  V30 38969 H 3703.34 -0.548098 2.51702 0
M  V30 38970 H 3703.3 -2.24749 2.19853 0
M  V30 38971 N 3707.07 -1.43211 0.657914 0
M  V30 38972 C 3708.3 -2.06106 0.181108 0
M  V30 38973 C 3708.72 -1.49341 -1.15511 0
M  V30 38974 O 3708.07 -0.626548 -1.71408 0
M  V30 38975 C 3708.13 -3.6139 0.0890879 0
M  V30 38976 O 3707.85 -4.16046 1.37249 0
M  V30 38977 C 3709.35 -4.4137 -0.413235 0
M  V30 38978 H 3706.57 -0.664653 0.0920694 0
M  V30 38979 H 3709.11 -1.83636 0.899888 0
M  V30 38980 H 3707.27 -3.83029 -0.580278 0
M  V30 38981 H 3707.68 -5.09759 1.23476 0
M  V30 38982 H 3709.15 -5.50349 -0.426566 0
M  V30 38983 H 3709.63 -4.14734 -1.44542 0
M  V30 38984 H 3710.24 -4.24711 0.223802 0
M  V30 38985 N 3708.55 -0.400135 -1.52436 0
M  V30 38986 C 3709.5 0.429759 -2.26764 0
M  V30 38987 C 3710.47 1.04868 -1.2881 0
M  V30 38988 O 3711.65 1.07465 -1.57657 0
M  V30 38989 C 3708.79 1.54534 -3.08567 0
M  V30 38990 C 3707.91 0.94822 -4.21465 0
M  V30 38991 C 3707.04 2.03575 -4.90643 0
M  V30 38992 C 3706.08 1.41509 -5.95518 0
M  V30 38993 N 3705.22 2.44239 -6.58249 0
M  V30 38994 H 3710.06 -0.210519 -2.97255 0
M  V30 38995 H 3707.6 -0.115652 -1.46645 0
M  V30 38996 H 3709.55 2.20301 -3.54293 0
M  V30 38997 H 3708.18 2.15577 -2.40263 0
M  V30 38998 H 3707.24 0.179852 -3.79975 0
M  V30 38999 H 3708.55 0.454758 -4.96723 0
M  V30 39000 H 3707.7 2.77088 -5.39729 0
M  V30 39001 H 3706.44 2.56284 -4.14933 0
M  V30 39002 H 3705.45 0.665258 -5.4576 0
M  V30 39003 H 3706.67 0.895812 -6.73166 0
M  V30 39004 H 3704.62 2.96097 -5.85374 0
M  V30 39005 H 3704.53 1.99679 -7.29153 0
M  V30 39006 H 3705.8 3.17349 -7.11976 0
M  V30 39007 N 3710.03 1.57061 -0.13028 0
M  V30 39008 C 3711.28 1.9519 0.523935 0
M  V30 39009 C 3711.6 1.01517 1.66491 0
M  V30 39010 O 3710.87 0.0735538 1.95762 0
M  V30 39011 H 3709.45 0.720681 0.196541 0
M  V30 39012 H 3712.11 1.93852 -0.201864 0
M  V30 39013 H 3711.21 2.98505 0.911104 0
M  V30 39014 N 3711.51 -0.143508 1.56945 0
M  V30 39015 C 3712.73 -0.874352 1.88069 0
M  V30 39016 C 3713.16 -1.73788 0.719676 0
M  V30 39017 O 3712.52 -1.7826 -0.330622 0
M  V30 39018 C 3712.57 -1.70402 3.17798 0
M  V30 39019 O 3711.67 -2.80862 3.01978 0
M  V30 39020 H 3711.01 -0.243319 0.617812 0
M  V30 39021 H 3713.54 -0.133273 2.04165 0
M  V30 39022 H 3713.55 -2.09832 3.49906 0
M  V30 39023 H 3712.23 -1.06994 4.01902 0
M  V30 39024 H 3710.8 -2.44813 2.81284 0
M  V30 39025 N 3712.99 -1.52093 -0.412964 0
M  V30 39026 C 3713.92 -1.78119 -1.50983 0
M  V30 39027 C 3714.9 -0.631991 -1.57924 0
M  V30 39028 O 3716.08 -0.877198 -1.7326 0
M  V30 39029 C 3713.21 -1.9284 -2.88843 0
M  V30 39030 C 3712.17 -3.08417 -2.96754 0
M  V30 39031 C 3711.49 -3.08355 -4.36831 0
M  V30 39032 C 3712.79 -4.47947 -2.68591 0
M  V30 39033 H 3714.49 -2.69967 -1.29454 0
M  V30 39034 H 3712.03 -1.29906 -0.621325 0
M  V30 39035 H 3713.99 -2.0963 -3.65559 0
M  V30 39036 H 3712.71 -0.976607 -3.11657 0
M  V30 39037 H 3711.37 -2.91371 -2.22482 0
M  V30 39038 H 3711.02 -2.10905 -4.56649 0
M  V30 39039 H 3710.72 -3.8598 -4.4305 0
M  V30 39040 H 3712.24 -3.27269 -5.15487 0
M  V30 39041 H 3713.66 -4.65217 -3.35031 0
M  V30 39042 H 3712.05 -5.27461 -2.8619 0
M  V30 39043 H 3713.12 -4.56306 -1.6405 0
M  V30 39044 N 3714.47 0.669957 -1.42651 0
M  V30 39045 C 3715.88 1.2507 -1.38616 0
M  V30 39046 C 3716.23 1.96029 -0.0818395 0
M  V30 39047 O 3715.35 2.00292 0.819275 0
M  V30 39048 C 3715.95 2.27464 -2.51089 0
M  V30 39049 C 3714.51 2.81054 -2.50371 0
M  V30 39050 C 3713.65 1.55446 -2.29634 0
M  V30 39051 H 3716.6 0.463032 -1.51795 0
M  V30 39052 H 3716.63 3.09299 -2.21618 0
M  V30 39053 H 3716.14 1.7579 -3.46005 0
M  V30 39054 H 3714.24 3.36836 -1.59286 0
M  V30 39055 H 3714.35 3.2974 -3.47575 0
M  V30 39056 H 3712.72 1.8219 -1.77985 0
M  V30 39057 H 3713.5 1.0573 -3.26613 0
M  V30 39058 N 3715.94 1.28904 0.90673 0
M  V30 39059 C 3717.19 1.15842 1.65117 0
M  V30 39060 C 3717.51 -0.290791 1.93426 0
M  V30 39061 O 3718.71 -0.542631 2.66022 0
M  V30 39062 C 3717.17 2.02555 2.97489 0
M  V30 39063 C 3716.78 3.52258 2.768 0
M  V30 39064 C 3718.52 1.98199 3.7539 0
M  V30 39065 C 3716.43 4.31099 4.04856 0
M  V30 39066 H 3715.36 0.42995 0.619402 0
M  V30 39067 H 3718.01 1.53489 1.00565 0
M  V30 39068 H 3716.39 1.5777 3.63214 0
M  V30 39069 H 3717.56 4.05048 2.19711 0
M  V30 39070 H 3715.88 3.58213 2.12303 0
M  V30 39071 H 3718.48 2.54367 4.70321 0
M  V30 39072 H 3718.82 0.960338 4.05072 0
M  V30 39073 H 3719.35 2.4099 3.16494 0
M  V30 39074 H 3716.09 5.33872 3.80343 0
M  V30 39075 H 3715.61 3.8308 4.6153 0
M  V30 39076 H 3717.29 4.4139 4.73058 0
M  V30 39077 N 3717.42 -1.11614 1.11266 0
M  V30 39078 C 3718.37 -2.19682 0.764359 0
M  V30 39079 C 3719.36 -1.67643 -0.243367 0
M  V30 39080 O 3720.57 -1.79706 -0.102837 0
M  V30 39081 H 3716.94 -0.716192 0.229287 0
M  V30 39082 H 3718.92 -2.46308 1.68449 0
M  V30 39083 C 3717.66 -3.46992 0.221811 0
M  V30 39084 H 3716.99 -3.87387 0.98849 0
M  V30 39085 H 3718.43 -4.23997 0.0162691 0
M  V30 39086 C 3716.89 -3.20202 -1.0475 0
M  V30 39087 O 3717.42 -3.40734 -2.12752 0
M  V30 39088 N 3715.62 -2.73949 -0.96956 0
M  V30 39089 H 3715.17 -2.57441 -0.0905611 0
M  V30 39090 H 3715.13 -2.56401 -1.81951 0
M  V30 39091 N 3718.9 -0.902701 -1.29186 0
M  V30 39092 C 3720.15 -0.530943 -1.95726 0
M  V30 39093 C 3720.48 0.920984 -1.70972 0
M  V30 39094 O 3719.75 1.65337 -1.02439 0
M  V30 39095 C 3720.04 -0.827584 -3.50461 0
M  V30 39096 C 3719.89 -2.33143 -3.84661 0
M  V30 39097 C 3721.21 -0.31613 -4.38963 0
M  V30 39098 H 3718.33 -0.194374 -0.710906 0
M  V30 39099 H 3720.97 -1.12993 -1.5275 0
M  V30 39100 H 3719.12 -0.3178 -3.87198 0
M  V30 39101 H 3720.79 -2.91099 -3.57854 0
M  V30 39102 H 3719.03 -2.79094 -3.32098 0
M  V30 39103 H 3719.71 -2.48956 -4.92671 0
M  V30 39104 H 3722.18 -0.752692 -4.09236 0
M  V30 39105 H 3721.06 -0.552865 -5.46109 0
M  V30 39106 H 3721.32 0.783253 -4.35106 0
M  V30 39107 N 3720.38 1.4286 -0.6655 0
M  V30 39108 C 3721.63 2.00885 -0.181184 0
M  V30 39109 C 3721.94 1.53188 1.21626 0
M  V30 39110 O 3723.15 2.03568 1.79645 0
M  V30 39111 C 3721.6 3.58862 -0.27308 0
M  V30 39112 C 3721.21 4.1555 -1.67399 0
M  V30 39113 C 3722.95 4.24224 0.153 0
M  V30 39114 C 3720.86 5.65861 -1.71915 0
M  V30 39115 H 3719.79 0.751281 -0.0639751 0
M  V30 39116 H 3722.44 1.6369 -0.829328 0
M  V30 39117 H 3720.82 3.93517 0.442791 0
M  V30 39118 H 3722 3.92373 -2.4162 0
M  V30 39119 H 3720.31 3.62605 -2.04711 0
M  V30 39120 H 3722.91 5.34519 0.139275 0
M  V30 39121 H 3723.25 3.9903 1.18663 0
M  V30 39122 H 3723.79 3.94497 -0.511542 0
M  V30 39123 H 3720.52 5.95841 -2.73229 0
M  V30 39124 H 3720.04 5.91057 -1.02037 0
M  V30 39125 H 3721.72 6.30117 -1.4684 0
M  V30 39126 N 3721.86 0.408213 1.52221 0
M  V30 39127 C 3723.1 -0.168119 2.02102 0
M  V30 39128 C 3723.43 -1.44868 1.29333 0
M  V30 39129 O 3722.71 -1.90356 0.39937 0
M  V30 39130 C 3722.99 -0.416758 3.5768 0
M  V30 39131 C 3722.85 0.880412 4.411 0
M  V30 39132 C 3724.16 -1.19929 4.23444 0
M  V30 39133 H 3721.28 -0.0596273 0.734584 0
M  V30 39134 H 3723.93 0.541499 1.8212 0
M  V30 39135 H 3722.08 -1.02124 3.74837 0
M  V30 39136 H 3723.75 1.51664 4.35656 0
M  V30 39137 H 3721.99 1.49159 4.0735 0
M  V30 39138 H 3722.66 0.660845 5.4803 0
M  V30 39139 H 3725.14 -0.687533 4.10381 0
M  V30 39140 H 3724.01 -1.34201 5.32242 0
M  V30 39141 H 3724.27 -2.21966 3.82339 0
M  V30 39142 N 3723.33 -1.56989 0.138607 0
M  V30 39143 C 3724.58 -1.95852 -0.514593 0
M  V30 39144 C 3724.91 -1.02302 -1.65423 0
M  V30 39145 O 3724.16 -0.0505998 -1.95635 0
M  V30 39146 C 3724.46 -3.41019 -1.06963 0
M  V30 39147 C 3724.13 -4.50873 -0.0493168 0
M  V30 39148 C 3722.79 -4.80644 0.231187 0
M  V30 39149 C 3725.14 -5.17194 0.644956 0
M  V30 39150 C 3722.47 -5.74047 1.21191 0
M  V30 39151 C 3724.82 -6.11652 1.61444 0
M  V30 39152 C 3723.49 -6.39806 1.90273 0
M  V30 39153 H 3722.76 -0.716675 -0.188303 0
M  V30 39154 H 3725.4 -1.90189 0.223663 0
M  V30 39155 H 3723.71 -3.43472 -1.88505 0
M  V30 39156 H 3725.41 -3.68412 -1.58347 0
M  V30 39157 H 3722 -4.27697 -0.278127 0
M  V30 39158 H 3726.18 -4.94333 0.441432 0
M  V30 39159 H 3721.44 -5.94157 1.4418 0
M  V30 39160 H 3725.61 -6.62121 2.15797 0
M  V30 39161 H 3723.24 -7.11986 2.6642 0
M  V30 39162 N 3724.81 0.135183 -1.57019 0
M  V30 39163 C 3726.09 0.875159 -1.7493 0
M  V30 39164 C 3726.47 1.98809 -0.70979 0
M  V30 39165 O 3725.82 2.26909 0.269198 0
M  V30 39166 C 3726.03 1.40675 -3.19392 0
M  V30 39167 C 3727.37 1.8655 -3.81424 0
M  V30 39168 O 3728.4 1.50391 -3.22895 0
M  V30 39169 O 3727.26 2.53274 -4.84267 0
M  V30 39170 H 3724.35 0.414418 -0.715672 0
M  V30 39171 H 3726.9 0.120185 -1.69274 0
M  V30 39172 H 3725.67 0.607496 -3.86556 0
M  V30 39173 H 3725.29 2.2249 -3.29521 0
M  V30 39174 N 3726.29 1.5231 0.404892 0
M  V30 39175 C 3727.54 1.66248 1.14918 0
M  V30 39176 C 3727.86 0.396901 1.90918 0
M  V30 39177 O 3727.13 -0.588328 1.86857 0
M  V30 39178 H 3725.71 0.612779 0.427212 0
M  V30 39179 H 3728.37 1.89368 0.461058 0
M  V30 39180 H 3727.47 2.50553 1.8609 0
M  V30 39181 N 3727.77 -0.662382 1.43004 0
M  V30 39182 C 3728.72 -1.77558 1.47451 0
M  V30 39183 C 3729.69 -1.62886 0.32515 0
M  V30 39184 O 3730.87 -1.83262 0.531004 0
M  V30 39185 C 3728.01 -3.15663 1.39465 0
M  V30 39186 C 3727.12 -3.41534 2.64535 0
M  V30 39187 C 3726.26 -4.69436 2.48602 0
M  V30 39188 C 3725.3 -4.88382 3.68985 0
M  V30 39189 N 3724.43 -6.07534 3.51918 0
M  V30 39190 H 3729.27 -1.73092 2.42576 0
M  V30 39191 H 3726.81 -0.844819 1.20421 0
M  V30 39192 H 3728.77 -3.95489 1.32831 0
M  V30 39193 H 3727.4 -3.19222 0.479283 0
M  V30 39194 H 3726.45 -2.55872 2.81485 0
M  V30 39195 H 3727.76 -3.51422 3.53983 0
M  V30 39196 H 3726.92 -5.57373 2.39624 0
M  V30 39197 H 3725.66 -4.61853 1.56664 0
M  V30 39198 H 3724.66 -3.98883 3.78381 0
M  V30 39199 H 3725.89 -4.97802 4.6192 0
M  V30 39200 H 3723.83 -6.011 2.62707 0
M  V30 39201 H 3723.75 -6.1834 4.34962 0
M  V30 39202 H 3725.02 -6.98117 3.46775 0
M  V30 39203 N 3729.25 -1.29383 -0.899882 0
M  V30 39204 C 3730.47 -1.20352 -1.68909 0
M  V30 39205 C 3730.9 0.23249 -1.86658 0
M  V30 39206 O 3730.25 1.16785 -1.38676 0
M  V30 39207 C 3730.3 -1.92182 -3.0512 0
M  V30 39208 O 3729.41 -1.23874 -3.93356 0
M  V30 39209 H 3728.75 -0.417045 -0.516691 0
M  V30 39210 H 3731.28 -1.70948 -1.12419 0
M  V30 39211 H 3731.29 -2.00629 -3.55263 0
M  V30 39212 H 3729.96 -2.96629 -2.9152 0
M  V30 39213 H 3728.54 -1.23684 -3.51791 0
M  V30 39214 N 3730.72 1.11022 -1.11856 0
M  V30 39215 C 3731.67 2.17189 -0.780863 0
M  V30 39216 C 3732.64 1.64213 0.249629 0
M  V30 39217 O 3733.83 1.90386 0.125569 0
M  V30 39218 C 3730.97 3.44299 -0.23497 0
M  V30 39219 C 3730.08 4.11258 -1.32254 0
M  V30 39220 C 3729.21 5.26066 -0.736731 0
M  V30 39221 C 3728.25 5.84917 -1.80385 0
M  V30 39222 N 3727.39 6.91113 -1.23721 0
M  V30 39223 H 3732.23 2.4542 -1.69035 0
M  V30 39224 H 3729.77 1.20474 -0.844062 0
M  V30 39225 H 3731.73 4.17081 0.0995331 0
M  V30 39226 H 3730.36 3.16438 0.637697 0
M  V30 39227 H 3729.41 3.36505 -1.77393 0
M  V30 39228 H 3730.72 4.51048 -2.12973 0
M  V30 39229 H 3729.87 6.05675 -0.352539 0
M  V30 39230 H 3728.61 4.87594 0.101725 0
M  V30 39231 H 3727.62 5.03983 -2.1973 0
M  V30 39232 H 3728.84 6.25455 -2.64542 0
M  V30 39233 H 3726.79 6.54651 -0.420472 0
M  V30 39234 H 3726.71 7.29582 -1.98106 0
M  V30 39235 H 3727.97 7.74516 -0.880049 0
M  V30 39236 N 3732.2 0.90954 1.28706 0
M  V30 39237 C 3733.44 0.547556 1.96929 0
M  V30 39238 C 3733.81 -0.891387 1.70054 0
M  V30 39239 O 3735.01 -1.36074 2.31813 0
M  V30 39240 C 3733.28 0.843287 3.47309 0
M  V30 39241 S 3734.84 0.587089 4.34855 0
M  V30 39242 H 3731.66 0.202765 0.681475 0
M  V30 39243 H 3734.26 1.17409 1.56318 0
M  V30 39244 H 3732.96 1.88857 3.64364 0
M  V30 39245 H 3732.49 0.205248 3.92864 0
M  V30 39246 H 3734.51 -0.563474 4.9299 0
M  V30 39247 N 3733.68 -1.42505 0.673067 0
M  V30 39248 C 3734.96 -1.95209 0.12364 0
M  V30 39249 C 3735.34 -1.61357 -1.36115 0
M  V30 39250 O 3734.69 -0.90883 -2.09649 0
M  V30 39251 C 3734.9 -3.46803 0.390941 0
M  V30 39252 C 3736.24 -4.23492 0.306519 0
M  V30 39253 O 3737.27 -3.54718 0.324592 0
M  V30 39254 O 3736.13 -5.45941 0.247223 0
M  V30 39255 H 3733.22 -0.826998 0.00186322 0
M  V30 39256 H 3735.77 -1.52341 0.747677 0
M  V30 39257 H 3734.54 -3.64642 1.41957 0
M  V30 39258 H 3734.16 -3.96715 -0.265189 0
M  V30 39259 N 3735.16 -0.41628 -1.52003 0
M  V30 39260 C 3736.07 0.412363 -2.30947 0
M  V30 39261 C 3737.08 1.04705 -1.38971 0
M  V30 39262 O 3738.26 1.047 -1.72046 0
M  V30 39263 C 3735.33 1.51018 -3.12081 0
M  V30 39264 C 3734.39 0.897818 -4.19807 0
M  V30 39265 C 3733.62 1.94332 -4.97062 0
M  V30 39266 O 3733.84 3.16253 -4.747 0
M  V30 39267 O 3732.78 1.54557 -5.81718 0
M  V30 39268 H 3736.6 -0.231527 -3.02816 0
M  V30 39269 H 3734.19 -0.179309 -1.4832 0
M  V30 39270 H 3736.07 2.14735 -3.62584 0
M  V30 39271 H 3734.74 2.13854 -2.42998 0
M  V30 39272 H 3733.65 0.22317 -3.73434 0
M  V30 39273 H 3734.98 0.313274 -4.91202 0
M  V30 39274 N 3736.64 1.56914 -0.146931 0
M  V30 39275 C 3737.86 2.0092 0.51439 0
M  V30 39276 C 3738.29 1.02636 1.57631 0
M  V30 39277 O 3737.64 0.00210665 1.813 0
M  V30 39278 C 3737.69 3.43671 1.09191 0
M  V30 39279 O 3736.8 3.48389 2.20678 0
M  V30 39280 H 3736.14 0.651971 0.125816 0
M  V30 39281 H 3738.67 2.03144 -0.243643 0
M  V30 39282 H 3738.68 3.8247 1.4206 0
M  V30 39283 H 3737.35 4.14711 0.314263 0
M  V30 39284 H 3735.93 3.21432 1.89039 0
M  V30 39285 N 3738.11 -0.126854 1.57089 0
M  V30 39286 C 3739.08 -1.14 1.98838 0
M  V30 39287 C 3740.08 -1.34748 0.877478 0
M  V30 39288 O 3741.27 -1.31398 1.14369 0
M  V30 39289 C 3738.4 -2.49614 2.32176 0
M  V30 39290 H 3739.59 -0.781349 2.89543 0
M  V30 39291 H 3737.15 -0.370889 1.51836 0
M  V30 39292 H 3737.88 -2.90414 1.44326 0
M  V30 39293 H 3737.67 -2.35911 3.13191 0
M  V30 39294 H 3739.16 -3.22545 2.65244 0
M  V30 39295 N 3739.59 -1.52523 -0.396809 0
M  V30 39296 C 3740.82 -1.71348 -1.16854 0
M  V30 39297 C 3741.24 -0.427497 -1.83178 0
M  V30 39298 O 3740.6 0.616093 -1.70511 0
M  V30 39299 C 3740.65 -2.85858 -2.19812 0
M  V30 39300 O 3739.75 -2.52287 -3.26229 0
M  V30 39301 H 3739.09 -0.570023 -0.340544 0
M  V30 39302 H 3741.62 -1.99281 -0.463497 0
M  V30 39303 H 3741.63 -3.11128 -2.63938 0
M  V30 39304 H 3740.31 -3.79154 -1.70924 0
M  V30 39305 H 3738.89 -2.37731 -2.87295 0
M  V30 39306 N 3741.07 0.654789 -1.43354 0
M  V30 39307 C 3742.02 1.76773 -1.48391 0
M  V30 39308 C 3742.99 1.62712 -0.333783 0
M  V30 39309 O 3744.17 1.82978 -0.540715 0
M  V30 39310 C 3741.31 3.14919 -1.41137 0
M  V30 39311 C 3740.43 3.40126 -2.66342 0
M  V30 39312 C 3739.56 4.68111 -2.51088 0
M  V30 39313 C 3738.6 4.86418 -3.71569 0
M  V30 39314 N 3737.74 6.05659 -3.55135 0
M  V30 39315 H 3742.58 1.71803 -2.4349 0
M  V30 39316 H 3740.11 0.838421 -1.20867 0
M  V30 39317 H 3742.07 3.94779 -1.34927 0
M  V30 39318 H 3740.7 3.18963 -0.496205 0
M  V30 39319 H 3739.75 2.54375 -2.82838 0
M  V30 39320 H 3741.07 3.4954 -3.55841 0
M  V30 39321 H 3740.22 5.56095 -2.42577 0
M  V30 39322 H 3738.96 4.61015 -1.59111 0
M  V30 39323 H 3737.96 3.96871 -3.80491 0
M  V30 39324 H 3739.19 4.95345 -4.64553 0
M  V30 39325 H 3737.14 5.99698 -2.65891 0
M  V30 39326 H 3737.05 6.16024 -4.38235 0
M  V30 39327 H 3738.32 6.96268 -3.50473 0
M  V30 39328 N 3742.55 1.29858 0.893007 0
M  V30 39329 C 3743.77 1.21246 1.68268 0
M  V30 39330 C 3744.2 -0.222588 1.86778 0
M  V30 39331 O 3743.56 -1.16048 1.39293 0
M  V30 39332 C 3743.61 1.93797 3.04097 0
M  V30 39333 O 3742.71 1.25958 3.92694 0
M  V30 39334 H 3742.05 0.41978 0.514472 0
M  V30 39335 H 3744.58 1.71542 1.1151 0
M  V30 39336 H 3744.59 2.0251 3.54194 0
M  V30 39337 H 3743.27 2.98171 2.89943 0
M  V30 39338 H 3741.84 1.25547 3.5113 0
M  V30 39339 N 3744.03 -1.10427 1.12443 0
M  V30 39340 C 3744.99 -2.14953 0.795481 0
M  V30 39341 C 3745.99 -1.59671 -0.190192 0
M  V30 39342 O 3747.18 -1.74164 0.0356103 0
M  V30 39343 C 3744.31 -3.40413 0.182103 0
M  V30 39344 H 3745.51 -2.45564 1.72158 0
M  V30 39345 H 3743.06 -1.25792 0.927695 0
M  V30 39346 H 3743.79 -3.1542 -0.753711 0
M  V30 39347 H 3743.58 -3.81824 0.891776 0
M  V30 39348 H 3745.07 -4.17588 -0.0315552 0
M  V30 39349 N 3745.51 -0.916353 -1.28221 0
M  V30 39350 C 3746.73 -0.566182 -1.99522 0
M  V30 39351 C 3747.16 0.846004 -1.68001 0
M  V30 39352 O 3746.51 1.56583 -0.913866 0
M  V30 39353 C 3746.56 -0.785176 -3.51948 0
M  V30 39354 O 3745.67 0.154614 -4.1211 0
M  V30 39355 H 3745.01 -0.219243 -0.62676 0
M  V30 39356 H 3747.54 -1.2325 -1.63311 0
M  V30 39357 H 3747.55 -0.696295 -4.02015 0
M  V30 39358 H 3746.22 -1.81464 -3.74224 0
M  V30 39359 H 3744.8 0.0167807 -3.72896 0
M  V30 39360 N 3746.98 1.42146 -0.680615 0
M  V30 39361 C 3748.23 2.01755 -0.205602 0
M  V30 39362 C 3748.56 1.5372 1.18675 0
M  V30 39363 O 3747.84 0.741899 1.79795 0
M  V30 39364 C 3748.12 3.59254 -0.246678 0
M  V30 39365 C 3747.97 4.17453 -1.6749 0
M  V30 39366 C 3749.29 4.38261 0.401883 0
M  V30 39367 H 3746.41 0.733052 -0.0761846 0
M  V30 39368 H 3749.05 1.69091 -0.866503 0
M  V30 39369 H 3747.2 3.87212 0.316059 0
M  V30 39370 H 3748.88 4.00427 -2.29033 0
M  V30 39371 H 3747.12 3.73061 -2.21377 0
M  V30 39372 H 3747.79 5.26597 -1.65528 0
M  V30 39373 H 3750.27 4.16028 -0.0772081 0
M  V30 39374 H 3749.14 5.4783 0.342531 0
M  V30 39375 H 3749.4 4.16579 1.48036 0
M  V30 39376 N 3748.46 0.424336 1.5178 0
M  V30 39377 C 3749.69 -0.1453 2.06088 0
M  V30 39378 C 3750.1 -1.38124 1.29299 0
M  V30 39379 O 3749.44 -1.80483 0.342258 0
M  V30 39380 C 3749.5 -0.545715 3.55334 0
M  V30 39381 C 3749.17 0.581608 4.53284 0
M  V30 39382 C 3750.17 1.44982 4.99276 0
M  V30 39383 C 3747.85 0.758636 4.96538 0
M  V30 39384 C 3749.84 2.47988 5.8718 0
M  V30 39385 C 3747.53 1.79198 5.84236 0
M  V30 39386 C 3748.53 2.651 6.29453 0
M  V30 39387 O 3748.22 3.66662 7.15412 0
M  V30 39388 H 3747.95 -0.0171601 0.675782 0
M  V30 39389 H 3750.5 0.598383 1.96491 0
M  V30 39390 H 3748.73 -1.34191 3.6267 0
M  V30 39391 H 3750.42 -1.04501 3.92217 0
M  V30 39392 H 3751.19 1.32453 4.66563 0
M  V30 39393 H 3747.07 0.0996262 4.60892 0
M  V30 39394 H 3750.61 3.1507 6.22396 0
M  V30 39395 H 3746.51 1.91752 6.16361 0
M  V30 39396 H 3747.28 3.63087 7.3356 0
M  V30 39397 N 3749.94 -1.56833 0.15525 0
M  V30 39398 C 3751.17 -2.00464 -0.499781 0
M  V30 39399 C 3751.58 -1.03443 -1.58418 0
M  V30 39400 O 3750.92 -0.0247349 -1.83683 0
M  V30 39401 C 3750.98 -3.40527 -1.15245 0
M  V30 39402 C 3750.65 -4.5651 -0.211657 0
M  V30 39403 C 3751.64 -5.16833 0.563858 0
M  V30 39404 C 3749.33 -5.02175 -0.11216 0
M  V30 39405 C 3751.32 -6.21239 1.42624 0
M  V30 39406 C 3749.01 -6.06433 0.753816 0
M  V30 39407 C 3750.01 -6.65835 1.52161 0
M  V30 39408 O 3749.7 -7.68074 2.37314 0
M  V30 39409 H 3749.43 -0.662615 -0.133857 0
M  V30 39410 H 3751.98 -2.03882 0.249292 0
M  V30 39411 H 3750.21 -3.33973 -1.94933 0
M  V30 39412 H 3751.9 -3.68213 -1.70804 0
M  V30 39413 H 3752.67 -4.82446 0.49707 0
M  V30 39414 H 3748.55 -4.55662 -0.699534 0
M  V30 39415 H 3752.09 -6.67532 2.02599 0
M  V30 39416 H 3747.99 -6.40247 0.821866 0
M  V30 39417 H 3748.75 -7.85329 2.30653 0
M  V30 39418 N 3751.42 0.118521 -1.57154 0
M  V30 39419 C 3752.64 0.844322 -1.89436 0
M  V30 39420 C 3753.07 1.72621 -0.747233 0
M  V30 39421 O 3752.43 1.78763 0.302221 0
M  V30 39422 C 3752.47 1.65325 -3.20468 0
M  V30 39423 O 3751.58 2.76022 -3.06408 0
M  V30 39424 H 3750.92 0.233459 -0.621605 0
M  V30 39425 H 3753.45 0.100775 -2.04352 0
M  V30 39426 H 3753.46 2.04239 -3.532 0
M  V30 39427 H 3752.13 1.00587 -4.03553 0
M  V30 39428 H 3750.71 2.40307 -2.85144 0
M  V30 39429 N 3752.9 1.52731 0.388715 0
M  V30 39430 C 3753.83 1.73784 1.49438 0
M  V30 39431 C 3754.84 0.618311 1.50601 0
M  V30 39432 O 3756.03 0.894013 1.54498 0
M  V30 39433 C 3753.13 1.78171 2.88285 0
M  V30 39434 C 3752.3 3.07483 3.11083 0
M  V30 39435 C 3751.36 3.03414 4.29914 0
M  V30 39436 O 3750.39 3.77277 4.26205 0
M  V30 39437 N 3751.59 2.22619 5.36117 0
M  V30 39438 H 3754.35 2.6918 1.31766 0
M  V30 39439 H 3751.92 1.51222 0.578231 0
M  V30 39440 H 3753.91 1.72955 3.65881 0
M  V30 39441 H 3752.48 0.901606 2.99316 0
M  V30 39442 H 3751.7 3.26187 2.2135 0
M  V30 39443 H 3752.99 3.92986 3.23171 0
M  V30 39444 H 3752.38 1.62076 5.41985 0
M  V30 39445 H 3750.94 2.23242 6.12377 0
M  V30 39446 N 3754.37 -0.647178 1.43699 0
M  V30 39447 C 3755.3 -1.77133 1.52138 0
M  V30 39448 C 3756.28 -1.65902 0.37558 0
M  V30 39449 O 3757.47 -1.84906 0.593597 0
M  V30 39450 C 3754.6 -3.15592 1.44979 0
M  V30 39451 C 3753.55 -3.41594 2.57872 0
M  V30 39452 C 3752.88 -4.79916 2.35765 0
M  V30 39453 C 3754.18 -3.3574 4.00095 0
M  V30 39454 H 3755.87 -1.70327 2.4623 0
M  V30 39455 H 3753.42 -0.818025 1.18509 0
M  V30 39456 H 3755.37 -3.93995 1.49487 0
M  V30 39457 H 3754.1 -3.23143 0.473962 0
M  V30 39458 H 3752.76 -2.65565 2.52727 0
M  V30 39459 H 3752.4 -4.8415 1.36411 0
M  V30 39460 H 3752.1 -4.98273 3.11445 0
M  V30 39461 H 3753.63 -5.60568 2.42065 0
M  V30 39462 H 3755.04 -4.0407 4.06694 0
M  V30 39463 H 3753.44 -3.65634 4.75849 0
M  V30 39464 H 3754.51 -2.33818 4.24803 0
M  V30 39465 N 3755.85 -1.3033 -0.886108 0
M  V30 39466 C 3756.79 -1.10942 -1.99417 0
M  V30 39467 C 3757.76 -0.0173825 -1.62591 0
M  V30 39468 O 3758.95 -0.170717 -1.87725 0
M  V30 39469 C 3756.07 -0.691772 -3.3156 0
M  V30 39470 C 3755.12 -1.78451 -3.87373 0
M  V30 39471 S 3755.95 -3.38668 -4.14806 0
M  V30 39472 C 3757.11 -2.98803 -5.4997 0
M  V30 39473 H 3757.34 -2.0475 -2.15557 0
M  V30 39474 H 3754.88 -1.14631 -1.03436 0
M  V30 39475 H 3756.83 -0.457537 -4.07942 0
M  V30 39476 H 3755.49 0.226926 -3.13279 0
M  V30 39477 H 3754.69 -1.44453 -4.82855 0
M  V30 39478 H 3754.29 -1.97296 -3.17727 0
M  V30 39479 H 3756.58 -2.46693 -6.3099 0
M  V30 39480 H 3757.52 -3.93188 -5.88904 0
M  V30 39481 H 3757.93 -2.36703 -5.12476 0
M  V30 39482 N 3757.33 1.0983 -1.13028 0
M  V30 39483 C 3758.57 1.83537 -0.899632 0
M  V30 39484 C 3758.93 1.83523 0.564194 0
M  V30 39485 O 3760.14 2.52847 0.912242 0
M  V30 39486 C 3758.41 3.25936 -1.46629 0
M  V30 39487 S 3759.97 4.16697 -1.3751 0
M  V30 39488 H 3756.78 0.632694 -0.324375 0
M  V30 39489 H 3759.39 1.32119 -1.441 0
M  V30 39490 H 3758.09 3.2352 -2.52513 0
M  V30 39491 H 3757.62 3.82427 -0.922686 0
M  V30 39492 H 3759.64 4.94959 -0.350753 0
M  V30 39493 N 3758.81 0.92314 1.27734 0
M  V30 39494 C 3759.74 0.376021 2.26094 0
M  V30 39495 C 3760.75 -0.490735 1.55228 0
M  V30 39496 O 3761.94 -0.304096 1.75891 0
M  V30 39497 C 3759.04 -0.480283 3.3548 0
M  V30 39498 C 3758.22 0.366126 4.35865 0
M  V30 39499 C 3757.27 -0.426788 5.24466 0
M  V30 39500 O 3756.3 0.163925 5.68964 0
M  V30 39501 N 3757.5 -1.72767 5.54195 0
M  V30 39502 H 3760.27 1.22152 2.73677 0
M  V30 39503 H 3757.83 0.790081 1.41313 0
M  V30 39504 H 3759.82 -1.01769 3.91695 0
M  V30 39505 H 3758.39 -1.22652 2.87533 0
M  V30 39506 H 3757.61 1.08486 3.78978 0
M  V30 39507 H 3758.9 0.944937 4.99948 0
M  V30 39508 H 3758.3 -2.22999 5.19892 0
M  V30 39509 H 3756.85 -2.21171 6.13129 0
M  V30 39510 N 3760.29 -1.41783 0.688143 0
M  V30 39511 C 3761.7 -1.84408 0.291657 0
M  V30 39512 C 3762.05 -1.57589 -1.16877 0
M  V30 39513 O 3761.17 -1.04252 -1.89633 0
M  V30 39514 C 3761.77 -3.34746 0.52257 0
M  V30 39515 C 3760.33 -3.75969 0.180074 0
M  V30 39516 C 3759.47 -2.65252 0.808502 0
M  V30 39517 H 3762.43 -1.3144 0.889343 0
M  V30 39518 H 3762.45 -3.79857 -0.2211 0
M  V30 39519 H 3761.96 -3.54234 1.58556 0
M  V30 39520 H 3760.06 -3.62085 -0.878948 0
M  V30 39521 H 3760.17 -4.74941 0.62991 0
M  V30 39522 H 3758.54 -2.53579 0.238709 0
M  V30 39523 H 3759.32 -2.8756 1.87522 0
M  V30 39524 N 3761.76 -0.432379 -1.51553 0
M  V30 39525 C 3763.01 0.13722 -2.01233 0
M  V30 39526 C 3763.33 1.44218 -1.32138 0
M  V30 39527 O 3764.53 2.09443 -1.7276 0
M  V30 39528 C 3762.99 0.295089 -3.58688 0
M  V30 39529 C 3762.6 -0.999149 -4.36716 0
M  V30 39530 C 3764.34 0.818724 -4.1653 0
M  V30 39531 C 3762.25 -0.807193 -5.85865 0
M  V30 39532 H 3761.18 0.0550564 -0.751987 0
M  V30 39533 H 3763.83 -0.561383 -1.74702 0
M  V30 39534 H 3762.21 1.05658 -3.81644 0
M  V30 39535 H 3763.38 -1.76858 -4.25509 0
M  V30 39536 H 3761.7 -1.45094 -3.90303 0
M  V30 39537 H 3764.3 0.978748 -5.25666 0
M  V30 39538 H 3764.64 1.79982 -3.75383 0
M  V30 39539 H 3765.17 0.11568 -3.97632 0
M  V30 39540 H 3761.91 -1.76052 -6.31416 0
M  V30 39541 H 3761.43 -0.0774671 -5.9975 0
M  V30 39542 H 3763.11 -0.458441 -6.45374 0
M  V30 39543 N 3763.24 1.56749 -0.163565 0
M  V30 39544 C 3764.17 2.20594 0.765532 0
M  V30 39545 C 3765.15 1.15918 1.24487 0
M  V30 39546 O 3766.34 1.4432 1.29944 0
M  V30 39547 C 3763.47 2.8406 1.99818 0
M  V30 39548 C 3762.42 3.94708 1.65499 0
M  V30 39549 C 3761.75 4.45186 2.96164 0
M  V30 39550 C 3763.05 5.1468 0.88893 0
M  V30 39551 H 3764.74 2.98489 0.233378 0
M  V30 39552 H 3762.29 1.43573 0.11081 0
M  V30 39553 H 3764.24 3.27397 2.6531 0
M  V30 39554 H 3762.97 2.03522 2.55434 0
M  V30 39555 H 3761.62 3.52015 1.02378 0
M  V30 39556 H 3761.27 3.61449 3.49805 0
M  V30 39557 H 3760.97 5.19827 2.73958 0
M  V30 39558 H 3762.5 4.91204 3.62699 0
M  V30 39559 H 3763.91 5.54757 1.44628 0
M  V30 39560 H 3762.31 5.95189 0.766198 0
M  V30 39561 H 3763.38 4.84761 -0.11623 0
M  V30 39562 N 3764.72 -0.110185 1.57214 0
M  V30 39563 C 3765.65 -1.13576 2.04017 0
M  V30 39564 C 3766.63 -1.4267 0.92624 0
M  V30 39565 O 3767.82 -1.5296 1.19653 0
M  V30 39566 C 3764.95 -2.45964 2.45192 0
M  V30 39567 C 3763.9 -2.31312 3.60109 0
M  V30 39568 C 3763.23 -3.68743 3.87212 0
M  V30 39569 C 3764.53 -1.76626 4.91529 0
M  V30 39570 H 3766.22 -0.746445 2.89946 0
M  V30 39571 H 3763.77 -0.357617 1.39489 0
M  V30 39572 H 3765.72 -3.17968 2.7654 0
M  V30 39573 H 3764.44 -2.86802 1.56243 0
M  V30 39574 H 3763.1 -1.61756 3.28984 0
M  V30 39575 H 3762.75 -4.07081 2.95455 0
M  V30 39576 H 3762.45 -3.5979 4.6457 0
M  V30 39577 H 3763.97 -4.42238 4.2102 0
M  V30 39578 H 3765.39 -2.38456 5.21356 0
M  V30 39579 H 3763.79 -1.78472 5.72947 0
M  V30 39580 H 3764.86 -0.724489 4.79457 0
M  V30 39581 N 3766.2 -1.52935 -0.38061 0
M  V30 39582 C 3767.13 -1.81282 -1.47171 0
M  V30 39583 C 3768.11 -0.665347 -1.56548 0
M  V30 39584 O 3769.29 -0.913752 -1.7136 0
M  V30 39585 C 3766.42 -1.98923 -2.84687 0
M  V30 39586 C 3765.38 -3.14642 -2.90145 0
M  V30 39587 C 3764.7 -3.17551 -4.30192 0
M  V30 39588 C 3766 -4.53543 -2.59029 0
M  V30 39589 H 3767.7 -2.72652 -1.23698 0
M  V30 39590 H 3765.24 -1.31195 -0.593631 0
M  V30 39591 H 3767.2 -2.17336 -3.6103 0
M  V30 39592 H 3765.92 -1.04249 -3.09515 0
M  V30 39593 H 3764.58 -2.96025 -2.16251 0
M  V30 39594 H 3764.23 -2.20544 -4.52072 0
M  V30 39595 H 3763.93 -3.95291 -4.34763 0
M  V30 39596 H 3765.45 -3.3813 -5.08429 0
M  V30 39597 H 3766.87 -4.72219 -3.25088 0
M  V30 39598 H 3765.26 -5.33413 -2.74937 0
M  V30 39599 H 3766.33 -4.59684 -1.54334 0
M  V30 39600 N 3767.68 0.639548 -1.4404 0
M  V30 39601 C 3768.95 1.39749 -1.36856 0
M  V30 39602 C 3769.33 2.11087 -0.0230886 0
M  V30 39603 O 3768.68 2.05746 0.994025 0
M  V30 39604 C 3768.89 2.37089 -2.56105 0
M  V30 39605 C 3770.24 3.00676 -2.99799 0
M  V30 39606 O 3771.26 2.47415 -2.5625 0
M  V30 39607 O 3770.12 3.97274 -3.75281 0
M  V30 39608 H 3767.22 0.625038 -0.541532 0
M  V30 39609 H 3769.76 0.665309 -1.56114 0
M  V30 39610 H 3768.53 1.83416 -3.4565 0
M  V30 39611 H 3768.16 3.17737 -2.39017 0
M  V30 39612 N 3769.15 1.30798 0.879184 0
M  V30 39613 C 3770.09 1.13486 1.99132 0
M  V30 39614 C 3771.1 0.0764778 1.6262 0
M  V30 39615 O 3772.29 0.323069 1.75552 0
M  V30 39616 C 3769.39 0.709764 3.31384 0
M  V30 39617 C 3768.56 1.85115 3.96297 0
M  V30 39618 C 3767.62 1.41365 5.06855 0
M  V30 39619 O 3766.65 2.12181 5.28174 0
M  V30 39620 N 3767.85 0.295891 5.79745 0
M  V30 39621 H 3770.61 2.09275 2.14532 0
M  V30 39622 H 3768.17 1.2301 1.05262 0
M  V30 39623 H 3770.17 0.399974 4.02719 0
M  V30 39624 H 3768.74 -0.156254 3.12209 0
M  V30 39625 H 3767.96 2.32875 3.18061 0
M  V30 39626 H 3769.24 2.6159 4.36404 0
M  V30 39627 H 3768.64 -0.294066 5.64935 0
M  V30 39628 H 3767.2 0.0455853 6.51784 0
M  V30 39629 N 3770.63 -1.09229 1.13608 0
M  V30 39630 C 3771.6 -2.14097 0.818235 0
M  V30 39631 C 3772.6 -1.59864 -0.173246 0
M  V30 39632 O 3773.79 -1.74116 0.0540806 0
M  V30 39633 C 3770.92 -3.40201 0.218198 0
M  V30 39634 H 3772.11 -2.43724 1.74752 0
M  V30 39635 H 3769.66 -1.24801 0.940984 0
M  V30 39636 H 3770.4 -3.16202 -0.720214 0
M  V30 39637 H 3770.18 -3.80857 0.932223 0
M  V30 39638 H 3771.67 -4.17598 0.0127374 0
M  V30 39639 N 3772.11 -0.929901 -1.27242 0
M  V30 39640 C 3773.04 -0.448106 -2.2916 0
M  V30 39641 C 3774.02 0.492747 -1.62807 0
M  V30 39642 O 3775.21 0.397026 -1.90098 0
M  V30 39643 C 3772.34 0.297942 -3.4602 0
M  V30 39644 C 3771.29 -0.555286 -4.24383 0
M  V30 39645 C 3770.62 0.320059 -5.33741 0
M  V30 39646 C 3771.92 -1.82088 -4.89532 0
M  V30 39647 H 3773.61 -1.29988 -2.6971 0
M  V30 39648 H 3771.16 -0.626488 -1.29658 0
M  V30 39649 H 3773.11 0.645951 -4.1642 0
M  V30 39650 H 3771.83 1.18376 -3.04392 0
M  V30 39651 H 3770.49 -0.886033 -3.55732 0
M  V30 39652 H 3770.14 1.20489 -4.88356 0
M  V30 39653 H 3769.84 -0.247344 -5.87079 0
M  V30 39654 H 3771.37 0.663591 -6.06983 0
M  V30 39655 H 3772.78 -1.54081 -5.52207 0
M  V30 39656 H 3771.18 -2.33196 -5.52937 0
M  V30 39657 H 3772.25 -2.53908 -4.13108 0
M  V30 39658 N 3773.59 1.41416 -0.695653 0
M  V30 39659 C 3774.84 2.01526 -0.226989 0
M  V30 39660 C 3775.17 1.5497 1.17038 0
M  V30 39661 O 3774.44 0.760927 1.78998 0
M  V30 39662 C 3774.73 3.58972 -0.284768 0
M  V30 39663 C 3774.58 4.15653 -1.71908 0
M  V30 39664 C 3775.9 4.38663 0.355377 0
M  V30 39665 H 3773.02 0.732203 -0.0839553 0
M  V30 39666 H 3775.66 1.68162 -0.884388 0
M  V30 39667 H 3773.81 3.87526 0.274972 0
M  V30 39668 H 3775.48 3.97975 -2.33267 0
M  V30 39669 H 3773.72 3.70692 -2.25321 0
M  V30 39670 H 3774.4 5.24812 -1.71104 0
M  V30 39671 H 3776.87 4.15923 -0.121329 0
M  V30 39672 H 3775.75 5.48163 0.284407 0
M  V30 39673 H 3776.01 4.18125 1.4361 0
M  V30 39674 N 3775.07 0.44041 1.51321 0
M  V30 39675 C 3776.29 -0.125982 2.07017 0
M  V30 39676 C 3776.72 -1.35429 1.30539 0
M  V30 39677 O 3776.08 -1.78003 0.344209 0
M  V30 39678 C 3776.12 -0.423737 3.58102 0
M  V30 39679 O 3775.23 -1.50967 3.83774 0
M  V30 39680 H 3774.57 -0.000518506 0.664 0
M  V30 39681 H 3777.1 0.622628 1.94896 0
M  V30 39682 H 3777.11 -0.673292 4.02406 0
M  V30 39683 H 3775.78 0.474005 4.1319 0
M  V30 39684 H 3774.36 -1.24983 3.51331 0
M  V30 39685 N 3776.55 -1.5666 0.171876 0
M  V30 39686 C 3777.82 -1.8858 -0.519322 0
M  V30 39687 C 3778.2 -1.08185 -1.81271 0
M  V30 39688 O 3777.55 -0.175935 -2.27822 0
M  V30 39689 C 3777.76 -3.40609 -0.760683 0
M  V30 39690 C 3779.11 -4.10359 -1.09043 0
M  V30 39691 O 3780.13 -3.45929 -0.849203 0
M  V30 39692 O 3778.99 -5.24189 -1.54557 0
M  V30 39693 H 3776.09 -0.782451 -0.267768 0
M  V30 39694 H 3778.63 -1.68391 0.210353 0
M  V30 39695 H 3777.4 -3.90998 0.153645 0
M  V30 39696 H 3777.03 -3.66411 -1.54366 0
M  V30 39697 N 3778.02 0.101846 -1.57271 0
M  V30 39698 C 3779.27 0.807763 -1.86019 0
M  V30 39699 C 3779.6 1.78709 -0.760055 0
M  V30 39700 O 3778.88 1.93104 0.232593 0
M  V30 39701 C 3779.16 1.5425 -3.25391 0
M  V30 39702 C 3779.01 0.581615 -4.46024 0
M  V30 39703 C 3780.33 2.49467 -3.62566 0
M  V30 39704 H 3777.45 0.292198 -0.676601 0
M  V30 39705 H 3780.09 0.0715527 -1.89865 0
M  V30 39706 H 3778.24 2.17007 -3.22243 0
M  V30 39707 H 3779.92 -0.038434 -4.61284 0
M  V30 39708 H 3778.16 -0.105541 -4.33672 0
M  V30 39709 H 3778.83 1.1327 -5.40253 0
M  V30 39710 H 3781.31 1.96806 -3.66615 0
M  V30 39711 H 3780.18 2.97897 -4.6103 0
M  V30 39712 H 3780.44 3.32918 -2.90891 0
M  V30 39713 N 3779.5 1.53135 0.372494 0
M  V30 39714 C 3780.75 1.68648 1.11366 0
M  V30 39715 C 3781.07 0.437309 1.90033 0
M  V30 39716 O 3780.34 -0.54856 1.88063 0
M  V30 39717 H 3778.92 0.621703 0.414118 0
M  V30 39718 H 3781.58 1.90303 0.420786 0
M  V30 39719 H 3780.68 2.54444 1.80734 0
M  V30 39720 N 3780.98 -0.6319 1.44377 0
M  V30 39721 C 3782.26 -1.39022 1.37595 0
M  V30 39722 C 3782.64 -2.11072 0.0342827 0
M  V30 39723 O 3781.98 -2.0627 -0.9831 0
M  V30 39724 C 3782.19 -2.35727 2.57359 0
M  V30 39725 C 3783.54 -2.99082 3.01389 0
M  V30 39726 O 3784.57 -2.46053 2.57559 0
M  V30 39727 O 3783.43 -3.95278 3.77382 0
M  V30 39728 H 3780.52 -0.622157 0.544839 0
M  V30 39729 H 3783.07 -0.65702 1.56465 0
M  V30 39730 H 3781.84 -1.81581 3.46618 0
M  V30 39731 H 3781.46 -3.16465 2.40698 0
M  V30 39732 N 3782.46 -1.31262 -0.872235 0
M  V30 39733 C 3783.68 -1.23908 -1.66318 0
M  V30 39734 C 3784.11 0.192845 -1.87109 0
M  V30 39735 O 3783.47 1.13817 -1.41122 0
M  V30 39736 C 3783.51 -1.98611 -3.00975 0
M  V30 39737 O 3782.62 -1.3219 -3.9064 0
M  V30 39738 H 3781.96 -0.427911 -0.507728 0
M  V30 39739 H 3784.49 -1.73294 -1.08767 0
M  V30 39740 H 3784.5 -2.08119 -3.50928 0
M  V30 39741 H 3783.17 -3.02746 -2.85163 0
M  V30 39742 H 3781.75 -1.31118 -3.49088 0
M  V30 39743 N 3783.94 1.08625 -1.14186 0
M  V30 39744 C 3785.16 1.84713 -0.932136 0
M  V30 39745 C 3785.58 1.81518 0.519303 0
M  V30 39746 O 3784.94 1.21724 1.35976 0
M  V30 39747 C 3784.99 3.32348 -1.42223 0
M  V30 39748 O 3784.71 3.35542 -2.8168 0
M  V30 39749 C 3786.21 4.25249 -1.25213 0
M  V30 39750 H 3783.43 0.583187 -0.331864 0
M  V30 39751 H 3785.97 1.37202 -1.51644 0
M  V30 39752 H 3784.13 3.77255 -0.880746 0
M  V30 39753 H 3784.54 4.27684 -3.03622 0
M  V30 39754 H 3786.02 5.2696 -1.64368 0
M  V30 39755 H 3786.49 4.38768 -0.194736 0
M  V30 39756 H 3787.1 3.86165 -1.78204 0
M  V30 39757 N 3785.41 0.936635 1.26747 0
M  V30 39758 C 3786.32 0.448613 2.30271 0
M  V30 39759 C 3787.34 -0.475154 1.67387 0
M  V30 39760 O 3788.52 -0.35579 1.98232 0
M  V30 39761 C 3785.58 -0.28256 3.45547 0
M  V30 39762 C 3784.64 0.677212 4.23925 0
M  V30 39763 C 3783.88 -0.0191612 5.33697 0
M  V30 39764 O 3784.1 -1.23693 5.56827 0
M  V30 39765 O 3783.03 0.657224 5.98301 0
M  V30 39766 H 3786.86 1.30842 2.74069 0
M  V30 39767 H 3784.44 0.702337 1.31862 0
M  V30 39768 H 3786.33 -0.694613 4.15636 0
M  V30 39769 H 3785 -1.11783 3.03786 0
M  V30 39770 H 3783.91 1.13912 3.56335 0
M  V30 39771 H 3785.24 1.47997 4.69423 0
M  V30 39772 N 3786.89 -1.41045 0.703143 0
M  V30 39773 C 3788.14 -2.01402 0.237674 0
M  V30 39774 C 3788.47 -1.55589 -1.16214 0
M  V30 39775 O 3787.75 -0.770409 -1.78592 0
M  V30 39776 C 3788.03 -3.58816 0.303801 0
M  V30 39777 C 3787.88 -4.14736 1.7411 0
M  V30 39778 C 3789.2 -4.38845 -0.332109 0
M  V30 39779 H 3786.32 -0.731747 0.0878372 0
M  V30 39780 H 3788.96 -1.67691 0.893294 0
M  V30 39781 H 3787.11 -3.87666 -0.254417 0
M  V30 39782 H 3788.78 -3.96732 2.35375 0
M  V30 39783 H 3787.03 -3.69492 2.27284 0
M  V30 39784 H 3787.7 -5.23897 1.73885 0
M  V30 39785 H 3790.17 -4.15853 0.143385 0
M  V30 39786 H 3789.05 -5.48306 -0.255333 0
M  V30 39787 H 3789.31 -4.18881 -1.4139 0
M  V30 39788 N 3788.37 -0.448429 -1.51086 0
M  V30 39789 C 3789.6 0.115002 -2.07081 0
M  V30 39790 C 3790.02 1.34735 -1.31256 0
M  V30 39791 O 3789.38 1.77817 -0.353644 0
M  V30 39792 C 3789.43 0.40474 -3.58321 0
M  V30 39793 O 3788.53 1.48929 -3.8457 0
M  V30 39794 H 3787.87 -0.00300285 -0.663993 0
M  V30 39795 H 3790.4 -0.632955 -1.94563 0
M  V30 39796 H 3790.41 0.651942 -4.02758 0
M  V30 39797 H 3789.09 -0.495911 -4.12933 0
M  V30 39798 H 3787.66 1.23118 -3.51989 0
M  V30 39799 N 3789.85 1.56567 -0.180181 0
M  V30 39800 C 3791.09 1.9744 0.46317 0
M  V30 39801 C 3791.43 1.0665 1.62295 0
M  V30 39802 O 3790.7 0.115417 1.94157 0
M  V30 39803 C 3790.99 3.47678 0.937648 0
M  V30 39804 C 3790.84 4.49247 -0.222914 0
M  V30 39805 C 3792.16 4.01234 1.80829 0
M  V30 39806 H 3789.28 0.717856 0.166886 0
M  V30 39807 H 3791.92 1.88099 -0.268102 0
M  V30 39808 H 3790.07 3.5577 1.56078 0
M  V30 39809 H 3791.74 4.53208 -0.860235 0
M  V30 39810 H 3789.98 4.24842 -0.877037 0
M  V30 39811 H 3790.65 5.51792 0.151347 0
M  V30 39812 H 3793.13 3.95829 1.2829 0
M  V30 39813 H 3792.01 5.06755 2.10928 0
M  V30 39814 H 3792.27 3.45586 2.75722 0
M  V30 39815 N 3791.33 -0.0935042 1.57322 0
M  V30 39816 C 3792.27 -1.11332 2.02173 0
M  V30 39817 C 3793.24 -1.39711 0.89833 0
M  V30 39818 O 3794.43 -1.51147 1.16444 0
M  V30 39819 C 3791.57 -2.42791 2.45248 0
M  V30 39820 C 3790.68 -2.2113 3.71114 0
M  V30 39821 C 3789.82 -3.45998 4.03062 0
M  V30 39822 C 3788.86 -3.19605 5.22033 0
M  V30 39823 N 3787.99 -4.36745 5.49726 0
M  V30 39824 H 3792.83 -0.723873 2.89075 0
M  V30 39825 H 3790.37 -0.345894 1.42975 0
M  V30 39826 H 3792.33 -3.19513 2.68267 0
M  V30 39827 H 3790.96 -2.7958 1.61353 0
M  V30 39828 H 3790.01 -1.35202 3.55562 0
M  V30 39829 H 3791.32 -1.9762 4.57982 0
M  V30 39830 H 3790.48 -4.31127 4.26866 0
M  V30 39831 H 3789.21 -3.72563 3.14719 0
M  V30 39832 H 3788.22 -2.3287 4.98048 0
M  V30 39833 H 3789.44 -2.94385 6.11976 0
M  V30 39834 H 3787.39 -4.63383 4.64341 0
M  V30 39835 H 3787.31 -4.16432 6.30968 0
M  V30 39836 H 3788.58 -5.22934 5.78066 0
M  V30 39837 N 3792.8 -1.5333 -0.364368 0
M  V30 39838 C 3793.74 -1.74639 -1.4689 0
M  V30 39839 C 3794.72 -0.594784 -1.51331 0
M  V30 39840 O 3795.9 -0.827519 -1.69365 0
M  V30 39841 C 3793.03 -1.82627 -2.85245 0
M  V30 39842 C 3792.07 -3.04608 -2.98523 0
M  V30 39843 S 3792.91 -4.64102 -2.67151 0
M  V30 39844 C 3794.06 -4.74941 -4.07654 0
M  V30 39845 H 3794.29 -2.6805 -1.28594 0
M  V30 39846 H 3791.83 -1.43934 -0.558778 0
M  V30 39847 H 3793.79 -1.87915 -3.64963 0
M  V30 39848 H 3792.45 -0.902653 -3.0085 0
M  V30 39849 H 3791.64 -3.06811 -3.99853 0
M  V30 39850 H 3791.24 -2.97439 -2.26729 0
M  V30 39851 H 3793.53 -4.5507 -5.01914 0
M  V30 39852 H 3794.48 -5.77002 -4.10456 0
M  V30 39853 H 3794.88 -4.03564 -3.94711 0
M  V30 39854 N 3794.28 0.624234 -1.4471 0
M  V30 39855 C 3795.53 1.38365 -1.47856 0
M  V30 39856 C 3795.86 1.94167 -0.113803 0
M  V30 39857 O 3795.11 1.74528 0.885349 0
M  V30 39858 C 3795.41 2.56197 -2.49195 0
M  V30 39859 C 3795.08 2.18643 -3.94343 0
M  V30 39860 C 3793.74 2.08114 -4.33869 0
M  V30 39861 C 3796.09 1.89082 -4.85693 0
M  V30 39862 C 3793.42 1.66223 -5.62661 0
M  V30 39863 C 3795.77 1.48682 -6.14879 0
M  V30 39864 C 3794.44 1.36699 -6.53353 0
M  V30 39865 H 3793.71 0.506314 -0.541042 0
M  V30 39866 H 3796.35 0.707204 -1.77963 0
M  V30 39867 H 3794.66 3.29105 -2.12596 0
M  V30 39868 H 3796.35 3.14426 -2.48872 0
M  V30 39869 H 3792.94 2.27758 -3.63076 0
M  V30 39870 H 3797.13 1.96123 -4.55905 0
M  V30 39871 H 3792.38 1.55555 -5.9128 0
M  V30 39872 H 3796.56 1.24849 -6.85117 0
M  V30 39873 H 3794.19 1.04012 -7.53051 0
M  V30 39874 N 3795.76 1.31723 0.865262 0
M  V30 39875 C 3797.04 1.12309 1.60144 0
M  V30 39876 C 3797.42 -0.320472 2.08653 0
M  V30 39877 O 3796.77 -1.31536 1.86843 0
M  V30 39878 C 3796.98 2.14143 2.75579 0
M  V30 39879 C 3798.32 2.46915 3.45425 0
M  V30 39880 O 3799.35 2.12607 2.85792 0
M  V30 39881 O 3798.21 3.05684 4.53011 0
M  V30 39882 H 3795.3 0.432686 0.704778 0
M  V30 39883 H 3797.85 1.43218 0.910314 0
M  V30 39884 H 3796.62 3.11224 2.37182 0
M  V30 39885 H 3796.24 1.84168 3.52375 0
M  V30 39886 N 3797.24 -1.08018 1.14761 0
M  V30 39887 C 3798.2 -2.13217 0.840897 0
M  V30 39888 C 3799.2 -1.60039 -0.156281 0
M  V30 39889 O 3800.39 -1.74049 0.0725449 0
M  V30 39890 C 3797.52 -3.3995 0.254268 0
M  V30 39891 H 3798.72 -2.41857 1.77328 0
M  V30 39892 H 3796.27 -1.23795 0.954168 0
M  V30 39893 H 3797 -3.16948 -0.686636 0
M  V30 39894 H 3796.79 -3.79847 0.972565 0
M  V30 39895 H 3798.28 -4.17561 0.0570285 0
M  V30 39896 N 3798.72 -0.943344 -1.26249 0
M  V30 39897 C 3799.95 -0.608004 -1.97451 0
M  V30 39898 C 3800.35 0.82174 -1.70423 0
M  V30 39899 O 3799.7 1.5598 -0.97035 0
M  V30 39900 C 3799.76 -0.772999 -3.51091 0
M  V30 39901 C 3799.42 -2.17778 -4.01773 0
M  V30 39902 C 3800.42 -3.15345 -4.13344 0
M  V30 39903 C 3798.11 -2.49894 -4.35728 0
M  V30 39904 C 3800.1 -4.43127 -4.58167 0
M  V30 39905 C 3797.79 -3.77908 -4.80238 0
M  V30 39906 C 3798.78 -4.74338 -4.91419 0
M  V30 39907 O 3798.47 -6.00072 -5.34947 0
M  V30 39908 H 3798.2 -0.227802 -0.636461 0
M  V30 39909 H 3800.76 -1.26698 -1.61669 0
M  V30 39910 H 3798.99 -0.0568931 -3.86658 0
M  V30 39911 H 3800.68 -0.440397 -4.03504 0
M  V30 39912 H 3801.44 -2.91858 -3.87355 0
M  V30 39913 H 3797.32 -1.75571 -4.26258 0
M  V30 39914 H 3800.87 -5.18397 -4.66809 0
M  V30 39915 H 3796.76 -4.01207 -5.05671 0
M  V30 39916 H 3797.53 -6.03285 -5.53163 0
M  V30 39917 N 3800.2 1.4067 -0.710613 0
M  V30 39918 C 3801.44 2.01274 -0.248351 0
M  V30 39919 C 3801.77 1.56203 1.15387 0
M  V30 39920 O 3801.05 0.779869 1.7818 0
M  V30 39921 C 3801.33 3.5865 -0.322825 0
M  V30 39922 C 3801.19 4.13807 -1.76307 0
M  V30 39923 C 3802.5 4.39015 0.308831 0
M  V30 39924 H 3799.62 0.731271 -0.0917166 0
M  V30 39925 H 3802.27 1.67215 -0.902174 0
M  V30 39926 H 3800.42 3.87796 0.233855 0
M  V30 39927 H 3802.09 3.95478 -2.37475 0
M  V30 39928 H 3800.33 3.68282 -2.2924 0
M  V30 39929 H 3801 5.22967 -1.76661 0
M  V30 39930 H 3803.48 4.15771 -0.165437 0
M  V30 39931 H 3802.35 5.48434 0.226251 0
M  V30 39932 H 3802.61 4.19625 1.39167 0
M  V30 39933 N 3801.67 0.456435 1.50846 0
M  V30 39934 C 3802.95 -0.164451 1.94907 0
M  V30 39935 C 3803.33 -1.58341 1.39612 0
M  V30 39936 O 3802.68 -2.20725 0.59101 0
M  V30 39937 C 3802.89 -0.122733 3.48784 0
M  V30 39938 C 3804.24 -0.31889 4.23401 0
M  V30 39939 O 3805.26 -0.199988 3.55638 0
M  V30 39940 O 3804.12 -0.557412 5.4365 0
M  V30 39941 H 3801.21 -0.119638 0.818301 0
M  V30 39942 H 3803.76 0.515786 1.61672 0
M  V30 39943 H 3802.53 0.868535 3.81539 0
M  V30 39944 H 3802.15 -0.845062 3.88516 0
M  V30 39945 N 3803.15 -1.56469 0.188482 0
M  V30 39946 C 3804.38 -2.01771 -0.457811 0
M  V30 39947 C 3804.79 -1.06866 -1.55644 0
M  V30 39948 O 3804.15 -0.0723939 -1.82356 0
M  V30 39949 C 3804.2 -3.46804 -1.02026 0
M  V30 39950 O 3803.92 -4.38086 0.0345306 0
M  V30 39951 C 3805.42 -4.07592 -1.74309 0
M  V30 39952 H 3802.64 -0.66097 -0.115583 0
M  V30 39953 H 3805.19 -2.02357 0.295248 0
M  V30 39954 H 3803.34 -3.46938 -1.72373 0
M  V30 39955 H 3803.76 -5.23099 -0.383162 0
M  V30 39956 H 3805.23 -5.10944 -2.08903 0
M  V30 39957 H 3805.71 -3.50669 -2.64439 0
M  V30 39958 H 3806.31 -4.11211 -1.08563 0
M  V30 39959 N 3804.63 0.0851597 -1.5737 0
M  V30 39960 C 3805.88 0.786822 -1.86589 0
M  V30 39961 C 3806.2 1.78245 -0.778388 0
M  V30 39962 O 3805.46 1.94379 0.227019 0
M  V30 39963 C 3805.76 1.54188 -3.2243 0
M  V30 39964 C 3805.42 0.687464 -4.45628 0
M  V30 39965 C 3804.09 0.451958 -4.79073 0
M  V30 39966 C 3806.44 0.0941324 -5.21115 0
M  V30 39967 C 3803.77 -0.38658 -5.85425 0
M  V30 39968 C 3806.12 -0.731784 -6.28353 0
M  V30 39969 C 3804.78 -0.977288 -6.60307 0
M  V30 39970 H 3804.05 0.287918 -0.682777 0
M  V30 39971 H 3806.7 0.0479881 -1.9144 0
M  V30 39972 H 3805 2.35256 -3.13308 0
M  V30 39973 H 3806.7 2.08935 -3.42268 0
M  V30 39974 H 3803.29 0.881138 -4.19445 0
M  V30 39975 H 3807.48 0.263222 -4.95601 0
M  V30 39976 H 3802.73 -0.585667 -6.08588 0
M  V30 39977 H 3806.91 -1.19835 -6.86012 0
M  V30 39978 H 3804.53 -1.62884 -7.42545 0
M  V30 39979 N 3806.11 1.53521 0.356231 0
M  V30 39980 C 3807.33 1.74385 1.1227 0
M  V30 39981 C 3807.76 0.475913 1.8198 0
M  V30 39982 O 3807.12 -0.570669 1.72084 0
M  V30 39983 C 3807.16 2.91586 2.12156 0
M  V30 39984 O 3806.27 2.60848 3.19425 0
M  V30 39985 H 3805.61 0.578851 0.325311 0
M  V30 39986 H 3808.14 2.0044 0.410498 0
M  V30 39987 H 3808.15 3.18017 2.55596 0
M  V30 39988 H 3806.82 3.83553 1.60811 0
M  V30 39989 H 3805.4 2.45265 2.80891 0
M  V30 39990 N 3807.59 -0.616551 1.45039 0
M  V30 39991 C 3808.55 -1.7097 1.5265 0
M  V30 39992 C 3809.55 -1.55566 0.406929 0
M  V30 39993 O 3810.74 -1.60796 0.67009 0
M  V30 39994 C 3807.87 -3.10172 1.41444 0
M  V30 39995 H 3809.06 -1.65592 2.50039 0
M  V30 39996 H 3806.62 -0.8315 1.32347 0
M  V30 39997 H 3807.35 -3.21134 0.452048 0
M  V30 39998 H 3807.14 -3.2276 2.2264 0
M  V30 39999 H 3808.63 -3.89814 1.49782 0
M  V30 40000 N 3809.06 -1.3218 -0.858264 0
M  V30 40001 C 3810.29 -1.25526 -1.64471 0
M  V30 40002 C 3810.71 0.177392 -1.87965 0
M  V30 40003 O 3810.06 1.1133 -1.44609 0
M  V30 40004 C 3810.11 -2.00795 -3.00605 0
M  V30 40005 O 3809.84 -3.3847 -2.78154 0
M  V30 40006 C 3811.34 -2.01122 -3.95051 0
M  V30 40007 H 3808.56 -0.433246 -0.512385 0
M  V30 40008 H 3811.1 -1.74246 -1.07045 0
M  V30 40009 H 3809.26 -1.55807 -3.54687 0
M  V30 40010 H 3809.67 -3.76948 -3.64706 0
M  V30 40011 H 3811.14 -2.58276 -4.8785 0
M  V30 40012 H 3811.62 -0.996588 -4.27744 0
M  V30 40013 H 3812.23 -2.46041 -3.46906 0
M  V30 40014 N 3810.54 1.07407 -1.15332 0
M  V30 40015 C 3811.79 1.79993 -0.927839 0
M  V30 40016 C 3812.12 1.86707 0.545059 0
M  V30 40017 O 3811.37 1.34645 1.42018 0
M  V30 40018 C 3811.67 3.25019 -1.48652 0
M  V30 40019 C 3811.34 3.38406 -2.9798 0
M  V30 40020 C 3810 3.41767 -3.38746 0
M  V30 40021 C 3812.35 3.4125 -3.93952 0
M  V30 40022 C 3809.68 3.45574 -4.74126 0
M  V30 40023 C 3812.03 3.46593 -5.29203 0
M  V30 40024 C 3810.69 3.48231 -5.69466 0
M  V30 40025 H 3809.96 0.65864 -0.33952 0
M  V30 40026 H 3812.61 1.26393 -1.43865 0
M  V30 40027 H 3810.92 3.81397 -0.896878 0
M  V30 40028 H 3812.61 3.79756 -1.28787 0
M  V30 40029 H 3809.2 3.36488 -2.65469 0
M  V30 40030 H 3813.39 3.37875 -3.63531 0
M  V30 40031 H 3808.64 3.4514 -5.04667 0
M  V30 40032 H 3812.82 3.4774 -6.03365 0
M  V30 40033 H 3810.44 3.50934 -6.74351 0
M  V30 40034 N 3812.02 0.950026 1.25747 0
M  V30 40035 C 3813.24 0.618882 1.97951 0
M  V30 40036 C 3813.67 -0.801164 1.70185 0
M  V30 40037 O 3813.03 -1.54105 0.955059 0
M  V30 40038 C 3813.08 0.878213 3.49742 0
M  V30 40039 O 3812.18 -0.045296 4.12375 0
M  V30 40040 H 3811.52 0.235783 0.620727 0
M  V30 40041 H 3814.05 1.27537 1.59986 0
M  V30 40042 H 3814.06 0.802637 4.00027 0
M  V30 40043 H 3812.74 1.91322 3.69281 0
M  V30 40044 H 3811.31 0.082092 3.7281 0
M  V30 40045 N 3813.5 -1.40291 0.718063 0
M  V30 40046 C 3814.74 -2.01139 0.259022 0
M  V30 40047 C 3815.08 -1.56813 -1.14557 0
M  V30 40048 O 3814.35 -0.789308 -1.77764 0
M  V30 40049 C 3814.63 -3.58474 0.341841 0
M  V30 40050 C 3814.49 -4.12866 1.78499 0
M  V30 40051 C 3815.81 -4.39173 -0.285545 0
M  V30 40052 H 3812.93 -0.730774 0.0955934 0
M  V30 40053 H 3815.57 -1.66734 0.91103 0
M  V30 40054 H 3813.72 -3.87914 -0.213286 0
M  V30 40055 H 3815.39 -3.94213 2.39569 0
M  V30 40056 H 3813.63 -3.67061 2.3119 0
M  V30 40057 H 3814.3 -5.22023 1.79432 0
M  V30 40058 H 3816.78 -4.15677 0.187484 0
M  V30 40059 H 3815.66 -5.48546 -0.197163 0
M  V30 40060 H 3815.92 -4.20357 -1.36939 0
M  V30 40061 N 3814.98 -0.464428 -1.50602 0
M  V30 40062 C 3816.39 -0.00770867 -1.86698 0
M  V30 40063 C 3816.74 1.39492 -1.37973 0
M  V30 40064 O 3815.86 2.03286 -0.741879 0
M  V30 40065 C 3816.46 -0.00721278 -3.38799 0
M  V30 40066 C 3815.02 0.394012 -3.74332 0
M  V30 40067 C 3814.16 -0.395543 -2.74464 0
M  V30 40068 H 3817.12 -0.679021 -1.4344 0
M  V30 40069 H 3817.14 0.796431 -3.72072 0
M  V30 40070 H 3816.65 -1.02818 -3.74233 0
M  V30 40071 H 3814.75 1.41958 -3.44498 0
M  V30 40072 H 3814.86 0.0999861 -4.78996 0
M  V30 40073 H 3813.23 0.149858 -2.54259 0
M  V30 40074 H 3814.01 -1.4159 -3.12741 0
M  V30 40075 N 3816.45 1.56367 -0.196777 0
M  V30 40076 C 3817.39 2.15075 0.76277 0
M  V30 40077 C 3818.37 1.08794 1.20842 0
M  V30 40078 O 3819.55 1.36915 1.29563 0
M  V30 40079 C 3816.68 2.71099 2.03034 0
M  V30 40080 C 3815.72 3.89984 1.72669 0
M  V30 40081 S 3816.56 5.28331 0.87331 0
M  V30 40082 C 3817.71 5.87778 2.15099 0
M  V30 40083 H 3817.94 2.96128 0.263699 0
M  V30 40084 H 3815.48 1.54389 0.0182416 0
M  V30 40085 H 3817.44 3.04021 2.75828 0
M  V30 40086 H 3816.1 1.90084 2.50053 0
M  V30 40087 H 3815.29 4.27601 2.66784 0
M  V30 40088 H 3814.89 3.58081 1.07954 0
M  V30 40089 H 3817.18 6.02243 3.10338 0
M  V30 40090 H 3818.13 6.84334 1.81912 0
M  V30 40091 H 3818.53 5.16398 2.28022 0
M  V30 40092 N 3817.93 -0.0768128 1.57413 0
M  V30 40093 C 3818.84 -1.10979 2.0669 0
M  V30 40094 C 3819.86 -1.42715 0.995417 0
M  V30 40095 O 3821.03 -1.52991 1.30979 0
M  V30 40096 C 3818.1 -2.40542 2.49681 0
M  V30 40097 C 3817.16 -2.15824 3.71105 0
M  V30 40098 C 3816.39 -3.39209 4.12035 0
M  V30 40099 O 3816.62 -4.48139 3.52885 0
M  V30 40100 O 3815.55 -3.27717 5.04861 0
M  V30 40101 H 3819.38 -0.72119 2.95013 0
M  V30 40102 H 3816.96 -0.290599 1.46547 0
M  V30 40103 H 3818.84 -3.168 2.77877 0
M  V30 40104 H 3817.52 -2.78792 1.64489 0
M  V30 40105 H 3816.43 -1.37287 3.47999 0
M  V30 40106 H 3817.76 -1.82457 4.57133 0
M  V30 40107 N 3819.41 -1.53708 -0.348084 0
M  V30 40108 C 3820.36 -1.81378 -1.42726 0
M  V30 40109 C 3821.33 -0.659186 -1.5246 0
M  V30 40110 O 3822.51 -0.903159 -1.6807 0
M  V30 40111 C 3819.65 -2.02503 -2.7944 0
M  V30 40112 C 3818.77 -3.30216 -2.78534 0
M  V30 40113 C 3817.9 -3.41434 -4.06936 0
M  V30 40114 C 3816.94 -4.63114 -4.0024 0
M  V30 40115 N 3816.08 -4.71389 -5.20324 0
M  V30 40116 H 3820.92 -2.73456 -1.18431 0
M  V30 40117 H 3818.45 -1.35448 -0.573786 0
M  V30 40118 H 3820.41 -2.12739 -3.58884 0
M  V30 40119 H 3819.04 -1.13743 -3.02097 0
M  V30 40120 H 3818.09 -3.28844 -1.91221 0
M  V30 40121 H 3819.41 -4.19751 -2.69463 0
M  V30 40122 H 3818.56 -3.51078 -4.94802 0
M  V30 40123 H 3817.3 -2.49946 -4.18782 0
M  V30 40124 H 3816.3 -4.53551 -3.10759 0
M  V30 40125 H 3817.53 -5.5596 -3.89981 0
M  V30 40126 H 3815.47 -3.82809 -5.32722 0
M  V30 40127 H 3815.39 -5.54853 -5.13492 0
M  V30 40128 H 3816.66 -4.85337 -6.09974 0
M  V30 40129 N 3820.89 0.608851 -1.45364 0
M  V30 40130 C 3821.82 1.73037 -1.56781 0
M  V30 40131 C 3822.8 1.64848 -0.419434 0
M  V30 40132 O 3823.98 1.83267 -0.642412 0
M  V30 40133 C 3821.11 3.11637 -1.53296 0
M  V30 40134 C 3820.07 3.34637 -2.66838 0
M  V30 40135 C 3819.39 4.73496 -2.48406 0
M  V30 40136 C 3820.69 3.25014 -4.08856 0
M  V30 40137 H 3822.39 1.63739 -2.50659 0
M  V30 40138 H 3819.93 0.786317 -1.20636 0
M  V30 40139 H 3821.89 3.89893 -1.5988 0
M  V30 40140 H 3820.61 3.21772 -0.559471 0
M  V30 40141 H 3819.27 2.58771 -2.59679 0
M  V30 40142 H 3818.92 4.80363 -1.49199 0
M  V30 40143 H 3818.62 4.8984 -3.24546 0
M  V30 40144 H 3820.14 5.53953 -2.56843 0
M  V30 40145 H 3821.56 3.93146 -4.17264 0
M  V30 40146 H 3819.95 3.52889 -4.85376 0
M  V30 40147 H 3821.02 2.22473 -4.30852 0
M  V30 40148 N 3822.37 1.32633 0.851242 0
M  V30 40149 C 3823.31 1.21855 1.9601 0
M  V30 40150 C 3824.28 0.0999432 1.65799 0
M  V30 40151 O 3825.47 0.276082 1.88792 0
M  V30 40152 C 3822.61 0.951073 3.31736 0
M  V30 40153 C 3821.72 2.15479 3.74423 0
M  V30 40154 C 3820.86 1.82251 4.98957 0
M  V30 40155 C 3819.9 2.98924 5.34145 0
M  V30 40156 N 3819.03 2.65765 6.49856 0
M  V30 40157 H 3823.87 2.167 2.04561 0
M  V30 40158 H 3821.41 1.07773 1.00117 0
M  V30 40159 H 3823.37 0.776473 4.09911 0
M  V30 40160 H 3822 0.0394028 3.22776 0
M  V30 40161 H 3821.05 2.43955 2.91873 0
M  V30 40162 H 3822.36 3.02743 3.96419 0
M  V30 40163 H 3821.52 1.61362 5.84848 0
M  V30 40164 H 3820.25 0.922056 4.78904 0
M  V30 40165 H 3819.26 3.2044 4.46764 0
M  V30 40166 H 3820.48 3.89706 5.56153 0
M  V30 40167 H 3818.43 1.78265 6.31314 0
M  V30 40168 H 3818.35 3.46559 6.71888 0
M  V30 40169 H 3819.62 2.48315 7.38891 0
M  V30 40170 N 3823.84 -1.06794 1.159 0
M  V30 40171 C 3824.81 -2.12313 0.863464 0
M  V30 40172 C 3825.81 -1.60196 -0.139298 0
M  V30 40173 O 3827 -1.73962 0.0910011 0
M  V30 40174 C 3824.13 -3.39662 0.29031 0
M  V30 40175 H 3825.32 -2.39963 1.79883 0
M  V30 40176 H 3822.88 -1.22777 0.967245 0
M  V30 40177 H 3823.61 -3.17658 -0.652981 0
M  V30 40178 H 3823.4 -3.78794 1.0128 0
M  V30 40179 H 3824.89 -4.17477 0.101313 0
M  V30 40180 N 3825.32 -0.956681 -1.25241 0
M  V30 40181 C 3826.25 -0.496614 -2.28158 0
M  V30 40182 C 3827.23 0.458103 -1.63815 0
M  V30 40183 O 3828.42 0.356614 -1.90898 0
M  V30 40184 C 3825.55 0.224479 -3.46574 0
M  V30 40185 C 3824.5 -0.645179 -4.23109 0
M  V30 40186 C 3823.83 0.206773 -5.343 0
M  V30 40187 C 3825.13 -1.92431 -4.85559 0
M  V30 40188 H 3826.82 -1.35679 -2.66892 0
M  V30 40189 H 3824.37 -0.65385 -1.283 0
M  V30 40190 H 3826.32 0.557476 -4.17696 0
M  V30 40191 H 3825.05 1.11892 -3.06835 0
M  V30 40192 H 3823.7 -0.96129 -3.53772 0
M  V30 40193 H 3823.35 1.10103 -4.90802 0
M  V30 40194 H 3823.05 -0.371817 -5.86422 0
M  V30 40195 H 3824.58 0.534691 -6.08254 0
M  V30 40196 H 3825.99 -1.65759 -5.48814 0
M  V30 40197 H 3824.39 -2.44872 -5.47866 0
M  V30 40198 H 3825.46 -2.62614 -4.0763 0
M  V30 40199 N 3826.8 1.39908 -0.725493 0
M  V30 40200 C 3828.05 2.00999 -0.269685 0
M  V30 40201 C 3828.38 1.57418 1.13724 0
M  V30 40202 O 3827.65 0.798724 1.77343 0
M  V30 40203 C 3827.94 3.58287 -0.360847 0
M  V30 40204 C 3827.79 4.11913 -1.80686 0
M  V30 40205 C 3829.11 4.39318 0.26225 0
M  V30 40206 H 3826.23 0.730257 -0.0994675 0
M  V30 40207 H 3828.87 1.66249 -0.919859 0
M  V30 40208 H 3827.02 3.88022 0.192711 0
M  V30 40209 H 3828.69 3.92937 -2.41656 0
M  V30 40210 H 3826.94 3.6583 -2.33133 0
M  V30 40211 H 3827.61 5.21064 -1.82198 0
M  V30 40212 H 3830.08 4.15572 -0.209525 0
M  V30 40213 H 3828.96 5.48643 0.16807 0
M  V30 40214 H 3829.22 4.21077 1.34708 0
M  V30 40215 N 3828.28 0.472408 1.50353 0
M  V30 40216 C 3829.24 -0.309771 2.27097 0
M  V30 40217 C 3830.24 -0.919282 1.31931 0
M  V30 40218 O 3831.43 -0.788257 1.55345 0
M  V30 40219 C 3828.56 -1.44143 3.08926 0
M  V30 40220 H 3829.76 0.363281 2.97692 0
M  V30 40221 H 3827.31 0.22651 1.5465 0
M  V30 40222 H 3828.04 -2.1495 2.42831 0
M  V30 40223 H 3827.83 -1.01016 3.78864 0
M  V30 40224 H 3829.32 -1.99316 3.66964 0
M  V30 40225 N 3829.76 -1.5626 0.205067 0
M  V30 40226 C 3830.99 -2.02246 -0.436384 0
M  V30 40227 C 3831.4 -1.08511 -1.54502 0
M  V30 40228 O 3830.76 -0.0917312 -1.82269 0
M  V30 40229 C 3830.81 -3.47866 -0.983422 0
M  V30 40230 O 3830.53 -4.38025 0.0809936 0
M  V30 40231 C 3832.03 -4.09418 -1.69976 0
M  V30 40232 H 3829.25 -0.662159 -0.108566 0
M  V30 40233 H 3831.79 -2.02033 0.316694 0
M  V30 40234 H 3829.95 -3.48747 -1.68684 0
M  V30 40235 H 3830.36 -5.23476 -0.327659 0
M  V30 40236 H 3831.84 -5.13131 -2.03472 0
M  V30 40237 H 3832.31 -3.53454 -2.60704 0
M  V30 40238 H 3832.92 -4.12339 -1.04195 0
M  V30 40239 N 3831.24 0.0684638 -1.57451 0
M  V30 40240 C 3832.2 1.06542 -2.02932 0
M  V30 40241 C 3833.2 1.31398 -0.926884 0
M  V30 40242 O 3834.39 1.27063 -1.19167 0
M  V30 40243 C 3831.52 2.40825 -2.4128 0
M  V30 40244 H 3832.71 0.673349 -2.92243 0
M  V30 40245 H 3830.27 0.31428 -1.53108 0
M  V30 40246 H 3831 2.84858 -1.55005 0
M  V30 40247 H 3830.79 2.24125 -3.21731 0
M  V30 40248 H 3832.28 3.12479 -2.77032 0
M  V30 40249 N 3832.71 1.5389 0.339928 0
M  V30 40250 C 3833.66 1.78513 1.41835 0
M  V30 40251 C 3834.65 0.640473 1.47603 0
M  V30 40252 O 3835.84 0.899977 1.52412 0
M  V30 40253 C 3832.97 2.00139 2.78925 0
M  V30 40254 C 3832.05 3.2068 2.77534 0
M  V30 40255 N 3832.45 4.42075 2.45771 0
M  V30 40256 C 3830.74 3.21922 3.08678 0
M  V30 40257 C 3831.44 5.23942 2.52705 0
M  V30 40258 N 3830.42 4.60741 2.88476 0
M  V30 40259 H 3834.22 2.69962 1.1618 0
M  V30 40260 H 3831.74 1.52864 0.548313 0
M  V30 40261 H 3833.73 2.15914 3.56633 0
M  V30 40262 H 3832.39 1.09934 3.05524 0
M  V30 40263 H 3833.4 4.69362 2.18905 0
M  V30 40264 H 3830.08 2.41697 3.40424 0
M  V30 40265 H 3831.47 6.30842 2.31276 0
M  V30 40266 N 3834.19 -0.601133 1.45685 0
M  V30 40267 C 3835.42 -1.39132 1.53808 0
M  V30 40268 C 3835.84 -1.87297 0.173658 0
M  V30 40269 O 3835.2 -1.60514 -0.842903 0
M  V30 40270 C 3835.25 -2.56747 2.53206 0
M  V30 40271 O 3834.35 -3.5759 2.05433 0
M  V30 40272 H 3833.69 -0.415109 0.518247 0
M  V30 40273 H 3836.22 -0.730973 1.91097 0
M  V30 40274 H 3836.23 -3.03908 2.72221 0
M  V30 40275 H 3834.91 -2.21041 3.52298 0
M  V30 40276 H 3833.48 -3.17035 1.96324 0
M  V30 40277 N 3835.67 -1.33083 -0.844196 0
M  V30 40278 C 3836.58 -1.24916 -1.98578 0
M  V30 40279 C 3837.6 -0.160738 -1.73256 0
M  V30 40280 O 3838.77 -0.383348 -1.97718 0
M  V30 40281 C 3835.84 -0.983121 -3.32469 0
M  V30 40282 C 3834.9 -2.16103 -3.70942 0
M  V30 40283 C 3834.13 -1.90758 -4.98445 0
M  V30 40284 O 3834.35 -0.855272 -5.63951 0
M  V30 40285 O 3833.29 -2.77149 -5.34296 0
M  V30 40286 H 3837.11 -2.20908 -2.08406 0
M  V30 40287 H 3834.7 -1.13076 -0.976427 0
M  V30 40288 H 3836.58 -0.851684 -4.12704 0
M  V30 40289 H 3835.26 -0.0534409 -3.23656 0
M  V30 40290 H 3834.16 -2.34798 -2.9124 0
M  V30 40291 H 3835.5 -3.07386 -3.84415 0
M  V30 40292 N 3837.15 1.06178 -1.16464 0
M  V30 40293 C 3838.08 2.15648 -0.895437 0
M  V30 40294 C 3839.06 1.69358 0.158699 0
M  V30 40295 O 3840.24 1.94197 0.0105519 0
M  V30 40296 C 3837.37 3.45023 -0.39702 0
M  V30 40297 C 3836.33 4.04827 -1.3892 0
M  V30 40298 C 3835.65 5.29426 -0.749136 0
M  V30 40299 C 3836.95 4.43471 -2.75918 0
M  V30 40300 H 3838.65 2.38426 -1.81089 0
M  V30 40301 H 3836.19 1.14587 -0.872118 0
M  V30 40302 H 3838.15 4.20943 -0.19616 0
M  V30 40303 H 3836.87 3.21868 0.553945 0
M  V30 40304 H 3835.53 3.30965 -1.57662 0
M  V30 40305 H 3835.18 5.02568 0.208351 0
M  V30 40306 H 3834.88 5.70398 -1.41138 0
M  V30 40307 H 3836.4 6.08042 -0.558324 0
M  V30 40308 H 3837.82 5.10468 -2.60951 0
M  V30 40309 H 3836.21 4.95431 -3.38627 0
M  V30 40310 H 3837.28 3.54278 -3.31082 0
M  V30 40311 N 3838.63 0.96331 1.24732 0
M  V30 40312 C 3839.59 0.494864 2.23794 0
M  V30 40313 C 3840.59 -0.406198 1.55585 0
M  V30 40314 O 3841.78 -0.202272 1.73022 0
M  V30 40315 C 3838.91 -0.283904 3.39716 0
M  V30 40316 H 3840.1 1.37055 2.66751 0
M  V30 40317 H 3837.66 0.747452 1.37269 0
M  V30 40318 H 3838.39 -1.17688 3.02192 0
M  V30 40319 H 3838.18 0.362655 3.90419 0
M  V30 40320 H 3839.67 -0.600827 4.13255 0
M  V30 40321 N 3840.1 -1.39522 0.732902 0
M  V30 40322 C 3841.05 -2.30618 0.0915554 0
M  V30 40323 C 3842.02 -1.49105 -0.731917 0
M  V30 40324 O 3843.21 -1.77797 -0.692311 0
M  V30 40325 C 3840.35 -3.35427 -0.811328 0
M  V30 40326 C 3839.46 -4.31993 0.0245337 0
M  V30 40327 C 3838.59 -5.2387 -0.879429 0
M  V30 40328 C 3837.63 -6.12088 -0.0386898 0
M  V30 40329 N 3836.77 -6.96327 -0.89847 0
M  V30 40330 H 3841.61 -2.84894 0.874041 0
M  V30 40331 H 3839.15 -1.40281 0.442684 0
M  V30 40332 H 3841.1 -3.94781 -1.34923 0
M  V30 40333 H 3839.73 -2.82612 -1.55981 0
M  V30 40334 H 3838.79 -3.74276 0.679828 0
M  V30 40335 H 3840.1 -4.94216 0.674693 0
M  V30 40336 H 3839.25 -5.88239 -1.48525 0
M  V30 40337 H 3837.99 -4.61963 -1.56337 0
M  V30 40338 H 3837 -5.46733 0.579943 0
M  V30 40339 H 3838.22 -6.76059 0.642006 0
M  V30 40340 H 3836.17 -6.36991 -1.56774 0
M  V30 40341 H 3836.08 -7.55386 -0.304743 0
M  V30 40342 H 3837.35 -7.65129 -1.48992 0
M  V30 40343 N 3841.58 -0.480375 -1.501 0
M  V30 40344 C 3842.83 0.0712549 -2.01974 0
M  V30 40345 C 3843.15 1.39376 -1.36379 0
M  V30 40346 O 3842.42 1.89086 -0.512195 0
M  V30 40347 H 3841 0.0293231 -0.746424 0
M  V30 40348 H 3843.66 -0.632916 -1.84337 0
M  V30 40349 H 3842.76 0.216002 -3.11352 0
M  V30 40350 N 3843.06 1.56149 -0.213351 0
M  V30 40351 C 3844.31 1.98378 0.421186 0
M  V30 40352 C 3844.64 1.10068 1.59996 0
M  V30 40353 O 3843.91 0.156574 1.93869 0
M  V30 40354 C 3844.2 3.49589 0.863689 0
M  V30 40355 C 3844.05 4.48673 -0.318156 0
M  V30 40356 C 3845.37 4.0498 1.72278 0
M  V30 40357 H 3842.49 0.721235 0.151622 0
M  V30 40358 H 3845.13 1.87488 -0.30794 0
M  V30 40359 H 3843.28 3.59 1.48496 0
M  V30 40360 H 3844.95 4.51282 -0.956174 0
M  V30 40361 H 3843.19 4.22886 -0.966955 0
M  V30 40362 H 3843.87 5.51989 0.0342691 0
M  V30 40363 H 3846.34 3.98462 1.19865 0
M  V30 40364 H 3845.22 5.11115 2.00132 0
M  V30 40365 H 3845.48 3.51357 2.68329 0
M  V30 40366 N 3844.54 -0.0601128 1.57485 0
M  V30 40367 C 3845.5 -1.05464 2.03494 0
M  V30 40368 C 3846.5 -1.30905 0.933839 0
M  V30 40369 O 3847.69 -1.26429 1.19839 0
M  V30 40370 C 3844.82 -2.39542 2.42554 0
M  V30 40371 H 3846.02 -0.657841 2.92596 0
M  V30 40372 H 3843.57 -0.306156 1.53272 0
M  V30 40373 H 3844.3 -2.84032 1.56514 0
M  V30 40374 H 3844.09 -2.22415 3.22915 0
M  V30 40375 H 3845.58 -3.11005 2.78685 0
M  V30 40376 N 3846.02 -1.54068 -0.331762 0
M  V30 40377 C 3846.95 -1.85872 -1.41329 0
M  V30 40378 C 3847.93 -0.714814 -1.54352 0
M  V30 40379 O 3849.11 -0.967806 -1.68366 0
M  V30 40380 C 3846.24 -2.07879 -2.78215 0
M  V30 40381 C 3845.2 -3.23714 -2.79988 0
M  V30 40382 C 3844.52 -3.31077 -4.19872 0
M  V30 40383 C 3845.82 -4.61554 -2.44468 0
M  V30 40384 H 3847.52 -2.76449 -1.14962 0
M  V30 40385 H 3845.06 -1.33017 -0.551592 0
M  V30 40386 H 3847.02 -2.28712 -3.53933 0
M  V30 40387 H 3845.74 -1.14044 -3.06042 0
M  V30 40388 H 3844.4 -3.02755 -2.06724 0
M  V30 40389 H 3844.05 -2.34815 -4.44827 0
M  V30 40390 H 3843.75 -4.08923 -4.21967 0
M  V30 40391 H 3845.27 -3.54134 -4.97415 0
M  V30 40392 H 3846.68 -4.82323 -3.099 0
M  V30 40393 H 3845.08 -5.4189 -2.57828 0
M  V30 40394 H 3846.15 -4.64361 -1.39632 0
M  V30 40395 N 3847.49 0.593399 -1.46002 0
M  V30 40396 C 3848.77 1.35325 -1.41232 0
M  V30 40397 C 3849.15 2.10907 -0.0902327 0
M  V30 40398 O 3848.5 2.08804 0.928065 0
M  V30 40399 C 3848.71 2.28821 -2.63519 0
M  V30 40400 C 3850.06 2.90986 -3.09213 0
M  V30 40401 O 3851.08 2.39138 -2.63992 0
M  V30 40402 O 3849.94 3.85134 -3.8773 0
M  V30 40403 H 3847.03 0.607493 -0.561143 0
M  V30 40404 H 3849.58 0.615305 -1.58152 0
M  V30 40405 H 3848.35 1.72327 -3.51311 0
M  V30 40406 H 3847.98 3.09972 -2.49004 0
M  V30 40407 N 3848.97 1.33529 0.837127 0
M  V30 40408 C 3850.22 1.24837 1.58934 0
M  V30 40409 C 3850.54 -0.185334 1.94117 0
M  V30 40410 O 3849.81 -1.11451 1.61107 0
M  V30 40411 H 3848.39 0.459068 0.589293 0
M  V30 40412 H 3851.05 1.67269 1.00035 0
M  V30 40413 H 3850.15 1.84329 2.51852 0
M  V30 40414 N 3850.45 -1.05559 1.17026 0
M  V30 40415 C 3851.7 -1.78758 0.957773 0
M  V30 40416 C 3852.03 -1.87312 -0.512619 0
M  V30 40417 O 3851.3 -1.37018 -1.38045 0
M  V30 40418 C 3851.59 -3.22849 1.59501 0
M  V30 40419 C 3851.44 -3.2233 3.13725 0
M  V30 40420 C 3852.76 -4.2059 1.29583 0
M  V30 40421 H 3849.88 -0.648932 0.349365 0
M  V30 40422 H 3852.52 -1.23405 1.44469 0
M  V30 40423 H 3850.67 -3.70115 1.18097 0
M  V30 40424 H 3852.34 -2.83168 3.64161 0
M  V30 40425 H 3850.59 -2.60774 3.46669 0
M  V30 40426 H 3851.26 -4.24012 3.53438 0
M  V30 40427 H 3853.73 -3.81801 1.6543 0
M  V30 40428 H 3852.61 -5.1966 1.76761 0
M  V30 40429 H 3852.87 -4.41572 0.215967 0
M  V30 40430 N 3851.93 -0.969911 -1.2422 0
M  V30 40431 C 3852.86 -0.520785 -2.27618 0
M  V30 40432 C 3853.84 0.440702 -1.64292 0
M  V30 40433 O 3855.02 0.336347 -1.91265 0
M  V30 40434 C 3852.15 0.187707 -3.46792 0
M  V30 40435 C 3851.11 -0.690019 -4.22401 0
M  V30 40436 C 3850.43 0.150092 -5.34489 0
M  V30 40437 C 3851.73 -1.9757 -4.83491 0
M  V30 40438 H 3853.43 -1.38503 -2.65438 0
M  V30 40439 H 3850.97 -0.667421 -1.27599 0
M  V30 40440 H 3852.93 0.513143 -4.18264 0
M  V30 40441 H 3851.65 1.08632 -3.08004 0
M  V30 40442 H 3850.31 -0.998758 -3.52733 0
M  V30 40443 H 3849.96 1.04892 -4.91942 0
M  V30 40444 H 3849.66 -0.433994 -5.85995 0
M  V30 40445 H 3851.18 0.470148 -6.08787 0
M  V30 40446 H 3852.6 -1.71571 -5.47025 0
M  V30 40447 H 3850.99 -2.50669 -5.45238 0
M  V30 40448 H 3852.06 -2.66922 -4.04821 0
M  V30 40449 N 3853.41 1.39131 -0.740291 0
M  V30 40450 C 3854.63 2.05224 -0.299641 0
M  V30 40451 C 3855.06 1.55456 1.05901 0
M  V30 40452 O 3854.41 0.700633 1.67215 0
M  V30 40453 C 3854.46 3.59205 -0.316855 0
M  V30 40454 O 3853.57 4.06524 0.693715 0
M  V30 40455 H 3852.91 0.650099 -0.135157 0
M  V30 40456 H 3855.44 1.78064 -1.00769 0
M  V30 40457 H 3855.45 4.07674 -0.163085 0
M  V30 40458 H 3854.12 3.94789 -1.30821 0
M  V30 40459 H 3852.7 3.69456 0.505647 0
M  V30 40460 N 3854.88 0.488329 1.49844 0
M  V30 40461 C 3856.11 -0.0578443 2.06819 0
M  V30 40462 C 3856.53 -1.31966 1.3502 0
M  V30 40463 O 3855.88 -1.77491 0.424646 0
M  V30 40464 C 3855.94 -0.328372 3.60006 0
M  V30 40465 O 3855.66 0.883414 4.29101 0
M  V30 40466 C 3857.16 -0.919599 4.33657 0
M  V30 40467 H 3854.38 0.0147868 0.670837 0
M  V30 40468 H 3856.92 0.682056 1.92791 0
M  V30 40469 H 3855.08 -1.01823 3.73779 0
M  V30 40470 H 3855.49 0.638505 5.20599 0
M  V30 40471 H 3856.96 -1.05855 5.41755 0
M  V30 40472 H 3857.44 -1.91417 3.95293 0
M  V30 40473 H 3858.05 -0.267597 4.24457 0
M  V30 40474 N 3856.36 -1.56034 0.221629 0
M  V30 40475 C 3857.61 -1.98305 -0.410052 0
M  V30 40476 C 3857.94 -1.10927 -1.59767 0
M  V30 40477 O 3857.19 -0.15423 -1.95091 0
M  V30 40478 C 3857.49 -3.46209 -0.887355 0
M  V30 40479 C 3857.16 -4.50501 0.189751 0
M  V30 40480 C 3855.82 -4.78743 0.485641 0
M  V30 40481 C 3858.17 -5.13048 0.918202 0
M  V30 40482 C 3855.5 -5.66815 1.5145 0
M  V30 40483 C 3857.85 -6.02235 1.9364 0
M  V30 40484 C 3856.52 -6.28821 2.23921 0
M  V30 40485 H 3855.79 -0.725649 -0.150049 0
M  V30 40486 H 3858.43 -1.88736 0.324164 0
M  V30 40487 H 3856.74 -3.52982 -1.70033 0
M  V30 40488 H 3858.43 -3.76287 -1.38596 0
M  V30 40489 H 3855.02 -4.2857 -0.0510234 0
M  V30 40490 H 3859.21 -4.91298 0.702847 0
M  V30 40491 H 3854.46 -5.85679 1.75473 0
M  V30 40492 H 3858.64 -6.49751 2.50592 0
M  V30 40493 H 3856.27 -6.96863 3.03786 0
M  V30 40494 N 3857.84 0.0517601 -1.57515 0
M  V30 40495 C 3859.09 0.748173 -1.88495 0
M  V30 40496 C 3859.42 1.762 -0.816525 0
M  V30 40497 O 3858.69 1.93746 0.17104 0
M  V30 40498 C 3858.98 1.43819 -3.30133 0
M  V30 40499 C 3858.83 0.439421 -4.47648 0
M  V30 40500 C 3860.15 2.37806 -3.70319 0
M  V30 40501 H 3857.27 0.270525 -0.685555 0
M  V30 40502 H 3859.91 0.0111123 -1.89997 0
M  V30 40503 H 3858.06 2.06645 -3.28983 0
M  V30 40504 H 3859.73 -0.185169 -4.60928 0
M  V30 40505 H 3857.98 -0.243457 -4.33116 0
M  V30 40506 H 3858.65 0.960254 -5.43584 0
M  V30 40507 H 3861.12 1.85043 -3.72691 0
M  V30 40508 H 3860 2.83079 -4.70274 0
M  V30 40509 H 3860.26 3.23495 -3.01336 0
M  V30 40510 N 3859.32 1.54242 0.323587 0
M  V30 40511 C 3860.54 1.76728 1.08545 0
M  V30 40512 C 3860.97 0.514407 1.80929 0
M  V30 40513 O 3860.33 -0.534039 1.73256 0
M  V30 40514 C 3860.38 2.9602 2.05923 0
M  V30 40515 O 3859.48 2.67564 3.1382 0
M  V30 40516 H 3858.82 0.585621 0.31296 0
M  V30 40517 H 3861.35 2.01265 0.367889 0
M  V30 40518 H 3861.36 3.23367 2.48793 0
M  V30 40519 H 3860.04 3.86877 1.52639 0
M  V30 40520 H 3858.61 2.51168 2.75625 0
M  V30 40521 N 3860.8 -0.585648 1.46314 0
M  V30 40522 C 3861.76 -1.67694 1.56242 0
M  V30 40523 C 3862.76 -1.54668 0.439835 0
M  V30 40524 O 3863.95 -1.59339 0.704047 0
M  V30 40525 C 3861.08 -3.07102 1.47991 0
M  V30 40526 H 3862.28 -1.60251 2.53495 0
M  V30 40527 H 3859.83 -0.803241 1.34081 0
M  V30 40528 H 3860.56 -3.20103 0.520063 0
M  V30 40529 H 3860.35 -3.17965 2.29436 0
M  V30 40530 H 3861.84 -3.86549 1.58017 0
M  V30 40531 N 3862.28 -1.33971 -0.830033 0
M  V30 40532 C 3863.24 -1.24862 -1.92204 0
M  V30 40533 C 3864.24 -0.165518 -1.59946 0
M  V30 40534 O 3865.43 -0.417659 -1.69119 0
M  V30 40535 C 3862.56 -0.926086 -3.2808 0
M  V30 40536 H 3863.75 -2.21935 -2.01705 0
M  V30 40537 H 3861.31 -1.18156 -1.02317 0
M  V30 40538 H 3862.04 0.0417794 -3.24273 0
M  V30 40539 H 3861.83 -1.70944 -3.52875 0
M  V30 40540 H 3863.32 -0.887335 -4.08064 0
M  V30 40541 N 3863.75 1.04937 -1.17584 0
M  V30 40542 C 3865.17 1.30157 -0.923656 0
M  V30 40543 C 3865.37 1.97164 0.415763 0
M  V30 40544 O 3864.43 2.24682 1.15214 0
M  V30 40545 C 3865.74 2.16884 -2.08283 0
M  V30 40546 C 3867.29 2.30258 -2.12015 0
M  V30 40547 C 3867.76 3.20347 -3.27326 0
M  V30 40548 N 3869.25 3.27933 -3.2713 0
M  V30 40549 C 3869.99 3.97772 -4.12995 0
M  V30 40550 N 3869.48 4.70016 -5.08976 0
M  V30 40551 N 3871.28 3.93962 -4.00937 0
M  V30 40552 H 3863.43 0.598449 -2.03795 0
M  V30 40553 H 3865.69 0.326512 -0.889996 0
M  V30 40554 H 3865.4 1.74943 -3.05103 0
M  V30 40555 H 3865.27 3.1753 -2.03604 0
M  V30 40556 H 3867.66 2.71439 -1.15779 0
M  V30 40557 H 3867.74 1.29232 -2.20755 0
M  V30 40558 H 3867.38 2.79879 -4.23828 0
M  V30 40559 H 3867.31 4.21384 -3.15822 0
M  V30 40560 H 3869.8 2.76461 -2.57639 0
M  V30 40561 H 3870.12 5.20875 -5.70885 0
M  V30 40562 H 3868.46 4.6895 -5.12943 0
M  V30 40563 H 3871.65 3.36649 -3.25246 0
M  V30 40564 H 3871.83 4.4812 -4.68073 0
M  V30 40565 N 3865.23 0.976485 1.23703 0
M  V30 40566 C 3866.16 0.471577 2.24296 0
M  V30 40567 C 3867.18 -0.424456 1.57169 0
M  V30 40568 O 3868.37 -0.229221 1.77022 0
M  V30 40569 C 3865.47 -0.337562 3.37215 0
M  V30 40570 C 3864.64 0.550662 4.3392 0
M  V30 40571 C 3863.7 -0.20396 5.25805 0
M  V30 40572 O 3862.72 0.405095 5.67757 0
M  V30 40573 N 3863.93 -1.49107 5.61024 0
M  V30 40574 H 3866.69 1.3365 2.6825 0
M  V30 40575 H 3864.25 0.849306 1.37835 0
M  V30 40576 H 3866.24 -0.850644 3.95659 0
M  V30 40577 H 3864.81 -1.10346 2.92476 0
M  V30 40578 H 3864.03 1.24462 3.74036 0
M  V30 40579 H 3865.32 1.15613 4.95491 0
M  V30 40580 H 3864.72 -2.00748 5.28883 0
M  V30 40581 H 3863.28 -1.94967 6.21958 0
M  V30 40582 N 3866.71 -1.38737 0.747659 0
M  V30 40583 C 3867.96 -1.99852 0.300587 0
M  V30 40584 C 3868.28 -1.5964 -1.11983 0
M  V30 40585 O 3867.55 -0.850478 -1.76476 0
M  V30 40586 H 3866.13 -0.73913 0.108147 0
M  V30 40587 H 3868.79 -1.69593 0.960435 0
M  V30 40588 H 3867.89 -3.10028 0.35901 0
M  V30 40589 N 3868.19 -0.496268 -1.49583 0
M  V30 40590 C 3869.43 0.0500014 -2.02738 0
M  V30 40591 C 3869.77 1.37081 -1.37559 0
M  V30 40592 O 3869.04 1.87703 -0.509673 0
M  V30 40593 C 3869.32 0.207511 -3.59502 0
M  V30 40594 C 3869.18 -1.13609 -4.35216 0
M  V30 40595 C 3870.5 0.950367 -4.29716 0
M  V30 40596 H 3867.62 0.0166975 -0.736811 0
M  V30 40597 H 3870.26 -0.64676 -1.78653 0
M  V30 40598 H 3868.41 0.800966 -3.80154 0
M  V30 40599 H 3870.08 -1.76806 -4.26072 0
M  V30 40600 H 3868.32 -1.72655 -3.97961 0
M  V30 40601 H 3868.99 -0.979238 -5.43245 0
M  V30 40602 H 3871.47 0.4471 -4.13691 0
M  V30 40603 H 3870.35 1.02941 -5.39161 0
M  V30 40604 H 3870.61 1.99297 -3.9463 0
M  V30 40605 N 3869.67 1.55914 -0.2299 0
M  V30 40606 C 3870.91 1.98814 0.400122 0
M  V30 40607 C 3871.24 1.11759 1.58819 0
M  V30 40608 O 3870.52 0.177128 1.93692 0
M  V30 40609 C 3870.8 3.50485 0.826562 0
M  V30 40610 C 3870.66 4.48311 -0.365725 0
M  V30 40611 C 3871.97 4.06784 1.67973 0
M  V30 40612 H 3869.09 0.722802 0.143964 0
M  V30 40613 H 3871.74 1.87151 -0.327808 0
M  V30 40614 H 3869.89 3.60555 1.4468 0
M  V30 40615 H 3871.56 4.50242 -1.00398 0
M  V30 40616 H 3869.8 4.21836 -1.01175 0
M  V30 40617 H 3870.47 5.51995 -0.0242786 0
M  V30 40618 H 3872.95 3.9971 1.15632 0
M  V30 40619 H 3871.82 5.13209 1.94699 0
M  V30 40620 H 3872.08 3.54183 2.64588 0
M  V30 40621 N 3871.14 -0.043406 1.5754 0
M  V30 40622 C 3872.42 -0.771681 1.79734 0
M  V30 40623 C 3872.8 -1.94333 0.824494 0
M  V30 40624 O 3872.15 -2.28092 -0.136445 0
M  V30 40625 C 3872.36 -1.21815 3.27051 0
M  V30 40626 C 3873.71 -1.63995 3.91651 0
M  V30 40627 O 3874.73 -1.3131 3.31114 0
M  V30 40628 O 3873.59 -2.24609 4.9821 0
M  V30 40629 H 3870.68 -0.371988 0.738616 0
M  V30 40630 H 3873.23 -0.0212889 1.69687 0
M  V30 40631 H 3872 -0.38109 3.8944 0
M  V30 40632 H 3871.62 -2.02899 3.41932 0
M  V30 40633 N 3872.62 -1.54412 -0.315402 0
M  V30 40634 C 3873.85 -1.76981 -1.0717 0
M  V30 40635 C 3874.26 -0.522317 -1.81431 0
M  V30 40636 O 3873.62 0.507317 -1.75307 0
M  V30 40637 C 3873.67 -2.96822 -2.06347 0
M  V30 40638 O 3873.39 -4.16749 -1.35101 0
M  V30 40639 C 3874.89 -3.31666 -2.9413 0
M  V30 40640 H 3872.11 -0.590622 -0.318444 0
M  V30 40641 H 3874.66 -2.01323 -0.359049 0
M  V30 40642 H 3872.81 -2.74729 -2.73135 0
M  V30 40643 H 3873.23 -4.84215 -2.01585 0
M  V30 40644 H 3874.7 -4.188 -3.59598 0
M  V30 40645 H 3875.18 -2.49188 -3.61665 0
M  V30 40646 H 3875.78 -3.55867 -2.32893 0
M  V30 40647 N 3874.1 0.57788 -1.46623 0
M  V30 40648 C 3875.38 1.33819 -1.4266 0
M  V30 40649 C 3875.76 2.10799 -0.112597 0
M  V30 40650 O 3875.11 2.09777 0.905867 0
M  V30 40651 C 3875.32 2.26013 -2.65931 0
M  V30 40652 C 3876.66 2.8769 -3.12282 0
M  V30 40653 O 3877.69 2.36324 -2.66513 0
M  V30 40654 O 3876.55 3.81 -3.91793 0
M  V30 40655 H 3873.64 0.601507 -0.567554 0
M  V30 40656 H 3876.19 0.598497 -1.58796 0
M  V30 40657 H 3874.96 1.68591 -3.53119 0
M  V30 40658 H 3874.58 3.07314 -2.52278 0
M  V30 40659 N 3875.58 1.34409 0.822917 0
M  V30 40660 C 3876.82 1.26954 1.58147 0
M  V30 40661 C 3877.16 -0.160188 1.93538 0
M  V30 40662 O 3876.43 -1.10557 1.60023 0
M  V30 40663 C 3876.72 2.16037 2.88098 0
M  V30 40664 C 3876.57 3.67546 2.59287 0
M  V30 40665 C 3877.89 2.04563 3.89669 0
M  V30 40666 H 3875.01 0.462514 0.573803 0
M  V30 40667 H 3877.65 1.64661 0.947988 0
M  V30 40668 H 3875.8 1.84009 3.42159 0
M  V30 40669 H 3877.47 4.0994 2.11535 0
M  V30 40670 H 3875.71 3.88635 1.92731 0
M  V30 40671 H 3876.38 4.25244 3.51954 0
M  V30 40672 H 3878.86 2.32683 3.44961 0
M  V30 40673 H 3877.74 2.69119 4.784 0
M  V30 40674 H 3878 1.0226 4.30111 0
M  V30 40675 N 3877.06 -1.04312 1.18139 0
M  V30 40676 C 3878.33 -1.74437 0.884932 0
M  V30 40677 C 3878.71 -2.0201 -0.61279 0
M  V30 40678 O 3878.06 -1.66328 -1.56676 0
M  V30 40679 C 3878.27 -3.03133 1.72949 0
M  V30 40680 C 3879.62 -3.76916 1.95497 0
M  V30 40681 O 3880.64 -3.13025 1.69982 0
M  V30 40682 O 3879.5 -4.91743 2.38435 0
M  V30 40683 H 3876.6 -0.75896 0.328494 0
M  V30 40684 H 3879.14 -1.104 1.2888 0
M  V30 40685 H 3877.91 -2.78874 2.7449 0
M  V30 40686 H 3877.54 -3.74909 1.32398 0
M  V30 40687 N 3878.53 -0.983032 -1.23184 0
M  V30 40688 C 3879.76 -0.671487 -1.957 0
M  V30 40689 C 3880.18 0.76203 -1.72738 0
M  V30 40690 O 3879.53 1.51308 -1.0204 0
M  V30 40691 C 3879.59 -0.955635 -3.4864 0
M  V30 40692 O 3879.31 -2.33281 -3.70825 0
M  V30 40693 C 3880.81 -0.66041 -4.38353 0
M  V30 40694 H 3878.03 -0.249219 -0.623001 0
M  V30 40695 H 3880.57 -1.31513 -1.56603 0
M  V30 40696 H 3878.73 -0.35796 -3.85743 0
M  V30 40697 H 3879.14 -2.42451 -4.651 0
M  V30 40698 H 3880.61 -0.909573 -5.44455 0
M  V30 40699 H 3881.09 0.405538 -4.37324 0
M  V30 40700 H 3881.7 -1.23868 -4.06862 0
M  V30 40701 N 3880.01 1.38338 -0.755006 0
M  V30 40702 C 3880.96 2.30443 -0.128233 0
M  V30 40703 C 3881.93 1.5025 0.708103 0
M  V30 40704 O 3883.11 1.78876 0.663938 0
M  V30 40705 C 3880.25 3.36676 0.757862 0
M  V30 40706 C 3879.37 4.31899 -0.0932569 0
M  V30 40707 C 3878.5 5.25203 0.795974 0
M  V30 40708 C 3877.54 6.12072 -0.058693 0
M  V30 40709 N 3876.68 6.97669 0.787577 0
M  V30 40710 H 3881.52 2.83467 -0.919254 0
M  V30 40711 H 3879.06 1.39559 -0.464945 0
M  V30 40712 H 3881.01 3.96877 1.28625 0
M  V30 40713 H 3879.64 2.85058 1.51465 0
M  V30 40714 H 3878.7 3.73147 -0.739286 0
M  V30 40715 H 3880.01 4.9308 -0.753233 0
M  V30 40716 H 3879.16 5.90528 1.39147 0
M  V30 40717 H 3877.9 4.64392 1.48968 0
M  V30 40718 H 3876.91 5.45741 -0.66685 0
M  V30 40719 H 3878.13 6.74952 -0.74948 0
M  V30 40720 H 3876.08 6.39405 1.46621 0
M  V30 40721 H 3875.99 7.55775 0.184529 0
M  V30 40722 H 3877.26 7.67402 1.368 0
M  V30 40723 N 3881.49 0.504194 1.49317 0
M  V30 40724 C 3882.77 -0.102359 1.95332 0
M  V30 40725 C 3883.15 -1.53819 1.44579 0
M  V30 40726 O 3882.5 -2.18733 0.660933 0
M  V30 40727 C 3882.71 -0.011708 3.48998 0
M  V30 40728 C 3884.05 -0.184027 4.24201 0
M  V30 40729 O 3885.08 -0.086743 3.56094 0
M  V30 40730 O 3883.94 -0.384172 5.45148 0
M  V30 40731 H 3881.03 -0.0935437 0.821693 0
M  V30 40732 H 3883.58 0.56696 1.59949 0
M  V30 40733 H 3882.35 0.989479 3.78583 0
M  V30 40734 H 3881.97 -0.721031 3.91008 0
M  V30 40735 N 3882.97 -1.5579 0.238166 0
M  V30 40736 C 3884.21 -1.99023 -0.389573 0
M  V30 40737 C 3884.55 -1.12599 -1.58225 0
M  V30 40738 O 3883.82 -0.187397 -1.93595 0
M  V30 40739 C 3884.11 -3.50919 -0.807963 0
M  V30 40740 C 3883.96 -4.4811 0.389495 0
M  V30 40741 C 3885.28 -4.07669 -1.65813 0
M  V30 40742 H 3882.4 -0.723556 -0.140129 0
M  V30 40743 H 3885.04 -1.86974 0.337729 0
M  V30 40744 H 3883.19 -3.61317 -1.42766 0
M  V30 40745 H 3884.86 -4.49703 1.02785 0
M  V30 40746 H 3883.1 -4.21294 1.03411 0
M  V30 40747 H 3883.77 -5.51974 0.0535519 0
M  V30 40748 H 3886.25 -4.00318 -1.13511 0
M  V30 40749 H 3885.13 -5.14234 -1.91975 0
M  V30 40750 H 3885.39 -3.55581 -2.62706 0
M  V30 40751 N 3884.45 0.0350506 -1.57561 0
M  V30 40752 C 3885.7 0.726071 -1.88178 0
M  V30 40753 C 3886.01 1.7684 -0.835887 0
M  V30 40754 O 3887.21 2.51159 -1.03109 0
M  V30 40755 C 3885.67 1.34243 -3.33926 0
M  V30 40756 C 3885.28 0.336767 -4.46732 0
M  V30 40757 C 3887.02 2.01368 -3.73699 0
M  V30 40758 C 3884.93 0.961132 -5.83538 0
M  V30 40759 H 3883.86 0.274936 -0.702087 0
M  V30 40760 H 3886.51 -0.0197404 -1.83489 0
M  V30 40761 H 3884.89 2.13775 -3.33341 0
M  V30 40762 H 3886.07 -0.431404 -4.58776 0
M  V30 40763 H 3884.38 -0.232056 -4.15753 0
M  V30 40764 H 3886.98 2.48923 -4.73224 0
M  V30 40765 H 3887.32 2.82925 -3.05384 0
M  V30 40766 H 3887.85 1.28619 -3.76433 0
M  V30 40767 H 3884.59 0.185102 -6.55239 0
M  V30 40768 H 3884.11 1.69928 -5.75226 0
M  V30 40769 H 3885.79 1.47024 -6.30074 0
M  V30 40770 N 3885.92 1.54577 0.307209 0
M  V30 40771 C 3886.83 1.88146 1.40137 0
M  V30 40772 C 3887.85 0.77498 1.55789 0
M  V30 40773 O 3889.03 1.07085 1.70572 0
M  V30 40774 C 3886.09 2.11638 2.74609 0
M  V30 40775 C 3885.15 3.35376 2.67995 0
M  V30 40776 C 3884.39 3.57738 3.96054 0
M  V30 40777 O 3884.61 2.83228 4.95114 0
M  V30 40778 O 3883.54 4.51245 3.98323 0
M  V30 40779 H 3887.37 2.81219 1.14672 0
M  V30 40780 H 3884.95 1.40688 0.502714 0
M  V30 40781 H 3886.84 2.28326 3.54182 0
M  V30 40782 H 3885.51 1.21752 2.9993 0
M  V30 40783 H 3884.42 3.24057 1.86916 0
M  V30 40784 H 3885.75 4.25372 2.47627 0
M  V30 40785 N 3887.4 -0.570096 1.46927 0
M  V30 40786 C 3888.64 -1.33874 1.54458 0
M  V30 40787 C 3889.01 -1.90989 0.196774 0
M  V30 40788 O 3890.21 -2.68398 0.146871 0
M  V30 40789 C 3888.48 -2.42866 2.62204 0
M  V30 40790 S 3890.04 -3.29989 2.89228 0
M  V30 40791 H 3886.86 -0.455931 0.545572 0
M  V30 40792 H 3889.46 -0.654048 1.84235 0
M  V30 40793 H 3888.16 -1.99319 3.58748 0
M  V30 40794 H 3887.69 -3.16092 2.342 0
M  V30 40795 H 3889.71 -4.42021 2.25459 0
M  V30 40796 N 3888.88 -1.34844 -0.815777 0
M  V30 40797 C 3889.81 -1.29662 -1.9419 0
M  V30 40798 C 3890.79 -0.172733 -1.69221 0
M  V30 40799 O 3891.98 -0.366236 -1.90715 0
M  V30 40800 C 3889.11 -1.05855 -3.30775 0
M  V30 40801 C 3888.06 -2.14787 -3.70203 0
M  V30 40802 C 3887.39 -1.76158 -5.04849 0
M  V30 40803 C 3888.69 -3.56678 -3.81547 0
M  V30 40804 H 3890.38 -2.23888 -1.98783 0
M  V30 40805 H 3887.93 -1.07777 -0.954994 0
M  V30 40806 H 3889.88 -1.00873 -4.09149 0
M  V30 40807 H 3888.6 -0.0807378 -3.265 0
M  V30 40808 H 3887.26 -2.1885 -2.94109 0
M  V30 40809 H 3886.91 -0.770186 -4.97069 0
M  V30 40810 H 3886.61 -2.49071 -5.32201 0
M  V30 40811 H 3888.14 -1.72684 -5.85673 0
M  V30 40812 H 3889.55 -3.54987 -4.50174 0
M  V30 40813 H 3887.95 -4.28273 -4.20359 0
M  V30 40814 H 3889.02 -3.93499 -2.83349 0
M  V30 40815 N 3890.36 1.03684 -1.1869 0
M  V30 40816 C 3891.31 2.11784 -0.917406 0
M  V30 40817 C 3892.28 1.65469 0.14469 0
M  V30 40818 O 3893.46 1.908 0.00423662 0
M  V30 40819 C 3890.6 3.42108 -0.453456 0
M  V30 40820 C 3889.71 4.02014 -1.58141 0
M  V30 40821 C 3888.85 5.20316 -1.0698 0
M  V30 40822 C 3887.89 5.72261 -2.17219 0
M  V30 40823 N 3887.03 6.81846 -1.67423 0
M  V30 40824 H 3891.87 2.34174 -1.84301 0
M  V30 40825 H 3889.4 1.14862 -0.918971 0
M  V30 40826 H 3891.36 4.1687 -0.165917 0
M  V30 40827 H 3889.99 3.19853 0.435163 0
M  V30 40828 H 3889.04 3.24543 -1.98434 0
M  V30 40829 H 3890.35 4.3659 -2.41227 0
M  V30 40830 H 3889.51 6.02207 -0.737012 0
M  V30 40831 H 3888.25 4.87254 -0.208572 0
M  V30 40832 H 3887.25 4.88989 -2.51337 0
M  V30 40833 H 3888.48 6.07365 -3.03783 0
M  V30 40834 H 3886.42 6.50652 -0.835955 0
M  V30 40835 H 3886.34 7.15506 -2.44103 0
M  V30 40836 H 3887.61 7.67352 -1.37083 0
M  V30 40837 N 3891.84 0.989551 1.22661 0
M  V30 40838 C 3892.77 0.556931 2.26761 0
M  V30 40839 C 3893.75 -0.414509 1.64972 0
M  V30 40840 O 3894.93 -0.305876 1.91776 0
M  V30 40841 C 3892.06 -0.132512 3.47047 0
M  V30 40842 C 3891.02 0.757132 4.2125 0
M  V30 40843 C 3890.34 -0.06504 5.3466 0
M  V30 40844 C 3891.64 2.05237 4.80286 0
M  V30 40845 H 3893.34 1.42708 2.63201 0
M  V30 40846 H 3890.88 0.687636 1.26521 0
M  V30 40847 H 3892.84 -0.446536 4.19027 0
M  V30 40848 H 3891.56 -1.03718 3.09694 0
M  V30 40849 H 3890.22 1.05475 3.51099 0
M  V30 40850 H 3889.87 -0.970521 4.93548 0
M  V30 40851 H 3889.57 0.527166 5.8523 0
M  V30 40852 H 3891.09 -0.373235 6.09458 0
M  V30 40853 H 3892.51 1.80252 5.44226 0
M  V30 40854 H 3890.9 2.59312 5.41182 0
M  V30 40855 H 3891.97 2.73329 4.00524 0
M  V30 40856 N 3893.32 -1.37936 0.762332 0
M  V30 40857 C 3894.54 -2.04721 0.332253 0
M  V30 40858 C 3894.97 -1.57121 -1.03415 0
M  V30 40859 O 3894.32 -0.727146 -1.66079 0
M  V30 40860 C 3894.37 -3.58656 0.373962 0
M  V30 40861 O 3893.48 -4.07576 -0.628953 0
M  V30 40862 H 3892.82 -0.647866 0.145483 0
M  V30 40863 H 3895.35 -1.76438 1.0359 0
M  V30 40864 H 3895.36 -4.07363 0.227921 0
M  V30 40865 H 3894.03 -3.92658 1.37085 0
M  V30 40866 H 3892.61 -3.70214 -0.446806 0
M  V30 40867 N 3894.79 -0.512106 -1.49048 0
M  V30 40868 C 3895.74 0.27985 -2.26276 0
M  V30 40869 C 3896.73 0.925764 -1.31599 0
M  V30 40870 O 3897.92 0.831526 -1.56252 0
M  V30 40871 C 3895.05 1.33704 -3.16193 0
M  V30 40872 C 3894.13 0.696809 -4.18336 0
M  V30 40873 N 3894.53 -0.20706 -5.05376 0
M  V30 40874 C 3892.82 0.956111 -4.35631 0
M  V30 40875 C 3893.52 -0.574645 -5.78855 0
M  V30 40876 N 3892.5 0.0600746 -5.43567 0
M  V30 40877 H 3896.3 -0.415787 -2.90944 0
M  V30 40878 H 3893.82 -0.328921 -1.59034 0
M  V30 40879 H 3895.81 1.91795 -3.70163 0
M  V30 40880 H 3894.47 2.03424 -2.53079 0
M  V30 40881 H 3895.48 -0.578571 -5.14658 0
M  V30 40882 H 3892.16 1.64523 -3.83717 0
M  V30 40883 H 3893.55 -1.31476 -6.58911 0
M  V30 40884 N 3896.27 1.55662 -0.246424 0
M  V30 40885 C 3897.22 2.18018 0.667238 0
M  V30 40886 C 3898.21 1.13592 1.13955 0
M  V30 40887 O 3899.4 1.39503 1.0894 0
M  V30 40888 C 3896.53 2.88282 1.86409 0
M  V30 40889 C 3895.61 3.99964 1.4103 0
M  V30 40890 N 3896 5.01333 0.670708 0
M  V30 40891 C 3894.3 4.1251 1.69562 0
M  V30 40892 C 3895 5.80065 0.435838 0
M  V30 40893 N 3893.98 5.34325 0.999907 0
M  V30 40894 H 3897.78 2.9375 0.0940177 0
M  V30 40895 H 3895.29 1.62327 -0.0487206 0
M  V30 40896 H 3897.29 3.31383 2.52964 0
M  V30 40897 H 3895.95 2.14054 2.44154 0
M  V30 40898 H 3896.96 5.16905 0.320867 0
M  V30 40899 H 3893.64 3.49453 2.28449 0
M  V30 40900 H 3895.03 6.71722 -0.154556 0
M  V30 40901 N 3897.75 -0.0266943 1.57577 0
M  V30 40902 C 3898.97 -0.732439 1.94036 0
M  V30 40903 C 3899.4 -1.67971 0.846605 0
M  V30 40904 O 3898.76 -1.80221 -0.197483 0
M  V30 40905 C 3898.81 -1.46359 3.29562 0
M  V30 40906 O 3897.91 -2.57688 3.21979 0
M  V30 40907 H 3897.25 -0.196821 0.634159 0
M  V30 40908 H 3899.78 0.0185389 2.04592 0
M  V30 40909 H 3899.79 -1.83299 3.64507 0
M  V30 40910 H 3898.47 -0.768871 4.08731 0
M  V30 40911 H 3897.04 -2.23274 2.98669 0
M  V30 40912 N 3899.23 -1.54738 -0.299007 0
M  V30 40913 C 3900.5 -1.64794 -1.05368 0
M  V30 40914 C 3900.88 -0.497511 -2.05154 0
M  V30 40915 O 3900.23 0.505534 -2.22838 0
M  V30 40916 C 3900.44 -3.02889 -1.73376 0
M  V30 40917 C 3901.79 -3.59771 -2.25499 0
M  V30 40918 O 3902.81 -3.05354 -1.83405 0
M  V30 40919 O 3901.67 -4.55055 -3.02634 0
M  V30 40920 H 3898.77 -0.668296 -0.487144 0
M  V30 40921 H 3901.31 -1.67082 -0.296936 0
M  V30 40922 H 3900.09 -3.78059 -1.00929 0
M  V30 40923 H 3899.71 -3.04387 -2.55801 0
M  V30 40924 N 3900.71 0.562296 -1.47228 0
M  V30 40925 C 3901.64 1.67962 -1.62207 0
M  V30 40926 C 3902.62 1.6343 -0.471667 0
M  V30 40927 O 3903.8 1.8113 -0.700392 0
M  V30 40928 C 3900.93 3.06602 -1.63133 0
M  V30 40929 C 3899.89 3.25978 -2.77349 0
M  V30 40930 C 3899.21 4.65353 -2.63344 0
M  V30 40931 C 3900.51 3.11842 -4.18989 0
M  V30 40932 H 3902.21 1.55682 -2.55741 0
M  V30 40933 H 3899.75 0.747539 -1.23077 0
M  V30 40934 H 3901.7 3.84609 -1.72203 0
M  V30 40935 H 3900.43 3.1983 -0.661557 0
M  V30 40936 H 3899.09 2.50378 -2.6778 0
M  V30 40937 H 3898.74 4.75373 -1.64406 0
M  V30 40938 H 3898.44 4.79267 -3.39966 0
M  V30 40939 H 3899.96 5.45502 -2.74336 0
M  V30 40940 H 3901.37 3.79672 -4.29561 0
M  V30 40941 H 3899.77 3.37268 -4.96357 0
M  V30 40942 H 3900.84 2.08653 -4.37712 0
M  V30 40943 N 3902.18 1.35274 0.808615 0
M  V30 40944 C 3903.09 1.30137 1.95196 0
M  V30 40945 C 3904.11 0.206617 1.72769 0
M  V30 40946 O 3905.29 0.435635 1.96632 0
M  V30 40947 C 3902.35 1.07092 3.29746 0
M  V30 40948 C 3901.41 2.25861 3.65082 0
M  V30 40949 C 3900.64 2.03906 4.93212 0
M  V30 40950 O 3900.87 1.00449 5.61486 0
M  V30 40951 O 3899.8 2.91218 5.2676 0
M  V30 40952 H 3903.63 2.26356 2.02476 0
M  V30 40953 H 3901.21 1.15625 0.946104 0
M  V30 40954 H 3903.09 0.960806 4.103 0
M  V30 40955 H 3901.77 0.139234 3.234 0
M  V30 40956 H 3900.68 2.42437 2.84912 0
M  V30 40957 H 3902.01 3.1747 3.7613 0
M  V30 40958 N 3903.66 -1.03053 1.19239 0
M  V30 40959 C 3904.91 -1.76687 0.995475 0
M  V30 40960 C 3905.24 -1.88357 -0.472772 0
M  V30 40961 O 3904.52 -1.39915 -1.35107 0
M  V30 40962 C 3904.8 -3.19393 1.66313 0
M  V30 40963 C 3904.65 -3.15603 3.20491 0
M  V30 40964 C 3905.97 -4.17747 1.38475 0
M  V30 40965 H 3903.09 -0.641376 0.363051 0
M  V30 40966 H 3905.73 -1.20313 1.47054 0
M  V30 40967 H 3903.88 -3.67527 1.25921 0
M  V30 40968 H 3905.55 -2.7538 3.70086 0
M  V30 40969 H 3903.8 -2.53362 3.52122 0
M  V30 40970 H 3904.47 -4.16419 3.62352 0
M  V30 40971 H 3906.94 -3.78206 1.73491 0
M  V30 40972 H 3905.82 -5.15794 1.87744 0
M  V30 40973 H 3906.08 -4.41015 0.309583 0
M  V30 40974 N 3905.14 -0.996042 -1.22134 0
M  V30 40975 C 3906.37 -0.692206 -1.94977 0
M  V30 40976 C 3906.78 0.743666 -1.73537 0
M  V30 40977 O 3906.14 1.50217 -1.03639 0
M  V30 40978 C 3906.19 -0.992559 -3.47607 0
M  V30 40979 O 3905.91 -2.37201 -3.6833 0
M  V30 40980 C 3907.41 -0.706867 -4.37628 0
M  V30 40981 H 3904.63 -0.255813 -0.620323 0
M  V30 40982 H 3907.18 -1.33166 -1.552 0
M  V30 40983 H 3905.33 -0.398853 -3.85341 0
M  V30 40984 H 3905.75 -2.4737 -4.62502 0
M  V30 40985 H 3907.22 -0.967268 -5.43459 0
M  V30 40986 H 3907.7 0.359131 -4.37729 0
M  V30 40987 H 3908.3 -1.28177 -4.05525 0
M  V30 40988 N 3906.62 1.37529 -0.769636 0
M  V30 40989 C 3907.87 1.99349 -0.332344 0
M  V30 40990 C 3908.19 1.61401 1.09429 0
M  V30 40991 O 3907.46 0.878446 1.751 0
M  V30 40992 H 3906.04 0.737316 -0.119892 0
M  V30 40993 H 3908.7 1.68043 -0.987294 0
M  V30 40994 H 3907.8 3.09418 -0.408287 0
M  V30 40995 N 3908.1 0.520003 1.48774 0
M  V30 40996 C 3909.37 -0.0816358 1.9543 0
M  V30 40997 C 3909.75 -1.52277 1.46202 0
M  V30 40998 O 3909.1 -2.18019 0.684095 0
M  V30 40999 C 3909.31 0.0253085 3.48991 0
M  V30 41000 C 3910.66 -0.139024 4.24372 0
M  V30 41001 O 3911.68 -0.0489696 3.56166 0
M  V30 41002 O 3910.54 -0.32633 5.45525 0
M  V30 41003 H 3907.64 -0.0848233 0.822638 0
M  V30 41004 H 3910.18 0.583893 1.59339 0
M  V30 41005 H 3908.95 1.02958 3.77512 0
M  V30 41006 H 3908.58 -0.679519 3.9175 0
M  V30 41007 N 3909.57 -1.55529 0.254676 0
M  V30 41008 C 3910.8 -2.03986 -0.374759 0
M  V30 41009 C 3911.22 -1.13251 -1.50186 0
M  V30 41010 O 3910.58 -0.126995 -1.80855 0
M  V30 41011 C 3910.63 -3.50376 -0.852573 0
M  V30 41012 O 3909.73 -3.62763 -1.96154 0
M  V30 41013 H 3909.08 -0.65909 -0.0806041 0
M  V30 41014 H 3911.61 -2.00983 0.383005 0
M  V30 41015 H 3911.62 -3.91347 -1.15375 0
M  V30 41016 H 3910.29 -4.15891 -0.0278313 0
M  V30 41017 H 3908.87 -3.33691 -1.66447 0
M  V30 41018 N 3911.05 0.0183372 -1.57589 0
M  V30 41019 C 3912.29 0.711693 -1.9161 0
M  V30 41020 C 3912.66 1.71943 -0.854377 0
M  V30 41021 O 3913.86 2.46182 -1.07925 0
M  V30 41022 C 3912.13 1.35428 -3.30748 0
M  V30 41023 S 3913.69 2.0753 -3.86622 0
M  V30 41024 H 3910.51 0.235524 -0.670857 0
M  V30 41025 H 3913.11 -0.0339458 -1.95471 0
M  V30 41026 H 3911.81 0.607757 -4.05875 0
M  V30 41027 H 3911.34 2.13824 -3.30216 0
M  V30 41028 H 3913.36 3.34814 -3.66215 0
M  V30 41029 N 3912.53 1.54894 0.290797 0
M  V30 41030 C 3913.48 1.87318 1.37894 0
M  V30 41031 C 3914.47 0.747821 1.52 0
M  V30 41032 O 3915.68 0.931947 1.53996 0
M  V30 41033 H 3912.05 0.594268 0.460814 0
M  V30 41034 H 3914.02 2.78252 1.07789 0
M  V30 41035 C 3912.77 2.14611 2.73564 0
M  V30 41036 H 3912.1 3.00683 2.63495 0
M  V30 41037 H 3913.54 2.41231 3.48689 0
M  V30 41038 C 3912 0.947921 3.23289 0
M  V30 41039 O 3912.53 0.173549 4.01325 0
M  V30 41040 N 3910.73 0.750494 2.80742 0
M  V30 41041 H 3910.28 1.38188 2.17398 0
M  V30 41042 H 3910.24 -0.0496194 3.14361 0
M  V30 41043 N 3914.01 -0.55448 1.47524 0
M  V30 41044 C 3914.96 -1.68232 1.60626 0
M  V30 41045 C 3915.95 -1.62649 0.473473 0
M  V30 41046 O 3917.16 -1.67801 0.651367 0
M  V30 41047 H 3913.53 -0.556709 0.505548 0
M  V30 41048 H 3915.5 -1.54319 2.55398 0
M  V30 41049 C 3914.25 -3.06579 1.64027 0
M  V30 41050 H 3913.57 -3.11558 2.50543 0
M  V30 41051 H 3915.01 -3.85176 1.77244 0
M  V30 41052 C 3913.47 -3.34816 0.374107 0
M  V30 41053 O 3914 -3.98272 -0.523634 0
M  V30 41054 N 3912.21 -2.89494 0.253295 0
M  V30 41055 H 3911.76 -2.38033 0.984779 0
M  V30 41056 H 3911.71 -3.08758 -0.592928 0
M  V30 41057 N 3915.49 -1.35701 -0.80143 0
M  V30 41058 C 3916.73 -1.29262 -1.55877 0
M  V30 41059 C 3917.06 0.131518 -1.94055 0
M  V30 41060 O 3916.32 1.098 -1.61995 0
M  V30 41061 C 3916.62 -2.14962 -2.85527 0
M  V30 41062 C 3916.28 -3.63683 -2.66543 0
M  V30 41063 C 3914.94 -4.0422 -2.61074 0
M  V30 41064 C 3917.3 -4.58028 -2.48717 0
M  V30 41065 C 3914.62 -5.37261 -2.35728 0
M  V30 41066 C 3916.98 -5.91272 -2.249 0
M  V30 41067 C 3915.64 -6.30948 -2.17856 0
M  V30 41068 H 3914.91 -0.473004 -0.570393 0
M  V30 41069 H 3917.56 -1.67645 -0.925597 0
M  V30 41070 H 3915.86 -1.69477 -3.53249 0
M  V30 41071 H 3917.56 -2.07313 -3.43253 0
M  V30 41072 H 3914.15 -3.31518 -2.7165 0
M  V30 41073 H 3918.33 -4.27591 -2.51952 0
M  V30 41074 H 3913.59 -5.66996 -2.28748 0
M  V30 41075 H 3917.76 -6.63952 -2.10098 0
M  V30 41076 H 3915.39 -7.33968 -1.97978 0
M  V30 41077 N 3916.96 1.02419 -1.19783 0
M  V30 41078 C 3917.9 2.10418 -0.883156 0
M  V30 41079 C 3918.88 1.61794 0.161704 0
M  V30 41080 O 3920.06 1.88464 0.0369699 0
M  V30 41081 C 3917.19 3.3716 -0.322583 0
M  V30 41082 C 3916.23 4.04663 -1.34724 0
M  V30 41083 S 3917.07 4.49566 -2.90948 0
M  V30 41084 C 3918.22 5.79521 -2.36446 0
M  V30 41085 H 3918.45 2.36786 -1.79777 0
M  V30 41086 H 3915.99 1.15426 -1.02548 0
M  V30 41087 H 3917.95 4.105 -0.00568987 0
M  V30 41088 H 3916.61 3.08877 0.570408 0
M  V30 41089 H 3915.8 4.95822 -0.904223 0
M  V30 41090 H 3915.4 3.37514 -1.61122 0
M  V30 41091 H 3917.69 6.54312 -1.75734 0
M  V30 41092 H 3918.64 6.28608 -3.25972 0
M  V30 41093 H 3919.04 5.35418 -1.78851 0
M  V30 41094 N 3918.44 1.0025 1.21604 0
M  V30 41095 C 3919.37 0.580951 2.26157 0
M  V30 41096 C 3920.35 -0.396988 1.65403 0
M  V30 41097 O 3921.54 -0.285518 1.9209 0
M  V30 41098 C 3918.67 -0.0956954 3.47168 0
M  V30 41099 C 3917.62 0.801769 4.20423 0
M  V30 41100 C 3916.95 -0.00832843 5.34699 0
M  V30 41101 C 3918.25 2.1032 4.78083 0
M  V30 41102 H 3919.94 1.45491 2.61673 0
M  V30 41103 H 3917.49 0.701017 1.25785 0
M  V30 41104 H 3919.44 -0.402067 4.19478 0
M  V30 41105 H 3918.17 -1.00427 3.10776 0
M  V30 41106 H 3916.83 1.09193 3.49961 0
M  V30 41107 H 3916.47 -0.918119 4.9455 0
M  V30 41108 H 3916.17 0.589208 5.84638 0
M  V30 41109 H 3917.7 -0.308573 6.0982 0
M  V30 41110 H 3919.11 1.86014 5.42284 0
M  V30 41111 H 3917.51 2.65037 5.38401 0
M  V30 41112 H 3918.58 2.77562 3.97602 0
M  V30 41113 N 3919.92 -1.37119 0.776919 0
M  V30 41114 C 3921.15 -2.03829 0.355133 0
M  V30 41115 C 3921.56 -1.58593 -1.02438 0
M  V30 41116 O 3920.92 -0.769562 -1.65481 0
M  V30 41117 C 3920.97 -3.59335 0.395047 0
M  V30 41118 O 3920.69 -4.02917 1.72015 0
M  V30 41119 C 3922.19 -4.43284 -0.0376856 0
M  V30 41120 H 3919.41 -0.654459 0.148068 0
M  V30 41121 H 3921.96 -1.75349 1.05228 0
M  V30 41122 H 3920.11 -3.86569 -0.25357 0
M  V30 41123 H 3920.53 -4.9746 1.66234 0
M  V30 41124 H 3922 -5.51984 0.0413926 0
M  V30 41125 H 3922.48 -4.25492 -1.08873 0
M  V30 41126 H 3923.08 -4.21286 0.582941 0
M  V30 41127 N 3921.4 -0.527886 -1.48496 0
M  V30 41128 C 3922.63 0.00298524 -2.066 0
M  V30 41129 C 3923.04 1.28889 -1.38507 0
M  V30 41130 O 3922.38 1.77697 -0.465777 0
M  V30 41131 C 3922.44 0.299637 -3.58249 0
M  V30 41132 C 3922.11 -0.892484 -4.48201 0
M  V30 41133 C 3923.1 -1.79032 -4.88102 0
M  V30 41134 C 3920.79 -1.09889 -4.90132 0
M  V30 41135 C 3922.78 -2.87848 -5.68702 0
M  V30 41136 C 3920.47 -2.19019 -5.70503 0
M  V30 41137 C 3921.47 -3.07832 -6.09696 0
M  V30 41138 O 3921.16 -4.15074 -6.88454 0
M  V30 41139 H 3920.89 -0.0294339 -0.675359 0
M  V30 41140 H 3923.44 -0.73232 -1.91902 0
M  V30 41141 H 3921.67 1.08889 -3.71053 0
M  V30 41142 H 3923.36 0.772337 -3.98484 0
M  V30 41143 H 3924.13 -1.64279 -4.5633 0
M  V30 41144 H 3920.01 -0.416889 -4.59111 0
M  V30 41145 H 3923.55 -3.57197 -5.99213 0
M  V30 41146 H 3919.45 -2.33757 -6.01688 0
M  V30 41147 H 3920.21 -4.12758 -7.06805 0
M  V30 41148 N 3922.88 1.55391 -0.26292 0
M  V30 41149 C 3923.83 2.23452 0.645907 0
M  V30 41150 C 3924.82 1.22742 1.16751 0
M  V30 41151 O 3926.03 1.40708 1.12255 0
M  V30 41152 H 3922.4 0.716979 0.226816 0
M  V30 41153 H 3924.37 2.9836 0.0489014 0
M  V30 41154 C 3923.12 2.95988 1.82446 0
M  V30 41155 H 3922.44 3.73264 1.43227 0
M  V30 41156 H 3923.88 3.4695 2.43725 0
M  V30 41157 C 3922.34 2.00765 2.70546 0
M  V30 41158 O 3922.87 1.55099 3.7055 0
M  V30 41159 N 3921.08 1.67524 2.37454 0
M  V30 41160 H 3920.63 2.04855 1.56181 0
M  V30 41161 H 3920.58 1.0408 2.96673 0
M  V30 41162 N 3924.36 -0.00997961 1.57597 0
M  V30 41163 C 3925.3 -1.00459 2.0779 0
M  V30 41164 C 3926.27 -1.34753 0.971124 0
M  V30 41165 O 3927.46 -1.44762 1.24292 0
M  V30 41166 C 3924.6 -2.2945 2.57773 0
M  V30 41167 C 3923.71 -2.01147 3.82314 0
M  V30 41168 C 3922.85 -3.24146 4.20836 0
M  V30 41169 C 3921.88 -2.91484 5.38241 0
M  V30 41170 N 3921.02 -4.06991 5.72104 0
M  V30 41171 H 3925.86 -0.569623 2.92505 0
M  V30 41172 H 3923.4 -0.26962 1.44608 0
M  V30 41173 H 3925.36 -3.04844 2.84826 0
M  V30 41174 H 3923.99 -2.70634 1.75946 0
M  V30 41175 H 3923.04 -1.16165 3.62229 0
M  V30 41176 H 3924.35 -1.73066 4.67814 0
M  V30 41177 H 3923.5 -4.07894 4.49119 0
M  V30 41178 H 3922.24 -3.55357 3.34025 0
M  V30 41179 H 3921.25 -2.06142 5.09692 0
M  V30 41180 H 3922.47 -2.61532 6.2672 0
M  V30 41181 H 3920.42 -4.38117 4.88251 0
M  V30 41182 H 3920.34 -3.824 6.52155 0
M  V30 41183 H 3921.6 -4.91556 6.04973 0
M  V30 41184 N 3925.83 -1.55046 -0.282578 0
M  V30 41185 C 3927.08 -1.7546 -1.01694 0
M  V30 41186 C 3927.41 -0.548841 -1.86283 0
M  V30 41187 O 3926.69 0.453787 -1.89132 0
M  V30 41188 C 3926.97 -3.05426 -1.90754 0
M  V30 41189 C 3926.82 -4.36338 -1.09222 0
M  V30 41190 C 3928.14 -3.3137 -2.89624 0
M  V30 41191 H 3925.26 -0.63838 -0.368294 0
M  V30 41192 H 3927.9 -1.87772 -0.290085 0
M  V30 41193 H 3926.05 -2.9506 -2.52729 0
M  V30 41194 H 3927.73 -4.58648 -0.493915 0
M  V30 41195 H 3925.97 -4.31994 -0.395406 0
M  V30 41196 H 3926.64 -5.23581 -1.74833 0
M  V30 41197 H 3929.12 -3.41466 -2.37782 0
M  V30 41198 H 3927.99 -4.2359 -3.49089 0
M  V30 41199 H 3928.25 -2.50547 -3.64251 0
M  V30 41200 N 3927.31 0.546649 -1.47816 0
M  V30 41201 C 3928.22 1.68 -1.63747 0
M  V30 41202 C 3929.24 1.66044 -0.520147 0
M  V30 41203 O 3930.41 1.85299 -0.789066 0
M  V30 41204 C 3927.48 3.04494 -1.65784 0
M  V30 41205 C 3926.54 3.17436 -2.8902 0
M  V30 41206 C 3925.77 4.47419 -2.9095 0
M  V30 41207 O 3926 5.33518 -2.01779 0
M  V30 41208 O 3924.93 4.64375 -3.82935 0
M  V30 41209 H 3928.76 1.57501 -2.59668 0
M  V30 41210 H 3926.34 0.71786 -1.31023 0
M  V30 41211 H 3928.22 3.85702 -1.69741 0
M  V30 41212 H 3926.9 3.15354 -0.730323 0
M  V30 41213 H 3925.8 2.35586 -2.90603 0
M  V30 41214 H 3927.14 3.11485 -3.81101 0
M  V30 41215 N 3928.79 1.36124 0.794222 0
M  V30 41216 C 3929.74 1.30111 1.92805 0
M  V30 41217 C 3930.73 0.193763 1.68288 0
M  V30 41218 O 3931.94 0.360485 1.76353 0
M  V30 41219 H 3928.31 0.404937 0.633664 0
M  V30 41220 H 3930.28 2.25874 1.94996 0
M  V30 41221 C 3929.03 1.10243 3.2976 0
M  V30 41222 H 3928.36 1.94696 3.4919 0
M  V30 41223 H 3929.8 1.10081 4.09461 0
M  V30 41224 C 3928.25 -0.193163 3.36346 0
M  V30 41225 O 3928.78 -1.18468 3.83834 0
M  V30 41226 N 3926.99 -0.236192 2.89639 0
M  V30 41227 H 3926.54 0.571289 2.51185 0
M  V30 41228 H 3926.5 -1.10274 2.94426 0
M  V30 41229 N 3930.27 -1.01782 1.20325 0
M  V30 41230 C 3931.2 -2.09946 0.894302 0
M  V30 41231 C 3932.18 -1.61877 -0.153122 0
M  V30 41232 O 3933.36 -1.88481 -0.0269747 0
M  V30 41233 C 3930.49 -3.36985 0.340459 0
M  V30 41234 C 3929.54 -4.03942 1.36868 0
M  V30 41235 S 3930.37 -4.48017 2.93328 0
M  V30 41236 C 3931.52 -5.78259 2.39516 0
M  V30 41237 H 3931.76 -2.35829 1.8103 0
M  V30 41238 H 3929.29 -1.14881 1.03159 0
M  V30 41239 H 3931.25 -4.10491 0.0274596 0
M  V30 41240 H 3929.91 -3.09175 -0.554019 0
M  V30 41241 H 3929.1 -4.95336 0.930505 0
M  V30 41242 H 3928.7 -3.36655 1.62909 0
M  V30 41243 H 3931 -6.53371 1.79201 0
M  V30 41244 H 3931.94 -6.2687 3.29301 0
M  V30 41245 H 3932.35 -5.34462 1.81688 0
M  V30 41246 N 3931.75 -1.00894 -1.21071 0
M  V30 41247 C 3932.97 -0.712847 -1.94232 0
M  V30 41248 C 3933.39 0.725218 -1.74316 0
M  V30 41249 O 3932.75 1.49109 -1.05227 0
M  V30 41250 C 3932.8 -1.02937 -3.46535 0
M  V30 41251 O 3932.52 -2.41095 -3.65794 0
M  V30 41252 C 3934.02 -0.753243 -4.36854 0
M  V30 41253 H 3931.24 -0.262378 -0.617575 0
M  V30 41254 H 3933.78 -1.34805 -1.53779 0
M  V30 41255 H 3931.94 -0.439701 -3.84897 0
M  V30 41256 H 3932.35 -2.52262 -4.59852 0
M  V30 41257 H 3933.83 -1.02486 -5.42403 0
M  V30 41258 H 3934.3 0.312684 -4.38086 0
M  V30 41259 H 3934.91 -1.32471 -4.04143 0
M  V30 41260 N 3933.22 1.36705 -0.78418 0
M  V30 41261 C 3934.64 1.81961 -0.417999 0
M  V30 41262 C 3934.99 1.65266 1.05743 0
M  V30 41263 O 3934.11 1.17067 1.82 0
M  V30 41264 C 3934.71 3.30351 -0.751927 0
M  V30 41265 C 3933.27 3.73835 -0.438644 0
M  V30 41266 C 3932.41 2.59052 -0.989308 0
M  V30 41267 H 3935.36 1.25001 -0.977776 0
M  V30 41268 H 3935.38 3.80478 -0.0411008 0
M  V30 41269 H 3934.9 3.4247 -1.82582 0
M  V30 41270 H 3933 3.67279 0.627428 0
M  V30 41271 H 3933.11 4.69473 -0.95559 0
M  V30 41272 H 3931.47 2.51332 -0.412827 0
M  V30 41273 H 3932.26 2.73959 -2.06885 0
M  V30 41274 N 3934.7 0.535753 1.48214 0
M  V30 41275 C 3936.12 0.194005 1.58416 0
M  V30 41276 C 3936.32 -1.30293 1.53707 0
M  V30 41277 O 3935.37 -2.08161 1.42917 0
M  V30 41278 C 3936.69 0.801651 2.89817 0
M  V30 41279 C 3938.24 0.770912 3.03358 0
M  V30 41280 C 3938.71 1.35724 4.37428 0
M  V30 41281 N 3940.2 1.31946 4.44009 0
M  V30 41282 C 3940.94 1.74297 5.46267 0
M  V30 41283 N 3940.43 2.24404 6.5545 0
M  V30 41284 N 3942.23 1.65499 5.37184 0
M  V30 41285 H 3934.38 1.50858 1.49518 0
M  V30 41286 H 3936.64 0.627842 0.710295 0
M  V30 41287 H 3936.35 1.85284 2.98936 0
M  V30 41288 H 3936.22 0.282102 3.76144 0
M  V30 41289 H 3938.61 -0.271525 2.93848 0
M  V30 41290 H 3938.69 1.32799 2.18628 0
M  V30 41291 H 3938.33 2.39863 4.47692 0
M  V30 41292 H 3938.26 0.775788 5.20854 0
M  V30 41293 H 3940.75 0.952717 3.65693 0
M  V30 41294 H 3941.07 2.54699 7.29622 0
M  V30 41295 H 3939.41 2.28402 6.56398 0
M  V30 41296 H 3942.6 1.26146 4.50782 0
M  V30 41297 H 3942.77 1.98824 6.16744 0
M  V30 41298 N 3936.18 -1.5525 0.271158 0
M  V30 41299 C 3937.46 -1.91501 -0.398341 0
M  V30 41300 C 3937.84 -1.19494 -1.74024 0
M  V30 41301 O 3937.19 -0.320465 -2.26242 0
M  V30 41302 C 3937.4 -3.44757 -0.542529 0
M  V30 41303 C 3938.74 -4.16463 -0.827253 0
M  V30 41304 O 3939.77 -3.5063 -0.627486 0
M  V30 41305 O 3938.63 -5.32957 -1.20907 0
M  V30 41306 H 3935.72 -0.797896 -0.217465 0
M  V30 41307 H 3938.27 -1.66713 0.317018 0
M  V30 41308 H 3937.04 -3.8923 0.401995 0
M  V30 41309 H 3936.66 -3.75486 -1.30751 0
M  V30 41310 N 3937.66 0.00162173 -1.576 0
M  V30 41311 C 3938.59 0.992517 -2.11356 0
M  V30 41312 C 3939.57 1.35951 -1.02232 0
M  V30 41313 O 3940.75 1.44354 -1.29906 0
M  V30 41314 C 3937.88 2.28489 -2.61553 0
M  V30 41315 C 3936.84 2.05956 -3.75188 0
M  V30 41316 C 3936.16 3.41192 -4.11694 0
M  V30 41317 C 3937.46 1.42346 -5.02528 0
M  V30 41318 H 3939.16 0.544934 -2.94399 0
M  V30 41319 H 3936.7 0.260677 -1.41621 0
M  V30 41320 H 3938.66 2.98163 -2.97787 0
M  V30 41321 H 3937.38 2.75358 -1.75629 0
M  V30 41322 H 3936.04 1.38708 -3.39346 0
M  V30 41323 H 3935.69 3.85761 -3.22796 0
M  V30 41324 H 3935.39 3.26932 -4.88251 0
M  V30 41325 H 3936.91 4.12184 -4.50485 0
M  V30 41326 H 3938.33 2.01974 -5.36544 0
M  V30 41327 H 3936.72 1.38579 -5.8388 0
M  V30 41328 H 3937.79 0.39248 -4.83309 0
M  V30 41329 N 3939.14 1.55194 0.274352 0
M  V30 41330 C 3940.38 1.75389 1.00415 0
M  V30 41331 C 3940.71 0.557277 1.86867 0
M  V30 41332 O 3939.98 -0.427849 1.91171 0
M  V30 41333 H 3938.56 0.646781 0.373742 0
M  V30 41334 H 3941.22 1.92594 0.298908 0
M  V30 41335 H 3940.31 2.65423 1.64186 0
M  V30 41336 N 3940.61 -0.538802 1.48104 0
M  V30 41337 C 3941.58 -1.62638 1.61498 0
M  V30 41338 C 3942.58 -1.5319 0.488819 0
M  V30 41339 O 3943.77 -1.57018 0.754383 0
M  V30 41340 C 3940.9 -3.02238 1.57687 0
M  V30 41341 H 3942.09 -1.52105 2.58465 0
M  V30 41342 H 3939.65 -0.760177 1.36569 0
M  V30 41343 H 3940.38 -3.18286 0.621638 0
M  V30 41344 H 3940.17 -3.10505 2.39436 0
M  V30 41345 H 3941.66 -3.81326 1.70235 0
M  V30 41346 N 3942.09 -1.36544 -0.786992 0
M  V30 41347 C 3943.33 -1.32292 -1.55814 0
M  V30 41348 C 3943.7 0.0960822 -1.91759 0
M  V30 41349 O 3944.9 0.263173 -2.67509 0
M  V30 41350 C 3943.17 -2.22203 -2.7993 0
M  V30 41351 S 3944.73 -2.35658 -3.7015 0
M  V30 41352 H 3941.55 -0.469857 -0.533625 0
M  V30 41353 H 3944.15 -1.7214 -0.926725 0
M  V30 41354 H 3942.85 -3.24248 -2.51578 0
M  V30 41355 H 3942.38 -1.83384 -3.48043 0
M  V30 41356 H 3944.4 -1.55587 -4.71176 0
M  V30 41357 N 3943.57 1.01143 -1.20863 0
M  V30 41358 C 3944.82 1.74233 -1.01617 0
M  V30 41359 C 3945.13 1.90314 0.45165 0
M  V30 41360 O 3946.34 2.60548 0.763362 0
M  V30 41361 C 3944.79 3.13397 -1.76948 0
M  V30 41362 C 3944.4 3.0531 -3.27857 0
M  V30 41363 C 3946.15 3.9066 -1.66087 0
M  V30 41364 C 3944.05 4.39514 -3.95704 0
M  V30 41365 H 3942.98 0.653212 -0.376604 0
M  V30 41366 H 3945.63 1.13058 -1.44535 0
M  V30 41367 H 3944.02 3.75144 -1.26819 0
M  V30 41368 H 3945.19 2.52839 -3.85239 0
M  V30 41369 H 3943.51 2.41537 -3.39188 0
M  V30 41370 H 3946.1 4.89959 -2.14113 0
M  V30 41371 H 3946.45 4.11688 -0.617964 0
M  V30 41372 H 3946.98 3.35552 -2.13657 0
M  V30 41373 H 3943.72 4.23689 -5.00168 0
M  V30 41374 H 3943.24 4.91971 -3.4311 0
M  V30 41375 H 3944.92 5.08339 -4.00251 0
M  V30 41376 N 3945.05 1.01535 1.20534 0
M  V30 41377 C 3946.33 0.619095 1.85544 0
M  V30 41378 C 3946.71 -0.902883 1.90817 0
M  V30 41379 O 3946.05 -1.79409 1.41509 0
M  V30 41380 C 3946.26 1.26545 3.2525 0
M  V30 41381 C 3947.61 1.3801 4.01545 0
M  V30 41382 O 3948.64 1.22157 3.34599 0
M  V30 41383 O 3947.49 1.63614 5.21433 0
M  V30 41384 H 3944.59 0.213444 0.798981 0
M  V30 41385 H 3947.13 1.11265 1.28134 0
M  V30 41386 H 3945.91 2.30548 3.1617 0
M  V30 41387 H 3945.53 0.758901 3.9029 0
M  V30 41388 N 3946.53 -1.36288 0.791419 0
M  V30 41389 C 3947.77 -2.0102 0.370169 0
M  V30 41390 C 3948.13 -1.61448 -1.03915 0
M  V30 41391 O 3949.33 -2.18787 -1.56159 0
M  V30 41392 C 3947.6 -3.53434 0.53093 0
M  V30 41393 S 3949.16 -4.38354 0.197855 0
M  V30 41394 H 3945.98 -0.696812 0.141327 0
M  V30 41395 H 3948.58 -1.66145 1.03035 0
M  V30 41396 H 3947.29 -3.79722 1.5569 0
M  V30 41397 H 3946.82 -3.93132 -0.145111 0
M  V30 41398 H 3948.83 -4.86022 -0.99987 0
M  V30 41399 N 3948.01 -0.543606 -1.47928 0
M  V30 41400 C 3948.95 0.224894 -2.3151 0
M  V30 41401 C 3949.95 0.922448 -1.42082 0
M  V30 41402 O 3951.15 0.845281 -1.58918 0
M  V30 41403 H 3947.53 0.091396 -0.746425 0
M  V30 41404 H 3949.5 -0.499433 -2.94191 0
M  V30 41405 C 3948.25 1.25033 -3.24441 0
M  V30 41406 H 3947.57 0.72299 -3.93208 0
M  V30 41407 H 3949.01 1.7592 -3.85783 0
M  V30 41408 C 3947.47 2.29111 -2.47002 0
M  V30 41409 O 3948 3.35796 -2.20463 0
M  V30 41410 N 3946.21 2.0268 -2.08253 0
M  V30 41411 H 3945.75 1.15937 -2.30036 0
M  V30 41412 H 3945.71 2.72536 -1.56753 0
M  V30 41413 N 3949.48 1.55104 -0.279387 0
M  V30 41414 C 3950.45 2.21391 0.593175 0
M  V30 41415 C 3951.45 1.1931 1.07804 0
M  V30 41416 O 3952.64 1.44187 0.977534 0
M  V30 41417 C 3949.77 2.88324 1.81884 0
M  V30 41418 H 3950.96 2.99897 0.0143414 0
M  V30 41419 H 3948.51 1.56271 -0.0300358 0
M  V30 41420 H 3949.25 2.13842 2.43808 0
M  V30 41421 H 3949.03 3.63135 1.47904 0
M  V30 41422 H 3950.52 3.38956 2.43924 0
M  V30 41423 N 3950.96 0.0067362 1.57599 0
M  V30 41424 C 3952.38 -0.349425 1.55728 0
M  V30 41425 C 3952.58 -1.74356 1.01007 0
M  V30 41426 O 3951.63 -2.44074 0.64686 0
M  V30 41427 C 3952.95 -0.218494 2.99905 0
M  V30 41428 C 3954.49 -0.292932 3.11626 0
M  V30 41429 C 3954.97 -0.191048 4.57601 0
M  V30 41430 N 3956.46 -0.248738 4.62532 0
M  V30 41431 C 3957.2 -0.193347 5.73074 0
M  V30 41432 N 3956.69 -0.0881616 6.92744 0
M  V30 41433 N 3958.48 -0.245704 5.61563 0
M  V30 41434 H 3950.64 0.91865 1.91506 0
M  V30 41435 H 3952.9 0.352754 0.879925 0
M  V30 41436 H 3952.6 0.740974 3.43806 0
M  V30 41437 H 3952.48 -0.997841 3.63762 0
M  V30 41438 H 3954.87 -1.24285 2.67651 0
M  V30 41439 H 3954.95 0.516402 2.50533 0
M  V30 41440 H 3954.59 0.755351 5.02252 0
M  V30 41441 H 3954.52 -1.01896 5.16648 0
M  V30 41442 H 3957.01 -0.331091 3.76447 0
M  V30 41443 H 3957.32 -0.0519762 7.72783 0
M  V30 41444 H 3955.67 -0.0536934 6.94979 0
M  V30 41445 H 3958.86 -0.326122 4.66963 0
M  V30 41446 H 3959.03 -0.199072 6.47694 0
M  V30 41447 N 3952.44 -1.55337 -0.266118 0
M  V30 41448 C 3953.39 -1.85077 -1.33156 0
M  V30 41449 C 3954.37 -0.710167 -1.44379 0
M  V30 41450 O 3955.57 -0.97167 -1.47944 0
M  V30 41451 C 3952.69 -2.13219 -2.69059 0
M  V30 41452 C 3951.78 -3.33556 -2.61918 0
M  V30 41453 N 3952.17 -4.53298 -2.24399 0
M  V30 41454 C 3950.47 -3.36283 -2.92967 0
M  V30 41455 C 3951.17 -5.35402 -2.27419 0
M  V30 41456 N 3950.15 -4.7398 -2.66165 0
M  V30 41457 H 3953.95 -2.75198 -1.03167 0
M  V30 41458 H 3951.46 -1.55306 -0.474755 0
M  V30 41459 H 3953.46 -2.32683 -3.45925 0
M  V30 41460 H 3952.12 -1.24386 -2.9993 0
M  V30 41461 H 3953.13 -4.79272 -1.96262 0
M  V30 41462 H 3949.81 -2.57664 -3.28505 0
M  V30 41463 H 3951.2 -6.41158 -2.00914 0
M  V30 41464 N 3953.92 0.53094 -1.48387 0
M  V30 41465 C 3955.17 1.28329 -1.5561 0
M  V30 41466 C 3955.48 1.94189 -0.234513 0
M  V30 41467 O 3956.69 2.70869 -0.184974 0
M  V30 41468 C 3955.14 2.32847 -2.74427 0
M  V30 41469 C 3954.75 1.73061 -4.13224 0
M  V30 41470 C 3956.49 3.09098 -2.90962 0
M  V30 41471 C 3954.4 2.75513 -5.23303 0
M  V30 41472 H 3953.33 0.482627 -0.579299 0
M  V30 41473 H 3955.98 0.560854 -1.74719 0
M  V30 41474 H 3954.36 3.08122 -2.4875 0
M  V30 41475 H 3955.54 1.03981 -4.48915 0
M  V30 41476 H 3953.85 1.09305 -4.01798 0
M  V30 41477 H 3956.45 3.85655 -3.7037 0
M  V30 41478 H 3956.79 3.64901 -2.00382 0
M  V30 41479 H 3957.33 2.40937 -3.16534 0
M  V30 41480 H 3954.06 2.24531 -6.15846 0
M  V30 41481 H 3953.58 3.42924 -4.92101 0
M  V30 41482 H 3955.26 3.38517 -5.51376 0
M  V30 41483 N 3955.4 1.36959 0.779739 0
M  V30 41484 C 3956.34 1.32149 1.91415 0
M  V30 41485 C 3957.34 0.211602 1.68073 0
M  V30 41486 O 3958.54 0.37917 1.75961 0
M  V30 41487 H 3954.92 0.411636 0.629333 0
M  V30 41488 H 3956.89 2.27929 1.9259 0
M  V30 41489 C 3955.64 1.13735 3.28572 0
M  V30 41490 H 3954.96 1.98389 3.47105 0
M  V30 41491 H 3956.4 1.14417 4.0827 0
M  V30 41492 C 3954.86 -0.157479 3.36532 0
M  V30 41493 O 3955.39 -1.1439 3.85069 0
M  V30 41494 N 3953.6 -0.205458 2.89873 0
M  V30 41495 H 3953.14 0.597898 2.50565 0
M  V30 41496 H 3953.1 -1.07145 2.95579 0
M  V30 41497 N 3956.87 -1.00501 1.21398 0
M  V30 41498 C 3957.84 -2.07438 0.974793 0
M  V30 41499 C 3958.84 -1.60709 -0.054186 0
M  V30 41500 O 3960.03 -1.73235 0.183087 0
M  V30 41501 C 3957.16 -3.37645 0.469949 0
M  V30 41502 H 3958.35 -2.3009 1.9235 0
M  V30 41503 H 3955.9 -1.17477 1.03097 0
M  V30 41504 H 3956.64 -3.20673 -0.483679 0
M  V30 41505 H 3956.42 -3.72893 1.21217 0
M  V30 41506 H 3957.91 -4.16353 0.322466 0
M  V30 41507 N 3958.35 -1.02172 -1.19994 0
M  V30 41508 C 3959.28 -0.554499 -2.22391 0
M  V30 41509 C 3960.3 0.365832 -1.58636 0
M  V30 41510 O 3961.49 0.163362 -1.77751 0
M  V30 41511 C 3958.59 0.212174 -3.38235 0
M  V30 41512 C 3957.76 -0.711329 -4.31577 0
M  V30 41513 C 3956.82 0.00867064 -5.26199 0
M  V30 41514 O 3955.84 -0.615535 -5.65862 0
M  V30 41515 N 3957.05 1.28182 -5.66171 0
M  V30 41516 H 3959.81 -1.43513 -2.63105 0
M  V30 41517 H 3957.37 -0.899877 -1.34588 0
M  V30 41518 H 3959.36 0.703212 -3.98544 0
M  V30 41519 H 3957.93 0.994153 -2.9637 0
M  V30 41520 H 3957.15 -1.38258 -3.69159 0
M  V30 41521 H 3958.44 -1.33923 -4.90858 0
M  V30 41522 H 3957.84 1.8098 -5.35969 0
M  V30 41523 H 3956.4 1.71749 -6.28765 0
M  V30 41524 N 3959.83 1.35866 -0.798635 0
M  V30 41525 C 3961.08 1.99287 -0.375851 0
M  V30 41526 C 3961.41 1.63225 1.0522 0
M  V30 41527 O 3960.68 0.891607 1.7286 0
M  V30 41528 C 3960.97 3.55871 -0.55026 0
M  V30 41529 C 3960.82 4.01756 -2.02267 0
M  V30 41530 C 3962.14 4.4009 0.0290088 0
M  V30 41531 H 3959.26 0.723958 -0.138037 0
M  V30 41532 H 3961.9 1.61139 -1.00669 0
M  V30 41533 H 3960.05 3.88498 -0.0132422 0
M  V30 41534 H 3961.72 3.79575 -2.62145 0
M  V30 41535 H 3959.96 3.52957 -2.52197 0
M  V30 41536 H 3960.64 5.10674 -2.09562 0
M  V30 41537 H 3963.11 4.13877 -0.429516 0
M  V30 41538 H 3961.99 5.48762 -0.12299 0
M  V30 41539 H 3962.25 4.27626 1.12198 0
M  V30 41540 N 3961.31 0.551443 1.47638 0
M  V30 41541 C 3962.27 -0.188956 2.2842 0
M  V30 41542 C 3963.27 -0.848056 1.36619 0
M  V30 41543 O 3964.46 -0.704803 1.59305 0
M  V30 41544 C 3961.59 -1.27565 3.16133 0
M  V30 41545 H 3962.79 0.52057 2.95347 0
M  V30 41546 H 3960.34 0.308168 1.53232 0
M  V30 41547 H 3961.07 -2.01776 2.53884 0
M  V30 41548 H 3960.86 -0.807916 3.83686 0
M  V30 41549 H 3962.35 -1.79584 3.77014 0
M  V30 41550 N 3962.79 -1.54953 0.287609 0
M  V30 41551 C 3963.73 -2.23014 -0.59441 0
M  V30 41552 C 3964.7 -1.20797 -1.14005 0
M  V30 41553 O 3965.89 -1.49378 -1.18705 0
M  V30 41554 C 3963.03 -2.96442 -1.76682 0
M  V30 41555 C 3962.14 -4.13404 -1.25384 0
M  V30 41556 C 3961.28 -4.74445 -2.38904 0
M  V30 41557 C 3960.32 -5.83577 -1.84673 0
M  V30 41558 N 3959.45 -6.38629 -2.91714 0
M  V30 41559 H 3964.29 -2.97999 -0.00738683 0
M  V30 41560 H 3961.83 -1.47098 0.00812164 0
M  V30 41561 H 3963.79 -3.37237 -2.45615 0
M  V30 41562 H 3962.42 -2.23858 -2.32567 0
M  V30 41563 H 3961.47 -3.77643 -0.457193 0
M  V30 41564 H 3962.78 -4.92068 -0.816726 0
M  V30 41565 H 3961.94 -5.18024 -3.15809 0
M  V30 41566 H 3960.67 -3.95084 -2.85937 0
M  V30 41567 H 3959.68 -5.39435 -1.06252 0
M  V30 41568 H 3960.9 -6.64814 -1.38561 0
M  V30 41569 H 3958.85 -5.62158 -3.38105 0
M  V30 41570 H 3958.77 -7.12602 -2.52457 0
M  V30 41571 H 3960.04 -6.86867 -3.68557 0
M  V30 41572 N 3964.26 -0.0150939 -1.57593 0
M  V30 41573 C 3965.49 0.680736 -1.9591 0
M  V30 41574 C 3965.91 1.65667 -0.890842 0
M  V30 41575 O 3965.27 1.80681 0.149631 0
M  V30 41576 C 3965.32 1.3757 -3.33327 0
M  V30 41577 O 3964.42 2.49061 -3.28698 0
M  V30 41578 H 3963.77 0.179938 -0.639154 0
M  V30 41579 H 3966.3 -0.0727763 -2.04471 0
M  V30 41580 H 3966.31 1.7357 -3.69239 0
M  V30 41581 H 3964.98 0.660233 -4.10626 0
M  V30 41582 H 3963.56 2.15276 -3.04484 0
M  V30 41583 N 3965.74 1.55476 0.257876 0
M  V30 41584 C 3966.69 1.8578 1.32173 0
M  V30 41585 C 3967.68 0.717814 1.44001 0
M  V30 41586 O 3968.87 0.979502 1.47427 0
M  V30 41587 C 3966 2.14643 2.67924 0
M  V30 41588 C 3965.08 3.3494 2.60146 0
M  V30 41589 N 3965.47 4.54481 2.21992 0
M  V30 41590 C 3963.77 3.37832 2.9118 0
M  V30 41591 C 3964.47 5.36601 2.24576 0
M  V30 41592 N 3963.45 4.75385 2.63647 0
M  V30 41593 H 3967.25 2.75741 1.01706 0
M  V30 41594 H 3964.77 1.55555 0.466512 0
M  V30 41595 H 3966.76 2.34514 3.44686 0
M  V30 41596 H 3965.42 1.25974 2.99267 0
M  V30 41597 H 3966.43 4.80306 1.93718 0
M  V30 41598 H 3963.11 2.59402 3.27134 0
M  V30 41599 H 3964.5 6.42214 1.97511 0
M  V30 41600 N 3967.22 -0.523064 1.48667 0
M  V30 41601 C 3968.17 -1.64787 1.64158 0
M  V30 41602 C 3969.16 -1.61608 0.507867 0
M  V30 41603 O 3970.37 -1.66382 0.686813 0
M  V30 41604 H 3966.74 -0.54586 0.517243 0
M  V30 41605 H 3968.71 -1.48867 2.58614 0
M  V30 41606 C 3967.46 -3.0303 1.70493 0
M  V30 41607 H 3966.79 -3.06173 2.57095 0
M  V30 41608 H 3968.23 -3.8133 1.85374 0
M  V30 41609 C 3966.69 -3.33948 0.445042 0
M  V30 41610 O 3967.22 -3.99294 -0.439037 0
M  V30 41611 N 3965.42 -2.88892 0.314644 0
M  V30 41612 H 3964.97 -2.35891 1.03505 0
M  V30 41613 H 3964.93 -3.09947 -0.527303 0
M  V30 41614 N 3968.7 -1.37371 -0.772465 0
M  V30 41615 C 3969.94 -1.32736 -1.53326 0
M  V30 41616 C 3970.28 0.0882474 -1.93999 0
M  V30 41617 O 3969.55 1.04542 -1.64016 0
M  V30 41618 C 3969.84 -2.2658 -2.79881 0
M  V30 41619 C 3969.69 -3.76916 -2.45467 0
M  V30 41620 C 3971.01 -2.18884 -3.81808 0
M  V30 41621 H 3968.13 -0.483492 -0.556241 0
M  V30 41622 H 3970.77 -1.68066 -0.886222 0
M  V30 41623 H 3968.92 -1.96582 -3.35094 0
M  V30 41624 H 3970.59 -4.17509 -1.96174 0
M  V30 41625 H 3968.83 -3.9552 -1.78174 0
M  V30 41626 H 3969.5 -4.38013 -3.35929 0
M  V30 41627 H 3971.98 -2.45326 -3.36087 0
M  V30 41628 H 3970.86 -2.86689 -4.68082 0
M  V30 41629 H 3971.12 -1.18153 -4.26019 0
M  V30 41630 N 3970.18 0.998553 -1.21929 0
M  V30 41631 C 3971.4 1.77825 -1.06738 0
M  V30 41632 C 3971.83 1.8426 0.378122 0
M  V30 41633 O 3971.18 1.29092 1.27298 0
M  V30 41634 C 3971.23 3.19249 -1.67668 0
M  V30 41635 O 3970.34 4.01857 -0.926518 0
M  V30 41636 H 3969.68 0.547798 -0.375251 0
M  V30 41637 H 3972.21 1.25476 -1.61608 0
M  V30 41638 H 3972.22 3.699 -1.72157 0
M  V30 41639 H 3970.89 3.1388 -2.72859 0
M  V30 41640 H 3969.47 3.60405 -0.957209 0
M  V30 41641 N 3971.65 1.02807 1.1945 0
M  V30 41642 C 3972.58 0.628792 2.24874 0
M  V30 41643 C 3973.57 -0.361815 1.66207 0
M  V30 41644 O 3974.75 -0.244709 1.92652 0
M  V30 41645 C 3971.88 -0.0220344 3.47293 0
M  V30 41646 C 3970.83 0.890766 4.18628 0
M  V30 41647 C 3970.16 0.105091 5.34597 0
M  V30 41648 C 3971.46 2.20413 4.73514 0
M  V30 41649 H 3973.15 1.51009 2.58528 0
M  V30 41650 H 3970.7 0.72754 1.24269 0
M  V30 41651 H 3972.65 -0.312999 4.20236 0
M  V30 41652 H 3971.38 -0.938127 3.12837 0
M  V30 41653 H 3970.04 1.16591 3.47566 0
M  V30 41654 H 3969.68 -0.813011 4.96386 0
M  V30 41655 H 3969.38 0.713086 5.83257 0
M  V30 41656 H 3970.91 -0.179152 6.10337 0
M  V30 41657 H 3972.32 1.97475 5.38216 0
M  V30 41658 H 3970.72 2.76398 5.32658 0
M  V30 41659 H 3971.79 2.85933 3.91625 0
M  V30 41660 N 3973.13 -1.35441 0.805829 0
M  V30 41661 C 3974.38 -1.98043 0.382338 0
M  V30 41662 C 3974.69 -1.64645 -1.05599 0
M  V30 41663 O 3975.9 -2.20606 -1.58256 0
M  V30 41664 C 3974.36 -3.54295 0.632681 0
M  V30 41665 C 3973.96 -3.96603 2.08351 0
M  V30 41666 C 3975.71 -4.23611 0.27451 0
M  V30 41667 C 3973.62 -5.45698 2.27964 0
M  V30 41668 H 3972.55 -0.741035 0.139223 0
M  V30 41669 H 3975.2 -1.54517 0.98978 0
M  V30 41670 H 3973.58 -3.95975 -0.0447003 0
M  V30 41671 H 3974.75 -3.66078 2.79864 0
M  V30 41672 H 3973.07 -3.40174 2.40148 0
M  V30 41673 H 3975.66 -5.33208 0.399113 0
M  V30 41674 H 3976.01 -4.08942 -0.77922 0
M  V30 41675 H 3976.54 -3.87351 0.905778 0
M  V30 41676 H 3973.28 -5.65334 3.3178 0
M  V30 41677 H 3972.8 -5.77795 1.60975 0
M  V30 41678 H 3974.48 -6.1215 2.09479 0
M  V30 41679 N 3974.61 -0.559265 -1.47343 0
M  V30 41680 C 3975.86 -0.0442729 -2.03352 0
M  V30 41681 C 3976.21 1.29197 -1.42569 0
M  V30 41682 O 3975.5 1.82839 -0.572738 0
M  V30 41683 C 3975.7 0.10446 -3.57247 0
M  V30 41684 C 3975.53 -1.21581 -4.32953 0
M  V30 41685 C 3974.3 -1.78367 -4.72772 0
M  V30 41686 C 3976.5 -2.13353 -4.67958 0
M  V30 41687 N 3974.48 -3.04378 -5.3313 0
M  V30 41688 C 3975.85 -3.23944 -5.2864 0
M  V30 41689 C 3977.9 -2.13321 -4.49887 0
M  V30 41690 C 3976.61 -4.34605 -5.73159 0
M  V30 41691 C 3978.63 -3.22996 -4.95406 0
M  V30 41692 C 3977.99 -4.32307 -5.56139 0
M  V30 41693 H 3974.09 -0.0584142 -0.779815 0
M  V30 41694 H 3976.68 -0.747007 -1.798 0
M  V30 41695 H 3974.85 0.77632 -3.80563 0
M  V30 41696 H 3976.58 0.621705 -3.99896 0
M  V30 41697 H 3973.34 -1.32141 -4.54792 0
M  V30 41698 H 3973.76 -3.68612 -5.6785 0
M  V30 41699 H 3978.4 -1.30093 -4.02288 0
M  V30 41700 H 3976.12 -5.18592 -6.19748 0
M  V30 41701 H 3979.71 -3.24062 -4.83193 0
M  V30 41702 H 3978.59 -5.15772 -5.90719 0
M  V30 41703 N 3976.09 1.54799 -0.295822 0
M  V30 41704 C 3977.04 2.24772 0.598364 0
M  V30 41705 C 3978.03 1.25191 1.14121 0
M  V30 41706 O 3979.24 1.43058 1.09245 0
M  V30 41707 H 3975.61 0.721628 0.211557 0
M  V30 41708 H 3977.58 2.98397 -0.0143961 0
M  V30 41709 C 3976.33 2.99791 1.76126 0
M  V30 41710 H 3975.65 3.76218 1.35277 0
M  V30 41711 H 3977.09 3.52041 2.36311 0
M  V30 41712 C 3975.55 2.06458 2.66227 0
M  V30 41713 O 3976.08 1.62924 3.67176 0
M  V30 41714 N 3974.29 1.72523 2.33847 0
M  V30 41715 H 3973.84 2.08121 1.518 0
M  V30 41716 H 3973.79 1.10349 2.94398 0
M  V30 41717 N 3977.57 0.0234513 1.57583 0
M  V30 41718 C 3978.81 -0.657388 1.9185 0
M  V30 41719 C 3979.15 -1.72104 0.899663 0
M  V30 41720 O 3978.42 -1.94342 -0.0784068 0
M  V30 41721 C 3978.7 -1.27905 3.36619 0
M  V30 41722 C 3978.56 -0.225342 4.49235 0
M  V30 41723 C 3979.88 -2.19867 3.81243 0
M  V30 41724 H 3977 -0.237508 0.697681 0
M  V30 41725 H 3979.64 0.0795502 1.89833 0
M  V30 41726 H 3977.79 -1.90714 3.38468 0
M  V30 41727 H 3979.46 0.404872 4.5952 0
M  V30 41728 H 3977.7 0.449825 4.31461 0
M  V30 41729 H 3978.37 -0.69981 5.47546 0
M  V30 41730 H 3980.85 -1.67051 3.81095 0
M  V30 41731 H 3979.73 -2.60319 4.83244 0
M  V30 41732 H 3979.99 -3.0875 3.16427 0
M  V30 41733 N 3979.05 -1.5561 -0.249627 0
M  V30 41734 C 3979.99 -1.90087 -1.30902 0
M  V30 41735 C 3980.96 -0.75481 -1.47959 0
M  V30 41736 O 3982.15 -1.00822 -1.61986 0
M  V30 41737 C 3979.29 -2.19864 -2.65996 0
M  V30 41738 C 3978.4 -3.47262 -2.5697 0
M  V30 41739 C 3977.54 -3.66622 -3.84398 0
M  V30 41740 C 3976.57 -4.8763 -3.69978 0
M  V30 41741 N 3975.71 -5.03525 -4.89292 0
M  V30 41742 H 3980.55 -2.80434 -1.008 0
M  V30 41743 H 3978.09 -1.38823 -0.486484 0
M  V30 41744 H 3980.05 -2.35133 -3.44628 0
M  V30 41745 H 3978.68 -1.32725 -2.94252 0
M  V30 41746 H 3977.73 -3.4034 -1.69921 0
M  V30 41747 H 3979.04 -4.36038 -2.42223 0
M  V30 41748 H 3978.19 -3.81835 -4.71473 0
M  V30 41749 H 3976.93 -2.76073 -4.02038 0
M  V30 41750 H 3975.94 -4.72396 -2.81286 0
M  V30 41751 H 3977.16 -5.79636 -3.53835 0
M  V30 41752 H 3975.11 -4.15913 -5.07299 0
M  V30 41753 H 3975.03 -5.86386 -4.77166 0
M  V30 41754 H 3976.29 -5.23147 -5.77874 0
M  V30 41755 N 3980.52 0.515172 -1.48942 0
M  V30 41756 C 3981.8 1.27648 -1.48207 0
M  V30 41757 C 3982.18 2.10132 -0.201903 0
M  V30 41758 O 3981.53 2.1343 0.816078 0
M  V30 41759 C 3981.74 2.14531 -2.75277 0
M  V30 41760 C 3983.09 2.74186 -3.24202 0
M  V30 41761 O 3984.11 2.24808 -2.76297 0
M  V30 41762 O 3982.97 3.6404 -4.076 0
M  V30 41763 H 3980.06 0.576894 -0.592556 0
M  V30 41764 H 3982.61 0.530607 -1.61191 0
M  V30 41765 H 3981.38 1.53462 -3.59951 0
M  V30 41766 H 3981 2.96337 -2.65085 0
M  V30 41767 N 3982 1.37779 0.765169 0
M  V30 41768 C 3983.23 1.3636 1.55208 0
M  V30 41769 C 3983.64 -0.0513689 1.8913 0
M  V30 41770 O 3982.98 -1.02532 1.52423 0
M  V30 41771 C 3983.04 2.14359 2.88601 0
M  V30 41772 C 3982.71 3.6327 2.77279 0
M  V30 41773 C 3983.71 4.57013 2.47861 0
M  V30 41774 C 3981.39 4.06478 2.95095 0
M  V30 41775 C 3983.38 5.91943 2.36395 0
M  V30 41776 C 3981.07 5.41491 2.8325 0
M  V30 41777 C 3982.07 6.34037 2.53941 0
M  V30 41778 O 3981.76 7.66568 2.42134 0
M  V30 41779 H 3981.49 0.468567 0.487258 0
M  V30 41780 H 3984.04 1.81813 0.955684 0
M  V30 41781 H 3982.27 1.63607 3.50385 0
M  V30 41782 H 3983.96 2.05492 3.5004 0
M  V30 41783 H 3984.73 4.2494 2.33776 0
M  V30 41784 H 3980.61 3.348 3.16907 0
M  V30 41785 H 3984.15 6.64145 2.1344 0
M  V30 41786 H 3980.05 5.73165 2.96904 0
M  V30 41787 H 3980.82 7.76962 2.57434 0
M  V30 41788 N 3983.48 -0.992073 1.22457 0
M  V30 41789 C 3984.41 -2.08002 0.938634 0
M  V30 41790 C 3985.39 -1.62166 -0.118751 0
M  V30 41791 O 3986.57 -1.88496 0.013011 0
M  V30 41792 C 3983.7 -3.36187 0.411862 0
M  V30 41793 C 3982.75 -4.00948 1.45405 0
M  V30 41794 S 3983.58 -4.41694 3.02765 0
M  V30 41795 C 3984.74 -5.73048 2.51728 0
M  V30 41796 H 3984.97 -2.31936 1.85991 0
M  V30 41797 H 3982.5 -1.12667 1.05572 0
M  V30 41798 H 3984.46 -4.1034 0.114525 0
M  V30 41799 H 3983.12 -3.10281 -0.488314 0
M  V30 41800 H 3982.31 -4.93251 1.03536 0
M  V30 41801 H 3981.92 -3.33124 1.70014 0
M  V30 41802 H 3984.21 -6.49422 1.9302 0
M  V30 41803 H 3985.15 -6.19744 3.42524 0
M  V30 41804 H 3985.56 -5.30488 1.92984 0
M  V30 41805 N 3984.96 -1.03439 -1.18904 0
M  V30 41806 C 3986.18 -0.753776 -1.93217 0
M  V30 41807 C 3986.61 0.682024 -1.753 0
M  V30 41808 O 3985.97 1.4716 -1.05895 0
M  V30 41809 C 3986.01 -1.11706 -3.42862 0
M  V30 41810 O 3985.12 -0.238888 -4.11708 0
M  V30 41811 H 3984.46 -0.277984 -0.60301 0
M  V30 41812 H 3986.99 -1.38255 -1.5082 0
M  V30 41813 H 3987 -1.0763 -3.93548 0
M  V30 41814 H 3985.67 -2.16306 -3.55224 0
M  V30 41815 H 3984.25 -0.338718 -3.71358 0
M  V30 41816 N 3986.44 1.35011 -0.813001 0
M  V30 41817 C 3987.37 2.32238 -0.242437 0
M  V30 41818 C 3988.35 1.57777 0.635648 0
M  V30 41819 O 3989.53 1.85812 0.564589 0
M  V30 41820 C 3986.66 3.41996 0.604626 0
M  V30 41821 C 3985.62 4.2764 -0.175495 0
M  V30 41822 C 3984.94 5.28777 0.793679 0
M  V30 41823 C 3986.24 5.03791 -1.37811 0
M  V30 41824 H 3987.94 2.80206 -1.05475 0
M  V30 41825 H 3985.48 1.34718 -0.508643 0
M  V30 41826 H 3987.43 4.09021 1.01389 0
M  V30 41827 H 3986.16 2.92653 1.44989 0
M  V30 41828 H 3984.82 3.62204 -0.566012 0
M  V30 41829 H 3984.47 4.75699 1.63462 0
M  V30 41830 H 3984.17 5.86952 0.275982 0
M  V30 41831 H 3985.69 5.98672 1.20101 0
M  V30 41832 H 3987.1 5.63726 -1.04338 0
M  V30 41833 H 3985.5 5.71493 -1.83074 0
M  V30 41834 H 3986.57 4.34061 -2.16146 0
M  V30 41835 N 3987.91 0.567071 1.47044 0
M  V30 41836 C 3989.14 0.0499193 2.0734 0
M  V30 41837 C 3989.56 -1.23879 1.41547 0
M  V30 41838 O 3988.92 -1.74445 0.493828 0
M  V30 41839 C 3988.97 -0.118719 3.60405 0
M  V30 41840 O 3988.07 -1.17898 3.95188 0
M  V30 41841 H 3987.41 0.0557577 0.661655 0
M  V30 41842 H 3989.94 0.785564 1.88918 0
M  V30 41843 H 3989.95 -0.329828 4.06665 0
M  V30 41844 H 3988.63 0.82248 4.07686 0
M  V30 41845 H 3987.21 -0.947581 3.6066 0
M  V30 41846 N 3989.39 -1.5464 0.304027 0
M  V30 41847 C 3990.3 -2.27314 -0.580119 0
M  V30 41848 C 3991.32 -1.30944 -1.14585 0
M  V30 41849 O 3992.49 -1.6393 -1.17 0
M  V30 41850 C 3989.56 -3.00204 -1.73432 0
M  V30 41851 C 3988.62 -4.12119 -1.20236 0
M  V30 41852 C 3987.85 -4.81523 -2.30155 0
M  V30 41853 O 3988.08 -4.50306 -3.50115 0
M  V30 41854 O 3987.01 -5.6886 -1.96676 0
M  V30 41855 H 3990.84 -3.03699 0.0094989 0
M  V30 41856 H 3988.42 -1.49234 0.0703828 0
M  V30 41857 H 3990.3 -3.45913 -2.40671 0
M  V30 41858 H 3988.98 -2.26712 -2.31049 0
M  V30 41859 H 3987.88 -3.70802 -0.495614 0
M  V30 41860 H 3989.22 -4.87597 -0.671584 0
M  V30 41861 N 3990.87 -0.0318079 -1.57568 0
M  V30 41862 C 3991.8 0.977945 -2.07289 0
M  V30 41863 C 3992.81 1.28712 -0.996842 0
M  V30 41864 O 3994 1.25131 -1.27297 0
M  V30 41865 C 3991.1 2.30465 -2.48473 0
M  V30 41866 C 3990.28 2.18024 -3.79189 0
M  V30 41867 C 3989.34 3.33652 -4.06894 0
M  V30 41868 O 3988.36 3.10418 -4.77105 0
M  V30 41869 N 3989.56 4.57528 -3.5728 0
M  V30 41870 H 3992.33 0.553691 -2.94541 0
M  V30 41871 H 3989.89 0.154889 -1.61157 0
M  V30 41872 H 3991.88 3.0665 -2.64098 0
M  V30 41873 H 3990.45 2.64523 -1.66573 0
M  V30 41874 H 3989.67 1.2655 -3.73335 0
M  V30 41875 H 3990.96 2.06918 -4.64825 0
M  V30 41876 H 3990.36 4.79298 -3.00483 0
M  V30 41877 H 3988.91 5.30872 -3.78178 0
M  V30 41878 N 3992.35 1.55741 0.241371 0
M  V30 41879 C 3993.28 1.93796 1.30252 0
M  V30 41880 C 3994.26 0.80359 1.49921 0
M  V30 41881 O 3995.44 1.06432 1.62437 0
M  V30 41882 C 3992.57 2.23747 2.65621 0
M  V30 41883 C 3991.53 3.39487 2.60639 0
M  V30 41884 C 3990.85 3.54993 3.99855 0
M  V30 41885 C 3992.15 4.75023 2.17143 0
M  V30 41886 H 3993.85 2.82682 0.986482 0
M  V30 41887 H 3991.39 1.36006 0.473101 0
M  V30 41888 H 3993.35 2.48959 3.39996 0
M  V30 41889 H 3992.07 1.31693 2.98872 0
M  V30 41890 H 3990.73 3.14293 1.88721 0
M  V30 41891 H 3990.38 2.6035 4.3038 0
M  V30 41892 H 3990.08 4.32829 3.97408 0
M  V30 41893 H 3991.6 3.82532 4.75922 0
M  V30 41894 H 3993.02 4.9957 2.81252 0
M  V30 41895 H 3991.41 5.56 2.25795 0
M  V30 41896 H 3992.48 4.71712 1.12321 0
M  V30 41897 N 3993.83 -0.507266 1.49213 0
M  V30 41898 C 3995.24 -0.837884 1.35837 0
M  V30 41899 C 3995.44 -1.97755 0.386669 0
M  V30 41900 O 3994.5 -2.51829 -0.183927 0
M  V30 41901 C 3995.81 -1.18399 2.76409 0
M  V30 41902 C 3997.36 -1.29257 2.85064 0
M  V30 41903 C 3997.83 -1.672 4.2639 0
M  V30 41904 N 3999.33 -1.74261 4.29171 0
M  V30 41905 C 4000.06 -2.05051 5.35482 0
M  V30 41906 N 3999.56 -2.34109 6.52047 0
M  V30 41907 N 4001.35 -2.0625 5.22893 0
M  V30 41908 H 3993.5 0.244348 2.1099 0
M  V30 41909 H 3995.76 0.0467144 0.946848 0
M  V30 41910 H 3995.47 -0.419992 3.49183 0
M  V30 41911 H 3995.34 -2.12891 3.1138 0
M  V30 41912 H 3997.73 -2.0473 2.12532 0
M  V30 41913 H 3997.81 -0.328315 2.53684 0
M  V30 41914 H 3997.46 -0.922796 4.99447 0
M  V30 41915 H 3997.39 -2.64715 4.55229 0
M  V30 41916 H 3999.88 -1.5399 3.45102 0
M  V30 41917 H 4000.19 -2.56774 7.28894 0
M  V30 41918 H 3998.53 -2.31579 6.55283 0
M  V30 41919 H 4001.73 -1.83021 4.30838 0
M  V30 41920 H 4001.9 -2.29912 6.05842 0
M  V30 41921 N 3995.3 -1.38182 -0.757851 0
M  V30 41922 C 3996.25 -1.35068 -1.8715 0
M  V30 41923 C 3997.22 -0.213921 -1.64717 0
M  V30 41924 O 3998.41 -0.405481 -1.86442 0
M  V30 41925 C 3995.55 -1.17734 -3.24396 0
M  V30 41926 C 3994.66 -2.4076 -3.5869 0
M  V30 41927 C 3993.79 -2.1619 -4.85217 0
M  V30 41928 C 3992.83 -3.3501 -5.12284 0
M  V30 41929 N 3991.97 -3.09901 -6.30004 0
M  V30 41930 H 3996.81 -2.30277 -1.89147 0
M  V30 41931 H 3994.35 -1.14414 -0.924551 0
M  V30 41932 H 3996.31 -1.05701 -4.03588 0
M  V30 41933 H 3994.94 -0.261663 -3.21738 0
M  V30 41934 H 3993.99 -2.63482 -2.74374 0
M  V30 41935 H 3995.3 -3.29332 -3.74622 0
M  V30 41936 H 3994.45 -2.01268 -5.72343 0
M  V30 41937 H 3993.19 -1.24977 -4.71415 0
M  V30 41938 H 3992.2 -3.50455 -4.23629 0
M  V30 41939 H 3993.42 -4.27092 -5.27986 0
M  V30 41940 H 3991.37 -2.21332 -6.17534 0
M  V30 41941 H 3991.29 -3.92021 -6.46418 0
M  V30 41942 H 3992.55 -2.98626 -7.2003 0
M  V30 41943 N 3996.78 0.985565 -1.22981 0
M  V30 41944 C 3997.71 2.07931 -0.964221 0
M  V30 41945 C 3998.73 1.6269 0.0598876 0
M  V30 41946 O 3999.92 1.7764 -0.175016 0
M  V30 41947 C 3997.02 3.36162 -0.429938 0
M  V30 41948 C 3996.19 4.10399 -1.513 0
M  V30 41949 C 3995.25 5.16908 -0.984502 0
M  V30 41950 O 3994.27 5.44078 -1.67234 0
M  V30 41951 N 3995.48 5.80188 0.190337 0
M  V30 41952 H 3998.24 2.31294 -1.90587 0
M  V30 41953 H 3995.8 1.15187 -1.13769 0
M  V30 41954 H 3997.79 4.04653 -0.0615351 0
M  V30 41955 H 3996.36 3.09806 0.416994 0
M  V30 41956 H 3995.58 3.36434 -2.0544 0
M  V30 41957 H 3996.87 4.56765 -2.24149 0
M  V30 41958 H 3996.27 5.60492 0.76583 0
M  V30 41959 H 3994.83 6.49879 0.500053 0
M  V30 41960 N 3998.26 1.04068 1.18353 0
M  V30 41961 C 3999.51 0.739263 1.87664 0
M  V30 41962 C 3999.82 -0.735931 1.81228 0
M  V30 41963 O 4001.03 -1.15087 2.45901 0
M  V30 41964 C 3999.48 1.27208 3.36669 0
M  V30 41965 C 3999.09 2.77591 3.51635 0
M  V30 41966 C 4000.84 1.04719 4.11381 0
M  V30 41967 C 3998.74 3.24231 4.94599 0
M  V30 41968 H 3997.67 0.272842 0.702903 0
M  V30 41969 H 4000.32 1.25652 1.33731 0
M  V30 41970 H 3998.71 0.68269 3.90071 0
M  V30 41971 H 3999.88 3.42288 3.08505 0
M  V30 41972 H 3998.2 2.98493 2.90329 0
M  V30 41973 H 4000.79 1.3708 5.1683 0
M  V30 41974 H 4001.14 -0.0155612 4.16297 0
M  V30 41975 H 4001.67 1.6012 3.64152 0
M  V30 41976 H 3998.41 4.29887 4.94851 0
M  V30 41977 H 3997.93 2.64269 5.38444 0
M  V30 41978 H 3999.61 3.18254 5.63314 0
M  V30 41979 N 3999.74 -1.34578 0.820149 0
M  V30 41980 C 4001.15 -1.51381 0.505559 0
M  V30 41981 C 4001.35 -1.76573 -0.970781 0
M  V30 41982 O 4000.41 -1.81504 -1.75535 0
M  V30 41983 C 4001.72 -2.68051 1.36268 0
M  V30 41984 C 4003.27 -2.81933 1.35952 0
M  V30 41985 C 4003.75 -4.01643 2.20107 0
M  V30 41986 N 4005.24 -4.08845 2.17715 0
M  V30 41987 C 4005.97 -5.00622 2.7958 0
M  V30 41988 N 4005.47 -5.97641 3.50424 0
M  V30 41989 N 4007.26 -4.93473 2.69149 0
M  V30 41990 H 3999.41 -1.16485 1.77609 0
M  V30 41991 H 4001.68 -0.571055 0.756703 0
M  V30 41992 H 4001.38 -2.56056 2.41098 0
M  V30 41993 H 4001.26 -3.62994 1.02543 0
M  V30 41994 H 4003.64 -2.93371 0.319023 0
M  V30 41995 H 4003.72 -1.87807 1.73673 0
M  V30 41996 H 4003.37 -3.90965 3.24204 0
M  V30 41997 H 4003.3 -4.94977 1.79738 0
M  V30 41998 H 4005.79 -3.394 1.66181 0
M  V30 41999 H 4006.1 -6.64296 3.94881 0
M  V30 42000 H 4004.45 -5.97774 3.5453 0
M  V30 42001 H 4007.64 -4.16637 2.1338 0
M  V30 42002 H 4007.81 -5.64804 3.17649 0
M  V30 42003 N 4001.22 -0.574861 -1.46742 0
M  V30 42004 C 4002.44 -0.0609143 -2.07311 0
M  V30 42005 C 4002.87 1.23126 -1.42202 0
M  V30 42006 O 4002.22 1.74181 -0.503073 0
M  V30 42007 C 4002.27 0.0996043 -3.60462 0
M  V30 42008 O 4001.38 1.15801 -3.95808 0
M  V30 42009 H 4000.72 -0.0592658 -0.66135 0
M  V30 42010 H 4003.25 -0.795571 -1.88499 0
M  V30 42011 H 4003.26 0.308257 -4.06834 0
M  V30 42012 H 4001.93 -0.844089 -4.07244 0
M  V30 42013 H 4000.51 0.928441 -3.61157 0
M  V30 42014 N 4002.69 1.54476 -0.312224 0
M  V30 42015 C 4003.66 2.226 0.546081 0
M  V30 42016 C 4004.66 1.2157 1.05249 0
M  V30 42017 O 4005.85 1.46228 0.94673 0
M  V30 42018 C 4002.98 2.92118 1.75728 0
M  V30 42019 H 4004.17 2.9986 -0.0492743 0
M  V30 42020 H 4001.73 1.56172 -0.0631764 0
M  V30 42021 H 4002.46 2.18965 2.39217 0
M  V30 42022 H 4002.25 3.6619 1.40168 0
M  V30 42023 H 4003.74 3.44053 2.36679 0
M  V30 42024 N 4004.17 0.0401637 1.57549 0
M  V30 42025 C 4005.14 -0.923089 2.0979 0
M  V30 42026 C 4006.14 -1.24701 1.0152 0
M  V30 42027 O 4007.33 -1.18552 1.27637 0
M  V30 42028 C 4004.46 -2.23632 2.57297 0
M  V30 42029 H 4005.65 -0.47043 2.96187 0
M  V30 42030 H 4003.2 -0.208061 1.54909 0
M  V30 42031 H 4003.94 -2.73503 1.7426 0
M  V30 42032 H 4003.72 -2.01429 3.36406 0
M  V30 42033 H 4005.21 -2.92652 2.979 0
M  V30 42034 N 4005.65 -1.55866 -0.233109 0
M  V30 42035 C 4006.6 -1.91465 -1.28879 0
M  V30 42036 C 4007.57 -0.770461 -1.4715 0
M  V30 42037 O 4008.75 -1.02534 -1.60908 0
M  V30 42038 C 4005.89 -2.22673 -2.63649 0
M  V30 42039 C 4005.01 -3.49968 -2.53272 0
M  V30 42040 C 4004.14 -3.70678 -3.80488 0
M  V30 42041 C 4003.18 -4.91527 -3.64785 0
M  V30 42042 N 4002.32 -5.08687 -4.83924 0
M  V30 42043 H 4007.16 -2.81487 -0.978202 0
M  V30 42044 H 4004.69 -1.39331 -0.471733 0
M  V30 42045 H 4006.65 -2.38775 -3.42115 0
M  V30 42046 H 4005.28 -1.35838 -2.92827 0
M  V30 42047 H 4004.33 -3.42123 -1.66302 0
M  V30 42048 H 4005.65 -4.38583 -2.37585 0
M  V30 42049 H 4004.8 -3.86814 -4.67397 0
M  V30 42050 H 4003.54 -2.80322 -3.99087 0
M  V30 42051 H 4002.54 -4.75353 -2.76259 0
M  V30 42052 H 4003.77 -5.83356 -3.47667 0
M  V30 42053 H 4001.71 -4.21271 -5.02859 0
M  V30 42054 H 4001.63 -5.91414 -4.7092 0
M  V30 42055 H 4002.9 -5.29246 -5.72292 0
M  V30 42056 N 4007.13 0.499346 -1.4948 0
M  V30 42057 C 4008.08 1.6007 -1.66271 0
M  V30 42058 C 4009.05 1.58264 -0.504165 0
M  V30 42059 O 4010.23 1.76225 -0.731389 0
M  V30 42060 C 4007.37 2.98208 -1.73684 0
M  V30 42061 C 4006.48 3.10018 -3.00853 0
M  V30 42062 C 4005.62 4.38899 -2.99235 0
M  V30 42063 C 4004.66 4.44348 -4.20977 0
M  V30 42064 N 4003.8 5.64659 -4.17259 0
M  V30 42065 H 4008.64 1.45061 -2.6031 0
M  V30 42066 H 4006.17 0.705751 -1.29064 0
M  V30 42067 H 4008.13 3.78276 -1.75962 0
M  V30 42068 H 4006.76 3.11918 -0.831092 0
M  V30 42069 H 4005.81 2.23003 -3.08178 0
M  V30 42070 H 4007.12 3.09904 -3.90846 0
M  V30 42071 H 4006.28 5.27289 -3.00085 0
M  V30 42072 H 4005.02 4.4158 -2.07023 0
M  V30 42073 H 4004.02 3.54359 -4.20369 0
M  V30 42074 H 4005.25 4.43381 -5.14383 0
M  V30 42075 H 4003.19 5.68179 -3.27885 0
M  V30 42076 H 4003.11 5.66168 -5.00989 0
M  V30 42077 H 4004.38 6.55252 -4.22215 0
M  V30 42078 N 4008.61 1.38582 0.750513 0
M  V30 42079 C 4009.56 1.36179 1.88568 0
M  V30 42080 C 4010.55 0.247205 1.67587 0
M  V30 42081 O 4011.76 0.416408 1.75117 0
M  V30 42082 H 4008.13 0.424892 0.62046 0
M  V30 42083 H 4010.1 2.31963 1.87712 0
M  V30 42084 C 4008.85 1.20679 3.26086 0
M  V30 42085 H 4008.17 2.05707 3.42819 0
M  V30 42086 H 4009.61 1.23052 4.05752 0
M  V30 42087 C 4008.07 -0.0860597 3.3679 0
M  V30 42088 O 4008.6 -1.06196 3.87408 0
M  V30 42089 N 4006.81 -0.143926 2.90243 0
M  V30 42090 H 4006.36 0.650912 2.49241 0
M  V30 42091 H 4006.31 -1.00852 2.97786 0
M  V30 42092 N 4010.09 -0.979029 1.23502 0
M  V30 42093 C 4011.03 -2.09291 1.01489 0
M  V30 42094 C 4012.03 -1.69336 -0.046564 0
M  V30 42095 O 4013.23 -1.79681 0.107053 0
M  V30 42096 H 4009.61 -0.684632 0.311099 0
M  V30 42097 H 4011.58 -2.25024 1.95976 0
M  V30 42098 C 4010.33 -3.42051 0.624227 0
M  V30 42099 H 4009.65 -3.73247 1.43272 0
M  V30 42100 H 4011.09 -4.20925 0.509722 0
M  V30 42101 C 4009.55 -3.30218 -0.667636 0
M  V30 42102 O 4010.08 -3.63183 -1.71642 0
M  V30 42103 N 4008.29 -2.83373 -0.644072 0
M  V30 42104 H 4007.83 -2.56745 0.209735 0
M  V30 42105 H 4007.79 -2.75838 -1.50867 0
M  V30 42106 N 4011.56 -1.04695 -1.178 0
M  V30 42107 C 4012.81 -0.749205 -1.87269 0
M  V30 42108 C 4013.13 0.72631 -1.81615 0
M  V30 42109 O 4014.33 1.13781 -2.46508 0
M  V30 42110 C 4012.79 -1.28992 -3.3599 0
M  V30 42111 C 4012.4 -2.79452 -3.50158 0
M  V30 42112 C 4014.14 -1.069 -4.1082 0
M  V30 42113 C 4012.05 -3.26849 -4.92873 0
M  V30 42114 H 4010.98 -0.276566 -0.701447 0
M  V30 42115 H 4013.63 -1.26359 -1.33062 0
M  V30 42116 H 4012.01 -0.703367 -3.89703 0
M  V30 42117 H 4013.18 -3.43919 -3.06686 0
M  V30 42118 H 4011.5 -3.00028 -2.88742 0
M  V30 42119 H 4014.1 -1.39819 -5.16096 0
M  V30 42120 H 4014.44 -0.00651628 -4.16299 0
M  V30 42121 H 4014.97 -1.62049 -3.63297 0
M  V30 42122 H 4011.71 -4.32505 -4.92564 0
M  V30 42123 H 4011.23 -2.67121 -5.37035 0
M  V30 42124 H 4012.91 -3.21237 -5.61619 0
M  V30 42125 N 4013.04 1.34141 -0.827275 0
M  V30 42126 C 4014.45 1.80539 -0.475677 0
M  V30 42127 C 4014.8 1.68546 1.00432 0
M  V30 42128 O 4013.93 1.22798 1.78184 0
M  V30 42129 C 4014.52 3.27791 -0.856645 0
M  V30 42130 C 4013.08 3.72251 -0.557355 0
M  V30 42131 C 4012.23 2.55774 -1.07122 0
M  V30 42132 H 4015.18 1.21827 -1.01705 0
M  V30 42133 H 4015.2 3.80154 -0.162126 0
M  V30 42134 H 4014.71 3.36487 -1.93385 0
M  V30 42135 H 4012.81 3.6909 0.510263 0
M  V30 42136 H 4012.93 4.66196 -1.10447 0
M  V30 42137 H 4011.29 2.49891 -0.492578 0
M  V30 42138 H 4012.07 2.67238 -2.15496 0
M  V30 42139 N 4014.52 0.582635 1.46435 0
M  V30 42140 C 4015.77 0.0681849 2.02385 0
M  V30 42141 C 4016.09 -1.29172 1.45412 0
M  V30 42142 O 4015.35 -1.85981 0.609053 0
M  V30 42143 C 4015.65 -0.0476116 3.57368 0
M  V30 42144 C 4015.31 1.24469 4.3338 0
M  V30 42145 C 4013.98 1.59874 4.53865 0
M  V30 42146 C 4016.33 2.09989 4.77026 0
M  V30 42147 C 4013.66 2.80598 5.15249 0
M  V30 42148 C 4016.01 3.29939 5.39744 0
M  V30 42149 C 4014.67 3.65626 5.58457 0
M  V30 42150 H 4013.94 0.0249506 0.74058 0
M  V30 42151 H 4016.59 0.759257 1.75805 0
M  V30 42152 H 4014.89 -0.821811 3.83084 0
M  V30 42153 H 4016.59 -0.461417 3.98336 0
M  V30 42154 H 4013.18 0.959066 4.17732 0
M  V30 42155 H 4017.37 1.83939 4.60956 0
M  V30 42156 H 4012.62 3.08385 5.27928 0
M  V30 42157 H 4016.8 3.96474 5.72522 0
M  V30 42158 H 4014.42 4.59262 6.05791 0
M  V30 42159 N 4016 -1.54309 0.320412 0
M  V30 42160 C 4017.41 -1.59567 -0.0323419 0
M  V30 42161 C 4017.61 -1.33702 -1.50752 0
M  V30 42162 O 4016.67 -1.11991 -2.26306 0
M  V30 42163 C 4017.98 -2.9825 0.383053 0
M  V30 42164 C 4019.53 -3.11219 0.333444 0
M  V30 42165 C 4020.01 -4.52242 0.723954 0
M  V30 42166 N 4021.5 -4.58222 0.677237 0
M  V30 42167 C 4022.23 -5.65448 0.951631 0
M  V30 42168 N 4021.73 -6.80627 1.293 0
M  V30 42169 N 4023.52 -5.5521 0.877401 0
M  V30 42170 H 4015.67 -1.69379 1.28158 0
M  V30 42171 H 4017.93 -0.792064 0.520901 0
M  V30 42172 H 4017.64 -3.22167 1.41072 0
M  V30 42173 H 4017.51 -3.76347 -0.253535 0
M  V30 42174 H 4019.9 -2.87039 -0.685012 0
M  V30 42175 H 4019.98 -2.35234 1.00492 0
M  V30 42176 H 4019.63 -4.77154 1.74031 0
M  V30 42177 H 4019.56 -5.26591 0.0301965 0
M  V30 42178 H 4022.05 -3.75501 0.425121 0
M  V30 42179 H 4022.36 -7.58343 1.48783 0
M  V30 42180 H 4020.71 -6.82132 1.33123 0
M  V30 42181 H 4023.9 -4.64105 0.610225 0
M  V30 42182 H 4024.07 -6.38688 1.0946 0
M  V30 42183 N 4017.48 -0.0485183 -1.57525 0
M  V30 42184 C 4018.41 0.924773 -2.14407 0
M  V30 42185 C 4019.39 1.32629 -1.06506 0
M  V30 42186 O 4020.57 1.40148 -1.34433 0
M  V30 42187 C 4017.7 2.20052 -2.6869 0
M  V30 42188 C 4016.66 1.93915 -3.81551 0
M  V30 42189 C 4015.98 3.27922 -4.2234 0
M  V30 42190 C 4017.28 1.26287 -5.06803 0
M  V30 42191 H 4018.98 0.450998 -2.95984 0
M  V30 42192 H 4016.52 0.215489 -1.42379 0
M  V30 42193 H 4018.47 2.88538 -3.07122 0
M  V30 42194 H 4017.2 2.69631 -1.84301 0
M  V30 42195 H 4015.86 1.27842 -3.43587 0
M  V30 42196 H 4015.51 3.75296 -3.34905 0
M  V30 42197 H 4015.21 3.11233 -4.98405 0
M  V30 42198 H 4016.73 3.97643 -4.6337 0
M  V30 42199 H 4018.14 1.84802 -5.42698 0
M  V30 42200 H 4016.54 1.19933 -5.87993 0
M  V30 42201 H 4017.61 0.23852 -4.84313 0
M  V30 42202 N 4018.95 1.55988 0.224839 0
M  V30 42203 C 4020.18 1.82928 0.966695 0
M  V30 42204 C 4020.6 0.627208 1.78077 0
M  V30 42205 O 4019.95 -0.404245 1.77967 0
M  V30 42206 C 4020 3.08348 1.8869 0
M  V30 42207 O 4019.73 4.23916 1.10574 0
M  V30 42208 C 4021.23 3.4825 2.74293 0
M  V30 42209 H 4018.45 0.608183 0.283468 0
M  V30 42210 H 4020.99 2.03074 0.241061 0
M  V30 42211 H 4019.15 2.90186 2.56653 0
M  V30 42212 H 4019.56 4.95144 1.7301 0
M  V30 42213 H 4021.03 4.39053 3.34569 0
M  V30 42214 H 4021.51 2.69851 3.46522 0
M  V30 42215 H 4022.12 3.6884 2.11749 0
M  V30 42216 N 4020.43 -0.491412 1.49743 0
M  V30 42217 C 4021.67 -1.25498 1.61337 0
M  V30 42218 C 4022.04 -1.89677 0.297737 0
M  V30 42219 O 4023.24 -2.67243 0.288937 0
M  V30 42220 C 4021.51 -2.28626 2.74709 0
M  V30 42221 S 4023.07 -3.14193 3.06313 0
M  V30 42222 H 4019.88 -0.42637 0.568972 0
M  V30 42223 H 4022.49 -0.55547 1.87443 0
M  V30 42224 H 4021.19 -1.80022 3.68809 0
M  V30 42225 H 4020.72 -3.03233 2.50626 0
M  V30 42226 H 4022.74 -4.29448 2.48573 0
M  V30 42227 N 4021.91 -1.38978 -0.743153 0
M  V30 42228 C 4022.87 -1.36832 -1.83874 0
M  V30 42229 C 4023.87 -0.266902 -1.58569 0
M  V30 42230 O 4025.06 -0.524367 -1.66121 0
M  V30 42231 C 4022.2 -1.13286 -3.21526 0
M  V30 42232 H 4023.39 -2.34314 -1.87182 0
M  V30 42233 H 4020.94 -1.24424 -0.945957 0
M  V30 42234 H 4021.68 -0.164531 -3.23882 0
M  V30 42235 H 4021.46 -1.9304 -3.41289 0
M  V30 42236 H 4022.95 -1.14505 -4.01595 0
M  V30 42237 N 4023.39 0.972465 -1.2402 0
M  V30 42238 C 4024.62 1.74987 -1.10395 0
M  V30 42239 C 4025.03 1.85641 0.343927 0
M  V30 42240 O 4024.39 1.3413 1.23755 0
M  V30 42241 C 4024.44 3.17279 -1.73253 0
M  V30 42242 O 4024.16 3.07166 -3.12379 0
M  V30 42243 C 4025.66 4.11378 -1.65175 0
M  V30 42244 H 4022.88 0.548901 -0.385939 0
M  V30 42245 H 4025.43 1.22124 -1.64031 0
M  V30 42246 H 4023.58 3.67143 -1.23631 0
M  V30 42247 H 4023.99 3.96798 -3.43004 0
M  V30 42248 H 4025.47 5.08895 -2.13846 0
M  V30 42249 H 4025.95 4.34914 -0.612057 0
M  V30 42250 H 4026.55 3.67421 -2.142 0
M  V30 42251 N 4024.87 1.05318 1.17243 0
M  V30 42252 C 4026.09 0.784444 1.91453 0
M  V30 42253 C 4026.51 -0.660022 1.76887 0
M  V30 42254 O 4025.87 -1.45101 1.10688 0
M  V30 42255 C 4025.92 1.15728 3.42475 0
M  V30 42256 O 4025.64 2.54505 3.56594 0
M  V30 42257 C 4027.14 0.91486 4.33757 0
M  V30 42258 H 4024.36 0.285118 0.607411 0
M  V30 42259 H 4026.9 1.4042 1.48669 0
M  V30 42260 H 4025.06 0.58225 3.82999 0
M  V30 42261 H 4025.47 2.69155 4.50173 0
M  V30 42262 H 4026.95 1.22546 5.38225 0
M  V30 42263 H 4027.42 -0.149876 4.38944 0
M  V30 42264 H 4028.03 1.47379 3.98948 0
M  V30 42265 N 4026.34 -1.33701 0.834377 0
M  V30 42266 C 4027.76 -1.50836 0.521587 0
M  V30 42267 C 4027.96 -1.77593 -0.951998 0
M  V30 42268 O 4027.02 -1.83356 -1.736 0
M  V30 42269 C 4028.33 -2.66591 1.39104 0
M  V30 42270 C 4029.88 -2.80475 1.38935 0
M  V30 42271 C 4030.35 -3.99286 2.24354 0
M  V30 42272 N 4031.84 -4.06513 2.22039 0
M  V30 42273 C 4032.58 -4.97629 2.84874 0
M  V30 42274 N 4032.07 -5.93891 3.56743 0
M  V30 42275 N 4033.87 -4.9059 2.74368 0
M  V30 42276 H 4026.02 -1.14595 1.78835 0
M  V30 42277 H 4028.28 -0.562997 0.762718 0
M  V30 42278 H 4027.99 -2.53485 2.438 0
M  V30 42279 H 4027.86 -3.61886 1.06387 0
M  V30 42280 H 4030.25 -2.93016 0.350121 0
M  V30 42281 H 4030.33 -1.85954 1.75655 0
M  V30 42282 H 4029.97 -3.87505 3.28333 0
M  V30 42283 H 4029.9 -4.93042 1.84978 0
M  V30 42284 H 4032.39 -3.37618 1.69771 0
M  V30 42285 H 4032.71 -6.6007 4.01905 0
M  V30 42286 H 4031.05 -5.9398 3.6085 0
M  V30 42287 H 4034.24 -4.14351 2.17787 0
M  V30 42288 H 4034.42 -5.61403 3.23622 0
M  V30 42289 N 4027.82 -0.590393 -1.46124 0
M  V30 42290 C 4028.75 0.176353 -2.28521 0
M  V30 42291 C 4029.77 0.848183 -1.38959 0
M  V30 42292 O 4030.96 0.716456 -1.63491 0
M  V30 42293 C 4028.06 1.26969 -3.14217 0
M  V30 42294 C 4027.23 0.688301 -4.3195 0
M  V30 42295 C 4026.29 1.67032 -4.98986 0
M  V30 42296 O 4025.31 1.20335 -5.56334 0
M  V30 42297 N 4026.52 3.00454 -4.96696 0
M  V30 42298 H 4029.28 -0.530598 -2.94966 0
M  V30 42299 H 4026.84 -0.428687 -1.56121 0
M  V30 42300 H 4028.83 1.92608 -3.55927 0
M  V30 42301 H 4027.4 1.87939 -2.49795 0
M  V30 42302 H 4026.62 -0.145747 -3.9393 0
M  V30 42303 H 4027.91 0.279794 -5.0803 0
M  V30 42304 H 4027.31 3.4101 -4.51363 0
M  V30 42305 H 4025.87 3.61562 -5.42325 0
M  V30 42306 N 4029.3 1.54136 -0.328591 0
M  V30 42307 C 4030.55 2.00956 0.272874 0
M  V30 42308 C 4030.88 1.21633 1.5139 0
M  V30 42309 O 4030.15 0.29995 1.92173 0
M  V30 42310 C 4030.44 3.55032 0.601993 0
M  V30 42311 C 4030.29 4.45077 -0.650094 0
M  V30 42312 C 4031.61 4.16643 1.41763 0
M  V30 42313 H 4028.73 0.730495 0.0977049 0
M  V30 42314 H 4031.37 1.84687 -0.446166 0
M  V30 42315 H 4029.52 3.69026 1.21457 0
M  V30 42316 H 4031.19 4.42946 -1.28829 0
M  V30 42317 H 4029.44 4.14548 -1.27798 0
M  V30 42318 H 4030.11 5.50723 -0.375278 0
M  V30 42319 H 4032.58 4.06255 0.899778 0
M  V30 42320 H 4031.46 5.24552 1.61667 0
M  V30 42321 H 4031.72 3.70293 2.41527 0
M  V30 42322 N 4030.78 0.0568716 1.57497 0
M  V30 42323 C 4032.02 -0.616546 1.93201 0
M  V30 42324 C 4032.36 -1.70157 0.935966 0
M  V30 42325 O 4031.63 -1.94464 -0.0371663 0
M  V30 42326 C 4031.92 -1.20736 3.39256 0
M  V30 42327 C 4031.77 -0.130002 4.49612 0
M  V30 42328 C 4033.09 -2.11731 3.85821 0
M  V30 42329 H 4030.21 -0.222656 0.702562 0
M  V30 42330 H 4032.85 0.119799 1.89622 0
M  V30 42331 H 4031 -1.83491 3.42437 0
M  V30 42332 H 4032.67 0.502252 4.58558 0
M  V30 42333 H 4030.91 0.541243 4.3041 0
M  V30 42334 H 4031.58 -0.58351 5.48907 0
M  V30 42335 H 4034.06 -1.5893 3.84552 0
M  V30 42336 H 4032.94 -2.5001 4.88657 0
M  V30 42337 H 4033.2 -3.01969 3.22905 0
M  V30 42338 N 4032.26 -1.56105 -0.216564 0
M  V30 42339 C 4033.2 -1.93684 -1.288 0
M  V30 42340 C 4034.2 -0.819491 -1.48259 0
M  V30 42341 O 4035.4 -1.00436 -1.49374 0
M  V30 42342 H 4031.78 -0.615577 -0.431936 0
M  V30 42343 H 4033.75 -2.83078 -0.943905 0
M  V30 42344 C 4032.5 -2.27419 -2.63013 0
M  V30 42345 H 4031.82 -3.12912 -2.48849 0
M  V30 42346 H 4033.26 -2.57592 -3.36782 0
M  V30 42347 C 4031.72 -1.10109 -3.18399 0
M  V30 42348 O 4032.25 -0.364829 -4.0004 0
M  V30 42349 N 4030.46 -0.883584 -2.76841 0
M  V30 42350 H 4030 -1.48403 -2.10557 0
M  V30 42351 H 4029.96 -0.100423 -3.1424 0
M  V30 42352 N 4033.73 0.483463 -1.50001 0
M  V30 42353 C 4034.98 1.23826 -1.60608 0
M  V30 42354 C 4035.31 1.91872 -0.299812 0
M  V30 42355 O 4034.59 1.81548 0.697894 0
M  V30 42356 C 4034.87 2.2916 -2.77773 0
M  V30 42357 C 4034.72 1.655 -4.18246 0
M  V30 42358 C 4036.04 3.30579 -2.90527 0
M  V30 42359 H 4033.16 0.44883 -0.584569 0
M  V30 42360 H 4035.8 0.533823 -1.82347 0
M  V30 42361 H 4033.95 2.8924 -2.59369 0
M  V30 42362 H 4035.63 1.09112 -4.4821 0
M  V30 42363 H 4033.87 0.958502 -4.23078 0
M  V30 42364 H 4034.54 2.41985 -4.96132 0
M  V30 42365 H 4037.02 2.80508 -3.07335 0
M  V30 42366 H 4035.89 4.01623 -3.74153 0
M  V30 42367 H 4036.15 3.93961 -2.00616 0
M  V30 42368 N 4035.21 1.39371 0.735772 0
M  V30 42369 C 4036.46 1.35864 1.49077 0
M  V30 42370 C 4036.77 -0.0429128 1.95553 0
M  V30 42371 O 4037.98 -0.200566 2.70758 0
M  V30 42372 C 4036.44 2.38678 2.69371 0
M  V30 42373 C 4036.04 3.84544 2.29847 0
M  V30 42374 C 4037.79 2.44246 3.47195 0
M  V30 42375 C 4035.7 4.79002 3.46859 0
M  V30 42376 H 4034.63 0.505096 0.559816 0
M  V30 42377 H 4037.28 1.65013 0.802681 0
M  V30 42378 H 4035.66 2.02598 3.4025 0
M  V30 42379 H 4036.83 4.2966 1.66519 0
M  V30 42380 H 4035.15 3.82264 1.65116 0
M  V30 42381 H 4037.74 3.12009 4.34228 0
M  V30 42382 H 4038.09 1.46675 3.89605 0
M  V30 42383 H 4038.62 2.79215 2.83344 0
M  V30 42384 H 4035.36 5.77832 3.095 0
M  V30 42385 H 4034.88 4.38565 4.0917 0
M  V30 42386 H 4036.56 4.97867 4.13204 0
M  V30 42387 N 4036.69 -0.965875 1.24534 0
M  V30 42388 C 4037.92 -1.74399 1.11321 0
M  V30 42389 C 4038.33 -1.85821 -0.334078 0
M  V30 42390 O 4037.69 -1.34785 -1.23042 0
M  V30 42391 C 4037.74 -3.16355 1.74933 0
M  V30 42392 O 4037.46 -3.05505 3.14004 0
M  V30 42393 C 4038.96 -4.10497 1.67354 0
M  V30 42394 H 4036.18 -0.546846 0.388845 0
M  V30 42395 H 4038.73 -1.21252 1.64676 0
M  V30 42396 H 4036.88 -3.66482 1.25577 0
M  V30 42397 H 4037.3 -3.94973 3.45104 0
M  V30 42398 H 4038.77 -5.07753 2.16542 0
M  V30 42399 H 4039.25 -4.34584 0.635113 0
M  V30 42400 H 4039.85 -3.6628 2.16146 0
M  V30 42401 N 4038.17 -1.05938 -1.16683 0
M  V30 42402 C 4039.4 -0.794586 -1.91034 0
M  V30 42403 C 4039.81 0.650632 -1.77235 0
M  V30 42404 O 4039.17 1.44512 -1.11456 0
M  V30 42405 C 4039.22 -1.17542 -3.41857 0
M  V30 42406 O 4038.94 -2.56392 -3.55239 0
M  V30 42407 C 4040.44 -0.93785 -4.33266 0
M  V30 42408 H 4037.66 -0.288336 -0.605891 0
M  V30 42409 H 4040.21 -1.41206 -1.47923 0
M  V30 42410 H 4038.36 -0.602553 -3.82685 0
M  V30 42411 H 4038.78 -2.71539 -4.48739 0
M  V30 42412 H 4040.25 -1.25398 -5.37568 0
M  V30 42413 H 4040.73 0.126596 -4.39018 0
M  V30 42414 H 4041.33 -1.49493 -3.98161 0
M  V30 42415 N 4039.65 1.33256 -0.841456 0
M  V30 42416 C 4040.59 2.29161 -0.274527 0
M  V30 42417 C 4041.56 1.54449 0.611116 0
M  V30 42418 O 4042.75 1.82736 0.548836 0
M  V30 42419 C 4039.89 3.40814 0.542215 0
M  V30 42420 C 4039 4.30432 -0.36774 0
M  V30 42421 C 4038.14 5.29201 0.460354 0
M  V30 42422 C 4037.18 6.1046 -0.447829 0
M  V30 42423 N 4036.31 7.01265 0.342291 0
M  V30 42424 H 4041.15 2.77047 -1.09767 0
M  V30 42425 H 4038.69 1.36319 -0.552759 0
M  V30 42426 H 4040.65 4.04254 1.03125 0
M  V30 42427 H 4039.28 2.94114 1.3303 0
M  V30 42428 H 4038.33 3.6769 -0.975097 0
M  V30 42429 H 4039.64 4.87292 -1.06529 0
M  V30 42430 H 4038.8 5.98181 1.0131 0
M  V30 42431 H 4037.54 4.72926 1.19133 0
M  V30 42432 H 4036.54 5.40395 -1.01257 0
M  V30 42433 H 4037.77 6.68819 -1.17721 0
M  V30 42434 H 4035.71 6.47435 1.0566 0
M  V30 42435 H 4035.63 7.55418 -0.296489 0
M  V30 42436 H 4036.9 7.74549 0.877195 0
M  V30 42437 N 4041.13 0.598134 1.45809 0
M  V30 42438 C 4042.37 0.0872775 2.01511 0
M  V30 42439 C 4042.69 -1.28639 1.47347 0
M  V30 42440 O 4043.89 -1.88945 1.94967 0
M  V30 42441 C 4042.35 0.10538 3.59746 0
M  V30 42442 C 4041.96 1.47832 4.22906 0
M  V30 42443 C 4043.7 -0.350727 4.23049 0
M  V30 42444 C 4041.61 1.45331 5.73265 0
M  V30 42445 H 4040.54 0.0288594 0.753447 0
M  V30 42446 H 4043.19 0.752066 1.6738 0
M  V30 42447 H 4041.57 -0.625878 3.91023 0
M  V30 42448 H 4042.75 2.23053 4.03217 0
M  V30 42449 H 4041.06 1.87573 3.7176 0
M  V30 42450 H 4043.66 -0.388467 5.33287 0
M  V30 42451 H 4044 -1.37148 3.9306 0
M  V30 42452 H 4044.53 0.326958 3.96454 0
M  V30 42453 H 4041.27 2.45136 6.07938 0
M  V30 42454 H 4040.79 0.743541 5.95174 0
M  V30 42455 H 4042.47 1.17286 6.36281 0
M  V30 42456 N 4042.6 -1.5396 0.33676 0
M  V30 42457 C 4043.83 -2.05686 -0.266104 0
M  V30 42458 C 4044.25 -1.21053 -1.43971 0
M  V30 42459 O 4043.61 -0.222684 -1.79927 0
M  V30 42460 C 4043.66 -3.54403 -0.665648 0
M  V30 42461 O 4042.76 -3.72651 -1.76649 0
M  V30 42462 H 4042.1 -0.662436 -0.0455539 0
M  V30 42463 H 4044.63 -1.9867 0.489004 0
M  V30 42464 H 4044.64 -3.96913 -0.944678 0
M  V30 42465 H 4043.32 -4.15454 0.192662 0
M  V30 42466 H 4041.9 -3.42045 -1.48525 0
M  V30 42467 N 4044.08 -0.0652232 -1.57465 0
M  V30 42468 C 4045.01 0.90198 -2.15375 0
M  V30 42469 C 4045.99 1.31492 -1.07906 0
M  V30 42470 O 4047.18 1.38714 -1.35912 0
M  V30 42471 C 4044.31 2.1719 -2.71009 0
M  V30 42472 C 4043.26 1.89857 -3.83586 0
M  V30 42473 C 4042.59 3.23424 -4.25794 0
M  V30 42474 C 4043.89 1.20904 -5.08114 0
M  V30 42475 H 4045.58 0.419579 -2.96445 0
M  V30 42476 H 4043.13 0.200376 -1.42599 0
M  V30 42477 H 4045.08 2.85264 -3.10165 0
M  V30 42478 H 4043.8 2.67661 -1.8715 0
M  V30 42479 H 4042.46 1.24191 -3.44923 0
M  V30 42480 H 4042.11 3.71723 -3.38867 0
M  V30 42481 H 4041.81 3.05929 -5.01678 0
M  V30 42482 H 4043.34 3.92706 -4.67562 0
M  V30 42483 H 4044.75 1.79036 -5.44627 0
M  V30 42484 H 4043.15 1.13689 -5.89232 0
M  V30 42485 H 4044.22 0.187139 -4.84539 0
M  V30 42486 N 4045.56 1.56218 0.208282 0
M  V30 42487 C 4046.51 1.93491 1.25816 0
M  V30 42488 C 4047.48 0.793773 1.45906 0
M  V30 42489 O 4048.66 1.05081 1.59256 0
M  V30 42490 C 4045.8 2.26839 2.60073 0
M  V30 42491 C 4044.91 3.53953 2.47672 0
M  V30 42492 C 4044.05 3.76685 3.74542 0
M  V30 42493 C 4043.09 4.97268 3.56919 0
M  V30 42494 N 4042.23 5.16321 4.7577 0
M  V30 42495 H 4047.07 2.83008 0.933296 0
M  V30 42496 H 4044.6 1.40064 0.449507 0
M  V30 42497 H 4046.56 2.44187 3.38273 0
M  V30 42498 H 4045.19 1.40479 2.90629 0
M  V30 42499 H 4044.24 3.44725 1.60838 0
M  V30 42500 H 4045.55 4.42307 2.30577 0
M  V30 42501 H 4044.71 3.94201 4.61184 0
M  V30 42502 H 4043.45 2.86636 3.94577 0
M  V30 42503 H 4042.45 4.79688 2.68662 0
M  V30 42504 H 4043.68 5.88813 3.38342 0
M  V30 42505 H 4041.62 4.29217 4.96093 0
M  V30 42506 H 4041.54 5.98831 4.61451 0
M  V30 42507 H 4042.81 5.38284 5.638 0
M  V30 42508 N 4047.04 -0.475502 1.50256 0
M  V30 42509 C 4048.29 -1.22548 1.60706 0
M  V30 42510 C 4048.61 -1.92562 0.307409 0
M  V30 42511 O 4047.88 -1.83909 -0.674853 0
M  V30 42512 H 4046.46 -0.455332 0.592184 0
M  V30 42513 H 4049.12 -0.548893 1.87011 0
M  V30 42514 H 4048.21 -1.97576 2.41599 0
M  V30 42515 N 4048.52 -1.39759 -0.72837 0
M  V30 42516 C 4049.76 -1.37072 -1.48512 0
M  V30 42517 C 4050.08 0.030492 -1.94976 0
M  V30 42518 O 4049.35 0.982957 -1.69454 0
M  V30 42519 H 4047.93 -0.504444 -0.550949 0
M  V30 42520 H 4050.6 -1.7469 -0.864266 0
M  V30 42521 H 4049.69 -2.0376 -2.36407 0
M  V30 42522 N 4049.99 0.959257 -1.25044 0
M  V30 42523 C 4050.94 2.05521 -1.05024 0
M  V30 42524 C 4051.91 1.66054 0.0391648 0
M  V30 42525 O 4053.1 1.9044 -0.117113 0
M  V30 42526 C 4050.24 3.38532 -0.670106 0
M  V30 42527 C 4049.35 3.91143 -1.83388 0
M  V30 42528 C 4048.48 5.12459 -1.39853 0
M  V30 42529 C 4047.52 5.57288 -2.53172 0
M  V30 42530 N 4046.66 6.69818 -2.10447 0
M  V30 42531 H 4051.5 2.21979 -1.9882 0
M  V30 42532 H 4049.04 1.08785 -0.990159 0
M  V30 42533 H 4050.99 4.14971 -0.430694 0
M  V30 42534 H 4049.62 3.21973 0.230867 0
M  V30 42535 H 4048.68 3.11266 -2.18672 0
M  V30 42536 H 4049.99 4.20365 -2.68504 0
M  V30 42537 H 4049.14 5.96301 -1.1185 0
M  V30 42538 H 4047.88 4.84941 -0.518025 0
M  V30 42539 H 4046.89 4.72015 -2.81926 0
M  V30 42540 H 4048.11 5.86816 -3.41794 0
M  V30 42541 H 4046.06 6.44018 -1.24805 0
M  V30 42542 H 4045.97 6.98534 -2.89113 0
M  V30 42543 H 4047.24 7.5708 -1.85606 0
M  V30 42544 N 4051.47 1.06556 1.16119 0
M  V30 42545 C 4052.72 0.778903 1.86054 0
M  V30 42546 C 4053.03 -0.697325 1.82748 0
M  V30 42547 O 4054.24 -1.09845 2.48287 0
M  V30 42548 C 4052.7 1.34321 3.33895 0
M  V30 42549 C 4052.3 2.84987 3.45668 0
M  V30 42550 C 4054.05 1.13422 4.09067 0
M  V30 42551 C 4051.96 3.34649 4.8761 0
M  V30 42552 H 4050.89 0.28769 0.696958 0
M  V30 42553 H 4053.54 1.2846 1.31035 0
M  V30 42554 H 4051.92 0.765276 3.88535 0
M  V30 42555 H 4053.09 3.48755 3.01175 0
M  V30 42556 H 4051.41 3.04584 2.83932 0
M  V30 42557 H 4054 1.48011 5.13806 0
M  V30 42558 H 4054.35 0.0727451 4.16236 0
M  V30 42559 H 4054.88 1.67808 3.60673 0
M  V30 42560 H 4051.62 4.40287 4.85621 0
M  V30 42561 H 4051.14 2.75631 5.32717 0
M  V30 42562 H 4052.82 3.30132 5.56437 0
M  V30 42563 N 4052.95 -1.32808 0.848511 0
M  V30 42564 C 4054.2 -1.97754 0.449556 0
M  V30 42565 C 4054.53 -1.67018 -0.990894 0
M  V30 42566 O 4053.8 -0.955148 -1.69432 0
M  V30 42567 C 4054.09 -3.53584 0.68196 0
M  V30 42568 C 4053.94 -3.93973 2.17038 0
M  V30 42569 C 4055.26 -4.39895 0.134348 0
M  V30 42570 H 4052.38 -0.718336 0.164811 0
M  V30 42571 H 4055.02 -1.57292 1.0658 0
M  V30 42572 H 4053.17 -3.88181 0.157421 0
M  V30 42573 H 4054.84 -3.69584 2.76053 0
M  V30 42574 H 4053.09 -3.43354 2.65123 0
M  V30 42575 H 4053.76 -5.02544 2.28371 0
M  V30 42576 H 4056.23 -4.11998 0.582828 0
M  V30 42577 H 4055.11 -5.47928 0.326575 0
M  V30 42578 H 4055.37 -4.31495 -0.9625 0
M  V30 42579 N 4054.43 -0.605858 -1.45489 0
M  V30 42580 C 4055.65 -0.104874 -2.07135 0
M  V30 42581 C 4056.08 1.20082 -1.44782 0
M  V30 42582 O 4055.44 1.73074 -0.539906 0
M  V30 42583 C 4055.48 0.0231224 -3.60593 0
M  V30 42584 O 4054.59 1.07379 -3.98175 0
M  V30 42585 H 4053.93 -0.0732807 -0.659944 0
M  V30 42586 H 4056.46 -0.835376 -1.86769 0
M  V30 42587 H 4056.47 0.221892 -4.07396 0
M  V30 42588 H 4055.14 -0.930282 -4.05362 0
M  V30 42589 H 4053.72 0.851625 -3.63045 0
M  V30 42590 N 4055.91 1.53779 -0.34492 0
M  V30 42591 C 4057.13 2.05353 0.252523 0
M  V30 42592 C 4057.55 1.2198 1.44105 0
M  V30 42593 O 4056.91 0.255462 1.80703 0
M  V30 42594 C 4056.96 3.55308 0.666231 0
M  V30 42595 O 4056.68 4.35517 -0.475034 0
M  V30 42596 C 4058.18 4.23059 1.32425 0
M  V30 42597 H 4055.4 0.669244 0.0485085 0
M  V30 42598 H 4057.94 1.98361 -0.497305 0
M  V30 42599 H 4056.1 3.62518 1.366 0
M  V30 42600 H 4056.51 5.243 -0.144975 0
M  V30 42601 H 4057.99 5.29366 1.56446 0
M  V30 42602 H 4058.46 3.75491 2.27823 0
M  V30 42603 H 4059.07 4.20045 0.666476 0
M  V30 42604 N 4057.38 0.0735731 1.57428 0
M  V30 42605 C 4058.62 -0.598768 1.95433 0
M  V30 42606 C 4058.99 -1.66669 0.953171 0
M  V30 42607 O 4060.19 -2.39471 1.22094 0
M  V30 42608 C 4058.46 -1.15914 3.38081 0
M  V30 42609 S 4060.02 -1.84636 3.98064 0
M  V30 42610 H 4056.84 -0.19601 0.683448 0
M  V30 42611 H 4059.44 0.147853 1.9494 0
M  V30 42612 H 4058.14 -0.370086 4.08728 0
M  V30 42613 H 4057.67 -1.94208 3.42121 0
M  V30 42614 H 4059.69 -3.12894 3.85113 0
M  V30 42615 N 4058.86 -1.56326 -0.199995 0
M  V30 42616 C 4060.11 -1.80336 -0.921142 0
M  V30 42617 C 4060.44 -0.645979 -1.83459 0
M  V30 42618 O 4059.69 0.368534 -1.92199 0
M  V30 42619 C 4059.99 -3.10293 -1.7735 0
M  V30 42620 C 4059.66 -4.39409 -1.01145 0
M  V30 42621 C 4058.32 -4.74486 -0.801028 0
M  V30 42622 C 4060.67 -5.19032 -0.4749 0
M  V30 42623 C 4058 -5.86685 -0.0424959 0
M  V30 42624 C 4060.35 -6.32022 0.270397 0
M  V30 42625 C 4059.02 -6.65685 0.49188 0
M  V30 42626 H 4058.29 -0.659898 -0.33707 0
M  V30 42627 H 4060.93 -1.90577 -0.187833 0
M  V30 42628 H 4059.24 -2.95269 -2.57534 0
M  V30 42629 H 4060.93 -3.26075 -2.33401 0
M  V30 42630 H 4057.52 -4.1188 -1.18546 0
M  V30 42631 H 4061.71 -4.9235 -0.624882 0
M  V30 42632 H 4056.96 -6.11242 0.139123 0
M  V30 42633 H 4061.14 -6.92938 0.693554 0
M  V30 42634 H 4058.77 -7.52467 1.08155 0
M  V30 42635 N 4060.34 0.467527 -1.50506 0
M  V30 42636 C 4061.29 1.56508 -1.69629 0
M  V30 42637 C 4062.26 1.57159 -0.537622 0
M  V30 42638 O 4063.44 1.74634 -0.768604 0
M  V30 42639 C 4060.58 2.94457 -1.7997 0
M  V30 42640 C 4059.7 3.03567 -3.07362 0
M  V30 42641 C 4058.83 4.32453 -3.08477 0
M  V30 42642 C 4057.87 4.35318 -4.30307 0
M  V30 42643 N 4057.01 5.55681 -4.29142 0
M  V30 42644 H 4061.85 1.39506 -2.63329 0
M  V30 42645 H 4059.38 0.678216 -1.30532 0
M  V30 42646 H 4061.34 3.74459 -1.83947 0
M  V30 42647 H 4059.97 3.10085 -0.897068 0
M  V30 42648 H 4059.02 2.16416 -3.12839 0
M  V30 42649 H 4060.34 3.01544 -3.97332 0
M  V30 42650 H 4059.49 5.20805 -3.11202 0
M  V30 42651 H 4058.23 4.37089 -2.16343 0
M  V30 42652 H 4057.23 3.45363 -4.2779 0
M  V30 42653 H 4058.46 4.3237 -5.23672 0
M  V30 42654 H 4056.4 5.61096 -3.39863 0
M  V30 42655 H 4056.32 5.55414 -5.12885 0
M  V30 42656 H 4057.59 6.46149 -4.36018 0
M  V30 42657 N 4061.82 1.40143 0.720948 0
M  V30 42658 C 4062.75 1.42732 1.84797 0
M  V30 42659 C 4063.73 0.288895 1.67629 0
M  V30 42660 O 4064.91 0.496746 1.87739 0
M  V30 42661 C 4062.04 1.2839 3.22697 0
M  V30 42662 C 4061 2.39779 3.54528 0
M  V30 42663 C 4060.32 2.10518 4.91514 0
M  V30 42664 C 4061.62 3.82115 3.5607 0
M  V30 42665 H 4063.32 2.37049 1.82888 0
M  V30 42666 H 4060.86 1.141 0.87848 0
M  V30 42667 H 4062.82 1.28819 4.01228 0
M  V30 42668 H 4061.54 0.305465 3.25168 0
M  V30 42669 H 4060.2 2.38591 2.78334 0
M  V30 42670 H 4059.85 1.11078 4.90582 0
M  V30 42671 H 4059.55 2.85141 5.13778 0
M  V30 42672 H 4061.07 2.1262 5.72386 0
M  V30 42673 H 4062.49 3.85155 4.24651 0
M  V30 42674 H 4060.88 4.56213 3.89858 0
M  V30 42675 H 4061.95 4.12083 2.55569 0
M  V30 42676 N 4063.3 -0.952612 1.25551 0
M  V30 42677 C 4064.23 -2.04911 1.00433 0
M  V30 42678 C 4065.21 -1.62461 -0.0670989 0
M  V30 42679 O 4066.39 -1.88359 0.0729728 0
M  V30 42680 C 4063.52 -3.34706 0.518608 0
M  V30 42681 C 4062.56 -3.96119 1.58087 0
M  V30 42682 S 4063.4 -4.31838 3.16664 0
M  V30 42683 C 4064.55 -5.64749 2.69831 0
M  V30 42684 H 4064.79 -2.25902 1.93276 0
M  V30 42685 H 4062.32 -1.09251 1.09103 0
M  V30 42686 H 4064.28 -4.09768 0.245013 0
M  V30 42687 H 4062.94 -3.11677 -0.389353 0
M  V30 42688 H 4062.13 -4.89707 1.19176 0
M  V30 42689 H 4061.73 -3.27546 1.80526 0
M  V30 42690 H 4064.03 -6.42953 2.13583 0
M  V30 42691 H 4064.97 -6.08534 3.62067 0
M  V30 42692 H 4065.38 -5.2408 2.09763 0
M  V30 42693 N 4064.77 -1.0717 -1.15553 0
M  V30 42694 C 4065.7 -0.711819 -2.22386 0
M  V30 42695 C 4066.69 0.299879 -1.67436 0
M  V30 42696 O 4067.87 0.173039 -1.93428 0
M  V30 42697 C 4065 -0.106876 -3.47136 0
M  V30 42698 C 4063.95 -1.04552 -4.15033 0
M  V30 42699 C 4063.28 -0.303431 -5.33838 0
M  V30 42700 C 4064.58 -2.37835 -4.65007 0
M  V30 42701 H 4066.27 -1.605 -2.52745 0
M  V30 42702 H 4063.82 -0.77316 -1.21483 0
M  V30 42703 H 4065.77 0.156816 -4.21108 0
M  V30 42704 H 4064.5 0.821373 -3.16103 0
M  V30 42705 H 4063.16 -1.29411 -3.42999 0
M  V30 42706 H 4062.8 0.62822 -4.99062 0
M  V30 42707 H 4062.5 -0.929066 -5.80209 0
M  V30 42708 H 4064.03 -0.0474942 -6.10582 0
M  V30 42709 H 4065.44 -2.17314 -5.30516 0
M  V30 42710 H 4063.84 -2.95977 -5.22032 0
M  V30 42711 H 4064.91 -3.00271 -3.80743 0
M  V30 42712 N 4066.25 1.32356 -0.855542 0
M  V30 42713 C 4067.2 2.28857 -0.298817 0
M  V30 42714 C 4068.17 1.55089 0.5947 0
M  V30 42715 O 4069.36 1.83308 0.529423 0
M  V30 42716 C 4066.5 3.4137 0.506036 0
M  V30 42717 C 4065.61 4.30018 -0.413372 0
M  V30 42718 C 4064.74 5.2966 0.404199 0
M  V30 42719 C 4063.78 6.0995 -0.512551 0
M  V30 42720 N 4062.92 7.01589 0.267894 0
M  V30 42721 H 4067.76 2.75868 -1.12699 0
M  V30 42722 H 4065.3 1.35725 -0.567186 0
M  V30 42723 H 4067.25 4.05325 0.988313 0
M  V30 42724 H 4065.88 2.95508 1.29903 0
M  V30 42725 H 4064.94 3.66635 -1.01404 0
M  V30 42726 H 4066.25 4.86134 -1.11691 0
M  V30 42727 H 4065.4 5.99222 0.949601 0
M  V30 42728 H 4064.14 4.74163 1.1411 0
M  V30 42729 H 4063.15 5.39291 -1.06983 0
M  V30 42730 H 4064.37 6.67533 -1.24808 0
M  V30 42731 H 4062.32 6.48519 0.987872 0
M  V30 42732 H 4062.23 7.55061 -0.376594 0
M  V30 42733 H 4063.5 7.75435 0.794994 0
M  V30 42734 N 4067.73 0.613565 1.45166 0
M  V30 42735 C 4068.69 -0.0919052 2.29016 0
M  V30 42736 C 4069.69 -0.789348 1.40093 0
M  V30 42737 O 4070.88 -0.636602 1.62151 0
M  V30 42738 C 4068.02 -1.14042 3.21259 0
M  V30 42739 H 4069.21 0.645368 2.92874 0
M  V30 42740 H 4066.76 0.372882 1.51787 0
M  V30 42741 H 4067.5 -1.90826 2.62213 0
M  V30 42742 H 4067.28 -0.644455 3.86768 0
M  V30 42743 H 4068.77 -1.63432 3.84291 0
M  V30 42744 N 4069.21 -1.53594 0.353071 0
M  V30 42745 C 4070.44 -2.05484 -0.241629 0
M  V30 42746 C 4070.85 -1.22743 -1.43456 0
M  V30 42747 O 4070.21 -0.265042 -1.80565 0
M  V30 42748 C 4070.26 -3.55656 -0.647379 0
M  V30 42749 O 4069.98 -4.35259 0.498124 0
M  V30 42750 C 4071.48 -4.23755 -1.30179 0
M  V30 42751 H 4068.7 -0.669492 -0.0449586 0
M  V30 42752 H 4071.25 -1.98095 0.507818 0
M  V30 42753 H 4069.4 -3.63237 -1.34676 0
M  V30 42754 H 4069.82 -5.24215 0.172778 0
M  V30 42755 H 4071.29 -5.30188 -1.53637 0
M  V30 42756 H 4071.77 -3.76694 -2.25828 0
M  V30 42757 H 4072.37 -4.20393 -0.644191 0
M  V30 42758 N 4070.69 -0.0819208 -1.57387 0
M  V30 42759 C 4071.62 0.879086 -2.1632 0
M  V30 42760 C 4072.6 1.3034 -1.09295 0
M  V30 42761 O 4073.78 1.37265 -1.37375 0
M  V30 42762 C 4070.91 2.14304 -2.73297 0
M  V30 42763 C 4069.87 1.85778 -3.85578 0
M  V30 42764 C 4069.19 3.1889 -4.29201 0
M  V30 42765 C 4070.49 1.15508 -5.09367 0
M  V30 42766 H 4072.19 0.388114 -2.96874 0
M  V30 42767 H 4069.73 0.18524 -1.42804 0
M  V30 42768 H 4071.69 2.81958 -3.13173 0
M  V30 42769 H 4070.41 2.65661 -1.89979 0
M  V30 42770 H 4069.07 1.20526 -3.46221 0
M  V30 42771 H 4068.72 3.68108 -3.42791 0
M  V30 42772 H 4068.42 3.00591 -5.04895 0
M  V30 42773 H 4069.94 3.87725 -4.71701 0
M  V30 42774 H 4071.36 1.73249 -5.46496 0
M  V30 42775 H 4069.75 1.07433 -5.90405 0
M  V30 42776 H 4070.82 0.135736 -4.8471 0
M  V30 42777 N 4072.17 1.5643 0.191702 0
M  V30 42778 C 4073.1 1.97842 1.2402 0
M  V30 42779 C 4074.08 0.850879 1.47289 0
M  V30 42780 O 4075.26 1.11546 1.58969 0
M  V30 42781 C 4072.39 2.32084 2.58369 0
M  V30 42782 C 4071.35 3.47607 2.49706 0
M  V30 42783 C 4070.67 3.67535 3.88359 0
M  V30 42784 C 4071.97 4.8169 2.0192 0
M  V30 42785 H 4073.67 2.85677 0.89605 0
M  V30 42786 H 4071.21 1.37443 0.429592 0
M  V30 42787 H 4073.16 2.59649 3.31904 0
M  V30 42788 H 4071.89 1.41135 2.94531 0
M  V30 42789 H 4070.55 3.20138 1.78627 0
M  V30 42790 H 4070.2 2.7391 4.21879 0
M  V30 42791 H 4069.9 4.45253 3.83436 0
M  V30 42792 H 4071.42 3.9748 4.63511 0
M  V30 42793 H 4072.83 5.08265 2.65216 0
M  V30 42794 H 4071.23 5.62902 2.07992 0
M  V30 42795 H 4072.3 4.75046 0.972565 0
M  V30 42796 N 4073.64 -0.459538 1.50751 0
M  V30 42797 C 4074.88 -1.22048 1.63963 0
M  V30 42798 C 4075.25 -1.89003 0.337903 0
M  V30 42799 O 4076.45 -2.6657 0.345558 0
M  V30 42800 C 4074.72 -2.22747 2.79497 0
M  V30 42801 S 4076.28 -3.07625 3.12909 0
M  V30 42802 H 4073.1 -0.414205 0.577888 0
M  V30 42803 H 4075.7 -0.515586 1.88579 0
M  V30 42804 H 4074.4 -1.72159 3.72545 0
M  V30 42805 H 4073.93 -2.97849 2.57002 0
M  V30 42806 H 4075.95 -4.24079 2.57626 0
M  V30 42807 N 4075.12 -1.40523 -0.713506 0
M  V30 42808 C 4076.37 -1.3912 -1.47559 0
M  V30 42809 C 4076.7 0.00588625 -1.94199 0
M  V30 42810 O 4075.98 0.974912 -1.68302 0
M  V30 42811 C 4076.26 -2.38247 -2.70019 0
M  V30 42812 C 4076.11 -3.86988 -2.2926 0
M  V30 42813 C 4077.43 -2.34881 -3.72181 0
M  V30 42814 H 4074.55 -0.506649 -0.535234 0
M  V30 42815 H 4077.19 -1.71673 -0.814142 0
M  V30 42816 H 4075.34 -2.10617 -3.26455 0
M  V30 42817 H 4077.01 -4.25453 -1.7829 0
M  V30 42818 H 4075.26 -4.02721 -1.61239 0
M  V30 42819 H 4075.93 -4.51867 -3.17049 0
M  V30 42820 H 4078.4 -2.59359 -3.2538 0
M  V30 42821 H 4077.28 -3.06284 -4.55501 0
M  V30 42822 H 4077.54 -1.36116 -4.20624 0
M  V30 42823 N 4076.6 0.94594 -1.26054 0
M  V30 42824 C 4077.53 2.06132 -1.0969 0
M  V30 42825 C 4078.51 1.701 -0.00344503 0
M  V30 42826 O 4079.7 1.93414 -0.174593 0
M  V30 42827 C 4076.83 3.39668 -0.724067 0
M  V30 42828 C 4075.78 3.89743 -1.76873 0
M  V30 42829 C 4075.11 5.19875 -1.25034 0
M  V30 42830 C 4076.41 4.15154 -3.1693 0
M  V30 42831 H 4078.1 2.2008 -2.0299 0
M  V30 42832 H 4075.65 1.05753 -0.977364 0
M  V30 42833 H 4077.6 4.17157 -0.596485 0
M  V30 42834 H 4076.32 3.25682 0.244638 0
M  V30 42835 H 4074.98 3.14431 -1.8849 0
M  V30 42836 H 4074.63 5.02266 -0.271615 0
M  V30 42837 H 4074.33 5.54349 -1.94863 0
M  V30 42838 H 4075.85 5.99952 -1.13533 0
M  V30 42839 H 4077.27 4.83272 -3.08417 0
M  V30 42840 H 4075.66 4.60899 -3.84307 0
M  V30 42841 H 4076.73 3.21108 -3.63342 0
M  V30 42842 N 4078.08 1.07781 1.14983 0
M  V30 42843 C 4079.04 0.705917 2.18058 0
M  V30 42844 C 4080.04 -0.256054 1.58748 0
M  V30 42845 O 4081.23 -0.0364371 1.74162 0
M  V30 42846 C 4078.36 0.0411853 3.40875 0
M  V30 42847 H 4079.56 1.61856 2.52473 0
M  V30 42848 H 4077.11 0.874886 1.2952 0
M  V30 42849 H 4077.84 -0.883493 3.12033 0
M  V30 42850 H 4077.63 0.733128 3.85185 0
M  V30 42851 H 4079.12 -0.204202 4.171 0
M  V30 42852 N 4079.56 -1.31901 0.862549 0
M  V30 42853 C 4080.52 -2.26985 0.317876 0
M  V30 42854 C 4081.52 -1.51921 -0.526932 0
M  V30 42855 O 4082.71 -1.70903 -0.337306 0
M  V30 42856 C 4079.84 -3.36444 -0.549381 0
M  V30 42857 H 4081.03 -2.76675 1.15719 0
M  V30 42858 H 4078.59 -1.42707 0.637526 0
M  V30 42859 H 4079.32 -2.92034 -1.41019 0
M  V30 42860 H 4079.11 -3.92061 0.0554331 0
M  V30 42861 H 4080.6 -4.07272 -0.922987 0
M  V30 42862 N 4081.03 -0.621255 -1.44838 0
M  V30 42863 C 4081.96 0.0765876 -2.33374 0
M  V30 42864 C 4082.95 0.844906 -1.47632 0
M  V30 42865 O 4084.13 0.812749 -1.76375 0
M  V30 42866 C 4081.26 1.06544 -3.30554 0
M  V30 42867 C 4080.21 0.409421 -4.26037 0
M  V30 42868 C 4079.54 1.50748 -5.1301 0
M  V30 42869 C 4080.84 -0.678085 -5.1788 0
M  V30 42870 H 4082.53 -0.662709 -2.91973 0
M  V30 42871 H 4080.08 -0.320142 -1.40396 0
M  V30 42872 H 4082.03 1.5623 -3.9137 0
M  V30 42873 H 4080.76 1.8355 -2.70142 0
M  V30 42874 H 4079.42 -0.0666965 -3.66539 0
M  V30 42875 H 4079.06 2.26817 -4.48958 0
M  V30 42876 H 4078.76 1.07397 -5.77702 0
M  V30 42877 H 4080.29 2.00634 -5.76696 0
M  V30 42878 H 4081.7 -0.264738 -5.72688 0
M  V30 42879 H 4080.1 -1.03415 -5.91122 0
M  V30 42880 H 4081.17 -1.54922 -4.59486 0
M  V30 42881 N 4082.51 1.53405 -0.361211 0
M  V30 42882 C 4083.76 2.01489 0.230187 0
M  V30 42883 C 4084.09 1.24817 1.48776 0
M  V30 42884 O 4083.37 0.340645 1.91494 0
M  V30 42885 C 4083.65 3.5623 0.52655 0
M  V30 42886 C 4083.5 4.43598 -0.744355 0
M  V30 42887 C 4084.82 4.19556 1.32893 0
M  V30 42888 H 4081.94 0.732403 0.082188 0
M  V30 42889 H 4084.58 1.83699 -0.48524 0
M  V30 42890 H 4082.73 3.71519 1.13603 0
M  V30 42891 H 4084.4 4.40113 -1.38195 0
M  V30 42892 H 4082.65 4.11744 -1.36562 0
M  V30 42893 H 4083.32 5.49803 -0.49201 0
M  V30 42894 H 4085.79 4.08072 0.813403 0
M  V30 42895 H 4084.67 5.27863 1.50504 0
M  V30 42896 H 4084.93 3.75333 2.33619 0
M  V30 42897 N 4083.99 0.0902663 1.57341 0
M  V30 42898 C 4085.23 -0.578006 1.96057 0
M  V30 42899 C 4085.59 -1.65649 0.970795 0
M  V30 42900 O 4086.8 -2.38163 1.24627 0
M  V30 42901 C 4085.07 -1.12322 3.39291 0
M  V30 42902 S 4086.63 -1.80404 4 0
M  V30 42903 H 4083.44 -0.18875 0.685488 0
M  V30 42904 H 4086.05 0.168521 1.94772 0
M  V30 42905 H 4084.75 -0.326714 4.09097 0
M  V30 42906 H 4084.28 -1.90568 3.44162 0
M  V30 42907 H 4086.3 -3.08791 3.8841 0
M  V30 42908 N 4085.47 -1.56529 -0.183403 0
M  V30 42909 C 4086.7 -1.85158 -0.916524 0
M  V30 42910 C 4087.11 -0.672094 -1.7686 0
M  V30 42911 O 4086.45 0.368268 -1.79971 0
M  V30 42912 C 4086.51 -3.08043 -1.85336 0
M  V30 42913 C 4086.18 -4.41447 -1.18209 0
M  V30 42914 C 4087.17 -5.16947 -0.553354 0
M  V30 42915 C 4084.86 -4.88184 -1.18245 0
M  V30 42916 C 4086.85 -6.37366 0.0660542 0
M  V30 42917 C 4084.54 -6.08536 -0.559209 0
M  V30 42918 C 4085.54 -6.8297 0.0639501 0
M  V30 42919 O 4085.22 -8.01041 0.677392 0
M  V30 42920 H 4084.96 -0.618718 -0.272332 0
M  V30 42921 H 4087.51 -2.045 -0.192049 0
M  V30 42922 H 4085.74 -2.84616 -2.61784 0
M  V30 42923 H 4087.43 -3.2322 -2.45528 0
M  V30 42924 H 4088.2 -4.81927 -0.545134 0
M  V30 42925 H 4084.07 -4.30196 -1.65689 0
M  V30 42926 H 4087.62 -6.95404 0.553057 0
M  V30 42927 H 4083.52 -6.43023 -0.564971 0
M  V30 42928 H 4084.28 -8.16475 0.575448 0
M  V30 42929 N 4086.95 0.451537 -1.50993 0
M  V30 42930 C 4088.2 1.199 -1.62194 0
M  V30 42931 C 4088.51 1.92673 -0.337119 0
M  V30 42932 O 4089.71 2.69508 -0.328296 0
M  V30 42933 C 4088.17 2.17973 -2.86384 0
M  V30 42934 C 4087.78 1.50913 -4.21816 0
M  V30 42935 C 4089.52 2.9324 -3.06937 0
M  V30 42936 C 4087.43 2.47387 -5.37172 0
M  V30 42937 H 4086.36 0.451241 -0.604068 0
M  V30 42938 H 4089.01 0.467451 -1.77446 0
M  V30 42939 H 4087.39 2.94503 -2.64734 0
M  V30 42940 H 4088.57 0.800386 -4.53796 0
M  V30 42941 H 4086.88 0.878533 -4.07027 0
M  V30 42942 H 4089.48 3.65481 -3.90292 0
M  V30 42943 H 4089.82 3.53766 -2.19443 0
M  V30 42944 H 4090.35 2.2382 -3.28861 0
M  V30 42945 H 4087.09 1.91571 -6.26882 0
M  V30 42946 H 4086.61 3.16356 -5.09587 0
M  V30 42947 H 4088.29 3.08814 -5.68545 0
M  V30 42948 N 4088.42 1.409 0.706044 0
M  V30 42949 C 4089.67 1.399 1.46819 0
M  V30 42950 C 4090 0.00441269 1.94199 0
M  V30 42951 O 4089.28 -0.965972 1.68817 0
M  V30 42952 C 4089.56 2.39676 2.68752 0
M  V30 42953 C 4089.41 3.88199 2.27204 0
M  V30 42954 C 4090.73 2.36852 3.7093 0
M  V30 42955 H 4087.85 0.50948 0.53254 0
M  V30 42956 H 4090.49 1.72103 0.805026 0
M  V30 42957 H 4088.64 2.12346 3.25333 0
M  V30 42958 H 4090.32 4.26393 1.76031 0
M  V30 42959 H 4088.56 4.03571 1.59101 0
M  V30 42960 H 4089.23 4.53542 3.14648 0
M  V30 42961 H 4091.71 2.61081 3.24 0
M  V30 42962 H 4090.58 3.08695 4.5387 0
M  V30 42963 H 4090.84 1.38345 4.19897 0
M  V30 42964 N 4089.9 -0.939242 1.26554 0
M  V30 42965 C 4090.84 -2.03834 1.02601 0
M  V30 42966 C 4091.81 -1.62524 -0.0498639 0
M  V30 42967 O 4093 -1.88271 0.0929466 0
M  V30 42968 C 4090.12 -3.34137 0.554079 0
M  V30 42969 C 4089.17 -3.9442 1.6228 0
M  V30 42970 S 4090 -4.28455 3.21226 0
M  V30 42971 C 4091.16 -5.61856 2.75806 0
M  V30 42972 H 4091.39 -2.23839 1.95661 0
M  V30 42973 H 4088.93 -1.08088 1.10256 0
M  V30 42974 H 4090.88 -4.09485 0.288461 0
M  V30 42975 H 4089.54 -3.12073 -0.356274 0
M  V30 42976 H 4088.74 -4.88415 1.24364 0
M  V30 42977 H 4088.34 -3.25613 1.83989 0
M  V30 42978 H 4090.63 -6.40651 2.2039 0
M  V30 42979 H 4091.57 -6.04659 3.68501 0
M  V30 42980 H 4091.98 -5.21826 2.1531 0
M  V30 42981 N 4091.38 -1.08389 -1.14409 0
M  V30 42982 C 4092.79 -0.834509 -1.67011 0
M  V30 42983 C 4093.14 0.638769 -1.85511 0
M  V30 42984 O 4092.27 1.49336 -1.56614 0
M  V30 42985 C 4092.86 -1.5083 -3.03374 0
M  V30 42986 C 4091.42 -1.30616 -3.53011 0
M  V30 42987 C 4090.57 -1.57121 -2.28491 0
M  V30 42988 H 4093.52 -1.2445 -0.984772 0
M  V30 42989 H 4093.54 -0.935416 -3.68823 0
M  V30 42990 H 4093.05 -2.58055 -2.89878 0
M  V30 42991 H 4091.15 -0.254604 -3.71729 0
M  V30 42992 H 4091.27 -2.03367 -4.33796 0
M  V30 42993 H 4089.63 -0.992751 -2.34556 0
M  V30 42994 H 4090.41 -2.65551 -2.17572 0
M  V30 42995 N 4092.86 1.31442 -0.869532 0
M  V30 42996 C 4094.1 1.97014 -0.48096 0
M  V30 42997 C 4094.44 1.68573 0.964198 0
M  V30 42998 O 4093.71 0.981983 1.67891 0
M  V30 42999 C 4094 3.52454 -0.738126 0
M  V30 43000 C 4093.85 3.9047 -2.23279 0
M  V30 43001 C 4095.17 4.39625 -0.204314 0
M  V30 43002 H 4092.29 0.715623 -0.176218 0
M  V30 43003 H 4094.93 1.55576 -1.09069 0
M  V30 43004 H 4093.08 3.87881 -0.219158 0
M  V30 43005 H 4094.75 3.65146 -2.81897 0
M  V30 43006 H 4092.99 3.39093 -2.70552 0
M  V30 43007 H 4093.66 4.98847 -2.36337 0
M  V30 43008 H 4096.14 4.11019 -0.6483 0
M  V30 43009 H 4095.02 5.47339 -0.413704 0
M  V30 43010 H 4095.28 4.32972 0.893731 0
M  V30 43011 N 4094.34 0.628927 1.44507 0
M  V30 43012 C 4095.29 -0.0991543 2.27784 0
M  V30 43013 C 4096.27 -0.81826 1.3854 0
M  V30 43014 O 4097.46 -0.704731 1.62365 0
M  V30 43015 C 4094.59 -1.08154 3.25818 0
M  V30 43016 C 4093.68 -0.362174 4.22551 0
M  V30 43017 N 4094.07 0.608003 5.02132 0
M  V30 43018 C 4092.37 -0.606912 4.41851 0
M  V30 43019 C 4093.07 1.03282 5.72458 0
M  V30 43020 N 4092.04 0.372062 5.42325 0
M  V30 43021 H 4095.85 0.645671 2.8672 0
M  V30 43022 H 4093.36 0.454258 1.55917 0
M  V30 43023 H 4095.36 -1.61773 3.84233 0
M  V30 43024 H 4094.02 -1.8267 2.68444 0
M  V30 43025 H 4095.03 0.985715 5.08433 0
M  V30 43026 H 4091.7 -1.3351 3.95577 0
M  V30 43027 H 4093.09 1.83421 6.4638 0
M  V30 43028 N 4095.82 -1.53211 0.369342 0
M  V30 43029 C 4097.04 -2.05729 -0.219821 0
M  V30 43030 C 4097.46 -1.24257 -1.42146 0
M  V30 43031 O 4096.82 -0.284178 -1.80274 0
M  V30 43032 C 4096.87 -3.56323 -0.609621 0
M  V30 43033 O 4096.59 -4.34706 0.544261 0
M  V30 43034 C 4098.09 -4.25112 -1.25677 0
M  V30 43035 H 4095.31 -0.669931 -0.0378552 0
M  V30 43036 H 4097.85 -1.97545 0.5288 0
M  V30 43037 H 4096.01 -3.64645 -1.30815 0
M  V30 43038 H 4096.42 -5.24003 0.228368 0
M  V30 43039 H 4097.9 -5.31788 -1.48005 0
M  V30 43040 H 4098.37 -3.79068 -2.2182 0
M  V30 43041 H 4098.98 -4.21053 -0.599566 0
M  V30 43042 N 4097.29 -0.0986092 -1.57291 0
M  V30 43043 C 4098.22 0.856093 -2.1724 0
M  V30 43044 C 4099.2 1.29174 -1.10671 0
M  V30 43045 O 4100.39 1.358 -1.38823 0
M  V30 43046 C 4097.52 2.11393 -2.75555 0
M  V30 43047 C 4096.47 1.81678 -3.87527 0
M  V30 43048 C 4095.8 3.1432 -4.32559 0
M  V30 43049 C 4097.1 1.10099 -5.10564 0
M  V30 43050 H 4098.79 0.356604 -2.97269 0
M  V30 43051 H 4096.34 0.170083 -1.42992 0
M  V30 43052 H 4098.29 2.78621 -3.16146 0
M  V30 43053 H 4097.02 2.63631 -1.92786 0
M  V30 43054 H 4095.68 1.16847 -3.4748 0
M  V30 43055 H 4095.32 3.64452 -3.46676 0
M  V30 43056 H 4095.02 2.95219 -5.08055 0
M  V30 43057 H 4096.55 3.827 -4.75786 0
M  V30 43058 H 4097.96 1.67443 -5.48302 0
M  V30 43059 H 4096.36 1.01165 -5.91511 0
M  V30 43060 H 4097.43 0.0843189 -4.84827 0
M  V30 43061 N 4098.77 1.56624 0.175099 0
M  V30 43062 C 4100 1.86269 0.912066 0
M  V30 43063 C 4100.42 0.684516 1.75203 0
M  V30 43064 O 4099.78 -0.36647 1.77558 0
M  V30 43065 C 4099.83 3.143 1.76771 0
M  V30 43066 O 4098.93 2.96258 2.86889 0
M  V30 43067 H 4098.27 0.612784 0.255717 0
M  V30 43068 H 4100.8 2.03856 0.17438 0
M  V30 43069 H 4100.81 3.45608 2.16839 0
M  V30 43070 H 4099.49 3.99665 1.1507 0
M  V30 43071 H 4098.06 2.76295 2.50431 0
M  V30 43072 N 4100.25 -0.443523 1.5123 0
M  V30 43073 C 4101.5 -1.19039 1.62827 0
M  V30 43074 C 4101.81 -1.92491 0.347332 0
M  V30 43075 O 4103.02 -2.6933 0.342584 0
M  V30 43076 C 4101.47 -2.16451 2.87536 0
M  V30 43077 C 4101.08 -1.48674 4.22611 0
M  V30 43078 C 4102.83 -2.91608 3.08488 0
M  V30 43079 C 4100.73 -2.44534 5.38476 0
M  V30 43080 H 4099.66 -0.448031 0.606452 0
M  V30 43081 H 4102.31 -0.458034 1.77692 0
M  V30 43082 H 4100.7 -2.93095 2.66292 0
M  V30 43083 H 4101.87 -0.776309 4.54214 0
M  V30 43084 H 4100.18 -0.856935 4.07487 0
M  V30 43085 H 4102.78 -3.63406 3.92225 0
M  V30 43086 H 4103.12 -3.52597 2.21316 0
M  V30 43087 H 4103.66 -2.22073 3.30043 0
M  V30 43088 H 4100.4 -1.88244 6.27889 0
M  V30 43089 H 4099.92 -3.1365 5.11257 0
M  V30 43090 H 4101.6 -3.05794 5.70175 0
M  V30 43091 N 4101.73 -1.41272 -0.698562 0
M  V30 43092 C 4102.68 -1.39354 -1.80457 0
M  V30 43093 C 4103.66 -0.268369 -1.58646 0
M  V30 43094 O 4104.85 -0.508807 -1.69529 0
M  V30 43095 C 4101.98 -1.2752 -3.18737 0
M  V30 43096 C 4101.07 -2.44887 -3.46253 0
M  V30 43097 N 4101.46 -3.70357 -3.44484 0
M  V30 43098 C 4099.76 -2.38636 -3.76788 0
M  V30 43099 C 4100.46 -4.48181 -3.70821 0
M  V30 43100 N 4099.43 -3.78253 -3.90417 0
M  V30 43101 H 4103.24 -2.34285 -1.77448 0
M  V30 43102 H 4100.75 -1.35285 -0.898424 0
M  V30 43103 H 4102.75 -1.24228 -3.97961 0
M  V30 43104 H 4101.41 -0.335709 -3.2296 0
M  V30 43105 H 4102.42 -4.03284 -3.24935 0
M  V30 43106 H 4099.1 -1.53142 -3.88399 0
M  V30 43107 H 4100.49 -5.57102 -3.75615 0
M  V30 43108 N 4103.21 0.932517 -1.27051 0
M  V30 43109 C 4104.48 1.65761 -1.03839 0
M  V30 43110 C 4104.86 2.06707 0.428424 0
M  V30 43111 O 4104.21 1.79759 1.41064 0
M  V30 43112 C 4104.42 2.8633 -1.99539 0
M  V30 43113 C 4105.77 3.57784 -2.28638 0
M  V30 43114 O 4106.79 2.9645 -1.97474 0
M  V30 43115 O 4105.65 4.68279 -2.8174 0
M  V30 43116 H 4102.75 0.726303 -0.395492 0
M  V30 43117 H 4105.29 0.98348 -1.38296 0
M  V30 43118 H 4104.06 2.53028 -2.98484 0
M  V30 43119 H 4103.69 3.61466 -1.65615 0
M  V30 43120 N 4104.68 1.08995 1.13833 0
M  V30 43121 C 4105.93 0.821662 1.84643 0
M  V30 43122 C 4106.25 -0.654548 1.83686 0
M  V30 43123 O 4105.52 -1.47474 1.2895 0
M  V30 43124 H 4104.1 0.30097 0.683686 0
M  V30 43125 H 4106.76 1.37717 1.37913 0
M  V30 43126 H 4105.86 1.17122 2.8929 0
M  V30 43127 N 4106.16 -1.30979 0.87649 0
M  V30 43128 C 4107.39 -2.00343 0.504617 0
M  V30 43129 C 4107.8 -1.65925 -0.909157 0
M  V30 43130 O 4107.14 -0.888016 -1.6081 0
M  V30 43131 C 4107.2 -3.54632 0.589581 0
M  V30 43132 C 4106.87 -4.12543 1.96614 0
M  V30 43133 C 4107.87 -4.29167 2.93448 0
M  V30 43134 C 4105.55 -4.4812 2.26922 0
M  V30 43135 C 4107.54 -4.80567 4.1873 0
M  V30 43136 C 4105.23 -4.9922 3.52452 0
M  V30 43137 C 4106.23 -5.15395 4.48171 0
M  V30 43138 O 4105.92 -5.65396 5.71474 0
M  V30 43139 H 4105.65 -0.647435 0.194433 0
M  V30 43140 H 4108.2 -1.68032 1.18129 0
M  V30 43141 H 4106.43 -3.86432 -0.144034 0
M  V30 43142 H 4108.12 -4.05247 0.230202 0
M  V30 43143 H 4108.89 -4.01993 2.71342 0
M  V30 43144 H 4104.77 -4.34803 1.53192 0
M  V30 43145 H 4108.31 -4.93107 4.93448 0
M  V30 43146 H 4104.21 -5.25829 3.74398 0
M  V30 43147 H 4104.98 -5.83754 5.73737 0
M  V30 43148 N 4107.64 -0.636582 -1.44171 0
M  V30 43149 C 4108.87 -0.150492 -2.06352 0
M  V30 43150 C 4109.28 1.17715 -1.4761 0
M  V30 43151 O 4108.64 1.72319 -0.601033 0
M  V30 43152 C 4108.69 -0.0354294 -3.61483 0
M  V30 43153 O 4108.41 -1.31057 -4.18038 0
M  V30 43154 C 4109.91 0.478712 -4.40708 0
M  V30 43155 H 4107.13 -0.0821924 -0.665947 0
M  V30 43156 H 4109.68 -0.872528 -1.84952 0
M  V30 43157 H 4107.83 0.637075 -3.82126 0
M  V30 43158 H 4108.25 -1.15895 -5.11536 0
M  V30 43159 H 4109.72 0.508219 -5.49655 0
M  V30 43160 H 4110.2 1.50683 -4.12542 0
M  V30 43161 H 4110.8 -0.160729 -4.24996 0
M  V30 43162 N 4109.12 1.53013 -0.377462 0
M  V30 43163 C 4110.07 2.27628 0.478376 0
M  V30 43164 C 4111.06 1.31064 1.07325 0
M  V30 43165 O 4112.27 1.48647 1.01508 0
M  V30 43166 H 4108.64 0.731828 0.173008 0
M  V30 43167 H 4110.61 2.97901 -0.172549 0
M  V30 43168 C 4109.36 3.08706 1.59988 0
M  V30 43169 H 4108.68 3.8286 1.15144 0
M  V30 43170 H 4110.12 3.64073 2.17318 0
M  V30 43171 C 4108.58 2.2028 2.54909 0
M  V30 43172 O 4109.11 1.82158 3.58024 0
M  V30 43173 N 4107.32 1.84676 2.24373 0
M  V30 43174 H 4106.87 2.15875 1.40555 0
M  V30 43175 H 4106.82 1.25799 2.88135 0
M  V30 43176 N 4110.6 0.106949 1.57237 0
M  V30 43177 C 4111.51 -0.861647 2.18204 0
M  V30 43178 C 4112.52 -1.30157 1.15478 0
M  V30 43179 O 4113.7 -1.36704 1.47898 0
M  V30 43180 C 4110.76 -2.09842 2.75984 0
M  V30 43181 C 4109.82 -1.71157 3.93705 0
M  V30 43182 C 4109.06 -2.88939 4.48721 0
M  V30 43183 O 4109.28 -4.04014 4.02652 0
M  V30 43184 O 4108.21 -2.6672 5.39578 0
M  V30 43185 H 4112.04 -0.372871 3.01402 0
M  V30 43186 H 4109.63 -0.118032 1.48933 0
M  V30 43187 H 4111.51 -2.823 3.12865 0
M  V30 43188 H 4110.18 -2.57749 1.95824 0
M  V30 43189 H 4109.09 -0.958436 3.61614 0
M  V30 43190 H 4110.42 -1.28003 4.75264 0
M  V30 43191 N 4112.07 -1.56715 -0.166791 0
M  V30 43192 C 4113.32 -1.81442 -0.881011 0
M  V30 43193 C 4113.64 -0.684957 -1.83215 0
M  V30 43194 O 4114.84 -0.81728 -2.58907 0
M  V30 43195 C 4113.3 -3.2152 -1.61719 0
M  V30 43196 C 4112.91 -4.42347 -0.709456 0
M  V30 43197 C 4114.65 -3.55536 -2.31936 0
M  V30 43198 C 4112.56 -5.73447 -1.44612 0
M  V30 43199 H 4111.49 -0.676615 -0.332729 0
M  V30 43200 H 4114.14 -1.83011 -0.133891 0
M  V30 43201 H 4112.52 -3.14281 -2.40922 0
M  V30 43202 H 4113.69 -4.60777 0.0459401 0
M  V30 43203 H 4112.01 -4.16236 -0.116702 0
M  V30 43204 H 4114.61 -4.50732 -2.87654 0
M  V30 43205 H 4114.95 -2.80634 -3.0749 0
M  V30 43206 H 4115.48 -3.64348 -1.59672 0
M  V30 43207 H 4112.22 -6.51391 -0.732823 0
M  V30 43208 H 4111.74 -5.58986 -2.17473 0
M  V30 43209 H 4113.42 -6.15559 -1.99239 0
M  V30 43210 N 4113.55 0.435497 -1.51463 0
M  V30 43211 C 4114.8 1.18173 -1.63456 0
M  V30 43212 C 4115.11 1.92305 -0.357535 0
M  V30 43213 O 4116.32 2.69144 -0.356862 0
M  V30 43214 C 4114.78 2.14923 -2.8868 0
M  V30 43215 C 4114.38 1.46431 -4.23393 0
M  V30 43216 C 4116.13 2.89968 -3.1003 0
M  V30 43217 C 4114.04 2.41675 -5.39766 0
M  V30 43218 H 4112.97 0.444808 -0.60882 0
M  V30 43219 H 4115.62 0.448604 -1.77932 0
M  V30 43220 H 4114 2.91679 -2.67842 0
M  V30 43221 H 4115.17 0.75221 -4.54619 0
M  V30 43222 H 4113.49 0.835313 -4.07936 0
M  V30 43223 H 4116.08 3.6132 -3.94147 0
M  V30 43224 H 4116.43 3.51419 -2.23183 0
M  V30 43225 H 4116.96 2.20319 -3.31216 0
M  V30 43226 H 4113.7 1.84911 -6.28878 0
M  V30 43227 H 4113.22 3.10934 -5.12913 0
M  V30 43228 H 4114.9 3.02766 -5.71788 0
M  V30 43229 N 4115.03 1.41641 0.69106 0
M  V30 43230 C 4116.28 1.40961 1.44825 0
M  V30 43231 C 4116.6 0.0212132 1.94988 0
M  V30 43232 O 4115.87 -0.937683 1.72001 0
M  V30 43233 H 4114.45 0.518874 0.537381 0
M  V30 43234 H 4117.11 1.7692 0.817646 0
M  V30 43235 H 4116.21 2.09956 2.30922 0
M  V30 43236 N 4116.51 -0.925766 1.27543 0
M  V30 43237 C 4117.74 -1.70522 1.16644 0
M  V30 43238 C 4118.15 -1.8713 -0.279116 0
M  V30 43239 O 4117.49 -1.38943 -1.20168 0
M  V30 43240 C 4117.55 -3.12349 1.77984 0
M  V30 43241 C 4117.22 -3.19071 3.27174 0
M  V30 43242 C 4118.21 -3.01174 4.23781 0
M  V30 43243 C 4115.9 -3.41968 3.67917 0
M  V30 43244 C 4117.89 -3.06067 5.59108 0
M  V30 43245 C 4115.58 -3.46495 5.03373 0
M  V30 43246 C 4116.58 -3.28563 5.98778 0
M  V30 43247 O 4116.26 -3.32827 7.31766 0
M  V30 43248 H 4116 -0.540218 0.406375 0
M  V30 43249 H 4118.55 -1.168 1.68958 0
M  V30 43250 H 4116.78 -3.67561 1.2015 0
M  V30 43251 H 4118.47 -3.7227 1.61771 0
M  V30 43252 H 4119.24 -2.83324 3.9364 0
M  V30 43253 H 4115.11 -3.54976 2.94131 0
M  V30 43254 H 4118.66 -2.91989 6.33552 0
M  V30 43255 H 4114.56 -3.6387 5.33169 0
M  V30 43256 H 4115.32 -3.49269 7.40239 0
M  V30 43257 N 4117.99 -1.09597 -1.13253 0
M  V30 43258 C 4118.93 -0.736946 -2.18718 0
M  V30 43259 C 4119.9 0.282663 -1.63677 0
M  V30 43260 O 4121.09 0.163902 -1.90095 0
M  V30 43261 C 4118.23 -0.165555 -3.44703 0
M  V30 43262 C 4117.34 -1.23942 -4.13839 0
M  V30 43263 C 4116.48 -0.630592 -5.27444 0
M  V30 43264 C 4115.52 -1.68564 -5.88432 0
M  V30 43265 N 4114.65 -1.09771 -6.93466 0
M  V30 43266 H 4119.49 -1.64056 -2.48776 0
M  V30 43267 H 4117.03 -0.819619 -1.2215 0
M  V30 43268 H 4118.99 0.183544 -4.16796 0
M  V30 43269 H 4117.62 0.701322 -3.15089 0
M  V30 43270 H 4116.67 -1.70577 -3.40011 0
M  V30 43271 H 4117.98 -2.03842 -4.55247 0
M  V30 43272 H 4117.14 -0.230439 -6.06262 0
M  V30 43273 H 4115.87 0.199943 -4.8729 0
M  V30 43274 H 4114.88 -2.09532 -5.08308 0
M  V30 43275 H 4116.1 -2.51887 -6.30658 0
M  V30 43276 H 4114.05 -0.288491 -6.55365 0
M  V30 43277 H 4113.97 -1.83366 -7.33425 0
M  V30 43278 H 4115.24 -0.723824 -7.76132 0
M  V30 43279 N 4119.46 1.30512 -0.883424 0
M  V30 43280 C 4120.43 2.26451 -0.353947 0
M  V30 43281 C 4121.43 1.5274 0.502696 0
M  V30 43282 O 4122.62 1.71418 0.310074 0
M  V30 43283 C 4119.75 3.37276 0.495787 0
M  V30 43284 H 4120.94 2.74799 -1.20106 0
M  V30 43285 H 4118.5 1.41675 -0.660149 0
M  V30 43286 H 4119.23 2.94241 1.36355 0
M  V30 43287 H 4119.02 3.91923 -0.1178 0
M  V30 43288 H 4120.51 4.08689 0.858077 0
M  V30 43289 N 4120.94 0.644219 1.43832 0
M  V30 43290 C 4122.19 0.151343 2.01131 0
M  V30 43291 C 4122.5 -1.23887 1.51365 0
M  V30 43292 O 4123.71 -1.82647 2.00879 0
M  V30 43293 C 4122.17 0.219777 3.59228 0
M  V30 43294 C 4121.77 1.61212 4.17989 0
M  V30 43295 C 4123.52 -0.21596 4.2395 0
M  V30 43296 C 4121.43 1.63496 5.68351 0
M  V30 43297 H 4120.36 0.0528152 0.752148 0
M  V30 43298 H 4123.01 0.804936 1.64903 0
M  V30 43299 H 4121.39 -0.50116 3.92816 0
M  V30 43300 H 4122.56 2.35768 3.95917 0
M  V30 43301 H 4120.88 1.99305 3.65604 0
M  V30 43302 H 4123.47 -0.21861 5.34253 0
M  V30 43303 H 4123.82 -1.24574 3.97224 0
M  V30 43304 H 4124.35 0.452922 3.95213 0
M  V30 43305 H 4121.09 2.64353 5.99831 0
M  V30 43306 H 4120.61 0.932514 5.92507 0
M  V30 43307 H 4122.29 1.37469 6.32227 0
M  V30 43308 N 4122.42 -1.52811 0.385571 0
M  V30 43309 C 4123.35 -2.2398 -0.486394 0
M  V30 43310 C 4124.37 -1.26092 -1.02979 0
M  V30 43311 O 4125.55 -1.52191 -0.932753 0
M  V30 43312 C 4122.65 -2.93962 -1.6864 0
M  V30 43313 C 4121.83 -4.18526 -1.27102 0
M  V30 43314 C 4120.89 -4.7154 -2.3353 0
M  V30 43315 O 4119.91 -5.34722 -1.95092 0
M  V30 43316 N 4121.11 -4.51074 -3.65393 0
M  V30 43317 H 4123.88 -2.99446 0.123323 0
M  V30 43318 H 4121.44 -1.60509 0.21174 0
M  V30 43319 H 4123.43 -3.2633 -2.39354 0
M  V30 43320 H 4122 -2.21827 -2.20254 0
M  V30 43321 H 4121.22 -3.92237 -0.392914 0
M  V30 43322 H 4122.51 -4.99466 -0.970104 0
M  V30 43323 H 4121.91 -4.00633 -3.99386 0
M  V30 43324 H 4120.47 -4.87941 -4.32153 0
M  V30 43325 N 4123.9 -0.115287 -1.57178 0
M  V30 43326 C 4125.18 0.586969 -1.86585 0
M  V30 43327 C 4125.56 1.85054 -1.01579 0
M  V30 43328 O 4124.9 2.28308 -0.0936886 0
M  V30 43329 C 4125.11 0.882981 -3.37645 0
M  V30 43330 C 4126.46 1.23766 -4.06161 0
M  V30 43331 O 4127.49 0.973362 -3.42643 0
M  V30 43332 O 4126.34 1.73354 -5.18277 0
M  V30 43333 H 4123.44 0.295802 -0.772289 0
M  V30 43334 H 4125.98 -0.14951 -1.6904 0
M  V30 43335 H 4124.76 -0.0125871 -3.91298 0
M  V30 43336 H 4124.38 1.67475 -3.60608 0
M  V30 43337 N 4125.38 1.56801 0.158477 0
M  V30 43338 C 4126.63 1.82354 0.871281 0
M  V30 43339 C 4126.95 0.694356 1.82219 0
M  V30 43340 O 4126.22 -0.284864 1.93818 0
M  V30 43341 H 4124.8 0.672723 0.324736 0
M  V30 43342 H 4127.46 1.94281 0.155223 0
M  V30 43343 H 4126.55 2.7687 1.44046 0
M  V30 43344 N 4126.86 -0.427458 1.51692 0
M  V30 43345 C 4128.1 -1.1778 1.65093 0
M  V30 43346 C 4128.43 -1.90627 0.370817 0
M  V30 43347 O 4127.71 -1.84013 -0.630032 0
M  V30 43348 C 4127.99 -2.18692 2.86087 0
M  V30 43349 C 4127.85 -1.49863 4.241 0
M  V30 43350 C 4129.16 -3.19568 3.02596 0
M  V30 43351 H 4126.28 -0.426825 0.600824 0
M  V30 43352 H 4128.93 -0.465778 1.84202 0
M  V30 43353 H 4127.08 -2.79415 2.69925 0
M  V30 43354 H 4128.75 -0.924013 4.51951 0
M  V30 43355 H 4126.99 -0.800819 4.26344 0
M  V30 43356 H 4127.66 -2.23404 5.04772 0
M  V30 43357 H 4130.14 -2.68908 3.17534 0
M  V30 43358 H 4129.01 -3.8746 3.88801 0
M  V30 43359 H 4129.27 -3.86244 2.151 0
M  V30 43360 N 4128.33 -1.42005 -0.683539 0
M  V30 43361 C 4129.56 -1.45388 -1.47207 0
M  V30 43362 C 4129.98 -0.0626362 -1.88696 0
M  V30 43363 O 4129.33 0.920736 -1.57571 0
M  V30 43364 C 4129.38 -2.37328 -2.72686 0
M  V30 43365 O 4129.11 -3.71039 -2.32941 0
M  V30 43366 C 4130.61 -2.4964 -3.66326 0
M  V30 43367 H 4127.83 -0.494781 -0.453246 0
M  V30 43368 H 4130.37 -1.86424 -0.840613 0
M  V30 43369 H 4128.53 -1.99569 -3.32041 0
M  V30 43370 H 4128.94 -4.20193 -3.13908 0
M  V30 43371 H 4130.41 -3.18112 -4.51119 0
M  V30 43372 H 4130.89 -1.53148 -4.11634 0
M  V30 43373 H 4131.5 -2.88086 -3.12869 0
M  V30 43374 N 4129.81 0.918989 -1.28033 0
M  V30 43375 C 4131.23 1.19647 -1.05626 0
M  V30 43376 C 4131.43 2.00458 0.204696 0
M  V30 43377 O 4130.48 2.35616 0.907807 0
M  V30 43378 C 4131.8 1.93615 -2.30074 0
M  V30 43379 C 4133.34 2.06519 -2.352 0
M  V30 43380 C 4133.82 2.83894 -3.594 0
M  V30 43381 N 4135.31 2.91458 -3.60009 0
M  V30 43382 C 4136.05 3.51814 -4.52785 0
M  V30 43383 N 4135.54 4.13491 -5.55875 0
M  V30 43384 N 4137.33 3.49302 -4.40391 0
M  V30 43385 H 4129.49 0.379335 -2.08985 0
M  V30 43386 H 4131.75 0.230457 -0.919562 0
M  V30 43387 H 4131.45 1.4166 -3.21909 0
M  V30 43388 H 4131.33 2.94191 -2.36076 0
M  V30 43389 H 4133.72 2.57657 -1.43865 0
M  V30 43390 H 4133.8 1.05135 -2.33196 0
M  V30 43391 H 4133.44 2.33437 -4.51076 0
M  V30 43392 H 4133.37 3.85581 -3.58657 0
M  V30 43393 H 4135.86 2.47632 -2.85459 0
M  V30 43394 H 4136.17 4.5751 -6.2282 0
M  V30 43395 H 4134.52 4.12011 -5.59707 0
M  V30 43396 H 4137.71 3.00324 -3.59058 0
M  V30 43397 H 4137.88 3.96048 -5.12884 0
M  V30 43398 N 4131.29 1.10196 1.12671 0
M  V30 43399 C 4132.57 0.755022 1.80441 0
M  V30 43400 C 4132.95 -0.758852 1.96989 0
M  V30 43401 O 4132.29 -1.68418 1.54427 0
M  V30 43402 C 4132.5 1.50323 3.14967 0
M  V30 43403 C 4133.85 1.67415 3.90202 0
M  V30 43404 O 4134.88 1.4664 3.24616 0
M  V30 43405 O 4133.74 2.01842 5.0786 0
M  V30 43406 H 4130.83 0.272122 0.780947 0
M  V30 43407 H 4133.38 1.20463 1.19528 0
M  V30 43408 H 4132.15 2.53365 2.98197 0
M  V30 43409 H 4131.77 1.04632 3.83586 0
M  V30 43410 N 4132.77 -1.30042 0.890333 0
M  V30 43411 C 4134.02 -1.95211 0.507512 0
M  V30 43412 C 4134.33 -1.71028 -0.949149 0
M  V30 43413 O 4135.54 -2.30224 -1.43906 0
M  V30 43414 C 4133.99 -3.49554 0.856719 0
M  V30 43415 C 4133.6 -3.8255 2.33151 0
M  V30 43416 C 4135.34 -4.21008 0.543355 0
M  V30 43417 C 4133.25 -5.30096 2.62207 0
M  V30 43418 H 4132.18 -0.730681 0.186068 0
M  V30 43419 H 4134.83 -1.4791 1.08604 0
M  V30 43420 H 4133.21 -3.95457 0.207215 0
M  V30 43421 H 4134.39 -3.47538 3.02578 0
M  V30 43422 H 4132.7 -3.24213 2.61295 0
M  V30 43423 H 4135.3 -5.29591 0.737405 0
M  V30 43424 H 4135.64 -4.1307 -0.517571 0
M  V30 43425 H 4136.18 -3.80806 1.15029 0
M  V30 43426 H 4132.91 -5.4309 3.67061 0
M  V30 43427 H 4132.43 -5.66388 1.97395 0
M  V30 43428 H 4134.11 -5.97589 2.47986 0
M  V30 43429 N 4134.25 -0.651838 -1.43488 0
M  V30 43430 C 4135.49 -0.162007 -2.01048 0
M  V30 43431 C 4135.81 1.23082 -1.5202 0
M  V30 43432 O 4137.01 1.81579 -2.01845 0
M  V30 43433 C 4135.47 -0.238824 -3.59107 0
M  V30 43434 C 4135.08 -1.63426 -4.17128 0
M  V30 43435 C 4136.82 0.193474 -4.24059 0
M  V30 43436 C 4134.73 -1.66508 -5.67476 0
M  V30 43437 H 4133.66 -0.0568033 -0.751857 0
M  V30 43438 H 4136.31 -0.81367 -1.64474 0
M  V30 43439 H 4134.69 0.480321 -3.93076 0
M  V30 43440 H 4135.87 -2.37865 -3.94661 0
M  V30 43441 H 4134.18 -2.01241 -3.64542 0
M  V30 43442 H 4136.78 0.190274 -5.34361 0
M  V30 43443 H 4137.12 1.22465 -3.97879 0
M  V30 43444 H 4137.65 -0.473874 -3.94967 0
M  V30 43445 H 4134.39 -2.67531 -5.98421 0
M  V30 43446 H 4133.91 -0.963923 -5.92004 0
M  V30 43447 H 4135.59 -1.4082 -6.31489 0
M  V30 43448 N 4135.72 1.52604 -0.39367 0
M  V30 43449 C 4136.95 2.06532 0.189581 0
M  V30 43450 C 4137.37 1.26313 1.39379 0
M  V30 43451 O 4136.73 0.289309 1.78977 0
M  V30 43452 C 4136.78 3.56629 0.533655 0
M  V30 43453 O 4135.88 3.78951 1.62697 0
M  V30 43454 H 4135.22 0.66367 0.0209366 0
M  V30 43455 H 4137.75 1.96719 -0.562402 0
M  V30 43456 H 4137.76 4.00146 0.796716 0
M  V30 43457 H 4136.44 4.14452 -0.346723 0
M  V30 43458 H 4135.02 3.47322 1.35728 0
M  V30 43459 N 4137.2 0.12362 1.57114 0
M  V30 43460 C 4138.43 -0.540852 1.99706 0
M  V30 43461 C 4138.84 -1.5993 1.00339 0
M  V30 43462 O 4138.2 -1.825 -0.00307269 0
M  V30 43463 C 4138.25 -1.16279 3.42288 0
M  V30 43464 O 4137.97 -0.146648 4.37854 0
M  V30 43465 C 4139.47 -1.91014 4.00036 0
M  V30 43466 H 4136.69 -0.142815 0.655626 0
M  V30 43467 H 4139.24 0.211321 2.03405 0
M  V30 43468 H 4137.39 -1.86572 3.39514 0
M  V30 43469 H 4137.81 -0.599137 5.21067 0
M  V30 43470 H 4139.28 -2.29852 5.01869 0
M  V30 43471 H 4139.76 -2.78713 3.39435 0
M  V30 43472 H 4140.36 -1.25473 4.0637 0
M  V30 43473 N 4138.68 -1.56883 -0.15016 0
M  V30 43474 C 4139.96 -1.74086 -0.891811 0
M  V30 43475 C 4140.34 -0.690786 -1.99478 0
M  V30 43476 O 4139.68 0.290837 -2.26642 0
M  V30 43477 C 4139.89 -3.18035 -1.43717 0
M  V30 43478 C 4141.24 -3.79626 -1.90182 0
M  V30 43479 O 4142.27 -3.21445 -1.53465 0
M  V30 43480 O 4141.13 -4.81828 -2.57883 0
M  V30 43481 H 4138.22 -0.711685 -0.421228 0
M  V30 43482 H 4140.77 -1.69151 -0.136332 0
M  V30 43483 H 4139.54 -3.85958 -0.644355 0
M  V30 43484 H 4139.16 -3.27383 -2.25624 0
M  V30 43485 N 4140.16 0.419408 -1.51917 0
M  V30 43486 C 4141.44 1.17964 -1.56025 0
M  V30 43487 C 4141.82 2.08423 -0.335131 0
M  V30 43488 O 4141.16 2.18188 0.678692 0
M  V30 43489 C 4141.37 1.9659 -2.88363 0
M  V30 43490 C 4142.72 2.53013 -3.40983 0
M  V30 43491 O 4143.75 2.06781 -2.90034 0
M  V30 43492 O 4142.6 3.37381 -4.29926 0
M  V30 43493 H 4139.7 0.538042 -0.628045 0
M  V30 43494 H 4142.24 0.427021 -1.6424 0
M  V30 43495 H 4141.02 1.3026 -3.68982 0
M  V30 43496 H 4140.64 2.78879 -2.83394 0
M  V30 43497 N 4141.64 1.42366 0.675998 0
M  V30 43498 C 4142.88 1.44256 1.44809 0
M  V30 43499 C 4143.24 0.0566036 1.91917 0
M  V30 43500 O 4144.44 -0.0497646 2.68754 0
M  V30 43501 C 4142.71 2.43745 2.61387 0
M  V30 43502 S 4144.27 2.64326 3.50253 0
M  V30 43503 H 4141.09 0.510775 0.4946 0
M  V30 43504 H 4143.69 1.7896 0.787003 0
M  V30 43505 H 4142.4 3.43214 2.25016 0
M  V30 43506 H 4141.93 2.10462 3.3237 0
M  V30 43507 H 4143.94 1.92537 4.57323 0
M  V30 43508 N 4143.11 -0.912187 1.28518 0
M  V30 43509 C 4144.36 -1.66148 1.15763 0
M  V30 43510 C 4144.69 -1.92273 -0.293462 0
M  V30 43511 O 4143.94 -1.52238 -1.22972 0
M  V30 43512 C 4144.24 -3.02516 1.90313 0
M  V30 43513 C 4143.91 -2.96045 3.401 0
M  V30 43514 C 4142.57 -2.93987 3.80953 0
M  V30 43515 C 4144.92 -2.86177 4.35606 0
M  V30 43516 C 4142.25 -2.79864 5.15648 0
M  V30 43517 C 4144.6 -2.73594 5.70376 0
M  V30 43518 C 4143.27 -2.69895 6.10502 0
M  V30 43519 H 4142.54 -0.607978 0.423609 0
M  V30 43520 H 4145.18 -1.06265 1.59311 0
M  V30 43521 H 4143.49 -3.66193 1.39319 0
M  V30 43522 H 4145.19 -3.59399 1.77858 0
M  V30 43523 H 4141.78 -2.98442 3.07621 0
M  V30 43524 H 4145.96 -2.86853 4.05005 0
M  V30 43525 H 4141.22 -2.75397 5.45863 0
M  V30 43526 H 4145.39 -2.64927 6.44039 0
M  V30 43527 H 4143.02 -2.58709 7.14824 0
M  V30 43528 N 4144.59 -1.10792 -1.12085 0
M  V30 43529 C 4145.56 -0.763484 -2.1611 0
M  V30 43530 C 4146.56 0.213875 -1.59371 0
M  V30 43531 O 4147.75 -0.00975161 -1.74197 0
M  V30 43532 C 4144.88 -0.131548 -3.40646 0
M  V30 43533 H 4146.07 -1.68493 -2.48093 0
M  V30 43534 H 4143.62 -0.908918 -1.27155 0
M  V30 43535 H 4144.36 0.800452 -3.14266 0
M  V30 43536 H 4144.14 -0.834995 -3.83106 0
M  V30 43537 H 4145.63 0.0935431 -4.17495 0
M  V30 43538 N 4146.07 1.29568 -0.897217 0
M  V30 43539 C 4147.02 2.29752 -0.362889 0
M  V30 43540 C 4148.01 1.60675 0.536646 0
M  V30 43541 O 4149.22 1.75038 0.419723 0
M  V30 43542 H 4145.59 0.745492 -0.0987183 0
M  V30 43543 H 4147.56 2.72264 -1.22126 0
M  V30 43544 C 4146.31 3.45429 0.396714 0
M  V30 43545 H 4145.64 3.98774 -0.286229 0
M  V30 43546 H 4147.08 4.17572 0.735487 0
M  V30 43547 C 4145.54 2.96566 1.59844 0
M  V30 43548 O 4146.07 2.97631 2.69776 0
M  V30 43549 N 4144.27 2.52427 1.43976 0
M  V30 43550 H 4143.82 2.5176 0.545419 0
M  V30 43551 H 4143.78 2.20092 2.24515 0
M  V30 43552 N 4147.55 0.659438 1.4314 0
M  V30 43553 C 4148.5 -0.0283632 2.30783 0
M  V30 43554 C 4149.47 -0.808381 1.45101 0
M  V30 43555 O 4150.65 -0.783733 1.73961 0
M  V30 43556 C 4147.79 -0.984471 3.3076 0
M  V30 43557 C 4146.9 -0.199899 4.31537 0
M  V30 43558 C 4146.04 -1.15037 5.18594 0
M  V30 43559 C 4145.08 -0.356587 6.1106 0
M  V30 43560 N 4144.21 -1.25897 6.9072 0
M  V30 43561 H 4149.05 0.724872 2.89049 0
M  V30 43562 H 4146.59 0.369217 1.42391 0
M  V30 43563 H 4148.55 -1.55247 3.87239 0
M  V30 43564 H 4147.18 -1.70451 2.74128 0
M  V30 43565 H 4146.23 0.484492 3.77302 0
M  V30 43566 H 4147.54 0.417061 4.97053 0
M  V30 43567 H 4146.7 -1.7888 5.7973 0
M  V30 43568 H 4145.44 -1.80123 4.53219 0
M  V30 43569 H 4144.44 0.295159 5.49007 0
M  V30 43570 H 4145.67 0.28996 6.78481 0
M  V30 43571 H 4143.61 -1.89651 6.27988 0
M  V30 43572 H 4143.53 -0.696718 7.52783 0
M  V30 43573 H 4144.8 -1.88535 7.56356 0
M  V30 43574 N 4149.03 -1.52393 0.401757 0
M  V30 43575 C 4149.98 -2.23624 -0.444545 0
M  V30 43576 C 4150.96 -1.24478 -1.01951 0
M  V30 43577 O 4152.15 -1.49754 -0.943546 0
M  V30 43578 C 4149.28 -3.05571 -1.56465 0
M  V30 43579 C 4148.37 -4.12122 -1.00082 0
M  V30 43580 N 4148.76 -5.05537 -0.163007 0
M  V30 43581 C 4147.06 -4.27474 -1.27207 0
M  V30 43582 C 4147.76 -5.81507 0.14987 0
M  V30 43583 N 4146.73 -5.41673 -0.45735 0
M  V30 43584 H 4150.54 -2.93205 0.201947 0
M  V30 43585 H 4148.05 -1.61013 0.211761 0
M  V30 43586 H 4150.05 -3.55149 -2.18346 0
M  V30 43587 H 4148.71 -2.37528 -2.21383 0
M  V30 43588 H 4149.72 -5.17511 0.200724 0
M  V30 43589 H 4146.39 -3.7066 -1.92138 0
M  V30 43590 H 4147.78 -6.6676 0.829469 0
M  V30 43591 N 4150.5 -0.131951 -1.57047 0
M  V30 43592 C 4151.47 0.799205 -2.14815 0
M  V30 43593 C 4152.47 1.1857 -1.08618 0
M  V30 43594 O 4153.66 1.10909 -1.34331 0
M  V30 43595 C 4150.79 2.0825 -2.69897 0
M  V30 43596 H 4151.98 0.296944 -2.98426 0
M  V30 43597 H 4149.54 0.117391 -1.55859 0
M  V30 43598 H 4150.27 2.62878 -1.8991 0
M  V30 43599 H 4150.06 1.81473 -3.47577 0
M  V30 43600 H 4151.55 2.74786 -3.14456 0
M  V30 43601 N 4151.98 1.5696 0.141838 0
M  V30 43602 C 4153.23 1.83268 0.851891 0
M  V30 43603 C 4153.55 0.713643 1.81472 0
M  V30 43604 O 4152.82 -0.264291 1.94109 0
M  V30 43605 H 4151.4 0.676129 0.317582 0
M  V30 43606 H 4154.06 1.94435 0.134608 0
M  V30 43607 H 4153.16 2.78383 1.41101 0
M  V30 43608 N 4153.46 -0.411345 1.52137 0
M  V30 43609 C 4154.71 -1.1585 1.66087 0
M  V30 43610 C 4155.04 -1.90556 0.389713 0
M  V30 43611 O 4154.29 -1.85376 -0.627238 0
M  V30 43612 C 4154.59 -2.18015 2.83204 0
M  V30 43613 C 4154.26 -1.60133 4.21507 0
M  V30 43614 C 4152.92 -1.44071 4.59126 0
M  V30 43615 C 4155.27 -1.17839 5.07704 0
M  V30 43616 C 4152.6 -0.842303 5.80622 0
M  V30 43617 C 4154.95 -0.594172 6.29803 0
M  V30 43618 C 4153.61 -0.420674 6.66173 0
M  V30 43619 H 4152.88 -0.423926 0.607756 0
M  V30 43620 H 4155.53 -0.446014 1.86234 0
M  V30 43621 H 4153.84 -2.954 2.57383 0
M  V30 43622 H 4155.53 -2.75694 2.91194 0
M  V30 43623 H 4152.12 -1.73616 3.91861 0
M  V30 43624 H 4156.31 -1.29058 4.79226 0
M  V30 43625 H 4151.56 -0.695876 6.07427 0
M  V30 43626 H 4155.74 -0.258055 6.95922 0
M  V30 43627 H 4153.36 0.0451246 7.60187 0
M  V30 43628 N 4154.94 -1.42722 -0.668439 0
M  V30 43629 C 4156.22 -1.34012 -1.42478 0
M  V30 43630 C 4156.6 0.019445 -2.11091 0
M  V30 43631 O 4155.94 1.03528 -2.03701 0
M  V30 43632 C 4156.15 -2.51277 -2.422 0
M  V30 43633 C 4157.5 -2.9368 -3.06655 0
M  V30 43634 O 4158.53 -2.51213 -2.52528 0
M  V30 43635 O 4157.39 -3.672 -4.04754 0
M  V30 43636 H 4154.48 -0.528829 -0.635822 0
M  V30 43637 H 4157.03 -1.54742 -0.696627 0
M  V30 43638 H 4155.8 -3.41885 -1.90343 0
M  V30 43639 H 4155.42 -2.32567 -3.22488 0
M  V30 43640 N 4156.42 0.905358 -1.29 0
M  V30 43641 C 4157.38 1.99036 -1.13655 0
M  V30 43642 C 4158.38 1.60631 -0.0736928 0
M  V30 43643 O 4159.57 1.71232 -0.320169 0
M  V30 43644 C 4156.7 3.32843 -0.736773 0
M  V30 43645 H 4157.9 2.14077 -2.10026 0
M  V30 43646 H 4155.45 1.08913 -1.12106 0
M  V30 43647 H 4156.18 3.23502 0.227326 0
M  V30 43648 H 4155.97 3.62081 -1.50465 0
M  V30 43649 H 4157.46 4.12474 -0.652302 0
M  V30 43650 N 4157.9 1.11385 1.11495 0
M  V30 43651 C 4159.14 0.873534 1.83687 0
M  V30 43652 C 4159.5 -0.594438 1.82987 0
M  V30 43653 O 4158.79 -1.43324 1.27157 0
M  V30 43654 C 4158.98 1.36838 3.30167 0
M  V30 43655 C 4158.81 2.88292 3.45134 0
M  V30 43656 C 4157.58 3.56408 3.58192 0
M  V30 43657 C 4159.78 3.8635 3.39467 0
M  V30 43658 N 4157.76 4.96086 3.61624 0
M  V30 43659 C 4159.13 5.12095 3.49513 0
M  V30 43660 C 4161.19 3.78917 3.22995 0
M  V30 43661 C 4159.89 6.31281 3.44785 0
M  V30 43662 C 4161.92 4.97614 3.19584 0
M  V30 43663 C 4161.28 6.22212 3.302 0
M  V30 43664 H 4157.38 0.372782 0.687428 0
M  V30 43665 H 4159.96 1.41808 1.33411 0
M  V30 43666 H 4158.13 0.85102 3.78962 0
M  V30 43667 H 4159.87 1.07127 3.90264 0
M  V30 43668 H 4156.62 3.06873 3.6073 0
M  V30 43669 H 4157.04 5.68907 3.66979 0
M  V30 43670 H 4161.69 2.83493 3.13674 0
M  V30 43671 H 4159.4 7.26984 3.52874 0
M  V30 43672 H 4162.99 4.93582 3.08006 0
M  V30 43673 H 4161.87 7.12518 3.27548 0
M  V30 43674 N 4159.37 -1.2909 0.904076 0
M  V30 43675 C 4160.62 -1.9538 0.532237 0
M  V30 43676 C 4160.95 -1.71242 -0.922297 0
M  V30 43677 O 4160.2 -1.02082 -1.66966 0
M  V30 43678 C 4160.5 -3.48867 0.776316 0
M  V30 43679 C 4160.17 -3.93089 2.20889 0
M  V30 43680 C 4158.83 -4.04874 2.60059 0
M  V30 43681 C 4161.18 -4.15877 3.14159 0
M  V30 43682 C 4158.51 -4.36819 3.91671 0
M  V30 43683 C 4160.86 -4.49298 4.45325 0
M  V30 43684 C 4159.53 -4.59293 4.84362 0
M  V30 43685 H 4158.8 -0.714947 0.194759 0
M  V30 43686 H 4161.44 -1.53606 1.14356 0
M  V30 43687 H 4159.75 -3.91714 0.0821057 0
M  V30 43688 H 4161.45 -3.9826 0.467931 0
M  V30 43689 H 4158.04 -3.84436 1.89491 0
M  V30 43690 H 4162.22 -4.06234 2.8511 0
M  V30 43691 H 4157.48 -4.42761 4.21631 0
M  V30 43692 H 4161.65 -4.65879 5.17619 0
M  V30 43693 H 4159.28 -4.83801 5.86379 0
M  V30 43694 N 4160.85 -0.66702 -1.42789 0
M  V30 43695 C 4162.08 -0.192633 -2.06503 0
M  V30 43696 C 4162.5 1.13833 -1.49745 0
M  V30 43697 O 4161.86 1.70629 -0.612827 0
M  V30 43698 C 4161.91 -0.129838 -3.60366 0
M  V30 43699 O 4161.01 0.903947 -4.02371 0
M  V30 43700 H 4160.35 -0.101205 -0.656242 0
M  V30 43701 H 4162.88 -0.913839 -1.83058 0
M  V30 43702 H 4162.89 0.0489022 -4.07971 0
M  V30 43703 H 4161.57 -1.10137 -4.01052 0
M  V30 43704 H 4160.14 0.696879 -3.6633 0
M  V30 43705 N 4162.33 1.52178 -0.409833 0
M  V30 43706 C 4163.26 2.24725 0.450699 0
M  V30 43707 C 4164.27 1.27714 1.0096 0
M  V30 43708 O 4165.46 1.53655 0.908422 0
M  V30 43709 C 4162.56 2.96608 1.63942 0
M  V30 43710 C 4161.74 4.20495 1.20428 0
M  V30 43711 C 4160.8 4.75196 2.25999 0
M  V30 43712 O 4159.82 5.37758 1.8656 0
M  V30 43713 N 4161.02 4.5683 3.58171 0
M  V30 43714 H 4163.79 2.99212 -0.170947 0
M  V30 43715 H 4161.35 1.60152 -0.237249 0
M  V30 43716 H 4163.34 3.30097 2.34133 0
M  V30 43717 H 4161.91 2.25303 2.16697 0
M  V30 43718 H 4161.13 3.92812 0.330463 0
M  V30 43719 H 4162.42 5.00946 0.89052 0
M  V30 43720 H 4161.82 4.06936 3.92962 0
M  V30 43721 H 4160.37 4.94755 4.24336 0
M  V30 43722 N 4163.81 0.140278 1.56974 0
M  V30 43723 C 4165.22 -0.216187 1.58129 0
M  V30 43724 C 4165.42 -1.65168 1.1542 0
M  V30 43725 O 4164.48 -2.37713 0.851387 0
M  V30 43726 C 4165.79 0.0364636 3.00678 0
M  V30 43727 C 4167.34 -0.0277736 3.12988 0
M  V30 43728 C 4167.82 0.197458 4.57574 0
M  V30 43729 N 4169.31 0.144155 4.62976 0
M  V30 43730 C 4170.04 0.293032 5.72651 0
M  V30 43731 N 4169.54 0.49926 6.90999 0
M  V30 43732 N 4171.33 0.231107 5.61625 0
M  V30 43733 H 4163.48 1.07765 1.83031 0
M  V30 43734 H 4165.74 0.426059 0.846863 0
M  V30 43735 H 4165.45 1.02969 3.36289 0
M  V30 43736 H 4165.32 -0.68596 3.7091 0
M  V30 43737 H 4167.71 -1.01154 2.77222 0
M  V30 43738 H 4167.79 0.726872 2.45255 0
M  V30 43739 H 4167.44 1.17829 4.94043 0
M  V30 43740 H 4167.37 -0.57743 5.23425 0
M  V30 43741 H 4169.86 -0.0108588 3.77898 0
M  V30 43742 H 4170.17 0.603148 7.70443 0
M  V30 43743 H 4168.52 0.535498 6.92934 0
M  V30 43744 H 4171.71 0.0708046 4.68046 0
M  V30 43745 H 4171.88 0.350569 6.47051 0
M  V30 43746 N 4165.29 -1.57033 -0.133512 0
M  V30 43747 C 4166.53 -1.83717 -0.84216 0
M  V30 43748 C 4166.85 -0.723257 -1.81091 0
M  V30 43749 O 4166.12 0.253994 -1.94246 0
M  V30 43750 H 4164.7 -0.677804 -0.313992 0
M  V30 43751 H 4167.37 -1.94503 -0.124295 0
M  V30 43752 H 4166.46 -2.79127 -1.39623 0
M  V30 43753 N 4166.76 0.403271 -1.52353 0
M  V30 43754 C 4168.01 1.14741 -1.6637 0
M  V30 43755 C 4168.33 1.90876 -0.398933 0
M  V30 43756 O 4167.6 1.86919 0.586339 0
M  V30 43757 H 4166.18 0.42656 -0.613234 0
M  V30 43758 H 4168.84 0.459042 -1.89417 0
M  V30 43759 H 4167.94 1.85824 -2.50751 0
M  V30 43760 N 4168.24 1.43075 0.66086 0
M  V30 43761 C 4169.47 1.47923 1.45373 0
M  V30 43762 C 4169.89 0.096062 1.87855 0
M  V30 43763 O 4169.25 -0.908555 1.56892 0
M  V30 43764 C 4169.3 2.42373 2.66998 0
M  V30 43765 O 4168.4 1.90471 3.65779 0
M  V30 43766 H 4167.74 0.500639 0.436184 0
M  V30 43767 H 4170.27 1.87911 0.809366 0
M  V30 43768 H 4170.28 2.59421 3.14904 0
M  V30 43769 H 4168.96 3.42856 2.3542 0
M  V30 43770 H 4167.53 1.83047 3.24882 0
M  V30 43771 N 4169.72 -0.898504 1.29478 0
M  V30 43772 C 4170.95 -1.68009 1.20235 0
M  V30 43773 C 4171.36 -1.8768 -0.239361 0
M  V30 43774 O 4170.7 -1.41461 -1.17194 0
M  V30 43775 C 4170.76 -3.08504 1.84569 0
M  V30 43776 C 4170.43 -3.1206 3.33868 0
M  V30 43777 C 4171.42 -2.92118 4.30074 0
M  V30 43778 C 4169.11 -3.34087 3.75088 0
M  V30 43779 C 4171.1 -2.94139 5.65474 0
M  V30 43780 C 4168.79 -3.35739 5.1061 0
M  V30 43781 C 4169.79 -3.15788 6.05613 0
M  V30 43782 O 4169.48 -3.17231 7.38661 0
M  V30 43783 H 4169.21 -0.531476 0.417742 0
M  V30 43784 H 4171.76 -1.1319 1.71398 0
M  V30 43785 H 4169.99 -3.6493 1.27919 0
M  V30 43786 H 4171.68 -3.68755 1.69631 0
M  V30 43787 H 4172.45 -2.74911 3.99561 0
M  V30 43788 H 4168.33 -3.48657 3.01594 0
M  V30 43789 H 4171.87 -2.78484 6.39603 0
M  V30 43790 H 4167.77 -3.52479 5.40767 0
M  V30 43791 H 4168.54 -3.33489 7.47481 0
M  V30 43792 N 4171.2 -1.11974 -1.10903 0
M  V30 43793 C 4172.15 -0.783174 -2.17106 0
M  V30 43794 C 4173.12 0.247881 -1.6424 0
M  V30 43795 O 4174.3 0.123543 -1.904 0
M  V30 43796 C 4171.44 -0.238634 -3.44274 0
M  V30 43797 C 4170.55 -1.32692 -4.11117 0
M  V30 43798 C 4169.69 -0.742329 -5.25988 0
M  V30 43799 C 4168.73 -1.81007 -5.84724 0
M  V30 43800 N 4167.86 -1.24456 -6.90981 0
M  V30 43801 H 4172.7 -1.69296 -2.4524 0
M  V30 43802 H 4170.24 -0.845344 -1.20384 0
M  V30 43803 H 4172.2 0.0950946 -4.17092 0
M  V30 43804 H 4170.83 0.634329 -3.16506 0
M  V30 43805 H 4169.88 -1.77751 -3.36316 0
M  V30 43806 H 4171.19 -2.13453 -4.50821 0
M  V30 43807 H 4170.35 -0.358984 -6.05637 0
M  V30 43808 H 4169.09 0.0965363 -4.87604 0
M  V30 43809 H 4168.09 -2.20266 -5.03749 0
M  V30 43810 H 4169.32 -2.65207 -6.25174 0
M  V30 43811 H 4167.26 -0.427438 -6.54606 0
M  V30 43812 H 4167.18 -1.98882 -7.29371 0
M  V30 43813 H 4168.45 -0.88829 -7.74422 0
M  V30 43814 N 4172.68 1.28609 -0.910909 0
M  V30 43815 C 4173.62 2.29354 -0.387237 0
M  V30 43816 C 4174.62 1.61235 0.519574 0
M  V30 43817 O 4175.82 1.75473 0.401134 0
M  V30 43818 H 4172.2 0.744403 -0.10662 0
M  V30 43819 H 4174.17 2.70953 -1.25007 0
M  V30 43820 C 4172.92 3.45831 0.360054 0
M  V30 43821 H 4172.24 3.98448 -0.328508 0
M  V30 43822 H 4173.68 4.18329 0.691156 0
M  V30 43823 C 4172.14 2.98245 1.5669 0
M  V30 43824 O 4172.67 3.00475 2.66604 0
M  V30 43825 N 4170.88 2.5394 1.41291 0
M  V30 43826 H 4170.42 2.52324 0.518686 0
M  V30 43827 H 4170.38 2.22461 2.22168 0
M  V30 43828 N 4174.15 0.674583 1.42433 0
M  V30 43829 C 4175.43 0.125718 1.95196 0
M  V30 43830 C 4175.81 -1.35943 1.61501 0
M  V30 43831 O 4175.16 -2.09552 0.91106 0
M  V30 43832 C 4175.37 0.394631 3.46762 0
M  V30 43833 C 4176.72 0.311026 4.23459 0
M  V30 43834 O 4177.74 0.328367 3.54683 0
M  V30 43835 O 4176.6 0.253033 5.45914 0
M  V30 43836 H 4173.69 0.00274328 0.826995 0
M  V30 43837 H 4176.24 0.749298 1.52262 0
M  V30 43838 H 4175.01 1.42345 3.64491 0
M  V30 43839 H 4174.64 -0.260967 3.96743 0
M  V30 43840 N 4175.63 -1.51958 0.417898 0
M  V30 43841 C 4176.58 -2.2725 -0.403265 0
M  V30 43842 C 4177.55 -1.30025 -1.03357 0
M  V30 43843 O 4178.73 -1.58901 -1.05618 0
M  V30 43844 C 4175.87 -3.10349 -1.50922 0
M  V30 43845 C 4174.99 -4.22543 -0.898969 0
M  V30 43846 C 4174.12 -4.92986 -1.97835 0
M  V30 43847 C 4173.16 -5.97129 -1.3455 0
M  V30 43848 N 4172.3 -6.61055 -2.3654 0
M  V30 43849 H 4177.14 -2.9699 0.245195 0
M  V30 43850 H 4174.68 -1.465 0.132759 0
M  V30 43851 H 4176.63 -3.5684 -2.16151 0
M  V30 43852 H 4175.26 -2.42762 -2.12759 0
M  V30 43853 H 4174.32 -3.80159 -0.135495 0
M  V30 43854 H 4175.63 -4.9722 -0.396757 0
M  V30 43855 H 4174.78 -5.42926 -2.7077 0
M  V30 43856 H 4173.52 -4.17896 -2.51424 0
M  V30 43857 H 4172.53 -5.465 -0.60152 0
M  V30 43858 H 4173.75 -6.74165 -0.81719 0
M  V30 43859 H 4171.7 -5.8879 -2.89245 0
M  V30 43860 H 4171.61 -7.31434 -1.91156 0
M  V30 43861 H 4172.88 -7.15631 -3.09018 0
M  V30 43862 N 4177.11 -0.1486 -1.56898 0
M  V30 43863 C 4178.34 0.512252 -2.00974 0
M  V30 43864 C 4178.76 1.57521 -1.02804 0
M  V30 43865 O 4178.12 1.813 -0.00403598 0
M  V30 43866 C 4178.17 1.08826 -3.43787 0
M  V30 43867 O 4177.27 2.20307 -3.48624 0
M  V30 43868 H 4176.61 0.125122 -0.652105 0
M  V30 43869 H 4179.14 -0.245804 -2.03118 0
M  V30 43870 H 4179.15 1.41652 -3.82621 0
M  V30 43871 H 4177.83 0.30985 -4.14744 0
M  V30 43872 H 4176.4 1.88697 -3.21633 0
M  V30 43873 N 4178.59 1.57102 0.125182 0
M  V30 43874 C 4179.83 1.86341 0.840015 0
M  V30 43875 C 4180.19 0.735787 1.77342 0
M  V30 43876 O 4181.39 0.909787 2.52935 0
M  V30 43877 C 4179.66 3.208 1.5755 0
M  V30 43878 S 4181.22 3.71656 2.33276 0
M  V30 43879 H 4178.04 0.653338 0.280483 0
M  V30 43880 H 4180.64 1.95251 0.0987126 0
M  V30 43881 H 4179.35 4.00818 0.881647 0
M  V30 43882 H 4178.88 3.14953 2.35729 0
M  V30 43883 H 4180.89 3.42663 3.58882 0
M  V30 43884 N 4180.07 -0.395186 1.52565 0
M  V30 43885 C 4181.48 -0.973401 1.59317 0
M  V30 43886 C 4181.83 -1.91152 0.442207 0
M  V30 43887 O 4180.95 -2.11971 -0.435563 0
M  V30 43888 C 4181.55 -1.77219 2.88754 0
M  V30 43889 C 4180.11 -2.3002 2.97939 0
M  V30 43890 C 4179.25 -1.10396 2.54378 0
M  V30 43891 H 4182.21 -0.17494 1.57733 0
M  V30 43892 H 4182.23 -2.63087 2.74892 0
M  V30 43893 H 4181.74 -1.08915 3.72504 0
M  V30 43894 H 4179.84 -3.01654 2.18713 0
M  V30 43895 H 4179.95 -2.59931 4.02458 0
M  V30 43896 H 4178.32 -1.46213 2.08551 0
M  V30 43897 H 4179.1 -0.436378 3.40515 0
M  V30 43898 N 4181.54 -1.43423 -0.653263 0
M  V30 43899 C 4182.79 -1.45253 -1.41525 0
M  V30 43900 C 4183.12 -0.0764855 -1.94049 0
M  V30 43901 O 4182.4 0.902651 -1.72286 0
M  V30 43902 C 4182.68 -2.49485 -2.59671 0
M  V30 43903 C 4182.53 -3.96364 -2.1264 0
M  V30 43904 C 4183.85 -2.50455 -3.61884 0
M  V30 43905 H 4180.97 -0.528894 -0.513264 0
M  V30 43906 H 4183.61 -1.74972 -0.740597 0
M  V30 43907 H 4181.76 -2.24274 -3.17228 0
M  V30 43908 H 4183.44 -4.32632 -1.60084 0
M  V30 43909 H 4181.68 -4.09198 -1.44013 0
M  V30 43910 H 4182.35 -4.64908 -2.97599 0
M  V30 43911 H 4184.83 -2.72927 -3.14086 0
M  V30 43912 H 4183.7 -3.25328 -4.42101 0
M  V30 43913 H 4183.96 -1.53833 -4.14473 0
M  V30 43914 N 4183.02 0.891625 -1.29953 0
M  V30 43915 C 4184.27 1.64528 -1.18567 0
M  V30 43916 C 4184.6 1.92445 0.260506 0
M  V30 43917 O 4183.88 1.54064 1.1872 0
M  V30 43918 C 4184.16 2.98931 -2.0078 0
M  V30 43919 C 4184.01 2.78029 -3.53582 0
M  V30 43920 C 4185.33 3.99769 -1.84045 0
M  V30 43921 H 4182.45 0.597053 -0.432084 0
M  V30 43922 H 4185.09 1.03224 -1.59514 0
M  V30 43923 H 4183.24 3.51255 -1.65987 0
M  V30 43924 H 4184.91 2.32543 -3.98398 0
M  V30 43925 H 4183.16 2.12658 -3.78099 0
M  V30 43926 H 4183.83 3.73568 -4.06387 0
M  V30 43927 H 4186.3 3.56582 -2.1445 0
M  V30 43928 H 4185.18 4.91733 -2.43905 0
M  V30 43929 H 4185.44 4.34842 -0.797802 0
M  V30 43930 N 4184.5 1.12561 1.10308 0
M  V30 43931 C 4185.46 0.797768 2.14868 0
M  V30 43932 C 4186.46 -0.188493 1.59691 0
M  V30 43933 O 4187.65 0.0374636 1.7416 0
M  V30 43934 C 4184.79 0.185725 3.40394 0
M  V30 43935 H 4185.98 1.72419 2.45381 0
M  V30 43936 H 4183.53 0.929033 1.25693 0
M  V30 43937 H 4184.27 -0.750354 3.155 0
M  V30 43938 H 4184.05 0.895838 3.81729 0
M  V30 43939 H 4185.54 -0.0271114 4.17591 0
M  V30 43940 N 4185.98 -1.28124 0.917717 0
M  V30 43941 C 4186.94 -2.25433 0.413862 0
M  V30 43942 C 4187.94 -1.54019 -0.462023 0
M  V30 43943 O 4189.13 -1.7218 -0.264516 0
M  V30 43944 C 4186.26 -3.38471 -0.40619 0
M  V30 43945 H 4187.46 -2.71518 1.2735 0
M  V30 43946 H 4185.01 -1.39875 0.69748 0
M  V30 43947 H 4185.75 -2.97753 -1.28506 0
M  V30 43948 H 4185.53 -3.91473 0.22167 0
M  V30 43949 H 4187.02 -4.1082 -0.749418 0
M  V30 43950 N 4187.46 -0.682127 -1.42073 0
M  V30 43951 C 4188.71 -0.204616 -2.00659 0
M  V30 43952 C 4189.02 1.1983 -1.54597 0
M  V30 43953 O 4190.23 1.77257 -2.05651 0
M  V30 43954 C 4188.68 -0.314943 -3.58519 0
M  V30 43955 C 4188.29 -1.72237 -4.13568 0
M  V30 43956 C 4190.03 0.103481 -4.24374 0
M  V30 43957 C 4187.94 -1.78507 -5.63817 0
M  V30 43958 H 4186.87 -0.0727385 -0.750483 0
M  V30 43959 H 4189.52 -0.848374 -1.62711 0
M  V30 43960 H 4187.9 0.396836 -3.94007 0
M  V30 43961 H 4189.08 -2.46182 -3.89526 0
M  V30 43962 H 4187.39 -2.08929 -3.60191 0
M  V30 43963 H 4189.99 0.0768849 -5.34645 0
M  V30 43964 H 4190.33 1.13998 -4.00387 0
M  V30 43965 H 4190.87 -0.557546 -3.93873 0
M  V30 43966 H 4187.6 -2.80164 -5.92612 0
M  V30 43967 H 4187.12 -1.08928 -5.89826 0
M  V30 43968 H 4188.8 -1.54183 -6.2836 0
M  V30 43969 N 4188.94 1.51735 -0.425951 0
M  V30 43970 C 4190.18 2.01173 0.145749 0
M  V30 43971 C 4190.5 1.31525 1.44777 0
M  V30 43972 O 4191.7 1.7187 2.10173 0
M  V30 43973 C 4190.16 3.5856 0.310292 0
M  V30 43974 C 4189.77 4.37136 -0.980627 0
M  V30 43975 C 4191.51 4.16179 0.836374 0
M  V30 43976 C 4189.42 5.86202 -0.78235 0
M  V30 43977 H 4188.35 0.751747 0.0582437 0
M  V30 43978 H 4191 1.74938 -0.553972 0
M  V30 43979 H 4189.38 3.81193 1.07275 0
M  V30 43980 H 4190.56 4.26255 -1.75053 0
M  V30 43981 H 4188.87 3.90915 -1.43438 0
M  V30 43982 H 4191.47 5.25246 1.00102 0
M  V30 43983 H 4191.81 3.74616 1.81572 0
M  V30 43984 H 4192.34 3.97579 0.132535 0
M  V30 43985 H 4189.08 6.32156 -1.73374 0
M  V30 43986 H 4188.6 5.99777 -0.0520425 0
M  V30 43987 H 4190.28 6.45562 -0.431079 0
M  V30 43988 N 4190.41 0.156919 1.56817 0
M  V30 43989 C 4191.64 -0.49837 2.00808 0
M  V30 43990 C 4192.06 -1.57766 1.03708 0
M  V30 43991 O 4191.41 -1.82465 0.0356389 0
M  V30 43992 C 4191.46 -1.08993 3.44678 0
M  V30 43993 O 4191.19 -0.05374 4.38067 0
M  V30 43994 C 4192.69 -1.82486 4.03997 0
M  V30 43995 H 4189.91 -0.128876 0.658507 0
M  V30 43996 H 4192.45 0.254418 2.02911 0
M  V30 43997 H 4190.61 -1.79328 3.43395 0
M  V30 43998 H 4191.02 -0.488476 5.2222 0
M  V30 43999 H 4192.49 -2.19155 5.06631 0
M  V30 44000 H 4192.97 -2.7145 3.4527 0
M  V30 44001 H 4193.58 -1.16826 4.0894 0
M  V30 44002 N 4191.89 -1.57166 -0.116849 0
M  V30 44003 C 4193.31 -1.52509 -0.470446 0
M  V30 44004 C 4193.51 -0.870256 -1.81738 0
M  V30 44005 O 4192.56 -0.453505 -2.48394 0
M  V30 44006 C 4193.88 -2.97269 -0.45296 0
M  V30 44007 C 4195.42 -3.0837 -0.536359 0
M  V30 44008 C 4195.9 -4.54695 -0.549239 0
M  V30 44009 N 4197.39 -4.59158 -0.610617 0
M  V30 44010 C 4198.13 -5.69794 -0.642066 0
M  V30 44011 N 4197.62 -6.8992 -0.631031 0
M  V30 44012 N 4199.41 -5.57908 -0.685237 0
M  V30 44013 H 4191.57 -1.98119 0.765673 0
M  V30 44014 H 4193.83 -0.904874 0.282678 0
M  V30 44015 H 4193.53 -3.48557 0.469135 0
M  V30 44016 H 4193.41 -3.54819 -1.27997 0
M  V30 44017 H 4195.8 -2.57083 -1.44887 0
M  V30 44018 H 4195.88 -2.53811 0.318383 0
M  V30 44019 H 4195.52 -5.06628 0.359239 0
M  V30 44020 H 4195.45 -5.07068 -1.42089 0
M  V30 44021 H 4197.94 -3.72692 -0.625222 0
M  V30 44022 H 4198.25 -7.69996 -0.657711 0
M  V30 44023 H 4196.6 -6.92419 -0.598422 0
M  V30 44024 H 4199.79 -4.62968 -0.691237 0
M  V30 44025 H 4199.96 -6.4414 -0.706279 0
M  V30 44026 N 4193.37 0.38709 -1.52772 0
M  V30 44027 C 4194.28 1.49721 -1.80612 0
M  V30 44028 C 4195.3 1.59604 -0.693009 0
M  V30 44029 O 4196.47 1.75904 -0.980801 0
M  V30 44030 C 4193.54 2.85232 -1.97088 0
M  V30 44031 C 4192.6 2.85055 -3.21002 0
M  V30 44032 C 4191.83 4.14102 -3.36682 0
M  V30 44033 O 4192.05 5.09158 -2.57126 0
M  V30 44034 O 4190.99 4.21225 -4.29945 0
M  V30 44035 H 4194.81 1.29125 -2.74882 0
M  V30 44036 H 4192.4 0.575116 -1.37887 0
M  V30 44037 H 4194.28 3.65564 -2.0962 0
M  V30 44038 H 4192.96 3.0585 -1.06007 0
M  V30 44039 H 4191.86 2.03497 -3.1391 0
M  V30 44040 H 4193.2 2.69389 -4.11935 0
M  V30 44041 N 4194.85 1.43768 0.645648 0
M  V30 44042 C 4196.1 1.45069 1.40135 0
M  V30 44043 C 4196.41 0.0815384 1.9543 0
M  V30 44044 O 4197.62 -0.0279684 2.71486 0
M  V30 44045 C 4196.07 2.55326 2.53646 0
M  V30 44046 C 4195.68 3.98383 2.04927 0
M  V30 44047 C 4197.42 2.65831 3.30959 0
M  V30 44048 C 4195.33 5.00091 3.15694 0
M  V30 44049 H 4194.26 0.539676 0.52656 0
M  V30 44050 H 4196.91 1.69784 0.696114 0
M  V30 44051 H 4195.29 2.23827 3.26677 0
M  V30 44052 H 4196.47 4.3938 1.38858 0
M  V30 44053 H 4194.78 3.91991 1.40472 0
M  V30 44054 H 4197.38 3.38993 4.13507 0
M  V30 44055 H 4197.72 1.71155 3.79489 0
M  V30 44056 H 4198.26 2.9667 2.65013 0
M  V30 44057 H 4194.99 5.96346 2.72125 0
M  V30 44058 H 4194.51 4.63699 3.80451 0
M  V30 44059 H 4196.19 5.23137 3.80705 0
M  V30 44060 N 4196.33 -0.884721 1.30424 0
M  V30 44061 C 4197.57 -1.63332 1.19026 0
M  V30 44062 C 4197.89 -1.93323 -0.255194 0
M  V30 44063 O 4197.16 -1.56985 -1.17186 0
M  V30 44064 H 4195.74 -0.605459 0.437525 0
M  V30 44065 H 4198.41 -1.06 1.63554 0
M  V30 44066 H 4197.5 -2.58333 1.7513 0
M  V30 44067 N 4197.8 -1.13144 -1.09709 0
M  V30 44068 C 4199.05 -0.891386 -1.81826 0
M  V30 44069 C 4199.38 0.582565 -1.85571 0
M  V30 44070 O 4198.63 1.44702 -1.31757 0
M  V30 44071 C 4198.93 -1.42073 -3.27948 0
M  V30 44072 C 4198.6 -2.91102 -3.44341 0
M  V30 44073 C 4197.26 -3.31792 -3.48522 0
M  V30 44074 C 4199.61 -3.86997 -3.49118 0
M  V30 44075 C 4196.94 -4.67068 -3.55056 0
M  V30 44076 C 4199.29 -5.22113 -3.57185 0
M  V30 44077 C 4197.96 -5.62334 -3.59634 0
M  V30 44078 H 4197.23 -0.326181 -0.665347 0
M  V30 44079 H 4199.87 -1.41289 -1.29265 0
M  V30 44080 H 4198.18 -0.819853 -3.83126 0
M  V30 44081 H 4199.88 -1.2111 -3.82274 0
M  V30 44082 H 4196.47 -2.58635 -3.41768 0
M  V30 44083 H 4200.65 -3.56649 -3.4513 0
M  V30 44084 H 4195.91 -4.97611 -3.55238 0
M  V30 44085 H 4200.08 -5.96237 -3.59826 0
M  V30 44086 H 4197.71 -6.67144 -3.64449 0
M  V30 44087 N 4199.28 1.27635 -0.924498 0
M  V30 44088 C 4200.53 1.93796 -0.55909 0
M  V30 44089 C 4200.84 1.73484 0.90347 0
M  V30 44090 O 4202.05 2.33959 1.37752 0
M  V30 44091 C 4200.51 3.4716 -0.949096 0
M  V30 44092 C 4200.11 3.76234 -2.43212 0
M  V30 44093 C 4201.86 4.1942 -0.654787 0
M  V30 44094 C 4199.77 5.22957 -2.76169 0
M  V30 44095 H 4198.7 0.725491 -0.205376 0
M  V30 44096 H 4201.35 1.44978 -1.12488 0
M  V30 44097 H 4199.73 3.94769 -0.311991 0
M  V30 44098 H 4200.9 3.39394 -3.11686 0
M  V30 44099 H 4199.22 3.17171 -2.69799 0
M  V30 44100 H 4201.81 5.2745 -0.877558 0
M  V30 44101 H 4202.16 4.14297 0.407871 0
M  V30 44102 H 4202.69 3.77622 -1.25084 0
M  V30 44103 H 4199.43 5.33167 -3.81331 0
M  V30 44104 H 4198.95 5.60955 -2.12342 0
M  V30 44105 H 4200.63 5.90804 -2.63743 0
M  V30 44106 N 4200.76 0.689652 1.41709 0
M  V30 44107 C 4202.01 0.218445 2.0162 0
M  V30 44108 C 4202.34 -1.17694 1.54473 0
M  V30 44109 O 4201.61 -1.79319 0.753332 0
M  V30 44110 C 4201.9 0.269548 3.5909 0
M  V30 44111 C 4201.75 1.70145 4.16378 0
M  V30 44112 C 4203.07 -0.373969 4.38508 0
M  V30 44113 H 4200.19 0.0808507 0.732552 0
M  V30 44114 H 4202.83 0.877252 1.68536 0
M  V30 44115 H 4200.98 -0.291398 3.87406 0
M  V30 44116 H 4202.65 2.31578 3.9896 0
M  V30 44117 H 4200.9 2.23748 3.71644 0
M  V30 44118 H 4201.57 1.68878 5.25532 0
M  V30 44119 H 4204.04 0.103697 4.15971 0
M  V30 44120 H 4202.92 -0.307642 5.48037 0
M  V30 44121 H 4203.18 -1.45381 4.17513 0
M  V30 44122 N 4202.24 -1.51507 0.433991 0
M  V30 44123 C 4203.65 -1.86676 -0.029908 0
M  V30 44124 C 4204 -1.35135 -1.42243 0
M  V30 44125 O 4203.13 -0.700771 -2.04739 0
M  V30 44126 C 4203.72 -3.38745 -0.0610484 0
M  V30 44127 C 4202.28 -3.73462 -0.46935 0
M  V30 44128 C 4201.43 -2.75206 0.340165 0
M  V30 44129 H 4204.38 -1.44779 0.649984 0
M  V30 44130 H 4204.4 -3.70391 -0.871233 0
M  V30 44131 H 4203.91 -3.76228 0.952577 0
M  V30 44132 H 4202.01 -3.41568 -1.4887 0
M  V30 44133 H 4202.12 -4.78697 -0.196472 0
M  V30 44134 H 4200.49 -2.53905 -0.201055 0
M  V30 44135 H 4201.27 -3.15531 1.3526 0
M  V30 44136 N 4203.72 -0.165233 -1.56731 0
M  V30 44137 C 4204.96 0.480326 -1.96309 0
M  V30 44138 C 4205.29 1.64188 -1.05201 0
M  V30 44139 O 4204.56 1.95549 -0.117142 0
M  V30 44140 H 4203.14 0.180438 -0.72488 0
M  V30 44141 H 4205.8 -0.244995 -1.93354 0
M  V30 44142 H 4204.89 0.844385 -3.00461 0
M  V30 44143 N 4205.19 1.57226 0.108512 0
M  V30 44144 C 4206.12 2.04137 1.13359 0
M  V30 44145 C 4207.11 0.927758 1.42572 0
M  V30 44146 O 4208.29 1.19816 1.52833 0
M  V30 44147 C 4205.42 2.45453 2.45703 0
M  V30 44148 C 4204.37 3.60355 2.30929 0
M  V30 44149 C 4203.7 3.87604 3.6833 0
M  V30 44150 C 4205 4.91716 1.76103 0
M  V30 44151 H 4206.69 2.90025 0.743359 0
M  V30 44152 H 4204.24 1.39527 0.356132 0
M  V30 44153 H 4206.19 2.76878 3.17674 0
M  V30 44154 H 4204.92 1.56549 2.86636 0
M  V30 44155 H 4203.58 3.29156 1.61406 0
M  V30 44156 H 4203.22 2.95888 4.06767 0
M  V30 44157 H 4202.92 4.64952 3.59295 0
M  V30 44158 H 4204.45 4.21491 4.41789 0
M  V30 44159 H 4205.86 5.21609 2.37901 0
M  V30 44160 H 4204.26 5.73136 1.77862 0
M  V30 44161 H 4205.33 4.79534 0.719386 0
M  V30 44162 N 4206.67 -0.378982 1.52975 0
M  V30 44163 C 4208.08 -0.956448 1.6034 0
M  V30 44164 C 4208.43 -1.90672 0.462456 0
M  V30 44165 O 4207.56 -2.12421 -0.413056 0
M  V30 44166 C 4208.15 -1.74146 2.90618 0
M  V30 44167 C 4206.71 -2.26847 3.00362 0
M  V30 44168 C 4205.86 -1.07692 2.55534 0
M  V30 44169 H 4208.81 -0.1582 1.5791 0
M  V30 44170 H 4208.83 -2.60156 2.77667 0
M  V30 44171 H 4208.34 -1.04958 3.73638 0
M  V30 44172 H 4206.45 -2.99317 2.219 0
M  V30 44173 H 4206.56 -2.55648 4.05193 0
M  V30 44174 H 4204.92 -1.43993 2.10091 0
M  V30 44175 H 4205.71 -0.400237 3.40959 0
M  V30 44176 N 4208.15 -1.44108 -0.638015 0
M  V30 44177 C 4209.4 -1.46239 -1.39494 0
M  V30 44178 C 4209.72 -0.0935673 -1.94775 0
M  V30 44179 O 4208.99 0.8732 -1.75363 0
M  V30 44180 H 4207.57 -0.538461 -0.517753 0
M  V30 44181 H 4210.23 -1.79832 -0.75142 0
M  V30 44182 H 4209.33 -2.18382 -2.2297 0
M  V30 44183 N 4209.63 0.877792 -1.30891 0
M  V30 44184 C 4210.86 1.66316 -1.23071 0
M  V30 44185 C 4211.27 1.87681 0.205276 0
M  V30 44186 O 4210.63 1.42941 1.13465 0
M  V30 44187 C 4210.68 3.03553 -1.9631 0
M  V30 44188 O 4210.4 2.83148 -3.34303 0
M  V30 44189 C 4211.9 3.97993 -1.95235 0
M  V30 44190 H 4209.12 0.51876 -0.425592 0
M  V30 44191 H 4211.67 1.0962 -1.72637 0
M  V30 44192 H 4209.82 3.56961 -1.50524 0
M  V30 44193 H 4210.23 3.70261 -3.71493 0
M  V30 44194 H 4211.71 4.9163 -2.51006 0
M  V30 44195 H 4212.19 4.29176 -0.932979 0
M  V30 44196 H 4212.79 3.5052 -2.40864 0
M  V30 44197 N 4211.11 1.13725 1.09108 0
M  V30 44198 C 4212.35 0.902351 1.81619 0
M  V30 44199 C 4212.69 -0.569976 1.85647 0
M  V30 44200 O 4211.96 -1.42193 1.32708 0
M  V30 44201 C 4212.24 1.49498 3.27601 0
M  V30 44202 C 4212.1 3.03665 3.31825 0
M  V30 44203 C 4213.42 1.16588 4.24376 0
M  V30 44204 H 4210.53 0.329245 0.659369 0
M  V30 44205 H 4213.18 1.40606 1.27789 0
M  V30 44206 H 4211.33 1.0666 3.73572 0
M  V30 44207 H 4213 3.55281 2.94233 0
M  V30 44208 H 4211.24 3.38486 2.71311 0
M  V30 44209 H 4211.91 3.40232 4.3468 0
M  V30 44210 H 4214.39 1.53611 3.86708 0
M  V30 44211 H 4213.26 1.60697 5.2485 0
M  V30 44212 H 4213.53 0.080079 4.42027 0
M  V30 44213 N 4212.58 -1.27143 0.931254 0
M  V30 44214 C 4213.51 -2.29112 0.450545 0
M  V30 44215 C 4214.5 -1.62859 -0.491015 0
M  V30 44216 O 4215.68 -1.9014 -0.395003 0
M  V30 44217 C 4212.81 -3.46051 -0.294259 0
M  V30 44218 C 4211.76 -4.24323 0.559802 0
M  V30 44219 C 4211.09 -5.33775 -0.314379 0
M  V30 44220 C 4212.39 -4.89338 1.82609 0
M  V30 44221 H 4214.08 -2.69572 1.30275 0
M  V30 44222 H 4211.63 -1.29591 0.627868 0
M  V30 44223 H 4213.58 -4.16488 -0.641519 0
M  V30 44224 H 4212.31 -3.04518 -1.18052 0
M  V30 44225 H 4210.97 -3.55637 0.889818 0
M  V30 44226 H 4210.61 -4.88484 -1.1997 0
M  V30 44227 H 4210.31 -5.87053 0.253592 0
M  V30 44228 H 4211.84 -6.07054 -0.657131 0
M  V30 44229 H 4213.25 -5.52042 1.54668 0
M  V30 44230 H 4211.65 -5.52689 2.33784 0
M  V30 44231 H 4212.72 -4.12838 2.54348 0
M  V30 44232 N 4214.06 -0.697157 -1.41342 0
M  V30 44233 C 4215.48 -0.368865 -1.55279 0
M  V30 44234 C 4215.68 1.12403 -1.67236 0
M  V30 44235 O 4214.74 1.90988 -1.65166 0
M  V30 44236 C 4216.05 -1.11878 -2.79112 0
M  V30 44237 C 4217.6 -1.10328 -2.92911 0
M  V30 44238 C 4218.07 -1.83498 -4.19634 0
M  V30 44239 N 4219.56 -1.80475 -4.26595 0
M  V30 44240 C 4220.3 -2.33929 -5.23512 0
M  V30 44241 N 4219.79 -2.9586 -6.26449 0
M  V30 44242 N 4221.59 -2.24175 -5.15463 0
M  V30 44243 H 4213.74 -1.66541 -1.31826 0
M  V30 44244 H 4216 -0.702893 -0.636117 0
M  V30 44245 H 4215.71 -2.17359 -2.76492 0
M  V30 44246 H 4215.58 -0.698395 -3.70678 0
M  V30 44247 H 4217.97 -0.0567353 -2.95045 0
M  V30 44248 H 4218.05 -1.56274 -2.02514 0
M  V30 44249 H 4217.69 -2.88133 -4.1826 0
M  V30 44250 H 4217.62 -1.34985 -5.09005 0
M  V30 44251 H 4220.11 -1.35324 -3.5284 0
M  V30 44252 H 4220.43 -3.3421 -6.96795 0
M  V30 44253 H 4218.77 -2.99938 -6.26947 0
M  V30 44254 H 4221.96 -1.75464 -4.3397 0
M  V30 44255 H 4222.14 -2.66137 -5.90826 0
M  V30 44256 N 4215.54 1.51274 -0.44202 0
M  V30 44257 C 4216.5 2.26427 0.355462 0
M  V30 44258 C 4217.5 1.30052 0.945677 0
M  V30 44259 O 4218.69 1.53726 0.819395 0
M  V30 44260 C 4215.83 3.0596 1.50338 0
M  V30 44261 H 4217.02 2.98363 -0.30323 0
M  V30 44262 H 4214.57 1.55075 -0.195306 0
M  V30 44263 H 4215.31 2.38451 2.19799 0
M  V30 44264 H 4215.09 3.76752 1.08629 0
M  V30 44265 H 4216.58 3.62874 2.06669 0
M  V30 44266 N 4217.02 0.173543 1.56642 0
M  V30 44267 C 4218.27 -0.47094 1.96125 0
M  V30 44268 C 4218.58 -1.64238 1.06232 0
M  V30 44269 O 4219.79 -2.35324 1.35406 0
M  V30 44270 C 4218.24 -0.889223 3.48742 0
M  V30 44271 C 4217.85 0.256741 4.47264 0
M  V30 44272 C 4219.6 -1.502 3.97039 0
M  V30 44273 C 4217.5 -0.181297 5.91122 0
M  V30 44274 H 4216.43 -0.179711 0.73227 0
M  V30 44275 H 4219.08 0.262128 1.81618 0
M  V30 44276 H 4217.47 -1.67833 3.58675 0
M  V30 44277 H 4218.64 1.03409 4.49047 0
M  V30 44278 H 4216.95 0.779618 4.09037 0
M  V30 44279 H 4219.55 -1.84181 5.01977 0
M  V30 44280 H 4219.89 -2.40072 3.40104 0
M  V30 44281 H 4220.43 -0.777282 3.90132 0
M  V30 44282 H 4217.17 0.682706 6.51935 0
M  V30 44283 H 4216.69 -0.923959 5.92641 0
M  V30 44284 H 4218.37 -0.624419 6.4398 0
M  V30 44285 N 4218.5 -1.57281 -0.100172 0
M  V30 44286 C 4219.45 -2.02704 -1.14078 0
M  V30 44287 C 4220.44 -0.927208 -1.41772 0
M  V30 44288 O 4221.65 -1.11239 -1.41512 0
M  V30 44289 H 4218.02 -0.645921 -0.385084 0
M  V30 44290 H 4219.99 -2.893 -0.731324 0
M  V30 44291 C 4218.74 -2.46302 -2.4542 0
M  V30 44292 H 4218.06 -3.30509 -2.24953 0
M  V30 44293 H 4219.5 -2.81864 -3.16747 0
M  V30 44294 C 4217.96 -1.33423 -3.09354 0
M  V30 44295 O 4218.49 -0.660563 -3.96232 0
M  V30 44296 N 4216.7 -1.0865 -2.69524 0
M  V30 44297 H 4216.25 -1.63613 -1.98969 0
M  V30 44298 H 4216.2 -0.333241 -3.12629 0
M  V30 44299 N 4219.98 0.370864 -1.53174 0
M  V30 44300 C 4221.22 1.11186 -1.68766 0
M  V30 44301 C 4221.54 1.89987 -0.439331 0
M  V30 44302 O 4220.81 1.88121 0.546559 0
M  V30 44303 H 4219.39 0.413456 -0.622144 0
M  V30 44304 H 4222.06 0.418761 -1.90348 0
M  V30 44305 H 4221.15 1.80463 -2.54636 0
M  V30 44306 N 4221.45 1.44444 0.630363 0
M  V30 44307 C 4222.73 1.37743 1.38875 0
M  V30 44308 C 4223.11 0.0365289 2.11068 0
M  V30 44309 O 4222.46 -0.980904 2.06375 0
M  V30 44310 C 4222.67 2.5761 2.35453 0
M  V30 44311 C 4224.02 3.01707 2.98761 0
M  V30 44312 O 4225.04 2.5782 2.45779 0
M  V30 44313 O 4223.9 3.77803 3.94876 0
M  V30 44314 H 4220.99 0.545501 0.621577 0
M  V30 44315 H 4223.54 1.56535 0.655355 0
M  V30 44316 H 4222.31 3.46811 1.81212 0
M  V30 44317 H 4221.93 2.41035 3.16209 0
M  V30 44318 N 4222.93 -0.870838 1.31355 0
M  V30 44319 C 4224.18 -1.62381 1.20991 0
M  V30 44320 C 4224.51 -1.9311 -0.232143 0
M  V30 44321 O 4223.76 -1.56073 -1.18067 0
M  V30 44322 C 4224.06 -2.96308 1.99841 0
M  V30 44323 C 4223.73 -2.85075 3.49347 0
M  V30 44324 C 4222.39 -2.81719 3.90113 0
M  V30 44325 C 4224.74 -2.72174 4.4449 0
M  V30 44326 C 4222.07 -2.63318 5.24291 0
M  V30 44327 C 4224.42 -2.5531 5.78792 0
M  V30 44328 C 4223.08 -2.50336 6.18779 0
M  V30 44329 H 4222.35 -0.594193 0.442737 0
M  V30 44330 H 4225 -1.01143 1.62611 0
M  V30 44331 H 4223.31 -3.61576 1.50898 0
M  V30 44332 H 4225 -3.53558 1.89202 0
M  V30 44333 H 4221.59 -2.88504 3.16959 0
M  V30 44334 H 4225.78 -2.73823 4.13926 0
M  V30 44335 H 4221.03 -2.57892 5.54348 0
M  V30 44336 H 4225.21 -2.44304 6.52142 0
M  V30 44337 H 4222.83 -2.35837 7.22693 0
M  V30 44338 N 4224.41 -1.14302 -1.08503 0
M  V30 44339 C 4225.34 -0.851807 -2.17409 0
M  V30 44340 C 4226.32 0.192789 -1.69004 0
M  V30 44341 O 4227.51 0.0496757 -1.94136 0
M  V30 44342 C 4224.64 -0.327425 -3.45753 0
M  V30 44343 C 4223.59 -1.30735 -4.07544 0
M  V30 44344 C 4222.92 -0.642318 -5.30828 0
M  V30 44345 C 4224.22 -2.66927 -4.4894 0
M  V30 44346 H 4225.91 -1.76249 -2.42026 0
M  V30 44347 H 4223.46 -0.848854 -1.16321 0
M  V30 44348 H 4225.41 -0.111311 -4.21253 0
M  V30 44349 H 4224.13 0.618681 -3.20687 0
M  V30 44350 H 4222.79 -1.50962 -3.34075 0
M  V30 44351 H 4222.44 0.309564 -5.02047 0
M  V30 44352 H 4222.14 -1.29618 -5.73126 0
M  V30 44353 H 4223.66 -0.435705 -6.09043 0
M  V30 44354 H 4225.08 -2.50613 -5.15622 0
M  V30 44355 H 4223.47 -3.28577 -5.02153 0
M  V30 44356 H 4224.54 -3.23877 -3.60876 0
M  V30 44357 N 4225.89 1.26648 -0.937984 0
M  V30 44358 C 4226.84 2.24173 -0.415977 0
M  V30 44359 C 4227.82 1.534 0.485513 0
M  V30 44360 O 4229.01 1.7406 0.32128 0
M  V30 44361 C 4226.14 3.418 0.320607 0
M  V30 44362 C 4225.23 4.19863 -0.597991 0
M  V30 44363 N 4225.62 4.75571 -1.72237 0
M  V30 44364 C 4223.92 4.44176 -0.402963 0
M  V30 44365 C 4224.62 5.34533 -2.29454 0
M  V30 44366 N 4223.59 5.20043 -1.58293 0
M  V30 44367 H 4227.4 2.64836 -1.27432 0
M  V30 44368 H 4224.91 1.41696 -0.793471 0
M  V30 44369 H 4226.91 4.10782 0.711591 0
M  V30 44370 H 4225.57 3.02665 1.17576 0
M  V30 44371 H 4226.58 4.7321 -2.10457 0
M  V30 44372 H 4223.26 4.15475 0.410681 0
M  V30 44373 H 4224.65 5.88525 -3.24172 0
M  V30 44374 N 4227.37 0.704643 1.4097 0
M  V30 44375 C 4228.61 0.239462 2.01079 0
M  V30 44376 C 4228.94 -1.16384 1.55837 0
M  V30 44377 O 4228.2 -1.8015 0.764482 0
M  V30 44378 C 4228.49 0.255431 3.56486 0
M  V30 44379 C 4228.16 1.60751 4.21272 0
M  V30 44380 C 4226.82 1.97764 4.38683 0
M  V30 44381 C 4229.17 2.49662 4.57513 0
M  V30 44382 C 4226.5 3.23256 4.89615 0
M  V30 44383 C 4228.85 3.74495 5.09839 0
M  V30 44384 C 4227.52 4.1164 5.2546 0
M  V30 44385 H 4226.79 0.0876254 0.735801 0
M  V30 44386 H 4229.44 0.905521 1.68738 0
M  V30 44387 H 4227.74 -0.494189 3.88671 0
M  V30 44388 H 4229.44 -0.122165 4.00814 0
M  V30 44389 H 4226.03 1.30965 4.08101 0
M  V30 44390 H 4230.21 2.22344 4.43708 0
M  V30 44391 H 4225.47 3.52018 4.99893 0
M  V30 44392 H 4229.64 4.43569 5.36861 0
M  V30 44393 H 4227.27 5.08951 5.64688 0
M  V30 44394 N 4228.84 -1.51038 0.450036 0
M  V30 44395 C 4229.77 -2.30933 -0.345275 0
M  V30 44396 C 4230.76 -1.36901 -1.00956 0
M  V30 44397 O 4231.94 -1.65822 -1.01077 0
M  V30 44398 C 4229.07 -3.16057 -1.43962 0
M  V30 44399 C 4228.02 -4.18471 -0.898124 0
M  V30 44400 C 4227.35 -4.92197 -2.08918 0
M  V30 44401 C 4228.65 -5.22244 0.0761829 0
M  V30 44402 H 4230.34 -2.97669 0.321493 0
M  V30 44403 H 4227.89 -1.43152 0.156058 0
M  V30 44404 H 4229.84 -3.70736 -2.00332 0
M  V30 44405 H 4228.57 -2.47166 -2.13486 0
M  V30 44406 H 4227.23 -3.64862 -0.356553 0
M  V30 44407 H 4226.87 -4.19797 -2.77091 0
M  V30 44408 H 4226.57 -5.61457 -1.73318 0
M  V30 44409 H 4228.1 -5.49703 -2.65817 0
M  V30 44410 H 4229.51 -5.71919 -0.397628 0
M  V30 44411 H 4227.91 -5.99105 0.345386 0
M  V30 44412 H 4228.98 -4.74289 1.00886 0
M  V30 44413 N 4230.32 -0.181847 -1.56547 0
M  V30 44414 C 4231.73 0.333067 -1.83705 0
M  V30 44415 C 4232.08 1.62324 -1.10206 0
M  V30 44416 O 4231.21 2.1341 -0.358514 0
M  V30 44417 C 4231.8 0.611075 -3.33244 0
M  V30 44418 C 4230.36 1.0704 -3.60859 0
M  V30 44419 C 4229.51 0.11188 -2.77074 0
M  V30 44420 H 4232.46 -0.405905 -1.53421 0
M  V30 44421 H 4232.48 1.46194 -3.51294 0
M  V30 44422 H 4231.99 -0.328107 -3.86711 0
M  V30 44423 H 4230.1 2.02432 -3.12813 0
M  V30 44424 H 4230.21 0.972275 -4.69131 0
M  V30 44425 H 4228.57 0.611258 -2.47256 0
M  V30 44426 H 4229.36 -0.82151 -3.33326 0
M  V30 44427 N 4231.8 1.57332 0.09183 0
M  V30 44428 C 4233.22 1.53238 0.446124 0
M  V30 44429 C 4233.42 0.899058 1.80331 0
M  V30 44430 O 4232.47 0.492965 2.47641 0
M  V30 44431 C 4233.79 2.97952 0.405609 0
M  V30 44432 C 4235.33 3.09184 0.487232 0
M  V30 44433 C 4235.81 4.55511 0.476832 0
M  V30 44434 N 4237.3 4.60071 0.537492 0
M  V30 44435 C 4238.03 5.70743 0.551336 0
M  V30 44436 N 4237.53 6.90837 0.521191 0
M  V30 44437 N 4239.32 5.58927 0.596392 0
M  V30 44438 H 4231.47 1.96876 -0.797095 0
M  V30 44439 H 4233.74 0.900262 -0.297038 0
M  V30 44440 H 4233.44 3.47767 -0.524528 0
M  V30 44441 H 4233.32 3.5681 1.22336 0
M  V30 44442 H 4235.7 2.59356 1.40779 0
M  V30 44443 H 4235.79 2.53272 -0.358722 0
M  V30 44444 H 4235.43 5.05992 -0.439794 0
M  V30 44445 H 4235.36 5.09265 1.34004 0
M  V30 44446 H 4237.85 3.7364 0.565851 0
M  V30 44447 H 4238.16 7.70945 0.535128 0
M  V30 44448 H 4236.51 6.93283 0.488188 0
M  V30 44449 H 4239.7 4.64009 0.617495 0
M  V30 44450 H 4239.87 6.45182 0.603712 0
M  V30 44451 N 4233.28 -0.362736 1.53369 0
M  V30 44452 C 4234.52 -1.10671 1.6994 0
M  V30 44453 C 4234.86 -1.88883 0.451335 0
M  V30 44454 O 4234.13 -1.8652 -0.551419 0
M  V30 44455 C 4234.42 -2.06362 2.95105 0
M  V30 44456 C 4234.27 -1.3174 4.30075 0
M  V30 44457 C 4235.59 -3.06446 3.15878 0
M  V30 44458 H 4232.71 -0.400957 0.618387 0
M  V30 44459 H 4235.35 -0.387232 1.86012 0
M  V30 44460 H 4233.5 -2.67715 2.81533 0
M  V30 44461 H 4235.17 -0.731494 4.55463 0
M  V30 44462 H 4233.41 -0.619272 4.29357 0
M  V30 44463 H 4234.08 -2.01794 5.13793 0
M  V30 44464 H 4236.56 -2.55198 3.28653 0
M  V30 44465 H 4235.44 -3.70621 4.04884 0
M  V30 44466 H 4235.7 -3.76774 2.31288 0
M  V30 44467 N 4234.76 -1.44777 -0.622694 0
M  V30 44468 C 4236 -1.48003 -1.38208 0
M  V30 44469 C 4236.33 -0.115869 -1.94155 0
M  V30 44470 O 4235.59 0.883491 -1.74622 0
M  V30 44471 C 4235.89 -2.49467 -2.55931 0
M  V30 44472 C 4235.55 -3.94575 -2.18223 0
M  V30 44473 C 4234.21 -4.3409 -2.07652 0
M  V30 44474 C 4236.57 -4.85894 -1.88565 0
M  V30 44475 C 4233.89 -5.62837 -1.65624 0
M  V30 44476 C 4236.25 -6.15037 -1.48027 0
M  V30 44477 C 4234.91 -6.53498 -1.36004 0
M  V30 44478 H 4234.18 -0.541581 -0.505738 0
M  V30 44479 H 4236.83 -1.78038 -0.705309 0
M  V30 44480 H 4235.13 -2.12946 -3.28879 0
M  V30 44481 H 4236.83 -2.49206 -3.14161 0
M  V30 44482 H 4233.42 -3.63318 -2.27372 0
M  V30 44483 H 4237.6 -4.56114 -1.95637 0
M  V30 44484 H 4232.86 -5.91446 -1.54926 0
M  V30 44485 H 4237.03 -6.8525 -1.2412 0
M  V30 44486 H 4234.66 -7.53161 -1.0321 0
M  V30 44487 N 4236.23 0.863859 -1.31815 0
M  V30 44488 C 4237.46 1.65526 -1.24964 0
M  V30 44489 C 4237.88 1.87228 0.180927 0
M  V30 44490 O 4237.24 1.41844 1.12916 0
M  V30 44491 C 4237.29 2.99704 -2.00523 0
M  V30 44492 O 4236.39 3.8979 -1.34674 0
M  V30 44493 H 4235.74 0.504993 -0.431136 0
M  V30 44494 H 4238.27 1.07662 -1.73983 0
M  V30 44495 H 4238.28 3.49595 -2.1035 0
M  V30 44496 H 4236.95 2.83229 -3.04555 0
M  V30 44497 H 4235.53 3.48246 -1.33338 0
M  V30 44498 N 4237.71 1.14875 1.07895 0
M  V30 44499 C 4238.68 0.843165 2.13128 0
M  V30 44500 C 4239.68 -0.154578 1.60055 0
M  V30 44501 O 4240.87 0.0743971 1.74041 0
M  V30 44502 C 4238 0.257886 3.39923 0
M  V30 44503 H 4239.19 1.77585 2.41668 0
M  V30 44504 H 4236.74 0.955485 1.23694 0
M  V30 44505 H 4237.48 -0.683263 3.17021 0
M  V30 44506 H 4237.26 0.976607 3.79743 0
M  V30 44507 H 4238.75 0.061472 4.17555 0
M  V30 44508 N 4239.19 -1.26148 0.944687 0
M  V30 44509 C 4240.44 -1.93875 0.595007 0
M  V30 44510 C 4240.77 -1.73908 -0.864274 0
M  V30 44511 O 4240.04 -1.0782 -1.6188 0
M  V30 44512 C 4240.33 -3.47551 0.942361 0
M  V30 44513 C 4240.18 -3.76788 2.45664 0
M  V30 44514 C 4241.5 -4.37686 0.460281 0
M  V30 44515 H 4238.62 -0.704132 0.217641 0
M  V30 44516 H 4241.26 -1.48952 1.17954 0
M  V30 44517 H 4239.41 -3.85944 0.444931 0
M  V30 44518 H 4241.08 -3.48089 3.02707 0
M  V30 44519 H 4239.33 -3.22742 2.89862 0
M  V30 44520 H 4240 -4.8422 2.65019 0
M  V30 44521 H 4242.47 -4.0654 0.886833 0
M  V30 44522 H 4241.35 -5.43996 0.732115 0
M  V30 44523 H 4241.61 -4.37446 -0.639776 0
M  V30 44524 N 4240.67 -0.712109 -1.40594 0
M  V30 44525 C 4241.92 -0.249628 -2.00552 0
M  V30 44526 C 4242.24 1.16009 -1.56738 0
M  V30 44527 O 4241.51 1.78583 -0.80529 0
M  V30 44528 H 4240.09 -0.0893015 -0.741643 0
M  V30 44529 H 4242.75 -0.916964 -1.71982 0
M  V30 44530 H 4241.85 -0.279993 -3.10842 0
M  V30 44531 N 4242.15 1.50797 -0.45804 0
M  V30 44532 C 4243.09 2.29843 0.357043 0
M  V30 44533 C 4244.09 1.36569 1.00226 0
M  V30 44534 O 4245.29 1.53819 0.934861 0
M  V30 44535 H 4241.67 0.73997 0.133972 0
M  V30 44536 H 4243.64 2.96567 -0.330218 0
M  V30 44537 C 4242.39 3.16752 1.43399 0
M  V30 44538 H 4241.71 3.88425 0.946879 0
M  V30 44539 H 4243.15 3.7508 1.97714 0
M  V30 44540 C 4241.61 2.33482 2.42874 0
M  V30 44541 O 4242.14 2.0088 3.47865 0
M  V30 44542 N 4240.35 1.9631 2.14268 0
M  V30 44543 H 4239.89 2.23022 1.28914 0
M  V30 44544 H 4239.85 1.40896 2.81062 0
M  V30 44545 N 4243.63 0.190147 1.56449 0
M  V30 44546 C 4244.87 -0.450111 1.96614 0
M  V30 44547 C 4245.19 -1.63102 1.07968 0
M  V30 44548 O 4246.39 -2.33875 1.37894 0
M  V30 44549 C 4244.85 -0.852184 3.49665 0
M  V30 44550 C 4244.46 0.304165 4.46966 0
M  V30 44551 C 4246.2 -1.4598 3.9861 0
M  V30 44552 C 4244.11 -0.118591 5.91281 0
M  V30 44553 H 4243.04 -0.171935 0.734135 0
M  V30 44554 H 4245.69 0.281377 1.8133 0
M  V30 44555 H 4244.07 -1.6402 3.60435 0
M  V30 44556 H 4245.25 1.08166 4.47925 0
M  V30 44557 H 4243.56 0.822958 4.08187 0
M  V30 44558 H 4246.16 -1.78847 5.03903 0
M  V30 44559 H 4246.5 -2.36452 3.42631 0
M  V30 44560 H 4247.03 -0.73586 3.90935 0
M  V30 44561 H 4243.77 0.751814 6.51174 0
M  V30 44562 H 4243.29 -0.86105 5.93587 0
M  V30 44563 H 4244.97 -0.556082 6.44606 0
M  V30 44564 N 4245.1 -1.57379 -0.083485 0
M  V30 44565 C 4246.34 -1.88503 -0.790315 0
M  V30 44566 C 4246.71 -0.782547 -1.75329 0
M  V30 44567 O 4247.91 -0.976529 -2.50434 0
M  V30 44568 C 4246.18 -3.24865 -1.48989 0
M  V30 44569 S 4247.74 -3.7771 -2.2334 0
M  V30 44570 H 4244.56 -0.660545 -0.263062 0
M  V30 44571 H 4247.16 -1.95444 -0.0469107 0
M  V30 44572 H 4245.86 -4.03015 -0.775067 0
M  V30 44573 H 4245.39 -3.21092 -2.27296 0
M  V30 44574 H 4247.41 -3.52058 -3.49671 0
M  V30 44575 N 4246.58 0.354597 -1.53559 0
M  V30 44576 C 4247.81 1.11478 -1.73943 0
M  V30 44577 C 4248.22 1.83184 -0.47332 0
M  V30 44578 O 4247.56 1.74823 0.564144 0
M  V30 44579 C 4247.62 2.1812 -2.85769 0
M  V30 44580 C 4247.29 1.66085 -4.25752 0
M  V30 44581 C 4248.29 1.11905 -5.07714 0
M  V30 44582 C 4245.97 1.71266 -4.72201 0
M  V30 44583 C 4247.96 0.635965 -6.34219 0
M  V30 44584 C 4245.65 1.22569 -5.98682 0
M  V30 44585 C 4246.65 0.688258 -6.79523 0
M  V30 44586 O 4246.34 0.208518 -8.0363 0
M  V30 44587 H 4246.07 0.338786 -0.584979 0
M  V30 44588 H 4248.62 0.415997 -2.01143 0
M  V30 44589 H 4246.85 2.91524 -2.54069 0
M  V30 44590 H 4248.54 2.79616 -2.94227 0
M  V30 44591 H 4249.31 1.07233 -4.72997 0
M  V30 44592 H 4245.19 2.12038 -4.09342 0
M  V30 44593 H 4248.73 0.215811 -6.97266 0
M  V30 44594 H 4244.63 1.26938 -6.32896 0
M  V30 44595 H 4245.4 0.326832 -8.17847 0
M  V30 44596 N 4248.06 1.45105 0.615008 0
M  V30 44597 C 4249.29 1.52246 1.40103 0
M  V30 44598 C 4249.7 0.152594 1.88182 0
M  V30 44599 O 4249.06 -0.844509 1.61785 0
M  V30 44600 C 4249.11 2.50068 2.61052 0
M  V30 44601 O 4248.83 3.81731 2.14973 0
M  V30 44602 C 4250.33 2.66834 3.53998 0
M  V30 44603 H 4247.55 0.515843 0.429124 0
M  V30 44604 H 4250.1 1.90222 0.750711 0
M  V30 44605 H 4248.25 2.15184 3.22141 0
M  V30 44606 H 4248.67 4.34691 2.93502 0
M  V30 44607 H 4250.14 3.39273 4.35428 0
M  V30 44608 H 4250.62 1.72614 4.03858 0
M  V30 44609 H 4251.22 3.02685 2.98767 0
M  V30 44610 N 4249.54 -0.856857 1.32271 0
M  V30 44611 C 4250.95 -1.4268 1.20414 0
M  V30 44612 C 4251.3 -1.95333 -0.184219 0
M  V30 44613 O 4250.42 -1.87361 -1.08281 0
M  V30 44614 C 4251.02 -2.59354 2.17993 0
M  V30 44615 C 4249.58 -3.12353 2.10029 0
M  V30 44616 C 4248.73 -1.85094 2.06484 0
M  V30 44617 H 4251.68 -0.664211 1.44132 0
M  V30 44618 H 4251.7 -3.36447 1.77718 0
M  V30 44619 H 4251.21 -2.21001 3.1903 0
M  V30 44620 H 4249.31 -3.55295 1.12233 0
M  V30 44621 H 4249.42 -3.73747 2.9975 0
M  V30 44622 H 4247.79 -2.04602 1.5169 0
M  V30 44623 H 4248.57 -1.48961 3.09298 0
M  V30 44624 N 4251.02 -1.15446 -1.07285 0
M  V30 44625 C 4252.24 -0.954093 -1.84152 0
M  V30 44626 C 4252.67 0.492608 -1.81535 0
M  V30 44627 O 4252.02 1.35122 -1.20879 0
M  V30 44628 C 4252.07 -1.47376 -3.29109 0
M  V30 44629 O 4251.18 -0.673406 -4.06865 0
M  V30 44630 H 4250.52 -0.34026 -0.570192 0
M  V30 44631 H 4253.05 -1.53445 -1.35336 0
M  V30 44632 H 4253.06 -1.48689 -3.79942 0
M  V30 44633 H 4251.73 -2.52697 -3.30329 0
M  V30 44634 H 4250.31 -0.729959 -3.65686 0
M  V30 44635 N 4252.49 1.25646 -0.951364 0
M  V30 44636 C 4253.44 2.2601 -0.467755 0
M  V30 44637 C 4254.41 1.59073 0.478021 0
M  V30 44638 O 4255.6 1.8673 0.391991 0
M  V30 44639 C 4252.74 3.44183 0.251422 0
M  V30 44640 C 4251.85 4.25767 -0.73121 0
M  V30 44641 C 4250.98 5.31199 0.0101967 0
M  V30 44642 C 4250.02 6.04468 -0.963585 0
M  V30 44643 N 4249.16 7.01643 -0.253266 0
M  V30 44644 H 4254 2.66748 -1.32852 0
M  V30 44645 H 4251.54 1.31144 -0.666301 0
M  V30 44646 H 4253.49 4.11539 0.68493 0
M  V30 44647 H 4252.12 3.0433 1.07625 0
M  V30 44648 H 4251.18 3.58103 -1.28321 0
M  V30 44649 H 4252.49 4.7651 -1.47444 0
M  V30 44650 H 4251.64 6.04615 0.502497 0
M  V30 44651 H 4250.38 4.81321 0.786236 0
M  V30 44652 H 4249.39 5.29869 -1.46692 0
M  V30 44653 H 4250.61 6.56436 -1.7398 0
M  V30 44654 H 4248.56 6.5406 0.504095 0
M  V30 44655 H 4248.47 7.50188 -0.935643 0
M  V30 44656 H 4249.74 7.79196 0.217605 0
M  V30 44657 N 4253.97 0.719555 1.40215 0
M  V30 44658 C 4254.9 0.084361 2.33348 0
M  V30 44659 C 4255.88 -0.741198 1.53102 0
M  V30 44660 O 4257.07 -0.689318 1.81555 0
M  V30 44661 C 4254.2 -0.835197 3.37108 0
M  V30 44662 C 4253.15 -0.114961 4.27846 0
M  V30 44663 C 4252.48 -1.1505 5.22176 0
M  V30 44664 C 4253.78 1.03323 5.11978 0
M  V30 44665 H 4255.47 0.862269 2.86715 0
M  V30 44666 H 4253.02 0.416098 1.37857 0
M  V30 44667 H 4254.97 -1.28898 4.01202 0
M  V30 44668 H 4253.69 -1.64505 2.82145 0
M  V30 44669 H 4252.35 0.319039 3.65209 0
M  V30 44670 H 4252 -1.95351 4.63516 0
M  V30 44671 H 4251.7 -0.673453 5.83728 0
M  V30 44672 H 4253.23 -1.6043 5.89147 0
M  V30 44673 H 4254.64 0.658622 5.69504 0
M  V30 44674 H 4253.04 1.43891 5.82594 0
M  V30 44675 H 4254.11 1.86207 4.47722 0
M  V30 44676 N 4255.45 -1.50552 0.466031 0
M  V30 44677 C 4256.7 -2.01488 -0.0923602 0
M  V30 44678 C 4257.01 -1.35318 -1.41239 0
M  V30 44679 O 4258.22 -1.77382 -2.05543 0
M  V30 44680 C 4256.67 -3.59257 -0.215117 0
M  V30 44681 C 4256.28 -4.34382 1.09618 0
M  V30 44682 C 4258.03 -4.1825 -0.725738 0
M  V30 44683 C 4255.93 -5.83922 0.937496 0
M  V30 44684 H 4254.86 -0.753027 -0.0382919 0
M  V30 44685 H 4257.51 -1.73408 0.600159 0
M  V30 44686 H 4255.9 -3.83903 -0.971303 0
M  V30 44687 H 4257.07 -4.21464 1.86293 0
M  V30 44688 H 4255.38 -3.86974 1.53752 0
M  V30 44689 H 4257.98 -5.27716 -0.861411 0
M  V30 44690 H 4258.32 -3.79299 -1.71576 0
M  V30 44691 H 4258.86 -3.97791 -0.0270777 0
M  V30 44692 H 4255.6 -6.27337 1.90074 0
M  V30 44693 H 4255.12 -5.99429 0.211045 0
M  V30 44694 H 4256.8 -6.44192 0.602087 0
M  V30 44695 N 4256.93 -0.198441 -1.56346 0
M  V30 44696 C 4257.84 0.732962 -2.22856 0
M  V30 44697 C 4258.85 1.23203 -1.2287 0
M  V30 44698 O 4260.03 1.27849 -1.55617 0
M  V30 44699 C 4257.09 1.93394 -2.87749 0
M  V30 44700 C 4256.16 1.47912 -4.03014 0
M  V30 44701 C 4255.39 2.62285 -4.64803 0
M  V30 44702 O 4255.61 3.79851 -4.25522 0
M  V30 44703 O 4254.55 2.34807 -5.54211 0
M  V30 44704 H 4258.37 0.19651 -3.03064 0
M  V30 44705 H 4255.96 0.0309991 -1.49368 0
M  V30 44706 H 4257.84 2.63579 -3.28792 0
M  V30 44707 H 4256.51 2.45894 -2.10518 0
M  V30 44708 H 4255.42 0.745974 -3.66587 0
M  V30 44709 H 4256.75 1.00076 -4.81919 0
M  V30 44710 N 4258.41 1.57421 0.0751377 0
M  V30 44711 C 4259.64 1.91032 0.786796 0
M  V30 44712 C 4260.04 0.792333 1.7181 0
M  V30 44713 O 4259.39 -0.243415 1.8208 0
M  V30 44714 C 4259.45 3.20079 1.63676 0
M  V30 44715 C 4259.11 4.48542 0.875173 0
M  V30 44716 C 4260.11 5.19531 0.195926 0
M  V30 44717 C 4257.8 4.9517 0.843338 0
M  V30 44718 C 4259.79 6.35397 -0.504965 0
M  V30 44719 C 4257.48 6.10943 0.138673 0
M  V30 44720 C 4258.47 6.80907 -0.534282 0
M  V30 44721 O 4258.16 7.94472 -1.2276 0
M  V30 44722 H 4257.89 0.636008 0.229063 0
M  V30 44723 H 4260.45 2.05337 0.0507168 0
M  V30 44724 H 4258.68 3.01973 2.41555 0
M  V30 44725 H 4260.37 3.39366 2.22679 0
M  V30 44726 H 4261.13 4.84537 0.21185 0
M  V30 44727 H 4257.01 4.40588 1.3566 0
M  V30 44728 H 4260.56 6.89942 -1.03079 0
M  V30 44729 H 4256.45 6.45387 0.120664 0
M  V30 44730 H 4257.22 8.10571 -1.13653 0
M  V30 44731 N 4259.88 -0.346449 1.53745 0
M  V30 44732 C 4261.11 -1.11157 1.75097 0
M  V30 44733 C 4261.53 -1.81673 0.487491 0
M  V30 44734 O 4260.89 -1.72444 -0.5597 0
M  V30 44735 C 4260.94 -2.10295 2.92931 0
M  V30 44736 O 4260.04 -3.17758 2.62876 0
M  V30 44737 H 4259.39 -0.321619 0.580911 0
M  V30 44738 H 4261.92 -0.397727 2.00697 0
M  V30 44739 H 4261.93 -2.53566 3.19638 0
M  V30 44740 H 4260.6 -1.58366 3.84569 0
M  V30 44741 H 4259.18 -2.79323 2.47048 0
M  V30 44742 N 4261.36 -1.45429 -0.607304 0
M  V30 44743 C 4262.64 -1.39935 -1.36666 0
M  V30 44744 C 4263.02 -0.0701034 -2.10984 0
M  V30 44745 O 4262.37 0.947947 -2.07909 0
M  V30 44746 C 4262.58 -2.61323 -2.31325 0
M  V30 44747 C 4263.93 -3.06422 -2.93923 0
M  V30 44748 O 4264.95 -2.61698 -2.41646 0
M  V30 44749 O 4263.81 -3.84037 -3.88816 0
M  V30 44750 H 4260.9 -0.55532 -0.61282 0
M  V30 44751 H 4263.45 -1.57558 -0.630369 0
M  V30 44752 H 4262.22 -3.4965 -1.75671 0
M  V30 44753 H 4261.84 -2.46035 -3.12334 0
M  V30 44754 N 4262.84 0.84983 -1.32724 0
M  V30 44755 C 4264.09 1.60435 -1.23559 0
M  V30 44756 C 4264.42 1.93455 0.201391 0
M  V30 44757 O 4263.67 1.57931 1.15569 0
M  V30 44758 C 4263.97 2.93091 -2.04529 0
M  V30 44759 C 4263.64 2.79481 -3.53838 0
M  V30 44760 C 4262.3 2.75477 -3.94545 0
M  V30 44761 C 4264.65 2.65068 -4.48763 0
M  V30 44762 C 4261.98 2.54943 -5.28413 0
M  V30 44763 C 4264.33 2.46069 -5.8278 0
M  V30 44764 C 4262.99 2.4046 -6.22684 0
M  V30 44765 H 4262.26 0.587074 -0.452134 0
M  V30 44766 H 4264.91 0.985433 -1.64199 0
M  V30 44767 H 4263.22 3.59129 -1.56632 0
M  V30 44768 H 4264.91 3.50503 -1.94803 0
M  V30 44769 H 4261.5 2.83425 -3.21509 0
M  V30 44770 H 4265.69 2.67203 -4.1823 0
M  V30 44771 H 4260.94 2.4904 -5.58381 0
M  V30 44772 H 4265.12 2.33898 -6.55946 0
M  V30 44773 H 4262.74 2.2431 -7.26353 0
M  V30 44774 N 4264.32 1.16013 1.06671 0
M  V30 44775 C 4265.28 0.865723 2.12221 0
M  V30 44776 C 4266.28 -0.137593 1.6021 0
M  V30 44777 O 4267.47 0.0928523 1.73952 0
M  V30 44778 C 4264.6 0.293925 3.39631 0
M  V30 44779 H 4265.8 1.80138 2.39771 0
M  V30 44780 H 4263.35 0.968551 1.22673 0
M  V30 44781 H 4264.08 -0.6496 3.17727 0
M  V30 44782 H 4263.87 1.01683 3.78686 0
M  V30 44783 H 4265.36 0.105756 4.17466 0
M  V30 44784 N 4265.8 -1.25139 0.958014 0
M  V30 44785 C 4267.02 -1.97014 0.631922 0
M  V30 44786 C 4267.44 -1.71168 -0.796678 0
M  V30 44787 O 4266.8 -0.98971 -1.53333 0
M  V30 44788 C 4266.85 -3.50495 0.885198 0
M  V30 44789 O 4266.57 -3.7545 2.25763 0
M  V30 44790 C 4268.07 -4.39595 0.571959 0
M  V30 44791 H 4265.29 -0.627896 0.236617 0
M  V30 44792 H 4267.83 -1.59221 1.28331 0
M  V30 44793 H 4265.99 -3.86386 0.28017 0
M  V30 44794 H 4266.4 -4.6989 2.33031 0
M  V30 44795 H 4267.88 -5.46177 0.799694 0
M  V30 44796 H 4268.35 -4.36418 -0.493566 0
M  V30 44797 H 4268.96 -4.09275 1.15646 0
M  V30 44798 N 4267.27 -0.726981 -1.39831 0
M  V30 44799 C 4268.5 -0.280045 -2.05501 0
M  V30 44800 C 4268.92 1.0738 -1.54438 0
M  V30 44801 O 4268.28 1.67876 -0.684645 0
M  V30 44802 C 4268.33 -0.282565 -3.59491 0
M  V30 44803 O 4267.43 0.732474 -4.05843 0
M  V30 44804 H 4266.78 -0.128948 -0.651359 0
M  V30 44805 H 4269.31 -0.990658 -1.79017 0
M  V30 44806 H 4269.32 -0.124176 -4.07811 0
M  V30 44807 H 4267.99 -1.27048 -3.9602 0
M  V30 44808 H 4266.57 0.540878 -3.68957 0
M  V30 44809 N 4268.75 1.50303 -0.474008 0
M  V30 44810 C 4269.72 2.2713 0.307354 0
M  V30 44811 C 4270.72 1.32029 0.917878 0
M  V30 44812 O 4271.91 1.55429 0.786603 0
M  V30 44813 C 4269.04 3.0908 1.43814 0
M  V30 44814 H 4270.23 2.97653 -0.366449 0
M  V30 44815 H 4267.78 1.54626 -0.228156 0
M  V30 44816 H 4268.52 2.4306 2.14691 0
M  V30 44817 H 4268.3 3.78971 1.00613 0
M  V30 44818 H 4269.79 3.67176 1.98926 0
M  V30 44819 N 4270.23 0.20673 1.56238 0
M  V30 44820 C 4271.47 -0.430983 1.99805 0
M  V30 44821 C 4271.83 -1.57991 1.09099 0
M  V30 44822 O 4273.04 -2.28262 1.4195 0
M  V30 44823 C 4271.31 -0.868447 3.46688 0
M  V30 44824 S 4272.87 -1.50236 4.1228 0
M  V30 44825 H 4269.68 -0.137382 0.697601 0
M  V30 44826 H 4272.29 0.312534 1.92986 0
M  V30 44827 H 4270.99 -0.0223557 4.10394 0
M  V30 44828 H 4270.52 -1.64514 3.57349 0
M  V30 44829 H 4272.54 -2.79129 4.10245 0
M  V30 44830 N 4271.71 -1.57458 -0.0667882 0
M  V30 44831 C 4272.95 -1.87772 -0.766126 0
M  V30 44832 C 4273.29 -0.799675 -1.76971 0
M  V30 44833 O 4272.56 0.18952 -1.93574 0
M  V30 44834 C 4272.85 -3.28746 -1.46963 0
M  V30 44835 C 4272.7 -4.47209 -0.482117 0
M  V30 44836 C 4274.02 -3.68033 -2.41329 0
M  V30 44837 H 4271.14 -0.682942 -0.277054 0
M  V30 44838 H 4273.78 -1.89977 -0.0292417 0
M  V30 44839 H 4271.93 -3.26997 -2.09775 0
M  V30 44840 H 4273.6 -4.61084 0.141177 0
M  V30 44841 H 4271.84 -4.33329 0.202117 0
M  V30 44842 H 4272.51 -5.42643 -1.01208 0
M  V30 44843 H 4274.99 -3.70908 -1.88591 0
M  V30 44844 H 4273.87 -4.67551 -2.87554 0
M  V30 44845 H 4274.13 -2.98235 -3.26356 0
M  V30 44846 N 4273.19 0.33829 -1.53926 0
M  V30 44847 C 4274.12 1.42115 -1.85271 0
M  V30 44848 C 4275.1 1.54653 -0.708265 0
M  V30 44849 O 4276.28 1.68775 -0.96066 0
M  V30 44850 C 4273.41 2.79093 -2.06698 0
M  V30 44851 C 4272.37 2.81358 -3.22524 0
M  V30 44852 C 4271.69 4.21271 -3.29294 0
M  V30 44853 C 4272.99 2.46423 -4.60514 0
M  V30 44854 H 4274.69 1.16132 -2.75959 0
M  V30 44855 H 4272.23 0.557225 -1.32782 0
M  V30 44856 H 4274.19 3.54899 -2.2721 0
M  V30 44857 H 4272.91 3.06523 -1.12745 0
M  V30 44858 H 4271.57 2.08006 -3.01876 0
M  V30 44859 H 4271.22 4.45818 -2.32927 0
M  V30 44860 H 4270.92 4.23696 -4.0713 0
M  V30 44861 H 4272.44 4.98911 -3.52022 0
M  V30 44862 H 4273.86 3.11941 -4.81005 0
M  V30 44863 H 4272.25 2.60123 -5.40792 0
M  V30 44864 H 4273.32 1.41599 -4.63765 0
M  V30 44865 N 4274.67 1.45749 0.599583 0
M  V30 44866 C 4275.63 1.54634 1.69177 0
M  V30 44867 C 4276.63 0.425056 1.5508 0
M  V30 44868 O 4277.82 0.68881 1.60003 0
M  V30 44869 C 4274.95 1.45054 3.085 0
M  V30 44870 H 4276.14 2.51954 1.62663 0
M  V30 44871 H 4273.7 1.33309 0.815998 0
M  V30 44872 H 4274.43 0.489495 3.20585 0
M  V30 44873 H 4274.22 2.26391 3.2014 0
M  V30 44874 H 4275.71 1.54321 3.88039 0
M  V30 44875 N 4276.14 -0.84278 1.33173 0
M  V30 44876 C 4277.11 -1.93386 1.23022 0
M  V30 44877 C 4278.11 -1.60097 0.150248 0
M  V30 44878 O 4279.3 -1.6951 0.401502 0
M  V30 44879 C 4276.43 -3.28949 0.894738 0
M  V30 44880 H 4277.62 -2.03813 2.20001 0
M  V30 44881 H 4275.17 -1.0344 1.17175 0
M  V30 44882 H 4275.91 -3.24218 -0.0727204 0
M  V30 44883 H 4275.69 -3.5449 1.67569 0
M  V30 44884 H 4277.18 -4.08892 0.848356 0
M  V30 44885 N 4277.62 -1.16577 -1.06054 0
M  V30 44886 C 4278.53 -0.88895 -2.17106 0
M  V30 44887 C 4279.55 0.139692 -1.73438 0
M  V30 44888 O 4280.72 -0.0375199 -2.01365 0
M  V30 44889 C 4277.79 -0.396555 -3.44425 0
M  V30 44890 C 4276.85 -1.49072 -4.02587 0
M  V30 44891 C 4276.08 -1.02172 -5.23829 0
M  V30 44892 O 4276.31 0.127584 -5.70257 0
M  V30 44893 O 4275.24 -1.81108 -5.74006 0
M  V30 44894 H 4279.07 -1.81765 -2.433 0
M  V30 44895 H 4276.65 -0.945943 -1.15639 0
M  V30 44896 H 4278.53 -0.129057 -4.21202 0
M  V30 44897 H 4277.21 0.504107 -3.19751 0
M  V30 44898 H 4276.11 -1.81199 -3.27289 0
M  V30 44899 H 4277.45 -2.36677 -4.31561 0
M  V30 44900 N 4279.1 1.2463 -0.964637 0
M  V30 44901 C 4280.34 1.94363 -0.632656 0
M  V30 44902 C 4280.7 1.73768 0.81661 0
M  V30 44903 O 4281.9 2.3751 1.25867 0
M  V30 44904 C 4280.18 3.43314 -0.993488 0
M  V30 44905 S 4281.73 4.31891 -0.775594 0
M  V30 44906 H 4278.55 0.672015 -0.232201 0
M  V30 44907 H 4281.15 1.51066 -1.24094 0
M  V30 44908 H 4279.86 3.55808 -2.0452 0
M  V30 44909 H 4279.39 3.916 -0.375858 0
M  V30 44910 H 4281.4 4.94974 0.348606 0
M  V30 44911 N 4280.58 0.734386 1.39444 0
M  V30 44912 C 4281.81 0.292286 2.04825 0
M  V30 44913 C 4282.22 -1.07267 1.55368 0
M  V30 44914 O 4281.58 -1.67769 0.718312 0
M  V30 44915 C 4281.63 0.284363 3.6038 0
M  V30 44916 O 4281.35 1.59544 4.08016 0
M  V30 44917 C 4282.85 -0.17398 4.42958 0
M  V30 44918 H 4280.07 0.127873 0.658703 0
M  V30 44919 H 4282.61 0.997864 1.78502 0
M  V30 44920 H 4280.77 -0.372323 3.85607 0
M  V30 44921 H 4281.18 1.50858 5.02337 0
M  V30 44922 H 4282.66 -0.128365 5.51851 0
M  V30 44923 H 4283.13 -1.21906 4.21943 0
M  V30 44924 H 4283.74 0.453118 4.22879 0
M  V30 44925 N 4282.06 -1.50049 0.481972 0
M  V30 44926 C 4283.3 -2.01575 -0.0709845 0
M  V30 44927 C 4283.62 -1.36808 -1.39796 0
M  V30 44928 O 4284.82 -1.79552 -2.0365 0
M  V30 44929 C 4283.28 -3.59464 -0.177001 0
M  V30 44930 C 4282.89 -4.33195 1.14219 0
M  V30 44931 C 4284.63 -4.18996 -0.681336 0
M  V30 44932 C 4282.54 -5.82895 0.999376 0
M  V30 44933 H 4281.47 -0.753391 -0.0303029 0
M  V30 44934 H 4284.12 -1.72762 0.618518 0
M  V30 44935 H 4282.5 -3.84912 -0.93053 0
M  V30 44936 H 4283.68 -4.19464 1.90753 0
M  V30 44937 H 4281.99 -3.85322 1.57848 0
M  V30 44938 H 4284.59 -5.286 -0.805391 0
M  V30 44939 H 4284.93 -3.81097 -1.67543 0
M  V30 44940 H 4285.46 -3.97797 0.0151149 0
M  V30 44941 H 4282.2 -6.25286 1.96717 0
M  V30 44942 H 4281.72 -5.99171 0.27461 0
M  V30 44943 H 4283.4 -6.43518 0.670378 0
M  V30 44944 N 4283.53 -0.215012 -1.56126 0
M  V30 44945 C 4284.78 0.418455 -1.98129 0
M  V30 44946 C 4285.11 1.60236 -1.10248 0
M  V30 44947 O 4284.36 1.95155 -0.145959 0
M  V30 44948 C 4284.66 0.902023 -3.4583 0
M  V30 44949 C 4284.33 -0.170652 -4.50577 0
M  V30 44950 C 4282.99 -0.465342 -4.78945 0
M  V30 44951 C 4285.34 -0.896445 -5.13433 0
M  V30 44952 C 4282.67 -1.49046 -5.67452 0
M  V30 44953 C 4285.02 -1.91085 -6.0305 0
M  V30 44954 C 4283.69 -2.21253 -6.29765 0
M  V30 44955 H 4282.96 0.153123 -0.725006 0
M  V30 44956 H 4285.6 -0.31616 -1.88872 0
M  V30 44957 H 4283.91 1.71528 -3.52258 0
M  V30 44958 H 4285.61 1.4019 -3.75697 0
M  V30 44959 H 4282.2 0.0691904 -4.28544 0
M  V30 44960 H 4286.38 -0.682014 -4.91592 0
M  V30 44961 H 4281.64 -1.72988 -5.86417 0
M  V30 44962 H 4285.81 -2.47835 -6.50808 0
M  V30 44963 H 4283.44 -3.00829 -6.98145 0
M  V30 44964 N 4285.01 1.57492 0.0584368 0
M  V30 44965 C 4285.96 2.04602 1.06801 0
M  V30 44966 C 4286.93 0.929228 1.37676 0
M  V30 44967 O 4288.11 1.19782 1.48516 0
M  V30 44968 C 4285.25 2.50595 2.37268 0
M  V30 44969 C 4284.37 3.75948 2.12808 0
M  V30 44970 C 4283.5 4.10669 3.36934 0
M  V30 44971 C 4282.54 5.29023 3.07898 0
M  V30 44972 N 4281.68 5.59318 4.24391 0
M  V30 44973 H 4286.52 2.90615 0.659301 0
M  V30 44974 H 4284.05 1.4371 0.31396 0
M  V30 44975 H 4286.01 2.75317 3.13458 0
M  V30 44976 H 4284.64 1.67541 2.75916 0
M  V30 44977 H 4283.69 3.58486 1.27248 0
M  V30 44978 H 4285.01 4.62271 1.87369 0
M  V30 44979 H 4284.16 4.36363 4.21512 0
M  V30 44980 H 4282.9 3.22939 3.65461 0
M  V30 44981 H 4281.9 5.03112 2.21718 0
M  V30 44982 H 4283.13 6.18381 2.8068 0
M  V30 44983 H 4281.08 4.74548 4.52924 0
M  V30 44984 H 4280.99 6.40088 4.02273 0
M  V30 44985 H 4282.26 5.89571 5.09927 0
M  V30 44986 N 4286.49 -0.330122 1.54104 0
M  V30 44987 C 4287.77 -1.08667 1.62637 0
M  V30 44988 C 4288.15 -2.06114 0.456077 0
M  V30 44989 O 4287.49 -2.21774 -0.550328 0
M  V30 44990 C 4287.7 -1.79443 2.99335 0
M  V30 44991 C 4289.05 -2.32702 3.55155 0
M  V30 44992 O 4290.08 -1.8952 3.01597 0
M  V30 44993 O 4288.94 -3.11741 4.48865 0
M  V30 44994 H 4286.03 -0.50051 0.658346 0
M  V30 44995 H 4288.58 -0.330539 1.6645 0
M  V30 44996 H 4287.35 -1.08526 3.75949 0
M  V30 44997 H 4286.97 -2.61882 2.99172 0
M  V30 44998 N 4287.97 -1.46065 -0.591845 0
M  V30 44999 C 4288.93 -1.55529 -1.68354 0
M  V30 45000 C 4289.93 -0.433275 -1.54853 0
M  V30 45001 O 4291.12 -0.697286 -1.59636 0
M  V30 45002 C 4288.25 -1.46688 -3.07726 0
M  V30 45003 H 4289.45 -2.52813 -1.61324 0
M  V30 45004 H 4287 -1.33739 -0.808917 0
M  V30 45005 H 4287.73 -0.506489 -3.2032 0
M  V30 45006 H 4287.52 -2.28086 -3.18935 0
M  V30 45007 H 4289.01 -1.56377 -3.87216 0
M  V30 45008 N 4289.45 0.835705 -1.33618 0
M  V30 45009 C 4290.38 1.95036 -1.18474 0
M  V30 45010 C 4291.36 1.62406 -0.0794433 0
M  V30 45011 O 4292.54 1.86937 -0.242262 0
M  V30 45012 C 4289.67 3.28678 -0.81785 0
M  V30 45013 C 4288.71 3.80278 -1.93109 0
M  V30 45014 S 4289.55 4.01574 -3.54258 0
M  V30 45015 C 4290.7 5.38162 -3.19582 0
M  V30 45016 H 4290.94 2.07583 -2.1283 0
M  V30 45017 H 4288.47 0.989844 -1.18497 0
M  V30 45018 H 4290.43 4.05898 -0.612947 0
M  V30 45019 H 4289.09 3.13917 0.107158 0
M  V30 45020 H 4288.28 4.76988 -1.62782 0
M  V30 45021 H 4287.88 3.09963 -2.09282 0
M  V30 45022 H 4290.18 6.21112 -2.70603 0
M  V30 45023 H 4291.12 5.73464 -4.15385 0
M  V30 45024 H 4291.53 5.03066 -2.56096 0
M  V30 45025 N 4290.92 1.17138 1.05434 0
M  V30 45026 C 4292.17 0.956363 1.7804 0
M  V30 45027 C 4292.49 -0.516491 1.88036 0
M  V30 45028 O 4291.76 -1.37503 1.39534 0
M  V30 45029 H 4290.34 0.350855 0.659477 0
M  V30 45030 H 4293.01 1.47568 1.27317 0
M  V30 45031 H 4292.1 1.38258 2.79806 0
M  V30 45032 N 4292.4 -1.24116 0.971232 0
M  V30 45033 C 4293.35 -2.25238 0.503652 0
M  V30 45034 C 4294.32 -1.59813 -0.452653 0
M  V30 45035 O 4295.5 -1.8733 -0.362235 0
M  V30 45036 C 4292.64 -3.44539 -0.196634 0
M  V30 45037 C 4291.76 -4.2455 0.798853 0
M  V30 45038 C 4290.89 -5.31148 0.0743137 0
M  V30 45039 C 4289.93 -6.02858 1.05963 0
M  V30 45040 N 4289.07 -7.01151 0.364859 0
M  V30 45041 H 4293.91 -2.64601 1.37079 0
M  V30 45042 H 4291.45 -1.30068 0.687081 0
M  V30 45043 H 4293.4 -4.12577 -0.619371 0
M  V30 45044 H 4292.03 -3.06004 -1.0277 0
M  V30 45045 H 4291.09 -3.56016 1.34002 0
M  V30 45046 H 4292.4 -4.74104 1.55006 0
M  V30 45047 H 4291.55 -6.05338 -0.406244 0
M  V30 45048 H 4290.29 -4.82511 -0.709562 0
M  V30 45049 H 4289.3 -5.27469 1.55103 0
M  V30 45050 H 4290.52 -6.53585 1.84401 0
M  V30 45051 H 4288.47 -6.5478 -0.399976 0
M  V30 45052 H 4288.38 -7.48604 1.05487 0
M  V30 45053 H 4289.65 -7.79444 -0.0936138 0
M  V30 45054 N 4293.88 -0.741771 -1.39052 0
M  V30 45055 C 4295.29 -0.361847 -1.8316 0
M  V30 45056 C 4295.64 1.10775 -1.61936 0
M  V30 45057 O 4294.77 1.85514 -1.11415 0
M  V30 45058 C 4295.36 -0.649987 -3.32507 0
M  V30 45059 C 4293.92 -0.32348 -3.75007 0
M  V30 45060 C 4293.07 -0.90918 -2.61972 0
M  V30 45061 H 4296.02 -0.938875 -1.27949 0
M  V30 45062 H 4296.04 0.0759178 -3.80424 0
M  V30 45063 H 4295.55 -1.71965 -3.47922 0
M  V30 45064 H 4293.65 0.740072 -3.65176 0
M  V30 45065 H 4293.77 -0.810773 -4.7219 0
M  V30 45066 H 4292.13 -0.335346 -2.52483 0
M  V30 45067 H 4292.91 -1.98363 -2.80191 0
M  V30 45068 N 4295.36 1.49792 -0.489923 0
M  V30 45069 C 4296.6 2.02715 0.0585952 0
M  V30 45070 C 4296.94 1.36977 1.37663 0
M  V30 45071 O 4296.21 0.501712 1.87918 0
M  V30 45072 C 4296.5 3.5941 0.222749 0
M  V30 45073 C 4296.35 4.35694 -1.11763 0
M  V30 45074 C 4297.67 4.29309 0.968575 0
M  V30 45075 H 4294.79 0.736733 0.0198208 0
M  V30 45076 H 4297.43 1.78926 -0.63918 0
M  V30 45077 H 4295.58 3.79811 0.817074 0
M  V30 45078 H 4297.25 4.26818 -1.74998 0
M  V30 45079 H 4295.49 3.98689 -1.70966 0
M  V30 45080 H 4296.16 5.43655 -0.9562 0
M  V30 45081 H 4298.64 4.13498 0.464633 0
M  V30 45082 H 4297.52 5.3872 1.05226 0
M  V30 45083 H 4297.78 3.93782 2.00968 0
M  V30 45084 N 4296.84 0.223289 1.5601 0
M  V30 45085 C 4298.25 -0.284244 1.84524 0
M  V30 45086 C 4298.6 -1.59345 1.14471 0
M  V30 45087 O 4297.72 -2.12384 0.41497 0
M  V30 45088 C 4298.32 -0.522507 3.34747 0
M  V30 45089 C 4296.88 -0.974345 3.6357 0
M  V30 45090 C 4296.02 -0.0383793 2.77273 0
M  V30 45091 H 4298.98 0.446439 1.52291 0
M  V30 45092 H 4299 -1.36828 3.55047 0
M  V30 45093 H 4298.51 0.430521 3.85705 0
M  V30 45094 H 4296.61 -1.94067 3.1807 0
M  V30 45095 H 4296.72 -0.847551 4.71544 0
M  V30 45096 H 4295.09 -0.545488 2.4879 0
M  V30 45097 H 4295.87 0.909597 3.31031 0
M  V30 45098 N 4298.31 -1.5752 -0.0500839 0
M  V30 45099 C 4299.54 -1.92259 -0.756305 0
M  V30 45100 C 4299.95 -0.819566 -1.70528 0
M  V30 45101 O 4299.3 0.214417 -1.82444 0
M  V30 45102 C 4299.36 -3.22642 -1.58563 0
M  V30 45103 C 4299.02 -4.49877 -0.803703 0
M  V30 45104 C 4300.02 -5.19777 -0.113248 0
M  V30 45105 C 4297.7 -4.96449 -0.764454 0
M  V30 45106 C 4299.7 -6.34513 0.605987 0
M  V30 45107 C 4297.38 -6.11086 -0.0414595 0
M  V30 45108 C 4298.38 -6.79971 0.642541 0
M  V30 45109 O 4298.07 -7.92418 1.35384 0
M  V30 45110 H 4297.8 -0.639572 -0.218915 0
M  V30 45111 H 4300.36 -2.05392 -0.018043 0
M  V30 45112 H 4298.59 -3.05778 -2.36721 0
M  V30 45113 H 4300.28 -3.42865 -2.17251 0
M  V30 45114 H 4301.04 -4.84813 -0.134737 0
M  V30 45115 H 4296.92 -4.4269 -1.28633 0
M  V30 45116 H 4300.46 -6.88215 1.14043 0
M  V30 45117 H 4296.36 -6.45497 -0.0179736 0
M  V30 45118 H 4297.13 -8.0866 1.26534 0
M  V30 45119 N 4299.79 0.321945 -1.54277 0
M  V30 45120 C 4301.03 1.0679 -1.74285 0
M  V30 45121 C 4301.4 1.85193 -0.506697 0
M  V30 45122 O 4302.6 2.62376 -0.584157 0
M  V30 45123 C 4300.87 1.96679 -2.98416 0
M  V30 45124 S 4302.43 2.78204 -3.39335 0
M  V30 45125 H 4299.25 0.360494 -0.612834 0
M  V30 45126 H 4301.85 0.343708 -1.92455 0
M  V30 45127 H 4300.55 1.37918 -3.86532 0
M  V30 45128 H 4300.08 2.735 -2.82774 0
M  V30 45129 H 4302.1 3.99162 -2.94761 0
M  V30 45130 N 4301.27 1.46377 0.58409 0
M  V30 45131 C 4302.5 1.54959 1.36643 0
M  V30 45132 C 4302.91 0.189119 1.88252 0
M  V30 45133 O 4302.25 -0.823548 1.64205 0
M  V30 45134 C 4302.31 2.49259 2.59057 0
M  V30 45135 C 4301.98 3.95528 2.28925 0
M  V30 45136 C 4302.97 4.84779 1.87845 0
M  V30 45137 C 4300.66 4.40648 2.41112 0
M  V30 45138 C 4302.65 6.17161 1.59345 0
M  V30 45139 C 4300.34 5.73065 2.12224 0
M  V30 45140 C 4301.34 6.61142 1.71406 0
M  V30 45141 O 4301.03 7.91102 1.42871 0
M  V30 45142 H 4300.76 0.526627 0.423839 0
M  V30 45143 H 4303.31 1.92473 0.717169 0
M  V30 45144 H 4301.54 2.06759 3.26784 0
M  V30 45145 H 4303.23 2.48262 3.21124 0
M  V30 45146 H 4304 4.51177 1.77945 0
M  V30 45147 H 4299.88 3.72318 2.71846 0
M  V30 45148 H 4303.42 6.85866 1.2741 0
M  V30 45149 H 4299.32 6.06216 2.21748 0
M  V30 45150 H 4300.09 8.03355 1.56728 0
M  V30 45151 N 4302.75 -0.828607 1.34059 0
M  V30 45152 C 4304.03 -1.56986 1.16683 0
M  V30 45153 C 4304.41 -2.09458 -0.26281 0
M  V30 45154 O 4303.75 -1.904 -1.26334 0
M  V30 45155 C 4303.96 -2.69569 2.21661 0
M  V30 45156 C 4305.31 -3.38484 2.56347 0
M  V30 45157 O 4306.34 -2.7982 2.20407 0
M  V30 45158 O 4305.2 -4.44409 3.18061 0
M  V30 45159 H 4302.29 -0.692578 0.451957 0
M  V30 45160 H 4304.84 -0.870473 1.45674 0
M  V30 45161 H 4303.61 -2.28509 3.17647 0
M  V30 45162 H 4303.23 -3.47162 1.93815 0
M  V30 45163 N 4304.23 -1.17696 -1.04812 0
M  V30 45164 C 4305.46 -0.992362 -1.81548 0
M  V30 45165 C 4305.87 0.459343 -1.83127 0
M  V30 45166 O 4305.23 1.31901 -1.26129 0
M  V30 45167 C 4305.28 -1.53073 -3.27492 0
M  V30 45168 O 4305 -2.92559 -3.26099 0
M  V30 45169 C 4306.5 -1.39126 -4.20902 0
M  V30 45170 H 4303.72 -0.350859 -0.571961 0
M  V30 45171 H 4306.26 -1.56073 -1.32142 0
M  V30 45172 H 4304.42 -1.0043 -3.74156 0
M  V30 45173 H 4304.83 -3.17519 -4.17471 0
M  V30 45174 H 4306.31 -1.81604 -5.21271 0
M  V30 45175 H 4306.78 -0.338889 -4.37891 0
M  V30 45176 H 4307.39 -1.90804 -3.80097 0
M  V30 45177 N 4305.71 1.23599 -0.977801 0
M  V30 45178 C 4306.65 2.26979 -0.508268 0
M  V30 45179 C 4307.65 1.63763 0.433377 0
M  V30 45180 O 4308.85 1.77353 0.307555 0
M  V30 45181 H 4305.23 0.737705 -0.145929 0
M  V30 45182 H 4307.2 2.63946 -1.39194 0
M  V30 45183 C 4305.95 3.47253 0.176231 0
M  V30 45184 H 4305.27 3.96147 -0.539255 0
M  V30 45185 H 4306.71 4.21404 0.468437 0
M  V30 45186 C 4305.17 3.06131 1.4066 0
M  V30 45187 O 4305.7 3.14185 2.50301 0
M  V30 45188 N 4303.91 2.61072 1.27631 0
M  V30 45189 H 4303.45 2.54719 0.384205 0
M  V30 45190 H 4303.41 2.33925 2.10063 0
M  V30 45191 N 4307.18 0.749135 1.38657 0
M  V30 45192 C 4308.11 0.133838 2.33116 0
M  V30 45193 C 4309.09 -0.708556 1.5464 0
M  V30 45194 O 4310.28 -0.650652 1.82976 0
M  V30 45195 C 4307.41 -0.763503 3.38804 0
M  V30 45196 C 4306.36 -0.0241826 4.27993 0
M  V30 45197 C 4305.69 -1.03948 5.24499 0
M  V30 45198 C 4306.99 1.1416 5.09671 0
M  V30 45199 H 4308.68 0.922892 2.84821 0
M  V30 45200 H 4306.23 0.445245 1.36944 0
M  V30 45201 H 4308.18 -1.20359 4.03846 0
M  V30 45202 H 4306.91 -1.58483 2.85571 0
M  V30 45203 H 4305.57 0.396434 3.6445 0
M  V30 45204 H 4305.21 -1.85475 4.67555 0
M  V30 45205 H 4304.91 -0.549484 5.85025 0
M  V30 45206 H 4306.44 -1.47898 5.92418 0
M  V30 45207 H 4307.85 0.779274 5.67979 0
M  V30 45208 H 4306.25 1.56216 5.79411 0
M  V30 45209 H 4307.32 1.95662 4.43671 0
M  V30 45210 N 4308.66 -1.4953 0.49786 0
M  V30 45211 C 4309.59 -2.31915 -0.27163 0
M  V30 45212 C 4310.57 -1.40044 -0.965496 0
M  V30 45213 O 4311.76 -1.68954 -0.957506 0
M  V30 45214 C 4308.89 -3.20477 -1.33834 0
M  V30 45215 C 4307.84 -4.21116 -0.764536 0
M  V30 45216 C 4307.17 -4.98594 -1.93153 0
M  V30 45217 C 4308.47 -5.21738 0.242292 0
M  V30 45218 H 4310.16 -2.96495 0.416031 0
M  V30 45219 H 4307.71 -1.42583 0.201521 0
M  V30 45220 H 4309.66 -3.76922 -1.88436 0
M  V30 45221 H 4308.38 -2.53833 -2.05515 0
M  V30 45222 H 4307.04 -3.65812 -0.240295 0
M  V30 45223 H 4306.69 -4.284 -2.63595 0
M  V30 45224 H 4306.39 -5.66687 -1.55368 0
M  V30 45225 H 4307.92 -5.57882 -2.48194 0
M  V30 45226 H 4309.33 -5.72895 -0.215475 0
M  V30 45227 H 4307.73 -5.97703 0.535812 0
M  V30 45228 H 4308.8 -4.70839 1.15924 0
M  V30 45229 N 4310.14 -0.23156 -1.5589 0
M  V30 45230 C 4311.05 0.685526 -2.24361 0
M  V30 45231 C 4312.07 1.20569 -1.25456 0
M  V30 45232 O 4313.24 1.24519 -1.58294 0
M  V30 45233 C 4310.31 1.87247 -2.91786 0
M  V30 45234 C 4309.37 1.3933 -4.06061 0
M  V30 45235 C 4308.6 2.52367 -4.70262 0
M  V30 45236 O 4308.82 3.7074 -4.33484 0
M  V30 45237 O 4307.76 2.22998 -5.59066 0
M  V30 45238 H 4311.58 0.132182 -3.03412 0
M  V30 45239 H 4309.17 -0.000690958 -1.494 0
M  V30 45240 H 4311.05 2.56545 -3.34309 0
M  V30 45241 H 4309.73 2.41373 -2.15687 0
M  V30 45242 H 4308.63 0.668047 -3.68087 0
M  V30 45243 H 4309.97 0.898308 -4.83933 0
M  V30 45244 N 4311.62 1.57545 0.0417295 0
M  V30 45245 C 4312.87 1.88315 0.733615 0
M  V30 45246 C 4313.19 0.827608 1.76566 0
M  V30 45247 O 4312.46 -0.14031 1.95397 0
M  V30 45248 H 4311.04 0.694957 0.27394 0
M  V30 45249 H 4313.7 1.94897 0.0106828 0
M  V30 45250 H 4312.79 2.86793 1.23111 0
M  V30 45251 N 4313.1 -0.313759 1.54445 0
M  V30 45252 C 4314.32 -1.07418 1.77415 0
M  V30 45253 C 4314.75 -1.80598 0.525917 0
M  V30 45254 O 4314.1 -1.73593 -0.522996 0
M  V30 45255 C 4314.15 -2.04034 2.97326 0
M  V30 45256 O 4313.26 -3.1211 2.69557 0
M  V30 45257 H 4312.6 -0.309224 0.587602 0
M  V30 45258 H 4315.13 -0.355066 2.01496 0
M  V30 45259 H 4315.14 -2.46729 3.24944 0
M  V30 45260 H 4313.81 -1.50173 3.87841 0
M  V30 45261 H 4312.39 -2.7402 2.52917 0
M  V30 45262 N 4314.57 -1.46684 -0.576319 0
M  V30 45263 C 4315.82 -1.5159 -1.33054 0
M  V30 45264 C 4316.14 -0.174688 -1.94818 0
M  V30 45265 O 4317.34 -0.101593 -2.7131 0
M  V30 45266 C 4315.8 -2.67137 -2.41176 0
M  V30 45267 C 4315.41 -4.07707 -1.85686 0
M  V30 45268 C 4317.15 -2.81319 -3.17899 0
M  V30 45269 C 4315.06 -5.14584 -2.91475 0
M  V30 45270 H 4313.99 -0.564184 -0.500212 0
M  V30 45271 H 4316.64 -1.72912 -0.614316 0
M  V30 45272 H 4315.02 -2.39158 -3.15626 0
M  V30 45273 H 4316.19 -4.45505 -1.17736 0
M  V30 45274 H 4314.51 -3.98246 -1.21609 0
M  V30 45275 H 4317.11 -3.58336 -3.96862 0
M  V30 45276 H 4317.45 -1.89066 -3.7089 0
M  V30 45277 H 4317.98 -3.08976 -2.50557 0
M  V30 45278 H 4314.72 -6.0865 -2.43363 0
M  V30 45279 H 4314.24 -4.81323 -3.57894 0
M  V30 45280 H 4315.92 -5.40706 -3.55312 0
M  V30 45281 N 4316.05 0.821486 -1.34497 0
M  V30 45282 C 4317.28 1.61466 -1.30167 0
M  V30 45283 C 4317.7 1.87709 0.12127 0
M  V30 45284 O 4317.06 1.45364 1.08347 0
M  V30 45285 C 4317.11 2.93173 -2.09957 0
M  V30 45286 O 4316.21 3.85309 -1.47007 0
M  V30 45287 H 4315.55 0.491021 -0.446983 0
M  V30 45288 H 4318.08 1.02072 -1.7732 0
M  V30 45289 H 4318.09 3.42726 -2.21365 0
M  V30 45290 H 4316.77 2.73397 -3.13412 0
M  V30 45291 H 4315.34 3.43828 -1.4435 0
M  V30 45292 N 4317.53 1.1825 1.04186 0
M  V30 45293 C 4318.76 1.00052 1.80757 0
M  V30 45294 C 4319.17 -0.454252 1.83666 0
M  V30 45295 O 4318.51 -1.32729 1.26998 0
M  V30 45296 C 4318.57 1.47751 3.27734 0
M  V30 45297 C 4318.24 2.95643 3.48488 0
M  V30 45298 C 4319.23 3.93507 3.39777 0
M  V30 45299 C 4316.92 3.34047 3.75124 0
M  V30 45300 C 4318.91 5.2777 3.57403 0
M  V30 45301 C 4316.6 4.68474 3.92397 0
M  V30 45302 C 4317.6 5.65144 3.83538 0
M  V30 45303 O 4317.29 6.97138 4.00318 0
M  V30 45304 H 4317.02 0.353648 0.576116 0
M  V30 45305 H 4319.57 1.57197 1.32205 0
M  V30 45306 H 4317.8 0.849706 3.77249 0
M  V30 45307 H 4319.49 1.25963 3.8586 0
M  V30 45308 H 4320.26 3.65183 3.19165 0
M  V30 45309 H 4316.14 2.59364 3.81119 0
M  V30 45310 H 4319.68 6.0321 3.50404 0
M  V30 45311 H 4315.58 4.96499 4.12503 0
M  V30 45312 H 4316.35 7.04023 4.17485 0
M  V30 45313 N 4319.01 -1.23079 0.984342 0
M  V30 45314 C 4320.23 -1.96169 0.673236 0
M  V30 45315 C 4320.66 -1.7233 -0.753928 0
M  V30 45316 O 4320.02 -0.997194 -1.51412 0
M  V30 45317 C 4320.06 -3.47188 0.974327 0
M  V30 45318 O 4319.17 -4.12343 0.068442 0
M  V30 45319 H 4318.51 -0.613989 0.252812 0
M  V30 45320 H 4321.04 -1.56408 1.319 0
M  V30 45321 H 4321.05 -3.97662 0.912647 0
M  V30 45322 H 4319.72 -3.63865 2.01433 0
M  V30 45323 H 4318.3 -3.72441 0.184871 0
M  V30 45324 N 4320.49 -0.756478 -1.38258 0
M  V30 45325 C 4321.4 -0.132837 -2.34224 0
M  V30 45326 C 4322.41 0.697323 -1.59416 0
M  V30 45327 O 4323.59 0.620804 -1.91593 0
M  V30 45328 C 4320.65 0.747623 -3.38543 0
M  V30 45329 C 4319.71 -0.0972415 -4.2919 0
M  V30 45330 C 4318.95 0.74129 -5.28527 0
M  V30 45331 O 4319.17 1.97916 -5.34963 0
M  V30 45332 O 4318.1 0.158564 -6.01691 0
M  V30 45333 H 4321.93 -0.92546 -2.89256 0
M  V30 45334 H 4319.52 -0.517413 -1.40154 0
M  V30 45335 H 4321.4 1.25074 -4.02411 0
M  V30 45336 H 4320.07 1.51869 -2.85863 0
M  V30 45337 H 4318.98 -0.646376 -3.68474 0
M  V30 45338 H 4320.31 -0.831033 -4.85134 0
M  V30 45339 N 4321.96 1.49264 -0.505783 0
M  V30 45340 C 4322.89 2.32055 0.259327 0
M  V30 45341 C 4323.88 1.40554 0.958056 0
M  V30 45342 O 4325.06 1.69459 0.948533 0
M  V30 45343 C 4322.19 3.21183 1.32133 0
M  V30 45344 C 4321.14 4.21516 0.742193 0
M  V30 45345 C 4320.47 4.99611 1.90506 0
M  V30 45346 C 4321.77 5.21602 -0.269958 0
M  V30 45347 H 4323.46 2.96271 -0.431749 0
M  V30 45348 H 4321.01 1.42474 -0.20908 0
M  V30 45349 H 4322.96 3.77916 1.86434 0
M  V30 45350 H 4321.69 2.5492 2.04166 0
M  V30 45351 H 4320.35 3.65934 0.220891 0
M  V30 45352 H 4319.99 4.29792 2.61319 0
M  V30 45353 H 4319.69 5.67503 1.52361 0
M  V30 45354 H 4321.22 5.5919 2.45232 0
M  V30 45355 H 4322.63 5.73001 0.18509 0
M  V30 45356 H 4321.03 5.97411 -0.567502 0
M  V30 45357 H 4322.1 4.70218 -1.1842 0
M  V30 45358 N 4323.44 0.239823 1.55765 0
M  V30 45359 C 4324.86 -0.115186 1.59184 0
M  V30 45360 C 4325.06 -1.57493 1.2569 0
M  V30 45361 O 4324.11 -2.31818 1.00084 0
M  V30 45362 C 4325.43 0.22761 2.99837 0
M  V30 45363 C 4326.98 0.171331 3.12531 0
M  V30 45364 C 4327.45 0.488059 4.55392 0
M  V30 45365 N 4328.94 0.438298 4.61122 0
M  V30 45366 C 4329.68 0.656623 5.69628 0
M  V30 45367 N 4329.17 0.937698 6.86425 0
M  V30 45368 N 4330.97 0.587812 5.59018 0
M  V30 45369 H 4323.12 1.19187 1.75808 0
M  V30 45370 H 4325.38 0.479054 0.818053 0
M  V30 45371 H 4325.09 1.24147 3.2906 0
M  V30 45372 H 4324.96 -0.448687 3.74522 0
M  V30 45373 H 4327.35 -0.83319 2.83094 0
M  V30 45374 H 4327.43 0.881374 2.40136 0
M  V30 45375 H 4327.07 1.4901 4.8555 0
M  V30 45376 H 4327 -0.243383 5.26037 0
M  V30 45377 H 4329.49 0.229492 3.77203 0
M  V30 45378 H 4329.81 1.0919 7.65047 0
M  V30 45379 H 4328.15 0.975094 6.88126 0
M  V30 45380 H 4331.34 0.368321 4.66649 0
M  V30 45381 H 4331.51 0.761359 6.43512 0
M  V30 45382 N 4324.92 -1.57565 -0.0333739 0
M  V30 45383 C 4326.33 -1.77445 -0.580518 0
M  V30 45384 C 4326.68 -0.870355 -1.75839 0
M  V30 45385 O 4325.81 -0.0640849 -2.16305 0
M  V30 45386 C 4326.4 -3.21795 -1.05989 0
M  V30 45387 C 4324.96 -3.42887 -1.55259 0
M  V30 45388 C 4324.11 -2.72959 -0.488748 0
M  V30 45389 H 4327.06 -1.57524 0.192854 0
M  V30 45390 H 4327.08 -3.28071 -1.92742 0
M  V30 45391 H 4326.59 -3.87572 -0.202411 0
M  V30 45392 H 4324.69 -2.82279 -2.43206 0
M  V30 45393 H 4324.81 -4.51485 -1.60306 0
M  V30 45394 H 4323.17 -2.36608 -0.94279 0
M  V30 45395 H 4323.95 -3.41416 0.359196 0
M  V30 45396 N 4326.4 0.305564 -1.54609 0
M  V30 45397 C 4327.68 1.06066 -1.64346 0
M  V30 45398 C 4328.06 2.05363 -0.48881 0
M  V30 45399 O 4327.4 2.22621 0.514976 0
M  V30 45400 C 4327.61 1.74658 -3.02152 0
M  V30 45401 C 4328.96 2.27022 -3.58812 0
M  V30 45402 O 4329.99 1.84698 -3.04574 0
M  V30 45403 O 4328.84 3.0456 -4.53768 0
M  V30 45404 H 4325.94 0.489973 -0.666225 0
M  V30 45405 H 4328.48 0.304016 -1.66955 0
M  V30 45406 H 4327.26 1.02531 -3.77628 0
M  V30 45407 H 4326.88 2.57089 -3.033 0
M  V30 45408 N 4327.88 1.46988 0.568532 0
M  V30 45409 C 4329.1 1.56626 1.35188 0
M  V30 45410 C 4329.52 0.212386 1.87602 0
M  V30 45411 O 4328.88 -0.792611 1.6439 0
M  V30 45412 C 4328.93 2.58247 2.52964 0
M  V30 45413 O 4328.65 3.88377 2.02719 0
M  V30 45414 C 4330.15 2.77961 3.4533 0
M  V30 45415 H 4327.37 0.529234 0.412495 0
M  V30 45416 H 4329.91 1.92514 0.689813 0
M  V30 45417 H 4328.07 2.25323 3.15132 0
M  V30 45418 H 4328.48 4.43809 2.79524 0
M  V30 45419 H 4329.96 3.52954 4.24414 0
M  V30 45420 H 4330.43 1.85375 3.98162 0
M  V30 45421 H 4331.04 3.12037 2.88986 0
M  V30 45422 N 4329.35 -0.814342 1.3493 0
M  V30 45423 C 4330.77 -1.10875 1.148 0
M  V30 45424 C 4330.97 -2.0145 -0.0447547 0
M  V30 45425 O 4330.03 -2.42085 -0.717704 0
M  V30 45426 C 4331.34 -1.74719 2.44732 0
M  V30 45427 C 4332.89 -1.87175 2.50867 0
M  V30 45428 C 4333.36 -2.54436 3.80823 0
M  V30 45429 N 4334.85 -2.61928 3.82031 0
M  V30 45430 C 4335.59 -3.14721 4.7931 0
M  V30 45431 N 4335.08 -3.68011 5.86975 0
M  V30 45432 N 4336.88 -3.13202 4.66756 0
M  V30 45433 H 4329.03 -0.212065 2.11339 0
M  V30 45434 H 4331.29 -0.156655 0.934967 0
M  V30 45435 H 4331 -1.15631 3.32148 0
M  V30 45436 H 4330.87 -2.745 2.58707 0
M  V30 45437 H 4333.26 -2.4541 1.63885 0
M  V30 45438 H 4333.34 -0.862721 2.40813 0
M  V30 45439 H 4332.98 -1.96854 4.682 0
M  V30 45440 H 4332.91 -3.55861 3.88163 0
M  V30 45441 H 4335.4 -2.24165 3.04235 0
M  V30 45442 H 4335.72 -4.06571 6.57206 0
M  V30 45443 H 4334.06 -3.66231 5.90678 0
M  V30 45444 H 4337.25 -2.70842 3.81788 0
M  V30 45445 H 4337.43 -3.5404 5.42734 0
M  V30 45446 N 4330.83 -1.18801 -1.03557 0
M  V30 45447 C 4332.06 -1.0101 -1.80224 0
M  V30 45448 C 4332.47 0.444505 -1.83904 0
M  V30 45449 O 4331.81 1.32054 -1.27701 0
M  V30 45450 C 4331.88 -1.49487 -3.26946 0
M  V30 45451 C 4331.54 -2.97487 -3.46916 0
M  V30 45452 C 4332.54 -3.95303 -3.37685 0
M  V30 45453 C 4330.22 -3.36032 -3.73347 0
M  V30 45454 C 4332.22 -5.29658 -3.54599 0
M  V30 45455 C 4329.9 -4.70548 -3.89907 0
M  V30 45456 C 4330.9 -5.6717 -3.80535 0
M  V30 45457 O 4330.59 -6.99251 -3.96615 0
M  V30 45458 H 4330.32 -0.356698 -0.574232 0
M  V30 45459 H 4332.87 -1.57896 -1.3137 0
M  V30 45460 H 4331.1 -0.869701 -3.76793 0
M  V30 45461 H 4332.79 -1.28008 -3.85187 0
M  V30 45462 H 4333.56 -3.6687 -3.17224 0
M  V30 45463 H 4329.44 -2.61381 -3.79738 0
M  V30 45464 H 4332.98 -6.0506 -3.472 0
M  V30 45465 H 4328.88 -4.9868 -4.09865 0
M  V30 45466 H 4329.65 -7.06227 -4.13746 0
M  V30 45467 N 4332.31 1.22555 -0.990855 0
M  V30 45468 C 4333.56 1.91533 -0.666552 0
M  V30 45469 C 4333.89 1.76996 0.799134 0
M  V30 45470 O 4333.17 1.13754 1.57767 0
M  V30 45471 C 4333.45 3.43814 -1.0707 0
M  V30 45472 C 4333.3 3.67411 -2.59479 0
M  V30 45473 C 4334.62 4.35677 -0.622408 0
M  V30 45474 H 4331.74 0.695569 -0.243625 0
M  V30 45475 H 4334.38 1.44472 -1.23401 0
M  V30 45476 H 4332.53 3.84027 -0.587865 0
M  V30 45477 H 4334.2 3.36615 -3.15417 0
M  V30 45478 H 4332.45 3.11762 -3.01641 0
M  V30 45479 H 4333.12 4.7405 -2.82808 0
M  V30 45480 H 4335.59 4.02968 -1.03711 0
M  V30 45481 H 4334.47 5.40904 -0.933511 0
M  V30 45482 H 4334.73 4.39519 0.47698 0
M  V30 45483 N 4333.79 0.763799 1.37855 0
M  V30 45484 C 4334.72 0.158556 2.32961 0
M  V30 45485 C 4335.7 -0.692115 1.55383 0
M  V30 45486 O 4336.89 -0.631209 1.83656 0
M  V30 45487 C 4334.02 -0.727526 3.39594 0
M  V30 45488 C 4332.97 0.0212132 4.27995 0
M  V30 45489 C 4332.3 -0.983791 5.25572 0
M  V30 45490 C 4333.6 1.19559 5.08432 0
M  V30 45491 H 4335.29 0.953049 2.83826 0
M  V30 45492 H 4332.84 0.459745 1.36464 0
M  V30 45493 H 4334.79 -1.16069 4.051 0
M  V30 45494 H 4333.51 -1.55445 2.87236 0
M  V30 45495 H 4332.17 0.435066 3.64009 0
M  V30 45496 H 4331.82 -1.80505 4.69496 0
M  V30 45497 H 4331.52 -0.487404 5.85575 0
M  V30 45498 H 4333.04 -1.41606 5.93953 0
M  V30 45499 H 4334.46 0.839472 5.67121 0
M  V30 45500 H 4332.85 1.62352 5.77721 0
M  V30 45501 H 4333.92 2.00357 4.41571 0
M  V30 45502 N 4335.27 -1.48993 0.513692 0
M  V30 45503 C 4336.2 -2.26155 -0.304845 0
M  V30 45504 C 4337.18 -1.31291 -0.959246 0
M  V30 45505 O 4338.36 -1.60604 -0.986852 0
M  V30 45506 C 4335.49 -3.07016 -1.43035 0
M  V30 45507 C 4334.54 -4.17131 -0.889029 0
M  V30 45508 S 4335.37 -5.35005 0.230262 0
M  V30 45509 C 4336.52 -6.19423 -0.898106 0
M  V30 45510 H 4336.76 -2.95232 0.350038 0
M  V30 45511 H 4334.29 -1.51473 0.299195 0
M  V30 45512 H 4336.25 -3.54185 -2.07517 0
M  V30 45513 H 4334.91 -2.37383 -2.05689 0
M  V30 45514 H 4334.1 -4.73273 -1.73288 0
M  V30 45515 H 4333.7 -3.72618 -0.321196 0
M  V30 45516 H 4336 -6.53137 -1.80049 0
M  V30 45517 H 4336.94 -7.07106 -0.375028 0
M  V30 45518 H 4337.35 -5.52217 -1.17116 0
M  V30 45519 N 4336.75 -0.248081 -1.55635 0
M  V30 45520 C 4338.02 0.426725 -1.90888 0
M  V30 45521 C 4338.4 1.75779 -1.16897 0
M  V30 45522 O 4337.75 2.26692 -0.286844 0
M  V30 45523 C 4337.96 0.593648 -3.43914 0
M  V30 45524 C 4339.31 0.888986 -4.15189 0
M  V30 45525 O 4340.33 0.679468 -3.49659 0
M  V30 45526 O 4339.19 1.28806 -5.31104 0
M  V30 45527 H 4336.29 0.229286 -0.79458 0
M  V30 45528 H 4338.83 -0.292234 -1.67165 0
M  V30 45529 H 4337.6 -0.344169 -3.89783 0
M  V30 45530 H 4337.23 1.3631 -3.73504 0
M  V30 45531 N 4338.22 1.5758 0.0250174 0
M  V30 45532 C 4339.47 1.89082 0.7136 0
M  V30 45533 C 4339.79 0.846289 1.75679 0
M  V30 45534 O 4339.06 -0.119578 1.95535 0
M  V30 45535 H 4337.64 0.697824 0.266554 0
M  V30 45536 H 4340.3 1.94897 -0.00998927 0
M  V30 45537 H 4339.4 2.88082 1.20063 0
M  V30 45538 N 4339.7 -0.29736 1.54769 0
M  V30 45539 C 4340.93 -1.0553 1.78545 0
M  V30 45540 C 4341.35 -1.8003 0.545042 0
M  V30 45541 O 4340.71 -1.74138 -0.504555 0
M  V30 45542 C 4340.76 -2.00869 2.99473 0
M  V30 45543 O 4339.86 -3.09233 2.72852 0
M  V30 45544 H 4339.2 -0.302975 0.590849 0
M  V30 45545 H 4341.73 -0.333675 2.01861 0
M  V30 45546 H 4341.74 -2.43269 3.27543 0
M  V30 45547 H 4340.42 -1.46051 3.89412 0
M  V30 45548 H 4338.99 -2.71322 2.5581 0
M  V30 45549 N 4341.18 -1.47287 -0.560729 0
M  V30 45550 C 4342.43 -1.52993 -1.31438 0
M  V30 45551 C 4342.74 -0.195341 -1.94622 0
M  V30 45552 O 4343.95 -0.130363 -2.71187 0
M  V30 45553 C 4342.4 -2.6968 -2.38329 0
M  V30 45554 C 4342.01 -4.09653 -1.81351 0
M  V30 45555 C 4343.76 -2.84675 -3.14897 0
M  V30 45556 C 4341.66 -5.17646 -2.86001 0
M  V30 45557 H 4340.59 -0.569458 -0.4942 0
M  V30 45558 H 4343.24 -1.73553 -0.595942 0
M  V30 45559 H 4341.63 -2.42492 -3.13071 0
M  V30 45560 H 4342.8 -4.46729 -1.13004 0
M  V30 45561 H 4341.11 -3.99514 -1.17378 0
M  V30 45562 H 4343.71 -3.62525 -3.93039 0
M  V30 45563 H 4344.05 -1.92989 -3.68864 0
M  V30 45564 H 4344.59 -3.11616 -2.47266 0
M  V30 45565 H 4341.33 -6.11197 -2.36893 0
M  V30 45566 H 4340.85 -4.85092 -3.52769 0
M  V30 45567 H 4342.53 -5.44444 -3.49557 0
M  V30 45568 N 4342.66 0.807175 -1.3536 0
M  V30 45569 C 4343.91 1.55933 -1.27936 0
M  V30 45570 C 4344.22 1.95066 0.144435 0
M  V30 45571 O 4345.43 2.69351 0.340941 0
M  V30 45572 C 4343.88 2.81405 -2.24364 0
M  V30 45573 C 4343.49 2.49512 -3.72085 0
M  V30 45574 C 4345.23 3.59414 -2.25881 0
M  V30 45575 C 4343.14 3.71273 -4.60337 0
M  V30 45576 H 4342.07 0.585297 -0.475335 0
M  V30 45577 H 4344.72 0.887314 -1.60621 0
M  V30 45578 H 4343.1 3.50315 -1.8465 0
M  V30 45579 H 4344.28 1.88613 -4.2043 0
M  V30 45580 H 4342.59 1.8475 -3.73171 0
M  V30 45581 H 4345.19 4.49849 -2.89032 0
M  V30 45582 H 4345.53 3.96698 -1.26239 0
M  V30 45583 H 4346.07 2.97465 -2.6412 0
M  V30 45584 H 4342.8 3.39097 -5.60975 0
M  V30 45585 H 4342.32 4.31399 -4.16719 0
M  V30 45586 H 4344 4.38508 -4.75731 0
M  V30 45587 N 4344.14 1.19348 1.02926 0
M  V30 45588 C 4345.07 0.888633 2.11272 0
M  V30 45589 C 4346.08 -0.1185 1.62368 0
M  V30 45590 O 4347.27 0.110861 1.78155 0
M  V30 45591 C 4344.37 0.30847 3.37493 0
M  V30 45592 C 4343.54 1.36406 4.15586 0
M  V30 45593 C 4342.6 0.797512 5.20121 0
M  V30 45594 O 4341.63 1.47511 5.49754 0
M  V30 45595 N 4342.83 -0.399376 5.79125 0
M  V30 45596 H 4345.59 1.82124 2.38014 0
M  V30 45597 H 4343.16 1.09543 1.19214 0
M  V30 45598 H 4345.15 -0.084386 4.04612 0
M  V30 45599 H 4343.72 -0.528411 3.08102 0
M  V30 45600 H 4342.94 1.93178 3.43622 0
M  V30 45601 H 4344.23 2.07537 4.64549 0
M  V30 45602 H 4343.62 -0.967394 5.57367 0
M  V30 45603 H 4342.18 -0.734016 6.47654 0
M  V30 45604 N 4345.61 -1.22028 0.997341 0
M  V30 45605 C 4346.86 -1.90894 0.675699 0
M  V30 45606 C 4347.19 -1.77612 -0.792733 0
M  V30 45607 O 4346.44 -1.14186 -1.58934 0
M  V30 45608 C 4346.74 -3.42147 1.03296 0
M  V30 45609 C 4346.41 -3.75621 2.49439 0
M  V30 45610 C 4345.07 -3.84468 2.89375 0
M  V30 45611 C 4347.42 -3.91427 3.44143 0
M  V30 45612 C 4344.75 -4.06562 4.22994 0
M  V30 45613 C 4347.1 -4.15027 4.77426 0
M  V30 45614 C 4345.77 -4.22099 5.17097 0
M  V30 45615 H 4345.04 -0.698531 0.247256 0
M  V30 45616 H 4347.68 -1.447 1.25435 0
M  V30 45617 H 4345.99 -3.90026 0.372443 0
M  V30 45618 H 4347.69 -3.93692 0.762062 0
M  V30 45619 H 4344.28 -3.69321 2.17486 0
M  V30 45620 H 4348.46 -3.83966 3.14458 0
M  V30 45621 H 4343.72 -4.10266 4.53312 0
M  V30 45622 H 4347.89 -4.262 5.50751 0
M  V30 45623 H 4345.52 -4.38972 6.20651 0
M  V30 45624 N 4347.09 -0.771099 -1.37448 0
M  V30 45625 C 4348.5 -0.400617 -1.82351 0
M  V30 45626 C 4348.85 1.07315 -1.64249 0
M  V30 45627 O 4347.98 1.83109 -1.15325 0
M  V30 45628 C 4348.57 -0.72037 -3.31053 0
M  V30 45629 C 4347.13 -0.402952 -3.74237 0
M  V30 45630 C 4346.28 -0.964543 -2.59984 0
M  V30 45631 H 4349.23 -0.965804 -1.25928 0
M  V30 45632 H 4349.25 -0.00479292 -3.805 0
M  V30 45633 H 4348.76 -1.79306 -3.44196 0
M  V30 45634 H 4346.87 0.662446 -3.66664 0
M  V30 45635 H 4346.98 -0.910749 -4.70364 0
M  V30 45636 H 4345.34 -0.388826 -2.51715 0
M  V30 45637 H 4346.13 -2.04262 -2.7592 0
M  V30 45638 N 4348.57 1.48719 -0.521586 0
M  V30 45639 C 4349.52 2.31151 0.259237 0
M  V30 45640 C 4350.51 1.40697 0.943438 0
M  V30 45641 O 4351.72 1.57646 0.86878 0
M  V30 45642 H 4348.09 0.744986 0.102467 0
M  V30 45643 H 4350.06 2.949 -0.455705 0
M  V30 45644 C 4348.81 3.22549 1.29835 0
M  V30 45645 H 4348.14 3.92092 0.781283 0
M  V30 45646 H 4349.58 3.83129 1.81627 0
M  V30 45647 C 4348.04 2.43573 2.32752 0
M  V30 45648 O 4348.57 2.15454 3.39032 0
M  V30 45649 N 4346.77 2.05221 2.05749 0
M  V30 45650 H 4346.32 2.28289 1.19339 0
M  V30 45651 H 4346.28 1.5269 2.74833 0
M  V30 45652 N 4350.05 0.256331 1.55501 0
M  V30 45653 C 4351.28 -0.369654 2.03571 0
M  V30 45654 C 4351.69 -1.50851 1.13532 0
M  V30 45655 O 4351.05 -1.81869 0.151608 0
M  V30 45656 C 4351.1 -0.868519 3.50912 0
M  V30 45657 O 4350.82 0.224963 4.37522 0
M  V30 45658 C 4352.32 -1.56424 4.14785 0
M  V30 45659 H 4349.54 -0.0867368 0.66537 0
M  V30 45660 H 4352.09 0.382947 2.00882 0
M  V30 45661 H 4350.24 -1.57127 3.54104 0
M  V30 45662 H 4350.65 -0.155375 5.2427 0
M  V30 45663 H 4352.13 -1.86491 5.19543 0
M  V30 45664 H 4352.61 -2.48943 3.61835 0
M  V30 45665 H 4353.21 -0.90582 4.15542 0
M  V30 45666 N 4351.53 -1.57591 -0.0166602 0
M  V30 45667 C 4352.76 -1.9382 -0.715353 0
M  V30 45668 C 4353.16 -0.855553 -1.68751 0
M  V30 45669 O 4352.51 0.17567 -1.82858 0
M  V30 45670 C 4352.57 -3.25933 -1.51683 0
M  V30 45671 C 4352.23 -4.51481 -0.708097 0
M  V30 45672 C 4353.23 -5.199 -0.00297061 0
M  V30 45673 C 4350.92 -4.97959 -0.658978 0
M  V30 45674 C 4352.91 -6.33085 0.740441 0
M  V30 45675 C 4350.6 -6.11036 0.0881702 0
M  V30 45676 C 4351.59 -6.78455 0.786628 0
M  V30 45677 O 4351.28 -7.89368 1.52162 0
M  V30 45678 H 4351.01 -0.644071 -0.2053 0
M  V30 45679 H 4353.57 -2.05384 0.0255277 0
M  V30 45680 H 4351.8 -3.1073 -2.30182 0
M  V30 45681 H 4353.49 -3.47396 -2.0993 0
M  V30 45682 H 4354.25 -4.8499 -0.031871 0
M  V30 45683 H 4350.13 -4.45319 -1.19214 0
M  V30 45684 H 4353.68 -6.85641 1.28615 0
M  V30 45685 H 4349.57 -6.4539 0.11895 0
M  V30 45686 H 4350.34 -8.05794 1.43659 0
M  V30 45687 N 4353 0.289148 -1.54925 0
M  V30 45688 C 4353.93 1.36149 -1.89699 0
M  V30 45689 C 4354.92 1.52322 -0.757108 0
M  V30 45690 O 4356.1 1.65633 -1.01387 0
M  V30 45691 C 4353.23 2.72376 -2.15473 0
M  V30 45692 C 4352.18 2.70955 -3.31312 0
M  V30 45693 C 4351.51 4.10582 -3.4253 0
M  V30 45694 C 4352.81 2.31647 -4.68121 0
M  V30 45695 H 4354.5 1.07294 -2.79514 0
M  V30 45696 H 4352.05 0.5147 -1.34487 0
M  V30 45697 H 4354 3.47491 -2.38386 0
M  V30 45698 H 4352.73 3.0278 -1.2244 0
M  V30 45699 H 4351.39 1.98296 -3.08341 0
M  V30 45700 H 4351.03 4.38182 -2.46992 0
M  V30 45701 H 4350.73 4.10529 -4.20404 0
M  V30 45702 H 4352.26 4.8746 -3.67717 0
M  V30 45703 H 4353.67 2.96481 -4.90685 0
M  V30 45704 H 4352.07 2.42786 -5.48794 0
M  V30 45705 H 4353.14 1.26773 -4.68035 0
M  V30 45706 N 4354.48 1.47583 0.55291 0
M  V30 45707 C 4355.39 1.63033 1.68693 0
M  V30 45708 C 4356.41 0.513104 1.66263 0
M  V30 45709 O 4357.58 0.781204 1.85632 0
M  V30 45710 C 4354.65 1.64491 3.05194 0
M  V30 45711 C 4353.71 2.87672 3.18659 0
M  V30 45712 C 4352.94 2.89051 4.48648 0
M  V30 45713 O 4353.17 1.99515 5.34369 0
M  V30 45714 O 4352.1 3.80963 4.65994 0
M  V30 45715 H 4355.93 2.58998 1.586 0
M  V30 45716 H 4353.51 1.30718 0.723408 0
M  V30 45717 H 4355.39 1.68104 3.86418 0
M  V30 45718 H 4354.07 0.716949 3.1566 0
M  V30 45719 H 4352.98 2.89602 2.36816 0
M  V30 45720 H 4354.31 3.79777 3.13098 0
M  V30 45721 N 4355.96 -0.799985 1.35787 0
M  V30 45722 C 4357.21 -1.55431 1.29172 0
M  V30 45723 C 4357.53 -1.94555 -0.131731 0
M  V30 45724 O 4356.8 -1.6412 -1.06965 0
M  V30 45725 H 4355.38 -0.576409 0.475144 0
M  V30 45726 H 4358.04 -0.953842 1.69964 0
M  V30 45727 H 4357.14 -2.46673 1.91204 0
M  V30 45728 N 4357.44 -1.19892 -1.02292 0
M  V30 45729 C 4358.66 -1.03134 -1.79939 0
M  V30 45730 C 4359.09 0.415169 -1.83461 0
M  V30 45731 O 4358.45 1.29873 -1.26501 0
M  V30 45732 C 4358.49 -1.61202 -3.22562 0
M  V30 45733 O 4357.6 -0.845366 -4.03643 0
M  V30 45734 H 4356.94 -0.364138 -0.555247 0
M  V30 45735 H 4359.47 -1.59047 -1.28706 0
M  V30 45736 H 4359.48 -1.6467 -3.73293 0
M  V30 45737 H 4358.15 -2.6648 -3.19314 0
M  V30 45738 H 4356.73 -0.884402 -3.62261 0
M  V30 45739 N 4358.92 1.21498 -1.0038 0
M  V30 45740 C 4360.16 1.90815 -0.68683 0
M  V30 45741 C 4360.5 1.77833 0.780317 0
M  V30 45742 O 4359.77 1.1542 1.56551 0
M  V30 45743 C 4360.05 3.42659 -1.10711 0
M  V30 45744 C 4359.91 3.64638 -2.63362 0
M  V30 45745 C 4361.23 4.34992 -0.668583 0
M  V30 45746 H 4358.34 0.692946 -0.250989 0
M  V30 45747 H 4360.99 1.43155 -1.24927 0
M  V30 45748 H 4359.14 3.83381 -0.628563 0
M  V30 45749 H 4360.81 3.3325 -3.1897 0
M  V30 45750 H 4359.05 3.08545 -3.0493 0
M  V30 45751 H 4359.72 4.71024 -2.8782 0
M  V30 45752 H 4362.2 4.01845 -1.07979 0
M  V30 45753 H 4361.07 5.39883 -0.990828 0
M  V30 45754 H 4361.34 4.40001 0.430336 0
M  V30 45755 N 4360.39 0.778378 1.37037 0
M  V30 45756 C 4361.81 0.458769 1.52864 0
M  V30 45757 C 4362.01 -1.02462 1.73504 0
M  V30 45758 O 4361.07 -1.81033 1.7602 0
M  V30 45759 C 4362.38 1.27961 2.72115 0
M  V30 45760 C 4363.93 1.27218 2.8598 0
M  V30 45761 C 4364.4 2.07652 4.08221 0
M  V30 45762 N 4365.89 2.0504 4.15347 0
M  V30 45763 C 4366.63 2.64053 5.08983 0
M  V30 45764 N 4366.12 3.3188 6.08134 0
M  V30 45765 N 4367.92 2.53847 5.01516 0
M  V30 45766 H 4360.07 1.73943 1.21892 0
M  V30 45767 H 4362.33 0.738785 0.594054 0
M  V30 45768 H 4362.04 2.3311 2.63349 0
M  V30 45769 H 4361.91 0.913323 3.65976 0
M  V30 45770 H 4364.3 0.228659 2.94213 0
M  V30 45771 H 4364.38 1.67816 1.93058 0
M  V30 45772 H 4364.02 3.12029 4.0075 0
M  V30 45773 H 4363.95 1.64432 5.0027 0
M  V30 45774 H 4366.44 1.55666 3.4435 0
M  V30 45775 H 4366.76 3.74267 6.76124 0
M  V30 45776 H 4365.1 3.3598 6.08393 0
M  V30 45777 H 4368.29 2.00467 4.23002 0
M  V30 45778 H 4368.47 3.00131 5.74304 0
M  V30 45779 N 4361.87 -1.4844 0.529465 0
M  V30 45780 C 4363.12 -2.02799 -0.00482819 0
M  V30 45781 C 4363.45 -1.40578 -1.33983 0
M  V30 45782 O 4362.73 -0.551358 -1.86522 0
M  V30 45783 C 4363.01 -3.59875 -0.12738 0
M  V30 45784 C 4362.86 -4.32577 1.23275 0
M  V30 45785 C 4364.18 -4.31727 -0.85441 0
M  V30 45786 H 4361.3 -0.737 -0.000280625 0
M  V30 45787 H 4363.94 -1.77168 0.686395 0
M  V30 45788 H 4362.09 -3.81843 -0.716086 0
M  V30 45789 H 4363.77 -4.22028 1.86253 0
M  V30 45790 H 4362.01 -3.94016 1.81477 0
M  V30 45791 H 4362.68 -5.40929 1.1 0
M  V30 45792 H 4365.16 -4.14584 -0.354838 0
M  V30 45793 H 4364.03 -5.4132 -0.909056 0
M  V30 45794 H 4364.29 -3.98972 -1.90457 0
M  V30 45795 N 4363.35 -0.264574 -1.55363 0
M  V30 45796 C 4364.6 0.355736 -1.99656 0
M  V30 45797 C 4364.93 1.56291 -1.15269 0
M  V30 45798 O 4364.21 1.93249 -0.22023 0
M  V30 45799 C 4364.49 0.748285 -3.5224 0
M  V30 45800 C 4364.34 -0.465498 -4.47385 0
M  V30 45801 C 4365.66 1.5887 -4.10425 0
M  V30 45802 H 4362.78 0.127827 -0.72583 0
M  V30 45803 H 4365.42 -0.369416 -1.86374 0
M  V30 45804 H 4363.57 1.36613 -3.63688 0
M  V30 45805 H 4365.24 -1.10403 -4.47894 0
M  V30 45806 H 4363.49 -1.10547 -4.19478 0
M  V30 45807 H 4364.16 -0.147232 -5.51804 0
M  V30 45808 H 4366.63 1.067 -4.02187 0
M  V30 45809 H 4365.51 1.83219 -5.17419 0
M  V30 45810 H 4365.77 2.56633 -3.59989 0
M  V30 45811 N 4364.83 1.57598 0.00830251 0
M  V30 45812 C 4366.06 1.94479 0.706088 0
M  V30 45813 C 4366.47 0.86602 1.67766 0
M  V30 45814 O 4365.83 -0.155796 1.81834 0
M  V30 45815 C 4365.88 3.31356 1.44518 0
M  V30 45816 O 4365.6 4.35091 0.512575 0
M  V30 45817 C 4367.1 3.82646 2.23823 0
M  V30 45818 H 4364.32 0.641373 0.197184 0
M  V30 45819 H 4366.87 2.0446 -0.0403491 0
M  V30 45820 H 4365.02 3.22709 2.14331 0
M  V30 45821 H 4365.44 5.14225 1.03312 0
M  V30 45822 H 4366.91 4.80872 2.71047 0
M  V30 45823 H 4367.39 3.14918 3.06142 0
M  V30 45824 H 4367.99 3.94443 1.59042 0
M  V30 45825 N 4366.31 -0.280928 1.55076 0
M  V30 45826 C 4367.54 -1.03201 1.79324 0
M  V30 45827 C 4367.95 -1.80223 0.562602 0
M  V30 45828 O 4367.31 -1.76394 -0.468141 0
M  V30 45829 C 4367.36 -1.99684 3.01345 0
M  V30 45830 O 4367.08 -1.25784 4.19655 0
M  V30 45831 C 4368.58 -2.86669 3.38136 0
M  V30 45832 H 4365.8 -0.305209 0.597569 0
M  V30 45833 H 4368.34 -0.314115 2.02073 0
M  V30 45834 H 4366.5 -2.66948 2.80745 0
M  V30 45835 H 4366.91 -1.90748 4.88585 0
M  V30 45836 H 4368.39 -3.5018 4.26706 0
M  V30 45837 H 4368.86 -3.56025 2.57183 0
M  V30 45838 H 4369.47 -2.24908 3.60966 0
M  V30 45839 N 4367.79 -1.47874 -0.545076 0
M  V30 45840 C 4369.03 -1.55121 -1.30168 0
M  V30 45841 C 4369.36 -0.218623 -1.93267 0
M  V30 45842 O 4368.62 0.789686 -1.7906 0
M  V30 45843 C 4368.91 -2.62683 -2.42348 0
M  V30 45844 C 4368.58 -4.05588 -1.97001 0
M  V30 45845 C 4367.24 -4.44487 -1.8435 0
M  V30 45846 C 4369.59 -4.95206 -1.62544 0
M  V30 45847 C 4366.92 -5.70825 -1.35556 0
M  V30 45848 C 4369.27 -6.22019 -1.15217 0
M  V30 45849 C 4367.94 -6.59788 -1.01172 0
M  V30 45850 H 4367.21 -0.567628 -0.476319 0
M  V30 45851 H 4369.86 -1.81527 -0.609943 0
M  V30 45852 H 4368.16 -2.30079 -3.17129 0
M  V30 45853 H 4369.86 -2.65509 -3.00509 0
M  V30 45854 H 4366.45 -3.7486 -2.07793 0
M  V30 45855 H 4370.63 -4.65843 -1.71185 0
M  V30 45856 H 4365.89 -5.98826 -1.23357 0
M  V30 45857 H 4370.06 -6.90866 -0.876218 0
M  V30 45858 H 4367.69 -7.57573 -0.63142 0
M  V30 45859 N 4369.26 0.792773 -1.36209 0
M  V30 45860 C 4370.54 1.53837 -1.20804 0
M  V30 45861 C 4370.92 2.10081 0.207183 0
M  V30 45862 O 4370.27 1.93682 1.21241 0
M  V30 45863 C 4370.48 2.63597 -2.28731 0
M  V30 45864 C 4371.83 3.31569 -2.65231 0
M  V30 45865 O 4372.85 2.73878 -2.27749 0
M  V30 45866 O 4371.71 4.3582 -3.29732 0
M  V30 45867 H 4368.8 0.680352 -0.47016 0
M  V30 45868 H 4371.35 0.831544 -1.47931 0
M  V30 45869 H 4370.12 2.20007 -3.23593 0
M  V30 45870 H 4369.74 3.41901 -2.02951 0
M  V30 45871 N 4370.74 1.20433 1.01654 0
M  V30 45872 C 4371.7 0.954954 2.08358 0
M  V30 45873 C 4372.7 -0.0695187 1.6065 0
M  V30 45874 O 4373.89 0.166548 1.73402 0
M  V30 45875 C 4371.03 0.437709 3.38078 0
M  V30 45876 H 4372.22 1.90146 2.31915 0
M  V30 45877 H 4369.77 1.01971 1.18455 0
M  V30 45878 H 4370.51 -0.514256 3.20197 0
M  V30 45879 H 4370.29 1.17653 3.74032 0
M  V30 45880 H 4371.78 0.282722 4.16642 0
M  V30 45881 N 4372.22 -1.20963 1.01023 0
M  V30 45882 C 4373.13 -2.27201 0.584523 0
M  V30 45883 C 4374.15 -1.69912 -0.374947 0
M  V30 45884 O 4375.32 -1.99995 -0.237481 0
M  V30 45885 C 4372.39 -3.46615 -0.0769269 0
M  V30 45886 C 4371.45 -4.19157 0.927682 0
M  V30 45887 C 4370.68 -5.32869 0.297703 0
M  V30 45888 O 4370.9 -5.63188 -0.90419 0
M  V30 45889 O 4369.84 -5.93344 1.01125 0
M  V30 45890 H 4373.66 -2.65818 1.46882 0
M  V30 45891 H 4371.25 -1.2746 0.779378 0
M  V30 45892 H 4373.13 -4.19026 -0.446645 0
M  V30 45893 H 4371.81 -3.09887 -0.935518 0
M  V30 45894 H 4370.71 -3.48944 1.34865 0
M  V30 45895 H 4372.05 -4.59809 1.75603 0
M  V30 45896 N 4373.7 -0.785634 -1.36622 0
M  V30 45897 C 4374.93 -0.36757 -2.03304 0
M  V30 45898 C 4375.34 1.0196 -1.59376 0
M  V30 45899 O 4374.68 1.66463 -0.776899 0
M  V30 45900 C 4374.74 -0.34769 -3.57815 0
M  V30 45901 C 4374.4 -1.6818 -4.24929 0
M  V30 45902 C 4375.4 -2.63663 -4.48082 0
M  V30 45903 C 4373.09 -1.96005 -4.62479 0
M  V30 45904 C 4375.08 -3.8517 -5.07861 0
M  V30 45905 C 4372.77 -3.1778 -5.21976 0
M  V30 45906 C 4373.77 -4.12181 -5.44606 0
M  V30 45907 O 4373.45 -5.31809 -6.02855 0
M  V30 45908 H 4373.19 -0.150073 -0.659131 0
M  V30 45909 H 4375.74 -1.0646 -1.75657 0
M  V30 45910 H 4373.97 0.405804 -3.84565 0
M  V30 45911 H 4375.66 0.0451913 -4.05875 0
M  V30 45912 H 4376.42 -2.43452 -4.19471 0
M  V30 45913 H 4372.3 -1.23348 -4.44192 0
M  V30 45914 H 4375.85 -4.58867 -5.2544 0
M  V30 45915 H 4371.74 -3.37871 -5.50012 0
M  V30 45916 H 4372.51 -5.32822 -6.21324 0
M  V30 45917 N 4375.18 1.48157 -0.53733 0
M  V30 45918 C 4376.42 2.04398 -0.00801757 0
M  V30 45919 C 4376.78 1.40474 1.30886 0
M  V30 45920 O 4377.98 1.87645 1.92465 0
M  V30 45921 C 4376.25 3.57249 0.103908 0
M  V30 45922 S 4377.81 4.3492 0.582222 0
M  V30 45923 H 4374.63 0.710829 -0.0155857 0
M  V30 45924 H 4377.23 1.81776 -0.719559 0
M  V30 45925 H 4375.93 4.01305 -0.859222 0
M  V30 45926 H 4375.47 3.84336 0.839607 0
M  V30 45927 H 4377.48 4.60605 1.84547 0
M  V30 45928 N 4376.65 0.272809 1.55221 0
M  V30 45929 C 4378.07 -0.0813945 1.59392 0
M  V30 45930 C 4378.27 -1.54792 1.29003 0
M  V30 45931 O 4377.33 -2.29643 1.04979 0
M  V30 45932 C 4378.64 0.291158 2.99287 0
M  V30 45933 C 4380.19 0.237585 3.12097 0
M  V30 45934 C 4380.66 0.584544 4.54254 0
M  V30 45935 N 4382.15 0.53601 4.60088 0
M  V30 45936 C 4382.89 0.777302 5.68107 0
M  V30 45937 N 4382.38 1.08309 6.84281 0
M  V30 45938 N 4384.18 0.706255 5.57645 0
M  V30 45939 H 4376.33 1.22889 1.7324 0
M  V30 45940 H 4378.59 0.496298 0.807708 0
M  V30 45941 H 4378.3 1.31099 3.26353 0
M  V30 45942 H 4378.17 -0.369144 3.75389 0
M  V30 45943 H 4380.56 -0.772955 2.84797 0
M  V30 45944 H 4380.64 0.932112 2.38213 0
M  V30 45945 H 4380.28 1.59276 4.8228 0
M  V30 45946 H 4380.21 -0.131748 5.26435 0
M  V30 45947 H 4382.7 0.309451 3.76631 0
M  V30 45948 H 4383.02 1.25393 7.62559 0
M  V30 45949 H 4381.36 1.12084 6.85903 0
M  V30 45950 H 4384.55 0.467222 4.65762 0
M  V30 45951 H 4384.73 0.897686 6.41752 0
M  V30 45952 N 4378.13 -1.576 5.54043e-05 0
M  V30 45953 C 4379.08 -2.04907 -0.999854 0
M  V30 45954 C 4380.07 -0.94381 -1.30311 0
M  V30 45955 O 4381.26 -1.20758 -1.29409 0
M  V30 45956 C 4378.39 -2.55597 -2.29183 0
M  V30 45957 C 4377.47 -3.73 -2.01821 0
M  V30 45958 N 4377.86 -4.84685 -1.44618 0
M  V30 45959 C 4376.16 -3.80932 -2.31963 0
M  V30 45960 C 4376.86 -5.6612 -1.33727 0
M  V30 45961 N 4375.84 -5.12124 -1.8229 0
M  V30 45962 H 4379.64 -2.88668 -0.552068 0
M  V30 45963 H 4377.16 -1.61093 -0.205637 0
M  V30 45964 H 4379.15 -2.87764 -3.01658 0
M  V30 45965 H 4377.81 -1.73254 -2.74614 0
M  V30 45966 H 4378.82 -5.05534 -1.12498 0
M  V30 45967 H 4375.5 -3.09444 -2.80269 0
M  V30 45968 H 4376.89 -6.6588 -0.89742 0
M  V30 45969 N 4379.61 0.2727 -1.55223 0
M  V30 45970 C 4380.86 1.00228 -1.75496 0
M  V30 45971 C 4381.18 1.86808 -0.559266 0
M  V30 45972 O 4380.45 1.91216 0.425814 0
M  V30 45973 H 4379.03 0.373053 -0.647179 0
M  V30 45974 H 4381.69 0.296859 -1.92626 0
M  V30 45975 H 4380.79 1.63904 -2.65597 0
M  V30 45976 N 4381.09 1.48161 0.537226 0
M  V30 45977 C 4382.32 1.59459 1.31835 0
M  V30 45978 C 4382.73 0.252131 1.87109 0
M  V30 45979 O 4382.09 -0.757563 1.66034 0
M  V30 45980 C 4382.14 2.63554 2.4743 0
M  V30 45981 O 4381.86 3.92589 1.94436 0
M  V30 45982 C 4383.36 2.85224 3.39356 0
M  V30 45983 H 4380.58 0.537865 0.401177 0
M  V30 45984 H 4383.13 1.93934 0.648823 0
M  V30 45985 H 4381.28 2.31957 3.10282 0
M  V30 45986 H 4381.69 4.49638 2.70048 0
M  V30 45987 H 4383.17 3.61878 4.16832 0
M  V30 45988 H 4383.65 1.93778 3.9414 0
M  V30 45989 H 4384.25 3.18096 2.82303 0
M  V30 45990 N 4382.57 -0.785538 1.36627 0
M  V30 45991 C 4383.81 -1.55673 1.32458 0
M  V30 45992 C 4384.17 -1.9177 -0.0940415 0
M  V30 45993 O 4385.37 -2.67536 -0.260326 0
M  V30 45994 C 4383.64 -2.79693 2.225 0
M  V30 45995 S 4385.2 -3.69899 2.36051 0
M  V30 45996 H 4382.02 -0.533125 0.470424 0
M  V30 45997 H 4384.62 -0.924893 1.72238 0
M  V30 45998 H 4383.33 -2.51233 3.24516 0
M  V30 45999 H 4382.86 -3.47847 1.83754 0
M  V30 46000 H 4384.87 -4.71011 1.56088 0
M  V30 46001 N 4384.04 -1.20971 -1.01014 0
M  V30 46002 C 4384.95 -0.980232 -2.1314 0
M  V30 46003 C 4385.97 0.0660053 -1.73875 0
M  V30 46004 O 4387.15 -0.122892 -2.01025 0
M  V30 46005 C 4384.21 -0.54228 -3.42433 0
M  V30 46006 C 4383.27 -1.66013 -3.95902 0
M  V30 46007 C 4382.51 -1.24298 -5.19024 0
M  V30 46008 O 4382.73 -0.114396 -5.70285 0
M  V30 46009 O 4381.66 -2.05291 -5.65808 0
M  V30 46010 H 4385.49 -1.91921 -2.35372 0
M  V30 46011 H 4383.07 -0.994138 -1.11522 0
M  V30 46012 H 4384.96 -0.307588 -4.20276 0
M  V30 46013 H 4383.63 0.368037 -3.21601 0
M  V30 46014 H 4382.54 -1.94917 -3.19309 0
M  V30 46015 H 4383.87 -2.54768 -4.21134 0
M  V30 46016 N 4385.52 1.20426 -1.01663 0
M  V30 46017 C 4386.94 1.4185 -0.731492 0
M  V30 46018 C 4387.14 1.8936 0.688832 0
M  V30 46019 O 4386.19 2.06252 1.45659 0
M  V30 46020 C 4387.51 2.44013 -1.75722 0
M  V30 46021 C 4389.06 2.57779 -1.77536 0
M  V30 46022 C 4389.53 3.63184 -2.79036 0
M  V30 46023 N 4391.02 3.70668 -2.77776 0
M  V30 46024 C 4391.76 4.51885 -3.5297 0
M  V30 46025 N 4391.25 5.36906 -4.3784 0
M  V30 46026 N 4393.05 4.46418 -3.41567 0
M  V30 46027 H 4385.2 0.879025 -1.93357 0
M  V30 46028 H 4387.46 0.448396 -0.835251 0
M  V30 46029 H 4387.17 2.16101 -2.77477 0
M  V30 46030 H 4387.04 3.43001 -1.5694 0
M  V30 46031 H 4389.43 2.85021 -0.764669 0
M  V30 46032 H 4389.51 1.58985 -2.00393 0
M  V30 46033 H 4389.15 3.36686 -3.8027 0
M  V30 46034 H 4389.08 4.616 -2.53441 0
M  V30 46035 H 4391.57 3.09937 -2.16212 0
M  V30 46036 H 4391.89 5.95963 -4.91983 0
M  V30 46037 H 4390.23 5.36408 -4.41918 0
M  V30 46038 H 4393.42 3.79032 -2.74686 0
M  V30 46039 H 4393.59 5.09477 -4.00422 0
M  V30 46040 N 4387 0.792868 1.36203 0
M  V30 46041 C 4388.23 0.377773 2.0393 0
M  V30 46042 C 4388.65 -0.998891 1.59386 0
M  V30 46043 O 4388.01 -1.64418 0.763961 0
M  V30 46044 C 4388.06 0.453761 3.57734 0
M  V30 46045 O 4387.16 -0.538007 4.08876 0
M  V30 46046 H 4386.5 0.159878 0.644465 0
M  V30 46047 H 4389.03 1.07494 1.74087 0
M  V30 46048 H 4389.04 0.318607 4.06754 0
M  V30 46049 H 4387.72 1.45798 3.89507 0
M  V30 46050 H 4386.29 -0.364229 3.71117 0
M  V30 46051 N 4388.48 -1.4787 0.54518 0
M  V30 46052 C 4389.39 -2.33634 -0.212664 0
M  V30 46053 C 4390.4 -1.47443 -0.923931 0
M  V30 46054 O 4391.58 -1.80396 -0.895508 0
M  V30 46055 C 4388.65 -3.23889 -1.23681 0
M  V30 46056 C 4387.71 -4.25963 -0.534267 0
M  V30 46057 C 4386.94 -5.11904 -1.50962 0
M  V30 46058 O 4387.16 -5.00087 -2.74352 0
M  V30 46059 O 4386.1 -5.92835 -1.04069 0
M  V30 46060 H 4389.92 -2.99712 0.490522 0
M  V30 46061 H 4387.51 -1.46234 0.305922 0
M  V30 46062 H 4389.39 -3.79673 -1.82829 0
M  V30 46063 H 4388.06 -2.60453 -1.92213 0
M  V30 46064 H 4386.97 -3.73971 0.0980994 0
M  V30 46065 H 4388.3 -4.92078 0.109386 0
M  V30 46066 N 4389.96 -0.281037 -1.55074 0
M  V30 46067 C 4391.2 0.33454 -2.00022 0
M  V30 46068 C 4391.54 1.55059 -1.1692 0
M  V30 46069 O 4390.81 1.93005 -0.240714 0
M  V30 46070 C 4391.09 0.710883 -3.53013 0
M  V30 46071 C 4390.95 -0.512923 -4.46866 0
M  V30 46072 C 4392.27 1.54508 -4.12087 0
M  V30 46073 H 4389.38 0.120122 -0.727145 0
M  V30 46074 H 4392.03 -0.389162 -1.85972 0
M  V30 46075 H 4390.18 1.32748 -3.65117 0
M  V30 46076 H 4391.85 -1.15147 -4.46698 0
M  V30 46077 H 4390.09 -1.1499 -4.18282 0
M  V30 46078 H 4390.76 -0.205749 -5.51616 0
M  V30 46079 H 4393.24 1.02428 -4.03296 0
M  V30 46080 H 4392.11 1.77721 -5.19333 0
M  V30 46081 H 4392.38 2.528 -3.62691 0
M  V30 46082 N 4391.44 1.57598 -0.00841331 0
M  V30 46083 C 4392.68 1.90554 0.673333 0
M  V30 46084 C 4393 0.883363 1.73844 0
M  V30 46085 O 4392.27 -0.0780753 1.95744 0
M  V30 46086 H 4390.85 0.703321 0.251692 0
M  V30 46087 H 4393.52 1.94832 -0.0513277 0
M  V30 46088 H 4392.61 2.90564 1.13925 0
M  V30 46089 N 4392.91 -0.264465 1.55365 0
M  V30 46090 C 4394.16 -0.99275 1.75577 0
M  V30 46091 C 4394.48 -1.8714 0.569045 0
M  V30 46092 O 4395.68 -2.63511 0.653775 0
M  V30 46093 C 4394.14 -1.81508 3.10778 0
M  V30 46094 C 4393.75 -0.984686 4.37045 0
M  V30 46095 C 4395.49 -2.53715 3.40336 0
M  V30 46096 C 4393.4 -1.80189 5.63281 0
M  V30 46097 H 4392.33 -0.374389 0.654484 0
M  V30 46098 H 4394.98 -0.248074 1.81815 0
M  V30 46099 H 4393.36 -2.60104 2.986 0
M  V30 46100 H 4394.53 -0.242293 4.60163 0
M  V30 46101 H 4392.85 -0.376764 4.14692 0
M  V30 46102 H 4395.45 -3.15277 4.31862 0
M  V30 46103 H 4395.79 -3.24438 2.60856 0
M  V30 46104 H 4396.32 -1.82143 3.5365 0
M  V30 46105 H 4393.06 -1.13873 6.45533 0
M  V30 46106 H 4392.58 -2.52003 5.44293 0
M  V30 46107 H 4394.26 -2.37343 6.01895 0
M  V30 46108 N 4394.39 -1.48444 -0.529361 0
M  V30 46109 C 4395.63 -1.58091 -1.29563 0
M  V30 46110 C 4396 -0.249369 -1.90374 0
M  V30 46111 O 4397.2 -0.220832 -2.67891 0
M  V30 46112 C 4395.47 -2.68802 -2.35543 0
M  V30 46113 S 4397.03 -2.98218 -3.21887 0
M  V30 46114 H 4393.84 -0.557937 -0.440712 0
M  V30 46115 H 4396.45 -1.85968 -0.602993 0
M  V30 46116 H 4395.15 -3.64108 -1.8935 0
M  V30 46117 H 4394.68 -2.42828 -3.09513 0
M  V30 46118 H 4396.7 -2.37563 -4.35635 0
M  V30 46119 N 4395.87 0.778281 -1.37042 0
M  V30 46120 C 4396.8 1.90541 -1.34968 0
M  V30 46121 C 4397.78 1.6868 -0.219333 0
M  V30 46122 O 4398.97 1.89633 -0.41869 0
M  V30 46123 C 4396.1 3.2773 -1.14937 0
M  V30 46124 C 4395.05 3.64139 -2.24914 0
M  V30 46125 C 4394.38 4.99799 -1.90013 0
M  V30 46126 C 4395.68 3.71566 -3.67064 0
M  V30 46127 H 4397.37 1.92533 -2.29284 0
M  V30 46128 H 4394.92 0.924909 -1.1037 0
M  V30 46129 H 4396.87 4.06211 -1.12118 0
M  V30 46130 H 4395.59 3.26153 -0.170746 0
M  V30 46131 H 4394.25 2.87962 -2.26878 0
M  V30 46132 H 4393.9 4.94756 -0.90697 0
M  V30 46133 H 4393.6 5.25129 -2.63653 0
M  V30 46134 H 4395.12 5.80688 -1.8877 0
M  V30 46135 H 4396.54 4.40214 -3.67267 0
M  V30 46136 H 4394.93 4.08389 -4.39703 0
M  V30 46137 H 4396 2.7239 -4.01163 0
M  V30 46138 N 4397.35 1.21505 1.00371 0
M  V30 46139 C 4398.57 1.05984 1.78276 0
M  V30 46140 C 4399 -0.385929 1.84098 0
M  V30 46141 O 4398.36 -1.27844 1.28552 0
M  V30 46142 C 4398.4 1.66313 3.19957 0
M  V30 46143 O 4397.51 0.909475 4.02247 0
M  V30 46144 H 4396.85 0.372925 0.549384 0
M  V30 46145 H 4399.38 1.61074 1.2616 0
M  V30 46146 H 4399.39 1.70588 3.70626 0
M  V30 46147 H 4398.06 2.71526 3.15034 0
M  V30 46148 H 4396.64 0.941922 3.60808 0
M  V30 46149 N 4398.83 -1.19885 1.023 0
M  V30 46150 C 4400.05 -1.93387 0.735467 0
M  V30 46151 C 4400.47 -1.7515 -0.704825 0
M  V30 46152 O 4399.83 -1.0696 -1.47871 0
M  V30 46153 C 4399.88 -3.4531 1.06974 0
M  V30 46154 O 4399.6 -3.62955 2.45347 0
M  V30 46155 C 4401.1 -4.35945 0.804175 0
M  V30 46156 H 4398.32 -0.614471 0.269568 0
M  V30 46157 H 4400.86 -1.52195 1.36591 0
M  V30 46158 H 4399.02 -3.84357 0.48459 0
M  V30 46159 H 4399.43 -4.56877 2.57611 0
M  V30 46160 H 4400.91 -5.4117 1.08809 0
M  V30 46161 H 4401.38 -4.38421 -0.261536 0
M  V30 46162 H 4401.99 -4.0257 1.37178 0
M  V30 46163 N 4400.3 -0.80008 -1.35781 0
M  V30 46164 C 4401.53 -0.388582 -2.03727 0
M  V30 46165 C 4401.95 0.990425 -1.59913 0
M  V30 46166 O 4401.31 1.64011 -0.77267 0
M  V30 46167 C 4401.36 -0.472726 -3.57488 0
M  V30 46168 O 4400.46 0.516316 -4.09155 0
M  V30 46169 H 4399.8 -0.163293 -0.643608 0
M  V30 46170 H 4402.33 -1.08416 -1.73514 0
M  V30 46171 H 4402.34 -0.340173 -4.06579 0
M  V30 46172 H 4401.02 -1.47862 -3.88728 0
M  V30 46173 H 4399.6 0.344542 -3.71305 0
M  V30 46174 N 4401.78 1.47579 -0.553014 0
M  V30 46175 C 4403.03 2.02082 -0.0273414 0
M  V30 46176 C 4403.35 1.43015 1.32558 0
M  V30 46177 O 4402.62 0.60381 1.86362 0
M  V30 46178 H 4401.2 0.746966 -0.00711808 0
M  V30 46179 H 4403.86 1.81031 -0.722071 0
M  V30 46180 H 4402.96 3.12035 0.0638854 0
M  V30 46181 N 4403.26 0.289257 1.54923 0
M  V30 46182 C 4404.68 -0.0644842 1.5947 0
M  V30 46183 C 4404.88 -1.53415 1.30637 0
M  V30 46184 O 4403.93 -2.28516 1.07408 0
M  V30 46185 C 4405.24 0.322885 2.98961 0
M  V30 46186 C 4406.79 0.270674 3.11827 0
M  V30 46187 C 4407.27 0.632691 4.53609 0
M  V30 46188 N 4408.76 0.584779 4.59494 0
M  V30 46189 C 4409.49 0.837514 5.67251 0
M  V30 46190 N 4408.99 1.1556 6.83094 0
M  V30 46191 N 4410.78 0.765361 5.56865 0
M  V30 46192 H 4402.93 1.2472 1.71927 0
M  V30 46193 H 4405.2 0.504837 0.802399 0
M  V30 46194 H 4404.9 1.34553 3.24944 0
M  V30 46195 H 4404.78 -0.329308 3.7576 0
M  V30 46196 H 4407.16 -0.742705 2.85601 0
M  V30 46197 H 4407.24 0.957326 2.37211 0
M  V30 46198 H 4406.89 1.64382 4.80563 0
M  V30 46199 H 4406.82 -0.0759048 5.26545 0
M  V30 46200 H 4409.31 0.34938 3.76281 0
M  V30 46201 H 4409.62 1.33474 7.61186 0
M  V30 46202 H 4407.97 1.19352 6.84675 0
M  V30 46203 H 4411.16 0.516596 4.65241 0
M  V30 46204 H 4411.33 0.965702 6.40764 0
M  V30 46205 N 4404.74 -1.57591 0.016771 0
M  V30 46206 C 4405.98 -1.92401 -0.659793 0
M  V30 46207 C 4406.34 -0.892621 -1.70441 0
M  V30 46208 O 4405.63 0.0930082 -1.91374 0
M  V30 46209 C 4405.83 -3.31724 -1.33018 0
M  V30 46210 C 4405.65 -4.4832 -0.352017 0
M  V30 46211 C 4404.42 -5.05281 0.0436659 0
M  V30 46212 C 4406.62 -5.12829 0.388654 0
M  V30 46213 N 4404.6 -6.05396 1.01829 0
M  V30 46214 C 4405.98 -6.0793 1.21742 0
M  V30 46215 C 4408.03 -4.95856 0.450687 0
M  V30 46216 C 4406.73 -6.87884 2.10259 0
M  V30 46217 C 4408.76 -5.76408 1.32315 0
M  V30 46218 C 4408.12 -6.71115 2.13972 0
M  V30 46219 H 4404.22 -0.752114 -0.214124 0
M  V30 46220 H 4406.8 -1.94531 0.0810529 0
M  V30 46221 H 4404.98 -3.30437 -2.04123 0
M  V30 46222 H 4406.71 -3.53917 -1.96278 0
M  V30 46223 H 4403.46 -4.72461 -0.328218 0
M  V30 46224 H 4403.89 -6.6014 1.50146 0
M  V30 46225 H 4408.53 -4.22473 -0.166364 0
M  V30 46226 H 4406.25 -7.60581 2.73024 0
M  V30 46227 H 4409.83 -5.65312 1.37528 0
M  V30 46228 H 4408.71 -7.3236 2.8039 0
M  V30 46229 N 4406.22 0.256222 -1.55503 0
M  V30 46230 C 4407.46 0.987017 -1.7716 0
M  V30 46231 C 4407.8 1.85325 -0.58038 0
M  V30 46232 O 4407.07 1.89875 0.42162 0
M  V30 46233 C 4407.35 1.85542 -3.0862 0
M  V30 46234 C 4407.21 1.018 -4.38129 0
M  V30 46235 C 4408.53 2.83958 -3.36238 0
M  V30 46236 H 4405.64 0.357406 -0.644539 0
M  V30 46237 H 4408.29 0.258173 -1.88238 0
M  V30 46238 H 4406.44 2.47685 -2.99307 0
M  V30 46239 H 4408.11 0.415997 -4.5942 0
M  V30 46240 H 4406.35 0.322026 -4.32603 0
M  V30 46241 H 4407.02 1.65921 -5.26473 0
M  V30 46242 H 4409.5 2.31952 -3.45453 0
M  V30 46243 H 4408.37 3.41849 -4.29454 0
M  V30 46244 H 4408.64 3.59946 -2.56694 0
M  V30 46245 N 4407.69 1.48722 0.521481 0
M  V30 46246 C 4408.62 1.66777 1.63425 0
M  V30 46247 C 4409.61 0.516556 1.62067 0
M  V30 46248 O 4410.79 0.750076 1.7913 0
M  V30 46249 C 4407.92 1.71526 3.01987 0
M  V30 46250 C 4406.87 2.86233 3.18206 0
M  V30 46251 C 4406.2 2.76077 4.57914 0
M  V30 46252 C 4407.5 4.27429 3.00169 0
M  V30 46253 H 4409.19 2.59937 1.4857 0
M  V30 46254 H 4406.74 1.25091 0.713314 0
M  V30 46255 H 4408.69 1.82744 3.79714 0
M  V30 46256 H 4407.42 0.749505 3.17884 0
M  V30 46257 H 4406.08 2.74583 2.42898 0
M  V30 46258 H 4405.72 1.77453 4.70658 0
M  V30 46259 H 4405.42 3.53053 4.6971 0
M  V30 46260 H 4406.95 2.89275 5.37729 0
M  V30 46261 H 4408.36 4.39868 3.67681 0
M  V30 46262 H 4406.76 5.05469 3.23452 0
M  V30 46263 H 4407.83 4.433 1.96503 0
M  V30 46264 N 4409.17 -0.771003 1.37453 0
M  V30 46265 C 4410.12 -1.90569 1.33365 0
M  V30 46266 C 4411.11 -1.67935 0.222299 0
M  V30 46267 O 4412.32 -1.75716 0.390366 0
M  V30 46268 H 4408.7 -0.626699 0.415634 0
M  V30 46269 H 4410.67 -1.91134 2.29151 0
M  V30 46270 C 4409.42 -3.27841 1.15825 0
M  V30 46271 H 4408.74 -3.45835 2.00595 0
M  V30 46272 H 4410.18 -4.07534 1.17015 0
M  V30 46273 C 4408.64 -3.36625 -0.136047 0
M  V30 46274 O 4409.17 -3.85789 -1.11936 0
M  V30 46275 N 4407.37 -2.89998 -0.186997 0
M  V30 46276 H 4406.92 -2.50179 0.613841 0
M  V30 46277 H 4406.88 -2.96256 -1.05261 0
M  V30 46278 N 4410.65 -1.22035 -0.997255 0
M  V30 46279 C 4411.6 -0.983708 -2.10775 0
M  V30 46280 C 4412.59 0.0716969 -1.69248 0
M  V30 46281 O 4413.8 -0.0803673 -1.7982 0
M  V30 46282 H 4410.17 -0.300901 -0.689175 0
M  V30 46283 H 4412.14 -1.92614 -2.27909 0
M  V30 46284 C 4410.89 -0.57338 -3.4294 0
M  V30 46285 H 4410.22 -1.37715 -3.75333 0
M  V30 46286 H 4411.66 -0.447179 -4.21635 0
M  V30 46287 C 4410.12 0.716584 -3.29191 0
M  V30 46288 O 4410.65 1.77014 -3.60595 0
M  V30 46289 N 4408.85 0.686068 -2.82385 0
M  V30 46290 H 4408.4 -0.171598 -2.57028 0
M  V30 46291 H 4408.36 1.54945 -2.73568 0
M  V30 46292 N 4412.13 1.19341 -1.02934 0
M  V30 46293 C 4413.04 2.26243 -0.620594 0
M  V30 46294 C 4414.05 1.70487 0.347868 0
M  V30 46295 O 4415.23 2.00347 0.205634 0
M  V30 46296 C 4412.3 3.46693 0.0217738 0
M  V30 46297 C 4411.36 4.17628 -0.994249 0
M  V30 46298 C 4410.59 5.32328 -0.38244 0
M  V30 46299 O 4410.81 5.64555 0.814478 0
M  V30 46300 O 4409.75 5.9166 -1.10552 0
M  V30 46301 H 4413.57 2.63448 -1.51092 0
M  V30 46302 H 4411.16 1.26204 -0.799557 0
M  V30 46303 H 4413.04 4.19684 0.379925 0
M  V30 46304 H 4411.71 3.11336 0.886099 0
M  V30 46305 H 4410.62 3.46755 -1.40399 0
M  V30 46306 H 4411.95 4.56957 -1.82896 0
M  V30 46307 N 4413.61 0.80727 1.35355 0
M  V30 46308 C 4414.56 0.190786 2.272 0
M  V30 46309 C 4415.54 -0.635786 1.47806 0
M  V30 46310 O 4416.73 -0.492931 1.69998 0
M  V30 46311 C 4413.86 -0.659218 3.36911 0
M  V30 46312 C 4412.95 0.17712 4.2373 0
M  V30 46313 N 4413.34 1.24047 4.90353 0
M  V30 46314 C 4411.64 -0.0411386 4.45981 0
M  V30 46315 C 4412.34 1.75111 5.54717 0
M  V30 46316 N 4411.31 1.05745 5.33216 0
M  V30 46317 H 4415.12 1.0044 2.76205 0
M  V30 46318 H 4412.63 0.648497 1.4889 0
M  V30 46319 H 4414.63 -1.11692 4.0166 0
M  V30 46320 H 4413.29 -1.47117 2.89459 0
M  V30 46321 H 4414.3 1.62312 4.91808 0
M  V30 46322 H 4410.97 -0.822176 4.09324 0
M  V30 46323 H 4412.36 2.63985 6.17868 0
M  V30 46324 N 4415.08 -1.47283 0.560833 0
M  V30 46325 C 4416.31 -2.06555 0.0430364 0
M  V30 46326 C 4416.72 -1.41344 -1.25772 0
M  V30 46327 O 4416.07 -0.505244 -1.76615 0
M  V30 46328 C 4416.13 -3.58828 -0.219761 0
M  V30 46329 C 4415.79 -4.46101 0.992101 0
M  V30 46330 C 4416.79 -4.83993 1.8986 0
M  V30 46331 C 4414.47 -4.87563 1.20779 0
M  V30 46332 C 4416.47 -5.62149 3.00445 0
M  V30 46333 C 4414.15 -5.65483 2.31673 0
M  V30 46334 C 4415.15 -6.02687 3.21336 0
M  V30 46335 O 4414.84 -6.79037 4.30307 0
M  V30 46336 H 4414.57 -0.674536 0.0444705 0
M  V30 46337 H 4417.13 -1.90223 0.774885 0
M  V30 46338 H 4415.36 -3.73386 -1.00596 0
M  V30 46339 H 4417.05 -4.00106 -0.683381 0
M  V30 46340 H 4417.81 -4.52558 1.74403 0
M  V30 46341 H 4413.69 -4.58069 0.519054 0
M  V30 46342 H 4417.23 -5.91107 3.70456 0
M  V30 46343 H 4413.13 -5.96331 2.47102 0
M  V30 46344 H 4413.9 -6.97435 4.284 0
M  V30 46345 N 4416.56 -0.297469 -1.54767 0
M  V30 46346 C 4417.98 0.0560262 -1.59502 0
M  V30 46347 C 4418.18 1.5272 -1.31449 0
M  V30 46348 O 4417.23 2.27943 -1.08619 0
M  V30 46349 C 4418.55 -0.338736 -2.98786 0
M  V30 46350 C 4420.1 -0.287207 -3.1168 0
M  V30 46351 C 4420.57 -0.656738 -4.53267 0
M  V30 46352 N 4422.06 -0.609139 -4.59177 0
M  V30 46353 C 4422.8 -0.867585 -5.66798 0
M  V30 46354 N 4422.29 -1.19181 -6.82472 0
M  V30 46355 N 4424.09 -0.794883 -5.56451 0
M  V30 46356 H 4416.24 -1.2563 -1.71263 0
M  V30 46357 H 4418.5 -0.509085 -0.79971 0
M  V30 46358 H 4418.21 -1.36274 -3.24226 0
M  V30 46359 H 4418.08 0.309376 -3.75929 0
M  V30 46360 H 4420.47 0.727548 -2.85991 0
M  V30 46361 H 4420.55 -0.969892 -2.367 0
M  V30 46362 H 4420.19 -1.66928 -4.79685 0
M  V30 46363 H 4420.12 0.0479798 -5.26578 0
M  V30 46364 H 4422.61 -0.369331 -3.76091 0
M  V30 46365 H 4422.93 -1.37509 -7.60468 0
M  V30 46366 H 4421.27 -1.22982 -6.84033 0
M  V30 46367 H 4424.46 -0.541261 -4.6496 0
M  V30 46368 H 4424.63 -0.99967 -6.40243 0
M  V30 46369 N 4418.04 1.5758 -0.0251282 0
M  V30 46370 C 4419 2.08899 0.943066 0
M  V30 46371 C 4420 1.00325 1.25664 0
M  V30 46372 O 4421.19 1.265 1.19764 0
M  V30 46373 C 4418.33 2.55151 2.26077 0
M  V30 46374 H 4419.52 2.95725 0.498671 0
M  V30 46375 H 4417.07 1.54703 0.222833 0
M  V30 46376 H 4417.81 1.71643 2.75153 0
M  V30 46377 H 4417.59 3.34468 2.0463 0
M  V30 46378 H 4419.08 2.95094 2.95482 0
M  V30 46379 N 4419.52 -0.247971 1.55637 0
M  V30 46380 C 4420.45 -1.31072 1.93242 0
M  V30 46381 C 4421.43 -1.50261 0.797227 0
M  V30 46382 O 4422.61 -1.62887 1.05743 0
M  V30 46383 C 4419.74 -2.66568 2.22619 0
M  V30 46384 C 4418.7 -2.62075 3.38379 0
M  V30 46385 C 4418.02 -4.01356 3.53295 0
M  V30 46386 C 4419.32 -2.19154 4.74098 0
M  V30 46387 H 4421.02 -0.998457 2.82261 0
M  V30 46388 H 4418.56 -0.478862 1.35805 0
M  V30 46389 H 4420.52 -3.41049 2.47515 0
M  V30 46390 H 4419.24 -2.99428 1.30425 0
M  V30 46391 H 4417.9 -1.90052 3.1349 0
M  V30 46392 H 4417.55 -4.3148 2.58523 0
M  V30 46393 H 4417.25 -3.99239 4.31141 0
M  V30 46394 H 4418.77 -4.77539 3.80511 0
M  V30 46395 H 4420.19 -2.83367 4.98373 0
M  V30 46396 H 4418.58 -2.2815 5.55038 0
M  V30 46397 H 4419.65 -1.14319 4.71232 0
M  V30 46398 N 4421 -1.48997 -0.513587 0
M  V30 46399 C 4422.22 -1.61796 -1.29756 0
M  V30 46400 C 4422.65 -0.284541 -1.85935 0
M  V30 46401 O 4422.01 0.746127 -1.65235 0
M  V30 46402 C 4422.05 -2.68001 -2.41263 0
M  V30 46403 O 4421.16 -2.263 -3.44764 0
M  V30 46404 H 4420.5 -0.541976 -0.383611 0
M  V30 46405 H 4423.03 -1.95099 -0.616239 0
M  V30 46406 H 4423.04 -2.89782 -2.87211 0
M  V30 46407 H 4421.71 -3.64799 -1.99737 0
M  V30 46408 H 4420.29 -2.14799 -3.04821 0
M  V30 46409 N 4422.48 0.763702 -1.3786 0
M  V30 46410 C 4423.72 1.51952 -1.33248 0
M  V30 46411 C 4424.04 1.94835 0.0801024 0
M  V30 46412 O 4423.31 1.66898 1.02576 0
M  V30 46413 H 4421.89 0.563609 -0.490259 0
M  V30 46414 H 4424.56 0.908444 -1.72433 0
M  V30 46415 H 4423.65 2.41516 -1.97677 0
M  V30 46416 N 4423.95 1.22562 0.990769 0
M  V30 46417 C 4425.2 1.05303 1.73318 0
M  V30 46418 C 4425.53 -0.410589 1.8981 0
M  V30 46419 O 4424.81 -1.30434 1.44282 0
M  V30 46420 C 4425.09 1.76724 3.13752 0
M  V30 46421 C 4424.94 3.30694 3.04895 0
M  V30 46422 C 4426.26 1.52135 4.12968 0
M  V30 46423 H 4423.38 0.383942 0.629093 0
M  V30 46424 H 4426.02 1.5093 1.15413 0
M  V30 46425 H 4424.17 1.37937 3.63188 0
M  V30 46426 H 4425.85 3.7894 2.63064 0
M  V30 46427 H 4424.09 3.60262 2.41648 0
M  V30 46428 H 4424.76 3.75847 4.04281 0
M  V30 46429 H 4427.24 1.85832 3.72298 0
M  V30 46430 H 4426.11 2.046 5.09343 0
M  V30 46431 H 4426.37 0.454411 4.39758 0
M  V30 46432 N 4425.43 -1.18793 1.03566 0
M  V30 46433 C 4426.68 -1.88648 0.736089 0
M  V30 46434 C 4427.01 -1.80044 -0.735826 0
M  V30 46435 O 4426.26 -1.19184 -1.55221 0
M  V30 46436 C 4426.56 -3.38688 1.14129 0
M  V30 46437 C 4426.23 -3.67495 2.61263 0
M  V30 46438 C 4424.89 -3.75067 3.0146 0
M  V30 46439 C 4427.24 -3.80281 3.56421 0
M  V30 46440 C 4424.57 -3.92899 4.35714 0
M  V30 46441 C 4426.92 -3.99628 4.90388 0
M  V30 46442 C 4425.58 -4.05434 5.30264 0
M  V30 46443 H 4424.85 -0.690311 0.269354 0
M  V30 46444 H 4427.5 -1.40636 1.29976 0
M  V30 46445 H 4425.81 -3.88643 0.496339 0
M  V30 46446 H 4427.5 -3.91069 0.886927 0
M  V30 46447 H 4424.09 -3.62215 2.29125 0
M  V30 46448 H 4428.28 -3.73767 3.26514 0
M  V30 46449 H 4423.53 -3.95636 4.66135 0
M  V30 46450 H 4427.71 -4.08463 5.64031 0
M  V30 46451 H 4425.33 -4.19004 6.34302 0
M  V30 46452 N 4426.91 -0.814437 -1.34925 0
M  V30 46453 C 4428.15 -0.404235 -2.00363 0
M  V30 46454 C 4428.51 1.0116 -1.63189 0
M  V30 46455 O 4429.71 1.52423 -2.21406 0
M  V30 46456 C 4427.99 -0.590842 -3.52482 0
M  V30 46457 S 4429.54 -0.272229 -4.37955 0
M  V30 46458 H 4426.36 -0.153134 -0.694313 0
M  V30 46459 H 4428.96 -1.0584 -1.64372 0
M  V30 46460 H 4427.67 -1.62112 -3.77025 0
M  V30 46461 H 4427.2 0.0783631 -3.93322 0
M  V30 46462 H 4429.21 0.917233 -4.87649 0
M  V30 46463 N 4428.39 1.46984 -0.568636 0
M  V30 46464 C 4429.64 2.02041 -0.0487733 0
M  V30 46465 C 4429.96 1.44413 1.31034 0
M  V30 46466 O 4429.23 0.623543 1.85711 0
M  V30 46467 H 4427.81 0.746849 -0.0150403 0
M  V30 46468 H 4430.47 1.80255 -0.741232 0
M  V30 46469 H 4429.56 3.12085 0.0307864 0
M  V30 46470 N 4429.87 0.305673 1.54607 0
M  V30 46471 C 4431.11 -0.302676 2.00529 0
M  V30 46472 C 4431.44 -1.53179 1.19372 0
M  V30 46473 O 4430.72 -1.92597 0.271389 0
M  V30 46474 C 4431 -0.654632 3.541 0
M  V30 46475 C 4430.86 0.58395 4.45993 0
M  V30 46476 C 4432.17 -1.47932 4.14493 0
M  V30 46477 H 4429.29 -0.108538 0.728964 0
M  V30 46478 H 4431.94 0.4187 1.85329 0
M  V30 46479 H 4430.09 -1.26922 3.67182 0
M  V30 46480 H 4431.76 1.22239 4.44809 0
M  V30 46481 H 4430 1.2163 4.164 0
M  V30 46482 H 4430.67 0.293481 5.51219 0
M  V30 46483 H 4433.15 -0.959988 4.04875 0
M  V30 46484 H 4432.02 -1.69436 5.22094 0
M  V30 46485 H 4432.28 -2.46998 3.66667 0
M  V30 46486 N 4431.34 -1.57564 0.0334847 0
M  V30 46487 C 4432.62 -1.83284 -0.683099 0
M  V30 46488 C 4433 -0.918297 -1.9008 0
M  V30 46489 O 4432.35 0.0250327 -2.28486 0
M  V30 46490 C 4432.56 -3.32603 -1.05718 0
M  V30 46491 C 4433.91 -3.99184 -1.44697 0
M  V30 46492 O 4434.93 -3.37124 -1.15003 0
M  V30 46493 O 4433.79 -5.08572 -2.00042 0
M  V30 46494 H 4430.88 -0.755881 -0.335519 0
M  V30 46495 H 4433.43 -1.69589 0.0614998 0
M  V30 46496 H 4432.2 -3.90835 -0.19069 0
M  V30 46497 H 4431.82 -3.51422 -1.8598 0
M  V30 46498 N 4432.82 0.239714 -1.55766 0
M  V30 46499 C 4433.78 1.28031 -1.90107 0
M  V30 46500 C 4434.78 1.4072 -0.778104 0
M  V30 46501 O 4435.97 1.39297 -1.04604 0
M  V30 46502 C 4433.11 2.65695 -2.13586 0
M  V30 46503 H 4434.3 0.987948 -2.8316 0
M  V30 46504 H 4431.85 0.47933 -1.48769 0
M  V30 46505 H 4432.59 3.00059 -1.23025 0
M  V30 46506 H 4432.37 2.57865 -2.95378 0
M  V30 46507 H 4433.86 3.40819 -2.41313 0
M  V30 46508 N 4434.3 1.49267 0.505678 0
M  V30 46509 C 4435.23 1.60189 1.62526 0
M  V30 46510 C 4436.21 0.451162 1.56216 0
M  V30 46511 O 4437.39 0.666078 1.7634 0
M  V30 46512 C 4434.52 1.55249 3.01024 0
M  V30 46513 C 4433.57 2.75462 3.25612 0
M  V30 46514 S 4434.4 4.37185 3.09241 0
M  V30 46515 C 4435.56 4.34882 4.50142 0
M  V30 46516 H 4435.79 2.54899 1.53016 0
M  V30 46517 H 4433.32 1.381 0.690486 0
M  V30 46518 H 4435.28 1.53085 3.80887 0
M  V30 46519 H 4433.94 0.618346 3.07953 0
M  V30 46520 H 4433.13 2.68212 4.26706 0
M  V30 46521 H 4432.74 2.75014 2.53462 0
M  V30 46522 H 4435.03 4.06314 5.4214 0
M  V30 46523 H 4435.97 5.36239 4.62443 0
M  V30 46524 H 4436.38 3.65022 4.30603 0
M  V30 46525 N 4435.78 -0.756381 1.38263 0
M  V30 46526 C 4436.73 -1.89144 1.35378 0
M  V30 46527 C 4437.72 -1.6769 0.240098 0
M  V30 46528 O 4438.93 -1.75292 0.408981 0
M  V30 46529 H 4435.3 -0.622256 0.422258 0
M  V30 46530 H 4437.27 -1.88693 2.31165 0
M  V30 46531 C 4436.02 -3.26594 1.19295 0
M  V30 46532 H 4435.34 -3.43688 2.04252 0
M  V30 46533 H 4436.78 -4.0627 1.2133 0
M  V30 46534 C 4435.24 -3.36751 -0.100336 0
M  V30 46535 O 4435.77 -3.86955 -1.07837 0
M  V30 46536 N 4433.98 -2.9018 -0.156228 0
M  V30 46537 H 4433.53 -2.49514 0.640341 0
M  V30 46538 H 4433.48 -2.97355 -1.02113 0
M  V30 46539 N 4437.26 -1.23086 -0.984255 0
M  V30 46540 C 4438.19 -1.033 -2.09407 0
M  V30 46541 C 4439.17 0.0488632 -1.7003 0
M  V30 46542 O 4440.35 -0.115035 -1.93859 0
M  V30 46543 C 4437.48 -0.619275 -3.41734 0
M  V30 46544 C 4436.44 -1.64805 -3.94998 0
M  V30 46545 C 4435.76 -1.08989 -5.23475 0
M  V30 46546 C 4437.06 -3.04014 -4.24703 0
M  V30 46547 H 4438.76 -1.96127 -2.26218 0
M  V30 46548 H 4436.3 -0.944382 -1.08708 0
M  V30 46549 H 4438.26 -0.467924 -4.18794 0
M  V30 46550 H 4436.98 0.344672 -3.24776 0
M  V30 46551 H 4435.64 -1.78732 -3.20079 0
M  V30 46552 H 4435.29 -0.117037 -5.02864 0
M  V30 46553 H 4434.99 -1.77724 -5.60079 0
M  V30 46554 H 4436.51 -0.950305 -6.0316 0
M  V30 46555 H 4437.92 -2.93411 -4.92527 0
M  V30 46556 H 4436.32 -3.69952 -4.72499 0
M  V30 46557 H 4437.39 -3.53296 -3.32129 0
M  V30 46558 N 4438.73 1.18243 -1.04194 0
M  V30 46559 C 4439.98 1.87585 -0.74126 0
M  V30 46560 C 4440.3 1.81306 0.734002 0
M  V30 46561 O 4441.5 2.46023 1.14825 0
M  V30 46562 C 4439.96 3.36533 -1.27567 0
M  V30 46563 C 4439.57 3.51339 -2.77965 0
M  V30 46564 C 4441.31 4.11269 -1.05157 0
M  V30 46565 C 4439.22 4.94254 -3.24757 0
M  V30 46566 H 4438.15 0.702613 -0.27359 0
M  V30 46567 H 4440.8 1.33597 -1.25794 0
M  V30 46568 H 4439.18 3.89998 -0.686841 0
M  V30 46569 H 4440.35 3.08141 -3.42616 0
M  V30 46570 H 4438.67 2.90011 -2.98802 0
M  V30 46571 H 4441.27 5.16684 -1.3763 0
M  V30 46572 H 4441.61 4.16299 0.0111311 0
M  V30 46573 H 4442.14 3.63981 -1.60508 0
M  V30 46574 H 4438.88 4.94393 -4.30413 0
M  V30 46575 H 4438.4 5.38162 -2.64842 0
M  V30 46576 H 4440.08 5.62975 -3.18854 0
M  V30 46577 N 4440.21 0.821581 1.34491 0
M  V30 46578 C 4441.18 0.247927 2.27855 0
M  V30 46579 C 4442.18 -0.5734 1.50229 0
M  V30 46580 O 4443.37 -0.3897 1.69785 0
M  V30 46581 C 4440.5 -0.65258 3.34596 0
M  V30 46582 H 4441.69 1.07156 2.80103 0
M  V30 46583 H 4439.24 0.593342 1.446 0
M  V30 46584 H 4439.98 -1.49933 2.8756 0
M  V30 46585 H 4439.76 -0.0651542 3.92046 0
M  V30 46586 H 4441.25 -1.04779 4.04241 0
M  V30 46587 N 4441.69 -1.4668 0.576422 0
M  V30 46588 C 4442.64 -2.31954 -0.173269 0
M  V30 46589 C 4443.63 -1.44101 -0.890569 0
M  V30 46590 O 4444.84 -1.60762 -0.809672 0
M  V30 46591 H 4441.21 -0.748276 -0.0747464 0
M  V30 46592 H 4443.18 -2.93005 0.564841 0
M  V30 46593 C 4441.93 -3.27146 -1.17775 0
M  V30 46594 H 4441.26 -3.94721 -0.635222 0
M  V30 46595 H 4442.7 -3.89606 -1.67283 0
M  V30 46596 C 4441.16 -2.52044 -2.23552 0
M  V30 46597 O 4441.69 -2.27888 -3.30802 0
M  V30 46598 N 4439.89 -2.12716 -1.97991 0
M  V30 46599 H 4439.44 -2.32561 -1.10784 0
M  V30 46600 H 4439.4 -1.62785 -2.68977 0
M  V30 46601 N 4443.17 -0.313868 -1.54443 0
M  V30 46602 C 4444.42 0.292449 -1.99569 0
M  V30 46603 C 4444.73 1.54006 -1.20588 0
M  V30 46604 O 4445.94 2.22177 -1.56043 0
M  V30 46605 C 4444.39 0.571627 -3.55331 0
M  V30 46606 C 4444 -0.658385 -4.43136 0
M  V30 46607 C 4445.74 1.13843 -4.0895 0
M  V30 46608 C 4443.65 -0.351647 -5.90354 0
M  V30 46609 H 4442.58 0.113053 -0.745476 0
M  V30 46610 H 4445.23 -0.424581 -1.7852 0
M  V30 46611 H 4443.61 1.34859 -3.72329 0
M  V30 46612 H 4444.79 -1.43418 -4.37913 0
M  V30 46613 H 4443.1 -1.14472 -4.00356 0
M  V30 46614 H 4445.7 1.38238 -5.16521 0
M  V30 46615 H 4446.04 2.08477 -3.60338 0
M  V30 46616 H 4446.58 0.422876 -3.95546 0
M  V30 46617 H 4443.32 -1.26689 -6.43141 0
M  V30 46618 H 4442.84 0.386632 -5.98553 0
M  V30 46619 H 4444.51 0.042086 -6.46986 0
M  V30 46620 N 4444.65 1.57544 -0.0418402 0
M  V30 46621 C 4445.89 1.92319 0.634014 0
M  V30 46622 C 4446.22 0.919394 1.71398 0
M  V30 46623 O 4445.48 -0.0697565 1.95576 0
M  V30 46624 C 4445.78 3.33799 1.27723 0
M  V30 46625 C 4445.44 4.49717 0.326385 0
M  V30 46626 C 4444.1 4.81156 0.0647123 0
M  V30 46627 C 4446.46 5.20181 -0.325806 0
M  V30 46628 C 4443.78 5.80411 -0.856743 0
M  V30 46629 C 4446.14 6.2042 -1.23539 0
M  V30 46630 C 4444.8 6.50293 -1.50583 0
M  V30 46631 H 4444.07 0.703744 0.232002 0
M  V30 46632 H 4446.72 1.91205 -0.106326 0
M  V30 46633 H 4445.02 3.31235 2.09262 0
M  V30 46634 H 4446.72 3.57981 1.80695 0
M  V30 46635 H 4443.31 4.25178 0.540515 0
M  V30 46636 H 4447.49 4.96112 -0.136721 0
M  V30 46637 H 4442.75 6.01896 -1.07384 0
M  V30 46638 H 4446.92 6.74134 -1.74687 0
M  V30 46639 H 4444.55 7.27017 -2.22149 0
M  V30 46640 N 4446.12 -0.23145 1.55891 0
M  V30 46641 C 4447.35 -0.974441 1.82516 0
M  V30 46642 C 4447.77 -1.78342 0.619654 0
M  V30 46643 O 4447.12 -1.77794 -0.411786 0
M  V30 46644 C 4447.18 -1.89996 3.07545 0
M  V30 46645 O 4446.9 -1.1237 4.23444 0
M  V30 46646 C 4448.4 -2.75767 3.47085 0
M  V30 46647 H 4445.62 -0.286043 0.606976 0
M  V30 46648 H 4448.16 -0.249668 2.0297 0
M  V30 46649 H 4446.32 -2.57881 2.89096 0
M  V30 46650 H 4446.73 -1.75108 4.94406 0
M  V30 46651 H 4448.2 -3.36428 4.37631 0
M  V30 46652 H 4448.68 -3.47662 2.68379 0
M  V30 46653 H 4449.29 -2.1331 3.67939 0
M  V30 46654 N 4447.6 -1.49533 -0.497755 0
M  V30 46655 C 4449.01 -1.52348 -1.07922 0
M  V30 46656 C 4449.36 -0.311537 -1.93711 0
M  V30 46657 O 4448.49 0.578332 -2.08529 0
M  V30 46658 C 4449.08 -2.76069 -1.96396 0
M  V30 46659 C 4447.64 -2.81651 -2.49699 0
M  V30 46660 C 4446.79 -2.46304 -1.27396 0
M  V30 46661 H 4449.74 -1.56183 -0.281521 0
M  V30 46662 H 4449.76 -2.56415 -2.81126 0
M  V30 46663 H 4449.27 -3.64259 -1.3393 0
M  V30 46664 H 4447.38 -1.9775 -3.15794 0
M  V30 46665 H 4447.49 -3.83902 -2.86629 0
M  V30 46666 H 4445.85 -1.98154 -1.60022 0
M  V30 46667 H 4446.64 -3.36771 -0.666332 0
M  V30 46668 N 4449.08 0.749038 -1.38662 0
M  V30 46669 C 4450.01 1.87635 -1.3898 0
M  V30 46670 C 4450.99 1.68177 -0.255063 0
M  V30 46671 O 4452.18 1.88702 -0.45882 0
M  V30 46672 C 4449.31 3.25218 -1.21863 0
M  V30 46673 C 4448.26 3.59287 -2.32588 0
M  V30 46674 C 4447.59 4.95656 -2.00572 0
M  V30 46675 C 4448.89 3.63696 -3.74863 0
M  V30 46676 H 4450.58 1.87627 -2.33317 0
M  V30 46677 H 4448.13 0.90129 -1.12307 0
M  V30 46678 H 4450.08 4.03742 -1.20709 0
M  V30 46679 H 4448.8 3.25718 -0.23989 0
M  V30 46680 H 4447.46 2.83085 -2.32935 0
M  V30 46681 H 4447.11 4.9272 -1.01171 0
M  V30 46682 H 4446.81 5.19419 -2.74732 0
M  V30 46683 H 4448.33 5.76553 -2.01044 0
M  V30 46684 H 4449.75 4.32324 -3.76522 0
M  V30 46685 H 4448.15 3.9897 -4.48266 0
M  V30 46686 H 4449.22 2.63819 -4.06851 0
M  V30 46687 N 4450.56 1.23606 0.977714 0
M  V30 46688 C 4451.81 1.07135 1.72191 0
M  V30 46689 C 4452.14 -0.390434 1.90235 0
M  V30 46690 O 4451.41 -1.28896 1.45657 0
M  V30 46691 C 4451.7 1.80042 3.1186 0
M  V30 46692 C 4451.55 3.3391 3.01371 0
M  V30 46693 C 4452.87 1.56507 4.11332 0
M  V30 46694 H 4449.99 0.390593 0.624985 0
M  V30 46695 H 4452.63 1.52146 1.13806 0
M  V30 46696 H 4450.78 1.41781 3.61705 0
M  V30 46697 H 4452.45 3.81708 2.5903 0
M  V30 46698 H 4450.69 3.62804 2.37814 0
M  V30 46699 H 4451.37 3.80114 4.00272 0
M  V30 46700 H 4453.84 1.8977 3.70306 0
M  V30 46701 H 4452.72 2.09991 5.07144 0
M  V30 46702 H 4452.98 0.501028 4.39252 0
M  V30 46703 N 4452.04 -1.17688 1.0482 0
M  V30 46704 C 4452.97 -2.21101 0.6039 0
M  V30 46705 C 4453.98 -1.59412 -0.330404 0
M  V30 46706 O 4455.17 -1.78071 -0.123727 0
M  V30 46707 C 4452.27 -3.38624 -0.136779 0
M  V30 46708 C 4451.44 -4.29886 0.807288 0
M  V30 46709 C 4450.5 -5.26088 0.108544 0
M  V30 46710 O 4449.53 -5.6435 0.74143 0
M  V30 46711 N 4450.73 -5.68886 -1.15538 0
M  V30 46712 H 4453.5 -2.59842 1.49339 0
M  V30 46713 H 4451.06 -1.3255 0.929633 0
M  V30 46714 H 4453.05 -4.00011 -0.61426 0
M  V30 46715 H 4451.62 -2.98511 -0.927888 0
M  V30 46716 H 4450.84 -3.65987 1.46447 0
M  V30 46717 H 4452.13 -4.87753 1.44824 0
M  V30 46718 H 4451.53 -5.39867 -1.68996 0
M  V30 46719 H 4450.08 -6.32435 -1.577 0
M  V30 46720 N 4453.52 -0.828702 -1.34053 0
M  V30 46721 C 4454.93 -0.477598 -1.80488 0
M  V30 46722 C 4455.28 1.00253 -1.68653 0
M  V30 46723 O 4454.4 1.78053 -1.22988 0
M  V30 46724 C 4455 -0.860133 -3.277 0
M  V30 46725 C 4453.56 -0.561316 -3.72191 0
M  V30 46726 C 4452.7 -1.07394 -2.55659 0
M  V30 46727 H 4455.65 -1.01835 -1.21719 0
M  V30 46728 H 4455.68 -0.166172 -3.80137 0
M  V30 46729 H 4455.19 -1.93743 -3.36281 0
M  V30 46730 H 4453.29 0.506335 -3.69144 0
M  V30 46731 H 4453.4 -1.10943 -4.66078 0
M  V30 46732 H 4451.77 -0.495237 -2.49839 0
M  V30 46733 H 4452.55 -2.15781 -2.67009 0
M  V30 46734 N 4454.99 1.46373 -0.584193 0
M  V30 46735 C 4456.24 2.02678 -0.0704428 0
M  V30 46736 C 4456.57 1.45454 1.28673 0
M  V30 46737 O 4455.85 0.620205 1.84347 0
M  V30 46738 C 4456.13 3.60099 -0.00627333 0
M  V30 46739 C 4455.98 4.27704 -1.39245 0
M  V30 46740 C 4457.3 4.346 0.693589 0
M  V30 46741 H 4454.42 0.736503 -0.0270728 0
M  V30 46742 H 4457.06 1.74499 -0.751677 0
M  V30 46743 H 4455.21 3.84238 0.573874 0
M  V30 46744 H 4456.89 4.14824 -2.01788 0
M  V30 46745 H 4455.13 3.87009 -1.95975 0
M  V30 46746 H 4455.8 5.36473 -1.30001 0
M  V30 46747 H 4458.28 4.15616 0.200723 0
M  V30 46748 H 4457.15 5.44321 0.707523 0
M  V30 46749 H 4457.41 4.05766 1.75519 0
M  V30 46750 N 4456.47 0.322054 1.54274 0
M  V30 46751 C 4457.72 -0.280419 2.00145 0
M  V30 46752 C 4458.04 -1.52773 1.21183 0
M  V30 46753 O 4457.31 -1.93379 0.313255 0
M  V30 46754 H 4455.89 -0.106606 0.739354 0
M  V30 46755 H 4458.55 0.43825 1.89909 0
M  V30 46756 H 4457.65 -0.537863 3.0743 0
M  V30 46757 N 4457.95 -1.5752 0.0501946 0
M  V30 46758 C 4458.91 -2.10373 -0.909712 0
M  V30 46759 C 4459.91 -1.02312 -1.24052 0
M  V30 46760 O 4461.1 -1.28389 -1.17737 0
M  V30 46761 C 4458.23 -2.58715 -2.21989 0
M  V30 46762 H 4459.43 -2.96481 -0.451561 0
M  V30 46763 H 4456.98 -1.55038 -0.198193 0
M  V30 46764 H 4457.72 -1.75998 -2.72388 0
M  V30 46765 H 4457.5 -3.37682 -1.99283 0
M  V30 46766 H 4458.99 -2.99757 -2.9075 0
M  V30 46767 N 4459.43 0.223179 -1.56012 0
M  V30 46768 C 4460.36 1.27981 -1.95303 0
M  V30 46769 C 4461.34 1.48973 -0.821032 0
M  V30 46770 O 4462.52 1.61184 -1.08321 0
M  V30 46771 C 4459.65 2.62992 -2.26831 0
M  V30 46772 C 4458.61 2.56659 -3.42506 0
M  V30 46773 C 4457.93 3.95685 -3.59636 0
M  V30 46774 C 4459.23 2.11584 -4.77524 0
M  V30 46775 H 4460.93 0.953425 -2.83814 0
M  V30 46776 H 4458.47 0.457196 -1.36549 0
M  V30 46777 H 4460.43 3.37068 -2.5291 0
M  V30 46778 H 4459.15 2.97315 -1.35172 0
M  V30 46779 H 4457.81 1.8504 -3.16474 0
M  V30 46780 H 4457.46 4.27312 -2.65355 0
M  V30 46781 H 4457.16 3.92329 -4.37438 0
M  V30 46782 H 4458.68 4.71425 -3.88061 0
M  V30 46783 H 4460.1 2.75402 -5.02818 0
M  V30 46784 H 4458.49 2.19291 -5.58598 0
M  V30 46785 H 4459.56 1.06808 -4.72991 0
M  V30 46786 N 4460.91 1.49795 0.489818 0
M  V30 46787 C 4462.18 1.50352 1.25114 0
M  V30 46788 C 4462.56 0.23754 2.09759 0
M  V30 46789 O 4461.91 -0.779734 2.14785 0
M  V30 46790 C 4462.12 2.78879 2.09827 0
M  V30 46791 C 4463.47 3.2881 2.68644 0
M  V30 46792 O 4464.49 2.80073 2.20086 0
M  V30 46793 O 4463.35 4.1372 3.57069 0
M  V30 46794 H 4460.45 0.602262 0.566753 0
M  V30 46795 H 4462.99 1.62069 0.503172 0
M  V30 46796 H 4461.76 3.62504 1.47331 0
M  V30 46797 H 4461.39 2.70077 2.91795 0
M  V30 46798 N 4462.38 -0.741673 1.39057 0
M  V30 46799 C 4463.63 -1.50332 1.36118 0
M  V30 46800 C 4463.96 -1.94148 -0.0450114 0
M  V30 46801 O 4463.24 -1.66304 -1.00862 0
M  V30 46802 C 4463.52 -2.74764 2.32759 0
M  V30 46803 C 4463.37 -2.3701 3.82291 0
M  V30 46804 C 4464.69 -3.76838 2.27335 0
M  V30 46805 H 4461.81 -0.545333 0.495763 0
M  V30 46806 H 4464.45 -0.848565 1.69998 0
M  V30 46807 H 4462.6 -3.30632 2.03997 0
M  V30 46808 H 4464.28 -1.86825 4.21775 0
M  V30 46809 H 4462.52 -1.6932 3.99391 0
M  V30 46810 H 4463.19 -3.26089 4.45388 0
M  V30 46811 H 4465.67 -3.30539 2.52751 0
M  V30 46812 H 4464.54 -4.6158 2.97045 0
M  V30 46813 H 4464.8 -4.23281 1.27614 0
M  V30 46814 N 4463.86 -1.24123 -0.971145 0
M  V30 46815 C 4465.09 -1.10673 -1.75403 0
M  V30 46816 C 4465.51 0.336983 -1.85057 0
M  V30 46817 O 4464.87 1.24391 -1.31896 0
M  V30 46818 C 4464.92 -1.74737 -3.15435 0
M  V30 46819 O 4464.02 -1.0158 -3.99694 0
M  V30 46820 H 4463.36 -0.38736 -0.539303 0
M  V30 46821 H 4465.89 -1.64363 -1.21845 0
M  V30 46822 H 4465.9 -1.80354 -3.65973 0
M  V30 46823 H 4464.58 -2.79783 -3.07724 0
M  V30 46824 H 4463.15 -1.03725 -3.58184 0
M  V30 46825 N 4465.34 1.17131 -1.05443 0
M  V30 46826 C 4466.3 2.19436 -0.661841 0
M  V30 46827 C 4467.3 1.582 0.287986 0
M  V30 46828 O 4468.49 1.74053 0.0715191 0
M  V30 46829 C 4465.63 3.40889 0.027501 0
M  V30 46830 H 4466.82 2.55683 -1.56737 0
M  V30 46831 H 4464.37 1.31256 -0.848613 0
M  V30 46832 H 4465.11 3.1019 0.94618 0
M  V30 46833 H 4464.89 3.86584 -0.655374 0
M  V30 46834 H 4466.38 4.16604 0.288196 0
M  V30 46835 N 4466.82 0.835799 1.33612 0
M  V30 46836 C 4468.04 0.44246 2.02625 0
M  V30 46837 C 4468.47 -0.947678 1.62483 0
M  V30 46838 O 4467.83 -1.61904 0.815882 0
M  V30 46839 C 4467.87 0.567341 3.56109 0
M  V30 46840 O 4466.98 -0.407654 4.1038 0
M  V30 46841 H 4466.32 0.1803 0.639052 0
M  V30 46842 H 4468.85 1.12978 1.70579 0
M  V30 46843 H 4468.86 0.447851 4.05535 0
M  V30 46844 H 4467.53 1.58116 3.84671 0
M  V30 46845 H 4466.11 -0.245976 3.72088 0
M  V30 46846 N 4468.3 -1.46061 0.591947 0
M  V30 46847 C 4469.54 -2.02637 0.0811903 0
M  V30 46848 C 4469.88 -1.46134 -1.279 0
M  V30 46849 O 4469.15 -0.629972 -1.84015 0
M  V30 46850 C 4469.43 -3.60091 0.0253702 0
M  V30 46851 C 4469.29 -4.2696 1.41511 0
M  V30 46852 C 4470.61 -4.34962 -0.670532 0
M  V30 46853 H 4467.72 -0.736349 0.0309783 0
M  V30 46854 H 4470.37 -1.74098 0.76092 0
M  V30 46855 H 4468.52 -3.84537 -0.553489 0
M  V30 46856 H 4470.19 -4.13749 2.03985 0
M  V30 46857 H 4468.43 -3.85964 1.98025 0
M  V30 46858 H 4469.1 -5.35776 1.32844 0
M  V30 46859 H 4471.58 -4.15716 -0.178679 0
M  V30 46860 H 4470.45 -5.44689 -0.678646 0
M  V30 46861 H 4470.72 -4.06691 -1.73364 0
M  V30 46862 N 4469.77 -0.330231 -1.54101 0
M  V30 46863 C 4471.02 0.270735 -2.00985 0
M  V30 46864 C 4471.35 1.51261 -1.21794 0
M  V30 46865 O 4470.63 1.92141 -0.301995 0
M  V30 46866 C 4470.91 0.598214 -3.55096 0
M  V30 46867 C 4470.76 -0.65483 -4.45008 0
M  V30 46868 C 4472.08 1.41319 -4.16794 0
M  V30 46869 H 4469.2 0.0969274 -0.730598 0
M  V30 46870 H 4471.84 -0.448131 -1.8464 0
M  V30 46871 H 4469.99 1.21065 -3.69155 0
M  V30 46872 H 4471.67 -1.293 -4.42808 0
M  V30 46873 H 4469.91 -1.28239 -4.14412 0
M  V30 46874 H 4470.58 -0.381138 -5.50683 0
M  V30 46875 H 4473.06 0.895454 -4.06351 0
M  V30 46876 H 4471.93 1.61109 -5.24724 0
M  V30 46877 H 4472.19 2.41133 -3.7055 0
M  V30 46878 N 4471.25 1.57491 -0.0585476 0
M  V30 46879 C 4472.22 2.10853 0.898543 0
M  V30 46880 C 4473.22 1.02968 1.23508 0
M  V30 46881 O 4474.41 1.29012 1.17054 0
M  V30 46882 C 4471.54 2.59889 2.20614 0
M  V30 46883 H 4472.73 2.96716 0.435831 0
M  V30 46884 H 4470.28 1.55141 0.189968 0
M  V30 46885 H 4471.02 1.7744 2.71451 0
M  V30 46886 H 4470.8 3.38734 1.97489 0
M  V30 46887 H 4472.29 3.01295 2.89156 0
M  V30 46888 N 4472.73 -0.214903 1.56128 0
M  V30 46889 C 4473.98 -0.936455 1.79095 0
M  V30 46890 C 4474.3 -1.84604 0.628213 0
M  V30 46891 O 4473.57 -1.92665 -0.354552 0
M  V30 46892 H 4472.15 -0.348777 0.660578 0
M  V30 46893 H 4474.81 -0.225162 1.93595 0
M  V30 46894 H 4473.91 -1.53933 2.71498 0
M  V30 46895 N 4474.21 -1.50053 -0.481867 0
M  V30 46896 C 4475.46 -1.60185 -1.23228 0
M  V30 46897 C 4475.78 -0.299244 -1.9269 0
M  V30 46898 O 4475.05 0.682643 -1.83621 0
M  V30 46899 H 4473.63 -0.590248 -0.457839 0
M  V30 46900 H 4476.29 -1.86777 -0.556815 0
M  V30 46901 H 4475.39 -2.4076 -1.98598 0
M  V30 46902 N 4475.69 0.734288 -1.39449 0
M  V30 46903 C 4476.94 1.48932 -1.36022 0
M  V30 46904 C 4477.25 1.95557 0.0408318 0
M  V30 46905 O 4478.45 2.70779 0.197685 0
M  V30 46906 C 4476.91 2.69117 -2.38965 0
M  V30 46907 C 4476.52 2.29438 -3.84788 0
M  V30 46908 C 4478.26 3.46935 -2.44615 0
M  V30 46909 C 4476.17 3.46349 -4.79371 0
M  V30 46910 H 4475.1 0.559278 -0.505692 0
M  V30 46911 H 4477.75 0.800925 -1.65098 0
M  V30 46912 H 4476.13 3.40034 -2.0296 0
M  V30 46913 H 4477.31 1.66062 -4.29837 0
M  V30 46914 H 4475.62 1.64709 -3.82439 0
M  V30 46915 H 4478.22 4.33896 -3.12471 0
M  V30 46916 H 4478.56 3.89449 -1.47089 0
M  V30 46917 H 4479.09 2.83047 -2.79517 0
M  V30 46918 H 4475.83 3.08884 -5.78161 0
M  V30 46919 H 4475.35 4.08703 -4.39001 0
M  V30 46920 H 4477.03 4.12674 -4.98306 0
M  V30 46921 N 4477.16 1.24636 0.964549 0
M  V30 46922 C 4478.41 1.08194 1.70226 0
M  V30 46923 C 4478.73 -0.378663 1.919 0
M  V30 46924 O 4479.93 -0.663334 2.63272 0
M  V30 46925 C 4478.39 1.88783 3.06413 0
M  V30 46926 C 4478 3.39274 2.9257 0
M  V30 46927 C 4479.74 1.8088 3.84035 0
M  V30 46928 C 4477.65 4.12195 4.24086 0
M  V30 46929 H 4476.58 0.401268 0.638357 0
M  V30 46930 H 4479.23 1.48745 1.07457 0
M  V30 46931 H 4477.61 1.41048 3.70029 0
M  V30 46932 H 4478.78 3.94611 2.37947 0
M  V30 46933 H 4477.1 3.48162 2.28412 0
M  V30 46934 H 4479.7 2.32663 4.81427 0
M  V30 46935 H 4480.04 0.774687 4.09028 0
M  V30 46936 H 4480.57 2.26312 3.27151 0
M  V30 46937 H 4477.31 5.15979 4.04284 0
M  V30 46938 H 4476.83 3.61643 4.78513 0
M  V30 46939 H 4478.51 4.19366 4.92687 0
M  V30 46940 N 4478.64 -1.1657 1.06062 0
M  V30 46941 C 4479.61 -2.19082 0.673469 0
M  V30 46942 C 4480.61 -1.58351 -0.279592 0
M  V30 46943 O 4481.8 -1.74089 -0.0622876 0
M  V30 46944 C 4478.93 -3.40899 -0.00942249 0
M  V30 46945 H 4480.12 -2.54848 1.5809 0
M  V30 46946 H 4477.67 -1.30805 0.855562 0
M  V30 46947 H 4478.41 -3.10688 -0.929717 0
M  V30 46948 H 4478.19 -3.86231 0.675866 0
M  V30 46949 H 4479.68 -4.16751 -0.266098 0
M  V30 46950 N 4480.12 -0.842873 -1.33167 0
M  V30 46951 C 4481.37 -0.436807 -1.96913 0
M  V30 46952 C 4481.68 1.01019 -1.67495 0
M  V30 46953 O 4482.89 1.52112 -2.24887 0
M  V30 46954 C 4481.35 -0.730144 -3.52416 0
M  V30 46955 C 4480.95 -2.19209 -3.90707 0
M  V30 46956 C 4482.7 -0.391225 -4.22693 0
M  V30 46957 C 4480.6 -2.42926 -5.39204 0
M  V30 46958 H 4479.53 -0.159606 -0.736914 0
M  V30 46959 H 4482.19 -1.03201 -1.51729 0
M  V30 46960 H 4480.57 -0.0645147 -3.95947 0
M  V30 46961 H 4481.74 -2.89853 -3.58221 0
M  V30 46962 H 4480.06 -2.49437 -3.33422 0
M  V30 46963 H 4482.65 -0.546004 -5.31905 0
M  V30 46964 H 4483 0.66615 -4.10936 0
M  V30 46965 H 4483.53 -1.01225 -3.84705 0
M  V30 46966 H 4480.27 -3.47244 -5.5597 0
M  V30 46967 H 4479.79 -1.76847 -5.73136 0
M  V30 46968 H 4481.47 -2.26281 -6.0614 0
M  V30 46969 N 4481.6 1.45745 -0.599685 0
M  V30 46970 C 4482.53 2.33235 0.111224 0
M  V30 46971 C 4483.51 1.46362 0.866729 0
M  V30 46972 O 4484.7 1.75149 0.838843 0
M  V30 46973 C 4481.83 3.28936 1.11439 0
M  V30 46974 C 4480.78 4.25383 0.472622 0
M  V30 46975 C 4480.11 5.10715 1.58347 0
M  V30 46976 C 4481.41 5.18829 -0.601131 0
M  V30 46977 H 4483.1 2.92925 -0.619293 0
M  V30 46978 H 4480.65 1.40856 -0.299265 0
M  V30 46979 H 4482.6 3.89007 1.62023 0
M  V30 46980 H 4481.32 2.67388 1.8754 0
M  V30 46981 H 4479.98 3.66598 -0.0122761 0
M  V30 46982 H 4479.63 4.45541 2.33457 0
M  V30 46983 H 4479.33 5.76044 1.15961 0
M  V30 46984 H 4480.85 5.73654 2.09173 0
M  V30 46985 H 4482.27 5.73018 -0.179692 0
M  V30 46986 H 4480.66 5.92592 -0.946284 0
M  V30 46987 H 4481.73 4.61735 -1.48084 0
M  V30 46988 N 4483.08 0.338398 1.53924 0
M  V30 46989 C 4484.32 -0.260073 2.01125 0
M  V30 46990 C 4484.66 -1.50613 1.22594 0
M  V30 46991 O 4483.93 -1.91978 0.31218 0
M  V30 46992 C 4484.21 -0.579374 3.55409 0
M  V30 46993 C 4484.07 0.678421 4.44654 0
M  V30 46994 C 4485.39 -1.39107 4.17537 0
M  V30 46995 H 4482.51 -0.0930515 0.731102 0
M  V30 46996 H 4485.15 0.457916 1.84399 0
M  V30 46997 H 4483.3 -1.19105 3.69792 0
M  V30 46998 H 4484.97 1.31647 4.42116 0
M  V30 46999 H 4483.21 1.30435 4.13726 0
M  V30 47000 H 4483.88 0.410337 5.50473 0
M  V30 47001 H 4486.36 -0.873892 4.0682 0
M  V30 47002 H 4485.24 -1.58324 5.25571 0
M  V30 47003 H 4485.5 -2.39165 3.71823 0
M  V30 47004 N 4484.56 -1.57458 0.0668989 0
M  V30 47005 C 4485.78 -1.97626 -0.612496 0
M  V30 47006 C 4486.2 -0.945077 -1.63443 0
M  V30 47007 O 4485.56 0.0688635 -1.8237 0
M  V30 47008 C 4485.61 -3.37874 -1.28544 0
M  V30 47009 O 4485.33 -4.37041 -0.304404 0
M  V30 47010 C 4486.83 -3.92889 -2.05311 0
M  V30 47011 H 4484.05 -0.650051 -0.166358 0
M  V30 47012 H 4486.59 -2.04035 0.137854 0
M  V30 47013 H 4484.75 -3.32567 -1.98691 0
M  V30 47014 H 4485.16 -5.18568 -0.786597 0
M  V30 47015 H 4486.64 -4.93256 -2.47795 0
M  V30 47016 H 4487.11 -3.29166 -2.90768 0
M  V30 47017 H 4487.72 -4.01582 -1.40042 0
M  V30 47018 N 4486.03 0.20662 -1.5624 0
M  V30 47019 C 4487.27 0.935676 -1.81726 0
M  V30 47020 C 4487.64 1.80925 -0.642673 0
M  V30 47021 O 4488.84 2.5732 -0.777171 0
M  V30 47022 C 4487.11 1.74001 -3.12183 0
M  V30 47023 S 4488.67 2.52266 -3.59036 0
M  V30 47024 H 4485.49 0.314042 -0.637886 0
M  V30 47025 H 4488.09 0.200003 -1.94474 0
M  V30 47026 H 4486.79 1.08866 -3.95697 0
M  V30 47027 H 4486.32 2.51771 -3.02283 0
M  V30 47028 H 4488.34 3.76198 -3.23558 0
M  V30 47029 N 4487.51 1.50306 0.473902 0
M  V30 47030 C 4488.47 1.68416 1.55463 0
M  V30 47031 C 4489.47 0.554958 1.5092 0
M  V30 47032 O 4490.66 0.821936 1.5359 0
M  V30 47033 C 4487.8 1.70678 2.95096 0
M  V30 47034 H 4488.99 2.64833 1.40724 0
M  V30 47035 H 4486.54 1.39745 0.700083 0
M  V30 47036 H 4487.28 0.759431 3.15283 0
M  V30 47037 H 4487.06 2.52709 2.99801 0
M  V30 47038 H 4488.55 1.86653 3.73565 0
M  V30 47039 N 4488.99 -0.726883 1.39836 0
M  V30 47040 C 4489.95 -1.82264 1.38969 0
M  V30 47041 C 4490.95 -1.58247 0.28539 0
M  V30 47042 O 4492.14 -1.65497 0.543718 0
M  V30 47043 C 4489.27 -3.20182 1.1703 0
M  V30 47044 H 4490.47 -1.84435 2.36482 0
M  V30 47045 H 4488.02 -0.931371 1.2552 0
M  V30 47046 H 4488.76 -3.23668 0.202318 0
M  V30 47047 H 4488.54 -3.39013 1.97009 0
M  V30 47048 H 4490.03 -4.00231 1.19184 0
M  V30 47049 N 4490.47 -1.25146 -0.957926 0
M  V30 47050 C 4491.7 -1.12267 -1.73435 0
M  V30 47051 C 4492.11 0.326649 -1.86359 0
M  V30 47052 O 4491.45 1.23665 -1.3584 0
M  V30 47053 C 4491.51 -1.69977 -3.16778 0
M  V30 47054 C 4491.17 -3.18947 -3.27294 0
M  V30 47055 C 4492.17 -4.15979 -3.11862 0
M  V30 47056 C 4489.86 -3.59095 -3.51221 0
M  V30 47057 C 4491.85 -5.51137 -3.20197 0
M  V30 47058 C 4489.54 -4.94392 -3.59193 0
M  V30 47059 C 4490.54 -5.90223 -3.43695 0
M  V30 47060 O 4490.22 -7.23059 -3.51342 0
M  V30 47061 H 4489.96 -0.392495 -0.550385 0
M  V30 47062 H 4492.51 -1.65931 -1.21062 0
M  V30 47063 H 4490.74 -1.10757 -3.70499 0
M  V30 47064 H 4492.43 -1.52245 -3.76266 0
M  V30 47065 H 4493.19 -3.86302 -2.9325 0
M  V30 47066 H 4489.07 -2.85002 -3.62346 0
M  V30 47067 H 4492.62 -6.25916 -3.08018 0
M  V30 47068 H 4488.51 -5.23736 -3.77321 0
M  V30 47069 H 4489.28 -7.3111 -3.67995 0
M  V30 47070 N 4491.95 1.16006 -1.06679 0
M  V30 47071 C 4493.18 1.90248 -0.805564 0
M  V30 47072 C 4493.58 1.77893 0.644248 0
M  V30 47073 O 4492.93 1.12388 1.45309 0
M  V30 47074 C 4492.99 3.41415 -1.12588 0
M  V30 47075 C 4492.65 3.77555 -2.5749 0
M  V30 47076 C 4493.65 3.79148 -3.55728 0
M  V30 47077 C 4491.33 4.08069 -2.92891 0
M  V30 47078 C 4493.33 4.1075 -4.87405 0
M  V30 47079 C 4491.02 4.39336 -4.24767 0
M  V30 47080 C 4492.01 4.40657 -5.21834 0
M  V30 47081 O 4491.7 4.71179 -6.51341 0
M  V30 47082 H 4491.43 0.610008 -0.291319 0
M  V30 47083 H 4493.99 1.47953 -1.42475 0
M  V30 47084 H 4492.22 3.84077 -0.449638 0
M  V30 47085 H 4493.91 3.96937 -0.848279 0
M  V30 47086 H 4494.67 3.55682 -3.29721 0
M  V30 47087 H 4490.55 4.06203 -2.17991 0
M  V30 47088 H 4494.1 4.11696 -5.63163 0
M  V30 47089 H 4489.99 4.62269 -4.50531 0
M  V30 47090 H 4490.76 4.88973 -6.5639 0
M  V30 47091 N 4493.42 0.849923 1.32718 0
M  V30 47092 C 4494.67 0.450992 1.97414 0
M  V30 47093 C 4495 -0.992317 1.67282 0
M  V30 47094 O 4494.25 -1.71045 0.950905 0
M  V30 47095 C 4494.55 0.631395 3.51779 0
M  V30 47096 C 4494.22 2.04446 4.01886 0
M  V30 47097 C 4492.88 2.43095 4.15281 0
M  V30 47098 C 4495.23 2.96694 4.28511 0
M  V30 47099 C 4492.56 3.73273 4.52641 0
M  V30 47100 C 4494.91 4.26366 4.67328 0
M  V30 47101 C 4493.58 4.64956 4.78929 0
M  V30 47102 H 4492.85 0.16503 0.722389 0
M  V30 47103 H 4495.49 1.07907 1.58203 0
M  V30 47104 H 4493.8 -0.0799389 3.91718 0
M  V30 47105 H 4495.5 0.30285 3.99855 0
M  V30 47106 H 4492.09 1.73433 3.91943 0
M  V30 47107 H 4496.27 2.68068 4.17676 0
M  V30 47108 H 4491.53 4.02962 4.59817 0
M  V30 47109 H 4495.7 4.97912 4.86884 0
M  V30 47110 H 4493.33 5.65872 5.07634 0
M  V30 47111 N 4494.9 -1.45425 0.607406 0
M  V30 47112 C 4495.84 -2.27636 -0.160402 0
M  V30 47113 C 4496.81 -1.37125 -0.873808 0
M  V30 47114 O 4498 -1.66554 -0.882716 0
M  V30 47115 C 4495.12 -3.15491 -1.2322 0
M  V30 47116 C 4494.17 -4.21941 -0.621949 0
M  V30 47117 S 4495 -5.32457 0.570039 0
M  V30 47118 C 4496.16 -6.23881 -0.502358 0
M  V30 47119 H 4496.39 -2.92408 0.537086 0
M  V30 47120 H 4493.93 -1.49264 0.394921 0
M  V30 47121 H 4495.88 -3.66665 -1.84572 0
M  V30 47122 H 4494.54 -2.49984 -1.90176 0
M  V30 47123 H 4493.74 -4.83335 -1.42839 0
M  V30 47124 H 4493.34 -3.73907 -0.0835749 0
M  V30 47125 H 4495.63 -6.63266 -1.38148 0
M  V30 47126 H 4496.57 -7.0806 0.0754248 0
M  V30 47127 H 4496.98 -5.58548 -0.817604 0
M  V30 47128 N 4496.38 -0.346557 -1.53742 0
M  V30 47129 C 4497.33 0.508835 -2.25121 0
M  V30 47130 C 4498.3 1.0931 -1.25062 0
M  V30 47131 O 4499.48 1.12916 -1.53801 0
M  V30 47132 C 4496.62 1.65235 -3.02971 0
M  V30 47133 C 4495.74 1.0951 -4.17889 0
M  V30 47134 C 4494.87 2.20617 -4.8322 0
M  V30 47135 C 4493.91 1.62258 -5.90202 0
M  V30 47136 N 4493.05 2.6712 -6.49301 0
M  V30 47137 H 4497.89 -0.106388 -2.9781 0
M  V30 47138 H 4495.42 -0.0642744 -1.4696 0
M  V30 47139 H 4497.38 2.32561 -3.46368 0
M  V30 47140 H 4496.01 2.23852 -2.32573 0
M  V30 47141 H 4495.06 0.312685 -3.79113 0
M  V30 47142 H 4496.38 0.62827 -4.94827 0
M  V30 47143 H 4495.53 2.95802 -5.29704 0
M  V30 47144 H 4494.27 2.70645 -4.05713 0
M  V30 47145 H 4493.27 0.855798 -5.43099 0
M  V30 47146 H 4494.5 1.13079 -6.69619 0
M  V30 47147 H 4492.44 3.16396 -5.74656 0
M  V30 47148 H 4492.36 2.25068 -7.2172 0
M  V30 47149 H 4493.63 3.42065 -7.00437 0
M  V30 47150 N 4497.86 1.5742 -0.0752483 0
M  V30 47151 C 4499.11 1.9362 0.593078 0
M  V30 47152 C 4499.43 0.955543 1.6941 0
M  V30 47153 O 4498.69 -0.0282563 1.9568 0
M  V30 47154 C 4498.99 3.36433 1.20614 0
M  V30 47155 C 4498.65 4.50308 0.23092 0
M  V30 47156 C 4497.32 4.81185 -0.0373627 0
M  V30 47157 C 4499.67 5.19373 -0.436071 0
M  V30 47158 C 4497 5.78463 -0.979664 0
M  V30 47159 C 4499.35 6.1766 -1.36672 0
M  V30 47160 C 4498.01 6.46953 -1.64343 0
M  V30 47161 H 4497.28 0.708507 0.217023 0
M  V30 47162 H 4499.93 1.90936 -0.14686 0
M  V30 47163 H 4498.23 3.35599 2.02189 0
M  V30 47164 H 4499.93 3.61733 1.73061 0
M  V30 47165 H 4496.52 4.26229 0.450207 0
M  V30 47166 H 4500.7 4.9571 -0.241923 0
M  V30 47167 H 4495.96 5.99483 -1.20127 0
M  V30 47168 H 4500.13 6.70277 -1.88947 0
M  V30 47169 H 4497.76 7.22142 -2.3752 0
M  V30 47170 N 4499.34 -0.198331 1.56347 0
M  V30 47171 C 4500.75 -0.549032 1.49859 0
M  V30 47172 C 4500.95 -1.86013 0.774677 0
M  V30 47173 O 4500.01 -2.50414 0.323864 0
M  V30 47174 C 4501.32 -0.606765 2.94515 0
M  V30 47175 C 4502.87 -0.695818 3.05168 0
M  V30 47176 C 4503.34 -0.78469 4.51228 0
M  V30 47177 N 4504.84 -0.848303 4.55366 0
M  V30 47178 C 4505.57 -0.937179 5.65689 0
M  V30 47179 N 4505.07 -0.988559 6.85711 0
M  V30 47180 N 4506.86 -0.974118 5.53595 0
M  V30 47181 H 4499.01 0.661726 2.01829 0
M  V30 47182 H 4501.27 0.235293 0.918336 0
M  V30 47183 H 4500.98 0.287443 3.50523 0
M  V30 47184 H 4500.85 -1.46256 3.47691 0
M  V30 47185 H 4503.24 -1.58046 2.4921 0
M  V30 47186 H 4503.32 0.186111 2.55122 0
M  V30 47187 H 4502.97 0.0955857 5.0781 0
M  V30 47188 H 4502.9 -1.68237 4.99003 0
M  V30 47189 H 4505.39 -0.817973 3.68941 0
M  V30 47190 H 4505.7 -1.0568 7.6554 0
M  V30 47191 H 4504.04 -0.957292 6.88376 0
M  V30 47192 H 4507.24 -0.930793 4.58753 0
M  V30 47193 H 4507.41 -1.03992 6.39601 0
M  V30 47194 N 4500.81 -1.50555 -0.465925 0
M  V30 47195 C 4502.23 -1.38096 -0.800106 0
M  V30 47196 C 4502.43 -0.441057 -1.96614 0
M  V30 47197 O 4501.49 0.11441 -2.52241 0
M  V30 47198 C 4502.8 -2.79569 -1.10732 0
M  V30 47199 C 4504.35 -2.8852 -1.21347 0
M  V30 47200 C 4504.82 -4.30838 -1.55378 0
M  V30 47201 N 4506.31 -4.33813 -1.62359 0
M  V30 47202 C 4507.05 -5.40934 -1.90206 0
M  V30 47203 N 4506.54 -6.58255 -2.16039 0
M  V30 47204 N 4508.34 -5.28382 -1.91751 0
M  V30 47205 H 4500.49 -2.10236 0.30244 0
M  V30 47206 H 4502.75 -0.9452 0.0728078 0
M  V30 47207 H 4502.46 -3.50209 -0.323538 0
M  V30 47208 H 4502.33 -3.17132 -2.04223 0
M  V30 47209 H 4504.72 -2.18097 -1.98791 0
M  V30 47210 H 4504.8 -2.54493 -0.258231 0
M  V30 47211 H 4504.44 -5.01801 -0.784713 0
M  V30 47212 H 4504.37 -4.62356 -2.5206 0
M  V30 47213 H 4506.86 -3.49217 -1.44415 0
M  V30 47214 H 4507.18 -7.35698 -2.36575 0
M  V30 47215 H 4505.52 -6.6142 -2.1342 0
M  V30 47216 H 4508.71 -4.35721 -1.7107 0
M  V30 47217 H 4508.89 -6.11952 -2.13118 0
M  V30 47218 N 4502.29 0.719457 -1.4022 0
M  V30 47219 C 4503.54 1.48147 -1.38493 0
M  V30 47220 C 4503.87 1.94195 0.0141185 0
M  V30 47221 O 4503.15 1.67888 0.982037 0
M  V30 47222 C 4503.43 2.71027 -2.371 0
M  V30 47223 C 4503.28 2.30898 -3.86013 0
M  V30 47224 C 4504.6 3.73174 -2.33301 0
M  V30 47225 H 4501.72 0.537377 -0.504376 0
M  V30 47226 H 4504.36 0.821412 -1.71327 0
M  V30 47227 H 4502.51 3.27345 -2.09231 0
M  V30 47228 H 4504.18 1.80092 -4.24694 0
M  V30 47229 H 4502.43 1.62944 -4.02034 0
M  V30 47230 H 4503.1 3.18962 -4.50519 0
M  V30 47231 H 4505.57 3.26476 -2.57978 0
M  V30 47232 H 4504.45 4.56795 -3.0435 0
M  V30 47233 H 4504.71 4.21198 -1.34332 0
M  V30 47234 N 4503.77 1.25652 0.951275 0
M  V30 47235 C 4505.02 1.106 1.69629 0
M  V30 47236 C 4505.35 -0.352448 1.9128 0
M  V30 47237 O 4504.6 -1.27596 1.48384 0
M  V30 47238 C 4504.9 1.8092 3.08225 0
M  V30 47239 C 4504.57 3.30836 3.06363 0
M  V30 47240 C 4503.23 3.71732 3.05563 0
M  V30 47241 C 4505.58 4.266 2.99437 0
M  V30 47242 C 4502.91 5.06798 2.95589 0
M  V30 47243 C 4505.26 5.61693 2.91004 0
M  V30 47244 C 4503.92 6.01914 2.88541 0
M  V30 47245 H 4503.19 0.404713 0.620716 0
M  V30 47246 H 4505.84 1.55968 1.11114 0
M  V30 47247 H 4504.15 1.27992 3.70304 0
M  V30 47248 H 4505.84 1.66723 3.64698 0
M  V30 47249 H 4502.43 2.98298 3.0776 0
M  V30 47250 H 4506.62 3.95993 2.99171 0
M  V30 47251 H 4501.87 5.37136 2.92053 0
M  V30 47252 H 4506.05 6.35588 2.84607 0
M  V30 47253 H 4503.67 7.06531 2.80568 0
M  V30 47254 N 4505.25 -1.15438 1.07293 0
M  V30 47255 C 4506.5 -1.85843 0.794161 0
M  V30 47256 C 4506.82 -1.82694 -0.681744 0
M  V30 47257 O 4506.09 -1.26747 -1.49372 0
M  V30 47258 H 4504.67 -0.688078 0.290787 0
M  V30 47259 H 4507.33 -1.39942 1.35655 0
M  V30 47260 H 4506.43 -2.90997 1.12814 0
M  V30 47261 N 4506.73 -0.85695 -1.32265 0
M  V30 47262 C 4507.64 -0.306212 -2.32593 0
M  V30 47263 C 4508.65 0.577152 -1.64149 0
M  V30 47264 O 4509.83 0.476974 -1.9567 0
M  V30 47265 C 4506.89 0.49444 -3.43156 0
M  V30 47266 C 4505.95 -0.415336 -4.27286 0
M  V30 47267 C 4505.19 0.347199 -5.32569 0
M  V30 47268 O 4505.41 1.57689 -5.4817 0
M  V30 47269 O 4504.34 -0.288193 -6.0121 0
M  V30 47270 H 4508.17 -1.13747 -2.81594 0
M  V30 47271 H 4505.76 -0.61995 -1.3593 0
M  V30 47272 H 4507.64 0.948799 -4.1058 0
M  V30 47273 H 4506.31 1.30246 -2.9634 0
M  V30 47274 H 4505.22 -0.91792 -3.62664 0
M  V30 47275 H 4506.55 -1.1886 -4.77633 0
M  V30 47276 N 4508.2 1.45101 -0.61511 0
M  V30 47277 C 4509.43 2.06253 -0.119668 0
M  V30 47278 C 4509.84 1.45914 1.20439 0
M  V30 47279 O 4509.19 0.570445 1.74618 0
M  V30 47280 C 4509.25 3.59396 0.0864328 0
M  V30 47281 C 4508.91 4.42112 -1.15699 0
M  V30 47282 C 4509.91 4.76613 -2.07692 0
M  V30 47283 C 4507.59 4.82744 -1.38792 0
M  V30 47284 C 4509.59 5.50611 -3.21102 0
M  V30 47285 C 4507.27 5.56495 -2.52501 0
M  V30 47286 C 4508.27 5.90346 -3.43483 0
M  V30 47287 O 4507.96 6.62599 -4.55212 0
M  V30 47288 H 4507.69 0.67242 -0.0694748 0
M  V30 47289 H 4510.25 1.87216 -0.844951 0
M  V30 47290 H 4508.48 3.76863 0.86669 0
M  V30 47291 H 4510.17 4.02367 0.534414 0
M  V30 47292 H 4510.93 4.45773 -1.91079 0
M  V30 47293 H 4506.81 4.55827 -0.688705 0
M  V30 47294 H 4510.35 5.76951 -3.9214 0
M  V30 47295 H 4506.25 5.86749 -2.69064 0
M  V30 47296 H 4507.02 6.81055 -4.5399 0
M  V30 47297 N 4509.68 0.354705 1.53557 0
M  V30 47298 C 4510.63 -0.512115 2.26892 0
M  V30 47299 C 4511.63 -1.09258 1.29456 0
M  V30 47300 O 4512.83 -1.03704 1.47124 0
M  V30 47301 H 4509.21 -0.183853 0.729179 0
M  V30 47302 H 4511.18 0.128307 2.98124 0
M  V30 47303 C 4509.93 -1.64553 3.06297 0
M  V30 47304 H 4509.25 -1.20815 3.81109 0
M  V30 47305 H 4510.69 -2.22699 3.60806 0
M  V30 47306 C 4509.15 -2.5815 2.16472 0
M  V30 47307 O 4509.68 -3.60689 1.76823 0
M  V30 47308 N 4507.88 -2.2709 1.81325 0
M  V30 47309 H 4507.43 -1.43744 2.13765 0
M  V30 47310 H 4507.39 -2.89971 1.21508 0
M  V30 47311 N 4511.16 -1.57378 0.0835957 0
M  V30 47312 C 4512.11 -2.09919 -0.889831 0
M  V30 47313 C 4513.1 -1.01156 -1.25125 0
M  V30 47314 O 4514.29 -1.27448 -1.22826 0
M  V30 47315 C 4511.42 -2.67387 -2.15312 0
M  V30 47316 C 4510.5 -3.83174 -1.81765 0
M  V30 47317 N 4510.89 -4.91669 -1.18722 0
M  V30 47318 C 4509.19 -3.92692 -2.11445 0
M  V30 47319 C 4509.89 -5.72413 -1.0353 0
M  V30 47320 N 4508.87 -5.21067 -1.54887 0
M  V30 47321 H 4512.67 -2.91189 -0.398275 0
M  V30 47322 H 4510.18 -1.61956 -0.119956 0
M  V30 47323 H 4512.18 -3.0335 -2.8598 0
M  V30 47324 H 4510.84 -1.87568 -2.65044 0
M  V30 47325 H 4511.85 -5.10787 -0.855425 0
M  V30 47326 H 4508.53 -3.23865 -2.63472 0
M  V30 47327 H 4509.92 -6.69701 -0.54319 0
M  V30 47328 N 4512.64 0.190037 -1.5645 0
M  V30 47329 C 4513.89 0.910989 -1.81187 0
M  V30 47330 C 4514.22 1.82696 -0.65846 0
M  V30 47331 O 4513.49 1.91493 0.340708 0
M  V30 47332 C 4513.78 1.72286 -3.16211 0
M  V30 47333 C 4513.63 0.831263 -4.42052 0
M  V30 47334 C 4514.95 2.69442 -3.47979 0
M  V30 47335 H 4512.07 0.329747 -0.659118 0
M  V30 47336 H 4514.71 0.178102 -1.89163 0
M  V30 47337 H 4512.86 2.34767 -3.09543 0
M  V30 47338 H 4514.53 0.220767 -4.60771 0
M  V30 47339 H 4512.77 0.138254 -4.3358 0
M  V30 47340 H 4513.45 1.43442 -5.33037 0
M  V30 47341 H 4515.92 2.17091 -3.5498 0
M  V30 47342 H 4514.8 3.23326 -4.43566 0
M  V30 47343 H 4515.06 3.48734 -2.71729 0
M  V30 47344 N 4514.12 1.508 0.457934 0
M  V30 47345 C 4515.36 1.62687 1.21082 0
M  V30 47346 C 4515.7 0.332335 1.91335 0
M  V30 47347 O 4514.97 -0.666979 1.82706 0
M  V30 47348 C 4515.25 2.81623 2.24412 0
M  V30 47349 C 4515.11 4.20995 1.58377 0
M  V30 47350 C 4516.43 2.96096 3.256 0
M  V30 47351 H 4513.55 0.592103 0.438843 0
M  V30 47352 H 4516.19 1.83227 0.502796 0
M  V30 47353 H 4514.34 2.64241 2.84796 0
M  V30 47354 H 4516.01 4.49998 1.01488 0
M  V30 47355 H 4514.25 4.24644 0.886555 0
M  V30 47356 H 4514.92 5.00168 2.33529 0
M  V30 47357 H 4517.4 3.12052 2.75251 0
M  V30 47358 H 4516.28 3.80916 3.95215 0
M  V30 47359 H 4516.54 2.07274 3.905 0
M  V30 47360 N 4515.6 -0.71201 1.40599 0
M  V30 47361 C 4516.56 -1.8078 1.40894 0
M  V30 47362 C 4517.56 -1.57936 0.302158 0
M  V30 47363 O 4518.75 -1.64911 0.56124 0
M  V30 47364 C 4515.88 -3.18923 1.2042 0
M  V30 47365 H 4517.07 -1.81916 2.38425 0
M  V30 47366 H 4514.63 -0.918006 1.265 0
M  V30 47367 H 4515.36 -3.23436 0.236636 0
M  V30 47368 H 4515.15 -3.36904 2.00594 0
M  V30 47369 H 4516.64 -3.98944 1.23422 0
M  V30 47370 N 4517.07 -1.26155 -0.944598 0
M  V30 47371 C 4518.04 -1.07481 -2.02436 0
M  V30 47372 C 4519.04 -0.0242629 -1.60782 0
M  V30 47373 O 4520.23 -0.267363 -1.72136 0
M  V30 47374 C 4517.36 -0.634074 -3.34951 0
M  V30 47375 H 4518.55 -2.03343 -2.20435 0
M  V30 47376 H 4516.1 -1.08704 -1.12308 0
M  V30 47377 H 4516.84 0.326698 -3.2265 0
M  V30 47378 H 4516.62 -1.3926 -3.66537 0
M  V30 47379 H 4518.11 -0.525155 -4.14285 0
M  V30 47380 N 4518.55 1.14868 -1.07903 0
M  V30 47381 C 4519.5 2.21855 -0.698805 0
M  V30 47382 C 4520.49 1.66846 0.293028 0
M  V30 47383 O 4521.7 1.79321 0.156141 0
M  V30 47384 H 4518.07 0.722683 -0.207925 0
M  V30 47385 H 4520.05 2.512 -1.61063 0
M  V30 47386 C 4518.79 3.47497 -0.118702 0
M  V30 47387 H 4518.12 3.90151 -0.873051 0
M  V30 47388 H 4519.56 4.23858 0.10961 0
M  V30 47389 C 4518.02 3.16951 1.14209 0
M  V30 47390 O 4518.55 3.34268 2.22773 0
M  V30 47391 N 4516.75 2.7095 1.05046 0
M  V30 47392 H 4516.3 2.57058 0.166947 0
M  V30 47393 H 4516.26 2.50886 1.89482 0
M  V30 47394 N 4520.03 0.863952 1.31809 0
M  V30 47395 C 4520.99 0.320292 2.26951 0
M  V30 47396 C 4521.99 -0.525315 1.51977 0
M  V30 47397 O 4523.18 -0.335487 1.70939 0
M  V30 47398 C 4520.31 -0.545801 3.36502 0
M  V30 47399 H 4521.51 1.16013 2.76552 0
M  V30 47400 H 4519.06 0.639045 1.42639 0
M  V30 47401 H 4519.8 -1.40708 2.92184 0
M  V30 47402 H 4519.58 0.0596052 3.92055 0
M  V30 47403 H 4521.07 -0.918652 4.0737 0
M  V30 47404 N 4521.51 -1.44772 0.622796 0
M  V30 47405 C 4522.44 -2.33382 -0.0741041 0
M  V30 47406 C 4523.42 -1.47722 -0.843335 0
M  V30 47407 O 4524.6 -1.76461 -0.810872 0
M  V30 47408 C 4521.73 -3.30667 -1.06192 0
M  V30 47409 C 4520.69 -4.26081 -0.404887 0
M  V30 47410 C 4520.01 -5.1317 -1.50202 0
M  V30 47411 C 4521.31 -5.17807 0.683596 0
M  V30 47412 H 4523.01 -2.91903 0.665816 0
M  V30 47413 H 4520.55 -1.40362 0.321636 0
M  V30 47414 H 4522.51 -3.91536 -1.55813 0
M  V30 47415 H 4521.23 -2.70337 -1.83263 0
M  V30 47416 H 4519.89 -3.66532 0.0705971 0
M  V30 47417 H 4519.54 -4.49199 -2.26339 0
M  V30 47418 H 4519.24 -5.77816 -1.06782 0
M  V30 47419 H 4520.76 -5.76909 -2.00021 0
M  V30 47420 H 4522.18 -5.7266 0.270832 0
M  V30 47421 H 4520.57 -5.91012 1.04044 0
M  V30 47422 H 4521.64 -4.59321 1.55411 0
M  V30 47423 N 4522.99 -0.362844 -1.53366 0
M  V30 47424 C 4523.92 0.476896 -2.28578 0
M  V30 47425 C 4524.9 1.08627 -1.30898 0
M  V30 47426 O 4526.08 1.10403 -1.59765 0
M  V30 47427 C 4523.21 1.61817 -3.07299 0
M  V30 47428 C 4522.17 1.13619 -4.12644 0
M  V30 47429 C 4521.49 2.36749 -4.79431 0
M  V30 47430 C 4522.79 0.222877 -5.21824 0
M  V30 47431 H 4524.49 -0.150579 -2.99021 0
M  V30 47432 H 4522.03 -0.0738609 -1.4381 0
M  V30 47433 H 4523.98 2.21224 -3.58661 0
M  V30 47434 H 4522.71 2.27284 -2.34541 0
M  V30 47435 H 4521.37 0.564817 -3.62223 0
M  V30 47436 H 4521.02 3.00666 -4.03248 0
M  V30 47437 H 4520.72 2.05172 -5.50616 0
M  V30 47438 H 4522.24 2.96847 -5.33586 0
M  V30 47439 H 4523.65 0.724345 -5.68706 0
M  V30 47440 H 4522.05 -0.00188897 -6.001 0
M  V30 47441 H 4523.12 -0.735722 -4.79286 0
M  V30 47442 N 4524.46 1.57332 -0.0919406 0
M  V30 47443 C 4525.71 1.94238 0.572509 0
M  V30 47444 C 4526.04 0.973458 1.68387 0
M  V30 47445 O 4525.29 -0.00750032 1.95699 0
M  V30 47446 C 4525.59 3.37693 1.17039 0
M  V30 47447 C 4525.26 4.50528 0.183145 0
M  V30 47448 C 4523.92 4.81119 -0.0883968 0
M  V30 47449 C 4526.27 5.18881 -0.491132 0
M  V30 47450 C 4523.6 5.77391 -1.04096 0
M  V30 47451 C 4525.95 6.16175 -1.43215 0
M  V30 47452 C 4524.62 6.45173 -1.71196 0
M  V30 47453 H 4523.89 0.710769 0.209496 0
M  V30 47454 H 4526.53 1.9077 -0.167103 0
M  V30 47455 H 4524.84 3.37725 1.98618 0
M  V30 47456 H 4526.54 3.63549 1.69214 0
M  V30 47457 H 4523.13 4.26682 0.404974 0
M  V30 47458 H 4527.31 4.95426 -0.294486 0
M  V30 47459 H 4522.57 5.98175 -1.26478 0
M  V30 47460 H 4526.74 6.68236 -1.96046 0
M  V30 47461 H 4524.37 7.19582 -2.45166 0
M  V30 47462 N 4525.94 -0.181737 1.56549 0
M  V30 47463 C 4526.87 -1.22758 1.98627 0
M  V30 47464 C 4527.85 -1.46744 0.860241 0
M  V30 47465 O 4529.04 -1.58255 1.12556 0
M  V30 47466 C 4526.17 -2.56886 2.33724 0
M  V30 47467 C 4525.12 -2.47488 3.4919 0
M  V30 47468 C 4524.45 -3.8601 3.7 0
M  V30 47469 C 4525.75 -1.98849 4.82966 0
M  V30 47470 H 4527.44 -0.877842 2.86242 0
M  V30 47471 H 4524.99 -0.420832 1.37714 0
M  V30 47472 H 4526.94 -3.30244 2.61757 0
M  V30 47473 H 4525.67 -2.93627 1.43007 0
M  V30 47474 H 4524.32 -1.76584 3.21269 0
M  V30 47475 H 4523.97 -4.20127 2.76591 0
M  V30 47476 H 4523.67 -3.80593 4.47686 0
M  V30 47477 H 4525.2 -4.6097 4.00423 0
M  V30 47478 H 4526.61 -2.61974 5.09944 0
M  V30 47479 H 4525.01 -2.04404 5.64215 0
M  V30 47480 H 4526.08 -0.942298 4.75656 0
M  V30 47481 N 4527.42 -1.51041 -0.44993 0
M  V30 47482 C 4528.35 -1.66111 -1.56469 0
M  V30 47483 C 4529.33 -0.50883 -1.54433 0
M  V30 47484 O 4530.52 -0.731066 -1.73746 0
M  V30 47485 C 4527.64 -1.66314 -2.95055 0
M  V30 47486 C 4526.69 -2.87357 -3.15164 0
M  V30 47487 S 4527.52 -4.48361 -2.92802 0
M  V30 47488 C 4528.68 -4.51289 -4.33692 0
M  V30 47489 H 4528.91 -2.60403 -1.4345 0
M  V30 47490 H 4526.44 -1.40568 -0.638755 0
M  V30 47491 H 4528.4 -1.67116 -3.74943 0
M  V30 47492 H 4527.06 -0.732215 -3.05446 0
M  V30 47493 H 4526.26 -2.83864 -4.16458 0
M  V30 47494 H 4525.86 -2.84232 -2.43081 0
M  V30 47495 H 4528.15 -4.26155 -5.26686 0
M  V30 47496 H 4529.09 -5.53033 -4.42222 0
M  V30 47497 H 4529.5 -3.80752 -4.16759 0
M  V30 47498 N 4528.9 0.704544 -1.40975 0
M  V30 47499 C 4530.12 1.49853 -1.43383 0
M  V30 47500 C 4530.55 1.88061 -0.0382501 0
M  V30 47501 O 4529.91 1.54024 0.95637 0
M  V30 47502 C 4529.95 2.74325 -2.34048 0
M  V30 47503 O 4529.06 3.71463 -1.79133 0
M  V30 47504 H 4528.4 0.451373 -0.48699 0
M  V30 47505 H 4530.93 0.866767 -1.85333 0
M  V30 47506 H 4530.94 3.22733 -2.49615 0
M  V30 47507 H 4529.61 2.45851 -3.35455 0
M  V30 47508 H 4528.19 3.30357 -1.7297 0
M  V30 47509 N 4530.38 1.26654 0.937895 0
M  V30 47510 C 4531.62 1.12393 1.68446 0
M  V30 47511 C 4531.95 -0.33214 1.91643 0
M  V30 47512 O 4531.21 -1.26015 1.49729 0
M  V30 47513 C 4531.51 1.84179 3.06289 0
M  V30 47514 C 4531.17 3.34067 3.02837 0
M  V30 47515 C 4529.83 3.74952 3.01603 0
M  V30 47516 C 4532.19 4.29751 2.94895 0
M  V30 47517 C 4529.51 5.09905 2.90197 0
M  V30 47518 C 4531.87 5.64748 2.85031 0
M  V30 47519 C 4530.53 6.0494 2.82141 0
M  V30 47520 H 4529.8 0.411273 0.616389 0
M  V30 47521 H 4532.45 1.57138 1.09453 0
M  V30 47522 H 4530.75 1.31913 3.68926 0
M  V30 47523 H 4532.45 1.70581 3.62909 0
M  V30 47524 H 4529.04 3.01545 3.04579 0
M  V30 47525 H 4533.22 3.99143 2.94955 0
M  V30 47526 H 4528.48 5.40204 2.86339 0
M  V30 47527 H 4532.65 6.38571 2.77849 0
M  V30 47528 H 4530.28 7.09467 2.73059 0
M  V30 47529 N 4531.85 -1.14294 1.08511 0
M  V30 47530 C 4533.08 -1.89216 0.836943 0
M  V30 47531 C 4533.5 -1.7864 -0.610991 0
M  V30 47532 O 4532.85 -1.14648 -1.41994 0
M  V30 47533 C 4532.91 -3.39154 1.25128 0
M  V30 47534 O 4532.63 -3.4944 2.64242 0
M  V30 47535 C 4534.13 -4.31069 1.03413 0
M  V30 47536 H 4531.35 -0.599318 0.30176 0
M  V30 47537 H 4533.89 -1.44741 1.44466 0
M  V30 47538 H 4532.05 -3.81248 0.687648 0
M  V30 47539 H 4532.46 -4.42579 2.81467 0
M  V30 47540 H 4533.93 -5.34641 1.37342 0
M  V30 47541 H 4534.41 -4.39191 -0.0287715 0
M  V30 47542 H 4535.02 -3.94732 1.58325 0
M  V30 47543 N 4533.33 -0.87093 -1.31349 0
M  V30 47544 C 4534.58 -0.478477 -1.95943 0
M  V30 47545 C 4534.89 0.974433 -1.696 0
M  V30 47546 O 4536.1 1.47308 -2.28063 0
M  V30 47547 C 4534.56 -0.804733 -3.50788 0
M  V30 47548 C 4534.16 -2.27447 -3.85969 0
M  V30 47549 C 4535.91 -0.480796 -4.21768 0
M  V30 47550 C 4533.82 -2.54309 -5.3393 0
M  V30 47551 H 4532.75 -0.175201 -0.733363 0
M  V30 47552 H 4535.4 -1.06397 -1.49506 0
M  V30 47553 H 4533.78 -0.148487 -3.95722 0
M  V30 47554 H 4534.95 -2.97386 -3.51992 0
M  V30 47555 H 4533.27 -2.56453 -3.28056 0
M  V30 47556 H 4535.86 -0.658706 -5.30627 0
M  V30 47557 H 4536.21 0.578835 -4.12256 0
M  V30 47558 H 4536.74 -1.09363 -3.82472 0
M  V30 47559 H 4533.48 -3.58958 -5.48479 0
M  V30 47560 H 4533 -1.88965 -5.69256 0
M  V30 47561 H 4534.68 -2.39087 -6.01204 0
M  V30 47562 N 4534.81 1.4444 -0.630465 0
M  V30 47563 C 4535.74 2.33418 0.0617262 0
M  V30 47564 C 4536.72 1.48167 0.835489 0
M  V30 47565 O 4537.91 1.76889 0.801502 0
M  V30 47566 C 4535.04 3.31225 1.04437 0
M  V30 47567 C 4533.99 4.26289 0.382286 0
M  V30 47568 C 4533.32 5.13959 1.47479 0
M  V30 47569 C 4534.62 5.17437 -0.711047 0
M  V30 47570 H 4536.31 2.91546 -0.681287 0
M  V30 47571 H 4533.86 1.40189 -0.329075 0
M  V30 47572 H 4535.81 3.92356 1.53735 0
M  V30 47573 H 4534.53 2.71306 1.81826 0
M  V30 47574 H 4533.19 3.66489 -0.0900342 0
M  V30 47575 H 4532.84 4.50393 2.23954 0
M  V30 47576 H 4532.54 5.78374 1.03716 0
M  V30 47577 H 4534.06 5.77962 1.96958 0
M  V30 47578 H 4535.48 5.72508 -0.301198 0
M  V30 47579 H 4533.88 5.90452 -1.07177 0
M  V30 47580 H 4534.95 4.5849 -1.57845 0
M  V30 47581 N 4536.29 0.370972 1.53172 0
M  V30 47582 C 4537.53 -0.217035 2.03244 0
M  V30 47583 C 4537.89 -1.45554 1.25212 0
M  V30 47584 O 4539.09 -2.11951 1.65318 0
M  V30 47585 C 4537.36 -0.49654 3.53934 0
M  V30 47586 S 4538.92 -1.05745 4.25868 0
M  V30 47587 H 4535.74 -0.0627578 0.708225 0
M  V30 47588 H 4538.34 0.515085 1.88592 0
M  V30 47589 H 4537.05 0.41224 4.08324 0
M  V30 47590 H 4536.58 -1.25758 3.72758 0
M  V30 47591 H 4538.59 -2.34129 4.3749 0
M  V30 47592 N 4537.77 -1.57281 0.100283 0
M  V30 47593 C 4538.7 -2.17331 -0.853781 0
M  V30 47594 C 4539.68 -1.10809 -1.29056 0
M  V30 47595 O 4540.86 -1.38968 -1.35652 0
M  V30 47596 C 4537.99 -2.75779 -2.111 0
M  V30 47597 C 4536.95 -3.8772 -1.81266 0
M  V30 47598 C 4536.27 -4.32893 -3.13859 0
M  V30 47599 C 4537.57 -5.10681 -1.09556 0
M  V30 47600 H 4539.27 -2.97307 -0.353441 0
M  V30 47601 H 4536.81 -1.4301 -0.168562 0
M  V30 47602 H 4538.77 -3.16442 -2.78284 0
M  V30 47603 H 4537.49 -1.93066 -2.63426 0
M  V30 47604 H 4536.15 -3.47604 -1.16477 0
M  V30 47605 H 4535.8 -3.47063 -3.64082 0
M  V30 47606 H 4535.5 -5.08368 -2.94678 0
M  V30 47607 H 4537.02 -4.76193 -3.82194 0
M  V30 47608 H 4538.43 -5.4848 -1.6686 0
M  V30 47609 H 4536.83 -5.91619 -1.00536 0
M  V30 47610 H 4537.9 -4.84835 -0.0791595 0
M  V30 47611 N 4539.25 0.173432 -1.56643 0
M  V30 47612 C 4540.49 0.89172 -1.82143 0
M  V30 47613 C 4540.82 1.81988 -0.6778 0
M  V30 47614 O 4540.1 1.91843 0.320378 0
M  V30 47615 C 4540.38 1.68922 -3.18021 0
M  V30 47616 C 4540.24 0.784331 -4.42909 0
M  V30 47617 C 4541.55 2.65736 -3.50817 0
M  V30 47618 H 4538.67 0.322737 -0.662578 0
M  V30 47619 H 4541.32 0.158029 -1.89342 0
M  V30 47620 H 4539.47 2.31471 -3.12015 0
M  V30 47621 H 4541.14 0.171883 -4.6098 0
M  V30 47622 H 4539.38 0.0922593 -4.33702 0
M  V30 47623 H 4540.05 1.3778 -5.34528 0
M  V30 47624 H 4542.53 2.13314 -3.57262 0
M  V30 47625 H 4541.4 3.18604 -4.46971 0
M  V30 47626 H 4541.66 3.45833 -2.75413 0
M  V30 47627 N 4540.72 1.51278 0.441914 0
M  V30 47628 C 4542.13 1.56248 1.02193 0
M  V30 47629 C 4542.49 0.383217 1.92421 0
M  V30 47630 O 4541.61 -0.500539 2.10532 0
M  V30 47631 C 4542.21 2.83168 1.86014 0
M  V30 47632 C 4540.76 2.90725 2.39073 0
M  V30 47633 C 4539.91 2.50862 1.18166 0
M  V30 47634 H 4542.86 1.5712 0.223361 0
M  V30 47635 H 4542.88 2.66672 2.71415 0
M  V30 47636 H 4542.4 3.68978 1.20318 0
M  V30 47637 H 4540.5 2.09334 3.08237 0
M  V30 47638 H 4540.61 3.94275 2.72184 0
M  V30 47639 H 4538.97 2.03957 1.52557 0
M  V30 47640 H 4539.76 3.39012 0.540882 0
M  V30 47641 N 4542.2 -0.697058 1.41347 0
M  V30 47642 C 4543.16 -1.79276 1.42804 0
M  V30 47643 C 4544.16 -1.57606 0.318892 0
M  V30 47644 O 4545.35 -1.64307 0.5787 0
M  V30 47645 C 4542.49 -3.17628 1.23796 0
M  V30 47646 H 4543.68 -1.79377 2.40341 0
M  V30 47647 H 4541.23 -0.904537 1.27467 0
M  V30 47648 H 4541.97 -3.23166 0.270927 0
M  V30 47649 H 4541.75 -3.34758 2.04156 0
M  V30 47650 H 4543.24 -3.97613 1.27647 0
M  V30 47651 N 4543.68 -1.2715 -0.931165 0
M  V30 47652 C 4544.91 -1.1592 -1.71015 0
M  V30 47653 C 4545.32 0.287046 -1.8701 0
M  V30 47654 O 4544.66 1.20756 -1.38433 0
M  V30 47655 C 4544.72 -1.76658 -3.13101 0
M  V30 47656 C 4544.39 -3.25818 -3.20455 0
M  V30 47657 C 4545.38 -4.225 -3.02968 0
M  V30 47658 C 4543.07 -3.66464 -3.43525 0
M  V30 47659 C 4545.06 -5.57805 -3.08435 0
M  V30 47660 C 4542.75 -5.019 -3.48625 0
M  V30 47661 C 4543.75 -5.9738 -3.31098 0
M  V30 47662 O 4543.44 -7.30348 -3.35926 0
M  V30 47663 H 4543.17 -0.404081 -0.541936 0
M  V30 47664 H 4545.72 -1.68461 -1.17515 0
M  V30 47665 H 4543.95 -1.18591 -3.68067 0
M  V30 47666 H 4545.64 -1.60192 -3.72952 0
M  V30 47667 H 4546.41 -3.92435 -2.8499 0
M  V30 47668 H 4542.29 -2.92624 -3.5622 0
M  V30 47669 H 4545.83 -6.32309 -2.94672 0
M  V30 47670 H 4541.73 -5.31622 -3.66127 0
M  V30 47671 H 4542.49 -7.38751 -3.52404 0
M  V30 47672 N 4545.16 1.13717 -1.09116 0
M  V30 47673 C 4546.38 1.89311 -0.84712 0
M  V30 47674 C 4546.81 1.78418 0.595711 0
M  V30 47675 O 4546.17 1.12947 1.41819 0
M  V30 47676 C 4546.21 3.37005 -1.28296 0
M  V30 47677 O 4545.32 4.10052 -0.439411 0
M  V30 47678 H 4544.66 0.588734 -0.307064 0
M  V30 47679 H 4547.19 1.43897 -1.45447 0
M  V30 47680 H 4547.2 3.8783 -1.26697 0
M  V30 47681 H 4545.87 3.44251 -2.33375 0
M  V30 47682 H 4544.45 3.69264 -0.519442 0
M  V30 47683 N 4546.64 0.877884 1.30885 0
M  V30 47684 C 4547.88 0.492765 1.96413 0
M  V30 47685 C 4548.21 -0.956611 1.69349 0
M  V30 47686 O 4547.47 -1.68989 0.986972 0
M  V30 47687 C 4547.76 0.705871 3.5036 0
M  V30 47688 C 4547.43 2.12924 3.97459 0
M  V30 47689 C 4546.09 2.51849 4.10031 0
M  V30 47690 C 4548.44 3.05717 4.22122 0
M  V30 47691 C 4545.77 3.82791 4.44622 0
M  V30 47692 C 4548.12 4.36182 4.58179 0
M  V30 47693 C 4546.79 4.7501 4.68958 0
M  V30 47694 H 4546.06 0.180315 0.718726 0
M  V30 47695 H 4548.71 1.11238 1.55879 0
M  V30 47696 H 4547.01 0.00316832 3.918 0
M  V30 47697 H 4548.71 0.387597 3.99122 0
M  V30 47698 H 4545.3 1.81707 3.88176 0
M  V30 47699 H 4549.48 2.76867 4.11896 0
M  V30 47700 H 4544.74 4.12625 4.51166 0
M  V30 47701 H 4548.91 5.08128 4.76213 0
M  V30 47702 H 4546.54 5.76513 4.95517 0
M  V30 47703 N 4548.11 -1.44104 0.638116 0
M  V30 47704 C 4549.04 -2.33448 -0.0493466 0
M  V30 47705 C 4550.02 -1.48608 -0.827619 0
M  V30 47706 O 4551.21 -1.77311 -0.79211 0
M  V30 47707 C 4548.34 -3.31775 -1.02679 0
M  V30 47708 C 4547.29 -4.26486 -0.359673 0
M  V30 47709 C 4546.62 -5.14734 -1.44751 0
M  V30 47710 C 4547.92 -5.17053 0.738478 0
M  V30 47711 H 4549.61 -2.9118 0.696739 0
M  V30 47712 H 4547.16 -1.40013 0.336505 0
M  V30 47713 H 4549.11 -3.93166 -1.51652 0
M  V30 47714 H 4547.84 -2.72266 -1.80385 0
M  V30 47715 H 4546.5 -3.66437 0.109469 0
M  V30 47716 H 4546.14 -4.51574 -2.21562 0
M  V30 47717 H 4545.84 -5.78916 -1.00648 0
M  V30 47718 H 4547.37 -5.78998 -1.9389 0
M  V30 47719 H 4548.78 -5.7234 0.331555 0
M  V30 47720 H 4547.18 -5.89875 1.10307 0
M  V30 47721 H 4548.25 -4.57646 1.60274 0
M  V30 47722 N 4549.59 -0.37909 -1.52973 0
M  V30 47723 C 4551 0.097187 -1.86447 0
M  V30 47724 C 4551.35 1.47022 -1.29919 0
M  V30 47725 O 4550.48 2.07132 -0.626505 0
M  V30 47726 C 4551.07 0.183129 -3.38305 0
M  V30 47727 C 4549.63 0.603682 -3.71527 0
M  V30 47728 C 4548.78 -0.240729 -2.76253 0
M  V30 47729 H 4551.73 -0.597367 -1.47028 0
M  V30 47730 H 4551.75 1.0042 -3.6701 0
M  V30 47731 H 4551.26 -0.816324 -3.79418 0
M  V30 47732 H 4549.36 1.61087 -3.35979 0
M  V30 47733 H 4549.48 0.368918 -4.77678 0
M  V30 47734 H 4547.84 0.292459 -2.53015 0
M  V30 47735 H 4548.62 -1.23797 -3.20202 0
M  V30 47736 N 4551.07 1.57225 -0.108623 0
M  V30 47737 C 4552.32 1.9445 0.550785 0
M  V30 47738 C 4552.64 0.992133 1.67874 0
M  V30 47739 O 4551.91 0.0465688 1.95845 0
M  V30 47740 H 4550.49 0.717904 0.206454 0
M  V30 47741 H 4553.15 1.94112 -0.17513 0
M  V30 47742 H 4552.25 2.97221 0.952154 0
M  V30 47743 N 4552.55 -0.165123 1.56733 0
M  V30 47744 C 4553.79 -0.882048 1.82614 0
M  V30 47745 C 4554.13 -1.81626 0.687442 0
M  V30 47746 O 4553.4 -1.9201 -0.3102 0
M  V30 47747 C 4553.68 -1.67233 3.18912 0
M  V30 47748 C 4553.54 -0.760832 4.43319 0
M  V30 47749 C 4554.86 -2.63872 3.52221 0
M  V30 47750 H 4551.98 -0.319219 0.66428 0
M  V30 47751 H 4554.62 -0.147985 1.89423 0
M  V30 47752 H 4552.77 -2.29813 3.13238 0
M  V30 47753 H 4554.44 -0.147434 4.61064 0
M  V30 47754 H 4552.68 -0.0692577 4.33745 0
M  V30 47755 H 4553.35 -1.34944 5.35252 0
M  V30 47756 H 4555.83 -2.11416 3.58389 0
M  V30 47757 H 4554.71 -3.16229 4.48654 0
M  V30 47758 H 4554.97 -3.44367 2.77243 0
M  V30 47759 N 4554.03 -1.5151 -0.433885 0
M  V30 47760 C 4555.26 -1.67918 -1.20363 0
M  V30 47761 C 4555.66 -0.377526 -1.85395 0
M  V30 47762 O 4555.01 0.654194 -1.71657 0
M  V30 47763 C 4555.07 -2.74053 -2.3267 0
M  V30 47764 C 4554.73 -4.1655 -1.87977 0
M  V30 47765 C 4555.73 -5.01215 -1.38127 0
M  V30 47766 C 4553.42 -4.62667 -1.95563 0
M  V30 47767 C 4555.41 -6.3006 -0.964553 0
M  V30 47768 C 4553.1 -5.91507 -1.53502 0
M  V30 47769 C 4554.09 -6.75031 -1.04031 0
M  V30 47770 O 4553.78 -8.01461 -0.625683 0
M  V30 47771 H 4553.51 -0.566591 -0.368715 0
M  V30 47772 H 4556.07 -1.98711 -0.51992 0
M  V30 47773 H 4554.3 -2.38582 -3.04328 0
M  V30 47774 H 4555.99 -2.79305 -2.94522 0
M  V30 47775 H 4556.75 -4.66788 -1.31658 0
M  V30 47776 H 4552.63 -3.97775 -2.33015 0
M  V30 47777 H 4556.18 -6.95204 -0.577716 0
M  V30 47778 H 4552.07 -6.25447 -1.59643 0
M  V30 47779 H 4552.84 -8.15045 -0.751222 0
M  V30 47780 N 4555.5 0.689552 -1.41714 0
M  V30 47781 C 4556.73 1.48324 -1.44964 0
M  V30 47782 C 4557.15 1.8801 -0.0581944 0
M  V30 47783 O 4556.51 1.55029 0.93998 0
M  V30 47784 C 4556.56 2.71827 -2.36944 0
M  V30 47785 O 4555.66 3.69542 -1.83063 0
M  V30 47786 H 4555.01 0.446182 -0.49175 0
M  V30 47787 H 4557.54 0.847062 -1.86242 0
M  V30 47788 H 4557.55 3.20067 -2.53024 0
M  V30 47789 H 4556.22 2.42279 -3.38044 0
M  V30 47790 H 4554.8 3.28504 -1.76464 0
M  V30 47791 N 4556.98 1.27642 0.924409 0
M  V30 47792 C 4558.23 1.14342 1.67493 0
M  V30 47793 C 4558.56 -0.309397 1.9172 0
M  V30 47794 O 4557.84 -1.22603 1.50993 0
M  V30 47795 C 4558.12 1.93107 3.03944 0
M  V30 47796 C 4557.97 3.46391 2.86937 0
M  V30 47797 C 4559.29 1.73812 4.04323 0
M  V30 47798 H 4556.41 0.416749 0.607856 0
M  V30 47799 H 4559.05 1.56836 1.0725 0
M  V30 47800 H 4557.2 1.56994 3.55366 0
M  V30 47801 H 4558.87 3.92351 2.42607 0
M  V30 47802 H 4557.12 3.72564 2.22212 0
M  V30 47803 H 4557.79 3.96749 3.8379 0
M  V30 47804 H 4560.26 2.05306 3.61924 0
M  V30 47805 H 4559.14 2.31312 4.97781 0
M  V30 47806 H 4559.4 0.686879 4.36731 0
M  V30 47807 N 4558.46 -1.13137 1.09717 0
M  V30 47808 C 4559.71 -1.84481 0.835052 0
M  V30 47809 C 4560.04 -1.83691 -0.639354 0
M  V30 47810 O 4559.29 -1.27245 -1.48685 0
M  V30 47811 C 4559.59 -3.32162 1.31921 0
M  V30 47812 C 4559.26 -3.53129 2.80376 0
M  V30 47813 C 4557.92 -3.5856 3.20918 0
M  V30 47814 C 4560.27 -3.60853 3.76078 0
M  V30 47815 C 4557.6 -3.69251 4.55929 0
M  V30 47816 C 4559.95 -3.73072 5.10882 0
M  V30 47817 C 4558.61 -3.76756 5.51009 0
M  V30 47818 H 4557.88 -0.675063 0.305567 0
M  V30 47819 H 4560.53 -1.33549 1.37248 0
M  V30 47820 H 4558.84 -3.85466 0.701652 0
M  V30 47821 H 4560.53 -3.85817 1.09298 0
M  V30 47822 H 4557.12 -3.4956 2.48004 0
M  V30 47823 H 4561.31 -3.55934 3.45868 0
M  V30 47824 H 4556.56 -3.70371 4.86451 0
M  V30 47825 H 4560.74 -3.7799 5.8489 0
M  V30 47826 H 4558.36 -3.84792 6.55621 0
M  V30 47827 N 4559.94 -0.884812 -1.30418 0
M  V30 47828 C 4561.17 -0.517363 -2.00017 0
M  V30 47829 C 4561.58 0.898574 -1.665 0
M  V30 47830 O 4560.92 1.60242 -0.898237 0
M  V30 47831 C 4560.98 -0.61215 -3.5425 0
M  V30 47832 C 4560.65 -1.99237 -4.11283 0
M  V30 47833 C 4561.64 -2.96175 -4.2729 0
M  V30 47834 C 4559.33 -2.29771 -4.46666 0
M  V30 47835 C 4561.32 -4.21781 -4.77891 0
M  V30 47836 C 4559.01 -3.55623 -4.96966 0
M  V30 47837 C 4560.01 -4.51443 -5.12531 0
M  V30 47838 O 4559.69 -5.75063 -5.61746 0
M  V30 47839 H 4559.43 -0.198552 -0.646183 0
M  V30 47840 H 4561.98 -1.19196 -1.67277 0
M  V30 47841 H 4560.21 0.119425 -3.86516 0
M  V30 47842 H 4561.9 -0.256001 -4.05092 0
M  V30 47843 H 4562.67 -2.73896 -4.00257 0
M  V30 47844 H 4558.54 -1.55957 -4.33818 0
M  V30 47845 H 4562.09 -4.96578 -4.89955 0
M  V30 47846 H 4557.99 -3.77739 -5.23434 0
M  V30 47847 H 4558.75 -5.77442 -5.80089 0
M  V30 47848 N 4561.42 1.43763 -0.645749 0
M  V30 47849 C 4562.35 2.33471 0.0369656 0
M  V30 47850 C 4563.33 1.49045 0.819727 0
M  V30 47851 O 4564.51 1.77729 0.782696 0
M  V30 47852 C 4561.64 3.32314 1.00918 0
M  V30 47853 C 4560.6 4.26671 0.337051 0
M  V30 47854 C 4559.92 5.15495 1.42019 0
M  V30 47855 C 4561.22 5.16654 -0.765888 0
M  V30 47856 H 4562.92 2.90807 -0.712171 0
M  V30 47857 H 4560.46 1.39833 -0.343926 0
M  V30 47858 H 4562.42 3.93965 1.49565 0
M  V30 47859 H 4561.14 2.73219 1.78939 0
M  V30 47860 H 4559.8 3.66373 -0.1289 0
M  V30 47861 H 4559.45 4.52743 2.19164 0
M  V30 47862 H 4559.15 5.79442 0.975762 0
M  V30 47863 H 4560.67 5.80018 1.90817 0
M  V30 47864 H 4562.08 5.72157 -0.361903 0
M  V30 47865 H 4560.48 5.89282 -1.13433 0
M  V30 47866 H 4561.55 4.5679 -1.62699 0
M  V30 47867 N 4562.89 0.387197 1.5277 0
M  V30 47868 C 4564.12 -0.195513 2.05673 0
M  V30 47869 C 4564.53 -1.41236 1.25892 0
M  V30 47870 O 4563.88 -1.81264 0.298145 0
M  V30 47871 C 4563.94 -0.632203 3.53898 0
M  V30 47872 C 4563.6 0.470899 4.54567 0
M  V30 47873 C 4564.6 1.32764 5.02663 0
M  V30 47874 C 4562.28 0.637327 4.9824 0
M  V30 47875 C 4564.28 2.33595 5.93053 0
M  V30 47876 C 4561.96 1.64898 5.88432 0
M  V30 47877 C 4562.96 2.49671 6.3573 0
M  V30 47878 O 4562.65 3.49107 7.2414 0
M  V30 47879 H 4562.38 -0.0336343 0.675163 0
M  V30 47880 H 4564.94 0.55029 1.97891 0
M  V30 47881 H 4563.17 -1.42995 3.5929 0
M  V30 47882 H 4564.86 -1.14034 3.89552 0
M  V30 47883 H 4565.62 1.21036 4.69654 0
M  V30 47884 H 4561.5 -0.0127947 4.60998 0
M  V30 47885 H 4565.04 2.99799 6.29894 0
M  V30 47886 H 4560.94 1.76665 6.20854 0
M  V30 47887 H 4561.71 3.45091 7.42196 0
M  V30 47888 N 4564.37 -1.57165 0.116959 0
M  V30 47889 C 4565.3 -2.18224 -0.830682 0
M  V30 47890 C 4566.28 -1.12171 -1.27873 0
M  V30 47891 O 4567.47 -1.40399 -1.34171 0
M  V30 47892 C 4564.6 -2.78003 -2.08163 0
M  V30 47893 C 4563.55 -3.89621 -1.77143 0
M  V30 47894 C 4562.88 -4.36198 -3.0925 0
M  V30 47895 C 4564.18 -5.11814 -1.04133 0
M  V30 47896 H 4565.87 -2.97665 -0.321888 0
M  V30 47897 H 4563.42 -1.43181 -0.153384 0
M  V30 47898 H 4565.37 -3.19376 -2.74912 0
M  V30 47899 H 4564.1 -1.95849 -2.61363 0
M  V30 47900 H 4562.75 -3.4882 -1.12783 0
M  V30 47901 H 4562.4 -3.50905 -3.60381 0
M  V30 47902 H 4562.1 -5.11465 -2.8927 0
M  V30 47903 H 4563.63 -4.8022 -3.77122 0
M  V30 47904 H 4565.04 -5.50219 -1.61033 0
M  V30 47905 H 4563.44 -5.92652 -0.942553 0
M  V30 47906 H 4564.51 -4.84892 -0.0277317 0
M  V30 47907 N 4565.85 0.156809 -1.56818 0
M  V30 47908 C 4567.08 0.88625 -1.86958 0
M  V30 47909 C 4567.49 1.75182 -0.704037 0
M  V30 47910 O 4566.85 1.79556 0.326489 0
M  V30 47911 C 4566.9 1.75106 -3.1626 0
M  V30 47912 O 4566.62 0.920386 -4.28323 0
M  V30 47913 C 4568.12 2.58893 -3.59846 0
M  V30 47914 H 4565.34 0.256758 -0.619932 0
M  V30 47915 H 4567.89 0.152544 -2.0393 0
M  V30 47916 H 4566.04 2.43794 -3.0107 0
M  V30 47917 H 4566.46 1.5132 -5.02198 0
M  V30 47918 H 4567.93 3.15165 -4.53184 0
M  V30 47919 H 4568.41 3.34462 -2.84661 0
M  V30 47920 H 4569.01 1.95512 -3.77697 0
M  V30 47921 N 4567.33 1.51738 0.425844 0
M  V30 47922 C 4568.58 1.64974 1.1743 0
M  V30 47923 C 4568.9 0.371512 1.90919 0
M  V30 47924 O 4568.16 -0.644898 1.84769 0
M  V30 47925 C 4568.46 2.8111 2.20707 0
M  V30 47926 C 4568.12 4.1996 1.64148 0
M  V30 47927 C 4566.79 4.57731 1.48446 0
M  V30 47928 C 4569.14 5.06556 1.22678 0
M  V30 47929 C 4566.47 5.79792 0.897669 0
M  V30 47930 C 4568.82 6.29208 0.654242 0
M  V30 47931 C 4567.48 6.65741 0.484222 0
M  V30 47932 H 4566.75 0.603683 0.429706 0
M  V30 47933 H 4569.4 1.858 0.463764 0
M  V30 47934 H 4567.7 2.54553 2.97843 0
M  V30 47935 H 4569.4 2.8855 2.7846 0
M  V30 47936 H 4565.99 3.90187 1.77348 0
M  V30 47937 H 4570.17 4.77973 1.33625 0
M  V30 47938 H 4565.43 6.06735 0.753807 0
M  V30 47939 H 4569.6 6.95644 0.32445 0
M  V30 47940 H 4567.23 7.60195 0.0274161 0
M  V30 47941 N 4568.81 -0.682027 1.42078 0
M  V30 47942 C 4570.04 -1.46839 1.45334 0
M  V30 47943 C 4570.45 -1.89102 0.0609993 0
M  V30 47944 O 4569.79 -1.58241 -0.933026 0
M  V30 47945 C 4569.85 -2.75367 2.31114 0
M  V30 47946 C 4569.51 -2.55225 3.7909 0
M  V30 47947 C 4570.51 -2.20293 4.70921 0
M  V30 47948 C 4568.2 -2.70444 4.23279 0
M  V30 47949 C 4570.19 -2.00838 6.04932 0
M  V30 47950 C 4567.88 -2.50605 5.57351 0
M  V30 47951 C 4568.88 -2.15854 6.47994 0
M  V30 47952 O 4568.56 -1.962 7.7959 0
M  V30 47953 H 4568.3 -0.458582 0.496667 0
M  V30 47954 H 4570.85 -0.846065 1.87165 0
M  V30 47955 H 4569.08 -3.40055 1.84119 0
M  V30 47956 H 4570.77 -3.37223 2.2591 0
M  V30 47957 H 4571.53 -2.08137 4.38068 0
M  V30 47958 H 4567.41 -2.96473 3.53022 0
M  V30 47959 H 4570.96 -1.73637 6.75645 0
M  V30 47960 H 4566.85 -2.62355 5.8978 0
M  V30 47961 H 4567.62 -2.10856 7.90874 0
M  V30 47962 N 4570.29 -1.2813 -0.917626 0
M  V30 47963 C 4571.53 -1.15058 -1.66637 0
M  V30 47964 C 4571.86 0.30161 -1.92147 0
M  V30 47965 O 4571.12 1.23617 -1.51715 0
M  V30 47966 C 4571.41 -1.89028 -3.0332 0
M  V30 47967 C 4571.08 -3.38842 -2.97484 0
M  V30 47968 C 4569.74 -3.79703 -2.95599 0
M  V30 47969 C 4572.09 -4.34389 -2.88021 0
M  V30 47970 C 4569.42 -5.14457 -2.82048 0
M  V30 47971 C 4571.77 -5.69211 -2.7601 0
M  V30 47972 C 4570.44 -6.09352 -2.72481 0
M  V30 47973 H 4569.71 -0.421028 -0.609768 0
M  V30 47974 H 4572.36 -1.58859 -1.0694 0
M  V30 47975 H 4570.66 -1.37765 -3.66781 0
M  V30 47976 H 4572.36 -1.76333 -3.60149 0
M  V30 47977 H 4568.95 -3.06353 -2.99743 0
M  V30 47978 H 4573.13 -4.03785 -2.88567 0
M  V30 47979 H 4568.39 -5.44691 -2.77709 0
M  V30 47980 H 4572.56 -6.4291 -2.67655 0
M  V30 47981 H 4570.19 -7.13721 -2.61737 0
M  V30 47982 N 4571.76 1.12553 -1.10316 0
M  V30 47983 C 4572.99 1.87861 -0.866939 0
M  V30 47984 C 4573.41 1.7959 0.582494 0
M  V30 47985 O 4572.76 1.16892 1.40152 0
M  V30 47986 C 4572.81 3.3712 -1.30508 0
M  V30 47987 O 4572.54 3.45191 -2.69767 0
M  V30 47988 C 4574.04 4.29369 -1.10258 0
M  V30 47989 H 4571.26 0.594441 -0.311257 0
M  V30 47990 H 4573.8 1.42424 -1.4675 0
M  V30 47991 H 4571.96 3.80106 -0.748215 0
M  V30 47992 H 4572.37 4.38045 -2.88473 0
M  V30 47993 H 4573.84 5.32389 -1.4583 0
M  V30 47994 H 4574.32 4.39181 -0.0411035 0
M  V30 47995 H 4574.93 3.92163 -1.64584 0
M  V30 47996 N 4573.24 0.891716 1.29947 0
M  V30 47997 C 4574.19 0.353147 2.29904 0
M  V30 47998 C 4575.18 -0.543453 1.60446 0
M  V30 47999 O 4576.39 -0.427139 1.74859 0
M  V30 48000 H 4572.76 0.0955572 0.745904 0
M  V30 48001 H 4574.74 1.20971 2.72779 0
M  V30 48002 C 4573.48 -0.411354 3.45258 0
M  V30 48003 H 4572.81 0.269322 3.98892 0
M  V30 48004 H 4574.25 -0.753181 4.17257 0
M  V30 48005 C 4572.71 -1.611 2.95886 0
M  V30 48006 O 4573.24 -2.71035 2.96484 0
M  V30 48007 N 4571.44 -1.45045 2.51814 0
M  V30 48008 H 4570.99 -0.556086 2.51526 0
M  V30 48009 H 4570.95 -2.25446 2.19138 0
M  V30 48010 N 4574.72 -1.43419 0.653364 0
M  V30 48011 C 4576 -1.95361 0.0967268 0
M  V30 48012 C 4576.38 -1.59465 -1.38326 0
M  V30 48013 O 4575.72 -0.879852 -2.10881 0
M  V30 48014 C 4575.93 -3.47309 0.34311 0
M  V30 48015 C 4577.28 -4.23874 0.248129 0
M  V30 48016 O 4578.31 -3.55132 0.275678 0
M  V30 48017 O 4577.17 -5.46229 0.171963 0
M  V30 48018 H 4574.26 -0.826945 -0.00953384 0
M  V30 48019 H 4576.81 -1.53357 0.726612 0
M  V30 48020 H 4575.58 -3.66564 1.36918 0
M  V30 48021 H 4575.2 -3.96312 -0.319835 0
M  V30 48022 N 4576.2 -0.395293 -1.52562 0
M  V30 48023 C 4577.44 0.185247 -2.01952 0
M  V30 48024 C 4577.78 1.45959 -1.281 0
M  V30 48025 O 4577.05 1.90687 -0.383217 0
M  V30 48026 C 4577.33 0.447068 -3.57314 0
M  V30 48027 C 4577.19 -0.842984 -4.4183 0
M  V30 48028 C 4578.51 1.23514 -4.22412 0
M  V30 48029 H 4575.63 0.065853 -0.734052 0
M  V30 48030 H 4578.27 -0.52604 -1.82573 0
M  V30 48031 H 4576.42 1.05299 -3.73958 0
M  V30 48032 H 4578.09 -1.47965 -4.36926 0
M  V30 48033 H 4576.33 -1.457 -4.086 0
M  V30 48034 H 4577 -0.614358 -5.48571 0
M  V30 48035 H 4579.48 0.722301 -4.09783 0
M  V30 48036 H 4578.36 1.38708 -5.31085 0
M  V30 48037 H 4578.62 2.252 -3.80444 0
M  V30 48038 N 4577.68 1.57101 -0.125292 0
M  V30 48039 C 4578.9 2.00192 0.54203 0
M  V30 48040 C 4579.33 1.00454 1.5903 0
M  V30 48041 O 4578.68 -0.0228785 1.81286 0
M  V30 48042 C 4578.73 3.42133 1.13917 0
M  V30 48043 O 4577.84 3.45315 2.25458 0
M  V30 48044 H 4577.18 0.650175 0.134789 0
M  V30 48045 H 4579.71 2.03461 -0.215624 0
M  V30 48046 H 4579.72 3.80476 1.47317 0
M  V30 48047 H 4578.39 4.14239 0.371385 0
M  V30 48048 H 4576.97 3.18797 1.93451 0
M  V30 48049 N 4579.15 -0.14849 1.56899 0
M  V30 48050 C 4580.4 -0.861354 1.83267 0
M  V30 48051 C 4580.73 -1.81236 0.705947 0
M  V30 48052 O 4579.98 -1.93306 -0.305144 0
M  V30 48053 C 4580.28 -1.67053 3.15956 0
M  V30 48054 C 4579.95 -0.866435 4.42497 0
M  V30 48055 C 4578.61 -0.644594 4.76863 0
M  V30 48056 C 4580.96 -0.303997 5.20313 0
M  V30 48057 C 4578.29 0.150416 5.86507 0
M  V30 48058 C 4580.64 0.478046 6.30791 0
M  V30 48059 C 4579.31 0.710477 6.63708 0
M  V30 48060 H 4578.58 -0.315192 0.670623 0
M  V30 48061 H 4581.22 -0.125074 1.91091 0
M  V30 48062 H 4579.53 -2.47687 3.03576 0
M  V30 48063 H 4581.23 -2.22554 3.33573 0
M  V30 48064 H 4577.82 -1.0494 4.15554 0
M  V30 48065 H 4582 -0.46267 4.94139 0
M  V30 48066 H 4577.26 0.340011 6.10454 0
M  V30 48067 H 4581.43 0.921002 6.90283 0
M  V30 48068 H 4579.06 1.32836 7.48504 0
M  V30 48069 N 4580.63 -1.51961 -0.417791 0
M  V30 48070 C 4581.56 -1.77639 -1.51548 0
M  V30 48071 C 4582.54 -0.626974 -1.58124 0
M  V30 48072 O 4583.73 -0.871693 -1.73537 0
M  V30 48073 C 4580.86 -1.91922 -2.89454 0
M  V30 48074 C 4579.81 -3.07473 -2.97732 0
M  V30 48075 C 4579.14 -3.06966 -4.37808 0
M  V30 48076 C 4580.44 -4.47092 -2.70012 0
M  V30 48077 H 4582.13 -2.69554 -1.3031 0
M  V30 48078 H 4579.68 -1.29708 -0.625447 0
M  V30 48079 H 4581.63 -2.08468 -3.66223 0
M  V30 48080 H 4580.35 -0.966708 -3.11965 0
M  V30 48081 H 4579.01 -2.90664 -2.23406 0
M  V30 48082 H 4578.66 -2.09454 -4.57316 0
M  V30 48083 H 4578.36 -3.84572 -4.44273 0
M  V30 48084 H 4579.89 -3.25631 -5.16524 0
M  V30 48085 H 4581.3 -4.64151 -3.36506 0
M  V30 48086 H 4579.7 -5.2655 -2.87863 0
M  V30 48087 H 4580.77 -4.55783 -1.65498 0
M  V30 48088 N 4582.11 0.674483 -1.42438 0
M  V30 48089 C 4583.07 1.76981 -1.45638 0
M  V30 48090 C 4584.07 1.57079 -0.343926 0
M  V30 48091 O 4585.26 1.63365 -0.604766 0
M  V30 48092 C 4582.39 3.15618 -1.28833 0
M  V30 48093 H 4583.59 1.75531 -2.43165 0
M  V30 48094 H 4581.14 0.884144 -1.2889 0
M  V30 48095 H 4581.88 3.22694 -0.322306 0
M  V30 48096 H 4581.66 3.31467 -2.09456 0
M  V30 48097 H 4583.15 3.95532 -1.33956 0
M  V30 48098 N 4583.59 1.28615 0.910818 0
M  V30 48099 C 4584.54 1.0943 2.00023 0
M  V30 48100 C 4585.52 0.0170644 1.60891 0
M  V30 48101 O 4586.71 0.237533 1.75399 0
M  V30 48102 C 4583.84 0.761258 3.34753 0
M  V30 48103 C 4582.93 1.87748 3.80278 0
M  V30 48104 N 4583.32 3.11952 3.98146 0
M  V30 48105 C 4581.62 1.768 4.0946 0
M  V30 48106 C 4582.32 3.84702 4.36324 0
M  V30 48107 N 4581.3 3.12571 4.44748 0
M  V30 48108 H 4585.1 2.03665 2.11891 0
M  V30 48109 H 4582.61 1.19577 1.09886 0
M  V30 48110 H 4584.61 0.604888 4.12488 0
M  V30 48111 H 4583.27 -0.173289 3.24237 0
M  V30 48112 H 4584.28 3.4753 3.83984 0
M  V30 48113 H 4580.96 0.905427 4.07564 0
M  V30 48114 H 4582.35 4.91534 4.58087 0
M  V30 48115 N 4585.07 -1.11967 1.10911 0
M  V30 48116 C 4586 -2.19925 0.78455 0
M  V30 48117 C 4586.98 -1.68331 -0.244667 0
M  V30 48118 O 4588.16 -1.93892 -0.10935 0
M  V30 48119 C 4585.29 -3.46596 0.220949 0
M  V30 48120 C 4584.25 -4.11372 1.18141 0
M  V30 48121 C 4583.57 -5.32552 0.478781 0
M  V30 48122 C 4584.87 -4.56936 2.52995 0
M  V30 48123 H 4586.57 -2.47331 1.68723 0
M  V30 48124 H 4584.11 -1.18876 0.812684 0
M  V30 48125 H 4586.07 -4.21396 -0.0182797 0
M  V30 48126 H 4584.79 -3.18632 -0.717001 0
M  V30 48127 H 4583.45 -3.38559 1.40618 0
M  V30 48128 H 4583.1 -5.00857 -0.4638 0
M  V30 48129 H 4582.8 -5.7684 1.11932 0
M  V30 48130 H 4584.32 -6.10095 0.248215 0
M  V30 48131 H 4585.73 -5.23085 2.34639 0
M  V30 48132 H 4584.13 -5.12019 3.1298 0
M  V30 48133 H 4585.2 -3.70665 3.12627 0
M  V30 48134 N 4586.54 -0.898595 -1.29472 0
M  V30 48135 C 4587.48 -0.332806 -2.26771 0
M  V30 48136 C 4588.49 0.520269 -1.54263 0
M  V30 48137 O 4589.68 0.337607 -1.75278 0
M  V30 48138 C 4586.78 0.544217 -3.34502 0
M  V30 48139 C 4585.95 -0.282881 -4.36484 0
M  V30 48140 C 4585.01 0.526797 -5.23556 0
M  V30 48141 O 4584.04 -0.0553166 -5.69173 0
M  V30 48142 N 4585.24 1.83312 -5.50797 0
M  V30 48143 H 4588 -1.16907 -2.75958 0
M  V30 48144 H 4585.56 -0.762969 -1.42795 0
M  V30 48145 H 4587.56 1.09226 -3.89682 0
M  V30 48146 H 4586.13 1.28117 -2.8514 0
M  V30 48147 H 4585.35 -1.01234 -3.80979 0
M  V30 48148 H 4586.63 -0.849356 -5.01661 0
M  V30 48149 H 4586.03 2.3288 -5.15542 0
M  V30 48150 H 4584.59 2.32831 -6.08796 0
M  V30 48151 N 4588.02 1.4307 -0.660961 0
M  V30 48152 C 4589.27 2.02544 -0.186408 0
M  V30 48153 C 4589.62 1.51257 1.18908 0
M  V30 48154 O 4588.92 0.69923 1.78385 0
M  V30 48155 C 4589.11 3.57103 -0.145689 0
M  V30 48156 C 4588.94 4.23388 -1.51568 0
M  V30 48157 C 4587.71 4.59137 -2.11001 0
M  V30 48158 C 4589.91 4.51888 -2.45564 0
M  V30 48159 N 4587.89 5.10533 -3.40925 0
M  V30 48160 C 4589.26 5.04686 -3.60128 0
M  V30 48161 C 4591.32 4.33863 -2.44268 0
M  V30 48162 C 4590.02 5.41355 -4.73632 0
M  V30 48163 C 4592.04 4.71599 -3.56859 0
M  V30 48164 C 4591.41 5.24537 -4.7015 0
M  V30 48165 H 4587.51 0.773819 -0.112819 0
M  V30 48166 H 4590.09 1.74134 -0.870946 0
M  V30 48167 H 4588.26 3.85061 0.508217 0
M  V30 48168 H 4589.99 4.03265 0.340457 0
M  V30 48169 H 4586.75 4.44435 -1.6363 0
M  V30 48170 H 4587.17 5.40675 -4.0743 0
M  V30 48171 H 4591.81 3.92203 -1.57914 0
M  V30 48172 H 4589.53 5.81955 -5.60673 0
M  V30 48173 H 4593.12 4.59341 -3.57067 0
M  V30 48174 H 4592 5.53194 -5.55829 0
M  V30 48175 N 4589.5 0.403378 1.5235 0
M  V30 48176 C 4590.75 -0.174276 2.01749 0
M  V30 48177 C 4591.08 -1.45631 1.28926 0
M  V30 48178 O 4590.33 -1.91929 0.382325 0
M  V30 48179 C 4590.63 -0.47454 3.54236 0
M  V30 48180 C 4590.3 0.717614 4.45153 0
M  V30 48181 C 4588.96 1.04463 4.69724 0
M  V30 48182 C 4591.31 1.51449 4.98711 0
M  V30 48183 C 4588.64 2.16982 5.45102 0
M  V30 48184 C 4590.99 2.6304 5.7532 0
M  V30 48185 C 4589.65 2.96234 5.98165 0
M  V30 48186 H 4588.92 -0.0637722 0.738251 0
M  V30 48187 H 4591.57 0.543617 1.83622 0
M  V30 48188 H 4589.88 -1.27393 3.70511 0
M  V30 48189 H 4591.57 -0.934359 3.89962 0
M  V30 48190 H 4588.16 0.452746 4.26202 0
M  V30 48191 H 4592.35 1.27508 4.79641 0
M  V30 48192 H 4587.6 2.43054 5.61012 0
M  V30 48193 H 4591.78 3.25179 6.15818 0
M  V30 48194 H 4589.4 3.8354 6.56355 0
M  V30 48195 N 4590.98 -1.57033 0.133622 0
M  V30 48196 C 4591.94 -2.149 -0.796919 0
M  V30 48197 C 4592.94 -1.08744 -1.18454 0
M  V30 48198 O 4594.13 -1.34449 -1.10766 0
M  V30 48199 C 4591.26 -2.70119 -2.07963 0
M  V30 48200 H 4592.46 -2.98458 -0.293768 0
M  V30 48201 H 4590.01 -1.55871 -0.115732 0
M  V30 48202 H 4590.74 -1.9019 -2.62675 0
M  V30 48203 H 4590.53 -3.4777 -1.81103 0
M  V30 48204 H 4592.02 -3.14748 -2.74451 0
M  V30 48205 N 4592.46 0.140167 -1.56975 0
M  V30 48206 C 4593.39 1.20259 -1.93941 0
M  V30 48207 C 4594.37 1.41209 -0.806149 0
M  V30 48208 O 4595.55 1.5571 -1.06239 0
M  V30 48209 C 4592.68 2.5603 -2.21735 0
M  V30 48210 C 4591.72 2.51634 -3.44358 0
M  V30 48211 S 4592.56 1.97661 -4.97685 0
M  V30 48212 C 4593.71 3.35146 -5.28609 0
M  V30 48213 H 4593.95 0.887258 -2.83752 0
M  V30 48214 H 4591.48 0.346066 -1.50472 0
M  V30 48215 H 4593.44 3.34159 -2.38428 0
M  V30 48216 H 4592.1 2.8475 -1.32576 0
M  V30 48217 H 4591.29 3.51595 -3.61105 0
M  V30 48218 H 4590.89 1.81617 -3.26942 0
M  V30 48219 H 4593.19 4.31283 -5.22495 0
M  V30 48220 H 4594.13 3.23247 -6.30014 0
M  V30 48221 H 4594.54 3.32598 -4.56113 0
M  V30 48222 N 4593.93 1.52181 0.409726 0
M  V30 48223 C 4595.18 1.6621 1.15673 0
M  V30 48224 C 4595.51 0.391741 1.90514 0
M  V30 48225 O 4594.76 -0.625265 1.85443 0
M  V30 48226 C 4595.06 2.83435 2.17713 0
M  V30 48227 C 4594.73 4.21677 1.59684 0
M  V30 48228 C 4593.39 4.59279 1.43583 0
M  V30 48229 C 4595.74 5.07829 1.17299 0
M  V30 48230 C 4593.07 5.80712 0.836124 0
M  V30 48231 C 4595.42 6.29866 0.58747 0
M  V30 48232 C 4594.09 6.66217 0.413584 0
M  V30 48233 H 4593.36 0.608207 0.423279 0
M  V30 48234 H 4596 1.86281 0.444032 0
M  V30 48235 H 4594.31 2.57697 2.95126 0
M  V30 48236 H 4596.01 2.91487 2.75384 0
M  V30 48237 H 4592.6 3.92046 1.73199 0
M  V30 48238 H 4596.78 4.79363 1.28548 0
M  V30 48239 H 4592.04 6.07501 0.689412 0
M  V30 48240 H 4596.21 6.95949 0.250649 0
M  V30 48241 H 4593.84 7.60181 -0.0532143 0
M  V30 48242 N 4595.41 -0.666919 1.42793 0
M  V30 48243 C 4596.64 -1.45999 1.47306 0
M  V30 48244 C 4597.06 -1.87894 0.0880978 0
M  V30 48245 O 4596.42 -1.56505 -0.915198 0
M  V30 48246 C 4596.47 -2.68023 2.41239 0
M  V30 48247 O 4595.57 -3.66583 1.88919 0
M  V30 48248 H 4594.91 -0.438302 0.498786 0
M  V30 48249 H 4597.44 -0.817325 1.87566 0
M  V30 48250 H 4597.45 -3.16001 2.58084 0
M  V30 48251 H 4596.13 -2.36871 3.41855 0
M  V30 48252 H 4594.71 -3.25655 1.81668 0
M  V30 48253 N 4596.89 -1.29096 -0.903985 0
M  V30 48254 C 4598.3 -1.15192 -1.46928 0
M  V30 48255 C 4598.65 0.254519 -1.94542 0
M  V30 48256 O 4597.78 1.14965 -1.83336 0
M  V30 48257 C 4598.37 -2.08502 -2.67044 0
M  V30 48258 C 4596.93 -1.98632 -3.19722 0
M  V30 48259 C 4596.08 -1.99677 -1.92418 0
M  V30 48260 H 4599.03 -1.41643 -0.71574 0
M  V30 48261 H 4599.05 -1.65473 -3.42635 0
M  V30 48262 H 4598.56 -3.10855 -2.32359 0
M  V30 48263 H 4596.66 -0.993515 -3.5911 0
M  V30 48264 H 4596.78 -2.86081 -3.8431 0
M  V30 48265 H 4595.14 -1.44215 -2.09938 0
M  V30 48266 H 4595.92 -3.03727 -1.60015 0
M  V30 48267 N 4598.37 1.11377 -1.11503 0
M  V30 48268 C 4599.62 1.82491 -0.859057 0
M  V30 48269 C 4599.93 1.85607 0.617213 0
M  V30 48270 O 4601.14 2.52828 0.989463 0
M  V30 48271 C 4599.59 3.27739 -1.48711 0
M  V30 48272 C 4599.2 3.32951 -2.99746 0
M  V30 48273 C 4600.95 4.03749 -1.31099 0
M  V30 48274 C 4598.85 4.726 -3.55532 0
M  V30 48275 H 4597.78 0.683791 -0.31772 0
M  V30 48276 H 4600.43 1.25326 -1.34036 0
M  V30 48277 H 4598.82 3.84841 -0.933474 0
M  V30 48278 H 4599.99 2.85728 -3.61519 0
M  V30 48279 H 4598.3 2.70421 -3.1664 0
M  V30 48280 H 4600.9 5.06885 -1.7021 0
M  V30 48281 H 4601.24 4.15527 -0.253642 0
M  V30 48282 H 4601.78 3.53036 -1.83331 0
M  V30 48283 H 4598.52 4.6602 -4.60984 0
M  V30 48284 H 4598.04 5.2023 -2.98531 0
M  V30 48285 H 4599.72 5.41558 -3.54011 0
M  V30 48286 N 4599.85 0.905449 1.28994 0
M  V30 48287 C 4601.09 0.535108 1.95613 0
M  V30 48288 C 4601.43 -0.917343 1.71168 0
M  V30 48289 O 4600.7 -1.65119 1.02791 0
M  V30 48290 C 4600.98 0.835041 3.50284 0
M  V30 48291 C 4600.84 2.33962 3.84164 0
M  V30 48292 C 4602.16 0.325472 4.38895 0
M  V30 48293 H 4599.28 0.195886 0.710491 0
M  V30 48294 H 4601.92 1.13318 1.52509 0
M  V30 48295 H 4600.07 0.32604 3.87129 0
M  V30 48296 H 4601.74 2.9186 3.57233 0
M  V30 48297 H 4599.98 2.798 3.31503 0
M  V30 48298 H 4600.65 2.50004 4.9214 0
M  V30 48299 H 4603.13 0.7614 4.09074 0
M  V30 48300 H 4602.01 0.564487 5.4599 0
M  V30 48301 H 4602.27 -0.773991 4.35272 0
M  V30 48302 N 4601.33 -1.42718 0.668539 0
M  V30 48303 C 4602.74 -1.84792 0.266216 0
M  V30 48304 C 4603.09 -1.55963 -1.19038 0
M  V30 48305 O 4602.21 -1.01628 -1.91051 0
M  V30 48306 C 4602.81 -3.35434 0.476389 0
M  V30 48307 C 4601.37 -3.76181 0.128245 0
M  V30 48308 C 4600.51 -2.66341 0.771871 0
M  V30 48309 H 4603.46 -1.32653 0.871145 0
M  V30 48310 H 4603.49 -3.79516 -0.273427 0
M  V30 48311 H 4603 -3.56385 1.5366 0
M  V30 48312 H 4601.1 -3.60839 -0.928764 0
M  V30 48313 H 4601.21 -4.75764 0.564398 0
M  V30 48314 H 4599.58 -2.53884 0.203741 0
M  V30 48315 H 4600.36 -2.90117 1.83541 0
M  V30 48316 N 4602.8 -0.411452 -1.52134 0
M  V30 48317 C 4604.05 0.163574 -2.01838 0
M  V30 48318 C 4604.38 1.44945 -1.29696 0
M  V30 48319 O 4603.63 1.91724 -0.392498 0
M  V30 48320 C 4603.93 0.455747 -3.54482 0
M  V30 48321 C 4603.6 -0.741211 -4.44766 0
M  V30 48322 C 4602.26 -1.06953 -4.69164 0
M  V30 48323 C 4604.61 -1.54092 -4.97901 0
M  V30 48324 C 4601.94 -2.1987 -5.43943 0
M  V30 48325 C 4604.29 -2.66088 -5.73917 0
M  V30 48326 C 4602.96 -2.99402 -5.96586 0
M  V30 48327 H 4602.23 0.0598561 -0.738579 0
M  V30 48328 H 4604.87 -0.553348 -1.83331 0
M  V30 48329 H 4603.18 1.25427 -3.71181 0
M  V30 48330 H 4604.88 0.913665 -3.90453 0
M  V30 48331 H 4601.47 -0.475342 -4.25956 0
M  V30 48332 H 4605.65 -1.3005 -4.78958 0
M  V30 48333 H 4600.91 -2.46026 -5.59715 0
M  V30 48334 H 4605.08 -3.28441 -6.14084 0
M  V30 48335 H 4602.71 -3.87015 -6.54311 0
M  V30 48336 N 4604.28 1.56959 -0.141948 0
M  V30 48337 C 4605.53 1.97036 0.504814 0
M  V30 48338 C 4605.88 1.02524 1.62808 0
M  V30 48339 O 4605.18 0.0593617 1.91508 0
M  V30 48340 C 4605.37 3.41246 1.06237 0
M  V30 48341 C 4605.2 4.497 -0.00535462 0
M  V30 48342 C 4603.97 5.03336 -0.44505 0
M  V30 48343 C 4606.17 5.08119 -0.794946 0
M  V30 48344 N 4604.15 5.9539 -1.49614 0
M  V30 48345 C 4605.52 5.96333 -1.69666 0
M  V30 48346 C 4607.57 4.90707 -0.843295 0
M  V30 48347 C 4606.28 6.69 -2.64257 0
M  V30 48348 C 4608.3 5.64071 -1.77701 0
M  V30 48349 C 4607.67 6.51989 -2.66626 0
M  V30 48350 H 4603.76 0.766751 0.15368 0
M  V30 48351 H 4606.35 1.93272 -0.235381 0
M  V30 48352 H 4604.52 3.45613 1.77219 0
M  V30 48353 H 4606.25 3.68395 1.67533 0
M  V30 48354 H 4603.01 4.73575 -0.0482624 0
M  V30 48355 H 4603.43 6.46121 -2.0213 0
M  V30 48356 H 4608.07 4.22459 -0.169881 0
M  V30 48357 H 4605.79 7.3648 -3.32601 0
M  V30 48358 H 4609.38 5.52595 -1.82015 0
M  V30 48359 H 4608.26 7.07763 -3.377 0
M  V30 48360 N 4605.76 -0.13184 1.57048 0
M  V30 48361 C 4607.01 -0.840375 1.83359 0
M  V30 48362 C 4607.32 -1.81644 0.725599 0
M  V30 48363 O 4608.53 -2.57022 0.87475 0
M  V30 48364 C 4606.98 -1.54517 3.25043 0
M  V30 48365 C 4606.59 -0.610745 4.43817 0
M  V30 48366 C 4608.34 -2.23959 3.60614 0
M  V30 48367 C 4606.24 -1.31803 5.76526 0
M  V30 48368 H 4605.17 -0.317575 0.683858 0
M  V30 48369 H 4607.82 -0.0930917 1.83264 0
M  V30 48370 H 4606.21 -2.33862 3.19569 0
M  V30 48371 H 4607.38 0.148569 4.6056 0
M  V30 48372 H 4605.69 -0.0239552 4.16393 0
M  V30 48373 H 4608.29 -2.77542 4.57028 0
M  V30 48374 H 4608.63 -3.01163 2.87414 0
M  V30 48375 H 4609.17 -1.51516 3.67815 0
M  V30 48376 H 4605.91 -0.587541 6.52862 0
M  V30 48377 H 4605.43 -2.04967 5.63692 0
M  V30 48378 H 4607.11 -1.85478 6.19844 0
M  V30 48379 N 4607.24 -1.52396 -0.40165 0
M  V30 48380 C 4608.47 -1.70681 -1.16943 0
M  V30 48381 C 4608.88 -0.419568 -1.84079 0
M  V30 48382 O 4608.24 0.605 -1.7218 0
M  V30 48383 C 4608.29 -2.84761 -2.22696 0
M  V30 48384 O 4608.01 -4.08501 -1.583 0
M  V30 48385 C 4609.51 -3.14619 -3.12298 0
M  V30 48386 H 4606.73 -0.571799 -0.351122 0
M  V30 48387 H 4609.27 -1.98988 -0.471582 0
M  V30 48388 H 4607.43 -2.58951 -2.88137 0
M  V30 48389 H 4607.84 -4.72125 -2.28468 0
M  V30 48390 H 4609.32 -3.97937 -3.82558 0
M  V30 48391 H 4609.79 -2.28477 -3.75093 0
M  V30 48392 H 4610.4 -3.42221 -2.52517 0
M  V30 48393 N 4608.72 0.659337 -1.43145 0
M  V30 48394 C 4609.68 1.75426 -1.47507 0
M  V30 48395 C 4610.68 1.56705 -0.360567 0
M  V30 48396 O 4611.87 1.62715 -0.62206 0
M  V30 48397 C 4609 3.14234 -1.32173 0
M  V30 48398 H 4610.19 1.72942 -2.45013 0
M  V30 48399 H 4607.75 0.870424 -1.2982 0
M  V30 48400 H 4608.48 3.22334 -0.356514 0
M  V30 48401 H 4608.27 3.29227 -2.1296 0
M  V30 48402 H 4609.76 3.94089 -1.38144 0
M  V30 48403 N 4610.19 1.29574 0.897126 0
M  V30 48404 C 4611.44 1.17065 1.64252 0
M  V30 48405 C 4611.76 -0.276408 1.93637 0
M  V30 48406 O 4612.96 -0.522847 2.66418 0
M  V30 48407 C 4611.42 2.0476 2.95975 0
M  V30 48408 C 4611.03 3.54305 2.74175 0
M  V30 48409 C 4612.77 2.00983 3.73907 0
M  V30 48410 C 4610.68 4.34095 4.01641 0
M  V30 48411 H 4609.61 0.434542 0.61619 0
M  V30 48412 H 4612.26 1.54232 0.994213 0
M  V30 48413 H 4610.64 1.60465 3.62032 0
M  V30 48414 H 4611.81 4.06669 2.16695 0
M  V30 48415 H 4610.13 3.5978 2.09635 0
M  V30 48416 H 4612.73 2.57855 4.68417 0
M  V30 48417 H 4613.07 0.990415 4.04347 0
M  V30 48418 H 4613.6 2.43336 3.14694 0
M  V30 48419 H 4610.34 5.36684 3.76365 0
M  V30 48420 H 4609.86 3.86499 4.5867 0
M  V30 48421 H 4611.54 4.44893 4.69765 0
M  V30 48422 N 4611.67 -1.10784 1.12092 0
M  V30 48423 C 4612.9 -1.86188 0.895417 0
M  V30 48424 C 4613.31 -1.80765 -0.558639 0
M  V30 48425 O 4612.65 -1.19193 -1.39781 0
M  V30 48426 C 4612.71 -3.35654 1.28749 0
M  V30 48427 C 4612.38 -3.6484 2.75211 0
M  V30 48428 C 4613.38 -3.61744 3.73413 0
M  V30 48429 C 4611.06 -3.9363 3.12027 0
M  V30 48430 C 4613.05 -3.87027 5.06447 0
M  V30 48431 C 4610.74 -4.1857 4.45244 0
M  V30 48432 C 4611.74 -4.15258 5.42264 0
M  V30 48433 O 4611.43 -4.39566 6.7308 0
M  V30 48434 H 4611.16 -0.595414 0.320091 0
M  V30 48435 H 4613.71 -1.40987 1.49372 0
M  V30 48436 H 4611.94 -3.81494 0.632374 0
M  V30 48437 H 4613.63 -3.92438 1.0367 0
M  V30 48438 H 4614.4 -3.39545 3.46315 0
M  V30 48439 H 4610.28 -3.9534 2.37123 0
M  V30 48440 H 4613.82 -3.84358 5.82164 0
M  V30 48441 H 4609.72 -4.40247 4.72073 0
M  V30 48442 H 4610.49 -4.57099 6.78972 0
M  V30 48443 N 4613.15 -0.912277 -1.28512 0
M  V30 48444 C 4614.4 -0.545474 -1.95326 0
M  V30 48445 C 4614.73 0.908253 -1.71652 0
M  V30 48446 O 4614 1.64572 -1.03665 0
M  V30 48447 C 4614.29 -0.853606 -3.49837 0
M  V30 48448 C 4614.14 -2.35996 -3.82918 0
M  V30 48449 C 4615.46 -0.348743 -4.38716 0
M  V30 48450 H 4612.58 -0.199651 -0.709442 0
M  V30 48451 H 4615.22 -1.14125 -1.51906 0
M  V30 48452 H 4613.37 -0.346566 -3.86951 0
M  V30 48453 H 4615.04 -2.9375 -3.5568 0
M  V30 48454 H 4613.29 -2.81555 -3.30014 0
M  V30 48455 H 4613.96 -2.5261 -4.90808 0
M  V30 48456 H 4616.43 -0.783084 -4.08665 0
M  V30 48457 H 4615.31 -0.593434 -5.45683 0
M  V30 48458 H 4615.57 0.750896 -4.35676 0
M  V30 48459 N 4614.63 1.42361 -0.676098 0
M  V30 48460 C 4615.88 2.01521 -0.198901 0
M  V30 48461 C 4616.2 1.5346 1.195 0
M  V30 48462 O 4615.46 0.728031 1.81654 0
M  V30 48463 C 4615.76 3.56928 -0.183556 0
M  V30 48464 C 4615.42 4.24425 -1.5223 0
M  V30 48465 C 4614.09 4.42578 -1.88886 0
M  V30 48466 C 4616.44 4.62451 -2.40393 0
M  V30 48467 C 4613.77 4.96028 -3.13326 0
M  V30 48468 C 4616.12 5.17281 -3.64147 0
M  V30 48469 C 4614.78 5.33647 -4.0097 0
M  V30 48470 H 4614.05 0.737417 -0.072783 0
M  V30 48471 H 4616.7 1.70528 -0.871341 0
M  V30 48472 H 4615 3.87596 0.572396 0
M  V30 48473 H 4616.7 4.00486 0.202894 0
M  V30 48474 H 4613.29 4.10657 -1.22716 0
M  V30 48475 H 4617.47 4.48098 -2.13359 0
M  V30 48476 H 4612.73 5.06884 -3.41875 0
M  V30 48477 H 4616.9 5.45688 -4.32663 0
M  V30 48478 H 4614.53 5.74828 -4.97471 0
M  V30 48479 N 4616.11 0.419515 1.51914 0
M  V30 48480 C 4617.35 -0.152264 2.03832 0
M  V30 48481 C 4617.71 -1.41496 1.2978 0
M  V30 48482 O 4618.91 -2.06585 1.71977 0
M  V30 48483 C 4617.18 -0.383687 3.55334 0
M  V30 48484 S 4618.74 -0.921426 4.29017 0
M  V30 48485 H 4615.56 -0.0401944 0.709863 0
M  V30 48486 H 4618.16 0.574823 1.86858 0
M  V30 48487 H 4616.87 0.541937 4.06806 0
M  V30 48488 H 4616.4 -1.13836 3.7657 0
M  V30 48489 H 4618.41 -2.20092 4.44718 0
M  V30 48490 N 4617.58 -1.56882 0.15027 0
M  V30 48491 C 4618.83 -1.95404 -0.500003 0
M  V30 48492 C 4619.15 -1.03782 -1.65797 0
M  V30 48493 O 4620.35 -1.31898 -2.37308 0
M  V30 48494 C 4618.81 -3.47383 -0.940896 0
M  V30 48495 C 4618.42 -4.47596 0.190316 0
M  V30 48496 C 4620.16 -3.94766 -1.56077 0
M  V30 48497 C 4618.07 -5.90788 -0.26903 0
M  V30 48498 H 4617 -0.729522 -0.190562 0
M  V30 48499 H 4619.65 -1.81987 0.235138 0
M  V30 48500 H 4618.03 -3.56144 -1.73139 0
M  V30 48501 H 4619.2 -4.50533 0.967315 0
M  V30 48502 H 4617.52 -4.10149 0.71881 0
M  V30 48503 H 4620.12 -4.99188 -1.91613 0
M  V30 48504 H 4620.46 -3.36503 -2.45095 0
M  V30 48505 H 4620.99 -3.88935 -0.835112 0
M  V30 48506 H 4617.73 -6.52877 0.58585 0
M  V30 48507 H 4617.25 -5.91204 -1.01184 0
M  V30 48508 H 4618.93 -6.42982 -0.71995 0
M  V30 48509 N 4619.06 0.12351 -1.57115 0
M  V30 48510 C 4620.29 0.850332 -1.89167 0
M  V30 48511 C 4620.71 1.72857 -0.741749 0
M  V30 48512 O 4620.07 1.78666 0.307895 0
M  V30 48513 C 4620.12 1.66342 -3.19942 0
M  V30 48514 O 4619.22 2.76993 -3.0553 0
M  V30 48515 H 4618.56 0.235432 -0.620861 0
M  V30 48516 H 4621.09 0.107263 -2.04319 0
M  V30 48517 H 4621.1 2.05359 -3.5255 0
M  V30 48518 H 4619.78 1.01867 -4.03232 0
M  V30 48519 H 4618.36 2.41211 -2.84379 0
M  V30 48520 N 4620.54 1.52607 0.393562 0
M  V30 48521 C 4621.47 1.80027 1.48702 0
M  V30 48522 C 4622.45 0.652051 1.57106 0
M  V30 48523 O 4623.64 0.899191 1.72128 0
M  V30 48524 C 4620.77 1.96502 2.86364 0
M  V30 48525 C 4619.72 3.12171 2.92802 0
M  V30 48526 C 4619.05 3.13893 4.32869 0
M  V30 48527 C 4620.35 4.51331 2.62865 0
M  V30 48528 H 4622.04 2.71593 1.26006 0
M  V30 48529 H 4619.59 1.30687 0.604732 0
M  V30 48530 H 4621.54 2.14268 3.6286 0
M  V30 48531 H 4620.26 1.01622 3.10388 0
M  V30 48532 H 4618.92 2.94181 2.18753 0
M  V30 48533 H 4618.57 2.16703 4.53926 0
M  V30 48534 H 4618.27 3.91591 4.38098 0
M  V30 48535 H 4619.79 3.33807 5.11278 0
M  V30 48536 H 4621.21 4.69446 3.29079 0
M  V30 48537 H 4619.61 5.31063 2.7945 0
M  V30 48538 H 4620.68 4.58359 1.58226 0
M  V30 48539 N 4622.02 -0.651737 1.43493 0
M  V30 48540 C 4622.97 -1.76457 1.48767 0
M  V30 48541 C 4623.94 -1.6264 0.337246 0
M  V30 48542 O 4625.12 -1.82862 0.544608 0
M  V30 48543 C 4622.26 -3.14618 1.41807 0
M  V30 48544 C 4621.37 -3.39559 2.67065 0
M  V30 48545 C 4620.51 -4.67576 2.52084 0
M  V30 48546 C 4619.55 -4.85626 3.72604 0
M  V30 48547 N 4618.68 -6.04902 3.56424 0
M  V30 48548 H 4623.52 -1.71285 2.43855 0
M  V30 48549 H 4621.06 -0.835847 1.21045 0
M  V30 48550 H 4623.02 -3.94491 1.35767 0
M  V30 48551 H 4621.65 -3.18857 0.502993 0
M  V30 48552 H 4620.7 -2.53773 2.83379 0
M  V30 48553 H 4622.01 -3.48782 3.56585 0
M  V30 48554 H 4621.17 -5.55577 2.4376 0
M  V30 48555 H 4619.91 -4.60676 1.60092 0
M  V30 48556 H 4618.91 -3.9606 3.81335 0
M  V30 48557 H 4620.14 -4.94355 4.65607 0
M  V30 48558 H 4618.08 -5.99131 2.67167 0
M  V30 48559 H 4618 -6.1509 4.39545 0
M  V30 48560 H 4619.27 -6.95521 3.51954 0
M  V30 48561 N 4623.5 -1.30048 -0.890242 0
M  V30 48562 C 4624.45 -1.12599 -1.98256 0
M  V30 48563 C 4625.43 -0.0426586 -1.60843 0
M  V30 48564 O 4626.62 -0.265408 -1.74999 0
M  V30 48565 C 4623.75 -0.814418 -3.335 0
M  V30 48566 C 4622.84 -1.93775 -3.77243 0
M  V30 48567 N 4623.23 -3.18246 -3.93132 0
M  V30 48568 C 4621.53 -1.83292 -4.06596 0
M  V30 48569 C 4622.23 -3.91595 -4.30149 0
M  V30 48570 N 4621.2 -3.19607 -4.39719 0
M  V30 48571 H 4625.01 -2.0701 -2.08624 0
M  V30 48572 H 4622.52 -1.2131 -1.0797 0
M  V30 48573 H 4624.52 -0.670435 -4.11474 0
M  V30 48574 H 4623.18 0.121683 -3.24472 0
M  V30 48575 H 4624.19 -3.53595 -3.78406 0
M  V30 48576 H 4620.86 -0.970153 -4.06072 0
M  V30 48577 H 4622.25 -4.9876 -4.50209 0
M  V30 48578 N 4624.97 1.10188 -1.12678 0
M  V30 48579 C 4626.21 1.83822 -0.8938 0
M  V30 48580 C 4626.58 1.83343 0.570018 0
M  V30 48581 O 4627.78 2.52556 0.920265 0
M  V30 48582 C 4626.05 3.264 -1.45594 0
M  V30 48583 S 4627.61 4.17132 -1.36186 0
M  V30 48584 H 4624.43 0.633721 -0.322365 0
M  V30 48585 H 4627.03 1.32576 -1.4368 0
M  V30 48586 H 4625.73 3.2432 -2.51484 0
M  V30 48587 H 4625.26 3.82718 -0.91054 0
M  V30 48588 H 4627.28 4.95068 -0.335037 0
M  V30 48589 N 4626.45 0.919079 1.28026 0
M  V30 48590 C 4627.4 0.382653 2.24766 0
M  V30 48591 C 4628.39 -0.508232 1.52662 0
M  V30 48592 O 4629.58 -0.347084 1.73564 0
M  V30 48593 C 4626.71 -0.371312 3.41286 0
M  V30 48594 C 4625.79 0.535596 4.20704 0
M  V30 48595 N 4626.18 1.65158 4.78076 0
M  V30 48596 C 4624.48 0.336981 4.44725 0
M  V30 48597 C 4625.18 2.21494 5.37881 0
M  V30 48598 N 4624.16 1.50555 5.22335 0
M  V30 48599 H 4627.96 1.23487 2.66699 0
M  V30 48600 H 4625.48 0.772349 1.42858 0
M  V30 48601 H 4627.47 -0.772494 4.09681 0
M  V30 48602 H 4626.13 -1.22056 3.00886 0
M  V30 48603 H 4627.14 2.03409 4.76283 0
M  V30 48604 H 4623.82 -0.472314 4.1482 0
M  V30 48605 H 4625.21 3.154 5.93273 0
M  V30 48606 N 4627.93 -1.42001 0.683638 0
M  V30 48607 C 4629.18 -2.02222 0.218607 0
M  V30 48608 C 4629.53 -1.5313 -1.16486 0
M  V30 48609 O 4628.83 -0.727521 -1.7725 0
M  V30 48610 C 4629.02 -3.56826 0.202482 0
M  V30 48611 C 4628.85 -4.20923 1.58285 0
M  V30 48612 C 4627.62 -4.55722 2.18278 0
M  V30 48613 C 4629.82 -4.47924 2.52722 0
M  V30 48614 N 4627.8 -5.05044 3.49004 0
M  V30 48615 C 4629.17 -4.98893 3.68112 0
M  V30 48616 C 4631.22 -4.29922 2.5114 0
M  V30 48617 C 4629.93 -5.33751 4.82185 0
M  V30 48618 C 4631.95 -4.65862 3.64316 0
M  V30 48619 C 4631.32 -5.16991 4.78435 0
M  V30 48620 H 4627.41 -0.771926 0.125115 0
M  V30 48621 H 4630 -1.72726 0.898539 0
M  V30 48622 H 4628.17 -3.8582 -0.446893 0
M  V30 48623 H 4629.9 -4.03756 -0.276257 0
M  V30 48624 H 4626.66 -4.41775 1.7068 0
M  V30 48625 H 4627.08 -5.34125 4.1598 0
M  V30 48626 H 4631.72 -3.89641 1.64134 0
M  V30 48627 H 4629.44 -5.72961 5.6986 0
M  V30 48628 H 4633.03 -4.53602 3.6433 0
M  V30 48629 H 4631.91 -5.44281 5.6456 0
M  V30 48630 N 4629.41 -0.427565 -1.51689 0
M  V30 48631 C 4630.66 0.142158 -2.02 0
M  V30 48632 C 4630.98 1.43562 -1.31226 0
M  V30 48633 O 4630.24 1.91297 -0.412811 0
M  V30 48634 C 4630.54 0.418124 -3.54946 0
M  V30 48635 C 4630.2 -0.788343 -4.43955 0
M  V30 48636 C 4628.87 -1.11923 -4.68003 0
M  V30 48637 C 4631.22 -1.59364 -4.96238 0
M  V30 48638 C 4628.55 -2.25627 -5.41581 0
M  V30 48639 C 4630.9 -2.7216 -5.71062 0
M  V30 48640 C 4629.56 -3.05713 -5.93377 0
M  V30 48641 H 4628.83 0.0520192 -0.739172 0
M  V30 48642 H 4631.48 -0.572761 -1.82734 0
M  V30 48643 H 4629.78 1.21483 -3.72491 0
M  V30 48644 H 4631.48 0.872201 -3.914 0
M  V30 48645 H 4628.07 -0.520494 -4.25428 0
M  V30 48646 H 4632.26 -1.35123 -4.77552 0
M  V30 48647 H 4627.51 -2.51949 -5.57074 0
M  V30 48648 H 4631.69 -3.34935 -6.10566 0
M  V30 48649 H 4629.31 -3.93933 -6.5017 0
M  V30 48650 N 4630.89 1.568 -0.158588 0
M  V30 48651 C 4632.13 1.96492 0.48961 0
M  V30 48652 C 4632.46 1.044 1.64106 0
M  V30 48653 O 4631.72 0.0755089 1.95554 0
M  V30 48654 C 4632.02 3.42353 1.02611 0
M  V30 48655 C 4631.68 4.50899 -0.00810378 0
M  V30 48656 C 4630.34 4.80311 -0.292376 0
M  V30 48657 C 4632.7 5.16331 -0.710766 0
M  V30 48658 C 4630.02 5.72457 -1.28492 0
M  V30 48659 C 4632.38 6.09547 -1.6922 0
M  V30 48660 C 4631.04 6.37332 -1.98405 0
M  V30 48661 H 4630.31 0.719015 0.179161 0
M  V30 48662 H 4632.96 1.89889 -0.247864 0
M  V30 48663 H 4631.26 3.45845 1.84116 0
M  V30 48664 H 4632.96 3.70398 1.53643 0
M  V30 48665 H 4629.55 4.28016 0.223639 0
M  V30 48666 H 4633.73 4.93731 -0.504348 0
M  V30 48667 H 4628.99 5.92272 -1.51735 0
M  V30 48668 H 4633.16 6.59319 -2.24212 0
M  V30 48669 H 4630.79 7.08536 -2.75465 0
M  V30 48670 N 4632.37 -0.115176 1.57179 0
M  V30 48671 C 4633.31 -1.16007 2.01606 0
M  V30 48672 C 4634.31 -1.4265 0.913637 0
M  V30 48673 O 4635.51 -1.42568 1.09884 0
M  V30 48674 H 4631.89 -0.39123 0.642217 0
M  V30 48675 H 4633.86 -0.758896 2.88589 0
M  V30 48676 C 4632.61 -2.47759 2.43949 0
M  V30 48677 H 4631.93 -2.28096 3.28348 0
M  V30 48678 H 4633.37 -3.19422 2.78829 0
M  V30 48679 C 4631.83 -3.10613 1.30465 0
M  V30 48680 O 4632.36 -3.96844 0.622724 0
M  V30 48681 N 4630.57 -2.70549 1.06074 0
M  V30 48682 H 4630.11 -2.00521 1.61707 0
M  V30 48683 H 4630.07 -3.12933 0.303394 0
M  V30 48684 N 4633.84 -1.52813 -0.385464 0
M  V30 48685 C 4634.79 -1.78487 -1.49148 0
M  V30 48686 C 4635.79 -0.652969 -1.5631 0
M  V30 48687 O 4636.99 -0.83552 -1.59434 0
M  V30 48688 H 4633.37 -0.564817 -0.496473 0
M  V30 48689 H 4635.34 -2.711 -1.2469 0
M  V30 48690 C 4634.09 -1.97388 -2.8624 0
M  V30 48691 H 4633.41 -2.83917 -2.81481 0
M  V30 48692 H 4634.85 -2.1934 -3.62858 0
M  V30 48693 C 4633.31 -0.747396 -3.28505 0
M  V30 48694 O 4633.84 0.073482 -4.01633 0
M  V30 48695 N 4632.04 -0.576496 -2.84824 0
M  V30 48696 H 4631.59 -1.24563 -2.25482 0
M  V30 48697 H 4631.55 0.24277 -3.13461 0
M  V30 48698 N 4635.32 0.644118 -1.43836 0
M  V30 48699 C 4636.55 1.42934 -1.49176 0
M  V30 48700 C 4636.96 1.88873 -0.111115 0
M  V30 48701 O 4636.3 1.60659 0.890743 0
M  V30 48702 C 4636.36 2.69142 -2.38333 0
M  V30 48703 C 4636.03 2.45084 -3.85724 0
M  V30 48704 C 4637.03 2.0773 -4.76597 0
M  V30 48705 C 4634.71 2.59126 -4.30301 0
M  V30 48706 C 4636.7 1.84728 -6.10044 0
M  V30 48707 C 4634.39 2.35739 -5.638 0
M  V30 48708 C 4635.39 1.98597 -6.53489 0
M  V30 48709 O 4635.08 1.75461 -7.84518 0
M  V30 48710 H 4634.81 0.445253 -0.508651 0
M  V30 48711 H 4637.36 0.796144 -1.89343 0
M  V30 48712 H 4635.59 3.35054 -1.9307 0
M  V30 48713 H 4637.28 3.31115 -2.34771 0
M  V30 48714 H 4638.05 1.96449 -4.43433 0
M  V30 48715 H 4633.93 2.87009 -3.60759 0
M  V30 48716 H 4637.47 1.55662 -6.80011 0
M  V30 48717 H 4633.37 2.46625 -5.96528 0
M  V30 48718 H 4634.14 1.89813 -7.96187 0
M  V30 48719 N 4636.8 1.30518 0.883332 0
M  V30 48720 C 4637.73 1.19614 2.00536 0
M  V30 48721 C 4638.71 0.0864057 1.6988 0
M  V30 48722 O 4639.9 0.268721 1.92332 0
M  V30 48723 C 4637.03 0.888876 3.35732 0
M  V30 48724 C 4635.98 1.95672 3.80653 0
M  V30 48725 C 4635.31 1.50242 5.13158 0
M  V30 48726 C 4636.61 3.36802 3.99201 0
M  V30 48727 H 4638.3 2.13483 2.09918 0
M  V30 48728 H 4635.85 1.02778 1.0086 0
M  V30 48729 H 4637.8 0.79924 4.13751 0
M  V30 48730 H 4636.52 -0.0854978 3.26488 0
M  V30 48731 H 4635.18 2.03602 3.04864 0
M  V30 48732 H 4634.83 0.516268 5.00344 0
M  V30 48733 H 4634.53 2.21669 5.44184 0
M  V30 48734 H 4636.05 1.4266 5.93701 0
M  V30 48735 H 4637.47 3.31621 4.67654 0
M  V30 48736 H 4635.86 4.0633 4.41606 0
M  V30 48737 H 4636.93 3.78572 3.03004 0
M  V30 48738 N 4638.28 -1.09589 1.13261 0
M  V30 48739 C 4639.69 -1.33772 0.87047 0
M  V30 48740 C 4639.89 -1.95329 -0.494857 0
M  V30 48741 O 4638.95 -2.19858 -1.24173 0
M  V30 48742 C 4640.26 -2.25099 1.99377 0
M  V30 48743 C 4641.81 -2.38612 2.02566 0
M  V30 48744 C 4642.29 -3.33274 3.14154 0
M  V30 48745 N 4643.78 -3.40846 3.13653 0
M  V30 48746 C 4644.51 -4.14087 3.96635 0
M  V30 48747 N 4644.01 -4.9014 4.89627 0
M  V30 48748 N 4645.8 -4.09794 3.8474 0
M  V30 48749 H 4637.95 -0.680066 2.01218 0
M  V30 48750 H 4640.21 -0.362102 0.87612 0
M  V30 48751 H 4639.92 -1.87093 2.97807 0
M  V30 48752 H 4639.79 -3.25475 1.90647 0
M  V30 48753 H 4642.18 -2.75883 1.0475 0
M  V30 48754 H 4642.26 -1.38021 2.15369 0
M  V30 48755 H 4641.91 -2.96726 4.12209 0
M  V30 48756 H 4641.84 -4.33765 2.98589 0
M  V30 48757 H 4644.33 -2.86616 2.46292 0
M  V30 48758 H 4644.64 -5.43451 5.49437 0
M  V30 48759 H 4642.99 -4.89234 4.93634 0
M  V30 48760 H 4646.18 -3.49479 3.1142 0
M  V30 48761 H 4646.35 -4.66613 4.4964 0
M  V30 48762 N 4639.76 -0.925856 -1.27537 0
M  V30 48763 C 4640.7 -0.422124 -2.26907 0
M  V30 48764 C 4641.67 0.509973 -1.58077 0
M  V30 48765 O 4642.86 0.429533 -1.85902 0
M  V30 48766 C 4640 0.320716 -3.43606 0
M  V30 48767 C 4639.11 -0.64528 -4.27154 0
M  V30 48768 C 4638.25 0.117218 -5.31071 0
M  V30 48769 C 4637.28 -0.841604 -6.06287 0
M  V30 48770 N 4636.42 -0.111851 -7.02011 0
M  V30 48771 H 4641.26 -1.2745 -2.6937 0
M  V30 48772 H 4638.8 -0.639744 -1.3246 0
M  V30 48773 H 4640.76 0.767706 -4.10076 0
M  V30 48774 H 4639.39 1.13735 -3.021 0
M  V30 48775 H 4638.44 -1.2108 -3.60616 0
M  V30 48776 H 4639.75 -1.37813 -4.79384 0
M  V30 48777 H 4638.9 0.62421 -6.0348 0
M  V30 48778 H 4637.64 0.88305 -4.79639 0
M  V30 48779 H 4636.65 -1.35986 -5.32717 0
M  V30 48780 H 4637.87 -1.60719 -6.59808 0
M  V30 48781 H 4635.82 0.63577 -6.52912 0
M  V30 48782 H 4635.74 -0.784309 -7.51921 0
M  V30 48783 H 4637 0.374549 -7.786 0
M  V30 48784 N 4641.23 1.41636 -0.691159 0
M  V30 48785 C 4642.65 1.55434 -0.362279 0
M  V30 48786 C 4642.85 1.66758 1.13111 0
M  V30 48787 O 4641.91 1.64355 1.91686 0
M  V30 48788 C 4643.22 2.79584 -1.10694 0
M  V30 48789 C 4644.77 2.93376 -1.09086 0
M  V30 48790 C 4645.24 4.20408 -1.81718 0
M  V30 48791 N 4646.73 4.27356 -1.78665 0
M  V30 48792 C 4647.47 5.24499 -2.31707 0
M  V30 48793 N 4646.96 6.27698 -2.93201 0
M  V30 48794 N 4648.76 5.16408 -2.21988 0
M  V30 48795 H 4640.91 1.32531 -1.6598 0
M  V30 48796 H 4643.17 0.639091 -0.700191 0
M  V30 48797 H 4642.88 2.77411 -2.16185 0
M  V30 48798 H 4642.75 3.70971 -0.682675 0
M  V30 48799 H 4645.14 2.95067 -0.0442275 0
M  V30 48800 H 4645.22 2.03175 -1.55414 0
M  V30 48801 H 4644.86 4.19478 -2.86357 0
M  V30 48802 H 4644.79 5.09573 -1.32826 0
M  V30 48803 H 4647.28 3.5341 -1.33827 0
M  V30 48804 H 4647.6 6.98205 -3.31254 0
M  V30 48805 H 4645.94 6.28213 -2.97277 0
M  V30 48806 H 4649.13 4.3471 -1.73623 0
M  V30 48807 H 4649.31 5.91949 -2.6363 0
M  V30 48808 N 4642.71 0.435603 1.5146 0
M  V30 48809 C 4643.96 -0.131638 2.02372 0
M  V30 48810 C 4644.29 -1.42512 1.31925 0
M  V30 48811 O 4643.57 -1.89604 0.433639 0
M  V30 48812 C 4643.85 -0.352175 3.58374 0
M  V30 48813 C 4643.7 0.959831 4.3944 0
M  V30 48814 C 4645.02 -1.12272 4.25539 0
M  V30 48815 H 4642.14 -0.0463678 0.73554 0
M  V30 48816 H 4644.78 0.574261 1.81114 0
M  V30 48817 H 4642.93 -0.953468 3.76618 0
M  V30 48818 H 4644.6 1.59497 4.32849 0
M  V30 48819 H 4642.85 1.56482 4.04593 0
M  V30 48820 H 4643.52 0.759586 5.46749 0
M  V30 48821 H 4645.99 -0.6134 4.11554 0
M  V30 48822 H 4644.87 -1.24579 5.34576 0
M  V30 48823 H 4645.13 -2.15034 3.86281 0
M  V30 48824 N 4644.19 -1.56714 0.166901 0
M  V30 48825 C 4645.12 -2.1358 -0.803675 0
M  V30 48826 C 4646.1 -1.06468 -1.22896 0
M  V30 48827 O 4647.29 -1.34418 -1.32152 0
M  V30 48828 C 4644.41 -2.67175 -2.08171 0
M  V30 48829 C 4643.46 -3.86618 -1.80079 0
M  V30 48830 S 4644.29 -5.26568 -0.973975 0
M  V30 48831 C 4645.45 -5.83566 -2.26276 0
M  V30 48832 H 4645.68 -2.95571 -0.320163 0
M  V30 48833 H 4643.21 -1.54326 -0.0477012 0
M  V30 48834 H 4645.17 -2.98702 -2.8158 0
M  V30 48835 H 4643.83 -1.85278 -2.53635 0
M  V30 48836 H 4643.03 -4.22432 -2.74896 0
M  V30 48837 H 4642.63 -3.55955 -1.14768 0
M  V30 48838 H 4644.92 -5.96211 -3.21774 0
M  V30 48839 H 4645.86 -6.80738 -1.94938 0
M  V30 48840 H 4646.27 -5.11952 -2.37835 0
M  V30 48841 N 4645.67 0.106839 -1.57237 0
M  V30 48842 C 4646.92 0.812461 -1.85487 0
M  V30 48843 C 4647.24 1.79301 -0.75375 0
M  V30 48844 O 4646.5 1.94047 0.253785 0
M  V30 48845 C 4646.8 1.58617 -3.20274 0
M  V30 48846 C 4646.46 0.74881 -4.44639 0
M  V30 48847 C 4645.13 0.517936 -4.78404 0
M  V30 48848 C 4647.48 0.165938 -5.20936 0
M  V30 48849 C 4644.81 -0.305865 -5.85902 0
M  V30 48850 C 4647.16 -0.645121 -6.29302 0
M  V30 48851 C 4645.82 -0.886198 -6.61591 0
M  V30 48852 H 4645.09 0.2973 -0.678744 0
M  V30 48853 H 4647.74 0.0743659 -1.91356 0
M  V30 48854 H 4646.04 2.39551 -3.10036 0
M  V30 48855 H 4647.74 2.13632 -3.39356 0
M  V30 48856 H 4644.33 0.938859 -4.18191 0
M  V30 48857 H 4648.51 0.331496 -4.95192 0
M  V30 48858 H 4643.77 -0.501742 -6.09338 0
M  V30 48859 H 4647.94 -1.10369 -6.87598 0
M  V30 48860 H 4645.57 -1.52635 -7.44719 0
M  V30 48861 N 4647.15 1.53016 0.377354 0
M  V30 48862 C 4648.09 1.79275 1.482 0
M  V30 48863 C 4649.09 0.661249 1.55961 0
M  V30 48864 O 4650.29 0.843964 1.58988 0
M  V30 48865 H 4646.67 0.567442 0.493471 0
M  V30 48866 H 4648.64 2.71757 1.2325 0
M  V30 48867 C 4647.39 1.98904 2.85189 0
M  V30 48868 H 4646.71 2.85405 2.79971 0
M  V30 48869 H 4648.15 2.21261 3.6169 0
M  V30 48870 C 4646.61 0.764807 3.28104 0
M  V30 48871 O 4647.14 -0.0521814 4.01666 0
M  V30 48872 N 4645.35 0.591593 2.84515 0
M  V30 48873 H 4644.89 1.25757 2.24818 0
M  V30 48874 H 4644.85 -0.226143 3.13586 0
M  V30 48875 N 4648.62 -0.636481 1.44176 0
M  V30 48876 C 4649.87 -1.39338 1.46388 0
M  V30 48877 C 4650.19 -1.94765 0.09564 0
M  V30 48878 O 4649.46 -1.75455 -0.871334 0
M  V30 48879 H 4648.04 -0.51718 0.539012 0
M  V30 48880 H 4650.71 -0.749506 1.79912 0
M  V30 48881 H 4649.8 -2.22738 2.18619 0
M  V30 48882 N 4650.1 -1.30985 -0.876398 0
M  V30 48883 C 4651.35 -1.2048 -1.63133 0
M  V30 48884 C 4651.68 0.238029 -1.92736 0
M  V30 48885 O 4650.96 1.16914 -1.55439 0
M  V30 48886 C 4651.24 -2.04255 -2.96567 0
M  V30 48887 C 4651.09 -3.56802 -2.73884 0
M  V30 48888 C 4652.41 -1.88698 -3.97594 0
M  V30 48889 H 4649.53 -0.439022 -0.59197 0
M  V30 48890 H 4652.17 -1.60708 -1.01356 0
M  V30 48891 H 4650.32 -1.70075 -3.49294 0
M  V30 48892 H 4651.99 -4.01085 -2.27878 0
M  V30 48893 H 4650.24 -3.80555 -2.08231 0
M  V30 48894 H 4650.91 -4.10719 -3.688 0
M  V30 48895 H 4653.38 -2.18597 -3.54055 0
M  V30 48896 H 4652.26 -2.49627 -4.88853 0
M  V30 48897 H 4652.52 -0.848496 -4.33881 0
M  V30 48898 N 4651.58 1.08987 -1.13841 0
M  V30 48899 C 4652.81 1.85008 -0.926267 0
M  V30 48900 C 4653.22 1.81352 0.525064 0
M  V30 48901 O 4652.58 1.21292 1.36362 0
M  V30 48902 C 4652.63 3.32797 -1.41167 0
M  V30 48903 O 4652.35 3.36434 -2.80613 0
M  V30 48904 C 4653.85 4.25644 -1.23862 0
M  V30 48905 H 4651.07 0.584238 -0.330011 0
M  V30 48906 H 4653.62 1.37683 -1.51207 0
M  V30 48907 H 4651.77 3.77533 -0.868764 0
M  V30 48908 H 4652.19 4.28646 -3.02263 0
M  V30 48909 H 4653.66 5.2748 -1.62694 0
M  V30 48910 H 4654.14 4.38828 -0.180805 0
M  V30 48911 H 4654.74 3.86729 -1.76978 0
M  V30 48912 N 4653.06 0.932607 1.27044 0
M  V30 48913 C 4654.31 0.575627 1.94146 0
M  V30 48914 C 4654.63 -0.883923 1.73254 0
M  V30 48915 O 4653.89 -1.64651 1.05776 0
M  V30 48916 C 4654.19 0.853835 3.47051 0
M  V30 48917 C 4653.85 2.2959 3.88071 0
M  V30 48918 C 4652.52 2.69013 3.98981 0
M  V30 48919 C 4654.87 3.23345 4.08775 0
M  V30 48920 C 4652.2 4.01304 4.27986 0
M  V30 48921 C 4654.55 4.55223 4.39266 0
M  V30 48922 C 4653.21 4.94472 4.4839 0
M  V30 48923 H 4652.48 0.210637 0.710432 0
M  V30 48924 H 4655.13 1.1775 1.51021 0
M  V30 48925 H 4653.43 0.169341 3.91434 0
M  V30 48926 H 4655.13 0.556529 3.97119 0
M  V30 48927 H 4651.72 1.98008 3.8012 0
M  V30 48928 H 4655.9 2.94088 3.99782 0
M  V30 48929 H 4651.16 4.31389 4.33259 0
M  V30 48930 H 4655.33 5.27868 4.54234 0
M  V30 48931 H 4652.96 5.97011 4.70619 0
M  V30 48932 N 4654.54 -1.41267 0.698661 0
M  V30 48933 C 4655.76 -2.06023 0.238584 0
M  V30 48934 C 4656.19 -1.52243 -1.1047 0
M  V30 48935 O 4655.54 -0.650683 -1.69221 0
M  V30 48936 C 4655.59 -3.59988 0.210079 0
M  V30 48937 O 4654.7 -4.04285 -0.814093 0
M  V30 48938 H 4654.04 -0.653825 0.115798 0
M  V30 48939 H 4656.57 -1.80977 0.954389 0
M  V30 48940 H 4656.58 -4.07978 0.0419871 0
M  V30 48941 H 4655.25 -3.98499 1.19044 0
M  V30 48942 H 4653.83 -3.67792 -0.615104 0
M  V30 48943 N 4656.01 -0.44363 -1.51227 0
M  V30 48944 C 4657.24 0.119217 -2.06556 0
M  V30 48945 C 4657.66 1.35916 -1.31043 0
M  V30 48946 O 4657.01 1.78673 -0.371767 0
M  V30 48947 C 4657.07 0.435102 -3.58872 0
M  V30 48948 O 4656.79 -0.755637 -4.31534 0
M  V30 48949 C 4658.29 1.04793 -4.30736 0
M  V30 48950 H 4655.51 0.00513481 -0.67098 0
M  V30 48951 H 4658.05 -0.624522 -1.94731 0
M  V30 48952 H 4656.21 1.12874 -3.70592 0
M  V30 48953 H 4656.62 -0.483674 -5.22265 0
M  V30 48954 H 4658.09 1.21891 -5.38374 0
M  V30 48955 H 4658.57 2.03068 -3.89436 0
M  V30 48956 H 4659.18 0.393488 -4.23476 0
M  V30 48957 N 4657.49 1.56623 -0.175209 0
M  V30 48958 C 4658.74 1.97 0.468742 0
M  V30 48959 C 4659.07 1.06135 1.6299 0
M  V30 48960 O 4658.32 0.0962458 1.95463 0
M  V30 48961 C 4658.62 3.43422 0.989743 0
M  V30 48962 C 4658.29 4.50865 -0.0559272 0
M  V30 48963 C 4656.95 4.79974 -0.343303 0
M  V30 48964 C 4659.3 5.15548 -0.765489 0
M  V30 48965 C 4656.63 5.71062 -1.34556 0
M  V30 48966 C 4658.98 6.07718 -1.75676 0
M  V30 48967 C 4657.65 6.35191 -2.05154 0
M  V30 48968 H 4656.92 0.720875 0.171525 0
M  V30 48969 H 4659.56 1.89616 -0.267991 0
M  V30 48970 H 4657.87 3.47778 1.80437 0
M  V30 48971 H 4659.57 3.72007 1.49705 0
M  V30 48972 H 4656.16 4.28229 0.17823 0
M  V30 48973 H 4660.34 4.93168 -0.556686 0
M  V30 48974 H 4655.6 5.9063 -1.58008 0
M  V30 48975 H 4659.77 6.56904 -2.31192 0
M  V30 48976 H 4657.4 7.05574 -2.82964 0
M  V30 48977 N 4658.97 -0.0984986 1.57292 0
M  V30 48978 C 4659.88 -1.13817 2.05141 0
M  V30 48979 C 4660.9 -1.44073 0.975655 0
M  V30 48980 O 4662.07 -1.54782 1.28859 0
M  V30 48981 C 4659.14 -2.4396 2.46342 0
M  V30 48982 C 4658.2 -2.20917 3.68095 0
M  V30 48983 C 4657.43 -3.44855 4.07322 0
M  V30 48984 O 4657.66 -4.5296 3.46675 0
M  V30 48985 O 4656.59 -3.34644 5.00297 0
M  V30 48986 H 4660.42 -0.761778 2.93991 0
M  V30 48987 H 4658 -0.310767 1.46132 0
M  V30 48988 H 4659.88 -3.206 2.73484 0
M  V30 48989 H 4658.56 -2.81033 1.60631 0
M  V30 48990 H 4657.46 -1.42069 3.46074 0
M  V30 48991 H 4658.8 -1.88739 4.54575 0
M  V30 48992 N 4660.45 -1.53214 -0.369234 0
M  V30 48993 C 4661.36 -1.82347 -1.47603 0
M  V30 48994 C 4662.38 -0.711588 -1.58784 0
M  V30 48995 O 4663.55 -1.00126 -1.74747 0
M  V30 48996 C 4660.62 -2.00403 -2.82913 0
M  V30 48997 C 4659.68 -3.24307 -2.81289 0
M  V30 48998 C 4658.91 -3.41492 -4.10145 0
M  V30 48999 O 4659.13 -2.63051 -5.06123 0
M  V30 49000 O 4658.07 -4.34832 -4.16179 0
M  V30 49001 H 4661.89 -2.76371 -1.25909 0
M  V30 49002 H 4659.48 -1.38549 -0.558985 0
M  V30 49003 H 4661.36 -2.13872 -3.63093 0
M  V30 49004 H 4660.04 -1.0957 -3.04592 0
M  V30 49005 H 4658.94 -3.16264 -1.9982 0
M  V30 49006 H 4660.28 -4.15051 -2.64563 0
M  V30 49007 N 4661.93 0.628826 -1.44511 0
M  V30 49008 C 4662.89 1.72258 -1.51195 0
M  V30 49009 C 4663.89 1.55905 -0.393725 0
M  V30 49010 O 4665.08 1.61359 -0.656434 0
M  V30 49011 C 4662.21 3.1136 -1.38809 0
M  V30 49012 H 4663.41 1.67706 -2.48626 0
M  V30 49013 H 4660.96 0.842691 -1.31637 0
M  V30 49014 H 4661.69 3.21506 -0.424806 0
M  V30 49015 H 4661.48 3.24636 -2.19895 0
M  V30 49016 H 4662.97 3.9107 -1.46472 0
M  V30 49017 N 4663.41 1.31448 0.869439 0
M  V30 49018 C 4664.37 1.19101 1.95826 0
M  V30 49019 C 4665.37 0.117962 1.60367 0
M  V30 49020 O 4666.56 0.367268 1.70284 0
M  V30 49021 C 4663.69 0.828281 3.30685 0
M  V30 49022 H 4664.88 2.1585 2.08204 0
M  V30 49023 H 4662.44 1.15067 1.0578 0
M  V30 49024 H 4663.17 -0.138028 3.24006 0
M  V30 49025 H 4662.96 1.60393 3.57794 0
M  V30 49026 H 4664.45 0.765802 4.10518 0
M  V30 49027 N 4664.88 -1.08381 1.14417 0
M  V30 49028 C 4665.81 -2.17318 0.85412 0
M  V30 49029 C 4666.79 -1.69024 -0.19099 0
M  V30 49030 O 4667.98 -1.94142 -0.0476097 0
M  V30 49031 C 4665.11 -3.45718 0.331104 0
M  V30 49032 C 4664.06 -4.07405 1.31169 0
M  V30 49033 C 4663.39 -5.30759 0.647966 0
M  V30 49034 C 4664.69 -4.48656 2.67404 0
M  V30 49035 H 4666.38 -2.41838 1.76506 0
M  V30 49036 H 4663.93 -1.1623 0.850092 0
M  V30 49037 H 4665.88 -4.21241 0.115793 0
M  V30 49038 H 4664.61 -3.20752 -0.615268 0
M  V30 49039 H 4663.27 -3.33914 1.51318 0
M  V30 49040 H 4662.91 -5.02079 -0.304221 0
M  V30 49041 H 4662.61 -5.72987 1.30228 0
M  V30 49042 H 4664.14 -6.08997 0.442186 0
M  V30 49043 H 4665.55 -5.15355 2.51162 0
M  V30 49044 H 4663.95 -5.01803 3.29111 0
M  V30 49045 H 4665.02 -3.60531 3.24261 0
M  V30 49046 N 4666.36 -0.939331 -1.26548 0
M  V30 49047 C 4667.6 -0.593369 -1.95598 0
M  V30 49048 C 4667.97 0.851455 -1.72088 0
M  V30 49049 O 4669.17 1.30626 -2.34926 0
M  V30 49050 C 4667.44 -0.924117 -3.45246 0
M  V30 49051 S 4669 -0.688421 -4.33366 0
M  V30 49052 H 4665.81 -0.218615 -0.676556 0
M  V30 49053 H 4668.42 -1.21025 -1.53536 0
M  V30 49054 H 4667.12 -1.9731 -3.59857 0
M  V30 49055 H 4666.65 -0.296884 -3.92278 0
M  V30 49056 H 4668.67 0.44826 -4.94171 0
M  V30 49057 N 4667.84 1.40895 -0.706143 0
M  V30 49058 C 4669.07 2.05372 -0.250959 0
M  V30 49059 C 4669.48 1.53175 1.10375 0
M  V30 49060 O 4668.84 0.684365 1.69182 0
M  V30 49061 C 4668.89 3.6088 -0.211698 0
M  V30 49062 O 4668.61 4.11148 -1.51291 0
M  V30 49063 C 4670.11 4.42518 0.26319 0
M  V30 49064 H 4667.33 0.661146 -0.114576 0
M  V30 49065 H 4669.88 1.80476 -0.961698 0
M  V30 49066 H 4668.03 3.84778 0.449938 0
M  V30 49067 H 4668.45 5.05274 -1.40706 0
M  V30 49068 H 4669.92 5.5148 0.239524 0
M  V30 49069 H 4670.4 4.19401 1.30382 0
M  V30 49070 H 4671 4.23706 -0.367826 0
M  V30 49071 N 4669.32 0.451643 1.5099 0
M  V30 49072 C 4670.56 -0.110003 2.02201 0
M  V30 49073 C 4670.89 -1.41456 1.33493 0
M  V30 49074 O 4670.15 -1.90616 0.443192 0
M  V30 49075 C 4670.45 -0.361603 3.55566 0
M  V30 49076 C 4670.11 0.858873 4.42645 0
M  V30 49077 C 4668.77 1.19354 4.66163 0
M  V30 49078 C 4671.13 1.67239 4.9364 0
M  V30 49079 C 4668.45 2.34214 5.37922 0
M  V30 49080 C 4670.81 2.8121 5.6666 0
M  V30 49081 C 4669.47 3.15115 5.88438 0
M  V30 49082 H 4668.74 -0.040253 0.739906 0
M  V30 49083 H 4671.39 0.60176 1.818 0
M  V30 49084 H 4669.69 -1.15541 3.74376 0
M  V30 49085 H 4671.39 -0.809822 3.92738 0
M  V30 49086 H 4667.98 0.58811 4.24546 0
M  V30 49087 H 4672.16 1.42703 4.75342 0
M  V30 49088 H 4667.42 2.60779 5.52996 0
M  V30 49089 H 4671.59 3.44607 6.05161 0
M  V30 49090 H 4669.22 4.04227 6.4382 0
M  V30 49091 N 4670.8 -1.56528 0.183513 0
M  V30 49092 C 4671.73 -2.21551 -0.737378 0
M  V30 49093 C 4672.71 -1.17494 -1.23001 0
M  V30 49094 O 4673.89 -1.45963 -1.28095 0
M  V30 49095 C 4671.02 -2.86582 -1.96184 0
M  V30 49096 C 4669.98 -3.96783 -1.60459 0
M  V30 49097 C 4669.3 -4.48922 -2.90471 0
M  V30 49098 C 4670.6 -5.1577 -0.823316 0
M  V30 49099 H 4672.3 -2.98762 -0.195348 0
M  V30 49100 H 4669.84 -1.43702 -0.0925181 0
M  V30 49101 H 4671.79 -3.30749 -2.61119 0
M  V30 49102 H 4670.52 -2.06758 -2.52821 0
M  V30 49103 H 4669.18 -3.5329 -0.978872 0
M  V30 49104 H 4668.83 -3.65875 -3.45174 0
M  V30 49105 H 4668.53 -5.23274 -2.67317 0
M  V30 49106 H 4670.05 -4.95783 -3.56415 0
M  V30 49107 H 4671.46 -5.56554 -1.37551 0
M  V30 49108 H 4669.86 -5.96116 -0.690341 0
M  V30 49109 H 4670.93 -4.84573 0.177953 0
M  V30 49110 N 4672.27 0.0901557 -1.57342 0
M  V30 49111 C 4673.2 1.10969 -2.05446 0
M  V30 49112 C 4674.19 1.41479 -0.944333 0
M  V30 49113 O 4675.37 1.51424 -1.21591 0
M  V30 49114 C 4672.5 2.42822 -2.48304 0
M  V30 49115 C 4671.45 2.26708 -3.63026 0
M  V30 49116 C 4670.78 3.63782 -3.91876 0
M  V30 49117 C 4672.08 1.70352 -4.93738 0
M  V30 49118 H 4673.77 0.709461 -2.90873 0
M  V30 49119 H 4671.32 0.339825 -1.39933 0
M  V30 49120 H 4673.27 3.14421 -2.80566 0
M  V30 49121 H 4672 2.84789 -1.59883 0
M  V30 49122 H 4670.66 1.57553 -3.31017 0
M  V30 49123 H 4670.3 4.03286 -3.00615 0
M  V30 49124 H 4670 3.53845 -4.69114 0
M  V30 49125 H 4671.53 4.3684 -4.26618 0
M  V30 49126 H 4672.94 2.31797 -5.2435 0
M  V30 49127 H 4671.34 1.71161 -5.75173 0
M  V30 49128 H 4672.41 0.663373 -4.80341 0
M  V30 49129 N 4673.75 1.53407 0.361103 0
M  V30 49130 C 4674.7 1.80837 1.4629 0
M  V30 49131 C 4675.69 0.677754 1.55251 0
M  V30 49132 O 4676.9 0.860779 1.58084 0
M  V30 49133 H 4673.28 0.572644 0.487425 0
M  V30 49134 H 4675.25 2.73049 1.20361 0
M  V30 49135 C 4674 2.01917 2.83063 0
M  V30 49136 H 4673.32 2.88359 2.76928 0
M  V30 49137 H 4674.76 2.25085 3.59323 0
M  V30 49138 C 4673.22 0.799564 3.27274 0
M  V30 49139 O 4673.75 -0.0095764 4.01699 0
M  V30 49140 N 4671.95 0.621736 2.83871 0
M  V30 49141 H 4671.5 1.28134 2.23471 0
M  V30 49142 H 4671.46 -0.19287 3.13808 0
M  V30 49143 N 4675.23 -0.621153 1.44843 0
M  V30 49144 C 4676.18 -1.73262 1.52476 0
M  V30 49145 C 4677.15 -1.61888 0.371668 0
M  V30 49146 O 4678.33 -1.81666 0.583273 0
M  V30 49147 C 4675.47 -3.1154 1.48449 0
M  V30 49148 C 4674.59 -3.33817 2.74208 0
M  V30 49149 C 4673.72 -4.62123 2.61945 0
M  V30 49150 C 4672.76 -4.77613 3.82821 0
M  V30 49151 N 4671.9 -5.97206 3.69174 0
M  V30 49152 H 4676.74 -1.66074 2.47434 0
M  V30 49153 H 4674.27 -0.809983 1.22791 0
M  V30 49154 H 4676.23 -3.91523 1.44104 0
M  V30 49155 H 4674.86 -3.17718 0.570514 0
M  V30 49156 H 4673.91 -2.47705 2.88698 0
M  V30 49157 H 4675.23 -3.4114 3.63902 0
M  V30 49158 H 4674.38 -5.50282 2.55489 0
M  V30 49159 H 4673.12 -4.57176 1.69827 0
M  V30 49160 H 4672.12 -3.87882 3.8965 0
M  V30 49161 H 4673.35 -4.84368 4.75988 0
M  V30 49162 H 4671.29 -5.93329 2.79815 0
M  V30 49163 H 4671.21 -6.05629 4.52493 0
M  V30 49164 H 4672.48 -6.87899 3.66628 0
M  V30 49165 N 4676.71 -1.31907 -0.862456 0
M  V30 49166 C 4677.62 -1.22168 -2.0028 0
M  V30 49167 C 4678.63 -0.136846 -1.73461 0
M  V30 49168 O 4679.81 -0.356064 -1.98228 0
M  V30 49169 C 4676.88 -0.93721 -3.33792 0
M  V30 49170 C 4675.94 -2.1097 -3.73885 0
M  V30 49171 C 4675.17 -1.83871 -5.01026 0
M  V30 49172 O 4675.39 -0.777473 -5.65077 0
M  V30 49173 O 4674.33 -2.6976 -5.38064 0
M  V30 49174 H 4678.15 -2.18015 -2.11431 0
M  V30 49175 H 4675.74 -1.1172 -0.991918 0
M  V30 49176 H 4677.62 -0.794729 -4.13838 0
M  V30 49177 H 4676.29 -0.00883274 -3.23699 0
M  V30 49178 H 4675.2 -2.30762 -2.94448 0
M  V30 49179 H 4676.53 -3.02059 -3.88614 0
M  V30 49180 N 4678.19 1.07773 -1.1499 0
M  V30 49181 C 4679.12 2.14225 -0.786318 0
M  V30 49182 C 4680.1 1.60889 0.235291 0
M  V30 49183 O 4681.28 1.88099 0.122843 0
M  V30 49184 C 4678.41 3.3828 -0.168552 0
M  V30 49185 C 4677.45 4.10383 -1.16137 0
M  V30 49186 S 4678.29 4.62362 -2.70152 0
M  V30 49187 C 4679.44 5.89697 -2.09783 0
M  V30 49188 H 4679.68 2.44735 -1.68796 0
M  V30 49189 H 4677.21 1.19981 -0.971799 0
M  V30 49190 H 4679.17 4.10099 0.181443 0
M  V30 49191 H 4677.83 3.05956 0.710617 0
M  V30 49192 H 4677.02 4.99429 -0.677261 0
M  V30 49193 H 4676.62 3.44508 -1.45568 0
M  V30 49194 H 4678.92 6.61642 -1.45724 0
M  V30 49195 H 4679.86 6.42814 -2.96978 0
M  V30 49196 H 4680.27 5.43015 -1.54258 0
M  V30 49197 N 4679.66 0.946029 1.26048 0
M  V30 49198 C 4680.89 0.612205 1.97321 0
M  V30 49199 C 4681.3 -0.818111 1.70598 0
M  V30 49200 O 4680.65 -1.55774 0.973668 0
M  V30 49201 C 4680.71 0.78047 3.50926 0
M  V30 49202 C 4680.37 2.18633 4.01309 0
M  V30 49203 C 4681.37 3.16224 4.12672 0
M  V30 49204 C 4679.05 2.5082 4.35195 0
M  V30 49205 C 4681.05 4.44101 4.57223 0
M  V30 49206 C 4678.73 3.78929 4.79433 0
M  V30 49207 C 4679.73 4.75383 4.90408 0
M  V30 49208 O 4679.42 6.01209 5.33669 0
M  V30 49209 H 4679.15 0.229156 0.635974 0
M  V30 49210 H 4681.71 1.27041 1.61399 0
M  V30 49211 H 4679.94 0.0651224 3.86645 0
M  V30 49212 H 4681.63 0.448984 4.03409 0
M  V30 49213 H 4682.39 2.92681 3.86733 0
M  V30 49214 H 4678.27 1.76478 4.25883 0
M  V30 49215 H 4681.81 5.19389 4.65704 0
M  V30 49216 H 4677.71 4.02282 5.04816 0
M  V30 49217 H 4678.48 6.04461 5.51877 0
M  V30 49218 N 4681.14 -1.40518 0.713605 0
M  V30 49219 C 4682.07 -2.33381 0.0744684 0
M  V30 49220 C 4683.05 -1.52787 -0.747682 0
M  V30 49221 O 4684.24 -1.81261 -0.697008 0
M  V30 49222 C 4681.37 -3.36751 -0.84948 0
M  V30 49223 C 4680.32 -4.27793 -0.133097 0
M  V30 49224 C 4679.65 -5.21683 -1.17263 0
M  V30 49225 C 4680.95 -5.12412 1.01152 0
M  V30 49226 H 4682.64 -2.87078 0.850108 0
M  V30 49227 H 4680.19 -1.38032 0.41025 0
M  V30 49228 H 4682.14 -4.00652 -1.30598 0
M  V30 49229 H 4680.87 -2.81445 -1.65699 0
M  V30 49230 H 4679.52 -3.65341 0.303555 0
M  V30 49231 H 4679.17 -4.62684 -1.97314 0
M  V30 49232 H 4678.87 -5.83437 -0.698192 0
M  V30 49233 H 4680.4 -5.88462 -1.62926 0
M  V30 49234 H 4681.81 -5.69778 0.634474 0
M  V30 49235 H 4680.21 -5.83199 1.4142 0
M  V30 49236 H 4681.28 -4.48507 1.84307 0
M  V30 49237 N 4682.62 -0.459644 -1.50748 0
M  V30 49238 C 4683.57 0.340443 -2.28275 0
M  V30 49239 C 4684.54 0.997324 -1.32826 0
M  V30 49240 O 4685.72 1.01196 -1.61753 0
M  V30 49241 C 4682.86 1.42306 -3.14393 0
M  V30 49242 C 4681.98 0.782102 -4.24861 0
M  V30 49243 C 4681.11 1.84165 -4.98254 0
M  V30 49244 C 4680.15 1.18032 -6.00612 0
M  V30 49245 N 4679.29 2.1822 -6.67326 0
M  V30 49246 H 4684.13 -0.327003 -2.962 0
M  V30 49247 H 4681.66 -0.173108 -1.46078 0
M  V30 49248 H 4683.62 2.06228 -3.62665 0
M  V30 49249 H 4682.25 2.05983 -2.48537 0
M  V30 49250 H 4681.3 0.0306067 -3.80388 0
M  V30 49251 H 4682.62 0.259488 -4.98125 0
M  V30 49252 H 4681.77 2.55695 -5.50186 0
M  V30 49253 H 4680.51 2.39804 -4.24671 0
M  V30 49254 H 4679.51 0.450583 -5.47951 0
M  V30 49255 H 4680.74 0.630964 -6.76162 0
M  V30 49256 H 4678.68 2.72898 -5.96542 0
M  V30 49257 H 4678.6 1.70912 -7.36427 0
M  V30 49258 H 4679.87 2.89166 -7.23881 0
M  V30 49259 N 4684.1 1.56428 -0.191812 0
M  V30 49260 C 4685.03 2.21939 0.725618 0
M  V30 49261 C 4686.01 1.18144 1.22376 0
M  V30 49262 O 4687.19 1.4664 1.27319 0
M  V30 49263 C 4684.32 2.87618 1.94662 0
M  V30 49264 C 4683.28 3.97629 1.58352 0
M  V30 49265 C 4682.6 4.50456 2.88086 0
M  V30 49266 C 4683.9 5.16199 0.795952 0
M  V30 49267 H 4685.6 2.98861 0.179501 0
M  V30 49268 H 4683.14 1.4375 0.0848959 0
M  V30 49269 H 4685.1 3.32129 2.59362 0
M  V30 49270 H 4683.82 2.08096 2.51721 0
M  V30 49271 H 4682.48 3.53804 0.960123 0
M  V30 49272 H 4682.13 3.677 3.43228 0
M  V30 49273 H 4681.83 5.24684 2.64538 0
M  V30 49274 H 4683.35 4.97666 3.5378 0
M  V30 49275 H 4684.77 5.57276 1.34598 0
M  V30 49276 H 4683.16 5.96474 0.658718 0
M  V30 49277 H 4684.23 4.84472 -0.203648 0
M  V30 49278 N 4685.58 -0.0818102 1.57388 0
M  V30 49279 C 4686.99 -0.436358 1.53519 0
M  V30 49280 C 4687.19 -1.79755 0.910523 0
M  V30 49281 O 4686.25 -2.47322 0.508723 0
M  V30 49282 C 4687.56 -0.386629 2.98204 0
M  V30 49283 C 4689.11 -0.467535 3.09488 0
M  V30 49284 C 4689.58 -0.447818 4.55805 0
M  V30 49285 N 4691.08 -0.508186 4.60404 0
M  V30 49286 C 4691.81 -0.514983 5.71083 0
M  V30 49287 N 4691.31 -0.477192 6.91155 0
M  V30 49288 N 4693.1 -0.560791 5.59296 0
M  V30 49289 H 4685.25 0.809615 1.96364 0
M  V30 49290 H 4687.51 0.302765 0.898353 0
M  V30 49291 H 4687.22 0.546661 3.47426 0
M  V30 49292 H 4687.09 -1.20062 3.57582 0
M  V30 49293 H 4689.48 -1.39125 2.60247 0
M  V30 49294 H 4689.56 0.374842 2.53039 0
M  V30 49295 H 4689.21 0.472003 5.05702 0
M  V30 49296 H 4689.14 -1.30759 5.10107 0
M  V30 49297 H 4691.63 -0.542048 3.73992 0
M  V30 49298 H 4691.94 -0.486028 7.7127 0
M  V30 49299 H 4690.28 -0.444034 6.9358 0
M  V30 49300 H 4693.48 -0.587937 4.64393 0
M  V30 49301 H 4693.65 -0.562619 6.45553 0
M  V30 49302 N 4687.06 -1.53597 -0.352963 0
M  V30 49303 C 4688.28 -1.74624 -1.11898 0
M  V30 49304 C 4688.71 -0.479785 -1.81878 0
M  V30 49305 O 4688.06 0.567005 -1.72206 0
M  V30 49306 C 4688.11 -2.92037 -2.11535 0
M  V30 49307 O 4687.22 -2.61527 -3.18869 0
M  V30 49308 H 4686.56 -0.579542 -0.324078 0
M  V30 49309 H 4689.09 -2.00527 -0.406231 0
M  V30 49310 H 4689.1 -3.1856 -2.54919 0
M  V30 49311 H 4687.77 -3.83894 -1.59995 0
M  V30 49312 H 4686.35 -2.45862 -2.80368 0
M  V30 49313 N 4688.53 0.613463 -1.4517 0
M  V30 49314 C 4689.44 1.7529 -1.55918 0
M  V30 49315 C 4690.46 1.68242 -0.443915 0
M  V30 49316 O 4691.64 1.88703 -0.703776 0
M  V30 49317 C 4688.7 3.11735 -1.51731 0
M  V30 49318 C 4687.76 3.30281 -2.74249 0
M  V30 49319 C 4686.99 4.60217 -2.70252 0
M  V30 49320 O 4687.22 5.42162 -1.77248 0
M  V30 49321 O 4686.15 4.81349 -3.61368 0
M  V30 49322 H 4689.98 1.69174 -2.52218 0
M  V30 49323 H 4687.56 0.776841 -1.27615 0
M  V30 49324 H 4689.44 3.93039 -1.51982 0
M  V30 49325 H 4688.12 3.18355 -0.585809 0
M  V30 49326 H 4687.03 2.48588 -2.79561 0
M  V30 49327 H 4688.36 3.28534 -3.66505 0
M  V30 49328 N 4690.01 1.32363 0.855449 0
M  V30 49329 C 4691.24 1.25876 1.64204 0
M  V30 49330 C 4691.65 -0.173391 1.88002 0
M  V30 49331 O 4691.01 -1.11022 1.44846 0
M  V30 49332 C 4691.06 2.01434 3.00177 0
M  V30 49333 O 4690.78 3.39061 2.77433 0
M  V30 49334 C 4692.28 2.01962 3.94622 0
M  V30 49335 H 4689.5 0.434336 0.511462 0
M  V30 49336 H 4692.05 1.74473 1.06674 0
M  V30 49337 H 4690.2 1.56562 3.54355 0
M  V30 49338 H 4690.62 3.77724 3.63903 0
M  V30 49339 H 4692.09 2.59314 4.87299 0
M  V30 49340 H 4692.57 1.00569 4.27531 0
M  V30 49341 H 4693.17 2.46779 3.46382 0
M  V30 49342 N 4691.49 -1.07162 1.1556 0
M  V30 49343 C 4692.42 -2.164 0.877122 0
M  V30 49344 C 4693.4 -1.69217 -0.173052 0
M  V30 49345 O 4694.59 -1.94181 -0.0270157 0
M  V30 49346 C 4691.72 -3.45347 0.367754 0
M  V30 49347 C 4690.67 -4.05991 1.35483 0
M  V30 49348 C 4690 -5.30042 0.704224 0
M  V30 49349 C 4691.3 -4.45795 2.72148 0
M  V30 49350 H 4692.99 -2.39953 1.79062 0
M  V30 49351 H 4690.54 -1.15322 0.862372 0
M  V30 49352 H 4692.49 -4.21094 0.160465 0
M  V30 49353 H 4691.21 -3.21387 -0.581213 0
M  V30 49354 H 4689.87 -3.3229 1.54851 0
M  V30 49355 H 4689.52 -5.02374 -0.250952 0
M  V30 49356 H 4689.22 -5.71574 1.36297 0
M  V30 49357 H 4690.74 -6.08494 0.506753 0
M  V30 49358 H 4692.16 -5.12662 2.56613 0
M  V30 49359 H 4690.55 -4.98284 3.34415 0
M  V30 49360 H 4691.62 -3.57072 3.28067 0
M  V30 49361 N 4692.97 -0.9527 -1.25544 0
M  V30 49362 C 4693.9 -0.489367 -2.28314 0
M  V30 49363 C 4694.88 0.463302 -1.63669 0
M  V30 49364 O 4696.06 0.362673 -1.90783 0
M  V30 49365 C 4693.19 0.235481 -3.46501 0
M  V30 49366 C 4692.15 -0.631742 -4.23312 0
M  V30 49367 C 4691.47 0.223735 -5.34232 0
M  V30 49368 C 4692.77 -1.90888 -4.86168 0
M  V30 49369 H 4694.47 -1.34831 -2.67322 0
M  V30 49370 H 4692.01 -0.649773 -1.28507 0
M  V30 49371 H 4693.97 0.570735 -4.17517 0
M  V30 49372 H 4692.69 1.12866 -3.06478 0
M  V30 49373 H 4691.35 -0.950053 -3.54076 0
M  V30 49374 H 4691 1.11661 -4.9045 0
M  V30 49375 H 4690.7 -0.353197 -5.86538 0
M  V30 49376 H 4692.22 0.554 -6.08082 0
M  V30 49377 H 4693.64 -1.64016 -5.49338 0
M  V30 49378 H 4692.03 -2.43131 -5.48641 0
M  V30 49379 H 4693.1 -2.61318 -4.08461 0
M  V30 49380 N 4694.45 1.40138 -0.721047 0
M  V30 49381 C 4695.86 1.83677 -0.334617 0
M  V30 49382 C 4696.21 1.60274 1.13167 0
M  V30 49383 O 4695.33 1.08649 1.87148 0
M  V30 49384 C 4695.93 3.33435 -0.600554 0
M  V30 49385 C 4694.49 3.75446 -0.267774 0
M  V30 49386 C 4693.63 2.63293 -0.870189 0
M  V30 49387 H 4696.58 1.29328 -0.919778 0
M  V30 49388 H 4696.61 3.8027 0.132384 0
M  V30 49389 H 4696.12 3.50437 -1.66781 0
M  V30 49390 H 4694.22 3.64037 0.794201 0
M  V30 49391 H 4694.33 4.73341 -0.740586 0
M  V30 49392 H 4692.7 2.52953 -0.297828 0
M  V30 49393 H 4693.48 2.83105 -1.94182 0
M  V30 49394 N 4695.92 0.467632 1.50502 0
M  V30 49395 C 4696.85 -0.3183 2.3132 0
M  V30 49396 C 4697.83 -0.993515 1.3807 0
M  V30 49397 O 4699.02 -0.991352 1.66991 0
M  V30 49398 C 4696.15 -1.40264 3.17716 0
M  V30 49399 C 4695.1 -0.849226 4.1949 0
M  V30 49400 C 4694.43 -2.0316 4.94601 0
M  V30 49401 C 4695.73 0.137126 5.2212 0
M  V30 49402 H 4697.42 0.35621 2.97273 0
M  V30 49403 H 4694.97 0.172753 1.4296 0
M  V30 49404 H 4696.92 -1.95991 3.73049 0
M  V30 49405 H 4695.65 -2.10587 2.49641 0
M  V30 49406 H 4694.31 -0.313948 3.65253 0
M  V30 49407 H 4693.95 -2.72173 4.23003 0
M  V30 49408 H 4693.65 -1.66754 5.63442 0
M  V30 49409 H 4695.18 -2.59384 5.52768 0
M  V30 49410 H 4696.59 -0.330855 5.72345 0
M  V30 49411 H 4694.99 0.415281 5.98661 0
M  V30 49412 H 4696.06 1.06414 4.73079 0
M  V30 49413 N 4697.4 -1.56324 0.200105 0
M  V30 49414 C 4698.63 -2.02106 -0.442803 0
M  V30 49415 C 4699.04 -1.0802 -1.54846 0
M  V30 49416 O 4698.4 -0.0859438 -1.82298 0
M  V30 49417 C 4698.45 -3.47552 -0.994461 0
M  V30 49418 O 4698.17 -4.38049 0.0670862 0
M  V30 49419 C 4699.67 -4.08876 -1.71275 0
M  V30 49420 H 4696.89 -0.661811 -0.110668 0
M  V30 49421 H 4699.44 -2.02132 0.310278 0
M  V30 49422 H 4697.59 -3.4821 -1.6979 0
M  V30 49423 H 4698.01 -5.23369 -0.344278 0
M  V30 49424 H 4699.48 -5.12482 -2.051 0
M  V30 49425 H 4699.96 -3.52625 -2.61825 0
M  V30 49426 H 4700.56 -4.12006 -1.05504 0
M  V30 49427 N 4698.88 0.0734624 -1.57429 0
M  V30 49428 C 4699.81 1.11416 -2.00298 0
M  V30 49429 C 4700.82 1.35081 -0.908684 0
M  V30 49430 O 4702.01 1.3335 -1.18659 0
M  V30 49431 C 4699.11 2.4654 -2.32532 0
M  V30 49432 C 4698.29 2.42854 -3.63786 0
M  V30 49433 C 4697.35 3.60074 -3.8371 0
M  V30 49434 O 4696.37 3.41579 -4.55316 0
M  V30 49435 N 4697.57 4.8036 -3.25936 0
M  V30 49436 H 4700.34 0.749104 -2.90187 0
M  V30 49437 H 4697.9 0.262139 -1.59764 0
M  V30 49438 H 4699.89 3.23598 -2.43035 0
M  V30 49439 H 4698.46 2.75054 -1.48541 0
M  V30 49440 H 4697.68 1.51193 -3.64053 0
M  V30 49441 H 4698.97 2.3749 -4.49973 0
M  V30 49442 H 4698.37 4.9829 -2.67812 0
M  V30 49443 H 4696.92 5.54936 -3.4189 0
M  V30 49444 N 4700.36 1.53782 0.344812 0
M  V30 49445 C 4701.59 1.7465 1.10368 0
M  V30 49446 C 4702 0.484975 1.82879 0
M  V30 49447 O 4701.34 -0.553001 1.75179 0
M  V30 49448 C 4701.4 2.87152 2.16296 0
M  V30 49449 C 4701.06 4.26801 1.63371 0
M  V30 49450 C 4702.06 5.08416 1.0867 0
M  V30 49451 C 4699.75 4.73281 1.68256 0
M  V30 49452 C 4701.74 6.34611 0.595569 0
M  V30 49453 C 4699.43 5.9945 1.18755 0
M  V30 49454 C 4700.43 6.79948 0.644976 0
M  V30 49455 O 4700.11 8.03746 0.157343 0
M  V30 49456 H 4699.85 0.587124 0.335054 0
M  V30 49457 H 4702.4 2.01404 0.403181 0
M  V30 49458 H 4700.63 2.5592 2.899 0
M  V30 49459 H 4702.32 2.96002 2.77737 0
M  V30 49460 H 4703.08 4.7367 1.04219 0
M  V30 49461 H 4698.96 4.10684 2.09427 0
M  V30 49462 H 4702.51 6.97389 0.171409 0
M  V30 49463 H 4698.4 6.33691 1.22906 0
M  V30 49464 H 4699.17 8.18039 0.27475 0
M  V30 49465 N 4701.84 -0.605756 1.45494 0
M  V30 49466 C 4702.78 -1.73749 1.54642 0
M  V30 49467 C 4703.78 -1.64206 0.416277 0
M  V30 49468 O 4704.98 -1.69977 0.592259 0
M  V30 49469 H 4701.36 -0.574056 0.485761 0
M  V30 49470 H 4703.33 -1.6316 2.49843 0
M  V30 49471 C 4702.08 -3.1213 1.532 0
M  V30 49472 H 4701.4 -3.20133 2.39489 0
M  V30 49473 H 4702.84 -3.91142 1.63659 0
M  V30 49474 C 4701.3 -3.3592 0.256734 0
M  V30 49475 O 4701.83 -3.96197 -0.662659 0
M  V30 49476 N 4700.04 -2.90203 0.151853 0
M  V30 49477 H 4699.58 -2.41333 0.900895 0
M  V30 49478 H 4699.54 -3.06495 -0.700592 0
M  V30 49479 N 4703.31 -1.32814 -0.848417 0
M  V30 49480 C 4704.73 -1.11941 -1.13761 0
M  V30 49481 C 4704.93 0.0960082 -2.01271 0
M  V30 49482 O 4703.99 0.77908 -2.4018 0
M  V30 49483 C 4705.3 -2.40206 -1.80891 0
M  V30 49484 C 4706.85 -2.46022 -1.93499 0
M  V30 49485 C 4707.32 -3.74225 -2.64045 0
M  V30 49486 N 4708.81 -3.75242 -2.71566 0
M  V30 49487 C 4709.55 -4.71146 -3.26817 0
M  V30 49488 N 4709.04 -5.77419 -3.8283 0
M  V30 49489 N 4710.84 -4.58634 -3.24979 0
M  V30 49490 H 4702.99 -2.10731 -0.265781 0
M  V30 49491 H 4705.25 -0.930677 -0.180398 0
M  V30 49492 H 4704.96 -3.29098 -1.24047 0
M  V30 49493 H 4704.83 -2.51637 -2.80995 0
M  V30 49494 H 4707.22 -1.57586 -2.49501 0
M  V30 49495 H 4707.3 -2.38539 -0.923727 0
M  V30 49496 H 4706.94 -4.63038 -2.08705 0
M  V30 49497 H 4706.87 -3.78981 -3.65624 0
M  V30 49498 H 4709.36 -2.98431 -2.31834 0
M  V30 49499 H 4709.68 -6.46646 -4.23164 0
M  V30 49500 H 4708.02 -5.81166 -3.81145 0
M  V30 49501 H 4711.21 -3.74772 -2.8047 0
M  V30 49502 H 4711.39 -5.33548 -3.67737 0
M  V30 49503 N 4704.79 1.06547 -1.16127 0
M  V30 49504 C 4706.02 1.82736 -0.963902 0
M  V30 49505 C 4706.43 1.82713 0.491164 0
M  V30 49506 O 4705.77 1.24299 1.35261 0
M  V30 49507 C 4705.84 3.30645 -1.41118 0
M  V30 49508 C 4705.5 3.54374 -2.88562 0
M  V30 49509 C 4706.5 3.47636 -3.86581 0
M  V30 49510 C 4704.18 3.81778 -3.26421 0
M  V30 49511 C 4706.18 3.67964 -5.20462 0
M  V30 49512 C 4703.86 4.01756 -4.60473 0
M  V30 49513 C 4704.86 3.94846 -5.57302 0
M  V30 49514 O 4704.55 4.14282 -6.88931 0
M  V30 49515 H 4704.28 0.583124 -0.341969 0
M  V30 49516 H 4706.83 1.35346 -1.54501 0
M  V30 49517 H 4705.06 3.78884 -0.773527 0
M  V30 49518 H 4706.75 3.8832 -1.18163 0
M  V30 49519 H 4707.52 3.26458 -3.58678 0
M  V30 49520 H 4703.4 3.86267 -2.51632 0
M  V30 49521 H 4706.94 3.62486 -5.96028 0
M  V30 49522 H 4702.84 4.22423 -4.88087 0
M  V30 49523 H 4703.61 4.31585 -6.95469 0
M  V30 49524 N 4706.27 0.959345 1.25037 0
M  V30 49525 C 4707.2 0.501469 2.28052 0
M  V30 49526 C 4708.18 -0.454615 1.63912 0
M  V30 49527 O 4709.37 -0.35255 1.90973 0
M  V30 49528 C 4706.5 -0.217102 3.46621 0
M  V30 49529 C 4705.45 0.654183 4.22971 0
M  V30 49530 C 4704.78 -0.195401 5.34343 0
M  V30 49531 C 4706.08 1.93464 4.85148 0
M  V30 49532 H 4707.77 1.36247 2.66603 0
M  V30 49533 H 4705.32 0.656579 1.2816 0
M  V30 49534 H 4707.27 -0.548585 4.17814 0
M  V30 49535 H 4705.99 -1.11239 3.07072 0
M  V30 49536 H 4704.65 0.968817 3.53567 0
M  V30 49537 H 4704.3 -1.09059 4.91035 0
M  V30 49538 H 4704 0.384297 5.86342 0
M  V30 49539 H 4705.52 -0.521744 6.08367 0
M  V30 49540 H 4706.94 1.66927 5.4846 0
M  V30 49541 H 4705.34 2.46038 5.47344 0
M  V30 49542 H 4706.41 2.63481 4.0707 0
M  V30 49543 N 4707.75 -1.39754 0.728469 0
M  V30 49544 C 4708.71 -2.29012 0.0928102 0
M  V30 49545 C 4709.71 -1.45994 -0.673974 0
M  V30 49546 O 4710.9 -1.66751 -0.503961 0
M  V30 49547 C 4708.03 -3.29399 -0.878021 0
M  V30 49548 H 4709.23 -2.86726 0.879112 0
M  V30 49549 H 4706.78 -1.48291 0.493899 0
M  V30 49550 H 4707.51 -2.76728 -1.69091 0
M  V30 49551 H 4707.3 -3.90701 -0.330914 0
M  V30 49552 H 4708.79 -3.96204 -1.31956 0
M  V30 49553 N 4709.23 -0.475607 -1.50252 0
M  V30 49554 C 4710.16 0.306028 -2.31486 0
M  V30 49555 C 4711.14 0.986179 -1.38595 0
M  V30 49556 O 4712.32 0.982482 -1.67514 0
M  V30 49557 C 4709.45 1.38577 -3.18455 0
M  V30 49558 C 4708.41 0.826967 -4.19935 0
M  V30 49559 C 4707.73 2.00534 -4.95672 0
M  V30 49560 C 4709.03 -0.164813 -5.2204 0
M  V30 49561 H 4710.73 -0.371971 -2.9708 0
M  V30 49562 H 4708.27 -0.180332 -1.42866 0
M  V30 49563 H 4710.23 1.9401 -3.74083 0
M  V30 49564 H 4708.95 2.0926 -2.50754 0
M  V30 49565 H 4707.61 0.294573 -3.65415 0
M  V30 49566 H 4707.26 2.69925 -4.2444 0
M  V30 49567 H 4706.96 1.63764 -5.64318 0
M  V30 49568 H 4708.48 2.56449 -5.54136 0
M  V30 49569 H 4709.89 0.300498 -5.72512 0
M  V30 49570 H 4708.29 -0.447023 -5.98433 0
M  V30 49571 H 4709.36 -1.08922 -4.72508 0
M  V30 49572 N 4710.7 1.56216 -0.208392 0
M  V30 49573 C 4711.93 2.02045 0.431452 0
M  V30 49574 C 4712.34 1.0876 1.54815 0
M  V30 49575 O 4711.69 0.0870654 1.83494 0
M  V30 49576 C 4711.75 3.44243 1.0362 0
M  V30 49577 C 4711.41 4.56965 0.0565895 0
M  V30 49578 C 4712.41 5.14622 -0.738954 0
M  V30 49579 C 4710.09 5.02266 -0.0583501 0
M  V30 49580 C 4712.09 6.1604 -1.63627 0
M  V30 49581 C 4709.77 6.03525 -0.959213 0
M  V30 49582 C 4710.77 6.60287 -1.74673 0
M  V30 49583 O 4710.46 7.59576 -2.63247 0
M  V30 49584 H 4710.19 0.666776 0.11129 0
M  V30 49585 H 4712.75 2.02918 -0.318348 0
M  V30 49586 H 4710.98 3.40397 1.83485 0
M  V30 49587 H 4712.67 3.73798 1.58208 0
M  V30 49588 H 4713.43 4.80481 -0.660533 0
M  V30 49589 H 4709.31 4.57773 0.544472 0
M  V30 49590 H 4712.85 6.60271 -2.25139 0
M  V30 49591 H 4708.75 6.37088 -1.0387 0
M  V30 49592 H 4709.52 7.77048 -2.57175 0
M  V30 49593 N 4712.18 -0.0651125 1.57465 0
M  V30 49594 C 4713.13 -1.09535 2.05195 0
M  V30 49595 C 4714.12 -1.39671 0.958558 0
M  V30 49596 O 4715.33 -1.38999 1.14364 0
M  V30 49597 H 4711.71 -0.3706 0.654339 0
M  V30 49598 H 4713.68 -0.6667 2.90857 0
M  V30 49599 C 4712.43 -2.39872 2.51707 0
M  V30 49600 H 4711.75 -2.17535 3.35438 0
M  V30 49601 H 4713.19 -3.10389 2.8885 0
M  V30 49602 C 4711.65 -3.06305 1.40281 0
M  V30 49603 O 4712.18 -3.94662 0.748662 0
M  V30 49604 N 4710.38 -2.67037 1.14627 0
M  V30 49605 H 4709.93 -1.95275 1.68004 0
M  V30 49606 H 4709.89 -3.11809 0.402798 0
M  V30 49607 N 4713.66 -1.53962 -0.336652 0
M  V30 49608 C 4714.61 -1.82433 -1.41374 0
M  V30 49609 C 4715.58 -0.670498 -1.51966 0
M  V30 49610 O 4716.76 -0.915624 -1.67395 0
M  V30 49611 C 4713.9 -2.04574 -2.77927 0
M  V30 49612 C 4713.02 -3.32277 -2.76072 0
M  V30 49613 C 4712.15 -3.44448 -4.04387 0
M  V30 49614 C 4711.19 -4.66075 -3.96788 0
M  V30 49615 N 4710.33 -4.75243 -5.16806 0
M  V30 49616 H 4715.17 -2.74329 -1.16395 0
M  V30 49617 H 4712.7 -1.3587 -0.563704 0
M  V30 49618 H 4714.66 -2.15401 -3.57293 0
M  V30 49619 H 4713.29 -1.15984 -3.01243 0
M  V30 49620 H 4712.34 -3.30256 -1.88772 0
M  V30 49621 H 4713.66 -4.21742 -2.66336 0
M  V30 49622 H 4712.81 -3.54745 -4.9218 0
M  V30 49623 H 4711.55 -2.53052 -4.16913 0
M  V30 49624 H 4710.55 -4.55848 -3.0738 0
M  V30 49625 H 4711.78 -5.58843 -3.85839 0
M  V30 49626 H 4709.72 -3.86758 -5.29863 0
M  V30 49627 H 4709.64 -5.58654 -5.09354 0
M  V30 49628 H 4710.91 -4.89857 -6.0635 0
M  V30 49629 N 4715.14 0.598031 -1.45813 0
M  V30 49630 C 4716.37 1.38116 -1.53648 0
M  V30 49631 C 4716.78 1.88424 -0.171147 0
M  V30 49632 O 4716.12 1.63412 0.83918 0
M  V30 49633 C 4716.18 2.61424 -2.46775 0
M  V30 49634 C 4715.85 2.32688 -3.93326 0
M  V30 49635 C 4716.84 1.92462 -4.82964 0
M  V30 49636 C 4714.53 2.45305 -4.38327 0
M  V30 49637 C 4716.52 1.65227 -6.15613 0
M  V30 49638 C 4714.21 2.17683 -5.71014 0
M  V30 49639 C 4715.21 1.77707 -6.59477 0
M  V30 49640 O 4714.89 1.50414 -7.89703 0
M  V30 49641 H 4714.63 0.428845 -0.522559 0
M  V30 49642 H 4717.18 0.735503 -1.9178 0
M  V30 49643 H 4715.41 3.28742 -2.03632 0
M  V30 49644 H 4717.1 3.23478 -2.45187 0
M  V30 49645 H 4717.87 1.82242 -4.49458 0
M  V30 49646 H 4713.74 2.75386 -3.69707 0
M  V30 49647 H 4717.29 1.33949 -6.84619 0
M  V30 49648 H 4713.19 2.27522 -6.04073 0
M  V30 49649 H 4713.95 1.64387 -8.01822 0
M  V30 49650 N 4716.62 1.33262 0.841362 0
M  V30 49651 C 4717.56 1.23308 1.95099 0
M  V30 49652 C 4718.53 0.112262 1.6572 0
M  V30 49653 O 4719.72 0.290105 1.88582 0
M  V30 49654 C 4716.86 0.975699 3.3102 0
M  V30 49655 C 4715.97 2.18256 3.72812 0
M  V30 49656 C 4715.11 1.85954 4.97589 0
M  V30 49657 C 4714.15 3.02885 5.31909 0
M  V30 49658 N 4713.28 2.70588 6.47863 0
M  V30 49659 H 4718.12 2.18214 2.02945 0
M  V30 49660 H 4715.66 1.08514 0.993135 0
M  V30 49661 H 4717.62 0.806914 4.09322 0
M  V30 49662 H 4716.25 0.063389 3.22738 0
M  V30 49663 H 4715.3 2.46117 2.90052 0
M  V30 49664 H 4716.61 3.0568 3.94159 0
M  V30 49665 H 4715.77 1.65704 5.83633 0
M  V30 49666 H 4714.51 0.95762 4.78206 0
M  V30 49667 H 4713.51 3.23751 4.44371 0
M  V30 49668 H 4714.74 3.93828 5.53242 0
M  V30 49669 H 4712.68 1.82952 6.29972 0
M  V30 49670 H 4712.6 3.51543 6.69294 0
M  V30 49671 H 4713.87 2.53799 7.37025 0
M  V30 49672 N 4718.1 -1.0593 1.1669 0
M  V30 49673 C 4719.33 -1.82222 0.973579 0
M  V30 49674 C 4719.73 -1.82971 -0.481467 0
M  V30 49675 O 4719.08 -1.25014 -1.346 0
M  V30 49676 C 4719.14 -3.29892 1.4287 0
M  V30 49677 C 4718.8 -3.52839 2.90437 0
M  V30 49678 C 4719.8 -3.45581 3.88419 0
M  V30 49679 C 4717.48 -3.80041 3.28441 0
M  V30 49680 C 4719.48 -3.65199 5.22407 0
M  V30 49681 C 4717.17 -3.99309 4.62597 0
M  V30 49682 C 4718.16 -3.91885 5.59388 0
M  V30 49683 O 4717.85 -4.10623 6.91118 0
M  V30 49684 H 4717.58 -0.581302 0.345057 0
M  V30 49685 H 4720.14 -1.34524 1.55217 0
M  V30 49686 H 4718.37 -3.78469 0.79361 0
M  V30 49687 H 4720.06 -3.87688 1.20221 0
M  V30 49688 H 4720.82 -3.24551 3.60405 0
M  V30 49689 H 4716.7 -3.84927 2.53677 0
M  V30 49690 H 4720.25 -3.5932 5.97942 0
M  V30 49691 H 4716.14 -4.19829 4.90321 0
M  V30 49692 H 4716.91 -4.2789 6.97748 0
M  V30 49693 N 4719.57 -0.965962 -1.24527 0
M  V30 49694 C 4720.82 -0.626899 -1.92552 0
M  V30 49695 C 4721.15 0.837677 -1.75537 0
M  V30 49696 O 4720.4 1.61789 -1.10104 0
M  V30 49697 C 4720.7 -0.94555 -3.44665 0
M  V30 49698 C 4720.37 -2.39799 -3.81847 0
M  V30 49699 C 4719.03 -2.79497 -3.91708 0
M  V30 49700 C 4721.38 -3.34069 -4.00059 0
M  V30 49701 C 4718.71 -4.1251 -4.17196 0
M  V30 49702 C 4721.06 -4.66709 -4.27043 0
M  V30 49703 C 4719.73 -5.06187 -4.35122 0
M  V30 49704 H 4719 -0.229399 -0.704597 0
M  V30 49705 H 4721.64 -1.21712 -1.47846 0
M  V30 49706 H 4719.95 -0.273063 -3.90847 0
M  V30 49707 H 4721.65 -0.661623 -3.95504 0
M  V30 49708 H 4718.24 -2.08016 -3.74736 0
M  V30 49709 H 4722.42 -3.04584 -3.91844 0
M  V30 49710 H 4717.68 -4.42724 -4.2167 0
M  V30 49711 H 4721.85 -5.39726 -4.40078 0
M  V30 49712 H 4719.48 -6.09278 -4.54625 0
M  V30 49713 N 4721.05 1.39365 -0.73587 0
M  V30 49714 C 4722.28 2.05318 -0.293124 0
M  V30 49715 C 4722.7 1.55119 1.06394 0
M  V30 49716 O 4722.06 0.69532 1.67437 0
M  V30 49717 C 4722.11 3.59304 -0.305449 0
M  V30 49718 O 4721.21 4.06301 0.706618 0
M  V30 49719 H 4720.55 0.650525 -0.133092 0
M  V30 49720 H 4723.08 1.78383 -1.00204 0
M  V30 49721 H 4723.09 4.07724 -0.150141 0
M  V30 49722 H 4721.77 3.95203 -1.29567 0
M  V30 49723 H 4720.34 3.69293 0.517375 0
M  V30 49724 N 4722.53 0.483569 1.49998 0
M  V30 49725 C 4723.78 -0.066956 2.01989 0
M  V30 49726 C 4724.1 -1.39085 1.36676 0
M  V30 49727 O 4723.37 -1.88976 0.516218 0
M  V30 49728 H 4721.95 -0.0277344 0.746485 0
M  V30 49729 H 4724.61 0.636838 1.84202 0
M  V30 49730 H 4723.71 -0.209375 3.11397 0
M  V30 49731 N 4724.01 -1.56103 0.216674 0
M  V30 49732 C 4724.97 -2.18822 -0.681885 0
M  V30 49733 C 4725.97 -1.1487 -1.12524 0
M  V30 49734 O 4727.16 -1.40132 -1.03483 0
M  V30 49735 C 4724.29 -2.80763 -1.93352 0
M  V30 49736 H 4725.49 -2.99595 -0.135149 0
M  V30 49737 H 4723.04 -1.56265 -0.0329454 0
M  V30 49738 H 4723.77 -2.03846 -2.52225 0
M  V30 49739 H 4723.56 -3.56881 -1.62414 0
M  V30 49740 H 4725.05 -3.28853 -2.57381 0
M  V30 49741 N 4725.49 0.0567608 -1.57498 0
M  V30 49742 C 4726.42 1.06586 -2.07754 0
M  V30 49743 C 4727.4 1.39444 -0.974131 0
M  V30 49744 O 4728.58 1.48811 -1.24776 0
M  V30 49745 C 4725.71 2.375 -2.53399 0
M  V30 49746 C 4724.67 2.18957 -3.67753 0
M  V30 49747 C 4723.99 3.55388 -3.99504 0
M  V30 49748 C 4725.29 1.59841 -4.9724 0
M  V30 49749 H 4726.99 0.647603 -2.92312 0
M  V30 49750 H 4724.53 0.310066 -1.40622 0
M  V30 49751 H 4726.48 3.08399 -2.87173 0
M  V30 49752 H 4725.21 2.81334 -1.65888 0
M  V30 49753 H 4723.87 1.50496 -3.34285 0
M  V30 49754 H 4723.52 3.96819 -3.09102 0
M  V30 49755 H 4723.22 3.43814 -4.76514 0
M  V30 49756 H 4724.74 4.27693 -4.35788 0
M  V30 49757 H 4726.15 2.20623 -5.29149 0
M  V30 49758 H 4724.55 1.58922 -5.78674 0
M  V30 49759 H 4725.62 0.561337 -4.8164 0
M  V30 49760 N 4726.96 1.54139 0.328482 0
M  V30 49761 C 4728.24 1.62753 1.08494 0
M  V30 49762 C 4728.62 0.45827 2.06066 0
M  V30 49763 O 4727.97 -0.547968 2.21832 0
M  V30 49764 C 4728.18 2.99525 1.79124 0
M  V30 49765 C 4729.53 3.55402 2.32324 0
M  V30 49766 O 4730.55 3.01798 1.89199 0
M  V30 49767 O 4729.41 4.49197 3.11263 0
M  V30 49768 H 4726.5 0.658878 0.499809 0
M  V30 49769 H 4729.05 1.66485 0.328767 0
M  V30 49770 H 4727.82 3.76065 1.08126 0
M  V30 49771 H 4727.44 2.9945 2.61563 0
M  V30 49772 N 4728.44 -0.59029 1.46128 0
M  V30 49773 C 4729.67 -1.37498 1.54602 0
M  V30 49774 C 4730.08 -1.87896 0.184513 0
M  V30 49775 O 4729.44 -1.63195 -0.816927 0
M  V30 49776 C 4729.49 -2.5677 2.54463 0
M  V30 49777 O 4729.21 -2.08462 3.85325 0
M  V30 49778 C 4730.71 -3.49418 2.72804 0
M  V30 49779 H 4727.93 -0.420306 0.523052 0
M  V30 49780 H 4730.48 -0.718316 1.91469 0
M  V30 49781 H 4728.63 -3.18442 2.2062 0
M  V30 49782 H 4729.05 -2.86082 4.3961 0
M  V30 49783 H 4730.52 -4.29607 3.46615 0
M  V30 49784 H 4731 -4.0087 1.79443 0
M  V30 49785 H 4731.6 -2.93587 3.07712 0
M  V30 49786 N 4729.92 -1.33707 -0.834283 0
M  V30 49787 C 4731.15 -1.28473 -1.6218 0
M  V30 49788 C 4731.56 0.14346 -1.88254 0
M  V30 49789 O 4730.92 1.08704 -1.46594 0
M  V30 49790 C 4730.97 -2.06184 -2.96935 0
M  V30 49791 O 4730.69 -3.43432 -2.72004 0
M  V30 49792 C 4732.19 -2.08214 -3.91359 0
M  V30 49793 H 4729.41 -0.442418 -0.504487 0
M  V30 49794 H 4731.96 -1.76148 -1.03885 0
M  V30 49795 H 4730.11 -1.62179 -3.51819 0
M  V30 49796 H 4730.53 -3.83465 -3.57847 0
M  V30 49797 H 4732 -2.67034 -4.83112 0
M  V30 49798 H 4732.48 -1.07358 -4.25877 0
M  V30 49799 H 4733.08 -2.52258 -3.42412 0
M  V30 49800 N 4731.4 1.0531 -1.1725 0
M  V30 49801 C 4732.62 1.82506 -0.985212 0
M  V30 49802 C 4733.05 1.82345 0.461724 0
M  V30 49803 O 4732.41 1.23155 1.33051 0
M  V30 49804 C 4732.45 3.2656 -1.5294 0
M  V30 49805 O 4731.56 4.05663 -0.742367 0
M  V30 49806 H 4730.9 0.564335 -0.349889 0
M  V30 49807 H 4733.43 1.32712 -1.5572 0
M  V30 49808 H 4733.44 3.77363 -1.55116 0
M  V30 49809 H 4732.11 3.25992 -2.58267 0
M  V30 49810 H 4730.69 3.64394 -0.791922 0
M  V30 49811 N 4732.88 0.972553 1.24013 0
M  V30 49812 C 4734.11 0.653922 1.95978 0
M  V30 49813 C 4734.51 -0.78174 1.72295 0
M  V30 49814 O 4733.86 -1.53673 1.00649 0
M  V30 49815 C 4733.92 0.854731 3.49191 0
M  V30 49816 C 4733.58 2.27096 3.96581 0
M  V30 49817 C 4734.58 3.24906 4.05872 0
M  V30 49818 C 4732.27 2.59995 4.29776 0
M  V30 49819 C 4734.26 4.537 4.477 0
M  V30 49820 C 4731.95 3.89014 4.71287 0
M  V30 49821 C 4732.94 4.85678 4.80215 0
M  V30 49822 O 4732.63 6.12394 5.20796 0
M  V30 49823 H 4732.36 0.242595 0.630971 0
M  V30 49824 H 4734.92 1.30436 1.58668 0
M  V30 49825 H 4733.15 0.147121 3.8642 0
M  V30 49826 H 4734.84 0.534452 4.02366 0
M  V30 49827 H 4735.6 3.00819 3.80438 0
M  V30 49828 H 4731.48 1.85472 4.22044 0
M  V30 49829 H 4735.03 5.29151 4.54583 0
M  V30 49830 H 4730.92 4.129 4.96169 0
M  V30 49831 H 4731.69 6.16031 5.38932 0
M  V30 49832 N 4734.35 -1.38973 0.74325 0
M  V30 49833 C 4735.77 -1.53982 0.419718 0
M  V30 49834 C 4735.97 -1.70841 -1.06844 0
M  V30 49835 O 4735.03 -1.71356 -1.85454 0
M  V30 49836 C 4736.34 -2.75283 1.20994 0
M  V30 49837 C 4737.89 -2.89125 1.19899 0
M  V30 49838 C 4738.36 -4.13374 1.97195 0
M  V30 49839 N 4739.85 -4.2043 1.94403 0
M  V30 49840 C 4740.59 -5.15538 2.51014 0
M  V30 49841 N 4740.08 -6.16384 3.16296 0
M  V30 49842 N 4741.88 -5.07814 2.41001 0
M  V30 49843 H 4734.03 -1.26279 1.70785 0
M  V30 49844 H 4736.29 -0.612663 0.723428 0
M  V30 49845 H 4736 -2.69196 2.26332 0
M  V30 49846 H 4735.87 -3.68182 0.819888 0
M  V30 49847 H 4738.26 -2.94699 0.153709 0
M  V30 49848 H 4738.34 -1.97267 1.62848 0
M  V30 49849 H 4737.98 -4.08561 3.01729 0
M  V30 49850 H 4737.91 -5.04292 1.51647 0
M  V30 49851 H 4740.4 -3.482 1.46852 0
M  V30 49852 H 4740.72 -6.8543 3.56939 0
M  V30 49853 H 4739.06 -6.16747 3.20388 0
M  V30 49854 H 4742.25 -4.27967 1.89637 0
M  V30 49855 H 4742.43 -5.81756 2.85418 0
M  V30 49856 N 4735.83 -0.491517 -1.49739 0
M  V30 49857 C 4736.74 0.296753 -2.32716 0
M  V30 49858 C 4737.76 0.976485 -1.44017 0
M  V30 49859 O 4738.93 0.959961 -1.7705 0
M  V30 49860 C 4736 1.35277 -3.19219 0
M  V30 49861 C 4735.06 0.687483 -4.2376 0
M  V30 49862 C 4734.29 1.69319 -5.06129 0
M  V30 49863 O 4734.52 2.92202 -4.89871 0
M  V30 49864 O 4733.45 1.25374 -5.88698 0
M  V30 49865 H 4737.28 -0.382154 -3.01286 0
M  V30 49866 H 4734.86 -0.253004 -1.47242 0
M  V30 49867 H 4736.74 1.96398 -3.72835 0
M  V30 49868 H 4735.42 2.01478 -2.53354 0
M  V30 49869 H 4734.33 0.0367844 -3.74082 0
M  V30 49870 H 4735.66 0.0680835 -4.92153 0
M  V30 49871 N 4737.31 1.55986 -0.224949 0
M  V30 49872 C 4738.27 2.1918 0.670271 0
M  V30 49873 C 4739.27 1.15465 1.11913 0
M  V30 49874 O 4740.46 1.40679 1.02738 0
M  V30 49875 C 4737.6 2.81784 1.91861 0
M  V30 49876 H 4738.79 2.99663 0.119259 0
M  V30 49877 H 4736.34 1.56281 0.0246578 0
M  V30 49878 H 4737.08 2.05181 2.5114 0
M  V30 49879 H 4736.86 3.57738 1.60519 0
M  V30 49880 H 4738.35 3.30214 2.55634 0
M  V30 49881 N 4738.79 -0.0484076 1.57526 0
M  V30 49882 C 4739.75 -1.03949 2.04273 0
M  V30 49883 C 4740.75 -1.30207 0.943542 0
M  V30 49884 O 4741.94 -1.25535 1.20775 0
M  V30 49885 C 4739.07 -2.37733 2.44327 0
M  V30 49886 H 4740.27 -0.636079 2.93077 0
M  V30 49887 H 4737.82 -0.294757 1.53496 0
M  V30 49888 H 4738.55 -2.82861 1.5862 0
M  V30 49889 H 4738.34 -2.20009 3.24559 0
M  V30 49890 H 4739.83 -3.08926 2.80989 0
M  V30 49891 N 4740.27 -1.54311 -0.320303 0
M  V30 49892 C 4741.51 -1.74399 -1.06604 0
M  V30 49893 C 4741.87 -0.508668 -1.85139 0
M  V30 49894 O 4743.07 -0.586948 -2.62313 0
M  V30 49895 C 4741.34 -2.98625 -1.96361 0
M  V30 49896 S 4742.9 -3.39631 -2.77842 0
M  V30 49897 H 4739.72 -0.613217 -0.359841 0
M  V30 49898 H 4742.32 -1.92491 -0.34166 0
M  V30 49899 H 4741.03 -3.86678 -1.37507 0
M  V30 49900 H 4740.56 -2.83065 -2.73199 0
M  V30 49901 H 4742.57 -2.95186 -3.98848 0
M  V30 49902 N 4741.74 0.582532 -1.46439 0
M  V30 49903 C 4742.98 1.35178 -1.53317 0
M  V30 49904 C 4743.35 1.91149 -0.180575 0
M  V30 49905 O 4744.55 2.68513 -0.124111 0
M  V30 49906 C 4742.82 2.4508 -2.60135 0
M  V30 49907 S 4744.38 3.32429 -2.8642 0
M  V30 49908 H 4741.2 0.46054 -0.541687 0
M  V30 49909 H 4743.8 0.669645 -1.83674 0
M  V30 49910 H 4742.5 2.02353 -3.57045 0
M  V30 49911 H 4742.03 3.18066 -2.31512 0
M  V30 49912 H 4744.05 4.43917 -2.21704 0
M  V30 49913 N 4743.22 1.34147 0.82718 0
M  V30 49914 C 4744.17 1.21929 1.92658 0
M  V30 49915 C 4745.16 0.119351 1.60457 0
M  V30 49916 O 4746.35 0.3486 1.73533 0
M  V30 49917 C 4743.48 0.972607 3.29234 0
M  V30 49918 C 4742.56 2.11553 3.67568 0
M  V30 49919 N 4742.95 3.36641 3.77501 0
M  V30 49920 C 4741.25 2.02482 3.97388 0
M  V30 49921 C 4741.95 4.11672 4.10976 0
M  V30 49922 N 4740.93 3.40222 4.23969 0
M  V30 49923 H 4744.73 2.16728 1.9851 0
M  V30 49924 H 4742.25 1.26324 1.02059 0
M  V30 49925 H 4744.24 0.865991 4.07807 0
M  V30 49926 H 4742.9 0.033265 3.24683 0
M  V30 49927 H 4743.91 3.71246 3.61105 0
M  V30 49928 H 4740.59 1.16279 4.00981 0
M  V30 49929 H 4741.98 5.19672 4.259 0
M  V30 49930 N 4744.7 -1.04686 1.17807 0
M  V30 49931 C 4745.63 -2.1449 0.922826 0
M  V30 49932 C 4746.61 -1.69546 -0.137119 0
M  V30 49933 O 4747.8 -1.94195 0.0141791 0
M  V30 49934 C 4744.93 -3.4449 0.440924 0
M  V30 49935 C 4743.88 -4.03026 1.44064 0
M  V30 49936 C 4743.21 -5.28429 0.816495 0
M  V30 49937 C 4744.51 -4.39922 2.81543 0
M  V30 49938 H 4746.2 -2.36101 1.84111 0
M  V30 49939 H 4743.75 -1.13467 0.886639 0
M  V30 49940 H 4745.7 -4.20659 0.249749 0
M  V30 49941 H 4744.42 -3.22547 -0.512912 0
M  V30 49942 H 4743.08 -3.28931 1.61864 0
M  V30 49943 H 4742.73 -5.02793 -0.144334 0
M  V30 49944 H 4742.43 -5.68554 1.48391 0
M  V30 49945 H 4743.95 -6.07282 0.63571 0
M  V30 49946 H 4745.37 -5.07104 2.6743 0
M  V30 49947 H 4743.77 -4.91078 3.44909 0
M  V30 49948 H 4744.84 -3.50033 3.35567 0
M  V30 49949 N 4746.18 -0.979116 -1.23495 0
M  V30 49950 C 4747.14 -0.523323 -2.23146 0
M  V30 49951 C 4748.14 0.386352 -1.5609 0
M  V30 49952 O 4749.33 0.180222 -1.73265 0
M  V30 49953 C 4746.46 0.240619 -3.4005 0
M  V30 49954 H 4747.66 -1.40441 -2.64984 0
M  V30 49955 H 4745.21 -0.764872 -1.36306 0
M  V30 49956 H 4745.95 1.1383 -3.03666 0
M  V30 49957 H 4745.73 -0.412344 -3.89926 0
M  V30 49958 H 4747.22 0.548152 -4.13987 0
M  V30 49959 N 4747.66 1.38577 -0.75061 0
M  V30 49960 C 4748.6 2.30483 -0.120916 0
M  V30 49961 C 4749.57 1.50025 0.71287 0
M  V30 49962 O 4750.76 1.78664 0.669614 0
M  V30 49963 C 4747.9 3.36433 0.768547 0
M  V30 49964 C 4747.01 4.31927 -0.079544 0
M  V30 49965 C 4746.15 5.24947 0.812645 0
M  V30 49966 C 4745.19 6.12087 -0.0392598 0
M  V30 49967 N 4744.32 6.97415 0.809723 0
M  V30 49968 H 4749.16 2.83758 -0.91025 0
M  V30 49969 H 4746.7 1.39706 -0.460512 0
M  V30 49970 H 4748.66 3.96467 1.29884 0
M  V30 49971 H 4747.29 2.84576 1.5237 0
M  V30 49972 H 4746.34 3.7338 -0.727435 0
M  V30 49973 H 4747.65 4.93317 -0.737574 0
M  V30 49974 H 4746.81 5.90083 1.41022 0
M  V30 49975 H 4745.55 4.63917 1.50442 0
M  V30 49976 H 4744.55 5.4595 -0.64952 0
M  V30 49977 H 4745.78 6.75186 -0.728047 0
M  V30 49978 H 4743.72 6.38936 1.4865 0
M  V30 49979 H 4743.64 7.55712 0.208524 0
M  V30 49980 H 4744.91 7.66964 1.39236 0
M  V30 49981 N 4749.14 0.499451 1.49477 0
M  V30 49982 C 4750.1 -0.268758 2.27619 0
M  V30 49983 C 4751.1 -0.895336 1.33568 0
M  V30 49984 O 4752.29 -0.760108 1.56742 0
M  V30 49985 C 4749.42 -1.38548 3.11476 0
M  V30 49986 H 4750.61 0.416917 2.96988 0
M  V30 49987 H 4748.17 0.254368 1.54216 0
M  V30 49988 H 4748.9 -2.10535 2.46669 0
M  V30 49989 H 4748.69 -0.941664 3.80625 0
M  V30 49990 H 4750.18 -1.92665 3.705 0
M  V30 49991 N 4750.61 -1.55865 0.233218 0
M  V30 49992 C 4751.54 -2.23785 -0.66652 0
M  V30 49993 C 4752.52 -1.21348 -1.19201 0
M  V30 49994 O 4753.71 -1.49965 -1.23387 0
M  V30 49995 C 4750.84 -2.92678 -1.86968 0
M  V30 49996 C 4749.79 -4.01687 -1.47754 0
M  V30 49997 C 4749.12 -4.57935 -2.76042 0
M  V30 49998 C 4750.42 -5.18128 -0.658811 0
M  V30 49999 H 4752.11 -2.99232 -0.1002 0
M  V30 50000 H 4749.66 -1.43924 -0.0467534 0
M  V30 50001 H 4751.61 -3.38889 -2.50465 0
M  V30 50002 H 4750.34 -2.14697 -2.46115 0
M  V30 50003 H 4749 -3.56225 -0.865981 0
M  V30 50004 H 4748.64 -3.76671 -3.33359 0
M  V30 50005 H 4748.34 -5.31514 -2.50534 0
M  V30 50006 H 4749.87 -5.06871 -3.40461 0
M  V30 50007 H 4751.28 -5.60648 -1.19775 0
M  V30 50008 H 4749.68 -5.98011 -0.500342 0
M  V30 50009 H 4750.75 -4.83762 0.332026 0
M  V30 50010 N 4752.09 0.0400529 -1.57549 0
M  V30 50011 C 4753.04 1.06256 -2.06911 0
M  V30 50012 C 4754.03 1.38128 -0.980657 0
M  V30 50013 O 4755.24 1.37162 -1.16561 0
M  V30 50014 H 4751.61 0.360143 -0.660152 0
M  V30 50015 H 4753.59 0.620343 -2.91881 0
M  V30 50016 C 4752.33 2.35837 -2.55492 0
M  V30 50017 H 4751.66 2.12171 -3.38856 0
M  V30 50018 H 4753.1 3.05755 -2.93752 0
M  V30 50019 C 4751.56 3.04035 -1.45137 0
M  V30 50020 O 4752.09 3.93421 -0.811354 0
M  V30 50021 N 4750.29 2.6518 -1.18861 0
M  V30 50022 H 4749.84 1.92578 -1.71089 0
M  V30 50023 H 4749.8 3.11129 -0.452353 0
M  V30 50024 N 4753.57 1.54478 0.312115 0
M  V30 50025 C 4754.85 1.63894 1.06761 0
M  V30 50026 C 4755.23 0.4801 2.05568 0
M  V30 50027 O 4754.57 -0.524408 2.22401 0
M  V30 50028 C 4754.78 3.01408 1.75937 0
M  V30 50029 C 4756.13 3.57846 2.28541 0
M  V30 50030 O 4757.16 3.03788 1.85987 0
M  V30 50031 O 4756.02 4.52473 3.06481 0
M  V30 50032 H 4753.11 0.664142 0.492793 0
M  V30 50033 H 4755.66 1.66824 0.311091 0
M  V30 50034 H 4754.43 3.7719 1.04131 0
M  V30 50035 H 4754.05 3.02208 2.58372 0
M  V30 50036 N 4755.05 -0.574758 1.46746 0
M  V30 50037 C 4756.29 -1.33267 1.52467 0
M  V30 50038 C 4756.62 -1.93669 0.17964 0
M  V30 50039 O 4755.88 -1.77433 -0.825602 0
M  V30 50040 C 4756.18 -2.47591 2.57747 0
M  V30 50041 C 4755.84 -2.05132 4.01537 0
M  V30 50042 C 4754.5 -1.93268 4.40682 0
M  V30 50043 C 4756.86 -1.72488 4.9183 0
M  V30 50044 C 4754.18 -1.4703 5.67978 0
M  V30 50045 C 4756.54 -1.27726 6.19571 0
M  V30 50046 C 4755.2 -1.14445 6.57616 0
M  V30 50047 H 4754.47 -0.487659 0.557916 0
M  V30 50048 H 4757.12 -0.646393 1.80261 0
M  V30 50049 H 4755.42 -3.217 2.23643 0
M  V30 50050 H 4757.12 -3.05798 2.59401 0
M  V30 50051 H 4753.71 -2.15303 3.70597 0
M  V30 50052 H 4757.89 -1.80536 4.62299 0
M  V30 50053 H 4753.15 -1.35396 5.9622 0
M  V30 50054 H 4757.32 -1.01523 6.8896 0
M  V30 50055 H 4754.95 -0.783924 7.56147 0
M  V30 50056 N 4756.53 -1.34584 -0.820054 0
M  V30 50057 C 4757.75 -1.30339 -1.61327 0
M  V30 50058 C 4758.18 0.119273 -1.87721 0
M  V30 50059 O 4757.53 1.08192 -1.45479 0
M  V30 50060 C 4757.58 -2.10268 -2.9295 0
M  V30 50061 O 4756.69 -1.47417 -3.85152 0
M  V30 50062 H 4756.03 -0.447506 -0.490545 0
M  V30 50063 H 4758.56 -1.77429 -1.01883 0
M  V30 50064 H 4758.57 -2.2173 -3.42491 0
M  V30 50065 H 4757.24 -3.13703 -2.73063 0
M  V30 50066 H 4755.82 -1.44715 -3.43674 0
M  V30 50067 N 4758 1.0406 -1.18361 0
M  V30 50068 C 4758.95 2.14184 -0.907082 0
M  V30 50069 C 4759.95 1.6888 0.132666 0
M  V30 50070 O 4761.15 1.79993 -0.0154881 0
M  V30 50071 H 4757.53 0.699575 -0.27586 0
M  V30 50072 H 4759.5 2.34705 -1.84272 0
M  V30 50073 C 4758.25 3.44784 -0.449375 0
M  V30 50074 H 4757.57 3.80053 -1.24094 0
M  V30 50075 H 4759.01 4.22973 -0.294885 0
M  V30 50076 C 4757.47 3.26394 0.834795 0
M  V30 50077 O 4758 3.53979 1.89899 0
M  V30 50078 N 4756.2 2.79728 0.787424 0
M  V30 50079 H 4755.75 2.57479 -0.0788252 0
M  V30 50080 H 4755.71 2.67804 1.64707 0
M  V30 50081 N 4759.48 0.985651 1.22974 0
M  V30 50082 C 4760.71 0.675323 1.96097 0
M  V30 50083 C 4761.13 -0.752093 1.7241 0
M  V30 50084 O 4760.49 -1.51306 0.998804 0
M  V30 50085 C 4760.54 0.978022 3.47084 0
M  V30 50086 O 4759.64 0.07283 4.12336 0
M  V30 50087 H 4758.98 0.253465 0.613719 0
M  V30 50088 H 4761.51 1.32067 1.56268 0
M  V30 50089 H 4761.52 0.916879 3.97564 0
M  V30 50090 H 4760.2 2.0182 3.6365 0
M  V30 50091 H 4758.77 0.188834 3.72422 0
M  V30 50092 N 4760.96 -1.38177 0.757949 0
M  V30 50093 C 4762.21 -1.99623 0.315431 0
M  V30 50094 C 4762.53 -1.60467 -1.10794 0
M  V30 50095 O 4761.8 -0.863569 -1.75839 0
M  V30 50096 H 4760.38 -0.738306 0.113637 0
M  V30 50097 H 4763.04 -1.68874 0.973012 0
M  V30 50098 H 4762.14 -3.09753 0.38204 0
M  V30 50099 N 4762.44 -0.507371 -1.4921 0
M  V30 50100 C 4763.4 0.256683 -2.27758 0
M  V30 50101 C 4764.4 0.88824 -1.34041 0
M  V30 50102 O 4765.59 0.751785 -1.57143 0
M  V30 50103 C 4762.72 1.36894 -3.12206 0
M  V30 50104 H 4763.92 -0.432661 -2.96763 0
M  V30 50105 H 4761.47 -0.262543 -1.54079 0
M  V30 50106 H 4762.2 2.09224 -2.47782 0
M  V30 50107 H 4761.99 0.921465 -3.81119 0
M  V30 50108 H 4763.48 1.90697 -3.71516 0
M  V30 50109 N 4763.92 1.55739 -0.241481 0
M  V30 50110 C 4765.19 1.90706 0.434813 0
M  V30 50111 C 4765.57 1.16151 1.76273 0
M  V30 50112 O 4764.92 0.277231 2.26812 0
M  V30 50113 C 4765.13 3.43659 0.608222 0
M  V30 50114 C 4766.48 4.14809 0.906579 0
M  V30 50115 O 4767.5 3.49368 0.694285 0
M  V30 50116 O 4766.36 5.30553 1.31056 0
M  V30 50117 H 4763.46 0.793601 0.232652 0
M  V30 50118 H 4766 1.67287 -0.285145 0
M  V30 50119 H 4764.77 3.89926 -0.327642 0
M  V30 50120 H 4764.4 3.72923 1.37892 0
M  V30 50121 N 4765.39 -0.0316971 1.57568 0
M  V30 50122 C 4766.64 -0.724109 1.89432 0
M  V30 50123 C 4766.97 -1.75146 0.838897 0
M  V30 50124 O 4766.25 -1.93949 -0.146354 0
M  V30 50125 C 4766.53 -1.39604 3.31938 0
M  V30 50126 C 4766.38 -0.38238 4.48172 0
M  V30 50127 C 4767.7 -2.33071 3.73317 0
M  V30 50128 H 4764.82 -0.261773 0.688944 0
M  V30 50129 H 4767.46 0.0130838 1.89995 0
M  V30 50130 H 4765.61 -2.02439 3.31588 0
M  V30 50131 H 4767.29 0.243851 4.60655 0
M  V30 50132 H 4765.53 0.298592 4.32771 0
M  V30 50133 H 4766.2 -0.890953 5.44762 0
M  V30 50134 H 4768.68 -1.80282 3.75017 0
M  V30 50135 H 4767.55 -2.77067 4.73841 0
M  V30 50136 H 4767.81 -3.19632 3.05431 0
M  V30 50137 N 4766.87 -1.54642 -0.303919 0
M  V30 50138 C 4767.8 -1.88391 -1.37953 0
M  V30 50139 C 4768.78 -0.742539 -1.53037 0
M  V30 50140 O 4769.97 -0.998017 -1.66593 0
M  V30 50141 C 4767.1 -2.12864 -2.7442 0
M  V30 50142 C 4766.05 -3.28711 -2.74104 0
M  V30 50143 C 4765.38 -3.38596 -4.13832 0
M  V30 50144 C 4766.68 -4.65889 -2.36103 0
M  V30 50145 H 4768.37 -2.78478 -1.09957 0
M  V30 50146 H 4765.92 -1.3399 -0.527509 0
M  V30 50147 H 4767.87 -2.35059 -3.4975 0
M  V30 50148 H 4766.6 -1.19545 -3.03935 0
M  V30 50149 H 4765.25 -3.06435 -2.0123 0
M  V30 50150 H 4764.9 -2.428 -4.40519 0
M  V30 50151 H 4764.6 -4.16467 -4.14522 0
M  V30 50152 H 4766.13 -3.63048 -4.90946 0
M  V30 50153 H 4767.54 -4.87834 -3.0115 0
M  V30 50154 H 4765.94 -5.46452 -2.48012 0
M  V30 50155 H 4767.01 -4.66804 -1.31233 0
M  V30 50156 N 4768.35 0.566968 -1.47048 0
M  V30 50157 C 4769.58 1.34826 -1.56543 0
M  V30 50158 C 4769.99 1.88019 -0.211076 0
M  V30 50159 O 4769.33 1.65155 0.804329 0
M  V30 50160 C 4769.39 2.5613 -2.52265 0
M  V30 50161 C 4769.06 2.24293 -3.98173 0
M  V30 50162 C 4770.05 1.82174 -4.86938 0
M  V30 50163 C 4767.74 2.35953 -4.43432 0
M  V30 50164 C 4769.73 1.52131 -6.18979 0
M  V30 50165 C 4767.42 2.05522 -5.75503 0
M  V30 50166 C 4768.42 1.63678 -6.63098 0
M  V30 50167 O 4768.11 1.33629 -7.92716 0
M  V30 50168 H 4767.84 0.417664 -0.531538 0
M  V30 50169 H 4770.39 0.694658 -1.93297 0
M  V30 50170 H 4768.62 3.24348 -2.10559 0
M  V30 50171 H 4770.31 3.18205 -2.51993 0
M  V30 50172 H 4771.08 1.72668 -4.53223 0
M  V30 50173 H 4766.96 2.67482 -3.75465 0
M  V30 50174 H 4770.5 1.19397 -6.87306 0
M  V30 50175 H 4766.4 2.14658 -6.08763 0
M  V30 50176 H 4767.17 1.47342 -8.05129 0
M  V30 50177 N 4769.83 1.35017 0.812906 0
M  V30 50178 C 4770.76 1.23269 1.93229 0
M  V30 50179 C 4771.77 0.157428 1.62037 0
M  V30 50180 O 4772.96 0.410157 1.73724 0
M  V30 50181 C 4770.06 0.874035 3.27435 0
M  V30 50182 C 4769.24 2.04636 3.86579 0
M  V30 50183 C 4768.29 1.66449 4.9918 0
M  V30 50184 O 4767.32 2.3824 5.16943 0
M  V30 50185 N 4768.52 0.584451 5.7755 0
M  V30 50186 H 4771.29 2.19707 2.03836 0
M  V30 50187 H 4768.85 1.28103 0.990005 0
M  V30 50188 H 4770.84 0.60018 4.00225 0
M  V30 50189 H 4769.41 -0.000464025 3.126 0
M  V30 50190 H 4768.63 2.48437 3.0606 0
M  V30 50191 H 4769.92 2.83014 4.22825 0
M  V30 50192 H 4769.32 -0.0121537 5.65699 0
M  V30 50193 H 4767.87 0.370359 6.50747 0
M  V30 50194 N 4771.31 -1.03431 1.18911 0
M  V30 50195 C 4772.72 -1.58192 0.991579 0
M  V30 50196 C 4773.07 -1.90803 -0.457014 0
M  V30 50197 O 4772.19 -1.70276 -1.33547 0
M  V30 50198 C 4772.79 -2.87426 1.79365 0
M  V30 50199 C 4771.35 -3.3878 1.64029 0
M  V30 50200 C 4770.49 -2.12286 1.7841 0
M  V30 50201 H 4773.45 -0.860252 1.33362 0
M  V30 50202 H 4773.47 -3.58091 1.28651 0
M  V30 50203 H 4772.98 -2.63659 2.8479 0
M  V30 50204 H 4771.08 -3.67545 0.611666 0
M  V30 50205 H 4771.19 -4.12177 2.44227 0
M  V30 50206 H 4769.56 -2.23897 1.21418 0
M  V30 50207 H 4770.34 -1.90967 2.85283 0
M  V30 50208 N 4772.78 -0.992159 -1.2245 0
M  V30 50209 C 4774.2 -0.702837 -1.72966 0
M  V30 50210 C 4774.55 0.780336 -1.80014 0
M  V30 50211 O 4773.67 1.61001 -1.44594 0
M  V30 50212 C 4774.27 -1.26914 -3.14131 0
M  V30 50213 C 4772.83 -1.02922 -3.62055 0
M  V30 50214 C 4771.97 -1.38978 -2.39959 0
M  V30 50215 H 4774.92 -1.16461 -1.07808 0
M  V30 50216 H 4774.94 -0.647354 -3.74953 0
M  V30 50217 H 4774.46 -2.34862 -3.08969 0
M  V30 50218 H 4772.56 0.0336669 -3.72585 0
M  V30 50219 H 4772.67 -1.69207 -4.48225 0
M  V30 50220 H 4771.03 -0.808364 -2.41532 0
M  V30 50221 H 4771.82 -2.47928 -2.37459 0
M  V30 50222 N 4774.26 1.37773 -0.765266 0
M  V30 50223 C 4775.19 2.28957 -0.105442 0
M  V30 50224 C 4776.21 1.48318 0.671228 0
M  V30 50225 O 4777.4 1.71048 0.51039 0
M  V30 50226 C 4774.5 3.27424 0.874453 0
M  V30 50227 C 4773.67 4.37132 0.152969 0
M  V30 50228 C 4772.73 5.15713 1.04529 0
M  V30 50229 O 4771.75 5.66897 0.511472 0
M  V30 50230 N 4772.96 5.29816 2.37224 0
M  V30 50231 H 4775.72 2.86224 -0.888596 0
M  V30 50232 H 4773.28 1.4968 -0.617053 0
M  V30 50233 H 4775.27 3.76875 1.47469 0
M  V30 50234 H 4773.84 2.70972 1.55861 0
M  V30 50235 H 4773.06 3.89164 -0.628112 0
M  V30 50236 H 4774.35 5.07623 -0.345822 0
M  V30 50237 H 4773.75 4.89803 2.83036 0
M  V30 50238 H 4772.31 5.82599 2.9227 0
M  V30 50239 N 4775.74 0.515277 1.48938 0
M  V30 50240 C 4776.97 -0.0205306 2.0689 0
M  V30 50241 C 4777.38 -1.29509 1.37378 0
M  V30 50242 O 4776.74 -1.76696 0.456591 0
M  V30 50243 C 4776.79 -0.263384 3.60539 0
M  V30 50244 O 4776.51 0.960667 4.27437 0
M  V30 50245 C 4778.01 -0.84123 4.35245 0
M  V30 50246 H 4775.23 0.0268844 0.670461 0
M  V30 50247 H 4777.78 0.716719 1.91529 0
M  V30 50248 H 4775.93 -0.950645 3.75555 0
M  V30 50249 H 4776.35 0.732303 5.19363 0
M  V30 50250 H 4777.82 -0.960659 5.43576 0
M  V30 50251 H 4778.3 -1.84256 3.98681 0
M  V30 50252 H 4778.9 -0.190994 4.24871 0
M  V30 50253 N 4777.22 -1.55609 0.249737 0
M  V30 50254 C 4778.44 -2.03866 -0.381234 0
M  V30 50255 C 4778.87 -1.12774 -1.50544 0
M  V30 50256 O 4778.23 -0.121253 -1.80894 0
M  V30 50257 C 4778.28 -3.50104 -0.863693 0
M  V30 50258 O 4777.38 -3.62139 -1.97305 0
M  V30 50259 H 4776.72 -0.65883 -0.0826963 0
M  V30 50260 H 4779.25 -2.01104 0.376622 0
M  V30 50261 H 4779.26 -3.90979 -1.16616 0
M  V30 50262 H 4777.94 -4.1588 -0.0410354 0
M  V30 50263 H 4776.51 -3.33161 -1.67506 0
M  V30 50264 N 4778.7 0.0233405 -1.57583 0
M  V30 50265 C 4779.95 0.712067 -1.88713 0
M  V30 50266 C 4780.26 1.76214 -0.849006 0
M  V30 50267 O 4781.47 2.50386 -1.04973 0
M  V30 50268 C 4779.92 1.31758 -3.34915 0
M  V30 50269 C 4779.53 0.303558 -4.4697 0
M  V30 50270 C 4781.27 1.98585 -3.75186 0
M  V30 50271 C 4779.18 0.917739 -5.84236 0
M  V30 50272 H 4778.11 0.269711 -0.704111 0
M  V30 50273 H 4780.76 -0.0333759 -1.8347 0
M  V30 50274 H 4779.14 2.11292 -3.34921 0
M  V30 50275 H 4780.32 -0.465486 -4.58443 0
M  V30 50276 H 4778.63 -0.262946 -4.15569 0
M  V30 50277 H 4781.23 2.45399 -4.75061 0
M  V30 50278 H 4781.57 2.80648 -3.07478 0
M  V30 50279 H 4782.11 1.25818 -3.77379 0
M  V30 50280 H 4778.84 0.136403 -6.55358 0
M  V30 50281 H 4778.36 1.65649 -5.76472 0
M  V30 50282 H 4780.04 1.42337 -6.31149 0
M  V30 50283 N 4780.18 1.54801 0.295713 0
M  V30 50284 C 4781.4 1.78331 1.04908 0
M  V30 50285 C 4781.82 0.545379 1.80751 0
M  V30 50286 O 4781.18 -0.484952 1.75939 0
M  V30 50287 C 4781.23 2.99425 2.0255 0
M  V30 50288 O 4780.95 4.18435 1.29783 0
M  V30 50289 C 4782.45 3.35385 2.89883 0
M  V30 50290 H 4779.67 0.594629 0.310897 0
M  V30 50291 H 4782.21 2.01764 0.333383 0
M  V30 50292 H 4780.37 2.78185 2.69614 0
M  V30 50293 H 4780.78 4.86743 1.95402 0
M  V30 50294 H 4782.26 4.23345 3.54236 0
M  V30 50295 H 4782.73 2.53774 3.58463 0
M  V30 50296 H 4783.34 3.58804 2.28342 0
M  V30 50297 N 4781.65 -0.559161 1.47347 0
M  V30 50298 C 4782.88 -1.3467 1.5773 0
M  V30 50299 C 4783.3 -1.86722 0.22723 0
M  V30 50300 O 4782.66 -1.62863 -0.796585 0
M  V30 50301 C 4782.71 -2.4939 2.60455 0
M  V30 50302 O 4781.81 -3.5156 2.15591 0
M  V30 50303 H 4781.15 -0.400096 0.529924 0
M  V30 50304 H 4783.68 -0.675941 1.93112 0
M  V30 50305 H 4783.69 -2.95986 2.80813 0
M  V30 50306 H 4782.37 -2.1086 3.58484 0
M  V30 50307 H 4780.95 -3.11282 2.05324 0
M  V30 50308 N 4783.13 -1.35446 -0.805734 0
M  V30 50309 C 4784.09 -1.28308 -1.8992 0
M  V30 50310 C 4785.09 -0.194341 -1.59621 0
M  V30 50311 O 4786.28 -0.448095 -1.68338 0
M  V30 50312 C 4783.42 -0.985112 -3.26356 0
M  V30 50313 H 4784.61 -2.25537 -1.97669 0
M  V30 50314 H 4782.16 -1.19983 -1.00169 0
M  V30 50315 H 4782.9 -0.016717 -3.24296 0
M  V30 50316 H 4782.68 -1.77281 -3.49734 0
M  V30 50317 H 4784.17 -0.960794 -4.06397 0
M  V30 50318 N 4784.61 1.02799 -1.19458 0
M  V30 50319 C 4785.86 1.76474 -0.999233 0
M  V30 50320 C 4786.19 1.88458 0.468762 0
M  V30 50321 O 4785.46 1.40203 1.34809 0
M  V30 50322 C 4785.75 3.19038 -1.66993 0
M  V30 50323 C 4785.6 3.1492 -3.21162 0
M  V30 50324 C 4786.92 4.17451 -1.39364 0
M  V30 50325 H 4784.04 0.640602 -0.364416 0
M  V30 50326 H 4786.68 1.2 -1.4731 0
M  V30 50327 H 4784.83 3.67258 -1.26703 0
M  V30 50328 H 4786.5 2.74592 -3.70671 0
M  V30 50329 H 4784.74 2.52612 -3.5266 0
M  V30 50330 H 4785.42 4.15647 -3.63237 0
M  V30 50331 H 4787.89 3.77836 -1.74296 0
M  V30 50332 H 4786.77 5.15393 -1.88841 0
M  V30 50333 H 4787.03 4.40948 -0.318968 0
M  V30 50334 N 4786.09 0.998639 1.21922 0
M  V30 50335 C 4787.02 0.573768 2.26341 0
M  V30 50336 C 4788 -0.402238 1.65276 0
M  V30 50337 O 4789.18 -0.291615 1.91998 0
M  V30 50338 C 4786.31 -0.106717 3.47136 0
M  V30 50339 C 4785.27 0.788416 4.20676 0
M  V30 50340 C 4784.59 -0.0253047 5.34694 0
M  V30 50341 C 4785.89 2.08801 4.78748 0
M  V30 50342 H 4787.59 1.4466 2.62133 0
M  V30 50343 H 4785.13 0.69702 1.26006 0
M  V30 50344 H 4787.09 -0.415383 4.19348 0
M  V30 50345 H 4785.81 -1.01414 3.10456 0
M  V30 50346 H 4784.47 1.08081 3.50306 0
M  V30 50347 H 4784.12 -0.933816 4.94256 0
M  V30 50348 H 4783.82 0.570643 5.84823 0
M  V30 50349 H 4785.34 -0.327933 6.09719 0
M  V30 50350 H 4786.76 1.84291 5.42872 0
M  V30 50351 H 4785.15 2.63326 5.39239 0
M  V30 50352 H 4786.22 2.76298 3.98481 0
M  V30 50353 N 4787.57 -1.37365 0.772562 0
M  V30 50354 C 4788.5 -2.28898 0.117583 0
M  V30 50355 C 4789.51 -1.48672 -0.663353 0
M  V30 50356 O 4790.7 -1.71316 -0.501311 0
M  V30 50357 C 4787.8 -3.27883 -0.857077 0
M  V30 50358 C 4786.97 -4.37207 -0.129785 0
M  V30 50359 C 4786.03 -5.1626 -1.01793 0
M  V30 50360 O 4785.06 -5.67161 -0.481401 0
M  V30 50361 N 4786.26 -5.31067 -2.34411 0
M  V30 50362 H 4789.02 -2.85749 0.903762 0
M  V30 50363 H 4786.59 -1.49351 0.624982 0
M  V30 50364 H 4788.58 -3.77652 -1.45469 0
M  V30 50365 H 4787.15 -2.71795 -1.54422 0
M  V30 50366 H 4786.37 -3.88825 0.648742 0
M  V30 50367 H 4787.66 -5.07433 0.372737 0
M  V30 50368 H 4787.05 -4.91297 -2.80435 0
M  V30 50369 H 4785.61 -5.84141 -2.89176 0
M  V30 50370 N 4789.04 -0.523168 -1.48663 0
M  V30 50371 C 4790.27 0.0116555 -2.07397 0
M  V30 50372 C 4790.69 1.28026 -1.37808 0
M  V30 50373 O 4790.05 1.75834 -0.441824 0
M  V30 50374 C 4790.1 0.22566 -3.59893 0
M  V30 50375 O 4789.2 1.29578 -3.91514 0
M  V30 50376 H 4788.54 -0.0360906 -0.663018 0
M  V30 50377 H 4791.07 -0.729133 -1.91167 0
M  V30 50378 H 4791.08 0.450409 -4.05506 0
M  V30 50379 H 4789.76 -0.701088 -4.09948 0
M  V30 50380 H 4788.34 1.05423 -3.57688 0
M  V30 50381 N 4790.52 1.55474 -0.257986 0
M  V30 50382 C 4791.77 1.98814 0.362939 0
M  V30 50383 C 4792.09 1.14762 1.57653 0
M  V30 50384 O 4791.36 0.233024 1.94509 0
M  V30 50385 H 4789.94 0.734313 0.137088 0
M  V30 50386 H 4792.6 1.91559 -0.359348 0
M  V30 50387 H 4791.7 3.04943 0.664526 0
M  V30 50388 N 4792 -0.0149831 1.57593 0
M  V30 50389 C 4793.25 -0.702935 1.89908 0
M  V30 50390 C 4793.58 -1.74601 0.857006 0
M  V30 50391 O 4792.83 -1.95197 -0.140218 0
M  V30 50392 C 4793.13 -1.39674 3.28977 0
M  V30 50393 C 4792.8 -0.4883 4.48248 0
M  V30 50394 C 4791.46 -0.238131 4.8061 0
M  V30 50395 C 4793.81 0.138064 5.21017 0
M  V30 50396 C 4791.14 0.646943 5.83122 0
M  V30 50397 C 4793.49 1.01092 6.2447 0
M  V30 50398 C 4792.15 1.27042 6.55299 0
M  V30 50399 H 4791.42 -0.257222 0.694923 0
M  V30 50400 H 4794.07 0.0373263 1.91464 0
M  V30 50401 H 4792.38 -2.21068 3.23475 0
M  V30 50402 H 4794.07 -1.93483 3.51234 0
M  V30 50403 H 4790.66 -0.693444 4.22953 0
M  V30 50404 H 4794.85 -0.0422208 4.96282 0
M  V30 50405 H 4790.1 0.85615 6.05376 0
M  V30 50406 H 4794.28 1.50271 6.79994 0
M  V30 50407 H 4791.9 1.95795 7.34553 0
M  V30 50408 N 4793.48 -1.54955 -0.2875 0
M  V30 50409 C 4794.89 -1.46471 -0.633912 0
M  V30 50410 C 4795.09 -0.666931 -1.90143 0
M  V30 50411 O 4794.15 -0.179994 -2.51858 0
M  V30 50412 C 4795.46 -2.90559 -0.774351 0
M  V30 50413 C 4797.01 -3.00685 -0.869357 0
M  V30 50414 C 4797.49 -4.45996 -1.04169 0
M  V30 50415 N 4798.98 -4.49764 -1.10757 0
M  V30 50416 C 4799.71 -5.59397 -1.25945 0
M  V30 50417 N 4799.21 -6.78928 -1.37944 0
M  V30 50418 N 4801 -5.47111 -1.2894 0
M  V30 50419 H 4793.15 -2.05286 0.545114 0
M  V30 50420 H 4795.42 -0.930299 0.182341 0
M  V30 50421 H 4795.12 -3.51594 0.0863306 0
M  V30 50422 H 4795 -3.38749 -1.65918 0
M  V30 50423 H 4797.38 -2.39755 -1.72052 0
M  V30 50424 H 4797.46 -2.55769 0.039773 0
M  V30 50425 H 4797.11 -5.07525 -0.195244 0
M  V30 50426 H 4797.04 -4.88555 -1.96525 0
M  V30 50427 H 4799.53 -3.63654 -1.02782 0
M  V30 50428 H 4799.84 -7.58236 -1.49326 0
M  V30 50429 H 4798.19 -6.81767 -1.34975 0
M  V30 50430 H 4801.38 -4.52672 -1.19186 0
M  V30 50431 H 4801.55 -6.326 -1.40433 0
M  V30 50432 N 4794.96 0.551339 -1.47641 0
M  V30 50433 C 4795.9 1.6579 -1.60569 0
M  V30 50434 C 4796.87 1.59931 -0.448484 0
M  V30 50435 O 4798.06 1.78676 -0.669284 0
M  V30 50436 C 4795.2 3.04102 -1.63144 0
M  V30 50437 C 4794.31 3.20354 -2.89822 0
M  V30 50438 C 4793.45 4.49099 -2.83695 0
M  V30 50439 C 4792.49 4.58805 -4.05172 0
M  V30 50440 N 4791.62 5.78912 -3.97247 0
M  V30 50441 H 4796.46 1.54079 -2.55076 0
M  V30 50442 H 4794 0.750475 -1.26516 0
M  V30 50443 H 4795.96 3.84201 -1.6262 0
M  V30 50444 H 4794.59 3.14635 -0.721451 0
M  V30 50445 H 4793.64 2.33649 -3.00188 0
M  V30 50446 H 4794.95 3.23389 -3.79764 0
M  V30 50447 H 4794.11 5.37465 -2.81453 0
M  V30 50448 H 4792.84 4.48553 -1.91446 0
M  V30 50449 H 4791.85 3.6885 -4.07713 0
M  V30 50450 H 4793.07 4.61106 -4.98556 0
M  V30 50451 H 4791.02 5.79303 -3.07805 0
M  V30 50452 H 4790.94 5.8335 -4.80873 0
M  V30 50453 H 4792.21 6.69623 -3.99031 0
M  V30 50454 N 4796.43 1.35872 0.79854 0
M  V30 50455 C 4797.37 1.23808 1.91695 0
M  V30 50456 C 4798.35 0.1242 1.62125 0
M  V30 50457 O 4799.53 0.293722 1.86198 0
M  V30 50458 C 4796.66 0.908178 3.26297 0
M  V30 50459 C 4795.7 2.03523 3.74808 0
M  V30 50460 S 4796.54 3.65197 3.91652 0
M  V30 50461 C 4797.69 3.34301 5.29144 0
M  V30 50462 H 4797.92 2.18473 2.01635 0
M  V30 50463 H 4795.46 1.21181 0.95679 0
M  V30 50464 H 4797.42 0.724648 4.04053 0
M  V30 50465 H 4796.08 -0.020548 3.14093 0
M  V30 50466 H 4795.27 1.75874 4.72318 0
M  V30 50467 H 4794.87 2.17751 3.04073 0
M  V30 50468 H 4797.16 2.87629 6.13413 0
M  V30 50469 H 4798.11 4.31041 5.61791 0
M  V30 50470 H 4798.51 2.69872 4.95812 0
M  V30 50471 N 4797.91 -1.02164 1.20001 0
M  V30 50472 C 4798.88 -2.08761 0.946113 0
M  V30 50473 C 4799.88 -1.60619 -0.0763281 0
M  V30 50474 O 4801.07 -1.73471 0.159196 0
M  V30 50475 C 4798.2 -3.38261 0.423374 0
M  V30 50476 H 4799.39 -2.32719 1.89161 0
M  V30 50477 H 4796.94 -1.18886 1.01468 0
M  V30 50478 H 4797.68 -3.19976 -0.527825 0
M  V30 50479 H 4797.46 -3.74528 1.16066 0
M  V30 50480 H 4798.95 -4.16758 0.265058 0
M  V30 50481 N 4799.39 -1.00509 -1.21391 0
M  V30 50482 C 4800.64 -0.687841 -1.9046 0
M  V30 50483 C 4800.97 0.781408 -1.78113 0
M  V30 50484 O 4800.22 1.58204 -1.15196 0
M  V30 50485 C 4800.52 -1.05472 -3.41483 0
M  V30 50486 C 4800.19 -2.51826 -3.74025 0
M  V30 50487 C 4798.85 -2.91817 -3.82618 0
M  V30 50488 C 4801.2 -3.46628 -3.89228 0
M  V30 50489 C 4798.53 -4.25574 -4.03861 0
M  V30 50490 C 4800.88 -4.80059 -4.11978 0
M  V30 50491 C 4799.54 -5.19774 -4.18798 0
M  V30 50492 H 4798.81 -0.251699 -0.696942 0
M  V30 50493 H 4801.46 -1.26354 -1.43899 0
M  V30 50494 H 4799.77 -0.39727 -3.89781 0
M  V30 50495 H 4801.46 -0.787115 -3.93199 0
M  V30 50496 H 4798.05 -2.19833 -3.67929 0
M  V30 50497 H 4802.24 -3.16896 -3.81956 0
M  V30 50498 H 4797.49 -4.55915 -4.07371 0
M  V30 50499 H 4801.67 -5.53453 -4.22685 0
M  V30 50500 H 4799.29 -6.23433 -4.35011 0
M  V30 50501 N 4800.87 1.36954 -0.779835 0
M  V30 50502 C 4802.28 1.82092 -0.41222 0
M  V30 50503 C 4802.63 1.64929 1.06267 0
M  V30 50504 O 4801.76 1.16489 1.82371 0
M  V30 50505 C 4802.35 3.30588 -0.741435 0
M  V30 50506 C 4800.91 3.73973 -0.426773 0
M  V30 50507 C 4800.06 2.59365 -0.981078 0
M  V30 50508 H 4803.01 1.25311 -0.973802 0
M  V30 50509 H 4803.03 3.80489 -0.0290207 0
M  V30 50510 H 4802.54 3.43047 -1.81494 0
M  V30 50511 H 4800.64 3.67078 0.639086 0
M  V30 50512 H 4800.75 4.69774 -0.94068 0
M  V30 50513 H 4799.12 2.51462 -0.404846 0
M  V30 50514 H 4799.9 2.74614 -2.06015 0
M  V30 50515 N 4802.35 0.531045 1.48384 0
M  V30 50516 C 4803.57 -0.000656623 2.074 0
M  V30 50517 C 4804 -1.27294 1.38485 0
M  V30 50518 O 4803.35 -1.75597 0.451142 0
M  V30 50519 C 4803.4 -0.206571 3.60008 0
M  V30 50520 O 4802.51 -1.275 3.92196 0
M  V30 50521 H 4801.85 0.0396063 0.662818 0
M  V30 50522 H 4804.38 0.739261 1.90778 0
M  V30 50523 H 4804.39 -0.428898 4.05739 0
M  V30 50524 H 4803.06 0.722819 4.09571 0
M  V30 50525 H 4801.64 -1.03525 3.58242 0
M  V30 50526 N 4803.82 -1.55335 0.266227 0
M  V30 50527 C 4805.07 -1.99004 -0.352391 0
M  V30 50528 C 4805.39 -1.15597 -1.57043 0
M  V30 50529 O 4804.66 -0.243336 -1.94383 0
M  V30 50530 H 4803.24 -0.73503 -0.133191 0
M  V30 50531 H 4805.91 -1.91365 0.369502 0
M  V30 50532 H 4805 -3.05291 -0.648345 0
M  V30 50533 N 4805.3 0.0066254 -1.57599 0
M  V30 50534 C 4806.25 1.00017 -2.08003 0
M  V30 50535 C 4807.22 1.34546 -0.97399 0
M  V30 50536 O 4808.41 1.44497 -1.246 0
M  V30 50537 C 4805.55 2.28901 -2.5826 0
M  V30 50538 C 4804.66 2.00333 -3.82741 0
M  V30 50539 C 4803.79 3.2325 -4.21525 0
M  V30 50540 C 4802.83 2.90338 -5.3886 0
M  V30 50541 N 4801.97 4.05773 -5.72969 0
M  V30 50542 H 4806.81 0.563396 -2.92626 0
M  V30 50543 H 4804.35 0.266541 -1.44665 0
M  V30 50544 H 4806.3 3.04237 -2.85474 0
M  V30 50545 H 4804.93 2.70259 -1.76522 0
M  V30 50546 H 4803.99 1.15393 -3.62476 0
M  V30 50547 H 4805.3 1.7207 -4.68181 0
M  V30 50548 H 4804.45 4.06937 -4.49986 0
M  V30 50549 H 4803.19 3.54645 -3.3478 0
M  V30 50550 H 4802.2 2.05057 -5.10129 0
M  V30 50551 H 4803.42 2.60197 -6.27275 0
M  V30 50552 H 4801.37 4.37077 -4.89183 0
M  V30 50553 H 4801.28 3.81011 -6.52968 0
M  V30 50554 H 4802.55 4.90268 -6.06018 0
M  V30 50555 N 4806.78 1.55106 0.279278 0
M  V30 50556 C 4808.03 1.75676 1.01321 0
M  V30 50557 C 4808.36 0.552804 1.86166 0
M  V30 50558 O 4807.64 -0.44976 1.89228 0
M  V30 50559 C 4807.92 3.05831 1.90103 0
M  V30 50560 C 4807.77 4.36569 1.08293 0
M  V30 50561 C 4809.09 3.31985 2.88918 0
M  V30 50562 H 4806.21 0.639162 0.366934 0
M  V30 50563 H 4808.85 1.87834 0.286088 0
M  V30 50564 H 4807 2.95597 2.52101 0
M  V30 50565 H 4808.67 4.58752 0.484153 0
M  V30 50566 H 4806.92 4.32077 0.38621 0
M  V30 50567 H 4807.59 5.23952 1.73718 0
M  V30 50568 H 4810.06 3.41971 2.37055 0
M  V30 50569 H 4808.94 4.24332 3.48186 0
M  V30 50570 H 4809.2 2.51322 3.63716 0
M  V30 50571 N 4808.26 -0.543502 1.47932 0
M  V30 50572 C 4809.17 -1.67652 1.64104 0
M  V30 50573 C 4810.19 -1.65932 0.52368 0
M  V30 50574 O 4811.36 -1.85131 0.793008 0
M  V30 50575 C 4808.43 -3.04141 1.66431 0
M  V30 50576 C 4807.49 -3.1682 2.89695 0
M  V30 50577 C 4806.72 -4.46798 2.91902 0
M  V30 50578 O 4806.94 -5.33087 2.02914 0
M  V30 50579 O 4805.88 -4.63559 3.83923 0
M  V30 50580 H 4809.7 -1.56948 2.60002 0
M  V30 50581 H 4807.29 -0.71507 1.31176 0
M  V30 50582 H 4809.17 -3.8534 1.70562 0
M  V30 50583 H 4807.85 -3.15198 0.737034 0
M  V30 50584 H 4806.75 -2.34967 2.91104 0
M  V30 50585 H 4808.09 -3.10674 3.81763 0
M  V30 50586 N 4809.74 -1.36293 -0.791323 0
M  V30 50587 C 4810.99 -1.3016 -1.54606 0
M  V30 50588 C 4811.31 0.119341 -1.94634 0
M  V30 50589 O 4810.58 1.05918 -1.64797 0
M  V30 50590 H 4809.16 -0.478805 -0.573372 0
M  V30 50591 H 4811.82 -1.70568 -0.943 0
M  V30 50592 H 4810.91 -1.92771 -2.4545 0
M  V30 50593 N 4811.22 1.01526 -1.20541 0
M  V30 50594 C 4812.46 1.76686 -1.02769 0
M  V30 50595 C 4812.82 1.87067 0.432448 0
M  V30 50596 O 4814.02 2.58687 0.73039 0
M  V30 50597 C 4812.29 3.14701 -1.69404 0
M  V30 50598 S 4813.85 4.05881 -1.66753 0
M  V30 50599 H 4810.67 0.608063 -0.368484 0
M  V30 50600 H 4813.27 1.21553 -1.53118 0
M  V30 50601 H 4811.97 3.04773 -2.74849 0
M  V30 50602 H 4811.51 3.74909 -1.19192 0
M  V30 50603 H 4813.52 4.91219 -0.701343 0
M  V30 50604 N 4812.69 1.01151 1.20856 0
M  V30 50605 C 4813.63 0.522186 2.22145 0
M  V30 50606 C 4814.6 -0.427631 1.56876 0
M  V30 50607 O 4815.79 -0.348825 1.85244 0
M  V30 50608 C 4812.92 -0.240701 3.37844 0
M  V30 50609 C 4811.96 0.6579 4.21395 0
M  V30 50610 S 4812.79 2.12411 4.91571 0
M  V30 50611 C 4813.95 1.37124 6.10695 0
M  V30 50612 H 4814.18 1.38044 2.63308 0
M  V30 50613 H 4811.72 0.819987 1.30827 0
M  V30 50614 H 4813.67 -0.674766 4.04916 0
M  V30 50615 H 4812.34 -1.07446 2.95151 0
M  V30 50616 H 4811.53 0.0699228 5.03951 0
M  V30 50617 H 4811.13 1.02952 3.59551 0
M  V30 50618 H 4813.42 0.648552 6.74389 0
M  V30 50619 H 4814.37 2.17275 6.73941 0
M  V30 50620 H 4814.77 0.87635 5.57656 0
M  V30 50621 N 4814.17 -1.36538 0.787088 0
M  V30 50622 C 4815.42 -1.99598 0.358942 0
M  V30 50623 C 4815.75 -1.62327 -1.066 0
M  V30 50624 O 4815.03 -0.876919 -1.7361 0
M  V30 50625 C 4815.31 -3.56325 0.520069 0
M  V30 50626 C 4815.16 -4.03457 1.98853 0
M  V30 50627 C 4816.48 -4.4005 -0.066319 0
M  V30 50628 H 4813.6 -0.725102 0.131894 0
M  V30 50629 H 4816.24 -1.61987 0.992993 0
M  V30 50630 H 4814.39 -3.88495 -0.0196955 0
M  V30 50631 H 4816.06 -3.81784 2.58918 0
M  V30 50632 H 4814.31 -3.55083 2.49196 0
M  V30 50633 H 4814.98 -5.12432 2.05225 0
M  V30 50634 H 4817.45 -4.14227 0.394412 0
M  V30 50635 H 4816.33 -5.48847 0.0764612 0
M  V30 50636 H 4816.59 -4.26659 -1.1582 0
M  V30 50637 N 4815.65 -0.538906 -1.481 0
M  V30 50638 C 4816.58 0.256198 -2.27764 0
M  V30 50639 C 4817.59 0.896282 -1.35907 0
M  V30 50640 O 4818.78 0.773219 -1.60884 0
M  V30 50641 C 4815.88 1.37885 -3.09582 0
M  V30 50642 C 4815.06 0.839008 -4.29278 0
M  V30 50643 C 4814.12 1.84388 -4.92836 0
M  V30 50644 O 4813.14 1.39726 -5.51784 0
M  V30 50645 N 4814.34 3.17649 -4.8588 0
M  V30 50646 H 4817.11 -0.427072 -2.96642 0
M  V30 50647 H 4814.67 -0.373802 -1.57526 0
M  V30 50648 H 4816.66 2.04943 -3.48971 0
M  V30 50649 H 4815.23 1.96564 -2.43067 0
M  V30 50650 H 4814.45 -0.00783145 -3.94199 0
M  V30 50651 H 4815.74 0.45737 -5.0674 0
M  V30 50652 H 4815.14 3.56593 -4.39156 0
M  V30 50653 H 4813.69 3.80316 -5.29342 0
M  V30 50654 N 4817.13 1.55192 -0.274461 0
M  V30 50655 C 4818.37 1.99878 0.343016 0
M  V30 50656 C 4818.71 1.16262 1.55553 0
M  V30 50657 O 4817.98 0.23253 1.93105 0
M  V30 50658 C 4818.26 3.52709 0.725841 0
M  V30 50659 C 4818.12 4.47079 -0.493975 0
M  V30 50660 C 4819.44 4.11428 1.56253 0
M  V30 50661 H 4816.56 0.726629 0.123203 0
M  V30 50662 H 4819.2 1.86135 -0.381275 0
M  V30 50663 H 4817.35 3.64551 1.34294 0
M  V30 50664 H 4819.02 4.47182 -1.13253 0
M  V30 50665 H 4817.26 4.18766 -1.13216 0
M  V30 50666 H 4817.93 5.51699 -0.182364 0
M  V30 50667 H 4820.41 4.02858 1.04136 0
M  V30 50668 H 4819.29 5.18575 1.79921 0
M  V30 50669 H 4819.55 3.61616 2.54335 0
M  V30 50670 N 4818.61 0.00173253 1.576 0
M  V30 50671 C 4819.83 -0.693691 1.94924 0
M  V30 50672 C 4820.25 -1.67211 0.876685 0
M  V30 50673 O 4819.61 -1.81929 -0.144215 0
M  V30 50674 C 4819.66 -1.42405 3.3227 0
M  V30 50675 O 4819.38 -0.484861 4.35409 0
M  V30 50676 C 4820.88 -2.21382 3.84064 0
M  V30 50677 H 4818.1 -0.193096 0.642616 0
M  V30 50678 H 4820.64 0.0533671 2.0443 0
M  V30 50679 H 4818.8 -2.12272 3.24067 0
M  V30 50680 H 4819.21 -1.00035 5.14872 0
M  V30 50681 H 4820.69 -2.67979 4.82588 0
M  V30 50682 H 4821.16 -3.04131 3.16861 0
M  V30 50683 H 4821.77 -1.56528 3.95448 0
M  V30 50684 N 4820.08 -1.55252 -0.271048 0
M  V30 50685 C 4821.32 -1.77702 -1.01002 0
M  V30 50686 C 4821.69 -0.567311 -1.83427 0
M  V30 50687 O 4822.89 -0.670104 -2.60313 0
M  V30 50688 C 4821.16 -3.04721 -1.86761 0
M  V30 50689 S 4822.72 -3.48298 -2.66897 0
M  V30 50690 H 4819.54 -0.624355 -0.34015 0
M  V30 50691 H 4822.14 -1.93481 -0.280247 0
M  V30 50692 H 4820.84 -3.90857 -1.25135 0
M  V30 50693 H 4820.37 -2.91613 -2.64055 0
M  V30 50694 H 4822.39 -3.07725 -3.89255 0
M  V30 50695 N 4821.56 0.535649 -1.48218 0
M  V30 50696 C 4822.81 1.28923 -1.55639 0
M  V30 50697 C 4823.13 1.93644 -0.229582 0
M  V30 50698 O 4822.4 1.81041 0.748396 0
M  V30 50699 H 4820.98 0.47882 -0.573359 0
M  V30 50700 H 4823.64 0.623788 -1.84648 0
M  V30 50701 H 4822.74 2.07149 -2.33444 0
M  V30 50702 N 4823.04 1.36711 0.784084 0
M  V30 50703 C 4824.27 1.34403 1.573 0
M  V30 50704 C 4824.68 -0.0734914 1.88657 0
M  V30 50705 O 4824.04 -1.03188 1.50527 0
M  V30 50706 C 4824.09 2.17063 2.89078 0
M  V30 50707 O 4823.81 3.5329 2.5907 0
M  V30 50708 C 4825.31 2.22596 3.83361 0
M  V30 50709 H 4822.53 0.460837 0.48772 0
M  V30 50710 H 4825.08 1.79882 0.972756 0
M  V30 50711 H 4823.23 1.75125 3.45558 0
M  V30 50712 H 4823.65 3.96482 3.43369 0
M  V30 50713 H 4825.12 2.8478 4.72868 0
M  V30 50714 H 4825.6 1.2309 4.21599 0
M  V30 50715 H 4826.2 2.64793 3.32813 0
M  V30 50716 N 4824.52 -1.00885 1.21078 0
M  V30 50717 C 4825.75 -1.78187 1.05151 0
M  V30 50718 C 4826.16 -1.84538 -0.398887 0
M  V30 50719 O 4825.52 -1.30397 -1.27682 0
M  V30 50720 C 4825.57 -3.22282 1.63757 0
M  V30 50721 O 4825.29 -3.16304 3.03123 0
M  V30 50722 C 4826.79 -4.16101 1.52889 0
M  V30 50723 H 4824.01 -0.560116 0.369474 0
M  V30 50724 H 4826.56 -1.2694 1.60333 0
M  V30 50725 H 4824.71 -3.70652 1.12677 0
M  V30 50726 H 4825.12 -4.06806 3.31073 0
M  V30 50727 H 4826.6 -5.15019 1.98644 0
M  V30 50728 H 4827.08 -4.3654 0.482674 0
M  V30 50729 H 4827.68 -3.73618 2.03198 0
M  V30 50730 N 4826 -1.01791 -1.20318 0
M  V30 50731 C 4827.22 -0.727262 -1.93697 0
M  V30 50732 C 4827.64 0.712244 -1.7485 0
M  V30 50733 O 4827 1.48323 -1.06332 0
M  V30 50734 C 4827.05 -1.0551 -3.4576 0
M  V30 50735 O 4826.77 -2.43806 -3.63992 0
M  V30 50736 C 4828.27 -0.785687 -4.36282 0
M  V30 50737 H 4825.49 -0.26696 -0.615608 0
M  V30 50738 H 4828.03 -1.35944 -1.52773 0
M  V30 50739 H 4826.19 -0.468293 -3.84559 0
M  V30 50740 H 4826.6 -2.55672 -4.57965 0
M  V30 50741 H 4828.08 -1.06514 -5.41626 0
M  V30 50742 H 4828.55 0.280119 -4.38306 0
M  V30 50743 H 4829.16 -1.3547 -4.03147 0
M  V30 50744 N 4827.47 1.36119 -0.794317 0
M  V30 50745 C 4828.4 2.3255 -0.21041 0
M  V30 50746 C 4829.39 1.56886 0.657331 0
M  V30 50747 O 4830.57 1.85016 0.590142 0
M  V30 50748 C 4827.7 3.41131 0.651699 0
M  V30 50749 C 4826.65 4.27841 -0.116545 0
M  V30 50750 C 4825.98 5.27633 0.866474 0
M  V30 50751 C 4827.28 5.05642 -1.30855 0
M  V30 50752 H 4828.97 2.81633 -1.01604 0
M  V30 50753 H 4826.52 1.35406 -0.490029 0
M  V30 50754 H 4828.47 4.07585 1.07016 0
M  V30 50755 H 4827.2 2.90627 1.49008 0
M  V30 50756 H 4825.86 3.6295 -0.516043 0
M  V30 50757 H 4825.5 4.73401 1.70002 0
M  V30 50758 H 4825.2 5.86515 0.356844 0
M  V30 50759 H 4826.73 5.9696 1.2834 0
M  V30 50760 H 4828.14 5.6511 -0.965592 0
M  V30 50761 H 4826.54 5.73961 -1.75181 0
M  V30 50762 H 4827.61 4.36999 -2.10143 0
M  V30 50763 N 4828.95 0.546753 1.47812 0
M  V30 50764 C 4829.9 -0.219966 2.31558 0
M  V30 50765 C 4830.89 -0.919422 1.42278 0
M  V30 50766 O 4832.1 -0.841897 1.59098 0
M  V30 50767 H 4828.48 -0.0898071 0.746618 0
M  V30 50768 H 4830.45 0.505693 2.94084 0
M  V30 50769 C 4829.2 -1.24342 3.24707 0
M  V30 50770 H 4828.52 -0.71462 3.93361 0
M  V30 50771 H 4829.96 -1.75098 3.86156 0
M  V30 50772 C 4828.42 -2.28584 2.47489 0
M  V30 50773 O 4828.95 -3.35326 2.21177 0
M  V30 50774 N 4827.15 -2.02236 2.08683 0
M  V30 50775 H 4826.7 -1.15447 2.30282 0
M  V30 50776 H 4826.66 -2.72202 1.57333 0
M  V30 50777 N 4830.43 -1.55044 0.282687 0
M  V30 50778 C 4831.68 -1.99367 -0.331264 0
M  V30 50779 C 4832 -1.17256 -1.55808 0
M  V30 50780 O 4831.27 -0.263939 -1.94114 0
M  V30 50781 H 4829.85 -0.736401 -0.125388 0
M  V30 50782 H 4832.51 -1.90963 0.389778 0
M  V30 50783 H 4831.61 -3.05962 -0.615928 0
M  V30 50784 N 4831.91 -0.0100904 -1.57597 0
M  V30 50785 C 4832.84 0.976782 -2.12088 0
M  V30 50786 C 4833.82 1.35187 -1.0324 0
M  V30 50787 O 4835 1.43385 -1.30975 0
M  V30 50788 C 4832.13 2.26539 -2.63244 0
M  V30 50789 C 4831.09 2.03162 -3.76708 0
M  V30 50790 C 4830.41 3.38124 -4.14218 0
M  V30 50791 C 4831.71 1.38608 -5.03572 0
M  V30 50792 H 4833.41 0.523041 -2.94796 0
M  V30 50793 H 4830.95 0.250145 -1.41811 0
M  V30 50794 H 4832.91 2.95941 -2.99994 0
M  V30 50795 H 4831.63 2.74045 -1.77671 0
M  V30 50796 H 4830.29 1.36183 -3.40367 0
M  V30 50797 H 4829.94 3.83352 -3.25654 0
M  V30 50798 H 4829.64 3.23294 -4.90667 0
M  V30 50799 H 4831.16 4.08825 -4.53536 0
M  V30 50800 H 4832.58 1.97981 -5.3803 0
M  V30 50801 H 4830.97 1.34236 -5.84894 0
M  V30 50802 H 4832.04 0.356552 -4.83587 0
M  V30 50803 N 4833.39 1.55393 0.262811 0
M  V30 50804 C 4834.63 1.77661 0.990362 0
M  V30 50805 C 4834.99 0.576397 1.83563 0
M  V30 50806 O 4834.28 -0.43073 1.86696 0
M  V30 50807 C 4834.47 3.02896 1.89707 0
M  V30 50808 C 4834.3 4.34983 1.14105 0
M  V30 50809 C 4833.07 4.98055 0.852593 0
M  V30 50810 C 4835.27 5.11599 0.526445 0
M  V30 50811 N 4833.25 6.13859 0.0708491 0
M  V30 50812 C 4834.62 6.19883 -0.120638 0
M  V30 50813 C 4836.68 4.95993 0.435311 0
M  V30 50814 C 4835.38 7.14259 -0.850084 0
M  V30 50815 C 4837.41 5.90734 -0.280567 0
M  V30 50816 C 4836.77 6.98414 -0.916348 0
M  V30 50817 H 4832.87 0.702254 0.34404 0
M  V30 50818 H 4835.45 1.92888 0.26502 0
M  V30 50819 H 4833.62 2.89026 2.59458 0
M  V30 50820 H 4835.36 3.13525 2.55899 0
M  V30 50821 H 4832.11 4.59164 1.16042 0
M  V30 50822 H 4832.54 6.76301 -0.307651 0
M  V30 50823 H 4837.18 4.12835 0.912526 0
M  V30 50824 H 4834.9 7.9693 -1.33895 0
M  V30 50825 H 4838.48 5.80737 -0.351536 0
M  V30 50826 H 4837.36 7.70462 -1.46146 0
M  V30 50827 N 4834.87 -0.527781 1.485 0
M  V30 50828 C 4835.8 -1.6413 1.66083 0
M  V30 50829 C 4836.78 -1.62284 0.509682 0
M  V30 50830 O 4837.96 -1.79446 0.742476 0
M  V30 50831 C 4835.09 -3.02711 1.70244 0
M  V30 50832 C 4834.05 -3.19416 2.84881 0
M  V30 50833 C 4833.37 -4.5908 2.74134 0
M  V30 50834 C 4834.67 -3.01979 4.26153 0
M  V30 50835 H 4836.37 -1.4967 2.59305 0
M  V30 50836 H 4833.91 -0.71861 1.24788 0
M  V30 50837 H 4835.86 -3.80485 1.81133 0
M  V30 50838 H 4834.59 -3.18198 0.736023 0
M  V30 50839 H 4833.25 -2.4406 2.73551 0
M  V30 50840 H 4832.9 -4.71406 1.75456 0
M  V30 50841 H 4832.6 -4.71202 3.51059 0
M  V30 50842 H 4834.12 -5.3895 2.86993 0
M  V30 50843 H 4835.53 -3.69543 4.38305 0
M  V30 50844 H 4833.93 -3.25592 5.04093 0
M  V30 50845 H 4835 -1.9838 4.42463 0
M  V30 50846 N 4836.34 -1.37125 -0.776822 0
M  V30 50847 C 4837.62 -1.22591 -1.52416 0
M  V30 50848 C 4838 0.182652 -2.10308 0
M  V30 50849 O 4837.35 1.18972 -1.95084 0
M  V30 50850 C 4837.56 -2.31791 -2.60909 0
M  V30 50851 C 4838.91 -2.69082 -3.28451 0
M  V30 50852 O 4839.93 -2.30929 -2.71201 0
M  V30 50853 O 4838.79 -3.34795 -4.31942 0
M  V30 50854 H 4835.88 -0.478068 -0.674818 0
M  V30 50855 H 4838.43 -1.48891 -0.814223 0
M  V30 50856 H 4837.2 -3.26139 -2.16215 0
M  V30 50857 H 4836.82 -2.06928 -3.3951 0
M  V30 50858 N 4837.82 1.00242 -1.21611 0
M  V30 50859 C 4839.1 1.71333 -0.943629 0
M  V30 50860 C 4839.48 2.03974 0.543872 0
M  V30 50861 O 4838.83 1.7155 1.5094 0
M  V30 50862 C 4839.04 2.97088 -1.83139 0
M  V30 50863 C 4840.38 3.70064 -2.08178 0
M  V30 50864 O 4841.41 3.07075 -1.80509 0
M  V30 50865 O 4840.27 4.83367 -2.54988 0
M  V30 50866 H 4837.36 0.747373 -0.354065 0
M  V30 50867 H 4839.91 1.05962 -1.32553 0
M  V30 50868 H 4838.68 2.69397 -2.83798 0
M  V30 50869 H 4838.3 3.70199 -1.45047 0
M  V30 50870 N 4839.3 1.02428 1.19776 0
M  V30 50871 C 4840.53 0.737524 1.93309 0
M  V30 50872 C 4840.94 -0.702961 1.75225 0
M  V30 50873 O 4840.3 -1.47757 1.07117 0
M  V30 50874 C 4840.35 1.07342 3.45196 0
M  V30 50875 O 4840.07 2.45733 3.62694 0
M  V30 50876 C 4841.57 0.808813 4.35859 0
M  V30 50877 H 4838.79 0.270221 0.614183 0
M  V30 50878 H 4841.34 1.36752 1.52049 0
M  V30 50879 H 4839.49 0.48868 3.84305 0
M  V30 50880 H 4839.91 2.58097 4.56603 0
M  V30 50881 H 4841.38 1.09384 5.41054 0
M  V30 50882 H 4841.86 -0.256871 4.38448 0
M  V30 50883 H 4842.46 1.37606 4.02423 0
M  V30 50884 N 4840.78 -1.35696 0.801525 0
M  V30 50885 C 4842.02 -1.99206 0.380092 0
M  V30 50886 C 4842.36 -1.63449 -1.04872 0
M  V30 50887 O 4841.63 -0.895284 -1.7267 0
M  V30 50888 C 4841.91 -3.55753 0.557833 0
M  V30 50889 C 4841.77 -4.01325 2.03121 0
M  V30 50890 C 4843.09 -4.40096 -0.0196421 0
M  V30 50891 H 4840.21 -0.723662 0.139578 0
M  V30 50892 H 4842.85 -1.60924 1.01012 0
M  V30 50893 H 4841 -3.88494 0.0215107 0
M  V30 50894 H 4842.67 -3.79017 2.62953 0
M  V30 50895 H 4840.91 -3.5242 2.52948 0
M  V30 50896 H 4841.58 -5.10227 2.10648 0
M  V30 50897 H 4844.06 -4.13785 0.438324 0
M  V30 50898 H 4842.94 -5.48735 0.134669 0
M  V30 50899 H 4843.2 -4.27864 -1.11288 0
M  V30 50900 N 4842.26 -0.554584 -1.4752 0
M  V30 50901 C 4843.49 -0.03428 -2.06572 0
M  V30 50902 C 4843.89 1.2637 -1.40809 0
M  V30 50903 O 4843.24 1.76828 -0.497752 0
M  V30 50904 C 4843.3 0.23497 -3.58731 0
M  V30 50905 C 4842.96 -0.973181 -4.46518 0
M  V30 50906 C 4843.96 -1.87807 -4.84793 0
M  V30 50907 C 4841.64 -1.18712 -4.88071 0
M  V30 50908 C 4843.64 -2.98059 -5.63418 0
M  V30 50909 C 4841.33 -2.29274 -5.6646 0
M  V30 50910 C 4842.32 -3.18779 -6.04044 0
M  V30 50911 O 4842.01 -4.27425 -6.80855 0
M  V30 50912 H 4841.74 -0.0416107 -0.674718 0
M  V30 50913 H 4844.3 -0.766815 -1.9055 0
M  V30 50914 H 4842.53 1.02178 -3.72956 0
M  V30 50915 H 4844.22 0.700336 -3.99813 0
M  V30 50916 H 4844.98 -1.72483 -4.53293 0
M  V30 50917 H 4840.86 -0.499631 -4.58285 0
M  V30 50918 H 4844.41 -3.67947 -5.92672 0
M  V30 50919 H 4840.3 -2.44571 -5.97373 0
M  V30 50920 H 4841.07 -4.2544 -6.99245 0
M  V30 50921 N 4843.73 1.54892 -0.290906 0
M  V30 50922 C 4844.97 2.01843 0.322317 0
M  V30 50923 C 4845.34 1.17483 1.51861 0
M  V30 50924 O 4846.54 1.54085 2.20253 0
M  V30 50925 C 4844.81 3.50877 0.679721 0
M  V30 50926 S 4846.37 4.198 1.27724 0
M  V30 50927 H 4843.19 0.704009 0.0994619 0
M  V30 50928 H 4845.79 1.91013 -0.416425 0
M  V30 50929 H 4844.49 4.09914 -0.199579 0
M  V30 50930 H 4844.02 3.65722 1.44952 0
M  V30 50931 H 4846.04 4.24738 2.56539 0
M  V30 50932 N 4845.21 0.018448 1.57589 0
M  V30 50933 C 4846.62 -0.521864 1.79258 0
M  V30 50934 C 4846.97 -1.72882 0.927697 0
M  V30 50935 O 4846.1 -2.15977 0.135167 0
M  V30 50936 C 4846.69 -0.953518 3.25105 0
M  V30 50937 C 4845.25 -1.43901 3.47807 0
M  V30 50938 C 4844.4 -0.398741 2.74418 0
M  V30 50939 H 4847.35 0.24454 1.56805 0
M  V30 50940 H 4847.37 -1.81852 3.34231 0
M  V30 50941 H 4846.88 -0.0748759 3.88028 0
M  V30 50942 H 4844.98 -2.33794 2.90123 0
M  V30 50943 H 4845.1 -1.45375 4.56512 0
M  V30 50944 H 4843.46 -0.864488 2.3958 0
M  V30 50945 H 4844.24 0.471252 3.4005 0
M  V30 50946 N 4846.69 -1.5553 -0.254567 0
M  V30 50947 C 4848.11 -1.47783 -0.602701 0
M  V30 50948 C 4848.31 -0.707113 -1.88685 0
M  V30 50949 O 4847.36 -0.233377 -2.51419 0
M  V30 50950 C 4848.67 -2.92136 -0.712545 0
M  V30 50951 C 4850.22 -3.02461 -0.805381 0
M  V30 50952 C 4850.7 -4.48106 -0.946851 0
M  V30 50953 N 4852.19 -4.52012 -1.01191 0
M  V30 50954 C 4852.92 -5.61943 -1.14051 0
M  V30 50955 N 4852.42 -6.81701 -1.23512 0
M  V30 50956 N 4854.21 -5.49723 -1.17306 0
M  V30 50957 H 4846.36 -2.04083 0.588535 0
M  V30 50958 H 4848.63 -0.926222 0.202033 0
M  V30 50959 H 4848.33 -3.51332 0.160889 0
M  V30 50960 H 4848.21 -3.42192 -1.58695 0
M  V30 50961 H 4850.59 -2.4335 -1.66927 0
M  V30 50962 H 4850.67 -2.55627 0.0940165 0
M  V30 50963 H 4850.32 -5.07825 -0.0875465 0
M  V30 50964 H 4850.25 -4.92613 -1.86118 0
M  V30 50965 H 4852.74 -3.65753 -0.950448 0
M  V30 50966 H 4853.05 -7.61233 -1.3321 0
M  V30 50967 H 4851.4 -6.84477 -1.20483 0
M  V30 50968 H 4854.59 -4.55099 -1.09557 0
M  V30 50969 H 4854.76 -6.35436 -1.26983 0
M  V30 50970 N 4848.17 0.519898 -1.48778 0
M  V30 50971 C 4849.12 1.6199 -1.60447 0
M  V30 50972 C 4850.1 1.54153 -0.461045 0
M  V30 50973 O 4851.29 1.62003 -0.713022 0
M  V30 50974 C 4848.42 3.00677 -1.65675 0
M  V30 50975 C 4847.51 3.1358 -2.85531 0
M  V30 50976 N 4847.9 2.96427 -4.09835 0
M  V30 50977 C 4846.2 3.44652 -2.83074 0
M  V30 50978 C 4846.9 3.13013 -4.90304 0
M  V30 50979 N 4845.87 3.41043 -4.23309 0
M  V30 50980 H 4849.68 1.47353 -2.54292 0
M  V30 50981 H 4847.19 0.725598 -1.45289 0
M  V30 50982 H 4849.19 3.79706 -1.7213 0
M  V30 50983 H 4847.85 3.16398 -0.729537 0
M  V30 50984 H 4848.86 2.72984 -4.40114 0
M  V30 50985 H 4845.54 3.66668 -1.99652 0
M  V30 50986 H 4846.93 3.04403 -5.98989 0
M  V30 50987 N 4849.65 1.37535 0.769539 0
M  V30 50988 C 4850.89 1.33062 1.53044 0
M  V30 50989 C 4851.23 -0.0841183 1.94018 0
M  V30 50990 O 4850.5 -1.04192 1.64238 0
M  V30 50991 C 4850.78 2.27175 2.79398 0
M  V30 50992 C 4850.64 3.77438 2.44664 0
M  V30 50993 C 4851.96 2.19696 3.81342 0
M  V30 50994 H 4849.07 0.484675 0.555211 0
M  V30 50995 H 4851.72 1.68254 0.882643 0
M  V30 50996 H 4849.87 1.97294 3.34675 0
M  V30 50997 H 4851.54 4.17925 1.95285 0
M  V30 50998 H 4849.78 3.95899 1.77332 0
M  V30 50999 H 4850.45 4.38727 3.34996 0
M  V30 51000 H 4852.93 2.4604 3.35564 0
M  V30 51001 H 4851.8 2.87685 4.67471 0
M  V30 51002 H 4852.07 1.1906 4.25767 0
M  V30 51003 N 4851.12 -0.995956 1.22141 0
M  V30 51004 C 4852.37 -1.72924 1.03827 0
M  V30 51005 C 4852.69 -1.90874 -0.427377 0
M  V30 51006 O 4853.89 -2.61499 -0.73012 0
M  V30 51007 C 4852.35 -3.11118 1.80924 0
M  V30 51008 C 4851.96 -3.0111 3.31718 0
M  V30 51009 C 4853.7 -3.88514 1.71048 0
M  V30 51010 C 4851.61 -4.34439 4.01269 0
M  V30 51011 H 4850.54 -0.648363 0.384892 0
M  V30 51012 H 4853.19 -1.11208 1.45963 0
M  V30 51013 H 4851.57 -3.73499 1.31586 0
M  V30 51014 H 4852.74 -2.47913 3.88427 0
M  V30 51015 H 4851.06 -2.37198 3.42237 0
M  V30 51016 H 4853.66 -4.87192 2.20335 0
M  V30 51017 H 4854 -4.10868 0.67034 0
M  V30 51018 H 4854.53 -3.32804 2.17913 0
M  V30 51019 H 4851.27 -4.17285 5.05523 0
M  V30 51020 H 4850.79 -4.87562 3.49348 0
M  V30 51021 H 4852.47 -5.032 4.06692 0
M  V30 51022 N 4852.6 -1.03061 -1.19231 0
M  V30 51023 C 4853.84 -0.736824 -1.90657 0
M  V30 51024 C 4854.21 0.721458 -1.7793 0
M  V30 51025 O 4855.41 1.1284 -2.43968 0
M  V30 51026 C 4853.68 -1.17767 -3.3744 0
M  V30 51027 S 4855.24 -1.00799 -4.27066 0
M  V30 51028 H 4852.06 -0.268198 -0.658476 0
M  V30 51029 H 4854.66 -1.32081 -1.44135 0
M  V30 51030 H 4853.36 -2.2346 -3.44229 0
M  V30 51031 H 4852.89 -0.587049 -3.88995 0
M  V30 51032 H 4854.91 0.0804612 -4.96135 0
M  V30 51033 N 4854.08 1.35269 -0.80871 0
M  V30 51034 C 4855.31 2.02945 -0.402608 0
M  V30 51035 C 4855.72 1.60941 0.987091 0
M  V30 51036 O 4855.08 0.807975 1.6364 0
M  V30 51037 C 4855.13 3.58315 -0.478806 0
M  V30 51038 O 4854.85 3.98793 -1.81372 0
M  V30 51039 C 4856.35 4.43251 -0.065784 0
M  V30 51040 H 4853.57 0.650825 -0.163302 0
M  V30 51041 H 4856.12 1.72845 -1.09292 0
M  V30 51042 H 4854.27 3.87056 0.163279 0
M  V30 51043 H 4854.69 4.93445 -1.77799 0
M  V30 51044 H 4856.16 5.51738 -0.170211 0
M  V30 51045 H 4856.64 4.27917 0.989128 0
M  V30 51046 H 4857.24 4.19811 -0.681108 0
M  V30 51047 N 4855.56 0.5624 1.47224 0
M  V30 51048 C 4856.52 -0.171976 2.28554 0
M  V30 51049 C 4857.52 -0.83788 1.37245 0
M  V30 51050 O 4858.71 -0.692945 1.59825 0
M  V30 51051 C 4855.84 -1.25212 3.17072 0
M  V30 51052 H 4857.04 0.542504 2.94952 0
M  V30 51053 H 4854.59 0.319547 1.52999 0
M  V30 51054 H 4855.32 -1.99883 2.55376 0
M  V30 51055 H 4855.11 -0.77938 3.84276 0
M  V30 51056 H 4856.6 -1.76777 3.78338 0
M  V30 51057 N 4857.04 -1.54735 0.299116 0
M  V30 51058 C 4857.95 -2.27129 -0.587333 0
M  V30 51059 C 4858.96 -1.30579 -1.15 0
M  V30 51060 O 4860.14 -1.63558 -1.17519 0
M  V30 51061 C 4857.2 -2.99651 -1.74384 0
M  V30 51062 C 4856.26 -4.11735 -1.21544 0
M  V30 51063 C 4855.5 -4.8079 -2.31683 0
M  V30 51064 O 4855.72 -4.49192 -3.51543 0
M  V30 51065 O 4854.65 -5.68233 -1.98481 0
M  V30 51066 H 4858.48 -3.037 -0.000143343 0
M  V30 51067 H 4856.07 -1.49256 0.0656443 0
M  V30 51068 H 4857.95 -3.45147 -2.41768 0
M  V30 51069 H 4856.62 -2.25977 -2.31767 0
M  V30 51070 H 4855.53 -3.70643 -0.507384 0
M  V30 51071 H 4856.86 -4.87381 -0.687061 0
M  V30 51072 N 4858.51 -0.0268051 -1.57577 0
M  V30 51073 C 4859.79 0.690862 -1.82993 0
M  V30 51074 C 4860.17 1.90468 -0.910231 0
M  V30 51075 O 4859.52 2.28474 0.0347182 0
M  V30 51076 C 4859.73 1.07127 -3.32152 0
M  V30 51077 C 4861.08 1.46388 -3.98567 0
M  V30 51078 O 4862.1 1.16431 -3.36634 0
M  V30 51079 O 4860.96 2.02196 -5.0772 0
M  V30 51080 H 4858.05 0.338721 -0.754452 0
M  V30 51081 H 4860.6 -0.0543102 -1.69613 0
M  V30 51082 H 4859.37 0.207256 -3.90751 0
M  V30 51083 H 4859 1.87468 -3.5063 0
M  V30 51084 N 4859.99 1.55663 0.246315 0
M  V30 51085 C 4860.93 1.85337 1.33137 0
M  V30 51086 C 4861.9 0.708515 1.46352 0
M  V30 51087 O 4863.09 0.954332 1.62557 0
M  V30 51088 C 4860.21 2.03859 2.7048 0
M  V30 51089 C 4859.26 3.26498 2.74411 0
M  V30 51090 S 4860.09 4.83132 2.30962 0
M  V30 51091 C 4861.25 5.0466 3.70228 0
M  V30 51092 H 4861.48 2.7708 1.07767 0
M  V30 51093 H 4859.02 1.47778 0.447328 0
M  V30 51094 H 4860.97 2.15214 3.49561 0
M  V30 51095 H 4859.63 1.12957 2.93086 0
M  V30 51096 H 4858.83 3.36426 3.75278 0
M  V30 51097 H 4858.43 3.13871 2.03374 0
M  V30 51098 H 4860.72 4.92039 4.65729 0
M  V30 51099 H 4861.66 6.06638 3.65234 0
M  V30 51100 H 4862.07 4.32504 3.62768 0
M  V30 51101 N 4861.47 -0.512001 1.49051 0
M  V30 51102 C 4862.4 -1.62359 1.67814 0
M  V30 51103 C 4863.38 -1.61735 0.526865 0
M  V30 51104 O 4864.57 -1.78649 0.761467 0
M  V30 51105 C 4861.7 -3.00889 1.73445 0
M  V30 51106 C 4860.65 -3.16377 2.88253 0
M  V30 51107 C 4859.98 -4.56147 2.78988 0
M  V30 51108 C 4861.28 -2.97442 4.29332 0
M  V30 51109 H 4862.97 -1.46912 2.60878 0
M  V30 51110 H 4860.52 -0.705334 1.25543 0
M  V30 51111 H 4862.47 -3.78542 1.85158 0
M  V30 51112 H 4861.19 -3.174 0.769731 0
M  V30 51113 H 4859.85 -2.41145 2.76124 0
M  V30 51114 H 4859.5 -4.69519 1.80446 0
M  V30 51115 H 4859.2 -4.67452 3.56037 0
M  V30 51116 H 4860.72 -5.35876 2.92693 0
M  V30 51117 H 4862.14 -3.64873 4.422 0
M  V30 51118 H 4860.54 -3.20227 5.07518 0
M  V30 51119 H 4861.61 -1.93676 4.44542 0
M  V30 51120 N 4862.95 -1.37941 -0.762235 0
M  V30 51121 C 4863.9 -1.34575 -1.89716 0
M  V30 51122 C 4864.89 -0.232988 -1.6779 0
M  V30 51123 O 4866.1 -0.401547 -1.75464 0
M  V30 51124 H 4862.47 -0.419616 -0.62404 0
M  V30 51125 H 4864.44 -2.30363 -1.89671 0
M  V30 51126 C 4863.19 -1.1791 -3.27097 0
M  V30 51127 H 4862.51 -2.02793 -3.44551 0
M  V30 51128 H 4863.95 -1.19607 -4.0678 0
M  V30 51129 C 4862.41 0.11461 -3.36705 0
M  V30 51130 O 4862.94 1.09477 -3.86494 0
M  V30 51131 N 4861.15 0.168528 -2.90111 0
M  V30 51132 H 4860.7 -0.629758 -2.49784 0
M  V30 51133 H 4860.65 1.03373 -2.9692 0
M  V30 51134 N 4864.43 0.989464 -1.22668 0
M  V30 51135 C 4865.84 1.54402 -1.04961 0
M  V30 51136 C 4866.19 1.92368 0.385883 0
M  V30 51137 O 4865.31 1.75116 1.27136 0
M  V30 51138 C 4865.91 2.80571 -1.89909 0
M  V30 51139 C 4864.47 3.32458 -1.76489 0
M  V30 51140 C 4863.62 2.05518 -1.86166 0
M  V30 51141 H 4866.57 0.810163 -1.36463 0
M  V30 51142 H 4866.59 3.5307 -1.41853 0
M  V30 51143 H 4866.1 2.52908 -2.9438 0
M  V30 51144 H 4864.2 3.65022 -0.747656 0
M  V30 51145 H 4864.31 4.02829 -2.59356 0
M  V30 51146 H 4862.68 2.19236 -1.29644 0
M  V30 51147 H 4863.46 1.80247 -2.92174 0
M  V30 51148 N 4865.91 1.03692 1.18683 0
M  V30 51149 C 4866.85 0.618371 2.2423 0
M  V30 51150 C 4867.85 -0.352987 1.65682 0
M  V30 51151 O 4869.05 -0.220687 1.78642 0
M  V30 51152 H 4865.43 0.181736 0.729709 0
M  V30 51153 H 4867.4 1.51902 2.56843 0
M  V30 51154 C 4866.15 -0.00665119 3.47699 0
M  V30 51155 H 4865.47 0.73183 3.93045 0
M  V30 51156 H 4866.91 -0.262343 4.23188 0
M  V30 51157 C 4865.37 -1.25561 3.12628 0
M  V30 51158 O 4865.9 -2.34679 3.26019 0
M  V30 51159 N 4864.11 -1.14746 2.66987 0
M  V30 51160 H 4863.65 -0.259511 2.56289 0
M  V30 51161 H 4863.61 -1.98404 2.43892 0
M  V30 51162 N 4867.38 -1.34838 0.815872 0
M  V30 51163 C 4868.61 -2.02435 0.412766 0
M  V30 51164 C 4869.02 -1.61608 -0.983849 0
M  V30 51165 O 4868.36 -0.813787 -1.64691 0
M  V30 51166 C 4868.43 -3.56951 0.427308 0
M  V30 51167 C 4868.09 -4.21077 1.77604 0
M  V30 51168 C 4869.09 -4.42098 2.73579 0
M  V30 51169 C 4866.77 -4.57998 2.06259 0
M  V30 51170 C 4868.77 -4.99155 3.96387 0
M  V30 51171 C 4866.45 -5.14768 3.29328 0
M  V30 51172 C 4867.45 -5.35289 4.2421 0
M  V30 51173 O 4867.14 -5.90859 5.45106 0
M  V30 51174 H 4866.87 -0.655625 0.164718 0
M  V30 51175 H 4869.43 -1.73242 1.10346 0
M  V30 51176 H 4867.66 -3.85373 -0.32004 0
M  V30 51177 H 4869.34 -4.05875 0.0452302 0
M  V30 51178 H 4870.11 -4.13944 2.52735 0
M  V30 51179 H 4865.99 -4.41334 1.33212 0
M  V30 51180 H 4869.53 -5.15088 4.70457 0
M  V30 51181 H 4865.43 -5.42349 3.50039 0
M  V30 51182 H 4866.2 -6.09301 5.4653 0
M  V30 51183 N 4868.86 -0.570199 -1.46923 0
M  V30 51184 C 4869.77 0.172978 -2.33961 0
M  V30 51185 C 4870.79 0.898772 -1.4899 0
M  V30 51186 O 4871.96 0.864761 -1.8189 0
M  V30 51187 C 4869.03 1.18166 -3.25941 0
M  V30 51188 C 4868.09 0.461891 -4.26808 0
M  V30 51189 C 4867.32 1.42252 -5.14393 0
M  V30 51190 O 4867.55 2.65824 -5.04672 0
M  V30 51191 O 4866.48 0.939918 -5.94516 0
M  V30 51192 H 4870.31 -0.541322 -2.98837 0
M  V30 51193 H 4867.89 -0.330699 -1.45694 0
M  V30 51194 H 4869.77 1.76359 -3.82721 0
M  V30 51195 H 4868.45 1.87765 -2.63678 0
M  V30 51196 H 4867.35 -0.16156 -3.73751 0
M  V30 51197 H 4868.69 -0.192892 -4.91822 0
M  V30 51198 N 4870.34 1.54575 -0.307318 0
M  V30 51199 C 4871.62 1.92378 0.353537 0
M  V30 51200 C 4872 1.23523 1.71188 0
M  V30 51201 O 4871.34 0.373181 2.25432 0
M  V30 51202 C 4871.55 3.4593 0.461917 0
M  V30 51203 C 4872.9 4.18281 0.729828 0
M  V30 51204 O 4873.93 3.51999 0.545481 0
M  V30 51205 O 4872.79 5.35634 1.08436 0
M  V30 51206 H 4869.88 0.802754 0.198784 0
M  V30 51207 H 4872.43 1.65927 -0.355841 0
M  V30 51208 H 4871.2 3.88185 -0.492728 0
M  V30 51209 H 4870.82 3.78436 1.21951 0
M  V30 51210 N 4871.82 0.0351614 1.57561 0
M  V30 51211 C 4872.75 -0.942918 2.13615 0
M  V30 51212 C 4873.73 -1.33528 1.05377 0
M  V30 51213 O 4874.91 -1.41283 1.3324 0
M  V30 51214 C 4872.04 -2.22323 2.66815 0
M  V30 51215 C 4871 -1.97143 3.79893 0
M  V30 51216 C 4870.32 -3.31491 4.19545 0
M  V30 51217 C 4871.62 -1.30579 5.05714 0
M  V30 51218 H 4873.32 -0.476075 2.95591 0
M  V30 51219 H 4870.86 -0.227552 1.42191 0
M  V30 51220 H 4872.82 -2.91131 3.04665 0
M  V30 51221 H 4871.54 -2.71184 1.82008 0
M  V30 51222 H 4870.2 -1.30751 3.42491 0
M  V30 51223 H 4869.85 -3.78122 3.31712 0
M  V30 51224 H 4869.55 -3.15447 4.95749 0
M  V30 51225 H 4871.07 -4.01558 4.59982 0
M  V30 51226 H 4872.49 -1.89397 5.41112 0
M  V30 51227 H 4870.88 -1.24913 5.86955 0
M  V30 51228 H 4871.95 -0.279572 4.84093 0
M  V30 51229 N 4873.3 -1.55792 -0.238056 0
M  V30 51230 C 4874.23 -1.94073 -1.29839 0
M  V30 51231 C 4875.21 -0.806779 -1.4975 0
M  V30 51232 O 4876.39 -1.06778 -1.6221 0
M  V30 51233 C 4873.52 -2.24311 -2.65145 0
M  V30 51234 C 4872.48 -3.40041 -2.59915 0
M  V30 51235 C 4871.8 -3.55843 -3.99098 0
M  V30 51236 C 4873.1 -4.75484 -2.16131 0
M  V30 51237 H 4874.8 -2.82891 -0.980464 0
M  V30 51238 H 4872.34 -1.36107 -0.470205 0
M  V30 51239 H 4874.29 -2.49682 -3.39466 0
M  V30 51240 H 4873.02 -1.32329 -2.98591 0
M  V30 51241 H 4871.68 -3.14694 -1.88052 0
M  V30 51242 H 4871.33 -2.61265 -4.29825 0
M  V30 51243 H 4871.03 -4.33674 -3.96485 0
M  V30 51244 H 4872.55 -3.83544 -4.75106 0
M  V30 51245 H 4873.96 -5.00168 -2.80188 0
M  V30 51246 H 4872.36 -5.5648 -2.24612 0
M  V30 51247 H 4873.43 -4.7195 -1.11316 0
M  V30 51248 N 4874.77 0.504089 -1.49321 0
M  V30 51249 C 4876.02 1.25502 -1.57899 0
M  V30 51250 C 4876.34 1.93734 -0.269501 0
M  V30 51251 O 4877.54 2.70491 -0.233801 0
M  V30 51252 C 4876 2.27859 -2.78582 0
M  V30 51253 C 4875.61 1.65579 -4.16278 0
M  V30 51254 C 4877.35 3.038 -2.9649 0
M  V30 51255 C 4875.26 2.66029 -5.28188 0
M  V30 51256 H 4874.19 0.472099 -0.58791 0
M  V30 51257 H 4876.84 0.529248 -1.75702 0
M  V30 51258 H 4875.22 3.03585 -2.54268 0
M  V30 51259 H 4876.39 0.958668 -4.50717 0
M  V30 51260 H 4874.71 1.0204 -4.03704 0
M  V30 51261 H 4877.31 3.78912 -3.77266 0
M  V30 51262 H 4877.65 3.61227 -2.06931 0
M  V30 51263 H 4878.18 2.35189 -3.20829 0
M  V30 51264 H 4874.92 2.13387 -6.19795 0
M  V30 51265 H 4874.44 3.33992 -4.98206 0
M  V30 51266 H 4876.12 3.28516 -5.57392 0
M  V30 51267 N 4876.25 1.38343 0.754909 0
M  V30 51268 C 4877.67 1.19511 1.05779 0
M  V30 51269 C 4877.87 0.0428713 2.01454 0
M  V30 51270 O 4876.92 -0.611774 2.44977 0
M  V30 51271 C 4878.24 2.52096 1.63914 0
M  V30 51272 C 4879.78 2.58768 1.76092 0
M  V30 51273 C 4880.26 3.91525 2.37639 0
M  V30 51274 N 4881.75 3.93058 2.45071 0
M  V30 51275 C 4882.49 4.9254 2.93584 0
M  V30 51276 N 4881.98 6.0242 3.42143 0
M  V30 51277 N 4883.77 4.79932 2.92613 0
M  V30 51278 H 4875.93 2.12061 0.119982 0
M  V30 51279 H 4878.19 0.940894 0.115857 0
M  V30 51280 H 4877.89 3.36861 1.01081 0
M  V30 51281 H 4877.77 2.70397 2.62993 0
M  V30 51282 H 4880.16 1.74399 2.38052 0
M  V30 51283 H 4880.24 2.44336 0.757208 0
M  V30 51284 H 4879.88 4.76316 1.76312 0
M  V30 51285 H 4879.81 4.03268 3.38648 0
M  V30 51286 H 4882.3 3.13693 2.10725 0
M  V30 51287 H 4882.61 6.74261 3.77613 0
M  V30 51288 H 4880.96 6.06041 3.40204 0
M  V30 51289 H 4884.15 3.93203 2.53987 0
M  V30 51290 H 4884.32 5.57613 3.30109 0
M  V30 51291 N 4877.73 -0.982945 1.23191 0
M  V30 51292 C 4878.68 -2.07487 1.01082 0
M  V30 51293 C 4879.65 -1.65949 -0.0708467 0
M  V30 51294 O 4880.83 -1.90629 0.0807492 0
M  V30 51295 C 4877.97 -3.39749 0.60538 0
M  V30 51296 C 4877.08 -3.94572 1.7589 0
M  V30 51297 C 4876.22 -5.15035 1.30048 0
M  V30 51298 C 4875.26 -5.62018 2.42491 0
M  V30 51299 N 4874.4 -6.73712 1.97626 0
M  V30 51300 H 4879.24 -2.25733 1.94548 0
M  V30 51301 H 4876.77 -1.10655 0.969218 0
M  V30 51302 H 4878.73 -4.15717 0.351425 0
M  V30 51303 H 4877.36 -3.21474 -0.292269 0
M  V30 51304 H 4876.41 -3.15382 2.12692 0
M  V30 51305 H 4877.72 -4.25413 2.60433 0
M  V30 51306 H 4876.88 -5.98327 1.0045 0
M  V30 51307 H 4875.62 -4.85841 0.425387 0
M  V30 51308 H 4874.62 -4.77309 2.72867 0
M  V30 51309 H 4875.85 -5.93232 3.30533 0
M  V30 51310 H 4873.79 -6.46283 1.12492 0
M  V30 51311 H 4873.71 -7.03924 2.7573 0
M  V30 51312 H 4874.98 -7.60484 1.71125 0
M  V30 51313 N 4879.21 -1.0432 -1.18132 0
M  V30 51314 C 4880.43 -0.768115 -1.92652 0
M  V30 51315 C 4880.86 0.668978 -1.75802 0
M  V30 51316 O 4880.22 1.46369 -1.06986 0
M  V30 51317 C 4880.26 -1.14251 -3.42022 0
M  V30 51318 O 4879.37 -0.269478 -4.11519 0
M  V30 51319 H 4878.71 -0.282458 -0.600927 0
M  V30 51320 H 4881.24 -1.39372 -1.49789 0
M  V30 51321 H 4881.25 -1.10552 -3.92737 0
M  V30 51322 H 4879.92 -2.1894 -3.53607 0
M  V30 51323 H 4878.5 -0.366306 -3.71096 0
M  V30 51324 N 4880.69 1.34403 -0.823012 0
M  V30 51325 C 4881.63 2.31428 -0.233246 0
M  V30 51326 C 4882.63 1.57407 0.626063 0
M  V30 51327 O 4883.83 1.72404 0.517393 0
M  V30 51328 H 4880.21 0.749861 -0.0566821 0
M  V30 51329 H 4882.18 2.78695 -1.06638 0
M  V30 51330 C 4880.93 3.42655 0.590143 0
M  V30 51331 H 4880.25 3.99752 -0.0617534 0
M  V30 51332 H 4881.69 4.12781 0.968909 0
M  V30 51333 C 4880.15 2.87118 1.76252 0
M  V30 51334 O 4880.68 2.82005 2.8607 0
M  V30 51335 N 4878.89 2.4394 1.57929 0
M  V30 51336 H 4878.43 2.48298 0.685991 0
M  V30 51337 H 4878.39 2.07132 2.36525 0
M  V30 51338 N 4882.16 0.577983 1.46619 0
M  V30 51339 C 4883.11 -0.178789 2.27298 0
M  V30 51340 C 4884.1 -0.866231 1.35592 0
M  V30 51341 O 4885.29 -0.761107 1.598 0
M  V30 51342 C 4882.42 -1.19488 3.21835 0
M  V30 51343 C 4881.51 -0.509792 4.21025 0
M  V30 51344 N 4881.9 0.431947 5.03952 0
M  V30 51345 C 4880.19 -0.761133 4.39457 0
M  V30 51346 C 4880.9 0.831895 5.75721 0
M  V30 51347 N 4879.87 0.182088 5.43295 0
M  V30 51348 H 4883.67 0.54496 2.88803 0
M  V30 51349 H 4881.19 0.399428 1.57411 0
M  V30 51350 H 4883.18 -1.75118 3.78338 0
M  V30 51351 H 4881.84 -1.9195 2.61888 0
M  V30 51352 H 4882.86 0.807224 5.1157 0
M  V30 51353 H 4879.53 -1.47269 3.90664 0
M  V30 51354 H 4880.92 1.60693 6.52401 0
M  V30 51355 N 4883.64 -1.54409 0.315511 0
M  V30 51356 C 4884.87 -2.053 -0.294424 0
M  V30 51357 C 4885.29 -1.19058 -1.45626 0
M  V30 51358 O 4884.65 -0.197867 -1.80217 0
M  V30 51359 C 4884.7 -3.53452 -0.714425 0
M  V30 51360 O 4883.8 -3.70181 -1.81768 0
M  V30 51361 H 4883.14 -0.661745 -0.0546786 0
M  V30 51362 H 4885.67 -1.99325 0.461579 0
M  V30 51363 H 4885.68 -3.95573 -0.999287 0
M  V30 51364 H 4884.36 -4.1568 0.13539 0
M  V30 51365 H 4882.94 -3.39966 -1.53224 0
M  V30 51366 N 4885.12 -0.0435168 -1.5754 0
M  V30 51367 C 4886.37 0.631967 -1.92386 0
M  V30 51368 C 4886.7 1.713 -0.921217 0
M  V30 51369 O 4885.95 1.95583 0.0676752 0
M  V30 51370 C 4886.25 1.27368 -3.33934 0
M  V30 51371 C 4885.92 0.321599 -4.49752 0
M  V30 51372 C 4884.58 0.0595919 -4.81163 0
M  V30 51373 C 4886.93 -0.331341 -5.20146 0
M  V30 51374 C 4884.26 -0.862919 -5.80319 0
M  V30 51375 C 4886.61 -1.242 -6.20288 0
M  V30 51376 C 4885.27 -1.51275 -6.50132 0
M  V30 51377 H 4884.54 0.231253 -0.703991 0
M  V30 51378 H 4887.19 -0.108361 -1.91193 0
M  V30 51379 H 4885.5 2.0891 -3.31457 0
M  V30 51380 H 4887.19 1.80314 -3.58173 0
M  V30 51381 H 4883.78 0.53599 -4.25235 0
M  V30 51382 H 4887.97 -0.142 -4.96097 0
M  V30 51383 H 4883.22 -1.08024 -6.01781 0
M  V30 51384 H 4887.4 -1.75405 -6.73948 0
M  V30 51385 H 4885.02 -2.22922 -7.2678 0
M  V30 51386 N 4886.6 1.55916 0.229791 0
M  V30 51387 C 4887.53 1.94758 1.28808 0
M  V30 51388 C 4888.51 0.814709 1.4932 0
M  V30 51389 O 4889.69 1.07636 1.61642 0
M  V30 51390 C 4886.82 2.25714 2.63951 0
M  V30 51391 C 4885.78 3.41415 2.58108 0
M  V30 51392 C 4885.1 3.57955 3.97206 0
M  V30 51393 C 4886.4 4.76623 2.13606 0
M  V30 51394 H 4888.1 2.83407 0.965448 0
M  V30 51395 H 4885.64 1.36354 0.46298 0
M  V30 51396 H 4887.6 2.51478 3.38137 0
M  V30 51397 H 4886.32 1.3391 2.97885 0
M  V30 51398 H 4884.98 3.15687 1.8638 0
M  V30 51399 H 4884.63 2.63541 4.28433 0
M  V30 51400 H 4884.33 4.3577 3.9418 0
M  V30 51401 H 4885.85 3.86059 4.73066 0
M  V30 51402 H 4887.27 5.01647 2.77531 0
M  V30 51403 H 4885.66 5.57663 2.21657 0
M  V30 51404 H 4886.73 4.72534 1.08812 0
M  V30 51405 N 4888.08 -0.496163 1.49586 0
M  V30 51406 C 4889.32 -1.25183 1.59553 0
M  V30 51407 C 4889.66 -1.92119 0.283534 0
M  V30 51408 O 4888.93 -1.8095 -0.71326 0
M  V30 51409 C 4889.21 -2.31506 2.7582 0
M  V30 51410 C 4889.07 -1.6904 4.16828 0
M  V30 51411 C 4890.39 -3.3303 2.87714 0
M  V30 51412 H 4887.5 -0.45377 0.580743 0
M  V30 51413 H 4890.15 -0.549263 1.81888 0
M  V30 51414 H 4888.3 -2.91429 2.56908 0
M  V30 51415 H 4889.97 -1.12908 4.47269 0
M  V30 51416 H 4888.21 -0.994337 4.2225 0
M  V30 51417 H 4888.88 -2.46182 4.94063 0
M  V30 51418 H 4891.36 -2.83103 3.04945 0
M  V30 51419 H 4890.23 -4.04781 3.70734 0
M  V30 51420 H 4890.5 -3.95648 1.97269 0
M  V30 51421 N 4889.55 -1.38742 -0.747561 0
M  V30 51422 C 4890.49 -1.32348 -1.87128 0
M  V30 51423 C 4891.5 -0.234559 -1.61101 0
M  V30 51424 O 4892.69 -0.492576 -1.71569 0
M  V30 51425 C 4889.79 -1.02926 -3.22892 0
M  V30 51426 C 4888.96 -2.22847 -3.76375 0
M  V30 51427 C 4888.02 -1.90076 -4.9067 0
M  V30 51428 O 4887.05 -2.62633 -5.04988 0
M  V30 51429 N 4888.25 -0.859343 -5.74104 0
M  V30 51430 H 4891.01 -2.29182 -1.93121 0
M  V30 51431 H 4888.57 -1.32681 -0.927758 0
M  V30 51432 H 4890.57 -0.790449 -3.96906 0
M  V30 51433 H 4889.14 -0.148682 -3.12246 0
M  V30 51434 H 4888.36 -2.62757 -2.93858 0
M  V30 51435 H 4889.64 -3.02865 -4.0884 0
M  V30 51436 H 4889.04 -0.257762 -5.65112 0
M  V30 51437 H 4887.6 -0.680417 -6.48239 0
M  V30 51438 N 4891.03 0.976398 -1.2371 0
M  V30 51439 C 4892 2.05106 -1.02294 0
M  V30 51440 C 4893 1.60791 0.0166629 0
M  V30 51441 O 4894.19 1.72761 -0.223469 0
M  V30 51442 C 4891.32 3.36456 -0.548625 0
M  V30 51443 H 4892.51 2.25538 -1.97668 0
M  V30 51444 H 4890.06 1.15039 -1.0581 0
M  V30 51445 H 4890.8 3.21714 0.408705 0
M  V30 51446 H 4890.58 3.69962 -1.29887 0
M  V30 51447 H 4892.07 4.15487 -0.419552 0
M  V30 51448 N 4892.51 1.04945 1.17577 0
M  V30 51449 C 4893.76 0.756557 1.87405 0
M  V30 51450 C 4894.08 -0.718414 1.81284 0
M  V30 51451 O 4893.35 -1.51896 1.23711 0
M  V30 51452 H 4891.93 0.276865 0.693797 0
M  V30 51453 H 4894.59 1.32808 1.42647 0
M  V30 51454 H 4893.69 1.06929 2.93211 0
M  V30 51455 N 4893.99 -1.33965 0.830128 0
M  V30 51456 C 4894.94 -2.31301 0.245516 0
M  V30 51457 C 4895.93 -1.57736 -0.617706 0
M  V30 51458 O 4897.14 -1.72676 -0.508242 0
M  V30 51459 H 4893.51 -0.74955 0.060658 0
M  V30 51460 H 4895.48 -2.78125 1.08115 0
M  V30 51461 C 4894.23 -3.42963 -0.571963 0
M  V30 51462 H 4893.56 -3.99714 0.0829524 0
M  V30 51463 H 4895 -4.13289 -0.947004 0
M  V30 51464 C 4893.45 -2.88049 -1.74727 0
M  V30 51465 O 4893.98 -2.83518 -2.8457 0
M  V30 51466 N 4892.19 -2.44774 -1.56634 0
M  V30 51467 H 4891.74 -2.48658 -0.672814 0
M  V30 51468 H 4891.7 -2.08383 -2.35423 0
M  V30 51469 N 4895.47 -0.585751 -1.4631 0
M  V30 51470 C 4896.71 -0.0725996 -2.0267 0
M  V30 51471 C 4897.05 1.28518 -1.45591 0
M  V30 51472 O 4896.32 1.84281 -0.622166 0
M  V30 51473 C 4896.6 -0.0101054 -3.60099 0
M  V30 51474 C 4896.46 -1.397 -4.27556 0
M  V30 51475 C 4897.78 0.688964 -4.34674 0
M  V30 51476 H 4894.9 -0.0278566 -0.736473 0
M  V30 51477 H 4897.54 -0.753533 -1.74419 0
M  V30 51478 H 4895.69 0.569785 -3.84299 0
M  V30 51479 H 4897.36 -2.02229 -4.1461 0
M  V30 51480 H 4895.6 -1.96387 -3.868 0
M  V30 51481 H 4896.27 -1.30572 -5.36335 0
M  V30 51482 H 4898.75 0.1963 -4.15637 0
M  V30 51483 H 4897.63 0.70173 -5.44396 0
M  V30 51484 H 4897.89 1.75087 -4.05952 0
M  V30 51485 N 4896.95 1.5424 -0.323695 0
M  V30 51486 C 4897.88 2.21838 0.576233 0
M  V30 51487 C 4898.89 1.21841 1.07975 0
M  V30 51488 O 4900.08 1.48309 0.993308 0
M  V30 51489 C 4897.18 2.8693 1.80345 0
M  V30 51490 C 4896.35 4.13065 1.4386 0
M  V30 51491 C 4895.41 4.61749 2.52337 0
M  V30 51492 O 4894.44 5.26428 2.16476 0
M  V30 51493 N 4895.64 4.35988 3.83269 0
M  V30 51494 H 4898.4 2.997 -0.00258523 0
M  V30 51495 H 4895.97 1.61232 -0.146904 0
M  V30 51496 H 4897.96 3.16423 2.52307 0
M  V30 51497 H 4896.53 2.12773 2.29011 0
M  V30 51498 H 4895.75 3.90336 0.550615 0
M  V30 51499 H 4897.04 4.95152 1.17054 0
M  V30 51500 H 4896.43 3.84218 4.15202 0
M  V30 51501 H 4894.99 4.70135 4.5146 0
M  V30 51502 N 4898.42 0.0518709 1.57515 0
M  V30 51503 C 4899.35 -0.920208 2.14603 0
M  V30 51504 C 4900.33 -1.32402 1.06788 0
M  V30 51505 O 4901.52 -1.39862 1.34731 0
M  V30 51506 C 4898.65 -2.1948 2.69158 0
M  V30 51507 C 4897.6 -1.93103 3.81962 0
M  V30 51508 C 4896.93 -3.27022 4.23037 0
M  V30 51509 C 4898.23 -1.25208 5.0707 0
M  V30 51510 H 4899.92 -0.444697 2.96079 0
M  V30 51511 H 4897.47 -0.212458 1.42424 0
M  V30 51512 H 4899.42 -2.87884 3.07735 0
M  V30 51513 H 4898.15 -2.69238 1.84874 0
M  V30 51514 H 4896.81 -1.27111 3.43858 0
M  V30 51515 H 4896.45 -3.74583 3.35703 0
M  V30 51516 H 4896.15 -3.10172 4.99066 0
M  V30 51517 H 4897.68 -3.96656 4.64216 0
M  V30 51518 H 4899.09 -1.83647 5.4309 0
M  V30 51519 H 4897.49 -1.18681 5.88247 0
M  V30 51520 H 4898.56 -0.228212 4.84363 0
M  V30 51521 N 4899.9 -1.56035 -0.221519 0
M  V30 51522 C 4901.32 -1.49028 -0.571219 0
M  V30 51523 C 4901.52 -0.746977 -1.87143 0
M  V30 51524 O 4900.57 -0.286654 -2.50868 0
M  V30 51525 C 4901.89 -2.93581 -0.650419 0
M  V30 51526 C 4903.43 -3.04101 -0.741044 0
M  V30 51527 C 4903.91 -4.50013 -0.851588 0
M  V30 51528 N 4905.4 -4.54056 -0.915809 0
M  V30 51529 C 4906.14 -5.64236 -1.02105 0
M  V30 51530 N 4905.63 -6.84168 -1.09024 0
M  V30 51531 N 4907.42 -5.52088 -1.05619 0
M  V30 51532 H 4899.58 -2.02789 0.631692 0
M  V30 51533 H 4901.84 -0.921728 0.221634 0
M  V30 51534 H 4901.54 -3.50911 0.235376 0
M  V30 51535 H 4901.42 -3.45482 -1.51401 0
M  V30 51536 H 4903.81 -2.46836 -1.61728 0
M  V30 51537 H 4903.89 -2.5537 0.148218 0
M  V30 51538 H 4903.53 -5.07896 0.0201903 0
M  V30 51539 H 4903.46 -4.9645 -1.75627 0
M  V30 51540 H 4905.95 -3.67686 -0.872653 0
M  V30 51541 H 4906.26 -7.63887 -1.17033 0
M  V30 51542 H 4904.61 -6.86879 -1.05938 0
M  V30 51543 H 4907.8 -4.5732 -0.998792 0
M  V30 51544 H 4907.97 -6.37987 -1.13476 0
M  V30 51545 N 4901.38 0.488223 -1.49847 0
M  V30 51546 C 4902.63 1.24335 -1.60214 0
M  V30 51547 C 4902.96 1.91966 -0.293718 0
M  V30 51548 O 4902.23 1.81326 0.703654 0
M  V30 51549 C 4902.52 2.3004 -2.77044 0
M  V30 51550 C 4902.37 1.66827 -4.17719 0
M  V30 51551 C 4903.69 3.31499 -2.89476 0
M  V30 51552 H 4900.81 0.450683 -0.583141 0
M  V30 51553 H 4903.45 0.539609 -1.82176 0
M  V30 51554 H 4901.6 2.90062 -2.58449 0
M  V30 51555 H 4903.27 1.10534 -4.47861 0
M  V30 51556 H 4901.51 0.97193 -4.22772 0
M  V30 51557 H 4902.19 2.43559 -4.95362 0
M  V30 51558 H 4904.66 2.81482 -3.06443 0
M  V30 51559 H 4903.54 4.02809 -3.72876 0
M  V30 51560 H 4903.8 3.94596 -1.99364 0
M  V30 51561 N 4902.86 1.39136 0.740193 0
M  V30 51562 C 4904.11 1.3539 1.49508 0
M  V30 51563 C 4904.42 -0.0491213 1.95538 0
M  V30 51564 O 4905.63 -0.209162 2.70693 0
M  V30 51565 C 4904.08 2.37822 2.70127 0
M  V30 51566 C 4903.69 3.83812 2.31067 0
M  V30 51567 C 4905.43 2.43142 3.47969 0
M  V30 51568 C 4903.34 4.77898 3.48378 0
M  V30 51569 H 4902.27 0.503316 0.561417 0
M  V30 51570 H 4904.92 1.64757 0.807916 0
M  V30 51571 H 4903.3 2.01517 3.40891 0
M  V30 51572 H 4904.48 4.29129 1.67883 0
M  V30 51573 H 4902.79 3.81738 1.66329 0
M  V30 51574 H 4905.39 3.10629 4.35217 0
M  V30 51575 H 4905.73 1.45437 3.90069 0
M  V30 51576 H 4906.27 2.78314 2.84229 0
M  V30 51577 H 4903 5.76847 3.11333 0
M  V30 51578 H 4902.52 4.37264 4.10561 0
M  V30 51579 H 4904.2 4.96553 4.14782 0
M  V30 51580 N 4904.34 -0.969824 1.24226 0
M  V30 51581 C 4905.58 -1.70914 1.07856 0
M  V30 51582 C 4905.9 -1.91188 -0.383696 0
M  V30 51583 O 4905.17 -1.48811 -1.27406 0
M  V30 51584 H 4903.75 -0.63332 0.396125 0
M  V30 51585 H 4906.42 -1.16683 1.56112 0
M  V30 51586 H 4905.51 -2.69449 1.57492 0
M  V30 51587 N 4905.81 -1.05567 -1.17018 0
M  V30 51588 C 4906.76 -0.630084 -2.19121 0
M  V30 51589 C 4907.75 0.335417 -1.57365 0
M  V30 51590 O 4908.94 0.152038 -1.76346 0
M  V30 51591 C 4906.07 -0.0102883 -3.43298 0
M  V30 51592 C 4905.15 -0.999843 -4.12146 0
M  V30 51593 N 4905.55 -2.17268 -4.56759 0
M  V30 51594 C 4903.84 -0.829154 -4.38225 0
M  V30 51595 C 4904.54 -2.79901 -5.09932 0
M  V30 51596 N 4903.52 -2.07674 -5.02367 0
M  V30 51597 H 4907.32 -1.52362 -2.51322 0
M  V30 51598 H 4904.84 -0.926335 -1.3339 0
M  V30 51599 H 4906.83 0.312395 -4.15728 0
M  V30 51600 H 4905.49 0.878597 -3.12587 0
M  V30 51601 H 4906.5 -2.55082 -4.50725 0
M  V30 51602 H 4903.18 0.00836297 -4.17499 0
M  V30 51603 H 4904.57 -3.79382 -5.54544 0
M  V30 51604 N 4907.29 1.33523 -0.837221 0
M  V30 51605 C 4908.52 2.02578 -0.444616 0
M  V30 51606 C 4908.94 1.62584 0.945949 0
M  V30 51607 O 4908.3 0.817605 1.61818 0
M  V30 51608 C 4908.35 3.56048 -0.571131 0
M  V30 51609 O 4907.45 4.10423 0.403287 0
M  V30 51610 H 4906.79 0.63886 -0.18098 0
M  V30 51611 H 4909.32 1.70458 -1.1316 0
M  V30 51612 H 4909.33 4.05487 -0.452166 0
M  V30 51613 H 4908.01 3.84503 -1.58525 0
M  V30 51614 H 4906.58 3.72114 0.242016 0
M  V30 51615 N 4908.77 0.593501 1.45998 0
M  V30 51616 C 4909.7 -0.182116 2.27472 0
M  V30 51617 C 4910.68 -0.886853 1.36285 0
M  V30 51618 O 4911.87 -0.898569 1.65705 0
M  V30 51619 C 4908.99 -1.26225 3.14301 0
M  V30 51620 C 4908.04 -0.662183 4.21328 0
M  V30 51621 S 4908.87 0.519205 5.32977 0
M  V30 51622 C 4910.03 -0.561867 6.23373 0
M  V30 51623 H 4910.26 0.509159 2.92908 0
M  V30 51624 H 4907.79 0.380659 1.49634 0
M  V30 51625 H 4909.75 -1.88062 3.64887 0
M  V30 51626 H 4908.41 -1.92553 2.48158 0
M  V30 51627 H 4907.61 -1.47444 4.8195 0
M  V30 51628 H 4907.21 -0.11925 3.7381 0
M  V30 51629 H 4909.5 -1.4447 6.61917 0
M  V30 51630 H 4910.44 0.00785669 7.081 0
M  V30 51631 H 4910.85 -0.870865 5.57742 0
M  V30 51632 N 4910.25 -1.54066 0.33187 0
M  V30 51633 C 4911.18 -2.22141 -0.56446 0
M  V30 51634 C 4912.19 -1.22412 -1.07328 0
M  V30 51635 O 4913.38 -1.48834 -0.985429 0
M  V30 51636 C 4910.48 -2.87882 -1.78821 0
M  V30 51637 C 4909.66 -4.13822 -1.41668 0
M  V30 51638 C 4908.71 -4.63081 -2.49885 0
M  V30 51639 O 4907.74 -5.27569 -2.13681 0
M  V30 51640 N 4908.94 -4.38014 -3.80951 0
M  V30 51641 H 4911.71 -2.99694 0.018479 0
M  V30 51642 H 4909.27 -1.61152 0.155453 0
M  V30 51643 H 4911.26 -3.17756 -2.50625 0
M  V30 51644 H 4909.83 -2.13985 -2.2788 0
M  V30 51645 H 4909.05 -3.90622 -0.529907 0
M  V30 51646 H 4910.34 -4.95766 -1.14426 0
M  V30 51647 H 4909.74 -3.86414 -4.13159 0
M  V30 51648 H 4908.29 -4.72523 -4.48961 0
M  V30 51649 N 4911.73 -0.0602235 -1.57485 0
M  V30 51650 C 4912.67 0.928824 -2.1325 0
M  V30 51651 C 4913.67 1.31612 -1.06652 0
M  V30 51652 O 4914.87 1.29472 -1.25048 0
M  V30 51653 H 4911.25 0.317431 -0.68172 0
M  V30 51654 H 4913.22 0.433462 -2.95235 0
M  V30 51655 C 4911.97 2.19112 -2.69973 0
M  V30 51656 H 4911.29 1.90191 -3.51664 0
M  V30 51657 H 4912.73 2.86454 -3.12602 0
M  V30 51658 C 4911.19 2.94189 -1.64178 0
M  V30 51659 O 4911.72 3.87465 -1.05991 0
M  V30 51660 N 4909.93 2.57084 -1.35485 0
M  V30 51661 H 4909.47 1.81307 -1.8299 0
M  V30 51662 H 4909.43 3.07622 -0.649304 0
M  V30 51663 N 4913.2 1.56151 0.213241 0
M  V30 51664 C 4914.44 1.81328 0.943372 0
M  V30 51665 C 4914.81 0.634998 1.81195 0
M  V30 51666 O 4916.01 0.766256 2.57647 0
M  V30 51667 C 4914.28 3.11443 1.75323 0
M  V30 51668 S 4915.84 3.57964 2.53786 0
M  V30 51669 H 4912.66 0.636549 0.316743 0
M  V30 51670 H 4915.26 1.94388 0.208245 0
M  V30 51671 H 4913.96 3.95232 1.10543 0
M  V30 51672 H 4913.49 3.01213 2.5305 0
M  V30 51673 H 4915.51 3.2196 3.77566 0
M  V30 51674 N 4914.68 -0.48027 1.50104 0
M  V30 51675 C 4915.61 -1.58763 1.71221 0
M  V30 51676 C 4916.59 -1.60581 0.561053 0
M  V30 51677 O 4917.78 -1.76993 0.79919 0
M  V30 51678 C 4914.91 -2.97142 1.79789 0
M  V30 51679 C 4913.86 -3.10191 2.94899 0
M  V30 51680 C 4913.19 -4.50127 2.886 0
M  V30 51681 C 4914.49 -2.88268 4.35544 0
M  V30 51682 H 4916.18 -1.41345 2.63935 0
M  V30 51683 H 4913.73 -0.678546 1.27011 0
M  V30 51684 H 4915.68 -3.7453 1.93146 0
M  V30 51685 H 4914.41 -3.15696 0.836883 0
M  V30 51686 H 4913.06 -2.35234 2.81177 0
M  V30 51687 H 4912.71 -4.65586 1.90365 0
M  V30 51688 H 4912.41 -4.59795 3.65872 0
M  V30 51689 H 4913.94 -5.29547 3.03994 0
M  V30 51690 H 4915.35 -3.55411 4.4984 0
M  V30 51691 H 4913.75 -3.0939 5.14197 0
M  V30 51692 H 4914.82 -1.84203 4.4855 0
M  V30 51693 N 4916.16 -1.39527 -0.732804 0
M  V30 51694 C 4917.09 -1.4116 -1.86 0
M  V30 51695 C 4918.07 -0.274673 -1.67868 0
M  V30 51696 O 4919.26 -0.480811 -1.88154 0
M  V30 51697 C 4916.39 -1.2565 -3.23774 0
M  V30 51698 C 4915.34 -2.36765 -3.56548 0
M  V30 51699 C 4914.67 -2.06343 -4.93282 0
M  V30 51700 C 4915.97 -3.79082 -3.59297 0
M  V30 51701 H 4917.66 -2.3549 -1.84891 0
M  V30 51702 H 4915.21 -1.13351 -0.888122 0
M  V30 51703 H 4917.16 -1.25413 -4.02305 0
M  V30 51704 H 4915.88 -0.277886 -3.25416 0
M  V30 51705 H 4914.54 -2.36223 -2.80347 0
M  V30 51706 H 4914.19 -1.06914 -4.91506 0
M  V30 51707 H 4913.89 -2.80775 -5.16177 0
M  V30 51708 H 4915.41 -2.07759 -5.74168 0
M  V30 51709 H 4916.83 -3.81541 -4.27901 0
M  V30 51710 H 4915.23 -4.52892 -3.93712 0
M  V30 51711 H 4916.3 -4.09902 -2.59053 0
M  V30 51712 N 4917.64 0.963222 -1.24739 0
M  V30 51713 C 4919.05 1.23269 -1.01375 0
M  V30 51714 C 4919.25 1.99619 0.274706 0
M  V30 51715 O 4918.31 2.32296 0.989688 0
M  V30 51716 C 4919.62 2.01546 -2.23159 0
M  V30 51717 C 4921.17 2.14621 -2.2783 0
M  V30 51718 C 4921.65 2.96294 -3.49247 0
M  V30 51719 N 4923.14 3.03875 -3.49591 0
M  V30 51720 C 4923.87 3.6744 -4.40199 0
M  V30 51721 N 4923.37 4.32687 -5.41067 0
M  V30 51722 N 4925.16 3.64496 -4.27901 0
M  V30 51723 H 4917.31 0.452221 -2.0753 0
M  V30 51724 H 4919.58 0.262488 -0.910936 0
M  V30 51725 H 4919.28 1.52836 -3.16756 0
M  V30 51726 H 4919.16 3.0227 -2.25638 0
M  V30 51727 H 4921.54 2.62532 -1.34762 0
M  V30 51728 H 4921.62 1.1323 -2.29374 0
M  V30 51729 H 4921.27 2.49076 -4.42633 0
M  V30 51730 H 4921.2 3.97893 -3.44947 0
M  V30 51731 H 4923.69 2.57468 -2.7662 0
M  V30 51732 H 4924 4.79021 -6.06431 0
M  V30 51733 H 4922.35 4.31341 -5.44949 0
M  V30 51734 H 4925.54 3.12703 -3.48331 0
M  V30 51735 H 4925.71 4.1375 -4.98713 0
M  V30 51736 N 4919.12 1.06186 1.16457 0
M  V30 51737 C 4920.05 0.692939 2.22981 0
M  V30 51738 C 4921.03 -0.314063 1.67176 0
M  V30 51739 O 4922.21 -0.189431 1.93274 0
M  V30 51740 C 4919.34 0.077442 3.47214 0
M  V30 51741 C 4918.3 1.0103 4.15905 0
M  V30 51742 C 4917.62 0.258161 5.34076 0
M  V30 51743 C 4918.92 2.33884 4.67007 0
M  V30 51744 H 4920.62 1.58352 2.54097 0
M  V30 51745 H 4918.16 0.762833 1.22135 0
M  V30 51746 H 4920.12 -0.192512 4.2096 0
M  V30 51747 H 4918.84 -0.848143 3.15395 0
M  V30 51748 H 4917.5 1.26498 3.44084 0
M  V30 51749 H 4917.15 -0.670508 4.98511 0
M  V30 51750 H 4916.85 0.879842 5.80976 0
M  V30 51751 H 4918.37 -0.00427322 6.106 0
M  V30 51752 H 4919.78 2.12809 5.3234 0
M  V30 51753 H 4918.18 2.9154 5.24523 0
M  V30 51754 H 4919.25 2.97032 3.83275 0
M  V30 51755 N 4920.59 -1.33077 0.84429 0
M  V30 51756 C 4921.54 -2.29103 0.279404 0
M  V30 51757 C 4922.51 -1.54579 -0.607828 0
M  V30 51758 O 4923.7 -1.82852 -0.544945 0
M  V30 51759 C 4920.84 -3.40928 -0.53496 0
M  V30 51760 C 4919.95 -4.30353 0.3769 0
M  V30 51761 C 4919.08 -5.29298 -0.44909 0
M  V30 51762 C 4918.12 -6.10363 0.460821 0
M  V30 51763 N 4917.26 -7.01336 -0.327365 0
M  V30 51764 H 4922.1 -2.76813 1.10356 0
M  V30 51765 H 4919.64 -1.36201 0.555659 0
M  V30 51766 H 4921.6 -4.04472 -1.02264 0
M  V30 51767 H 4920.23 -2.94396 -1.32404 0
M  V30 51768 H 4919.28 -3.67482 0.98292 0
M  V30 51769 H 4920.59 -4.87064 1.07566 0
M  V30 51770 H 4919.74 -5.98396 -1.00037 0
M  V30 51771 H 4918.48 -4.73178 -1.18126 0
M  V30 51772 H 4917.49 -5.40179 1.02407 0
M  V30 51773 H 4918.71 -6.68567 1.19144 0
M  V30 51774 H 4916.66 -6.47658 -1.04282 0
M  V30 51775 H 4916.58 -7.55354 0.312566 0
M  V30 51776 H 4917.84 -7.74734 -0.860708 0
M  V30 51777 N 4922.07 -0.601236 -1.45681 0
M  V30 51778 C 4923.32 -0.0940914 -2.02582 0
M  V30 51779 C 4923.65 1.26967 -1.46946 0
M  V30 51780 O 4922.93 1.8361 -0.641677 0
M  V30 51781 C 4923.21 -0.0482981 -3.60068 0
M  V30 51782 C 4923.06 -1.44227 -4.2605 0
M  V30 51783 C 4924.38 0.642822 -4.3538 0
M  V30 51784 H 4921.5 -0.0356663 -0.736136 0
M  V30 51785 H 4924.14 -0.77199 -1.7361 0
M  V30 51786 H 4922.29 0.528993 -3.84882 0
M  V30 51787 H 4923.96 -2.06615 -4.12441 0
M  V30 51788 H 4922.21 -2.00479 -3.84696 0
M  V30 51789 H 4922.88 -1.36253 -5.3492 0
M  V30 51790 H 4925.35 0.152205 -4.15822 0
M  V30 51791 H 4924.23 0.64395 -5.4511 0
M  V30 51792 H 4924.49 1.70771 -4.07786 0
M  V30 51793 N 4923.55 1.53888 -0.340036 0
M  V30 51794 C 4924.83 1.93085 0.312651 0
M  V30 51795 C 4925.21 1.27126 1.68529 0
M  V30 51796 O 4924.56 0.420914 2.2459 0
M  V30 51797 C 4924.77 3.46832 0.388436 0
M  V30 51798 C 4926.11 4.19735 0.640941 0
M  V30 51799 O 4927.14 3.53076 0.470694 0
M  V30 51800 O 4926 5.37814 0.970496 0
M  V30 51801 H 4923.09 0.80679 0.181711 0
M  V30 51802 H 4925.64 1.65135 -0.390956 0
M  V30 51803 H 4924.41 3.87053 -0.574958 0
M  V30 51804 H 4924.03 3.80937 1.13897 0
M  V30 51805 N 4925.03 0.0685745 1.57451 0
M  V30 51806 C 4926.26 -0.610393 1.97691 0
M  V30 51807 C 4926.67 -1.63343 0.946816 0
M  V30 51808 O 4926.03 -1.82377 -0.0669227 0
M  V30 51809 C 4926.08 -1.28184 3.38011 0
M  V30 51810 O 4925.8 -0.299753 4.37073 0
M  V30 51811 C 4927.3 -2.04893 3.93108 0
M  V30 51812 H 4924.52 -0.165666 0.650227 0
M  V30 51813 H 4927.07 0.140025 2.0402 0
M  V30 51814 H 4925.22 -1.98336 3.32778 0
M  V30 51815 H 4925.64 -0.781078 5.18652 0
M  V30 51816 H 4927.11 -2.4727 4.9352 0
M  V30 51817 H 4927.59 -2.90418 3.29475 0
M  V30 51818 H 4928.19 -1.39614 4.01731 0
M  V30 51819 N 4926.51 -1.56262 -0.204957 0
M  V30 51820 C 4927.73 -1.84494 -0.947447 0
M  V30 51821 C 4928.16 -0.650956 -1.76477 0
M  V30 51822 O 4927.52 0.400288 -1.76826 0
M  V30 51823 C 4927.56 -3.10869 -1.82736 0
M  V30 51824 O 4926.67 -2.90729 -2.9249 0
M  V30 51825 H 4926.01 -0.607793 -0.267365 0
M  V30 51826 H 4928.54 -2.03486 -0.213252 0
M  V30 51827 H 4928.55 -3.41407 -2.23395 0
M  V30 51828 H 4927.22 -3.97396 -1.22676 0
M  V30 51829 H 4925.8 -2.71466 -2.55658 0
M  V30 51830 N 4927.99 0.472303 -1.50356 0
M  V30 51831 C 4928.93 1.5912 -1.69657 0
M  V30 51832 C 4929.93 1.59791 -0.562426 0
M  V30 51833 O 4931.13 1.63955 -0.74289 0
M  V30 51834 H 4927.51 0.52799 -0.535473 0
M  V30 51835 H 4929.48 1.40003 -2.63518 0
M  V30 51836 C 4928.23 2.97069 -1.8068 0
M  V30 51837 H 4927.55 2.97271 -2.67339 0
M  V30 51838 H 4928.99 3.74818 -1.9821 0
M  V30 51839 C 4927.45 3.32245 -0.558133 0
M  V30 51840 O 4927.98 4.00554 0.303258 0
M  V30 51841 N 4926.19 2.87657 -0.412516 0
M  V30 51842 H 4925.73 2.32242 -1.11452 0
M  V30 51843 H 4925.69 3.11558 0.421798 0
M  V30 51844 N 4929.46 1.39914 0.725394 0
M  V30 51845 C 4930.87 1.33604 1.30411 0
M  V30 51846 C 4931.23 0.0048869 1.96199 0
M  V30 51847 O 4930.35 -0.897206 1.96924 0
M  V30 51848 C 4930.95 2.41973 2.37138 0
M  V30 51849 C 4929.5 2.39154 2.90658 0
M  V30 51850 C 4928.65 2.23361 1.64333 0
M  V30 51851 H 4931.6 1.49862 0.522215 0
M  V30 51852 H 4931.62 2.09315 3.17754 0
M  V30 51853 H 4931.14 3.38844 1.89226 0
M  V30 51854 H 4929.24 1.45952 3.42825 0
M  V30 51855 H 4929.35 3.34374 3.43119 0
M  V30 51856 H 4927.71 1.70702 1.89031 0
M  V30 51857 H 4928.5 3.22214 1.1846 0
M  V30 51858 N 4930.94 -0.956593 1.25248 0
M  V30 51859 C 4931.89 -2.05297 1.05461 0
M  V30 51860 C 4932.86 -1.66062 -0.0356305 0
M  V30 51861 O 4934.04 -1.90415 0.121166 0
M  V30 51862 C 4931.18 -3.38388 0.67731 0
M  V30 51863 C 4930.3 -3.90752 1.8422 0
M  V30 51864 C 4929.43 -5.1216 1.40944 0
M  V30 51865 C 4928.47 -5.56748 2.54358 0
M  V30 51866 N 4927.61 -6.69369 2.11872 0
M  V30 51867 H 4932.45 -2.21555 1.99292 0
M  V30 51868 H 4929.98 -1.08574 0.992472 0
M  V30 51869 H 4931.94 -4.14878 0.439525 0
M  V30 51870 H 4930.57 -3.22022 -0.224014 0
M  V30 51871 H 4929.62 -3.108 2.19334 0
M  V30 51872 H 4930.94 -4.19793 2.69398 0
M  V30 51873 H 4930.09 -5.96061 1.13119 0
M  V30 51874 H 4928.83 -4.8483 0.528345 0
M  V30 51875 H 4927.83 -4.71414 2.8293 0
M  V30 51876 H 4929.06 -5.86088 3.43042 0
M  V30 51877 H 4927.01 -6.43751 1.26176 0
M  V30 51878 H 4926.92 -6.97917 2.90599 0
M  V30 51879 H 4928.19 -7.56684 1.87217 0
M  V30 51880 N 4932.42 -1.06802 -1.15892 0
M  V30 51881 C 4933.65 -0.808761 -1.90438 0
M  V30 51882 C 4934.06 0.637443 -1.77714 0
M  V30 51883 O 4933.42 1.4368 -1.12527 0
M  V30 51884 C 4933.47 -1.2008 -3.40974 0
M  V30 51885 O 4933.19 -2.59025 -3.53324 0
M  V30 51886 C 4934.69 -0.970022 -4.32557 0
M  V30 51887 H 4931.91 -0.29283 -0.603731 0
M  V30 51888 H 4934.46 -1.42301 -1.46869 0
M  V30 51889 H 4932.61 -0.630976 -3.82227 0
M  V30 51890 H 4933.03 -2.74866 -4.46709 0
M  V30 51891 H 4934.5 -1.2939 -5.36621 0
M  V30 51892 H 4934.98 0.0939666 -4.39099 0
M  V30 51893 H 4935.58 -1.52447 -3.97039 0
M  V30 51894 N 4933.9 1.32627 -0.851335 0
M  V30 51895 C 4935.31 1.79651 -0.508164 0
M  V30 51896 C 4935.66 1.7033 0.973755 0
M  V30 51897 O 4934.78 1.25992 1.7594 0
M  V30 51898 C 4935.38 3.26193 -0.91563 0
M  V30 51899 C 4933.94 3.71185 -0.624407 0
M  V30 51900 C 4933.09 2.538 -1.11718 0
M  V30 51901 H 4936.04 1.19973 -1.03886 0
M  V30 51902 H 4936.06 3.798 -0.230669 0
M  V30 51903 H 4935.57 3.32945 -1.99423 0
M  V30 51904 H 4933.67 3.6995 0.443607 0
M  V30 51905 H 4933.78 4.64128 -1.18837 0
M  V30 51906 H 4932.15 2.48962 -0.537571 0
M  V30 51907 H 4932.93 2.63308 -2.20282 0
M  V30 51908 N 4935.38 0.608953 1.4536 0
M  V30 51909 C 4936.32 -0.109091 2.30542 0
M  V30 51910 C 4937.29 -0.858654 1.42184 0
M  V30 51911 O 4938.48 -0.844118 1.71112 0
M  V30 51912 C 4935.62 -1.09959 3.27113 0
M  V30 51913 C 4934.73 -0.35076 4.30574 0
M  V30 51914 C 4933.87 -1.3311 5.14252 0
M  V30 51915 C 4932.9 -0.570163 6.09439 0
M  V30 51916 N 4932.04 -1.49986 6.85893 0
M  V30 51917 H 4936.88 0.623297 2.91409 0
M  V30 51918 H 4934.42 0.319172 1.43596 0
M  V30 51919 H 4936.38 -1.68701 3.8157 0
M  V30 51920 H 4935.01 -1.79938 2.67997 0
M  V30 51921 H 4934.06 0.352187 3.78766 0
M  V30 51922 H 4935.37 0.2429 4.98208 0
M  V30 51923 H 4934.52 -1.99054 5.73116 0
M  V30 51924 H 4933.26 -1.9587 4.46639 0
M  V30 51925 H 4932.27 0.102895 5.49704 0
M  V30 51926 H 4933.49 0.0523994 6.7908 0
M  V30 51927 H 4931.44 -2.11507 6.20968 0
M  V30 51928 H 4931.36 -0.95967 7.49884 0
M  V30 51929 H 4932.62 -2.14883 7.49297 0
M  V30 51930 N 4936.85 -1.53705 0.348193 0
M  V30 51931 C 4938.08 -2.05109 -0.247792 0
M  V30 51932 C 4938.49 -1.22257 -1.44395 0
M  V30 51933 O 4937.83 -0.251917 -1.81964 0
M  V30 51934 C 4937.9 -3.52174 -0.722063 0
M  V30 51935 C 4937.56 -4.55619 0.355062 0
M  V30 51936 C 4938.56 -5.05879 1.19928 0
M  V30 51937 C 4936.24 -4.99701 0.510321 0
M  V30 51938 C 4938.24 -5.98806 2.18427 0
M  V30 51939 C 4935.92 -5.92438 1.49869 0
M  V30 51940 C 4936.92 -6.41879 2.33411 0
M  V30 51941 O 4936.61 -7.3279 3.30565 0
M  V30 51942 H 4936.34 -0.674088 -0.0508059 0
M  V30 51943 H 4938.9 -1.99228 0.49975 0
M  V30 51944 H 4937.13 -3.55534 -1.52092 0
M  V30 51945 H 4938.81 -3.86524 -1.23911 0
M  V30 51946 H 4939.58 -4.72583 1.09044 0
M  V30 51947 H 4935.46 -4.60816 -0.130112 0
M  V30 51948 H 4939 -6.3732 2.83672 0
M  V30 51949 H 4934.9 -6.25149 1.60808 0
M  V30 51950 H 4935.67 -7.50738 3.26091 0
M  V30 51951 N 4938.33 -0.0769235 -1.57412 0
M  V30 51952 C 4939.28 0.888502 -2.13012 0
M  V30 51953 C 4940.25 1.29194 -1.04394 0
M  V30 51954 O 4941.43 1.37689 -1.32084 0
M  V30 51955 C 4938.57 2.14889 -2.70031 0
M  V30 51956 C 4937.69 1.79763 -3.92822 0
M  V30 51957 C 4936.82 3.00451 -4.38067 0
M  V30 51958 C 4935.86 2.61366 -5.53493 0
M  V30 51959 N 4935 3.7483 -5.93672 0
M  V30 51960 H 4939.84 0.40749 -2.95201 0
M  V30 51961 H 4937.38 0.189483 -1.45875 0
M  V30 51962 H 4939.33 2.88677 -3.012 0
M  V30 51963 H 4937.96 2.60522 -1.906 0
M  V30 51964 H 4937.02 0.960172 -3.68083 0
M  V30 51965 H 4938.33 1.47011 -4.76644 0
M  V30 51966 H 4937.48 3.82512 -4.70924 0
M  V30 51967 H 4936.22 3.36401 -3.53109 0
M  V30 51968 H 4935.23 1.77728 -5.20282 0
M  V30 51969 H 4936.45 2.26581 -6.40186 0
M  V30 51970 H 4934.4 4.10532 -5.11663 0
M  V30 51971 H 4934.31 3.45863 -6.72246 0
M  V30 51972 H 4935.58 4.57455 -6.31154 0
M  V30 51973 N 4939.81 1.56368 0.196667 0
M  V30 51974 C 4941.06 1.80532 0.917302 0
M  V30 51975 C 4941.39 0.649882 1.83322 0
M  V30 51976 O 4940.64 -0.364442 1.92277 0
M  V30 51977 C 4940.94 3.1067 1.76689 0
M  V30 51978 C 4940.61 4.39624 1.0021 0
M  V30 51979 C 4939.27 4.74655 0.790928 0
M  V30 51980 C 4941.62 5.19132 0.463853 0
M  V30 51981 C 4938.95 5.86692 0.0300092 0
M  V30 51982 C 4941.3 6.31963 -0.283848 0
M  V30 51983 C 4939.96 6.65579 -0.506047 0
M  V30 51984 H 4939.23 0.660614 0.335665 0
M  V30 51985 H 4941.88 1.90616 0.183777 0
M  V30 51986 H 4940.19 2.95816 2.56905 0
M  V30 51987 H 4941.88 3.26571 2.32706 0
M  V30 51988 H 4938.47 4.12131 1.17669 0
M  V30 51989 H 4942.66 4.92482 0.614402 0
M  V30 51990 H 4937.91 6.11211 -0.152132 0
M  V30 51991 H 4942.09 6.92789 -0.708301 0
M  V30 51992 H 4939.71 7.52235 -1.09757 0
M  V30 51993 N 4941.29 -0.464322 1.50605 0
M  V30 51994 C 4942.53 -1.2177 1.62172 0
M  V30 51995 C 4942.87 -1.91474 0.324221 0
M  V30 51996 O 4942.14 -1.82422 -0.674718 0
M  V30 51997 C 4942.43 -2.25604 2.80669 0
M  V30 51998 C 4942.28 -1.6016 4.2032 0
M  V30 51999 C 4943.6 -3.26852 2.94713 0
M  V30 52000 H 4940.72 -0.441349 0.590237 0
M  V30 52001 H 4943.36 -0.510558 1.83012 0
M  V30 52002 H 4941.51 -2.85914 2.63031 0
M  V30 52003 H 4943.18 -1.03395 4.49563 0
M  V30 52004 H 4941.42 -0.904548 4.24265 0
M  V30 52005 H 4942.09 -2.35647 4.99174 0
M  V30 52006 H 4944.57 -2.76571 3.10882 0
M  V30 52007 H 4943.45 -3.96826 3.79237 0
M  V30 52008 H 4943.71 -3.91375 2.05617 0
M  V30 52009 N 4942.77 -1.40296 -0.717964 0
M  V30 52010 C 4944.18 -1.22274 -1.02573 0
M  V30 52011 C 4944.38 -0.0962683 -2.0127 0
M  V30 52012 O 4943.44 0.546608 -2.46513 0
M  V30 52013 C 4944.75 -2.56354 -1.57173 0
M  V30 52014 C 4946.3 -2.63346 -1.69169 0
M  V30 52015 C 4946.77 -3.97688 -2.27174 0
M  V30 52016 N 4948.27 -3.99417 -2.34563 0
M  V30 52017 C 4949 -5.00151 -2.80422 0
M  V30 52018 N 4948.5 -6.11279 -3.26051 0
M  V30 52019 N 4950.29 -4.87521 -2.79785 0
M  V30 52020 H 4942.44 -2.12304 -0.0637153 0
M  V30 52021 H 4944.7 -0.943635 -0.0908704 0
M  V30 52022 H 4944.41 -3.39423 -0.921143 0
M  V30 52023 H 4944.28 -2.77275 -2.55732 0
M  V30 52024 H 4946.67 -1.8065 -2.33345 0
M  V30 52025 H 4946.75 -2.46258 -0.69216 0
M  V30 52026 H 4946.4 -4.80823 -1.63621 0
M  V30 52027 H 4946.33 -4.12105 -3.27837 0
M  V30 52028 H 4948.82 -3.1917 -2.02334 0
M  V30 52029 H 4949.13 -6.84036 -3.59604 0
M  V30 52030 H 4947.47 -6.14848 -3.24016 0
M  V30 52031 H 4950.67 -3.99798 -2.43473 0
M  V30 52032 H 4950.84 -5.66169 -3.15208 0
M  V30 52033 N 4944.24 0.949938 -1.25754 0
M  V30 52034 C 4945.49 1.68952 -1.10173 0
M  V30 52035 C 4945.81 1.92329 0.356241 0
M  V30 52036 O 4947.01 2.64028 0.632564 0
M  V30 52037 C 4945.47 3.04189 -1.92347 0
M  V30 52038 C 4945.08 2.88591 -3.42665 0
M  V30 52039 C 4946.82 3.81897 -1.8535 0
M  V30 52040 C 4944.73 4.19247 -4.17116 0
M  V30 52041 H 4943.66 0.633631 -0.40869 0
M  V30 52042 H 4946.31 1.05714 -1.49989 0
M  V30 52043 H 4944.69 3.68358 -1.45357 0
M  V30 52044 H 4945.86 2.33326 -3.97361 0
M  V30 52045 H 4944.18 2.24333 -3.50804 0
M  V30 52046 H 4946.78 4.78679 -2.38265 0
M  V30 52047 H 4947.12 4.08097 -0.822369 0
M  V30 52048 H 4947.65 3.24487 -2.30115 0
M  V30 52049 H 4944.39 3.98235 -5.20662 0
M  V30 52050 H 4943.91 4.7426 -3.67203 0
M  V30 52051 H 4945.59 4.8776 -4.25088 0
M  V30 52052 N 4945.72 1.07416 1.15324 0
M  V30 52053 C 4946.65 0.653001 2.19701 0
M  V30 52054 C 4947.67 -0.294812 1.60108 0
M  V30 52055 O 4948.86 -0.0840305 1.78302 0
M  V30 52056 C 4945.96 -0.0613149 3.38845 0
M  V30 52057 C 4945.13 0.902847 4.27981 0
M  V30 52058 C 4944.19 0.225706 5.25716 0
M  V30 52059 O 4943.21 0.866957 5.62559 0
M  V30 52060 N 4944.42 -1.02838 5.71318 0
M  V30 52061 H 4947.18 1.5509 2.56451 0
M  V30 52062 H 4944.74 0.958929 1.30446 0
M  V30 52063 H 4946.73 -0.525004 4.0128 0
M  V30 52064 H 4945.3 -0.861163 3.00504 0
M  V30 52065 H 4944.52 1.54563 3.62635 0
M  V30 52066 H 4945.81 1.55653 4.84406 0
M  V30 52067 H 4945.21 -1.56929 5.43498 0
M  V30 52068 H 4943.77 -1.43573 6.35791 0
M  V30 52069 N 4947.2 -1.32174 0.858357 0
M  V30 52070 C 4948.61 -1.79379 0.517684 0
M  V30 52071 C 4948.96 -1.70844 -0.964709 0
M  V30 52072 O 4948.09 -1.26924 -1.75269 0
M  V30 52073 C 4948.68 -3.25702 0.932916 0
M  V30 52074 C 4947.24 -3.70848 0.644083 0
M  V30 52075 C 4946.39 -2.53204 1.13063 0
M  V30 52076 H 4949.34 -1.1942 1.04521 0
M  V30 52077 H 4949.36 -3.79672 0.250807 0
M  V30 52078 H 4948.87 -3.31882 2.01186 0
M  V30 52079 H 4946.97 -3.7018 -0.423981 0
M  V30 52080 H 4947.09 -4.63491 1.21297 0
M  V30 52081 H 4945.45 -2.48674 0.550767 0
M  V30 52082 H 4946.23 -2.62136 2.21675 0
M  V30 52083 N 4948.68 -0.616653 -1.45035 0
M  V30 52084 C 4949.93 -0.115174 -2.01772 0
M  V30 52085 C 4950.25 1.26215 -1.48643 0
M  V30 52086 O 4949.52 1.83561 -0.684264 0
M  V30 52087 H 4948.1 -0.0395869 -0.74595 0
M  V30 52088 H 4950.76 -0.800095 -1.7772 0
M  V30 52089 H 4949.86 -0.071837 -3.12017 0
M  V30 52090 N 4950.16 1.53519 -0.356339 0
M  V30 52091 C 4951.09 2.23011 0.529048 0
M  V30 52092 C 4952.1 1.24104 1.05366 0
M  V30 52093 O 4953.29 1.50383 0.961626 0
M  V30 52094 C 4950.39 2.90691 1.74219 0
M  V30 52095 C 4949.56 4.16024 1.35066 0
M  V30 52096 C 4948.62 4.66998 2.42486 0
M  V30 52097 O 4947.65 5.30902 2.05261 0
M  V30 52098 N 4948.85 4.44019 3.73935 0
M  V30 52099 H 4951.62 2.99627 -0.0661554 0
M  V30 52100 H 4949.18 1.60884 -0.181071 0
M  V30 52101 H 4951.17 3.21703 2.45538 0
M  V30 52102 H 4949.74 2.17583 2.24447 0
M  V30 52103 H 4948.96 3.91416 0.467695 0
M  V30 52104 H 4950.25 4.97524 1.06524 0
M  V30 52105 H 4949.64 3.92939 4.06959 0
M  V30 52106 H 4948.2 4.79605 4.41386 0
M  V30 52107 N 4951.63 0.0852704 1.57369 0
M  V30 52108 C 4952.86 -0.58939 1.98328 0
M  V30 52109 C 4953.28 -1.62329 0.964087 0
M  V30 52110 O 4952.63 -1.82438 -0.0475754 0
M  V30 52111 C 4952.69 -1.24592 3.39351 0
M  V30 52112 O 4952.41 -0.253378 4.37367 0
M  V30 52113 C 4953.91 -2.00712 3.95259 0
M  V30 52114 H 4951.13 -0.158761 0.651948 0
M  V30 52115 H 4953.67 0.161656 2.0386 0
M  V30 52116 H 4951.83 -1.94796 3.34863 0
M  V30 52117 H 4952.24 -0.726024 5.19451 0
M  V30 52118 H 4953.71 -2.42022 4.96114 0
M  V30 52119 H 4954.19 -2.86907 3.32537 0
M  V30 52120 H 4954.8 -1.35346 4.03189 0
M  V30 52121 N 4953.11 -1.5647 -0.188372 0
M  V30 52122 C 4954.36 -1.81016 -0.907715 0
M  V30 52123 C 4954.69 -0.659595 -1.82974 0
M  V30 52124 O 4953.94 0.35424 -1.92467 0
M  V30 52125 C 4954.24 -3.11602 -1.75039 0
M  V30 52126 C 4953.91 -4.40149 -0.978768 0
M  V30 52127 C 4952.57 -4.75068 -0.765745 0
M  V30 52128 C 4954.92 -5.19371 -0.436315 0
M  V30 52129 C 4952.25 -5.867 0.00110493 0
M  V30 52130 C 4954.6 -6.31803 0.317358 0
M  V30 52131 C 4953.27 -6.65301 0.541337 0
M  V30 52132 H 4952.54 -0.662384 -0.332157 0
M  V30 52133 H 4955.18 -1.90711 -0.173665 0
M  V30 52134 H 4953.49 -2.97174 -2.55333 0
M  V30 52135 H 4955.19 -3.27801 -2.30971 0
M  V30 52136 H 4951.78 -4.12749 -1.15482 0
M  V30 52137 H 4955.96 -4.92801 -0.588276 0
M  V30 52138 H 4951.22 -6.11121 0.184543 0
M  V30 52139 H 4955.39 -6.92403 0.745031 0
M  V30 52140 H 4953.02 -7.51642 1.13744 0
M  V30 52141 N 4954.59 0.456329 -1.50849 0
M  V30 52142 C 4955.82 1.23485 -1.66632 0
M  V30 52143 C 4956.24 1.84714 -0.355319 0
M  V30 52144 O 4955.6 1.67963 0.6825 0
M  V30 52145 C 4955.65 2.30855 -2.77017 0
M  V30 52146 O 4954.75 3.35873 -2.39297 0
M  V30 52147 H 4954.09 0.36264 -0.556227 0
M  V30 52148 H 4956.62 0.541305 -1.9731 0
M  V30 52149 H 4956.63 2.75939 -3.00536 0
M  V30 52150 H 4955.31 1.85664 -3.72158 0
M  V30 52151 H 4953.88 2.96398 -2.26279 0
M  V30 52152 N 4956.07 1.40675 0.710514 0
M  V30 52153 C 4957.32 1.39433 1.47262 0
M  V30 52154 C 4957.65 -0.00175302 1.942 0
M  V30 52155 O 4956.92 -0.971327 1.6851 0
M  V30 52156 C 4957.21 2.38821 2.69511 0
M  V30 52157 C 4957.06 3.87475 2.28436 0
M  V30 52158 C 4958.38 2.35673 3.71681 0
M  V30 52159 H 4955.5 0.507787 0.534155 0
M  V30 52160 H 4958.14 1.71846 0.810486 0
M  V30 52161 H 4956.29 2.11312 3.26006 0
M  V30 52162 H 4957.96 4.25832 1.77384 0
M  V30 52163 H 4956.2 4.03064 1.60381 0
M  V30 52164 H 4956.88 4.52541 3.16087 0
M  V30 52165 H 4959.35 2.60051 3.24827 0
M  V30 52166 H 4958.23 3.07253 4.54848 0
M  V30 52167 H 4958.49 1.37011 4.20334 0
M  V30 52168 N 4957.55 -0.943255 1.26256 0
M  V30 52169 C 4958.48 -2.05898 1.10129 0
M  V30 52170 C 4959.46 -1.70099 0.00706532 0
M  V30 52171 O 4960.64 -1.93376 0.178709 0
M  V30 52172 C 4957.77 -3.39513 0.731295 0
M  V30 52173 C 4956.73 -3.89366 1.77702 0
M  V30 52174 C 4956.05 -5.19608 1.2614 0
M  V30 52175 C 4957.35 -4.14478 3.17813 0
M  V30 52176 H 4959.05 -2.19648 2.03458 0
M  V30 52177 H 4956.59 -1.05544 0.979613 0
M  V30 52178 H 4958.55 -4.17029 0.605362 0
M  V30 52179 H 4957.27 -3.25734 -0.237706 0
M  V30 52180 H 4955.93 -3.14029 1.89159 0
M  V30 52181 H 4955.58 -5.02207 0.282304 0
M  V30 52182 H 4955.28 -5.53933 1.96042 0
M  V30 52183 H 4956.8 -5.99709 1.1481 0
M  V30 52184 H 4958.22 -4.82614 3.09445 0
M  V30 52185 H 4956.61 -4.6008 3.85287 0
M  V30 52186 H 4957.68 -3.20334 3.64025 0
M  V30 52187 N 4959.03 -1.08026 -1.14753 0
M  V30 52188 C 4959.99 -0.710557 -2.17908 0
M  V30 52189 C 4960.99 0.252675 -1.58802 0
M  V30 52190 O 4962.18 0.0327303 -1.74169 0
M  V30 52191 C 4959.31 -0.0484401 -3.40866 0
M  V30 52192 H 4960.5 -1.62393 -2.52128 0
M  V30 52193 H 4958.06 -0.877641 -1.29334 0
M  V30 52194 H 4958.79 0.87685 -3.12221 0
M  V30 52195 H 4958.58 -0.741324 -3.85028 0
M  V30 52196 H 4960.07 0.195324 -4.17143 0
M  V30 52197 N 4960.5 1.31717 -0.865354 0
M  V30 52198 C 4961.74 1.98674 -0.480435 0
M  V30 52199 C 4962.11 1.66932 0.948562 0
M  V30 52200 O 4963.31 2.27064 1.43859 0
M  V30 52201 C 4961.58 3.4997 -0.724981 0
M  V30 52202 S 4963.14 4.36596 -0.439232 0
M  V30 52203 H 4959.96 0.687961 -0.17953 0
M  V30 52204 H 4962.56 1.60211 -1.12038 0
M  V30 52205 H 4961.26 3.70561 -1.76388 0
M  V30 52206 H 4960.79 3.93334 -0.0718556 0
M  V30 52207 H 4962.81 4.90795 0.730391 0
M  V30 52208 N 4961.98 0.624336 1.44706 0
M  V30 52209 C 4963.21 0.132799 2.06173 0
M  V30 52210 C 4963.62 -1.19508 1.46678 0
M  V30 52211 O 4962.96 -1.74252 0.581552 0
M  V30 52212 C 4963.02 -0.0635469 3.59444 0
M  V30 52213 C 4962.69 1.18511 4.41366 0
M  V30 52214 C 4963.69 2.10723 4.75281 0
M  V30 52215 C 4961.37 1.41863 4.81851 0
M  V30 52216 C 4963.36 3.24601 5.48555 0
M  V30 52217 C 4961.05 2.56039 5.54876 0
M  V30 52218 C 4962.05 3.47235 5.88147 0
M  V30 52219 O 4961.74 4.59422 6.59687 0
M  V30 52220 H 4961.47 0.073755 0.671964 0
M  V30 52221 H 4964.02 0.856855 1.86674 0
M  V30 52222 H 4962.25 -0.842676 3.77407 0
M  V30 52223 H 4963.94 -0.508783 4.02699 0
M  V30 52224 H 4964.71 1.93914 4.44548 0
M  V30 52225 H 4960.59 0.717716 4.55379 0
M  V30 52226 H 4964.13 3.95805 5.74442 0
M  V30 52227 H 4960.03 2.72794 5.85024 0
M  V30 52228 H 4960.8 4.58317 6.7815 0
M  V30 52229 N 4963.46 -1.53328 0.364476 0
M  V30 52230 C 4964.41 -2.27214 -0.497657 0
M  V30 52231 C 4965.4 -1.30149 -1.08432 0
M  V30 52232 O 4966.61 -1.47782 -1.02765 0
M  V30 52233 H 4962.98 -0.730335 -0.179206 0
M  V30 52234 H 4964.95 -2.98036 0.147287 0
M  V30 52235 C 4963.7 -3.07338 -1.62599 0
M  V30 52236 H 4963.03 -3.8187 -1.18386 0
M  V30 52237 H 4964.47 -3.62217 -2.20397 0
M  V30 52238 C 4962.92 -2.18111 -2.56767 0
M  V30 52239 O 4963.45 -1.79117 -3.59556 0
M  V30 52240 N 4961.66 -1.82767 -2.25931 0
M  V30 52241 H 4961.21 -2.14676 -1.4238 0
M  V30 52242 H 4961.17 -1.23352 -2.89191 0
M  V30 52243 N 4964.94 -0.0936148 -1.57322 0
M  V30 52244 C 4966.19 0.569314 -1.93916 0
M  V30 52245 C 4966.51 1.68813 -0.976068 0
M  V30 52246 O 4965.78 1.9588 -0.0278788 0
M  V30 52247 H 4964.36 0.213295 -0.715901 0
M  V30 52248 H 4967.02 -0.156599 -1.9427 0
M  V30 52249 H 4966.11 0.980473 -2.96299 0
M  V30 52250 N 4966.42 1.56568 0.180071 0
M  V30 52251 C 4967.64 1.85978 0.917975 0
M  V30 52252 C 4968.07 0.67895 1.75419 0
M  V30 52253 O 4967.42 -0.372106 1.7744 0
M  V30 52254 C 4967.47 3.13737 1.77768 0
M  V30 52255 O 4966.58 2.95345 2.87828 0
M  V30 52256 H 4965.92 0.61197 0.257661 0
M  V30 52257 H 4968.45 2.03799 0.180852 0
M  V30 52258 H 4968.46 3.44918 2.17935 0
M  V30 52259 H 4967.13 3.99297 1.16338 0
M  V30 52260 H 4965.71 2.75499 2.51307 0
M  V30 52261 N 4967.89 -0.448323 1.51089 0
M  V30 52262 C 4969.31 -1.02855 1.55813 0
M  V30 52263 C 4969.66 -1.92582 0.375057 0
M  V30 52264 O 4968.78 -2.10318 -0.50946 0
M  V30 52265 C 4969.38 -1.87213 2.82377 0
M  V30 52266 C 4967.94 -2.40304 2.89709 0
M  V30 52267 C 4967.08 -1.19229 2.50359 0
M  V30 52268 H 4970.03 -0.230019 1.57024 0
M  V30 52269 H 4970.05 -2.72543 2.65519 0
M  V30 52270 H 4969.57 -1.21881 3.68465 0
M  V30 52271 H 4967.67 -3.09122 2.08025 0
M  V30 52272 H 4967.78 -2.73853 3.93118 0
M  V30 52273 H 4966.14 -1.53421 2.03308 0
M  V30 52274 H 4966.93 -0.555248 3.3878 0
M  V30 52275 N 4969.37 -1.4105 -0.703043 0
M  V30 52276 C 4970.6 -1.43542 -1.49701 0
M  V30 52277 C 4971.02 -0.0402514 -1.88057 0
M  V30 52278 O 4970.38 0.954731 -1.54125 0
M  V30 52279 C 4970.43 -2.3434 -2.74075 0
M  V30 52280 O 4969.53 -1.79529 -3.71272 0
M  V30 52281 H 4968.87 -0.48747 -0.450854 0
M  V30 52282 H 4971.4 -1.85425 -0.864795 0
M  V30 52283 H 4971.41 -2.49958 -3.22467 0
M  V30 52284 H 4970.09 -3.35716 -2.45494 0
M  V30 52285 H 4968.67 -1.73321 -3.30173 0
M  V30 52286 N 4970.85 0.936546 -1.26754 0
M  V30 52287 C 4972.1 1.67994 -1.12349 0
M  V30 52288 C 4972.42 1.92138 0.332871 0
M  V30 52289 O 4971.69 1.52136 1.23415 0
M  V30 52290 H 4970.27 0.622594 -0.412777 0
M  V30 52291 H 4972.93 1.12503 -1.59151 0
M  V30 52292 H 4972.03 2.65179 -1.6458 0
M  V30 52293 N 4972.33 1.08633 1.14178 0
M  V30 52294 C 4973.57 0.818622 1.85544 0
M  V30 52295 C 4973.91 -0.654012 1.82856 0
M  V30 52296 O 4973.18 -1.48094 1.26088 0
M  V30 52297 C 4973.47 1.34408 3.34075 0
M  V30 52298 C 4973.32 2.88223 3.45323 0
M  V30 52299 C 4974.64 0.97122 4.2925 0
M  V30 52300 H 4971.76 0.298845 0.673692 0
M  V30 52301 H 4974.4 1.34634 1.34066 0
M  V30 52302 H 4972.55 0.895197 3.78046 0
M  V30 52303 H 4974.22 3.41499 3.10122 0
M  V30 52304 H 4972.46 3.25766 2.86459 0
M  V30 52305 H 4973.13 3.20063 4.49737 0
M  V30 52306 H 4975.61 1.35823 3.93308 0
M  V30 52307 H 4974.49 1.36605 5.3163 0
M  V30 52308 H 4974.75 -0.121504 4.41933 0
M  V30 52309 N 4973.81 -1.31256 0.872327 0
M  V30 52310 C 4975.04 -2.00502 0.498254 0
M  V30 52311 C 4975.44 -1.65635 -0.91442 0
M  V30 52312 O 4974.79 -0.882906 -1.61091 0
M  V30 52313 C 4974.85 -3.54818 0.578319 0
M  V30 52314 C 4974.51 -4.13165 1.95303 0
M  V30 52315 C 4975.51 -4.30096 2.92084 0
M  V30 52316 C 4973.2 -4.48838 2.25498 0
M  V30 52317 C 4975.19 -4.81894 4.17202 0
M  V30 52318 C 4972.88 -5.00337 3.50865 0
M  V30 52319 C 4973.87 -5.16815 4.46532 0
M  V30 52320 O 4973.56 -5.67207 5.69676 0
M  V30 52321 H 4973.29 -0.648049 0.192377 0
M  V30 52322 H 4975.85 -1.68406 1.17594 0
M  V30 52323 H 4974.08 -3.86384 -0.156302 0
M  V30 52324 H 4975.77 -4.05318 0.217335 0
M  V30 52325 H 4976.53 -4.02852 2.70065 0
M  V30 52326 H 4972.41 -4.35287 1.51811 0
M  V30 52327 H 4975.96 -4.94671 4.9188 0
M  V30 52328 H 4971.85 -5.27015 3.72727 0
M  V30 52329 H 4972.62 -5.85572 5.71881 0
M  V30 52330 N 4975.28 -0.632002 -1.44373 0
M  V30 52331 C 4976.22 0.11083 -2.28932 0
M  V30 52332 C 4977.23 0.808036 -1.41332 0
M  V30 52333 O 4978.42 0.669338 -1.65475 0
M  V30 52334 C 4975.52 1.17917 -3.17724 0
M  V30 52335 C 4974.69 0.564305 -4.33745 0
M  V30 52336 C 4973.75 1.52672 -5.03565 0
M  V30 52337 O 4972.78 1.04352 -5.59553 0
M  V30 52338 N 4973.98 2.86105 -5.05098 0
M  V30 52339 H 4976.74 -0.614861 -2.93325 0
M  V30 52340 H 4974.3 -0.473226 -1.5483 0
M  V30 52341 H 4976.3 1.82335 -3.61298 0
M  V30 52342 H 4974.87 1.80708 -2.55075 0
M  V30 52343 H 4974.09 -0.258512 -3.93351 0
M  V30 52344 H 4975.37 0.134176 -5.08623 0
M  V30 52345 H 4974.77 3.27943 -4.60945 0
M  V30 52346 H 4973.33 3.45881 -5.52457 0
M  V30 52347 N 4976.76 1.53132 -0.372602 0
M  V30 52348 C 4978 2.03267 0.214872 0
M  V30 52349 C 4978.37 1.25367 1.4542 0
M  V30 52350 O 4979.57 1.65543 2.11775 0
M  V30 52351 C 4977.84 3.53987 0.492773 0
M  V30 52352 S 4979.4 4.2598 1.05292 0
M  V30 52353 H 4976.22 0.708291 0.0620041 0
M  V30 52354 H 4978.82 1.88538 -0.517091 0
M  V30 52355 H 4977.52 4.0828 -0.416585 0
M  V30 52356 H 4977.05 3.72891 1.25362 0
M  V30 52357 H 4979.07 4.37739 2.33664 0
M  V30 52358 N 4978.24 0.101957 1.5727 0
M  V30 52359 C 4979.2 -0.840054 2.1325 0
M  V30 52360 C 4980.2 -1.20621 1.06335 0
M  V30 52361 O 4981.39 -1.13452 1.3219 0
M  V30 52362 C 4978.53 -2.13363 2.65874 0
M  V30 52363 H 4979.72 -0.35384 2.97805 0
M  V30 52364 H 4977.27 -0.147113 1.55606 0
M  V30 52365 H 4978.01 -2.66454 1.84859 0
M  V30 52366 H 4977.79 -1.88073 3.44051 0
M  V30 52367 H 4979.28 -2.80737 3.09154 0
M  V30 52368 N 4979.72 -1.56661 -0.171765 0
M  V30 52369 C 4980.65 -1.91478 -1.24142 0
M  V30 52370 C 4981.63 -0.777535 -1.42805 0
M  V30 52371 O 4982.81 -1.0308 -1.57819 0
M  V30 52372 C 4979.94 -2.16532 -2.60445 0
M  V30 52373 C 4978.99 -3.39218 -2.58521 0
M  V30 52374 S 4979.82 -4.93602 -2.07648 0
M  V30 52375 C 4980.98 -5.21749 -3.45729 0
M  V30 52376 H 4981.21 -2.81906 -0.944247 0
M  V30 52377 H 4978.74 -1.49744 -0.376312 0
M  V30 52378 H 4980.7 -2.31647 -3.38895 0
M  V30 52379 H 4979.36 -1.26812 -2.87363 0
M  V30 52380 H 4978.55 -3.53948 -3.58799 0
M  V30 52381 H 4978.16 -3.23217 -1.88167 0
M  V30 52382 H 4980.45 -5.137 -4.41723 0
M  V30 52383 H 4981.39 -6.23373 -3.35875 0
M  V30 52384 H 4981.8 -4.49319 -3.4172 0
M  V30 52385 N 4981.2 0.440304 -1.51324 0
M  V30 52386 C 4982.61 0.776551 -1.39434 0
M  V30 52387 C 4982.81 1.95837 -0.474365 0
M  V30 52388 O 4981.87 2.52399 0.0715804 0
M  V30 52389 C 4983.18 1.05971 -2.81408 0
M  V30 52390 C 4984.73 1.16432 -2.90538 0
M  V30 52391 C 4985.2 1.48043 -4.33414 0
M  V30 52392 N 4986.7 1.54973 -4.36506 0
M  V30 52393 C 4987.43 1.80998 -5.44084 0
M  V30 52394 N 4986.93 2.04835 -6.61827 0
M  V30 52395 N 4988.72 1.82755 -5.31561 0
M  V30 52396 H 4980.87 -0.33808 -2.09692 0
M  V30 52397 H 4983.13 -0.0888404 -0.943828 0
M  V30 52398 H 4982.84 0.26405 -3.50707 0
M  V30 52399 H 4982.71 1.98811 -3.20553 0
M  V30 52400 H 4985.1 1.95061 -2.21439 0
M  V30 52401 H 4985.18 0.214999 -2.54895 0
M  V30 52402 H 4984.83 0.699428 -5.03061 0
M  V30 52403 H 4984.76 2.44176 -4.66568 0
M  V30 52404 H 4987.25 1.38467 -3.51618 0
M  V30 52405 H 4987.56 2.24054 -7.39608 0
M  V30 52406 H 4985.9 2.02163 -6.64947 0
M  V30 52407 H 4989.1 1.6365 -4.38562 0
M  V30 52408 H 4989.27 2.027 -6.15481 0
M  V30 52409 N 4982.68 1.41421 0.695553 0
M  V30 52410 C 4984.09 1.3634 1.27548 0
M  V30 52411 C 4984.44 0.0465026 1.96145 0
M  V30 52412 O 4983.56 -0.855234 1.98783 0
M  V30 52413 C 4984.16 2.46949 2.31952 0
M  V30 52414 C 4982.72 2.45266 2.8552 0
M  V30 52415 C 4981.86 2.26796 1.59558 0
M  V30 52416 H 4984.81 1.50936 0.490309 0
M  V30 52417 H 4984.84 2.16008 3.13242 0
M  V30 52418 H 4984.35 3.42781 1.81996 0
M  V30 52419 H 4982.45 1.53191 3.39652 0
M  V30 52420 H 4982.56 3.41577 3.35949 0
M  V30 52421 H 4980.93 1.74674 1.85368 0
M  V30 52422 H 4981.71 3.24655 1.11599 0
M  V30 52423 N 4984.15 -0.929811 1.27249 0
M  V30 52424 C 4985.1 -2.05147 1.09624 0
M  V30 52425 C 4986.1 -1.69388 0.0199213 0
M  V30 52426 O 4987.3 -1.79123 0.177479 0
M  V30 52427 H 4983.68 -0.671897 0.337725 0
M  V30 52428 H 4985.65 -2.17161 2.04655 0
M  V30 52429 C 4984.4 -3.39338 0.757971 0
M  V30 52430 H 4983.72 -3.67337 1.57808 0
M  V30 52431 H 4985.16 -4.18601 0.674505 0
M  V30 52432 C 4983.62 -3.32584 -0.537541 0
M  V30 52433 O 4984.15 -3.69639 -1.57258 0
M  V30 52434 N 4982.35 -2.85682 -0.532377 0
M  V30 52435 H 4981.9 -2.55724 0.310323 0
M  V30 52436 H 4981.86 -2.81546 -1.39926 0
M  V30 52437 N 4985.63 -1.09237 -1.13601 0
M  V30 52438 C 4986.58 -0.699477 -2.17005 0
M  V30 52439 C 4987.57 0.285183 -1.58353 0
M  V30 52440 O 4988.76 0.0958579 -1.7674 0
M  V30 52441 C 4985.89 -0.119501 -3.43092 0
M  V30 52442 C 4984.97 -1.13046 -4.08756 0
M  V30 52443 N 4985.36 -2.31689 -4.49615 0
M  V30 52444 C 4983.66 -0.968152 -4.35365 0
M  V30 52445 C 4984.36 -2.95982 -5.00769 0
M  V30 52446 N 4983.34 -2.23551 -4.95506 0
M  V30 52447 H 4987.14 -1.60281 -2.46348 0
M  V30 52448 H 4984.65 -0.968303 -1.30375 0
M  V30 52449 H 4986.65 0.179976 -4.16511 0
M  V30 52450 H 4985.31 0.778705 -3.15224 0
M  V30 52451 H 4986.32 -2.69293 -4.42382 0
M  V30 52452 H 4983 -0.124465 -4.17314 0
M  V30 52453 H 4984.39 -3.96832 -5.42194 0
M  V30 52454 N 4987.11 1.30792 -0.879276 0
M  V30 52455 C 4988.34 2.00526 -0.509619 0
M  V30 52456 C 4988.75 1.65947 0.900392 0
M  V30 52457 O 4988.11 0.893581 1.59127 0
M  V30 52458 C 4988.16 3.55273 -0.668068 0
M  V30 52459 O 4987.88 3.88618 -2.02256 0
M  V30 52460 C 4989.38 4.42279 -0.300649 0
M  V30 52461 H 4986.6 0.641254 -0.197571 0
M  V30 52462 H 4989.15 1.66809 -1.18301 0
M  V30 52463 H 4987.3 3.87377 -0.0421205 0
M  V30 52464 H 4987.72 4.83326 -2.03705 0
M  V30 52465 H 4989.19 5.5006 -0.462435 0
M  V30 52466 H 4989.67 4.32558 0.760908 0
M  V30 52467 H 4990.27 4.1561 -0.902683 0
M  V30 52468 N 4988.59 0.639649 1.44036 0
M  V30 52469 C 4989.84 0.144956 2.01178 0
M  V30 52470 C 4990.15 -1.24366 1.50971 0
M  V30 52471 O 4991.36 -1.83284 2.00298 0
M  V30 52472 C 4989.81 0.20837 3.59296 0
M  V30 52473 C 4989.42 1.59884 4.18499 0
M  V30 52474 C 4991.16 -0.229419 4.2388 0
M  V30 52475 C 4989.07 1.61691 5.68867 0
M  V30 52476 H 4988 0.0504269 0.752312 0
M  V30 52477 H 4990.65 0.799697 1.65158 0
M  V30 52478 H 4989.03 -0.513629 3.92655 0
M  V30 52479 H 4990.21 2.3451 3.96663 0
M  V30 52480 H 4988.52 1.98144 3.66235 0
M  V30 52481 H 4991.12 -0.235571 5.34181 0
M  V30 52482 H 4991.46 -1.25834 3.96827 0
M  V30 52483 H 4992 0.440372 3.95355 0
M  V30 52484 H 4988.73 2.62448 6.00668 0
M  V30 52485 H 4988.25 0.913698 5.928 0
M  V30 52486 H 4989.93 1.35461 6.3266 0
M  V30 52487 N 4990.07 -1.52932 0.380717 0
M  V30 52488 C 4991.01 -2.26199 -0.458562 0
M  V30 52489 C 4991.98 -1.27466 -1.06497 0
M  V30 52490 O 4993.17 -1.56278 -1.09462 0
M  V30 52491 C 4990.31 -3.06576 -1.58445 0
M  V30 52492 C 4989.42 -4.20225 -1.00174 0
M  V30 52493 C 4988.56 -4.88015 -2.09798 0
M  V30 52494 C 4987.59 -5.9367 -1.49071 0
M  V30 52495 N 4986.73 -6.5509 -2.5259 0
M  V30 52496 H 4991.57 -2.97499 0.1727 0
M  V30 52497 H 4989.11 -1.4678 0.0969942 0
M  V30 52498 H 4991.07 -3.51463 -2.24788 0
M  V30 52499 H 4989.7 -2.37502 -2.18615 0
M  V30 52500 H 4988.75 -3.79715 -0.228158 0
M  V30 52501 H 4990.06 -4.96104 -0.517889 0
M  V30 52502 H 4989.21 -5.36161 -2.83929 0
M  V30 52503 H 4987.95 -4.11641 -2.6154 0
M  V30 52504 H 4986.96 -5.4487 -0.734608 0
M  V30 52505 H 4988.18 -6.71972 -0.981346 0
M  V30 52506 H 4986.13 -5.81561 -3.03517 0
M  V30 52507 H 4986.05 -7.26555 -2.08935 0
M  V30 52508 H 4987.31 -7.07883 -3.26377 0
M  V30 52509 N 4991.54 -0.110296 -1.57214 0
M  V30 52510 C 4992.79 0.548715 -1.94508 0
M  V30 52511 C 4993.11 1.67768 -0.993918 0
M  V30 52512 O 4992.38 1.9584 -0.0486529 0
M  V30 52513 H 4990.96 0.20569 -0.718123 0
M  V30 52514 H 4993.62 -0.177195 -1.94093 0
M  V30 52515 H 4992.72 0.948991 -2.97322 0
M  V30 52516 N 4993.02 1.5675 0.163455 0
M  V30 52517 C 4994.25 1.86942 0.898198 0
M  V30 52518 C 4994.67 0.697517 1.74689 0
M  V30 52519 O 4994.03 -0.353265 1.77825 0
M  V30 52520 C 4994.08 3.15605 1.7443 0
M  V30 52521 O 4993.18 2.98381 2.84679 0
M  V30 52522 H 4992.52 0.614668 0.251156 0
M  V30 52523 H 4995.05 2.03979 0.159226 0
M  V30 52524 H 4995.06 3.4721 2.14265 0
M  V30 52525 H 4993.74 4.00509 1.12096 0
M  V30 52526 H 4992.31 2.78148 2.4837 0
M  V30 52527 N 4994.5 -0.432272 1.51556 0
M  V30 52528 C 4995.75 -1.18128 1.64475 0
M  V30 52529 C 4996.07 -1.91075 0.363416 0
M  V30 52530 O 4995.33 -1.84494 -0.652725 0
M  V30 52531 C 4995.63 -2.21897 2.80172 0
M  V30 52532 C 4995.29 -1.65926 4.1926 0
M  V30 52533 C 4993.96 -1.50385 4.57097 0
M  V30 52534 C 4996.31 -1.24825 5.06032 0
M  V30 52535 C 4993.64 -0.922239 5.79406 0
M  V30 52536 C 4995.99 -0.680909 6.28925 0
M  V30 52537 C 4994.65 -0.512439 6.6553 0
M  V30 52538 H 4993.92 -0.432261 0.601856 0
M  V30 52539 H 4996.57 -0.471636 1.85601 0
M  V30 52540 H 4994.87 -2.98919 2.53288 0
M  V30 52541 H 4996.57 -2.79681 2.87367 0
M  V30 52542 H 4993.16 -1.79 3.89432 0
M  V30 52543 H 4997.35 -1.3565 4.77402 0
M  V30 52544 H 4992.6 -0.77952 6.0641 0
M  V30 52545 H 4996.78 -0.353936 6.955 0
M  V30 52546 H 4994.4 -0.0596412 7.60177 0
M  V30 52547 N 4995.98 -1.41788 -0.688044 0
M  V30 52548 C 4996.91 -1.47006 -1.81415 0
M  V30 52549 C 4997.89 -0.32794 -1.66909 0
M  V30 52550 O 4999.07 -0.540428 -1.86529 0
M  V30 52551 C 4996.2 -1.35887 -3.19612 0
M  V30 52552 C 4995.16 -2.47988 -3.48835 0
M  V30 52553 C 4994.48 -2.21932 -4.86467 0
M  V30 52554 C 4995.78 -3.90321 -3.47055 0
M  V30 52555 H 4997.48 -2.41253 -1.77305 0
M  V30 52556 H 4995.02 -1.16119 -0.851611 0
M  V30 52557 H 4996.98 -1.38148 -3.98112 0
M  V30 52558 H 4995.7 -0.381274 -3.24367 0
M  V30 52559 H 4994.36 -2.45022 -2.7269 0
M  V30 52560 H 4994.01 -1.22497 -4.87856 0
M  V30 52561 H 4993.71 -2.97055 -5.06983 0
M  V30 52562 H 4995.23 -2.25921 -5.67267 0
M  V30 52563 H 4996.65 -3.94962 -4.15546 0
M  V30 52564 H 4995.04 -4.65188 -3.79104 0
M  V30 52565 H 4996.11 -4.17936 -2.45881 0
M  V30 52566 N 4997.46 0.92305 -1.2774 0
M  V30 52567 C 4998.4 2.04563 -1.1071 0
M  V30 52568 C 4999.4 1.69375 -0.0289041 0
M  V30 52569 O 5000.6 1.79026 -0.186976 0
M  V30 52570 H 4996.98 0.670097 -0.341283 0
M  V30 52571 H 4998.95 2.16072 -2.05804 0
M  V30 52572 C 4997.7 3.38931 -0.775956 0
M  V30 52573 H 4997.02 3.66495 -1.59754 0
M  V30 52574 H 4998.46 4.18237 -0.696695 0
M  V30 52575 C 4996.92 3.32864 0.519895 0
M  V30 52576 O 4997.45 3.70468 1.55295 0
M  V30 52577 N 4995.66 2.8596 0.517219 0
M  V30 52578 H 4995.2 2.55556 -0.32388 0
M  V30 52579 H 4995.16 2.82284 1.38431 0
M  V30 52580 N 4998.93 1.09838 1.1302 0
M  V30 52581 C 5000.18 0.835362 1.84028 0
M  V30 52582 C 5000.5 -0.640879 1.84168 0
M  V30 52583 O 4999.77 -1.46512 1.30043 0
M  V30 52584 H 4998.35 0.306042 0.68143 0
M  V30 52585 H 5001.02 1.38738 1.36886 0
M  V30 52586 H 5000.11 1.19268 2.88412 0
M  V30 52587 N 5000.41 -1.30324 0.8862 0
M  V30 52588 C 5001.64 -2.00788 0.519496 0
M  V30 52589 C 5002.06 -1.65982 -0.884955 0
M  V30 52590 O 5001.42 -0.877099 -1.58672 0
M  V30 52591 C 5001.47 -3.53683 0.702882 0
M  V30 52592 O 5000.57 -4.11637 -0.250683 0
M  V30 52593 H 4999.91 -0.631703 0.204566 0
M  V30 52594 H 5002.44 -1.66141 1.19408 0
M  V30 52595 H 5002.45 -4.03529 0.602349 0
M  V30 52596 H 5001.13 -3.78354 1.72687 0
M  V30 52597 H 4999.71 -3.72756 -0.103742 0
M  V30 52598 N 5001.89 -0.647279 -1.43694 0
M  V30 52599 C 5003.13 -0.161782 -2.03759 0
M  V30 52600 C 5003.49 1.19945 -1.49924 0
M  V30 52601 O 5004.7 1.77801 -2.01594 0
M  V30 52602 C 5002.97 -0.165176 -3.57018 0
M  V30 52603 S 5004.53 0.253343 -4.38068 0
M  V30 52604 H 5001.34 -0.0690234 -0.707642 0
M  V30 52605 H 5003.95 -0.854285 -1.75847 0
M  V30 52606 H 5002.65 -1.15872 -3.93703 0
M  V30 52607 H 5002.18 0.548057 -3.89564 0
M  V30 52608 H 5004.2 1.49369 -4.73184 0
M  V30 52609 N 5003.37 1.52728 -0.388822 0
M  V30 52610 C 5004.62 2.01175 0.193137 0
M  V30 52611 C 5004.94 1.27711 1.4736 0
M  V30 52612 O 5004.21 0.397033 1.91834 0
M  V30 52613 H 5002.79 0.74329 0.0743609 0
M  V30 52614 H 5005.45 1.87824 -0.520402 0
M  V30 52615 H 5004.55 3.09478 0.403695 0
M  V30 52616 N 5004.85 0.118632 1.57153 0
M  V30 52617 C 5006.07 -0.550512 1.9996 0
M  V30 52618 C 5006.5 -1.59454 0.997793 0
M  V30 52619 O 5005.85 -1.81274 -0.0305632 0
M  V30 52620 C 5005.9 -1.15367 3.41647 0
M  V30 52621 O 5005.01 -2.2692 3.44356 0
M  V30 52622 H 5004.35 -0.137544 0.649598 0
M  V30 52623 H 5006.88 0.206997 2.0355 0
M  V30 52624 H 5006.89 -1.48928 3.79848 0
M  V30 52625 H 5005.56 -0.388942 4.14077 0
M  V30 52626 H 5004.14 -1.948 3.17974 0
M  V30 52627 N 5006.32 -1.56835 -0.15514 0
M  V30 52628 C 5007.57 -1.83172 -0.870402 0
M  V30 52629 C 5007.9 -0.698993 -1.81184 0
M  V30 52630 O 5007.18 0.297967 -1.92204 0
M  V30 52631 C 5007.46 -3.19971 -1.65199 0
M  V30 52632 C 5007.31 -4.43794 -0.732588 0
M  V30 52633 C 5008.63 -3.53894 -2.61623 0
M  V30 52634 H 5005.75 -0.666299 -0.314983 0
M  V30 52635 H 5008.39 -1.89513 -0.135921 0
M  V30 52636 H 5006.54 -3.14695 -2.27814 0
M  V30 52637 H 5008.22 -4.61149 -0.118073 0
M  V30 52638 H 5006.46 -4.3378 -0.0416381 0
M  V30 52639 H 5007.13 -5.361 -1.31533 0
M  V30 52640 H 5009.61 -3.59727 -2.0913 0
M  V30 52641 H 5008.48 -4.50659 -3.13366 0
M  V30 52642 H 5008.74 -2.7943 -3.42595 0
M  V30 52643 N 5007.8 0.424229 -1.51783 0
M  V30 52644 C 5009.05 1.17023 -1.64773 0
M  V30 52645 C 5009.37 1.91407 -0.37259 0
M  V30 52646 O 5008.64 1.86094 0.612043 0
M  V30 52647 H 5007.22 0.43497 -0.607297 0
M  V30 52648 H 5009.88 0.485102 -1.88766 0
M  V30 52649 H 5008.98 1.89262 -2.48166 0
M  V30 52650 N 5009.28 1.4215 0.680515 0
M  V30 52651 C 5010.53 1.42315 1.44058 0
M  V30 52652 C 5010.86 0.0375564 1.94464 0
M  V30 52653 O 5010.11 -0.953124 1.70921 0
M  V30 52654 C 5010.41 2.38954 2.65774 0
M  V30 52655 C 5010.08 3.85463 2.33942 0
M  V30 52656 C 5008.74 4.25372 2.24972 0
M  V30 52657 C 5011.09 4.77902 2.07987 0
M  V30 52658 C 5008.42 5.55708 1.88164 0
M  V30 52659 C 5010.77 6.08574 1.72685 0
M  V30 52660 C 5009.43 6.47488 1.62221 0
M  V30 52661 H 5008.7 0.520767 0.527146 0
M  V30 52662 H 5011.35 1.75052 0.776463 0
M  V30 52663 H 5009.66 1.99523 3.37191 0
M  V30 52664 H 5011.35 2.36348 3.23946 0
M  V30 52665 H 5007.94 3.53863 2.41824 0
M  V30 52666 H 5012.13 4.47862 2.13854 0
M  V30 52667 H 5007.38 5.84724 1.78627 0
M  V30 52668 H 5011.56 6.79693 1.51626 0
M  V30 52669 H 5009.18 7.48392 1.33469 0
M  V30 52670 N 5010.76 -0.916262 1.28228 0
M  V30 52671 C 5011.71 -2.03973 1.11793 0
M  V30 52672 C 5012.7 -1.69358 0.037886 0
M  V30 52673 O 5013.91 -1.78925 0.196468 0
M  V30 52674 H 5010.28 -0.668277 0.344832 0
M  V30 52675 H 5012.25 -2.14978 2.06947 0
M  V30 52676 C 5011 -3.38515 0.793919 0
M  V30 52677 H 5010.32 -3.65643 1.61695 0
M  V30 52678 H 5011.76 -4.17862 0.718866 0
M  V30 52679 C 5010.22 -3.33135 -0.502235 0
M  V30 52680 O 5010.75 -3.71286 -1.53328 0
M  V30 52681 N 5008.96 -2.8623 -0.502047 0
M  V30 52682 H 5008.51 -2.5538 0.337428 0
M  V30 52683 H 5008.46 -2.83014 -1.36932 0
M  V30 52684 N 5012.24 -1.10435 -1.12436 0
M  V30 52685 C 5013.49 -0.841604 -1.83303 0
M  V30 52686 C 5013.8 0.634896 -1.85009 0
M  V30 52687 O 5015.01 1.01354 -2.51872 0
M  V30 52688 C 5013.46 -1.45577 -3.29144 0
M  V30 52689 C 5013.07 -2.96556 -3.35796 0
M  V30 52690 C 5014.81 -1.27241 -4.04982 0
M  V30 52691 C 5012.72 -3.51007 -4.75971 0
M  V30 52692 H 5011.65 -0.31118 -0.686792 0
M  V30 52693 H 5014.3 -1.32834 -1.266 0
M  V30 52694 H 5012.68 -0.89671 -3.85714 0
M  V30 52695 H 5013.86 -3.58776 -2.89165 0
M  V30 52696 H 5012.17 -3.14046 -2.73431 0
M  V30 52697 H 5014.77 -1.65366 -5.08486 0
M  V30 52698 H 5015.11 -0.21398 -4.1575 0
M  V30 52699 H 5015.65 -1.79954 -3.5477 0
M  V30 52700 H 5012.38 -4.56516 -4.70397 0
M  V30 52701 H 5011.9 -2.93553 -5.23055 0
M  V30 52702 H 5013.58 -3.48828 -5.44911 0
M  V30 52703 N 5013.72 1.29852 -0.893099 0
M  V30 52704 C 5014.99 1.90692 -0.435403 0
M  V30 52705 C 5015.37 1.81114 1.08447 0
M  V30 52706 O 5014.72 1.23359 1.9234 0
M  V30 52707 C 5014.93 3.3603 -0.94259 0
M  V30 52708 C 5016.28 4.13079 -0.982371 0
M  V30 52709 O 5017.3 3.44907 -0.889807 0
M  V30 52710 O 5016.16 5.34892 -1.12041 0
M  V30 52711 H 5013.26 0.815974 -0.134596 0
M  V30 52712 H 5015.8 1.38363 -0.982532 0
M  V30 52713 H 5014.57 3.37125 -1.98652 0
M  V30 52714 H 5014.2 3.95827 -0.375091 0
M  V30 52715 N 5015.19 0.65489 1.43349 0
M  V30 52716 C 5016.42 0.176501 2.05845 0
M  V30 52717 C 5016.83 -1.1637 1.4918 0
M  V30 52718 O 5016.17 -1.72979 0.618383 0
M  V30 52719 C 5016.24 0.0127108 3.59498 0
M  V30 52720 C 5015.9 1.27847 4.38753 0
M  V30 52721 C 5016.9 2.20757 4.70704 0
M  V30 52722 C 5014.58 1.52052 4.78733 0
M  V30 52723 C 5016.58 3.36164 5.41547 0
M  V30 52724 C 5014.26 2.67751 5.4932 0
M  V30 52725 C 5015.26 3.59633 5.80649 0
M  V30 52726 O 5014.95 4.73312 6.49793 0
M  V30 52727 H 5014.68 0.0879917 0.670249 0
M  V30 52728 H 5017.24 0.896258 1.84814 0
M  V30 52729 H 5015.47 -0.762433 3.79109 0
M  V30 52730 H 5017.15 -0.42325 4.03687 0
M  V30 52731 H 5017.92 2.033 4.40334 0
M  V30 52732 H 5013.8 0.814147 4.53754 0
M  V30 52733 H 5017.34 4.07901 5.65917 0
M  V30 52734 H 5013.24 2.85142 5.79106 0
M  V30 52735 H 5014.01 4.72599 6.68276 0
M  V30 52736 N 5016.67 -1.5252 0.396917 0
M  V30 52737 C 5017.95 -1.94112 -0.240774 0
M  V30 52738 C 5018.33 -1.33294 -1.63695 0
M  V30 52739 O 5017.68 -0.503979 -2.22873 0
M  V30 52740 C 5017.89 -3.48034 -0.259444 0
M  V30 52741 C 5019.23 -4.21824 -0.484717 0
M  V30 52742 O 5020.26 -3.5458 -0.339328 0
M  V30 52743 O 5019.12 -5.41045 -0.770222 0
M  V30 52744 H 5016.21 -0.812978 -0.151643 0
M  V30 52745 H 5018.76 -1.6357 0.451976 0
M  V30 52746 H 5017.53 -3.84652 0.718214 0
M  V30 52747 H 5017.15 -3.84902 -0.996801 0
M  V30 52748 N 5018.15 -0.126964 -1.57088 0
M  V30 52749 C 5019.39 0.53209 -1.97353 0
M  V30 52750 C 5019.75 1.63338 -1.00919 0
M  V30 52751 O 5020.95 2.35189 -1.30152 0
M  V30 52752 C 5019.23 1.04373 -3.4182 0
M  V30 52753 S 5020.78 1.71019 -4.04101 0
M  V30 52754 H 5017.6 0.1727 -0.689707 0
M  V30 52755 H 5020.2 -0.213933 -1.94326 0
M  V30 52756 H 5018.91 0.231145 -4.09749 0
M  V30 52757 H 5018.44 1.82484 -3.48516 0
M  V30 52758 H 5020.45 2.99642 -3.95511 0
M  V30 52759 N 5019.63 1.56915 0.14682 0
M  V30 52760 C 5020.87 1.83631 0.860676 0
M  V30 52761 C 5021.21 0.708592 1.80811 0
M  V30 52762 O 5020.48 -0.28777 1.92359 0
M  V30 52763 C 5020.76 3.20842 1.635 0
M  V30 52764 C 5020.62 4.44176 0.709043 0
M  V30 52765 C 5021.94 3.55277 2.59743 0
M  V30 52766 H 5019.06 0.66796 0.311445 0
M  V30 52767 H 5021.7 1.89583 0.125869 0
M  V30 52768 H 5019.85 3.15899 2.26142 0
M  V30 52769 H 5021.52 4.61205 0.0936159 0
M  V30 52770 H 5019.76 4.33796 0.0186331 0
M  V30 52771 H 5020.43 5.3679 1.28688 0
M  V30 52772 H 5022.91 3.60831 2.07219 0
M  V30 52773 H 5021.79 4.52314 3.10971 0
M  V30 52774 H 5022.05 2.81243 3.41108 0
M  V30 52775 N 5021.11 -0.416173 1.52006 0
M  V30 52776 C 5022.33 -1.19023 1.69848 0
M  V30 52777 C 5022.76 -1.83707 0.404168 0
M  V30 52778 O 5022.11 -1.69714 -0.637727 0
M  V30 52779 C 5022.16 -2.23429 2.8304 0
M  V30 52780 O 5021.27 -3.29411 2.48118 0
M  V30 52781 H 5020.61 -0.347765 0.565646 0
M  V30 52782 H 5023.14 -0.488802 1.98675 0
M  V30 52783 H 5023.15 -2.67873 3.07746 0
M  V30 52784 H 5021.82 -1.75732 3.7695 0
M  V30 52785 H 5020.4 -2.90295 2.34058 0
M  V30 52786 N 5022.58 -1.42509 -0.672966 0
M  V30 52787 C 5023.83 -1.43077 -1.43301 0
M  V30 52788 C 5024.16 -0.0478687 -1.94441 0
M  V30 52789 O 5023.41 0.944046 -1.71424 0
M  V30 52790 C 5023.71 -2.4036 -2.64503 0
M  V30 52791 C 5023.38 -3.86698 -2.31895 0
M  V30 52792 C 5022.04 -4.26559 -2.22713 0
M  V30 52793 C 5024.39 -4.78999 -2.0545 0
M  V30 52794 C 5021.72 -5.56698 -1.85215 0
M  V30 52795 C 5024.07 -6.09481 -1.69455 0
M  V30 52796 C 5022.74 -6.48339 -1.58785 0
M  V30 52797 H 5022.01 -0.523555 -0.524377 0
M  V30 52798 H 5024.65 -1.75462 -0.767168 0
M  V30 52799 H 5022.96 -2.01309 -3.36128 0
M  V30 52800 H 5024.66 -2.38062 -3.22688 0
M  V30 52801 H 5021.25 -3.55141 -2.39944 0
M  V30 52802 H 5025.43 -4.4899 -2.11476 0
M  V30 52803 H 5020.69 -5.85663 -1.75524 0
M  V30 52804 H 5024.86 -6.80488 -1.48019 0
M  V30 52805 H 5022.49 -7.49089 -1.29498 0
M  V30 52806 N 5024.06 0.909449 -1.28712 0
M  V30 52807 C 5025.3 1.6734 -1.17374 0
M  V30 52808 C 5025.67 1.90059 0.272352 0
M  V30 52809 O 5026.87 2.63946 0.508524 0
M  V30 52810 C 5025.14 2.99212 -1.95466 0
M  V30 52811 S 5026.7 3.90288 -2.00551 0
M  V30 52812 H 5023.51 0.574646 -0.418692 0
M  V30 52813 H 5026.12 1.08138 -1.62869 0
M  V30 52814 H 5024.82 2.80382 -2.9969 0
M  V30 52815 H 5024.35 3.63459 -1.50537 0
M  V30 52816 H 5026.37 4.83507 -1.11513 0
M  V30 52817 N 5025.54 1.1103 1.11848 0
M  V30 52818 C 5026.77 0.877609 1.87034 0
M  V30 52819 C 5027.18 -0.575862 1.80223 0
M  V30 52820 O 5026.52 -1.40912 1.17853 0
M  V30 52821 C 5026.58 1.2554 3.36868 0
M  V30 52822 C 5026.25 2.71717 3.67449 0
M  V30 52823 C 5027.24 3.69944 3.65291 0
M  V30 52824 C 5024.93 3.08257 3.96589 0
M  V30 52825 C 5026.92 5.02731 3.91842 0
M  V30 52826 C 5024.61 4.4123 4.22799 0
M  V30 52827 C 5025.61 5.38277 4.20413 0
M  V30 52828 O 5025.3 6.68855 4.45969 0
M  V30 52829 H 5025.03 0.314395 0.598441 0
M  V30 52830 H 5027.58 1.4802 1.42406 0
M  V30 52831 H 5025.81 0.595942 3.8208 0
M  V30 52832 H 5027.5 0.999203 3.93409 0
M  V30 52833 H 5028.27 3.43059 3.42834 0
M  V30 52834 H 5024.15 2.3334 3.97585 0
M  V30 52835 H 5027.69 5.7847 3.89895 0
M  V30 52836 H 5023.59 4.67851 4.44732 0
M  V30 52837 H 5024.35 6.74579 4.63557 0
M  V30 52838 N 5027.02 -1.29376 0.899973 0
M  V30 52839 C 5027.95 -2.2591 0.322465 0
M  V30 52840 C 5028.93 -1.52449 -0.565513 0
M  V30 52841 O 5030.11 -1.81406 -0.51226 0
M  V30 52842 C 5027.24 -3.34362 -0.540338 0
M  V30 52843 C 5026.29 -4.25578 0.280361 0
M  V30 52844 S 5027.12 -5.0852 1.67831 0
M  V30 52845 C 5028.28 -6.20473 0.822442 0
M  V30 52846 H 5028.51 -2.74546 1.14069 0
M  V30 52847 H 5026.04 -1.37603 0.700334 0
M  V30 52848 H 5028 -3.97307 -1.03236 0
M  V30 52849 H 5026.66 -2.84421 -1.33281 0
M  V30 52850 H 5025.85 -5.02575 -0.378738 0
M  V30 52851 H 5025.46 -3.67285 0.705534 0
M  V30 52852 H 5027.75 -6.77484 0.045952 0
M  V30 52853 H 5028.69 -6.906 1.56451 0
M  V30 52854 H 5029.1 -5.63242 0.376708 0
M  V30 52855 N 5028.5 -0.662483 -1.43 0
M  V30 52856 C 5029.45 0.0459641 -2.27954 0
M  V30 52857 C 5030.43 0.785703 -1.40412 0
M  V30 52858 O 5031.62 0.666644 -1.63966 0
M  V30 52859 C 5028.75 1.00521 -3.28254 0
M  V30 52860 C 5027.84 0.263455 -4.23281 0
M  V30 52861 N 5028.23 -0.725031 -5.00577 0
M  V30 52862 C 5026.53 0.503622 -4.43147 0
M  V30 52863 C 5027.23 -1.16614 -5.69891 0
M  V30 52864 N 5026.2 -0.498535 -5.41309 0
M  V30 52865 H 5030.01 -0.712414 -2.85135 0
M  V30 52866 H 5027.52 -0.490524 -1.54815 0
M  V30 52867 H 5029.52 1.52761 -3.87904 0
M  V30 52868 H 5028.18 1.76354 -2.72634 0
M  V30 52869 H 5029.19 -1.10411 -5.05994 0
M  V30 52870 H 5025.86 1.24241 -3.98585 0
M  V30 52871 H 5027.25 -1.98457 -6.41923 0
M  V30 52872 N 5029.97 1.52307 -0.404999 0
M  V30 52873 C 5030.92 2.23718 0.439785 0
M  V30 52874 C 5031.91 1.24695 1.01685 0
M  V30 52875 O 5033.1 1.49954 0.940357 0
M  V30 52876 C 5030.23 3.05903 1.55814 0
M  V30 52877 C 5029.32 4.12334 0.992043 0
M  V30 52878 N 5029.71 5.05571 0.152247 0
M  V30 52879 C 5028 4.27744 1.26297 0
M  V30 52880 C 5028.71 5.81474 -0.162246 0
M  V30 52881 N 5027.68 5.41769 0.44582 0
M  V30 52882 H 5031.48 2.93162 -0.208187 0
M  V30 52883 H 5029 1.60968 -0.215187 0
M  V30 52884 H 5030.99 3.55612 2.1759 0
M  V30 52885 H 5029.65 2.37998 2.20877 0
M  V30 52886 H 5030.67 5.17467 -0.211738 0
M  V30 52887 H 5027.34 3.71069 1.91349 0
M  V30 52888 H 5028.73 6.66582 -0.843658 0
M  V30 52889 N 5031.45 0.135293 1.57018 0
M  V30 52890 C 5032.39 -0.846543 2.11917 0
M  V30 52891 C 5033.36 -1.25016 1.0397 0
M  V30 52892 O 5034.55 -1.34833 1.31728 0
M  V30 52893 C 5031.67 -2.13511 2.62927 0
M  V30 52894 C 5030.72 -1.87832 3.82912 0
M  V30 52895 S 5031.55 -1.07987 5.24499 0
M  V30 52896 C 5032.71 -2.37988 5.78889 0
M  V30 52897 H 5032.94 -0.379648 2.94866 0
M  V30 52898 H 5030.48 -0.0787845 1.54199 0
M  V30 52899 H 5032.43 -2.87541 2.92969 0
M  V30 52900 H 5031.09 -2.57317 1.8013 0
M  V30 52901 H 5030.29 -2.83351 4.16807 0
M  V30 52902 H 5029.89 -1.21917 3.53571 0
M  V30 52903 H 5032.18 -3.33721 5.89607 0
M  V30 52904 H 5033.12 -2.08614 6.76673 0
M  V30 52905 H 5033.53 -2.48101 5.07056 0
M  V30 52906 N 5032.93 -1.5699 -0.138497 0
M  V30 52907 C 5033.84 -2.02178 -1.19001 0
M  V30 52908 C 5034.86 -0.938673 -1.46509 0
M  V30 52909 O 5036.03 -1.24878 -1.58011 0
M  V30 52910 C 5033.1 -2.40054 -2.5015 0
M  V30 52911 C 5032.16 -3.62354 -2.30214 0
M  V30 52912 C 5031.39 -3.98413 -3.55109 0
M  V30 52913 O 5031.61 -3.35035 -4.61636 0
M  V30 52914 O 5030.55 -4.91619 -3.47267 0
M  V30 52915 H 5034.37 -2.91957 -0.83635 0
M  V30 52916 H 5031.96 -1.45294 -0.347856 0
M  V30 52917 H 5033.84 -2.65237 -3.27456 0
M  V30 52918 H 5032.52 -1.53427 -2.8503 0
M  V30 52919 H 5031.42 -3.42346 -1.50831 0
M  V30 52920 H 5032.76 -4.49624 -2.00247 0
M  V30 52921 N 5034.41 0.408106 -1.52224 0
M  V30 52922 C 5035.34 1.50413 -1.786 0
M  V30 52923 C 5036.32 1.57721 -0.637029 0
M  V30 52924 O 5037.5 1.72979 -0.882725 0
M  V30 52925 C 5034.63 2.88226 -1.93761 0
M  V30 52926 C 5033.59 2.95768 -3.09363 0
M  V30 52927 C 5032.91 4.35844 -3.09748 0
M  V30 52928 C 5034.21 2.67159 -4.48802 0
M  V30 52929 H 5035.91 1.28591 -2.70379 0
M  V30 52930 H 5033.45 0.617175 -1.30104 0
M  V30 52931 H 5035.41 3.64888 -2.10796 0
M  V30 52932 H 5034.13 3.11343 -0.986552 0
M  V30 52933 H 5032.79 2.21551 -2.9208 0
M  V30 52934 H 5032.44 4.55973 -2.12362 0
M  V30 52935 H 5032.14 4.41815 -3.87393 0
M  V30 52936 H 5033.66 5.1444 -3.28913 0
M  V30 52937 H 5035.08 3.33544 -4.66285 0
M  V30 52938 H 5033.47 2.84504 -5.28372 0
M  V30 52939 H 5034.54 1.62592 -4.56828 0
M  V30 52940 N 5035.89 1.42864 0.665399 0
M  V30 52941 C 5037.3 1.39015 1.24627 0
M  V30 52942 C 5037.65 0.0880974 1.96002 0
M  V30 52943 O 5036.77 -0.812877 2.00552 0
M  V30 52944 C 5037.37 2.51813 2.26661 0
M  V30 52945 C 5035.93 2.51267 2.80253 0
M  V30 52946 C 5035.07 2.30129 1.54712 0
M  V30 52947 H 5038.03 1.51942 0.458183 0
M  V30 52948 H 5038.05 2.22604 3.0859 0
M  V30 52949 H 5037.56 3.46564 1.74685 0
M  V30 52950 H 5035.66 1.60361 3.36326 0
M  V30 52951 H 5035.77 3.48626 3.28629 0
M  V30 52952 H 5034.14 1.78566 1.81621 0
M  V30 52953 H 5034.92 3.26949 1.04687 0
M  V30 52954 N 5037.36 -0.902611 1.29192 0
M  V30 52955 C 5038.59 -1.68635 1.19875 0
M  V30 52956 C 5039.01 -1.87255 -0.241055 0
M  V30 52957 O 5038.36 -1.40749 -1.16172 0
M  V30 52958 C 5038.42 -3.07244 1.90482 0
M  V30 52959 O 5038.14 -2.89476 3.28839 0
M  V30 52960 C 5039.64 -4.01646 1.87604 0
M  V30 52961 H 5036.86 -0.526788 0.415615 0
M  V30 52962 H 5039.4 -1.12895 1.70514 0
M  V30 52963 H 5037.56 -3.59769 1.43685 0
M  V30 52964 H 5037.97 -3.77283 3.64359 0
M  V30 52965 H 5039.44 -4.96331 2.41578 0
M  V30 52966 H 5039.92 -4.30878 0.850907 0
M  V30 52967 H 5040.53 -3.55053 2.34131 0
M  V30 52968 N 5038.84 -1.11622 -1.11258 0
M  V30 52969 C 5040.09 -0.864533 -1.82675 0
M  V30 52970 C 5040.41 0.611499 -1.85164 0
M  V30 52971 O 5039.68 1.44425 -1.32357 0
M  V30 52972 H 5038.26 -0.316844 -0.676475 0
M  V30 52973 H 5040.92 -1.40899 -1.34661 0
M  V30 52974 H 5040.02 -1.23842 -2.86478 0
M  V30 52975 N 5040.32 1.28897 -0.906821 0
M  V30 52976 C 5041.57 1.95556 -0.537189 0
M  V30 52977 C 5041.9 1.71265 0.915521 0
M  V30 52978 O 5041.17 1.02966 1.6501 0
M  V30 52979 C 5041.46 3.50195 -0.838768 0
M  V30 52980 C 5041.31 3.83915 -2.3437 0
M  V30 52981 C 5042.63 4.3886 -0.330143 0
M  V30 52982 H 5039.75 0.710282 -0.196642 0
M  V30 52983 H 5042.39 1.52388 -1.1348 0
M  V30 52984 H 5040.54 3.87095 -0.33016 0
M  V30 52985 H 5042.21 3.56922 -2.9224 0
M  V30 52986 H 5040.46 3.31205 -2.80153 0
M  V30 52987 H 5041.13 4.91874 -2.50528 0
M  V30 52988 H 5043.6 4.08993 -0.765753 0
M  V30 52989 H 5042.48 5.45929 -0.570296 0
M  V30 52990 H 5042.74 4.35354 0.769358 0
M  V30 52991 N 5041.8 0.670057 1.42646 0
M  V30 52992 C 5042.75 -0.0338745 2.27975 0
M  V30 52993 C 5043.73 -0.778246 1.40827 0
M  V30 52994 O 5044.93 -0.657939 1.64317 0
M  V30 52995 C 5042.05 -0.987784 3.28782 0
M  V30 52996 C 5041.14 -0.241004 4.23415 0
M  V30 52997 N 5041.53 0.751568 5.00185 0
M  V30 52998 C 5039.83 -0.480114 4.43408 0
M  V30 52999 C 5040.53 1.19635 5.69265 0
M  V30 53000 N 5039.51 0.527235 5.41037 0
M  V30 53001 H 5043.31 0.727525 2.84753 0
M  V30 53002 H 5040.82 0.498727 1.54552 0
M  V30 53003 H 5042.82 -1.50702 3.88709 0
M  V30 53004 H 5041.48 -1.74906 2.73565 0
M  V30 53005 H 5042.49 1.13093 5.05401 0
M  V30 53006 H 5039.17 -1.22126 3.99239 0
M  V30 53007 H 5040.56 2.01858 6.40861 0
M  V30 53008 N 5043.28 -1.5209 0.413071 0
M  V30 53009 C 5044.24 -2.25707 -0.398608 0
M  V30 53010 C 5045.24 -1.28224 -0.970323 0
M  V30 53011 O 5046.43 -1.52134 -0.848582 0
M  V30 53012 C 5043.56 -3.03035 -1.5615 0
M  V30 53013 H 5044.76 -2.98887 0.246236 0
M  V30 53014 H 5042.31 -1.55419 0.165677 0
M  V30 53015 H 5043.04 -2.34213 -2.24309 0
M  V30 53016 H 5042.83 -3.7461 -1.15799 0
M  V30 53017 H 5044.32 -3.58864 -2.13556 0
M  V30 53018 N 5044.76 -0.143618 -1.56944 0
M  V30 53019 C 5046 0.507333 -1.95629 0
M  V30 53020 C 5046.32 1.65622 -1.02928 0
M  V30 53021 O 5045.59 1.95692 -0.0901824 0
M  V30 53022 H 5044.17 0.190411 -0.722325 0
M  V30 53023 H 5046.84 -0.218326 -1.93673 0
M  V30 53024 H 5045.93 0.885711 -2.99268 0
M  V30 53025 N 5046.23 1.57062 0.130169 0
M  V30 53026 C 5047.46 1.88435 0.85439 0
M  V30 53027 C 5047.88 0.73367 1.73962 0
M  V30 53028 O 5047.23 -0.295966 1.80084 0
M  V30 53029 C 5047.28 3.19186 1.69713 0
M  V30 53030 O 5047.01 4.29823 0.847554 0
M  V30 53031 C 5048.51 3.64189 2.52748 0
M  V30 53032 H 5045.73 0.624201 0.246199 0
M  V30 53033 H 5048.27 2.0416 0.117908 0
M  V30 53034 H 5046.43 3.05165 2.38649 0
M  V30 53035 H 5046.84 5.04694 1.42774 0
M  V30 53036 H 5048.31 4.58468 3.07427 0
M  V30 53037 H 5048.79 2.90297 3.29582 0
M  V30 53038 H 5049.4 3.80961 1.89074 0
M  V30 53039 N 5047.71 -0.400028 1.52439 0
M  V30 53040 C 5048.99 -1.15968 1.57515 0
M  V30 53041 C 5049.37 -2.07979 0.361645 0
M  V30 53042 O 5048.72 -2.19035 -0.650852 0
M  V30 53043 C 5048.93 -1.92902 2.90844 0
M  V30 53044 C 5050.27 -2.4865 3.44178 0
M  V30 53045 O 5051.3 -2.03071 2.92644 0
M  V30 53046 O 5050.16 -3.31879 4.34188 0
M  V30 53047 H 5047.25 -0.53 0.634845 0
M  V30 53048 H 5049.8 -0.406072 1.6477 0
M  V30 53049 H 5048.57 -1.25551 3.70611 0
M  V30 53050 H 5048.19 -2.75247 2.86923 0
M  V30 53051 N 5049.19 -1.43215 -0.657814 0
M  V30 53052 C 5050.12 -1.50821 -1.78256 0
M  V30 53053 C 5051.1 -0.36327 -1.66176 0
M  V30 53054 O 5052.29 -0.579872 -1.85341 0
M  V30 53055 C 5049.42 -1.42636 -3.16658 0
M  V30 53056 C 5048.37 -2.55332 -3.43496 0
M  V30 53057 C 5047.7 -2.32201 -4.8165 0
M  V30 53058 C 5049 -3.97595 -3.38697 0
M  V30 53059 H 5050.69 -2.4496 -1.72148 0
M  V30 53060 H 5048.24 -1.17899 -0.826788 0
M  V30 53061 H 5050.19 -1.46562 -3.95092 0
M  V30 53062 H 5048.91 -0.449991 -3.23485 0
M  V30 53063 H 5047.57 -2.50751 -2.67431 0
M  V30 53064 H 5047.22 -1.32818 -4.85148 0
M  V30 53065 H 5046.92 -3.07742 -5.00568 0
M  V30 53066 H 5048.44 -2.37903 -5.62347 0
M  V30 53067 H 5049.86 -4.03687 -4.07074 0
M  V30 53068 H 5048.25 -4.73125 -3.69151 0
M  V30 53069 H 5049.32 -4.23057 -2.36961 0
M  V30 53070 N 5050.67 0.895746 -1.29669 0
M  V30 53071 C 5051.58 2.03324 -1.17031 0
M  V30 53072 C 5052.59 1.73753 -0.0926573 0
M  V30 53073 O 5053.77 1.99069 -0.305501 0
M  V30 53074 C 5050.83 3.36069 -0.851959 0
M  V30 53075 C 5049.9 3.79133 -2.01387 0
M  V30 53076 C 5049.13 5.05543 -1.71061 0
M  V30 53077 O 5049.35 5.66872 -0.633412 0
M  V30 53078 O 5048.29 5.44755 -2.55979 0
M  V30 53079 H 5052.11 2.16911 -2.12564 0
M  V30 53080 H 5049.7 1.02003 -1.09159 0
M  V30 53081 H 5051.58 4.15727 -0.689152 0
M  V30 53082 H 5050.25 3.23616 0.0735496 0
M  V30 53083 H 5049.16 3.00226 -2.23194 0
M  V30 53084 H 5050.49 3.96176 -2.92072 0
M  V30 53085 N 5052.15 1.1221 1.10665 0
M  V30 53086 C 5053.39 0.874209 1.82214 0
M  V30 53087 C 5053.71 -0.60167 1.85486 0
M  V30 53088 O 5052.98 -1.43721 1.33121 0
M  V30 53089 H 5051.56 0.320428 0.674785 0
M  V30 53090 H 5054.23 1.41611 1.33912 0
M  V30 53091 H 5053.32 1.25359 2.85817 0
M  V30 53092 N 5053.62 -1.28415 0.913644 0
M  V30 53093 C 5054.57 -2.27299 0.400453 0
M  V30 53094 C 5055.54 -1.57584 -0.525034 0
M  V30 53095 O 5056.73 -1.85484 -0.447253 0
M  V30 53096 C 5053.87 -3.43285 -0.353489 0
M  V30 53097 C 5052.98 -4.2775 0.604491 0
M  V30 53098 C 5052.11 -5.30935 -0.167889 0
M  V30 53099 C 5051.15 -6.07062 0.783713 0
M  V30 53100 N 5050.29 -7.02086 0.044858 0
M  V30 53101 H 5055.13 -2.70574 1.24874 0
M  V30 53102 H 5052.67 -1.33065 0.627075 0
M  V30 53103 H 5054.62 -4.09325 -0.806801 0
M  V30 53104 H 5053.25 -3.01001 -1.16612 0
M  V30 53105 H 5052.31 -3.61755 1.17633 0
M  V30 53106 H 5053.62 -4.80677 1.33233 0
M  V30 53107 H 5052.77 -6.02857 -0.681767 0
M  V30 53108 H 5051.51 -4.78774 -0.928778 0
M  V30 53109 H 5050.52 -5.33991 1.30897 0
M  V30 53110 H 5051.74 -6.61311 1.54416 0
M  V30 53111 H 5049.69 -6.52276 -0.698043 0
M  V30 53112 H 5049.6 -7.52635 0.712523 0
M  V30 53113 H 5050.87 -7.78207 -0.448828 0
M  V30 53114 N 5055.1 -0.677613 -1.42289 0
M  V30 53115 C 5056.35 -0.201045 -2.015 0
M  V30 53116 C 5056.68 1.19336 -1.53587 0
M  V30 53117 O 5055.93 1.81576 -0.729964 0
M  V30 53118 C 5056.23 -0.187354 -3.56909 0
M  V30 53119 C 5055.9 -1.52682 -4.24263 0
M  V30 53120 C 5054.56 -1.89357 -4.42377 0
M  V30 53121 C 5056.91 -2.40885 -4.62194 0
M  V30 53122 C 5054.24 -3.13854 -4.95694 0
M  V30 53123 C 5056.59 -3.64697 -5.16893 0
M  V30 53124 C 5055.25 -4.01538 -5.3322 0
M  V30 53125 H 5054.52 -0.0735677 -0.737339 0
M  V30 53126 H 5057.17 -0.873155 -1.70435 0
M  V30 53127 H 5055.48 0.568271 -3.87657 0
M  V30 53128 H 5057.17 0.198632 -4.00508 0
M  V30 53129 H 5053.76 -1.23153 -4.10526 0
M  V30 53130 H 5057.95 -2.13836 -4.4787 0
M  V30 53131 H 5053.2 -3.42414 -5.0652 0
M  V30 53132 H 5057.38 -4.33243 -5.45228 0
M  V30 53133 H 5055 -4.98082 -5.74298 0
M  V30 53134 N 5056.58 1.51869 -0.421131 0
M  V30 53135 C 5057.81 2.06057 0.14965 0
M  V30 53136 C 5058.22 1.29007 1.38397 0
M  V30 53137 O 5057.56 0.338448 1.80555 0
M  V30 53138 C 5057.62 3.55218 0.553214 0
M  V30 53139 C 5057.29 4.53406 -0.572039 0
M  V30 53140 C 5058.28 4.99581 -1.43928 0
M  V30 53141 C 5055.97 4.96697 -0.748153 0
M  V30 53142 C 5057.96 5.87703 -2.46748 0
M  V30 53143 C 5055.65 5.84613 -1.77965 0
M  V30 53144 C 5056.65 6.30011 -2.6377 0
M  V30 53145 O 5056.34 7.16184 -3.65151 0
M  V30 53146 H 5056.07 0.675744 0.0185864 0
M  V30 53147 H 5058.62 1.96616 -0.594235 0
M  V30 53148 H 5056.85 3.62386 1.34956 0
M  V30 53149 H 5058.54 3.91996 1.05329 0
M  V30 53150 H 5059.31 4.66842 -1.31468 0
M  V30 53151 H 5055.19 4.60912 -0.0898977 0
M  V30 53152 H 5058.73 6.23059 -3.13756 0
M  V30 53153 H 5054.63 6.16765 -1.90451 0
M  V30 53154 H 5055.4 7.34324 -3.61538 0
M  V30 53155 N 5058.06 0.151939 1.56866 0
M  V30 53156 C 5059.31 -0.496952 1.95895 0
M  V30 53157 C 5059.63 -1.65074 1.03805 0
M  V30 53158 O 5058.9 -1.95642 0.100559 0
M  V30 53159 H 5057.48 -0.186578 0.723324 0
M  V30 53160 H 5060.14 0.228593 1.93555 0
M  V30 53161 H 5059.24 -0.869828 2.99734 0
M  V30 53162 N 5059.54 -1.57128 -0.121838 0
M  V30 53163 C 5060.95 -1.73904 -0.679286 0
M  V30 53164 C 5061.3 -0.770198 -1.80451 0
M  V30 53165 O 5060.42 0.0575322 -2.16324 0
M  V30 53166 C 5061.02 -3.15332 -1.23899 0
M  V30 53167 C 5059.58 -3.33624 -1.74276 0
M  V30 53168 C 5058.72 -2.69782 -0.641319 0
M  V30 53169 H 5061.68 -1.58359 0.104055 0
M  V30 53170 H 5061.7 -3.16725 -2.10868 0
M  V30 53171 H 5061.21 -3.85823 -0.419821 0
M  V30 53172 H 5059.31 -2.68171 -2.5868 0
M  V30 53173 H 5059.42 -4.41767 -1.85416 0
M  V30 53174 H 5057.79 -2.30938 -1.07422 0
M  V30 53175 H 5058.57 -3.42894 0.166828 0
M  V30 53176 N 5061.01 0.391938 -1.52649 0
M  V30 53177 C 5062.26 1.13726 -1.67549 0
M  V30 53178 C 5062.59 1.90044 -0.413948 0
M  V30 53179 O 5061.84 1.8616 0.60358 0
M  V30 53180 C 5062.14 2.14391 -2.85957 0
M  V30 53181 C 5061.81 1.54752 -4.23512 0
M  V30 53182 C 5060.47 1.38213 -4.60924 0
M  V30 53183 C 5062.82 1.11364 -5.09163 0
M  V30 53184 C 5060.15 0.768295 -5.81648 0
M  V30 53185 C 5062.5 0.513922 -6.30509 0
M  V30 53186 C 5061.17 0.335806 -6.66655 0
M  V30 53187 H 5060.44 0.416152 -0.613105 0
M  V30 53188 H 5063.08 0.422261 -1.86787 0
M  V30 53189 H 5061.39 2.92099 -2.61124 0
M  V30 53190 H 5063.09 2.71964 -2.94681 0
M  V30 53191 H 5059.68 1.68612 -3.9404 0
M  V30 53192 H 5063.86 1.22945 -4.80831 0
M  V30 53193 H 5059.12 0.618467 -6.08264 0
M  V30 53194 H 5063.29 0.169412 -6.96194 0
M  V30 53195 H 5060.92 -0.141927 -7.60068 0
M  V30 53196 N 5062.49 1.43562 0.650209 0
M  V30 53197 C 5063.74 1.45554 1.41216 0
M  V30 53198 C 5064.07 0.0806154 1.94033 0
M  V30 53199 O 5063.35 -0.898983 1.72478 0
M  V30 53200 C 5063.63 2.50037 2.5914 0
M  V30 53201 C 5063.48 3.96816 2.11796 0
M  V30 53202 C 5064.8 2.51225 3.6135 0
M  V30 53203 H 5061.92 0.529985 0.512137 0
M  V30 53204 H 5064.56 1.75129 0.736871 0
M  V30 53205 H 5062.71 2.24948 3.1675 0
M  V30 53206 H 5064.38 4.32972 1.59163 0
M  V30 53207 H 5062.63 4.09503 1.43141 0
M  V30 53208 H 5063.3 4.6554 2.96608 0
M  V30 53209 H 5065.77 2.73594 3.13505 0
M  V30 53210 H 5064.65 3.26268 4.41407 0
M  V30 53211 H 5064.91 1.54715 4.14144 0
M  V30 53212 N 5063.97 -0.888857 1.30143 0
M  V30 53213 C 5065.25 -1.62141 1.09405 0
M  V30 53214 C 5065.63 -2.08042 -0.358018 0
M  V30 53215 O 5064.98 -1.84443 -1.34882 0
M  V30 53216 C 5065.19 -2.79393 2.09143 0
M  V30 53217 C 5066.53 -3.49818 2.4065 0
M  V30 53218 O 5067.56 -2.89576 2.07422 0
M  V30 53219 O 5066.42 -4.58446 2.97472 0
M  V30 53220 H 5063.51 -0.712461 0.419915 0
M  V30 53221 H 5066.06 -0.935974 1.41554 0
M  V30 53222 H 5064.83 -2.42751 3.069 0
M  V30 53223 H 5064.45 -3.55636 1.77788 0
M  V30 53224 N 5065.45 -1.12795 -1.10068 0
M  V30 53225 C 5066.86 -0.864792 -1.3414 0
M  V30 53226 C 5067.06 0.503133 -1.95117 0
M  V30 53227 O 5066.12 1.25104 -2.19329 0
M  V30 53228 C 5067.43 -1.98421 -2.25942 0
M  V30 53229 C 5068.98 -2.01553 -2.39469 0
M  V30 53230 C 5069.46 -3.12738 -3.34602 0
M  V30 53231 N 5070.95 -3.12206 -3.42172 0
M  V30 53232 C 5071.68 -3.94876 -4.15765 0
M  V30 53233 N 5071.18 -4.87545 -4.92211 0
M  V30 53234 N 5072.97 -3.82999 -4.11422 0
M  V30 53235 H 5065.12 -2.00928 -0.688589 0
M  V30 53236 H 5067.39 -0.874577 -0.365813 0
M  V30 53237 H 5067.09 -2.97012 -1.88353 0
M  V30 53238 H 5066.97 -1.89265 -3.2628 0
M  V30 53239 H 5069.35 -1.03579 -2.76325 0
M  V30 53240 H 5069.43 -2.14782 -1.38933 0
M  V30 53241 H 5069.08 -4.10947 -2.98471 0
M  V30 53242 H 5069.01 -2.96748 -4.35027 0
M  V30 53243 H 5071.5 -2.45075 -2.87657 0
M  V30 53244 H 5071.81 -5.47128 -5.45775 0
M  V30 53245 H 5070.16 -4.91556 -4.91322 0
M  V30 53246 H 5073.35 -3.09936 -3.50796 0
M  V30 53247 H 5073.52 -4.47658 -4.68515 0
M  V30 53248 N 5066.93 1.27928 -0.920441 0
M  V30 53249 C 5067.86 2.26173 -0.371248 0
M  V30 53250 C 5068.87 1.55124 0.494011 0
M  V30 53251 O 5070.06 1.75826 0.307808 0
M  V30 53252 C 5067.16 3.35377 0.487363 0
M  V30 53253 C 5066.33 4.35941 -0.356925 0
M  V30 53254 C 5065.39 5.24375 0.437858 0
M  V30 53255 O 5064.42 5.68997 -0.151915 0
M  V30 53256 N 5065.62 5.53829 1.73937 0
M  V30 53257 H 5068.39 2.73934 -1.21574 0
M  V30 53258 H 5065.95 1.41479 -0.787096 0
M  V30 53259 H 5067.94 3.9148 1.02596 0
M  V30 53260 H 5066.51 2.87274 1.23259 0
M  V30 53261 H 5065.73 3.79206 -1.07686 0
M  V30 53262 H 5067.02 5.00147 -0.934382 0
M  V30 53263 H 5066.41 5.1942 2.24096 0
M  V30 53264 H 5064.97 6.12661 2.22464 0
M  V30 53265 N 5068.4 0.685149 1.41928 0
M  V30 53266 C 5069.63 0.220444 2.05722 0
M  V30 53267 C 5070.05 -1.12637 1.5152 0
M  V30 53268 O 5069.4 -1.7018 0.659174 0
M  V30 53269 C 5069.46 0.158101 3.61154 0
M  V30 53270 O 5069.18 1.45171 4.13349 0
M  V30 53271 C 5070.68 -0.328853 4.42079 0
M  V30 53272 H 5067.9 0.104748 0.662774 0
M  V30 53273 H 5070.44 0.9348 1.81884 0
M  V30 53274 H 5068.6 -0.507009 3.84068 0
M  V30 53275 H 5069.01 1.3319 5.07307 0
M  V30 53276 H 5070.48 -0.321365 5.51064 0
M  V30 53277 H 5070.96 -1.36594 4.17419 0
M  V30 53278 H 5071.57 0.304886 4.24206 0
M  V30 53279 N 5069.88 -1.51644 0.429179 0
M  V30 53280 C 5070.85 -2.26117 -0.374646 0
M  V30 53281 C 5071.85 -1.29246 -0.956669 0
M  V30 53282 O 5073.04 -1.53025 -0.832398 0
M  V30 53283 C 5070.17 -3.04674 -1.52927 0
M  V30 53284 H 5071.36 -2.98609 0.277923 0
M  V30 53285 H 5068.91 -1.55235 0.182151 0
M  V30 53286 H 5069.65 -2.36579 -2.21812 0
M  V30 53287 H 5069.43 -3.75818 -1.11819 0
M  V30 53288 H 5070.92 -3.61109 -2.09738 0
M  V30 53289 N 5071.36 -0.160256 -1.56783 0
M  V30 53290 C 5072.29 0.805564 -2.14577 0
M  V30 53291 C 5073.31 1.2015 -1.09853 0
M  V30 53292 O 5074.5 1.14328 -1.37082 0
M  V30 53293 C 5071.6 2.09425 -2.66448 0
M  V30 53294 C 5070.77 1.86361 -3.95713 0
M  V30 53295 C 5069.83 2.99343 -4.32759 0
M  V30 53296 O 5068.85 2.70457 -5.00841 0
M  V30 53297 N 5070.06 4.26853 -3.93417 0
M  V30 53298 H 5072.82 0.31154 -2.98076 0
M  V30 53299 H 5070.38 0.0228896 -1.61884 0
M  V30 53300 H 5072.37 2.84081 -2.88236 0
M  V30 53301 H 5070.94 2.50051 -1.87599 0
M  V30 53302 H 5070.16 0.956687 -3.82415 0
M  V30 53303 H 5071.45 1.68305 -4.80157 0
M  V30 53304 H 5070.85 4.53185 -3.38585 0
M  V30 53305 H 5069.41 4.98248 -4.20229 0
M  V30 53306 N 5072.84 1.57191 0.113503 0
M  V30 53307 C 5073.8 1.998 1.12307 0
M  V30 53308 C 5074.8 0.888894 1.33997 0
M  V30 53309 O 5075.99 1.15481 1.30422 0
M  V30 53310 C 5073.12 2.34288 2.47633 0
M  V30 53311 H 5074.32 2.90196 0.756723 0
M  V30 53312 H 5071.87 1.52145 0.357976 0
M  V30 53313 H 5072.61 1.46788 2.89178 0
M  V30 53314 H 5072.39 3.15184 2.33242 0
M  V30 53315 H 5073.88 2.67974 3.2028 0
M  V30 53316 N 5074.32 -0.383837 1.52854 0
M  V30 53317 C 5075.28 -1.45191 1.77348 0
M  V30 53318 C 5076.28 -1.47359 0.643574 0
M  V30 53319 O 5077.47 -1.4844 0.911665 0
M  V30 53320 C 5074.6 -2.84444 1.87895 0
M  V30 53321 H 5075.8 -1.24754 2.7272 0
M  V30 53322 H 5073.35 -0.615889 1.43654 0
M  V30 53323 H 5074.08 -3.10218 0.94526 0
M  V30 53324 H 5073.87 -2.8427 2.70061 0
M  V30 53325 H 5075.36 -3.61825 2.085 0
M  V30 53326 N 5075.8 -1.43905 -0.642587 0
M  V30 53327 C 5077.04 -1.45796 -1.39957 0
M  V30 53328 C 5077.36 -0.0873828 -1.94804 0
M  V30 53329 O 5076.63 0.878764 -1.75084 0
M  V30 53330 H 5075.21 -0.536815 -0.51946 0
M  V30 53331 H 5077.88 -1.79593 -0.757126 0
M  V30 53332 H 5076.97 -2.17673 -2.23663 0
M  V30 53333 N 5077.27 0.881943 -1.30612 0
M  V30 53334 C 5078.5 1.66706 -1.22542 0
M  V30 53335 C 5078.92 1.87615 0.211234 0
M  V30 53336 O 5078.27 1.4258 1.13918 0
M  V30 53337 C 5078.32 3.04175 -1.95346 0
M  V30 53338 O 5078.05 2.84208 -3.33403 0
M  V30 53339 C 5079.55 3.98611 -1.9397 0
M  V30 53340 H 5076.77 0.520109 -0.423943 0
M  V30 53341 H 5079.31 1.10168 -1.72289 0
M  V30 53342 H 5077.47 3.57437 -1.4939 0
M  V30 53343 H 5077.88 3.71439 -3.70315 0
M  V30 53344 H 5079.35 4.92425 -2.49443 0
M  V30 53345 H 5079.83 4.2947 -0.919349 0
M  V30 53346 H 5080.44 3.51283 -2.3975 0
M  V30 53347 N 5078.75 1.13378 1.09468 0
M  V30 53348 C 5080.03 0.806391 1.78204 0
M  V30 53349 C 5080.41 -0.702121 1.99082 0
M  V30 53350 O 5079.76 -1.63926 1.59188 0
M  V30 53351 C 5079.97 1.59282 3.10532 0
M  V30 53352 C 5081.31 1.78522 3.85247 0
M  V30 53353 O 5082.34 1.55877 3.20282 0
M  V30 53354 O 5081.2 2.16305 5.01871 0
M  V30 53355 H 5078.29 0.294378 0.772833 0
M  V30 53356 H 5080.84 1.23837 1.16028 0
M  V30 53357 H 5079.61 2.61802 2.90818 0
M  V30 53358 H 5079.23 1.15575 3.80432 0
M  V30 53359 N 5080.23 -1.27438 0.927213 0
M  V30 53360 C 5081.46 -1.98496 0.583691 0
M  V30 53361 C 5081.87 -1.69174 -0.838181 0
M  V30 53362 O 5081.23 -0.952024 -1.55701 0
M  V30 53363 C 5081.28 -3.52549 0.799465 0
M  V30 53364 O 5081 -3.80844 2.1654 0
M  V30 53365 C 5082.5 -4.40859 0.464591 0
M  V30 53366 H 5079.72 -0.633479 0.221235 0
M  V30 53367 H 5082.27 -1.62303 1.2441 0
M  V30 53368 H 5080.42 -3.86954 0.185864 0
M  V30 53369 H 5080.84 -4.75433 2.21503 0
M  V30 53370 H 5082.31 -5.47964 0.666268 0
M  V30 53371 H 5082.79 -4.35085 -0.599842 0
M  V30 53372 H 5083.39 -4.11973 1.05631 0
M  V30 53373 N 5081.71 -0.692666 -1.41562 0
M  V30 53374 C 5082.94 -0.231351 -2.05602 0
M  V30 53375 C 5083.35 1.11832 -1.52115 0
M  V30 53376 O 5082.71 1.69828 -0.66819 0
M  V30 53377 C 5082.76 -0.177252 -3.61065 0
M  V30 53378 O 5082.48 -1.47361 -4.12573 0
M  V30 53379 C 5083.98 0.305404 -4.42247 0
M  V30 53380 H 5081.2 -0.108262 -0.662209 0
M  V30 53381 H 5083.74 -0.944433 -1.81386 0
M  V30 53382 H 5081.9 0.486633 -3.84331 0
M  V30 53383 H 5082.31 -1.35879 -5.06594 0
M  V30 53384 H 5083.79 0.292136 -5.51226 0
M  V30 53385 H 5084.26 1.34378 -4.18138 0
M  V30 53386 H 5084.87 -0.327378 -4.24038 0
M  V30 53387 N 5083.19 1.51414 -0.437215 0
M  V30 53388 C 5084.43 2.01275 0.130795 0
M  V30 53389 C 5084.75 1.32598 1.43796 0
M  V30 53390 O 5085.95 1.73427 2.0889 0
M  V30 53391 C 5084.41 3.58781 0.283637 0
M  V30 53392 C 5084.02 4.36395 -1.01309 0
M  V30 53393 C 5085.76 4.16789 0.805423 0
M  V30 53394 C 5083.67 5.85605 -0.825893 0
M  V30 53395 H 5082.6 0.752159 0.0526554 0
M  V30 53396 H 5085.25 1.74522 -0.566957 0
M  V30 53397 H 5083.63 3.8198 1.04439 0
M  V30 53398 H 5084.81 4.24942 -1.78216 0
M  V30 53399 H 5083.12 3.89838 -1.46339 0
M  V30 53400 H 5085.72 5.25976 0.961961 0
M  V30 53401 H 5086.06 3.75955 1.78783 0
M  V30 53402 H 5086.59 3.97667 0.102985 0
M  V30 53403 H 5083.33 6.3085 -1.78067 0
M  V30 53404 H 5082.85 5.99722 -0.0966137 0
M  V30 53405 H 5084.53 6.45224 -0.479042 0
M  V30 53406 N 5084.66 0.168568 1.56696 0
M  V30 53407 C 5085.89 -0.483433 2.01173 0
M  V30 53408 C 5086.31 -1.56991 1.04878 0
M  V30 53409 O 5085.66 -1.82434 0.0491979 0
M  V30 53410 C 5085.71 -1.06428 3.45478 0
M  V30 53411 O 5085.44 -0.0211834 4.38095 0
M  V30 53412 C 5086.94 -1.79478 4.05342 0
M  V30 53413 H 5084.16 -0.123979 0.659447 0
M  V30 53414 H 5086.7 0.269491 2.02717 0
M  V30 53415 H 5084.86 -1.76772 3.44718 0
M  V30 53416 H 5085.27 -0.449654 5.22569 0
M  V30 53417 H 5086.74 -2.15384 5.08246 0
M  V30 53418 H 5087.22 -2.68877 3.47278 0
M  V30 53419 H 5087.83 -1.13783 4.09797 0
M  V30 53420 N 5086.14 -1.57249 -0.105165 0
M  V30 53421 C 5087.07 -2.04378 -1.12924 0
M  V30 53422 C 5088.05 -0.93079 -1.42374 0
M  V30 53423 O 5089.24 -1.20141 -1.52577 0
M  V30 53424 C 5086.37 -2.45975 -2.4518 0
M  V30 53425 C 5085.32 -3.60846 -2.30162 0
M  V30 53426 C 5084.65 -3.88387 -3.67505 0
M  V30 53427 C 5085.95 -4.9209 -1.75056 0
M  V30 53428 H 5087.64 -2.90183 -0.737185 0
M  V30 53429 H 5085.19 -1.39602 -0.353162 0
M  V30 53430 H 5087.14 -2.77553 -3.17084 0
M  V30 53431 H 5085.87 -1.57158 -2.86302 0
M  V30 53432 H 5084.52 -3.29499 -1.60705 0
M  V30 53433 H 5084.17 -2.96753 -4.06136 0
M  V30 53434 H 5083.87 -4.65716 -3.58305 0
M  V30 53435 H 5085.4 -4.2243 -4.40891 0
M  V30 53436 H 5086.81 -5.22114 -2.3679 0
M  V30 53437 H 5085.21 -5.73514 -1.76642 0
M  V30 53438 H 5086.28 -4.79686 -0.709178 0
M  V30 53439 N 5087.62 0.375726 -1.53056 0
M  V30 53440 C 5088.57 1.48009 -1.79433 0
M  V30 53441 C 5089.56 1.55891 -0.662909 0
M  V30 53442 O 5090.77 1.58898 -0.845655 0
M  V30 53443 H 5087.14 0.492867 -0.567967 0
M  V30 53444 H 5089.11 1.22961 -2.71888 0
M  V30 53445 C 5087.86 2.84977 -1.99207 0
M  V30 53446 H 5087.19 2.79667 -2.85703 0
M  V30 53447 H 5088.63 3.61454 -2.21646 0
M  V30 53448 C 5087.09 3.28023 -0.768298 0
M  V30 53449 O 5087.62 4.01671 0.047907 0
M  V30 53450 N 5085.82 2.84451 -0.594621 0
M  V30 53451 H 5085.37 2.24684 -1.25996 0
M  V30 53452 H 5085.33 3.1361 0.222805 0
M  V30 53453 N 5089.1 1.44244 0.634946 0
M  V30 53454 C 5090.34 1.47043 1.39664 0
M  V30 53455 C 5090.68 0.101191 1.93936 0
M  V30 53456 O 5089.95 -0.880638 1.73421 0
M  V30 53457 C 5090.24 2.52772 2.56473 0
M  V30 53458 C 5090.09 3.9904 2.07575 0
M  V30 53459 C 5091.41 2.55043 3.58665 0
M  V30 53460 H 5088.53 0.535388 0.506487 0
M  V30 53461 H 5091.17 1.75901 0.718255 0
M  V30 53462 H 5089.32 2.28295 3.14346 0
M  V30 53463 H 5090.99 4.34636 1.54562 0
M  V30 53464 H 5089.23 4.10998 1.3879 0
M  V30 53465 H 5089.9 4.6866 2.91654 0
M  V30 53466 H 5092.38 2.76904 3.10585 0
M  V30 53467 H 5091.26 3.30931 4.37922 0
M  V30 53468 H 5091.52 1.59099 4.1248 0
M  V30 53469 N 5090.58 -0.875004 1.31078 0
M  V30 53470 C 5091.51 -1.99771 1.20888 0
M  V30 53471 C 5092.49 -1.69822 0.0972209 0
M  V30 53472 O 5093.67 -1.92157 0.280962 0
M  V30 53473 C 5090.8 -3.3516 0.910235 0
M  V30 53474 C 5089.76 -3.79399 1.98092 0
M  V30 53475 C 5089.08 -5.12191 1.53506 0
M  V30 53476 C 5090.38 -3.97049 3.39337 0
M  V30 53477 H 5092.08 -2.08554 2.14815 0
M  V30 53478 H 5089.62 -1.00203 1.03418 0
M  V30 53479 H 5091.58 -4.13234 0.825569 0
M  V30 53480 H 5090.3 -3.26536 -0.0647073 0
M  V30 53481 H 5088.96 -3.03561 2.05539 0
M  V30 53482 H 5088.61 -5.00005 0.548117 0
M  V30 53483 H 5088.31 -5.42762 2.25129 0
M  V30 53484 H 5089.83 -5.9278 1.46438 0
M  V30 53485 H 5091.24 -4.65533 3.34592 0
M  V30 53486 H 5089.64 -4.3901 4.09133 0
M  V30 53487 H 5090.71 -3.00588 3.80493 0
M  V30 53488 N 5092.05 -1.13957 -1.08865 0
M  V30 53489 C 5093.02 -0.825066 -2.13835 0
M  V30 53490 C 5094.02 0.168142 -1.59918 0
M  V30 53491 O 5095.21 -0.059639 -1.74098 0
M  V30 53492 C 5092.34 -0.229057 -3.4013 0
M  V30 53493 H 5093.53 -1.7553 -2.43165 0
M  V30 53494 H 5091.09 -0.944964 -1.245 0
M  V30 53495 H 5091.82 0.710115 -3.1643 0
M  V30 53496 H 5091.61 -0.944377 -3.80557 0
M  V30 53497 H 5093.1 -0.0260691 -4.17592 0
M  V30 53498 N 5093.53 1.26945 -0.933958 0
M  V30 53499 C 5094.78 1.94714 -0.588054 0
M  V30 53500 C 5095.13 1.71997 0.862251 0
M  V30 53501 O 5094.43 1.04214 1.60779 0
M  V30 53502 C 5094.62 3.4696 -0.857528 0
M  V30 53503 C 5094.45 3.84481 -2.33248 0
M  V30 53504 C 5093.22 4.07611 -2.98633 0
M  V30 53505 C 5095.42 3.93591 -3.31045 0
M  V30 53506 N 5093.4 4.3196 -4.36215 0
M  V30 53507 C 5094.77 4.22388 -4.53859 0
M  V30 53508 C 5096.83 3.7619 -3.26168 0
M  V30 53509 C 5095.53 4.35595 -5.72407 0
M  V30 53510 C 5097.55 3.90625 -4.44034 0
M  V30 53511 C 5096.92 4.19815 -5.65628 0
M  V30 53512 H 5093.02 0.735577 -0.265426 0
M  V30 53513 H 5095.6 1.53177 -1.20187 0
M  V30 53514 H 5093.77 3.87441 -0.272816 0
M  V30 53515 H 5095.5 4.01919 -0.473621 0
M  V30 53516 H 5092.26 4.02688 -2.49278 0
M  V30 53517 H 5092.68 4.48181 -5.07408 0
M  V30 53518 H 5097.32 3.52657 -2.33223 0
M  V30 53519 H 5095.04 4.57952 -6.65812 0
M  V30 53520 H 5098.63 3.78573 -4.41784 0
M  V30 53521 H 5097.51 4.30742 -6.5531 0
M  V30 53522 N 5095.01 0.700164 1.41193 0
M  V30 53523 C 5095.94 0.0521953 2.33442 0
M  V30 53524 C 5096.92 -0.762227 1.52066 0
M  V30 53525 O 5098.11 -0.714272 1.80587 0
M  V30 53526 C 5095.24 -0.881574 3.35925 0
M  V30 53527 C 5094.19 -0.173911 4.27647 0
M  V30 53528 C 5093.52 -1.22235 5.20541 0
M  V30 53529 C 5094.82 0.962577 5.13353 0
M  V30 53530 H 5096.51 0.822675 2.87876 0
M  V30 53531 H 5094.06 0.39706 1.38418 0
M  V30 53532 H 5096.01 -1.34415 3.99388 0
M  V30 53533 H 5094.73 -1.68377 2.79851 0
M  V30 53534 H 5093.39 0.268679 3.65614 0
M  V30 53535 H 5093.04 -2.0172 4.6078 0
M  V30 53536 H 5092.74 -0.753833 5.82744 0
M  V30 53537 H 5094.26 -1.68534 5.8688 0
M  V30 53538 H 5095.68 0.580076 5.70358 0
M  V30 53539 H 5094.08 1.35848 5.84521 0
M  V30 53540 H 5095.15 1.80019 4.50246 0
M  V30 53541 N 5096.49 -1.5118 0.445239 0
M  V30 53542 C 5097.72 -2.06269 -0.116849 0
M  V30 53543 C 5098.13 -1.31193 -1.36327 0
M  V30 53544 O 5097.47 -0.36713 -1.79994 0
M  V30 53545 C 5097.53 -3.56053 -0.496632 0
M  V30 53546 C 5097.2 -4.52438 0.644099 0
M  V30 53547 C 5098.19 -4.97228 1.51858 0
M  V30 53548 C 5095.88 -4.95444 0.827079 0
M  V30 53549 C 5097.87 -5.83703 2.56066 0
M  V30 53550 C 5095.56 -5.81707 1.87243 0
M  V30 53551 C 5096.56 -6.25735 2.7376 0
M  V30 53552 O 5096.24 -7.10284 3.76499 0
M  V30 53553 H 5095.98 -0.675955 -0.00783357 0
M  V30 53554 H 5098.53 -1.95646 0.625439 0
M  V30 53555 H 5096.76 -3.64487 -1.29174 0
M  V30 53556 H 5098.45 -3.93622 -0.99079 0
M  V30 53557 H 5099.22 -4.64691 1.38878 0
M  V30 53558 H 5095.09 -4.60711 0.163213 0
M  V30 53559 H 5098.64 -6.17989 3.23628 0
M  V30 53560 H 5094.54 -6.13657 2.00239 0
M  V30 53561 H 5095.3 -7.2848 3.73175 0
M  V30 53562 N 5097.97 -0.176876 -1.56604 0
M  V30 53563 C 5098.93 0.737353 -2.17016 0
M  V30 53564 C 5099.93 1.1541 -1.11969 0
M  V30 53565 O 5101.12 1.07016 -1.37453 0
M  V30 53566 C 5098.25 2.00435 -2.75751 0
M  V30 53567 H 5099.44 0.21135 -2.99154 0
M  V30 53568 H 5097 0.0727033 -1.56131 0
M  V30 53569 H 5097.73 2.57331 -1.97361 0
M  V30 53570 H 5097.52 1.71443 -3.52632 0
M  V30 53571 H 5099.01 2.65667 -3.22197 0
M  V30 53572 N 5099.44 1.57302 0.0968247 0
M  V30 53573 C 5100.41 2.0098 1.10181 0
M  V30 53574 C 5101.41 0.903056 1.33047 0
M  V30 53575 O 5102.6 1.16858 1.29189 0
M  V30 53576 C 5099.73 2.36901 2.45134 0
M  V30 53577 H 5100.92 2.90982 0.725901 0
M  V30 53578 H 5098.48 1.52517 0.341818 0
M  V30 53579 H 5099.21 1.49847 2.87604 0
M  V30 53580 H 5099 3.1764 2.29886 0
M  V30 53581 H 5100.49 2.71356 3.1742 0
M  V30 53582 N 5100.92 -0.367603 1.53253 0
M  V30 53583 C 5102.17 -1.1121 1.69588 0
M  V30 53584 C 5102.5 -1.89025 0.445336 0
M  V30 53585 O 5101.78 -1.86344 -0.557338 0
M  V30 53586 C 5102.06 -2.07298 2.94448 0
M  V30 53587 C 5101.91 -1.33105 4.29655 0
M  V30 53588 C 5103.23 -3.07448 3.14903 0
M  V30 53589 H 5100.35 -0.402919 0.617111 0
M  V30 53590 H 5102.99 -0.393136 1.85888 0
M  V30 53591 H 5101.14 -2.68607 2.80682 0
M  V30 53592 H 5102.82 -0.745951 4.55229 0
M  V30 53593 H 5101.06 -0.6329 4.29158 0
M  V30 53594 H 5101.73 -2.03425 5.1315 0
M  V30 53595 H 5104.21 -2.5624 3.27841 0
M  V30 53596 H 5103.08 -3.71904 4.03706 0
M  V30 53597 H 5103.34 -3.77506 2.30091 0
M  V30 53598 N 5102.4 -1.44578 -0.627288 0
M  V30 53599 C 5103.65 -1.46842 -1.38276 0
M  V30 53600 C 5103.96 -0.106419 -1.9531 0
M  V30 53601 O 5105.17 -0.00660629 -2.71499 0
M  V30 53602 C 5103.63 -2.58536 -2.50374 0
M  V30 53603 C 5103.23 -4.0096 -1.99837 0
M  V30 53604 C 5104.98 -2.70024 -3.27547 0
M  V30 53605 C 5102.88 -5.04071 -3.093 0
M  V30 53606 H 5101.81 -0.546338 -0.519645 0
M  V30 53607 H 5104.47 -1.70656 -0.674437 0
M  V30 53608 H 5102.85 -2.27969 -3.238 0
M  V30 53609 H 5104.02 -4.41113 -1.33251 0
M  V30 53610 H 5102.34 -3.93748 -1.35468 0
M  V30 53611 H 5104.93 -3.44231 -4.09156 0
M  V30 53612 H 5105.28 -1.75974 -3.77278 0
M  V30 53613 H 5105.81 -3.0002 -2.61214 0
M  V30 53614 H 5102.55 -5.99763 -2.64509 0
M  V30 53615 H 5102.07 -4.68507 -3.74515 0
M  V30 53616 H 5103.75 -5.27943 -3.74012 0
M  V30 53617 N 5103.88 0.86804 -1.3154 0
M  V30 53618 C 5104.83 1.99683 -1.19287 0
M  V30 53619 C 5105.82 1.691 -0.100716 0
M  V30 53620 O 5107.03 1.78072 -0.262739 0
M  V30 53621 H 5103.4 0.655019 -0.369397 0
M  V30 53622 H 5105.37 2.07149 -2.14783 0
M  V30 53623 C 5104.12 3.35335 -0.91901 0
M  V30 53624 H 5103.45 3.5939 -1.75154 0
M  V30 53625 H 5104.89 4.14906 -0.873457 0
M  V30 53626 C 5103.34 3.3477 0.378248 0
M  V30 53627 O 5103.87 3.76721 1.39443 0
M  V30 53628 N 5102.08 2.87897 0.395468 0
M  V30 53629 H 5101.63 2.53952 -0.431978 0
M  V30 53630 H 5101.59 2.87901 1.26334 0
M  V30 53631 N 5105.36 1.14532 1.0826 0
M  V30 53632 C 5106.61 0.912662 1.80319 0
M  V30 53633 C 5106.93 -0.562191 1.8672 0
M  V30 53634 O 5106.2 -1.40865 1.3614 0
M  V30 53635 H 5104.78 0.334669 0.667837 0
M  V30 53636 H 5107.44 1.44419 1.30878 0
M  V30 53637 H 5106.53 1.31394 2.83094 0
M  V30 53638 N 5106.84 -1.26448 0.940677 0
M  V30 53639 C 5108.11 -1.88945 0.505878 0
M  V30 53640 C 5108.49 -1.85014 -1.01651 0
M  V30 53641 O 5107.84 -1.30413 -1.87629 0
M  V30 53642 C 5108.05 -3.323 1.06666 0
M  V30 53643 C 5109.4 -4.09149 1.13501 0
M  V30 53644 O 5110.42 -3.41367 1.0172 0
M  V30 53645 O 5109.28 -5.30365 1.31816 0
M  V30 53646 H 5106.38 -0.810416 0.164788 0
M  V30 53647 H 5108.92 -1.34621 1.03321 0
M  V30 53648 H 5107.69 -3.2952 2.11027 0
M  V30 53649 H 5107.32 -3.94162 0.521741 0
M  V30 53650 N 5108.31 -0.707642 -1.4082 0
M  V30 53651 C 5109.73 -0.380394 -1.55001 0
M  V30 53652 C 5109.93 1.11158 -1.68066 0
M  V30 53653 O 5108.99 1.89755 -1.66581 0
M  V30 53654 C 5110.3 -1.13949 -2.78273 0
M  V30 53655 C 5111.85 -1.12502 -2.92083 0
M  V30 53656 C 5112.32 -1.86611 -4.18258 0
M  V30 53657 N 5113.81 -1.83641 -4.25242 0
M  V30 53658 C 5114.55 -2.37813 -5.21759 0
M  V30 53659 N 5114.04 -3.00507 -6.24233 0
M  V30 53660 N 5115.84 -2.28 -5.13783 0
M  V30 53661 H 5107.99 -1.67516 -1.30584 0
M  V30 53662 H 5110.25 -0.707601 -0.630876 0
M  V30 53663 H 5109.96 -2.19408 -2.74869 0
M  V30 53664 H 5109.83 -0.725923 -3.70149 0
M  V30 53665 H 5112.22 -0.0786601 -2.94995 0
M  V30 53666 H 5112.3 -1.57775 -2.01347 0
M  V30 53667 H 5111.94 -2.91233 -4.16108 0
M  V30 53668 H 5111.87 -1.38764 -5.07988 0
M  V30 53669 H 5114.36 -1.37943 -3.51824 0
M  V30 53670 H 5114.68 -3.39379 -6.94292 0
M  V30 53671 H 5113.02 -3.04589 -6.24701 0
M  V30 53672 H 5116.21 -1.78684 -4.32654 0
M  V30 53673 H 5116.39 -2.7052 -5.88832 0
M  V30 53674 N 5109.79 1.50942 -0.45325 0
M  V30 53675 C 5111.04 2.03153 0.100205 0
M  V30 53676 C 5111.39 1.33037 1.38992 0
M  V30 53677 O 5110.69 0.441488 1.86444 0
M  V30 53678 C 5110.88 3.55604 0.357819 0
M  V30 53679 C 5110.71 4.40492 -0.905378 0
M  V30 53680 C 5109.48 4.84242 -1.44354 0
M  V30 53681 C 5111.68 4.81924 -1.79592 0
M  V30 53682 N 5109.66 5.53393 -2.65761 0
M  V30 53683 C 5111.03 5.50304 -2.85596 0
M  V30 53684 C 5113.08 4.63896 -1.80844 0
M  V30 53685 C 5111.79 6.02567 -3.92818 0
M  V30 53686 C 5113.81 5.17087 -2.87011 0
M  V30 53687 C 5113.18 5.85426 -3.91734 0
M  V30 53688 H 5109.27 0.781995 -0.00290504 0
M  V30 53689 H 5111.86 1.84649 -0.617476 0
M  V30 53690 H 5110.03 3.74091 1.04454 0
M  V30 53691 H 5111.76 3.94473 0.904036 0
M  V30 53692 H 5108.52 4.63025 -0.995208 0
M  V30 53693 H 5108.94 5.92586 -3.27369 0
M  V30 53694 H 5113.58 4.10509 -1.01205 0
M  V30 53695 H 5111.3 6.55001 -4.73285 0
M  V30 53696 H 5114.89 5.0498 -2.88941 0
M  V30 53697 H 5113.77 6.25845 -4.72534 0
M  V30 53698 N 5111.27 0.185179 1.56508 0
M  V30 53699 C 5112.52 -0.456189 1.97295 0
M  V30 53700 C 5112.84 -1.62311 1.0717 0
M  V30 53701 O 5112.1 -1.95398 0.10869 0
M  V30 53702 C 5112.4 -0.967856 3.44046 0
M  V30 53703 C 5112.06 0.0846345 4.50821 0
M  V30 53704 C 5110.73 0.373858 4.79745 0
M  V30 53705 C 5113.08 0.798301 5.1505 0
M  V30 53706 C 5110.41 1.3819 5.70193 0
M  V30 53707 C 5112.76 1.79542 6.06587 0
M  V30 53708 C 5111.42 2.09194 6.33872 0
M  V30 53709 H 5110.69 -0.166931 0.721952 0
M  V30 53710 H 5113.34 0.280059 1.89441 0
M  V30 53711 H 5111.64 -1.78219 3.4892 0
M  V30 53712 H 5113.34 -1.47334 3.72953 0
M  V30 53713 H 5109.93 -0.150959 4.28334 0
M  V30 53714 H 5114.12 0.588077 4.92804 0
M  V30 53715 H 5109.37 1.61766 5.89612 0
M  V30 53716 H 5113.55 2.3537 6.55419 0
M  V30 53717 H 5111.17 2.87451 7.03758 0
M  V30 53718 N 5112.75 -1.57351 -0.0884812 0
M  V30 53719 C 5113.68 -2.05564 -1.1075 0
M  V30 53720 C 5114.66 -0.945838 -1.41379 0
M  V30 53721 O 5115.84 -1.21752 -1.51294 0
M  V30 53722 C 5112.97 -2.48562 -2.42558 0
M  V30 53723 C 5111.93 -3.63267 -2.26321 0
M  V30 53724 C 5111.25 -3.92263 -3.63365 0
M  V30 53725 C 5112.55 -4.93919 -1.69827 0
M  V30 53726 H 5114.25 -2.90948 -0.706366 0
M  V30 53727 H 5111.79 -1.39969 -0.338335 0
M  V30 53728 H 5113.75 -2.80901 -3.14122 0
M  V30 53729 H 5112.47 -1.60186 -2.84619 0
M  V30 53730 H 5111.13 -3.31185 -1.57201 0
M  V30 53731 H 5110.78 -3.01044 -4.02966 0
M  V30 53732 H 5110.48 -4.6949 -3.53345 0
M  V30 53733 H 5112 -4.27083 -4.36386 0
M  V30 53734 H 5113.42 -5.24596 -2.31239 0
M  V30 53735 H 5111.81 -5.75355 -1.70549 0
M  V30 53736 H 5112.88 -4.80411 -0.658261 0
M  V30 53737 N 5114.23 0.359471 -1.53446 0
M  V30 53738 C 5115.17 1.46097 -1.80993 0
M  V30 53739 C 5116.17 1.55179 -0.679406 0
M  V30 53740 O 5117.37 1.57992 -0.862461 0
M  V30 53741 H 5113.75 0.486815 -0.573162 0
M  V30 53742 H 5115.72 1.2007 -2.73177 0
M  V30 53743 C 5114.47 2.82848 -2.02218 0
M  V30 53744 H 5113.79 2.76621 -2.88653 0
M  V30 53745 H 5115.23 3.59083 -2.25467 0
M  V30 53746 C 5113.69 3.27189 -0.803046 0
M  V30 53747 O 5114.22 4.017 0.00530164 0
M  V30 53748 N 5112.43 2.83805 -0.624757 0
M  V30 53749 H 5111.97 2.23335 -1.28372 0
M  V30 53750 H 5111.93 3.13828 0.18953 0
M  V30 53751 N 5115.7 1.44909 0.619611 0
M  V30 53752 C 5117.12 1.2905 0.939062 0
M  V30 53753 C 5117.32 0.23469 2.00129 0
M  V30 53754 O 5116.38 -0.375492 2.49692 0
M  V30 53755 C 5117.69 2.66572 1.3914 0
M  V30 53756 C 5119.24 2.74374 1.50626 0
M  V30 53757 C 5119.71 4.12393 1.99239 0
M  V30 53758 N 5121.2 4.14627 2.06491 0
M  V30 53759 C 5121.94 5.1828 2.45302 0
M  V30 53760 N 5121.43 6.32288 2.83167 0
M  V30 53761 N 5123.23 5.05637 2.45536 0
M  V30 53762 H 5115.38 2.12239 -0.0826881 0
M  V30 53763 H 5117.64 0.947653 0.0256496 0
M  V30 53764 H 5117.35 3.44962 0.685133 0
M  V30 53765 H 5117.22 2.94233 2.36023 0
M  V30 53766 H 5119.61 1.96295 2.20346 0
M  V30 53767 H 5119.69 2.50441 0.520875 0
M  V30 53768 H 5119.33 4.90952 1.3011 0
M  V30 53769 H 5119.26 4.3371 2.98669 0
M  V30 53770 H 5121.75 3.3235 1.79867 0
M  V30 53771 H 5122.07 7.07183 3.11627 0
M  V30 53772 H 5120.41 6.35709 2.80891 0
M  V30 53773 H 5123.6 4.15621 2.15353 0
M  V30 53774 H 5123.78 5.86538 2.75457 0
M  V30 53775 N 5117.18 -0.861052 1.31999 0
M  V30 53776 C 5118.43 -1.61477 1.22194 0
M  V30 53777 C 5118.76 -1.93277 -0.217785 0
M  V30 53778 O 5118.01 -1.56946 -1.16904 0
M  V30 53779 C 5118.31 -2.94815 2.02037 0
M  V30 53780 C 5117.98 -2.82471 3.51456 0
M  V30 53781 C 5116.64 -2.78812 3.92196 0
M  V30 53782 C 5118.99 -2.68863 4.465 0
M  V30 53783 C 5116.32 -2.59414 5.26233 0
M  V30 53784 C 5118.67 -2.51001 5.80673 0
M  V30 53785 C 5117.34 -2.45731 6.20623 0
M  V30 53786 H 5116.61 -0.590886 0.44714 0
M  V30 53787 H 5119.25 -0.999319 1.63358 0
M  V30 53788 H 5117.56 -3.60444 1.53581 0
M  V30 53789 H 5119.25 -3.52142 1.91825 0
M  V30 53790 H 5115.84 -2.86141 3.19095 0
M  V30 53791 H 5120.03 -2.70739 4.1595 0
M  V30 53792 H 5115.28 -2.53765 5.56249 0
M  V30 53793 H 5119.46 -2.3945 6.53939 0
M  V30 53794 H 5117.09 -2.3046 7.24426 0
M  V30 53795 N 5118.66 -1.15105 -1.07651 0
M  V30 53796 C 5119.89 -0.947795 -1.83914 0
M  V30 53797 C 5120.3 0.503863 -1.81952 0
M  V30 53798 O 5119.66 1.34937 -1.22875 0
M  V30 53799 C 5119.71 -1.45041 -3.31127 0
M  V30 53800 O 5119.43 -2.8452 -3.33136 0
M  V30 53801 C 5120.93 -1.28821 -4.2417 0
M  V30 53802 H 5118.15 -0.336807 -0.580347 0
M  V30 53803 H 5120.7 -1.52804 -1.35909 0
M  V30 53804 H 5118.85 -0.912764 -3.76494 0
M  V30 53805 H 5119.27 -3.07245 -4.25089 0
M  V30 53806 H 5120.74 -1.68839 -5.25545 0
M  V30 53807 H 5121.22 -0.232006 -4.38587 0
M  V30 53808 H 5121.82 -1.81479 -3.84637 0
M  V30 53809 N 5120.14 1.25947 -0.94737 0
M  V30 53810 C 5121.37 1.97542 -0.615197 0
M  V30 53811 C 5121.78 1.70486 0.811161 0
M  V30 53812 O 5121.14 0.976674 1.54167 0
M  V30 53813 C 5121.19 3.51233 -0.855451 0
M  V30 53814 O 5120.91 3.77351 -2.22571 0
M  V30 53815 C 5122.41 4.40064 -0.534669 0
M  V30 53816 H 5119.63 0.62988 -0.231285 0
M  V30 53817 H 5122.18 1.60304 -1.26976 0
M  V30 53818 H 5120.33 3.86609 -0.247401 0
M  V30 53819 H 5120.74 4.71849 -2.29039 0
M  V30 53820 H 5122.22 5.46835 -0.75336 0
M  V30 53821 H 5122.7 4.35984 0.530548 0
M  V30 53822 H 5123.3 4.10241 -1.12172 0
M  V30 53823 N 5121.62 0.7151 1.40442 0
M  V30 53824 C 5122.84 0.264031 2.05208 0
M  V30 53825 C 5123.26 -1.09398 1.53875 0
M  V30 53826 O 5122.62 -1.68743 0.695123 0
M  V30 53827 C 5122.67 0.234672 3.60737 0
M  V30 53828 O 5122.39 1.53906 4.10176 0
M  V30 53829 C 5123.89 -0.235008 4.42677 0
M  V30 53830 H 5121.11 0.118783 0.660403 0
M  V30 53831 H 5123.65 0.97317 1.7986 0
M  V30 53832 H 5121.81 -0.425428 3.85057 0
M  V30 53833 H 5122.22 1.43921 5.04368 0
M  V30 53834 H 5123.7 -0.204404 5.51621 0
M  V30 53835 H 5124.17 -1.27709 4.20223 0
M  V30 53836 H 5124.78 0.394797 4.23464 0
M  V30 53837 N 5123.09 -1.50699 0.461248 0
M  V30 53838 C 5124.02 -2.31183 -0.328103 0
M  V30 53839 C 5125.01 -1.37647 -0.999359 0
M  V30 53840 O 5126.19 -1.66569 -0.998422 0
M  V30 53841 C 5123.32 -3.17118 -1.41609 0
M  V30 53842 C 5122.27 -4.19127 -0.867001 0
M  V30 53843 C 5121.6 -4.93736 -2.05254 0
M  V30 53844 C 5122.9 -5.22173 0.114992 0
M  V30 53845 H 5124.59 -2.97422 0.343606 0
M  V30 53846 H 5122.14 -1.43032 0.166692 0
M  V30 53847 H 5124.09 -3.72215 -1.97571 0
M  V30 53848 H 5122.82 -2.48746 -2.11643 0
M  V30 53849 H 5121.48 -3.65117 -0.329428 0
M  V30 53850 H 5121.12 -4.21845 -2.73963 0
M  V30 53851 H 5120.82 -5.6273 -1.69141 0
M  V30 53852 H 5122.35 -5.51663 -2.61725 0
M  V30 53853 H 5123.76 -5.72199 -0.355114 0
M  V30 53854 H 5122.16 -5.98832 0.389899 0
M  V30 53855 H 5123.23 -4.73526 1.04408 0
M  V30 53856 N 5124.57 -0.193476 -1.56408 0
M  V30 53857 C 5125.52 0.744752 -2.20355 0
M  V30 53858 C 5126.51 1.221 -1.17422 0
M  V30 53859 O 5127.72 1.18408 -1.35571 0
M  V30 53860 H 5124.1 0.258513 -0.706169 0
M  V30 53861 H 5126.07 0.181689 -2.97846 0
M  V30 53862 C 5124.82 1.95443 -2.87571 0
M  V30 53863 H 5124.14 1.59703 -3.66517 0
M  V30 53864 H 5125.58 2.5893 -3.35754 0
M  V30 53865 C 5124.04 2.79216 -1.8852 0
M  V30 53866 O 5124.57 3.77088 -1.38448 0
M  V30 53867 N 5122.77 2.44677 -1.56785 0
M  V30 53868 H 5122.32 1.65146 -1.97698 0
M  V30 53869 H 5122.28 3.01013 -0.907679 0
M  V30 53870 N 5126.05 1.57396 0.0801353 0
M  V30 53871 C 5127.33 1.77886 0.813388 0
M  V30 53872 C 5127.71 0.778948 1.96203 0
M  V30 53873 O 5127.06 -0.189603 2.27712 0
M  V30 53874 C 5127.27 3.24121 1.29409 0
M  V30 53875 C 5128.61 3.8772 1.73084 0
M  V30 53876 O 5129.64 3.27961 1.38996 0
M  V30 53877 O 5128.5 4.92836 2.36167 0
M  V30 53878 H 5125.59 0.72974 0.389112 0
M  V30 53879 H 5128.14 1.69591 0.060857 0
M  V30 53880 H 5126.91 3.88445 0.47181 0
M  V30 53881 H 5126.53 3.37107 2.10819 0
M  V30 53882 N 5127.53 -0.351328 1.53634 0
M  V30 53883 C 5128.78 -1.09244 1.70505 0
M  V30 53884 C 5129.1 -1.8888 0.464189 0
M  V30 53885 O 5128.36 -1.87694 -0.554011 0
M  V30 53886 C 5128.66 -2.06734 2.91541 0
M  V30 53887 C 5128.32 -1.43469 4.27466 0
M  V30 53888 C 5126.99 -1.25944 4.64426 0
M  V30 53889 C 5129.34 -0.978256 5.11937 0
M  V30 53890 C 5126.67 -0.613812 5.8348 0
M  V30 53891 C 5129.02 -0.346573 6.3165 0
M  V30 53892 C 5127.68 -0.158936 6.67311 0
M  V30 53893 H 5126.95 -0.399751 0.623923 0
M  V30 53894 H 5129.6 -0.37259 1.8784 0
M  V30 53895 H 5127.9 -2.85073 2.68777 0
M  V30 53896 H 5129.6 -2.64055 3.01788 0
M  V30 53897 H 5126.19 -1.58106 3.98372 0
M  V30 53898 H 5130.37 -1.10153 4.83921 0
M  V30 53899 H 5125.63 -0.456979 6.0969 0
M  V30 53900 H 5129.8 0.0152312 6.96398 0
M  V30 53901 H 5127.43 0.343396 7.59424 0
M  V30 53902 N 5129.01 -1.45235 -0.611918 0
M  V30 53903 C 5129.95 -1.53904 -1.74403 0
M  V30 53904 C 5130.95 -0.409312 -1.64381 0
M  V30 53905 O 5132.15 -0.585048 -1.70227 0
M  V30 53906 H 5128.53 -0.483323 -0.57611 0
M  V30 53907 H 5130.5 -2.49149 -1.64218 0
M  V30 53908 C 5129.25 -1.51876 -3.12776 0
M  V30 53909 H 5128.57 -2.3813 -3.21145 0
M  V30 53910 H 5130.01 -1.61999 -3.91832 0
M  V30 53911 C 5128.47 -0.242492 -3.36026 0
M  V30 53912 O 5129 0.679448 -3.95912 0
M  V30 53913 N 5127.21 -0.13955 -2.90265 0
M  V30 53914 H 5126.75 -0.890656 -2.41713 0
M  V30 53915 H 5126.71 0.713578 -3.06195 0
M  V30 53916 N 5130.49 0.85404 -1.32453 0
M  V30 53917 C 5131.42 1.97822 -1.24051 0
M  V30 53918 C 5132.4 1.69646 -0.124226 0
M  V30 53919 O 5133.58 1.91686 -0.311497 0
M  V30 53920 C 5130.71 3.33669 -0.963441 0
M  V30 53921 C 5129.67 3.762 -2.04103 0
M  V30 53922 C 5128.99 5.09684 -1.61635 0
M  V30 53923 C 5130.29 3.916 -3.45611 0
M  V30 53924 H 5131.99 2.0511 -2.18106 0
M  V30 53925 H 5129.53 0.985452 -1.04999 0
M  V30 53926 H 5131.48 4.11868 -0.891206 0
M  V30 53927 H 5130.21 3.26598 0.01275 0
M  V30 53928 H 5128.87 3.00253 -2.10342 0
M  V30 53929 H 5128.52 4.99069 -0.627594 0
M  V30 53930 H 5128.22 5.39112 -2.33736 0
M  V30 53931 H 5129.74 5.90376 -1.5585 0
M  V30 53932 H 5131.15 4.60151 -3.41956 0
M  V30 53933 H 5129.55 4.32446 -4.16066 0
M  V30 53934 H 5130.62 2.94496 -3.85227 0
M  V30 53935 N 5131.96 1.15674 1.07039 0
M  V30 53936 C 5133.21 0.934963 1.79962 0
M  V30 53937 C 5133.54 -0.536398 1.86645 0
M  V30 53938 O 5132.82 -1.39776 1.35251 0
M  V30 53939 C 5133.1 1.55382 3.24851 0
M  V30 53940 C 5132.95 3.096 3.26294 0
M  V30 53941 C 5134.27 1.24224 4.22204 0
M  V30 53942 H 5131.39 0.341084 0.653323 0
M  V30 53943 H 5134.03 1.42888 1.25232 0
M  V30 53944 H 5132.18 1.13381 3.71587 0
M  V30 53945 H 5133.86 3.60531 2.87776 0
M  V30 53946 H 5132.1 3.43324 2.65162 0
M  V30 53947 H 5132.77 3.48017 4.28472 0
M  V30 53948 H 5135.25 1.60561 3.83874 0
M  V30 53949 H 5134.12 1.70138 5.21866 0
M  V30 53950 H 5134.38 0.159795 4.41811 0
M  V30 53951 N 5133.44 -1.25443 0.954036 0
M  V30 53952 C 5134.4 -2.24155 0.478258 0
M  V30 53953 C 5135.4 -1.5528 -0.417721 0
M  V30 53954 O 5136.59 -1.72867 -0.215094 0
M  V30 53955 C 5133.73 -3.39496 -0.309082 0
M  V30 53956 H 5134.92 -2.67759 1.35074 0
M  V30 53957 H 5132.47 -1.3782 0.737255 0
M  V30 53958 H 5133.21 -3.01311 -1.19925 0
M  V30 53959 H 5132.99 -3.90677 0.333699 0
M  V30 53960 H 5134.48 -4.12798 -0.631449 0
M  V30 53961 N 5134.92 -0.722538 -1.40061 0
M  V30 53962 C 5135.85 -0.0234245 -2.28188 0
M  V30 53963 C 5136.83 0.760549 -1.43716 0
M  V30 53964 O 5138.01 0.74573 -1.73122 0
M  V30 53965 C 5135.14 0.974149 -3.24389 0
M  V30 53966 C 5134.19 0.280157 -4.25579 0
M  V30 53967 S 5135.02 -0.996954 -5.26138 0
M  V30 53968 C 5136.18 -0.00165927 -6.259 0
M  V30 53969 H 5136.41 -0.770806 -2.87134 0
M  V30 53970 H 5133.94 -0.513834 -1.45599 0
M  V30 53971 H 5135.9 1.54447 -3.80337 0
M  V30 53972 H 5134.56 1.69428 -2.64486 0
M  V30 53973 H 5133.75 1.03454 -4.93268 0
M  V30 53974 H 5133.36 -0.217788 -3.73365 0
M  V30 53975 H 5135.65 0.842889 -6.72236 0
M  V30 53976 H 5136.59 -0.645351 -7.05153 0
M  V30 53977 H 5137 0.365173 -5.63318 0
M  V30 53978 N 5136.4 1.50453 -0.469234 0
M  V30 53979 C 5137.34 2.28487 0.325901 0
M  V30 53980 C 5138.31 1.33458 0.988846 0
M  V30 53981 O 5139.5 1.62394 1.00164 0
M  V30 53982 C 5136.64 3.15293 1.40302 0
M  V30 53983 C 5135.75 4.25351 0.755034 0
M  V30 53984 C 5134.89 4.99416 1.80988 0
M  V30 53985 C 5133.93 6.01352 1.14205 0
M  V30 53986 N 5133.06 6.68702 2.13967 0
M  V30 53987 H 5137.9 2.95986 -0.345857 0
M  V30 53988 H 5135.44 1.45965 -0.182406 0
M  V30 53989 H 5137.4 3.63971 2.03915 0
M  V30 53990 H 5136.03 2.49844 2.04396 0
M  V30 53991 H 5135.08 3.80399 0.00638528 0
M  V30 53992 H 5136.39 4.9828 0.227765 0
M  V30 53993 H 5135.55 5.51803 2.52187 0
M  V30 53994 H 5134.29 4.26189 2.37095 0
M  V30 53995 H 5133.29 5.48226 0.415684 0
M  V30 53996 H 5134.52 6.7655 0.587897 0
M  V30 53997 H 5132.46 5.98268 2.69094 0
M  V30 53998 H 5132.38 7.375 1.6622 0
M  V30 53999 H 5133.65 7.25707 2.84551 0
M  V30 54000 N 5137.88 0.201768 1.56303 0
M  V30 54001 C 5139.11 -0.440013 2.0186 0
M  V30 54002 C 5139.51 -1.55275 1.08103 0
M  V30 54003 O 5138.86 -1.83529 0.0792862 0
M  V30 54004 C 5138.92 -1.05079 3.438 0
M  V30 54005 C 5138.58 -0.0759602 4.56937 0
M  V30 54006 C 5139.58 0.717132 5.1493 0
M  V30 54007 C 5137.26 0.0370581 5.02286 0
M  V30 54008 C 5139.26 1.61014 6.16728 0
M  V30 54009 C 5136.95 0.933621 6.03926 0
M  V30 54010 C 5137.94 1.71872 6.61021 0
M  V30 54011 O 5137.63 2.60025 7.60685 0
M  V30 54012 H 5137.36 -0.114116 0.666298 0
M  V30 54013 H 5139.92 0.309744 2.03051 0
M  V30 54014 H 5138.15 -1.84926 3.39616 0
M  V30 54015 H 5139.84 -1.59791 3.73124 0
M  V30 54016 H 5140.6 0.640159 4.80757 0
M  V30 54017 H 5136.48 -0.563873 4.57538 0
M  V30 54018 H 5140.03 2.22338 6.6122 0
M  V30 54019 H 5135.92 1.01169 6.37523 0
M  V30 54020 H 5136.69 2.53879 7.78131 0
M  V30 54021 N 5139.35 -1.57436 -0.071787 0
M  V30 54022 C 5140.3 -2.04729 -1.10404 0
M  V30 54023 C 5141.3 -0.952628 -1.40076 0
M  V30 54024 O 5142.5 -1.13774 -1.39483 0
M  V30 54025 H 5138.88 -0.652762 -0.373371 0
M  V30 54026 H 5140.85 -2.90572 -0.679024 0
M  V30 54027 C 5139.6 -2.50688 -2.40937 0
M  V30 54028 H 5138.92 -3.34513 -2.18955 0
M  V30 54029 H 5140.36 -2.87532 -3.11611 0
M  V30 54030 C 5138.82 -1.38982 -3.06897 0
M  V30 54031 O 5139.35 -0.731925 -3.94976 0
M  V30 54032 N 5137.55 -1.13494 -2.67521 0
M  V30 54033 H 5137.1 -1.67175 -1.95986 0
M  V30 54034 H 5137.06 -0.389577 -3.11977 0
M  V30 54035 N 5140.83 0.343176 -1.53818 0
M  V30 54036 C 5142.06 1.10182 -1.74767 0
M  V30 54037 C 5142.47 1.82827 -0.486921 0
M  V30 54038 O 5141.81 1.75237 0.551136 0
M  V30 54039 C 5141.87 2.1599 -2.87382 0
M  V30 54040 C 5141.54 1.62916 -4.26975 0
M  V30 54041 C 5142.54 1.08129 -5.08531 0
M  V30 54042 C 5140.22 1.67752 -4.7346 0
M  V30 54043 C 5142.21 0.588815 -6.34675 0
M  V30 54044 C 5139.9 1.18117 -5.99576 0
M  V30 54045 C 5140.9 0.63774 -6.80016 0
M  V30 54046 O 5140.59 0.14879 -8.03762 0
M  V30 54047 H 5140.32 0.334429 -0.58748 0
M  V30 54048 H 5142.87 0.401038 -2.01447 0
M  V30 54049 H 5141.1 2.89628 -2.56228 0
M  V30 54050 H 5142.79 2.77422 -2.96297 0
M  V30 54051 H 5143.56 1.03715 -4.73781 0
M  V30 54052 H 5139.44 2.0899 -4.10907 0
M  V30 54053 H 5142.98 0.163988 -6.97407 0
M  V30 54054 H 5138.88 1.22231 -6.33822 0
M  V30 54055 H 5139.65 0.266044 -8.18068 0
M  V30 54056 N 5142.31 1.45558 0.604207 0
M  V30 54057 C 5143.22 1.57031 1.74294 0
M  V30 54058 C 5144.24 0.454619 1.67956 0
M  V30 54059 O 5145.41 0.715778 1.88251 0
M  V30 54060 C 5142.48 1.53713 3.10762 0
M  V30 54061 C 5141.54 2.76347 3.28528 0
M  V30 54062 C 5140.77 2.73177 4.58487 0
M  V30 54063 O 5140.99 1.80697 5.41022 0
M  V30 54064 O 5139.93 3.64426 4.79038 0
M  V30 54065 H 5143.75 2.5329 1.67564 0
M  V30 54066 H 5141.34 1.28107 0.7687 0
M  V30 54067 H 5143.22 1.54482 3.92063 0
M  V30 54068 H 5141.9 0.606068 3.17976 0
M  V30 54069 H 5140.8 2.81139 2.46803 0
M  V30 54070 H 5142.14 3.6859 3.26194 0
M  V30 54071 N 5143.79 -0.847003 1.32905 0
M  V30 54072 C 5145.2 -1.41781 1.21471 0
M  V30 54073 C 5145.55 -1.95465 -0.169698 0
M  V30 54074 O 5144.67 -1.88161 -1.06886 0
M  V30 54075 C 5145.27 -2.57726 2.19915 0
M  V30 54076 C 5143.83 -3.10784 2.12345 0
M  V30 54077 C 5142.98 -1.83554 2.07853 0
M  V30 54078 H 5145.93 -0.653481 1.44621 0
M  V30 54079 H 5145.95 -3.35117 1.80213 0
M  V30 54080 H 5145.46 -2.18624 3.20664 0
M  V30 54081 H 5143.56 -3.54451 1.1487 0
M  V30 54082 H 5143.67 -3.71509 3.02519 0
M  V30 54083 H 5142.04 -2.0347 1.53207 0
M  V30 54084 H 5142.82 -1.46659 3.10397 0
M  V30 54085 N 5145.27 -1.1624 -1.06424 0
M  V30 54086 C 5146.2 -0.890883 -2.15837 0
M  V30 54087 C 5147.18 0.162274 -1.69324 0
M  V30 54088 O 5148.36 0.0146509 -1.94194 0
M  V30 54089 C 5145.49 -0.389736 -3.45106 0
M  V30 54090 C 5144.45 -1.38065 -4.0512 0
M  V30 54091 C 5143.77 -0.73796 -5.29583 0
M  V30 54092 C 5145.07 -2.74981 -4.44053 0
M  V30 54093 H 5146.77 -1.80586 -2.38808 0
M  V30 54094 H 5144.31 -0.869697 -1.14771 0
M  V30 54095 H 5146.27 -0.187275 -4.20984 0
M  V30 54096 H 5144.99 0.560738 -3.2175 0
M  V30 54097 H 5143.65 -1.56963 -3.31298 0
M  V30 54098 H 5143.3 0.218959 -5.02523 0
M  V30 54099 H 5143 -1.39934 -5.70694 0
M  V30 54100 H 5144.52 -0.545488 -6.08159 0
M  V30 54101 H 5145.93 -2.59873 -5.11018 0
M  V30 54102 H 5144.33 -3.37581 -4.96144 0
M  V30 54103 H 5145.4 -3.30333 -3.54976 0
M  V30 54104 N 5146.74 1.24935 -0.960675 0
M  V30 54105 C 5147.97 1.96879 -0.636114 0
M  V30 54106 C 5148.39 1.71337 0.793033 0
M  V30 54107 O 5147.74 0.992971 1.53122 0
M  V30 54108 C 5147.8 3.50305 -0.892656 0
M  V30 54109 O 5147.52 3.74969 -2.26561 0
M  V30 54110 C 5149.02 4.39472 -0.581314 0
M  V30 54111 H 5146.24 0.627391 -0.237953 0
M  V30 54112 H 5148.78 1.58948 -1.2867 0
M  V30 54113 H 5146.94 3.86325 -0.288393 0
M  V30 54114 H 5147.35 4.69393 -2.34031 0
M  V30 54115 H 5148.82 5.46005 -0.811317 0
M  V30 54116 H 5149.3 4.36522 0.484276 0
M  V30 54117 H 5149.91 4.09028 -1.16517 0
M  V30 54118 N 5148.22 0.729956 1.39676 0
M  V30 54119 C 5149.15 0.0471394 2.29152 0
M  V30 54120 C 5150.17 -0.708757 1.46562 0
M  V30 54121 O 5151.36 -0.553755 1.69693 0
M  V30 54122 C 5148.46 -0.957498 3.25093 0
M  V30 54123 C 5147.63 -0.264167 4.36602 0
M  V30 54124 C 5146.69 -1.1762 5.12886 0
M  V30 54125 O 5145.71 -0.655579 5.65412 0
M  V30 54126 N 5146.92 -2.50631 5.23607 0
M  V30 54127 H 5149.68 0.815465 2.88393 0
M  V30 54128 H 5147.24 0.57876 1.51202 0
M  V30 54129 H 5149.23 -1.57013 3.73 0
M  V30 54130 H 5147.8 -1.62707 2.66918 0
M  V30 54131 H 5147.02 0.528869 3.90636 0
M  V30 54132 H 5148.31 0.216522 5.08339 0
M  V30 54133 H 5147.71 -2.9541 4.82441 0
M  V30 54134 H 5146.27 -3.07002 5.74972 0
M  V30 54135 N 5149.7 -1.50202 0.477206 0
M  V30 54136 C 5150.98 -1.95116 -0.13754 0
M  V30 54137 C 5151.36 -1.41783 -1.56399 0
M  V30 54138 O 5150.71 -0.621411 -2.19888 0
M  V30 54139 C 5150.92 -3.4892 -0.0745941 0
M  V30 54140 C 5152.26 -4.23801 -0.260436 0
M  V30 54141 O 5153.29 -3.5588 -0.150896 0
M  V30 54142 O 5152.15 -5.44367 -0.482343 0
M  V30 54143 H 5149.24 -0.819873 -0.108335 0
M  V30 54144 H 5151.79 -1.60945 0.538046 0
M  V30 54145 H 5150.56 -3.80304 0.9211 0
M  V30 54146 H 5150.18 -3.89645 -0.791372 0
M  V30 54147 N 5151.18 -0.210054 -1.56194 0
M  V30 54148 C 5152.13 0.717902 -2.16403 0
M  V30 54149 C 5153.11 1.16573 -1.10903 0
M  V30 54150 O 5154.3 1.12164 -1.36924 0
M  V30 54151 C 5151.43 1.93081 -2.83856 0
M  V30 54152 C 5150.52 1.5032 -3.96566 0
M  V30 54153 N 5150.91 0.787445 -4.99633 0
M  V30 54154 C 5149.21 1.79136 -4.08444 0
M  V30 54155 C 5149.91 0.571001 -5.78891 0
M  V30 54156 N 5148.89 1.12425 -5.31847 0
M  V30 54157 H 5152.69 0.1625 -2.9345 0
M  V30 54158 H 5150.2 -0.0108499 -1.62396 0
M  V30 54159 H 5152.2 2.60623 -3.25394 0
M  V30 54160 H 5150.86 2.4908 -2.08301 0
M  V30 54161 H 5151.87 0.441331 -5.16016 0
M  V30 54162 H 5148.55 2.36537 -3.4403 0
M  V30 54163 H 5149.94 0.00214321 -6.719 0
M  V30 54164 N 5152.66 1.57472 0.0634368 0
M  V30 54165 C 5153.9 1.87935 0.762128 0
M  V30 54166 C 5154.24 0.803439 1.76801 0
M  V30 54167 O 5153.51 -0.1854 1.93614 0
M  V30 54168 C 5153.79 3.29058 1.46263 0
M  V30 54169 C 5153.65 4.4731 0.472598 0
M  V30 54170 C 5154.97 3.68546 2.40545 0
M  V30 54171 H 5152.08 0.68353 0.2756 0
M  V30 54172 H 5154.73 1.89983 0.0251983 0
M  V30 54173 H 5152.88 3.27442 2.09078 0
M  V30 54174 H 5154.55 4.61053 -0.15099 0
M  V30 54175 H 5152.79 4.33285 -0.211339 0
M  V30 54176 H 5153.46 5.42857 1.00053 0
M  V30 54177 H 5155.94 3.71308 1.87801 0
M  V30 54178 H 5154.81 4.68162 2.86558 0
M  V30 54179 H 5155.08 2.98929 3.25721 0
M  V30 54180 N 5154.13 -0.335013 1.53998 0
M  V30 54181 C 5155.41 -1.09183 1.62291 0
M  V30 54182 C 5155.79 -2.06258 0.449531 0
M  V30 54183 O 5155.14 -2.21598 -0.557366 0
M  V30 54184 C 5155.35 -1.80392 2.98763 0
M  V30 54185 C 5156.7 -2.33829 3.54414 0
M  V30 54186 O 5157.72 -1.90476 3.00994 0
M  V30 54187 O 5156.58 -3.13164 4.47873 0
M  V30 54188 H 5153.67 -0.502598 0.656753 0
M  V30 54189 H 5156.22 -0.335822 1.66344 0
M  V30 54190 H 5154.99 -1.09719 3.75603 0
M  V30 54191 H 5154.62 -2.6283 2.98339 0
M  V30 54192 N 5155.61 -1.45876 -0.596479 0
M  V30 54193 C 5156.86 -1.49742 -1.3513 0
M  V30 54194 C 5157.17 -0.147823 -1.95041 0
M  V30 54195 O 5158.38 -0.0641938 -2.71424 0
M  V30 54196 C 5156.84 -2.63788 -2.44834 0
M  V30 54197 C 5156.44 -4.05109 -1.91287 0
M  V30 54198 C 5158.19 -2.76911 -3.21746 0
M  V30 54199 C 5156.1 -5.10518 -2.98539 0
M  V30 54200 H 5155.03 -0.557237 -0.50794 0
M  V30 54201 H 5157.68 -1.72049 -0.638086 0
M  V30 54202 H 5156.06 -2.34786 -3.18891 0
M  V30 54203 H 5157.23 -4.4384 -1.23864 0
M  V30 54204 H 5155.55 -3.96533 -1.27086 0
M  V30 54205 H 5158.14 -3.52833 -4.01763 0
M  V30 54206 H 5158.49 -1.83937 -3.73461 0
M  V30 54207 H 5159.02 -3.05494 -2.54791 0
M  V30 54208 H 5155.76 -6.05238 -2.51727 0
M  V30 54209 H 5155.28 -4.76345 -3.64493 0
M  V30 54210 H 5156.96 -5.35758 -3.6273 0
M  V30 54211 N 5157.09 0.839943 -1.33352 0
M  V30 54212 C 5158.02 1.96495 -1.26142 0
M  V30 54213 C 5159 1.69504 -0.142212 0
M  V30 54214 O 5160.19 1.91344 -0.331811 0
M  V30 54215 C 5157.32 3.32629 -0.998777 0
M  V30 54216 C 5156.27 3.74014 -2.08081 0
M  V30 54217 C 5155.6 5.07941 -1.67032 0
M  V30 54218 C 5156.9 3.87912 -3.49745 0
M  V30 54219 H 5158.59 2.02785 -2.20269 0
M  V30 54220 H 5156.14 0.97426 -1.06039 0
M  V30 54221 H 5158.09 4.109 -0.93484 0
M  V30 54222 H 5156.81 3.26593 -0.0218907 0
M  V30 54223 H 5155.47 2.98005 -2.13515 0
M  V30 54224 H 5155.12 4.98376 -0.680491 0
M  V30 54225 H 5154.82 5.36602 -2.3944 0
M  V30 54226 H 5156.34 5.88689 -1.62103 0
M  V30 54227 H 5157.76 4.56498 -3.46818 0
M  V30 54228 H 5156.16 4.28008 -4.20629 0
M  V30 54229 H 5157.23 2.90394 -3.88329 0
M  V30 54230 N 5158.57 1.16803 1.05806 0
M  V30 54231 C 5159.82 0.950705 1.78342 0
M  V30 54232 C 5160.14 -0.522458 1.87871 0
M  V30 54233 O 5159.41 -1.37945 1.39097 0
M  V30 54234 H 5157.99 0.348759 0.660588 0
M  V30 54235 H 5160.65 1.47163 1.27785 0
M  V30 54236 H 5159.75 1.37369 2.80243 0
M  V30 54237 N 5160.05 -1.24424 0.967287 0
M  V30 54238 C 5161.46 -1.74347 0.667846 0
M  V30 54239 C 5161.81 -1.78406 -0.816446 0
M  V30 54240 O 5160.93 -1.41321 -1.63882 0
M  V30 54241 C 5161.53 -3.16624 1.20559 0
M  V30 54242 C 5160.09 -3.64056 0.956062 0
M  V30 54243 C 5159.24 -2.42711 1.34115 0
M  V30 54244 H 5162.19 -1.10132 1.14265 0
M  V30 54245 H 5162.21 -3.76181 0.571679 0
M  V30 54246 H 5161.72 -3.13638 2.28589 0
M  V30 54247 H 5159.82 -3.72441 -0.108727 0
M  V30 54248 H 5159.93 -4.51543 1.60142 0
M  V30 54249 H 5158.3 -2.43111 0.759537 0
M  V30 54250 H 5159.08 -2.42406 2.43094 0
M  V30 54251 N 5161.53 -0.737353 -1.39287 0
M  V30 54252 C 5162.46 -0.11407 -2.33221 0
M  V30 54253 C 5163.44 0.721641 -1.54034 0
M  V30 54254 O 5164.62 0.666142 -1.82418 0
M  V30 54255 C 5161.75 0.7922 -3.38144 0
M  V30 54256 C 5160.71 0.0604674 -4.27957 0
M  V30 54257 C 5160.03 1.08391 -5.23599 0
M  V30 54258 C 5161.33 -1.09834 -5.10621 0
M  V30 54259 H 5163.03 -0.898711 -2.85593 0
M  V30 54260 H 5160.57 -0.433619 -1.37316 0
M  V30 54261 H 5162.52 1.23779 -4.02811 0
M  V30 54262 H 5161.25 1.60898 -2.84217 0
M  V30 54263 H 5159.91 -0.365521 -3.64773 0
M  V30 54264 H 5159.56 1.89432 -4.65966 0
M  V30 54265 H 5159.26 0.599064 -5.84538 0
M  V30 54266 H 5160.78 1.52915 -5.91142 0
M  V30 54267 H 5162.19 -0.731092 -5.68619 0
M  V30 54268 H 5160.59 -1.51298 -5.80714 0
M  V30 54269 H 5161.66 -1.91893 -4.45314 0
M  V30 54270 N 5163 1.49946 -0.485165 0
M  V30 54271 C 5164.23 2.073 0.064433 0
M  V30 54272 C 5164.65 1.34505 1.31492 0
M  V30 54273 O 5164.01 0.396932 1.76902 0
M  V30 54274 C 5164.06 3.59202 0.317177 0
M  V30 54275 O 5163.16 3.88089 1.395 0
M  V30 54276 H 5162.5 0.663722 -0.0192055 0
M  V30 54277 H 5165.03 1.92961 -0.680246 0
M  V30 54278 H 5165.04 4.04229 0.553462 0
M  V30 54279 H 5163.72 4.116 -0.596532 0
M  V30 54280 H 5162.3 3.54889 1.14492 0
M  V30 54281 N 5164.48 0.218335 1.5608 0
M  V30 54282 C 5165.44 -0.679556 2.18894 0
M  V30 54283 C 5166.44 -1.12401 1.1499 0
M  V30 54284 O 5167.63 -1.03334 1.40242 0
M  V30 54285 C 5164.77 -1.93053 2.80968 0
M  V30 54286 H 5165.96 -0.13196 2.9961 0
M  V30 54287 H 5163.51 -0.0312825 1.56269 0
M  V30 54288 H 5164.25 -2.52008 2.04114 0
M  V30 54289 H 5164.03 -1.62034 3.57054 0
M  V30 54290 H 5165.52 -2.57031 3.29127 0
M  V30 54291 N 5165.96 -1.57504 -0.0550848 0
M  V30 54292 C 5166.89 -2.01584 -1.09071 0
M  V30 54293 C 5167.9 -0.924387 -1.34011 0
M  V30 54294 O 5169.09 -1.20207 -1.31957 0
M  V30 54295 C 5166.19 -2.35393 -2.4381 0
M  V30 54296 C 5165.37 -3.66596 -2.38592 0
M  V30 54297 C 5164.43 -3.87886 -3.55571 0
M  V30 54298 O 5163.45 -4.59271 -3.36242 0
M  V30 54299 N 5164.65 -3.3152 -4.76524 0
M  V30 54300 H 5167.42 -2.91042 -0.715187 0
M  V30 54301 H 5164.98 -1.60059 -0.243476 0
M  V30 54302 H 5166.97 -2.46795 -3.2074 0
M  V30 54303 H 5165.54 -1.51741 -2.73301 0
M  V30 54304 H 5164.76 -3.65792 -1.46934 0
M  V30 54305 H 5166.05 -4.52714 -2.32223 0
M  V30 54306 H 5165.45 -2.73609 -4.95131 0
M  V30 54307 H 5164 -3.48344 -5.50908 0
M  V30 54308 N 5167.44 0.326842 -1.54174 0
M  V30 54309 C 5168.67 1.08479 -1.76181 0
M  V30 54310 C 5169.08 1.81813 -0.508851 0
M  V30 54311 O 5168.44 1.74926 0.5203 0
M  V30 54312 C 5168.49 2.08542 -2.95284 0
M  V30 54313 O 5168.21 1.38187 -4.15735 0
M  V30 54314 C 5169.71 2.96581 -3.29476 0
M  V30 54315 H 5166.93 0.322815 -0.588245 0
M  V30 54316 H 5169.47 0.373965 -2.01052 0
M  V30 54317 H 5167.63 2.75164 -2.72696 0
M  V30 54318 H 5168.04 2.05169 -4.82707 0
M  V30 54319 H 5169.52 3.62693 -4.16122 0
M  V30 54320 H 5169.99 3.63503 -2.465 0
M  V30 54321 H 5170.6 2.35525 -3.5413 0
M  V30 54322 N 5168.92 1.46191 0.588735 0
M  V30 54323 C 5170.16 1.5089 1.3445 0
M  V30 54324 C 5170.48 0.159623 1.94346 0
M  V30 54325 O 5169.75 -0.813177 1.78225 0
M  V30 54326 H 5168.33 0.555724 0.499179 0
M  V30 54327 H 5171 1.82279 0.68995 0
M  V30 54328 H 5170.09 2.25824 2.1543 0
M  V30 54329 N 5170.39 -0.832859 1.33795 0
M  V30 54330 C 5171.64 -1.58346 1.24937 0
M  V30 54331 C 5171.96 -1.94755 -0.181634 0
M  V30 54332 O 5173.16 -2.68651 -0.392281 0
M  V30 54333 C 5171.62 -2.85636 2.18953 0
M  V30 54334 C 5171.23 -2.56568 3.67256 0
M  V30 54335 C 5172.97 -3.63659 2.18981 0
M  V30 54336 C 5170.88 -3.7999 4.53168 0
M  V30 54337 H 5169.81 -0.594262 0.464079 0
M  V30 54338 H 5172.46 -0.917805 1.58898 0
M  V30 54339 H 5170.84 -3.53775 1.77931 0
M  V30 54340 H 5172.01 -1.96602 4.16754 0
M  V30 54341 H 5170.33 -1.91838 3.69577 0
M  V30 54342 H 5172.93 -4.55283 2.80395 0
M  V30 54343 H 5173.27 -3.99035 1.18645 0
M  V30 54344 H 5173.8 -3.02451 2.58395 0
M  V30 54345 H 5170.54 -3.49741 5.54402 0
M  V30 54346 H 5170.06 -4.39273 4.0841 0
M  V30 54347 H 5171.74 -4.47507 4.67276 0
M  V30 54348 N 5171.87 -1.17362 -1.05185 0
M  V30 54349 C 5172.83 -0.892678 -2.11102 0
M  V30 54350 C 5173.83 0.11718 -1.60372 0
M  V30 54351 O 5175.02 -0.114997 -1.7382 0
M  V30 54352 C 5172.16 -0.337151 -3.39229 0
M  V30 54353 H 5173.35 -1.83177 -2.37458 0
M  V30 54354 H 5170.9 -0.984094 -1.2143 0
M  V30 54355 H 5171.64 0.609086 -3.18529 0
M  V30 54356 H 5171.42 -1.06497 -3.7736 0
M  V30 54357 H 5172.91 -0.15891 -4.17298 0
M  V30 54358 N 5173.35 1.23909 -0.973872 0
M  V30 54359 C 5174.6 1.92433 -0.640094 0
M  V30 54360 C 5174.93 1.75878 0.82345 0
M  V30 54361 O 5174.2 1.11569 1.5932 0
M  V30 54362 C 5174.49 3.45257 -1.02322 0
M  V30 54363 C 5174.34 3.70952 -2.54391 0
M  V30 54364 C 5175.66 4.36493 -0.562309 0
M  V30 54365 H 5172.78 0.69886 -0.234016 0
M  V30 54366 H 5175.42 1.46159 -1.21398 0
M  V30 54367 H 5173.57 3.848 -0.534886 0
M  V30 54368 H 5175.24 3.4093 -3.10749 0
M  V30 54369 H 5173.48 3.15889 -2.97316 0
M  V30 54370 H 5174.16 4.77902 -2.76248 0
M  V30 54371 H 5176.63 4.04359 -0.981475 0
M  V30 54372 H 5175.51 5.42139 -0.85888 0
M  V30 54373 H 5175.77 4.3882 0.537505 0
M  V30 54374 N 5174.83 0.744729 1.38894 0
M  V30 54375 C 5175.76 0.126437 2.33157 0
M  V30 54376 C 5176.74 -0.713462 1.54414 0
M  V30 54377 O 5177.92 -0.656458 1.82768 0
M  V30 54378 C 5175.05 -0.774256 3.3856 0
M  V30 54379 C 5174.01 -0.0377709 4.27983 0
M  V30 54380 C 5173.33 -1.05613 5.24166 0
M  V30 54381 C 5174.63 1.12541 5.10031 0
M  V30 54382 H 5176.33 0.913844 2.85113 0
M  V30 54383 H 5173.87 0.440895 1.37084 0
M  V30 54384 H 5175.83 -1.21641 4.03462 0
M  V30 54385 H 5174.55 -1.59389 2.85066 0
M  V30 54386 H 5173.21 0.384861 3.64574 0
M  V30 54387 H 5172.86 -1.86958 4.66964 0
M  V30 54388 H 5172.56 -0.568056 5.84848 0
M  V30 54389 H 5174.08 -1.49778 5.91945 0
M  V30 54390 H 5175.5 0.761237 5.68224 0
M  V30 54391 H 5173.89 1.54375 5.79904 0
M  V30 54392 H 5174.96 1.94252 4.4429 0
M  V30 54393 N 5176.31 -1.49687 0.49311 0
M  V30 54394 C 5177.58 -1.95251 -0.116838 0
M  V30 54395 C 5177.96 -1.43434 -1.54887 0
M  V30 54396 O 5177.31 -0.644698 -2.19217 0
M  V30 54397 C 5177.52 -3.4898 -0.0375823 0
M  V30 54398 C 5178.87 -4.24053 -0.215472 0
M  V30 54399 O 5179.89 -3.5602 -0.113141 0
M  V30 54400 O 5178.75 -5.44848 -0.424578 0
M  V30 54401 H 5175.85 -0.820976 -0.0996332 0
M  V30 54402 H 5178.39 -1.60365 0.555086 0
M  V30 54403 H 5177.16 -3.79306 0.961384 0
M  V30 54404 H 5176.79 -3.90462 -0.75 0
M  V30 54405 N 5177.78 -0.226609 -1.55962 0
M  V30 54406 C 5178.72 0.721549 -2.16492 0
M  V30 54407 C 5179.7 1.18741 -1.11082 0
M  V30 54408 O 5180.88 1.26924 -1.39365 0
M  V30 54409 C 5178.01 1.97819 -2.74928 0
M  V30 54410 C 5177.05 1.65188 -3.93211 0
M  V30 54411 S 5177.89 0.772233 -5.29903 0
M  V30 54412 C 5179.04 2.03832 -5.9178 0
M  V30 54413 H 5179.27 0.207087 -2.96578 0
M  V30 54414 H 5176.81 -0.0112519 -1.54396 0
M  V30 54415 H 5178.77 2.69971 -3.09235 0
M  V30 54416 H 5177.43 2.46377 -1.94826 0
M  V30 54417 H 5176.62 2.58568 -4.32618 0
M  V30 54418 H 5176.22 1.01095 -3.60077 0
M  V30 54419 H 5178.51 2.98777 -6.08061 0
M  V30 54420 H 5179.46 1.68807 -6.87684 0
M  V30 54421 H 5179.86 2.18116 -5.20659 0
M  V30 54422 N 5179.26 1.57531 0.0467312 0
M  V30 54423 C 5180.5 1.90296 0.746104 0
M  V30 54424 C 5180.87 0.823255 1.73455 0
M  V30 54425 O 5182.07 1.03471 2.48087 0
M  V30 54426 C 5180.34 3.28254 1.41366 0
M  V30 54427 S 5181.9 3.8282 2.14463 0
M  V30 54428 H 5178.72 0.666504 0.247574 0
M  V30 54429 H 5181.32 1.955 0.0012827 0
M  V30 54430 H 5180.02 4.04714 0.680795 0
M  V30 54431 H 5179.55 3.2631 2.1974 0
M  V30 54432 H 5181.57 3.60123 3.41359 0
M  V30 54433 N 5180.74 -0.318661 1.54345 0
M  V30 54434 C 5181.7 -1.37538 1.83346 0
M  V30 54435 C 5182.7 -1.44497 0.705495 0
M  V30 54436 O 5183.89 -1.44439 0.973803 0
M  V30 54437 C 5181.03 -2.76218 1.9979 0
M  V30 54438 H 5182.22 -1.13075 2.77766 0
M  V30 54439 H 5179.77 -0.554406 1.46137 0
M  V30 54440 H 5180.51 -3.0593 1.07598 0
M  V30 54441 H 5180.29 -2.7256 2.81875 0
M  V30 54442 H 5181.78 -3.52656 2.23659 0
M  V30 54443 N 5182.22 -1.46501 -0.580974 0
M  V30 54444 C 5183.18 -1.56776 -1.67194 0
M  V30 54445 C 5184.18 -0.444771 -1.54526 0
M  V30 54446 O 5185.37 -0.70913 -1.59113 0
M  V30 54447 C 5182.5 -1.48971 -3.06628 0
M  V30 54448 H 5183.7 -2.54005 -1.59441 0
M  V30 54449 H 5181.25 -1.34337 -0.798956 0
M  V30 54450 H 5181.98 -0.53028 -3.19935 0
M  V30 54451 H 5181.77 -2.3045 -3.17231 0
M  V30 54452 H 5183.26 -1.5925 -3.86043 0
M  V30 54453 N 5183.7 0.825752 -1.34235 0
M  V30 54454 C 5184.63 1.95146 -1.28219 0
M  V30 54455 C 5185.61 1.69344 -0.160182 0
M  V30 54456 O 5186.79 1.90982 -0.352087 0
M  V30 54457 C 5183.92 3.3155 -1.034 0
M  V30 54458 C 5182.88 3.71786 -2.12036 0
M  V30 54459 C 5182.2 5.06141 -1.7241 0
M  V30 54460 C 5183.5 3.84181 -3.53839 0
M  V30 54461 H 5185.2 2.00438 -2.22408 0
M  V30 54462 H 5182.74 0.962958 -1.07066 0
M  V30 54463 H 5184.7 4.09885 -0.978369 0
M  V30 54464 H 5183.42 3.26551 -0.056529 0
M  V30 54465 H 5182.08 2.95723 -2.16664 0
M  V30 54466 H 5181.73 4.97626 -0.733312 0
M  V30 54467 H 5181.43 5.34033 -2.45118 0
M  V30 54468 H 5182.95 5.86937 -1.68337 0
M  V30 54469 H 5184.36 4.52794 -3.5164 0
M  V30 54470 H 5182.76 4.23523 -4.25145 0
M  V30 54471 H 5183.83 2.86259 -3.91387 0
M  V30 54472 N 5185.17 1.17918 1.04561 0
M  V30 54473 C 5186.12 0.90168 2.12458 0
M  V30 54474 C 5187.09 -0.156953 1.65357 0
M  V30 54475 O 5188.28 -0.0183823 1.90791 0
M  V30 54476 C 5185.42 0.42808 3.42435 0
M  V30 54477 C 5184.53 1.55156 4.03176 0
M  V30 54478 C 5183.66 1.03119 5.21095 0
M  V30 54479 C 5182.7 2.1297 5.73856 0
M  V30 54480 N 5181.84 1.62363 6.83069 0
M  V30 54481 H 5186.68 1.82559 2.35534 0
M  V30 54482 H 5184.22 0.91043 1.1554 0
M  V30 54483 H 5186.18 0.135005 4.16982 0
M  V30 54484 H 5184.81 -0.458865 3.19522 0
M  V30 54485 H 5183.86 1.96023 3.26005 0
M  V30 54486 H 5185.17 2.37983 4.38367 0
M  V30 54487 H 5184.32 0.692344 6.02737 0
M  V30 54488 H 5183.06 0.172442 4.87395 0
M  V30 54489 H 5182.07 2.47705 4.90839 0
M  V30 54490 H 5183.29 2.99272 6.09601 0
M  V30 54491 H 5181.24 0.787693 6.51254 0
M  V30 54492 H 5181.16 2.38792 7.17297 0
M  V30 54493 H 5182.42 1.3139 7.68347 0
M  V30 54494 N 5186.65 -1.23391 0.980429 0
M  V30 54495 C 5187.56 -2.28559 0.528944 0
M  V30 54496 C 5188.58 -1.68947 -0.416269 0
M  V30 54497 O 5189.75 -1.99356 -0.28618 0
M  V30 54498 C 5186.82 -3.46324 -0.161428 0
M  V30 54499 C 5185.88 -4.21295 0.825192 0
M  V30 54500 C 5185.11 -5.33437 0.167671 0
M  V30 54501 O 5185.34 -5.60815 -1.04126 0
M  V30 54502 O 5184.27 -5.95634 0.866256 0
M  V30 54503 H 5188.1 -2.69321 1.40356 0
M  V30 54504 H 5185.68 -1.29323 0.748065 0
M  V30 54505 H 5187.56 -4.17813 -0.548694 0
M  V30 54506 H 5186.24 -3.07513 -1.01081 0
M  V30 54507 H 5185.15 -3.52129 1.26316 0
M  V30 54508 H 5186.48 -4.63955 1.64338 0
M  V30 54509 N 5188.13 -0.752084 -1.38497 0
M  V30 54510 C 5189.06 -0.1388 -2.33087 0
M  V30 54511 C 5190.04 0.705263 -1.5479 0
M  V30 54512 O 5191.23 0.646756 -1.83114 0
M  V30 54513 C 5188.36 0.756291 -3.38965 0
M  V30 54514 C 5187.31 0.0150734 -4.27997 0
M  V30 54515 C 5186.64 1.02831 -5.24719 0
M  V30 54516 C 5187.94 -1.15244 -5.09427 0
M  V30 54517 H 5189.63 -0.928952 -2.84624 0
M  V30 54518 H 5187.18 -0.448159 -1.36849 0
M  V30 54519 H 5189.13 1.19499 -4.04101 0
M  V30 54520 H 5187.85 1.57875 -2.85908 0
M  V30 54521 H 5186.51 -0.40419 -3.64365 0
M  V30 54522 H 5186.16 1.84479 -4.67949 0
M  V30 54523 H 5185.86 0.537032 -5.85141 0
M  V30 54524 H 5187.38 1.46636 -5.92731 0
M  V30 54525 H 5188.8 -0.79136 -5.67812 0
M  V30 54526 H 5187.2 -1.57449 -5.79077 0
M  V30 54527 H 5188.27 -1.96606 -4.43254 0
M  V30 54528 N 5189.61 1.49423 -0.501041 0
M  V30 54529 C 5190.54 2.31972 0.266694 0
M  V30 54530 C 5191.52 1.40249 0.962513 0
M  V30 54531 O 5192.71 1.69157 0.953908 0
M  V30 54532 C 5189.84 3.20761 1.33152 0
M  V30 54533 C 5188.79 4.21278 0.755572 0
M  V30 54534 C 5188.12 4.99004 1.92092 0
M  V30 54535 C 5189.42 5.21685 -0.253396 0
M  V30 54536 H 5191.11 2.96406 -0.422341 0
M  V30 54537 H 5188.66 1.4254 -0.204555 0
M  V30 54538 H 5190.61 3.77322 1.87633 0
M  V30 54539 H 5189.33 2.5427 2.04974 0
M  V30 54540 H 5187.99 3.65862 0.232508 0
M  V30 54541 H 5187.64 4.2896 2.62682 0
M  V30 54542 H 5187.34 5.67017 1.54162 0
M  V30 54543 H 5188.86 5.58409 2.47006 0
M  V30 54544 H 5190.28 5.72939 0.203281 0
M  V30 54545 H 5188.67 5.97588 -0.548532 0
M  V30 54546 H 5189.74 4.70591 -1.16926 0
M  V30 54547 N 5191.09 0.234877 1.5584 0
M  V30 54548 C 5192.02 -0.70227 2.18176 0
M  V30 54549 C 5193.03 -1.14772 1.15461 0
M  V30 54550 O 5194.22 -1.07657 1.4238 0
M  V30 54551 C 5191.32 -1.96474 2.76136 0
M  V30 54552 C 5190.49 -1.67269 4.04153 0
M  V30 54553 C 5189.55 -2.78354 4.46548 0
M  V30 54554 O 5188.58 -2.46254 5.13174 0
M  V30 54555 N 5189.78 -4.07597 4.13334 0
M  V30 54556 H 5192.55 -0.168969 2.99223 0
M  V30 54557 H 5190.11 0.0543733 1.61809 0
M  V30 54558 H 5192.1 -2.70006 3.01462 0
M  V30 54559 H 5190.67 -2.40815 1.99316 0
M  V30 54560 H 5189.89 -0.773142 3.86544 0
M  V30 54561 H 5191.18 -1.45204 4.8764 0
M  V30 54562 H 5190.58 -4.36514 3.59822 0
M  V30 54563 H 5189.13 -4.77631 4.43522 0
M  V30 54564 N 5192.57 -1.57553 -0.0383763 0
M  V30 54565 C 5193.51 -2.07024 -1.06036 0
M  V30 54566 C 5194.51 -0.982126 -1.38024 0
M  V30 54567 O 5195.71 -1.16707 -1.37038 0
M  V30 54568 H 5192.09 -0.660535 -0.35944 0
M  V30 54569 H 5194.06 -2.91946 -0.617236 0
M  V30 54570 C 5192.81 -2.55743 -2.35565 0
M  V30 54571 H 5192.13 -3.39082 -2.1181 0
M  V30 54572 H 5193.57 -2.94077 -3.05442 0
M  V30 54573 C 5192.03 -1.4546 -3.0388 0
M  V30 54574 O 5192.56 -0.81554 -3.93334 0
M  V30 54575 N 5190.77 -1.19143 -2.65053 0
M  V30 54576 H 5190.31 -1.71294 -1.92395 0
M  V30 54577 H 5190.27 -0.455664 -3.1108 0
M  V30 54578 N 5194.04 0.310471 -1.54512 0
M  V30 54579 C 5195.29 1.04478 -1.72999 0
M  V30 54580 C 5195.61 1.88116 -0.513545 0
M  V30 54581 O 5194.88 1.90121 0.472317 0
M  V30 54582 H 5193.46 0.388724 -0.637889 0
M  V30 54583 H 5196.12 0.343743 -1.91845 0
M  V30 54584 H 5195.22 1.70332 -2.61521 0
M  V30 54585 N 5195.52 1.46807 0.573196 0
M  V30 54586 C 5196.45 1.52614 1.69659 0
M  V30 54587 C 5197.43 0.379482 1.5811 0
M  V30 54588 O 5198.62 0.585001 1.79193 0
M  V30 54589 C 5195.74 1.41365 3.07788 0
M  V30 54590 C 5194.79 2.60332 3.3783 0
M  V30 54591 S 5195.62 4.22633 3.28848 0
M  V30 54592 C 5196.78 4.1391 4.69499 0
M  V30 54593 H 5197.01 2.47659 1.64476 0
M  V30 54594 H 5194.54 1.34809 0.752722 0
M  V30 54595 H 5196.5 1.35563 3.8747 0
M  V30 54596 H 5195.16 0.477322 3.10452 0
M  V30 54597 H 5194.36 2.48481 4.38489 0
M  V30 54598 H 5193.96 2.63174 2.65735 0
M  V30 54599 H 5196.25 3.81178 5.60098 0
M  V30 54600 H 5197.19 5.14601 4.86407 0
M  V30 54601 H 5197.6 3.45014 4.46795 0
M  V30 54602 N 5197 -0.818622 1.34671 0
M  V30 54603 C 5197.95 -1.95119 1.26615 0
M  V30 54604 C 5198.94 -1.6861 0.163407 0
M  V30 54605 O 5200.15 -1.76974 0.328648 0
M  V30 54606 H 5196.52 -0.640858 0.393453 0
M  V30 54607 H 5198.49 -1.99035 2.22323 0
M  V30 54608 C 5197.24 -3.31693 1.04283 0
M  V30 54609 H 5196.57 -3.52641 1.88372 0
M  V30 54610 H 5198.01 -4.11378 1.02684 0
M  V30 54611 C 5196.46 -3.35943 -0.25374 0
M  V30 54612 O 5196.99 -3.81637 -1.25365 0
M  V30 54613 N 5195.2 -2.89166 -0.288345 0
M  V30 54614 H 5194.75 -2.52174 0.525934 0
M  V30 54615 H 5194.71 -2.92392 -1.15562 0
M  V30 54616 N 5198.48 -1.18471 -1.03934 0
M  V30 54617 C 5199.73 -0.978958 -1.76807 0
M  V30 54618 C 5200.05 0.492503 -1.88678 0
M  V30 54619 O 5199.32 1.35715 -1.41274 0
M  V30 54620 H 5197.9 -0.359224 -0.654956 0
M  V30 54621 H 5200.56 -1.49177 -1.25428 0
M  V30 54622 H 5199.65 -1.4181 -2.78022 0
M  V30 54623 N 5199.96 1.22869 -0.986959 0
M  V30 54624 C 5201.37 1.43591 -0.696683 0
M  V30 54625 C 5201.57 1.87624 0.734804 0
M  V30 54626 O 5200.63 2.02638 1.50645 0
M  V30 54627 C 5201.94 2.48225 -1.6972 0
M  V30 54628 C 5203.49 2.62031 -1.71198 0
M  V30 54629 C 5203.96 3.69881 -2.70097 0
M  V30 54630 N 5205.45 3.77331 -2.68655 0
M  V30 54631 C 5206.19 4.60358 -3.41845 0
M  V30 54632 N 5205.69 5.47423 -4.24617 0
M  V30 54633 N 5207.48 4.54614 -3.30579 0
M  V30 54634 H 5199.63 0.925915 -1.91156 0
M  V30 54635 H 5201.89 0.468631 -0.824069 0
M  V30 54636 H 5201.6 2.22803 -2.72125 0
M  V30 54637 H 5201.47 3.46726 -1.48529 0
M  V30 54638 H 5203.86 2.86801 -0.694938 0
M  V30 54639 H 5203.94 1.63825 -1.96456 0
M  V30 54640 H 5203.58 3.45859 -3.71946 0
M  V30 54641 H 5203.51 4.67644 -2.4211 0
M  V30 54642 H 5206.01 3.15117 -2.0859 0
M  V30 54643 H 5206.32 6.07783 -4.77304 0
M  V30 54644 H 5204.66 5.47025 -4.28706 0
M  V30 54645 H 5207.85 3.85618 -2.65361 0
M  V30 54646 H 5208.03 5.1909 -3.87879 0
M  V30 54647 N 5201.43 0.759419 1.38096 0
M  V30 54648 C 5202.66 0.329183 2.04265 0
M  V30 54649 C 5203.08 -1.04447 1.57278 0
M  V30 54650 O 5202.43 -1.66446 0.748456 0
M  V30 54651 C 5202.48 0.349319 3.59808 0
M  V30 54652 O 5202.21 1.66877 4.05072 0
M  V30 54653 C 5203.71 -0.0940548 4.432 0
M  V30 54654 H 5200.93 0.139733 0.656289 0
M  V30 54655 H 5203.47 1.0299 1.76673 0
M  V30 54656 H 5201.63 -0.30271 3.86216 0
M  V30 54657 H 5202.04 1.59894 4.99534 0
M  V30 54658 H 5203.51 -0.0288063 5.51992 0
M  V30 54659 H 5203.99 -1.14275 4.24073 0
M  V30 54660 H 5204.6 0.529319 4.21993 0
M  V30 54661 N 5202.91 -1.49156 0.508959 0
M  V30 54662 C 5204.16 -2.0167 -0.0346145 0
M  V30 54663 C 5204.47 -1.39307 -1.37306 0
M  V30 54664 O 5205.68 -1.83196 -2.00378 0
M  V30 54665 C 5204.14 -3.59725 -0.112135 0
M  V30 54666 C 5203.74 -4.31064 1.22014 0
M  V30 54667 C 5205.49 -4.20157 -0.60565 0
M  V30 54668 C 5203.39 -5.80997 1.10435 0
M  V30 54669 H 5202.32 -0.753815 -0.016709 0
M  V30 54670 H 5204.98 -1.71618 0.649578 0
M  V30 54671 H 5203.36 -3.86528 -0.860951 0
M  V30 54672 H 5204.53 -4.15955 1.98288 0
M  V30 54673 H 5202.85 -3.82412 1.64772 0
M  V30 54674 H 5205.44 -5.29966 -0.709916 0
M  V30 54675 H 5205.79 -3.84057 -1.60642 0
M  V30 54676 H 5206.32 -3.97705 0.0868637 0
M  V30 54677 H 5203.06 -6.21636 2.07963 0
M  V30 54678 H 5202.58 -5.98578 0.382639 0
M  V30 54679 H 5204.26 -6.42204 0.786342 0
M  V30 54680 N 5204.39 -0.243138 -1.55713 0
M  V30 54681 C 5205.32 0.652257 -2.24205 0
M  V30 54682 C 5206.3 1.18426 -1.22104 0
M  V30 54683 O 5207.49 1.22429 -1.50747 0
M  V30 54684 C 5204.62 1.851 -2.93863 0
M  V30 54685 C 5203.57 1.45194 -4.0262 0
M  V30 54686 C 5202.9 2.73121 -4.59684 0
M  V30 54687 C 5204.2 0.625806 -5.18537 0
M  V30 54688 H 5205.89 0.0811451 -2.9929 0
M  V30 54689 H 5203.44 0.0375882 -1.43951 0
M  V30 54690 H 5205.39 2.48302 -3.40476 0
M  V30 54691 H 5204.11 2.44743 -2.1626 0
M  V30 54692 H 5202.77 0.843281 -3.56769 0
M  V30 54693 H 5202.42 3.30954 -3.78786 0
M  V30 54694 H 5202.12 2.47144 -5.33098 0
M  V30 54695 H 5203.64 3.37227 -5.09029 0
M  V30 54696 H 5205.06 1.16203 -5.614 0
M  V30 54697 H 5203.46 0.462254 -5.98317 0
M  V30 54698 H 5204.53 -0.362822 -4.83541 0
M  V30 54699 N 5205.87 1.57571 0.0300203 0
M  V30 54700 C 5207.12 1.88855 0.7196 0
M  V30 54701 C 5207.44 0.840707 1.75946 0
M  V30 54702 O 5206.71 -0.125786 1.95496 0
M  V30 54703 H 5205.29 0.696974 0.268768 0
M  V30 54704 H 5207.95 1.949 -0.00380137 0
M  V30 54705 H 5207.05 2.877 1.20977 0
M  V30 54706 N 5207.35 -0.302273 1.54674 0
M  V30 54707 C 5208.57 -1.06096 1.78209 0
M  V30 54708 C 5209 -1.80202 0.539323 0
M  V30 54709 O 5208.35 -1.73977 -0.510081 0
M  V30 54710 C 5208.4 -2.01819 2.98834 0
M  V30 54711 O 5207.51 -3.10098 2.71869 0
M  V30 54712 H 5206.85 -0.304849 0.589884 0
M  V30 54713 H 5209.38 -0.340082 2.01754 0
M  V30 54714 H 5209.39 -2.44308 3.26769 0
M  V30 54715 H 5208.06 -1.47286 3.88947 0
M  V30 54716 H 5206.64 -2.72133 2.54947 0
M  V30 54717 N 5208.82 -1.47109 -0.565403 0
M  V30 54718 C 5210.05 -1.56914 -1.34855 0
M  V30 54719 C 5210.47 -0.216378 -1.87556 0
M  V30 54720 O 5209.82 0.78911 -1.64558 0
M  V30 54721 C 5209.88 -2.58785 -2.52414 0
M  V30 54722 O 5209.6 -3.88807 -2.01892 0
M  V30 54723 C 5211.1 -2.78695 -3.44737 0
M  V30 54724 H 5208.32 -0.530111 -0.411368 0
M  V30 54725 H 5210.86 -1.92661 -0.685714 0
M  V30 54726 H 5209.02 -2.25994 -3.14652 0
M  V30 54727 H 5209.43 -4.44403 -2.78579 0
M  V30 54728 H 5210.9 -3.53857 -4.23662 0
M  V30 54729 H 5211.38 -1.86222 -3.97766 0
M  V30 54730 H 5211.99 -3.12651 -2.88322 0
M  V30 54731 N 5210.3 0.811468 -1.35103 0
M  V30 54732 C 5211.55 1.56339 -1.27441 0
M  V30 54733 C 5211.86 1.95019 0.150628 0
M  V30 54734 O 5213.07 2.69241 0.349491 0
M  V30 54735 C 5211.53 2.82116 -2.23469 0
M  V30 54736 C 5211.13 2.50692 -3.71291 0
M  V30 54737 C 5212.88 3.60129 -2.24738 0
M  V30 54738 C 5210.79 3.72732 -4.59156 0
M  V30 54739 H 5209.72 0.586804 -0.473474 0
M  V30 54740 H 5212.37 0.892409 -1.60338 0
M  V30 54741 H 5210.75 3.50899 -1.83537 0
M  V30 54742 H 5211.92 1.89947 -4.19829 0
M  V30 54743 H 5210.24 1.85934 -3.72582 0
M  V30 54744 H 5212.83 4.50765 -2.87602 0
M  V30 54745 H 5213.18 3.97097 -1.24979 0
M  V30 54746 H 5213.71 2.98302 -2.63174 0
M  V30 54747 H 5210.45 3.40877 -5.59896 0
M  V30 54748 H 5209.97 4.3272 -4.15347 0
M  V30 54749 H 5211.65 4.40016 -4.74336 0
M  V30 54750 N 5211.78 1.19021 1.03304 0
M  V30 54751 C 5212.71 0.947795 2.13399 0
M  V30 54752 C 5213.69 -0.117323 1.69695 0
M  V30 54753 O 5214.88 0.0368415 1.94165 0
M  V30 54754 C 5212.01 0.481098 3.43952 0
M  V30 54755 C 5210.96 1.48757 4.01317 0
M  V30 54756 C 5210.29 0.87811 5.2744 0
M  V30 54757 C 5211.59 2.86657 4.36606 0
M  V30 54758 H 5213.28 1.86854 2.33936 0
M  V30 54759 H 5210.83 0.899821 1.12424 0
M  V30 54760 H 5212.78 0.298825 4.20339 0
M  V30 54761 H 5211.5 -0.475234 3.23124 0
M  V30 54762 H 5210.16 1.65692 3.27019 0
M  V30 54763 H 5209.81 -0.0856464 5.02927 0
M  V30 54764 H 5209.51 1.55016 5.66784 0
M  V30 54765 H 5211.03 0.706539 6.06498 0
M  V30 54766 H 5212.45 2.7333 5.03948 0
M  V30 54767 H 5210.85 3.50616 4.8702 0
M  V30 54768 H 5211.92 3.39629 3.46093 0
M  V30 54769 N 5213.26 -1.22344 0.993461 0
M  V30 54770 C 5214.17 -2.27985 0.553156 0
M  V30 54771 C 5215.18 -1.69379 -0.398327 0
M  V30 54772 O 5216.36 -1.99649 -0.26502 0
M  V30 54773 C 5213.43 -3.46476 -0.124687 0
M  V30 54774 C 5212.49 -4.20396 0.86983 0
M  V30 54775 C 5211.72 -5.33229 0.224239 0
M  V30 54776 O 5211.94 -5.61888 -0.981718 0
M  V30 54777 O 5210.88 -5.94682 0.929383 0
M  V30 54778 H 5214.7 -2.67817 1.43205 0
M  V30 54779 H 5212.29 -1.28522 0.761739 0
M  V30 54780 H 5214.17 -4.18371 -0.504348 0
M  V30 54781 H 5212.84 -3.08568 -0.978135 0
M  V30 54782 H 5211.75 -3.5077 1.30044 0
M  V30 54783 H 5213.08 -4.62185 1.6925 0
M  V30 54784 N 5214.74 -0.766732 -1.37692 0
M  V30 54785 C 5216.01 -0.253729 -1.93947 0
M  V30 54786 C 5216.39 1.25035 -1.70086 0
M  V30 54787 O 5215.74 2.03111 -1.04681 0
M  V30 54788 C 5215.95 -0.62167 -3.43418 0
M  V30 54789 C 5217.3 -0.588652 -4.205 0
M  V30 54790 O 5218.32 -0.560755 -3.51758 0
M  V30 54791 O 5217.18 -0.611261 -5.43071 0
M  V30 54792 H 5214.28 -0.0570876 -0.825027 0
M  V30 54793 H 5216.82 -0.847744 -1.47008 0
M  V30 54794 H 5215.59 -1.65992 -3.54348 0
M  V30 54795 H 5215.22 -0.000336803 -3.976 0
M  V30 54796 N 5216.21 1.48884 -0.516862 0
M  V30 54797 C 5217.12 2.33186 0.257211 0
M  V30 54798 C 5218.14 1.45653 0.9519 0
M  V30 54799 O 5219.32 1.78654 0.929771 0
M  V30 54800 C 5216.38 3.21469 1.2984 0
M  V30 54801 C 5215.44 4.24865 0.615459 0
M  V30 54802 C 5214.68 5.0893 1.60704 0
M  V30 54803 O 5214.9 4.9476 2.83846 0
M  V30 54804 O 5213.83 5.90741 1.15364 0
M  V30 54805 H 5217.66 3.00594 -0.433236 0
M  V30 54806 H 5215.24 1.46792 -0.27796 0
M  V30 54807 H 5217.13 3.76115 1.90041 0
M  V30 54808 H 5215.8 2.56737 1.97149 0
M  V30 54809 H 5214.71 3.7409 -0.0267144 0
M  V30 54810 H 5216.04 4.92198 -0.0154602 0
M  V30 54811 N 5217.69 0.251393 1.55582 0
M  V30 54812 C 5218.94 -0.372099 1.99052 0
M  V30 54813 C 5219.27 -1.57619 1.13958 0
M  V30 54814 O 5218.52 -1.94761 0.191467 0
M  V30 54815 C 5218.82 -0.821063 3.47841 0
M  V30 54816 C 5218.49 0.275767 4.50056 0
M  V30 54817 C 5217.15 0.576998 4.77728 0
M  V30 54818 C 5219.5 1.01603 5.11201 0
M  V30 54819 C 5216.83 1.62249 5.63819 0
M  V30 54820 C 5219.18 2.05108 5.98426 0
M  V30 54821 C 5217.85 2.35891 6.24429 0
M  V30 54822 H 5217.12 -0.136161 0.728383 0
M  V30 54823 H 5219.76 0.360155 1.88083 0
M  V30 54824 H 5218.07 -1.6326 3.56165 0
M  V30 54825 H 5219.76 -1.31383 3.78866 0
M  V30 54826 H 5216.35 0.0308476 4.28589 0
M  V30 54827 H 5220.54 0.796562 4.89866 0
M  V30 54828 H 5215.79 1.86628 5.8222 0
M  V30 54829 H 5219.97 2.62957 6.44846 0
M  V30 54830 H 5217.6 3.17042 6.90933 0
M  V30 54831 N 5219.17 -1.57585 -0.0216635 0
M  V30 54832 C 5220.4 -1.93873 -0.722551 0
M  V30 54833 C 5220.81 -0.851765 -1.68495 0
M  V30 54834 O 5220.17 0.171207 -1.81695 0
M  V30 54835 C 5220.22 -3.30119 -1.47322 0
M  V30 54836 O 5219.94 -4.34641 -0.549444 0
M  V30 54837 C 5221.44 -3.80735 -2.27059 0
M  V30 54838 H 5218.66 -0.639678 -0.202614 0
M  V30 54839 H 5221.21 -2.04487 0.0230133 0
M  V30 54840 H 5219.36 -3.2088 -2.1706 0
M  V30 54841 H 5219.78 -5.1333 -1.07668 0
M  V30 54842 H 5221.25 -4.78556 -2.75114 0
M  V30 54843 H 5221.73 -3.12312 -3.08801 0
M  V30 54844 H 5222.33 -3.93081 -1.62381 0
M  V30 54845 N 5220.65 0.294066 -1.54832 0
M  V30 54846 C 5222.06 0.866593 -1.65369 0
M  V30 54847 C 5222.41 1.87832 -0.566876 0
M  V30 54848 O 5221.54 2.14376 0.295313 0
M  V30 54849 C 5222.13 1.57858 -2.99777 0
M  V30 54850 C 5220.69 2.09943 -3.12412 0
M  V30 54851 C 5219.84 0.9344 -2.61083 0
M  V30 54852 H 5222.79 0.0708994 -1.58542 0
M  V30 54853 H 5222.81 2.44452 -2.91588 0
M  V30 54854 H 5222.32 0.841987 -3.78856 0
M  V30 54855 H 5220.42 2.86628 -2.38065 0
M  V30 54856 H 5220.54 2.32919 -4.18671 0
M  V30 54857 H 5218.9 1.32191 -2.1771 0
M  V30 54858 H 5219.68 0.211647 -3.42647 0
M  V30 54859 N 5222.13 1.47406 0.557593 0
M  V30 54860 C 5223.37 1.54012 1.31479 0
M  V30 54861 C 5223.7 0.20223 1.93446 0
M  V30 54862 O 5222.96 -0.804838 1.78384 0
M  V30 54863 C 5223.26 2.60619 2.44566 0
M  V30 54864 C 5222.92 4.03903 2.00432 0
M  V30 54865 C 5221.58 4.42908 1.88112 0
M  V30 54866 C 5223.94 4.9381 1.66737 0
M  V30 54867 C 5221.26 5.69655 1.40391 0
M  V30 54868 C 5223.62 6.2102 1.20487 0
M  V30 54869 C 5222.28 6.58907 1.06762 0
M  V30 54870 H 5221.55 0.563569 0.481114 0
M  V30 54871 H 5224.2 1.81003 0.625312 0
M  V30 54872 H 5222.5 2.27382 3.19068 0
M  V30 54873 H 5224.2 2.62952 3.0275 0
M  V30 54874 H 5220.79 3.73085 2.10964 0
M  V30 54875 H 5224.97 4.64375 1.75128 0
M  V30 54876 H 5220.23 5.97759 1.28429 0
M  V30 54877 H 5224.4 6.90098 0.934759 0
M  V30 54878 H 5222.03 7.57011 0.695625 0
M  V30 54879 N 5223.61 -0.804292 1.35532 0
M  V30 54880 C 5224.88 -1.54855 1.19495 0
M  V30 54881 C 5225.26 -2.09898 -0.224987 0
M  V30 54882 O 5224.61 -1.92648 -1.22879 0
M  V30 54883 C 5224.82 -2.65527 2.26488 0
M  V30 54884 C 5226.17 -3.33805 2.6241 0
M  V30 54885 O 5227.19 -2.75799 2.25419 0
M  V30 54886 O 5226.05 -4.386 3.26025 0
M  V30 54887 H 5223.15 -0.684313 0.464375 0
M  V30 54888 H 5225.69 -0.844056 1.4722 0
M  V30 54889 H 5224.46 -2.22742 3.21717 0
M  V30 54890 H 5224.09 -3.4361 2.00045 0
M  V30 54891 N 5225.08 -1.19567 -1.02672 0
M  V30 54892 C 5226.33 -1.00111 -1.76368 0
M  V30 54893 C 5226.66 0.466756 -1.88507 0
M  V30 54894 O 5225.94 1.3466 -1.40346 0
M  V30 54895 C 5226.22 -1.67332 -3.18861 0
M  V30 54896 C 5226.07 -3.21497 -3.14578 0
M  V30 54897 C 5227.39 -1.39808 -4.17303 0
M  V30 54898 H 5224.51 -0.365097 -0.640213 0
M  V30 54899 H 5227.15 -1.47437 -1.19843 0
M  V30 54900 H 5225.3 -1.27094 -3.67123 0
M  V30 54901 H 5226.98 -3.70963 -2.74197 0
M  V30 54902 H 5225.22 -3.52929 -2.52237 0
M  V30 54903 H 5225.89 -3.6368 -4.1526 0
M  V30 54904 H 5228.37 -1.74698 -3.7765 0
M  V30 54905 H 5227.24 -1.89389 -5.15192 0
M  V30 54906 H 5227.5 -0.32366 -4.40914 0
M  V30 54907 N 5226.56 1.21816 -0.999936 0
M  V30 54908 C 5227.81 1.91032 -0.680768 0
M  V30 54909 C 5228.14 1.77585 0.785959 0
M  V30 54910 O 5227.42 1.14923 1.56917 0
M  V30 54911 C 5227.7 3.43009 -1.09622 0
M  V30 54912 C 5227.55 3.65472 -2.62202 0
M  V30 54913 C 5228.87 4.35202 -0.654769 0
M  V30 54914 H 5225.99 0.693739 -0.248787 0
M  V30 54915 H 5228.63 1.43551 -1.24471 0
M  V30 54916 H 5226.78 3.83579 -0.616388 0
M  V30 54917 H 5228.45 3.34261 -3.1791 0
M  V30 54918 H 5226.7 3.09511 -3.03949 0
M  V30 54919 H 5227.37 4.71935 -2.86323 0
M  V30 54920 H 5229.84 4.02186 -1.06702 0
M  V30 54921 H 5228.72 5.40195 -0.973682 0
M  V30 54922 H 5228.98 4.39862 0.444303 0
M  V30 54923 N 5228.04 0.774023 1.37283 0
M  V30 54924 C 5229.46 0.453914 1.53009 0
M  V30 54925 C 5229.66 -1.03012 1.73178 0
M  V30 54926 O 5228.71 -1.81591 1.75445 0
M  V30 54927 C 5230.02 1.27096 2.7252 0
M  V30 54928 C 5231.57 1.2631 2.86382 0
M  V30 54929 C 5232.05 2.06355 4.08879 0
M  V30 54930 N 5233.54 2.0372 4.15996 0
M  V30 54931 C 5234.27 2.62436 5.09819 0
M  V30 54932 N 5233.77 3.29948 6.09185 0
M  V30 54933 N 5235.56 2.52253 5.02319 0
M  V30 54934 H 5227.71 1.73555 1.22443 0
M  V30 54935 H 5229.98 0.736895 0.596397 0
M  V30 54936 H 5229.68 2.32272 2.64088 0
M  V30 54937 H 5229.56 0.901699 3.66264 0
M  V30 54938 H 5231.94 0.219317 2.94284 0
M  V30 54939 H 5232.02 1.67202 1.9359 0
M  V30 54940 H 5231.67 3.10755 4.01739 0
M  V30 54941 H 5231.6 1.62843 5.00789 0
M  V30 54942 H 5234.09 1.54571 3.44842 0
M  V30 54943 H 5234.4 3.72119 6.77309 0
M  V30 54944 H 5232.75 3.34047 6.09457 0
M  V30 54945 H 5235.94 1.99123 4.23636 0
M  V30 54946 H 5236.11 2.98306 5.75254 0
M  V30 54947 N 5229.52 -1.48607 0.52475 0
M  V30 54948 C 5230.45 -2.27509 -0.27792 0
M  V30 54949 C 5231.46 -1.35045 -0.90921 0
M  V30 54950 O 5232.65 -1.60139 -0.788535 0
M  V30 54951 C 5229.75 -3.08252 -1.40832 0
M  V30 54952 C 5228.92 -4.28458 -0.879933 0
M  V30 54953 C 5227.98 -4.91054 -1.89082 0
M  V30 54954 O 5227.01 -5.50425 -1.44985 0
M  V30 54955 N 5228.21 -4.82827 -3.22271 0
M  V30 54956 H 5230.98 -2.97036 0.398747 0
M  V30 54957 H 5228.54 -1.57875 0.358754 0
M  V30 54958 H 5230.53 -3.46999 -2.08264 0
M  V30 54959 H 5229.1 -2.4118 -1.98874 0
M  V30 54960 H 5228.32 -3.94189 -0.0297843 0
M  V30 54961 H 5229.61 -5.06281 -0.505703 0
M  V30 54962 H 5229.01 -4.35733 -3.60767 0
M  V30 54963 H 5227.56 -5.25689 -3.85349 0
M  V30 54964 N 5231 -0.25964 -1.55447 0
M  V30 54965 C 5232.24 0.362918 -2.01152 0
M  V30 54966 C 5232.6 1.54197 -1.14399 0
M  V30 54967 O 5233.8 2.23312 -1.49616 0
M  V30 54968 C 5232.07 0.750276 -3.49436 0
M  V30 54969 S 5233.63 1.36156 -4.17142 0
M  V30 54970 H 5230.45 0.113626 -0.701862 0
M  V30 54971 H 5233.05 -0.377856 -1.91814 0
M  V30 54972 H 5231.75 -0.116951 -4.10233 0
M  V30 54973 H 5231.29 1.52291 -3.62727 0
M  V30 54974 H 5233.3 2.65044 -4.19483 0
M  V30 54975 N 5232.47 1.57594 0.0133061 0
M  V30 54976 C 5233.7 1.94652 0.715928 0
M  V30 54977 C 5234.12 0.860845 1.67246 0
M  V30 54978 O 5233.48 -0.182165 1.80383 0
M  V30 54979 C 5233.53 3.30794 1.43554 0
M  V30 54980 O 5232.63 3.24157 2.54943 0
M  V30 54981 H 5231.97 0.635808 0.191426 0
M  V30 54982 H 5234.5 2.04568 -0.0359197 0
M  V30 54983 H 5234.51 3.66051 1.80195 0
M  V30 54984 H 5233.19 4.0937 0.734119 0
M  V30 54985 H 5231.77 3.00555 2.20728 0
M  V30 54986 N 5233.95 -0.28585 1.54986 0
M  V30 54987 C 5235.2 -1.01712 1.7464 0
M  V30 54988 C 5235.52 -1.87275 0.543408 0
M  V30 54989 O 5234.79 -1.90848 -0.442011 0
M  V30 54990 H 5233.37 -0.378527 0.643993 0
M  V30 54991 H 5236.03 -0.313179 1.92367 0
M  V30 54992 H 5235.13 -1.6615 2.64198 0
M  V30 54993 N 5235.43 -1.477 -0.549768 0
M  V30 54994 C 5236.68 -1.54936 -1.30854 0
M  V30 54995 C 5237.01 -0.214089 -1.93016 0
M  V30 54996 O 5236.28 0.778031 -1.78261 0
M  V30 54997 C 5236.57 -2.67295 -2.413 0
M  V30 54998 C 5236.42 -4.10463 -1.83957 0
M  V30 54999 C 5237.74 -2.75521 -3.43186 0
M  V30 55000 H 5234.86 -0.564006 -0.474411 0
M  V30 55001 H 5237.5 -1.79789 -0.614478 0
M  V30 55002 H 5235.65 -2.46234 -3.00501 0
M  V30 55003 H 5237.32 -4.42908 -1.28959 0
M  V30 55004 H 5235.57 -4.18391 -1.14592 0
M  V30 55005 H 5236.24 -4.84867 -2.63834 0
M  V30 55006 H 5238.71 -2.94541 -2.93913 0
M  V30 55007 H 5237.59 -3.55901 -4.17883 0
M  V30 55008 H 5237.85 -1.82877 -4.02503 0
M  V30 55009 N 5236.91 0.797093 -1.35957 0
M  V30 55010 C 5238.14 1.58576 -1.32896 0
M  V30 55011 C 5238.55 1.88578 0.0914901 0
M  V30 55012 O 5237.91 1.49536 1.0462 0
M  V30 55013 C 5237.96 2.91136 -2.14295 0
M  V30 55014 O 5237.68 2.6243 -3.50802 0
M  V30 55015 C 5239.18 3.85468 -2.18928 0
M  V30 55016 H 5236.4 0.492095 -0.456162 0
M  V30 55017 H 5238.95 0.989877 -1.78946 0
M  V30 55018 H 5237.1 3.47213 -1.7182 0
M  V30 55019 H 5237.51 3.47136 -3.93188 0
M  V30 55020 H 5238.99 4.75564 -2.80255 0
M  V30 55021 H 5239.47 4.22754 -1.19061 0
M  V30 55022 H 5240.07 3.35325 -2.61605 0
M  V30 55023 N 5238.39 1.2011 1.02036 0
M  V30 55024 C 5239.63 1.00896 1.75574 0
M  V30 55025 C 5239.96 -0.459349 1.88998 0
M  V30 55026 O 5239.22 -1.3573 1.40982 0
M  V30 55027 C 5239.52 1.63319 3.17902 0
M  V30 55028 C 5239.18 3.13103 3.24465 0
M  V30 55029 C 5237.84 3.53979 3.25963 0
M  V30 55030 C 5240.2 4.09104 3.22929 0
M  V30 55031 C 5237.52 4.89392 3.23593 0
M  V30 55032 C 5239.88 5.44458 3.221 0
M  V30 55033 C 5238.54 5.84754 3.219 0
M  V30 55034 H 5237.81 0.369203 0.642472 0
M  V30 55035 H 5240.46 1.49479 1.197 0
M  V30 55036 H 5238.76 1.06987 3.7691 0
M  V30 55037 H 5240.46 1.45971 3.73488 0
M  V30 55038 H 5237.05 2.80537 3.24032 0
M  V30 55039 H 5241.23 3.7856 3.20945 0
M  V30 55040 H 5236.49 5.19881 3.21767 0
M  V30 55041 H 5240.66 6.18596 3.19863 0
M  V30 55042 H 5238.29 6.89653 3.19817 0
M  V30 55043 N 5239.86 -1.21284 1.00638 0
M  V30 55044 C 5240.8 -2.23079 0.526172 0
M  V30 55045 C 5241.81 -1.58158 -0.385976 0
M  V30 55046 O 5243 -1.77529 -0.185954 0
M  V30 55047 C 5240.1 -3.37938 -0.255171 0
M  V30 55048 C 5239.27 -4.32447 0.656388 0
M  V30 55049 C 5238.33 -5.26146 -0.0755865 0
M  V30 55050 O 5237.36 -5.66599 0.543525 0
M  V30 55051 N 5238.56 -5.64495 -1.35371 0
M  V30 55052 H 5241.32 -2.64908 1.40156 0
M  V30 55053 H 5238.88 -1.35721 0.882689 0
M  V30 55054 H 5240.88 -3.97617 -0.753838 0
M  V30 55055 H 5239.45 -2.95082 -1.03176 0
M  V30 55056 H 5238.67 -3.70887 1.33553 0
M  V30 55057 H 5239.95 -4.92522 1.2767 0
M  V30 55058 H 5239.35 -5.33624 -1.87781 0
M  V30 55059 H 5237.91 -6.2653 -1.79731 0
M  V30 55060 N 5241.34 -0.781292 -1.36871 0
M  V30 55061 C 5242.59 -0.349268 -1.99059 0
M  V30 55062 C 5242.91 1.08054 -1.62325 0
M  V30 55063 O 5242.18 1.74348 -0.89329 0
M  V30 55064 H 5240.76 -0.126152 -0.736271 0
M  V30 55065 H 5243.42 -1.00153 -1.67198 0
M  V30 55066 H 5242.52 -0.43456 -3.0906 0
M  V30 55067 N 5242.82 1.48327 -0.532624 0
M  V30 55068 C 5243.77 2.29664 0.228699 0
M  V30 55069 C 5244.74 1.37532 0.931352 0
M  V30 55070 O 5245.92 1.66496 0.931863 0
M  V30 55071 C 5243.06 3.2096 1.26803 0
M  V30 55072 C 5242.18 4.2817 0.573948 0
M  V30 55073 C 5241.31 5.06643 1.59644 0
M  V30 55074 C 5240.35 6.05654 0.885967 0
M  V30 55075 N 5239.49 6.77176 1.85412 0
M  V30 55076 H 5244.33 2.94253 -0.471083 0
M  V30 55077 H 5241.86 1.4506 -0.244151 0
M  V30 55078 H 5243.82 3.72292 1.88294 0
M  V30 55079 H 5242.45 2.58288 1.93616 0
M  V30 55080 H 5241.5 3.80084 -0.154961 0
M  V30 55081 H 5242.82 4.98797 0.0162231 0
M  V30 55082 H 5241.97 5.62003 2.28556 0
M  V30 55083 H 5240.71 4.35862 2.18806 0
M  V30 55084 H 5239.71 5.49496 0.182788 0
M  V30 55085 H 5240.94 6.78435 0.30042 0
M  V30 55086 H 5238.88 6.09143 2.43478 0
M  V30 55087 H 5238.8 7.43887 1.3479 0
M  V30 55088 H 5240.07 7.37123 2.53515 0
M  V30 55089 N 5244.3 0.26788 1.55307 0
M  V30 55090 C 5245.55 -0.350966 1.99435 0
M  V30 55091 C 5245.87 -1.56402 1.15623 0
M  V30 55092 O 5245.13 -1.94547 0.212113 0
M  V30 55093 C 5245.43 -0.784124 3.48692 0
M  V30 55094 C 5245.09 0.323486 4.49738 0
M  V30 55095 C 5243.76 0.627635 4.77089 0
M  V30 55096 C 5246.11 1.0702 5.10094 0
M  V30 55097 C 5243.44 1.6822 5.62067 0
M  V30 55098 C 5245.79 2.11443 5.96217 0
M  V30 55099 C 5244.45 2.42501 6.21892 0
M  V30 55100 H 5243.72 -0.128427 0.729786 0
M  V30 55101 H 5246.37 0.380084 1.8769 0
M  V30 55102 H 5244.67 -1.59473 3.57877 0
M  V30 55103 H 5246.37 -1.27357 3.80238 0
M  V30 55104 H 5242.96 0.0763035 4.28532 0
M  V30 55105 H 5247.14 0.848474 4.88993 0
M  V30 55106 H 5242.4 1.92792 5.80208 0
M  V30 55107 H 5246.57 2.69782 6.42021 0
M  V30 55108 H 5244.2 3.24352 6.87532 0
M  V30 55109 N 5245.78 -1.57599 -0.00494828 0
M  V30 55110 C 5246.72 -2.08109 -0.997952 0
M  V30 55111 C 5247.69 -0.975422 -1.34442 0
M  V30 55112 O 5248.88 -1.24754 -1.44365 0
M  V30 55113 C 5246.02 -2.58504 -2.28626 0
M  V30 55114 C 5245.13 -3.82954 -1.99925 0
M  V30 55115 C 5244.27 -4.21868 -3.22801 0
M  V30 55116 C 5243.31 -5.39169 -2.89764 0
M  V30 55117 N 5242.44 -5.734 -4.05163 0
M  V30 55118 H 5247.28 -2.92686 -0.560282 0
M  V30 55119 H 5244.82 -1.44693 -0.265002 0
M  V30 55120 H 5246.78 -2.85798 -3.03933 0
M  V30 55121 H 5245.41 -1.76809 -2.70071 0
M  V30 55122 H 5244.46 -3.62598 -1.15008 0
M  V30 55123 H 5245.77 -4.68364 -1.71571 0
M  V30 55124 H 5244.93 -4.50419 -4.06458 0
M  V30 55125 H 5243.66 -3.35158 -3.54289 0
M  V30 55126 H 5242.67 -5.10347 -2.04514 0
M  V30 55127 H 5243.89 -6.27552 -2.59529 0
M  V30 55128 H 5241.84 -4.89647 -4.36556 0
M  V30 55129 H 5241.76 -6.53373 -3.80316 0
M  V30 55130 H 5243.03 -6.06539 -4.89623 0
M  V30 55131 N 5247.25 0.277627 -1.55135 0
M  V30 55132 C 5248.2 1.34306 -1.87698 0
M  V30 55133 C 5249.17 1.49295 -0.728026 0
M  V30 55134 O 5250.36 1.63777 -0.978864 0
M  V30 55135 C 5247.5 2.69914 -2.15035 0
M  V30 55136 C 5246.61 2.63185 -3.42575 0
M  V30 55137 C 5245.74 3.90942 -3.59636 0
M  V30 55138 C 5244.78 3.78705 -4.80884 0
M  V30 55139 N 5243.92 4.98286 -4.94627 0
M  V30 55140 H 5248.76 1.05837 -2.78572 0
M  V30 55141 H 5246.3 0.511421 -1.37924 0
M  V30 55142 H 5248.26 3.48809 -2.28884 0
M  V30 55143 H 5246.89 2.96596 -1.27401 0
M  V30 55144 H 5245.94 1.76026 -3.37222 0
M  V30 55145 H 5247.25 2.50041 -4.31603 0
M  V30 55146 H 5246.4 4.78277 -3.73277 0
M  V30 55147 H 5245.14 4.06948 -2.68784 0
M  V30 55148 H 5244.15 2.89752 -4.67251 0
M  V30 55149 H 5245.37 3.64222 -5.73166 0
M  V30 55150 H 5243.32 5.14711 -4.06705 0
M  V30 55151 H 5243.24 4.87655 -5.77693 0
M  V30 55152 H 5244.5 5.87207 -5.12649 0
M  V30 55153 N 5248.73 1.4799 0.541927 0
M  V30 55154 C 5249.98 1.54654 1.2948 0
M  V30 55155 C 5250.3 0.220109 1.94358 0
M  V30 55156 O 5251.5 0.164887 2.70999 0
M  V30 55157 C 5249.96 2.72693 2.34875 0
M  V30 55158 C 5249.57 4.11929 1.7612 0
M  V30 55159 C 5251.31 2.88662 3.11247 0
M  V30 55160 C 5249.22 5.21246 2.79385 0
M  V30 55161 H 5248.15 0.575705 0.486908 0
M  V30 55162 H 5250.8 1.74298 0.573792 0
M  V30 55163 H 5249.18 2.46459 3.09958 0
M  V30 55164 H 5250.35 4.48132 1.07306 0
M  V30 55165 H 5248.67 4.00976 1.12281 0
M  V30 55166 H 5251.27 3.67501 3.88391 0
M  V30 55167 H 5251.61 1.97671 3.66377 0
M  V30 55168 H 5252.14 3.14739 2.43277 0
M  V30 55169 H 5248.88 6.14164 2.29091 0
M  V30 55170 H 5248.4 4.89545 3.46563 0
M  V30 55171 H 5250.08 5.48851 3.42595 0
M  V30 55172 N 5250.21 -0.789872 1.36377 0
M  V30 55173 C 5251.46 -1.55002 1.30775 0
M  V30 55174 C 5251.79 -1.93871 -0.112911 0
M  V30 55175 O 5251.07 -1.62673 -1.06619 0
M  V30 55176 C 5251.35 -2.8274 2.23003 0
M  V30 55177 C 5251.2 -2.5024 3.73764 0
M  V30 55178 C 5252.52 -3.84561 2.14011 0
M  V30 55179 H 5249.64 -0.562345 0.476379 0
M  V30 55180 H 5252.28 -0.907523 1.66925 0
M  V30 55181 H 5250.43 -3.37567 1.92304 0
M  V30 55182 H 5252.1 -2.01468 4.1498 0
M  V30 55183 H 5250.35 -1.8319 3.93223 0
M  V30 55184 H 5251.02 -3.41472 4.33706 0
M  V30 55185 H 5253.49 -3.3918 2.41032 0
M  V30 55186 H 5252.37 -4.7169 2.80713 0
M  V30 55187 H 5252.63 -4.27487 1.12726 0
M  V30 55188 N 5251.69 -1.20649 -1.01398 0
M  V30 55189 C 5252.64 -0.957692 -2.09993 0
M  V30 55190 C 5253.61 0.113057 -1.65715 0
M  V30 55191 O 5254.79 -0.0322091 -1.90773 0
M  V30 55192 C 5251.93 -0.51872 -3.41179 0
M  V30 55193 C 5251.04 -1.65791 -3.9892 0
M  V30 55194 C 5250.18 -1.16899 -5.18178 0
M  V30 55195 C 5249.22 -2.2811 -5.68007 0
M  V30 55196 N 5248.36 -1.80416 -6.78524 0
M  V30 55197 H 5253.2 -1.8874 -2.30611 0
M  V30 55198 H 5250.73 -0.940743 -1.13086 0
M  V30 55199 H 5252.69 -0.245513 -4.16477 0
M  V30 55200 H 5251.32 0.373988 -3.20626 0
M  V30 55201 H 5250.37 -2.04597 -3.20693 0
M  V30 55202 H 5251.68 -2.49522 -4.31903 0
M  V30 55203 H 5250.84 -0.851906 -6.00689 0
M  V30 55204 H 5249.58 -0.301605 -4.86767 0
M  V30 55205 H 5248.58 -2.60631 -4.84099 0
M  V30 55206 H 5249.81 -3.15329 -6.01452 0
M  V30 55207 H 5247.75 -0.960084 -6.48936 0
M  V30 55208 H 5247.67 -2.57726 -7.10713 0
M  V30 55209 H 5248.94 -1.51715 -7.64593 0
M  V30 55210 N 5253.17 1.20748 -1.0128 0
M  V30 55211 C 5254.42 1.89643 -0.698572 0
M  V30 55212 C 5254.74 1.78989 0.773821 0
M  V30 55213 O 5254.01 1.18982 1.55628 0
M  V30 55214 H 5252.59 0.701983 -0.255399 0
M  V30 55215 H 5255.25 1.46663 -1.28358 0
M  V30 55216 H 5254.34 2.9636 -0.978616 0
M  V30 55217 N 5254.65 0.78854 1.36454 0
M  V30 55218 C 5255.87 0.372436 2.0352 0
M  V30 55219 C 5256.29 -1.01087 1.59458 0
M  V30 55220 O 5255.65 -1.64821 0.783593 0
M  V30 55221 C 5255.7 0.425561 3.58986 0
M  V30 55222 O 5255.42 1.75432 4.01442 0
M  V30 55223 C 5256.92 -2.43248e-05 4.433 0
M  V30 55224 H 5254.14 0.153623 0.653178 0
M  V30 55225 H 5256.68 1.06714 1.74449 0
M  V30 55226 H 5254.84 -0.22072 3.86771 0
M  V30 55227 H 5255.25 1.70454 4.9603 0
M  V30 55228 H 5256.73 0.0882859 5.51929 0
M  V30 55229 H 5257.2 -1.05254 4.26401 0
M  V30 55230 H 5257.81 0.618711 4.20776 0
M  V30 55231 N 5256.12 -1.48042 0.540482 0
M  V30 55232 C 5257.07 -2.26769 -0.236577 0
M  V30 55233 C 5258.06 -1.33344 -0.900458 0
M  V30 55234 O 5259.25 -1.57812 -0.801528 0
M  V30 55235 C 5256.38 -3.1869 -1.2764 0
M  V30 55236 C 5255.46 -4.19591 -0.616775 0
M  V30 55237 N 5255.86 -5.04888 0.303555 0
M  V30 55238 C 5254.15 -4.37378 -0.872726 0
M  V30 55239 C 5254.85 -5.77651 0.685108 0
M  V30 55240 N 5253.83 -5.43582 0.0437639 0
M  V30 55241 H 5257.63 -2.90097 0.471285 0
M  V30 55242 H 5255.15 -1.58377 0.359238 0
M  V30 55243 H 5257.14 -3.73759 -1.84689 0
M  V30 55244 H 5255.8 -2.56918 -1.98553 0
M  V30 55245 H 5256.81 -5.13459 0.676771 0
M  V30 55246 H 5253.49 -3.86789 -1.57163 0
M  V30 55247 H 5254.88 -6.56279 1.44038 0
M  V30 55248 N 5257.6 -0.276112 -1.55162 0
M  V30 55249 C 5258.55 0.625472 -2.19253 0
M  V30 55250 C 5259.54 1.11765 -1.15748 0
M  V30 55251 O 5260.73 1.06255 -1.41558 0
M  V30 55252 C 5257.86 1.80868 -2.9179 0
M  V30 55253 C 5256.94 1.33365 -4.02585 0
M  V30 55254 N 5257.33 0.574825 -5.02523 0
M  V30 55255 C 5255.63 1.61652 -4.15674 0
M  V30 55256 C 5256.33 0.324959 -5.80792 0
M  V30 55257 N 5255.31 0.897663 -5.36137 0
M  V30 55258 H 5259.11 0.037891 -2.93876 0
M  V30 55259 H 5256.62 -0.079718 -1.62204 0
M  V30 55260 H 5258.62 2.46588 -3.36155 0
M  V30 55261 H 5257.28 2.40021 -2.18678 0
M  V30 55262 H 5258.29 0.222074 -5.17424 0
M  V30 55263 H 5254.97 2.21732 -3.53753 0
M  V30 55264 H 5256.36 -0.282834 -6.71304 0
M  V30 55265 N 5259.08 1.576 -0.00340966 0
M  V30 55266 C 5260.33 1.91835 0.676081 0
M  V30 55267 C 5260.68 0.878139 1.71191 0
M  V30 55268 O 5259.97 -0.10923 1.91288 0
M  V30 55269 C 5260.17 3.30585 1.35825 0
M  V30 55270 C 5260 4.48006 0.390013 0
M  V30 55271 C 5258.77 5.053 -0.000826131 0
M  V30 55272 C 5260.96 5.1314 -0.345162 0
M  V30 55273 N 5258.95 6.06237 -0.966923 0
M  V30 55274 C 5260.32 6.0894 -1.16583 0
M  V30 55275 C 5262.37 4.9622 -0.408632 0
M  V30 55276 C 5261.08 6.89641 -2.04419 0
M  V30 55277 C 5263.1 5.7751 -1.27423 0
M  V30 55278 C 5262.46 6.72905 -2.08274 0
M  V30 55279 H 5258.56 0.750271 0.220493 0
M  V30 55280 H 5261.15 1.94593 -0.0645575 0
M  V30 55281 H 5259.32 3.28694 2.06917 0
M  V30 55282 H 5261.05 3.5224 1.99271 0
M  V30 55283 H 5257.8 4.72166 0.368262 0
M  V30 55284 H 5258.23 6.61389 -1.44544 0
M  V30 55285 H 5262.87 4.22316 0.202176 0
M  V30 55286 H 5260.59 7.62868 -2.66566 0
M  V30 55287 H 5264.17 5.66457 -1.3273 0
M  V30 55288 H 5263.05 7.34711 -2.74171 0
M  V30 55289 N 5260.56 -0.269396 1.5528 0
M  V30 55290 C 5261.49 -1.35873 1.8334 0
M  V30 55291 C 5262.47 -1.47387 0.686711 0
M  V30 55292 O 5263.65 -1.63956 0.930095 0
M  V30 55293 C 5260.78 -2.73476 1.99821 0
M  V30 55294 C 5259.83 -2.79228 3.22388 0
M  V30 55295 S 5260.66 -2.38108 4.7965 0
M  V30 55296 C 5261.81 -3.77679 4.99108 0
M  V30 55297 H 5262.05 -1.11869 2.7545 0
M  V30 55298 H 5259.58 -0.469217 1.47098 0
M  V30 55299 H 5261.54 -3.52718 2.10001 0
M  V30 55300 H 5260.2 -2.94731 1.08594 0
M  V30 55301 H 5259.39 -3.80231 3.30818 0
M  V30 55302 H 5258.99 -2.08011 3.10818 0
M  V30 55303 H 5261.29 -4.72982 4.85071 0
M  V30 55304 H 5262.23 -3.74199 6.01149 0
M  V30 55305 H 5262.64 -3.69149 4.27071 0
M  V30 55306 N 5262.04 -1.48275 -0.534071 0
M  V30 55307 C 5262.97 -1.65386 -1.64833 0
M  V30 55308 C 5263.95 -0.502798 -1.62499 0
M  V30 55309 O 5265.13 -0.734862 -1.79759 0
M  V30 55310 C 5262.26 -1.68959 -3.0343 0
M  V30 55311 C 5261.22 -2.83525 -3.20621 0
M  V30 55312 C 5260.54 -2.72185 -4.60238 0
M  V30 55313 C 5261.84 -4.24869 -3.03782 0
M  V30 55314 H 5263.54 -2.58668 -1.50768 0
M  V30 55315 H 5261.08 -1.24482 -0.723894 0
M  V30 55316 H 5263.03 -1.79519 -3.81249 0
M  V30 55317 H 5261.76 -0.722527 -3.18508 0
M  V30 55318 H 5260.42 -2.72514 -2.45218 0
M  V30 55319 H 5260.07 -1.73456 -4.72146 0
M  V30 55320 H 5259.77 -3.49058 -4.72686 0
M  V30 55321 H 5261.29 -2.84706 -5.40162 0
M  V30 55322 H 5262.7 -4.36734 -3.71397 0
M  V30 55323 H 5261.1 -5.02708 -3.27726 0
M  V30 55324 H 5262.17 -4.41618 -2.00254 0
M  V30 55325 N 5263.51 0.782628 -1.36794 0
M  V30 55326 C 5264.44 1.90968 -1.34363 0
M  V30 55327 C 5265.43 1.68749 -0.213977 0
M  V30 55328 O 5266.61 1.89765 -0.412668 0
M  V30 55329 C 5263.74 3.28093 -1.13896 0
M  V30 55330 C 5262.69 3.64852 -2.23757 0
M  V30 55331 C 5262.02 5.004 -1.88425 0
M  V30 55332 C 5263.32 3.72729 -3.65883 0
M  V30 55333 H 5265.01 1.9326 -2.28672 0
M  V30 55334 H 5262.56 0.928408 -1.10075 0
M  V30 55335 H 5264.51 4.06565 -1.10828 0
M  V30 55336 H 5263.24 3.26206 -0.16039 0
M  V30 55337 H 5261.9 2.88681 -2.25962 0
M  V30 55338 H 5261.54 4.95041 -0.891257 0
M  V30 55339 H 5261.24 5.25964 -2.61984 0
M  V30 55340 H 5262.77 5.81284 -1.86925 0
M  V30 55341 H 5264.18 4.41377 -3.65867 0
M  V30 55342 H 5262.58 4.09783 -4.38404 0
M  V30 55343 H 5263.65 2.73662 -4.00296 0
M  V30 55344 N 5264.99 1.21185 1.00757 0
M  V30 55345 C 5266.22 1.05341 1.78075 0
M  V30 55346 C 5266.64 -0.396923 1.84581 0
M  V30 55347 O 5265.99 -1.27544 1.30533 0
M  V30 55348 C 5266.04 1.641 3.22108 0
M  V30 55349 O 5265.76 3.03459 3.15981 0
M  V30 55350 C 5267.27 1.53332 4.15938 0
M  V30 55351 H 5264.49 0.37007 0.559723 0
M  V30 55352 H 5267.03 1.60468 1.26769 0
M  V30 55353 H 5265.18 1.13072 3.70531 0
M  V30 55354 H 5265.6 3.31506 4.06453 0
M  V30 55355 H 5267.07 1.99192 5.14807 0
M  V30 55356 H 5267.55 0.48732 4.36488 0
M  V30 55357 H 5268.16 2.03595 3.73402 0
M  V30 55358 N 5266.47 -1.20209 1.01919 0
M  V30 55359 C 5267.72 -1.89644 0.710021 0
M  V30 55360 C 5268.05 -1.79013 -0.760568 0
M  V30 55361 O 5267.3 -1.17034 -1.56849 0
M  V30 55362 C 5267.6 -3.40228 1.0945 0
M  V30 55363 C 5267.27 -3.71061 2.56173 0
M  V30 55364 C 5265.93 -3.79186 2.96262 0
M  V30 55365 C 5268.28 -3.85156 3.51147 0
M  V30 55366 C 5265.61 -3.98867 4.30258 0
M  V30 55367 C 5267.96 -4.06348 4.84834 0
M  V30 55368 C 5266.62 -4.12703 5.24626 0
M  V30 55369 H 5265.89 -0.693958 0.259815 0
M  V30 55370 H 5268.54 -1.42414 1.28025 0
M  V30 55371 H 5266.85 -3.89291 0.442732 0
M  V30 55372 H 5268.54 -3.92254 0.832949 0
M  V30 55373 H 5265.13 -3.65338 2.24112 0
M  V30 55374 H 5269.32 -3.78232 3.21332 0
M  V30 55375 H 5264.57 -4.02023 4.60638 0
M  V30 55376 H 5268.75 -4.16197 5.58349 0
M  V30 55377 H 5266.37 -4.27706 6.28468 0
M  V30 55378 N 5267.95 -0.795765 -1.36034 0
M  V30 55379 C 5268.88 -0.212884 -2.32528 0
M  V30 55380 C 5269.86 0.655661 -1.56956 0
M  V30 55381 O 5271.04 0.588173 -1.85079 0
M  V30 55382 C 5268.17 0.648069 -3.412 0
M  V30 55383 C 5267.13 -0.121098 -4.27829 0
M  V30 55384 C 5266.45 0.860859 -5.27725 0
M  V30 55385 C 5267.75 -1.31393 -5.05503 0
M  V30 55386 H 5269.45 -1.01903 -2.81525 0
M  V30 55387 H 5266.99 -0.49147 -1.35354 0
M  V30 55388 H 5268.95 1.06583 -4.07699 0
M  V30 55389 H 5267.67 1.48699 -2.90785 0
M  V30 55390 H 5266.33 -0.519905 -3.62895 0
M  V30 55391 H 5265.98 1.69498 -4.73581 0
M  V30 55392 H 5265.68 0.350602 -5.86553 0
M  V30 55393 H 5267.2 1.27705 -5.97096 0
M  V30 55394 H 5268.62 -0.971605 -5.65007 0
M  V30 55395 H 5267.01 -1.75792 -5.73775 0
M  V30 55396 H 5268.08 -2.10608 -4.36775 0
M  V30 55397 N 5269.43 1.47754 -0.548326 0
M  V30 55398 C 5270.65 2.06884 -0.02556 0
M  V30 55399 C 5271.07 1.40229 1.26417 0
M  V30 55400 O 5270.43 0.495837 1.75635 0
M  V30 55401 C 5270.48 3.61036 0.183007 0
M  V30 55402 O 5270.2 4.25191 -1.05564 0
M  V30 55403 C 5271.7 4.37011 0.744068 0
M  V30 55404 H 5268.92 0.669696 -0.0418125 0
M  V30 55405 H 5271.46 1.89885 -0.759205 0
M  V30 55406 H 5269.62 3.77579 0.866753 0
M  V30 55407 H 5270.03 5.17603 -0.847811 0
M  V30 55408 H 5271.51 5.45581 0.839337 0
M  V30 55409 H 5271.98 4.02686 1.75329 0
M  V30 55410 H 5272.59 4.25191 0.0963047 0
M  V30 55411 N 5270.9 0.284337 1.55014 0
M  V30 55412 C 5272.13 -0.335727 2.04665 0
M  V30 55413 C 5272.55 -1.47995 1.16099 0
M  V30 55414 O 5271.91 -1.80579 0.161517 0
M  V30 55415 C 5271.96 -0.785492 3.51941 0
M  V30 55416 O 5271.06 -1.89189 3.66444 0
M  V30 55417 H 5270.41 -0.068 0.660509 0
M  V30 55418 H 5272.94 0.421326 2.00215 0
M  V30 55419 H 5272.95 -1.07878 3.9348 0
M  V30 55420 H 5271.62 0.0516137 4.15868 0
M  V30 55421 H 5270.2 -1.60043 3.3681 0
M  V30 55422 N 5272.38 -1.57596 0.0117675 0
M  V30 55423 C 5273.31 -2.12192 -0.974525 0
M  V30 55424 C 5274.29 -1.03384 -1.35077 0
M  V30 55425 O 5275.48 -1.31128 -1.43245 0
M  V30 55426 C 5272.61 -2.63485 -2.26259 0
M  V30 55427 C 5271.56 -3.76924 -2.02761 0
M  V30 55428 C 5270.89 -4.14578 -3.37683 0
M  V30 55429 C 5272.19 -5.0372 -1.38072 0
M  V30 55430 H 5273.88 -2.94851 -0.519904 0
M  V30 55431 H 5271.43 -1.41837 -0.248636 0
M  V30 55432 H 5273.38 -3.00309 -2.95622 0
M  V30 55433 H 5272.11 -1.77962 -2.73856 0
M  V30 55434 H 5270.76 -3.40512 -1.35821 0
M  V30 55435 H 5270.41 -3.26062 -3.83005 0
M  V30 55436 H 5270.11 -4.91011 -3.22772 0
M  V30 55437 H 5271.64 -4.53971 -4.08342 0
M  V30 55438 H 5273.05 -5.3824 -1.97409 0
M  V30 55439 H 5271.45 -5.85036 -1.33613 0
M  V30 55440 H 5272.52 -4.83625 -0.351405 0
M  V30 55441 N 5273.86 0.261157 -1.55421 0
M  V30 55442 C 5274.79 1.32705 -1.92124 0
M  V30 55443 C 5275.77 1.50931 -0.784459 0
M  V30 55444 O 5276.96 1.63777 -1.04358 0
M  V30 55445 C 5274.09 2.68445 -2.20351 0
M  V30 55446 C 5273.04 2.64935 -3.36145 0
M  V30 55447 C 5272.37 4.04337 -3.4988 0
M  V30 55448 C 5273.67 2.23166 -4.72223 0
M  V30 55449 H 5275.36 1.02235 -2.81404 0
M  V30 55450 H 5272.91 0.490358 -1.35394 0
M  V30 55451 H 5274.86 3.43135 -2.44615 0
M  V30 55452 H 5273.58 3.00523 -1.27881 0
M  V30 55453 H 5272.24 1.92703 -3.11867 0
M  V30 55454 H 5271.89 4.33656 -2.54856 0
M  V30 55455 H 5271.59 4.0288 -4.2774 0
M  V30 55456 H 5273.11 4.80748 -3.76449 0
M  V30 55457 H 5274.53 2.87582 -4.95953 0
M  V30 55458 H 5272.93 2.32848 -5.53084 0
M  V30 55459 H 5274 1.1831 -4.70245 0
M  V30 55460 N 5275.34 1.48556 0.526201 0
M  V30 55461 C 5276.59 1.56019 1.27832 0
M  V30 55462 C 5276.9 0.240711 1.94113 0
M  V30 55463 O 5278.11 0.193621 2.70809 0
M  V30 55464 C 5276.56 2.75169 2.3197 0
M  V30 55465 C 5276.17 4.13774 1.71741 0
M  V30 55466 C 5277.91 2.91947 3.08167 0
M  V30 55467 C 5275.82 5.2418 2.73841 0
M  V30 55468 H 5274.75 0.580837 0.480775 0
M  V30 55469 H 5277.4 1.74897 0.555273 0
M  V30 55470 H 5275.78 2.49733 3.07326 0
M  V30 55471 H 5276.96 4.49245 1.02547 0
M  V30 55472 H 5275.27 4.02144 1.08022 0
M  V30 55473 H 5277.87 3.716 3.84471 0
M  V30 55474 H 5278.21 2.01546 3.64259 0
M  V30 55475 H 5278.75 3.17302 2.39925 0
M  V30 55476 H 5275.49 6.16559 2.22564 0
M  V30 55477 H 5275.01 4.93193 3.41351 0
M  V30 55478 H 5276.68 5.52454 3.36755 0
M  V30 55479 N 5276.82 -0.775363 1.37207 0
M  V30 55480 C 5277.75 -1.90253 1.35374 0
M  V30 55481 C 5278.73 -1.68633 0.222923 0
M  V30 55482 O 5279.91 -1.89543 0.422726 0
M  V30 55483 C 5277.04 -3.27484 1.15634 0
M  V30 55484 C 5276 -3.6366 2.25689 0
M  V30 55485 C 5275.32 -4.99393 1.91077 0
M  V30 55486 C 5276.62 -3.70784 3.67854 0
M  V30 55487 H 5278.32 -1.92045 2.29693 0
M  V30 55488 H 5275.86 -0.922558 1.10566 0
M  V30 55489 H 5277.82 -4.05972 1.12982 0
M  V30 55490 H 5276.54 -3.26116 0.177687 0
M  V30 55491 H 5275.2 -2.87478 2.2749 0
M  V30 55492 H 5274.85 -4.94561 0.917498 0
M  V30 55493 H 5274.55 -5.24567 2.6477 0
M  V30 55494 H 5276.07 -5.80285 1.90005 0
M  V30 55495 H 5277.48 -4.39431 3.68203 0
M  V30 55496 H 5275.88 -4.07452 4.40571 0
M  V30 55497 H 5276.95 -2.71535 4.01742 0
M  V30 55498 N 5278.3 -1.21718 -1.00112 0
M  V30 55499 C 5279.54 -1.0383 -1.74205 0
M  V30 55500 C 5279.87 0.426666 -1.89455 0
M  V30 55501 O 5279.15 1.31653 -1.43171 0
M  V30 55502 C 5279.43 -1.74058 -3.15239 0
M  V30 55503 C 5279.29 -3.28098 -3.07688 0
M  V30 55504 C 5280.6 -1.48628 -4.14243 0
M  V30 55505 H 5277.72 -0.378595 -0.632325 0
M  V30 55506 H 5280.37 -1.49946 -1.16688 0
M  V30 55507 H 5278.52 -1.34852 -3.64345 0
M  V30 55508 H 5280.19 -3.76696 -2.66267 0
M  V30 55509 H 5278.43 -3.582 -2.44694 0
M  V30 55510 H 5279.1 -3.72406 -4.07453 0
M  V30 55511 H 5281.58 -1.82669 -3.7386 0
M  V30 55512 H 5280.45 -2.00275 -5.11059 0
M  V30 55513 H 5280.71 -0.417112 -4.40128 0
M  V30 55514 N 5279.77 1.19667 -1.02555 0
M  V30 55515 C 5280.71 2.22213 -0.561596 0
M  V30 55516 C 5281.72 1.58752 0.360765 0
M  V30 55517 O 5282.91 1.77802 0.157687 0
M  V30 55518 C 5280.01 3.38301 0.201375 0
M  V30 55519 C 5279.18 4.31348 -0.725104 0
M  V30 55520 C 5278.24 5.26199 -0.00812832 0
M  V30 55521 O 5277.27 5.65663 -0.633597 0
M  V30 55522 N 5278.47 5.66577 1.26374 0
M  V30 55523 H 5281.23 2.62645 -1.44353 0
M  V30 55524 H 5278.79 1.343 -0.904169 0
M  V30 55525 H 5280.79 3.98766 0.690485 0
M  V30 55526 H 5279.36 2.96686 0.984686 0
M  V30 55527 H 5278.58 3.68716 -1.39436 0
M  V30 55528 H 5279.86 4.90428 -1.3549 0
M  V30 55529 H 5279.26 5.36544 1.79268 0
M  V30 55530 H 5277.82 6.2931 1.69741 0
M  V30 55531 N 5281.25 0.802969 1.3561 0
M  V30 55532 C 5282.48 0.392917 2.03644 0
M  V30 55533 C 5282.9 -0.987019 1.60124 0
M  V30 55534 O 5282.26 -1.63846 0.776158 0
M  V30 55535 C 5282.31 0.480333 3.57387 0
M  V30 55536 O 5281.41 -0.507607 4.09264 0
M  V30 55537 H 5280.75 0.164663 0.643259 0
M  V30 55538 H 5283.28 1.08785 1.73283 0
M  V30 55539 H 5283.29 0.348826 4.06506 0
M  V30 55540 H 5281.97 1.48689 3.88413 0
M  V30 55541 H 5280.54 -0.336639 3.71377 0
M  V30 55542 N 5282.73 -1.47461 0.556154 0
M  V30 55543 C 5283.96 -2.06868 0.0365312 0
M  V30 55544 C 5284.37 -1.40897 -1.25672 0
M  V30 55545 O 5283.73 -0.505145 -1.7537 0
M  V30 55546 C 5283.78 -3.61128 -0.163857 0
M  V30 55547 O 5283.5 -4.24626 1.07818 0
M  V30 55548 C 5285 -4.37399 -0.720882 0
M  V30 55549 H 5282.22 -0.669465 0.0453635 0
M  V30 55550 H 5284.77 -1.8948 0.769264 0
M  V30 55551 H 5282.92 -3.78034 -0.846717 0
M  V30 55552 H 5283.34 -5.17146 0.875249 0
M  V30 55553 H 5284.81 -5.46019 -0.810392 0
M  V30 55554 H 5285.29 -4.0361 -1.73191 0
M  V30 55555 H 5285.89 -4.25236 -0.0737545 0
M  V30 55556 N 5284.21 -0.292554 -1.54861 0
M  V30 55557 C 5285.14 0.620811 -2.20632 0
M  V30 55558 C 5286.15 1.10408 -1.19641 0
M  V30 55559 O 5287.34 1.02299 -1.46278 0
M  V30 55560 C 5284.44 1.8609 -2.83238 0
M  V30 55561 C 5283.61 1.52153 -4.10083 0
M  V30 55562 C 5282.67 2.61589 -4.56572 0
M  V30 55563 O 5281.7 2.27038 -5.2196 0
M  V30 55564 N 5282.9 3.91975 -4.28177 0
M  V30 55565 H 5285.67 0.0577975 -2.99644 0
M  V30 55566 H 5283.23 -0.11439 -1.61495 0
M  V30 55567 H 5285.22 2.58631 -3.11275 0
M  V30 55568 H 5283.79 2.33252 -2.08116 0
M  V30 55569 H 5283.01 0.629147 -3.89147 0
M  V30 55570 H 5284.3 1.27006 -4.92694 0
M  V30 55571 H 5283.7 4.22859 -3.75775 0
M  V30 55572 H 5282.25 4.60841 -4.60944 0
M  V30 55573 N 5285.69 1.57587 -0.020125 0
M  V30 55574 C 5286.93 1.92541 0.655697 0
M  V30 55575 C 5287.29 0.896247 1.7025 0
M  V30 55576 O 5286.58 -0.0889349 1.91393 0
M  V30 55577 C 5286.77 3.32007 1.32311 0
M  V30 55578 C 5286.6 4.48394 0.342474 0
M  V30 55579 C 5285.37 5.05271 -0.0544199 0
M  V30 55580 C 5287.57 5.12745 -0.399568 0
M  V30 55581 N 5285.55 6.05178 -1.03117 0
M  V30 55582 C 5286.92 6.0767 -1.23035 0
M  V30 55583 C 5288.98 4.95759 -0.46124 0
M  V30 55584 C 5287.68 6.87434 -2.11722 0
M  V30 55585 C 5289.71 5.76126 -1.33541 0
M  V30 55586 C 5289.07 6.70658 -2.154 0
M  V30 55587 H 5285.17 0.752568 0.212523 0
M  V30 55588 H 5287.75 1.94514 -0.085193 0
M  V30 55589 H 5285.92 3.30871 2.03419 0
M  V30 55590 H 5287.66 3.54334 1.95524 0
M  V30 55591 H 5284.41 4.7253 0.318161 0
M  V30 55592 H 5284.83 6.59819 -1.51551 0
M  V30 55593 H 5289.48 4.22507 0.157372 0
M  V30 55594 H 5287.19 7.59998 -2.74642 0
M  V30 55595 H 5290.78 5.65018 -1.38731 0
M  V30 55596 H 5289.66 7.31762 -2.81948 0
M  V30 55597 N 5287.16 -0.252911 1.55557 0
M  V30 55598 C 5288.39 -1.00373 1.81494 0
M  V30 55599 C 5288.81 -1.78395 0.59638 0
M  V30 55600 O 5288.17 -1.75511 -0.454474 0
M  V30 55601 C 5288.22 -1.92209 3.05103 0
M  V30 55602 O 5287.32 -3.01292 2.81597 0
M  V30 55603 H 5286.66 -0.285928 0.599284 0
M  V30 55604 H 5289.19 -0.275724 2.02734 0
M  V30 55605 H 5289.2 -2.33788 3.34376 0
M  V30 55606 H 5287.88 -1.34838 3.93436 0
M  V30 55607 H 5286.46 -2.63885 2.63476 0
M  V30 55608 N 5288.64 -1.48833 -0.518315 0
M  V30 55609 C 5289.57 -1.67125 -1.63069 0
M  V30 55610 C 5290.55 -0.520005 -1.61957 0
M  V30 55611 O 5291.74 -0.753887 -1.7897 0
M  V30 55612 C 5288.87 -1.72168 -3.01621 0
M  V30 55613 C 5287.82 -2.86909 -3.17596 0
M  V30 55614 C 5287.15 -2.77051 -4.57326 0
M  V30 55615 C 5288.45 -4.28067 -2.99259 0
M  V30 55616 H 5290.14 -2.60253 -1.48016 0
M  V30 55617 H 5287.69 -1.25243 -0.71065 0
M  V30 55618 H 5289.64 -1.83552 -3.79324 0
M  V30 55619 H 5288.36 -0.756269 -3.17723 0
M  V30 55620 H 5287.02 -2.751 -2.42313 0
M  V30 55621 H 5286.67 -1.78454 -4.7028 0
M  V30 55622 H 5286.37 -3.54052 -4.68957 0
M  V30 55623 H 5287.9 -2.90419 -5.37112 0
M  V30 55624 H 5289.31 -4.40649 -3.66744 0
M  V30 55625 H 5287.71 -5.06156 -3.22375 0
M  V30 55626 H 5288.78 -4.43717 -1.95559 0
M  V30 55627 N 5290.12 0.768075 -1.37617 0
M  V30 55628 C 5291.37 1.52676 -1.33028 0
M  V30 55629 C 5291.69 1.94318 0.0841235 0
M  V30 55630 O 5290.95 1.64626 1.05814 0
M  V30 55631 C 5291.25 2.80197 -2.21866 0
M  V30 55632 C 5290.91 2.57589 -3.70079 0
M  V30 55633 C 5289.58 2.51132 -4.10471 0
M  V30 55634 C 5291.93 2.37466 -4.63961 0
M  V30 55635 C 5289.26 2.22547 -5.42853 0
M  V30 55636 C 5291.61 2.10404 -5.96584 0
M  V30 55637 C 5290.27 2.02394 -6.36076 0
M  V30 55638 H 5289.54 0.55868 -0.486783 0
M  V30 55639 H 5292.19 0.884411 -1.69854 0
M  V30 55640 H 5290.49 3.49008 -1.78047 0
M  V30 55641 H 5292.19 3.38091 -2.15627 0
M  V30 55642 H 5288.78 2.63479 -3.38048 0
M  V30 55643 H 5292.97 2.41442 -4.33612 0
M  V30 55644 H 5288.22 2.14843 -5.72409 0
M  V30 55645 H 5292.4 1.93833 -6.68881 0
M  V30 55646 H 5290.02 1.80008 -7.3858 0
M  V30 55647 N 5291.6 1.22247 0.994655 0
M  V30 55648 C 5292.84 1.04597 1.73395 0
M  V30 55649 C 5293.17 -0.419156 1.8993 0
M  V30 55650 O 5292.43 -1.32709 1.43829 0
M  V30 55651 C 5292.73 1.70025 3.14366 0
M  V30 55652 C 5292.39 3.19915 3.17751 0
M  V30 55653 C 5291.05 3.60814 3.18381 0
M  V30 55654 C 5293.41 4.15862 3.14179 0
M  V30 55655 C 5290.73 4.96146 3.13139 0
M  V30 55656 C 5293.09 5.51168 3.10478 0
M  V30 55657 C 5291.75 5.9145 3.09424 0
M  V30 55658 H 5291.02 0.382748 0.634496 0
M  V30 55659 H 5293.67 1.51985 1.16503 0
M  V30 55660 H 5291.97 1.14958 3.74556 0
M  V30 55661 H 5293.67 1.53861 3.70308 0
M  V30 55662 H 5290.26 2.87347 3.18009 0
M  V30 55663 H 5294.44 3.85283 3.12843 0
M  V30 55664 H 5289.7 5.26589 3.10667 0
M  V30 55665 H 5293.87 6.25241 3.0667 0
M  V30 55666 H 5291.5 6.96282 3.05116 0
M  V30 55667 N 5293.08 -1.19122 1.03188 0
M  V30 55668 C 5294.32 -1.88881 0.730096 0
M  V30 55669 C 5294.65 -1.7981 -0.741538 0
M  V30 55670 O 5293.91 -1.18691 -1.55599 0
M  V30 55671 C 5294.21 -3.39048 1.13053 0
M  V30 55672 C 5293.87 -3.68323 2.60095 0
M  V30 55673 C 5292.53 -3.76022 3.00268 0
M  V30 55674 C 5294.89 -3.8141 3.55212 0
M  V30 55675 C 5292.21 -3.94281 4.34465 0
M  V30 55676 C 5294.57 -4.01183 4.89117 0
M  V30 55677 C 5293.23 -4.07116 5.28974 0
M  V30 55678 H 5292.5 -0.691163 0.267161 0
M  V30 55679 H 5295.15 -1.41048 1.29528 0
M  V30 55680 H 5293.45 -3.88799 0.483997 0
M  V30 55681 H 5295.15 -3.91348 0.874506 0
M  V30 55682 H 5291.74 -3.6294 2.27974 0
M  V30 55683 H 5295.92 -3.74802 3.25326 0
M  V30 55684 H 5291.18 -3.97114 4.64876 0
M  V30 55685 H 5295.35 -4.10251 5.62732 0
M  V30 55686 H 5292.98 -4.21016 6.32969 0
M  V30 55687 N 5294.55 -0.810149 -1.35183 0
M  V30 55688 C 5295.8 -0.392768 -1.9896 0
M  V30 55689 C 5296.13 1.03829 -1.64113 0
M  V30 55690 O 5295.41 1.72096 -0.90626 0
M  V30 55691 C 5295.69 -0.580474 -3.55391 0
M  V30 55692 C 5295.54 -2.05673 -4.00024 0
M  V30 55693 C 5296.86 -0.00838089 -4.40099 0
M  V30 55694 H 5293.98 -0.144183 -0.722759 0
M  V30 55695 H 5296.62 -1.02034 -1.60278 0
M  V30 55696 H 5294.77 -0.0462472 -3.88472 0
M  V30 55697 H 5296.45 -2.65361 -3.77335 0
M  V30 55698 H 5294.69 -2.55187 -3.50802 0
M  V30 55699 H 5295.36 -2.13893 -5.08875 0
M  V30 55700 H 5297.84 -0.464663 -4.13497 0
M  V30 55701 H 5296.71 -0.169607 -5.48638 0
M  V30 55702 H 5296.97 1.08561 -4.28564 0
M  V30 55703 N 5296.03 1.47164 -0.563966 0
M  V30 55704 C 5297.26 2.06546 -0.0474325 0
M  V30 55705 C 5297.67 1.41611 1.25471 0
M  V30 55706 O 5297.01 0.509002 1.76507 0
M  V30 55707 C 5297.08 3.58874 0.212123 0
M  V30 55708 C 5296.74 4.45889 -1.00159 0
M  V30 55709 C 5297.74 4.83588 -1.9089 0
M  V30 55710 C 5295.42 4.87305 -1.21817 0
M  V30 55711 C 5297.42 5.61508 -3.01641 0
M  V30 55712 C 5295.1 5.64988 -2.32876 0
M  V30 55713 C 5296.1 6.02002 -3.22618 0
M  V30 55714 O 5295.79 6.7812 -4.31751 0
M  V30 55715 H 5295.52 0.674439 -0.045906 0
M  V30 55716 H 5298.07 1.90057 -0.778932 0
M  V30 55717 H 5296.3 3.73599 0.998014 0
M  V30 55718 H 5297.99 4.0025 0.674864 0
M  V30 55719 H 5298.76 4.52186 -1.75366 0
M  V30 55720 H 5294.64 4.57957 -0.528802 0
M  V30 55721 H 5298.18 5.90318 -3.71714 0
M  V30 55722 H 5294.08 5.95804 -2.4837 0
M  V30 55723 H 5294.85 6.96522 -4.29884 0
M  V30 55724 N 5297.51 0.300763 1.54704 0
M  V30 55725 C 5298.42 -0.584916 2.27191 0
M  V30 55726 C 5299.44 -1.14861 1.30701 0
M  V30 55727 O 5300.61 -1.17345 1.63683 0
M  V30 55728 C 5297.68 -1.74065 2.99837 0
M  V30 55729 C 5296.74 -1.21106 4.11864 0
M  V30 55730 C 5295.97 -2.31171 4.81036 0
M  V30 55731 O 5296.19 -3.51064 4.49566 0
M  V30 55732 O 5295.13 -1.97877 5.68444 0
M  V30 55733 H 5298.95 0.00308854 3.037 0
M  V30 55734 H 5296.54 0.0672326 1.49249 0
M  V30 55735 H 5298.42 -2.414 3.45404 0
M  V30 55736 H 5297.1 -2.31527 2.26223 0
M  V30 55737 H 5296 -0.503439 3.70697 0
M  V30 55738 H 5297.34 -0.681874 4.87454 0
M  V30 55739 N 5298.99 -1.57574 0.028482 0
M  V30 55740 C 5299.94 -2.11335 -0.9716 0
M  V30 55741 C 5300.93 -1.03978 -1.33734 0
M  V30 55742 O 5302.14 -1.22414 -1.31965 0
M  V30 55743 H 5298.51 -0.675186 -0.331101 0
M  V30 55744 H 5300.48 -2.94302 -0.492856 0
M  V30 55745 C 5299.23 -2.65504 -2.24506 0
M  V30 55746 H 5298.55 -3.4776 -1.97238 0
M  V30 55747 H 5299.99 -3.06767 -2.92694 0
M  V30 55748 C 5298.45 -1.58218 -2.97437 0
M  V30 55749 O 5298.98 -0.981633 -3.89521 0
M  V30 55750 N 5297.19 -1.30278 -2.59762 0
M  V30 55751 H 5296.74 -1.793 -1.84957 0
M  V30 55752 H 5296.69 -0.587194 -3.08868 0
M  V30 55753 N 5300.47 0.244658 -1.55689 0
M  V30 55754 C 5301.43 1.28634 -1.897 0
M  V30 55755 C 5302.43 1.40967 -0.773633 0
M  V30 55756 O 5303.62 1.39629 -1.04161 0
M  V30 55757 C 5300.75 2.66372 -2.12742 0
M  V30 55758 H 5301.94 0.996933 -2.82845 0
M  V30 55759 H 5299.5 0.484051 -1.48616 0
M  V30 55760 H 5300.23 3.00448 -1.22072 0
M  V30 55761 H 5300.02 2.58801 -2.94558 0
M  V30 55762 H 5301.51 3.41584 -2.4023 0
M  V30 55763 N 5301.94 1.49106 0.510415 0
M  V30 55764 C 5303.19 1.58117 1.26512 0
M  V30 55765 C 5303.52 0.263671 1.92705 0
M  V30 55766 O 5302.77 -0.747679 1.80854 0
M  V30 55767 C 5303.07 2.68267 2.36151 0
M  V30 55768 C 5302.74 4.10075 1.87481 0
M  V30 55769 C 5301.4 4.48668 1.73926 0
M  V30 55770 C 5303.75 4.98865 1.50942 0
M  V30 55771 C 5301.08 5.73833 1.22197 0
M  V30 55772 C 5303.43 6.24539 1.00669 0
M  V30 55773 C 5302.1 6.6197 0.857458 0
M  V30 55774 H 5301.37 0.57859 0.462941 0
M  V30 55775 H 5304.01 1.82901 0.56741 0
M  V30 55776 H 5302.32 2.37418 3.11673 0
M  V30 55777 H 5304.02 2.7245 2.94231 0
M  V30 55778 H 5300.61 3.79608 1.98988 0
M  V30 55779 H 5304.79 4.69711 1.60266 0
M  V30 55780 H 5300.05 6.01542 1.09347 0
M  V30 55781 H 5304.22 6.92723 0.714736 0
M  V30 55782 H 5301.85 7.58841 0.454435 0
M  V30 55783 N 5303.42 -0.760766 1.38022 0
M  V30 55784 C 5304.35 -1.88807 1.37384 0
M  V30 55785 C 5305.33 -1.68387 0.240796 0
M  V30 55786 O 5306.52 -1.89084 0.442805 0
M  V30 55787 C 5303.65 -3.2624 1.19101 0
M  V30 55788 C 5302.6 -3.61246 2.29533 0
M  V30 55789 C 5301.93 -4.97339 1.96363 0
M  V30 55790 C 5303.23 -3.66861 3.71766 0
M  V30 55791 H 5304.92 -1.89598 2.31717 0
M  V30 55792 H 5302.47 -0.910779 1.11538 0
M  V30 55793 H 5304.42 -4.04751 1.17282 0
M  V30 55794 H 5303.15 -3.25909 0.212266 0
M  V30 55795 H 5301.8 -2.85049 2.30527 0
M  V30 55796 H 5301.45 -4.9356 0.969901 0
M  V30 55797 H 5301.15 -5.21729 2.70319 0
M  V30 55798 H 5302.68 -5.78237 1.96149 0
M  V30 55799 H 5304.09 -4.35501 3.72843 0
M  V30 55800 H 5302.49 -4.02757 4.44868 0
M  V30 55801 H 5303.56 -2.67259 4.04599 0
M  V30 55802 N 5304.9 -1.22773 -0.988158 0
M  V30 55803 C 5306.31 -1.05125 -1.54291 0
M  V30 55804 C 5306.66 0.383836 -1.92409 0
M  V30 55805 O 5305.79 1.26949 -1.75251 0
M  V30 55806 C 5306.38 -1.90207 -2.80369 0
M  V30 55807 C 5304.94 -1.76843 -3.3227 0
M  V30 55808 C 5304.09 -1.86384 -2.0532 0
M  V30 55809 H 5307.04 -1.36549 -0.80871 0
M  V30 55810 H 5307.06 -1.42228 -3.52918 0
M  V30 55811 H 5306.57 -2.94649 -2.52594 0
M  V30 55812 H 5304.67 -0.75154 -3.64942 0
M  V30 55813 H 5304.79 -2.59785 -4.02553 0
M  V30 55814 H 5303.15 -1.29877 -2.19098 0
M  V30 55815 H 5303.93 -2.92366 -1.79936 0
M  V30 55816 N 5306.38 1.18573 -1.03818 0
M  V30 55817 C 5307.63 1.88491 -0.740102 0
M  V30 55818 C 5307.95 1.802 0.731992 0
M  V30 55819 O 5307.21 1.19515 1.54967 0
M  V30 55820 C 5307.51 3.38444 -1.14849 0
M  V30 55821 C 5307.17 3.66938 -2.62044 0
M  V30 55822 C 5305.84 3.74425 -3.02258 0
M  V30 55823 C 5308.19 3.79521 -3.5723 0
M  V30 55824 C 5305.52 3.91971 -4.3655 0
M  V30 55825 C 5307.87 3.98583 -4.91237 0
M  V30 55826 C 5306.53 4.04305 -5.31125 0
M  V30 55827 H 5305.8 0.689736 -0.270823 0
M  V30 55828 H 5308.45 1.4036 -1.30275 0
M  V30 55829 H 5306.75 3.88537 -0.504609 0
M  V30 55830 H 5308.45 3.90879 -0.895248 0
M  V30 55831 H 5305.04 3.61726 -2.29896 0
M  V30 55832 H 5309.22 3.73072 -3.27309 0
M  V30 55833 H 5304.48 3.94643 -4.66976 0
M  V30 55834 H 5308.65 4.07261 -5.64899 0
M  V30 55835 H 5306.28 4.17653 -6.35193 0
M  V30 55836 N 5307.86 0.817307 1.34751 0
M  V30 55837 C 5309.09 0.415522 2.02685 0
M  V30 55838 C 5309.5 -0.976823 1.61566 0
M  V30 55839 O 5308.86 -1.63122 0.818378 0
M  V30 55840 C 5308.91 0.501612 3.58003 0
M  V30 55841 O 5308.63 1.83907 3.9763 0
M  V30 55842 C 5310.13 0.0940062 4.432 0
M  V30 55843 H 5307.35 0.167443 0.649772 0
M  V30 55844 H 5309.89 1.1039 1.72146 0
M  V30 55845 H 5308.05 -0.13863 3.87152 0
M  V30 55846 H 5308.46 1.80937 4.92303 0
M  V30 55847 H 5309.94 0.205338 5.51618 0
M  V30 55848 H 5310.41 -0.961861 4.28538 0
M  V30 55849 H 5311.02 0.707825 4.19368 0
M  V30 55850 N 5309.34 -1.46863 0.571763 0
M  V30 55851 C 5310.27 -2.3298 -0.155713 0
M  V30 55852 C 5311.25 -1.44681 -0.894503 0
M  V30 55853 O 5312.43 -1.73516 -0.872115 0
M  V30 55854 C 5309.56 -3.26749 -1.17696 0
M  V30 55855 C 5308.52 -4.24403 -0.553714 0
M  V30 55856 C 5307.84 -5.07601 -1.68065 0
M  V30 55857 C 5309.14 -5.19882 0.50201 0
M  V30 55858 H 5310.84 -2.94054 0.563279 0
M  V30 55859 H 5308.38 -1.41401 0.27233 0
M  V30 55860 H 5310.33 -3.85844 -1.69417 0
M  V30 55861 H 5309.06 -2.6376 -1.92609 0
M  V30 55862 H 5307.72 -3.66555 -0.0576861 0
M  V30 55863 H 5307.37 -4.41005 -2.41917 0
M  V30 55864 H 5307.07 -5.73726 -1.26933 0
M  V30 55865 H 5308.59 -5.69558 -2.20083 0
M  V30 55866 H 5310 -5.73257 0.0703072 0
M  V30 55867 H 5308.4 -5.9429 0.833024 0
M  V30 55868 H 5309.47 -4.64477 1.39245 0
M  V30 55869 N 5310.81 -0.308963 -1.54542 0
M  V30 55870 C 5312.06 0.297377 -1.999 0
M  V30 55871 C 5312.38 1.53795 -1.19884 0
M  V30 55872 O 5311.65 1.93638 -0.296848 0
M  V30 55873 H 5310.23 0.112871 -0.738423 0
M  V30 55874 H 5312.89 -0.422134 -1.90274 0
M  V30 55875 H 5311.99 0.563908 -3.06963 0
M  V30 55876 N 5312.29 1.57557 -0.0368381 0
M  V30 55877 C 5313.54 1.91294 0.639501 0
M  V30 55878 C 5313.85 0.915661 1.72844 0
M  V30 55879 O 5315.06 1.14455 2.46195 0
M  V30 55880 C 5313.52 3.39701 1.18876 0
M  V30 55881 C 5313.12 4.47803 0.132694 0
M  V30 55882 C 5314.87 3.82494 1.84117 0
M  V30 55883 C 5312.77 5.87314 0.694022 0
M  V30 55884 H 5311.7 0.713895 0.242633 0
M  V30 55885 H 5314.36 1.83208 -0.103396 0
M  V30 55886 H 5312.74 3.42743 1.98351 0
M  V30 55887 H 5313.91 4.56332 -0.64017 0
M  V30 55888 H 5312.23 4.14262 -0.421409 0
M  V30 55889 H 5314.82 4.84084 2.27084 0
M  V30 55890 H 5315.17 3.17968 2.68704 0
M  V30 55891 H 5315.7 3.81907 1.11319 0
M  V30 55892 H 5312.44 6.55401 -0.113898 0
M  V30 55893 H 5311.96 5.82376 1.4352 0
M  V30 55894 H 5313.64 6.36123 1.18138 0
M  V30 55895 N 5313.77 -0.236398 1.55817 0
M  V30 55896 C 5314.7 -1.31954 1.86181 0
M  V30 55897 C 5315.68 -1.45898 0.71782 0
M  V30 55898 O 5316.86 -1.61946 0.964663 0
M  V30 55899 C 5313.99 -2.69176 2.05577 0
M  V30 55900 C 5313.04 -2.72327 3.28238 0
M  V30 55901 S 5313.87 -2.27881 4.84593 0
M  V30 55902 C 5315.03 -3.67007 5.07007 0
M  V30 55903 H 5315.26 -1.06001 2.77761 0
M  V30 55904 H 5312.79 -0.437909 1.4806 0
M  V30 55905 H 5314.75 -3.48184 2.17436 0
M  V30 55906 H 5313.41 -2.92361 1.14821 0
M  V30 55907 H 5312.6 -3.73128 3.38809 0
M  V30 55908 H 5312.21 -2.01371 3.1516 0
M  V30 55909 H 5314.5 -4.62587 4.94995 0
M  V30 55910 H 5315.44 -3.61364 6.08951 0
M  V30 55911 H 5315.85 -3.60007 4.34805 0
M  V30 55912 N 5315.25 -1.49374 -0.5025 0
M  V30 55913 C 5316.21 -1.65418 -1.58649 0
M  V30 55914 C 5317.21 -0.526056 -1.51952 0
M  V30 55915 O 5318.4 -0.792476 -1.5513 0
M  V30 55916 C 5315.53 -1.65015 -2.983 0
M  V30 55917 H 5316.73 -2.621 -1.45752 0
M  V30 55918 H 5314.28 -1.38383 -0.726624 0
M  V30 55919 H 5315.01 -0.699125 -3.16674 0
M  V30 55920 H 5314.8 -2.46941 -3.04569 0
M  V30 55921 H 5316.29 -1.7949 -3.77059 0
M  V30 55922 N 5316.73 0.753436 -1.38424 0
M  V30 55923 C 5317.97 1.50793 -1.33957 0
M  V30 55924 C 5318.29 1.95483 0.0677777 0
M  V30 55925 O 5319.49 2.70481 0.234982 0
M  V30 55926 C 5317.95 2.72384 -2.35234 0
M  V30 55927 C 5317.56 2.34719 -3.8159 0
M  V30 55928 C 5319.3 3.50273 -2.3981 0
M  V30 55929 C 5317.21 3.52923 -4.74552 0
M  V30 55930 H 5316.14 0.566194 -0.497936 0
M  V30 55931 H 5318.79 0.823601 -1.63979 0
M  V30 55932 H 5317.17 3.42799 -1.98255 0
M  V30 55933 H 5318.35 1.7197 -4.27508 0
M  V30 55934 H 5316.66 1.69964 -3.80133 0
M  V30 55935 H 5319.26 4.38161 -3.06462 0
M  V30 55936 H 5319.6 3.91439 -1.41708 0
M  V30 55937 H 5320.13 2.86872 -2.75589 0
M  V30 55938 H 5316.87 3.16823 -5.7385 0
M  V30 55939 H 5316.39 4.14714 -4.33327 0
M  V30 55940 H 5318.07 4.19502 -4.92572 0
M  V30 55941 N 5318.2 1.23295 0.981634 0
M  V30 55942 C 5319.17 1.01424 2.05538 0
M  V30 55943 C 5320.17 -0.0234789 1.60783 0
M  V30 55944 O 5321.36 0.216143 1.72854 0
M  V30 55945 C 5318.49 0.534358 3.36686 0
M  V30 55946 H 5319.68 1.9671 2.26374 0
M  V30 55947 H 5317.23 1.05322 1.15486 0
M  V30 55948 H 5317.97 -0.422339 3.21538 0
M  V30 55949 H 5317.75 1.28317 3.70509 0
M  V30 55950 H 5319.24 0.401936 4.15661 0
M  V30 55951 N 5319.68 -1.1802 1.04446 0
M  V30 55952 C 5320.64 -2.1999 0.643213 0
M  V30 55953 C 5321.64 -1.5795 -0.301388 0
M  V30 55954 O 5322.83 -1.73986 -0.0862729 0
M  V30 55955 C 5319.97 -3.40853 -0.0564009 0
M  V30 55956 H 5321.16 -2.57002 1.54563 0
M  V30 55957 H 5318.71 -1.31971 0.837455 0
M  V30 55958 H 5319.45 -3.09377 -0.972445 0
M  V30 55959 H 5319.23 -3.87126 0.622575 0
M  V30 55960 H 5320.72 -4.16345 -0.323505 0
M  V30 55961 N 5321.16 -0.824441 -1.34316 0
M  V30 55962 C 5322.4 -0.419114 -2.00057 0
M  V30 55963 C 5322.76 0.999446 -1.63936 0
M  V30 55964 O 5323.97 1.50774 -2.22533 0
M  V30 55965 C 5322.24 -0.617021 -3.52034 0
M  V30 55966 S 5323.8 -0.304768 -4.3774 0
M  V30 55967 H 5320.61 -0.15829 -0.693156 0
M  V30 55968 H 5323.22 -1.07059 -1.63581 0
M  V30 55969 H 5321.92 -1.6491 -3.7581 0
M  V30 55970 H 5321.45 0.049131 -3.93369 0
M  V30 55971 H 5323.47 0.880968 -4.88317 0
M  V30 55972 N 5322.64 1.46557 -0.579543 0
M  V30 55973 C 5323.6 2.28739 0.145291 0
M  V30 55974 C 5324.6 1.38214 0.821806 0
M  V30 55975 O 5325.79 1.60622 0.674246 0
M  V30 55976 C 5322.92 3.18512 1.21503 0
M  V30 55977 H 5324.12 2.94299 -0.57689 0
M  V30 55978 H 5321.67 1.52615 -0.337381 0
M  V30 55979 H 5322.4 2.57692 1.96889 0
M  V30 55980 H 5322.19 3.85159 0.73448 0
M  V30 55981 H 5323.68 3.80375 1.7235 0
M  V30 55982 N 5324.12 0.317154 1.54376 0
M  V30 55983 C 5325.05 -0.594101 2.20331 0
M  V30 55984 C 5326.03 -1.12063 1.17816 0
M  V30 55985 O 5327.21 -1.18583 1.46528 0
M  V30 55986 C 5324.34 -1.81453 2.85994 0
M  V30 55987 C 5323.38 -1.41982 4.02173 0
M  V30 55988 S 5324.22 -0.461971 5.33504 0
M  V30 55989 C 5325.37 -1.68983 6.02657 0
M  V30 55990 H 5325.61 -0.0338216 2.97281 0
M  V30 55991 H 5323.14 0.10125 1.54068 0
M  V30 55992 H 5325.1 -2.51482 3.24449 0
M  V30 55993 H 5323.76 -2.34599 2.08859 0
M  V30 55994 H 5322.95 -2.32905 4.46958 0
M  V30 55995 H 5322.55 -0.799295 3.65359 0
M  V30 55996 H 5324.85 -2.62817 6.24446 0
M  V30 55997 H 5325.79 -1.28426 6.96356 0
M  V30 55998 H 5326.2 -1.87389 5.3249 0
M  V30 55999 N 5325.59 -1.57535 0.0451932 0
M  V30 56000 C 5326.52 -2.14211 -0.929297 0
M  V30 56001 C 5327.51 -1.06225 -1.32854 0
M  V30 56002 O 5328.69 -1.34137 -1.40431 0
M  V30 56003 C 5325.82 -2.68225 -2.20619 0
M  V30 56004 C 5324.77 -3.8114 -1.9472 0
M  V30 56005 C 5324.1 -4.21647 -3.28813 0
M  V30 56006 C 5325.4 -5.06535 -1.27356 0
M  V30 56007 H 5327.09 -2.95888 -0.457244 0
M  V30 56008 H 5324.64 -1.42333 -0.218494 0
M  V30 56009 H 5326.59 -3.06512 -2.89186 0
M  V30 56010 H 5325.32 -1.83731 -2.70019 0
M  V30 56011 H 5323.98 -3.43316 -1.28567 0
M  V30 56012 H 5323.62 -3.34113 -3.76002 0
M  V30 56013 H 5323.32 -4.97747 -3.12284 0
M  V30 56014 H 5324.85 -4.6253 -3.98621 0
M  V30 56015 H 5326.26 -5.42307 -1.85948 0
M  V30 56016 H 5324.66 -5.87739 -1.21174 0
M  V30 56017 H 5325.73 -4.84262 -0.248742 0
M  V30 56018 N 5327.07 0.228132 -1.5594 0
M  V30 56019 C 5328 1.286 -1.94895 0
M  V30 56020 C 5328.98 1.49233 -0.816298 0
M  V30 56021 O 5330.17 1.61527 -1.07808 0
M  V30 56022 C 5327.3 2.63711 -2.25995 0
M  V30 56023 C 5326.25 2.57745 -3.41689 0
M  V30 56024 C 5325.58 3.96824 -3.58377 0
M  V30 56025 C 5326.88 2.13099 -4.7685 0
M  V30 56026 H 5328.57 0.962431 -2.83509 0
M  V30 56027 H 5326.12 0.461529 -1.36403 0
M  V30 56028 H 5328.07 3.37869 -2.51838 0
M  V30 56029 H 5326.8 2.97743 -1.34227 0
M  V30 56030 H 5325.45 1.86044 -3.15885 0
M  V30 56031 H 5325.1 4.28153 -2.63997 0
M  V30 56032 H 5324.8 3.93716 -4.3619 0
M  V30 56033 H 5326.33 4.72654 -3.86562 0
M  V30 56034 H 5327.74 2.76997 -5.01942 0
M  V30 56035 H 5326.14 2.21064 -5.57899 0
M  V30 56036 H 5327.21 1.08309 -4.72649 0
M  V30 56037 N 5328.55 1.49639 0.494571 0
M  V30 56038 C 5329.8 1.59686 1.25013 0
M  V30 56039 C 5330.13 0.285578 1.92089 0
M  V30 56040 O 5329.4 -0.711334 1.81026 0
M  V30 56041 C 5329.69 2.76066 2.31213 0
M  V30 56042 C 5329.54 4.17008 1.68596 0
M  V30 56043 C 5330.86 2.88068 3.32723 0
M  V30 56044 H 5327.98 0.581225 0.453151 0
M  V30 56045 H 5330.62 1.81946 0.547327 0
M  V30 56046 H 5328.77 2.57218 2.91155 0
M  V30 56047 H 5330.44 4.47389 1.12432 0
M  V30 56048 H 5328.69 4.22356 0.989843 0
M  V30 56049 H 5329.36 4.94325 2.45656 0
M  V30 56050 H 5331.83 3.05247 2.82779 0
M  V30 56051 H 5330.71 3.71165 4.04386 0
M  V30 56052 H 5330.97 1.9769 3.95438 0
M  V30 56053 N 5330.03 -0.746085 1.38821 0
M  V30 56054 C 5330.98 -1.85996 1.36653 0
M  V30 56055 C 5331.95 -1.64529 0.227907 0
M  V30 56056 O 5333.13 -1.8609 0.421306 0
M  V30 56057 C 5330.27 -3.23384 1.20486 0
M  V30 56058 C 5329.38 -3.56632 2.43799 0
M  V30 56059 C 5328.52 -4.83363 2.20304 0
M  V30 56060 C 5327.56 -5.09419 3.3935 0
M  V30 56061 N 5326.69 -6.27349 3.15242 0
M  V30 56062 H 5331.53 -1.87184 2.31876 0
M  V30 56063 H 5329.07 -0.914797 1.15195 0
M  V30 56064 H 5331.03 -4.02675 1.09126 0
M  V30 56065 H 5329.66 -3.21504 0.288987 0
M  V30 56066 H 5328.71 -2.72126 2.65804 0
M  V30 56067 H 5330.02 -3.71811 3.32503 0
M  V30 56068 H 5329.18 -5.70612 2.06123 0
M  V30 56069 H 5327.92 -4.70336 1.28978 0
M  V30 56070 H 5326.92 -4.20636 3.54042 0
M  V30 56071 H 5328.15 -5.24338 4.31562 0
M  V30 56072 H 5326.09 -6.15631 2.2657 0
M  V30 56073 H 5326.01 -6.43064 3.97498 0
M  V30 56074 H 5327.28 -7.17467 3.04732 0
M  V30 56075 N 5331.51 -1.23814 -0.975081 0
M  V30 56076 C 5332.46 -0.991108 -2.05332 0
M  V30 56077 C 5333.44 0.0648228 -1.60769 0
M  V30 56078 O 5334.63 -0.147979 -1.7638 0
M  V30 56079 C 5331.76 -0.589941 -3.38193 0
M  V30 56080 C 5330.85 -1.68156 -3.89338 0
M  V30 56081 N 5331.24 -2.91289 -4.13503 0
M  V30 56082 C 5329.54 -1.55737 -4.17926 0
M  V30 56083 C 5330.24 -3.62003 -4.55334 0
M  V30 56084 N 5329.21 -2.89536 -4.60076 0
M  V30 56085 H 5333.02 -1.9262 -2.21979 0
M  V30 56086 H 5330.53 -1.13831 -1.15828 0
M  V30 56087 H 5332.53 -0.394221 -4.15032 0
M  V30 56088 H 5331.19 0.338044 -3.22936 0
M  V30 56089 H 5332.2 -3.27542 -4.01169 0
M  V30 56090 H 5328.87 -0.696876 -4.11643 0
M  V30 56091 H 5330.26 -4.67589 -4.82504 0
M  V30 56092 N 5332.98 1.17465 -1.0507 0
M  V30 56093 C 5333.93 2.21441 -0.65059 0
M  V30 56094 C 5334.9 1.62443 0.346645 0
M  V30 56095 O 5336.09 1.89306 0.238338 0
M  V30 56096 C 5333.23 3.45087 -0.0302228 0
M  V30 56097 C 5332.34 4.18382 -1.07614 0
M  V30 56098 C 5331.47 5.29511 -0.423224 0
M  V30 56099 C 5330.51 5.94591 -1.45354 0
M  V30 56100 N 5329.65 6.97238 -0.824868 0
M  V30 56101 H 5334.49 2.5502 -1.54172 0
M  V30 56102 H 5332.03 1.25271 -0.771076 0
M  V30 56103 H 5333.99 4.15755 0.346886 0
M  V30 56104 H 5332.62 3.12096 0.824371 0
M  V30 56105 H 5331.67 3.4644 -1.57109 0
M  V30 56106 H 5332.98 4.62892 -1.85829 0
M  V30 56107 H 5332.13 6.067 0.00753646 0
M  V30 56108 H 5330.87 4.86131 0.390921 0
M  V30 56109 H 5329.88 5.16135 -1.89433 0
M  V30 56110 H 5331.1 6.40053 -2.26956 0
M  V30 56111 H 5329.05 6.55993 -0.031211 0
M  V30 56112 H 5328.97 7.40053 -1.54458 0
M  V30 56113 H 5330.23 7.78374 -0.41884 0
M  V30 56114 N 5334.46 0.831553 1.33877 0
M  V30 56115 C 5335.41 0.231735 2.26819 0
M  V30 56116 C 5336.4 -0.609022 1.48929 0
M  V30 56117 O 5337.59 -0.462189 1.70859 0
M  V30 56118 C 5334.72 -0.598342 3.38046 0
M  V30 56119 C 5333.8 0.25352 4.23342 0
M  V30 56120 N 5334.19 1.32871 4.88036 0
M  V30 56121 C 5332.49 0.0393105 4.45983 0
M  V30 56122 C 5333.19 1.85088 5.51468 0
M  V30 56123 N 5332.17 1.15346 5.31222 0
M  V30 56124 H 5335.97 1.05405 2.74348 0
M  V30 56125 H 5333.49 0.675247 1.47696 0
M  V30 56126 H 5335.48 -1.04429 4.03609 0
M  V30 56127 H 5334.14 -1.41872 2.92066 0
M  V30 56128 H 5335.15 1.71157 4.888 0
M  V30 56129 H 5331.83 -0.748212 4.10741 0
M  V30 56130 H 5333.22 2.75087 6.13006 0
M  V30 56131 N 5335.94 -1.46248 0.587307 0
M  V30 56132 C 5336.9 -2.28813 -0.133158 0
M  V30 56133 C 5337.9 -1.38647 -0.814464 0
M  V30 56134 O 5339.09 -1.60978 -0.665718 0
M  V30 56135 C 5336.23 -3.19152 -1.19813 0
M  V30 56136 H 5337.42 -2.93989 0.592489 0
M  V30 56137 H 5334.97 -1.52434 0.34547 0
M  V30 56138 H 5335.71 -2.58732 -1.9552 0
M  V30 56139 H 5335.49 -3.85544 -0.714044 0
M  V30 56140 H 5336.98 -3.81284 -1.7033 0
M  V30 56141 N 5337.42 -0.325336 -1.54205 0
M  V30 56142 C 5338.67 0.276705 -2.00601 0
M  V30 56143 C 5338.99 1.52003 -1.21349 0
M  V30 56144 O 5338.25 1.93626 -0.284172 0
M  V30 56145 C 5338.55 0.654169 -3.51362 0
M  V30 56146 C 5338.21 -0.49018 -4.48228 0
M  V30 56147 C 5336.88 -0.804271 -4.74431 0
M  V30 56148 C 5339.23 -1.25878 -5.05771 0
M  V30 56149 C 5336.56 -1.88965 -5.55436 0
M  V30 56150 C 5338.91 -2.33426 -5.87958 0
M  V30 56151 C 5337.57 -2.65415 -6.12463 0
M  V30 56152 H 5336.84 0.101253 -0.73405 0
M  V30 56153 H 5339.49 -0.449482 -1.8615 0
M  V30 56154 H 5337.79 1.46081 -3.63549 0
M  V30 56155 H 5339.49 1.13157 -3.84703 0
M  V30 56156 H 5336.08 -0.235298 -4.27954 0
M  V30 56157 H 5340.27 -1.02938 -4.85507 0
M  V30 56158 H 5335.52 -2.14194 -5.72653 0
M  V30 56159 H 5339.7 -2.93424 -6.31566 0
M  V30 56160 H 5337.32 -3.49646 -6.7502 0
M  V30 56161 N 5338.9 1.57509 -0.0535471 0
M  V30 56162 C 5339.83 2.14701 0.917924 0
M  V30 56163 C 5340.81 1.06929 1.32289 0
M  V30 56164 O 5341.99 1.3488 1.39718 0
M  V30 56165 C 5339.12 2.69391 2.19194 0
M  V30 56166 C 5338.08 3.82168 1.92696 0
M  V30 56167 C 5337.4 4.23385 3.26572 0
M  V30 56168 C 5338.7 5.07203 1.24668 0
M  V30 56169 H 5340.4 2.96126 0.441546 0
M  V30 56170 H 5337.94 1.42447 0.210943 0
M  V30 56171 H 5339.9 3.08041 2.87556 0
M  V30 56172 H 5338.62 1.85161 2.69041 0
M  V30 56173 H 5337.28 3.43993 1.26745 0
M  V30 56174 H 5336.93 3.36102 3.74225 0
M  V30 56175 H 5336.63 4.99396 3.0964 0
M  V30 56176 H 5338.15 4.64637 3.96162 0
M  V30 56177 H 5339.57 5.43285 1.83069 0
M  V30 56178 H 5337.96 5.88373 1.18055 0
M  V30 56179 H 5339.03 4.84387 0.223057 0
M  V30 56180 N 5340.38 -0.219858 1.56059 0
M  V30 56181 C 5341.62 -0.95105 1.80927 0
M  V30 56182 C 5341.98 -1.81463 0.627311 0
M  V30 56183 O 5343.18 -2.57969 0.755328 0
M  V30 56184 C 5341.45 -1.76641 3.10697 0
M  V30 56185 S 5343.01 -2.55301 3.56885 0
M  V30 56186 H 5339.83 -0.319439 0.635201 0
M  V30 56187 H 5342.43 -0.216483 1.94298 0
M  V30 56188 H 5341.13 -1.12217 3.9476 0
M  V30 56189 H 5340.67 -2.54325 3.00137 0
M  V30 56190 H 5342.68 -3.78927 3.20357 0
M  V30 56191 N 5341.85 -1.49899 -0.486629 0
M  V30 56192 C 5342.78 -1.70546 -1.59488 0
M  V30 56193 C 5343.76 -0.554241 -1.60817 0
M  V30 56194 O 5344.95 -0.791679 -1.7733 0
M  V30 56195 C 5342.08 -1.78527 -2.97901 0
M  V30 56196 C 5341.03 -2.93581 -3.11438 0
M  V30 56197 C 5340.36 -2.8669 -4.51346 0
M  V30 56198 C 5341.66 -4.34318 -2.90112 0
M  V30 56199 H 5343.35 -2.63334 -1.42463 0
M  V30 56200 H 5340.9 -1.26722 -0.683924 0
M  V30 56201 H 5342.85 -1.91557 -3.75345 0
M  V30 56202 H 5341.58 -0.823492 -3.16048 0
M  V30 56203 H 5340.24 -2.80177 -2.36424 0
M  V30 56204 H 5339.88 -1.8839 -4.66389 0
M  V30 56205 H 5339.58 -3.6392 -4.61342 0
M  V30 56206 H 5341.11 -3.01747 -5.30831 0
M  V30 56207 H 5342.52 -4.48329 -3.57315 0
M  V30 56208 H 5340.92 -5.1288 -3.11567 0
M  V30 56209 H 5341.99 -4.47765 -1.86103 0
M  V30 56210 N 5343.33 0.738712 -1.39215 0
M  V30 56211 C 5344.58 1.4982 -1.36236 0
M  V30 56212 C 5344.91 1.94453 0.0428869 0
M  V30 56213 O 5344.16 1.66834 1.02298 0
M  V30 56214 C 5344.46 2.75427 -2.2776 0
M  V30 56215 C 5344.13 2.49681 -3.7546 0
M  V30 56216 C 5342.79 2.42369 -4.15705 0
M  V30 56217 C 5345.14 2.27571 -4.68893 0
M  V30 56218 C 5342.47 2.10982 -5.47452 0
M  V30 56219 C 5344.82 1.97702 -6.00913 0
M  V30 56220 C 5343.48 1.88856 -6.40226 0
M  V30 56221 H 5342.75 0.548229 -0.498524 0
M  V30 56222 H 5345.4 0.848183 -1.71692 0
M  V30 56223 H 5343.71 3.45153 -1.8541 0
M  V30 56224 H 5345.4 3.33442 -2.2275 0
M  V30 56225 H 5341.99 2.56249 -3.43561 0
M  V30 56226 H 5346.18 2.3219 -4.38636 0
M  V30 56227 H 5341.43 2.02653 -5.76838 0
M  V30 56228 H 5345.61 1.79601 -6.72842 0
M  V30 56229 H 5343.23 1.64301 -7.42233 0
M  V30 56230 N 5344.81 1.24329 0.968501 0
M  V30 56231 C 5345.74 1.05958 2.08075 0
M  V30 56232 C 5346.72 -0.0272068 1.70078 0
M  V30 56233 O 5347.91 0.139712 1.93697 0
M  V30 56234 C 5345.04 0.662743 3.40918 0
M  V30 56235 C 5343.99 1.69821 3.92867 0
M  V30 56236 C 5343.32 1.15646 5.22044 0
M  V30 56237 C 5344.62 3.09398 4.20797 0
M  V30 56238 H 5346.31 1.98992 2.23702 0
M  V30 56239 H 5343.86 0.958149 1.07497 0
M  V30 56240 H 5345.81 0.521218 4.18164 0
M  V30 56241 H 5344.53 -0.303285 3.25189 0
M  V30 56242 H 5343.19 1.82794 3.17777 0
M  V30 56243 H 5342.84 0.181065 5.02674 0
M  V30 56244 H 5342.54 1.84842 5.5777 0
M  V30 56245 H 5344.06 1.02704 6.01901 0
M  V30 56246 H 5345.48 2.99659 4.88751 0
M  V30 56247 H 5343.87 3.75939 4.6775 0
M  V30 56248 H 5344.94 3.57497 3.27603 0
M  V30 56249 N 5346.29 -1.16906 1.05692 0
M  V30 56250 C 5347.22 -2.23273 0.683481 0
M  V30 56251 C 5348.2 -1.67041 -0.321147 0
M  V30 56252 O 5349.38 -1.93192 -0.197623 0
M  V30 56253 C 5346.51 -3.47243 0.0627227 0
M  V30 56254 C 5345.47 -4.1633 0.992659 0
M  V30 56255 C 5344.79 -5.34181 0.235518 0
M  V30 56256 C 5346.09 -4.67994 2.31903 0
M  V30 56257 H 5347.79 -2.54766 1.57273 0
M  V30 56258 H 5345.33 -1.22457 0.757649 0
M  V30 56259 H 5347.29 -4.20875 -0.210355 0
M  V30 56260 H 5346.01 -3.15033 -0.861506 0
M  V30 56261 H 5344.67 -3.44617 1.25038 0
M  V30 56262 H 5344.32 -4.98222 -0.691635 0
M  V30 56263 H 5344.02 -5.81343 0.855206 0
M  V30 56264 H 5345.54 -6.10593 -0.030157 0
M  V30 56265 H 5346.96 -5.33237 2.1055 0
M  V30 56266 H 5345.35 -5.25754 2.89314 0
M  V30 56267 H 5346.42 -3.84531 2.95405 0
M  V30 56268 N 5347.77 -0.838641 -1.33434 0
M  V30 56269 C 5349.18 -0.490998 -1.80128 0
M  V30 56270 C 5349.53 0.989964 -1.69393 0
M  V30 56271 O 5348.65 1.77134 -1.24308 0
M  V30 56272 C 5349.25 -0.884462 -3.27052 0
M  V30 56273 C 5347.81 -0.58896 -3.71764 0
M  V30 56274 C 5346.95 -1.09291 -2.54854 0
M  V30 56275 H 5349.9 -1.02736 -1.20958 0
M  V30 56276 H 5349.93 -0.194417 -3.80003 0
M  V30 56277 H 5349.44 -1.96237 -3.34832 0
M  V30 56278 H 5347.54 0.478888 -3.6951 0
M  V30 56279 H 5347.65 -1.14403 -4.6524 0
M  V30 56280 H 5346.02 -0.51379 -2.49464 0
M  V30 56281 H 5346.8 -2.17759 -2.65398 0
M  V30 56282 N 5349.24 1.45934 -0.595055 0
M  V30 56283 C 5350.47 2.07207 -0.0895145 0
M  V30 56284 C 5350.89 1.43888 1.21152 0
M  V30 56285 O 5350.25 0.527059 1.7347 0
M  V30 56286 C 5350.3 3.60566 0.049856 0
M  V30 56287 O 5349.4 3.97368 1.10328 0
M  V30 56288 H 5348.74 0.660469 -0.0683859 0
M  V30 56289 H 5351.27 1.87383 -0.821506 0
M  V30 56290 H 5351.28 4.0722 0.252091 0
M  V30 56291 H 5349.96 4.06041 -0.900203 0
M  V30 56292 H 5348.54 3.62404 0.878518 0
M  V30 56293 N 5350.72 0.33351 1.54031 0
M  V30 56294 C 5351.65 -0.52043 2.27626 0
M  V30 56295 C 5352.63 -1.11105 1.28801 0
M  V30 56296 O 5353.82 -1.13432 1.57629 0
M  V30 56297 C 5350.95 -1.67652 3.04155 0
M  V30 56298 C 5349.9 -1.21473 4.104 0
M  V30 56299 C 5349.23 -2.45855 4.74826 0
M  V30 56300 C 5350.53 -0.322419 5.21304 0
M  V30 56301 H 5352.22 0.0934875 2.99254 0
M  V30 56302 H 5349.77 0.0464032 1.43925 0
M  V30 56303 H 5351.72 -2.28029 3.54374 0
M  V30 56304 H 5350.45 -2.31718 2.30161 0
M  V30 56305 H 5349.1 -0.633839 3.61079 0
M  V30 56306 H 5348.75 -3.08306 3.97437 0
M  V30 56307 H 5348.45 -2.15643 5.466 0
M  V30 56308 H 5349.98 -3.06975 5.27824 0
M  V30 56309 H 5351.39 -0.832743 5.6722 0
M  V30 56310 H 5349.79 -0.112632 5.99994 0
M  V30 56311 H 5350.86 0.644123 4.80603 0
M  V30 56312 N 5352.2 -1.57478 0.0618994 0
M  V30 56313 C 5353.16 -2.11043 -0.894053 0
M  V30 56314 C 5354.16 -1.03231 -1.23288 0
M  V30 56315 O 5355.35 -1.2926 -1.16779 0
M  V30 56316 C 5352.49 -2.60358 -2.2006 0
M  V30 56317 H 5353.68 -2.96808 -0.429515 0
M  V30 56318 H 5351.23 -1.55181 -0.186666 0
M  V30 56319 H 5351.97 -1.78018 -2.71072 0
M  V30 56320 H 5351.75 -3.39153 -1.96768 0
M  V30 56321 H 5353.24 -3.0191 -2.88514 0
M  V30 56322 N 5353.68 0.211579 -1.56173 0
M  V30 56323 C 5354.91 0.951119 -1.83743 0
M  V30 56324 C 5355.32 1.77538 -0.642314 0
M  V30 56325 O 5354.68 1.78304 0.389111 0
M  V30 56326 C 5354.73 1.86064 -3.09939 0
M  V30 56327 O 5354.45 1.06968 -4.2484 0
M  V30 56328 C 5355.95 2.71324 -3.50568 0
M  V30 56329 H 5353.17 0.278291 -0.61057 0
M  V30 56330 H 5355.72 0.2238 -2.03272 0
M  V30 56331 H 5353.87 2.54178 -2.92356 0
M  V30 56332 H 5354.28 1.68798 -4.96596 0
M  V30 56333 H 5355.76 3.30827 -4.41879 0
M  V30 56334 H 5356.24 3.44217 -2.72785 0
M  V30 56335 H 5356.84 2.08607 -3.70625 0
M  V30 56336 N 5355.16 1.50155 0.478672 0
M  V30 56337 C 5356.4 1.61003 1.23312 0
M  V30 56338 C 5356.74 0.305936 1.91775 0
M  V30 56339 O 5356.01 -0.692094 1.8177 0
M  V30 56340 C 5356.29 2.78503 2.28272 0
M  V30 56341 C 5356.15 4.18772 1.64164 0
M  V30 56342 C 5357.47 2.91581 3.29649 0
M  V30 56343 H 5354.58 0.585999 0.446961 0
M  V30 56344 H 5357.23 1.82516 0.527998 0
M  V30 56345 H 5355.38 2.60291 2.88411 0
M  V30 56346 H 5357.05 4.48556 1.0768 0
M  V30 56347 H 5355.29 4.23382 0.944991 0
M  V30 56348 H 5355.96 4.96902 2.404 0
M  V30 56349 H 5358.44 3.08229 2.79525 0
M  V30 56350 H 5357.31 3.75433 4.00426 0
M  V30 56351 H 5357.58 2.01873 3.93319 0
M  V30 56352 N 5356.63 -0.731319 1.39605 0
M  V30 56353 C 5357.6 -1.82705 1.3839 0
M  V30 56354 C 5358.6 -1.58337 0.280364 0
M  V30 56355 O 5359.79 -1.65669 0.538461 0
M  V30 56356 C 5356.92 -3.20552 1.16013 0
M  V30 56357 H 5358.11 -1.85185 2.35896 0
M  V30 56358 H 5355.67 -0.935352 1.25223 0
M  V30 56359 H 5356.4 -3.23731 0.192041 0
M  V30 56360 H 5356.19 -3.39637 1.95932 0
M  V30 56361 H 5357.68 -4.00607 1.17913 0
M  V30 56362 N 5358.11 -1.24841 -0.961894 0
M  V30 56363 C 5359.34 -1.11715 -1.73791 0
M  V30 56364 C 5359.75 0.332564 -1.86254 0
M  V30 56365 O 5359.09 1.24096 -1.35447 0
M  V30 56366 C 5359.16 -1.6897 -3.17316 0
M  V30 56367 C 5358.82 -3.17907 -3.28305 0
M  V30 56368 C 5359.82 -4.14986 -3.13181 0
M  V30 56369 C 5357.5 -3.57978 -3.52359 0
M  V30 56370 C 5359.5 -5.50118 -3.21946 0
M  V30 56371 C 5357.18 -4.93249 -3.60761 0
M  V30 56372 C 5358.18 -5.89129 -3.45567 0
M  V30 56373 O 5357.87 -7.21939 -3.53636 0
M  V30 56374 H 5357.6 -0.390746 -0.551628 0
M  V30 56375 H 5360.15 -1.65546 -1.21589 0
M  V30 56376 H 5358.38 -1.0958 -3.70849 0
M  V30 56377 H 5360.07 -1.5105 -3.76748 0
M  V30 56378 H 5360.84 -3.85369 -2.94475 0
M  V30 56379 H 5356.72 -2.8385 -3.63249 0
M  V30 56380 H 5360.26 -6.24935 -3.10003 0
M  V30 56381 H 5356.16 -5.22535 -3.78982 0
M  V30 56382 H 5356.93 -7.29938 -3.70314 0
M  V30 56383 N 5359.59 1.16344 -1.0631 0
M  V30 56384 C 5360.84 1.86878 -0.779917 0
M  V30 56385 C 5361.17 1.81712 0.693604 0
M  V30 56386 O 5360.42 1.22775 1.52397 0
M  V30 56387 C 5360.72 3.35932 -1.22002 0
M  V30 56388 C 5360.39 3.61297 -2.69769 0
M  V30 56389 C 5359.05 3.67929 -3.10132 0
M  V30 56390 C 5361.4 3.71858 -3.652 0
M  V30 56391 C 5358.73 3.82623 -4.44766 0
M  V30 56392 C 5361.08 3.88074 -4.99581 0
M  V30 56393 C 5359.74 3.92948 -5.39582 0
M  V30 56394 H 5359.01 0.683837 -0.285392 0
M  V30 56395 H 5361.66 1.37565 -1.33222 0
M  V30 56396 H 5359.97 3.87379 -0.58691 0
M  V30 56397 H 5361.66 3.88892 -0.977958 0
M  V30 56398 H 5358.25 3.56768 -2.37517 0
M  V30 56399 H 5362.44 3.66045 -3.35149 0
M  V30 56400 H 5357.69 3.84649 -4.75242 0
M  V30 56401 H 5361.87 3.95187 -5.73411 0
M  V30 56402 H 5359.49 4.04086 -6.43909 0
M  V30 56403 N 5361.07 0.845705 1.32987 0
M  V30 56404 C 5362.02 0.272493 2.30998 0
M  V30 56405 C 5363.01 -0.599256 1.58446 0
M  V30 56406 O 5364.22 -0.488056 1.73257 0
M  V30 56407 H 5360.59 0.0694014 0.748791 0
M  V30 56408 H 5362.56 1.11353 2.76845 0
M  V30 56409 C 5361.31 -0.531899 3.43608 0
M  V30 56410 H 5360.63 0.129595 3.9959 0
M  V30 56411 H 5362.07 -0.898707 4.14366 0
M  V30 56412 C 5360.53 -1.71354 2.90068 0
M  V30 56413 O 5361.06 -2.81242 2.8682 0
M  V30 56414 N 5359.27 -1.53766 2.46585 0
M  V30 56415 H 5358.82 -0.643748 2.49427 0
M  V30 56416 H 5358.77 -2.32975 2.11116 0
M  V30 56417 N 5362.55 -1.45617 0.602786 0
M  V30 56418 C 5363.48 -2.27583 -0.167628 0
M  V30 56419 C 5364.46 -1.36847 -0.878158 0
M  V30 56420 O 5365.64 -1.66273 -0.888 0
M  V30 56421 C 5362.77 -3.15098 -1.24221 0
M  V30 56422 C 5361.81 -4.21741 -0.635342 0
M  V30 56423 S 5362.65 -5.32636 0.553131 0
M  V30 56424 C 5363.8 -6.23718 -0.522163 0
M  V30 56425 H 5364.04 -2.92577 0.5278 0
M  V30 56426 H 5361.57 -1.49389 0.39018 0
M  V30 56427 H 5363.53 -3.66077 -1.85735 0
M  V30 56428 H 5362.19 -2.49379 -1.90969 0
M  V30 56429 H 5361.38 -4.82879 -1.44372 0
M  V30 56430 H 5360.98 -3.73878 -0.0954457 0
M  V30 56431 H 5363.28 -6.62824 -1.40253 0
M  V30 56432 H 5364.22 -7.0808 0.052944 0
M  V30 56433 H 5364.63 -5.58285 -0.835333 0
M  V30 56434 N 5364.02 -0.341674 -1.53852 0
M  V30 56435 C 5365.27 0.255791 -2.0118 0
M  V30 56436 C 5365.6 1.50352 -1.22915 0
M  V30 56437 O 5364.88 1.91911 -0.316266 0
M  V30 56438 C 5365.16 0.571809 -3.55531 0
M  V30 56439 C 5365.01 -0.687883 -4.44509 0
M  V30 56440 C 5366.33 1.38218 -4.17832 0
M  V30 56441 H 5363.45 0.0914953 -0.731299 0
M  V30 56442 H 5366.09 -0.46184 -1.84301 0
M  V30 56443 H 5364.24 1.18318 -3.70045 0
M  V30 56444 H 5365.92 -1.32587 -4.41835 0
M  V30 56445 H 5364.16 -1.31315 -4.13447 0
M  V30 56446 H 5364.83 -0.422052 -5.50384 0
M  V30 56447 H 5367.31 0.865231 -4.07005 0
M  V30 56448 H 5366.18 1.57205 -5.25907 0
M  V30 56449 H 5366.44 2.38373 -3.72332 0
M  V30 56450 N 5365.5 1.57443 -0.07025 0
M  V30 56451 C 5366.73 1.97469 0.607406 0
M  V30 56452 C 5367.14 0.94729 1.63777 0
M  V30 56453 O 5366.48 -0.0745875 1.83549 0
M  V30 56454 C 5366.55 3.338 1.33483 0
M  V30 56455 C 5366.21 4.54698 0.458105 0
M  V30 56456 C 5367.21 5.19126 -0.283671 0
M  V30 56457 C 5364.89 5.00834 0.383436 0
M  V30 56458 C 5366.89 6.2804 -1.08835 0
M  V30 56459 C 5364.57 6.09621 -0.424919 0
M  V30 56460 C 5365.57 6.73086 -1.15948 0
M  V30 56461 O 5365.26 7.79778 -1.95451 0
M  V30 56462 H 5364.99 0.654411 0.169478 0
M  V30 56463 H 5367.55 2.04931 -0.138723 0
M  V30 56464 H 5365.78 3.22948 2.127 0
M  V30 56465 H 5367.46 3.58442 1.90457 0
M  V30 56466 H 5368.23 4.84428 -0.235567 0
M  V30 56467 H 5364.11 4.51214 0.944809 0
M  V30 56468 H 5367.65 6.77507 -1.66221 0
M  V30 56469 H 5363.55 6.43753 -0.474592 0
M  V30 56470 H 5364.32 7.96648 -1.87866 0
M  V30 56471 N 5366.98 -0.203294 1.56283 0
M  V30 56472 C 5367.91 -1.27975 1.88938 0
M  V30 56473 C 5368.89 -1.44342 0.748605 0
M  V30 56474 O 5370.08 -1.59863 0.998797 0
M  V30 56475 C 5367.2 -2.64755 2.11241 0
M  V30 56476 C 5366.25 -2.65303 3.33941 0
M  V30 56477 S 5367.08 -2.17551 4.89318 0
M  V30 56478 C 5368.24 -3.5617 5.14678 0
M  V30 56479 H 5368.47 -1.00085 2.79947 0
M  V30 56480 H 5366 -0.406405 1.48955 0
M  V30 56481 H 5367.96 -3.43493 2.24772 0
M  V30 56482 H 5366.62 -2.8986 1.20996 0
M  V30 56483 H 5365.82 -3.65858 3.46647 0
M  V30 56484 H 5365.42 -1.94641 3.1936 0
M  V30 56485 H 5367.71 -4.51983 5.04696 0
M  V30 56486 H 5368.65 -3.48366 6.16479 0
M  V30 56487 H 5369.06 -3.50703 4.42343 0
M  V30 56488 N 5368.46 -1.50407 -0.470702 0
M  V30 56489 C 5369.87 -1.54269 -1.05156 0
M  V30 56490 C 5370.22 -0.346427 -1.93117 0
M  V30 56491 O 5369.35 0.540625 -2.09538 0
M  V30 56492 C 5369.94 -2.79567 -1.91384 0
M  V30 56493 C 5368.5 -2.86109 -2.44578 0
M  V30 56494 C 5367.65 -2.48562 -1.22932 0
M  V30 56495 H 5370.6 -1.56665 -0.253304 0
M  V30 56496 H 5370.62 -2.61444 -2.76455 0
M  V30 56497 H 5370.13 -3.66615 -1.27338 0
M  V30 56498 H 5368.23 -2.03413 -3.12176 0
M  V30 56499 H 5368.35 -3.89009 -2.79658 0
M  V30 56500 H 5366.71 -2.01008 -1.56422 0
M  V30 56501 H 5367.49 -3.37918 -0.605479 0
M  V30 56502 N 5369.94 0.723905 -1.39991 0
M  V30 56503 C 5370.9 1.81968 -1.39356 0
M  V30 56504 C 5371.9 1.58186 -0.288757 0
M  V30 56505 O 5373.09 1.65381 -0.547239 0
M  V30 56506 C 5370.22 3.19932 -1.17712 0
M  V30 56507 H 5371.42 1.83931 -2.36874 0
M  V30 56508 H 5368.97 0.928698 -1.25718 0
M  V30 56509 H 5369.7 3.23625 -0.209206 0
M  V30 56510 H 5369.49 3.38593 -1.97731 0
M  V30 56511 H 5370.98 3.99976 -1.20036 0
M  V30 56512 N 5371.42 1.2535 0.95526 0
M  V30 56513 C 5372.64 1.12898 1.7398 0
M  V30 56514 C 5373.07 -0.31339 1.85471 0
M  V30 56515 O 5372.42 -1.22701 1.33469 0
M  V30 56516 C 5372.47 1.7874 3.13184 0
M  V30 56517 O 5371.58 1.06662 3.98368 0
M  V30 56518 H 5370.92 0.394197 0.534327 0
M  V30 56519 H 5373.45 1.65901 1.19742 0
M  V30 56520 H 5373.46 1.85 3.63647 0
M  V30 56521 H 5372.13 2.8368 3.04136 0
M  V30 56522 H 5370.71 1.08278 3.56834 0
M  V30 56523 N 5372.89 -1.15778 1.06926 0
M  V30 56524 C 5374.14 -1.86972 0.800813 0
M  V30 56525 C 5374.49 -1.80514 -0.665755 0
M  V30 56526 O 5373.79 -1.21437 -1.48201 0
M  V30 56527 C 5373.98 -3.3528 1.23782 0
M  V30 56528 C 5373.81 -3.56176 2.74533 0
M  V30 56529 C 5372.58 -3.71896 3.42084 0
M  V30 56530 C 5374.78 -3.5436 3.72738 0
M  V30 56531 N 5372.76 -3.80804 4.8152 0
M  V30 56532 C 5374.13 -3.6933 4.97991 0
M  V30 56533 C 5376.19 -3.37609 3.65957 0
M  V30 56534 C 5374.89 -3.6928 6.17272 0
M  V30 56535 C 5376.92 -3.38856 4.84696 0
M  V30 56536 C 5376.28 -3.54351 6.08781 0
M  V30 56537 H 5372.38 -0.701521 0.345532 0
M  V30 56538 H 5374.96 -1.3887 1.36466 0
M  V30 56539 H 5373.13 -3.82008 0.701722 0
M  V30 56540 H 5374.86 -3.94165 0.917374 0
M  V30 56541 H 5371.62 -3.72489 2.92488 0
M  V30 56542 H 5372.04 -3.89012 5.54075 0
M  V30 56543 H 5376.68 -3.24552 2.70972 0
M  V30 56544 H 5374.4 -3.81117 7.12583 0
M  V30 56545 H 5377.99 -3.27129 4.81122 0
M  V30 56546 H 5376.87 -3.55243 6.99122 0
M  V30 56547 N 5374.37 -0.852746 -1.32537 0
M  V30 56548 C 5375.62 -0.455867 -1.9761 0
M  V30 56549 C 5375.95 0.985557 -1.67333 0
M  V30 56550 O 5375.23 1.69126 -0.960553 0
M  V30 56551 C 5375.51 -0.693245 -3.53364 0
M  V30 56552 C 5375.36 -2.18295 -3.93278 0
M  V30 56553 C 5376.68 -0.148391 -4.3985 0
M  V30 56554 H 5373.8 -0.167104 -0.717806 0
M  V30 56555 H 5376.44 -1.07082 -1.56951 0
M  V30 56556 H 5374.59 -0.169813 -3.88129 0
M  V30 56557 H 5376.26 -2.77231 -3.68701 0
M  V30 56558 H 5374.51 -2.66218 -3.42506 0
M  V30 56559 H 5375.18 -2.29974 -5.01813 0
M  V30 56560 H 5377.65 -0.595978 -4.1181 0
M  V30 56561 H 5376.53 -0.344066 -5.47821 0
M  V30 56562 H 5376.79 0.94872 -4.31801 0
M  V30 56563 N 5375.85 1.45295 -0.6105 0
M  V30 56564 C 5376.78 2.27669 0.155557 0
M  V30 56565 C 5377.76 1.37311 0.870888 0
M  V30 56566 O 5378.94 1.66742 0.879169 0
M  V30 56567 C 5376.07 3.15752 1.22549 0
M  V30 56568 C 5375.12 4.22072 0.612967 0
M  V30 56569 S 5375.95 5.32335 -0.58137 0
M  V30 56570 C 5377.11 6.23986 0.489078 0
M  V30 56571 H 5377.34 2.92293 -0.543308 0
M  V30 56572 H 5374.87 1.4918 -0.398096 0
M  V30 56573 H 5376.83 3.67057 1.83791 0
M  V30 56574 H 5375.49 2.50388 1.89644 0
M  V30 56575 H 5374.68 4.83638 1.4181 0
M  V30 56576 H 5374.29 3.73924 0.0756167 0
M  V30 56577 H 5376.58 6.63558 1.36736 0
M  V30 56578 H 5377.52 7.08042 -0.0904945 0
M  V30 56579 H 5377.93 5.5872 0.805714 0
M  V30 56580 N 5377.33 0.349828 1.53668 0
M  V30 56581 C 5378.74 -0.00185682 1.596 0
M  V30 56582 C 5378.94 -1.4817 1.36557 0
M  V30 56583 O 5378 -2.24125 1.16293 0
M  V30 56584 C 5379.31 0.439953 2.97464 0
M  V30 56585 C 5380.86 0.39283 3.10525 0
M  V30 56586 C 5381.34 0.810205 4.50777 0
M  V30 56587 N 5382.83 0.764639 4.56845 0
M  V30 56588 C 5383.56 1.05946 5.63527 0
M  V30 56589 N 5383.06 1.42277 6.78033 0
M  V30 56590 N 5384.85 0.983292 5.53433 0
M  V30 56591 H 5377 1.3137 1.669 0
M  V30 56592 H 5379.26 0.535935 0.78197 0
M  V30 56593 H 5378.97 1.472 3.19413 0
M  V30 56594 H 5378.84 -0.181602 3.76763 0
M  V30 56595 H 5381.23 -0.630059 2.88295 0
M  V30 56596 H 5381.31 1.04967 2.33271 0
M  V30 56597 H 5380.96 1.83113 4.73742 0
M  V30 56598 H 5380.89 0.130776 5.26438 0
M  V30 56599 H 5383.38 0.496768 3.74621 0
M  V30 56600 H 5383.69 1.63241 7.55362 0
M  V30 56601 H 5382.04 1.46128 6.79464 0
M  V30 56602 H 5385.23 0.698763 4.62855 0
M  V30 56603 H 5385.4 1.2164 6.36481 0
M  V30 56604 N 5378.81 -1.57404 0.0785986 0
M  V30 56605 C 5380.05 -1.92922 -0.588558 0
M  V30 56606 C 5380.37 -0.961166 -1.70355 0
M  V30 56607 O 5381.57 -1.20943 -2.43074 0
M  V30 56608 C 5380.03 -3.42733 -1.09827 0
M  V30 56609 C 5379.64 -4.47998 -0.0139198 0
M  V30 56610 C 5381.38 -3.87241 -1.73911 0
M  V30 56611 C 5379.29 -5.88947 -0.538062 0
M  V30 56612 H 5378.22 -0.720077 -0.22362 0
M  V30 56613 H 5380.87 -1.8287 0.151934 0
M  V30 56614 H 5379.25 -3.47881 -1.89194 0
M  V30 56615 H 5380.43 -4.54474 0.760933 0
M  V30 56616 H 5378.74 -4.12999 0.531095 0
M  V30 56617 H 5381.34 -4.89934 -2.14169 0
M  V30 56618 H 5381.68 -3.2498 -2.6018 0
M  V30 56619 H 5382.21 -3.84724 -1.01154 0
M  V30 56620 H 5378.95 -6.54869 0.287626 0
M  V30 56621 H 5378.47 -5.85977 -1.28029 0
M  V30 56622 H 5380.15 -6.39032 -1.01231 0
M  V30 56623 N 5380.28 0.195003 -1.56389 0
M  V30 56624 C 5381.22 1.26971 -1.89614 0
M  V30 56625 C 5382.2 1.43943 -0.75625 0
M  V30 56626 O 5383.38 1.59331 -1.00726 0
M  V30 56627 C 5380.51 2.63631 -2.12642 0
M  V30 56628 C 5379.55 2.63528 -3.35343 0
M  V30 56629 S 5380.39 2.14953 -4.90465 0
M  V30 56630 C 5381.54 3.53436 -5.1656 0
M  V30 56631 H 5381.77 0.985992 -2.80474 0
M  V30 56632 H 5379.31 0.3985 -1.49169 0
M  V30 56633 H 5381.27 3.42296 -2.26591 0
M  V30 56634 H 5379.93 2.89214 -1.22532 0
M  V30 56635 H 5379.12 3.64014 -3.48582 0
M  V30 56636 H 5378.72 1.92944 -3.20388 0
M  V30 56637 H 5381.01 4.493 -5.07086 0
M  V30 56638 H 5381.96 3.45092 -6.18318 0
M  V30 56639 H 5382.36 3.48352 -4.44197 0
M  V30 56640 N 5381.76 1.50654 0.462719 0
M  V30 56641 C 5382.99 1.65831 1.23725 0
M  V30 56642 C 5383.41 0.345067 1.8562 0
M  V30 56643 O 5382.76 -0.673875 1.69603 0
M  V30 56644 C 5382.81 2.75558 2.33987 0
M  V30 56645 O 5382.53 4.01792 1.74629 0
M  V30 56646 C 5384.04 3.01782 3.24719 0
M  V30 56647 H 5381.26 0.55719 0.373873 0
M  V30 56648 H 5383.8 1.96927 0.551365 0
M  V30 56649 H 5381.95 2.47132 2.98336 0
M  V30 56650 H 5382.37 4.62538 2.47303 0
M  V30 56651 H 5383.84 3.82202 3.98279 0
M  V30 56652 H 5384.32 2.1318 3.83993 0
M  V30 56653 H 5384.93 3.3177 2.66099 0
M  V30 56654 N 5383.24 -0.716471 1.40373 0
M  V30 56655 C 5384.49 -1.47731 1.39811 0
M  V30 56656 C 5384.84 -1.924 -0.0002728 0
M  V30 56657 O 5384.13 -1.65203 -0.970489 0
M  V30 56658 C 5384.33 -2.71769 2.32113 0
M  V30 56659 C 5384.16 -2.39232 3.80786 0
M  V30 56660 C 5382.93 -2.30616 4.49605 0
M  V30 56661 C 5385.13 -2.0356 4.72301 0
M  V30 56662 N 5383.11 -1.90744 5.83515 0
M  V30 56663 C 5384.48 -1.74281 5.95001 0
M  V30 56664 C 5386.53 -1.90188 4.60144 0
M  V30 56665 C 5385.24 -1.32976 7.06902 0
M  V30 56666 C 5387.26 -1.50287 5.71986 0
M  V30 56667 C 5386.62 -1.21905 6.93771 0
M  V30 56668 H 5382.72 -0.538701 0.566855 0
M  V30 56669 H 5385.31 -0.830956 1.76077 0
M  V30 56670 H 5383.48 -3.34156 1.97975 0
M  V30 56671 H 5385.21 -3.38104 2.22414 0
M  V30 56672 H 5381.97 -2.48327 4.03275 0
M  V30 56673 H 5382.39 -1.73349 6.5443 0
M  V30 56674 H 5387.03 -2.10792 3.66506 0
M  V30 56675 H 5384.75 -1.11115 8.00424 0
M  V30 56676 H 5388.34 -1.4052 5.64575 0
M  V30 56677 H 5387.22 -0.91494 7.78844 0
M  V30 56678 N 5384.72 -1.25855 -0.948599 0
M  V30 56679 C 5385.65 -1.09255 -2.06363 0
M  V30 56680 C 5386.63 0.00014537 -1.701 0
M  V30 56681 O 5387.81 -0.17051 -1.9345 0
M  V30 56682 C 5384.94 -0.716896 -3.3982 0
M  V30 56683 C 5383.9 -1.7605 -3.90116 0
M  V30 56684 C 5383.22 -1.23937 -5.20138 0
M  V30 56685 C 5384.52 -3.16053 -4.15822 0
M  V30 56686 H 5386.22 -2.02525 -2.20508 0
M  V30 56687 H 5383.76 -0.97513 -1.05959 0
M  V30 56688 H 5385.72 -0.587678 -4.17282 0
M  V30 56689 H 5384.44 0.251512 -3.2563 0
M  V30 56690 H 5383.1 -1.87826 -3.14828 0
M  V30 56691 H 5382.75 -0.261013 -5.02322 0
M  V30 56692 H 5382.45 -1.93692 -5.54759 0
M  V30 56693 H 5383.97 -1.12266 -6.0019 0
M  V30 56694 H 5385.39 -3.07397 -4.83922 0
M  V30 56695 H 5383.78 -3.83333 -4.61709 0
M  V30 56696 H 5384.85 -3.62664 -3.21874 0
M  V30 56697 N 5386.2 1.1521 -1.07538 0
M  V30 56698 C 5387.11 2.23633 -0.708897 0
M  V30 56699 C 5388.12 1.71721 0.280699 0
M  V30 56700 O 5389.3 2.01 0.126857 0
M  V30 56701 C 5386.36 3.46512 -0.114289 0
M  V30 56702 C 5385.42 4.13405 -1.15736 0
M  V30 56703 C 5384.66 5.30417 -0.591037 0
M  V30 56704 O 5384.88 5.67316 0.592312 0
M  V30 56705 O 5383.81 5.86866 -1.33684 0
M  V30 56706 H 5387.64 2.57316 -1.61314 0
M  V30 56707 H 5385.23 1.22969 -0.848465 0
M  V30 56708 H 5387.11 4.20851 0.214943 0
M  V30 56709 H 5385.78 3.14573 0.763245 0
M  V30 56710 H 5384.69 3.40978 -1.53898 0
M  V30 56711 H 5386.02 4.49428 -2.00687 0
M  V30 56712 N 5387.67 0.859763 1.32083 0
M  V30 56713 C 5388.6 0.323584 2.31247 0
M  V30 56714 C 5389.59 -0.580029 1.59905 0
M  V30 56715 O 5390.77 -0.499199 1.87674 0
M  V30 56716 C 5387.9 -0.48454 3.43903 0
M  V30 56717 C 5386.85 0.325083 4.26764 0
M  V30 56718 C 5386.18 -0.608094 5.31231 0
M  V30 56719 C 5387.48 1.55361 4.98658 0
M  V30 56720 H 5389.17 1.15219 2.76342 0
M  V30 56721 H 5386.72 0.555489 1.32855 0
M  V30 56722 H 5388.67 -0.870093 4.12319 0
M  V30 56723 H 5387.4 -1.34656 2.97549 0
M  V30 56724 H 5386.06 0.692455 3.60001 0
M  V30 56725 H 5385.7 -1.4671 4.81129 0
M  V30 56726 H 5385.4 -0.0703505 5.87558 0
M  V30 56727 H 5386.93 -0.990713 6.02509 0
M  V30 56728 H 5388.34 1.24007 5.59728 0
M  V30 56729 H 5386.74 2.02967 5.64734 0
M  V30 56730 H 5387.81 2.31207 4.26229 0
M  V30 56731 N 5389.15 -1.44969 0.618196 0
M  V30 56732 C 5390.12 -2.29044 -0.0845934 0
M  V30 56733 C 5391.12 -1.40344 -0.784872 0
M  V30 56734 O 5392.31 -1.62354 -0.631422 0
M  V30 56735 C 5389.44 -3.21621 -1.13016 0
M  V30 56736 H 5390.63 -2.92666 0.654715 0
M  V30 56737 H 5388.18 -1.51667 0.377726 0
M  V30 56738 H 5388.92 -2.62821 -1.89988 0
M  V30 56739 H 5388.7 -3.86971 -0.632104 0
M  V30 56740 H 5390.19 -3.84811 -1.62204 0
M  V30 56741 N 5390.63 -0.357973 -1.53481 0
M  V30 56742 C 5391.91 0.290096 -1.93437 0
M  V30 56743 C 5392.29 1.67034 -1.29085 0
M  V30 56744 O 5391.64 2.24083 -0.447096 0
M  V30 56745 C 5391.85 0.347933 -3.47261 0
M  V30 56746 C 5393.19 0.591912 -4.20454 0
M  V30 56747 O 5394.22 0.429457 -3.53602 0
M  V30 56748 O 5393.08 0.907665 -5.3891 0
M  V30 56749 H 5390.17 0.172283 -0.808856 0
M  V30 56750 H 5392.72 -0.410202 -1.64668 0
M  V30 56751 H 5391.49 -0.620089 -3.86356 0
M  V30 56752 H 5391.11 1.09443 -3.82241 0
M  V30 56753 N 5392.11 1.5736 -0.086945 0
M  V30 56754 C 5393.34 1.9839 0.58728 0
M  V30 56755 C 5393.75 0.965814 1.62227 0
M  V30 56756 O 5393.11 -0.0456339 1.82443 0
M  V30 56757 C 5393.16 3.39483 1.2423 0
M  V30 56758 O 5392.88 4.37393 0.248724 0
M  V30 56759 C 5394.38 3.95472 2.00292 0
M  V30 56760 H 5391.6 0.652116 0.158067 0
M  V30 56761 H 5394.15 2.03843 -0.163825 0
M  V30 56762 H 5392.3 3.3507 1.94439 0
M  V30 56763 H 5392.71 5.19528 0.720496 0
M  V30 56764 H 5394.19 4.96372 2.41494 0
M  V30 56765 H 5394.67 3.32842 2.86553 0
M  V30 56766 H 5395.27 4.03333 1.34917 0
M  V30 56767 N 5393.59 -0.186707 1.5649 0
M  V30 56768 C 5394.81 -0.925851 1.85588 0
M  V30 56769 C 5395.24 -1.75705 0.671507 0
M  V30 56770 O 5394.59 -1.77281 -0.379624 0
M  V30 56771 C 5394.64 -1.79096 3.12981 0
M  V30 56772 O 5393.75 -2.89077 2.94123 0
M  V30 56773 H 5393.09 -0.260253 0.610872 0
M  V30 56774 H 5395.62 -0.189489 2.03721 0
M  V30 56775 H 5395.63 -2.19396 3.43991 0
M  V30 56776 H 5394.3 -1.1803 3.98801 0
M  V30 56777 H 5392.88 -2.52472 2.74431 0
M  V30 56778 N 5395.07 -1.50897 -0.454723 0
M  V30 56779 C 5396 -1.73891 -1.55834 0
M  V30 56780 C 5396.98 -0.588228 -1.59605 0
M  V30 56781 O 5398.16 -0.829116 -1.75611 0
M  V30 56782 C 5395.29 -1.84806 -2.94048 0
M  V30 56783 C 5394.25 -3.00122 -3.05141 0
M  V30 56784 C 5393.57 -2.96199 -4.45163 0
M  V30 56785 C 5394.87 -4.40374 -2.80834 0
M  V30 56786 H 5396.57 -2.66297 -1.36845 0
M  V30 56787 H 5394.11 -1.28144 -0.656891 0
M  V30 56788 H 5396.06 -1.99475 -3.71197 0
M  V30 56789 H 5394.79 -0.890346 -3.1423 0
M  V30 56790 H 5393.45 -2.85129 -2.30427 0
M  V30 56791 H 5393.1 -1.9824 -4.62288 0
M  V30 56792 H 5392.8 -3.73624 -4.53519 0
M  V30 56793 H 5394.32 -3.12939 -5.24311 0
M  V30 56794 H 5395.73 -4.55807 -3.47725 0
M  V30 56795 H 5394.13 -5.19374 -3.00618 0
M  V30 56796 H 5395.2 -4.51612 -1.76563 0
M  V30 56797 N 5396.54 0.709016 -1.40751 0
M  V30 56798 C 5397.77 1.50308 -1.42907 0
M  V30 56799 C 5398.19 1.88072 -0.0322792 0
M  V30 56800 O 5397.55 1.53719 0.961256 0
M  V30 56801 C 5397.6 2.75066 -2.33176 0
M  V30 56802 O 5396.7 3.7203 -1.77953 0
M  V30 56803 H 5396.04 0.452916 -0.485554 0
M  V30 56804 H 5398.57 0.872647 -1.85057 0
M  V30 56805 H 5398.58 3.23523 -2.48589 0
M  V30 56806 H 5397.26 2.46915 -3.34673 0
M  V30 56807 H 5395.84 3.30905 -1.7192 0
M  V30 56808 N 5398.02 1.26356 0.941911 0
M  V30 56809 C 5399.27 1.11636 1.68469 0
M  V30 56810 C 5399.59 -0.341013 1.91995 0
M  V30 56811 O 5398.86 -1.24059 1.51612 0
M  V30 56812 H 5397.44 0.410135 0.624339 0
M  V30 56813 H 5400.1 1.58673 1.13177 0
M  V30 56814 H 5399.2 1.63455 2.65874 0
M  V30 56815 N 5399.5 -1.14638 1.08148 0
M  V30 56816 C 5400.73 -1.89207 0.829726 0
M  V30 56817 C 5401.14 -1.78699 -0.621541 0
M  V30 56818 O 5400.48 -1.14229 -1.43866 0
M  V30 56819 C 5400.54 -3.39954 1.16927 0
M  V30 56820 C 5400.21 -3.74245 2.62277 0
M  V30 56821 C 5401.2 -3.74588 3.60528 0
M  V30 56822 C 5398.89 -4.04306 2.98064 0
M  V30 56823 C 5400.88 -4.04509 4.92596 0
M  V30 56824 C 5398.57 -4.33891 4.30327 0
M  V30 56825 C 5399.57 -4.33976 5.27403 0
M  V30 56826 O 5399.26 -4.62846 6.57289 0
M  V30 56827 H 5398.99 -0.606249 0.299063 0
M  V30 56828 H 5401.54 -1.46126 1.44348 0
M  V30 56829 H 5399.77 -3.83473 0.498512 0
M  V30 56830 H 5401.46 -3.95825 0.898759 0
M  V30 56831 H 5402.23 -3.51454 3.34223 0
M  V30 56832 H 5398.11 -4.03394 2.23146 0
M  V30 56833 H 5401.65 -4.04491 5.6836 0
M  V30 56834 H 5397.55 -4.56494 4.56381 0
M  V30 56835 H 5398.31 -4.80575 6.62563 0
M  V30 56836 N 5400.98 -0.866756 -1.31625 0
M  V30 56837 C 5402.39 -0.55824 -1.49519 0
M  V30 56838 C 5402.59 0.908377 -1.79863 0
M  V30 56839 O 5401.65 1.69074 -1.87537 0
M  V30 56840 C 5402.96 -1.45568 -2.63117 0
M  V30 56841 C 5404.51 -1.45738 -2.77001 0
M  V30 56842 C 5404.99 -2.34031 -3.93692 0
M  V30 56843 N 5406.48 -2.31893 -4.00973 0
M  V30 56844 C 5407.21 -2.96933 -4.90529 0
M  V30 56845 N 5406.71 -3.71129 -5.85008 0
M  V30 56846 N 5408.5 -2.86258 -4.83749 0
M  V30 56847 H 5400.65 -1.81578 -1.10197 0
M  V30 56848 H 5402.91 -0.776229 -0.544217 0
M  V30 56849 H 5402.62 -2.49913 -2.4746 0
M  V30 56850 H 5402.49 -1.15187 -3.59182 0
M  V30 56851 H 5404.88 -0.421521 -2.92074 0
M  V30 56852 H 5404.96 -1.80141 -1.81612 0
M  V30 56853 H 5404.61 -3.37692 -3.79377 0
M  V30 56854 H 5404.54 -1.96954 -4.88382 0
M  V30 56855 H 5407.03 -1.7796 -3.33375 0
M  V30 56856 H 5407.34 -4.17893 -6.50066 0
M  V30 56857 H 5405.69 -3.75238 -5.84997 0
M  V30 56858 H 5408.88 -2.27833 -4.08913 0
M  V30 56859 H 5409.05 -3.37225 -5.53338 0
M  V30 56860 N 5402.46 1.44639 -0.625876 0
M  V30 56861 C 5403.39 2.33398 0.0691367 0
M  V30 56862 C 5404.37 1.47901 0.840189 0
M  V30 56863 O 5405.55 1.76633 0.807114 0
M  V30 56864 C 5402.68 3.30892 1.05488 0
M  V30 56865 C 5401.64 4.26166 0.395818 0
M  V30 56866 C 5400.96 5.13488 1.4911 0
M  V30 56867 C 5402.26 5.1766 -0.694615 0
M  V30 56868 H 5403.96 2.9176 -0.672027 0
M  V30 56869 H 5401.5 1.40293 -0.324623 0
M  V30 56870 H 5403.45 3.91866 1.5498 0
M  V30 56871 H 5402.18 2.70727 1.82687 0
M  V30 56872 H 5400.84 3.66516 -0.078398 0
M  V30 56873 H 5400.49 4.49679 2.25383 0
M  V30 56874 H 5400.19 5.78042 1.05552 0
M  V30 56875 H 5401.71 5.77334 1.98792 0
M  V30 56876 H 5403.12 5.72601 -0.283019 0
M  V30 56877 H 5401.52 5.90789 -1.05302 0
M  V30 56878 H 5402.59 4.58989 -1.56388 0
M  V30 56879 N 5403.93 0.366107 1.53289 0
M  V30 56880 C 5404.88 -0.480125 2.25751 0
M  V30 56881 C 5405.85 -1.07709 1.26444 0
M  V30 56882 O 5407.04 -1.10948 1.55226 0
M  V30 56883 C 5404.18 -1.61364 3.0505 0
M  V30 56884 C 5403.29 -1.04179 4.1925 0
M  V30 56885 C 5402.42 -2.14445 4.8599 0
M  V30 56886 C 5401.46 -1.54729 5.92221 0
M  V30 56887 N 5400.6 -2.5883 6.5265 0
M  V30 56888 H 5405.44 0.144304 2.9765 0
M  V30 56889 H 5402.98 0.0829837 1.46866 0
M  V30 56890 H 5404.93 -2.28132 3.49302 0
M  V30 56891 H 5403.56 -2.20872 2.35405 0
M  V30 56892 H 5402.62 -0.264381 3.7948 0
M  V30 56893 H 5403.93 -0.565205 4.95587 0
M  V30 56894 H 5403.08 -2.89033 5.33428 0
M  V30 56895 H 5401.82 -2.65456 4.09126 0
M  V30 56896 H 5400.83 -0.786568 5.44144 0
M  V30 56897 H 5402.05 -1.04542 6.71005 0
M  V30 56898 H 5400 -3.09053 5.78638 0
M  V30 56899 H 5399.91 -2.15859 7.24528 0
M  V30 56900 H 5401.18 -3.33117 7.04736 0
M  V30 56901 N 5405.41 -1.57312 0.095289 0
M  V30 56902 C 5406.69 -1.85824 -0.61065 0
M  V30 56903 C 5407.07 -0.992179 -1.8633 0
M  V30 56904 O 5406.42 -0.0646472 -2.28409 0
M  V30 56905 C 5406.63 -3.36495 -0.925848 0
M  V30 56906 C 5407.97 -4.04555 -1.28921 0
M  V30 56907 O 5409 -3.41377 -1.01686 0
M  V30 56908 O 5407.86 -5.1603 -1.79931 0
M  V30 56909 H 5404.95 -0.768465 -0.305599 0
M  V30 56910 H 5407.5 -1.69217 0.128001 0
M  V30 56911 H 5406.27 -3.91282 -0.0371751 0
M  V30 56912 H 5405.89 -3.58449 -1.72047 0
M  V30 56913 N 5406.89 0.178405 -1.56587 0
M  V30 56914 C 5408.13 0.902746 -1.83384 0
M  V30 56915 C 5408.49 1.79736 -0.675202 0
M  V30 56916 O 5409.69 2.55876 -0.823458 0
M  V30 56917 C 5407.97 1.68342 -3.15271 0
M  V30 56918 S 5409.52 2.45749 -3.63528 0
M  V30 56919 H 5406.34 0.302485 -0.643447 0
M  V30 56920 H 5408.94 0.164892 -1.94803 0
M  V30 56921 H 5407.65 1.01711 -3.97597 0
M  V30 56922 H 5407.18 2.46278 -3.06775 0
M  V30 56923 H 5409.19 3.703 -3.30291 0
M  V30 56924 N 5408.37 1.51136 0.446714 0
M  V30 56925 C 5409.61 1.63582 1.1987 0
M  V30 56926 C 5409.95 0.346545 1.91083 0
M  V30 56927 O 5409.22 -0.653382 1.83197 0
M  V30 56928 C 5409.5 2.83283 2.22313 0
M  V30 56929 C 5409.36 4.2216 1.55244 0
M  V30 56930 C 5410.68 2.98507 3.2339 0
M  V30 56931 H 5407.8 0.595348 0.434431 0
M  V30 56932 H 5410.44 1.83595 0.489165 0
M  V30 56933 H 5408.59 2.6635 2.82825 0
M  V30 56934 H 5410.26 4.50739 0.981413 0
M  V30 56935 H 5408.5 4.25291 0.854973 0
M  V30 56936 H 5409.17 5.0189 2.29806 0
M  V30 56937 H 5411.65 3.14088 2.72924 0
M  V30 56938 H 5410.53 3.83842 3.92373 0
M  V30 56939 H 5410.79 2.1017 3.88948 0
M  V30 56940 N 5409.85 -0.701542 1.41125 0
M  V30 56941 C 5410.78 -1.82565 1.36913 0
M  V30 56942 C 5411.76 -1.60859 0.237301 0
M  V30 56943 O 5412.94 -1.83687 0.423246 0
M  V30 56944 C 5410.07 -3.19145 1.1342 0
M  V30 56945 C 5409.11 -3.59653 2.29242 0
M  V30 56946 S 5409.95 -3.65147 3.91698 0
M  V30 56947 C 5411.1 -5.04464 3.70496 0
M  V30 56948 H 5411.34 -1.85859 2.32043 0
M  V30 56949 H 5408.87 -0.869681 1.27577 0
M  V30 56950 H 5410.83 -3.97995 1.00551 0
M  V30 56951 H 5409.49 -3.13468 0.199209 0
M  V30 56952 H 5408.68 -4.58859 2.08482 0
M  V30 56953 H 5408.28 -2.88097 2.38487 0
M  V30 56954 H 5410.58 -5.91791 3.29832 0
M  V30 56955 H 5411.52 -5.30264 4.69282 0
M  V30 56956 H 5411.93 -4.7572 3.03892 0
M  V30 56957 N 5411.32 -1.26854 -0.935197 0
M  V30 56958 C 5412.55 -1.15377 -1.71382 0
M  V30 56959 C 5412.96 0.292982 -1.86918 0
M  V30 56960 O 5412.31 1.21195 -1.38049 0
M  V30 56961 C 5412.37 -1.75663 -3.1366 0
M  V30 56962 C 5412.03 -3.24799 -3.21488 0
M  V30 56963 C 5413.03 -4.21536 -3.04308 0
M  V30 56964 C 5410.71 -3.65372 -3.44687 0
M  V30 56965 C 5412.71 -5.56823 -3.10204 0
M  V30 56966 C 5410.39 -5.00791 -3.50217 0
M  V30 56967 C 5411.39 -5.96326 -3.32993 0
M  V30 56968 O 5411.08 -7.29278 -3.38243 0
M  V30 56969 H 5410.81 -0.402359 -0.543216 0
M  V30 56970 H 5413.37 -1.68088 -1.1805 0
M  V30 56971 H 5411.6 -1.17421 -3.68441 0
M  V30 56972 H 5413.29 -1.59007 -3.73459 0
M  V30 56973 H 5414.05 -3.91529 -2.86235 0
M  V30 56974 H 5409.93 -2.91491 -3.57147 0
M  V30 56975 H 5413.47 -6.3137 -2.96678 0
M  V30 56976 H 5409.37 -5.30456 -3.67813 0
M  V30 56977 H 5410.14 -7.37629 -3.54748 0
M  V30 56978 N 5412.8 1.14063 -1.08754 0
M  V30 56979 C 5413.77 2.17451 -0.724418 0
M  V30 56980 C 5414.77 1.5896 0.242558 0
M  V30 56981 O 5415.96 1.74187 0.0216396 0
M  V30 56982 C 5413.09 3.40828 -0.0701434 0
M  V30 56983 H 5414.28 2.51089 -1.63995 0
M  V30 56984 H 5411.83 1.28772 -0.885858 0
M  V30 56985 H 5412.57 3.12773 0.856951 0
M  V30 56986 H 5412.35 3.84548 -0.765825 0
M  V30 56987 H 5413.84 4.17259 0.168759 0
M  V30 56988 N 5414.28 0.873724 1.31163 0
M  V30 56989 C 5415.51 0.500312 2.01275 0
M  V30 56990 C 5415.93 -0.900753 1.6513 0
M  V30 56991 O 5415.29 -1.59501 0.861918 0
M  V30 56992 C 5415.34 0.669101 3.54338 0
M  V30 56993 O 5414.44 -0.289951 4.11379 0
M  V30 56994 H 5413.78 0.198529 0.633626 0
M  V30 56995 H 5416.31 1.17817 1.67273 0
M  V30 56996 H 5416.32 0.563816 4.04086 0
M  V30 56997 H 5415 1.69069 3.79985 0
M  V30 56998 H 5413.57 -0.139306 3.7264 0
M  V30 56999 N 5415.76 -1.44305 0.633538 0
M  V30 57000 C 5416.72 -2.29121 -0.0602954 0
M  V30 57001 C 5417.72 -1.41168 -0.769942 0
M  V30 57002 O 5418.91 -1.63014 -0.614167 0
M  V30 57003 C 5416.04 -3.22802 -1.09598 0
M  V30 57004 H 5417.24 -2.91955 0.685719 0
M  V30 57005 H 5414.79 -1.51258 0.393791 0
M  V30 57006 H 5415.52 -2.64822 -1.8719 0
M  V30 57007 H 5415.31 -3.8762 -0.591025 0
M  V30 57008 H 5416.8 -3.8651 -1.58114 0
M  V30 57009 N 5417.24 -0.374231 -1.53092 0
M  V30 57010 C 5418.17 0.459896 -2.28926 0
M  V30 57011 C 5419.15 1.07651 -1.31701 0
M  V30 57012 O 5420.33 1.09213 -1.60581 0
M  V30 57013 C 5417.46 1.59529 -3.08493 0
M  V30 57014 C 5416.42 1.10549 -4.13477 0
M  V30 57015 C 5415.74 2.33179 -4.81177 0
M  V30 57016 C 5417.04 0.184092 -5.21975 0
M  V30 57017 H 5418.74 -0.172797 -2.98901 0
M  V30 57018 H 5416.28 -0.0845461 -1.43752 0
M  V30 57019 H 5418.24 2.18553 -3.60295 0
M  V30 57020 H 5416.96 2.25535 -2.36224 0
M  V30 57021 H 5415.62 0.537883 -3.62633 0
M  V30 57022 H 5415.27 2.97661 -4.05472 0
M  V30 57023 H 5414.97 2.01075 -5.52126 0
M  V30 57024 H 5416.49 2.92873 -5.35778 0
M  V30 57025 H 5417.9 0.682062 -5.69228 0
M  V30 57026 H 5416.3 -0.0464856 -6.00082 0
M  V30 57027 H 5417.37 -0.77132 -4.78726 0
M  V30 57028 N 5418.71 1.57259 -0.10363 0
M  V30 57029 C 5419.96 1.94947 0.558885 0
M  V30 57030 C 5420.29 0.986097 1.67301 0
M  V30 57031 O 5419.57 0.0206147 1.94489 0
M  V30 57032 C 5419.85 3.42693 1.10605 0
M  V30 57033 C 5419.7 4.498 -0.00361058 0
M  V30 57034 C 5421.02 3.9194 2.00177 0
M  V30 57035 H 5418.14 0.708866 0.201688 0
M  V30 57036 H 5420.78 1.89182 -0.176072 0
M  V30 57037 H 5418.93 3.47737 1.73238 0
M  V30 57038 H 5420.61 4.56863 -0.638243 0
M  V30 57039 H 5418.85 4.28613 -0.668855 0
M  V30 57040 H 5419.52 5.50398 0.420202 0
M  V30 57041 H 5422 3.89104 1.47437 0
M  V30 57042 H 5420.87 4.95868 2.35385 0
M  V30 57043 H 5421.13 3.31732 2.92244 0
M  V30 57044 N 5420.19 -0.170098 1.56679 0
M  V30 57045 C 5421.12 -1.21278 1.99534 0
M  V30 57046 C 5422.1 -1.46101 0.871122 0
M  V30 57047 O 5423.29 -1.57415 1.13729 0
M  V30 57048 C 5420.42 -2.55142 2.35627 0
M  V30 57049 C 5419.37 -2.44886 3.5102 0
M  V30 57050 C 5418.7 -3.8325 3.72858 0
M  V30 57051 C 5420 -1.95254 4.84431 0
M  V30 57052 H 5421.69 -0.856545 2.86886 0
M  V30 57053 H 5419.24 -0.410586 1.38022 0
M  V30 57054 H 5421.19 -3.2829 2.64204 0
M  V30 57055 H 5419.92 -2.92556 1.45185 0
M  V30 57056 H 5418.57 -1.74192 3.22572 0
M  V30 57057 H 5418.22 -4.1806 2.79706 0
M  V30 57058 H 5417.92 -3.77256 4.50502 0
M  V30 57059 H 5419.45 -4.57982 4.03838 0
M  V30 57060 H 5420.86 -2.58177 5.11876 0
M  V30 57061 H 5419.26 -2.00205 5.65719 0
M  V30 57062 H 5420.33 -0.906923 4.76343 0
M  V30 57063 N 5421.67 -1.51371 -0.438693 0
M  V30 57064 C 5422.6 -1.75534 -1.53981 0
M  V30 57065 C 5423.58 -0.605123 -1.58973 0
M  V30 57066 O 5424.77 -0.847695 -1.74722 0
M  V30 57067 C 5421.9 -1.87914 -2.92071 0
M  V30 57068 C 5420.85 -3.03341 -3.01941 0
M  V30 57069 C 5420.18 -3.00904 -4.41997 0
M  V30 57070 C 5421.48 -4.43328 -2.76147 0
M  V30 57071 H 5423.17 -2.67733 -1.34013 0
M  V30 57072 H 5420.72 -1.28834 -0.643262 0
M  V30 57073 H 5422.67 -2.03401 -3.69061 0
M  V30 57074 H 5421.39 -0.923624 -3.13268 0
M  V30 57075 H 5420.05 -2.87557 -2.2739 0
M  V30 57076 H 5419.7 -2.03132 -4.60159 0
M  V30 57077 H 5419.4 -3.78413 -4.4953 0
M  V30 57078 H 5420.92 -3.18482 -5.20962 0
M  V30 57079 H 5422.34 -4.5947 -3.42871 0
M  V30 57080 H 5420.74 -5.22533 -2.95092 0
M  V30 57081 H 5421.81 -4.53459 -1.71763 0
M  V30 57082 N 5423.15 0.694048 -1.41495 0
M  V30 57083 C 5424.4 1.44975 -1.40232 0
M  V30 57084 C 5424.71 1.95594 -0.0151941 0
M  V30 57085 O 5425.92 2.71234 0.120051 0
M  V30 57086 C 5424.37 2.62162 -2.46575 0
M  V30 57087 C 5423.98 2.18323 -3.91202 0
M  V30 57088 C 5425.72 3.39787 -2.54451 0
M  V30 57089 C 5423.63 3.32478 -4.89094 0
M  V30 57090 H 5422.56 0.544565 -0.521502 0
M  V30 57091 H 5425.21 0.753311 -1.67324 0
M  V30 57092 H 5423.59 3.34082 -2.12616 0
M  V30 57093 H 5424.77 1.53683 -4.34417 0
M  V30 57094 H 5423.08 1.53689 -3.87 0
M  V30 57095 H 5425.68 4.24769 -3.2477 0
M  V30 57096 H 5426.02 3.85076 -1.58183 0
M  V30 57097 H 5426.56 2.74925 -2.87509 0
M  V30 57098 H 5423.3 2.92199 -5.86771 0
M  V30 57099 H 5422.82 3.95962 -4.50526 0
M  V30 57100 H 5424.49 3.98233 -5.09921 0
M  V30 57101 N 5424.63 1.27348 0.928456 0
M  V30 57102 C 5425.56 1.12524 2.04599 0
M  V30 57103 C 5426.54 0.0269161 1.70079 0
M  V30 57104 O 5427.72 0.201265 1.93154 0
M  V30 57105 C 5424.85 0.770868 3.38637 0
M  V30 57106 C 5423.81 1.82234 3.87266 0
M  V30 57107 C 5423.13 1.32196 5.18101 0
M  V30 57108 C 5424.43 3.22629 4.10741 0
M  V30 57109 H 5426.13 2.06008 2.17258 0
M  V30 57110 H 5423.67 0.991864 1.04394 0
M  V30 57111 H 5425.63 0.65399 4.16294 0
M  V30 57112 H 5424.35 -0.199675 3.25989 0
M  V30 57113 H 5423.01 1.92811 3.118 0
M  V30 57114 H 5422.66 0.340895 5.01844 0
M  V30 57115 H 5422.36 2.02493 5.51607 0
M  V30 57116 H 5423.88 1.21801 5.98328 0
M  V30 57117 H 5425.3 3.15056 4.7897 0
M  V30 57118 H 5423.69 3.9063 4.55553 0
M  V30 57119 H 5424.76 3.67739 3.16064 0
M  V30 57120 N 5426.11 -1.13484 1.09357 0
M  V30 57121 C 5427.04 -2.17948 0.676297 0
M  V30 57122 C 5428.02 -1.59483 -0.31685 0
M  V30 57123 O 5429.2 -1.87231 -0.218393 0
M  V30 57124 C 5426.33 -3.387 -0.00379117 0
M  V30 57125 C 5425.37 -4.15761 0.951053 0
M  V30 57126 S 5426.21 -4.75509 2.46276 0
M  V30 57127 C 5427.36 -5.99607 1.79506 0
M  V30 57128 H 5427.6 -2.53007 1.56124 0
M  V30 57129 H 5425.13 -1.2477 0.909491 0
M  V30 57130 H 5427.09 -4.08644 -0.389876 0
M  V30 57131 H 5425.75 -3.01944 -0.865374 0
M  V30 57132 H 5424.94 -5.02228 0.422263 0
M  V30 57133 H 5424.54 -3.51469 1.2785 0
M  V30 57134 H 5426.83 -6.682 1.11869 0
M  V30 57135 H 5427.78 -6.57092 2.63885 0
M  V30 57136 H 5428.19 -5.5016 1.26428 0
M  V30 57137 N 5427.58 -0.880667 -1.30698 0
M  V30 57138 C 5428.81 -0.511752 -2.00471 0
M  V30 57139 C 5429.23 0.898625 -1.66043 0
M  V30 57140 O 5428.58 1.59032 -0.895274 0
M  V30 57141 C 5428.63 -0.671848 -3.55202 0
M  V30 57142 O 5428.36 -2.02669 -3.88403 0
M  V30 57143 C 5429.86 -0.305356 -4.42247 0
M  V30 57144 H 5427.08 -0.198254 -0.641043 0
M  V30 57145 H 5429.62 -1.18478 -1.66683 0
M  V30 57146 H 5427.78 -0.0462428 -3.87372 0
M  V30 57147 H 5428.19 -2.04219 -4.83109 0
M  V30 57148 H 5429.66 -0.468289 -5.5001 0
M  V30 57149 H 5430.14 0.756304 -4.32639 0
M  V30 57150 H 5430.75 -0.907105 -4.15514 0
M  V30 57151 N 5429.06 1.43967 -0.641182 0
M  V30 57152 C 5430.02 2.29149 0.0481438 0
M  V30 57153 C 5431.02 1.41575 0.762445 0
M  V30 57154 O 5432.21 1.63338 0.605513 0
M  V30 57155 C 5429.35 3.23379 1.07885 0
M  V30 57156 H 5430.54 2.91588 -0.701193 0
M  V30 57157 H 5428.09 1.51047 -0.401807 0
M  V30 57158 H 5428.83 2.65811 1.85783 0
M  V30 57159 H 5428.61 3.87928 0.57046 0
M  V30 57160 H 5430.1 3.87343 1.56062 0
M  V30 57161 N 5430.54 0.382345 1.52892 0
M  V30 57162 C 5431.96 0.0319971 1.59568 0
M  V30 57163 C 5432.16 -1.4524 1.39669 0
M  V30 57164 O 5431.21 -2.21608 1.21021 0
M  V30 57165 C 5432.52 0.50295 2.96464 0
M  V30 57166 C 5434.07 0.458608 3.09622 0
M  V30 57167 C 5434.55 0.905639 4.48957 0
M  V30 57168 N 5436.04 0.861371 4.5512 0
M  V30 57169 C 5436.77 1.17876 5.61153 0
M  V30 57170 N 5436.27 1.56627 6.74863 0
M  V30 57171 N 5438.06 1.10046 5.51222 0
M  V30 57172 H 5430.21 1.34881 1.64076 0
M  V30 57173 H 5432.48 0.552402 0.770426 0
M  V30 57174 H 5432.18 1.53942 3.16219 0
M  V30 57175 H 5432.06 -0.101644 3.77063 0
M  V30 57176 H 5434.44 -0.568766 2.89567 0
M  V30 57177 H 5434.52 1.09892 2.30992 0
M  V30 57178 H 5434.17 1.93121 4.69752 0
M  V30 57179 H 5434.1 0.242412 5.26042 0
M  V30 57180 H 5436.59 0.576119 3.73483 0
M  V30 57181 H 5436.9 1.79227 7.5173 0
M  V30 57182 H 5435.25 1.60507 6.76212 0
M  V30 57183 H 5438.44 0.796785 4.61269 0
M  V30 57184 H 5438.61 1.35113 6.33757 0
M  V30 57185 N 5432.02 -1.57202 0.111969 0
M  V30 57186 C 5433.25 -1.99299 -0.555643 0
M  V30 57187 C 5433.66 -0.991501 -1.6067 0
M  V30 57188 O 5433.02 0.0166031 -1.82492 0
M  V30 57189 C 5433.07 -3.41417 -1.18814 0
M  V30 57190 O 5432.79 -4.37734 -0.179107 0
M  V30 57191 C 5434.29 -3.98609 -1.93975 0
M  V30 57192 H 5431.51 -0.654549 -0.147672 0
M  V30 57193 H 5434.05 -2.03556 0.196234 0
M  V30 57194 H 5432.21 -3.38121 -1.89084 0
M  V30 57195 H 5432.62 -5.20608 -0.637752 0
M  V30 57196 H 5434.1 -5.00151 -2.33566 0
M  V30 57197 H 5434.57 -3.37359 -2.81222 0
M  V30 57198 H 5435.18 -4.05428 -1.28483 0
M  V30 57199 N 5433.5 0.161787 -1.56767 0
M  V30 57200 C 5434.74 0.878159 -1.82801 0
M  V30 57201 C 5435.07 1.81479 -0.691306 0
M  V30 57202 O 5434.35 1.92076 0.306112 0
M  V30 57203 C 5434.63 1.66554 -3.19267 0
M  V30 57204 C 5434.49 0.751395 -4.4348 0
M  V30 57205 C 5435.8 2.63121 -3.52782 0
M  V30 57206 H 5432.92 0.317805 -0.664958 0
M  V30 57207 H 5435.57 0.143954 -1.89454 0
M  V30 57208 H 5433.72 2.29146 -3.13727 0
M  V30 57209 H 5435.39 0.137621 -4.61095 0
M  V30 57210 H 5433.63 0.060026 -4.33758 0
M  V30 57211 H 5434.3 1.33804 -5.35538 0
M  V30 57212 H 5436.78 2.10653 -3.58838 0
M  V30 57213 H 5435.65 3.15273 -4.49326 0
M  V30 57214 H 5435.91 3.43776 -2.77975 0
M  V30 57215 N 5434.97 1.51602 0.430659 0
M  V30 57216 C 5436.2 1.68174 1.20005 0
M  V30 57217 C 5436.61 0.381471 1.85314 0
M  V30 57218 O 5435.95 -0.650539 1.71795 0
M  V30 57219 C 5436.02 2.74548 2.32086 0
M  V30 57220 C 5435.68 4.16949 1.8709 0
M  V30 57221 C 5436.68 5.01508 1.3706 0
M  V30 57222 C 5434.36 4.63082 1.94578 0
M  V30 57223 C 5436.36 6.30263 0.951141 0
M  V30 57224 C 5434.04 5.91832 1.52243 0
M  V30 57225 C 5435.04 6.75251 1.02594 0
M  V30 57226 O 5434.73 8.01593 0.608624 0
M  V30 57227 H 5434.46 0.567374 0.367508 0
M  V30 57228 H 5437.02 1.98821 0.51569 0
M  V30 57229 H 5435.25 2.39229 3.03819 0
M  V30 57230 H 5436.93 2.79932 2.93927 0
M  V30 57231 H 5437.7 4.67067 1.30664 0
M  V30 57232 H 5433.58 3.9827 2.32168 0
M  V30 57233 H 5437.12 6.95325 0.562918 0
M  V30 57234 H 5433.02 6.25786 1.58311 0
M  V30 57235 H 5433.79 8.15203 0.733874 0
M  V30 57236 N 5436.45 -0.686534 1.41861 0
M  V30 57237 C 5437.73 -1.44171 1.3219 0
M  V30 57238 C 5438.11 -2.11049 -0.0462878 0
M  V30 57239 O 5437.46 -2.02368 -1.0611 0
M  V30 57240 C 5437.67 -2.45376 2.48176 0
M  V30 57241 C 5439.01 -3.10365 2.89756 0
M  V30 57242 O 5440.04 -2.55702 2.47982 0
M  V30 57243 O 5438.9 -4.09391 3.62023 0
M  V30 57244 H 5435.99 -0.642495 0.5207 0
M  V30 57245 H 5438.54 -0.716249 1.53844 0
M  V30 57246 H 5437.31 -1.94675 3.39437 0
M  V30 57247 H 5436.93 -3.2542 2.28447 0
M  V30 57248 N 5437.93 -1.27838 -0.92169 0
M  V30 57249 C 5439.21 -1.05244 -1.64873 0
M  V30 57250 C 5439.59 0.410848 -2.07063 0
M  V30 57251 O 5438.93 1.39532 -1.80951 0
M  V30 57252 C 5439.14 -2.01965 -2.84625 0
M  V30 57253 C 5440.49 -2.3167 -3.55829 0
M  V30 57254 O 5441.52 -1.99986 -2.94761 0
M  V30 57255 O 5440.38 -2.85708 -4.65868 0
M  V30 57256 H 5437.47 -0.401648 -0.722916 0
M  V30 57257 H 5440.02 -1.39126 -0.971695 0
M  V30 57258 H 5438.79 -3.00622 -2.50483 0
M  V30 57259 H 5438.41 -1.6868 -3.60046 0
M  V30 57260 N 5439.41 1.12903 -1.09958 0
M  V30 57261 C 5440.37 2.1667 -0.74744 0
M  V30 57262 C 5441.37 1.59208 0.225685 0
M  V30 57263 O 5442.56 1.742 0.00316358 0
M  V30 57264 C 5439.69 3.40734 -0.106289 0
M  V30 57265 H 5440.89 2.49335 -1.66649 0
M  V30 57266 H 5438.44 1.27825 -0.899466 0
M  V30 57267 H 5439.17 3.13664 0.82373 0
M  V30 57268 H 5438.96 3.83715 -0.806569 0
M  V30 57269 H 5440.45 4.17414 0.124493 0
M  V30 57270 N 5440.89 0.887586 1.30229 0
M  V30 57271 C 5441.85 0.361175 2.26336 0
M  V30 57272 C 5442.85 -0.497818 1.529 0
M  V30 57273 O 5444.04 -0.3046 1.71516 0
M  V30 57274 C 5441.17 -0.485017 3.37432 0
M  V30 57275 H 5442.36 1.20983 2.74414 0
M  V30 57276 H 5439.92 0.664669 1.41463 0
M  V30 57277 H 5440.65 -1.35415 2.94675 0
M  V30 57278 H 5440.44 0.130311 3.91883 0
M  V30 57279 H 5441.93 -0.845025 4.08961 0
M  V30 57280 N 5442.36 -1.43625 0.648807 0
M  V30 57281 C 5443.78 -1.56441 0.315976 0
M  V30 57282 C 5443.98 -1.63326 -1.18012 0
M  V30 57283 O 5443.04 -1.58592 -1.96481 0
M  V30 57284 C 5444.35 -2.82747 1.02345 0
M  V30 57285 C 5445.9 -2.96485 1.00328 0
M  V30 57286 C 5446.37 -4.25617 1.69157 0
M  V30 57287 N 5447.86 -4.32471 1.659 0
M  V30 57288 C 5448.6 -5.31147 2.16034 0
M  V30 57289 N 5448.09 -6.36126 2.74438 0
M  V30 57290 N 5449.89 -5.22771 2.0656 0
M  V30 57291 H 5442.04 -1.374 1.61973 0
M  V30 57292 H 5444.3 -0.659596 0.680909 0
M  V30 57293 H 5444.01 -2.83707 2.07854 0
M  V30 57294 H 5443.88 -3.72834 0.572245 0
M  V30 57295 H 5446.27 -2.95068 -0.0433882 0
M  V30 57296 H 5446.35 -2.07699 1.49314 0
M  V30 57297 H 5445.99 -4.27794 2.73778 0
M  V30 57298 H 5445.92 -5.13292 1.1764 0
M  V30 57299 H 5448.41 -3.57227 1.23277 0
M  V30 57300 H 5448.73 -7.07732 3.1038 0
M  V30 57301 H 5447.07 -6.36761 2.78497 0
M  V30 57302 H 5450.26 -4.39673 1.60641 0
M  V30 57303 H 5450.44 -5.99514 2.4594 0
M  V30 57304 N 5443.84 -0.390448 -1.52687 0
M  V30 57305 C 5445.26 -0.0404589 -1.59549 0
M  V30 57306 C 5445.46 1.44498 -1.40437 0
M  V30 57307 O 5444.51 2.20963 -1.22194 0
M  V30 57308 C 5445.83 -0.518665 -2.96193 0
M  V30 57309 C 5447.38 -0.475022 -3.09374 0
M  V30 57310 C 5447.85 -0.929436 -4.4847 0
M  V30 57311 N 5449.34 -0.885495 -4.54657 0
M  V30 57312 C 5450.08 -1.2085 -5.6052 0
M  V30 57313 N 5449.57 -1.60204 -6.74023 0
M  V30 57314 N 5451.37 -1.12968 -5.50631 0
M  V30 57315 H 5443.52 -1.35749 -1.63358 0
M  V30 57316 H 5445.78 -0.55648 -0.767486 0
M  V30 57317 H 5445.49 -1.55617 -3.15398 0
M  V30 57318 H 5445.36 0.0816464 -3.77112 0
M  V30 57319 H 5447.75 0.553401 -2.89865 0
M  V30 57320 H 5447.83 -1.11115 -2.30406 0
M  V30 57321 H 5447.47 -1.9561 -4.68721 0
M  V30 57322 H 5447.4 -0.270306 -5.25906 0
M  V30 57323 H 5449.89 -0.595918 -3.73172 0
M  V30 57324 H 5450.21 -1.83211 -7.50769 0
M  V30 57325 H 5448.55 -1.64091 -6.75351 0
M  V30 57326 H 5451.74 -0.821236 -4.6084 0
M  V30 57327 H 5451.91 -1.38473 -6.33032 0
M  V30 57328 N 5445.32 1.5714 -0.120304 0
M  V30 57329 C 5446.57 1.95529 0.538176 0
M  V30 57330 C 5446.9 1.00379 1.66246 0
M  V30 57331 O 5446.17 0.0412417 1.94456 0
M  V30 57332 C 5446.46 3.43847 1.06964 0
M  V30 57333 C 5446.31 4.49771 -0.0513177 0
M  V30 57334 C 5447.63 3.94041 1.96009 0
M  V30 57335 H 5444.75 0.710965 0.194158 0
M  V30 57336 H 5447.39 1.88985 -0.196128 0
M  V30 57337 H 5445.54 3.49554 1.6954 0
M  V30 57338 H 5447.21 4.56161 -0.686663 0
M  V30 57339 H 5445.46 4.27879 -0.714278 0
M  V30 57340 H 5446.13 5.50813 0.361801 0
M  V30 57341 H 5448.6 3.90646 1.43301 0
M  V30 57342 H 5447.48 4.98337 2.30112 0
M  V30 57343 H 5447.74 3.34813 2.88709 0
M  V30 57344 N 5446.8 -0.153471 1.56851 0
M  V30 57345 C 5448.04 -0.863663 1.84153 0
M  V30 57346 C 5448.4 -1.79082 0.703387 0
M  V30 57347 O 5447.69 -1.89251 -0.299082 0
M  V30 57348 C 5447.89 -1.68055 3.15424 0
M  V30 57349 C 5447.72 -0.833989 4.41899 0
M  V30 57350 C 5446.49 -0.502117 5.02799 0
M  V30 57351 C 5448.68 -0.167295 5.14028 0
M  V30 57352 N 5446.67 0.358716 6.12851 0
M  V30 57353 C 5448.04 0.553947 6.1752 0
M  V30 57354 C 5450.09 -0.0872994 4.97823 0
M  V30 57355 C 5448.79 1.34762 7.06563 0
M  V30 57356 C 5450.82 0.693095 5.87325 0
M  V30 57357 C 5450.18 1.40264 6.90294 0
M  V30 57358 H 5446.28 -0.294075 0.724599 0
M  V30 57359 H 5448.87 -0.129447 1.94269 0
M  V30 57360 H 5447.04 -2.38605 3.06467 0
M  V30 57361 H 5448.77 -2.33341 3.30657 0
M  V30 57362 H 5445.52 -0.836393 4.66156 0
M  V30 57363 H 5445.95 0.779966 6.72492 0
M  V30 57364 H 5450.59 -0.621515 4.18207 0
M  V30 57365 H 5448.31 1.89312 7.85612 0
M  V30 57366 H 5451.89 0.756897 5.76856 0
M  V30 57367 H 5450.77 1.99681 7.58352 0
M  V30 57368 N 5448.28 -1.51828 -0.422613 0
M  V30 57369 C 5449.5 -1.69053 -1.19285 0
M  V30 57370 C 5449.92 -0.39416 -1.8464 0
M  V30 57371 O 5449.28 0.628671 -1.7133 0
M  V30 57372 C 5449.33 -2.81665 -2.26599 0
M  V30 57373 O 5449.05 -4.0628 -1.63914 0
M  V30 57374 C 5450.55 -3.10285 -3.16604 0
M  V30 57375 H 5447.77 -0.566906 -0.358968 0
M  V30 57376 H 5450.31 -1.9832 -0.49896 0
M  V30 57377 H 5448.47 -2.54955 -2.91679 0
M  V30 57378 H 5448.88 -4.68932 -2.34953 0
M  V30 57379 H 5450.36 -3.92627 -3.88005 0
M  V30 57380 H 5450.83 -2.23286 -3.78206 0
M  V30 57381 H 5451.44 -3.38709 -2.57209 0
M  V30 57382 N 5449.75 0.679002 -1.42223 0
M  V30 57383 C 5450.68 1.80476 -1.48158 0
M  V30 57384 C 5451.67 1.66697 -0.338561 0
M  V30 57385 O 5452.85 1.86181 -0.552294 0
M  V30 57386 C 5449.98 3.18741 -1.37919 0
M  V30 57387 C 5448.93 3.47249 -2.50204 0
M  V30 57388 C 5448.26 4.85044 -2.25025 0
M  V30 57389 C 5449.56 3.44562 -3.92523 0
M  V30 57390 H 5451.25 1.75766 -2.42377 0
M  V30 57391 H 5448.8 0.8442 -1.16659 0
M  V30 57392 H 5450.75 3.97224 -1.4068 0
M  V30 57393 H 5449.48 3.24118 -0.40192 0
M  V30 57394 H 5448.14 2.71124 -2.46754 0
M  V30 57395 H 5447.78 4.87066 -1.25601 0
M  V30 57396 H 5447.48 5.05082 -3.00277 0
M  V30 57397 H 5449.01 5.65817 -2.29528 0
M  V30 57398 H 5450.42 4.13022 -3.976 0
M  V30 57399 H 5448.82 3.76134 -4.67593 0
M  V30 57400 H 5449.89 2.43215 -4.19493 0
M  V30 57401 N 5451.23 1.28325 0.914897 0
M  V30 57402 C 5452.17 1.06476 2.01837 0
M  V30 57403 C 5453.14 -0.018811 1.62589 0
M  V30 57404 O 5454.33 0.128892 1.88059 0
M  V30 57405 C 5451.45 0.617802 3.33018 0
M  V30 57406 C 5450.5 1.69784 3.91249 0
M  V30 57407 S 5451.33 3.29351 4.22241 0
M  V30 57408 C 5452.49 2.86488 5.56485 0
M  V30 57409 H 5452.72 1.99901 2.20061 0
M  V30 57410 H 5450.26 1.12301 1.05962 0
M  V30 57411 H 5452.21 0.366625 4.0886 0
M  V30 57412 H 5450.87 -0.296599 3.12696 0
M  V30 57413 H 5450.07 1.3367 4.85951 0
M  V30 57414 H 5449.67 1.90175 3.22039 0
M  V30 57415 H 5451.96 2.32587 6.36325 0
M  V30 57416 H 5452.9 3.79983 5.9751 0
M  V30 57417 H 5453.31 2.25238 5.17618 0
M  V30 57418 N 5452.71 -1.12318 1.10555 0
M  V30 57419 C 5453.66 -2.20163 0.750394 0
M  V30 57420 C 5454.65 -1.67485 -0.254007 0
M  V30 57421 O 5455.86 -1.79637 -0.114246 0
M  V30 57422 H 5452.23 -0.717634 0.224735 0
M  V30 57423 H 5454.2 -2.47372 1.66882 0
M  V30 57424 C 5452.95 -3.47126 0.199773 0
M  V30 57425 H 5452.28 -3.88007 0.963872 0
M  V30 57426 H 5453.72 -4.23999 -0.0106542 0
M  V30 57427 C 5452.18 -3.1953 -1.06781 0
M  V30 57428 O 5452.71 -3.39376 -2.14911 0
M  V30 57429 N 5450.91 -2.73328 -0.986936 0
M  V30 57430 H 5450.46 -2.57378 -0.106906 0
M  V30 57431 H 5450.42 -2.5524 -1.83575 0
M  V30 57432 N 5454.19 -0.89448 -1.29757 0
M  V30 57433 C 5455.44 -0.518504 -1.9606 0
M  V30 57434 C 5455.77 0.931822 -1.70384 0
M  V30 57435 O 5455.04 1.65985 -1.01387 0
M  V30 57436 C 5455.33 -0.805314 -3.5098 0
M  V30 57437 C 5455.18 -2.30696 -3.86134 0
M  V30 57438 C 5456.5 -0.288251 -4.39155 0
M  V30 57439 H 5453.62 -0.189855 -0.712126 0
M  V30 57440 H 5456.26 -1.12021 -1.53464 0
M  V30 57441 H 5454.41 -0.293208 -3.87392 0
M  V30 57442 H 5456.08 -2.88821 -3.59695 0
M  V30 57443 H 5454.32 -2.7698 -3.33863 0
M  V30 57444 H 5455 -2.45823 -4.94242 0
M  V30 57445 H 5457.47 -0.726691 -4.09705 0
M  V30 57446 H 5456.35 -0.518177 -5.46449 0
M  V30 57447 H 5456.61 0.810866 -4.346 0
M  V30 57448 N 5455.67 1.43279 -0.656415 0
M  V30 57449 C 5456.92 2.00996 -0.168425 0
M  V30 57450 C 5457.23 1.52412 1.22596 0
M  V30 57451 O 5458.44 2.02423 1.80934 0
M  V30 57452 C 5456.89 3.59029 -0.250288 0
M  V30 57453 C 5456.5 4.16604 -1.64757 0
M  V30 57454 C 5458.24 4.24118 0.179935 0
M  V30 57455 C 5456.15 5.66942 -1.68319 0
M  V30 57456 H 5455.08 0.751672 -0.0592033 0
M  V30 57457 H 5457.73 1.64213 -0.818917 0
M  V30 57458 H 5456.11 3.93228 0.46777 0
M  V30 57459 H 5457.29 3.93899 -2.39123 0
M  V30 57460 H 5455.6 3.63898 -2.02404 0
M  V30 57461 H 5458.2 5.34419 0.173213 0
M  V30 57462 H 5458.54 3.98268 1.21194 0
M  V30 57463 H 5459.08 3.94814 -0.486481 0
M  V30 57464 H 5455.81 5.97564 -2.6944 0
M  V30 57465 H 5455.33 5.91693 -0.982818 0
M  V30 57466 H 5457.01 6.31036 -1.42836 0
M  V30 57467 N 5457.15 0.398539 1.52478 0
M  V30 57468 C 5458.37 -0.180485 2.06111 0
M  V30 57469 C 5458.79 -1.39747 1.2695 0
M  V30 57470 O 5458.15 -1.79698 0.318561 0
M  V30 57471 C 5458.2 -0.541448 3.57422 0
M  V30 57472 O 5457.92 0.627195 4.33587 0
M  V30 57473 C 5459.42 -1.17534 4.27435 0
M  V30 57474 H 5456.64 -0.0250519 0.670532 0
M  V30 57475 H 5459.18 0.566437 1.96499 0
M  V30 57476 H 5457.34 -1.23826 3.67077 0
M  V30 57477 H 5457.75 0.328417 5.23471 0
M  V30 57478 H 5459.23 -1.3782 5.34518 0
M  V30 57479 H 5459.7 -2.14539 3.83236 0
M  V30 57480 H 5460.31 -0.519031 4.22121 0
M  V30 57481 N 5458.62 -1.57074 0.128636 0
M  V30 57482 C 5459.55 -2.18836 -0.814442 0
M  V30 57483 C 5460.53 -1.13118 -1.27036 0
M  V30 57484 O 5461.72 -1.41392 -1.33124 0
M  V30 57485 C 5458.85 -2.79542 -2.06091 0
M  V30 57486 C 5457.8 -3.90926 -1.74243 0
M  V30 57487 C 5457.13 -4.38484 -3.06 0
M  V30 57488 C 5458.43 -5.12574 -1.00327 0
M  V30 57489 H 5460.12 -2.97896 -0.299758 0
M  V30 57490 H 5457.67 -1.43291 -0.142739 0
M  V30 57491 H 5459.62 -3.2141 -2.72531 0
M  V30 57492 H 5458.35 -1.97786 -2.599 0
M  V30 57493 H 5457.01 -3.49649 -1.10188 0
M  V30 57494 H 5456.65 -3.53574 -3.57763 0
M  V30 57495 H 5456.35 -5.13601 -2.85461 0
M  V30 57496 H 5457.88 -4.8301 -3.73543 0
M  V30 57497 H 5459.29 -5.51401 -1.5694 0
M  V30 57498 H 5457.69 -5.93336 -0.898484 0
M  V30 57499 H 5458.76 -4.84899 0.00830397 0
M  V30 57500 N 5460.1 0.14515 -1.5693 0
M  V30 57501 C 5461.35 0.858722 -1.83722 0
M  V30 57502 C 5461.68 1.80735 -0.710515 0
M  V30 57503 O 5460.96 1.9239 0.285723 0
M  V30 57504 C 5461.24 1.63159 -3.21016 0
M  V30 57505 C 5461.09 0.704315 -4.44252 0
M  V30 57506 C 5462.41 2.59365 -3.55553 0
M  V30 57507 H 5459.53 0.310734 -0.668291 0
M  V30 57508 H 5462.17 0.123851 -1.89596 0
M  V30 57509 H 5460.32 2.25805 -3.1614 0
M  V30 57510 H 5461.99 0.0887079 -4.61215 0
M  V30 57511 H 5460.24 0.0140168 -4.33798 0
M  V30 57512 H 5460.91 1.28117 -5.36927 0
M  V30 57513 H 5463.38 2.06835 -3.61052 0
M  V30 57514 H 5462.26 3.1049 -4.52645 0
M  V30 57515 H 5462.52 3.40809 -2.81606 0
M  V30 57516 N 5461.58 1.5205 0.414556 0
M  V30 57517 C 5462.81 1.69437 1.18215 0
M  V30 57518 C 5463.22 0.401105 1.84899 0
M  V30 57519 O 5462.56 -0.632281 1.72476 0
M  V30 57520 C 5462.62 2.76994 2.29161 0
M  V30 57521 C 5462.29 4.1891 1.82657 0
M  V30 57522 C 5463.28 5.02934 1.31733 0
M  V30 57523 C 5460.97 4.65119 1.89655 0
M  V30 57524 C 5462.96 6.31237 0.884239 0
M  V30 57525 C 5460.65 5.93414 1.45957 0
M  V30 57526 C 5461.65 6.76301 0.954262 0
M  V30 57527 O 5461.34 8.02193 0.52357 0
M  V30 57528 H 5461.07 0.57124 0.36147 0
M  V30 57529 H 5463.62 1.99357 0.494573 0
M  V30 57530 H 5461.85 2.42438 3.01265 0
M  V30 57531 H 5463.54 2.83033 2.90941 0
M  V30 57532 H 5464.31 4.68427 1.25703 0
M  V30 57533 H 5460.19 4.0071 2.27931 0
M  V30 57534 H 5463.73 6.95883 0.489138 0
M  V30 57535 H 5459.63 6.2743 1.51665 0
M  V30 57536 H 5460.39 8.15936 0.647369 0
M  V30 57537 N 5463.06 -0.67145 1.42581 0
M  V30 57538 C 5464 -1.78491 1.46321 0
M  V30 57539 C 5464.97 -1.6309 0.3148 0
M  V30 57540 O 5466.16 -1.83596 0.519356 0
M  V30 57541 C 5463.3 -3.16543 1.37458 0
M  V30 57542 C 5462.41 -3.43207 2.62361 0
M  V30 57543 C 5461.55 -4.71005 2.45616 0
M  V30 57544 C 5460.59 -4.90715 3.65876 0
M  V30 57545 N 5459.72 -6.09757 3.48054 0
M  V30 57546 H 5464.56 -1.74629 2.41472 0
M  V30 57547 H 5462.1 -0.852449 1.19882 0
M  V30 57548 H 5464.06 -3.96325 1.30317 0
M  V30 57549 H 5462.69 -3.1952 0.459003 0
M  V30 57550 H 5461.74 -2.57654 2.79855 0
M  V30 57551 H 5463.05 -3.53663 3.51744 0
M  V30 57552 H 5462.21 -5.58884 2.3608 0
M  V30 57553 H 5460.95 -4.62838 1.53728 0
M  V30 57554 H 5459.95 -4.01278 3.75841 0
M  V30 57555 H 5461.18 -5.00725 4.5875 0
M  V30 57556 H 5459.12 -6.02756 2.58885 0
M  V30 57557 H 5459.04 -6.21089 4.31027 0
M  V30 57558 H 5460.31 -7.00305 3.42335 0
M  V30 57559 N 5464.54 -1.28809 -0.908079 0
M  V30 57560 C 5465.78 -1.16466 -1.66023 0
M  V30 57561 C 5466.11 0.284958 -1.92098 0
M  V30 57562 O 5465.39 1.2067 -1.52542 0
M  V30 57563 C 5465.67 -1.96962 -3.0146 0
M  V30 57564 C 5465.53 -3.50017 -2.82503 0
M  V30 57565 C 5466.84 -1.78947 -4.02077 0
M  V30 57566 H 5463.96 -0.424456 -0.6025 0
M  V30 57567 H 5466.61 -1.58189 -1.05244 0
M  V30 57568 H 5464.76 -1.61507 -3.53338 0
M  V30 57569 H 5466.43 -3.95409 -2.37591 0
M  V30 57570 H 5464.67 -3.75364 -2.1745 0
M  V30 57571 H 5465.34 -4.01604 -3.78706 0
M  V30 57572 H 5467.82 -2.09898 -3.5928 0
M  V30 57573 H 5466.69 -2.37632 -4.94795 0
M  V30 57574 H 5466.95 -0.742439 -4.35821 0
M  V30 57575 N 5466.01 1.1173 -1.11149 0
M  V30 57576 C 5467.24 1.8694 -0.879599 0
M  V30 57577 C 5467.65 1.80285 0.573944 0
M  V30 57578 O 5466.99 1.18003 1.40787 0
M  V30 57579 C 5467.06 3.36734 -1.25899 0
M  V30 57580 C 5466.72 3.6716 -2.72108 0
M  V30 57581 C 5467.72 3.64897 -3.70332 0
M  V30 57582 C 5465.4 3.96261 -3.08679 0
M  V30 57583 C 5467.4 3.91307 -5.03148 0
M  V30 57584 C 5465.08 4.22329 -4.4168 0
M  V30 57585 C 5466.08 4.1984 -5.38724 0
M  V30 57586 O 5465.77 4.45257 -6.69329 0
M  V30 57587 H 5465.5 0.598106 -0.315032 0
M  V30 57588 H 5468.06 1.42248 -1.48171 0
M  V30 57589 H 5466.29 3.82017 -0.600008 0
M  V30 57590 H 5467.97 3.93303 -1.00339 0
M  V30 57591 H 5468.74 3.42469 -3.43424 0
M  V30 57592 H 5464.62 3.97336 -2.33763 0
M  V30 57593 H 5468.16 3.89279 -5.78885 0
M  V30 57594 H 5464.06 4.44233 -4.68324 0
M  V30 57595 H 5464.83 4.62839 -6.75072 0
M  V30 57596 N 5467.49 0.901349 1.29281 0
M  V30 57597 C 5468.72 0.542793 1.99342 0
M  V30 57598 C 5469.13 -0.877298 1.67631 0
M  V30 57599 O 5468.47 -1.59085 0.918571 0
M  V30 57600 C 5468.53 0.657212 3.53442 0
M  V30 57601 C 5468.2 2.04458 4.08713 0
M  V30 57602 C 5469.2 3.01592 4.23483 0
M  V30 57603 C 5466.88 2.35441 4.43704 0
M  V30 57604 C 5468.87 4.27833 4.72481 0
M  V30 57605 C 5466.56 3.61923 4.92397 0
M  V30 57606 C 5467.56 4.57933 5.06741 0
M  V30 57607 O 5467.25 5.8217 5.54377 0
M  V30 57608 H 5466.98 0.206765 0.643603 0
M  V30 57609 H 5469.53 1.21317 1.65745 0
M  V30 57610 H 5467.76 -0.0701946 3.86636 0
M  V30 57611 H 5469.45 0.307567 4.04733 0
M  V30 57612 H 5470.22 2.78971 3.96737 0
M  V30 57613 H 5466.1 1.61469 4.31797 0
M  V30 57614 H 5469.64 5.02777 4.83591 0
M  V30 57615 H 5465.54 3.84374 5.18582 0
M  V30 57616 H 5466.31 5.84783 5.72688 0
M  V30 57617 N 5468.97 -1.42929 0.664004 0
M  V30 57618 C 5470.22 -2.01284 0.18145 0
M  V30 57619 C 5470.54 -1.52712 -1.2126 0
M  V30 57620 O 5469.81 -0.744245 -1.81212 0
M  V30 57621 H 5468.39 -0.744246 0.0640907 0
M  V30 57622 H 5471.05 -1.74994 0.858093 0
M  V30 57623 H 5470.15 -3.11612 0.174383 0
M  V30 57624 N 5470.45 -0.40662 -1.52264 0
M  V30 57625 C 5471.4 0.434809 -2.285 0
M  V30 57626 C 5472.39 1.04802 -1.3309 0
M  V30 57627 O 5473.6 0.986504 -1.50559 0
M  V30 57628 H 5469.97 0.158997 -0.734999 0
M  V30 57629 H 5471.94 -0.22942 -2.97517 0
M  V30 57630 C 5470.69 1.54062 -3.11705 0
M  V30 57631 H 5470.01 1.0781 -3.8499 0
M  V30 57632 H 5471.45 2.10324 -3.68157 0
M  V30 57633 C 5469.91 2.50654 -2.25109 0
M  V30 57634 O 5470.44 3.54479 -1.88964 0
M  V30 57635 N 5468.65 2.20805 -1.88928 0
M  V30 57636 H 5468.2 1.36406 -2.18521 0
M  V30 57637 H 5468.15 2.8568 -1.3128 0
M  V30 57638 N 5471.93 1.57004 -0.136964 0
M  V30 57639 C 5472.89 2.15069 0.792343 0
M  V30 57640 C 5473.89 1.08996 1.18223 0
M  V30 57641 O 5475.08 1.34685 1.10479 0
M  V30 57642 C 5472.21 2.70561 2.07388 0
M  V30 57643 H 5473.4 2.9852 0.287415 0
M  V30 57644 H 5470.96 1.55895 0.112414 0
M  V30 57645 H 5471.69 1.90748 2.6227 0
M  V30 57646 H 5471.48 3.48155 1.80362 0
M  V30 57647 H 5472.97 3.15331 2.73781 0
M  V30 57648 N 5473.4 -0.136826 1.57005 0
M  V30 57649 C 5474.33 -1.17019 2.02062 0
M  V30 57650 C 5475.32 -1.4422 0.901916 0
M  V30 57651 O 5476.5 -1.54967 1.17042 0
M  V30 57652 C 5473.63 -2.50086 2.40986 0
M  V30 57653 C 5472.58 -2.37385 3.56135 0
M  V30 57654 C 5471.91 -3.75255 3.80904 0
M  V30 57655 C 5473.21 -1.84935 4.88463 0
M  V30 57656 H 5474.9 -0.7955 2.88638 0
M  V30 57657 H 5472.45 -0.381217 1.38862 0
M  V30 57658 H 5474.4 -3.22611 2.71108 0
M  V30 57659 H 5473.13 -2.8941 1.51358 0
M  V30 57660 H 5471.79 -1.67311 3.26194 0
M  V30 57661 H 5471.43 -4.12033 2.8851 0
M  V30 57662 H 5471.13 -3.67615 4.58402 0
M  V30 57663 H 5472.66 -4.49313 4.13461 0
M  V30 57664 H 5474.07 -2.47262 5.17237 0
M  V30 57665 H 5472.47 -1.88161 5.69838 0
M  V30 57666 H 5473.54 -0.805679 4.7816 0
M  V30 57667 N 5474.88 -1.52268 -0.406486 0
M  V30 57668 C 5476.16 -1.57022 -1.16634 0
M  V30 57669 C 5476.54 -0.352825 -2.08131 0
M  V30 57670 O 5475.89 0.660131 -2.18757 0
M  V30 57671 C 5476.1 -2.90023 -1.94133 0
M  V30 57672 C 5477.45 -3.43121 -2.50107 0
M  V30 57673 O 5478.47 -2.91781 -2.0431 0
M  V30 57674 O 5477.33 -4.32777 -3.33716 0
M  V30 57675 H 5474.42 -0.632593 -0.532687 0
M  V30 57676 H 5476.97 -1.64596 -0.413053 0
M  V30 57677 H 5475.74 -3.70076 -1.27121 0
M  V30 57678 H 5475.36 -2.85753 -2.76461 0
M  V30 57679 N 5476.36 0.663879 -1.42935 0
M  V30 57680 C 5477.29 1.78941 -1.43223 0
M  V30 57681 C 5478.31 1.59425 -0.329783 0
M  V30 57682 O 5479.49 1.68342 -0.59356 0
M  V30 57683 C 5476.59 3.16213 -1.21913 0
M  V30 57684 C 5475.77 3.62482 -2.44797 0
M  V30 57685 C 5474.83 4.78521 -2.1887 0
M  V30 57686 O 5473.85 4.88506 -2.92149 0
M  V30 57687 N 5475.05 5.6799 -1.19864 0
M  V30 57688 H 5477.82 1.79175 -2.40242 0
M  V30 57689 H 5475.38 0.847356 -1.37955 0
M  V30 57690 H 5477.37 3.91513 -1.02468 0
M  V30 57691 H 5475.94 3.10813 -0.333785 0
M  V30 57692 H 5475.16 2.77741 -2.79738 0
M  V30 57693 H 5476.45 3.90139 -3.26602 0
M  V30 57694 H 5475.85 5.62586 -0.592788 0
M  V30 57695 H 5474.41 6.43056 -1.06405 0
M  V30 57696 N 5477.84 1.29288 0.901235 0
M  V30 57697 C 5478.8 1.1429 1.98672 0
M  V30 57698 C 5479.8 0.0788206 1.60607 0
M  V30 57699 O 5480.99 0.325634 1.71129 0
M  V30 57700 C 5478.12 0.747396 3.32606 0
M  V30 57701 H 5479.32 2.10708 2.13406 0
M  V30 57702 H 5476.87 1.12453 1.08554 0
M  V30 57703 H 5477.6 -0.216997 3.23573 0
M  V30 57704 H 5477.39 1.5162 3.61599 0
M  V30 57705 H 5478.88 0.665467 4.12264 0
M  V30 57706 N 5479.32 -1.11139 1.1174 0
M  V30 57707 C 5480.57 -1.82308 0.862939 0
M  V30 57708 C 5480.88 -1.85738 -0.613261 0
M  V30 57709 O 5482.08 -2.53038 -0.984079 0
M  V30 57710 C 5480.54 -3.27422 1.49408 0
M  V30 57711 C 5480.15 -3.32312 3.00454 0
M  V30 57712 C 5481.89 -4.03469 1.31958 0
M  V30 57713 C 5479.8 -4.71842 3.56537 0
M  V30 57714 H 5478.73 -0.683113 0.319174 0
M  V30 57715 H 5481.38 -1.25041 1.34302 0
M  V30 57716 H 5479.76 -3.84641 0.941663 0
M  V30 57717 H 5480.94 -2.84958 3.62127 0
M  V30 57718 H 5479.25 -2.69747 3.17215 0
M  V30 57719 H 5481.85 -5.06522 1.71289 0
M  V30 57720 H 5482.19 -4.15472 0.262485 0
M  V30 57721 H 5482.72 -3.52645 1.84082 0
M  V30 57722 H 5479.46 -4.65038 4.61974 0
M  V30 57723 H 5478.98 -5.19593 2.99638 0
M  V30 57724 H 5480.66 -5.40803 3.55163 0
M  V30 57725 N 5480.79 -0.908192 -1.28801 0
M  V30 57726 C 5482.02 -0.553501 -1.99878 0
M  V30 57727 C 5482.44 0.856655 -1.67461 0
M  V30 57728 O 5481.8 1.5716 -0.903904 0
M  V30 57729 C 5481.85 -0.762812 -3.52439 0
M  V30 57730 O 5480.95 0.180779 -4.12004 0
M  V30 57731 H 5480.3 -0.215259 -0.62814 0
M  V30 57732 H 5482.83 -1.22211 -1.6409 0
M  V30 57733 H 5482.84 -0.670753 -4.02449 0
M  V30 57734 H 5481.51 -1.79084 -3.75369 0
M  V30 57735 H 5480.09 0.0404586 -3.72878 0
M  V30 57736 N 5482.27 1.42575 -0.671575 0
M  V30 57737 C 5483.21 2.28124 0.0588545 0
M  V30 57738 C 5484.18 1.40881 0.811866 0
M  V30 57739 O 5485.37 1.70321 0.807657 0
M  V30 57740 C 5482.49 3.20666 1.09046 0
M  V30 57741 C 5481.54 4.24292 0.4334 0
M  V30 57742 S 5482.37 5.2939 -0.806628 0
M  V30 57743 C 5483.53 6.25499 0.223984 0
M  V30 57744 H 5483.76 2.89726 -0.666791 0
M  V30 57745 H 5481.3 1.47357 -0.46101 0
M  V30 57746 H 5483.25 3.74522 1.68058 0
M  V30 57747 H 5481.91 2.58206 1.78853 0
M  V30 57748 H 5481.11 4.89218 1.21169 0
M  V30 57749 H 5480.71 3.73908 -0.0830451 0
M  V30 57750 H 5483 6.68761 1.08469 0
M  V30 57751 H 5483.94 7.07021 -0.390718 0
M  V30 57752 H 5484.35 5.61635 0.568017 0
M  V30 57753 N 5483.75 0.414689 1.52046 0
M  V30 57754 C 5485 -0.151874 2.02832 0
M  V30 57755 C 5485.35 -1.42333 1.29457 0
M  V30 57756 O 5484.65 -1.87507 0.393896 0
M  V30 57757 C 5484.84 -0.448202 3.54578 0
M  V30 57758 C 5484.67 0.792982 4.42653 0
M  V30 57759 C 5483.44 1.31983 4.87759 0
M  V30 57760 C 5485.64 1.6727 4.86339 0
M  V30 57761 N 5483.62 2.51592 5.59977 0
M  V30 57762 C 5484.99 2.71499 5.57394 0
M  V30 57763 C 5487.04 1.6898 4.68348 0
M  V30 57764 C 5485.75 3.77356 6.12369 0
M  V30 57765 C 5487.77 2.73758 5.24224 0
M  V30 57766 C 5487.14 3.76708 5.95206 0
M  V30 57767 H 5483.23 -0.0169972 0.781815 0
M  V30 57768 H 5485.82 0.570284 1.86161 0
M  V30 57769 H 5483.99 -1.1394 3.71311 0
M  V30 57770 H 5485.72 -1.00413 3.92045 0
M  V30 57771 H 5482.48 0.877048 4.65408 0
M  V30 57772 H 5482.9 3.12182 6.00726 0
M  V30 57773 H 5487.54 0.907248 4.12951 0
M  V30 57774 H 5485.26 4.56463 6.66834 0
M  V30 57775 H 5488.85 2.75996 5.12169 0
M  V30 57776 H 5487.73 4.56453 6.37668 0
M  V30 57777 N 5485.23 -1.56929 0.145288 0
M  V30 57778 C 5486.19 -2.15486 -0.780927 0
M  V30 57779 C 5487.19 -1.09621 -1.17643 0
M  V30 57780 O 5488.38 -1.35269 -1.09763 0
M  V30 57781 C 5485.51 -2.71657 -2.0595 0
M  V30 57782 H 5486.71 -2.98668 -0.27158 0
M  V30 57783 H 5484.26 -1.55953 -0.104145 0
M  V30 57784 H 5485 -1.92136 -2.61255 0
M  V30 57785 H 5484.78 -3.49107 -1.78513 0
M  V30 57786 H 5486.27 -3.16779 -2.72105 0
M  V30 57787 N 5486.71 0.128498 -1.57075 0
M  V30 57788 C 5487.64 1.15945 -2.02679 0
M  V30 57789 C 5488.62 1.4374 -0.909552 0
M  V30 57790 O 5489.8 1.54344 -1.17863 0
M  V30 57791 C 5486.93 2.48805 -2.42309 0
M  V30 57792 C 5485.89 2.35493 -3.57389 0
M  V30 57793 C 5485.21 3.7323 -3.82889 0
M  V30 57794 C 5486.51 1.82342 -4.89437 0
M  V30 57795 H 5488.21 0.780181 -2.89056 0
M  V30 57796 H 5485.75 0.373847 -1.39063 0
M  V30 57797 H 5487.71 3.21169 -2.72816 0
M  V30 57798 H 5486.43 2.88603 -1.52891 0
M  V30 57799 H 5485.09 1.65578 -3.27077 0
M  V30 57800 H 5484.74 4.10497 -2.90691 0
M  V30 57801 H 5484.44 3.65179 -4.60346 0
M  V30 57802 H 5485.96 4.47114 -4.15838 0
M  V30 57803 H 5487.38 2.44515 -5.18541 0
M  V30 57804 H 5485.77 1.85136 -5.70828 0
M  V30 57805 H 5486.84 0.78031 -4.7858 0
M  V30 57806 N 5488.19 1.52481 0.398405 0
M  V30 57807 C 5489.43 1.67313 1.14605 0
M  V30 57808 C 5489.76 0.407161 1.89884 0
M  V30 57809 O 5489.04 -0.594769 1.85183 0
M  V30 57810 C 5489.32 2.90212 2.13188 0
M  V30 57811 C 5489.18 4.26886 1.41735 0
M  V30 57812 C 5490.49 3.08645 3.1373 0
M  V30 57813 H 5487.61 0.608868 0.41527 0
M  V30 57814 H 5490.26 1.85058 0.430508 0
M  V30 57815 H 5488.41 2.75213 2.74208 0
M  V30 57816 H 5490.08 4.53633 0.837517 0
M  V30 57817 H 5488.32 4.27796 0.719237 0
M  V30 57818 H 5488.99 5.08947 2.13722 0
M  V30 57819 H 5491.47 3.22612 2.62794 0
M  V30 57820 H 5490.34 3.96131 3.79963 0
M  V30 57821 H 5490.6 2.22438 3.82065 0
M  V30 57822 N 5489.66 -0.656289 1.43285 0
M  V30 57823 C 5490.91 -1.41206 1.44026 0
M  V30 57824 C 5491.23 -1.95485 0.0670471 0
M  V30 57825 O 5492.43 -2.71457 -0.0480955 0
M  V30 57826 C 5490.89 -2.55532 2.53439 0
M  V30 57827 C 5490.5 -2.07875 3.96853 0
M  V30 57828 C 5492.24 -3.32921 2.6337 0
M  V30 57829 C 5490.15 -3.19393 4.97737 0
M  V30 57830 H 5489.08 -0.530547 0.535757 0
M  V30 57831 H 5491.73 -0.708683 1.69263 0
M  V30 57832 H 5490.11 -3.28327 2.21399 0
M  V30 57833 H 5491.28 -1.42111 4.38339 0
M  V30 57834 H 5489.6 -1.43374 3.90938 0
M  V30 57835 H 5492.2 -4.16009 3.35918 0
M  V30 57836 H 5492.54 -3.80747 1.68337 0
M  V30 57837 H 5493.07 -2.67205 2.94697 0
M  V30 57838 H 5489.81 -2.76539 5.94312 0
M  V30 57839 H 5489.33 -3.83878 4.60866 0
M  V30 57840 H 5491.01 -3.84573 5.20301 0
M  V30 57841 N 5491.14 -1.29765 -0.894366 0
M  V30 57842 C 5492.37 -1.2107 -1.68395 0
M  V30 57843 C 5492.79 0.224542 -1.86755 0
M  V30 57844 O 5492.15 1.16194 -1.39172 0
M  V30 57845 C 5492.2 -1.93479 -3.043 0
M  V30 57846 O 5491.3 -1.25547 -3.92825 0
M  V30 57847 H 5490.64 -0.419241 -0.514911 0
M  V30 57848 H 5493.17 -1.71425 -1.1169 0
M  V30 57849 H 5493.18 -2.02139 -3.54406 0
M  V30 57850 H 5491.86 -2.97867 -2.90255 0
M  V30 57851 H 5490.43 -1.2518 -3.51261 0
M  V30 57852 N 5492.62 1.10545 -1.12328 0
M  V30 57853 C 5493.87 1.82752 -0.879182 0
M  V30 57854 C 5494.2 1.84907 0.593539 0
M  V30 57855 O 5493.47 1.30889 1.43869 0
M  V30 57856 C 5493.76 3.29476 -1.4532 0
M  V30 57857 C 5493.61 3.3566 -2.9942 0
M  V30 57858 C 5494.93 4.25825 -1.11182 0
M  V30 57859 H 5492.05 0.663502 -0.320833 0
M  V30 57860 H 5494.69 1.29567 -1.38969 0
M  V30 57861 H 5492.84 3.74898 -1.01901 0
M  V30 57862 H 5494.51 2.98727 -3.51511 0
M  V30 57863 H 5492.75 2.75594 -3.35008 0
M  V30 57864 H 5493.43 4.38971 -3.34676 0
M  V30 57865 H 5495.9 3.8863 -1.48681 0
M  V30 57866 H 5494.78 5.26851 -1.5401 0
M  V30 57867 H 5495.04 4.42094 -0.0238601 0
M  V30 57868 N 5494.1 0.91501 1.28317 0
M  V30 57869 C 5495.33 0.564724 1.99044 0
M  V30 57870 C 5495.74 -0.854286 1.68367 0
M  V30 57871 O 5495.1 -1.56602 0.937123 0
M  V30 57872 C 5495.15 0.765788 3.53296 0
M  V30 57873 O 5494.87 2.12896 3.82893 0
M  V30 57874 C 5496.37 0.422502 4.41282 0
M  V30 57875 H 5493.59 0.21518 0.635562 0
M  V30 57876 H 5496.13 1.22856 1.63483 0
M  V30 57877 H 5494.29 0.148932 3.87114 0
M  V30 57878 H 5494.7 2.16956 4.77525 0
M  V30 57879 H 5496.18 0.61395 5.48575 0
M  V30 57880 H 5496.65 -0.641332 4.34492 0
M  V30 57881 H 5497.26 1.01695 4.12963 0
M  V30 57882 N 5495.58 -1.42217 0.679127 0
M  V30 57883 C 5496.8 -2.06332 0.21017 0
M  V30 57884 C 5497.23 -1.50707 -1.12557 0
M  V30 57885 O 5496.58 -0.627301 -1.70102 0
M  V30 57886 C 5496.63 -3.60243 0.160449 0
M  V30 57887 O 5495.74 -4.03125 -0.86973 0
M  V30 57888 H 5495.08 -0.655358 0.106777 0
M  V30 57889 H 5497.61 -1.82275 0.929358 0
M  V30 57890 H 5497.62 -4.07998 -0.0142405 0
M  V30 57891 H 5496.29 -4.00102 1.13541 0
M  V30 57892 H 5494.87 -3.66909 -0.665731 0
M  V30 57893 N 5497.05 -0.422747 -1.51824 0
M  V30 57894 C 5498 0.410549 -2.28948 0
M  V30 57895 C 5499 1.03384 -1.34194 0
M  V30 57896 O 5500.2 0.97048 -1.51597 0
M  V30 57897 H 5496.58 0.151193 -0.736644 0
M  V30 57898 H 5498.55 -0.260963 -2.97257 0
M  V30 57899 C 5497.3 1.50747 -3.13322 0
M  V30 57900 H 5496.62 1.03721 -3.86111 0
M  V30 57901 H 5498.06 2.06407 -3.70367 0
M  V30 57902 C 5496.52 2.48253 -2.27755 0
M  V30 57903 O 5497.05 3.52455 -1.92713 0
M  V30 57904 N 5495.25 2.18788 -1.91259 0
M  V30 57905 H 5494.8 1.3408 -2.19955 0
M  V30 57906 H 5494.76 2.84271 -1.34303 0
M  V30 57907 N 5498.53 1.5685 -0.153609 0
M  V30 57908 C 5499.76 2.00411 0.501878 0
M  V30 57909 C 5500.17 1.03277 1.58526 0
M  V30 57910 O 5499.51 0.0228125 1.83686 0
M  V30 57911 C 5499.58 3.40407 1.15601 0
M  V30 57912 C 5499.24 4.56487 0.216435 0
M  V30 57913 C 5500.24 5.16892 -0.558449 0
M  V30 57914 C 5497.92 5.02163 0.117415 0
M  V30 57915 C 5499.92 6.21387 -1.41973 0
M  V30 57916 C 5497.6 6.06511 -0.747468 0
M  V30 57917 C 5498.6 6.65994 -1.51464 0
M  V30 57918 O 5498.29 7.68322 -2.3651 0
M  V30 57919 H 5498.02 0.662474 0.134551 0
M  V30 57920 H 5500.57 2.03908 -0.247158 0
M  V30 57921 H 5498.8 3.33769 1.95282 0
M  V30 57922 H 5500.49 3.68034 1.71189 0
M  V30 57923 H 5501.26 4.82498 -0.49202 0
M  V30 57924 H 5497.14 4.55588 0.704302 0
M  V30 57925 H 5500.68 6.67744 -2.019 0
M  V30 57926 H 5496.58 6.40332 -0.815165 0
M  V30 57927 H 5497.35 7.8557 -2.29831 0
M  V30 57928 N 5500.01 -0.120166 1.57141 0
M  V30 57929 C 5501.24 -0.846304 1.89347 0
M  V30 57930 C 5501.66 -1.72699 0.745426 0
M  V30 57931 O 5501.02 -1.78732 -0.304092 0
M  V30 57932 C 5501.07 -1.6566 3.20295 0
M  V30 57933 O 5500.17 -2.76342 3.06119 0
M  V30 57934 H 5499.51 -0.23411 0.62136 0
M  V30 57935 H 5502.04 -0.102914 2.04341 0
M  V30 57936 H 5502.05 -2.04608 3.52986 0
M  V30 57937 H 5500.73 -1.01009 4.03448 0
M  V30 57938 H 5499.3 -2.40605 2.84892 0
M  V30 57939 N 5501.49 -1.5269 -0.390313 0
M  V30 57940 C 5502.74 -1.67339 -1.13323 0
M  V30 57941 C 5503.06 -0.415135 -1.9053 0
M  V30 57942 O 5502.33 0.570438 -1.87411 0
M  V30 57943 H 5500.91 -0.616836 -0.421335 0
M  V30 57944 H 5503.57 -1.898 -0.442933 0
M  V30 57945 H 5502.67 -2.5232 -1.83687 0
M  V30 57946 N 5502.97 0.648681 -1.43631 0
M  V30 57947 C 5504.21 1.41061 -1.45704 0
M  V30 57948 C 5504.55 1.94024 -0.0826802 0
M  V30 57949 O 5503.82 1.72573 0.897147 0
M  V30 57950 C 5504.1 2.58873 -2.50313 0
M  V30 57951 C 5503.96 2.11373 -3.97041 0
M  V30 57952 C 5505.28 3.61083 -2.51609 0
M  V30 57953 H 5502.39 0.511573 -0.53053 0
M  V30 57954 H 5505.04 0.735007 -1.75207 0
M  V30 57955 H 5503.19 3.1651 -2.25285 0
M  V30 57956 H 5504.86 1.58702 -4.33141 0
M  V30 57957 H 5503.1 1.42706 -4.09655 0
M  V30 57958 H 5503.77 2.96113 -4.65855 0
M  V30 57959 H 5506.25 3.13214 -2.73928 0
M  V30 57960 H 5505.12 4.4106 -3.26738 0
M  V30 57961 H 5505.39 4.1398 -1.55156 0
M  V30 57962 N 5504.44 1.30237 0.887472 0
M  V30 57963 C 5505.69 1.19092 1.64149 0
M  V30 57964 C 5506.02 -0.254361 1.92527 0
M  V30 57965 O 5505.3 -1.18228 1.54442 0
M  V30 57966 C 5505.58 2.01733 2.98288 0
M  V30 57967 C 5505.43 3.54467 2.76899 0
M  V30 57968 C 5506.75 1.85321 3.9918 0
M  V30 57969 H 5503.87 0.433988 0.595671 0
M  V30 57970 H 5506.51 1.59843 1.02714 0
M  V30 57971 H 5504.66 1.67108 3.50724 0
M  V30 57972 H 5506.34 3.99139 2.3127 0
M  V30 57973 H 5504.58 3.78776 2.1145 0
M  V30 57974 H 5505.25 4.07578 3.72269 0
M  V30 57975 H 5507.73 2.15587 3.55895 0
M  V30 57976 H 5506.6 2.45474 4.90952 0
M  V30 57977 H 5506.86 0.81168 4.34585 0
M  V30 57978 N 5505.92 -1.09948 1.12913 0
M  V30 57979 C 5507.15 -1.85786 0.910549 0
M  V30 57980 C 5507.57 -1.809 -0.54042 0
M  V30 57981 O 5506.92 -1.20131 -1.37385 0
M  V30 57982 C 5506.97 -3.33982 1.3834 0
M  V30 57983 O 5506.69 -3.38801 2.77751 0
M  V30 57984 C 5508.2 -4.26679 1.20249 0
M  V30 57985 H 5505.42 -0.587015 0.325046 0
M  V30 57986 H 5507.96 -1.3896 1.50035 0
M  V30 57987 H 5506.11 -3.78256 0.836725 0
M  V30 57988 H 5506.53 -4.31193 2.98618 0
M  V30 57989 H 5508 -5.2884 1.58216 0
M  V30 57990 H 5508.48 -4.38965 0.143594 0
M  V30 57991 H 5509.09 -3.88215 1.73692 0
M  V30 57992 N 5507.4 -0.921802 -1.2783 0
M  V30 57993 C 5508.63 -0.575272 -1.98742 0
M  V30 57994 C 5509.04 0.845345 -1.68818 0
M  V30 57995 O 5508.4 1.56103 -0.945415 0
M  V30 57996 C 5508.45 -0.784513 -3.52885 0
M  V30 57997 O 5508.17 -2.14924 -3.81758 0
M  V30 57998 C 5509.67 -0.445899 -4.41052 0
M  V30 57999 H 5506.89 -0.218548 -0.634411 0
M  V30 58000 H 5509.44 -1.23721 -1.62829 0
M  V30 58001 H 5507.59 -0.169459 -3.87029 0
M  V30 58002 H 5508.01 -2.19486 -4.76368 0
M  V30 58003 H 5509.48 -0.643033 -5.48242 0
M  V30 58004 H 5509.96 0.61828 -4.34826 0
M  V30 58005 H 5510.56 -1.03884 -4.12418 0
M  V30 58006 N 5508.88 1.41855 -0.686659 0
M  V30 58007 C 5510.13 2.00593 -0.211021 0
M  V30 58008 C 5510.44 1.54979 1.19336 0
M  V30 58009 O 5511.65 2.06216 1.76599 0
M  V30 58010 C 5510.1 3.58417 -0.326387 0
M  V30 58011 C 5509.71 4.13016 -1.73557 0
M  V30 58012 C 5511.45 4.24405 0.0899324 0
M  V30 58013 C 5509.36 5.63244 -1.80306 0
M  V30 58014 H 5508.29 0.750247 -0.075134 0
M  V30 58015 H 5510.94 1.62439 -0.853565 0
M  V30 58016 H 5509.32 3.94131 0.384255 0
M  V30 58017 H 5510.5 3.88739 -2.47425 0
M  V30 58018 H 5508.81 3.59522 -2.10077 0
M  V30 58019 H 5511.41 5.34667 0.059816 0
M  V30 58020 H 5511.75 4.00749 1.12719 0
M  V30 58021 H 5512.29 3.93693 -0.570118 0
M  V30 58022 H 5509.03 5.91714 -2.82054 0
M  V30 58023 H 5508.55 5.89475 -1.1081 0
M  V30 58024 H 5510.22 6.27865 -1.56189 0
M  V30 58025 N 5510.36 0.430792 1.51598 0
M  V30 58026 C 5511.29 -0.429028 2.24131 0
M  V30 58027 C 5512.27 -1.03015 1.25804 0
M  V30 58028 O 5513.45 -1.07387 1.5492 0
M  V30 58029 C 5510.58 -1.59739 2.98666 0
M  V30 58030 C 5509.62 -1.11758 4.11597 0
M  V30 58031 S 5510.46 -0.0649585 5.35461 0
M  V30 58032 C 5511.61 -1.23814 6.13532 0
M  V30 58033 H 5511.85 0.186787 2.96713 0
M  V30 58034 H 5509.38 0.215255 1.52892 0
M  V30 58035 H 5511.34 -2.26723 3.42209 0
M  V30 58036 H 5510 -2.1846 2.25686 0
M  V30 58037 H 5509.19 -1.99109 4.63003 0
M  V30 58038 H 5508.79 -0.526079 3.70282 0
M  V30 58039 H 5511.09 -2.15774 6.42221 0
M  V30 58040 H 5512.03 -0.764183 7.03964 0
M  V30 58041 H 5512.44 -1.47374 5.44923 0
M  V30 58042 N 5511.83 -1.56766 0.161924 0
M  V30 58043 C 5513.08 -1.96596 -0.485427 0
M  V30 58044 C 5513.41 -1.04749 -1.63884 0
M  V30 58045 O 5512.66 -0.0796708 -1.95538 0
M  V30 58046 C 5512.96 -3.42571 -1.01882 0
M  V30 58047 C 5512.63 -4.50897 0.0177004 0
M  V30 58048 C 5511.29 -4.80248 0.302598 0
M  V30 58049 C 5513.64 -5.16178 0.721753 0
M  V30 58050 C 5510.97 -5.72182 1.2971 0
M  V30 58051 C 5513.32 -6.09185 1.70517 0
M  V30 58052 C 5511.99 -6.36908 1.99762 0
M  V30 58053 H 5511.26 -0.719395 -0.17763 0
M  V30 58054 H 5513.9 -1.89836 0.251905 0
M  V30 58055 H 5512.21 -3.46236 -1.83379 0
M  V30 58056 H 5513.91 -3.70725 -1.52854 0
M  V30 58057 H 5510.5 -4.28063 -0.214529 0
M  V30 58058 H 5514.68 -4.93622 0.514855 0
M  V30 58059 H 5509.94 -5.91948 1.52995 0
M  V30 58060 H 5514.11 -6.58841 2.25615 0
M  V30 58061 H 5511.74 -7.07948 2.76972 0
M  V30 58062 N 5513.31 0.11183 -1.57203 0
M  V30 58063 C 5514.24 1.13789 -2.03898 0
M  V30 58064 C 5515.22 1.42767 -0.924746 0
M  V30 58065 O 5516.41 1.53085 -1.19493 0
M  V30 58066 C 5513.54 2.46221 -2.44934 0
M  V30 58067 C 5512.49 2.31689 -3.59867 0
M  V30 58068 C 5511.82 3.69148 -3.86826 0
M  V30 58069 C 5513.12 1.7714 -4.91344 0
M  V30 58070 H 5514.81 0.749479 -2.89868 0
M  V30 58071 H 5512.36 0.359077 -1.39451 0
M  V30 58072 H 5514.31 3.18258 -2.76207 0
M  V30 58073 H 5513.04 2.86966 -1.55943 0
M  V30 58074 H 5511.7 1.621 -3.28815 0
M  V30 58075 H 5511.34 4.0739 -2.95029 0
M  V30 58076 H 5511.04 3.60276 -4.64193 0
M  V30 58077 H 5512.57 4.42678 -4.20557 0
M  V30 58078 H 5513.98 2.39001 -5.21106 0
M  V30 58079 H 5512.38 1.79071 -5.7276 0
M  V30 58080 H 5513.45 0.729506 -4.79381 0
M  V30 58081 N 5514.79 1.52895 0.38221 0
M  V30 58082 C 5515.75 1.77502 1.45002 0
M  V30 58083 C 5516.75 0.645141 1.47291 0
M  V30 58084 O 5517.94 0.913244 1.48342 0
M  V30 58085 C 5515.08 1.88198 2.84244 0
M  V30 58086 H 5516.27 2.72853 1.24464 0
M  V30 58087 H 5513.82 1.4372 0.61436 0
M  V30 58088 H 5514.56 0.94856 3.10117 0
M  V30 58089 H 5514.34 2.70363 2.83983 0
M  V30 58090 H 5515.83 2.08885 3.61603 0
M  V30 58091 N 5516.27 -0.641055 1.43973 0
M  V30 58092 C 5517.69 -0.958116 1.27641 0
M  V30 58093 C 5517.89 -2.00455 0.204955 0
M  V30 58094 O 5516.94 -2.49107 -0.412518 0
M  V30 58095 C 5518.25 -1.43082 2.64477 0
M  V30 58096 C 5519.8 -1.54682 2.72107 0
M  V30 58097 C 5520.28 -2.05339 4.0939 0
M  V30 58098 N 5521.77 -2.12624 4.11516 0
M  V30 58099 C 5522.5 -2.52969 5.14582 0
M  V30 58100 N 5522 -2.92522 6.28015 0
M  V30 58101 N 5523.79 -2.53015 5.01936 0
M  V30 58102 H 5515.94 0.0511719 2.12338 0
M  V30 58103 H 5518.21 -0.0397147 0.947168 0
M  V30 58104 H 5517.91 -0.736268 3.43907 0
M  V30 58105 H 5517.79 -2.40365 2.90696 0
M  V30 58106 H 5520.17 -2.23236 1.93002 0
M  V30 58107 H 5520.25 -0.557995 2.4964 0
M  V30 58108 H 5519.9 -1.37384 4.88966 0
M  V30 58109 H 5519.83 -3.05075 4.29228 0
M  V30 58110 H 5522.32 -1.84781 3.29643 0
M  V30 58111 H 5522.63 -3.22091 7.02479 0
M  V30 58112 H 5520.98 -2.90297 6.31469 0
M  V30 58113 H 5524.17 -2.21499 4.12378 0
M  V30 58114 H 5524.34 -2.84134 5.82384 0
M  V30 58115 N 5517.75 -1.30706 -0.880552 0
M  V30 58116 C 5518.71 -1.17436 -1.96828 0
M  V30 58117 C 5519.71 -0.104362 -1.60461 0
M  V30 58118 O 5520.9 -0.352818 -1.7059 0
M  V30 58119 C 5518.03 -0.800216 -3.31375 0
M  V30 58120 H 5519.23 -2.14077 -2.10027 0
M  V30 58121 H 5516.78 -1.14166 -1.06751 0
M  V30 58122 H 5517.51 0.165492 -3.23877 0
M  V30 58123 H 5517.3 -1.57354 -3.59141 0
M  V30 58124 H 5518.79 -0.73097 -4.11153 0
M  V30 58125 N 5519.23 1.09347 -1.13494 0
M  V30 58126 C 5520.47 1.80912 -0.891833 0
M  V30 58127 C 5520.79 1.8669 0.583634 0
M  V30 58128 O 5521.99 2.54571 0.943699 0
M  V30 58129 C 5520.45 3.25004 -1.54598 0
M  V30 58130 C 5520.06 3.2749 -3.05703 0
M  V30 58131 C 5521.8 4.01319 -1.38361 0
M  V30 58132 C 5519.71 4.6611 -3.63999 0
M  V30 58133 H 5518.64 0.677949 -0.330002 0
M  V30 58134 H 5521.29 1.22888 -1.36274 0
M  V30 58135 H 5519.67 3.83094 -1.00274 0
M  V30 58136 H 5520.85 2.79161 -3.66614 0
M  V30 58137 H 5519.16 2.64666 -3.21467 0
M  V30 58138 H 5521.76 5.03733 -1.79325 0
M  V30 58139 H 5522.1 4.15001 -0.32855 0
M  V30 58140 H 5522.63 3.49672 -1.89669 0
M  V30 58141 H 5519.37 4.57629 -4.69314 0
M  V30 58142 H 5518.89 5.14761 -3.07866 0
M  V30 58143 H 5520.57 5.35084 -3.63722 0
M  V30 58144 N 5520.7 0.928568 1.2734 0
M  V30 58145 C 5521.95 0.570304 1.94616 0
M  V30 58146 C 5522.28 -0.88632 1.72795 0
M  V30 58147 O 5521.56 -1.63238 1.05752 0
M  V30 58148 C 5521.84 0.898087 3.48721 0
M  V30 58149 C 5521.69 2.40853 3.79882 0
M  V30 58150 C 5523.01 0.404583 4.38236 0
M  V30 58151 H 5520.13 0.208669 0.706842 0
M  V30 58152 H 5522.77 1.1605 1.5044 0
M  V30 58153 H 5520.92 0.395815 3.86478 0
M  V30 58154 H 5522.6 2.98256 3.51911 0
M  V30 58155 H 5520.84 2.85734 3.26402 0
M  V30 58156 H 5521.51 2.5884 4.87551 0
M  V30 58157 H 5523.99 0.835062 4.07635 0
M  V30 58158 H 5522.86 0.662876 5.44883 0
M  V30 58159 H 5523.12 -0.695354 4.36597 0
M  V30 58160 N 5522.18 -1.41489 0.694172 0
M  V30 58161 C 5523.43 -2.01251 0.224548 0
M  V30 58162 C 5523.76 -1.5497 -1.17536 0
M  V30 58163 O 5523.01 -0.751105 -1.80712 0
M  V30 58164 C 5523.31 -3.56666 0.228994 0
M  V30 58165 C 5522.98 -4.22452 1.57623 0
M  V30 58166 C 5521.64 -4.40137 1.94506 0
M  V30 58167 C 5523.99 -4.59352 2.46263 0
M  V30 58168 C 5521.32 -4.91998 3.19617 0
M  V30 58169 C 5523.67 -5.12602 3.70705 0
M  V30 58170 C 5522.33 -5.28498 4.07733 0
M  V30 58171 H 5521.6 -0.73643 0.0821678 0
M  V30 58172 H 5524.25 -1.69405 0.892986 0
M  V30 58173 H 5522.56 -3.88294 -0.522991 0
M  V30 58174 H 5524.25 -4.00712 -0.151878 0
M  V30 58175 H 5520.84 -4.09061 1.27935 0
M  V30 58176 H 5525.03 -4.45344 2.19048 0
M  V30 58177 H 5520.28 -5.02489 3.48302 0
M  V30 58178 H 5524.46 -5.40134 4.39577 0
M  V30 58179 H 5522.08 -5.68446 5.0475 0
M  V30 58180 N 5523.66 -0.438826 -1.51367 0
M  V30 58181 C 5524.91 0.12733 -2.024 0
M  V30 58182 C 5525.24 1.4223 -1.32228 0
M  V30 58183 O 5524.51 1.89512 -0.437674 0
M  V30 58184 C 5524.8 0.344547 -3.58448 0
M  V30 58185 C 5524.65 -0.969181 -4.39234 0
M  V30 58186 C 5525.97 1.11366 -4.25777 0
M  V30 58187 H 5523.09 0.0448022 -0.735637 0
M  V30 58188 H 5525.73 -0.578114 -1.80991 0
M  V30 58189 H 5523.88 0.94545 -3.7682 0
M  V30 58190 H 5525.55 -1.60418 -4.32509 0
M  V30 58191 H 5523.79 -1.57343 -4.04259 0
M  V30 58192 H 5524.47 -0.771221 -5.46586 0
M  V30 58193 H 5526.94 0.60464 -4.11684 0
M  V30 58194 H 5525.82 1.23441 -5.3484 0
M  V30 58195 H 5526.08 2.14211 -3.86738 0
M  V30 58196 N 5525.14 1.56678 -0.170236 0
M  V30 58197 C 5526.38 1.98745 0.477464 0
M  V30 58198 C 5526.74 1.05385 1.60493 0
M  V30 58199 O 5527.94 1.36588 2.3151 0
M  V30 58200 C 5526.21 3.44569 0.949065 0
M  V30 58201 S 5527.77 4.08664 1.5981 0
M  V30 58202 H 5524.59 0.694207 0.153614 0
M  V30 58203 H 5527.19 1.93662 -0.267441 0
M  V30 58204 H 5525.9 4.1023 0.118061 0
M  V30 58205 H 5525.43 3.53415 1.72804 0
M  V30 58206 H 5527.44 4.03624 2.88621 0
M  V30 58207 N 5526.62 -0.103492 1.5726 0
M  V30 58208 C 5527.86 -0.809709 1.85934 0
M  V30 58209 C 5528.19 -1.78788 0.758184 0
M  V30 58210 O 5527.47 -1.9308 -0.234614 0
M  V30 58211 C 5527.75 -1.5459 3.25229 0
M  V30 58212 C 5527.61 -0.586282 4.45963 0
M  V30 58213 C 5528.92 -2.49847 3.62305 0
M  V30 58214 H 5526.04 -0.292906 0.676295 0
M  V30 58215 H 5528.69 -0.0735398 1.89858 0
M  V30 58216 H 5526.84 -2.17344 3.22015 0
M  V30 58217 H 5528.51 0.0336062 4.61288 0
M  V30 58218 H 5526.75 0.101002 4.33682 0
M  V30 58219 H 5527.42 -1.13836 5.40135 0
M  V30 58220 H 5529.9 -1.9719 3.66409 0
M  V30 58221 H 5528.77 -2.9838 4.60718 0
M  V30 58222 H 5529.03 -3.33223 2.90543 0
M  V30 58223 N 5528.09 -1.53096 -0.374097 0
M  V30 58224 C 5529 -1.81878 -1.48181 0
M  V30 58225 C 5530.02 -0.706543 -1.59009 0
M  V30 58226 O 5531.2 -0.99571 -1.75064 0
M  V30 58227 C 5528.26 -1.99504 -2.83547 0
M  V30 58228 C 5527.32 -3.23412 -2.82317 0
M  V30 58229 C 5526.56 -3.40188 -4.11227 0
M  V30 58230 O 5526.78 -2.61443 -5.06955 0
M  V30 58231 O 5525.71 -4.33508 -4.17558 0
M  V30 58232 H 5529.54 -2.75969 -1.26785 0
M  V30 58233 H 5527.12 -1.3837 -0.563381 0
M  V30 58234 H 5529.01 -2.12718 -3.6377 0
M  V30 58235 H 5527.68 -1.08602 -3.04938 0
M  V30 58236 H 5526.59 -3.15628 -2.00823 0
M  V30 58237 H 5527.92 -4.14209 -2.6588 0
M  V30 58238 N 5529.57 0.633411 -1.44311 0
M  V30 58239 C 5530.8 1.41822 -1.50234 0
M  V30 58240 C 5531.21 1.88786 -0.125148 0
M  V30 58241 O 5530.55 1.61317 0.878779 0
M  V30 58242 C 5530.62 2.67364 -2.40327 0
M  V30 58243 C 5530.28 2.42211 -3.87535 0
M  V30 58244 C 5531.28 2.04182 -4.78127 0
M  V30 58245 C 5528.96 2.55921 -4.32215 0
M  V30 58246 C 5530.96 1.8019 -6.114 0
M  V30 58247 C 5528.64 2.31543 -5.65536 0
M  V30 58248 C 5529.64 1.93735 -6.54947 0
M  V30 58249 O 5529.33 1.69626 -7.858 0
M  V30 58250 H 5529.06 0.44146 -0.511946 0
M  V30 58251 H 5531.61 0.782051 -1.89929 0
M  V30 58252 H 5529.84 3.3361 -1.95555 0
M  V30 58253 H 5531.53 3.29361 -2.37226 0
M  V30 58254 H 5532.3 1.93149 -4.4488 0
M  V30 58255 H 5528.18 2.8432 -3.62882 0
M  V30 58256 H 5531.72 1.50604 -6.81149 0
M  V30 58257 H 5527.62 2.42185 -5.98345 0
M  V30 58258 H 5528.39 1.83891 -7.97575 0
M  V30 58259 N 5531.05 1.31171 0.873608 0
M  V30 58260 C 5532.28 1.23422 1.65682 0
M  V30 58261 C 5532.69 -0.203468 1.88103 0
M  V30 58262 O 5532.03 -1.14471 1.43674 0
M  V30 58263 C 5532.09 1.90428 3.04922 0
M  V30 58264 C 5531.76 3.39768 3.05625 0
M  V30 58265 C 5532.75 4.35575 2.8385 0
M  V30 58266 C 5530.44 3.81401 3.26862 0
M  V30 58267 C 5532.43 5.70989 2.83284 0
M  V30 58268 C 5530.12 5.1693 3.25925 0
M  V30 58269 C 5531.12 6.11534 3.04162 0
M  V30 58270 O 5530.81 7.44586 3.03063 0
M  V30 58271 H 5530.54 0.427818 0.5234 0
M  V30 58272 H 5533.09 1.73528 1.09896 0
M  V30 58273 H 5531.32 1.34867 3.6242 0
M  V30 58274 H 5533.01 1.76644 3.65447 0
M  V30 58275 H 5533.78 4.04739 2.67228 0
M  V30 58276 H 5529.66 3.08199 3.42833 0
M  V30 58277 H 5533.2 6.44806 2.66217 0
M  V30 58278 H 5529.1 5.47401 3.42085 0
M  V30 58279 H 5529.87 7.53714 3.1915 0
M  V30 58280 N 5532.53 -1.08744 1.14072 0
M  V30 58281 C 5533.94 -1.62547 0.918436 0
M  V30 58282 C 5534.29 -1.88521 -0.543517 0
M  V30 58283 O 5533.42 -1.64012 -1.41171 0
M  V30 58284 C 5534.01 -2.95304 1.66076 0
M  V30 58285 C 5532.57 -3.45905 1.48415 0
M  V30 58286 C 5531.72 -2.20198 1.68547 0
M  V30 58287 H 5534.67 -0.920151 1.29302 0
M  V30 58288 H 5534.69 -3.63583 1.12193 0
M  V30 58289 H 5534.2 -2.76367 2.72475 0
M  V30 58290 H 5532.3 -3.69951 0.443483 0
M  V30 58291 H 5532.41 -4.22882 2.25184 0
M  V30 58292 H 5530.78 -2.29199 1.11085 0
M  V30 58293 H 5531.56 -2.03773 2.76281 0
M  V30 58294 N 5534.01 -0.935308 -1.26845 0
M  V30 58295 C 5534.94 -0.457857 -2.28967 0
M  V30 58296 C 5535.92 0.485813 -1.63015 0
M  V30 58297 O 5537.1 0.388931 -1.90266 0
M  V30 58298 C 5534.23 0.28321 -3.46143 0
M  V30 58299 C 5533.19 -0.573345 -4.24142 0
M  V30 58300 C 5532.51 0.297337 -5.33873 0
M  V30 58301 C 5533.81 -1.8417 -4.88752 0
M  V30 58302 H 5535.51 -1.31135 -2.69154 0
M  V30 58303 H 5533.05 -0.632002 -1.2939 0
M  V30 58304 H 5535.01 0.628219 -4.16691 0
M  V30 58305 H 5533.73 1.17079 -3.04894 0
M  V30 58306 H 5532.39 -0.901168 -3.55351 0
M  V30 58307 H 5532.04 1.18409 -4.88864 0
M  V30 58308 H 5531.74 -0.272332 -5.86969 0
M  V30 58309 H 5533.26 0.637747 -6.0726 0
M  V30 58310 H 5534.67 -1.5643 -5.51546 0
M  V30 58311 H 5533.07 -2.35548 -5.5194 0
M  V30 58312 H 5534.14 -2.55664 -4.12024 0
M  V30 58313 N 5535.48 1.41118 -0.701666 0
M  V30 58314 C 5536.41 2.33436 -0.0546795 0
M  V30 58315 C 5537.4 1.52147 0.760608 0
M  V30 58316 O 5538.58 1.80663 0.71235 0
M  V30 58317 C 5535.71 3.36019 0.877999 0
M  V30 58318 C 5534.66 4.27665 0.16936 0
M  V30 58319 C 5533.99 5.20671 1.21681 0
M  V30 58320 C 5535.29 5.13251 -0.968039 0
M  V30 58321 H 5536.98 2.87788 -0.825738 0
M  V30 58322 H 5534.53 1.38375 -0.398533 0
M  V30 58323 H 5536.48 3.99531 1.3399 0
M  V30 58324 H 5535.21 2.8003 1.68079 0
M  V30 58325 H 5533.87 3.65585 -0.27257 0
M  V30 58326 H 5533.51 4.60994 2.01229 0
M  V30 58327 H 5533.21 5.82824 0.747631 0
M  V30 58328 H 5534.74 5.87059 1.6791 0
M  V30 58329 H 5536.15 5.70296 -0.586145 0
M  V30 58330 H 5534.55 5.84377 -1.3647 0
M  V30 58331 H 5535.62 4.50054 -1.80498 0
M  V30 58332 N 5536.96 0.446847 1.51133 0
M  V30 58333 C 5538.21 -0.116422 2.02165 0
M  V30 58334 C 5538.54 -1.41879 1.33044 0
M  V30 58335 O 5537.79 -1.90755 0.437138 0
M  V30 58336 C 5538.09 -0.37289 3.55449 0
M  V30 58337 C 5537.76 0.844815 4.42915 0
M  V30 58338 C 5536.42 1.17874 4.6654 0
M  V30 58339 C 5538.77 1.65671 4.94169 0
M  V30 58340 C 5536.1 2.32505 5.38663 0
M  V30 58341 C 5538.45 2.7941 5.6755 0
M  V30 58342 C 5537.12 3.13245 5.89435 0
M  V30 58343 H 5536.39 -0.0426019 0.739774 0
M  V30 58344 H 5539.03 0.595985 1.8199 0
M  V30 58345 H 5537.34 -1.16729 3.74007 0
M  V30 58346 H 5539.03 -0.822287 3.92479 0
M  V30 58347 H 5535.62 0.574628 4.2473 0
M  V30 58348 H 5539.81 1.41193 4.75792 0
M  V30 58349 H 5535.06 2.59022 5.53821 0
M  V30 58350 H 5539.24 3.42684 6.06252 0
M  V30 58351 H 5536.87 4.02181 6.45101 0
M  V30 58352 N 5538.44 -1.56585 0.178542 0
M  V30 58353 C 5539.69 -1.96274 -0.464676 0
M  V30 58354 C 5540 -1.06756 -1.63898 0
M  V30 58355 O 5541.21 -1.36156 -2.34891 0
M  V30 58356 C 5539.66 -3.49024 -0.878084 0
M  V30 58357 C 5539.27 -4.47179 0.271018 0
M  V30 58358 C 5541.02 -3.97517 -1.48932 0
M  V30 58359 C 5538.92 -5.91177 -0.162425 0
M  V30 58360 H 5537.85 -0.73284 -0.177373 0
M  V30 58361 H 5540.5 -1.81533 0.267925 0
M  V30 58362 H 5538.89 -3.59209 -1.66687 0
M  V30 58363 H 5540.06 -4.48715 1.04842 0
M  V30 58364 H 5538.38 -4.08786 0.792672 0
M  V30 58365 H 5540.97 -5.02563 -1.82578 0
M  V30 58366 H 5541.32 -3.40869 -2.38985 0
M  V30 58367 H 5541.85 -3.90378 -0.764823 0
M  V30 58368 H 5538.59 -6.51714 0.703515 0
M  V30 58369 H 5538.11 -5.92933 -0.905034 0
M  V30 58370 H 5539.79 -6.44176 -0.603857 0
M  V30 58371 N 5539.92 0.0951507 -1.57313 0
M  V30 58372 C 5541.15 0.812203 -1.90292 0
M  V30 58373 C 5541.56 1.72284 -0.772238 0
M  V30 58374 O 5540.92 1.80699 0.255778 0
M  V30 58375 C 5540.97 1.62561 -3.22887 0
M  V30 58376 O 5540.69 0.751598 -4.31605 0
M  V30 58377 C 5542.19 2.44572 -3.69729 0
M  V30 58378 H 5539.41 0.232233 -0.62953 0
M  V30 58379 H 5541.96 0.0724015 -2.04372 0
M  V30 58380 H 5540.11 2.31792 -3.10405 0
M  V30 58381 H 5540.52 1.31496 -5.07749 0
M  V30 58382 H 5542 2.97138 -4.65202 0
M  V30 58383 H 5542.48 3.23034 -2.97567 0
M  V30 58384 H 5543.08 1.80541 -3.85078 0
M  V30 58385 N 5541.4 1.53292 0.365972 0
M  V30 58386 C 5542.64 1.6912 1.10647 0
M  V30 58387 C 5542.97 0.445394 1.89845 0
M  V30 58388 O 5542.24 -0.54055 1.88295 0
M  V30 58389 H 5540.82 0.623461 0.411468 0
M  V30 58390 H 5543.48 1.90481 0.412682 0
M  V30 58391 H 5542.57 2.55211 1.79649 0
M  V30 58392 N 5542.88 -0.625749 1.44645 0
M  V30 58393 C 5543.82 -1.75864 1.52233 0
M  V30 58394 C 5544.82 -1.64764 0.393608 0
M  V30 58395 O 5546.02 -1.70777 0.568778 0
M  V30 58396 H 5542.4 -0.580696 0.477804 0
M  V30 58397 H 5544.37 -1.66588 2.4757 0
M  V30 58398 C 5543.12 -3.14211 1.48884 0
M  V30 58399 H 5542.44 -3.23403 2.35054 0
M  V30 58400 H 5543.88 -3.9336 1.58253 0
M  V30 58401 C 5542.34 -3.36242 0.210417 0
M  V30 58402 O 5542.87 -3.95246 -0.717196 0
M  V30 58403 N 5541.08 -2.90385 0.111846 0
M  V30 58404 H 5540.62 -2.42552 0.867551 0
M  V30 58405 H 5540.58 -3.055 -0.742763 0
M  V30 58406 N 5544.35 -1.31632 -0.86664 0
M  V30 58407 C 5545.58 -1.24479 -1.65265 0
M  V30 58408 C 5546 0.189324 -1.87848 0
M  V30 58409 O 5545.35 1.12246 -1.43899 0
M  V30 58410 C 5545.4 -1.98882 -3.01874 0
M  V30 58411 O 5545.13 -3.36697 -2.80298 0
M  V30 58412 C 5546.63 -1.98609 -3.9632 0
M  V30 58413 H 5543.85 -0.429984 -0.515126 0
M  V30 58414 H 5546.39 -1.73563 -1.08149 0
M  V30 58415 H 5544.55 -1.53552 -3.55669 0
M  V30 58416 H 5544.96 -3.74625 -3.67092 0
M  V30 58417 H 5546.43 -2.55173 -4.8948 0
M  V30 58418 H 5546.91 -0.969407 -4.28368 0
M  V30 58419 H 5547.52 -2.43834 -3.48461 0
M  V30 58420 N 5545.83 1.08138 -1.14647 0
M  V30 58421 C 5546.76 2.17136 -0.858744 0
M  V30 58422 C 5547.74 1.69065 0.187392 0
M  V30 58423 O 5548.93 1.94151 0.0434776 0
M  V30 58424 C 5546.06 3.45647 -0.338462 0
M  V30 58425 C 5545.01 4.07125 -1.32036 0
M  V30 58426 C 5544.34 5.3062 -0.659261 0
M  V30 58427 C 5545.64 4.48086 -2.68359 0
M  V30 58428 H 5547.33 2.41462 -1.77021 0
M  V30 58429 H 5544.88 1.16049 -0.852563 0
M  V30 58430 H 5546.83 4.21215 -0.124759 0
M  V30 58431 H 5545.55 3.20882 0.60844 0
M  V30 58432 H 5544.21 3.33591 -1.52028 0
M  V30 58433 H 5543.86 5.02143 0.293534 0
M  V30 58434 H 5543.56 5.72709 -1.31447 0
M  V30 58435 H 5545.09 6.08901 -0.455147 0
M  V30 58436 H 5546.5 5.14819 -2.52258 0
M  V30 58437 H 5544.9 5.01101 -3.30178 0
M  V30 58438 H 5545.97 3.5984 -3.25027 0
M  V30 58439 N 5547.31 0.942022 1.26348 0
M  V30 58440 C 5548.24 0.409584 2.25511 0
M  V30 58441 C 5549.25 -0.46761 1.5594 0
M  V30 58442 O 5550.44 -0.27792 1.76323 0
M  V30 58443 C 5547.54 -0.430368 3.36156 0
M  V30 58444 C 5546.72 0.430867 4.35273 0
M  V30 58445 C 5545.78 -0.348791 5.25043 0
M  V30 58446 O 5544.8 0.24847 5.68657 0
M  V30 58447 N 5546 -1.64511 5.56701 0
M  V30 58448 H 5548.77 1.26206 2.71831 0
M  V30 58449 H 5546.33 0.810996 1.40123 0
M  V30 58450 H 5548.32 -0.959363 3.93164 0
M  V30 58451 H 5546.89 -1.18365 2.89324 0
M  V30 58452 H 5546.11 1.14107 3.77324 0
M  V30 58453 H 5547.4 1.01914 4.98489 0
M  V30 58454 H 5546.8 -2.15247 5.23149 0
M  V30 58455 H 5545.35 -2.12033 6.16348 0
M  V30 58456 N 5548.79 -1.40744 0.70914 0
M  V30 58457 C 5550.03 -2.02863 0.250216 0
M  V30 58458 C 5550.39 -1.54997 -1.13314 0
M  V30 58459 O 5551.59 -2.09134 -1.68868 0
M  V30 58460 C 5549.86 -3.55962 0.320239 0
M  V30 58461 S 5551.42 -4.38755 -0.0626465 0
M  V30 58462 H 5548.24 -0.703972 0.099724 0
M  V30 58463 H 5550.84 -1.71967 0.92993 0
M  V30 58464 H 5549.55 -3.88293 1.3288 0
M  V30 58465 H 5549.08 -3.91578 -0.37817 0
M  V30 58466 H 5551.09 -4.79231 -1.28655 0
M  V30 58467 N 5550.27 -0.454856 -1.50893 0
M  V30 58468 C 5551.51 0.107296 -2.01414 0
M  V30 58469 C 5551.83 1.42239 -1.34267 0
M  V30 58470 O 5553.03 2.06852 -1.75853 0
M  V30 58471 C 5551.49 0.241746 -3.59087 0
M  V30 58472 C 5551.1 -1.06395 -4.35183 0
M  V30 58473 C 5552.84 0.756727 -4.17701 0
M  V30 58474 C 5550.75 -0.894179 -5.84601 0
M  V30 58475 H 5549.68 0.0438738 -0.752722 0
M  V30 58476 H 5552.33 -0.587286 -1.73848 0
M  V30 58477 H 5550.71 0.999738 -3.83173 0
M  V30 58478 H 5551.89 -1.83163 -4.22833 0
M  V30 58479 H 5550.2 -1.50879 -3.88104 0
M  V30 58480 H 5552.8 0.900512 -5.27062 0
M  V30 58481 H 5553.14 1.74383 -3.78016 0
M  V30 58482 H 5553.67 0.056569 -3.9776 0
M  V30 58483 H 5550.41 -1.85418 -6.28729 0
M  V30 58484 H 5549.93 -0.166597 -5.99569 0
M  V30 58485 H 5551.61 -0.55431 -6.44621 0
M  V30 58486 N 5551.74 1.56489 -0.186844 0
M  V30 58487 C 5552.68 2.14586 0.776412 0
M  V30 58488 C 5553.65 1.08024 1.2153 0
M  V30 58489 O 5554.84 1.3609 1.3043 0
M  V30 58490 C 5551.97 2.69805 2.04751 0
M  V30 58491 C 5551.01 3.8888 1.75141 0
M  V30 58492 S 5551.84 5.27766 0.90684 0
M  V30 58493 C 5553 5.86401 2.18827 0
M  V30 58494 H 5553.23 2.95955 0.282498 0
M  V30 58495 H 5550.77 1.54375 0.0280446 0
M  V30 58496 H 5552.72 3.02264 2.77753 0
M  V30 58497 H 5551.39 1.88493 2.51255 0
M  V30 58498 H 5550.58 4.25898 2.69494 0
M  V30 58499 H 5550.18 3.57388 1.10226 0
M  V30 58500 H 5552.47 6.0026 3.14155 0
M  V30 58501 H 5553.42 6.83166 1.86254 0
M  V30 58502 H 5553.82 5.14939 2.31296 0
M  V30 58503 N 5553.22 -0.0868067 1.57361 0
M  V30 58504 C 5554.15 -1.10531 2.05682 0
M  V30 58505 C 5555.13 -1.41278 0.947342 0
M  V30 58506 O 5556.32 -1.51165 1.21913 0
M  V30 58507 C 5553.45 -2.42293 2.4882 0
M  V30 58508 C 5552.4 -2.25935 3.63507 0
M  V30 58509 C 5551.73 -3.62947 3.92649 0
M  V30 58510 C 5553.03 -1.69301 4.941 0
M  V30 58511 H 5554.72 -0.703269 2.91023 0
M  V30 58512 H 5552.27 -0.336846 1.40005 0
M  V30 58513 H 5554.22 -3.13823 2.81235 0
M  V30 58514 H 5552.94 -2.84448 1.60489 0
M  V30 58515 H 5551.6 -1.56848 3.31352 0
M  V30 58516 H 5551.25 -4.02645 3.01473 0
M  V30 58517 H 5550.95 -3.52845 4.69866 0
M  V30 58518 H 5552.48 -4.35931 4.27547 0
M  V30 58519 H 5553.89 -2.30681 5.24842 0
M  V30 58520 H 5552.29 -1.69936 5.75536 0
M  V30 58521 H 5553.36 -0.653149 4.80481 0
M  V30 58522 N 5554.7 -1.53484 -0.357838 0
M  V30 58523 C 5555.95 -1.70293 -1.10128 0
M  V30 58524 C 5556.28 -0.457362 -1.88737 0
M  V30 58525 O 5555.55 0.545462 -1.86695 0
M  V30 58526 C 5555.84 -2.95762 -2.05419 0
M  V30 58527 C 5555.69 -4.30493 -1.30367 0
M  V30 58528 C 5557.01 -3.16854 -3.05436 0
M  V30 58529 H 5554.13 -0.619664 -0.398981 0
M  V30 58530 H 5556.77 -1.86135 -0.381292 0
M  V30 58531 H 5554.92 -2.82387 -2.66815 0
M  V30 58532 H 5556.59 -4.55695 -0.71695 0
M  V30 58533 H 5554.83 -4.29553 -0.605561 0
M  V30 58534 H 5555.51 -5.14434 -2.00153 0
M  V30 58535 H 5557.98 -3.29466 -2.54148 0
M  V30 58536 H 5556.86 -4.06066 -3.69326 0
M  V30 58537 H 5557.12 -2.3249 -3.76033 0
M  V30 58538 N 5556.18 0.618069 -1.44975 0
M  V30 58539 C 5557.41 1.4022 -1.5173 0
M  V30 58540 C 5557.82 1.88642 -0.145164 0
M  V30 58541 O 5557.16 1.6224 0.86162 0
M  V30 58542 C 5557.22 2.64799 -2.43149 0
M  V30 58543 C 5556.88 2.38087 -3.90082 0
M  V30 58544 C 5557.88 1.991 -4.80266 0
M  V30 58545 C 5555.57 2.51323 -4.34905 0
M  V30 58546 C 5557.56 1.73695 -6.13277 0
M  V30 58547 C 5555.25 2.25532 -5.6796 0
M  V30 58548 C 5556.25 1.86778 -6.56965 0
M  V30 58549 O 5555.93 1.61282 -7.87555 0
M  V30 58550 H 5555.67 0.436006 -0.516599 0
M  V30 58551 H 5558.22 0.761862 -1.90748 0
M  V30 58552 H 5556.45 3.31517 -1.99082 0
M  V30 58553 H 5558.14 3.26827 -2.40706 0
M  V30 58554 H 5558.9 1.88419 -4.46904 0
M  V30 58555 H 5554.78 2.80455 -3.65877 0
M  V30 58556 H 5558.33 1.43371 -6.82708 0
M  V30 58557 H 5554.22 2.35826 -6.0088 0
M  V30 58558 H 5554.99 1.75421 -7.99481 0
M  V30 58559 N 5557.66 1.3209 0.859647 0
M  V30 58560 C 5558.9 1.23677 1.62737 0
M  V30 58561 C 5559.26 -0.199593 1.9096 0
M  V30 58562 O 5560.46 -0.407384 2.65695 0
M  V30 58563 C 5558.73 2.06747 2.91531 0
M  V30 58564 S 5560.29 2.15305 3.82347 0
M  V30 58565 H 5557.11 0.440326 0.558242 0
M  V30 58566 H 5559.71 1.66879 1.01842 0
M  V30 58567 H 5558.42 3.10175 2.68737 0
M  V30 58568 H 5557.95 1.64303 3.57446 0
M  V30 58569 H 5559.96 1.29891 4.78897 0
M  V30 58570 N 5559.13 -1.07528 1.15219 0
M  V30 58571 C 5560.38 -1.8009 0.925954 0
M  V30 58572 C 5560.71 -1.86649 -0.547013 0
M  V30 58573 O 5559.96 -1.34497 -1.42159 0
M  V30 58574 C 5560.26 -3.25175 1.48311 0
M  V30 58575 C 5559.93 -3.38718 2.97626 0
M  V30 58576 C 5558.59 -3.42121 3.38388 0
M  V30 58577 C 5560.94 -3.41662 3.93595 0
M  V30 58578 C 5558.27 -3.4607 4.73764 0
M  V30 58579 C 5560.62 -3.47147 5.2884 0
M  V30 58580 C 5559.29 -3.48827 5.69101 0
M  V30 58581 H 5558.56 -0.658995 0.338831 0
M  V30 58582 H 5561.2 -1.26543 1.43733 0
M  V30 58583 H 5559.51 -3.8149 0.892885 0
M  V30 58584 H 5561.21 -3.79891 1.2839 0
M  V30 58585 H 5557.8 -3.36766 2.65116 0
M  V30 58586 H 5561.98 -3.38255 3.63177 0
M  V30 58587 H 5557.24 -3.45668 5.04305 0
M  V30 58588 H 5561.41 -3.48371 6.03001 0
M  V30 58589 H 5559.04 -3.5164 6.73983 0
M  V30 58590 N 5560.61 -0.948709 -1.25846 0
M  V30 58591 C 5561.54 -0.482116 -2.28469 0
M  V30 58592 C 5562.52 0.468496 -1.63521 0
M  V30 58593 O 5563.71 0.368729 -1.90667 0
M  V30 58594 C 5560.84 0.246481 -3.46424 0
M  V30 58595 C 5559.79 -0.618299 -4.2351 0
M  V30 58596 C 5559.12 0.240696 -5.34158 0
M  V30 58597 C 5560.42 -1.89344 -4.86771 0
M  V30 58598 H 5562.11 -1.33982 -2.67748 0
M  V30 58599 H 5559.66 -0.64569 -1.28712 0
M  V30 58600 H 5561.61 0.583988 -4.17334 0
M  V30 58601 H 5560.34 1.13838 -3.06118 0
M  V30 58602 H 5558.99 -0.938807 -3.54375 0
M  V30 58603 H 5558.64 1.13218 -4.90093 0
M  V30 58604 H 5558.34 -0.334573 -5.86647 0
M  V30 58605 H 5559.87 0.573303 -6.07903 0
M  V30 58606 H 5561.28 -1.62271 -5.49855 0
M  V30 58607 H 5559.68 -2.41388 -5.4941 0
M  V30 58608 H 5560.75 -2.6002 -4.09289 0
M  V30 58609 N 5562.09 1.40366 -0.716594 0
M  V30 58610 C 5563.34 2.00472 -0.25603 0
M  V30 58611 C 5563.66 1.57108 1.15508 0
M  V30 58612 O 5562.93 0.810987 1.78325 0
M  V30 58613 H 5561.51 0.741354 -0.0916688 0
M  V30 58614 H 5564.17 1.71688 -0.922449 0
M  V30 58615 H 5563.27 3.10751 -0.289916 0
M  V30 58616 N 5563.57 0.462852 1.5065 0
M  V30 58617 C 5564.8 -0.0927687 2.06392 0
M  V30 58618 C 5565.21 -1.34787 1.32775 0
M  V30 58619 O 5564.55 -1.79553 0.388111 0
M  V30 58620 C 5564.61 -0.455045 3.56608 0
M  V30 58621 C 5564.28 0.696857 4.51656 0
M  V30 58622 C 5565.27 1.5765 4.95421 0
M  V30 58623 C 5562.96 0.884843 4.94445 0
M  V30 58624 C 5564.95 2.62861 5.80674 0
M  V30 58625 C 5562.64 1.94019 5.79482 0
M  V30 58626 C 5563.64 2.81044 6.22498 0
M  V30 58627 O 5563.32 3.84763 7.05842 0
M  V30 58628 H 5563.06 5.56545e-05 0.676 0
M  V30 58629 H 5565.61 0.64823 1.94903 0
M  V30 58630 H 5563.84 -1.24911 3.6597 0
M  V30 58631 H 5565.53 -0.944785 3.94751 0
M  V30 58632 H 5566.3 1.44292 4.63039 0
M  V30 58633 H 5562.17 0.216969 4.60489 0
M  V30 58634 H 5565.72 3.30819 6.1417 0
M  V30 58635 H 5561.62 2.07387 6.11278 0
M  V30 58636 H 5562.38 3.81651 7.24075 0
M  V30 58637 N 5565.05 -1.56387 0.19514 0
M  V30 58638 C 5566.29 -1.9948 -0.445785 0
M  V30 58639 C 5566.65 -1.07925 -1.58796 0
M  V30 58640 O 5567.85 -1.40254 -2.29308 0
M  V30 58641 C 5566.12 -3.46035 -0.894127 0
M  V30 58642 S 5567.68 -4.11155 -1.53288 0
M  V30 58643 H 5564.5 -0.696563 -0.142551 0
M  V30 58644 H 5567.1 -1.93212 0.298217 0
M  V30 58645 H 5565.81 -4.10366 -0.0527815 0
M  V30 58646 H 5565.34 -3.5612 -1.67159 0
M  V30 58647 H 5567.35 -4.08165 -2.82163 0
M  V30 58648 N 5566.52 0.0784603 -1.57405 0
M  V30 58649 C 5567.76 0.784293 -1.88754 0
M  V30 58650 C 5568.13 1.75078 -0.788141 0
M  V30 58651 O 5569.33 2.50121 -0.984519 0
M  V30 58652 C 5567.6 1.47951 -3.25339 0
M  V30 58653 S 5569.16 2.22133 -3.78421 0
M  V30 58654 H 5565.98 0.260952 -0.661381 0
M  V30 58655 H 5568.58 0.0406709 -1.95458 0
M  V30 58656 H 5567.28 0.762197 -4.0326 0
M  V30 58657 H 5566.81 2.2627 -3.21816 0
M  V30 58658 H 5568.83 3.48545 -3.53172 0
M  V30 58659 N 5568 1.53671 0.349693 0
M  V30 58660 C 5569.24 1.72332 1.09913 0
M  V30 58661 C 5569.61 0.473244 1.86076 0
M  V30 58662 O 5570.81 0.536783 2.63386 0
M  V30 58663 C 5569.08 2.94824 2.02024 0
M  V30 58664 S 5570.64 3.34267 2.84273 0
M  V30 58665 H 5567.46 0.606238 0.371478 0
M  V30 58666 H 5570.06 1.91804 0.378332 0
M  V30 58667 H 5568.76 3.83984 1.44861 0
M  V30 58668 H 5568.29 2.778 2.78551 0
M  V30 58669 H 5570.31 2.87521 4.04409 0
M  V30 58670 N 5569.48 -0.610372 1.453 0
M  V30 58671 C 5570.72 -1.3808 1.5071 0
M  V30 58672 C 5571.08 -1.91459 0.144064 0
M  V30 58673 O 5572.29 -2.68701 0.0728465 0
M  V30 58674 C 5570.56 -2.5 2.55411 0
M  V30 58675 S 5572.12 -3.37834 2.80024 0
M  V30 58676 H 5568.93 -0.470793 0.532799 0
M  V30 58677 H 5571.54 -0.704574 1.82362 0
M  V30 58678 H 5570.24 -2.0913 3.53119 0
M  V30 58679 H 5569.77 -3.22426 2.254 0
M  V30 58680 H 5571.79 -4.48067 2.13192 0
M  V30 58681 N 5570.96 -1.32544 -0.85263 0
M  V30 58682 C 5572.19 -1.26042 -1.63698 0
M  V30 58683 C 5572.6 0.173517 -1.88403 0
M  V30 58684 O 5571.94 1.1217 -1.45477 0
M  V30 58685 C 5572 -1.95255 -3.01854 0
M  V30 58686 C 5571.67 -3.44587 -3.00181 0
M  V30 58687 C 5572.66 -4.40036 -2.76884 0
M  V30 58688 C 5570.35 -3.86553 -3.20753 0
M  V30 58689 C 5572.34 -5.75424 -2.74164 0
M  V30 58690 C 5570.03 -5.22049 -3.1766 0
M  V30 58691 C 5571.03 -6.16296 -2.94395 0
M  V30 58692 O 5570.71 -7.49313 -2.91179 0
M  V30 58693 H 5570.45 -0.436091 -0.516528 0
M  V30 58694 H 5573 -1.75255 -1.07121 0
M  V30 58695 H 5571.23 -1.40615 -3.60228 0
M  V30 58696 H 5572.92 -1.82436 -3.62591 0
M  V30 58697 H 5573.69 -4.0894 -2.60756 0
M  V30 58698 H 5569.56 -3.13614 -3.37886 0
M  V30 58699 H 5573.11 -6.48959 -2.55925 0
M  V30 58700 H 5569.01 -5.52774 -3.33333 0
M  V30 58701 H 5569.77 -7.58696 -3.07119 0
M  V30 58702 N 5572.44 1.06915 -1.15788 0
M  V30 58703 C 5573.68 1.79596 -0.935492 0
M  V30 58704 C 5574.01 1.86937 0.537107 0
M  V30 58705 O 5573.27 1.35249 1.41444 0
M  V30 58706 C 5573.57 3.24383 -1.50034 0
M  V30 58707 C 5573.23 3.37134 -2.99418 0
M  V30 58708 C 5571.89 3.40322 -3.40198 0
M  V30 58709 C 5574.25 3.3957 -3.95401 0
M  V30 58710 C 5571.57 3.43552 -4.75593 0
M  V30 58711 C 5573.93 3.44338 -5.30674 0
M  V30 58712 C 5572.59 3.45804 -5.70943 0
M  V30 58713 H 5571.86 0.657189 -0.342321 0
M  V30 58714 H 5574.51 1.25779 -1.44402 0
M  V30 58715 H 5572.81 3.81011 -0.913104 0
M  V30 58716 H 5574.51 3.79205 -1.30403 0
M  V30 58717 H 5571.1 3.35355 -2.66899 0
M  V30 58718 H 5575.28 3.36324 -3.64966 0
M  V30 58719 H 5570.54 3.42989 -5.06131 0
M  V30 58720 H 5574.71 3.45169 -6.0484 0
M  V30 58721 H 5572.34 3.48061 -6.75839 0
M  V30 58722 N 5573.92 0.95537 1.25341 0
M  V30 58723 C 5575.16 0.609346 1.92695 0
M  V30 58724 C 5575.48 -0.856473 1.75184 0
M  V30 58725 O 5574.75 -1.61009 1.11593 0
M  V30 58726 H 5573.33 0.222375 0.713133 0
M  V30 58727 H 5576 1.21377 1.52491 0
M  V30 58728 H 5575.09 0.839304 3.00603 0
M  V30 58729 N 5575.39 -1.39984 0.724028 0
M  V30 58730 C 5576.32 -2.33319 0.0918102 0
M  V30 58731 C 5577.3 -1.53338 -0.736307 0
M  V30 58732 O 5578.49 -1.81774 -0.683518 0
M  V30 58733 C 5575.62 -3.37373 -0.82443 0
M  V30 58734 C 5574.57 -4.2788 -0.101301 0
M  V30 58735 C 5573.9 -5.2254 -1.13382 0
M  V30 58736 C 5575.2 -5.11646 1.04957 0
M  V30 58737 H 5576.89 -2.86438 0.871418 0
M  V30 58738 H 5574.44 -1.37724 0.420496 0
M  V30 58739 H 5576.39 -4.01612 -1.27617 0
M  V30 58740 H 5575.12 -2.82669 -1.63603 0
M  V30 58741 H 5573.78 -3.65105 0.330697 0
M  V30 58742 H 5573.42 -4.64137 -1.9387 0
M  V30 58743 H 5573.12 -5.8394 -0.654814 0
M  V30 58744 H 5574.65 -5.89656 -1.58549 0
M  V30 58745 H 5576.06 -5.69291 0.6768 0
M  V30 58746 H 5574.46 -5.82131 1.4575 0
M  V30 58747 H 5575.53 -4.47125 1.87635 0
M  V30 58748 N 5576.87 -0.470835 -1.50402 0
M  V30 58749 C 5578.12 0.0842448 -2.02325 0
M  V30 58750 C 5578.45 1.39744 -1.35284 0
M  V30 58751 O 5577.7 1.90036 -0.46743 0
M  V30 58752 C 5578 0.316294 -3.55998 0
M  V30 58753 C 5577.67 -0.915172 -4.41515 0
M  V30 58754 C 5576.33 -1.25281 -4.64605 0
M  V30 58755 C 5578.68 -1.73512 -4.9147 0
M  V30 58756 C 5576.01 -2.41045 -5.34896 0
M  V30 58757 C 5578.36 -2.88404 -5.63033 0
M  V30 58758 C 5577.02 -3.22582 -5.84377 0
M  V30 58759 H 5576.29 0.0308274 -0.740358 0
M  V30 58760 H 5578.94 -0.624863 -1.81019 0
M  V30 58761 H 5577.25 1.10764 -3.75817 0
M  V30 58762 H 5578.94 0.759743 -3.93737 0
M  V30 58763 H 5575.53 -0.642126 -4.23763 0
M  V30 58764 H 5579.72 -1.48745 -4.73486 0
M  V30 58765 H 5574.97 -2.678 -5.4963 0
M  V30 58766 H 5579.15 -3.52285 -6.00723 0
M  V30 58767 H 5576.77 -4.12393 -6.38621 0
M  V30 58768 N 5578.35 1.56282 -0.203431 0
M  V30 58769 C 5579.59 1.99713 0.4352 0
M  V30 58770 C 5579.95 1.08766 1.58221 0
M  V30 58771 O 5581.15 1.41468 2.28561 0
M  V30 58772 C 5579.43 3.46504 0.875763 0
M  V30 58773 S 5580.98 4.11962 1.51106 0
M  V30 58774 H 5577.8 0.697309 0.138855 0
M  V30 58775 H 5580.4 1.93051 -0.30846 0
M  V30 58776 H 5579.11 4.10388 0.031018 0
M  V30 58777 H 5578.64 3.57001 1.65268 0
M  V30 58778 H 5580.65 4.09655 2.79995 0
M  V30 58779 N 5579.83 -0.0701116 1.57444 0
M  V30 58780 C 5580.76 -1.08343 2.06843 0
M  V30 58781 C 5581.74 -1.40265 0.962273 0
M  V30 58782 O 5582.92 -1.49863 1.2351 0
M  V30 58783 C 5580.05 -2.3964 2.51376 0
M  V30 58784 C 5579.01 -2.22067 3.65883 0
M  V30 58785 C 5578.33 -3.58762 3.96477 0
M  V30 58786 C 5579.63 -1.64051 4.95867 0
M  V30 58787 H 5581.33 -0.672363 2.91753 0
M  V30 58788 H 5578.87 -0.321977 1.40354 0
M  V30 58789 H 5580.83 -3.10823 2.84548 0
M  V30 58790 H 5579.55 -2.8273 1.63497 0
M  V30 58791 H 5578.21 -1.53325 3.32997 0
M  V30 58792 H 5577.86 -3.99425 3.05726 0
M  V30 58793 H 5577.56 -3.47842 4.73582 0
M  V30 58794 H 5579.08 -4.31372 4.32146 0
M  V30 58795 H 5580.5 -2.25101 5.27259 0
M  V30 58796 H 5578.89 -1.63822 5.77306 0
M  V30 58797 H 5579.96 -0.602151 4.81147 0
M  V30 58798 N 5581.31 -1.53855 -0.341539 0
M  V30 58799 C 5582.24 -1.84971 -1.42506 0
M  V30 58800 C 5583.22 -0.704999 -1.54802 0
M  V30 58801 O 5584.4 -0.957096 -1.68977 0
M  V30 58802 C 5581.53 -2.06109 -2.79529 0
M  V30 58803 C 5580.49 -3.21929 -2.82038 0
M  V30 58804 C 5579.81 -3.28404 -4.21966 0
M  V30 58805 C 5581.11 -4.59993 -2.47394 0
M  V30 58806 H 5582.81 -2.75714 -1.16715 0
M  V30 58807 H 5580.35 -1.32664 -0.560027 0
M  V30 58808 H 5582.3 -2.2646 -3.55378 0
M  V30 58809 H 5581.03 -1.12098 -3.0676 0
M  V30 58810 H 5579.69 -3.01436 -2.08642 0
M  V30 58811 H 5579.34 -2.31985 -4.46309 0
M  V30 58812 H 5579.04 -4.06235 -4.24555 0
M  V30 58813 H 5580.56 -3.50968 -4.99653 0
M  V30 58814 H 5581.97 -4.80345 -3.12956 0
M  V30 58815 H 5580.37 -5.40242 -2.61263 0
M  V30 58816 H 5581.44 -4.63465 -1.42577 0
M  V30 58817 N 5582.78 0.602658 -1.45622 0
M  V30 58818 C 5583.73 1.73419 -1.55011 0
M  V30 58819 C 5584.73 1.64117 -0.419771 0
M  V30 58820 O 5585.93 1.69851 -0.595875 0
M  V30 58821 H 5582.31 0.573021 -0.486982 0
M  V30 58822 H 5584.28 1.62628 -2.50189 0
M  V30 58823 C 5583.03 3.11803 -1.53864 0
M  V30 58824 H 5582.35 3.19623 -2.4017 0
M  V30 58825 H 5583.79 3.90792 -1.64491 0
M  V30 58826 C 5582.25 3.35865 -0.263883 0
M  V30 58827 O 5582.78 3.96337 0.654225 0
M  V30 58828 N 5580.98 2.9017 -0.158029 0
M  V30 58829 H 5580.53 2.41141 -0.906029 0
M  V30 58830 H 5580.49 3.06643 0.694067 0
M  V30 58831 N 5584.26 1.32995 0.845589 0
M  V30 58832 C 5585.68 1.12183 1.13522 0
M  V30 58833 C 5585.88 -0.0917242 2.01291 0
M  V30 58834 O 5584.93 -0.773967 2.40346 0
M  V30 58835 C 5586.25 2.4059 1.8038 0
M  V30 58836 C 5587.79 2.46434 1.92975 0
M  V30 58837 C 5588.27 3.74786 2.63248 0
M  V30 58838 N 5589.76 3.75819 2.70766 0
M  V30 58839 C 5590.5 4.7184 3.25813 0
M  V30 58840 N 5589.99 5.78233 3.816 0
M  V30 58841 N 5591.78 4.59325 3.24002 0
M  V30 58842 H 5583.94 2.10787 0.261295 0
M  V30 58843 H 5586.2 0.931059 0.178417 0
M  V30 58844 H 5585.9 3.29361 1.23346 0
M  V30 58845 H 5585.78 2.52235 2.80459 0
M  V30 58846 H 5588.17 1.58117 2.49165 0
M  V30 58847 H 5588.25 2.38735 0.918648 0
M  V30 58848 H 5587.89 4.63481 2.07719 0
M  V30 58849 H 5587.82 3.79759 3.64816 0
M  V30 58850 H 5590.31 2.98924 2.31199 0
M  V30 58851 H 5590.62 6.47546 4.21787 0
M  V30 58852 H 5588.97 5.81976 3.79907 0
M  V30 58853 H 5592.16 3.75368 2.79672 0
M  V30 58854 H 5592.33 5.34329 3.66601 0
M  V30 58855 N 5585.74 -1.063 1.16353 0
M  V30 58856 C 5586.97 -1.82531 0.967789 0
M  V30 58857 C 5587.38 -1.82818 -0.487274 0
M  V30 58858 O 5586.72 -1.24586 -1.34996 0
M  V30 58859 C 5586.78 -3.30344 1.41822 0
M  V30 58860 C 5586.45 -3.53759 2.89316 0
M  V30 58861 C 5587.44 -3.46813 3.8732 0
M  V30 58862 C 5585.13 -3.81082 3.27233 0
M  V30 58863 C 5587.12 -3.66856 5.21244 0
M  V30 58864 C 5584.81 -4.00775 4.61327 0
M  V30 58865 C 5585.81 -3.93659 5.58141 0
M  V30 58866 O 5585.5 -4.12815 6.89811 0
M  V30 58867 H 5585.23 -0.582395 0.343209 0
M  V30 58868 H 5587.78 -1.35017 1.54789 0
M  V30 58869 H 5586.01 -3.78719 0.78159 0
M  V30 58870 H 5587.7 -3.88067 1.1899 0
M  V30 58871 H 5588.47 -3.25694 3.59372 0
M  V30 58872 H 5584.35 -3.85731 2.52454 0
M  V30 58873 H 5587.89 -3.61217 5.96798 0
M  V30 58874 H 5583.79 -4.21383 4.88985 0
M  V30 58875 H 5584.55 -4.30103 6.96386 0
M  V30 58876 N 5587.22 -0.962004 -1.24833 0
M  V30 58877 C 5588.47 -0.620783 -1.9275 0
M  V30 58878 C 5588.79 0.843246 -1.7527 0
M  V30 58879 O 5588.05 1.62137 -1.0959 0
M  V30 58880 C 5588.35 -0.934602 -3.44964 0
M  V30 58881 C 5588.01 -2.38585 -3.82607 0
M  V30 58882 C 5586.68 -2.78252 -3.92593 0
M  V30 58883 C 5589.03 -3.32798 -4.01117 0
M  V30 58884 C 5586.36 -4.11184 -4.18503 0
M  V30 58885 C 5588.71 -4.65351 -4.28522 0
M  V30 58886 C 5587.37 -5.04803 -4.36727 0
M  V30 58887 H 5586.64 -0.22716 -0.705322 0
M  V30 58888 H 5589.29 -1.21242 -1.48231 0
M  V30 58889 H 5587.59 -0.260653 -3.90932 0
M  V30 58890 H 5589.29 -0.649063 -3.95712 0
M  V30 58891 H 5585.88 -2.06826 -3.75395 0
M  V30 58892 H 5590.06 -3.03339 -3.9281 0
M  V30 58893 H 5585.32 -4.41383 -4.23073 0
M  V30 58894 H 5589.49 -5.38326 -4.4179 0
M  V30 58895 H 5587.12 -6.07832 -4.56557 0
M  V30 58896 N 5588.7 1.39598 -0.731441 0
M  V30 58897 C 5590.11 1.54333 -0.406648 0
M  V30 58898 C 5590.31 1.69929 1.08289 0
M  V30 58899 O 5589.37 1.69778 1.869 0
M  V30 58900 C 5590.68 2.76299 -1.18656 0
M  V30 58901 C 5592.23 2.90131 -1.17443 0
M  V30 58902 C 5592.7 4.15031 -1.93684 0
M  V30 58903 N 5594.2 4.22063 -1.90832 0
M  V30 58904 C 5594.93 5.17648 -2.46634 0
M  V30 58905 N 5594.43 6.19043 -3.11059 0
M  V30 58906 N 5596.22 5.09839 -2.36687 0
M  V30 58907 H 5588.37 1.27722 -1.69708 0
M  V30 58908 H 5590.63 0.618775 -0.718207 0
M  V30 58909 H 5590.34 2.71106 -2.24042 0
M  V30 58910 H 5590.21 3.68863 -0.788644 0
M  V30 58911 H 5592.6 2.94819 -0.128719 0
M  V30 58912 H 5592.68 1.9864 -1.6117 0
M  V30 58913 H 5592.33 4.11104 -2.98254 0
M  V30 58914 H 5592.26 5.0556 -1.47366 0
M  V30 58915 H 5594.75 3.49432 -1.43894 0
M  V30 58916 H 5595.06 6.88432 -3.51115 0
M  V30 58917 H 5593.4 6.19441 -3.15148 0
M  V30 58918 H 5596.6 4.29559 -1.86002 0
M  V30 58919 H 5596.77 5.84155 -2.80475 0
M  V30 58920 N 5590.17 0.478804 1.50151 0
M  V30 58921 C 5591.1 -0.301101 2.3155 0
M  V30 58922 C 5592.09 -0.983227 1.38804 0
M  V30 58923 O 5593.27 -0.978915 1.67723 0
M  V30 58924 C 5590.4 -1.37899 3.18749 0
M  V30 58925 C 5589.35 -0.818028 4.2011 0
M  V30 58926 C 5588.68 -1.99478 4.96097 0
M  V30 58927 C 5589.98 0.175924 5.22004 0
M  V30 58928 H 5591.67 0.378293 2.97001 0
M  V30 58929 H 5589.22 0.183373 1.42828 0
M  V30 58930 H 5591.17 -1.93214 3.74495 0
M  V30 58931 H 5589.9 -2.08726 2.51199 0
M  V30 58932 H 5588.56 -0.286795 3.65476 0
M  V30 58933 H 5588.2 -2.69021 4.25013 0
M  V30 58934 H 5587.9 -1.62562 5.64666 0
M  V30 58935 H 5589.43 -2.55269 5.5468 0
M  V30 58936 H 5590.84 -0.288312 5.72575 0
M  V30 58937 H 5589.24 0.459759 5.98336 0
M  V30 58938 H 5590.31 1.09927 4.72275 0
M  V30 58939 N 5591.65 -1.56171 0.211716 0
M  V30 58940 C 5592.88 -2.0243 -0.427771 0
M  V30 58941 C 5593.3 -1.09167 -1.54039 0
M  V30 58942 O 5592.65 -0.0994889 -1.82229 0
M  V30 58943 C 5592.7 -3.48282 -0.968605 0
M  V30 58944 O 5592.42 -4.37987 0.0996381 0
M  V30 58945 C 5593.93 -4.10138 -1.68232 0
M  V30 58946 H 5591.15 -0.662615 -0.105746 0
M  V30 58947 H 5593.69 -2.01896 0.325291 0
M  V30 58948 H 5591.84 -3.49462 -1.67198 0
M  V30 58949 H 5592.26 -5.2361 -0.305374 0
M  V30 58950 H 5593.73 -5.13992 -2.01286 0
M  V30 58951 H 5594.21 -3.54561 -2.59197 0
M  V30 58952 H 5594.82 -4.12779 -1.02439 0
M  V30 58953 N 5593.13 0.061761 -1.57479 0
M  V30 58954 C 5594.06 1.07245 -2.07415 0
M  V30 58955 C 5595.04 1.39753 -0.969699 0
M  V30 58956 O 5596.23 1.49206 -1.24303 0
M  V30 58957 C 5593.36 2.38304 -2.52643 0
M  V30 58958 C 5592.31 2.20123 -3.67056 0
M  V30 58959 C 5591.64 3.56654 -3.98374 0
M  V30 58960 C 5592.94 1.61419 -4.9673 0
M  V30 58961 H 5594.63 0.656881 -2.92105 0
M  V30 58962 H 5592.18 0.31453 -1.40523 0
M  V30 58963 H 5594.13 3.09309 -2.86192 0
M  V30 58964 H 5592.85 2.81859 -1.64994 0
M  V30 58965 H 5591.51 1.51557 -3.33805 0
M  V30 58966 H 5591.16 3.97798 -3.0784 0
M  V30 58967 H 5590.86 3.45326 -4.7542 0
M  V30 58968 H 5592.38 4.29074 -4.34428 0
M  V30 58969 H 5593.8 2.22302 -5.28446 0
M  V30 58970 H 5592.2 1.60759 -5.78167 0
M  V30 58971 H 5593.27 0.576626 -4.81459 0
M  V30 58972 N 5594.61 1.54034 0.333374 0
M  V30 58973 C 5595.86 1.71429 1.07034 0
M  V30 58974 C 5596.18 0.485562 1.88858 0
M  V30 58975 O 5595.45 -0.500489 1.89399 0
M  V30 58976 H 5594.03 0.632048 0.398151 0
M  V30 58977 H 5596.69 1.91313 0.372185 0
M  V30 58978 H 5595.79 2.58964 1.74195 0
M  V30 58979 N 5596.09 -0.594927 1.4594 0
M  V30 58980 C 5597.33 -1.35556 1.50839 0
M  V30 58981 C 5597.67 -1.93583 0.154634 0
M  V30 58982 O 5596.94 -1.75784 -0.832479 0
M  V30 58983 C 5597.22 -2.49405 2.59748 0
M  V30 58984 C 5597.08 -1.96492 4.04612 0
M  V30 58985 C 5598.4 -3.51496 2.64837 0
M  V30 58986 H 5595.51 -0.49153 0.549151 0
M  V30 58987 H 5598.16 -0.669474 1.77815 0
M  V30 58988 H 5596.31 -3.07931 2.36877 0
M  V30 58989 H 5597.98 -1.42517 4.38733 0
M  V30 58990 H 5596.22 -1.27403 4.1467 0
M  V30 58991 H 5596.89 -2.78619 4.76524 0
M  V30 58992 H 5599.37 -3.02831 2.85364 0
M  V30 58993 H 5598.24 -4.28629 3.42882 0
M  V30 58994 H 5598.51 -4.07936 1.70414 0
M  V30 58995 N 5597.56 -1.33441 -0.838524 0
M  V30 58996 C 5598.79 -1.27771 -1.62352 0
M  V30 58997 C 5599.2 0.153524 -1.88576 0
M  V30 58998 O 5598.55 1.10621 -1.46658 0
M  V30 58999 C 5598.61 -1.98446 -2.99766 0
M  V30 59000 C 5598.27 -3.47751 -2.9651 0
M  V30 59001 C 5599.27 -4.42948 -2.72201 0
M  V30 59002 C 5596.95 -3.89933 -3.16635 0
M  V30 59003 C 5598.95 -5.78299 -2.68046 0
M  V30 59004 C 5596.63 -5.25389 -3.12105 0
M  V30 59005 C 5597.63 -6.19384 -2.87842 0
M  V30 59006 O 5597.32 -7.52359 -2.83215 0
M  V30 59007 H 5597.05 -0.441545 -0.511873 0
M  V30 59008 H 5599.61 -1.76381 -1.05256 0
M  V30 59009 H 5597.84 -1.44428 -3.58716 0
M  V30 59010 H 5599.53 -1.86271 -3.60635 0
M  V30 59011 H 5600.29 -4.11682 -2.56404 0
M  V30 59012 H 5596.17 -3.1718 -3.34541 0
M  V30 59013 H 5599.71 -6.51637 -2.49027 0
M  V30 59014 H 5595.61 -5.56279 -3.27451 0
M  V30 59015 H 5596.38 -7.61911 -2.99055 0
M  V30 59016 N 5599.04 1.05681 -1.16915 0
M  V30 59017 C 5600.32 1.75456 -0.864545 0
M  V30 59018 C 5600.7 2.01282 0.636288 0
M  V30 59019 O 5600.05 1.64491 1.58603 0
M  V30 59020 C 5600.26 3.05128 -1.69405 0
M  V30 59021 C 5601.61 3.79169 -1.91092 0
M  V30 59022 O 5602.63 3.14984 -1.66323 0
M  V30 59023 O 5601.49 4.94488 -2.32688 0
M  V30 59024 H 5598.58 0.762737 -0.319627 0
M  V30 59025 H 5601.13 1.11894 -1.27584 0
M  V30 59026 H 5599.9 2.82054 -2.71222 0
M  V30 59027 H 5599.52 3.76426 -1.2802 0
M  V30 59028 N 5600.52 0.96861 1.24321 0
M  V30 59029 C 5601.75 0.647697 1.96185 0
M  V30 59030 C 5602.16 -0.787207 1.72046 0
M  V30 59031 O 5601.5 -1.53992 1.00161 0
M  V30 59032 C 5601.56 0.84364 3.49461 0
M  V30 59033 C 5601.23 2.25836 3.973 0
M  V30 59034 C 5602.22 3.23616 4.06901 0
M  V30 59035 C 5599.91 2.58629 4.306 0
M  V30 59036 C 5601.9 4.52276 4.49138 0
M  V30 59037 C 5599.59 3.87515 4.7252 0
M  V30 59038 C 5600.59 4.84151 4.81754 0
M  V30 59039 O 5600.28 6.10737 5.22738 0
M  V30 59040 H 5600.01 0.24059 0.631738 0
M  V30 59041 H 5602.56 1.29932 1.59081 0
M  V30 59042 H 5600.79 0.134852 3.86465 0
M  V30 59043 H 5602.48 0.521675 4.02534 0
M  V30 59044 H 5603.25 2.99609 3.81391 0
M  V30 59045 H 5599.13 1.84131 4.22631 0
M  V30 59046 H 5602.67 5.27705 4.5626 0
M  V30 59047 H 5598.57 4.11322 4.97478 0
M  V30 59048 H 5599.34 6.14317 5.40885 0
M  V30 59049 N 5602 -1.39208 0.738834 0
M  V30 59050 C 5602.93 -2.33209 0.116552 0
M  V30 59051 C 5603.91 -1.5411 -0.720002 0
M  V30 59052 O 5605.1 -1.82488 -0.6642 0
M  V30 59053 C 5602.23 -3.38228 -0.788601 0
M  V30 59054 C 5601.18 -4.27963 -0.0559132 0
M  V30 59055 C 5600.51 -5.23714 -1.07834 0
M  V30 59056 C 5601.81 -5.10504 1.10378 0
M  V30 59057 H 5603.5 -2.85498 0.90175 0
M  V30 59058 H 5601.05 -1.3727 0.43508 0
M  V30 59059 H 5603 -4.02943 -1.2335 0
M  V30 59060 H 5601.72 -2.84388 -1.60596 0
M  V30 59061 H 5600.38 -3.64734 0.369403 0
M  V30 59062 H 5600.03 -4.66167 -1.88936 0
M  V30 59063 H 5599.73 -5.84602 -0.592843 0
M  V30 59064 H 5601.25 -5.91305 -1.52286 0
M  V30 59065 H 5602.67 -5.68541 0.737143 0
M  V30 59066 H 5601.06 -5.80553 1.51916 0
M  V30 59067 H 5602.13 -4.4511 1.92367 0
M  V30 59068 N 5603.48 -0.48676 -1.49895 0
M  V30 59069 C 5604.72 0.0628739 -2.02703 0
M  V30 59070 C 5605.06 1.37952 -1.36686 0
M  V30 59071 O 5604.33 1.88023 -0.497744 0
M  V30 59072 C 5604.61 0.230335 -3.59363 0
M  V30 59073 C 5604.47 -1.10843 -4.35929 0
M  V30 59074 C 5605.79 0.977634 -4.29104 0
M  V30 59075 H 5602.91 0.0213758 -0.73669 0
M  V30 59076 H 5605.55 -0.635402 -1.7906 0
M  V30 59077 H 5603.7 0.825089 -3.79637 0
M  V30 59078 H 5605.37 -1.74097 -4.27186 0
M  V30 59079 H 5603.61 -1.70124 -3.99049 0
M  V30 59080 H 5604.28 -0.944723 -5.43856 0
M  V30 59081 H 5606.76 0.47336 -4.13399 0
M  V30 59082 H 5605.64 1.06363 -5.38496 0
M  V30 59083 H 5605.9 2.01799 -3.93357 0
M  V30 59084 N 5604.96 1.56057 -0.219996 0
M  V30 59085 C 5606.18 2.03101 0.420069 0
M  V30 59086 C 5606.61 1.09881 1.52669 0
M  V30 59087 O 5605.96 0.0867095 1.81093 0
M  V30 59088 C 5606.01 3.48392 0.930348 0
M  V30 59089 O 5605.12 3.58308 2.0418 0
M  V30 59090 H 5604.46 0.657132 0.095254 0
M  V30 59091 H 5606.99 2.01786 -0.338176 0
M  V30 59092 H 5607 3.88682 1.24056 0
M  V30 59093 H 5605.67 4.15726 0.120393 0
M  V30 59094 H 5604.25 3.29904 1.73833 0
M  V30 59095 N 5606.43 -0.0534086 1.57509 0
M  V30 59096 C 5607.66 -0.761465 1.92378 0
M  V30 59097 C 5608.08 -1.70176 0.817645 0
M  V30 59098 O 5607.43 -1.81313 -0.207779 0
M  V30 59099 C 5607.48 -1.53943 3.27084 0
M  V30 59100 O 5607.21 -0.636902 4.33446 0
M  V30 59101 C 5608.71 -2.34684 3.76083 0
M  V30 59102 H 5605.93 -0.215461 0.635466 0
M  V30 59103 H 5608.47 -0.0181905 2.04492 0
M  V30 59104 H 5606.63 -2.23481 3.16441 0
M  V30 59105 H 5607.04 -1.17988 5.11057 0
M  V30 59106 H 5608.51 -2.847 4.72916 0
M  V30 59107 H 5608.99 -3.15031 3.06027 0
M  V30 59108 H 5609.6 -1.70267 3.89729 0
M  V30 59109 N 5607.91 -1.54208 -0.325201 0
M  V30 59110 C 5608.84 -1.79817 -1.42121 0
M  V30 59111 C 5609.86 -0.680082 -1.47915 0
M  V30 59112 O 5611.05 -0.95716 -1.50667 0
M  V30 59113 C 5608.15 -1.89944 -2.80668 0
M  V30 59114 C 5607.32 -3.20089 -2.98097 0
M  V30 59115 C 5606.38 -3.20939 -4.16995 0
M  V30 59116 O 5605.4 -3.94585 -4.10233 0
M  V30 59117 N 5606.61 -2.44606 -5.26448 0
M  V30 59118 H 5609.37 -2.744 -1.20517 0
M  V30 59119 H 5606.93 -1.53485 -0.515179 0
M  V30 59120 H 5608.92 -1.87943 -3.58413 0
M  V30 59121 H 5607.49 -1.02465 -2.9533 0
M  V30 59122 H 5606.71 -3.35064 -2.07667 0
M  V30 59123 H 5608 -4.06019 -3.06637 0
M  V30 59124 H 5607.4 -1.84358 -5.34816 0
M  V30 59125 H 5605.96 -2.48384 -6.02618 0
M  V30 59126 N 5609.39 0.587179 -1.46253 0
M  V30 59127 C 5610.3 1.72449 -1.59055 0
M  V30 59128 C 5611.32 1.67414 -0.474189 0
M  V30 59129 O 5612.49 1.87403 -0.737699 0
M  V30 59130 C 5609.56 3.08947 -1.57329 0
M  V30 59131 C 5608.62 3.25281 -2.80162 0
M  V30 59132 C 5607.85 4.55267 -2.78509 0
M  V30 59133 O 5608.07 5.38876 -1.86999 0
M  V30 59134 O 5607.01 4.74752 -3.69992 0
M  V30 59135 H 5610.83 1.64597 -2.55228 0
M  V30 59136 H 5608.42 0.753697 -1.28995 0
M  V30 59137 H 5610.3 3.90233 -1.59047 0
M  V30 59138 H 5608.98 3.17247 -0.643136 0
M  V30 59139 H 5607.88 2.43505 -2.84 0
M  V30 59140 H 5609.22 3.2187 -3.72372 0
M  V30 59141 N 5610.87 1.33884 0.831435 0
M  V30 59142 C 5612.11 1.25761 1.58715 0
M  V30 59143 C 5612.44 -0.174678 1.93714 0
M  V30 59144 O 5611.7 -1.13379 1.59511 0
M  V30 59145 C 5612 2.08554 2.90241 0
M  V30 59146 C 5611.66 3.5766 2.74572 0
M  V30 59147 C 5610.32 3.98309 2.70006 0
M  V30 59148 C 5612.68 4.52378 2.5885 0
M  V30 59149 C 5610 5.31881 2.47628 0
M  V30 59150 C 5612.36 5.8612 2.38004 0
M  V30 59151 C 5611.02 6.25943 2.31845 0
M  V30 59152 H 5610.29 0.460191 0.58078 0
M  V30 59153 H 5612.94 1.65544 0.962682 0
M  V30 59154 H 5611.24 1.61572 3.56934 0
M  V30 59155 H 5612.94 1.99621 3.47782 0
M  V30 59156 H 5609.53 3.25389 2.78962 0
M  V30 59157 H 5613.71 4.21877 2.61406 0
M  V30 59158 H 5608.97 5.61764 2.41311 0
M  V30 59159 H 5613.14 6.59111 2.24824 0
M  V30 59160 H 5610.77 7.29379 2.14266 0
M  V30 59161 N 5612.35 -1.0506 1.17474 0
M  V30 59162 C 5613.76 -1.30253 0.922294 0
M  V30 59163 C 5613.96 -1.9712 -0.417827 0
M  V30 59164 O 5613.02 -2.24561 -1.1545 0
M  V30 59165 C 5614.33 -2.17102 2.08056 0
M  V30 59166 C 5615.88 -2.3048 2.11774 0
M  V30 59167 C 5616.35 -3.20689 3.2699 0
M  V30 59168 N 5617.84 -3.28275 3.26787 0
M  V30 59169 C 5618.58 -3.98204 4.12579 0
M  V30 59170 N 5618.08 -4.70549 5.08484 0
M  V30 59171 N 5619.87 -3.94381 4.00525 0
M  V30 59172 H 5612.02 -0.600581 2.03732 0
M  V30 59173 H 5614.28 -0.327444 0.889654 0
M  V30 59174 H 5613.99 -1.75262 3.0492 0
M  V30 59175 H 5613.86 -3.17743 2.03272 0
M  V30 59176 H 5616.25 -2.7156 1.15495 0
M  V30 59177 H 5616.33 -1.29463 2.20619 0
M  V30 59178 H 5615.97 -2.80322 4.23535 0
M  V30 59179 H 5615.9 -4.21714 3.15381 0
M  V30 59180 H 5618.4 -2.7673 2.5735 0
M  V30 59181 H 5618.71 -5.21472 5.70339 0
M  V30 59182 H 5617.05 -4.69487 5.12452 0
M  V30 59183 H 5620.24 -3.36989 3.24894 0
M  V30 59184 H 5620.42 -4.4861 4.67604 0
M  V30 59185 N 5613.82 -0.97519 -1.23806 0
M  V30 59186 C 5615.05 -0.658092 -1.95838 0
M  V30 59187 C 5615.46 0.778072 -1.72461 0
M  V30 59188 O 5614.8 1.53459 -1.00976 0
M  V30 59189 C 5614.87 -0.862161 -3.49009 0
M  V30 59190 C 5614.53 -2.27939 -3.96097 0
M  V30 59191 C 5615.53 -3.25769 -4.05179 0
M  V30 59192 C 5613.21 -2.60909 -4.29222 0
M  V30 59193 C 5615.21 -4.54652 -4.46733 0
M  V30 59194 C 5612.89 -3.90016 -4.70458 0
M  V30 59195 C 5613.89 -4.86699 -4.7918 0
M  V30 59196 O 5613.58 -6.13501 -5.19492 0
M  V30 59197 H 5613.31 -0.243937 -0.630453 0
M  V30 59198 H 5615.87 -1.30774 -1.5839 0
M  V30 59199 H 5614.1 -0.155345 -3.86388 0
M  V30 59200 H 5615.78 -0.543015 -4.02251 0
M  V30 59201 H 5616.55 -3.01628 -3.79797 0
M  V30 59202 H 5612.43 -1.86369 -4.21648 0
M  V30 59203 H 5615.97 -5.30117 -4.53455 0
M  V30 59204 H 5611.87 -4.13955 -4.95289 0
M  V30 59205 H 5612.64 -6.17177 -5.37619 0
M  V30 59206 N 5615.3 1.38815 -0.746207 0
M  V30 59207 C 5616.23 2.28115 -0.0621519 0
M  V30 59208 C 5617.21 1.44987 0.736046 0
M  V30 59209 O 5618.4 1.74362 0.716238 0
M  V30 59210 C 5615.52 3.25995 0.91895 0
M  V30 59211 C 5614.57 4.25993 0.207883 0
M  V30 59212 S 5615.4 5.2437 -1.08611 0
M  V30 59213 C 5616.56 6.25807 -0.107894 0
M  V30 59214 H 5616.79 2.85784 -0.819431 0
M  V30 59215 H 5614.32 1.44706 -0.538473 0
M  V30 59216 H 5616.28 3.82904 1.47969 0
M  V30 59217 H 5614.94 2.67324 1.64915 0
M  V30 59218 H 5614.14 4.94953 0.950666 0
M  V30 59219 H 5613.74 3.72942 -0.281129 0
M  V30 59220 H 5616.03 6.7357 0.728668 0
M  V30 59221 H 5616.97 7.03956 -0.764945 0
M  V30 59222 H 5617.38 5.63856 0.269508 0
M  V30 59223 N 5616.78 0.494703 1.49634 0
M  V30 59224 C 5617.73 -0.300848 2.30646 0
M  V30 59225 C 5618.72 -0.968638 1.38974 0
M  V30 59226 O 5619.93 -0.897046 1.56055 0
M  V30 59227 H 5616.3 -0.115874 0.743019 0
M  V30 59228 H 5618.27 0.402491 2.95673 0
M  V30 59229 C 5617.02 -1.35626 3.20157 0
M  V30 59230 H 5616.35 -0.851809 3.9062 0
M  V30 59231 H 5617.79 -1.88502 3.79794 0
M  V30 59232 C 5616.25 -2.37104 2.3934 0
M  V30 59233 O 5616.78 -3.42859 2.0931 0
M  V30 59234 N 5614.98 -2.09414 2.0148 0
M  V30 59235 H 5614.53 -1.23433 2.26102 0
M  V30 59236 H 5614.49 -2.7754 1.47713 0
M  V30 59237 N 5618.26 -1.55938 0.228269 0
M  V30 59238 C 5619.48 -2.03321 -0.409292 0
M  V30 59239 C 5619.91 -1.10689 -1.52084 0
M  V30 59240 O 5619.27 -0.0963121 -1.81044 0
M  V30 59241 C 5619.31 -3.4888 -0.911859 0
M  V30 59242 O 5618.42 -3.59385 -2.02277 0
M  V30 59243 H 5617.76 -0.657628 -0.0917678 0
M  V30 59244 H 5620.29 -2.01604 0.348873 0
M  V30 59245 H 5620.3 -3.89335 -1.21993 0
M  V30 59246 H 5618.97 -4.15784 -0.098344 0
M  V30 59247 H 5617.55 -3.30821 -1.72081 0
M  V30 59248 N 5619.74 0.0450548 -1.57536 0
M  V30 59249 C 5620.67 1.07785 -2.02275 0
M  V30 59250 C 5621.68 1.3342 -0.932901 0
M  V30 59251 O 5622.87 1.31188 -1.21045 0
M  V30 59252 C 5619.97 2.42306 -2.36941 0
M  V30 59253 C 5619.14 2.36253 -3.68108 0
M  V30 59254 C 5618.2 3.53094 -3.90142 0
M  V30 59255 O 5617.23 3.33311 -4.61403 0
M  V30 59256 N 5618.43 4.74403 -3.34547 0
M  V30 59257 H 5621.2 0.696641 -2.91491 0
M  V30 59258 H 5618.76 0.23328 -1.60211 0
M  V30 59259 H 5620.75 3.19162 -2.48833 0
M  V30 59260 H 5619.32 2.7233 -1.53478 0
M  V30 59261 H 5618.54 1.44602 -3.66721 0
M  V30 59262 H 5619.83 2.29336 -4.54184 0
M  V30 59263 H 5619.22 4.93379 -2.76756 0
M  V30 59264 H 5617.78 5.48679 -3.51844 0
M  V30 59265 N 5621.21 1.54379 0.317018 0
M  V30 59266 C 5622.46 1.72555 1.0521 0
M  V30 59267 C 5622.78 0.505566 1.88332 0
M  V30 59268 O 5622.05 -0.480372 1.89919 0
M  V30 59269 H 5620.63 0.636235 0.391425 0
M  V30 59270 H 5623.3 1.91697 0.351873 0
M  V30 59271 H 5622.39 2.60797 1.71439 0
M  V30 59272 N 5622.69 -0.579414 1.46562 0
M  V30 59273 C 5623.62 -1.69841 1.60239 0
M  V30 59274 C 5624.6 -1.63968 0.45259 0
M  V30 59275 O 5625.79 -1.81934 0.679238 0
M  V30 59276 C 5622.92 -3.08483 1.59549 0
M  V30 59277 C 5621.87 -3.29188 2.73531 0
M  V30 59278 C 5621.2 -4.6839 2.57904 0
M  V30 59279 C 5622.5 -3.16704 4.15327 0
M  V30 59280 H 5624.19 -1.58651 2.5391 0
M  V30 59281 H 5621.74 -0.76183 1.22197 0
M  V30 59282 H 5623.69 -3.86589 1.6771 0
M  V30 59283 H 5622.42 -3.20579 0.624243 0
M  V30 59284 H 5621.07 -2.53482 2.64845 0
M  V30 59285 H 5620.72 -4.77257 1.58856 0
M  V30 59286 H 5620.42 -4.83196 3.34358 0
M  V30 59287 H 5621.95 -5.48661 2.67961 0
M  V30 59288 H 5623.36 -3.84651 4.25107 0
M  V30 59289 H 5621.76 -3.43029 4.92393 0
M  V30 59290 H 5622.83 -2.13739 4.35251 0
M  V30 59291 N 5624.17 -1.34323 -0.824323 0
M  V30 59292 C 5625.1 -1.28427 -1.9501 0
M  V30 59293 C 5626.08 -0.161984 -1.69327 0
M  V30 59294 O 5627.27 -0.354119 -1.90944 0
M  V30 59295 C 5624.4 -1.03753 -3.3144 0
M  V30 59296 C 5623.35 -2.12432 -3.7156 0
M  V30 59297 C 5622.68 -1.72949 -5.05957 0
M  V30 59298 C 5623.98 -3.54248 -3.83804 0
M  V30 59299 H 5625.67 -2.22621 -2.00201 0
M  V30 59300 H 5623.22 -1.07168 -0.961818 0
M  V30 59301 H 5625.17 -0.98273 -4.09781 0
M  V30 59302 H 5623.89 -0.060004 -3.26545 0
M  V30 59303 H 5622.55 -2.16979 -2.95493 0
M  V30 59304 H 5622.2 -0.738608 -4.97548 0
M  V30 59305 H 5621.9 -2.45687 -5.33771 0
M  V30 59306 H 5623.42 -1.68962 -5.86757 0
M  V30 59307 H 5624.84 -3.52122 -4.52419 0
M  V30 59308 H 5623.24 -4.25595 -4.2307 0
M  V30 59309 H 5624.31 -3.91692 -2.85842 0
M  V30 59310 N 5625.65 1.04435 -1.1803 0
M  V30 59311 C 5627.06 1.59027 -0.978132 0
M  V30 59312 C 5627.41 1.90409 0.473174 0
M  V30 59313 O 5626.54 1.69138 1.34986 0
M  V30 59314 C 5627.13 2.88936 -1.76922 0
M  V30 59315 C 5625.69 3.40158 -1.61151 0
M  V30 59316 C 5624.84 2.13791 -1.76604 0
M  V30 59317 H 5627.79 0.871527 -1.32628 0
M  V30 59318 H 5627.81 3.59169 -1.2561 0
M  V30 59319 H 5627.32 2.66064 -2.82545 0
M  V30 59320 H 5625.42 3.6805 -0.580483 0
M  V30 59321 H 5625.53 4.14233 -2.40724 0
M  V30 59322 H 5623.9 2.24918 -1.19515 0
M  V30 59323 H 5624.68 1.93379 -2.83654 0
M  V30 59324 N 5627.13 0.981742 1.23287 0
M  V30 59325 C 5628.54 0.688148 1.73555 0
M  V30 59326 C 5628.89 -0.79557 1.79346 0
M  V30 59327 O 5628.01 -1.62222 1.43224 0
M  V30 59328 C 5628.61 1.24246 3.15196 0
M  V30 59329 C 5627.17 0.998484 3.62915 0
M  V30 59330 C 5626.31 1.36938 2.41129 0
M  V30 59331 H 5629.27 1.15543 1.08791 0
M  V30 59332 H 5629.29 0.615542 3.75488 0
M  V30 59333 H 5628.8 2.32234 3.10949 0
M  V30 59334 H 5626.9 -0.0652538 3.72543 0
M  V30 59335 H 5627.01 1.65401 4.49644 0
M  V30 59336 H 5625.38 0.787858 2.42208 0
M  V30 59337 H 5626.16 2.45906 2.39552 0
M  V30 59338 N 5628.6 -1.38417 0.753558 0
M  V30 59339 C 5629.55 -2.30457 0.125821 0
M  V30 59340 C 5630.52 -1.50176 -0.709675 0
M  V30 59341 O 5631.71 -1.78806 -0.66581 0
M  V30 59342 C 5628.85 -3.36596 -0.761385 0
M  V30 59343 C 5627.96 -4.31909 0.0887367 0
M  V30 59344 C 5627.09 -5.25119 -0.801471 0
M  V30 59345 C 5626.13 -6.12078 0.052287 0
M  V30 59346 N 5625.27 -6.97586 -0.794878 0
M  V30 59347 H 5630.11 -2.83563 0.916287 0
M  V30 59348 H 5627.65 -1.39607 0.463485 0
M  V30 59349 H 5629.61 -3.96742 -1.2904 0
M  V30 59350 H 5628.24 -2.84899 -1.51764 0
M  V30 59351 H 5627.29 -3.73224 0.73538 0
M  V30 59352 H 5628.6 -4.93159 0.748072 0
M  V30 59353 H 5627.75 -5.90382 -1.39765 0
M  V30 59354 H 5626.49 -4.64236 -1.49454 0
M  V30 59355 H 5625.5 -5.4581 0.661138 0
M  V30 59356 H 5626.72 -6.7503 0.742415 0
M  V30 59357 H 5624.67 -6.39251 -1.4729 0
M  V30 59358 H 5624.59 -7.55755 -0.192439 0
M  V30 59359 H 5625.85 -7.67258 -1.37603 0
M  V30 59360 N 5630.08 -0.502631 -1.4937 0
M  V30 59361 C 5631.31 0.0402358 -2.07361 0
M  V30 59362 C 5631.73 1.29913 -1.3603 0
M  V30 59363 O 5631.09 1.76426 -0.41755 0
M  V30 59364 C 5631.14 0.275235 -3.59548 0
M  V30 59365 O 5630.24 1.34962 -3.89691 0
M  V30 59366 H 5629.58 -0.0269501 -0.663453 0
M  V30 59367 H 5632.11 -0.702719 -1.92154 0
M  V30 59368 H 5632.12 0.506249 -4.04847 0
M  V30 59369 H 5630.8 -0.644527 -4.10875 0
M  V30 59370 H 5629.38 1.10342 -3.56201 0
M  V30 59371 N 5631.56 1.55815 -0.236535 0
M  V30 59372 C 5632.79 2.03536 0.398504 0
M  V30 59373 C 5633.21 1.11494 1.51495 0
M  V30 59374 O 5632.57 0.105912 1.8099 0
M  V30 59375 C 5632.62 3.49359 0.893344 0
M  V30 59376 O 5631.72 3.60453 2.00368 0
M  V30 59377 H 5631.06 0.658105 0.0882789 0
M  V30 59378 H 5633.59 2.01416 -0.359559 0
M  V30 59379 H 5633.6 3.89976 1.19927 0
M  V30 59380 H 5632.28 4.1583 0.0762926 0
M  V30 59381 H 5630.85 3.31729 1.70324 0
M  V30 59382 N 5633.04 -0.0366996 1.57557 0
M  V30 59383 C 5634.29 -0.72804 1.88102 0
M  V30 59384 C 5634.6 -1.76927 0.834036 0
M  V30 59385 O 5635.81 -2.51267 1.02846 0
M  V30 59386 C 5634.26 -1.34593 3.33786 0
M  V30 59387 C 5633.87 -0.341442 4.46697 0
M  V30 59388 C 5635.62 -2.01759 3.73488 0
M  V30 59389 C 5633.52 -0.967238 5.83437 0
M  V30 59390 H 5632.45 -0.27567 0.701799 0
M  V30 59391 H 5635.1 0.01782 1.83491 0
M  V30 59392 H 5633.49 -2.14124 3.33117 0
M  V30 59393 H 5634.66 0.426602 4.58821 0
M  V30 59394 H 5632.97 0.227704 4.15777 0
M  V30 59395 H 5635.57 -2.49418 4.72964 0
M  V30 59396 H 5635.91 -2.83245 3.05087 0
M  V30 59397 H 5636.45 -1.29013 3.76298 0
M  V30 59398 H 5633.19 -0.19196 6.55219 0
M  V30 59399 H 5632.71 -1.7053 5.75047 0
M  V30 59400 H 5634.39 -1.47683 6.2992 0
M  V30 59401 N 5634.52 -1.54545 -0.308827 0
M  V30 59402 C 5635.79 -1.64121 -1.06412 0
M  V30 59403 C 5636.17 -0.484475 -2.05465 0
M  V30 59404 O 5635.52 0.519674 -2.22512 0
M  V30 59405 C 5635.73 -3.01782 -1.75295 0
M  V30 59406 C 5637.08 -3.58332 -2.27779 0
M  V30 59407 O 5638.1 -3.04183 -1.8534 0
M  V30 59408 O 5636.96 -4.53124 -3.05518 0
M  V30 59409 H 5634.06 -0.665189 -0.491378 0
M  V30 59410 H 5636.6 -1.6689 -0.30754 0
M  V30 59411 H 5635.38 -3.77411 -1.03328 0
M  V30 59412 H 5635 -3.02757 -2.57729 0
M  V30 59413 N 5636 0.571634 -1.46868 0
M  V30 59414 C 5636.96 1.66192 -1.57838 0
M  V30 59415 C 5637.96 1.5424 -0.454601 0
M  V30 59416 O 5639.15 1.58658 -0.719247 0
M  V30 59417 C 5636.28 3.05673 -1.5092 0
M  V30 59418 H 5637.47 1.5782 -2.55015 0
M  V30 59419 H 5635.03 0.790386 -1.34843 0
M  V30 59420 H 5635.76 3.19591 -0.550641 0
M  V30 59421 H 5635.55 3.15757 -2.32465 0
M  V30 59422 H 5637.04 3.85021 -1.61705 0
M  V30 59423 N 5637.47 1.34758 0.817188 0
M  V30 59424 C 5638.72 1.27437 1.57372 0
M  V30 59425 C 5639.05 -0.154122 1.93888 0
M  V30 59426 O 5638.3 -1.1168 1.60705 0
M  V30 59427 C 5638.6 2.11621 2.88013 0
M  V30 59428 C 5638.27 3.60553 2.70763 0
M  V30 59429 C 5636.93 4.0115 2.65766 0
M  V30 59430 C 5639.28 4.55098 2.54037 0
M  V30 59431 C 5636.61 5.34477 2.41973 0
M  V30 59432 C 5638.96 5.88611 2.31774 0
M  V30 59433 C 5637.63 6.28366 2.25193 0
M  V30 59434 H 5636.9 0.466325 0.575866 0
M  V30 59435 H 5639.54 1.66555 0.94507 0
M  V30 59436 H 5637.85 1.65349 3.552 0
M  V30 59437 H 5639.55 2.03299 3.45645 0
M  V30 59438 H 5636.14 3.2833 2.75495 0
M  V30 59439 H 5640.32 4.24626 2.56917 0
M  V30 59440 H 5635.58 5.64292 2.35339 0
M  V30 59441 H 5639.75 6.61458 2.17821 0
M  V30 59442 H 5637.38 7.31611 2.06518 0
M  V30 59443 N 5638.95 -1.03808 1.18582 0
M  V30 59444 C 5639.9 -2.1188 0.915189 0
M  V30 59445 C 5640.87 -1.65453 -0.146421 0
M  V30 59446 O 5642.05 -1.90799 -0.00623351 0
M  V30 59447 C 5639.19 -3.42155 0.449875 0
M  V30 59448 C 5638.31 -4.02179 1.5772 0
M  V30 59449 C 5637.44 -5.20428 1.06435 0
M  V30 59450 C 5636.48 -5.72488 2.16619 0
M  V30 59451 N 5635.62 -6.82021 1.66709 0
M  V30 59452 H 5640.46 -2.34366 1.84055 0
M  V30 59453 H 5637.99 -1.14958 0.917768 0
M  V30 59454 H 5639.95 -4.16887 0.161553 0
M  V30 59455 H 5638.58 -3.19808 -0.43851 0
M  V30 59456 H 5637.63 -3.2475 1.98095 0
M  V30 59457 H 5638.95 -4.36842 2.4077 0
M  V30 59458 H 5638.1 -6.02284 0.730709 0
M  V30 59459 H 5636.84 -4.87275 0.203473 0
M  V30 59460 H 5635.84 -4.89251 2.50825 0
M  V30 59461 H 5637.07 -6.07683 3.03147 0
M  V30 59462 H 5635.02 -6.50739 0.829145 0
M  V30 59463 H 5634.93 -7.15762 2.43354 0
M  V30 59464 H 5636.2 -7.67495 1.3628 0
M  V30 59465 N 5640.43 -0.988266 -1.22764 0
M  V30 59466 C 5641.36 -0.554558 -2.26819 0
M  V30 59467 C 5642.34 0.416235 -1.64929 0
M  V30 59468 O 5643.53 0.307883 -1.91744 0
M  V30 59469 C 5640.66 0.136144 -3.47033 0
M  V30 59470 C 5639.61 -0.752723 -4.21329 0
M  V30 59471 C 5638.94 0.0706356 -5.34653 0
M  V30 59472 C 5640.24 -2.04734 -4.80501 0
M  V30 59473 H 5641.93 -1.42432 -2.6335 0
M  V30 59474 H 5639.48 -0.686312 -1.26593 0
M  V30 59475 H 5641.43 0.450921 -4.18981 0
M  V30 59476 H 5640.15 1.04042 -3.09585 0
M  V30 59477 H 5638.81 -1.05107 -3.51209 0
M  V30 59478 H 5638.46 0.975685 -4.93446 0
M  V30 59479 H 5638.16 -0.521041 -5.85285 0
M  V30 59480 H 5639.68 0.379614 -6.09419 0
M  V30 59481 H 5641.1 -1.79682 -5.44415 0
M  V30 59482 H 5639.49 -2.58745 -5.41453 0
M  V30 59483 H 5640.56 -2.7291 -4.0081 0
M  V30 59484 N 5641.91 1.38015 -0.760888 0
M  V30 59485 C 5642.86 2.3225 -0.127507 0
M  V30 59486 C 5643.85 1.54389 0.697166 0
M  V30 59487 O 5645.06 1.69866 0.595445 0
M  V30 59488 H 5641.43 0.751665 -0.0224406 0
M  V30 59489 H 5643.4 2.83266 -0.938229 0
M  V30 59490 C 5642.15 3.39609 0.74573 0
M  V30 59491 H 5641.47 3.99618 0.120539 0
M  V30 59492 H 5642.91 4.07935 1.15607 0
M  V30 59493 C 5641.37 2.78785 1.89157 0
M  V30 59494 O 5641.9 2.68671 2.98628 0
M  V30 59495 N 5640.11 2.36487 1.68885 0
M  V30 59496 H 5639.66 2.44913 0.798465 0
M  V30 59497 H 5639.61 1.96134 2.45721 0
M  V30 59498 N 5643.39 0.510546 1.49101 0
M  V30 59499 C 5644.63 -0.0324684 2.01674 0
M  V30 59500 C 5644.95 -1.37157 1.39453 0
M  V30 59501 O 5646.15 -2.00183 1.83409 0
M  V30 59502 C 5644.61 -0.108307 3.59737 0
M  V30 59503 C 5644.22 1.22473 4.30934 0
M  V30 59504 C 5645.96 -0.601178 4.20221 0
M  V30 59505 C 5643.87 1.11053 5.8088 0
M  V30 59506 H 5642.8 -0.0159068 0.753832 0
M  V30 59507 H 5645.45 0.651404 1.71549 0
M  V30 59508 H 5643.83 -0.856838 3.86619 0
M  V30 59509 H 5645.01 1.9873 4.15744 0
M  V30 59510 H 5643.32 1.65179 3.82237 0
M  V30 59511 H 5645.92 -0.704276 5.30042 0
M  V30 59512 H 5646.26 -1.60233 3.84228 0
M  V30 59513 H 5646.79 0.0910959 3.97696 0
M  V30 59514 H 5643.53 2.08625 6.21415 0
M  V30 59515 H 5643.05 0.389009 5.98537 0
M  V30 59516 H 5644.73 0.793175 6.4212 0
M  V30 59517 N 5644.86 -1.55687 0.244795 0
M  V30 59518 C 5645.81 -2.21292 -0.655646 0
M  V30 59519 C 5646.78 -1.1761 -1.17291 0
M  V30 59520 O 5647.97 -1.4605 -1.22777 0
M  V30 59521 C 5645.11 -2.9146 -1.84784 0
M  V30 59522 C 5644.22 -4.09791 -1.3673 0
M  V30 59523 C 5643.35 -4.67681 -2.51889 0
M  V30 59524 C 5642.39 -5.78266 -2.00686 0
M  V30 59525 N 5641.53 -6.30347 -3.09203 0
M  V30 59526 H 5646.37 -2.97866 -0.0895109 0
M  V30 59527 H 5643.91 -1.47064 -0.0324208 0
M  V30 59528 H 5645.86 -3.3034 -2.54816 0
M  V30 59529 H 5644.49 -2.17363 -2.38649 0
M  V30 59530 H 5643.55 -3.76239 -0.561096 0
M  V30 59531 H 5644.86 -4.8963 -0.952027 0
M  V30 59532 H 5644.01 -5.09124 -3.29966 0
M  V30 59533 H 5642.75 -3.87054 -2.96716 0
M  V30 59534 H 5641.76 -5.36302 -1.21078 0
M  V30 59535 H 5642.98 -6.60743 -1.5683 0
M  V30 59536 H 5640.93 -5.52626 -3.53469 0
M  V30 59537 H 5640.84 -7.05373 -2.72 0
M  V30 59538 H 5642.11 -6.76449 -3.87346 0
M  V30 59539 N 5646.34 0.0283435 -1.57575 0
M  V30 59540 C 5647.27 1.02821 -2.09643 0
M  V30 59541 C 5648.25 1.37665 -0.999124 0
M  V30 59542 O 5649.44 1.46536 -1.2744 0
M  V30 59543 C 5646.57 2.32891 -2.57641 0
M  V30 59544 C 5645.52 2.12288 -3.71642 0
M  V30 59545 C 5644.85 3.48124 -4.0585 0
M  V30 59546 C 5646.15 1.50846 -5.00043 0
M  V30 59547 H 5647.84 0.594773 -2.93433 0
M  V30 59548 H 5645.39 0.284652 -1.41159 0
M  V30 59549 H 5647.34 3.03169 -2.92688 0
M  V30 59550 H 5646.07 2.78296 -1.70935 0
M  V30 59551 H 5644.72 1.44442 -3.36945 0
M  V30 59552 H 5644.37 3.91179 -3.16209 0
M  V30 59553 H 5644.07 3.35163 -4.82638 0
M  V30 59554 H 5645.6 4.19763 -4.43431 0
M  V30 59555 H 5647.01 2.11043 -5.33042 0
M  V30 59556 H 5645.41 1.48459 -5.81447 0
M  V30 59557 H 5646.48 0.474371 -4.82574 0
M  V30 59558 N 5647.82 1.54706 0.300627 0
M  V30 59559 C 5648.75 1.88684 1.37552 0
M  V30 59560 C 5649.73 0.745794 1.52879 0
M  V30 59561 O 5650.92 1.00156 1.6638 0
M  V30 59562 C 5648.05 2.13447 2.73966 0
M  V30 59563 C 5647 3.29294 2.73404 0
M  V30 59564 C 5646.33 3.39476 4.1311 0
M  V30 59565 C 5647.63 4.6639 2.35111 0
M  V30 59566 H 5649.32 2.78711 1.09364 0
M  V30 59567 H 5646.87 1.34102 0.524656 0
M  V30 59568 H 5648.82 2.35803 3.49249 0
M  V30 59569 H 5647.54 1.20192 3.0368 0
M  V30 59570 H 5646.2 3.06862 2.00577 0
M  V30 59571 H 5645.85 2.43737 4.40002 0
M  V30 59572 H 5645.55 4.17349 4.13635 0
M  V30 59573 H 5647.07 3.64093 4.90172 0
M  V30 59574 H 5648.49 4.88474 3.00111 0
M  V30 59575 H 5646.89 5.46979 2.46848 0
M  V30 59576 H 5647.96 4.67082 1.30239 0
M  V30 59577 N 5649.3 -0.563837 1.47169 0
M  V30 59578 C 5650.55 -1.31869 1.5315 0
M  V30 59579 C 5650.87 -1.94047 0.192586 0
M  V30 59580 O 5650.14 -1.7958 -0.782809 0
M  V30 59581 H 5648.72 -0.489674 0.564117 0
M  V30 59582 H 5651.38 -0.658912 1.83424 0
M  V30 59583 H 5650.48 -2.11566 2.29448 0
M  V30 59584 N 5650.78 -1.3519 -0.81003 0
M  V30 59585 C 5652.03 -1.27607 -1.56203 0
M  V30 59586 C 5652.34 0.148552 -1.95035 0
M  V30 59587 O 5653.54 0.346626 -2.69278 0
M  V30 59588 C 5652 -2.23769 -2.81878 0
M  V30 59589 C 5651.61 -3.71558 -2.50297 0
M  V30 59590 C 5653.35 -2.25122 -3.5989 0
M  V30 59591 C 5651.26 -4.59553 -3.72244 0
M  V30 59592 H 5650.19 -0.474098 -0.586299 0
M  V30 59593 H 5652.84 -1.60433 -0.890702 0
M  V30 59594 H 5651.22 -1.8391 -3.50704 0
M  V30 59595 H 5652.4 -4.20031 -1.895 0
M  V30 59596 H 5650.71 -3.7278 -1.85537 0
M  V30 59597 H 5653.31 -2.88082 -4.50459 0
M  V30 59598 H 5653.65 -1.25401 -3.96964 0
M  V30 59599 H 5654.18 -2.63491 -2.98022 0
M  V30 59600 H 5650.92 -5.60258 -3.40281 0
M  V30 59601 H 5650.44 -4.15807 -4.32278 0
M  V30 59602 H 5652.12 -4.74804 -4.39511 0
M  V30 59603 N 5652.25 1.03178 -1.19131 0
M  V30 59604 C 5653.5 1.7618 -0.990196 0
M  V30 59605 C 5653.82 1.88988 0.48048 0
M  V30 59606 O 5653.09 1.42135 1.34812 0
M  V30 59607 H 5651.67 0.652655 -0.363387 0
M  V30 59608 H 5654.34 1.24476 -1.49973 0
M  V30 59609 H 5653.43 2.77114 -1.43577 0
M  V30 59610 N 5653.73 0.994763 1.22238 0
M  V30 59611 C 5654.98 0.670342 1.90659 0
M  V30 59612 C 5655.3 -0.800306 1.7782 0
M  V30 59613 O 5654.57 -1.57377 1.16659 0
M  V30 59614 H 5653.15 0.24495 0.705697 0
M  V30 59615 H 5655.81 1.26167 1.48553 0
M  V30 59616 H 5654.91 0.934513 2.97781 0
M  V30 59617 N 5655.21 -1.3761 0.768196 0
M  V30 59618 C 5656.16 -2.3031 0.150257 0
M  V30 59619 C 5657.13 -1.5092 -0.693707 0
M  V30 59620 O 5658.31 -1.79502 -0.646807 0
M  V30 59621 C 5655.45 -3.37385 -0.725642 0
M  V30 59622 C 5654.57 -4.3179 0.134541 0
M  V30 59623 C 5653.7 -5.25939 -0.74573 0
M  V30 59624 C 5652.74 -6.11988 0.117203 0
M  V30 59625 N 5651.88 -6.9839 -0.720845 0
M  V30 59626 H 5656.72 -2.82576 0.946311 0
M  V30 59627 H 5654.25 -1.39108 0.478266 0
M  V30 59628 H 5656.21 -3.98089 -1.24825 0
M  V30 59629 H 5654.84 -2.86493 -1.48733 0
M  V30 59630 H 5653.89 -3.72423 0.774924 0
M  V30 59631 H 5655.21 -4.92337 0.800336 0
M  V30 59632 H 5654.36 -5.91831 -1.33496 0
M  V30 59633 H 5653.1 -4.65795 -1.44522 0
M  V30 59634 H 5652.1 -5.45078 0.718991 0
M  V30 59635 H 5653.33 -6.74204 0.813969 0
M  V30 59636 H 5651.27 -6.40777 -1.40501 0
M  V30 59637 H 5651.19 -7.55917 -0.11227 0
M  V30 59638 H 5652.46 -7.68675 -1.29458 0
M  V30 59639 N 5656.69 -0.518446 -1.48828 0
M  V30 59640 C 5658.1 -0.0750429 -1.86549 0
M  V30 59641 C 5658.45 1.34424 -1.42914 0
M  V30 59642 O 5657.58 2.00478 -0.814718 0
M  V30 59643 C 5658.17 -0.129408 -3.38553 0
M  V30 59644 C 5656.73 0.258739 -3.7551 0
M  V30 59645 C 5655.88 -0.49428 -2.72859 0
M  V30 59646 H 5658.83 -0.730316 -1.40897 0
M  V30 59647 H 5658.85 0.661713 -3.74702 0
M  V30 59648 H 5658.36 -1.1625 -3.70281 0
M  V30 59649 H 5656.46 1.2944 -3.49394 0
M  V30 59650 H 5656.57 -0.0728453 -4.79045 0
M  V30 59651 H 5654.94 0.0580533 -2.54634 0
M  V30 59652 H 5655.72 -1.52778 -3.07431 0
M  V30 59653 N 5658.17 1.55555 -0.253048 0
M  V30 59654 C 5659.41 2.00997 0.371442 0
M  V30 59655 C 5659.77 1.13744 1.54681 0
M  V30 59656 O 5660.97 1.48668 2.23945 0
M  V30 59657 C 5659.24 3.49115 0.765082 0
M  V30 59658 S 5660.8 4.16561 1.37923 0
M  V30 59659 H 5657.62 0.701374 0.1166 0
M  V30 59660 H 5660.22 1.91972 -0.369721 0
M  V30 59661 H 5658.93 4.10279 -0.0995596 0
M  V30 59662 H 5658.46 3.62079 1.53827 0
M  V30 59663 H 5660.47 4.18356 2.6682 0
M  V30 59664 N 5659.64 -0.0199865 1.57587 0
M  V30 59665 C 5660.89 -0.708049 1.88864 0
M  V30 59666 C 5661.21 -1.76033 0.852754 0
M  V30 59667 O 5662.41 -2.50162 1.05506 0
M  V30 59668 C 5660.87 -1.31045 3.35194 0
M  V30 59669 C 5660.48 -0.294044 4.47034 0
M  V30 59670 C 5662.22 -1.97786 3.75607 0
M  V30 59671 C 5660.13 -0.905303 5.8443 0
M  V30 59672 H 5659.06 -0.268211 0.704683 0
M  V30 59673 H 5661.71 0.0372807 1.83462 0
M  V30 59674 H 5660.09 -2.10579 3.35369 0
M  V30 59675 H 5661.26 0.475242 4.58343 0
M  V30 59676 H 5659.58 0.27179 4.15512 0
M  V30 59677 H 5662.18 -2.44388 4.75583 0
M  V30 59678 H 5662.52 -2.79993 3.08074 0
M  V30 59679 H 5663.05 -1.25015 3.77646 0
M  V30 59680 H 5659.79 -0.122454 6.55386 0
M  V30 59681 H 5659.31 -1.64422 5.76824 0
M  V30 59682 H 5660.99 -1.40994 6.3145 0
M  V30 59683 N 5661.12 -1.54863 -0.292418 0
M  V30 59684 C 5662.07 -1.86408 -1.36091 0
M  V30 59685 C 5663.04 -0.713747 -1.49983 0
M  V30 59686 O 5664.23 -0.963192 -1.64704 0
M  V30 59687 C 5661.37 -2.1245 -2.71954 0
M  V30 59688 C 5660.48 -3.40048 -2.66442 0
M  V30 59689 C 5659.61 -3.55889 -3.94356 0
M  V30 59690 C 5658.65 -4.77248 -3.83276 0
M  V30 59691 N 5657.79 -4.89849 -5.02983 0
M  V30 59692 H 5662.63 -2.7755 -1.08491 0
M  V30 59693 H 5660.17 -1.37429 -0.524558 0
M  V30 59694 H 5662.12 -2.25545 -3.50977 0
M  V30 59695 H 5660.75 -1.24565 -2.97798 0
M  V30 59696 H 5659.81 -3.35527 -1.79236 0
M  V30 59697 H 5661.12 -4.29197 -2.54148 0
M  V30 59698 H 5660.27 -3.68696 -4.81818 0
M  V30 59699 H 5659.01 -2.64889 -4.09494 0
M  V30 59700 H 5658.02 -4.64465 -2.94198 0
M  V30 59701 H 5659.24 -5.69664 -3.69675 0
M  V30 59702 H 5657.19 -4.01775 -5.18568 0
M  V30 59703 H 5657.1 -5.73013 -4.93145 0
M  V30 59704 H 5658.37 -5.07022 -5.92072 0
M  V30 59705 N 5662.6 0.556024 -1.47466 0
M  V30 59706 C 5663.85 1.31509 -1.5438 0
M  V30 59707 C 5664.18 1.93105 -0.205905 0
M  V30 59708 O 5663.46 1.77929 0.78558 0
M  V30 59709 C 5663.74 2.4243 -2.6627 0
M  V30 59710 C 5663.59 1.85695 -4.0968 0
M  V30 59711 C 5664.91 3.4435 -2.74063 0
M  V30 59712 H 5662.03 0.476797 -0.56199 0
M  V30 59713 H 5664.67 0.622094 -1.79527 0
M  V30 59714 H 5662.82 3.01542 -2.44958 0
M  V30 59715 H 5664.49 1.30835 -4.42357 0
M  V30 59716 H 5662.74 1.16364 -4.17902 0
M  V30 59717 H 5663.41 2.65887 -4.83744 0
M  V30 59718 H 5665.88 2.95159 -2.93293 0
M  V30 59719 H 5664.76 4.19388 -3.54126 0
M  V30 59720 H 5665.02 4.03274 -1.81169 0
M  V30 59721 N 5664.08 1.35617 0.802849 0
M  V30 59722 C 5665.04 1.28712 1.89647 0
M  V30 59723 C 5666.04 0.197738 1.5958 0
M  V30 59724 O 5667.23 0.451677 1.68242 0
M  V30 59725 C 5664.36 0.992056 3.26146 0
M  V30 59726 H 5665.56 2.25958 1.97188 0
M  V30 59727 H 5663.11 1.20195 0.999136 0
M  V30 59728 H 5663.85 0.0236191 3.24291 0
M  V30 59729 H 5663.63 1.78025 3.49356 0
M  V30 59730 H 5665.12 0.969441 4.06192 0
M  V30 59731 N 5665.56 -1.02544 1.19676 0
M  V30 59732 C 5666.79 -1.7962 1.02686 0
M  V30 59733 C 5667.2 -1.83971 -0.42428 0
M  V30 59734 O 5666.56 -1.28625 -1.29467 0
M  V30 59735 C 5666.61 -3.24508 1.593 0
M  V30 59736 O 5666.33 -3.20451 2.98735 0
M  V30 59737 C 5667.83 -4.18168 1.47141 0
M  V30 59738 H 5665.05 -0.565155 0.36172 0
M  V30 59739 H 5667.59 -1.29137 1.58568 0
M  V30 59740 H 5665.75 -3.72169 1.07559 0
M  V30 59741 H 5666.16 -4.1133 3.25436 0
M  V30 59742 H 5667.64 -5.17707 1.91528 0
M  V30 59743 H 5668.11 -4.37163 0.422469 0
M  V30 59744 H 5668.72 -3.76383 1.9803 0
M  V30 59745 N 5667.04 -1.00123 -1.21709 0
M  V30 59746 C 5668.28 -0.6828 -1.9096 0
M  V30 59747 C 5668.61 0.784068 -1.77668 0
M  V30 59748 O 5667.89 1.56795 -1.1509 0
M  V30 59749 C 5668.17 -1.09987 -3.42892 0
M  V30 59750 C 5668.03 -2.62591 -3.65193 0
M  V30 59751 C 5669.34 -0.6594 -4.35132 0
M  V30 59752 H 5666.46 -0.249525 -0.693474 0
M  V30 59753 H 5669.11 -1.24624 -1.43418 0
M  V30 59754 H 5667.26 -0.620469 -3.83513 0
M  V30 59755 H 5668.93 -3.18266 -3.33923 0
M  V30 59756 H 5667.17 -3.04278 -3.09188 0
M  V30 59757 H 5667.84 -2.86825 -4.7163 0
M  V30 59758 H 5670.32 -1.0713 -4.02072 0
M  V30 59759 H 5669.19 -0.97943 -5.40091 0
M  V30 59760 H 5669.45 0.439622 -4.39909 0
M  V30 59761 N 5668.51 1.37201 -0.775483 0
M  V30 59762 C 5669.45 2.28873 -0.122454 0
M  V30 59763 C 5670.46 1.48813 0.660187 0
M  V30 59764 O 5671.65 1.71422 0.497664 0
M  V30 59765 C 5668.75 3.28065 0.850097 0
M  V30 59766 C 5667.92 4.37234 0.120479 0
M  V30 59767 C 5666.98 5.16476 1.00694 0
M  V30 59768 O 5666.01 5.67262 0.469329 0
M  V30 59769 N 5667.21 5.31564 2.3328 0
M  V30 59770 H 5669.97 2.85556 -0.909842 0
M  V30 59771 H 5667.53 1.49217 -0.628159 0
M  V30 59772 H 5669.53 3.77961 1.44664 0
M  V30 59773 H 5668.1 2.72123 1.53843 0
M  V30 59774 H 5667.32 3.88686 -0.657016 0
M  V30 59775 H 5668.6 5.07352 -0.383536 0
M  V30 59776 H 5668 4.91893 2.79389 0
M  V30 59777 H 5666.56 5.84755 2.87932 0
M  V30 59778 N 5669.99 0.526331 1.48551 0
M  V30 59779 C 5671.22 -0.00724141 2.07399 0
M  V30 59780 C 5671.64 -1.27733 1.3808 0
M  V30 59781 O 5671 -1.7574 0.445565 0
M  V30 59782 C 5671.05 -0.217999 3.5994 0
M  V30 59783 O 5670.15 -1.28745 3.91789 0
M  V30 59784 H 5669.49 0.0375017 0.66294 0
M  V30 59785 H 5672.02 0.7332 1.91011 0
M  V30 59786 H 5672.03 -0.441778 4.05601 0
M  V30 59787 H 5670.71 0.709812 4.09798 0
M  V30 59788 H 5669.28 -1.04662 3.57911 0
M  V30 59789 N 5671.47 -1.55419 0.261294 0
M  V30 59790 C 5672.42 -2.21974 -0.632138 0
M  V30 59791 C 5673.39 -1.18847 -1.16037 0
M  V30 59792 O 5674.57 -1.47344 -1.21221 0
M  V30 59793 C 5671.71 -2.93403 -1.81682 0
M  V30 59794 C 5670.82 -4.11219 -1.32376 0
M  V30 59795 C 5669.96 -4.70326 -2.46914 0
M  V30 59796 C 5669 -5.80362 -1.94541 0
M  V30 59797 N 5668.14 -6.33591 -3.025 0
M  V30 59798 H 5672.98 -2.97944 -0.0579133 0
M  V30 59799 H 5670.51 -1.4709 -0.0168208 0
M  V30 59800 H 5672.47 -3.33024 -2.51298 0
M  V30 59801 H 5671.1 -2.19882 -2.3633 0
M  V30 59802 H 5670.15 -3.76813 -0.521159 0
M  V30 59803 H 5671.46 -4.90613 -0.900042 0
M  V30 59804 H 5670.62 -5.12595 -3.24547 0
M  V30 59805 H 5669.36 -3.90179 -2.92594 0
M  V30 59806 H 5668.36 -5.37556 -1.15383 0
M  V30 59807 H 5669.59 -6.62369 -1.49813 0
M  V30 59808 H 5667.53 -5.56344 -3.47588 0
M  V30 59809 H 5667.45 -7.08219 -2.64504 0
M  V30 59810 H 5668.72 -6.80519 -3.8015 0
M  V30 59811 N 5672.95 0.011629 -1.57596 0
M  V30 59812 C 5673.88 1.04036 -2.03106 0
M  V30 59813 C 5674.86 1.34161 -0.918669 0
M  V30 59814 O 5676.04 1.46523 -1.18589 0
M  V30 59815 C 5673.17 2.37085 -2.41885 0
M  V30 59816 C 5672.22 2.227 -3.6374 0
M  V30 59817 S 5673.05 1.56398 -5.12152 0
M  V30 59818 C 5674.2 2.90902 -5.5419 0
M  V30 59819 H 5674.44 0.652797 -2.90045 0
M  V30 59820 H 5671.97 0.222147 -1.52794 0
M  V30 59821 H 5673.93 3.13593 -2.64896 0
M  V30 59822 H 5672.59 2.72984 -1.55366 0
M  V30 59823 H 5671.78 3.20962 -3.88586 0
M  V30 59824 H 5671.38 1.54337 -3.4067 0
M  V30 59825 H 5673.68 3.87217 -5.5594 0
M  V30 59826 H 5674.62 2.70769 -6.54286 0
M  V30 59827 H 5675.03 2.94276 -4.81728 0
M  V30 59828 N 5674.43 1.55016 0.284201 0
M  V30 59829 C 5675.65 1.79435 1.04009 0
M  V30 59830 C 5676.08 0.560317 1.79561 0
M  V30 59831 O 5675.43 -0.489742 1.7456 0
M  V30 59832 C 5675.48 3.01169 1.98317 0
M  V30 59833 O 5674.59 2.7547 3.06904 0
M  V30 59834 H 5673.93 0.593401 0.297944 0
M  V30 59835 H 5676.46 2.02137 0.316514 0
M  V30 59836 H 5676.47 3.29598 2.40477 0
M  V30 59837 H 5675.14 3.90639 1.42737 0
M  V30 59838 H 5673.72 2.58105 2.69139 0
M  V30 59839 N 5675.9 -0.548196 1.47758 0
M  V30 59840 C 5677.18 -1.30915 1.45329 0
M  V30 59841 C 5677.56 -2.1053 0.155082 0
M  V30 59842 O 5676.91 -2.11561 -0.863381 0
M  V30 59843 C 5677.12 -2.20605 2.70434 0
M  V30 59844 C 5678.47 -2.81334 3.18019 0
M  V30 59845 O 5679.49 -2.30902 2.71225 0
M  V30 59846 O 5678.35 -3.73022 3.99396 0
M  V30 59847 H 5675.44 -0.58994 0.579569 0
M  V30 59848 H 5677.99 -0.566353 1.5997 0
M  V30 59849 H 5676.76 -1.61436 3.56446 0
M  V30 59850 H 5676.39 -3.02164 2.58424 0
M  V30 59851 N 5677.38 -1.36041 -0.795646 0
M  V30 59852 C 5678.63 -1.30117 -1.55555 0
M  V30 59853 C 5678.96 0.121128 -1.93822 0
M  V30 59854 O 5678.24 1.07308 -1.6222 0
M  V30 59855 C 5678.52 -2.21802 -2.83683 0
M  V30 59856 C 5678.37 -3.727 -2.51822 0
M  V30 59857 C 5679.69 -2.12379 -3.85465 0
M  V30 59858 H 5676.81 -0.473991 -0.564359 0
M  V30 59859 H 5679.45 -1.66539 -0.914591 0
M  V30 59860 H 5677.6 -1.90872 -3.38379 0
M  V30 59861 H 5679.27 -4.14122 -2.03225 0
M  V30 59862 H 5677.52 -3.92442 -1.84855 0
M  V30 59863 H 5678.19 -4.32255 -3.43307 0
M  V30 59864 H 5680.66 -2.39592 -3.40198 0
M  V30 59865 H 5679.54 -2.78711 -4.72876 0
M  V30 59866 H 5679.8 -1.10913 -4.27961 0
M  V30 59867 N 5678.86 1.01908 -1.20218 0
M  V30 59868 C 5679.81 2.10397 -0.948782 0
M  V30 59869 C 5680.78 1.65665 0.120081 0
M  V30 59870 O 5681.96 1.90785 -0.0241217 0
M  V30 59871 C 5679.1 3.41396 -0.504252 0
M  V30 59872 C 5678.22 3.99619 -1.64099 0
M  V30 59873 C 5677.35 5.18669 -1.14701 0
M  V30 59874 C 5676.39 5.68969 -2.257 0
M  V30 59875 N 5675.53 6.79282 -1.77538 0
M  V30 59876 H 5680.37 2.31409 -1.87761 0
M  V30 59877 H 5677.9 1.13484 -0.935941 0
M  V30 59878 H 5679.86 4.16577 -0.227856 0
M  V30 59879 H 5678.49 3.20465 0.387576 0
M  V30 59880 H 5677.54 3.21558 -2.03236 0
M  V30 59881 H 5678.86 4.32957 -2.47689 0
M  V30 59882 H 5678.01 6.01045 -0.826434 0
M  V30 59883 H 5676.75 4.8689 -0.280968 0
M  V30 59884 H 5675.75 4.85199 -2.58577 0
M  V30 59885 H 5676.98 6.02783 -3.12776 0
M  V30 59886 H 5674.92 6.49338 -0.932567 0
M  V30 59887 H 5674.84 7.11799 -2.54711 0
M  V30 59888 H 5676.11 7.65229 -1.48473 0
M  V30 59889 N 5680.34 1.00767 1.21176 0
M  V30 59890 C 5681.58 0.700305 1.92029 0
M  V30 59891 C 5681.94 -0.755282 1.76521 0
M  V30 59892 O 5683.14 -1.17475 2.41771 0
M  V30 59893 C 5681.41 1.11306 3.39626 0
M  V30 59894 S 5682.97 0.926302 4.28912 0
M  V30 59895 H 5679.79 0.255583 0.663475 0
M  V30 59896 H 5682.39 1.29306 1.4663 0
M  V30 59897 H 5681.1 2.1685 3.48431 0
M  V30 59898 H 5680.63 0.512708 3.90045 0
M  V30 59899 H 5682.64 -0.175127 4.95891 0
M  V30 59900 N 5681.82 -1.36787 0.782749 0
M  V30 59901 C 5683.04 -2.03676 0.363806 0
M  V30 59902 C 5683.46 -1.59028 -1.01762 0
M  V30 59903 O 5682.82 -0.776599 -1.65152 0
M  V30 59904 C 5682.87 -3.59164 0.410339 0
M  V30 59905 O 5682.59 -4.02182 1.73728 0
M  V30 59906 C 5684.09 -4.43296 -0.0188162 0
M  V30 59907 H 5681.31 -0.653823 0.150852 0
M  V30 59908 H 5683.85 -1.74899 1.05974 0
M  V30 59909 H 5682.01 -3.86674 -0.237113 0
M  V30 59910 H 5682.42 -4.96748 1.6835 0
M  V30 59911 H 5683.9 -5.51962 0.0648884 0
M  V30 59912 H 5684.37 -4.25951 -1.07061 0
M  V30 59913 H 5684.98 -4.21034 0.600869 0
M  V30 59914 N 5683.29 -0.534202 -1.4827 0
M  V30 59915 C 5684.52 -0.00375755 -2.074 0
M  V30 59916 C 5684.94 1.26999 -1.38755 0
M  V30 59917 O 5684.3 1.75501 -0.454879 0
M  V30 59918 C 5684.35 0.198908 -3.60051 0
M  V30 59919 O 5683.45 1.26665 -3.92466 0
M  V30 59920 H 5682.8 -0.0410169 -0.662732 0
M  V30 59921 H 5685.33 -0.74332 -1.9062 0
M  V30 59922 H 5685.34 0.420261 -4.0583 0
M  V30 59923 H 5684.01 -0.731534 -4.09416 0
M  V30 59924 H 5682.59 1.02762 -3.58461 0
M  V30 59925 N 5684.77 1.55278 -0.269533 0
M  V30 59926 C 5686.02 1.99768 0.34936 0
M  V30 59927 C 5686.35 1.15767 1.55922 0
M  V30 59928 O 5685.63 0.226398 1.93178 0
M  V30 59929 C 5685.91 3.52477 0.737036 0
M  V30 59930 C 5685.76 4.47234 -0.479778 0
M  V30 59931 C 5687.08 4.1093 1.57559 0
M  V30 59932 H 5684.2 0.726234 0.12551 0
M  V30 59933 H 5686.84 1.86255 -0.375364 0
M  V30 59934 H 5684.99 3.64123 1.35451 0
M  V30 59935 H 5686.66 4.47539 -1.11832 0
M  V30 59936 H 5684.91 4.19123 -1.11885 0
M  V30 59937 H 5685.58 5.51754 -0.164847 0
M  V30 59938 H 5688.05 4.02526 1.05415 0
M  V30 59939 H 5686.93 5.18001 1.81566 0
M  V30 59940 H 5687.19 3.60807 2.55482 0
M  V30 59941 N 5686.25 -0.00327115 1.576 0
M  V30 59942 C 5687.5 -0.689823 1.90707 0
M  V30 59943 C 5687.83 -1.73604 0.870352 0
M  V30 59944 O 5687.1 -1.94181 -0.111347 0
M  V30 59945 C 5687.39 -1.33594 3.34402 0
M  V30 59946 C 5687.24 -0.30148 4.48789 0
M  V30 59947 C 5688.56 -2.263 3.7746 0
M  V30 59948 H 5685.68 -0.249303 0.693554 0
M  V30 59949 H 5688.32 0.0473514 1.89941 0
M  V30 59950 H 5686.47 -1.96425 3.35186 0
M  V30 59951 H 5688.14 0.3269 4.6014 0
M  V30 59952 H 5686.39 0.376603 4.32162 0
M  V30 59953 H 5687.06 -0.792549 5.46281 0
M  V30 59954 H 5689.53 -1.73489 3.78208 0
M  V30 59955 H 5688.41 -2.68476 4.78761 0
M  V30 59956 H 5688.67 -3.14071 3.11146 0
M  V30 59957 N 5687.73 -1.55165 -0.275976 0
M  V30 59958 C 5688.66 -1.90849 -1.34533 0
M  V30 59959 C 5689.64 -0.770021 -1.51673 0
M  V30 59960 O 5690.82 -1.0279 -1.64766 0
M  V30 59961 C 5687.95 -2.17779 -2.70536 0
M  V30 59962 C 5686.91 -3.33602 -2.6813 0
M  V30 59963 C 5686.23 -3.46005 -4.07657 0
M  V30 59964 C 5687.53 -4.70072 -2.27662 0
M  V30 59965 H 5689.23 -2.80416 -1.04916 0
M  V30 59966 H 5686.77 -1.3492 -0.503256 0
M  V30 59967 H 5688.73 -2.41329 -3.45453 0
M  V30 59968 H 5687.45 -1.25008 -3.01729 0
M  V30 59969 H 5686.11 -3.10014 -1.9567 0
M  V30 59970 H 5685.76 -2.50706 -4.36068 0
M  V30 59971 H 5685.46 -4.23876 -4.06943 0
M  V30 59972 H 5686.98 -3.71845 -4.84318 0
M  V30 59973 H 5688.4 -4.93186 -2.92301 0
M  V30 59974 H 5686.79 -5.50837 -2.38115 0
M  V30 59975 H 5687.86 -4.69095 -1.22792 0
M  V30 59976 N 5689.21 0.540352 -1.48047 0
M  V30 59977 C 5690.14 1.65532 -1.64685 0
M  V30 59978 C 5691.12 1.62711 -0.495905 0
M  V30 59979 O 5692.3 1.80069 -0.727236 0
M  V30 59980 C 5689.43 3.04144 -1.67672 0
M  V30 59981 C 5688.39 3.2182 -2.82163 0
M  V30 59982 C 5687.71 4.61388 -2.70232 0
M  V30 59983 C 5689.01 3.05581 -4.23577 0
M  V30 59984 H 5690.71 1.51863 -2.58027 0
M  V30 59985 H 5688.25 0.729164 -1.24174 0
M  V30 59986 H 5690.21 3.82007 -1.77901 0
M  V30 59987 H 5688.93 3.18811 -0.709019 0
M  V30 59988 H 5687.59 2.46371 -2.71472 0
M  V30 59989 H 5687.24 4.72877 -1.71453 0
M  V30 59990 H 5686.94 4.74161 -3.47051 0
M  V30 59991 H 5688.46 5.41364 -2.82414 0
M  V30 59992 H 5689.87 3.73245 -4.35156 0
M  V30 59993 H 5688.27 3.29854 -5.01315 0
M  V30 59994 H 5689.34 2.02124 -4.40765 0
M  V30 59995 N 5690.69 1.36461 0.78842 0
M  V30 59996 C 5691.91 1.34069 1.58242 0
M  V30 59997 C 5692.34 -0.0754272 1.87949 0
M  V30 59998 O 5691.69 -1.04767 1.47965 0
M  V30 59999 C 5691.74 2.17048 2.87962 0
M  V30 60000 O 5690.85 1.56366 3.81606 0
M  V30 60001 H 5690.19 0.458833 0.479967 0
M  V30 60002 H 5692.72 1.79758 0.977144 0
M  V30 60003 H 5692.73 2.29663 3.37222 0
M  V30 60004 H 5691.4 3.1999 2.65667 0
M  V30 60005 H 5689.98 1.52697 3.40203 0
M  V30 60006 N 5692.16 -1.01269 1.20757 0
M  V30 60007 C 5693.41 -1.75187 1.02163 0
M  V30 60008 C 5693.74 -1.89039 -0.444725 0
M  V30 60009 O 5693.02 -1.41908 -1.33013 0
M  V30 60010 C 5693.3 -3.16886 1.71042 0
M  V30 60011 C 5693.15 -3.10805 3.25147 0
M  V30 60012 C 5694.47 -4.15643 1.44669 0
M  V30 60013 H 5691.59 -0.635909 0.372544 0
M  V30 60014 H 5694.23 -1.18114 1.48826 0
M  V30 60015 H 5692.38 -3.65615 1.3137 0
M  V30 60016 H 5694.06 -2.69849 3.74138 0
M  V30 60017 H 5692.3 -2.48101 3.55849 0
M  V30 60018 H 5692.97 -4.10988 3.68501 0
M  V30 60019 H 5695.45 -3.75586 1.79093 0
M  V30 60020 H 5694.32 -5.12947 1.95389 0
M  V30 60021 H 5694.58 -4.40506 0.375095 0
M  V30 60022 N 5693.64 -1.01408 -1.2064 0
M  V30 60023 C 5694.57 -0.602545 -2.25592 0
M  V30 60024 C 5695.55 0.381158 -1.65775 0
M  V30 60025 O 5696.74 0.267142 -1.92354 0
M  V30 60026 C 5693.87 0.0625024 -3.47244 0
M  V30 60027 C 5692.82 -0.841924 -4.19638 0
M  V30 60028 C 5692.15 -0.0427881 -5.34683 0
M  V30 60029 C 5693.45 -2.1488 -4.7605 0
M  V30 60030 H 5695.14 -1.47986 -2.6027 0
M  V30 60031 H 5692.69 -0.71301 -1.25109 0
M  V30 60032 H 5694.64 0.361948 -4.19843 0
M  V30 60033 H 5693.36 0.974518 -3.11722 0
M  V30 60034 H 5692.02 -1.12533 -3.48901 0
M  V30 60035 H 5691.67 0.870799 -4.95405 0
M  V30 60036 H 5691.37 -0.645071 -5.84048 0
M  V30 60037 H 5692.9 0.250261 -6.10087 0
M  V30 60038 H 5694.31 -1.91189 -5.40481 0
M  V30 60039 H 5692.71 -2.70172 -5.35842 0
M  V30 60040 H 5693.78 -2.8135 -3.94931 0
M  V30 60041 N 5695.12 1.3637 -0.789992 0
M  V30 60042 C 5696.05 2.2873 -0.146722 0
M  V30 60043 C 5697.06 1.49505 0.644366 0
M  V30 60044 O 5698.25 1.7194 0.479454 0
M  V30 60045 C 5695.35 3.28948 0.815253 0
M  V30 60046 C 5694.53 4.37337 0.0740978 0
M  V30 60047 C 5693.59 5.17515 0.952102 0
M  V30 60048 O 5692.61 5.67728 0.409137 0
M  V30 60049 N 5693.81 5.34009 2.27629 0
M  V30 60050 H 5696.58 2.84574 -0.940078 0
M  V30 60051 H 5694.14 1.48543 -0.643951 0
M  V30 60052 H 5696.13 3.79474 1.40648 0
M  V30 60053 H 5694.7 2.7374 1.50948 0
M  V30 60054 H 5693.92 3.87967 -0.698204 0
M  V30 60055 H 5695.21 5.06917 -0.437326 0
M  V30 60056 H 5694.61 4.94828 2.74156 0
M  V30 60057 H 5693.16 5.87776 2.81714 0
M  V30 60058 N 5696.6 0.542057 1.47985 0
M  V30 60059 C 5697.53 -0.25135 2.27818 0
M  V30 60060 C 5698.54 -0.893388 1.36097 0
M  V30 60061 O 5699.73 -0.769793 1.61048 0
M  V30 60062 C 5696.83 -1.37225 3.09875 0
M  V30 60063 C 5696 -0.82987 4.29455 0
M  V30 60064 C 5695.06 -1.83339 4.93228 0
M  V30 60065 O 5694.09 -1.38552 5.5208 0
M  V30 60066 N 5695.29 -3.16614 4.86555 0
M  V30 60067 H 5698.06 0.433385 2.9655 0
M  V30 60068 H 5695.62 0.377154 1.57446 0
M  V30 60069 H 5697.61 -2.042 3.49406 0
M  V30 60070 H 5696.18 -1.96046 2.43484 0
M  V30 60071 H 5695.4 0.0162213 3.94197 0
M  V30 60072 H 5696.69 -0.446583 5.06836 0
M  V30 60073 H 5696.09 -3.55658 4.39914 0
M  V30 60074 H 5694.64 -3.79188 5.30151 0
M  V30 60075 N 5698.08 -1.55133 0.277764 0
M  V30 60076 C 5699.01 -2.25602 -0.602153 0
M  V30 60077 C 5699.99 -1.24712 -1.15676 0
M  V30 60078 O 5701.17 -1.53437 -1.19041 0
M  V30 60079 C 5698.3 -2.97913 -1.78508 0
M  V30 60080 C 5697.26 -4.05754 -1.36189 0
M  V30 60081 C 5696.58 -4.65654 -2.62813 0
M  V30 60082 C 5697.88 -5.19803 -0.510144 0
M  V30 60083 H 5699.58 -2.99397 -0.014457 0
M  V30 60084 H 5697.12 -1.43999 -0.00551326 0
M  V30 60085 H 5699.07 -3.45923 -2.40656 0
M  V30 60086 H 5697.8 -2.21658 -2.39865 0
M  V30 60087 H 5696.46 -3.58559 -0.7636 0
M  V30 60088 H 5696.11 -3.86064 -3.22434 0
M  V30 60089 H 5695.81 -5.38471 -2.35208 0
M  V30 60090 H 5697.33 -5.16414 -3.25804 0
M  V30 60091 H 5698.74 -5.63849 -1.03669 0
M  V30 60092 H 5697.14 -5.99198 -0.328862 0
M  V30 60093 H 5698.21 -4.82613 0.470443 0
M  V30 60094 N 5699.55 -0.00508679 -1.57599 0
M  V30 60095 C 5700.97 0.351054 -1.55691 0
M  V30 60096 C 5701.17 1.74461 -1.00824 0
M  V30 60097 O 5700.23 2.44141 -0.644305 0
M  V30 60098 C 5701.54 0.221632 -2.99882 0
M  V30 60099 C 5703.09 0.296194 -3.11595 0
M  V30 60100 C 5703.56 0.195838 -4.57581 0
M  V30 60101 N 5705.05 0.253579 -4.62505 0
M  V30 60102 C 5705.79 0.199344 -5.73053 0
M  V30 60103 N 5705.28 0.0954117 -6.92734 0
M  V30 60104 N 5707.08 0.251581 -5.61537 0
M  V30 60105 H 5699.23 -0.916645 -1.91602 0
M  V30 60106 H 5701.49 -0.351833 -0.880294 0
M  V30 60107 H 5701.2 -0.737376 -3.43883 0
M  V30 60108 H 5701.07 1.00165 -3.63658 0
M  V30 60109 H 5703.46 1.24565 -2.67521 0
M  V30 60110 H 5703.54 -0.51378 -2.50587 0
M  V30 60111 H 5703.18 -0.750094 -5.02331 0
M  V30 60112 H 5703.11 1.02436 -5.16541 0
M  V30 60113 H 5705.6 0.33503 -3.76412 0
M  V30 60114 H 5705.92 0.060064 -7.72777 0
M  V30 60115 H 5704.26 0.060967 -6.94973 0
M  V30 60116 H 5707.45 0.331009 -4.66928 0
M  V30 60117 H 5707.63 0.20585 -6.47673 0
M  V30 60118 N 5701.03 1.55309 0.267743 0
M  V30 60119 C 5702.28 1.76424 1.00012 0
M  V30 60120 C 5702.61 0.566624 1.8575 0
M  V30 60121 O 5701.89 -0.435685 1.89557 0
M  V30 60122 C 5702.17 3.07235 1.87825 0
M  V30 60123 C 5702.02 4.37362 1.05046 0
M  V30 60124 C 5703.34 3.34123 2.86443 0
M  V30 60125 H 5700.46 0.641871 0.362174 0
M  V30 60126 H 5703.1 1.88041 0.272121 0
M  V30 60127 H 5701.25 2.97462 2.49897 0
M  V30 60128 H 5702.92 4.59099 0.450047 0
M  V30 60129 H 5701.17 4.32352 0.35409 0
M  V30 60130 H 5701.84 5.25229 1.6982 0
M  V30 60131 H 5704.31 3.43724 2.34507 0
M  V30 60132 H 5703.19 4.26908 3.45023 0
M  V30 60133 H 5703.45 2.54018 3.61839 0
M  V30 60134 N 5702.51 -0.532493 1.48332 0
M  V30 60135 C 5703.42 -1.66427 1.65345 0
M  V30 60136 C 5704.44 -1.65539 0.535997 0
M  V30 60137 O 5705.61 -1.84536 0.806744 0
M  V30 60138 C 5702.68 -3.02895 1.68687 0
M  V30 60139 C 5701.74 -3.14659 2.92042 0
M  V30 60140 C 5700.97 -4.44617 2.95214 0
M  V30 60141 O 5701.19 -5.31565 2.0687 0
M  V30 60142 O 5700.13 -4.60693 3.87357 0
M  V30 60143 H 5703.95 -1.55011 2.61161 0
M  V30 60144 H 5701.54 -0.705302 1.31704 0
M  V30 60145 H 5703.42 -3.84062 1.7342 0
M  V30 60146 H 5702.1 -3.14641 0.760437 0
M  V30 60147 H 5701 -2.32797 2.92842 0
M  V30 60148 H 5702.34 -3.07828 3.84061 0
M  V30 60149 N 5703.99 -1.36878 -0.781172 0
M  V30 60150 C 5705.21 -1.34906 -1.57528 0
M  V30 60151 C 5705.64 0.0654588 -1.87986 0
M  V30 60152 O 5705 1.03981 -1.48518 0
M  V30 60153 C 5705.04 -2.18573 -2.86807 0
M  V30 60154 O 5704.15 -1.58388 -3.80772 0
M  V30 60155 H 5703.49 -0.461372 -0.477527 0
M  V30 60156 H 5706.02 -1.80274 -0.967597 0
M  V30 60157 H 5706.03 -2.31448 -3.36 0
M  V30 60158 H 5704.7 -3.21395 -2.63966 0
M  V30 60159 H 5703.28 -1.54499 -3.39388 0
M  V30 60160 N 5705.47 1.00628 -1.21292 0
M  V30 60161 C 5706.69 1.78499 -1.05607 0
M  V30 60162 C 5707.12 1.84016 0.389814 0
M  V30 60163 O 5706.47 1.28281 1.28115 0
M  V30 60164 C 5706.52 3.20307 -1.65637 0
M  V30 60165 O 5705.63 4.02438 -0.900982 0
M  V30 60166 H 5704.97 0.55017 -0.371765 0
M  V30 60167 H 5707.5 1.26499 -1.60808 0
M  V30 60168 H 5707.51 3.70986 -1.69805 0
M  V30 60169 H 5706.18 3.15606 -2.70861 0
M  V30 60170 H 5704.76 3.61006 -0.934304 0
M  V30 60171 N 5706.94 1.02047 1.20101 0
M  V30 60172 C 5708.17 0.73121 1.94083 0
M  V30 60173 C 5708.59 -0.702405 1.74493 0
M  V30 60174 O 5707.95 -1.48384 1.04173 0
M  V30 60175 C 5708 1.07703 3.4414 0
M  V30 60176 O 5707.1 0.190896 4.11958 0
M  V30 60177 H 5706.45 0.270938 0.606208 0
M  V30 60178 H 5708.98 1.36488 1.52421 0
M  V30 60179 H 5708.99 1.03037 3.94775 0
M  V30 60180 H 5707.66 2.12152 3.57721 0
M  V30 60181 H 5706.24 0.295421 3.71728 0
M  V30 60182 N 5708.42 -1.3595 0.797213 0
M  V30 60183 C 5709.37 -2.2994 0.199076 0
M  V30 60184 C 5710.34 -1.52358 -0.661539 0
M  V30 60185 O 5711.52 -1.80834 -0.608587 0
M  V30 60186 C 5708.66 -3.38848 -0.653914 0
M  V30 60187 C 5707.78 -4.31408 0.2261 0
M  V30 60188 C 5706.91 -5.27403 -0.634002 0
M  V30 60189 C 5705.95 -6.11601 0.246988 0
M  V30 60190 N 5705.09 -6.99762 -0.572544 0
M  V30 60191 H 5709.93 -2.80505 1.00604 0
M  V30 60192 H 5707.47 -1.38062 0.507665 0
M  V30 60193 H 5709.42 -4.00647 -1.16353 0
M  V30 60194 H 5708.05 -2.89583 -1.42623 0
M  V30 60195 H 5707.11 -3.70696 0.853746 0
M  V30 60196 H 5708.42 -4.90529 0.904588 0
M  V30 60197 H 5707.57 -5.94529 -1.20912 0
M  V30 60198 H 5706.31 -4.68755 -1.34609 0
M  V30 60199 H 5705.32 -5.43431 0.834449 0
M  V30 60200 H 5706.54 -6.72326 0.956795 0
M  V30 60201 H 5704.49 -6.43613 -1.26878 0
M  V30 60202 H 5704.4 -7.55985 0.048096 0
M  V30 60203 H 5705.67 -7.71248 -1.13124 0
M  V30 60204 N 5709.9 -0.549898 -1.47695 0
M  V30 60205 C 5710.83 0.190282 -2.32723 0
M  V30 60206 C 5711.81 0.915882 -1.43337 0
M  V30 60207 O 5713 0.897777 -1.72202 0
M  V30 60208 C 5710.13 1.22534 -3.24966 0
M  V30 60209 C 5709.08 0.616656 -4.23534 0
M  V30 60210 C 5708.41 1.75582 -5.0505 0
M  V30 60211 C 5709.71 -0.424778 -5.2057 0
M  V30 60212 H 5711.4 -0.519565 -2.94857 0
M  V30 60213 H 5708.95 -0.251309 -1.4179 0
M  V30 60214 H 5710.9 1.75126 -3.83287 0
M  V30 60215 H 5709.62 1.96503 -2.60872 0
M  V30 60216 H 5708.28 0.112095 -3.66429 0
M  V30 60217 H 5707.93 2.48437 -4.37365 0
M  V30 60218 H 5707.63 1.35436 -5.71779 0
M  V30 60219 H 5709.15 2.28514 -5.66228 0
M  V30 60220 H 5710.57 0.014801 -5.73298 0
M  V30 60221 H 5708.97 -0.744709 -5.95461 0
M  V30 60222 H 5710.04 -1.32335 -4.66493 0
M  V30 60223 N 5711.38 1.54983 -0.285987 0
M  V30 60224 C 5712.62 2.0085 0.321092 0
M  V30 60225 C 5712.98 1.17091 1.52668 0
M  V30 60226 O 5712.27 0.235589 1.90146 0
M  V30 60227 C 5712.47 3.49584 0.743377 0
M  V30 60228 C 5712.3 4.47737 -0.419743 0
M  V30 60229 C 5711.07 4.97093 -0.906996 0
M  V30 60230 C 5713.26 4.98631 -1.25981 0
M  V30 60231 N 5711.25 5.79069 -2.03845 0
M  V30 60232 C 5712.62 5.78161 -2.23898 0
M  V30 60233 C 5714.67 4.80847 -1.29191 0
M  V30 60234 C 5713.37 6.41801 -3.24782 0
M  V30 60235 C 5715.4 5.45295 -2.28926 0
M  V30 60236 C 5714.76 6.24645 -3.25574 0
M  V30 60237 H 5710.86 0.77765 0.0823678 0
M  V30 60238 H 5713.45 1.9028 -0.412485 0
M  V30 60239 H 5711.62 3.60473 1.44616 0
M  V30 60240 H 5713.35 3.82266 1.32871 0
M  V30 60241 H 5710.1 4.71116 -0.484471 0
M  V30 60242 H 5710.53 6.24745 -2.60812 0
M  V30 60243 H 5715.17 4.19095 -0.558466 0
M  V30 60244 H 5712.89 7.02696 -3.99054 0
M  V30 60245 H 5716.47 5.33471 -2.32164 0
M  V30 60246 H 5715.35 6.73631 -4.01486 0
M  V30 60247 N 5712.86 0.0134446 1.57594 0
M  V30 60248 C 5713.82 -0.958527 2.08194 0
M  V30 60249 C 5714.82 -1.26404 0.99391 0
M  V30 60250 O 5716.01 -1.20699 1.25608 0
M  V30 60251 C 5713.14 -2.27962 2.53468 0
M  V30 60252 H 5714.33 -0.520582 2.95347 0
M  V30 60253 H 5711.89 -0.234297 1.54534 0
M  V30 60254 H 5712.62 -2.76418 1.69598 0
M  V30 60255 H 5712.41 -2.07104 3.32942 0
M  V30 60256 H 5713.9 -2.97661 2.92895 0
M  V30 60257 N 5714.33 -1.55449 -0.259503 0
M  V30 60258 C 5715.27 -1.85683 -1.34367 0
M  V30 60259 C 5716.28 -0.742206 -1.44897 0
M  V30 60260 O 5717.47 -1.0202 -1.46472 0
M  V30 60261 C 5714.57 -2.01678 -2.72359 0
M  V30 60262 C 5713.74 -3.32444 -2.84253 0
M  V30 60263 C 5712.8 -3.38336 -4.03007 0
M  V30 60264 O 5711.83 -4.11629 -3.93128 0
M  V30 60265 N 5713.03 -2.66715 -5.156 0
M  V30 60266 H 5715.79 -2.79265 -1.08771 0
M  V30 60267 H 5713.35 -1.55532 -0.449618 0
M  V30 60268 H 5715.35 -2.02975 -3.50119 0
M  V30 60269 H 5713.92 -1.14899 -2.90718 0
M  V30 60270 H 5713.14 -3.43571 -1.93269 0
M  V30 60271 H 5714.42 -4.18659 -2.8914 0
M  V30 60272 H 5713.82 -2.06876 -5.26516 0
M  V30 60273 H 5712.38 -2.73719 -5.91541 0
M  V30 60274 N 5715.81 0.524619 -1.48612 0
M  V30 60275 C 5717.05 1.29058 -1.58504 0
M  V30 60276 C 5717.42 1.90293 -0.255445 0
M  V30 60277 O 5718.62 2.67819 -0.229383 0
M  V30 60278 C 5716.89 2.34684 -2.69552 0
M  V30 60279 S 5718.45 3.20933 -2.99244 0
M  V30 60280 H 5715.27 0.438928 -0.559341 0
M  V30 60281 H 5717.87 0.597053 -1.8616 0
M  V30 60282 H 5716.57 1.88187 -3.64711 0
M  V30 60283 H 5716.1 3.08736 -2.43815 0
M  V30 60284 H 5718.12 4.34875 -2.38953 0
M  V30 60285 N 5717.29 1.3729 0.773902 0
M  V30 60286 C 5718.54 1.32575 1.53465 0
M  V30 60287 C 5718.87 -0.0902778 1.9399 0
M  V30 60288 O 5718.14 -1.04713 1.63907 0
M  V30 60289 C 5718.43 2.26287 2.80118 0
M  V30 60290 C 5718.28 3.76659 2.45861 0
M  V30 60291 C 5719.6 2.18485 3.82037 0
M  V30 60292 H 5716.72 0.48291 0.556747 0
M  V30 60293 H 5719.36 1.67973 0.88798 0
M  V30 60294 H 5717.51 1.96231 3.35299 0
M  V30 60295 H 5719.18 4.17303 1.96611 0
M  V30 60296 H 5717.43 3.95334 1.78588 0
M  V30 60297 H 5718.1 4.37662 3.36387 0
M  V30 60298 H 5720.57 2.44974 3.36344 0
M  V30 60299 H 5719.45 2.86199 4.68382 0
M  V30 60300 H 5719.71 1.17707 4.26142 0
M  V30 60301 N 5718.77 -0.999829 1.21824 0
M  V30 60302 C 5719.7 -2.09041 0.939926 0
M  V30 60303 C 5720.71 -1.62609 -0.0788416 0
M  V30 60304 O 5721.9 -1.77832 0.154304 0
M  V30 60305 C 5719 -3.3664 0.390737 0
M  V30 60306 C 5718.18 -4.12134 1.46507 0
M  V30 60307 C 5717.23 -5.1802 0.924201 0
M  V30 60308 O 5716.26 -5.4599 1.60883 0
M  V30 60309 N 5717.46 -5.79927 -0.257932 0
M  V30 60310 H 5720.23 -2.33499 1.87878 0
M  V30 60311 H 5717.79 -1.16505 1.12419 0
M  V30 60312 H 5719.78 -4.04697 0.0143772 0
M  V30 60313 H 5718.35 -3.09299 -0.453067 0
M  V30 60314 H 5717.57 -3.38805 2.01506 0
M  V30 60315 H 5718.86 -4.59346 2.18811 0
M  V30 60316 H 5718.26 -5.59562 -0.831091 0
M  V30 60317 H 5716.81 -6.49252 -0.575749 0
M  V30 60318 N 5720.25 -1.02682 -1.19558 0
M  V30 60319 C 5721.18 -0.626438 -2.2494 0
M  V30 60320 C 5722.16 0.363554 -1.66169 0
M  V30 60321 O 5723.34 0.246725 -1.92626 0
M  V30 60322 C 5720.47 0.0256691 -3.47291 0
M  V30 60323 C 5719.43 -0.886384 -4.18721 0
M  V30 60324 C 5718.75 -0.099496 -5.34607 0
M  V30 60325 C 5720.05 -2.19917 -4.73744 0
M  V30 60326 H 5721.75 -1.50739 -2.58686 0
M  V30 60327 H 5719.29 -0.726239 -1.24345 0
M  V30 60328 H 5721.25 0.317397 -4.20203 0
M  V30 60329 H 5719.97 0.941401 -3.12738 0
M  V30 60330 H 5718.63 -1.16228 -3.47688 0
M  V30 60331 H 5718.28 0.818205 -4.96301 0
M  V30 60332 H 5717.98 -0.706981 -5.83331 0
M  V30 60333 H 5719.5 0.18554 -6.10318 0
M  V30 60334 H 5720.92 -1.96911 -5.38423 0
M  V30 60335 H 5719.31 -2.7584 -5.32947 0
M  V30 60336 H 5720.38 -2.85523 -3.91924 0
M  V30 60337 N 5721.73 1.35525 -0.804411 0
M  V30 60338 C 5722.68 2.2724 -0.18599 0
M  V30 60339 C 5723.66 1.47671 0.638904 0
M  V30 60340 O 5724.85 1.69893 0.496519 0
M  V30 60341 C 5721.98 3.36771 0.666328 0
M  V30 60342 C 5721.07 4.23766 -0.168176 0
M  V30 60343 N 5721.46 4.90614 -1.23011 0
M  V30 60344 C 5719.76 4.45971 0.050552 0
M  V30 60345 C 5720.46 5.55085 -1.7394 0
M  V30 60346 N 5719.43 5.33438 -1.0462 0
M  V30 60347 H 5723.23 2.76416 -0.998564 0
M  V30 60348 H 5720.75 1.49027 -0.645353 0
M  V30 60349 H 5722.75 4.01423 1.1254 0
M  V30 60350 H 5721.41 2.89148 1.47728 0
M  V30 60351 H 5722.42 4.9215 -1.61274 0
M  V30 60352 H 5719.09 4.0915 0.830814 0
M  V30 60353 H 5720.48 6.18424 -2.6268 0
M  V30 60354 N 5723.2 0.557723 1.47402 0
M  V30 60355 C 5724.15 -0.202752 2.31715 0
M  V30 60356 C 5725.15 -0.908823 1.42957 0
M  V30 60357 O 5726.35 -0.83005 1.59719 0
M  V30 60358 H 5722.73 -0.0842561 0.747265 0
M  V30 60359 H 5724.7 0.527534 2.937 0
M  V30 60360 C 5723.45 -1.21925 3.25622 0
M  V30 60361 H 5722.77 -0.685367 3.93882 0
M  V30 60362 H 5724.21 -1.72224 3.87447 0
M  V30 60363 C 5722.67 -2.26739 2.49181 0
M  V30 60364 O 5723.2 -3.33673 2.23663 0
M  V30 60365 N 5721.4 -2.0068 2.10181 0
M  V30 60366 H 5720.95 -1.13732 2.31134 0
M  V30 60367 H 5720.91 -2.71025 1.59351 0
M  V30 60368 N 5724.68 -1.5483 0.294202 0
M  V30 60369 C 5725.96 -1.92072 -0.369835 0
M  V30 60370 C 5726.34 -1.22067 -1.72229 0
M  V30 60371 O 5725.69 -0.354055 -2.2574 0
M  V30 60372 C 5725.9 -3.45526 -0.491229 0
M  V30 60373 C 5727.24 -4.17647 -0.765264 0
M  V30 60374 O 5728.27 -3.51523 -0.575304 0
M  V30 60375 O 5727.13 -5.34696 -1.12973 0
M  V30 60376 H 5724.22 -0.80104 -0.205582 0
M  V30 60377 H 5726.77 -1.66223 0.341761 0
M  V30 60378 H 5725.54 -3.88589 0.4598 0
M  V30 60379 H 5725.16 -3.77388 -1.25155 0
M  V30 60380 N 5726.16 -0.021802 -1.57585 0
M  V30 60381 C 5727.41 0.657726 -1.90675 0
M  V30 60382 C 5727.72 1.7371 -0.899127 0
M  V30 60383 O 5728.93 2.47276 -1.12101 0
M  V30 60384 C 5727.38 1.22112 -3.38551 0
M  V30 60385 C 5726.99 0.175418 -4.47656 0
M  V30 60386 C 5728.74 1.87758 -3.80719 0
M  V30 60387 C 5726.64 0.750033 -5.86625 0
M  V30 60388 H 5725.57 0.249434 -0.711547 0
M  V30 60389 H 5728.22 -0.0859093 -1.83299 0
M  V30 60390 H 5726.61 2.01613 -3.40835 0
M  V30 60391 H 5727.78 -0.596597 -4.56922 0
M  V30 60392 H 5726.09 -0.38186 -4.14645 0
M  V30 60393 H 5728.69 2.31693 -4.81895 0
M  V30 60394 H 5729.03 2.71726 -3.15389 0
M  V30 60395 H 5729.57 1.14958 -3.80827 0
M  V30 60396 H 5726.31 -0.0513526 -6.5548 0
M  V30 60397 H 5725.83 1.4907 -5.8098 0
M  V30 60398 H 5727.51 1.24203 -6.34967 0
M  V30 60399 N 5727.64 1.55584 0.251256 0
M  V30 60400 C 5728.57 1.92965 1.31479 0
M  V30 60401 C 5729.55 0.794054 1.50429 0
M  V30 60402 O 5730.73 1.05399 1.6311 0
M  V30 60403 C 5727.86 2.22055 2.67037 0
M  V30 60404 C 5726.82 3.37825 2.62789 0
M  V30 60405 C 5726.14 3.52447 4.02101 0
M  V30 60406 C 5727.44 4.73634 2.20155 0
M  V30 60407 H 5729.14 2.82049 1.00441 0
M  V30 60408 H 5726.68 1.35703 0.481727 0
M  V30 60409 H 5728.64 2.46795 3.4157 0
M  V30 60410 H 5727.36 1.29792 2.99702 0
M  V30 60411 H 5726.02 3.13088 1.90713 0
M  V30 60412 H 5725.67 2.57612 4.32025 0
M  V30 60413 H 5725.37 4.30297 4.00148 0
M  V30 60414 H 5726.89 3.79503 4.78341 0
M  V30 60415 H 5728.31 4.97774 2.84418 0
M  V30 60416 H 5726.7 5.54555 2.29321 0
M  V30 60417 H 5727.77 4.70989 1.15314 0
M  V30 60418 N 5729.12 -0.516731 1.48888 0
M  V30 60419 C 5730.05 -1.62891 1.67298 0
M  V30 60420 C 5731.03 -1.61901 0.521728 0
M  V30 60421 O 5732.21 -1.78889 0.755791 0
M  V30 60422 C 5729.34 -3.01438 1.72489 0
M  V30 60423 C 5728.3 -3.1729 2.87247 0
M  V30 60424 C 5727.62 -4.5703 2.77538 0
M  V30 60425 C 5728.92 -2.98803 4.28385 0
M  V30 60426 H 5730.62 -1.47739 2.6041 0
M  V30 60427 H 5728.16 -0.709317 1.25318 0
M  V30 60428 H 5730.11 -3.79128 1.83956 0
M  V30 60429 H 5728.84 -3.17643 0.759649 0
M  V30 60430 H 5727.5 -2.42021 2.75357 0
M  V30 60431 H 5727.15 -4.7009 1.78955 0
M  V30 60432 H 5726.85 -4.6858 3.54551 0
M  V30 60433 H 5728.37 -5.36802 2.90991 0
M  V30 60434 H 5729.78 -3.66275 4.41039 0
M  V30 60435 H 5728.18 -3.21837 5.06499 0
M  V30 60436 H 5729.25 -1.95087 4.43925 0
M  V30 60437 N 5730.59 -1.37698 -0.766611 0
M  V30 60438 C 5731.56 -1.33695 -1.86167 0
M  V30 60439 C 5732.56 -0.239978 -1.58999 0
M  V30 60440 O 5733.75 -0.496124 -1.66986 0
M  V30 60441 C 5730.88 -1.07818 -3.23401 0
M  V30 60442 H 5732.07 -2.31106 -1.91128 0
M  V30 60443 H 5729.62 -1.22802 -0.966917 0
M  V30 60444 H 5730.36 -0.109591 -3.24115 0
M  V30 60445 H 5730.14 -1.87225 -3.44513 0
M  V30 60446 H 5731.63 -1.07679 -4.03478 0
M  V30 60447 N 5732.07 0.993354 -1.22353 0
M  V30 60448 C 5733.02 2.08337 -0.993196 0
M  V30 60449 C 5733.99 1.65883 0.0849134 0
M  V30 60450 O 5735.17 1.90691 -0.0645846 0
M  V30 60451 C 5732.31 3.4025 -0.576554 0
M  V30 60452 C 5731.43 3.96049 -1.72538 0
M  V30 60453 C 5730.56 5.16119 -1.25677 0
M  V30 60454 C 5729.6 5.64054 -2.37718 0
M  V30 60455 N 5728.74 6.75364 -1.91907 0
M  V30 60456 H 5733.58 2.27374 -1.92627 0
M  V30 60457 H 5731.11 1.11473 -0.959802 0
M  V30 60458 H 5733.07 4.16 -0.316167 0
M  V30 60459 H 5731.7 3.21215 0.319513 0
M  V30 60460 H 5730.75 3.17174 -2.10011 0
M  V30 60461 H 5732.07 4.27605 -2.56817 0
M  V30 60462 H 5731.22 5.99157 -0.953739 0
M  V30 60463 H 5729.96 4.86184 -0.384181 0
M  V30 60464 H 5728.96 4.79605 -2.6881 0
M  V30 60465 H 5730.19 5.96013 -3.25492 0
M  V30 60466 H 5728.14 6.47213 -1.07009 0
M  V30 60467 H 5728.05 7.06236 -2.69752 0
M  V30 60468 H 5729.32 7.61908 -1.64671 0
M  V30 60469 N 5733.55 1.03315 1.19012 0
M  V30 60470 C 5734.83 0.646604 1.84603 0
M  V30 60471 C 5735.21 -0.874423 1.92138 0
M  V30 60472 O 5734.55 -1.77286 1.4416 0
M  V30 60473 C 5734.76 1.31365 3.23333 0
M  V30 60474 C 5736.11 1.43963 3.99449 0
M  V30 60475 O 5737.14 1.27116 3.32746 0
M  V30 60476 O 5736 1.71346 5.18944 0
M  V30 60477 H 5733.09 0.225295 0.79572 0
M  V30 60478 H 5735.64 1.13157 1.26466 0
M  V30 60479 H 5734.41 2.35221 3.12708 0
M  V30 60480 H 5734.03 0.816825 3.89119 0
M  V30 60481 N 5735.03 -1.35096 0.811587 0
M  V30 60482 C 5736.26 -2.02859 0.406927 0
M  V30 60483 C 5736.67 -1.61151 -0.983663 0
M  V30 60484 O 5736.03 -0.811456 -1.63468 0
M  V30 60485 C 5736.08 -3.58212 0.486431 0
M  V30 60486 O 5735.8 -3.98406 1.8222 0
M  V30 60487 C 5737.3 -4.43236 0.0752177 0
M  V30 60488 H 5734.52 -0.650476 0.164687 0
M  V30 60489 H 5737.07 -1.72612 1.0966 0
M  V30 60490 H 5735.22 -3.8709 -0.155041 0
M  V30 60491 H 5735.63 -4.93065 1.78849 0
M  V30 60492 H 5737.11 -5.517 0.181953 0
M  V30 60493 H 5737.59 -4.28126 -0.980018 0
M  V30 60494 H 5738.19 -4.19665 0.690041 0
M  V30 60495 N 5736.51 -0.565532 -1.47104 0
M  V30 60496 C 5737.73 -0.0497026 -2.0684 0
M  V30 60497 C 5738.15 1.24772 -1.41695 0
M  V30 60498 O 5737.51 1.75045 -0.516301 0
M  V30 60499 C 5737.56 0.14086 -3.61225 0
M  V30 60500 O 5737.28 -1.10519 -4.23931 0
M  V30 60501 C 5738.78 0.693017 -4.37849 0
M  V30 60502 H 5736 -0.0496253 -0.669162 0
M  V30 60503 H 5738.54 -0.781314 -1.88986 0
M  V30 60504 H 5736.7 0.822629 -3.78565 0
M  V30 60505 H 5737.11 -0.90816 -5.16578 0
M  V30 60506 H 5738.59 0.775608 -5.46524 0
M  V30 60507 H 5739.06 1.70618 -4.04705 0
M  V30 60508 H 5739.67 0.0466765 -4.25274 0
M  V30 60509 N 5737.98 1.54671 -0.302409 0
M  V30 60510 C 5738.89 2.27253 0.582498 0
M  V30 60511 C 5739.91 1.30824 1.14722 0
M  V30 60512 O 5741.09 1.63808 1.17171 0
M  V30 60513 C 5738.15 3.00022 1.73746 0
M  V30 60514 C 5737.21 4.11993 1.20667 0
M  V30 60515 C 5736.45 4.81282 2.30659 0
M  V30 60516 O 5736.67 4.4994 3.50586 0
M  V30 60517 O 5735.6 5.68654 1.97271 0
M  V30 60518 H 5739.43 3.03699 -0.00632042 0
M  V30 60519 H 5737.01 1.49241 -0.0688209 0
M  V30 60520 H 5738.9 3.4566 2.41033 0
M  V30 60521 H 5737.57 2.2647 2.31286 0
M  V30 60522 H 5736.48 3.7075 0.499494 0
M  V30 60523 H 5737.81 4.87526 0.676687 0
M  V30 60524 N 5739.46 0.0301588 1.57571 0
M  V30 60525 C 5740.43 -0.936392 2.09199 0
M  V30 60526 C 5741.43 -1.25343 1.00726 0
M  V30 60527 O 5742.62 -1.1936 1.26881 0
M  V30 60528 C 5739.75 -2.25261 2.55871 0
M  V30 60529 H 5740.94 -0.489227 2.95883 0
M  V30 60530 H 5738.49 -0.217893 1.54774 0
M  V30 60531 H 5739.23 -2.74604 1.7252 0
M  V30 60532 H 5739.01 -2.03561 3.3512 0
M  V30 60533 H 5740.5 -2.94538 2.96036 0
M  V30 60534 N 5740.94 -1.55715 -0.243001 0
M  V30 60535 C 5742.19 -1.77729 -0.970492 0
M  V30 60536 C 5742.52 -0.595173 -1.8517 0
M  V30 60537 O 5741.77 0.421363 -1.9111 0
M  V30 60538 C 5742.07 -3.05287 -1.85834 0
M  V30 60539 C 5741.74 -4.36455 -1.13216 0
M  V30 60540 C 5740.4 -4.72098 -0.93149 0
M  V30 60541 C 5742.75 -5.17526 -0.617762 0
M  V30 60542 C 5740.08 -5.86345 -0.204167 0
M  V30 60543 C 5742.43 -6.32527 0.0961122 0
M  V30 60544 C 5741.09 -6.66788 0.308234 0
M  V30 60545 H 5740.36 -0.650358 -0.355128 0
M  V30 60546 H 5743.01 -1.89987 -0.240284 0
M  V30 60547 H 5741.32 -2.88059 -2.65574 0
M  V30 60548 H 5743.01 -3.19519 -2.42298 0
M  V30 60549 H 5739.6 -4.08456 -1.29852 0
M  V30 60550 H 5743.79 -4.90441 -0.760334 0
M  V30 60551 H 5739.04 -6.11393 -0.029385 0
M  V30 60552 H 5743.22 -6.94586 0.502321 0
M  V30 60553 H 5740.84 -7.55162 0.873768 0
M  V30 60554 N 5742.42 0.508828 -1.4916 0
M  V30 60555 C 5743.33 1.63776 -1.67972 0
M  V30 60556 C 5744.34 1.64665 -0.562265 0
M  V30 60557 O 5745.52 1.83229 -0.836 0
M  V30 60558 C 5742.59 3.00173 -1.73484 0
M  V30 60559 C 5741.65 3.09973 -2.97011 0
M  V30 60560 C 5740.88 4.39864 -3.0225 0
M  V30 60561 O 5741.1 5.28206 -2.153 0
M  V30 60562 O 5740.04 4.54472 -3.94637 0
M  V30 60563 H 5743.86 1.50837 -2.63594 0
M  V30 60564 H 5741.45 0.68426 -1.32809 0
M  V30 60565 H 5743.33 3.81254 -1.79509 0
M  V30 60566 H 5742 3.13392 -0.810398 0
M  V30 60567 H 5740.91 2.28109 -2.96508 0
M  V30 60568 H 5742.24 3.01679 -3.8891 0
M  V30 60569 N 5743.9 1.38103 0.759297 0
M  V30 60570 C 5744.84 1.34872 1.87291 0
M  V30 60571 C 5745.81 0.212197 1.64739 0
M  V30 60572 O 5747 0.40353 1.86484 0
M  V30 60573 C 5744.14 1.17394 3.24519 0
M  V30 60574 C 5743.25 2.40385 3.58942 0
M  V30 60575 C 5742.39 2.15682 4.85443 0
M  V30 60576 C 5741.43 3.34473 5.12634 0
M  V30 60577 N 5740.56 3.09242 6.30328 0
M  V30 60578 H 5745.4 2.30079 1.89388 0
M  V30 60579 H 5742.94 1.14317 0.925748 0
M  V30 60580 H 5744.9 1.05278 4.03698 0
M  V30 60581 H 5743.53 0.258295 3.21765 0
M  V30 60582 H 5742.58 2.63195 2.7465 0
M  V30 60583 H 5743.89 3.2894 3.74967 0
M  V30 60584 H 5743.05 2.00669 5.72553 0
M  V30 60585 H 5741.78 1.24484 4.71545 0
M  V30 60586 H 5740.79 3.50012 4.23995 0
M  V30 60587 H 5742.01 4.26539 5.28433 0
M  V30 60588 H 5739.96 2.20685 6.17765 0
M  V30 60589 H 5739.88 3.91344 6.46828 0
M  V30 60590 H 5741.15 2.97872 7.20342 0
M  V30 60591 N 5745.37 -0.986851 1.22878 0
M  V30 60592 C 5746.31 -2.07601 0.947479 0
M  V30 60593 C 5747.29 -1.62215 -0.111847 0
M  V30 60594 O 5748.47 -1.88488 0.0210345 0
M  V30 60595 C 5745.6 -3.36008 0.426168 0
M  V30 60596 C 5744.64 -4.00326 1.47111 0
M  V30 60597 S 5745.48 -4.40401 3.04642 0
M  V30 60598 C 5746.63 -5.71971 2.54165 0
M  V30 60599 H 5746.86 -2.31143 1.86977 0
M  V30 60600 H 5744.4 -1.12216 1.06051 0
M  V30 60601 H 5746.36 -4.10288 0.13199 0
M  V30 60602 H 5745.02 -3.10486 -0.475102 0
M  V30 60603 H 5744.21 -4.92805 1.05635 0
M  V30 60604 H 5743.81 -3.32397 1.7143 0
M  V30 60605 H 5746.1 -6.48595 1.95783 0
M  V30 60606 H 5747.05 -6.18281 3.45159 0
M  V30 60607 H 5747.45 -5.29662 1.9524 0
M  V30 60608 N 5746.85 -1.03945 -1.18462 0
M  V30 60609 C 5748.1 -0.743207 -1.88691 0
M  V30 60610 C 5748.43 0.727148 -1.80073 0
M  V30 60611 O 5747.71 1.53054 -1.2002 0
M  V30 60612 C 5747.99 -1.20841 -3.39219 0
M  V30 60613 C 5747.84 -2.74077 -3.56654 0
M  V30 60614 C 5749.16 -0.7975 -4.32814 0
M  V30 60615 H 5746.28 -0.271461 -0.685184 0
M  V30 60616 H 5748.92 -1.29124 -1.39381 0
M  V30 60617 H 5747.07 -0.742167 -3.81345 0
M  V30 60618 H 5748.74 -3.28728 -3.23629 0
M  V30 60619 H 5746.99 -3.13961 -2.99351 0
M  V30 60620 H 5747.66 -3.01685 -4.62266 0
M  V30 60621 H 5750.13 -1.19868 -3.98461 0
M  V30 60622 H 5749.01 -1.15076 -5.36702 0
M  V30 60623 H 5749.27 0.299446 -4.41085 0
M  V30 60624 N 5748.33 1.34664 -0.81874 0
M  V30 60625 C 5749.56 2.03172 -0.416657 0
M  V30 60626 C 5749.98 1.61265 0.968264 0
M  V30 60627 O 5749.34 0.795227 1.62929 0
M  V30 60628 C 5749.39 3.56802 -0.522009 0
M  V30 60629 O 5748.49 4.09829 0.459809 0
M  V30 60630 H 5747.83 0.641293 -0.172159 0
M  V30 60631 H 5750.36 1.72002 -1.108 0
M  V30 60632 H 5750.37 4.06071 -0.396243 0
M  V30 60633 H 5749.05 3.86651 -1.53212 0
M  V30 60634 H 5747.62 3.71745 0.293274 0
M  V30 60635 N 5749.81 0.573325 1.46802 0
M  V30 60636 C 5750.74 -0.153234 2.32997 0
M  V30 60637 C 5751.72 -0.892962 1.44776 0
M  V30 60638 O 5752.91 -0.870268 1.73609 0
M  V30 60639 C 5750.04 -1.17348 3.26874 0
M  V30 60640 C 5748.99 -0.549197 4.24462 0
M  V30 60641 C 5748.32 -1.67525 5.07779 0
M  V30 60642 C 5749.62 0.507542 5.19828 0
M  V30 60643 H 5751.31 0.566408 2.93994 0
M  V30 60644 H 5748.86 0.273835 1.41372 0
M  V30 60645 H 5750.81 -1.69006 3.86025 0
M  V30 60646 H 5749.53 -1.92328 2.63965 0
M  V30 60647 H 5748.19 -0.0537853 3.66561 0
M  V30 60648 H 5747.84 -2.41448 4.41262 0
M  V30 60649 H 5747.54 -1.26323 5.73861 0
M  V30 60650 H 5749.06 -2.19476 5.69792 0
M  V30 60651 H 5750.48 0.0764076 5.73249 0
M  V30 60652 H 5748.87 0.839348 5.94201 0
M  V30 60653 H 5749.94 1.3974 4.64328 0
M  V30 60654 N 5751.29 -1.54509 0.310607 0
M  V30 60655 C 5752.22 -2.26829 -0.554164 0
M  V30 60656 C 5753.2 -1.27137 -1.13005 0
M  V30 60657 O 5754.38 -1.55927 -1.1576 0
M  V30 60658 C 5751.51 -3.01632 -1.72149 0
M  V30 60659 C 5750.47 -4.08552 -1.27552 0
M  V30 60660 C 5749.79 -4.71124 -2.52877 0
M  V30 60661 C 5751.09 -5.20768 -0.399772 0
M  V30 60662 H 5752.79 -2.9936 0.0490527 0
M  V30 60663 H 5750.33 -1.43978 0.0250323 0
M  V30 60664 H 5752.29 -3.5095 -2.33264 0
M  V30 60665 H 5751.01 -2.26696 -2.3511 0
M  V30 60666 H 5749.67 -3.60098 -0.687372 0
M  V30 60667 H 5749.32 -3.92816 -3.14172 0
M  V30 60668 H 5749.02 -5.43339 -2.23733 0
M  V30 60669 H 5750.54 -5.23209 -3.14777 0
M  V30 60670 H 5751.96 -5.65921 -0.916855 0
M  V30 60671 H 5750.35 -5.99761 -0.201689 0
M  V30 60672 H 5751.42 -4.81506 0.572706 0
M  V30 60673 N 5752.77 -0.0385148 -1.57553 0
M  V30 60674 C 5753.99 0.651543 -1.969 0
M  V30 60675 C 5754.42 1.64325 -0.915366 0
M  V30 60676 O 5753.77 1.80884 0.12276 0
M  V30 60677 C 5753.82 1.32601 -3.35335 0
M  V30 60678 O 5752.93 2.44148 -3.32364 0
M  V30 60679 H 5752.27 0.170419 -0.641758 0
M  V30 60680 H 5754.8 -0.103158 -2.0434 0
M  V30 60681 H 5754.81 1.68063 -3.71778 0
M  V30 60682 H 5753.48 0.59913 -4.11562 0
M  V30 60683 H 5752.06 2.10727 -3.0765 0
M  V30 60684 N 5754.24 1.55842 0.23474 0
M  V30 60685 C 5755.49 1.78506 0.962477 0
M  V30 60686 C 5755.82 0.605897 1.84506 0
M  V30 60687 O 5755.1 -0.395379 1.90439 0
M  V30 60688 C 5755.38 3.1115 1.81266 0
M  V30 60689 C 5755.23 4.39492 0.957452 0
M  V30 60690 C 5756.55 3.40124 2.79292 0
M  V30 60691 H 5753.67 0.649409 0.348478 0
M  V30 60692 H 5756.31 1.88576 0.232174 0
M  V30 60693 H 5754.46 3.02696 2.43531 0
M  V30 60694 H 5756.14 4.59951 0.352564 0
M  V30 60695 H 5754.38 4.33006 0.262302 0
M  V30 60696 H 5755.05 5.28713 1.5864 0
M  V30 60697 H 5757.53 3.4862 2.27163 0
M  V30 60698 H 5756.4 4.3413 3.3589 0
M  V30 60699 H 5756.66 2.61636 3.56369 0
M  V30 60700 N 5755.72 -0.50091 1.49428 0
M  V30 60701 C 5756.65 -1.61108 1.69016 0
M  V30 60702 C 5757.63 -1.61339 0.53887 0
M  V30 60703 O 5758.82 -1.78078 0.774722 0
M  V30 60704 C 5755.95 -2.99591 1.75677 0
M  V30 60705 C 5754.9 -3.14226 2.90596 0
M  V30 60706 C 5754.23 -4.54061 2.8237 0
M  V30 60707 C 5755.53 -2.94243 4.3153 0
M  V30 60708 H 5757.22 -1.44969 2.61963 0
M  V30 60709 H 5754.77 -0.695985 1.26064 0
M  V30 60710 H 5756.72 -3.77156 1.87966 0
M  V30 60711 H 5755.44 -3.16819 0.793297 0
M  V30 60712 H 5754.1 -2.39086 2.77909 0
M  V30 60713 H 5753.75 -4.68165 1.83931 0
M  V30 60714 H 5753.45 -4.64793 3.59501 0
M  V30 60715 H 5754.98 -5.33686 2.96668 0
M  V30 60716 H 5756.39 -3.61577 4.44899 0
M  V30 60717 H 5754.79 -3.16446 5.09884 0
M  V30 60718 H 5755.86 -1.90367 4.45969 0
M  V30 60719 N 5757.2 -1.38504 -0.751963 0
M  V30 60720 C 5758.13 -1.38583 -1.87928 0
M  V30 60721 C 5759.11 -0.251513 -1.6823 0
M  V30 60722 O 5760.3 -0.454836 -1.88799 0
M  V30 60723 C 5757.43 -1.21176 -3.25475 0
M  V30 60724 C 5756.38 -2.31829 -3.59777 0
M  V30 60725 C 5755.71 -1.99525 -4.96078 0
M  V30 60726 C 5757.01 -3.74095 -3.64487 0
M  V30 60727 H 5758.7 -2.3292 -1.88119 0
M  V30 60728 H 5756.25 -1.12116 -0.903658 0
M  V30 60729 H 5758.2 -1.19856 -4.03996 0
M  V30 60730 H 5756.92 -0.233014 -3.25768 0
M  V30 60731 H 5755.58 -2.32337 -2.83576 0
M  V30 60732 H 5755.23 -1.00131 -4.92933 0
M  V30 60733 H 5754.93 -2.73635 -5.19998 0
M  V30 60734 H 5756.45 -1.99827 -5.76976 0
M  V30 60735 H 5757.87 -3.75608 -4.33118 0
M  V30 60736 H 5756.26 -4.47423 -3.99916 0
M  V30 60737 H 5757.33 -4.06293 -2.64677 0
M  V30 60738 N 5758.68 0.980321 -1.234 0
M  V30 60739 C 5759.9 1.76219 -1.0937 0
M  V30 60740 C 5760.33 1.84802 0.350694 0
M  V30 60741 O 5759.69 1.3097 1.25366 0
M  V30 60742 C 5759.73 3.16722 -1.72394 0
M  V30 60743 O 5758.84 4.00436 -0.986143 0
M  V30 60744 H 5758.18 0.54216 -0.383351 0
M  V30 60745 H 5760.71 1.2306 -1.63455 0
M  V30 60746 H 5760.72 3.673 -1.77636 0
M  V30 60747 H 5759.39 3.0979 -2.77494 0
M  V30 60748 H 5757.97 3.58943 -1.01067 0
M  V30 60749 N 5760.16 1.04571 1.17909 0
M  V30 60750 C 5761.09 0.585596 2.20558 0
M  V30 60751 C 5762.07 -0.382525 1.58036 0
M  V30 60752 O 5763.25 -0.295627 1.86167 0
M  V30 60753 C 5760.38 -0.143841 3.38394 0
M  V30 60754 C 5759.42 0.778321 4.19338 0
M  V30 60755 S 5760.26 2.26403 4.85286 0
M  V30 60756 C 5761.41 1.54558 6.06517 0
M  V30 60757 H 5761.65 1.45529 2.59246 0
M  V30 60758 H 5759.18 0.85712 1.28424 0
M  V30 60759 H 5761.14 -0.558518 4.06683 0
M  V30 60760 H 5759.8 -0.989488 2.98107 0
M  V30 60761 H 5758.99 0.21423 5.03544 0
M  V30 60762 H 5758.59 1.13208 3.56455 0
M  V30 60763 H 5760.88 0.841436 6.72254 0
M  V30 60764 H 5761.83 2.36488 6.67442 0
M  V30 60765 H 5762.24 1.03571 5.54917 0
M  V30 60766 N 5761.63 -1.34228 0.82587 0
M  V30 60767 C 5762.57 -2.2826 0.207314 0
M  V30 60768 C 5763.58 -1.51161 -0.604501 0
M  V30 60769 O 5764.77 -1.73151 -0.433699 0
M  V30 60770 C 5761.87 -3.30994 -0.727752 0
M  V30 60771 C 5761.04 -4.3738 0.0418805 0
M  V30 60772 C 5760.1 -5.19857 -0.814557 0
M  V30 60773 O 5759.13 -5.68613 -0.25847 0
M  V30 60774 N 5760.33 -5.39856 -2.13391 0
M  V30 60775 H 5763.09 -2.81982 1.0152 0
M  V30 60776 H 5760.65 -1.46783 0.683108 0
M  V30 60777 H 5762.65 -3.83069 -1.30537 0
M  V30 60778 H 5761.22 -2.77645 -1.43638 0
M  V30 60779 H 5760.44 -3.8598 0.800821 0
M  V30 60780 H 5761.72 -5.05579 0.571573 0
M  V30 60781 H 5761.12 -5.01923 -2.6094 0
M  V30 60782 H 5759.68 -5.95038 -2.66031 0
M  V30 60783 N 5763.11 -0.581102 -1.46496 0
M  V30 60784 C 5764.36 -0.0659363 -2.01992 0
M  V30 60785 C 5764.68 1.29802 -1.45521 0
M  V30 60786 O 5763.95 1.85175 -0.639298 0
M  V30 60787 H 5762.53 -0.0213847 -0.746694 0
M  V30 60788 H 5765.19 -0.756519 -1.79618 0
M  V30 60789 H 5764.29 0.00427156 -3.121 0
M  V30 60790 N 5764.59 1.54342 -0.318797 0
M  V30 60791 C 5765.55 2.2283 0.536601 0
M  V30 60792 C 5766.55 1.22017 1.04731 0
M  V30 60793 O 5767.74 1.4663 0.940497 0
M  V30 60794 C 5764.88 2.92863 1.74482 0
M  V30 60795 H 5766.07 2.99836 -0.0620379 0
M  V30 60796 H 5763.62 1.56144 -0.0698236 0
M  V30 60797 H 5764.36 2.19982 2.38283 0
M  V30 60798 H 5764.14 3.66784 1.38608 0
M  V30 60799 H 5765.63 3.45058 2.35213 0
M  V30 60800 N 5766.07 0.0468696 1.5753 0
M  V30 60801 C 5767.31 -0.628801 1.92805 0
M  V30 60802 C 5767.65 -1.70748 0.925143 0
M  V30 60803 O 5766.92 -1.94437 -0.0495137 0
M  V30 60804 C 5767.21 -1.22887 3.38483 0
M  V30 60805 C 5767.06 -0.158549 4.4952 0
M  V30 60806 C 5768.38 -2.14177 3.84469 0
M  V30 60807 H 5765.5 -0.227112 0.701134 0
M  V30 60808 H 5768.14 0.107756 1.89694 0
M  V30 60809 H 5766.29 -1.85662 3.41265 0
M  V30 60810 H 5767.96 0.473125 4.58867 0
M  V30 60811 H 5766.2 0.513902 4.30745 0
M  V30 60812 H 5766.87 -0.618353 5.48526 0
M  V30 60813 H 5769.35 -1.61368 3.83535 0
M  V30 60814 H 5768.23 -2.53108 4.8706 0
M  V30 60815 H 5768.49 -3.04013 3.20981 0
M  V30 60816 N 5767.55 -1.55964 -0.226472 0
M  V30 60817 C 5768.82 -1.69531 -0.975629 0
M  V30 60818 C 5769.2 -0.592706 -2.02608 0
M  V30 60819 O 5768.55 0.400994 -2.24954 0
M  V30 60820 C 5768.76 -3.1065 -1.59052 0
M  V30 60821 C 5770.11 -3.69902 -2.08465 0
M  V30 60822 O 5771.13 -3.1358 -1.68955 0
M  V30 60823 O 5769.99 -4.68682 -2.81069 0
M  V30 60824 H 5767.09 -0.690301 -0.455427 0
M  V30 60825 H 5769.63 -1.68286 -0.218642 0
M  V30 60826 H 5768.4 -3.82358 -0.831769 0
M  V30 60827 H 5768.03 -3.15993 -2.41318 0
M  V30 60828 N 5769.02 0.492978 -1.49691 0
M  V30 60829 C 5770.27 1.24325 -1.58828 0
M  V30 60830 C 5770.59 1.93529 -0.283891 0
M  V30 60831 O 5771.79 2.7031 -0.253896 0
M  V30 60832 C 5770.25 2.25783 -2.80268 0
M  V30 60833 C 5769.86 1.62481 -4.17497 0
M  V30 60834 C 5771.6 3.01588 -2.98739 0
M  V30 60835 C 5769.51 2.62097 -5.3015 0
M  V30 60836 H 5768.44 0.467717 -0.591402 0
M  V30 60837 H 5771.09 0.516176 -1.76091 0
M  V30 60838 H 5769.47 3.01687 -2.56517 0
M  V30 60839 H 5770.64 0.925146 -4.51417 0
M  V30 60840 H 5768.96 0.990374 -4.04451 0
M  V30 60841 H 5771.56 3.76098 -3.80072 0
M  V30 60842 H 5771.9 3.5968 -2.0961 0
M  V30 60843 H 5772.43 2.32798 -3.22568 0
M  V30 60844 H 5769.17 2.08775 -6.21364 0
M  V30 60845 H 5768.69 3.3028 -5.00675 0
M  V30 60846 H 5770.37 3.24365 -5.59818 0
M  V30 60847 N 5770.5 1.38901 0.744607 0
M  V30 60848 C 5771.45 1.3698 1.87987 0
M  V30 60849 C 5772.44 0.254336 1.6748 0
M  V30 60850 O 5773.65 0.423859 1.74938 0
M  V30 60851 H 5770.03 0.427529 0.618646 0
M  V30 60852 H 5772 2.3276 1.86722 0
M  V30 60853 C 5770.75 1.22066 3.25569 0
M  V30 60854 H 5770.07 2.07164 3.4194 0
M  V30 60855 H 5771.51 1.24778 4.05224 0
M  V30 60856 C 5769.97 -0.0717229 3.36824 0
M  V30 60857 O 5770.5 -1.04546 3.87857 0
M  V30 60858 N 5768.7 -0.13157 2.90302 0
M  V30 60859 H 5768.25 0.661516 2.48961 0
M  V30 60860 H 5768.21 -0.995831 2.98212 0
M  V30 60861 N 5771.98 -0.973763 1.23918 0
M  V30 60862 C 5773.4 -1.24124 1.00326 0
M  V30 60863 C 5773.6 -1.99379 -0.29162 0
M  V30 60864 O 5772.65 -2.31449 -1.00935 0
M  V30 60865 C 5773.97 -2.0343 2.21442 0
M  V30 60866 C 5775.51 -2.16545 2.26003 0
M  V30 60867 C 5775.99 -2.99245 3.46723 0
M  V30 60868 N 5777.48 -3.06828 3.47003 0
M  V30 60869 C 5778.21 -3.71159 4.37068 0
M  V30 60870 N 5777.71 -4.37258 5.3738 0
M  V30 60871 N 5779.5 -3.68111 4.24795 0
M  V30 60872 H 5771.65 -0.4698 2.07139 0
M  V30 60873 H 5773.92 -0.270202 0.908678 0
M  V30 60874 H 5773.62 -1.55516 3.15449 0
M  V30 60875 H 5773.5 -3.04172 2.23067 0
M  V30 60876 H 5775.88 -2.63665 1.32531 0
M  V30 60877 H 5775.97 -1.15171 2.28406 0
M  V30 60878 H 5775.61 -2.5282 4.40505 0
M  V30 60879 H 5775.54 -4.00803 3.41562 0
M  V30 60880 H 5778.03 -2.59803 2.74428 0
M  V30 60881 H 5778.34 -4.84145 6.02348 0
M  V30 60882 H 5776.69 -4.35946 5.41273 0
M  V30 60883 H 5779.88 -3.15645 3.45667 0
M  V30 60884 H 5780.05 -4.17964 4.95187 0
M  V30 60885 N 5773.46 -1.05195 -1.17353 0
M  V30 60886 C 5774.39 -0.67401 -2.23561 0
M  V30 60887 C 5775.37 0.328225 -1.66903 0
M  V30 60888 O 5776.55 0.205811 -1.93106 0
M  V30 60889 C 5773.68 -0.0480021 -3.47267 0
M  V30 60890 C 5772.64 -0.975002 -4.16747 0
M  V30 60891 C 5771.96 -0.212872 -5.34276 0
M  V30 60892 C 5773.26 -2.29917 -4.68973 0
M  V30 60893 H 5774.96 -1.56192 -2.5543 0
M  V30 60894 H 5772.5 -0.752451 -1.22777 0
M  V30 60895 H 5774.46 0.228195 -4.20782 0
M  V30 60896 H 5773.18 0.874852 -3.14665 0
M  V30 60897 H 5771.84 -1.23576 -3.45144 0
M  V30 60898 H 5771.49 0.712749 -4.97925 0
M  V30 60899 H 5771.19 -0.830555 -5.81701 0
M  V30 60900 H 5772.71 0.0560403 -6.10574 0
M  V30 60901 H 5774.13 -2.08288 -5.34125 0
M  V30 60902 H 5772.52 -2.87083 -5.26976 0
M  V30 60903 H 5773.59 -2.93772 -3.8578 0
M  V30 60904 N 5774.94 1.33788 -0.832977 0
M  V30 60905 C 5776.18 1.99786 -0.431844 0
M  V30 60906 C 5776.54 1.64569 0.988988 0
M  V30 60907 O 5777.74 2.23488 1.49354 0
M  V30 60908 C 5776.01 3.51634 -0.639424 0
M  V30 60909 S 5777.57 4.37537 -0.332635 0
M  V30 60910 H 5774.39 0.692134 -0.1627 0
M  V30 60911 H 5776.99 1.62896 -1.08098 0
M  V30 60912 H 5775.7 3.74752 -1.67299 0
M  V30 60913 H 5775.23 3.93393 0.0240827 0
M  V30 60914 H 5777.24 4.88868 0.849857 0
M  V30 60915 N 5776.41 0.588863 1.46185 0
M  V30 60916 C 5777.32 -0.14317 2.34163 0
M  V30 60917 C 5778.34 -0.879726 1.50123 0
M  V30 60918 O 5779.52 -0.841528 1.82976 0
M  V30 60919 C 5776.58 -1.14006 3.2742 0
M  V30 60920 C 5775.64 -0.407501 4.27362 0
M  V30 60921 C 5774.88 -1.3569 5.16163 0
M  V30 60922 O 5775.1 -2.59376 5.08016 0
M  V30 60923 O 5774.03 -0.864133 5.95665 0
M  V30 60924 H 5777.86 0.579333 2.98123 0
M  V30 60925 H 5775.44 0.349225 1.45261 0
M  V30 60926 H 5777.33 -1.71471 3.84936 0
M  V30 60927 H 5776 -1.84392 2.66048 0
M  V30 60928 H 5774.91 0.209142 3.73515 0
M  V30 60929 H 5776.24 0.255507 4.91536 0
M  V30 60930 N 5777.89 -1.54171 0.326977 0
M  V30 60931 C 5778.8 -2.28151 -0.54627 0
M  V30 60932 C 5779.82 -1.32632 -1.12627 0
M  V30 60933 O 5780.99 -1.65651 -1.1455 0
M  V30 60934 C 5778.06 -3.02748 -1.68951 0
M  V30 60935 C 5777.12 -4.1386 -1.14098 0
M  V30 60936 C 5776.35 -4.8489 -2.22973 0
M  V30 60937 O 5776.58 -4.5546 -3.43383 0
M  V30 60938 O 5775.51 -5.71721 -1.882 0
M  V30 60939 H 5779.34 -3.03651 0.0546355 0
M  V30 60940 H 5776.92 -1.49113 0.0925552 0
M  V30 60941 H 5778.8 -3.49451 -2.35503 0
M  V30 60942 H 5777.48 -2.30121 -2.27654 0
M  V30 60943 H 5776.39 -3.71498 -0.440448 0
M  V30 60944 H 5777.72 -4.88541 -0.59904 0
M  V30 60945 N 5779.37 -0.0552232 -1.57503 0
M  V30 60946 C 5780.3 0.953275 -2.07335 0
M  V30 60947 C 5781.28 1.30144 -0.974744 0
M  V30 60948 O 5782.47 1.41361 -1.24696 0
M  V30 60949 C 5779.59 2.26613 -2.51723 0
M  V30 60950 C 5778.64 2.07072 -3.72858 0
M  V30 60951 S 5779.47 1.34535 -5.18325 0
M  V30 60952 C 5780.63 2.67135 -5.6603 0
M  V30 60953 H 5780.86 0.529191 -2.92552 0
M  V30 60954 H 5778.39 0.157142 -1.53598 0
M  V30 60955 H 5780.35 3.02075 -2.77958 0
M  V30 60956 H 5779.01 2.66149 -1.66804 0
M  V30 60957 H 5778.21 3.04192 -4.0185 0
M  V30 60958 H 5777.81 1.39749 -3.46909 0
M  V30 60959 H 5780.1 3.63289 -5.71863 0
M  V30 60960 H 5781.04 2.42774 -6.65181 0
M  V30 60961 H 5781.45 2.7358 -4.93776 0
M  V30 60962 N 5780.85 1.56082 0.218198 0
M  V30 60963 C 5781.78 1.9571 1.27357 0
M  V30 60964 C 5782.76 0.825783 1.48711 0
M  V30 60965 O 5783.95 1.08835 1.60837 0
M  V30 60966 C 5781.08 2.2767 2.62267 0
M  V30 60967 C 5780.03 3.43323 2.55564 0
M  V30 60968 C 5779.36 3.60897 3.94535 0
M  V30 60969 C 5780.66 4.78197 2.10058 0
M  V30 60970 H 5782.35 2.84117 0.944359 0
M  V30 60971 H 5779.9 1.36695 0.452834 0
M  V30 60972 H 5781.85 2.53984 3.36259 0
M  V30 60973 H 5780.57 1.3612 2.96882 0
M  V30 60974 H 5779.23 3.17063 1.84029 0
M  V30 60975 H 5778.88 2.66718 4.26463 0
M  V30 60976 H 5778.58 4.38688 3.90931 0
M  V30 60977 H 5780.1 3.89564 4.70184 0
M  V30 60978 H 5781.52 5.03695 2.73796 0
M  V30 60979 H 5779.91 5.59295 2.17507 0
M  V30 60980 H 5780.98 4.73329 1.05297 0
M  V30 60981 N 5782.33 -0.485033 1.49951 0
M  V30 60982 C 5783.6 -1.24633 1.50751 0
M  V30 60983 C 5783.98 -2.09682 0.244235 0
M  V30 60984 O 5783.33 -2.15032 -0.772873 0
M  V30 60985 C 5783.54 -2.08936 2.79547 0
M  V30 60986 C 5784.89 -2.67593 3.29666 0
M  V30 60987 O 5785.91 -2.19191 2.80774 0
M  V30 60988 O 5784.77 -3.55746 4.14858 0
M  V30 60989 H 5781.87 -0.564828 0.604068 0
M  V30 60990 H 5784.41 -0.497995 1.62229 0
M  V30 60991 H 5783.19 -1.46173 3.62973 0
M  V30 60992 H 5782.81 -2.90931 2.71007 0
M  V30 60993 N 5783.81 -1.39293 -0.73723 0
M  V30 60994 C 5784.75 -1.37975 -1.87258 0
M  V30 60995 C 5785.75 -0.263214 -1.67343 0
M  V30 60996 O 5786.95 -0.43313 -1.74711 0
M  V30 60997 H 5783.33 -0.430804 -0.61637 0
M  V30 60998 H 5785.3 -2.33747 -1.85485 0
M  V30 60999 C 5784.05 -1.2379 -3.24917 0
M  V30 61000 H 5783.37 -2.08975 -3.40837 0
M  V30 61001 H 5784.81 -1.26925 -4.04557 0
M  V30 61002 C 5783.27 0.0538593 -3.36857 0
M  V30 61003 O 5783.8 1.02488 -3.88406 0
M  V30 61004 N 5782.01 0.116172 -2.90368 0
M  V30 61005 H 5781.55 -0.67471 -2.48607 0
M  V30 61006 H 5781.51 0.980002 -2.98736 0
M  V30 61007 N 5785.28 0.967178 -1.24432 0
M  V30 61008 C 5786.7 1.2359 -1.00983 0
M  V30 61009 C 5786.9 1.9953 0.281042 0
M  V30 61010 O 5785.96 2.31981 0.997058 0
M  V30 61011 C 5787.27 2.02253 -2.22518 0
M  V30 61012 C 5788.82 2.15344 -2.27148 0
M  V30 61013 C 5789.29 2.97402 -3.48305 0
M  V30 61014 N 5790.78 3.04984 -3.48625 0
M  V30 61015 C 5791.52 3.68836 -4.3903 0
M  V30 61016 N 5791.01 4.34402 -5.39691 0
M  V30 61017 N 5792.81 3.65853 -4.26741 0
M  V30 61018 H 5784.96 0.458808 -2.07385 0
M  V30 61019 H 5787.22 0.265379 -0.910098 0
M  V30 61020 H 5786.93 1.53841 -3.16269 0
M  V30 61021 H 5786.8 3.02985 -2.24677 0
M  V30 61022 H 5789.19 2.62959 -1.33928 0
M  V30 61023 H 5789.27 1.13958 -2.29014 0
M  V30 61024 H 5788.91 2.5048 -4.4184 0
M  V30 61025 H 5788.84 3.98986 -3.43682 0
M  V30 61026 H 5791.33 2.58344 -2.75802 0
M  V30 61027 H 5791.65 4.80944 -6.04907 0
M  V30 61028 H 5789.99 4.33069 -5.43577 0
M  V30 61029 H 5793.18 3.13807 -3.47337 0
M  V30 61030 H 5793.36 4.15332 -4.97397 0
M  V30 61031 N 5786.76 1.05816 1.16794 0
M  V30 61032 C 5787.72 0.668843 2.19224 0
M  V30 61033 C 5788.72 -0.282934 1.58291 0
M  V30 61034 O 5789.91 -0.0659621 1.74075 0
M  V30 61035 C 5787.05 -0.016618 3.40896 0
M  V30 61036 H 5788.24 1.57552 2.55181 0
M  V30 61037 H 5785.79 0.852799 1.30985 0
M  V30 61038 H 5786.53 -0.936273 3.10491 0
M  V30 61039 H 5786.31 0.667712 3.86373 0
M  V30 61040 H 5787.8 -0.274894 4.16694 0
M  V30 61041 N 5788.24 -1.33344 0.84006 0
M  V30 61042 C 5789.47 -2.0195 0.449864 0
M  V30 61043 C 5789.88 -1.63201 -0.949259 0
M  V30 61044 O 5789.24 -0.845947 -1.6171 0
M  V30 61045 C 5789.29 -3.571 0.562304 0
M  V30 61046 O 5789.01 -3.94451 1.9063 0
M  V30 61047 C 5790.51 -4.42977 0.169218 0
M  V30 61048 H 5787.73 -0.646837 0.178447 0
M  V30 61049 H 5790.28 -1.70247 1.13296 0
M  V30 61050 H 5788.43 -3.87331 -0.0728983 0
M  V30 61051 H 5788.85 -4.89161 1.89267 0
M  V30 61052 H 5790.32 -5.5119 0.298936 0
M  V30 61053 H 5790.8 -4.30109 -0.888986 0
M  V30 61054 H 5791.4 -4.18107 0.778903 0
M  V30 61055 N 5789.72 -0.596607 -1.45871 0
M  V30 61056 C 5790.65 0.116147 -2.33211 0
M  V30 61057 C 5791.63 0.869817 -1.46179 0
M  V30 61058 O 5792.81 0.842538 -1.74971 0
M  V30 61059 C 5789.94 1.12133 -3.287 0
M  V30 61060 C 5788.9 0.4816 -4.25282 0
M  V30 61061 C 5788.22 1.59425 -5.1038 0
M  V30 61062 C 5789.52 -0.590178 -5.18955 0
M  V30 61063 H 5791.22 -0.613108 -2.93055 0
M  V30 61064 H 5788.76 -0.296291 -1.40919 0
M  V30 61065 H 5790.72 1.62843 -3.88664 0
M  V30 61066 H 5789.44 1.88104 -2.66991 0
M  V30 61067 H 5788.1 -0.00453808 -3.666 0
M  V30 61068 H 5787.75 2.34397 -4.45047 0
M  V30 61069 H 5787.45 1.17177 -5.75798 0
M  V30 61070 H 5788.97 2.10384 -5.73211 0
M  V30 61071 H 5790.39 -0.167597 -5.73055 0
M  V30 61072 H 5788.78 -0.933774 -5.92791 0
M  V30 61073 H 5789.85 -1.47109 -4.62046 0
M  V30 61074 N 5791.2 1.53995 -0.335149 0
M  V30 61075 C 5792.13 2.2226 0.559731 0
M  V30 61076 C 5793.14 1.2264 1.07067 0
M  V30 61077 O 5794.33 1.49043 0.982259 0
M  V30 61078 C 5791.43 2.88262 1.78208 0
M  V30 61079 C 5790.6 4.14123 1.40787 0
M  V30 61080 C 5789.66 4.63612 2.48899 0
M  V30 61081 O 5788.69 5.28023 2.12557 0
M  V30 61082 N 5789.89 4.38824 3.80018 0
M  V30 61083 H 5792.65 2.9969 -0.0248575 0
M  V30 61084 H 5790.22 1.61119 -0.158882 0
M  V30 61085 H 5792.21 3.18289 2.49949 0
M  V30 61086 H 5790.78 2.14469 2.27424 0
M  V30 61087 H 5790 3.90734 0.521592 0
M  V30 61088 H 5791.29 4.96009 1.13371 0
M  V30 61089 H 5790.68 3.87293 4.12336 0
M  V30 61090 H 5789.24 4.73477 4.47954 0
M  V30 61091 N 5792.67 0.0635752 1.57472 0
M  V30 61092 C 5793.64 -0.891807 2.11138 0
M  V30 61093 C 5794.64 -1.23178 1.03362 0
M  V30 61094 O 5795.83 -1.16642 1.29385 0
M  V30 61095 C 5792.96 -2.19783 2.60592 0
M  V30 61096 H 5794.15 -0.426356 2.96854 0
M  V30 61097 H 5791.7 -0.185014 1.55201 0
M  V30 61098 H 5792.44 -2.70883 1.78306 0
M  V30 61099 H 5792.22 -1.96407 3.39362 0
M  V30 61100 H 5793.71 -2.88192 3.02217 0
M  V30 61101 N 5794.15 -1.56196 -0.209917 0
M  V30 61102 C 5795.4 -1.78945 -0.930681 0
M  V30 61103 C 5795.71 -0.634204 -1.85033 0
M  V30 61104 O 5796.92 -0.745616 -2.61061 0
M  V30 61105 C 5795.38 -3.16941 -1.70518 0
M  V30 61106 C 5794.98 -4.40224 -0.831095 0
M  V30 61107 C 5796.73 -3.49009 -2.41647 0
M  V30 61108 C 5794.64 -5.69244 -1.60361 0
M  V30 61109 H 5793.57 -0.667188 -0.35125 0
M  V30 61110 H 5796.22 -1.82572 -0.184277 0
M  V30 61111 H 5794.6 -3.07522 -2.49492 0
M  V30 61112 H 5795.77 -4.60729 -0.081065 0
M  V30 61113 H 5794.09 -4.15757 -0.231371 0
M  V30 61114 H 5796.68 -4.42633 -2.99967 0
M  V30 61115 H 5797.03 -2.72053 -3.15107 0
M  V30 61116 H 5797.56 -3.5981 -1.69652 0
M  V30 61117 H 5794.3 -6.49124 -0.912064 0
M  V30 61118 H 5793.82 -5.5278 -2.32796 0
M  V30 61119 H 5795.5 -6.09834 -2.16128 0
M  V30 61120 N 5795.63 0.477074 -1.50206 0
M  V30 61121 C 5796.59 1.55818 -1.68087 0
M  V30 61122 C 5797.59 1.51037 -0.551772 0
M  V30 61123 O 5798.78 1.53763 -0.818692 0
M  V30 61124 C 5795.92 2.95456 -1.70054 0
M  V30 61125 H 5797.11 1.41283 -2.64536 0
M  V30 61126 H 5794.66 0.703031 -1.39596 0
M  V30 61127 H 5795.4 3.15442 -0.752774 0
M  V30 61128 H 5795.18 3.00334 -2.52075 0
M  V30 61129 H 5796.67 3.73958 -1.85864 0
M  V30 61130 N 5797.11 1.39683 0.729833 0
M  V30 61131 C 5798.33 1.40659 1.52413 0
M  V30 61132 C 5798.76 0.0043561 1.88099 0
M  V30 61133 O 5798.12 -0.98397 1.52275 0
M  V30 61134 C 5798.16 2.29067 2.78497 0
M  V30 61135 O 5797.27 1.72411 3.74631 0
M  V30 61136 H 5796.61 0.478777 0.460075 0
M  V30 61137 H 5799.14 1.83741 0.900023 0
M  V30 61138 H 5799.15 2.43759 3.27178 0
M  V30 61139 H 5797.82 3.3097 2.51856 0
M  V30 61140 H 5796.4 1.66989 3.3342 0
M  V30 61141 N 5798.59 -0.960565 1.24944 0
M  V30 61142 C 5799.5 -2.09016 1.06534 0
M  V30 61143 C 5800.51 -1.74 0.00412758 0
M  V30 61144 O 5801.69 -2.00366 0.203814 0
M  V30 61145 C 5798.75 -3.39969 0.679855 0
M  V30 61146 C 5797.81 -3.88889 1.81835 0
M  V30 61147 C 5797.05 -5.13592 1.45116 0
M  V30 61148 O 5797.27 -5.69361 0.344154 0
M  V30 61149 O 5796.2 -5.57075 2.27929 0
M  V30 61150 H 5800.03 -2.27446 2.01251 0
M  V30 61151 H 5797.62 -1.07425 1.03828 0
M  V30 61152 H 5799.5 -4.18695 0.476728 0
M  V30 61153 H 5798.17 -3.22823 -0.238118 0
M  V30 61154 H 5797.08 -3.11193 2.07628 0
M  V30 61155 H 5798.41 -4.10524 2.71535 0
M  V30 61156 N 5800.06 -1.06434 -1.16231 0
M  V30 61157 C 5801.31 -0.781906 -1.86795 0
M  V30 61158 C 5801.64 0.69167 -1.81786 0
M  V30 61159 O 5800.89 1.52266 -1.22937 0
M  V30 61160 C 5801.19 -1.2236 -3.35802 0
M  V30 61161 C 5800.86 -2.70153 -3.6101 0
M  V30 61162 C 5799.52 -3.10523 -3.67599 0
M  V30 61163 C 5801.87 -3.65595 -3.71469 0
M  V30 61164 C 5799.2 -4.45173 -3.8215 0
M  V30 61165 C 5801.55 -4.99994 -3.87542 0
M  V30 61166 C 5800.22 -5.4 -3.92373 0
M  V30 61167 H 5799.49 -0.28612 -0.683532 0
M  V30 61168 H 5802.13 -1.33369 -1.37423 0
M  V30 61169 H 5800.44 -0.591032 -3.87316 0
M  V30 61170 H 5802.14 -0.982095 -3.88788 0
M  V30 61171 H 5798.73 -2.37896 -3.56515 0
M  V30 61172 H 5802.91 -3.35538 -3.65688 0
M  V30 61173 H 5798.17 -4.75651 -3.84143 0
M  V30 61174 H 5802.34 -5.73831 -3.94577 0
M  V30 61175 H 5799.97 -6.44338 -4.034 0
M  V30 61176 N 5801.54 1.32897 -0.84712 0
M  V30 61177 C 5802.77 2.02242 -0.459659 0
M  V30 61178 C 5803.19 1.63282 0.93384 0
M  V30 61179 O 5802.55 0.829608 1.61205 0
M  V30 61180 C 5802.6 3.55614 -0.597575 0
M  V30 61181 O 5801.7 4.10712 0.372775 0
M  V30 61182 H 5801.04 0.637497 -0.185723 0
M  V30 61183 H 5803.57 1.69613 -1.14423 0
M  V30 61184 H 5803.58 4.05139 -0.482288 0
M  V30 61185 H 5802.26 3.83314 -1.61378 0
M  V30 61186 H 5800.84 3.72283 0.214356 0
M  V30 61187 N 5803.02 0.604335 1.45553 0
M  V30 61188 C 5804.25 0.102706 2.07146 0
M  V30 61189 C 5804.67 -1.20234 1.44656 0
M  V30 61190 O 5804.03 -1.73131 0.538094 0
M  V30 61191 C 5804.08 -0.0268964 3.6059 0
M  V30 61192 O 5803.18 -1.07796 3.98063 0
M  V30 61193 H 5802.52 0.07259 0.66002 0
M  V30 61194 H 5805.05 0.833421 1.86856 0
M  V30 61195 H 5805.06 -0.226156 4.07373 0
M  V30 61196 H 5803.74 0.926039 4.05459 0
M  V30 61197 H 5802.31 -0.855424 3.62956 0
M  V30 61198 N 5804.5 -1.53815 0.343311 0
M  V30 61199 C 5805.43 -2.27953 -0.505925 0
M  V30 61200 C 5806.41 -1.29506 -1.10283 0
M  V30 61201 O 5807.59 -1.58348 -1.12426 0
M  V30 61202 C 5804.72 -3.05216 -1.65712 0
M  V30 61203 C 5803.68 -4.11165 -1.18857 0
M  V30 61204 C 5803 -4.76381 -2.42827 0
M  V30 61205 C 5804.3 -5.21499 -0.289219 0
M  V30 61206 H 5806 -2.99188 0.11254 0
M  V30 61207 H 5803.54 -1.43893 0.0555666 0
M  V30 61208 H 5805.5 -3.55819 -2.25767 0
M  V30 61209 H 5804.22 -2.31632 -2.30248 0
M  V30 61210 H 5802.88 -3.61475 -0.610835 0
M  V30 61211 H 5802.53 -3.99392 -3.05769 0
M  V30 61212 H 5802.23 -5.47962 -2.12158 0
M  V30 61213 H 5803.75 -5.29768 -3.03608 0
M  V30 61214 H 5805.17 -5.67739 -0.796609 0
M  V30 61215 H 5803.56 -6.00054 -0.0744256 0
M  V30 61216 H 5804.63 -4.80183 0.674712 0
M  V30 61217 N 5805.98 -0.0719254 -1.57436 0
M  V30 61218 C 5807.39 0.46072 -1.80926 0
M  V30 61219 C 5807.74 1.69634 -0.985841 0
M  V30 61220 O 5806.86 2.15394 -0.208395 0
M  V30 61221 C 5807.46 0.842623 -3.28154 0
M  V30 61222 C 5806.02 1.32013 -3.5249 0
M  V30 61223 C 5805.16 0.305369 -2.75613 0
M  V30 61224 H 5808.12 -0.297621 -1.55884 0
M  V30 61225 H 5808.14 1.70402 -3.40211 0
M  V30 61226 H 5807.65 -0.0568694 -3.88058 0
M  V30 61227 H 5805.75 2.23812 -2.97891 0
M  V30 61228 H 5805.86 1.29797 -4.61183 0
M  V30 61229 H 5804.23 0.782673 -2.42376 0
M  V30 61230 H 5805.01 -0.586398 -3.38255 0
M  V30 61231 N 5807.45 1.56305 0.201631 0
M  V30 61232 C 5808.68 1.84696 0.943518 0
M  V30 61233 C 5809.1 0.654711 1.76338 0
M  V30 61234 O 5808.46 -0.396523 1.76911 0
M  V30 61235 C 5808.51 3.11258 1.82074 0
M  V30 61236 O 5807.61 2.91351 2.91871 0
M  V30 61237 H 5806.96 0.608361 0.26607 0
M  V30 61238 H 5809.49 2.03531 0.20892 0
M  V30 61239 H 5809.5 3.41881 2.22668 0
M  V30 61240 H 5808.17 3.97656 1.2183 0
M  V30 61241 H 5806.75 2.72009 2.55079 0
M  V30 61242 N 5808.93 -0.469102 1.50457 0
M  V30 61243 C 5810.16 -1.24246 1.65065 0
M  V30 61244 C 5810.57 -1.86225 0.334186 0
M  V30 61245 O 5809.91 -1.70084 -0.69405 0
M  V30 61246 C 5809.98 -2.38998 2.68552 0
M  V30 61247 C 5809.64 -1.9764 4.12053 0
M  V30 61248 C 5810.64 -1.49779 4.97858 0
M  V30 61249 C 5808.32 -2.063 4.5798 0
M  V30 61250 C 5810.32 -1.11123 6.27639 0
M  V30 61251 C 5808 -1.67256 5.87766 0
M  V30 61252 C 5809 -1.19745 6.72421 0
M  V30 61253 O 5808.69 -0.812427 7.99784 0
M  V30 61254 H 5808.42 -0.381829 0.557838 0
M  V30 61255 H 5810.98 -0.566121 1.97444 0
M  V30 61256 H 5809.21 -3.09809 2.3142 0
M  V30 61257 H 5810.89 -3.00956 2.72361 0
M  V30 61258 H 5811.66 -1.42509 4.63591 0
M  V30 61259 H 5807.54 -2.42228 3.92233 0
M  V30 61260 H 5811.08 -0.739692 6.93667 0
M  V30 61261 H 5806.98 -1.74186 6.21554 0
M  V30 61262 H 5807.75 -0.941101 8.13072 0
M  V30 61263 N 5810.41 -1.40068 -0.722415 0
M  V30 61264 C 5811.37 -1.3955 -1.8182 0
M  V30 61265 C 5812.37 -0.290441 -1.58155 0
M  V30 61266 O 5813.56 -0.548999 -1.65323 0
M  V30 61267 C 5810.7 -1.18052 -3.19807 0
M  V30 61268 H 5811.89 -2.3707 -1.83679 0
M  V30 61269 H 5809.44 -1.25816 -0.927359 0
M  V30 61270 H 5810.18 -0.21265 -3.23602 0
M  V30 61271 H 5809.96 -1.98091 -3.38382 0
M  V30 61272 H 5811.45 -1.20461 -3.99849 0
M  V30 61273 N 5811.89 0.953925 -1.25451 0
M  V30 61274 C 5812.85 2.03228 -1.05977 0
M  V30 61275 C 5813.85 1.60795 -0.012342 0
M  V30 61276 O 5815.04 1.7233 -0.254593 0
M  V30 61277 C 5812.17 3.35412 -0.609223 0
M  V30 61278 H 5813.37 2.21936 -2.01704 0
M  V30 61279 H 5810.92 1.13111 -1.07868 0
M  V30 61280 H 5811.66 3.22399 0.35061 0
M  V30 61281 H 5811.44 3.67559 -1.36538 0
M  V30 61282 H 5812.93 4.14663 -0.494426 0
M  V30 61283 N 5813.37 1.07049 1.15665 0
M  V30 61284 C 5814.6 0.811634 1.8999 0
M  V30 61285 C 5815.01 -0.638565 1.78098 0
M  V30 61286 O 5814.35 -1.44949 1.12851 0
M  V30 61287 C 5814.41 1.13677 3.41054 0
M  V30 61288 C 5814.07 2.58694 3.76731 0
M  V30 61289 C 5815.07 3.56937 3.78011 0
M  V30 61290 C 5812.76 2.94192 4.07132 0
M  V30 61291 C 5814.75 4.88714 4.09192 0
M  V30 61292 C 5812.44 4.26167 4.37978 0
M  V30 61293 C 5813.44 5.23238 4.38989 0
M  V30 61294 O 5813.12 6.52842 4.69097 0
M  V30 61295 H 5812.86 0.293264 0.609075 0
M  V30 61296 H 5815.41 1.42947 1.47497 0
M  V30 61297 H 5813.64 0.461897 3.83932 0
M  V30 61298 H 5815.33 0.860947 3.96664 0
M  V30 61299 H 5816.09 3.30854 3.54627 0
M  V30 61300 H 5811.97 2.19286 4.05505 0
M  V30 61301 H 5815.52 5.64474 4.09896 0
M  V30 61302 H 5811.41 4.52004 4.60828 0
M  V30 61303 H 5812.18 6.57947 4.86875 0
M  V30 61304 N 5814.85 -1.32446 0.854156 0
M  V30 61305 C 5815.81 -2.27182 0.303457 0
M  V30 61306 C 5816.81 -1.51584 -0.536568 0
M  V30 61307 O 5818 -1.70686 -0.348151 0
M  V30 61308 C 5815.13 -3.36088 -0.570734 0
M  V30 61309 H 5816.32 -2.77404 1.1396 0
M  V30 61310 H 5813.88 -1.43109 0.628452 0
M  V30 61311 H 5814.61 -2.91133 -1.42871 0
M  V30 61312 H 5814.4 -3.92088 0.0305368 0
M  V30 61313 H 5815.89 -4.06678 -0.948829 0
M  V30 61314 N 5816.32 -0.612045 -1.4523 0
M  V30 61315 C 5817.55 -0.115482 -2.06577 0
M  V30 61316 C 5817.97 1.20201 -1.45593 0
M  V30 61317 O 5817.32 1.73313 -0.571729 0
M  V30 61318 C 5817.37 0.0258672 -3.61491 0
M  V30 61319 O 5817.1 -1.2395 -4.202 0
M  V30 61320 C 5818.6 0.553367 -4.39833 0
M  V30 61321 H 5815.82 -0.0708891 -0.667245 0
M  V30 61322 H 5818.36 -0.841043 -1.86405 0
M  V30 61323 H 5816.52 0.701775 -3.80991 0
M  V30 61324 H 5816.93 -1.07205 -5.13427 0
M  V30 61325 H 5818.4 0.601343 -5.48715 0
M  V30 61326 H 5818.88 1.57656 -4.09928 0
M  V30 61327 H 5819.49 -0.0886449 -4.25208 0
M  V30 61328 N 5817.8 1.53631 -0.351463 0
M  V30 61329 C 5818.76 2.23918 0.489215 0
M  V30 61330 C 5819.76 1.24211 1.02119 0
M  V30 61331 O 5820.95 1.48592 0.909183 0
M  V30 61332 C 5818.09 2.96498 1.68231 0
M  V30 61333 H 5819.28 2.99637 -0.125624 0
M  V30 61334 H 5816.83 1.55961 -0.102928 0
M  V30 61335 H 5817.57 2.24986 2.33563 0
M  V30 61336 H 5817.35 3.69641 1.30797 0
M  V30 61337 H 5818.84 3.49969 2.27841 0
M  V30 61338 N 5819.28 0.0802736 1.57395 0
M  V30 61339 C 5820.21 -0.913703 2.102 0
M  V30 61340 C 5821.22 -1.25584 1.03597 0
M  V30 61341 O 5822.41 -1.21155 1.31087 0
M  V30 61342 C 5819.51 -2.22711 2.55447 0
M  V30 61343 C 5818.69 -2.06254 3.85717 0
M  V30 61344 C 5817.75 -3.20975 4.16967 0
M  V30 61345 O 5816.77 -2.95591 4.8643 0
M  V30 61346 N 5817.97 -4.46318 3.71188 0
M  V30 61347 H 5820.74 -0.462804 2.96105 0
M  V30 61348 H 5818.3 -0.10523 1.61558 0
M  V30 61349 H 5820.29 -2.98379 2.73408 0
M  V30 61350 H 5818.86 -2.59272 1.74633 0
M  V30 61351 H 5818.08 -1.15003 3.77052 0
M  V30 61352 H 5819.37 -1.92519 4.70971 0
M  V30 61353 H 5818.77 -4.69826 3.15087 0
M  V30 61354 H 5817.32 -5.18985 3.94333 0
M  V30 61355 N 5820.76 -1.5641 -0.193339 0
M  V30 61356 C 5821.67 -1.97891 -1.26002 0
M  V30 61357 C 5822.68 -0.886839 -1.49704 0
M  V30 61358 O 5823.86 -1.19273 -1.62284 0
M  V30 61359 C 5820.92 -2.31155 -2.58396 0
M  V30 61360 C 5819.99 -3.54077 -2.4275 0
M  V30 61361 C 5819.22 -3.85745 -3.68831 0
M  V30 61362 O 5819.44 -3.18679 -4.73075 0
M  V30 61363 O 5818.38 -4.79168 -3.64255 0
M  V30 61364 H 5822.2 -2.88852 -0.937986 0
M  V30 61365 H 5819.79 -1.43988 -0.398477 0
M  V30 61366 H 5821.67 -2.53618 -3.36535 0
M  V30 61367 H 5820.34 -1.43361 -2.90223 0
M  V30 61368 H 5819.25 -3.36859 -1.62716 0
M  V30 61369 H 5820.58 -4.42343 -2.15855 0
M  V30 61370 N 5822.24 0.461116 -1.50703 0
M  V30 61371 C 5823.2 1.54026 -1.69731 0
M  V30 61372 C 5824.2 1.50443 -0.56776 0
M  V30 61373 O 5825.39 1.52886 -0.834955 0
M  V30 61374 C 5822.52 2.93636 -1.73179 0
M  V30 61375 H 5823.71 1.38469 -2.66019 0
M  V30 61376 H 5821.27 0.688185 -1.40334 0
M  V30 61377 H 5822 3.14626 -0.786189 0
M  V30 61378 H 5821.79 2.97643 -2.55247 0
M  V30 61379 H 5823.28 3.71965 -1.8982 0
M  V30 61380 N 5823.71 1.40449 0.714977 0
M  V30 61381 C 5824.94 1.4187 1.50188 0
M  V30 61382 C 5825.35 0.0168809 1.89192 0
M  V30 61383 O 5824.7 -0.969677 1.56022 0
M  V30 61384 C 5824.76 2.24629 2.80682 0
M  V30 61385 C 5824.42 3.73035 2.63996 0
M  V30 61386 C 5825.42 4.65656 2.31216 0
M  V30 61387 C 5823.1 4.16857 2.80242 0
M  V30 61388 C 5825.1 6.00084 2.14891 0
M  V30 61389 C 5822.78 5.51355 2.63535 0
M  V30 61390 C 5823.78 6.42784 2.30907 0
M  V30 61391 O 5823.47 7.74802 2.14328 0
M  V30 61392 H 5823.2 0.485837 0.470041 0
M  V30 61393 H 5825.76 1.85141 0.889485 0
M  V30 61394 H 5823.99 1.76138 3.44256 0
M  V30 61395 H 5825.68 2.17984 3.424 0
M  V30 61396 H 5826.44 4.33095 2.18297 0
M  V30 61397 H 5822.32 3.46012 3.04625 0
M  V30 61398 H 5825.86 6.71412 1.89347 0
M  V30 61399 H 5821.76 5.83501 2.76038 0
M  V30 61400 H 5822.53 7.85742 2.29243 0
M  V30 61401 N 5825.19 -0.947259 1.25955 0
M  V30 61402 C 5826.1 -2.07874 1.08745 0
M  V30 61403 C 5827.12 -1.73985 0.0225823 0
M  V30 61404 O 5828.29 -2.00139 0.225054 0
M  V30 61405 C 5825.36 -3.39229 0.715875 0
M  V30 61406 C 5824.42 -3.86939 1.85949 0
M  V30 61407 C 5823.65 -5.12024 1.50555 0
M  V30 61408 O 5823.88 -5.68964 0.404523 0
M  V30 61409 O 5822.81 -5.54626 2.33825 0
M  V30 61410 H 5826.64 -2.25298 2.03653 0
M  V30 61411 H 5824.22 -1.06318 1.04961 0
M  V30 61412 H 5826.1 -4.18166 0.521109 0
M  V30 61413 H 5824.78 -3.23057 -0.203865 0
M  V30 61414 H 5823.69 -3.08974 2.10917 0
M  V30 61415 H 5825.02 -4.07621 2.75874 0
M  V30 61416 N 5826.67 -1.07661 -1.15095 0
M  V30 61417 C 5827.6 -0.657675 -2.19562 0
M  V30 61418 C 5828.62 0.291404 -1.60171 0
M  V30 61419 O 5829.8 0.0802354 -1.7832 0
M  V30 61420 C 5826.9 0.054103 -3.38857 0
M  V30 61421 C 5826.08 -0.911953 -4.27788 0
M  V30 61422 C 5825.14 -0.236894 -5.25666 0
M  V30 61423 O 5824.16 -0.878929 -5.62373 0
M  V30 61424 N 5825.36 1.01621 -5.71536 0
M  V30 61425 H 5828.13 -1.55635 -2.56121 0
M  V30 61426 H 5825.69 -0.961703 -1.30242 0
M  V30 61427 H 5827.68 0.516462 -4.01391 0
M  V30 61428 H 5826.25 0.854766 -3.00687 0
M  V30 61429 H 5825.47 -1.55335 -3.62305 0
M  V30 61430 H 5826.76 -1.56684 -4.84074 0
M  V30 61431 H 5826.16 1.55772 -5.43831 0
M  V30 61432 H 5824.72 1.4222 -6.36095 0
M  V30 61433 N 5828.15 1.31991 -0.861168 0
M  V30 61434 C 5829.11 2.27018 -0.3155 0
M  V30 61435 C 5830.11 1.51866 0.528522 0
M  V30 61436 O 5831.3 1.70868 0.339094 0
M  V30 61437 C 5828.43 3.36386 0.552902 0
M  V30 61438 H 5829.63 2.76796 -1.15429 0
M  V30 61439 H 5827.18 1.42774 -0.636033 0
M  V30 61440 H 5827.91 2.91887 1.41325 0
M  V30 61441 H 5827.7 3.92066 -0.0513298 0
M  V30 61442 H 5829.19 4.07175 0.927249 0
M  V30 61443 N 5829.63 0.619739 1.44903 0
M  V30 61444 C 5830.87 0.119882 2.02445 0
M  V30 61445 C 5831.21 -1.25085 1.48551 0
M  V30 61446 O 5830.48 -1.82778 0.665006 0
M  V30 61447 C 5830.76 0.0941471 3.59977 0
M  V30 61448 C 5830.62 1.49641 4.24179 0
M  V30 61449 C 5831.94 -0.587327 4.36163 0
M  V30 61450 H 5829.05 0.0450378 0.735623 0
M  V30 61451 H 5831.7 0.794036 1.72612 0
M  V30 61452 H 5829.85 -0.479937 3.85524 0
M  V30 61453 H 5831.52 2.11851 4.09777 0
M  V30 61454 H 5829.76 2.05361 3.82111 0
M  V30 61455 H 5830.43 1.43054 5.33141 0
M  V30 61456 H 5832.91 -0.0992401 4.15982 0
M  V30 61457 H 5831.78 -0.57448 5.45885 0
M  V30 61458 H 5832.05 -1.65564 4.09928 0
M  V30 61459 N 5831.1 -1.53442 0.359606 0
M  V30 61460 C 5832.07 -2.24174 -0.477333 0
M  V30 61461 C 5833.07 -1.24751 -1.01459 0
M  V30 61462 O 5834.26 -1.49072 -0.90129 0
M  V30 61463 C 5831.39 -2.97386 -1.66656 0
M  V30 61464 H 5832.58 -2.99566 0.141512 0
M  V30 61465 H 5830.14 -1.55904 0.111198 0
M  V30 61466 H 5830.87 -2.26222 -2.32366 0
M  V30 61467 H 5830.66 -3.7033 -1.28835 0
M  V30 61468 H 5832.15 -3.51173 -2.25981 0
M  V30 61469 N 5832.58 -0.0886195 -1.57351 0
M  V30 61470 C 5833.53 0.890209 -2.14891 0
M  V30 61471 C 5834.52 1.29667 -1.09008 0
M  V30 61472 O 5835.73 1.27195 -1.27363 0
M  V30 61473 H 5832.11 0.305083 -0.687334 0
M  V30 61474 H 5834.08 0.380139 -2.95969 0
M  V30 61475 C 5832.83 2.14206 -2.73881 0
M  V30 61476 H 5832.15 1.83817 -3.55037 0
M  V30 61477 H 5833.59 2.80769 -3.17718 0
M  V30 61478 C 5832.05 2.9118 -1.69458 0
M  V30 61479 O 5832.58 3.8549 -1.12963 0
M  V30 61480 N 5830.78 2.54598 -1.401 0
M  V30 61481 H 5830.33 1.77977 -1.86231 0
M  V30 61482 H 5830.29 3.06401 -0.704684 0
M  V30 61483 N 5834.06 1.5651 0.185041 0
M  V30 61484 C 5835.31 1.80851 0.902075 0
M  V30 61485 C 5835.63 0.66336 1.8337 0
M  V30 61486 O 5834.9 -0.317686 1.93307 0
M  V30 61487 H 5833.48 0.66712 0.336095 0
M  V30 61488 H 5836.14 1.9399 0.188142 0
M  V30 61489 H 5835.24 2.74388 1.48719 0
M  V30 61490 N 5835.54 -0.453117 1.50946 0
M  V30 61491 C 5836.82 -1.21408 1.53361 0
M  V30 61492 C 5837.2 -2.09117 0.288657 0
M  V30 61493 O 5836.54 -2.16623 -0.727088 0
M  V30 61494 C 5836.75 -2.02959 2.83916 0
M  V30 61495 C 5838.1 -2.6054 3.35267 0
M  V30 61496 O 5839.13 -2.13186 2.8536 0
M  V30 61497 O 5837.98 -3.46866 4.2231 0
M  V30 61498 H 5835.08 -0.551887 0.615913 0
M  V30 61499 H 5837.62 -0.463472 1.63248 0
M  V30 61500 H 5836.4 -1.38441 3.65992 0
M  V30 61501 H 5836.02 -2.85117 2.77117 0
M  V30 61502 N 5837.02 -1.40826 -0.707518 0
M  V30 61503 C 5838.24 -1.43066 -1.50156 0
M  V30 61504 C 5838.67 -0.0342805 -1.88069 0
M  V30 61505 O 5838.02 0.959619 -1.53821 0
M  V30 61506 C 5838.07 -2.33468 -2.74818 0
M  V30 61507 O 5837.18 -1.78349 -3.71841 0
M  V30 61508 H 5836.52 -0.486036 -0.4524 0
M  V30 61509 H 5839.05 -1.8515 -0.870677 0
M  V30 61510 H 5839.06 -2.48933 -3.23259 0
M  V30 61511 H 5837.73 -3.34935 -2.46559 0
M  V30 61512 H 5836.31 -1.72272 -3.30722 0
M  V30 61513 N 5838.5 0.940566 -1.26456 0
M  V30 61514 C 5839.41 2.07295 -1.09846 0
M  V30 61515 C 5840.42 1.73971 -0.0318089 0
M  V30 61516 O 5841.6 2.00016 -0.235665 0
M  V30 61517 C 5838.66 3.38844 -0.733855 0
M  V30 61518 C 5837.72 3.85947 -1.87998 0
M  V30 61519 C 5836.96 5.11219 -1.53268 0
M  V30 61520 O 5837.18 5.68741 -0.434691 0
M  V30 61521 O 5836.11 5.53378 -2.36763 0
M  V30 61522 H 5839.94 2.24215 -2.04844 0
M  V30 61523 H 5837.52 1.0576 -1.05524 0
M  V30 61524 H 5839.41 4.17883 -0.543278 0
M  V30 61525 H 5838.08 3.23161 0.18673 0
M  V30 61526 H 5836.99 3.07851 -2.12553 0
M  V30 61527 H 5838.32 4.06152 -2.78032 0
M  V30 61528 N 5839.97 1.0827 1.14523 0
M  V30 61529 C 5841.22 0.812727 1.85803 0
M  V30 61530 C 5841.55 -0.659814 1.82647 0
M  V30 61531 O 5840.83 -1.48494 1.25618 0
M  V30 61532 C 5841.11 1.33347 3.345 0
M  V30 61533 C 5840.96 2.87125 3.46236 0
M  V30 61534 C 5842.28 0.957586 4.29556 0
M  V30 61535 H 5839.4 0.296705 0.674637 0
M  V30 61536 H 5842.04 1.34208 1.34493 0
M  V30 61537 H 5840.19 0.883189 3.78328 0
M  V30 61538 H 5841.87 3.40513 3.11205 0
M  V30 61539 H 5840.11 3.24855 2.87492 0
M  V30 61540 H 5840.78 3.18634 4.50751 0
M  V30 61541 H 5843.26 1.34574 3.93737 0
M  V30 61542 H 5842.13 1.34916 5.32061 0
M  V30 61543 H 5842.39 -0.135534 4.41892 0
M  V30 61544 N 5841.45 -1.31533 0.868156 0
M  V30 61545 C 5842.7 -1.97064 0.478898 0
M  V30 61546 C 5843.03 -1.68472 -0.965961 0
M  V30 61547 O 5842.31 -0.980225 -1.67994 0
M  V30 61548 C 5842.59 -3.52531 0.734437 0
M  V30 61549 C 5842.44 -3.90703 2.2287 0
M  V30 61550 C 5843.76 -4.39647 0.199713 0
M  V30 61551 H 5840.88 -0.715807 0.175469 0
M  V30 61552 H 5843.52 -1.5569 1.08906 0
M  V30 61553 H 5841.67 -3.87904 0.215098 0
M  V30 61554 H 5843.34 -3.65441 2.81515 0
M  V30 61555 H 5841.59 -3.39376 2.70197 0
M  V30 61556 H 5842.26 -4.99095 2.35815 0
M  V30 61557 H 5844.73 -4.11086 0.643998 0
M  V30 61558 H 5843.61 -5.47382 0.407976 0
M  V30 61559 H 5843.87 -4.32878 -0.898262 0
M  V30 61560 N 5842.93 -0.627415 -1.44573 0
M  V30 61561 C 5843.86 0.066653 -2.33405 0
M  V30 61562 C 5844.84 0.838614 -1.47991 0
M  V30 61563 O 5846.03 0.805234 -1.76719 0
M  V30 61564 C 5843.16 1.05136 -3.31004 0
M  V30 61565 C 5842.11 0.391283 -4.26208 0
M  V30 61566 C 5841.44 1.48563 -5.13647 0
M  V30 61567 C 5842.74 -0.700124 -5.17586 0
M  V30 61568 H 5844.43 -0.675132 -2.91689 0
M  V30 61569 H 5841.98 -0.326115 -1.40259 0
M  V30 61570 H 5843.93 1.54563 -3.92031 0
M  V30 61571 H 5842.65 1.82399 -2.70921 0
M  V30 61572 H 5841.31 -0.0822983 -3.66508 0
M  V30 61573 H 5840.96 2.24904 -4.49919 0
M  V30 61574 H 5840.66 1.04937 -5.78154 0
M  V30 61575 H 5842.18 1.98178 -5.77545 0
M  V30 61576 H 5843.6 -0.289113 -5.72571 0
M  V30 61577 H 5841.99 -1.0593 -5.90677 0
M  V30 61578 H 5843.06 -1.56877 -4.58822 0
M  V30 61579 N 5844.41 1.5325 -0.367738 0
M  V30 61580 C 5845.35 2.25802 0.477723 0
M  V30 61581 C 5846.32 1.26558 1.07574 0
M  V30 61582 O 5847.51 1.55344 1.10783 0
M  V30 61583 C 5844.65 3.05222 1.61039 0
M  V30 61584 C 5843.76 4.19361 1.03733 0
M  V30 61585 C 5842.9 4.86218 2.13928 0
M  V30 61586 C 5841.94 5.92385 1.54099 0
M  V30 61587 N 5841.07 6.52925 2.58135 0
M  V30 61588 H 5845.91 2.97635 -0.147471 0
M  V30 61589 H 5843.45 1.46857 -0.0845466 0
M  V30 61590 H 5845.41 3.49544 2.2776 0
M  V30 61591 H 5844.04 2.3564 2.20621 0
M  V30 61592 H 5843.09 3.79508 0.260343 0
M  V30 61593 H 5844.4 4.95647 0.559931 0
M  V30 61594 H 5843.56 5.33735 2.88465 0
M  V30 61595 H 5842.3 4.09409 2.65021 0
M  V30 61596 H 5841.3 5.44228 0.780777 0
M  V30 61597 H 5842.53 6.71116 1.03828 0
M  V30 61598 H 5840.47 5.78967 3.08437 0
M  V30 61599 H 5840.39 7.24757 2.15088 0
M  V30 61600 H 5841.66 7.0509 3.32367 0
M  V30 61601 N 5845.89 0.096963 1.57301 0
M  V30 61602 C 5846.83 -0.861304 2.14127 0
M  V30 61603 C 5847.8 -1.27854 1.06031 0
M  V30 61604 O 5848.99 -1.35996 1.33827 0
M  V30 61605 C 5846.13 -2.11433 2.72746 0
M  V30 61606 C 5845.24 -1.74746 3.9508 0
M  V30 61607 C 5844.38 -2.94848 4.41857 0
M  V30 61608 C 5843.41 -2.54296 5.56776 0
M  V30 61609 N 5842.55 -3.6724 5.98397 0
M  V30 61610 H 5847.39 -0.369864 2.95696 0
M  V30 61611 H 5844.93 -0.170891 1.46104 0
M  V30 61612 H 5846.89 -2.84818 3.04852 0
M  V30 61613 H 5845.52 -2.58074 1.93902 0
M  V30 61614 H 5844.57 -0.91322 3.69276 0
M  V30 61615 H 5845.88 -1.40929 4.78477 0
M  V30 61616 H 5845.03 -3.76484 4.75757 0
M  V30 61617 H 5843.77 -3.31877 3.57364 0
M  V30 61618 H 5842.78 -1.71088 5.22503 0
M  V30 61619 H 5844 -2.1841 6.43019 0
M  V30 61620 H 5841.95 -4.03983 5.1685 0
M  V30 61621 H 5841.87 -3.37274 6.76596 0
M  V30 61622 H 5843.13 -4.4938 6.36928 0
M  V30 61623 N 5847.36 -1.56606 -0.176738 0
M  V30 61624 C 5848.29 -1.99018 -1.22123 0
M  V30 61625 C 5849.27 -0.864921 -1.46469 0
M  V30 61626 O 5850.46 -1.13061 -1.57895 0
M  V30 61627 C 5847.59 -2.34543 -2.56138 0
M  V30 61628 C 5846.54 -3.49979 -2.46372 0
M  V30 61629 C 5845.87 -3.7123 -3.84827 0
M  V30 61630 C 5847.17 -4.83599 -1.97306 0
M  V30 61631 H 5848.86 -2.8652 -0.868699 0
M  V30 61632 H 5846.41 -1.37847 -0.416433 0
M  V30 61633 H 5848.36 -2.6281 -3.29407 0
M  V30 61634 H 5847.09 -1.43944 -2.93168 0
M  V30 61635 H 5845.75 -3.21831 -1.75558 0
M  V30 61636 H 5845.39 -2.77931 -4.19242 0
M  V30 61637 H 5845.09 -4.48898 -3.79162 0
M  V30 61638 H 5846.62 -4.01893 -4.5969 0
M  V30 61639 H 5848.03 -5.10777 -2.60345 0
M  V30 61640 H 5846.43 -5.64865 -2.02602 0
M  V30 61641 H 5847.5 -4.75955 -0.927107 0
M  V30 61642 N 5848.84 0.445106 -1.51184 0
M  V30 61643 C 5849.79 1.53969 -1.71936 0
M  V30 61644 C 5850.76 1.56342 -0.56092 0
M  V30 61645 O 5851.94 1.73473 -0.794475 0
M  V30 61646 C 5849.08 2.91749 -1.84327 0
M  V30 61647 C 5848.2 2.98965 -3.11839 0
M  V30 61648 C 5847.33 4.2782 -3.1487 0
M  V30 61649 C 5846.37 4.28875 -4.3673 0
M  V30 61650 N 5845.51 5.49241 -4.37354 0
M  V30 61651 H 5850.35 1.35577 -2.65373 0
M  V30 61652 H 5847.88 0.658741 -1.31526 0
M  V30 61653 H 5849.84 3.71684 -1.89492 0
M  V30 61654 H 5848.47 3.08717 -0.943055 0
M  V30 61655 H 5847.52 2.11742 -3.16021 0
M  V30 61656 H 5848.84 2.95605 -4.0177 0
M  V30 61657 H 5847.99 5.16122 -3.18909 0
M  V30 61658 H 5846.73 4.33826 -2.22815 0
M  V30 61659 H 5845.73 3.38966 -4.32876 0
M  V30 61660 H 5846.96 4.24539 -5.30041 0
M  V30 61661 H 5844.91 5.55983 -3.48165 0
M  V30 61662 H 5844.82 5.4773 -5.21084 0
M  V30 61663 H 5846.09 6.39597 -4.45574 0
M  V30 61664 N 5850.32 1.41199 0.70004 0
M  V30 61665 C 5851.27 1.42695 1.81402 0
M  V30 61666 C 5852.24 0.281878 1.63691 0
M  V30 61667 O 5853.42 0.482261 1.84605 0
M  V30 61668 C 5850.56 1.31053 3.19248 0
M  V30 61669 C 5849.67 2.55392 3.48423 0
M  V30 61670 C 5848.81 2.36077 4.75858 0
M  V30 61671 C 5847.85 3.55915 4.97987 0
M  V30 61672 N 5846.99 3.35698 6.16645 0
M  V30 61673 H 5851.83 2.37904 1.79459 0
M  V30 61674 H 5849.36 1.1814 0.876429 0
M  V30 61675 H 5851.32 1.22306 3.9887 0
M  V30 61676 H 5849.95 0.394534 3.2038 0
M  V30 61677 H 5849 2.74607 2.6324 0
M  V30 61678 H 5850.31 3.44547 3.60678 0
M  V30 61679 H 5849.47 2.24772 5.63527 0
M  V30 61680 H 5848.21 1.44372 4.65841 0
M  V30 61681 H 5847.21 3.6768 4.08768 0
M  V30 61682 H 5848.44 4.48568 5.09866 0
M  V30 61683 H 5846.38 2.46688 6.07849 0
M  V30 61684 H 5846.3 4.18426 6.29647 0
M  V30 61685 H 5847.57 3.28156 7.0706 0
M  V30 61686 N 5851.8 -0.933846 1.26953 0
M  V30 61687 C 5853.02 -1.72038 1.15834 0
M  V30 61688 C 5853.45 -1.85976 -0.281864 0
M  V30 61689 O 5852.81 -1.35533 -1.20418 0
M  V30 61690 C 5852.85 -3.10105 1.8403 0
M  V30 61691 O 5851.96 -3.965 1.13408 0
M  V30 61692 H 5851.3 -0.527559 0.403209 0
M  V30 61693 H 5853.83 -1.16908 1.67909 0
M  V30 61694 H 5853.84 -3.60454 1.91146 0
M  V30 61695 H 5852.51 -2.99277 2.88801 0
M  V30 61696 H 5851.09 -3.54944 1.14319 0
M  V30 61697 N 5853.28 -1.08875 -1.13947 0
M  V30 61698 C 5854.21 -0.744793 -2.21303 0
M  V30 61699 C 5855.19 0.27496 -1.67863 0
M  V30 61700 O 5856.37 0.144271 -1.93663 0
M  V30 61701 C 5853.5 -0.158458 -3.46938 0
M  V30 61702 C 5852.46 -1.10709 -4.13434 0
M  V30 61703 C 5851.78 -0.38274 -5.33328 0
M  V30 61704 C 5853.08 -2.4472 -4.61421 0
M  V30 61705 H 5854.78 -1.64239 -2.50332 0
M  V30 61706 H 5852.32 -0.791131 -1.20321 0
M  V30 61707 H 5854.28 0.0942106 -4.21295 0
M  V30 61708 H 5853 0.774301 -3.17289 0
M  V30 61709 H 5851.66 -1.34494 -3.41038 0
M  V30 61710 H 5851.31 0.553977 -4.9994 0
M  V30 61711 H 5851.01 -1.0152 -5.78764 0
M  V30 61712 H 5852.53 -0.138238 -6.10443 0
M  V30 61713 H 5853.94 -2.25175 -5.27228 0
M  V30 61714 H 5852.34 -3.03703 -5.17576 0
M  V30 61715 H 5853.41 -3.05897 -3.76238 0
M  V30 61716 N 5854.75 1.3107 -0.875119 0
M  V30 61717 C 5855.7 2.30334 -0.323881 0
M  V30 61718 C 5856.7 1.59742 0.563812 0
M  V30 61719 O 5857.9 1.74301 0.449341 0
M  V30 61720 H 5854.28 0.747059 -0.0860638 0
M  V30 61721 H 5856.25 2.74296 -1.17492 0
M  V30 61722 C 5855 3.44707 0.455227 0
M  V30 61723 H 5854.32 3.99202 -0.218573 0
M  V30 61724 H 5855.76 4.16265 0.806183 0
M  V30 61725 C 5854.22 2.93813 1.6485 0
M  V30 61726 O 5854.75 2.93014 2.74783 0
M  V30 61727 N 5852.96 2.49949 1.48235 0
M  V30 61728 H 5852.5 2.50799 0.588028 0
M  V30 61729 H 5852.46 2.16254 2.28214 0
M  V30 61730 N 5856.23 0.635073 1.44238 0
M  V30 61731 C 5857.48 0.141347 2.02307 0
M  V30 61732 C 5857.81 -1.23503 1.49869 0
M  V30 61733 O 5857.09 -1.82063 0.684355 0
M  V30 61734 C 5857.37 0.132322 3.59857 0
M  V30 61735 C 5857.22 1.54132 4.22568 0
M  V30 61736 C 5858.54 -0.541033 4.36762 0
M  V30 61737 H 5855.66 0.0528375 0.735104 0
M  V30 61738 H 5858.3 0.812299 1.71761 0
M  V30 61739 H 5856.45 -0.43902 3.86011 0
M  V30 61740 H 5858.12 2.16185 4.07507 0
M  V30 61741 H 5856.37 2.09403 3.79912 0
M  V30 61742 H 5857.04 1.487 5.31594 0
M  V30 61743 H 5859.51 -0.0551141 4.16063 0
M  V30 61744 H 5858.39 -0.51655 5.46464 0
M  V30 61745 H 5858.65 -1.61207 4.11661 0
M  V30 61746 N 5857.71 -1.53052 0.37586 0
M  V30 61747 C 5858.67 -2.24668 -0.453529 0
M  V30 61748 C 5859.67 -1.2582 -1.0013 0
M  V30 61749 O 5860.86 -1.50019 -0.885428 0
M  V30 61750 C 5858 -2.99137 -1.63493 0
M  V30 61751 H 5859.19 -2.99399 0.173277 0
M  V30 61752 H 5856.74 -1.55777 0.127727 0
M  V30 61753 H 5857.48 -2.28674 -2.29954 0
M  V30 61754 H 5857.26 -3.71675 -1.249 0
M  V30 61755 H 5858.75 -3.5355 -2.22244 0
M  V30 61756 N 5859.19 -0.105304 -1.57248 0
M  V30 61757 C 5860.14 0.849936 -2.1458 0
M  V30 61758 C 5861.11 1.2729 -1.06707 0
M  V30 61759 O 5862.29 1.35284 -1.34546 0
M  V30 61760 C 5859.43 2.09984 -2.73863 0
M  V30 61761 C 5858.54 1.72648 -3.96001 0
M  V30 61762 C 5857.68 2.92501 -4.43415 0
M  V30 61763 C 5856.72 2.5134 -5.58117 0
M  V30 61764 N 5855.85 3.64061 -6.00336 0
M  V30 61765 H 5860.69 0.354178 -2.95888 0
M  V30 61766 H 5858.23 0.163141 -1.46193 0
M  V30 61767 H 5860.19 2.83197 -3.06358 0
M  V30 61768 H 5858.82 2.57042 -1.95268 0
M  V30 61769 H 5857.87 0.893624 -3.69755 0
M  V30 61770 H 5859.18 1.38389 -4.79218 0
M  V30 61771 H 5858.34 3.73956 -4.77747 0
M  V30 61772 H 5857.08 3.29977 -3.59119 0
M  V30 61773 H 5856.08 1.68314 -5.23403 0
M  V30 61774 H 5857.31 2.14997 -6.44169 0
M  V30 61775 H 5855.25 4.01236 -5.18985 0
M  V30 61776 H 5855.17 3.33681 -6.78375 0
M  V30 61777 H 5856.44 4.45996 -6.39302 0
M  V30 61778 N 5860.67 1.56697 0.168431 0
M  V30 61779 C 5861.89 1.86655 0.904129 0
M  V30 61780 C 5862.32 0.691967 1.7491 0
M  V30 61781 O 5861.67 -0.358909 1.77712 0
M  V30 61782 C 5861.72 3.1505 1.75431 0
M  V30 61783 O 5860.83 2.97476 2.85625 0
M  V30 61784 H 5860.17 0.613867 0.253106 0
M  V30 61785 H 5862.7 2.03928 0.165701 0
M  V30 61786 H 5862.71 3.46528 2.15366 0
M  V30 61787 H 5861.38 4.00151 1.13367 0
M  V30 61788 H 5859.96 2.77358 2.49252 0
M  V30 61789 N 5862.14 -0.437082 1.51418 0
M  V30 61790 C 5863.05 -1.55575 1.75595 0
M  V30 61791 C 5864.07 -1.61795 0.640188 0
M  V30 61792 O 5865.25 -1.79032 0.922469 0
M  V30 61793 C 5862.31 -2.91554 1.87608 0
M  V30 61794 C 5861.37 -2.95449 3.11462 0
M  V30 61795 C 5860.61 -4.24942 3.22893 0
M  V30 61796 O 5860.83 -5.17333 2.40257 0
M  V30 61797 O 5859.76 -4.35126 4.15871 0
M  V30 61798 H 5863.59 -1.38088 2.70491 0
M  V30 61799 H 5861.17 -0.620116 1.35923 0
M  V30 61800 H 5863.06 -3.72255 1.97494 0
M  V30 61801 H 5861.73 -3.09168 0.958998 0
M  V30 61802 H 5860.64 -2.13702 3.07054 0
M  V30 61803 H 5861.97 -2.8278 4.0286 0
M  V30 61804 N 5863.62 -1.41568 -0.692542 0
M  V30 61805 C 5864.87 -1.41088 -1.4526 0
M  V30 61806 C 5865.2 -0.0210682 -1.94489 0
M  V30 61807 O 5864.45 0.967581 -1.70107 0
M  V30 61808 C 5864.75 -2.36692 -2.6779 0
M  V30 61809 C 5864.42 -3.83466 -2.37202 0
M  V30 61810 C 5863.08 -4.23449 -2.2857 0
M  V30 61811 C 5865.43 -4.76122 -2.12032 0
M  V30 61812 C 5862.76 -5.54092 -1.92869 0
M  V30 61813 C 5865.11 -6.07088 -1.77838 0
M  V30 61814 C 5863.78 -6.46089 -1.67705 0
M  V30 61815 H 5863.05 -0.516279 -0.531542 0
M  V30 61816 H 5865.69 -1.74388 -0.791276 0
M  V30 61817 H 5864 -1.96657 -3.3887 0
M  V30 61818 H 5865.69 -2.33593 -3.25938 0
M  V30 61819 H 5862.28 -3.518 -2.44815 0
M  V30 61820 H 5866.47 -4.46033 -2.17643 0
M  V30 61821 H 5861.72 -5.83189 -1.83578 0
M  V30 61822 H 5865.9 -6.78383 -1.57383 0
M  V30 61823 H 5863.53 -7.47233 -1.39809 0
M  V30 61824 N 5865.1 0.927101 -1.27446 0
M  V30 61825 C 5866.38 1.65318 -1.04544 0
M  V30 61826 C 5866.76 2.06887 0.419622 0
M  V30 61827 O 5866.11 1.80357 1.40298 0
M  V30 61828 C 5866.32 2.85478 -2.00756 0
M  V30 61829 C 5867.66 3.56808 -2.30159 0
M  V30 61830 O 5868.69 2.95606 -1.98734 0
M  V30 61831 O 5867.55 4.67075 -2.83731 0
M  V30 61832 H 5864.64 0.724613 -0.39858 0
M  V30 61833 H 5867.19 0.977584 -1.38713 0
M  V30 61834 H 5865.96 2.51755 -2.99558 0
M  V30 61835 H 5865.58 3.60758 -1.67152 0
M  V30 61836 N 5866.58 1.09478 1.13368 0
M  V30 61837 C 5867.99 0.824589 1.36648 0
M  V30 61838 C 5868.19 -0.560835 1.93538 0
M  V30 61839 O 5867.25 -1.3156 2.15519 0
M  V30 61840 C 5868.56 1.91626 2.31733 0
M  V30 61841 C 5870.11 1.94355 2.45347 0
M  V30 61842 C 5870.59 3.02667 3.43739 0
M  V30 61843 N 5872.08 3.0191 3.5129 0
M  V30 61844 C 5872.81 3.82359 4.27304 0
M  V30 61845 N 5872.31 4.72718 5.06468 0
M  V30 61846 N 5874.1 3.70617 4.2261 0
M  V30 61847 H 5866.25 1.98796 0.747935 0
M  V30 61848 H 5868.52 0.863332 0.391615 0
M  V30 61849 H 5868.22 2.91289 1.97088 0
M  V30 61850 H 5868.1 1.79495 3.31755 0
M  V30 61851 H 5870.48 0.953305 2.79278 0
M  V30 61852 H 5870.56 2.10563 1.45248 0
M  V30 61853 H 5870.21 4.01905 3.10539 0
M  V30 61854 H 5870.14 2.83702 4.43645 0
M  V30 61855 H 5872.63 2.36427 2.94806 0
M  V30 61856 H 5872.94 5.30685 5.61777 0
M  V30 61857 H 5871.29 4.76754 5.05698 0
M  V30 61858 H 5874.48 2.99385 3.59842 0
M  V30 61859 H 5874.65 4.33552 4.81598 0
M  V30 61860 N 5868.06 -1.30604 0.882058 0
M  V30 61861 C 5869.33 -1.91055 0.419221 0
M  V30 61862 C 5869.71 -1.80188 -1.09979 0
M  V30 61863 O 5869.06 -1.21724 -1.93379 0
M  V30 61864 C 5869.27 -3.36817 0.914067 0
M  V30 61865 C 5870.62 -4.13897 0.947314 0
M  V30 61866 O 5871.64 -3.45649 0.860534 0
M  V30 61867 O 5870.5 -5.35822 1.07502 0
M  V30 61868 H 5867.6 -0.817085 0.127673 0
M  V30 61869 H 5870.14 -1.39191 0.970766 0
M  V30 61870 H 5868.92 -3.38797 1.95786 0
M  V30 61871 H 5868.54 -3.96131 0.341519 0
M  V30 61872 N 5869.54 -0.642713 -1.43899 0
M  V30 61873 C 5870.5 0.0457052 -2.29154 0
M  V30 61874 C 5871.5 0.760938 -1.41656 0
M  V30 61875 O 5872.69 0.603775 -1.63402 0
M  V30 61876 C 5869.82 1.07541 -3.23493 0
M  V30 61877 H 5871.01 -0.704295 -2.91513 0
M  V30 61878 H 5868.57 -0.403414 -1.51004 0
M  V30 61879 H 5869.3 1.855 -2.66008 0
M  V30 61880 H 5869.09 0.566332 -3.87989 0
M  V30 61881 H 5870.58 1.55649 -3.87509 0
M  V30 61882 N 5871.01 1.52851 -0.383971 0
M  V30 61883 C 5871.98 2.24905 0.441608 0
M  V30 61884 C 5872.98 1.26349 0.994616 0
M  V30 61885 O 5874.17 1.50487 0.87746 0
M  V30 61886 C 5871.3 3 1.61904 0
M  V30 61887 H 5872.49 2.99303 -0.189153 0
M  V30 61888 H 5870.04 1.55707 -0.135987 0
M  V30 61889 H 5870.78 2.2989 2.28738 0
M  V30 61890 H 5870.56 3.72332 1.22927 0
M  V30 61891 H 5872.05 3.54723 2.20366 0
M  V30 61892 N 5872.49 0.113641 1.5719 0
M  V30 61893 C 5873.42 -0.875667 2.1073 0
M  V30 61894 C 5874.4 -1.26437 1.02238 0
M  V30 61895 O 5875.59 -1.36636 1.29857 0
M  V30 61896 C 5872.71 -2.17114 2.5996 0
M  V30 61897 C 5871.76 -1.93091 3.80287 0
M  V30 61898 S 5872.59 -1.15205 5.22961 0
M  V30 61899 C 5873.75 -2.45943 5.75554 0
M  V30 61900 H 5873.98 -0.420248 2.94315 0
M  V30 61901 H 5871.51 -0.100027 1.54076 0
M  V30 61902 H 5873.47 -2.91551 2.88978 0
M  V30 61903 H 5872.13 -2.59775 1.76567 0
M  V30 61904 H 5871.33 -2.89068 4.12863 0
M  V30 61905 H 5870.93 -1.26778 3.51857 0
M  V30 61906 H 5873.22 -3.41815 5.84952 0
M  V30 61907 H 5874.16 -2.17919 6.73733 0
M  V30 61908 H 5874.57 -2.55065 5.03589 0
M  V30 61909 N 5873.97 -1.56785 -0.160118 0
M  V30 61910 C 5874.9 -1.93852 -1.22286 0
M  V30 61911 C 5875.91 -0.832852 -1.39884 0
M  V30 61912 O 5877.1 -1.11129 -1.39688 0
M  V30 61913 C 5874.2 -2.1859 -2.58982 0
M  V30 61914 C 5873.38 -3.49848 -2.62535 0
M  V30 61915 C 5872.44 -3.63281 -3.80675 0
M  V30 61916 O 5871.46 -4.35798 -3.66154 0
M  V30 61917 N 5872.66 -2.98965 -4.97594 0
M  V30 61918 H 5875.43 -2.85617 -0.907904 0
M  V30 61919 H 5872.99 -1.58076 -0.349795 0
M  V30 61920 H 5874.98 -2.24831 -3.36502 0
M  V30 61921 H 5873.55 -1.33155 -2.82822 0
M  V30 61922 H 5872.77 -3.55166 -1.71028 0
M  V30 61923 H 5874.06 -4.362 -2.6193 0
M  V30 61924 H 5873.46 -2.39942 -5.12293 0
M  V30 61925 H 5872.01 -3.10785 -5.72936 0
M  V30 61926 N 5875.45 0.429046 -1.51647 0
M  V30 61927 C 5876.86 0.766167 -1.40007 0
M  V30 61928 C 5877.06 1.95479 -0.488906 0
M  V30 61929 O 5876.12 2.52445 0.0528214 0
M  V30 61930 C 5877.43 1.03877 -2.82188 0
M  V30 61931 C 5878.98 1.1427 -2.91396 0
M  V30 61932 C 5879.46 1.44818 -4.34502 0
M  V30 61933 N 5880.95 1.51725 -4.37646 0
M  V30 61934 C 5881.68 1.76949 -5.45414 0
M  V30 61935 N 5881.18 1.99911 -6.63331 0
M  V30 61936 N 5882.97 1.788 -5.32904 0
M  V30 61937 H 5875.12 -0.353654 -2.09435 0
M  V30 61938 H 5877.38 -0.095852 -0.943142 0
M  V30 61939 H 5877.09 0.237979 -3.50894 0
M  V30 61940 H 5876.96 1.96423 -3.22021 0
M  V30 61941 H 5879.35 1.9341 -2.22883 0
M  V30 61942 H 5879.43 0.19605 -2.55048 0
M  V30 61943 H 5879.08 0.662024 -5.03567 0
M  V30 61944 H 5879.01 2.40702 -4.6837 0
M  V30 61945 H 5881.5 1.3585 -3.52638 0
M  V30 61946 H 5881.81 2.18552 -7.41252 0
M  V30 61947 H 5880.16 1.97216 -6.66431 0
M  V30 61948 H 5883.35 1.60386 -4.39766 0
M  V30 61949 H 5883.52 1.98121 -6.1697 0
M  V30 61950 N 5876.93 1.41934 0.685024 0
M  V30 61951 C 5877.87 1.44611 1.79879 0
M  V30 61952 C 5878.84 0.299223 1.63383 0
M  V30 61953 O 5880.03 0.501813 1.84083 0
M  V30 61954 C 5877.17 1.34431 3.1784 0
M  V30 61955 C 5876.28 2.59074 3.45695 0
M  V30 61956 C 5875.42 2.41111 4.73328 0
M  V30 61957 C 5874.45 3.61177 4.94184 0
M  V30 61958 N 5873.59 3.42219 6.1305 0
M  V30 61959 H 5878.43 2.39794 1.76925 0
M  V30 61960 H 5875.97 1.19063 0.863849 0
M  V30 61961 H 5877.93 1.26529 3.9755 0
M  V30 61962 H 5876.56 0.428493 3.19943 0
M  V30 61963 H 5875.61 2.77383 2.60313 0
M  V30 61964 H 5876.92 3.48353 3.57003 0
M  V30 61965 H 5876.07 2.30736 5.61111 0
M  V30 61966 H 5874.81 1.49304 4.64284 0
M  V30 61967 H 5873.82 3.71995 4.04846 0
M  V30 61968 H 5875.04 4.53951 5.0508 0
M  V30 61969 H 5872.99 2.53122 6.05199 0
M  V30 61970 H 5872.91 4.25081 6.25174 0
M  V30 61971 H 5874.17 3.35637 7.0354 0
M  V30 61972 N 5878.4 -0.920329 1.27936 0
M  V30 61973 C 5879.33 -2.03878 1.13825 0
M  V30 61974 C 5880.31 -1.70058 0.0377451 0
M  V30 61975 O 5881.5 -1.93022 0.21356 0
M  V30 61976 C 5878.63 -3.38139 0.792414 0
M  V30 61977 C 5877.58 -3.86098 1.84696 0
M  V30 61978 C 5876.91 -5.17248 1.35492 0
M  V30 61979 C 5878.21 -4.08678 3.25237 0
M  V30 61980 H 5879.9 -2.15942 2.07387 0
M  V30 61981 H 5877.45 -1.0376 0.998491 0
M  V30 61982 H 5879.4 -4.15869 0.680483 0
M  V30 61983 H 5878.13 -3.2611 -0.178914 0
M  V30 61984 H 5876.79 -3.10566 1.94792 0
M  V30 61985 H 5876.43 -5.01616 0.372842 0
M  V30 61986 H 5876.13 -5.50306 2.06002 0
M  V30 61987 H 5877.66 -5.97541 1.25608 0
M  V30 61988 H 5879.07 -4.76954 3.181 0
M  V30 61989 H 5877.47 -4.53056 3.93523 0
M  V30 61990 H 5878.54 -3.13716 3.69744 0
M  V30 61991 N 5879.88 -1.10078 -1.12786 0
M  V30 61992 C 5880.79 -0.758536 -2.21999 0
M  V30 61993 C 5881.81 0.242378 -1.72304 0
M  V30 61994 O 5882.98 0.0820516 -2.01233 0
M  V30 61995 C 5880.05 -0.191448 -3.46171 0
M  V30 61996 C 5879.11 -1.24917 -4.10724 0
M  V30 61997 C 5878.34 -0.709043 -5.28969 0
M  V30 61998 O 5878.57 0.465794 -5.68495 0
M  V30 61999 O 5877.5 -1.46723 -5.83743 0
M  V30 62000 H 5881.33 -1.67006 -2.53659 0
M  V30 62001 H 5878.91 -0.875647 -1.21049 0
M  V30 62002 H 5880.79 0.121144 -4.21226 0
M  V30 62003 H 5879.47 0.692983 -3.16195 0
M  V30 62004 H 5878.37 -1.61456 -3.37465 0
M  V30 62005 H 5879.71 -2.10648 -4.44846 0
M  V30 62006 N 5881.36 1.30135 -0.888972 0
M  V30 62007 C 5882.31 2.28022 -0.357003 0
M  V30 62008 C 5883.28 1.56553 0.555011 0
M  V30 62009 O 5884.46 1.84597 0.482568 0
M  V30 62010 C 5881.6 3.42548 0.418936 0
M  V30 62011 C 5880.71 4.28826 -0.522751 0
M  V30 62012 C 5879.85 5.30518 0.26918 0
M  V30 62013 C 5878.89 6.08447 -0.667721 0
M  V30 62014 N 5878.03 7.02043 0.0891332 0
M  V30 62015 H 5882.87 2.72908 -1.19688 0
M  V30 62016 H 5880.4 1.34237 -0.601567 0
M  V30 62017 H 5882.36 4.0771 0.884768 0
M  V30 62018 H 5880.99 2.9872 1.22335 0
M  V30 62019 H 5880.04 3.63934 -1.10708 0
M  V30 62020 H 5881.35 4.83132 -1.24035 0
M  V30 62021 H 5880.51 6.01446 0.796689 0
M  V30 62022 H 5879.25 4.76915 1.01998 0
M  V30 62023 H 5878.25 5.36391 -1.20682 0
M  V30 62024 H 5879.48 6.64138 -1.41767 0
M  V30 62025 H 5877.42 6.50825 0.822393 0
M  V30 62026 H 5877.34 7.53857 -0.568764 0
M  V30 62027 H 5878.61 7.77209 0.597256 0
M  V30 62028 N 5882.84 0.650335 1.43556 0
M  V30 62029 C 5883.77 -0.0927132 2.28012 0
M  V30 62030 C 5884.75 -0.83269 1.3966 0
M  V30 62031 O 5885.93 -0.832852 1.69103 0
M  V30 62032 C 5883.06 -1.13794 3.19012 0
M  V30 62033 C 5882.11 -0.496339 4.23602 0
M  V30 62034 S 5882.94 0.727951 5.30529 0
M  V30 62035 C 5884.1 -0.316816 6.25098 0
M  V30 62036 H 5884.33 0.623707 2.90684 0
M  V30 62037 H 5881.86 0.439084 1.48025 0
M  V30 62038 H 5883.82 -1.73599 3.71986 0
M  V30 62039 H 5882.48 -1.82667 2.55523 0
M  V30 62040 H 5881.67 -1.28418 4.87365 0
M  V30 62041 H 5881.28 0.027529 3.7399 0
M  V30 62042 H 5883.57 -1.18385 6.67077 0
M  V30 62043 H 5884.51 0.285717 7.07523 0
M  V30 62044 H 5884.92 -0.65133 5.6073 0
M  V30 62045 N 5884.32 -1.52645 0.392072 0
M  V30 62046 C 5885.28 -2.25136 -0.429675 0
M  V30 62047 C 5886.28 -1.26875 -0.987901 0
M  V30 62048 O 5887.47 -1.5095 -0.869467 0
M  V30 62049 C 5884.6 -3.00854 -1.60311 0
M  V30 62050 H 5885.79 -2.99198 0.205023 0
M  V30 62051 H 5883.35 -1.55633 0.144242 0
M  V30 62052 H 5884.08 -2.311 -2.27516 0
M  V30 62053 H 5883.87 -3.72979 -1.20951 0
M  V30 62054 H 5885.36 -3.55887 -2.18482 0
M  V30 62055 N 5885.79 -0.121976 -1.57127 0
M  V30 62056 C 5887.07 0.579021 -1.86833 0
M  V30 62057 C 5887.45 1.8462 -1.02366 0
M  V30 62058 O 5886.8 2.28266 -0.103406 0
M  V30 62059 C 5887.01 0.868601 -3.38018 0
M  V30 62060 C 5888.36 1.22036 -4.06685 0
M  V30 62061 O 5889.38 0.958768 -3.43054 0
M  V30 62062 O 5888.24 1.71146 -5.1901 0
M  V30 62063 H 5885.33 0.292512 -0.773541 0
M  V30 62064 H 5887.88 -0.156704 -1.68975 0
M  V30 62065 H 5886.65 -0.0292432 -3.91289 0
M  V30 62066 H 5886.28 1.65938 -3.61317 0
M  V30 62067 N 5887.27 1.56867 0.151801 0
M  V30 62068 C 5888.2 1.94498 1.21256 0
M  V30 62069 C 5889.22 0.840259 1.3944 0
M  V30 62070 O 5890.41 1.11868 1.39096 0
M  V30 62071 C 5887.51 2.19961 2.57819 0
M  V30 62072 C 5886.68 3.51236 2.60676 0
M  V30 62073 C 5885.74 3.65295 3.78743 0
M  V30 62074 O 5884.76 4.37733 3.63838 0
M  V30 62075 N 5885.97 3.016 4.96002 0
M  V30 62076 H 5888.73 2.86095 0.892744 0
M  V30 62077 H 5886.29 1.58259 0.341407 0
M  V30 62078 H 5888.28 2.26612 3.35304 0
M  V30 62079 H 5886.85 1.34653 2.82112 0
M  V30 62080 H 5886.07 3.56068 1.69142 0
M  V30 62081 H 5887.36 4.37583 2.59613 0
M  V30 62082 H 5886.76 2.42655 5.11014 0
M  V30 62083 H 5885.32 3.13819 5.7128 0
M  V30 62084 N 5888.75 -0.420997 1.51873 0
M  V30 62085 C 5889.71 -1.49472 1.73755 0
M  V30 62086 C 5890.71 -1.48885 0.607448 0
M  V30 62087 O 5891.9 -1.50619 0.875196 0
M  V30 62088 C 5889.04 -2.88941 1.80903 0
M  V30 62089 H 5890.23 -1.31367 2.69597 0
M  V30 62090 H 5887.78 -0.650736 1.4211 0
M  V30 62091 H 5888.52 -3.12431 0.86933 0
M  V30 62092 H 5888.3 -2.90771 2.63048 0
M  V30 62093 H 5889.79 -3.66802 1.99615 0
M  V30 62094 N 5890.23 -1.42295 -0.677488 0
M  V30 62095 C 5891.16 -1.39992 -1.80215 0
M  V30 62096 C 5892.14 -0.26457 -1.60433 0
M  V30 62097 O 5893.32 -0.454363 -1.82942 0
M  V30 62098 C 5890.45 -1.1882 -3.17174 0
M  V30 62099 C 5889.5 -2.35313 -3.5571 0
M  V30 62100 S 5890.33 -3.9784 -3.58446 0
M  V30 62101 C 5891.49 -3.79005 -4.98103 0
M  V30 62102 H 5891.72 -2.35164 -1.81894 0
M  V30 62103 H 5889.25 -1.29035 -0.847902 0
M  V30 62104 H 5891.21 -1.07291 -3.96231 0
M  V30 62105 H 5889.87 -0.252386 -3.13084 0
M  V30 62106 H 5889.06 -2.1624 -4.55254 0
M  V30 62107 H 5888.67 -2.43343 -2.84008 0
M  V30 62108 H 5890.96 -3.39829 -5.86108 0
M  V30 62109 H 5891.9 -4.78215 -5.22222 0
M  V30 62110 H 5892.31 -3.11923 -4.70494 0
M  V30 62111 N 5891.71 0.913531 -1.28423 0
M  V30 62112 C 5892.93 1.69645 -1.18441 0
M  V30 62113 C 5893.35 1.87044 0.256922 0
M  V30 62114 O 5892.71 1.39759 1.17361 0
M  V30 62115 C 5892.76 3.08848 -1.8787 0
M  V30 62116 O 5892.48 2.92254 -3.26373 0
M  V30 62117 C 5893.98 4.03222 -1.84192 0
M  V30 62118 H 5891.2 0.530292 -0.411134 0
M  V30 62119 H 5893.74 1.14336 -1.69551 0
M  V30 62120 H 5891.9 3.60974 -1.4063 0
M  V30 62121 H 5892.31 3.80359 -3.61147 0
M  V30 62122 H 5893.79 4.98361 -2.37361 0
M  V30 62123 H 5894.26 4.31584 -0.814346 0
M  V30 62124 H 5894.87 3.57025 -2.31113 0
M  V30 62125 N 5893.18 1.10674 1.122 0
M  V30 62126 C 5894.12 0.715657 2.17741 0
M  V30 62127 C 5895.13 -0.248835 1.60887 0
M  V30 62128 O 5896.32 -0.0329289 1.7847 0
M  V30 62129 C 5893.42 0.0357579 3.38881 0
M  V30 62130 C 5892.59 1.02505 4.25219 0
M  V30 62131 C 5891.65 0.376182 5.24854 0
M  V30 62132 O 5890.68 1.02772 5.59845 0
M  V30 62133 N 5891.88 -0.864323 5.74029 0
M  V30 62134 H 5894.64 1.62371 2.51904 0
M  V30 62135 H 5892.2 0.995896 1.27646 0
M  V30 62136 H 5894.2 -0.409859 4.02619 0
M  V30 62137 H 5892.77 -0.774744 3.02847 0
M  V30 62138 H 5891.99 1.64886 3.58059 0
M  V30 62139 H 5893.27 1.69463 4.7975 0
M  V30 62140 H 5892.67 -1.41298 5.47769 0
M  V30 62141 H 5891.23 -1.25305 6.39642 0
M  V30 62142 N 5894.66 -1.29661 0.89586 0
M  V30 62143 C 5895.6 -2.26011 0.315291 0
M  V30 62144 C 5896.57 -1.52269 -0.570351 0
M  V30 62145 O 5897.76 -1.81242 -0.518017 0
M  V30 62146 C 5894.88 -3.34189 -0.550951 0
M  V30 62147 C 5893.93 -4.25664 0.266847 0
M  V30 62148 S 5894.76 -5.09051 1.66216 0
M  V30 62149 C 5895.92 -6.20731 0.802738 0
M  V30 62150 H 5896.15 -2.74907 1.13197 0
M  V30 62151 H 5893.69 -1.37825 0.695961 0
M  V30 62152 H 5895.64 -3.96977 -1.04497 0
M  V30 62153 H 5894.3 -2.83996 -1.34183 0
M  V30 62154 H 5893.5 -5.02452 -0.394693 0
M  V30 62155 H 5893.1 -3.67507 0.693869 0
M  V30 62156 H 5895.39 -6.77496 0.0244421 0
M  V30 62157 H 5896.33 -6.91094 1.54257 0
M  V30 62158 H 5896.74 -5.63358 0.358823 0
M  V30 62159 N 5896.14 -0.657939 -1.43209 0
M  V30 62160 C 5897.37 -0.180882 -2.05807 0
M  V30 62161 C 5897.78 1.16052 -1.49428 0
M  V30 62162 O 5897.12 1.72847 -0.622063 0
M  V30 62163 C 5897.18 -0.0203621 -3.59494 0
M  V30 62164 C 5896.85 -1.2878 -4.3848 0
M  V30 62165 C 5897.84 -2.21758 -4.70233 0
M  V30 62166 C 5895.53 -1.5307 -4.78409 0
M  V30 62167 C 5897.52 -3.37316 -5.4083 0
M  V30 62168 C 5895.21 -2.6892 -5.48749 0
M  V30 62169 C 5896.21 -3.60868 -5.79882 0
M  V30 62170 O 5895.9 -4.74694 -6.48784 0
M  V30 62171 H 5895.63 -0.0894181 -0.67006 0
M  V30 62172 H 5898.18 -0.90019 -1.84623 0
M  V30 62173 H 5896.41 0.754363 -3.79271 0
M  V30 62174 H 5898.1 0.414657 -4.03776 0
M  V30 62175 H 5898.87 -2.04236 -4.39901 0
M  V30 62176 H 5894.75 -0.823802 -4.5358 0
M  V30 62177 H 5898.29 -4.09105 -5.65048 0
M  V30 62178 H 5894.19 -2.86374 -5.78498 0
M  V30 62179 H 5894.96 -4.7402 -6.67269 0
M  V30 62180 N 5897.62 1.52435 -0.400162 0
M  V30 62181 C 5898.57 2.26764 0.429719 0
M  V30 62182 C 5899.54 1.28812 1.04866 0
M  V30 62183 O 5900.72 1.57659 1.07463 0
M  V30 62184 C 5897.86 3.08569 1.54528 0
M  V30 62185 C 5896.97 4.21467 0.948146 0
M  V30 62186 C 5896.11 4.90647 2.03566 0
M  V30 62187 C 5895.15 5.9552 1.41499 0
M  V30 62188 N 5894.29 6.58253 2.44227 0
M  V30 62189 H 5899.13 2.97255 -0.210571 0
M  V30 62190 H 5896.66 1.46644 -0.115678 0
M  V30 62191 H 5898.62 3.54297 2.20294 0
M  V30 62192 H 5897.25 2.40267 2.15573 0
M  V30 62193 H 5896.3 3.79975 0.179785 0
M  V30 62194 H 5897.61 4.96723 0.454671 0
M  V30 62195 H 5896.77 5.39734 2.77079 0
M  V30 62196 H 5895.51 4.14938 2.56277 0
M  V30 62197 H 5894.51 5.45762 0.665162 0
M  V30 62198 H 5895.74 6.73167 0.895694 0
M  V30 62199 H 5893.68 5.85379 2.96087 0
M  V30 62200 H 5893.6 7.29157 1.99666 0
M  V30 62201 H 5894.87 7.11982 3.17336 0
M  V30 62202 N 5899.1 0.130307 1.5706 0
M  V30 62203 C 5900.03 -0.846367 2.13001 0
M  V30 62204 C 5901.04 -1.22225 1.0754 0
M  V30 62205 O 5902.23 -1.16923 1.34875 0
M  V30 62206 C 5899.33 -2.14471 2.62403 0
M  V30 62207 C 5898.5 -1.93878 3.92084 0
M  V30 62208 C 5897.56 -3.07547 4.26968 0
M  V30 62209 O 5896.59 -2.79966 4.95588 0
M  V30 62210 N 5897.79 -4.34283 3.85199 0
M  V30 62211 H 5900.56 -0.368366 2.97428 0
M  V30 62212 H 5898.12 -0.0537787 1.61811 0
M  V30 62213 H 5900.11 -2.8953 2.82762 0
M  V30 62214 H 5898.68 -2.53585 1.82793 0
M  V30 62215 H 5897.9 -1.02949 3.8052 0
M  V30 62216 H 5899.19 -1.77437 4.76858 0
M  V30 62217 H 5898.59 -4.59564 3.29875 0
M  V30 62218 H 5897.14 -5.06177 4.10644 0
M  V30 62219 N 5900.58 -1.56946 -0.14348 0
M  V30 62220 C 5901.54 -1.9762 -1.16099 0
M  V30 62221 C 5902.54 -0.86316 -1.35669 0
M  V30 62222 O 5903.73 -1.12971 -1.32602 0
M  V30 62223 C 5900.86 -2.29519 -2.52059 0
M  V30 62224 H 5902.05 -2.88699 -0.811965 0
M  V30 62225 H 5899.61 -1.51435 -0.386945 0
M  V30 62226 H 5900.34 -1.41243 -2.91926 0
M  V30 62227 H 5900.13 -3.10675 -2.39214 0
M  V30 62228 H 5901.62 -2.61813 -3.25336 0
M  V30 62229 N 5902.05 0.412937 -1.52094 0
M  V30 62230 C 5903.47 0.751275 -1.40812 0
M  V30 62231 C 5903.67 1.94949 -0.509611 0
M  V30 62232 O 5902.73 2.52487 0.0260432 0
M  V30 62233 C 5904.04 1.00878 -2.83274 0
M  V30 62234 C 5905.59 1.11173 -2.92591 0
M  V30 62235 C 5906.06 1.40201 -4.36013 0
M  V30 62236 N 5907.55 1.47074 -4.3923 0
M  V30 62237 C 5908.29 1.71154 -5.4726 0
M  V30 62238 N 5907.78 1.92864 -6.65414 0
M  V30 62239 N 5909.58 1.73138 -5.34771 0
M  V30 62240 H 5901.73 -0.375847 -2.09048 0
M  V30 62241 H 5903.99 -0.10585 -0.942072 0
M  V30 62242 H 5903.7 0.200749 -3.51127 0
M  V30 62243 H 5903.57 1.92997 -3.24087 0
M  V30 62244 H 5905.96 1.91035 -2.24922 0
M  V30 62245 H 5906.04 0.168988 -2.55241 0
M  V30 62246 H 5905.68 0.608576 -5.04241 0
M  V30 62247 H 5905.61 2.35721 -4.70896 0
M  V30 62248 H 5908.1 1.32102 -3.54059 0
M  V30 62249 H 5908.42 2.10677 -7.43529 0
M  V30 62250 H 5906.76 1.90136 -6.68486 0
M  V30 62251 H 5909.95 1.55713 -4.41442 0
M  V30 62252 H 5910.13 1.91566 -6.19037 0
M  V30 62253 N 5903.53 1.42652 0.669932 0
M  V30 62254 C 5904.76 1.46997 1.4631 0
M  V30 62255 C 5905.18 0.0841316 1.87912 0
M  V30 62256 O 5904.54 -0.918499 1.56311 0
M  V30 62257 C 5904.59 2.40673 2.68531 0
M  V30 62258 O 5903.69 1.88145 3.66981 0
M  V30 62259 H 5903.03 0.497859 0.439354 0
M  V30 62260 H 5905.56 1.87393 0.821282 0
M  V30 62261 H 5905.57 2.57416 3.16545 0
M  V30 62262 H 5904.25 3.41355 2.37592 0
M  V30 62263 H 5902.82 1.8098 3.26038 0
M  V30 62264 N 5905.01 -0.906708 1.28905 0
M  V30 62265 C 5905.92 -2.04309 1.15303 0
M  V30 62266 C 5906.94 -1.73825 0.077923 0
M  V30 62267 O 5908.11 -1.99321 0.288613 0
M  V30 62268 C 5905.18 -3.36779 0.823436 0
M  V30 62269 C 5904.24 -3.80827 1.98165 0
M  V30 62270 C 5903.47 -5.06975 1.66768 0
M  V30 62271 O 5903.69 -5.67389 0.585329 0
M  V30 62272 O 5902.63 -5.46906 2.51351 0
M  V30 62273 H 5906.45 -2.18705 2.10717 0
M  V30 62274 H 5904.04 -1.02925 1.08291 0
M  V30 62275 H 5905.92 -4.16296 0.653881 0
M  V30 62276 H 5904.6 -3.23542 -0.100983 0
M  V30 62277 H 5903.5 -3.02107 2.2064 0
M  V30 62278 H 5904.84 -3.98638 2.88702 0
M  V30 62279 N 5906.49 -1.11268 -1.11612 0
M  V30 62280 C 5907.76 -0.772237 -1.7971 0
M  V30 62281 C 5908.14 0.739985 -1.97705 0
M  V30 62282 O 5907.49 1.66934 -1.5603 0
M  V30 62283 C 5907.7 -1.53327 -3.13515 0
M  V30 62284 C 5909.05 -1.71138 -3.88583 0
M  V30 62285 O 5910.07 -1.49736 -3.23199 0
M  V30 62286 O 5908.93 -2.06688 -5.05907 0
M  V30 62287 H 5906.03 -0.279576 -0.77831 0
M  V30 62288 H 5908.57 -1.216 -1.1837 0
M  V30 62289 H 5907.35 -2.56205 -2.95762 0
M  V30 62290 H 5906.97 -1.08294 -3.82568 0
M  V30 62291 N 5907.97 1.29185 -0.902724 0
M  V30 62292 C 5908.91 2.27631 -0.381168 0
M  V30 62293 C 5909.88 1.57133 0.538375 0
M  V30 62294 O 5911.07 1.85098 0.462962 0
M  V30 62295 C 5908.21 3.42973 0.38258 0
M  V30 62296 C 5907.32 4.28247 -0.568204 0
M  V30 62297 C 5906.46 5.30773 0.212896 0
M  V30 62298 C 5905.49 6.07705 -0.732217 0
M  V30 62299 N 5904.63 7.02098 0.0146671 0
M  V30 62300 H 5909.47 2.71623 -1.22576 0
M  V30 62301 H 5907.01 1.33591 -0.615771 0
M  V30 62302 H 5908.97 4.08626 0.841475 0
M  V30 62303 H 5907.6 3.00001 1.1916 0
M  V30 62304 H 5906.65 3.62739 -1.14562 0
M  V30 62305 H 5907.96 4.81789 -1.29153 0
M  V30 62306 H 5907.11 6.02258 0.732853 0
M  V30 62307 H 5905.85 4.7797 0.969336 0
M  V30 62308 H 5904.86 5.35081 -1.26365 0
M  V30 62309 H 5906.08 6.62597 -1.48803 0
M  V30 62310 H 5904.03 6.5166 0.753318 0
M  V30 62311 H 5903.95 7.53212 -0.648688 0
M  V30 62312 H 5905.21 7.77798 0.514789 0
M  V30 62313 N 5909.44 0.665525 1.42858 0
M  V30 62314 C 5910.86 0.334212 1.56061 0
M  V30 62315 C 5911.06 -1.16098 1.64692 0
M  V30 62316 O 5910.12 -1.94617 1.60874 0
M  V30 62317 C 5911.43 1.05638 2.81533 0
M  V30 62318 C 5912.98 1.03781 2.95294 0
M  V30 62319 C 5913.45 1.74112 4.23614 0
M  V30 62320 N 5914.94 1.70936 4.30506 0
M  V30 62321 C 5915.68 2.22218 5.28589 0
M  V30 62322 N 5915.17 2.81843 6.32879 0
M  V30 62323 N 5916.97 2.12647 5.20325 0
M  V30 62324 H 5909.12 1.63565 1.355 0
M  V30 62325 H 5911.38 0.688561 0.651604 0
M  V30 62326 H 5911.09 2.11151 2.81262 0
M  V30 62327 H 5910.96 0.615717 3.72141 0
M  V30 62328 H 5913.35 -0.0089495 2.95099 0
M  V30 62329 H 5913.43 1.51728 2.05942 0
M  V30 62330 H 5913.07 2.78752 4.2457 0
M  V30 62331 H 5913 1.23622 5.11884 0
M  V30 62332 H 5915.49 1.27437 3.55764 0
M  V30 62333 H 5915.81 3.18618 7.04061 0
M  V30 62334 H 5914.15 2.85909 6.33468 0
M  V30 62335 H 5917.34 1.65761 4.37768 0
M  V30 62336 H 5917.52 2.5292 5.96603 0
M  V30 62337 N 5910.92 -1.52221 0.40824 0
M  V30 62338 C 5911.88 -2.2558 -0.405772 0
M  V30 62339 C 5912.88 -1.27915 -0.974389 0
M  V30 62340 O 5914.07 -1.51864 -0.853408 0
M  V30 62341 C 5911.21 -3.02538 -1.57111 0
M  V30 62342 H 5912.4 -2.98964 0.236745 0
M  V30 62343 H 5909.95 -1.55471 0.160741 0
M  V30 62344 H 5910.69 -2.335 -2.25052 0
M  V30 62345 H 5910.47 -3.74241 -1.16988 0
M  V30 62346 H 5911.96 -3.58184 -2.14695 0
M  V30 62347 N 5912.4 -0.138635 -1.56989 0
M  V30 62348 C 5913.35 0.804229 -2.16335 0
M  V30 62349 C 5914.32 1.24998 -1.09383 0
M  V30 62350 O 5915.5 1.324 -1.37386 0
M  V30 62351 C 5912.64 2.04127 -2.78255 0
M  V30 62352 C 5911.76 1.64209 -3.99574 0
M  V30 62353 C 5910.89 2.8303 -4.49519 0
M  V30 62354 C 5909.93 2.39445 -5.63323 0
M  V30 62355 N 5909.07 3.51245 -6.07924 0
M  V30 62356 H 5913.91 0.291336 -2.96572 0
M  V30 62357 H 5911.44 0.132094 -1.46506 0
M  V30 62358 H 5913.4 2.76635 -3.12296 0
M  V30 62359 H 5912.03 2.52842 -2.00676 0
M  V30 62360 H 5911.08 0.814993 -3.71567 0
M  V30 62361 H 5912.4 1.28193 -4.82046 0
M  V30 62362 H 5911.55 3.63738 -4.85571 0
M  V30 62363 H 5910.29 3.22285 -3.66038 0
M  V30 62364 H 5909.29 1.57174 -5.26855 0
M  V30 62365 H 5910.52 2.01285 -6.48584 0
M  V30 62366 H 5908.46 3.90138 -5.27379 0
M  V30 62367 H 5908.38 3.19217 -6.853 0
M  V30 62368 H 5909.65 4.32335 -6.48619 0
M  V30 62369 N 5913.88 1.57019 0.135155 0
M  V30 62370 C 5915.12 1.84265 0.847006 0
M  V30 62371 C 5915.46 0.722009 1.80279 0
M  V30 62372 O 5914.73 -0.273467 1.92568 0
M  V30 62373 C 5915.02 3.22048 1.61111 0
M  V30 62374 C 5914.87 4.44691 0.676014 0
M  V30 62375 C 5916.19 3.57197 2.57096 0
M  V30 62376 H 5913.31 0.670256 0.306472 0
M  V30 62377 H 5915.95 1.89671 0.111776 0
M  V30 62378 H 5914.1 3.17571 2.23788 0
M  V30 62379 H 5915.77 4.61262 0.0593387 0
M  V30 62380 H 5914.01 4.33798 -0.0136051 0
M  V30 62381 H 5914.68 5.37731 1.24695 0
M  V30 62382 H 5917.16 3.62361 2.04532 0
M  V30 62383 H 5916.04 4.54613 3.07601 0
M  V30 62384 H 5916.3 2.8377 3.39009 0
M  V30 62385 N 5915.36 -0.404866 1.52311 0
M  V30 62386 C 5916.58 -1.17303 1.70433 0
M  V30 62387 C 5917 -1.84167 0.415681 0
M  V30 62388 O 5916.36 -1.72052 -0.608633 0
M  V30 62389 C 5916.41 -2.23296 2.8429 0
M  V30 62390 O 5916.13 -1.59162 4.08166 0
M  V30 62391 C 5917.63 -3.12961 3.13959 0
M  V30 62392 H 5914.85 -0.352328 0.571057 0
M  V30 62393 H 5917.39 -0.475781 1.98888 0
M  V30 62394 H 5915.55 -2.88683 2.58342 0
M  V30 62395 H 5915.96 -2.29464 4.71642 0
M  V30 62396 H 5917.44 -3.83397 3.97128 0
M  V30 62397 H 5917.91 -3.75574 2.27685 0
M  V30 62398 H 5918.52 -2.53239 3.41687 0
M  V30 62399 N 5916.83 -1.43006 -0.662357 0
M  V30 62400 C 5918.06 -1.47771 -1.45528 0
M  V30 62401 C 5918.48 -0.0940958 -1.87864 0
M  V30 62402 O 5917.84 0.910197 -1.56796 0
M  V30 62403 C 5917.89 -2.42093 -2.67251 0
M  V30 62404 O 5916.99 -1.90088 -3.65978 0
M  V30 62405 H 5916.34 -0.500182 -0.436708 0
M  V30 62406 H 5918.87 -1.87826 -0.811333 0
M  V30 62407 H 5918.88 -2.59092 -3.15175 0
M  V30 62408 H 5917.55 -3.4261 -2.35778 0
M  V30 62409 H 5916.13 -1.82707 -3.25073 0
M  V30 62410 N 5918.31 0.899859 -1.29384 0
M  V30 62411 C 5919.28 1.9855 -1.14501 0
M  V30 62412 C 5920.28 1.60598 -0.0805296 0
M  V30 62413 O 5921.47 1.71095 -0.327455 0
M  V30 62414 C 5918.6 3.32526 -0.750935 0
M  V30 62415 H 5919.79 2.13182 -2.10935 0
M  V30 62416 H 5917.34 1.08434 -1.12568 0
M  V30 62417 H 5918.08 3.23596 0.213554 0
M  V30 62418 H 5917.86 3.61437 -1.52005 0
M  V30 62419 H 5919.35 4.12193 -0.669854 0
M  V30 62420 N 5919.79 1.11858 1.1102 0
M  V30 62421 C 5920.72 0.724678 2.16388 0
M  V30 62422 C 5921.7 -0.281246 1.60149 0
M  V30 62423 O 5922.89 -0.176633 1.87671 0
M  V30 62424 C 5920.01 0.0716565 3.38624 0
M  V30 62425 C 5919.06 1.04343 4.13539 0
M  V30 62426 S 5919.89 2.56807 4.69905 0
M  V30 62427 C 5921.05 1.92818 5.9546 0
M  V30 62428 H 5921.28 1.61721 2.49466 0
M  V30 62429 H 5918.81 0.937058 1.22713 0
M  V30 62430 H 5920.77 -0.298752 4.09411 0
M  V30 62431 H 5919.43 -0.7979 3.03797 0
M  V30 62432 H 5918.63 0.534032 5.01163 0
M  V30 62433 H 5918.23 1.35648 3.48534 0
M  V30 62434 H 5920.52 1.26726 6.65542 0
M  V30 62435 H 5921.46 2.78457 6.51051 0
M  V30 62436 H 5921.87 1.38652 5.47207 0
M  V30 62437 N 5921.27 -1.28704 0.909562 0
M  V30 62438 C 5922.2 -2.2648 0.35206 0
M  V30 62439 C 5923.21 -1.54699 -0.507145 0
M  V30 62440 O 5924.4 -1.75559 -0.322703 0
M  V30 62441 C 5921.5 -3.34952 -0.515779 0
M  V30 62442 C 5920.68 -4.36228 0.319953 0
M  V30 62443 C 5919.73 -5.23985 -0.482299 0
M  V30 62444 O 5918.76 -5.69106 0.10367 0
M  V30 62445 N 5919.96 -5.52334 -1.78626 0
M  V30 62446 H 5922.73 -2.74955 1.19247 0
M  V30 62447 H 5920.29 -1.42142 0.775073 0
M  V30 62448 H 5922.28 -3.90596 -1.05911 0
M  V30 62449 H 5920.85 -2.86218 -1.2569 0
M  V30 62450 H 5920.07 -3.80106 1.04467 0
M  V30 62451 H 5921.36 -5.00921 0.891945 0
M  V30 62452 H 5920.76 -5.17502 -2.28491 0
M  V30 62453 H 5919.31 -6.10752 -2.2765 0
M  V30 62454 N 5922.75 -0.673092 -1.42503 0
M  V30 62455 C 5923.97 -0.202995 -2.05902 0
M  V30 62456 C 5924.39 1.13918 -1.5056 0
M  V30 62457 O 5923.75 1.70732 -0.644722 0
M  V30 62458 C 5923.8 -0.127477 -3.61275 0
M  V30 62459 O 5923.52 -1.41661 -4.14565 0
M  V30 62460 C 5925.02 0.366321 -4.41784 0
M  V30 62461 H 5922.24 -0.0991254 -0.663638 0
M  V30 62462 H 5924.78 -0.919346 -1.8267 0
M  V30 62463 H 5922.94 0.539552 -3.83624 0
M  V30 62464 H 5923.35 -1.28884 -5.08418 0
M  V30 62465 H 5924.83 0.368073 -5.50771 0
M  V30 62466 H 5925.3 1.40128 -4.16246 0
M  V30 62467 H 5925.91 -0.26891 -4.24449 0
M  V30 62468 N 5924.22 1.52002 -0.416307 0
M  V30 62469 C 5925.16 2.23711 0.450395 0
M  V30 62470 C 5926.14 1.24815 1.04211 0
M  V30 62471 O 5927.32 1.53889 1.0886 0
M  V30 62472 C 5924.45 2.97128 1.62581 0
M  V30 62473 C 5923.49 4.10512 1.15681 0
M  V30 62474 S 5924.33 5.35374 0.11605 0
M  V30 62475 C 5925.48 6.12322 1.29663 0
M  V30 62476 H 5925.71 2.96877 -0.158466 0
M  V30 62477 H 5923.25 1.53091 -0.200656 0
M  V30 62478 H 5925.21 3.4003 2.29978 0
M  V30 62479 H 5923.87 2.23591 2.20604 0
M  V30 62480 H 5923.06 4.61082 2.03518 0
M  V30 62481 H 5922.66 3.69763 0.561388 0
M  V30 62482 H 5924.95 6.40133 2.21892 0
M  V30 62483 H 5925.9 7.03203 0.831322 0
M  V30 62484 H 5926.3 5.43492 1.52567 0
M  V30 62485 N 5925.7 0.146958 1.56913 0
M  V30 62486 C 5926.63 -0.788847 2.19771 0
M  V30 62487 C 5927.61 -1.25708 1.14593 0
M  V30 62488 O 5928.8 -1.31465 1.42936 0
M  V30 62489 C 5925.93 -2.02815 2.81928 0
M  V30 62490 C 5924.88 -1.69669 3.92933 0
M  V30 62491 C 5924.21 -3.00862 4.42025 0
M  V30 62492 C 5925.51 -0.943378 5.1371 0
M  V30 62493 H 5927.2 -0.264972 2.98225 0
M  V30 62494 H 5924.75 -0.126007 1.43448 0
M  V30 62495 H 5926.7 -2.68762 3.24569 0
M  V30 62496 H 5925.43 -2.57574 2.00806 0
M  V30 62497 H 5924.08 -1.061 3.50911 0
M  V30 62498 H 5923.73 -3.53612 3.57725 0
M  V30 62499 H 5923.43 -2.79447 5.16897 0
M  V30 62500 H 5924.96 -3.6788 4.87336 0
M  V30 62501 H 5926.37 -1.50494 5.53195 0
M  V30 62502 H 5924.77 -0.829178 5.94344 0
M  V30 62503 H 5925.84 0.0648933 4.84857 0
M  V30 62504 N 5927.18 -1.57089 -0.126826 0
M  V30 62505 C 5928.43 -1.84439 -0.835983 0
M  V30 62506 C 5928.76 -0.730888 -1.80245 0
M  V30 62507 O 5928.01 0.278441 -1.93709 0
M  V30 62508 C 5928.31 -3.18231 -1.62677 0
M  V30 62509 C 5927.98 -4.43651 -0.805294 0
M  V30 62510 C 5926.64 -4.77707 -0.578733 0
M  V30 62511 C 5928.99 -5.20683 -0.232172 0
M  V30 62512 C 5926.32 -5.86244 0.231332 0
M  V30 62513 C 5928.67 -6.30071 0.565041 0
M  V30 62514 C 5927.33 -6.62665 0.801992 0
M  V30 62515 H 5926.6 -0.674908 -0.305908 0
M  V30 62516 H 5929.25 -1.91246 -0.0986945 0
M  V30 62517 H 5927.56 -3.06965 -2.43474 0
M  V30 62518 H 5929.25 -3.36612 -2.1793 0
M  V30 62519 H 5925.84 -4.16963 -0.991964 0
M  V30 62520 H 5930.03 -4.9473 -0.394442 0
M  V30 62521 H 5925.28 -6.09927 0.424212 0
M  V30 62522 H 5929.46 -6.88946 1.01616 0
M  V30 62523 H 5927.08 -7.466 1.43152 0
M  V30 62524 N 5928.66 0.396782 -1.52523 0
M  V30 62525 C 5929.89 1.16398 -1.71053 0
M  V30 62526 C 5930.3 1.83944 -0.425442 0
M  V30 62527 O 5929.66 1.72372 0.5995 0
M  V30 62528 C 5929.71 2.21786 -2.8547 0
M  V30 62529 O 5929.43 1.56995 -4.09004 0
M  V30 62530 C 5930.93 3.11292 -3.15614 0
M  V30 62531 H 5928.15 0.349294 -0.572918 0
M  V30 62532 H 5930.7 0.465227 -1.99138 0
M  V30 62533 H 5928.85 2.87309 -2.59869 0
M  V30 62534 H 5929.27 2.2696 -4.72852 0
M  V30 62535 H 5930.74 3.81285 -3.99156 0
M  V30 62536 H 5931.22 3.74362 -2.29674 0
M  V30 62537 H 5931.82 2.51423 -3.43026 0
M  V30 62538 N 5930.14 1.43355 0.654764 0
M  V30 62539 C 5931.07 1.42842 1.77965 0
M  V30 62540 C 5932.05 0.29006 1.59992 0
M  V30 62541 O 5933.23 0.48341 1.82196 0
M  V30 62542 C 5930.36 1.23851 3.15244 0
M  V30 62543 C 5929.41 2.40943 3.51922 0
M  V30 62544 S 5930.24 4.03492 3.52072 0
M  V30 62545 C 5931.39 3.86881 4.9201 0
M  V30 62546 H 5931.63 2.38028 1.78129 0
M  V30 62547 H 5929.16 1.30367 0.827266 0
M  V30 62548 H 5931.12 1.13581 3.94474 0
M  V30 62549 H 5929.78 0.302163 3.12643 0
M  V30 62550 H 5928.97 2.23456 4.51756 0
M  V30 62551 H 5928.57 2.4783 2.801 0
M  V30 62552 H 5930.87 3.4911 5.80627 0
M  V30 62553 H 5931.81 4.86463 5.14548 0
M  V30 62554 H 5932.22 3.19369 4.65472 0
M  V30 62555 N 5931.62 -0.892985 1.2986 0
M  V30 62556 C 5932.55 -2.01418 1.18124 0
M  V30 62557 C 5933.53 -1.6994 0.0738085 0
M  V30 62558 O 5934.71 -1.92526 0.254454 0
M  V30 62559 C 5931.84 -3.36382 0.86396 0
M  V30 62560 C 5930.8 -3.82093 1.92844 0
M  V30 62561 C 5930.12 -5.14258 1.46433 0
M  V30 62562 C 5931.42 -4.01687 3.33833 0
M  V30 62563 H 5933.12 -2.11495 2.11921 0
M  V30 62564 H 5930.66 -1.01619 1.02027 0
M  V30 62565 H 5932.61 -4.14332 0.768542 0
M  V30 62566 H 5931.34 -3.26416 -0.109701 0
M  V30 62567 H 5930 -3.06365 2.01336 0
M  V30 62568 H 5929.65 -5.00713 0.479159 0
M  V30 62569 H 5929.35 -5.45813 2.17628 0
M  V30 62570 H 5930.87 -5.94742 1.38255 0
M  V30 62571 H 5932.28 -4.701 3.28145 0
M  V30 62572 H 5930.68 -4.44607 4.03044 0
M  V30 62573 H 5931.75 -3.05803 3.76315 0
M  V30 62574 N 5933.09 -1.12445 -1.10425 0
M  V30 62575 C 5934.51 -0.860529 -1.34414 0
M  V30 62576 C 5934.71 0.509325 -1.94957 0
M  V30 62577 O 5933.77 1.25799 -2.18931 0
M  V30 62578 C 5935.08 -1.97702 -2.26571 0
M  V30 62579 C 5936.63 -2.00792 -2.40108 0
M  V30 62580 C 5937.1 -3.11675 -3.35594 0
M  V30 62581 N 5938.59 -3.11118 -3.43162 0
M  V30 62582 C 5939.33 -3.93554 -4.17016 0
M  V30 62583 N 5938.82 -4.8598 -4.93756 0
M  V30 62584 N 5940.62 -3.81691 -4.12636 0
M  V30 62585 H 5932.77 -2.00709 -0.694965 0
M  V30 62586 H 5935.03 -0.873411 -0.368588 0
M  V30 62587 H 5934.74 -2.96412 -1.89295 0
M  V30 62588 H 5934.61 -1.88228 -3.26879 0
M  V30 62589 H 5937 -1.02702 -2.76652 0
M  V30 62590 H 5937.08 -2.1434 -1.39614 0
M  V30 62591 H 5936.72 -4.09997 -2.99774 0
M  V30 62592 H 5936.65 -2.95365 -4.35967 0
M  V30 62593 H 5939.14 -2.4416 -2.88434 0
M  V30 62594 H 5939.46 -5.45393 -5.4751 0
M  V30 62595 H 5937.8 -4.89994 -4.9288 0
M  V30 62596 H 5940.99 -3.0882 -3.51778 0
M  V30 62597 H 5941.17 -4.46168 -4.69934 0
M  V30 62598 N 5934.57 1.2822 -0.916375 0
M  V30 62599 C 5935.52 2.27214 -0.40529 0
M  V30 62600 C 5936.49 1.57695 0.521679 0
M  V30 62601 O 5937.67 1.85579 0.443304 0
M  V30 62602 C 5934.81 3.43359 0.346182 0
M  V30 62603 C 5933.93 4.2762 -0.613594 0
M  V30 62604 C 5933.06 5.30969 0.156588 0
M  V30 62605 C 5932.1 6.06894 -0.796631 0
M  V30 62606 N 5931.24 7.02075 -0.0598007 0
M  V30 62607 H 5936.08 2.70308 -1.2545 0
M  V30 62608 H 5933.61 1.32931 -0.629905 0
M  V30 62609 H 5935.57 4.09495 0.798087 0
M  V30 62610 H 5934.2 3.01248 1.15971 0
M  V30 62611 H 5933.25 3.61504 -1.18403 0
M  V30 62612 H 5934.57 4.80392 -1.34255 0
M  V30 62613 H 5933.72 6.03001 0.668934 0
M  V30 62614 H 5932.46 4.78971 0.918586 0
M  V30 62615 H 5931.46 5.33711 -1.32033 0
M  V30 62616 H 5932.69 6.60981 -1.55823 0
M  V30 62617 H 5930.64 6.52423 0.684159 0
M  V30 62618 H 5930.55 7.52481 -0.72854 0
M  V30 62619 H 5931.82 7.78301 0.432264 0
M  V30 62620 N 5936.05 0.68064 1.42144 0
M  V30 62621 C 5936.98 0.0200197 2.33491 0
M  V30 62622 C 5937.96 -0.783111 1.51001 0
M  V30 62623 O 5939.15 -0.739091 1.79586 0
M  V30 62624 C 5936.28 -0.927785 3.34678 0
M  V30 62625 C 5935.23 -0.232829 4.27366 0
M  V30 62626 C 5934.56 -1.29397 5.18807 0
M  V30 62627 C 5935.86 0.89174 5.14631 0
M  V30 62628 H 5937.55 0.782925 2.88982 0
M  V30 62629 H 5935.1 0.377947 1.38952 0
M  V30 62630 H 5937.05 -1.39906 3.97497 0
M  V30 62631 H 5935.77 -1.72218 2.77504 0
M  V30 62632 H 5934.43 0.218269 3.6595 0
M  V30 62633 H 5934.08 -2.08051 4.57956 0
M  V30 62634 H 5933.78 -0.83407 5.8165 0
M  V30 62635 H 5935.3 -1.76606 5.84502 0
M  V30 62636 H 5936.72 0.501419 5.71103 0
M  V30 62637 H 5935.11 1.2778 5.86338 0
M  V30 62638 H 5936.18 1.73797 4.52684 0
M  V30 62639 N 5937.53 -1.51779 0.424362 0
M  V30 62640 C 5938.8 -1.94515 -0.205722 0
M  V30 62641 C 5939.18 -1.36225 -1.61264 0
M  V30 62642 O 5938.53 -0.544097 -2.21928 0
M  V30 62643 C 5938.74 -3.48446 -0.196627 0
M  V30 62644 C 5940.09 -4.2263 -0.408553 0
M  V30 62645 O 5941.11 -3.55134 -0.275317 0
M  V30 62646 O 5939.97 -5.42346 -0.672507 0
M  V30 62647 H 5937.07 -0.815581 -0.136954 0
M  V30 62648 H 5939.61 -1.62729 0.481406 0
M  V30 62649 H 5938.39 -3.83294 0.787477 0
M  V30 62650 H 5938.01 -3.86637 -0.927214 0
M  V30 62651 N 5939.01 -0.155278 -1.56833 0
M  V30 62652 C 5939.95 0.798265 -2.18473 0
M  V30 62653 C 5940.95 1.24927 -1.1441 0
M  V30 62654 O 5942.15 1.21679 -1.32643 0
M  V30 62655 H 5938.53 0.275656 -0.699655 0
M  V30 62656 H 5940.5 0.254267 -2.97315 0
M  V30 62657 C 5939.25 2.02397 -2.8272 0
M  V30 62658 H 5938.57 1.68594 -3.62514 0
M  V30 62659 H 5940.01 2.67041 -3.2934 0
M  V30 62660 C 5938.47 2.8373 -1.81655 0
M  V30 62661 O 5939 3.80352 -1.29211 0
M  V30 62662 N 5937.21 2.48427 -1.50772 0
M  V30 62663 H 5936.75 1.69918 -1.93612 0
M  V30 62664 H 5936.71 3.03136 -0.834005 0
M  V30 62665 N 5940.48 1.57154 0.118493 0
M  V30 62666 C 5941.76 1.75849 0.856525 0
M  V30 62667 C 5942.14 0.730871 1.98044 0
M  V30 62668 O 5941.49 -0.245076 2.27182 0
M  V30 62669 C 5941.7 3.20869 1.37274 0
M  V30 62670 C 5943.05 3.83384 1.82488 0
M  V30 62671 O 5944.07 3.24474 1.46952 0
M  V30 62672 O 5942.93 4.86931 2.48115 0
M  V30 62673 H 5940.02 0.720034 0.406792 0
M  V30 62674 H 5942.57 1.69392 0.102195 0
M  V30 62675 H 5941.34 3.87179 0.566395 0
M  V30 62676 H 5940.96 3.31866 2.18976 0
M  V30 62677 N 5941.96 -0.388688 1.52732 0
M  V30 62678 C 5942.93 -1.45753 1.76886 0
M  V30 62679 C 5943.93 -1.47563 0.638892 0
M  V30 62680 O 5945.12 -1.48728 0.906948 0
M  V30 62681 C 5942.25 -2.85039 1.86991 0
M  V30 62682 H 5943.44 -1.25619 2.72323 0
M  V30 62683 H 5940.99 -0.620446 1.43458 0
M  V30 62684 H 5941.73 -3.10517 0.935406 0
M  V30 62685 H 5941.51 -2.85126 2.69157 0
M  V30 62686 H 5943 -3.62485 2.07351 0
M  V30 62687 N 5943.44 -1.437 -0.647152 0
M  V30 62688 C 5944.37 -1.52142 -1.7713 0
M  V30 62689 C 5945.35 -0.375609 -1.65901 0
M  V30 62690 O 5946.54 -0.593629 -1.84905 0
M  V30 62691 C 5943.67 -1.44985 -3.15589 0
M  V30 62692 C 5942.62 -2.57878 -3.41589 0
M  V30 62693 C 5941.95 -2.35774 -4.79911 0
M  V30 62694 C 5943.25 -4.00101 -3.35733 0
M  V30 62695 H 5944.94 -2.46233 -1.70323 0
M  V30 62696 H 5942.49 -1.1851 -0.818004 0
M  V30 62697 H 5944.44 -1.49494 -3.93992 0
M  V30 62698 H 5943.16 -0.474019 -3.23142 0
M  V30 62699 H 5941.82 -2.52732 -2.6556 0
M  V30 62700 H 5941.47 -1.3642 -4.84147 0
M  V30 62701 H 5941.17 -3.11454 -4.98267 0
M  V30 62702 H 5942.69 -2.42075 -5.60564 0
M  V30 62703 H 5944.11 -4.06701 -4.04063 0
M  V30 62704 H 5942.51 -4.75855 -3.65625 0
M  V30 62705 H 5943.58 -4.24807 -2.3381 0
M  V30 62706 N 5944.92 0.886085 -1.30331 0
M  V30 62707 C 5945.87 2.01308 -1.16523 0
M  V30 62708 C 5946.86 1.69223 -0.0774026 0
M  V30 62709 O 5948.07 1.78417 -0.238174 0
M  V30 62710 H 5944.44 0.660047 -0.360335 0
M  V30 62711 H 5946.41 2.10089 -2.11908 0
M  V30 62712 C 5945.16 3.3657 -0.87271 0
M  V30 62713 H 5944.48 3.61769 -1.70185 0
M  V30 62714 H 5945.92 4.1607 -0.816196 0
M  V30 62715 C 5944.38 3.34217 0.424347 0
M  V30 62716 O 5944.91 3.74763 1.44621 0
M  V30 62717 N 5943.12 2.87324 0.435106 0
M  V30 62718 H 5942.67 2.54523 -0.39694 0
M  V30 62719 H 5942.62 2.86133 1.3029 0
M  V30 62720 N 5946.4 1.13029 1.09828 0
M  V30 62721 C 5947.34 0.79925 2.18437 0
M  V30 62722 C 5948.34 -0.216636 1.68009 0
M  V30 62723 O 5949.54 -0.074203 1.79847 0
M  V30 62724 H 5945.92 0.240665 0.71245 0
M  V30 62725 H 5947.89 1.72351 2.43594 0
M  V30 62726 C 5946.64 0.277047 3.46594 0
M  V30 62727 H 5945.96 1.05006 3.85764 0
M  V30 62728 H 5947.4 0.0837958 4.23917 0
M  V30 62729 C 5945.86 -0.996366 3.21829 0
M  V30 62730 O 5946.39 -2.07298 3.44079 0
M  V30 62731 N 5944.6 -0.925806 2.75458 0
M  V30 62732 H 5944.14 -0.0495477 2.57552 0
M  V30 62733 H 5944.1 -1.77844 2.59266 0
M  V30 62734 N 5947.87 -1.27732 0.923162 0
M  V30 62735 C 5949.12 -1.93855 0.557062 0
M  V30 62736 C 5949.44 -1.7339 -0.905285 0
M  V30 62737 O 5950.64 -2.33815 -1.37996 0
M  V30 62738 C 5949.1 -3.47259 0.945462 0
M  V30 62739 C 5948.71 -3.76488 2.42818 0
M  V30 62740 C 5950.45 -4.19488 0.650397 0
M  V30 62741 C 5948.36 -5.23246 2.75622 0
M  V30 62742 H 5947.29 -0.725705 0.204616 0
M  V30 62743 H 5949.94 -1.45096 1.12336 0
M  V30 62744 H 5948.32 -3.94802 0.307859 0
M  V30 62745 H 5949.49 -3.3972 3.11331 0
M  V30 62746 H 5947.81 -3.17453 2.69467 0
M  V30 62747 H 5950.41 -5.27541 0.872037 0
M  V30 62748 H 5950.75 -4.14254 -0.412207 0
M  V30 62749 H 5951.28 -3.77753 1.24689 0
M  V30 62750 H 5948.02 -5.33566 3.80773 0
M  V30 62751 H 5947.54 -5.61177 2.11755 0
M  V30 62752 H 5949.22 -5.91079 2.63124 0
M  V30 62753 N 5949.35 -0.688168 -1.41782 0
M  V30 62754 C 5950.6 -0.213155 -2.00571 0
M  V30 62755 C 5950.91 1.19171 -1.55106 0
M  V30 62756 O 5952.12 1.7638 -2.06404 0
M  V30 62757 C 5950.58 -0.330201 -3.58382 0
M  V30 62758 C 5950.18 -1.73996 -4.12831 0
M  V30 62759 C 5951.93 0.0854159 -4.24414 0
M  V30 62760 C 5949.84 -1.80906 -5.63052 0
M  V30 62761 H 5948.77 -0.0759324 -0.750167 0
M  V30 62762 H 5951.42 -0.855293 -1.62348 0
M  V30 62763 H 5949.8 0.380061 -3.94172 0
M  V30 62764 H 5950.97 -2.47838 -3.88475 0
M  V30 62765 H 5949.29 -2.1046 -3.59299 0
M  V30 62766 H 5951.88 0.0541262 -5.34673 0
M  V30 62767 H 5952.23 1.12293 -4.00869 0
M  V30 62768 H 5952.76 -0.574307 -3.93633 0
M  V30 62769 H 5949.5 -2.82684 -5.91414 0
M  V30 62770 H 5949.02 -1.11438 -5.89357 0
M  V30 62771 H 5950.7 -1.56857 -6.27698 0
M  V30 62772 N 5950.83 1.51552 -0.432405 0
M  V30 62773 C 5951.78 2.29205 0.395963 0
M  V30 62774 C 5952.77 1.3485 1.02528 0
M  V30 62775 O 5953.98 1.52212 0.960807 0
M  V30 62776 H 5950.35 0.737592 0.146499 0
M  V30 62777 H 5952.32 2.97085 -0.279885 0
M  V30 62778 C 5951.07 3.14275 1.48749 0
M  V30 62779 H 5950.4 3.86764 1.0126 0
M  V30 62780 H 5951.84 3.71674 2.04045 0
M  V30 62781 C 5950.3 2.29331 2.46797 0
M  V30 62782 O 5950.83 1.94953 3.51221 0
M  V30 62783 N 5949.03 1.92648 2.17566 0
M  V30 62784 H 5948.58 2.20804 1.32677 0
M  V30 62785 H 5948.54 1.3611 2.8341 0
M  V30 62786 N 5952.31 0.163593 1.56749 0
M  V30 62787 C 5953.26 -0.786668 2.18893 0
M  V30 62788 C 5954.25 -1.24319 1.15071 0
M  V30 62789 O 5955.46 -1.20974 1.33287 0
M  V30 62790 H 5951.83 -0.271942 0.701107 0
M  V30 62791 H 5953.8 -0.238496 2.97445 0
M  V30 62792 C 5952.55 -2.00895 2.83789 0
M  V30 62793 H 5951.87 -1.66669 3.63403 0
M  V30 62794 H 5953.31 -2.65291 3.30752 0
M  V30 62795 C 5951.77 -2.82763 1.83157 0
M  V30 62796 O 5952.3 -3.79661 1.31226 0
M  V30 62797 N 5950.51 -2.47624 1.52088 0
M  V30 62798 H 5950.06 -1.68889 1.9451 0
M  V30 62799 H 5950.01 -3.0269 0.85007 0
M  V30 62800 N 5953.79 -1.57215 -0.110157 0
M  V30 62801 C 5954.75 -2.00038 -1.11881 0
M  V30 62802 C 5955.75 -0.891744 -1.33808 0
M  V30 62803 O 5956.94 -1.15758 -1.30176 0
M  V30 62804 C 5954.07 -2.34814 -2.47134 0
M  V30 62805 H 5955.26 -2.90356 -0.750545 0
M  V30 62806 H 5952.82 -1.52221 -0.354737 0
M  V30 62807 H 5953.55 -1.47403 -2.88865 0
M  V30 62808 H 5953.34 -3.15679 -2.3257 0
M  V30 62809 H 5954.83 -2.68655 -3.19709 0
M  V30 62810 N 5955.26 0.380583 -1.52936 0
M  V30 62811 C 5956.68 0.721237 -1.42374 0
M  V30 62812 C 5956.88 1.93824 -0.550848 0
M  V30 62813 O 5955.94 2.52485 -0.0275188 0
M  V30 62814 C 5957.25 0.948463 -2.8535 0
M  V30 62815 C 5958.8 1.04941 -2.94884 0
M  V30 62816 C 5959.27 1.30921 -4.38889 0
M  V30 62817 N 5960.76 1.37724 -4.42251 0
M  V30 62818 C 5961.5 1.59508 -5.50767 0
M  V30 62819 N 5960.99 1.78706 -6.69355 0
M  V30 62820 N 5962.79 1.61756 -5.38323 0
M  V30 62821 H 5954.94 -0.420105 -2.08204 0
M  V30 62822 H 5957.2 -0.125809 -0.939615 0
M  V30 62823 H 5956.91 0.126225 -3.51473 0
M  V30 62824 H 5956.78 1.86079 -3.28108 0
M  V30 62825 H 5959.17 1.86221 -2.28923 0
M  V30 62826 H 5959.25 0.114809 -2.55542 0
M  V30 62827 H 5958.89 0.501482 -5.05418 0
M  V30 62828 H 5958.82 2.25679 -4.7579 0
M  V30 62829 H 5961.31 1.24562 -3.56781 0
M  V30 62830 H 5961.63 1.94859 -7.4783 0
M  V30 62831 H 5959.97 1.75914 -6.72368 0
M  V30 62832 H 5963.16 1.46314 -4.44646 0
M  V30 62833 H 5963.34 1.78392 -6.22961 0
M  V30 62834 N 5956.74 1.44041 0.639523 0
M  V30 62835 C 5958.02 1.36858 1.39747 0
M  V30 62836 C 5958.4 0.0231257 2.11087 0
M  V30 62837 O 5957.75 -0.993989 2.05748 0
M  V30 62838 C 5957.96 2.5611 2.37084 0
M  V30 62839 C 5959.31 2.99804 3.00671 0
M  V30 62840 O 5960.33 2.56254 2.47411 0
M  V30 62841 O 5959.19 3.75288 3.97267 0
M  V30 62842 H 5956.28 0.541543 0.625028 0
M  V30 62843 H 5958.83 1.56116 0.665281 0
M  V30 62844 H 5957.6 3.45654 1.8341 0
M  V30 62845 H 5957.22 2.39022 3.17733 0
M  V30 62846 N 5958.22 -0.879161 1.308 0
M  V30 62847 C 5959.47 -1.62823 1.1972 0
M  V30 62848 C 5959.79 -1.9343 -0.246963 0
M  V30 62849 O 5959.06 -1.57482 -1.16517 0
M  V30 62850 H 5957.64 -0.603592 0.440098 0
M  V30 62851 H 5960.3 -1.05303 1.64004 0
M  V30 62852 H 5959.4 -2.57585 1.76228 0
M  V30 62853 N 5959.7 -1.1361 -1.09227 0
M  V30 62854 C 5960.94 -0.909385 -1.83056 0
M  V30 62855 C 5961.3 0.554421 -1.83821 0
M  V30 62856 O 5962.5 0.898775 -2.53329 0
M  V30 62857 C 5960.78 -1.48362 -3.25152 0
M  V30 62858 S 5962.33 -1.39725 -4.1596 0
M  V30 62859 H 5959.15 -0.327737 -0.630959 0
M  V30 62860 H 5961.75 -1.44801 -1.3135 0
M  V30 62861 H 5960.46 -2.54231 -3.22172 0
M  V30 62862 H 5959.99 -0.943021 -3.8193 0
M  V30 62863 H 5962 -0.377084 -4.94765 0
M  V30 62864 N 5961.18 1.27241 -0.929923 0
M  V30 62865 C 5962.42 1.94555 -0.572375 0
M  V30 62866 C 5962.76 1.72889 0.884481 0
M  V30 62867 O 5962.03 1.05926 1.63125 0
M  V30 62868 C 5962.31 3.48625 -0.901797 0
M  V30 62869 C 5962.17 3.79625 -2.41257 0
M  V30 62870 C 5963.49 4.38193 -0.409247 0
M  V30 62871 H 5960.61 0.70662 -0.209422 0
M  V30 62872 H 5963.25 1.50317 -1.1621 0
M  V30 62873 H 5961.4 3.86436 -0.399927 0
M  V30 62874 H 5963.07 3.51593 -2.9863 0
M  V30 62875 H 5961.31 3.26098 -2.86082 0
M  V30 62876 H 5961.98 4.87275 -2.59359 0
M  V30 62877 H 5964.46 4.07545 -0.839399 0
M  V30 62878 H 5963.34 5.44812 -0.668674 0
M  V30 62879 H 5963.6 4.36671 0.690707 0
M  V30 62880 N 5962.66 0.695678 1.41415 0
M  V30 62881 C 5964.07 0.301465 1.8425 0
M  V30 62882 C 5964.42 -1.16037 1.58208 0
M  V30 62883 O 5963.54 -1.89075 1.05259 0
M  V30 62884 C 5964.14 0.540373 3.34463 0
M  V30 62885 C 5962.7 0.200077 3.75868 0
M  V30 62886 C 5961.84 0.822604 2.64818 0
M  V30 62887 H 5964.79 0.896324 1.30965 0
M  V30 62888 H 5964.82 -0.200885 3.79969 0
M  V30 62889 H 5964.33 1.60439 3.53385 0
M  V30 62890 H 5962.43 -0.85967 3.62547 0
M  V30 62891 H 5962.54 0.655172 4.74599 0
M  V30 62892 H 5960.91 0.252198 2.53448 0
M  V30 62893 H 5961.69 1.89049 2.86558 0
M  V30 62894 N 5964.13 -1.51321 0.440437 0
M  V30 62895 C 5965.06 -2.30709 -0.359931 0
M  V30 62896 C 5966.04 -1.36257 -1.01823 0
M  V30 62897 O 5967.23 -1.65177 -1.02128 0
M  V30 62898 C 5964.36 -3.15137 -1.45966 0
M  V30 62899 C 5963.31 -4.17892 -0.924678 0
M  V30 62900 C 5962.64 -4.9086 -2.12039 0
M  V30 62901 C 5963.94 -5.22282 0.0430198 0
M  V30 62902 H 5965.63 -2.97867 0.302585 0
M  V30 62903 H 5963.18 -1.43248 0.146965 0
M  V30 62904 H 5965.13 -3.69456 -2.02682 0
M  V30 62905 H 5963.86 -2.45806 -2.15051 0
M  V30 62906 H 5962.52 -3.64628 -0.379714 0
M  V30 62907 H 5962.16 -4.18029 -2.79751 0
M  V30 62908 H 5961.86 -5.60346 -1.7688 0
M  V30 62909 H 5963.39 -5.48004 -2.69302 0
M  V30 62910 H 5964.8 -5.71655 -0.433936 0
M  V30 62911 H 5963.2 -5.99312 0.307337 0
M  V30 62912 H 5964.27 -4.7492 0.978724 0
M  V30 62913 N 5965.61 -0.171903 -1.5666 0
M  V30 62914 C 5966.56 0.775048 -2.19307 0
M  V30 62915 C 5967.55 1.23707 -1.15728 0
M  V30 62916 O 5968.76 1.20265 -1.33926 0
M  V30 62917 H 5965.13 0.26822 -0.70254 0
M  V30 62918 H 5967.11 0.222718 -2.97568 0
M  V30 62919 C 5965.85 1.99387 -2.84851 0
M  V30 62920 H 5965.18 1.64739 -3.64282 0
M  V30 62921 H 5966.62 2.63533 -3.32154 0
M  V30 62922 C 5965.08 2.81788 -1.84654 0
M  V30 62923 O 5965.61 3.7896 -1.33238 0
M  V30 62924 N 5963.81 2.46814 -1.53399 0
M  V30 62925 H 5963.36 1.67855 -1.95403 0
M  V30 62926 H 5963.32 3.02235 -0.86611 0
M  V30 62927 N 5967.09 1.57271 0.101818 0
M  V30 62928 C 5968.34 1.84931 0.805198 0
M  V30 62929 C 5968.65 0.760163 1.80225 0
M  V30 62930 O 5969.86 0.923684 2.55304 0
M  V30 62931 C 5968.31 3.27935 1.4828 0
M  V30 62932 C 5967.92 4.44903 0.52586 0
M  V30 62933 C 5969.67 3.64826 2.1703 0
M  V30 62934 C 5967.57 5.78938 1.20766 0
M  V30 62935 H 5966.5 0.6898 0.304454 0
M  V30 62936 H 5969.15 1.83408 0.0580692 0
M  V30 62937 H 5967.54 3.23978 2.27715 0
M  V30 62938 H 5968.71 4.60193 -0.236514 0
M  V30 62939 H 5967.02 4.16363 -0.055585 0
M  V30 62940 H 5969.62 4.62246 2.68762 0
M  V30 62941 H 5969.96 2.93114 2.95618 0
M  V30 62942 H 5970.5 3.70642 1.44463 0
M  V30 62943 H 5967.24 6.53865 0.46273 0
M  V30 62944 H 5966.76 5.67504 1.94163 0
M  V30 62945 H 5968.44 6.23274 1.73604 0
M  V30 62946 N 5968.57 -0.372467 1.53135 0
M  V30 62947 C 5969.82 -1.1131 1.68205 0
M  V30 62948 C 5970.13 -1.90661 0.436781 0
M  V30 62949 O 5971.34 -2.67438 0.467896 0
M  V30 62950 C 5969.79 -2.02797 2.97324 0
M  V30 62951 C 5969.4 -1.28791 4.29088 0
M  V30 62952 C 5971.14 -2.76895 3.2176 0
M  V30 62953 C 5969.05 -2.1914 5.49301 0
M  V30 62954 H 5967.98 -0.419242 0.626699 0
M  V30 62955 H 5970.63 -0.374613 1.79635 0
M  V30 62956 H 5969.01 -2.80349 2.79679 0
M  V30 62957 H 5970.19 -0.563501 4.57342 0
M  V30 62958 H 5968.5 -0.665844 4.11042 0
M  V30 62959 H 5971.1 -3.44706 4.08756 0
M  V30 62960 H 5971.44 -3.41885 2.37529 0
M  V30 62961 H 5971.98 -2.06429 3.40047 0
M  V30 62962 H 5968.71 -1.58738 6.35989 0
M  V30 62963 H 5968.23 -2.8945 5.25337 0
M  V30 62964 H 5969.91 -2.78853 5.83823 0
M  V30 62965 N 5970.05 -1.44378 -0.631875 0
M  V30 62966 C 5971.46 -1.41885 -1.21348 0
M  V30 62967 C 5971.81 -0.133819 -1.95743 0
M  V30 62968 O 5970.93 0.765848 -2.02395 0
M  V30 62969 C 5971.53 -2.57035 -2.20723 0
M  V30 62970 C 5970.09 -2.57739 -2.74313 0
M  V30 62971 C 5969.23 -2.33678 -1.49298 0
M  V30 62972 H 5972.18 -1.5297 -0.422596 0
M  V30 62973 H 5972.21 -2.29746 -3.0331 0
M  V30 62974 H 5971.72 -3.50547 -1.66548 0
M  V30 62975 H 5969.82 -1.68167 -3.32492 0
M  V30 62976 H 5969.93 -3.56201 -3.20402 0
M  V30 62977 H 5968.3 -1.82756 -1.77404 0
M  V30 62978 H 5969.08 -3.29303 -0.970279 0
M  V30 62979 N 5971.52 0.872212 -1.31264 0
M  V30 62980 C 5972.45 1.99513 -1.21313 0
M  V30 62981 C 5973.44 1.69801 -0.100835 0
M  V30 62982 O 5974.62 1.92097 -0.285051 0
M  V30 62983 C 5971.75 3.34965 -0.917367 0
M  V30 62984 C 5970.7 3.78977 -1.98899 0
M  V30 62985 C 5970.03 5.11863 -1.54596 0
M  V30 62986 C 5971.33 3.96326 -3.40181 0
M  V30 62987 H 5973.02 2.08096 -2.15259 0
M  V30 62988 H 5970.57 0.999828 -1.03631 0
M  V30 62989 H 5972.52 4.13057 -0.834362 0
M  V30 62990 H 5971.25 3.26549 0.0577573 0
M  V30 62991 H 5969.91 3.03123 -2.06185 0
M  V30 62992 H 5969.55 4.99887 -0.558757 0
M  V30 62993 H 5969.25 5.42282 -2.26284 0
M  V30 62994 H 5970.78 5.92467 -1.47699 0
M  V30 62995 H 5972.19 4.6482 -3.35583 0
M  V30 62996 H 5970.59 4.38139 -4.10067 0
M  V30 62997 H 5971.66 2.99777 -3.81132 0
M  V30 62998 N 5973 1.14188 1.08623 0
M  V30 62999 C 5974.23 0.932169 1.84711 0
M  V30 63000 C 5974.65 -0.519271 1.81519 0
M  V30 63001 O 5974 -1.35974 1.21726 0
M  V30 63002 C 5974.05 1.42229 3.32345 0
M  V30 63003 O 5973.77 2.81686 3.35537 0
M  V30 63004 C 5975.28 1.2522 4.25247 0
M  V30 63005 H 5972.5 0.331875 0.583181 0
M  V30 63006 H 5975.04 1.51646 1.372 0
M  V30 63007 H 5973.19 0.880812 3.77254 0
M  V30 63008 H 5973.61 3.0363 4.27679 0
M  V30 63009 H 5975.08 1.64377 5.26957 0
M  V30 63010 H 5975.56 0.194813 4.38768 0
M  V30 63011 H 5976.17 1.78211 3.86162 0
M  V30 63012 N 5974.48 -1.26746 0.936658 0
M  V30 63013 C 5975.71 -1.98057 0.598427 0
M  V30 63014 C 5976.12 -1.69793 -0.825586 0
M  V30 63015 O 5975.48 -0.963569 -1.54989 0
M  V30 63016 C 5975.53 -3.51945 0.825643 0
M  V30 63017 O 5975.25 -3.79224 2.19364 0
M  V30 63018 C 5976.75 -4.40501 0.497341 0
M  V30 63019 H 5973.97 -0.631818 0.225937 0
M  V30 63020 H 5976.52 -1.61374 1.25613 0
M  V30 63021 H 5974.67 -3.86805 0.214615 0
M  V30 63022 H 5975.09 -4.73774 2.2503 0
M  V30 63023 H 5976.56 -5.47454 0.706972 0
M  V30 63024 H 5977.04 -4.35518 -0.567492 0
M  V30 63025 H 5977.64 -4.11177 1.0869 0
M  V30 63026 N 5975.96 -0.703167 -1.41044 0
M  V30 63027 C 5976.92 -0.0515282 -2.29142 0
M  V30 63028 C 5977.92 0.700172 -1.44756 0
M  V30 63029 O 5979.11 0.533927 -1.65816 0
M  V30 63030 C 5976.24 0.937235 -3.27763 0
M  V30 63031 H 5977.44 -0.827302 -2.88263 0
M  V30 63032 H 5974.99 -0.467097 -1.49157 0
M  V30 63033 H 5975.72 1.7405 -2.73636 0
M  V30 63034 H 5975.51 0.401263 -3.90041 0
M  V30 63035 H 5977 1.39074 -3.93762 0
M  V30 63036 N 5977.44 1.51085 -0.448455 0
M  V30 63037 C 5978.4 2.26576 0.345821 0
M  V30 63038 C 5979.4 1.30454 0.940132 0
M  V30 63039 O 5980.59 1.54073 0.812844 0
M  V30 63040 C 5977.72 3.06597 1.49034 0
M  V30 63041 H 5978.91 2.98231 -0.315927 0
M  V30 63042 H 5976.47 1.5499 -0.201905 0
M  V30 63043 H 5977.2 2.39385 2.18782 0
M  V30 63044 H 5976.99 3.77211 1.07024 0
M  V30 63045 H 5978.48 3.63751 2.05123 0
M  V30 63046 N 5978.91 0.180209 1.56566 0
M  V30 63047 C 5979.86 -0.746589 2.18391 0
M  V30 63048 C 5980.83 -1.22054 1.12659 0
M  V30 63049 O 5982.02 -1.28711 1.40848 0
M  V30 63050 C 5979.16 -1.96678 2.8357 0
M  V30 63051 C 5978.27 -1.53558 4.03787 0
M  V30 63052 C 5977.4 -2.71012 4.56865 0
M  V30 63053 C 5976.44 -2.24425 5.69473 0
M  V30 63054 N 5975.58 -3.35004 6.17023 0
M  V30 63055 H 5980.42 -0.212602 2.97241 0
M  V30 63056 H 5977.96 -0.0932044 1.46804 0
M  V30 63057 H 5979.92 -2.68258 3.19521 0
M  V30 63058 H 5978.55 -2.47432 2.07309 0
M  V30 63059 H 5977.6 -0.716192 3.73597 0
M  V30 63060 H 5978.91 -1.15368 4.85275 0
M  V30 63061 H 5978.06 -3.50736 4.95045 0
M  V30 63062 H 5976.8 -3.12467 3.74454 0
M  V30 63063 H 5975.81 -1.43151 5.30837 0
M  V30 63064 H 5977.03 -1.84018 6.53693 0
M  V30 63065 H 5974.98 -3.76018 5.37537 0
M  V30 63066 H 5974.9 -3.00935 6.93523 0
M  V30 63067 H 5976.16 -4.14986 6.59853 0
M  V30 63068 N 5980.39 -1.57323 -0.0934766 0
M  V30 63069 C 5981.32 -2.05212 -1.11402 0
M  V30 63070 C 5982.3 -0.941345 -1.41678 0
M  V30 63071 O 5983.49 -1.21271 -1.5168 0
M  V30 63072 C 5980.62 -2.47791 -2.43345 0
M  V30 63073 C 5979.57 -3.62546 -2.27474 0
M  V30 63074 C 5978.9 -3.91107 -3.64608 0
M  V30 63075 C 5980.2 -4.93377 -1.71394 0
M  V30 63076 H 5981.89 -2.90722 -0.715599 0
M  V30 63077 H 5979.44 -1.39861 -0.342778 0
M  V30 63078 H 5981.39 -2.79902 -3.15012 0
M  V30 63079 H 5980.12 -1.59282 -2.85126 0
M  V30 63080 H 5978.77 -3.30684 -1.58252 0
M  V30 63081 H 5978.42 -2.99763 -4.0392 0
M  V30 63082 H 5978.12 -4.68366 -3.54834 0
M  V30 63083 H 5979.65 -4.25695 -4.3774 0
M  V30 63084 H 5981.06 -5.2386 -2.32904 0
M  V30 63085 H 5979.46 -5.7481 -1.72375 0
M  V30 63086 H 5980.53 -4.802 -0.673511 0
M  V30 63087 N 5981.87 0.364341 -1.53331 0
M  V30 63088 C 5982.8 1.46887 -1.74641 0
M  V30 63089 C 5983.78 1.5133 -0.594811 0
M  V30 63090 O 5984.97 1.69363 -0.827549 0
M  V30 63091 C 5982.09 2.85242 -1.82632 0
M  V30 63092 C 5981.14 2.98518 -3.04614 0
M  V30 63093 S 5981.97 2.67143 -4.64106 0
M  V30 63094 C 5983.13 4.07646 -4.74948 0
M  V30 63095 H 5983.36 1.2859 -2.68052 0
M  V30 63096 H 5980.89 0.558753 -1.43935 0
M  V30 63097 H 5982.85 3.6496 -1.87922 0
M  V30 63098 H 5981.51 3.00849 -0.902706 0
M  V30 63099 H 5980.71 3.99848 -3.06818 0
M  V30 63100 H 5980.31 2.26724 -2.97443 0
M  V30 63101 H 5982.6 5.01906 -4.55079 0
M  V30 63102 H 5983.54 4.10446 -5.7701 0
M  V30 63103 H 5983.95 3.94704 -4.03571 0
M  V30 63104 N 5983.35 1.44711 0.624209 0
M  V30 63105 C 5984.59 1.48077 1.38568 0
M  V30 63106 C 5984.93 0.1156 1.93856 0
M  V30 63107 O 5984.2 -0.867726 1.74071 0
M  V30 63108 C 5984.49 2.54671 2.54588 0
M  V30 63109 C 5984.34 4.00571 2.04604 0
M  V30 63110 C 5985.66 2.57702 3.5676 0
M  V30 63111 H 5982.78 0.539137 0.502494 0
M  V30 63112 H 5985.42 1.7643 0.705163 0
M  V30 63113 H 5983.57 2.30625 3.12641 0
M  V30 63114 H 5985.24 4.35772 1.51328 0
M  V30 63115 H 5983.48 4.12019 1.35732 0
M  V30 63116 H 5984.15 4.70814 2.88163 0
M  V30 63117 H 5986.63 2.79205 3.08519 0
M  V30 63118 H 5985.51 3.34177 4.35451 0
M  V30 63119 H 5985.77 1.6216 4.11286 0
M  V30 63120 N 5984.83 -0.865239 1.31725 0
M  V30 63121 C 5986.07 -1.62104 1.21861 0
M  V30 63122 C 5986.41 -1.92931 -0.221646 0
M  V30 63123 O 5985.68 -1.56427 -1.15589 0
M  V30 63124 C 5985.96 -2.94821 2.06767 0
M  V30 63125 C 5985.82 -2.70842 3.59116 0
M  V30 63126 C 5987.14 -3.95977 1.92069 0
M  V30 63127 H 5984.25 -0.588219 0.444036 0
M  V30 63128 H 5986.9 -0.999865 1.61563 0
M  V30 63129 H 5985.05 -3.47837 1.73037 0
M  V30 63130 H 5986.72 -2.24462 4.03007 0
M  V30 63131 H 5984.96 -2.04991 3.8231 0
M  V30 63132 H 5985.63 -3.65298 4.13838 0
M  V30 63133 H 5988.11 -3.52185 2.21597 0
M  V30 63134 H 5986.98 -4.86715 2.53771 0
M  V30 63135 H 5987.25 -4.33145 0.885326 0
M  V30 63136 N 5986.31 -1.14762 -1.08016 0
M  V30 63137 C 5987.55 -0.919672 -1.80748 0
M  V30 63138 C 5987.88 0.552203 -1.86184 0
M  V30 63139 O 5987.16 1.40918 -1.34062 0
M  V30 63140 C 5987.44 -1.52623 -3.26157 0
M  V30 63141 C 5987.3 -3.06823 -3.28907 0
M  V30 63142 C 5988.61 -1.2064 -4.23242 0
M  V30 63143 H 5985.73 -0.335533 -0.656191 0
M  V30 63144 H 5988.38 -1.41821 -1.26439 0
M  V30 63145 H 5986.53 -1.10226 -3.72535 0
M  V30 63146 H 5988.2 -3.58078 -2.90823 0
M  V30 63147 H 5986.44 -3.41064 -2.68063 0
M  V30 63148 H 5987.11 -3.44372 -4.31407 0
M  V30 63149 H 5989.59 -1.57301 -3.85222 0
M  V30 63150 H 5988.46 -1.65707 -5.2329 0
M  V30 63151 H 5988.72 -0.122332 -4.41931 0
M  V30 63152 N 5987.78 1.26247 -0.943366 0
M  V30 63153 C 5989.19 1.75589 -0.634453 0
M  V30 63154 C 5989.55 1.76815 0.850344 0
M  V30 63155 O 5988.67 1.38168 1.66549 0
M  V30 63156 C 5989.27 3.18867 -1.14495 0
M  V30 63157 C 5987.82 3.65814 -0.886413 0
M  V30 63158 C 5986.97 2.45226 -1.29459 0
M  V30 63159 H 5989.92 1.12293 -1.12143 0
M  V30 63160 H 5989.94 3.77203 -0.499786 0
M  V30 63161 H 5989.46 3.17943 -2.22562 0
M  V30 63162 H 5987.56 3.72166 0.179782 0
M  V30 63163 H 5987.67 4.54517 -1.51496 0
M  V30 63164 H 5986.03 2.44517 -0.713005 0
M  V30 63165 H 5986.82 2.47 -2.38423 0
M  V30 63166 N 5989.26 0.710637 1.40669 0
M  V30 63167 C 5990.54 0.175387 1.94812 0
M  V30 63168 C 5990.92 -1.31786 1.64911 0
M  V30 63169 O 5990.27 -2.07164 0.964131 0
M  V30 63170 C 5990.48 0.482813 3.45644 0
M  V30 63171 C 5991.82 0.418767 4.2253 0
M  V30 63172 O 5992.85 0.418587 3.53732 0
M  V30 63173 O 5991.71 0.391979 5.45092 0
M  V30 63174 H 5988.8 0.0238035 0.826657 0
M  V30 63175 H 5991.35 0.787831 1.50304 0
M  V30 63176 H 5990.12 1.51581 3.60748 0
M  V30 63177 H 5989.74 -0.159844 3.97279 0
M  V30 63178 N 5990.74 -1.50845 0.456461 0
M  V30 63179 C 5991.97 -2.0635 -0.101517 0
M  V30 63180 C 5992.38 -1.32202 -1.35348 0
M  V30 63181 O 5991.72 -0.380496 -1.79716 0
M  V30 63182 C 5991.78 -3.56412 -0.470158 0
M  V30 63183 C 5991.45 -4.51947 0.677705 0
M  V30 63184 C 5992.44 -4.96085 1.55549 0
M  V30 63185 C 5990.13 -4.94816 0.863875 0
M  V30 63186 C 5992.12 -5.81784 2.60397 0
M  V30 63187 C 5989.81 -5.803 1.9156 0
M  V30 63188 C 5990.81 -6.23683 2.78403 0
M  V30 63189 O 5990.5 -7.07467 3.81767 0
M  V30 63190 H 5990.23 -0.675994 -0.00280997 0
M  V30 63191 H 5992.78 -1.95176 0.639962 0
M  V30 63192 H 5991.01 -3.65437 -1.26462 0
M  V30 63193 H 5992.7 -3.94347 -0.96151 0
M  V30 63194 H 5993.47 -4.63646 1.42328 0
M  V30 63195 H 5989.35 -4.60577 0.197447 0
M  V30 63196 H 5992.89 -6.15567 3.28212 0
M  V30 63197 H 5988.79 -6.12152 2.04794 0
M  V30 63198 H 5989.55 -7.25686 3.78578 0
M  V30 63199 N 5992.22 -0.188509 -1.56469 0
M  V30 63200 C 5993.47 0.451096 -1.97001 0
M  V30 63201 C 5993.79 1.62607 -1.07629 0
M  V30 63202 O 5993.06 1.95354 -0.146193 0
M  V30 63203 H 5991.64 0.169645 -0.727482 0
M  V30 63204 H 5994.3 -0.273706 -1.92969 0
M  V30 63205 H 5993.39 0.799635 -3.01682 0
M  V30 63206 N 5993.7 1.5737 0.0851321 0
M  V30 63207 C 5994.92 1.90805 0.80007 0
M  V30 63208 C 5995.34 0.783193 1.71789 0
M  V30 63209 O 5994.7 -0.244267 1.80858 0
M  V30 63210 C 5994.75 3.23916 1.60502 0
M  V30 63211 O 5994.47 4.32075 0.724101 0
M  V30 63212 C 5995.97 3.71278 2.42213 0
M  V30 63213 H 5993.19 0.630996 0.22822 0
M  V30 63214 H 5995.73 2.04414 0.0593869 0
M  V30 63215 H 5993.89 3.11875 2.29811 0
M  V30 63216 H 5994.3 5.08576 1.28261 0
M  V30 63217 H 5995.78 4.67084 2.9417 0
M  V30 63218 H 5996.25 2.99617 3.21132 0
M  V30 63219 H 5996.86 3.8622 1.78085 0
M  V30 63220 N 5995.17 -0.356204 1.53522 0
M  V30 63221 C 5996.4 -1.1166 1.73827 0
M  V30 63222 C 5996.81 -1.83233 0.471403 0
M  V30 63223 O 5996.15 -1.74764 -0.565973 0
M  V30 63224 C 5996.22 -2.18419 2.85541 0
M  V30 63225 C 5995.88 -1.66531 4.25578 0
M  V30 63226 C 5996.88 -1.12436 5.07596 0
M  V30 63227 C 5994.56 -1.7176 4.72021 0
M  V30 63228 C 5996.56 -0.642603 6.34152 0
M  V30 63229 C 5994.24 -1.23196 5.98553 0
M  V30 63230 C 5995.24 -0.69537 6.79451 0
M  V30 63231 O 5994.93 -0.216929 8.03607 0
M  V30 63232 H 5994.66 -0.339398 0.584624 0
M  V30 63233 H 5997.22 -0.418102 2.011 0
M  V30 63234 H 5995.45 -2.91789 2.53763 0
M  V30 63235 H 5997.13 -2.79924 2.93935 0
M  V30 63236 H 5997.9 -1.07728 4.72884 0
M  V30 63237 H 5993.78 -2.12466 4.0912 0
M  V30 63238 H 5997.32 -0.223109 6.97243 0
M  V30 63239 H 5993.22 -1.27601 6.32762 0
M  V30 63240 H 5993.99 -0.335391 8.17813 0
M  V30 63241 N 5996.65 -1.4504 -0.616526 0
M  V30 63242 C 5997.6 -1.53028 -1.72774 0
M  V30 63243 C 5998.57 -0.376835 -1.61769 0
M  V30 63244 O 5999.75 -0.58907 -1.81479 0
M  V30 63245 C 5996.89 -1.49443 -3.11064 0
M  V30 63246 C 5996.01 -2.75272 -3.3294 0
M  V30 63247 C 5995.14 -2.63419 -4.61285 0
M  V30 63248 C 5994.18 -3.84344 -4.76389 0
M  V30 63249 N 5993.32 -3.71079 -5.96024 0
M  V30 63250 H 5998.16 -2.47963 -1.65283 0
M  V30 63251 H 5995.69 -1.23049 -0.806059 0
M  V30 63252 H 5997.65 -1.45353 -3.91061 0
M  V30 63253 H 5996.28 -0.580654 -3.17535 0
M  V30 63254 H 5995.33 -2.89487 -2.46782 0
M  V30 63255 H 5996.65 -3.6499 -3.39976 0
M  V30 63256 H 5995.8 -2.57245 -5.49463 0
M  V30 63257 H 5994.54 -1.71286 -4.56632 0
M  V30 63258 H 5993.54 -3.90887 -3.86636 0
M  V30 63259 H 5994.77 -4.77532 -4.82846 0
M  V30 63260 H 5992.72 -2.81708 -5.92433 0
M  V30 63261 H 5992.63 -4.54424 -6.04181 0
M  V30 63262 H 5993.9 -3.68822 -6.86725 0
M  V30 63263 N 5998.13 0.858241 -1.32182 0
M  V30 63264 C 5999.08 1.98791 -1.20767 0
M  V30 63265 C 6000.07 1.69021 -0.11328 0
M  V30 63266 O 6001.28 1.77872 -0.275965 0
M  V30 63267 H 5997.65 0.652256 -0.374255 0
M  V30 63268 H 5999.62 2.05547 -2.16317 0
M  V30 63269 C 5998.37 3.34643 -0.943905 0
M  V30 63270 H 5997.7 3.58078 -1.7782 0
M  V30 63271 H 5999.14 4.14245 -0.904267 0
M  V30 63272 C 5997.59 3.35042 0.353359 0
M  V30 63273 O 5998.12 3.77747 1.36639 0
M  V30 63274 N 5996.33 2.88182 0.374062 0
M  V30 63275 H 5995.88 2.53624 -0.450839 0
M  V30 63276 H 5995.84 2.88832 1.24191 0
M  V30 63277 N 5999.61 1.15334 1.07405 0
M  V30 63278 C 6000.84 0.951708 1.83712 0
M  V30 63279 C 6001.25 -0.49999 1.82059 0
M  V30 63280 O 6000.61 -1.34675 1.23162 0
M  V30 63281 C 6000.66 1.45746 3.30818 0
M  V30 63282 O 6000.38 2.85229 3.3253 0
M  V30 63283 C 6001.88 1.29723 4.23895 0
M  V30 63284 H 5999.1 0.338041 0.579628 0
M  V30 63285 H 6001.64 1.53093 1.35583 0
M  V30 63286 H 5999.8 0.920775 3.76298 0
M  V30 63287 H 6000.21 3.08149 4.24435 0
M  V30 63288 H 6001.69 1.69957 5.25184 0
M  V30 63289 H 6002.16 0.24134 4.38536 0
M  V30 63290 H 6002.77 1.82297 3.8425 0
M  V30 63291 N 6001.09 -1.25745 0.950048 0
M  V30 63292 C 6002.33 -1.95087 0.609965 0
M  V30 63293 C 6002.69 -1.72805 -0.836804 0
M  V30 63294 O 6003.89 -2.36027 -1.28626 0
M  V30 63295 C 6002.16 -3.44448 0.953415 0
M  V30 63296 S 6003.72 -4.32766 0.725214 0
M  V30 63297 H 6000.54 -0.674675 0.224354 0
M  V30 63298 H 6003.14 -1.52502 1.22325 0
M  V30 63299 H 6001.85 -3.58168 2.0036 0
M  V30 63300 H 6001.38 -3.92012 0.3302 0
M  V30 63301 H 6003.39 -4.94534 -0.406261 0
M  V30 63302 N 6002.56 -0.718087 -1.4029 0
M  V30 63303 C 6003.84 -0.185716 -1.94716 0
M  V30 63304 C 6004.22 1.3091 -1.65608 0
M  V30 63305 O 6003.57 2.06649 -0.975104 0
M  V30 63306 C 6003.78 -0.501136 -3.45383 0
M  V30 63307 C 6005.13 -0.441169 -4.22302 0
M  V30 63308 O 6006.15 -0.437341 -3.53505 0
M  V30 63309 O 6005.01 -0.420881 -5.44877 0
M  V30 63310 H 6002.1 -0.0281871 -0.82652 0
M  V30 63311 H 6004.65 -0.795791 -1.49884 0
M  V30 63312 H 6003.42 -1.53492 -3.59939 0
M  V30 63313 H 6003.05 0.138773 -3.97358 0
M  V30 63314 N 6004.04 1.50601 -0.464455 0
M  V30 63315 C 6005.29 2.01888 0.0926375 0
M  V30 63316 C 6005.61 1.34896 1.40812 0
M  V30 63317 O 6004.88 0.492144 1.89617 0
M  V30 63318 H 6003.46 0.746072 0.0372251 0
M  V30 63319 H 6006.12 1.84997 -0.613361 0
M  V30 63320 H 6005.22 3.11105 0.248958 0
M  V30 63321 N 6005.52 0.196805 1.56366 0
M  V30 63322 C 6006.47 -0.74006 2.20513 0
M  V30 63323 C 6007.46 -1.2185 1.17682 0
M  V30 63324 O 6008.67 -1.18119 1.35823 0
M  V30 63325 H 6005.04 -0.257009 0.706718 0
M  V30 63326 H 6007.01 -0.17535 2.97884 0
M  V30 63327 C 6005.76 -1.9483 2.87987 0
M  V30 63328 H 6005.09 -1.58923 3.66856 0
M  V30 63329 H 6006.53 -2.58215 3.36305 0
M  V30 63330 C 6004.99 -2.78814 1.89114 0
M  V30 63331 O 6005.52 -3.76792 1.3925 0
M  V30 63332 N 6003.72 -2.44342 1.57306 0
M  V30 63333 H 6003.27 -1.64725 1.98049 0
M  V30 63334 H 6003.23 -3.00819 0.914084 0
M  V30 63335 N 6007 -1.57413 -0.0767852 0
M  V30 63336 C 6008.23 -1.91226 -0.78994 0
M  V30 63337 C 6008.64 -0.792292 -1.71371 0
M  V30 63338 O 6008 0.234672 -1.80985 0
M  V30 63339 C 6008.05 -3.24763 -1.58781 0
M  V30 63340 O 6007.77 -4.32452 -0.701177 0
M  V30 63341 C 6009.27 -3.72558 -2.40241 0
M  V30 63342 H 6006.49 -0.632198 -0.224871 0
M  V30 63343 H 6009.04 -2.04442 -0.0485455 0
M  V30 63344 H 6007.19 -3.13089 -2.28154 0
M  V30 63345 H 6007.6 -5.09249 -1.25562 0
M  V30 63346 H 6009.08 -4.68638 -2.91689 0
M  V30 63347 H 6009.56 -3.01316 -3.19539 0
M  V30 63348 H 6010.16 -3.87159 -1.76034 0
M  V30 63349 N 6008.48 0.348057 -1.53709 0
M  V30 63350 C 6009.72 1.0888 -1.70738 0
M  V30 63351 C 6010.05 1.8878 -0.468208 0
M  V30 63352 O 6009.31 1.87812 0.550015 0
M  V30 63353 C 6009.61 2.06113 -2.9198 0
M  V30 63354 C 6009.27 1.42559 -4.27771 0
M  V30 63355 C 6007.93 1.24955 -4.64693 0
M  V30 63356 C 6010.29 0.967358 -5.12144 0
M  V30 63357 C 6007.61 0.601392 -5.8361 0
M  V30 63358 C 6009.97 0.333128 -6.31722 0
M  V30 63359 C 6008.63 0.144733 -6.67343 0
M  V30 63360 H 6007.9 0.398422 -0.624773 0
M  V30 63361 H 6010.55 0.368591 -1.87919 0
M  V30 63362 H 6008.85 2.845 -2.69383 0
M  V30 63363 H 6010.55 2.63412 -3.02349 0
M  V30 63364 H 6007.14 1.57257 -3.98708 0
M  V30 63365 H 6011.32 1.09123 -4.84155 0
M  V30 63366 H 6006.58 0.444002 -6.09786 0
M  V30 63367 H 6010.75 -0.0300529 -6.96394 0
M  V30 63368 H 6008.38 -0.359558 -7.59349 0
M  V30 63369 N 6009.95 1.45365 0.608825 0
M  V30 63370 C 6011.18 1.52841 1.39453 0
M  V30 63371 C 6011.6 0.160603 1.88116 0
M  V30 63372 O 6010.95 -0.837614 1.62143 0
M  V30 63373 C 6011.01 2.51177 2.59985 0
M  V30 63374 O 6010.73 3.82642 2.13346 0
M  V30 63375 C 6012.23 2.68338 3.52859 0
M  V30 63376 H 6009.45 0.517665 0.426924 0
M  V30 63377 H 6011.99 1.9054 0.742607 0
M  V30 63378 H 6010.15 2.16553 3.21222 0
M  V30 63379 H 6010.56 4.35937 2.91649 0
M  V30 63380 H 6012.03 3.41124 4.3398 0
M  V30 63381 H 6012.51 1.74331 4.03119 0
M  V30 63382 H 6013.12 3.03954 2.97476 0
M  V30 63383 N 6011.43 -0.851219 1.32635 0
M  V30 63384 C 6012.66 -1.63563 1.26216 0
M  V30 63385 C 6013.07 -1.88421 -0.171512 0
M  V30 63386 O 6012.41 -1.45596 -1.12016 0
M  V30 63387 C 6012.48 -3.01646 1.95576 0
M  V30 63388 C 6012.14 -2.99814 3.44906 0
M  V30 63389 C 6013.14 -2.76416 4.4033 0
M  V30 63390 C 6010.82 -3.20341 3.86894 0
M  V30 63391 C 6012.82 -2.73552 5.75715 0
M  V30 63392 C 6010.5 -3.17104 5.22387 0
M  V30 63393 C 6011.5 -2.93739 6.16609 0
M  V30 63394 O 6011.19 -2.90382 7.49622 0
M  V30 63395 H 6010.92 -0.516063 0.43664 0
M  V30 63396 H 6013.47 -1.06934 1.75369 0
M  V30 63397 H 6011.7 -3.60078 1.40998 0
M  V30 63398 H 6013.39 -3.62396 1.82821 0
M  V30 63399 H 6014.16 -2.6032 4.09217 0
M  V30 63400 H 6010.04 -3.37552 3.13974 0
M  V30 63401 H 6013.58 -2.55234 6.49231 0
M  V30 63402 H 6009.48 -3.32745 5.53129 0
M  V30 63403 H 6010.25 -3.06311 7.59023 0
M  V30 63404 N 6012.91 -1.15902 -1.06792 0
M  V30 63405 C 6013.87 -0.863502 -2.12312 0
M  V30 63406 C 6014.87 0.13927 -1.60196 0
M  V30 63407 O 6016.06 -0.0910316 -1.73962 0
M  V30 63408 C 6013.2 -0.29037 -3.39661 0
M  V30 63409 H 6014.39 -1.79887 -2.3996 0
M  V30 63410 H 6011.94 -0.967266 -1.22775 0
M  V30 63411 H 6012.68 0.652925 -3.17659 0
M  V30 63412 H 6012.46 -1.01287 -3.78792 0
M  V30 63413 H 6013.95 -0.101387 -4.17477 0
M  V30 63414 N 6014.39 1.2524 -0.956703 0
M  V30 63415 C 6015.61 1.97619 -0.629406 0
M  V30 63416 C 6016.04 1.70609 0.792098 0
M  V30 63417 O 6015.4 0.963246 1.53594 0
M  V30 63418 C 6015.44 3.4927 -0.89681 0
M  V30 63419 O 6014.55 4.12393 0.0233536 0
M  V30 63420 H 6013.89 0.619464 -0.239083 0
M  V30 63421 H 6016.42 1.59305 -1.28386 0
M  V30 63422 H 6016.43 3.99594 -0.82391 0
M  V30 63423 H 6015.1 3.68258 -1.93284 0
M  V30 63424 H 6013.68 3.72761 -0.101927 0
M  V30 63425 N 6015.87 0.725517 1.39907 0
M  V30 63426 C 6016.83 0.0879761 2.29031 0
M  V30 63427 C 6017.83 -0.677054 1.45851 0
M  V30 63428 O 6019.02 -0.50748 1.66644 0
M  V30 63429 C 6016.15 -0.884972 3.29213 0
M  V30 63430 H 6017.35 0.873058 2.86911 0
M  V30 63431 H 6014.9 0.490768 1.48395 0
M  V30 63432 H 6015.63 -1.69675 2.76371 0
M  V30 63433 H 6015.42 -0.33916 3.9063 0
M  V30 63434 H 6016.91 -1.32792 3.95924 0
M  V30 63435 N 6017.35 -1.50352 0.472435 0
M  V30 63436 C 6018.28 -2.31421 -0.310914 0
M  V30 63437 C 6019.26 -1.38386 -0.989102 0
M  V30 63438 O 6020.44 -1.67306 -0.986016 0
M  V30 63439 C 6017.57 -3.18162 -1.39249 0
M  V30 63440 C 6016.53 -4.19759 -0.835829 0
M  V30 63441 C 6015.85 -4.95247 -2.01579 0
M  V30 63442 C 6017.15 -5.22074 0.153794 0
M  V30 63443 H 6018.85 -2.97158 0.365699 0
M  V30 63444 H 6016.39 -1.42904 0.177316 0
M  V30 63445 H 6018.34 -3.73673 -1.94799 0
M  V30 63446 H 6017.07 -2.50312 -2.09789 0
M  V30 63447 H 6015.73 -3.65352 -0.302286 0
M  V30 63448 H 6015.38 -4.23869 -2.70821 0
M  V30 63449 H 6015.08 -5.63971 -1.64954 0
M  V30 63450 H 6016.6 -5.53593 -2.57618 0
M  V30 63451 H 6018.01 -5.72447 -0.312581 0
M  V30 63452 H 6016.41 -5.98526 0.434391 0
M  V30 63453 H 6017.48 -4.72737 1.07924 0
M  V30 63454 N 6018.82 -0.205094 -1.5626 0
M  V30 63455 C 6020.07 0.42499 -1.98911 0
M  V30 63456 C 6020.42 1.58544 -1.09003 0
M  V30 63457 O 6019.72 1.91113 -0.1365 0
M  V30 63458 C 6019.91 0.923965 -3.4525 0
M  V30 63459 C 6019.74 -0.186599 -4.49313 0
M  V30 63460 C 6018.51 -0.647556 -5.01134 0
M  V30 63461 C 6020.71 -0.999095 -5.04502 0
M  V30 63462 N 6018.69 -1.7349 -5.88876 0
M  V30 63463 C 6020.06 -1.93563 -5.89011 0
M  V30 63464 C 6022.12 -1.04039 -4.86909 0
M  V30 63465 C 6020.82 -2.91006 -6.57806 0
M  V30 63466 C 6022.85 -2.00291 -5.56451 0
M  V30 63467 C 6022.21 -2.92687 -6.40713 0
M  V30 63468 H 6018.31 0.122652 -0.772322 0
M  V30 63469 H 6020.89 -0.313087 -1.92166 0
M  V30 63470 H 6019.06 1.63145 -3.52474 0
M  V30 63471 H 6020.79 1.52549 -3.74848 0
M  V30 63472 H 6017.55 -0.239095 -4.72996 0
M  V30 63473 H 6017.97 -2.28007 -6.37449 0
M  V30 63474 H 6022.61 -0.340012 -4.21431 0
M  V30 63475 H 6020.33 -3.62014 -7.22476 0
M  V30 63476 H 6023.92 -2.04139 -5.4481 0
M  V30 63477 H 6022.8 -3.65952 -6.93577 0
M  V30 63478 N 6020.3 1.57451 0.0684361 0
M  V30 63479 C 6021.21 2.07278 1.09878 0
M  V30 63480 C 6022.23 1.003 1.42183 0
M  V30 63481 O 6023.4 1.31792 1.52292 0
M  V30 63482 C 6020.47 2.50957 2.3921 0
M  V30 63483 C 6019.53 3.72248 2.13846 0
M  V30 63484 C 6018.76 4.13835 3.37011 0
M  V30 63485 O 6018.99 3.55264 4.46255 0
M  V30 63486 O 6017.92 5.06598 3.25026 0
M  V30 63487 H 6021.75 2.95392 0.705483 0
M  V30 63488 H 6019.33 1.46699 0.282797 0
M  V30 63489 H 6021.21 2.79558 3.15317 0
M  V30 63490 H 6019.89 1.6597 2.77913 0
M  V30 63491 H 6018.79 3.48724 1.35433 0
M  V30 63492 H 6020.13 4.58097 1.80022 0
M  V30 63493 N 6021.78 -0.339901 1.53891 0
M  V30 63494 C 6023.03 -1.07717 1.70528 0
M  V30 63495 C 6023.34 -1.89692 0.477125 0
M  V30 63496 O 6024.55 -2.66385 0.524518 0
M  V30 63497 C 6023 -1.96445 3.01558 0
M  V30 63498 C 6022.61 -1.1966 4.31724 0
M  V30 63499 C 6024.36 -2.70007 3.27561 0
M  V30 63500 C 6022.26 -2.07439 5.53826 0
M  V30 63501 H 6021.19 -0.405854 0.635451 0
M  V30 63502 H 6023.84 -0.336426 1.8039 0
M  V30 63503 H 6022.23 -2.74354 2.85563 0
M  V30 63504 H 6023.4 -0.466365 4.58434 0
M  V30 63505 H 6021.71 -0.578506 4.12362 0
M  V30 63506 H 6024.31 -3.35958 4.15976 0
M  V30 63507 H 6024.65 -3.3677 2.44728 0
M  V30 63508 H 6025.19 -1.9917 3.44349 0
M  V30 63509 H 6021.93 -1.45212 6.39213 0
M  V30 63510 H 6021.45 -2.78241 5.31358 0
M  V30 63511 H 6023.13 -2.66407 5.89607 0
M  V30 63512 N 6023.26 -1.45686 -0.601108 0
M  V30 63513 C 6024.19 -1.50867 -1.72545 0
M  V30 63514 C 6025.2 -0.398784 -1.5784 0
M  V30 63515 O 6026.39 -0.666188 -1.65603 0
M  V30 63516 C 6023.49 -1.35546 -3.10613 0
M  V30 63517 C 6022.66 -2.60325 -3.51496 0
M  V30 63518 C 6021.72 -2.39467 -4.68553 0
M  V30 63519 O 6020.75 -3.13111 -4.75342 0
M  V30 63520 N 6021.95 -1.44445 -5.62242 0
M  V30 63521 H 6024.72 -2.47805 -1.68561 0
M  V30 63522 H 6022.28 -1.41508 -0.786576 0
M  V30 63523 H 6024.27 -1.19393 -3.86688 0
M  V30 63524 H 6022.84 -0.468601 -3.09068 0
M  V30 63525 H 6022.06 -2.91549 -2.65316 0
M  V30 63526 H 6023.35 -3.43255 -3.75571 0
M  V30 63527 H 6022.75 -0.83682 -5.59476 0
M  V30 63528 H 6021.3 -1.34262 -6.37822 0
M  V30 63529 N 6024.74 0.844173 -1.33084 0
M  V30 63530 C 6025.67 1.96051 -1.18729 0
M  V30 63531 C 6026.68 1.6236 -0.119595 0
M  V30 63532 O 6027.87 1.74633 -0.36953 0
M  V30 63533 C 6024.97 3.29385 -0.797433 0
M  V30 63534 C 6024.14 3.91246 -1.95564 0
M  V30 63535 C 6023.2 5.02926 -1.54762 0
M  V30 63536 O 6022.23 5.22359 -2.2612 0
M  V30 63537 N 6023.43 5.78756 -0.449598 0
M  V30 63538 H 6026.19 2.08905 -2.14893 0
M  V30 63539 H 6023.76 1.01961 -1.2576 0
M  V30 63540 H 6025.75 4.01516 -0.506678 0
M  V30 63541 H 6024.32 3.12514 0.0733676 0
M  V30 63542 H 6023.54 3.1177 -2.41232 0
M  V30 63543 H 6024.83 4.2931 -2.73076 0
M  V30 63544 H 6024.22 5.65516 0.144081 0
M  V30 63545 H 6022.78 6.51434 -0.218493 0
M  V30 63546 N 6026.21 1.16466 1.06176 0
M  V30 63547 C 6027.46 0.948311 1.79262 0
M  V30 63548 C 6027.79 -0.522513 1.87039 0
M  V30 63549 O 6027.07 -1.38767 1.36286 0
M  V30 63550 C 6027.35 1.57792 3.23688 0
M  V30 63551 C 6027.2 3.12017 3.23984 0
M  V30 63552 C 6028.52 1.27358 4.21269 0
M  V30 63553 H 6025.64 0.34593 0.65077 0
M  V30 63554 H 6028.28 1.43814 1.24167 0
M  V30 63555 H 6026.43 1.16139 3.70734 0
M  V30 63556 H 6028.11 3.62659 2.85089 0
M  V30 63557 H 6026.35 3.45285 2.62603 0
M  V30 63558 H 6027.02 3.51191 4.25874 0
M  V30 63559 H 6029.5 1.6341 3.8267 0
M  V30 63560 H 6028.37 1.74011 5.20587 0
M  V30 63561 H 6028.63 0.192624 4.4168 0
M  V30 63562 N 6027.69 -1.2473 0.963332 0
M  V30 63563 C 6028.94 -1.92969 0.623756 0
M  V30 63564 C 6029.27 -1.75173 -0.838332 0
M  V30 63565 O 6028.55 -1.10214 -1.6026 0
M  V30 63566 C 6028.83 -3.46112 0.993912 0
M  V30 63567 C 6028.68 -3.73095 2.51237 0
M  V30 63568 C 6030 -4.36954 0.525282 0
M  V30 63569 H 6027.12 -0.700819 0.228083 0
M  V30 63570 H 6029.76 -1.47183 1.20155 0
M  V30 63571 H 6027.91 -3.8524 0.502243 0
M  V30 63572 H 6029.58 -3.43552 3.07847 0
M  V30 63573 H 6027.83 -3.18398 2.94627 0
M  V30 63574 H 6028.5 -4.80227 2.72187 0
M  V30 63575 H 6030.97 -4.05177 0.947157 0
M  V30 63576 H 6029.85 -5.42847 0.812886 0
M  V30 63577 H 6030.11 -4.38349 -0.574689 0
M  V30 63578 N 6029.17 -0.732927 -1.3952 0
M  V30 63579 C 6030.45 -0.206358 -1.94508 0
M  V30 63580 C 6030.83 1.29146 -1.66987 0
M  V30 63581 O 6030.17 2.05604 -0.996967 0
M  V30 63582 C 6030.38 -0.537741 -3.44832 0
M  V30 63583 C 6031.73 -0.485935 -4.2181 0
M  V30 63584 O 6032.76 -0.47481 -3.53021 0
M  V30 63585 O 6031.62 -0.478648 -5.444 0
M  V30 63586 H 6028.71 -0.0369519 -0.826174 0
M  V30 63587 H 6031.26 -0.811644 -1.49032 0
M  V30 63588 H 6030.03 -1.57301 -3.5829 0
M  V30 63589 H 6029.65 0.0966204 -3.97483 0
M  V30 63590 N 6030.65 1.501 -0.480402 0
M  V30 63591 C 6031.61 2.27259 0.297683 0
M  V30 63592 C 6032.61 1.32418 0.912249 0
M  V30 63593 O 6033.8 1.55762 0.77998 0
M  V30 63594 C 6030.93 3.09689 1.42498 0
M  V30 63595 H 6032.13 2.97494 -0.379115 0
M  V30 63596 H 6029.68 1.54527 -0.234736 0
M  V30 63597 H 6030.41 2.43972 2.13655 0
M  V30 63598 H 6030.2 3.79396 0.989991 0
M  V30 63599 H 6031.69 3.6802 1.97361 0
M  V30 63600 N 6032.13 0.213378 1.56149 0
M  V30 63601 C 6033.4 -0.469107 1.89891 0
M  V30 63602 C 6033.78 -1.78337 1.12956 0
M  V30 63603 O 6033.13 -2.27275 0.236316 0
M  V30 63604 C 6033.34 -0.670049 3.42507 0
M  V30 63605 C 6034.69 -0.981178 4.13108 0
M  V30 63606 O 6035.71 -0.757127 3.4806 0
M  V30 63607 O 6034.57 -1.40595 5.28105 0
M  V30 63608 H 6031.67 -0.246915 0.789279 0
M  V30 63609 H 6034.21 0.254954 1.67774 0
M  V30 63610 H 6032.98 0.257326 3.90453 0
M  V30 63611 H 6032.61 -1.4459 3.70377 0
M  V30 63612 N 6033.6 -1.57485 -0.0600851 0
M  V30 63613 C 6034.83 -1.9244 -0.773398 0
M  V30 63614 C 6035.25 -0.810815 -1.69727 0
M  V30 63615 O 6034.61 0.235634 -1.79762 0
M  V30 63616 C 6034.66 -3.26386 -1.53311 0
M  V30 63617 O 6033.76 -3.16446 -2.64454 0
M  V30 63618 H 6033.11 -0.629845 -0.210217 0
M  V30 63619 H 6035.64 -2.04585 -0.0248262 0
M  V30 63620 H 6035.65 -3.60541 -1.90983 0
M  V30 63621 H 6034.32 -4.0701 -0.855325 0
M  V30 63622 H 6032.9 -2.9387 -2.29553 0
M  V30 63623 N 6035.08 0.331735 -1.54069 0
M  V30 63624 C 6036.03 1.40791 -1.82884 0
M  V30 63625 C 6037 1.51751 -0.675346 0
M  V30 63626 O 6038.18 1.67101 -0.920964 0
M  V30 63627 C 6035.32 2.77273 -2.0546 0
M  V30 63628 C 6034.44 2.7501 -3.33157 0
M  V30 63629 C 6033.57 4.03285 -3.45738 0
M  V30 63630 C 6032.61 3.95298 -4.67339 0
M  V30 63631 N 6031.75 5.15287 -4.7689 0
M  V30 63632 H 6036.59 1.15519 -2.74699 0
M  V30 63633 H 6034.13 0.559363 -1.3605 0
M  V30 63634 H 6036.08 3.56604 -2.1654 0
M  V30 63635 H 6034.71 3.00871 -1.16946 0
M  V30 63636 H 6033.77 1.87717 -3.30857 0
M  V30 63637 H 6035.08 2.64989 -4.2259 0
M  V30 63638 H 6034.23 4.91045 -3.56315 0
M  V30 63639 H 6032.97 4.16103 -2.54381 0
M  V30 63640 H 6031.98 3.05923 -4.56827 0
M  V30 63641 H 6033.2 3.84053 -5.60072 0
M  V30 63642 H 6031.15 5.28625 -3.88447 0
M  V30 63643 H 6031.06 5.07568 -5.60277 0
M  V30 63644 H 6032.33 6.04783 -4.9179 0
M  V30 63645 N 6036.56 1.46003 0.593373 0
M  V30 63646 C 6037.81 1.50029 1.34811 0
M  V30 63647 C 6038.12 0.151974 1.95009 0
M  V30 63648 O 6039.33 0.0699705 2.7141 0
M  V30 63649 C 6037.78 2.64309 2.44272 0
M  V30 63650 C 6037.39 4.05515 1.90424 0
M  V30 63651 C 6039.14 2.77596 3.21156 0
M  V30 63652 C 6037.04 5.11152 2.97451 0
M  V30 63653 H 6035.97 0.558317 0.506752 0
M  V30 63654 H 6038.62 1.72184 0.634423 0
M  V30 63655 H 6037.01 2.35464 3.18391 0
M  V30 63656 H 6038.18 4.44103 1.22919 0
M  V30 63657 H 6036.5 3.96802 1.26242 0
M  V30 63658 H 6039.09 3.53687 4.01011 0
M  V30 63659 H 6039.44 1.84732 3.73068 0
M  V30 63660 H 6039.97 3.06035 2.5414 0
M  V30 63661 H 6036.71 6.05773 2.50439 0
M  V30 63662 H 6036.23 4.7712 3.63478 0
M  V30 63663 H 6037.91 5.36528 3.61588 0
M  V30 63664 N 6038.04 -0.837103 1.3353 0
M  V30 63665 C 6039.28 -1.59483 1.25272 0
M  V30 63666 C 6039.62 -1.93358 -0.180673 0
M  V30 63667 O 6038.89 -1.58843 -1.12245 0
M  V30 63668 C 6039.18 -2.90369 2.12974 0
M  V30 63669 C 6039.03 -2.63164 3.6478 0
M  V30 63670 C 6040.35 -3.91813 2.00425 0
M  V30 63671 H 6037.47 -0.578668 0.456413 0
M  V30 63672 H 6040.11 -0.96537 1.63648 0
M  V30 63673 H 6038.26 -3.44088 1.80376 0
M  V30 63674 H 6039.93 -2.15864 4.07677 0
M  V30 63675 H 6038.17 -1.96835 3.86572 0
M  V30 63676 H 6038.84 -3.56437 4.21493 0
M  V30 63677 H 6041.32 -3.47405 2.29017 0
M  V30 63678 H 6040.2 -4.81222 2.64038 0
M  V30 63679 H 6040.46 -4.31169 0.977003 0
M  V30 63680 N 6039.52 -1.17028 -1.05557 0
M  V30 63681 C 6040.45 -0.841389 -2.13198 0
M  V30 63682 C 6041.46 0.15461 -1.62064 0
M  V30 63683 O 6042.65 -0.07118 -1.78358 0
M  V30 63684 C 6039.75 -0.233275 -3.38096 0
M  V30 63685 C 6038.92 -1.27122 -4.1852 0
M  V30 63686 C 6037.98 -0.681547 -5.21768 0
M  V30 63687 O 6037.01 -1.35238 -5.52901 0
M  V30 63688 N 6038.21 0.528178 -5.78092 0
M  V30 63689 H 6040.98 -1.76781 -2.42009 0
M  V30 63690 H 6038.54 -1.06862 -1.21623 0
M  V30 63691 H 6040.53 0.174423 -4.04324 0
M  V30 63692 H 6039.1 0.596857 -3.06849 0
M  V30 63693 H 6038.32 -1.85482 -3.47837 0
M  V30 63694 H 6039.61 -1.97146 -4.69053 0
M  V30 63695 H 6039 1.09121 -5.55076 0
M  V30 63696 H 6037.56 0.877987 -6.4586 0
M  V30 63697 N 6040.99 1.24218 -0.969933 0
M  V30 63698 C 6041.92 2.27617 -0.520825 0
M  V30 63699 C 6042.91 1.64293 0.440673 0
M  V30 63700 O 6044.09 1.91266 0.336313 0
M  V30 63701 C 6041.22 3.46793 0.187646 0
M  V30 63702 C 6040.17 4.224 -0.690093 0
M  V30 63703 C 6039.5 5.3449 0.149998 0
M  V30 63704 C 6040.8 4.83487 -1.97579 0
M  V30 63705 H 6042.49 2.65436 -1.38507 0
M  V30 63706 H 6040.04 1.27598 -0.667443 0
M  V30 63707 H 6041.99 4.18265 0.513069 0
M  V30 63708 H 6040.72 3.08006 1.08626 0
M  V30 63709 H 6039.38 3.52731 -0.99882 0
M  V30 63710 H 6039.02 4.91944 1.04883 0
M  V30 63711 H 6038.72 5.85994 -0.434097 0
M  V30 63712 H 6040.25 6.08788 0.470041 0
M  V30 63713 H 6041.66 5.47022 -1.7158 0
M  V30 63714 H 6040.06 5.45234 -2.50679 0
M  V30 63715 H 6041.13 4.04817 -2.6693 0
M  V30 63716 N 6042.47 0.740315 1.3913 0
M  V30 63717 C 6043.7 0.299677 2.05224 0
M  V30 63718 C 6044.12 -1.05899 1.55458 0
M  V30 63719 O 6043.48 -1.67214 0.700662 0
M  V30 63720 C 6043.53 0.316919 3.59205 0
M  V30 63721 O 6042.63 -0.693643 4.06525 0
M  V30 63722 H 6041.97 0.135169 0.650096 0
M  V30 63723 H 6044.5 1.00773 1.78062 0
M  V30 63724 H 6044.51 0.163156 4.07674 0
M  V30 63725 H 6043.19 1.30828 3.94787 0
M  V30 63726 H 6041.77 -0.505582 3.69457 0
M  V30 63727 N 6043.95 -1.49843 0.488355 0
M  V30 63728 C 6044.86 -2.32652 -0.301664 0
M  V30 63729 C 6045.88 -1.4381 -0.979523 0
M  V30 63730 O 6047.05 -1.76847 -0.963696 0
M  V30 63731 C 6044.12 -3.18933 -1.35951 0
M  V30 63732 C 6043.18 -4.23614 -0.696426 0
M  V30 63733 C 6042.41 -5.05771 -1.70387 0
M  V30 63734 O 6042.63 -4.89254 -2.93236 0
M  V30 63735 O 6041.57 -5.88432 -1.26616 0
M  V30 63736 H 6045.39 -3.01366 0.375793 0
M  V30 63737 H 6042.98 -1.47295 0.249896 0
M  V30 63738 H 6044.86 -3.72419 -1.97184 0
M  V30 63739 H 6043.54 -2.52928 -2.02012 0
M  V30 63740 H 6042.44 -3.74073 -0.0446803 0
M  V30 63741 H 6043.78 -4.92137 -0.0784716 0
M  V30 63742 N 6045.43 -0.221656 -1.56033 0
M  V30 63743 C 6046.68 0.410373 -1.97481 0
M  V30 63744 C 6046.99 1.60892 -1.11235 0
M  V30 63745 O 6048.2 2.31047 -1.42582 0
M  V30 63746 C 6046.65 0.7815 -3.51313 0
M  V30 63747 C 6046.26 -0.394234 -4.46262 0
M  V30 63748 C 6048.01 1.37913 -4.01473 0
M  V30 63749 C 6045.91 -0.000666087 -5.914 0
M  V30 63750 H 6044.84 0.157096 -0.737453 0
M  V30 63751 H 6047.49 -0.317885 -1.80726 0
M  V30 63752 H 6045.88 1.56718 -3.63669 0
M  V30 63753 H 6047.05 -1.17176 -4.45653 0
M  V30 63754 H 6045.36 -0.905102 -4.06444 0
M  V30 63755 H 6047.96 1.68649 -5.07407 0
M  V30 63756 H 6048.3 2.29494 -3.4733 0
M  V30 63757 H 6048.84 0.656878 -3.92339 0
M  V30 63758 H 6045.58 -0.882971 -6.49526 0
M  V30 63759 H 6045.1 0.741177 -5.95203 0
M  V30 63760 H 6046.78 0.425983 -6.45596 0
M  V30 63761 N 6046.91 1.57515 0.0517324 0
M  V30 63762 C 6047.86 2.06118 1.07787 0
M  V30 63763 C 6048.85 0.970389 1.38852 0
M  V30 63764 O 6050.06 1.15541 1.38023 0
M  V30 63765 H 6046.43 0.657464 0.365028 0
M  V30 63766 H 6048.4 2.91413 0.641966 0
M  V30 63767 C 6047.15 2.53736 2.37725 0
M  V30 63768 H 6046.47 3.37274 2.14677 0
M  V30 63769 H 6047.91 2.91477 3.07924 0
M  V30 63770 C 6046.37 1.42879 3.05102 0
M  V30 63771 O 6046.9 0.782164 3.94012 0
M  V30 63772 N 6045.11 1.16892 2.66054 0
M  V30 63773 H 6044.66 1.69657 1.93841 0
M  V30 63774 H 6044.61 0.429274 3.11456 0
M  V30 63775 N 6048.39 -0.32356 1.54243 0
M  V30 63776 C 6049.32 -1.42205 1.78474 0
M  V30 63777 C 6050.3 -1.497 0.634724 0
M  V30 63778 O 6051.48 -1.6711 0.872161 0
M  V30 63779 C 6048.61 -2.803 1.90131 0
M  V30 63780 C 6047.65 -2.90336 3.12421 0
M  V30 63781 S 6048.49 -2.54744 4.71026 0
M  V30 63782 C 6049.64 -3.9491 4.85589 0
M  V30 63783 H 6049.88 -1.21437 2.71367 0
M  V30 63784 H 6047.41 -0.520395 1.45366 0
M  V30 63785 H 6049.37 -3.59849 1.97532 0
M  V30 63786 H 6048.03 -2.9835 0.982153 0
M  V30 63787 H 6047.22 -3.91573 3.17312 0
M  V30 63788 H 6046.82 -2.18758 3.03349 0
M  V30 63789 H 6049.11 -4.89664 4.68226 0
M  V30 63790 H 6050.06 -3.95003 5.87689 0
M  V30 63791 H 6050.47 -3.83865 4.13894 0
M  V30 63792 N 6049.86 -1.46316 -0.585622 0
M  V30 63793 C 6051.14 -1.41951 -1.34571 0
M  V30 63794 C 6051.52 -0.101453 -2.10856 0
M  V30 63795 O 6050.87 0.916942 -2.09295 0
M  V30 63796 C 6051.08 -2.64732 -2.27415 0
M  V30 63797 C 6052.43 -3.10757 -2.89336 0
M  V30 63798 O 6053.45 -2.6526 -2.3773 0
M  V30 63799 O 6052.31 -3.89773 -3.83065 0
M  V30 63800 H 6049.4 -0.564367 -0.604499 0
M  V30 63801 H 6051.95 -1.58477 -0.606882 0
M  V30 63802 H 6050.72 -3.52223 -1.70455 0
M  V30 63803 H 6050.34 -2.5065 -3.08643 0
M  V30 63804 N 6051.34 0.83001 -1.33972 0
M  V30 63805 C 6052.29 1.96185 -1.24957 0
M  V30 63806 C 6053.28 1.68743 -0.149106 0
M  V30 63807 O 6054.49 1.77247 -0.313633 0
M  V30 63808 H 6050.86 0.64417 -0.388006 0
M  V30 63809 H 6052.84 2.00913 -2.20628 0
M  V30 63810 C 6051.58 3.32565 -1.01468 0
M  V30 63811 H 6050.91 3.54226 -1.85376 0
M  V30 63812 H 6052.35 4.12234 -0.991931 0
M  V30 63813 C 6050.81 3.35716 0.282213 0
M  V30 63814 O 6051.34 3.8056 1.28596 0
M  V30 63815 N 6049.54 2.88911 0.31285 0
M  V30 63816 H 6049.09 2.52611 -0.504535 0
M  V30 63817 H 6049.05 2.91401 1.18037 0
M  V30 63818 N 6052.82 1.17586 1.04935 0
M  V30 63819 C 6054.04 0.991034 1.8219 0
M  V30 63820 C 6054.47 -0.455901 1.82492 0
M  V30 63821 O 6053.83 -1.32657 1.23579 0
M  V30 63822 C 6053.88 1.53982 3.2607 0
M  V30 63823 O 6052.98 0.755314 4.05424 0
M  V30 63824 H 6052.32 0.351689 0.563215 0
M  V30 63825 H 6054.85 1.56143 1.32214 0
M  V30 63826 H 6054.86 1.5632 3.76866 0
M  V30 63827 H 6053.54 2.59307 3.25166 0
M  V30 63828 H 6052.11 0.803551 3.64139 0
M  V30 63829 N 6054.3 -1.23702 0.976507 0
M  V30 63830 C 6055.71 -1.73845 0.680784 0
M  V30 63831 C 6056.06 -1.79008 -0.803165 0
M  V30 63832 O 6055.18 -1.42535 -1.62827 0
M  V30 63833 C 6055.78 -3.15719 1.22909 0
M  V30 63834 C 6054.34 -3.63335 0.983091 0
M  V30 63835 C 6053.49 -2.41707 1.35915 0
M  V30 63836 H 6056.44 -1.0928 1.15081 0
M  V30 63837 H 6056.46 -3.75746 0.59962 0
M  V30 63838 H 6055.97 -3.1193 2.30914 0
M  V30 63839 H 6054.07 -3.72512 -0.0810456 0
M  V30 63840 H 6054.18 -4.50341 1.63493 0
M  V30 63841 H 6052.55 -2.4254 0.777583 0
M  V30 63842 H 6053.33 -2.40592 2.44888 0
M  V30 63843 N 6055.78 -0.747683 -1.38735 0
M  V30 63844 C 6056.72 -0.105339 -2.32361 0
M  V30 63845 C 6057.72 0.711867 -1.53717 0
M  V30 63846 O 6058.92 0.611627 -1.6929 0
M  V30 63847 H 6055.3 -0.015267 -0.751845 0
M  V30 63848 H 6057.27 -0.911157 -2.84149 0
M  V30 63849 C 6056.02 0.778102 -3.38882 0
M  V30 63850 H 6055.34 0.158666 -3.99485 0
M  V30 63851 H 6056.78 1.19494 -4.06813 0
M  V30 63852 C 6055.24 1.91809 -2.76967 0
M  V30 63853 O 6055.77 3.01178 -2.6581 0
M  V30 63854 N 6053.98 1.71134 -2.34865 0
M  V30 63855 H 6053.52 0.821799 -2.4414 0
M  V30 63856 H 6053.48 2.47581 -1.93781 0
M  V30 63857 N 6057.25 1.49582 -0.496295 0
M  V30 63858 C 6058.18 2.31886 0.274057 0
M  V30 63859 C 6059.16 1.39942 0.966961 0
M  V30 63860 O 6060.35 1.68854 0.959274 0
M  V30 63861 C 6057.48 3.20337 1.3417 0
M  V30 63862 C 6056.43 4.21036 0.768943 0
M  V30 63863 C 6055.76 4.98391 1.93675 0
M  V30 63864 C 6057.06 5.21763 -0.236832 0
M  V30 63865 H 6058.75 2.96539 -0.412928 0
M  V30 63866 H 6056.3 1.42604 -0.200029 0
M  V30 63867 H 6058.25 3.76724 1.8883 0
M  V30 63868 H 6056.98 2.53618 2.0578 0
M  V30 63869 H 6055.64 3.65786 0.244123 0
M  V30 63870 H 6055.28 4.28124 2.64043 0
M  V30 63871 H 6054.98 5.66524 1.55961 0
M  V30 63872 H 6056.51 5.57622 2.48778 0
M  V30 63873 H 6057.92 5.72872 0.22147 0
M  V30 63874 H 6056.32 5.97759 -0.529556 0
M  V30 63875 H 6057.39 4.7096 -1.15431 0
M  V30 63876 N 6058.73 0.229928 1.55914 0
M  V30 63877 C 6059.69 -0.66327 2.19393 0
M  V30 63878 C 6060.69 -1.11544 1.15822 0
M  V30 63879 O 6061.88 -1.02289 1.41006 0
M  V30 63880 C 6059.02 -1.9096 2.82395 0
M  V30 63881 H 6060.21 -0.109691 2.99699 0
M  V30 63882 H 6057.76 -0.0196684 1.56288 0
M  V30 63883 H 6058.5 -2.50484 2.05982 0
M  V30 63884 H 6058.28 -1.59376 3.58248 0
M  V30 63885 H 6059.77 -2.54578 3.31028 0
M  V30 63886 N 6060.21 -1.5754 -0.0433783 0
M  V30 63887 C 6061.46 -1.89743 -0.732733 0
M  V30 63888 C 6061.81 -0.82693 -1.73723 0
M  V30 63889 O 6061.1 0.165969 -1.9088 0
M  V30 63890 C 6061.3 -3.26407 -1.45579 0
M  V30 63891 C 6061.13 -4.4665 -0.52284 0
M  V30 63892 C 6059.9 -5.0508 -0.149182 0
M  V30 63893 C 6062.1 -5.13939 0.192675 0
M  V30 63894 N 6060.08 -6.08841 0.786523 0
M  V30 63895 C 6061.45 -6.12133 0.984542 0
M  V30 63896 C 6063.5 -4.97215 0.261139 0
M  V30 63897 C 6062.21 -6.95406 1.83856 0
M  V30 63898 C 6064.23 -5.81038 1.10223 0
M  V30 63899 C 6063.59 -6.78791 1.88206 0
M  V30 63900 H 6059.69 -0.743395 -0.242669 0
M  V30 63901 H 6062.28 -1.94699 0.00676041 0
M  V30 63902 H 6060.45 -3.22407 -2.16583 0
M  V30 63903 H 6062.18 -3.46169 -2.0964 0
M  V30 63904 H 6058.94 -4.70865 -0.508271 0
M  V30 63905 H 6059.36 -6.65389 1.24846 0
M  V30 63906 H 6064 -4.2153 -0.327459 0
M  V30 63907 H 6061.72 -7.70446 2.43801 0
M  V30 63908 H 6065.31 -5.70148 1.15855 0
M  V30 63909 H 6064.19 -7.42526 2.52238 0
M  V30 63910 N 6061.69 0.315375 -1.54412 0
M  V30 63911 C 6063.1 0.889301 -1.64159 0
M  V30 63912 C 6063.45 1.88596 -0.540937 0
M  V30 63913 O 6062.58 2.13948 0.324829 0
M  V30 63914 C 6063.17 1.61975 -2.97573 0
M  V30 63915 C 6061.73 2.14228 -3.09489 0
M  V30 63916 C 6060.88 0.970291 -2.5977 0
M  V30 63917 H 6063.83 0.0927413 -1.58429 0
M  V30 63918 H 6063.85 2.48447 -2.88191 0
M  V30 63919 H 6063.36 0.894117 -3.7766 0
M  V30 63920 H 6061.46 2.89882 -2.34093 0
M  V30 63921 H 6061.57 2.38667 -4.15421 0
M  V30 63922 H 6059.94 1.35179 -2.15867 0
M  V30 63923 H 6060.72 0.258848 -3.42323 0
M  V30 63924 N 6063.17 1.46624 0.577854 0
M  V30 63925 C 6064.1 1.60419 1.6967 0
M  V30 63926 C 6065.08 0.454335 1.6392 0
M  V30 63927 O 6066.26 0.681173 1.81862 0
M  V30 63928 C 6063.39 1.59877 3.08313 0
M  V30 63929 C 6062.35 2.73882 3.28897 0
M  V30 63930 C 6061.67 2.58402 4.68116 0
M  V30 63931 C 6062.97 4.15663 3.16261 0
M  V30 63932 H 6064.67 2.54078 1.58381 0
M  V30 63933 H 6062.21 1.22278 0.760529 0
M  V30 63934 H 6064.17 1.68121 3.86411 0
M  V30 63935 H 6062.89 0.627654 3.20512 0
M  V30 63936 H 6061.55 2.65114 2.532 0
M  V30 63937 H 6061.2 1.59363 4.77087 0
M  V30 63938 H 6060.9 3.34872 4.8284 0
M  V30 63939 H 6062.42 2.68545 5.48376 0
M  V30 63940 H 6063.83 4.25516 3.84199 0
M  V30 63941 H 6062.23 4.92758 3.42505 0
M  V30 63942 H 6063.3 4.35478 2.13276 0
M  V30 63943 N 6064.64 -0.822893 1.34411 0
M  V30 63944 C 6065.89 -1.57413 1.26111 0
M  V30 63945 C 6066.21 -1.94884 -0.167156 0
M  V30 63946 O 6067.41 -2.68935 -0.372305 0
M  V30 63947 C 6065.87 -2.84001 2.21069 0
M  V30 63948 C 6065.48 -2.53831 3.69153 0
M  V30 63949 C 6067.22 -3.62021 2.21677 0
M  V30 63950 C 6065.13 -3.76612 4.5598 0
M  V30 63951 H 6064.06 -0.590797 0.468482 0
M  V30 63952 H 6066.71 -0.905971 1.59576 0
M  V30 63953 H 6065.09 -3.52442 1.80556 0
M  V30 63954 H 6066.26 -1.935 4.18204 0
M  V30 63955 H 6064.58 -1.89086 3.70992 0
M  V30 63956 H 6067.18 -4.53187 2.8377 0
M  V30 63957 H 6067.52 -3.98142 1.21607 0
M  V30 63958 H 6068.05 -3.00523 2.60636 0
M  V30 63959 H 6064.79 -3.45611 5.56986 0
M  V30 63960 H 6064.31 -4.36226 4.11664 0
M  V30 63961 H 6065.99 -4.44022 4.70589 0
M  V30 63962 N 6066.12 -1.18141 -1.0431 0
M  V30 63963 C 6067.37 -0.97671 -1.77731 0
M  V30 63964 C 6067.7 0.49269 -1.87846 0
M  V30 63965 O 6066.98 1.36581 -1.38477 0
M  V30 63966 C 6067.26 -1.62922 -3.21136 0
M  V30 63967 C 6067.11 -3.17132 -3.18979 0
M  V30 63968 C 6068.43 -1.34044 -4.1919 0
M  V30 63969 H 6065.55 -0.35624 -0.645184 0
M  V30 63970 H 6068.19 -1.45772 -1.21863 0
M  V30 63971 H 6066.34 -1.22022 -3.6884 0
M  V30 63972 H 6068.01 -3.67149 -2.79284 0
M  V30 63973 H 6066.26 -3.4942 -2.57077 0
M  V30 63974 H 6066.93 -3.57922 -4.20233 0
M  V30 63975 H 6069.4 -1.69477 -3.80022 0
M  V30 63976 H 6068.28 -1.82271 -5.17753 0
M  V30 63977 H 6068.54 -0.262867 -4.41318 0
M  V30 63978 N 6067.6 1.23182 -0.983053 0
M  V30 63979 C 6068.83 1.95699 -0.671522 0
M  V30 63980 C 6069.24 1.7274 0.762 0
M  V30 63981 O 6068.6 1.02043 1.51306 0
M  V30 63982 C 6068.65 3.48638 -0.955696 0
M  V30 63983 O 6068.37 3.70821 -2.33288 0
M  V30 63984 C 6069.87 4.38352 -0.660488 0
M  V30 63985 H 6067.09 0.622997 -0.24923 0
M  V30 63986 H 6069.64 1.56601 -1.31516 0
M  V30 63987 H 6067.79 3.85742 -0.358028 0
M  V30 63988 H 6068.21 4.65096 -2.42459 0
M  V30 63989 H 6069.68 5.44453 -0.909668 0
M  V30 63990 H 6070.16 4.37324 0.405461 0
M  V30 63991 H 6070.76 4.0686 -1.23876 0
M  V30 63992 N 6069.08 0.75503 1.38337 0
M  V30 63993 C 6070.04 0.136537 2.28793 0
M  V30 63994 C 6071.04 -0.645965 1.47255 0
M  V30 63995 O 6072.23 -0.472018 1.67683 0
M  V30 63996 C 6069.36 -0.814942 3.31016 0
M  V30 63997 H 6070.56 0.933719 2.84994 0
M  V30 63998 H 6068.11 0.522134 1.47321 0
M  V30 63999 H 6068.84 -1.63775 2.79908 0
M  V30 64000 H 6068.63 -0.256225 3.91262 0
M  V30 64001 H 6070.12 -1.24364 3.98652 0
M  V30 64002 N 6070.56 -1.49316 0.50422 0
M  V30 64003 C 6071.49 -2.32028 -0.261756 0
M  V30 64004 C 6072.47 -1.40453 -0.959526 0
M  V30 64005 O 6073.65 -1.6936 -0.950306 0
M  V30 64006 C 6070.78 -3.21044 -1.32469 0
M  V30 64007 C 6069.74 -4.21438 -0.746604 0
M  V30 64008 C 6069.06 -4.99412 -1.91029 0
M  V30 64009 C 6070.36 -5.2163 0.264499 0
M  V30 64010 H 6072.06 -2.96316 0.428648 0
M  V30 64011 H 6069.6 -1.42496 0.207589 0
M  V30 64012 H 6071.56 -3.7772 -1.86829 0
M  V30 64013 H 6070.28 -2.54706 -2.04432 0
M  V30 64014 H 6068.94 -3.65911 -0.224721 0
M  V30 64015 H 6068.59 -4.29518 -2.61769 0
M  V30 64016 H 6068.29 -5.67343 -1.52955 0
M  V30 64017 H 6069.81 -5.58933 -2.45817 0
M  V30 64018 H 6071.22 -5.72981 -0.191087 0
M  V30 64019 H 6069.62 -5.9747 0.561249 0
M  V30 64020 H 6070.69 -4.70342 1.17927 0
M  V30 64021 N 6072.03 -0.238193 -1.5579 0
M  V30 64022 C 6073.45 0.116852 -1.59172 0
M  V30 64023 C 6073.65 1.57625 -1.25526 0
M  V30 64024 O 6072.71 2.31922 -0.998413 0
M  V30 64025 C 6074.02 -0.224472 -2.99861 0
M  V30 64026 C 6075.57 -0.16806 -3.12548 0
M  V30 64027 C 6076.04 -0.483292 -4.55443 0
M  V30 64028 N 6077.53 -0.433472 -4.61167 0
M  V30 64029 C 6078.27 -0.650661 -5.69696 0
M  V30 64030 N 6077.76 -0.930514 -6.86523 0
M  V30 64031 N 6079.56 -0.581961 -5.59079 0
M  V30 64032 H 6071.71 -1.19003 -1.75932 0
M  V30 64033 H 6073.97 -0.478198 -0.818554 0
M  V30 64034 H 6073.68 -1.23802 -3.2919 0
M  V30 64035 H 6073.55 0.452606 -3.74475 0
M  V30 64036 H 6075.94 0.836153 -2.83006 0
M  V30 64037 H 6076.02 -0.87886 -2.40228 0
M  V30 64038 H 6075.66 -1.48502 -4.85705 0
M  V30 64039 H 6075.59 0.248888 -5.26012 0
M  V30 64040 H 6078.08 -0.225545 -3.77226 0
M  V30 64041 H 6078.4 -1.08389 -7.65161 0
M  V30 64042 H 6076.74 -0.967892 -6.88227 0
M  V30 64043 H 6079.93 -0.363437 -4.66687 0
M  V30 64044 H 6080.11 -0.754624 -6.43591 0
M  V30 64045 N 6073.51 1.57561 0.0350229 0
M  V30 64046 C 6074.48 2.05148 1.0221 0
M  V30 64047 C 6075.48 0.95457 1.29401 0
M  V30 64048 O 6076.67 1.21837 1.24504 0
M  V30 64049 C 6073.8 2.46338 2.35649 0
M  V30 64050 H 6074.99 2.93607 0.611157 0
M  V30 64051 H 6072.54 1.5374 0.281706 0
M  V30 64052 H 6073.28 1.61018 2.81503 0
M  V30 64053 H 6073.06 3.26416 2.17244 0
M  V30 64054 H 6074.55 2.83603 3.06527 0
M  V30 64055 N 6074.99 -0.307182 1.54577 0
M  V30 64056 C 6075.94 -1.3987 1.85847 0
M  V30 64057 C 6076.93 -1.52783 0.731684 0
M  V30 64058 O 6078.14 -1.54974 0.915589 0
M  V30 64059 H 6074.51 -0.467081 0.589355 0
M  V30 64060 H 6076.49 -1.10729 2.77095 0
M  V30 64061 C 6075.23 -2.75822 2.11702 0
M  V30 64062 H 6074.56 -2.66665 2.97876 0
M  V30 64063 H 6076 -3.51223 2.37525 0
M  V30 64064 C 6074.46 -3.24275 0.913636 0
M  V30 64065 O 6074.99 -4.01486 0.131044 0
M  V30 64066 N 6073.19 -2.81521 0.720724 0
M  V30 64067 H 6072.74 -2.18849 1.35878 0
M  V30 64068 H 6072.7 -3.14291 -0.0829035 0
M  V30 64069 N 6076.47 -1.46928 -0.57007 0
M  V30 64070 C 6077.69 -1.56727 -1.35836 0
M  V30 64071 C 6078.12 -0.21338 -1.86886 0
M  V30 64072 O 6077.48 0.808637 -1.62268 0
M  V30 64073 C 6077.53 -2.58599 -2.51314 0
M  V30 64074 O 6076.63 -2.12978 -3.53149 0
M  V30 64075 H 6075.97 -0.526943 -0.404014 0
M  V30 64076 H 6078.5 -1.92605 -0.69024 0
M  V30 64077 H 6078.51 -2.78611 -2.9806 0
M  V30 64078 H 6077.19 -3.56911 -2.13512 0
M  V30 64079 H 6075.76 -2.0301 -3.12796 0
M  V30 64080 N 6077.95 0.815754 -1.34845 0
M  V30 64081 C 6078.91 1.90866 -1.26897 0
M  V30 64082 C 6079.91 1.59761 -0.182501 0
M  V30 64083 O 6081.1 1.68666 -0.435602 0
M  V30 64084 C 6078.23 3.27078 -0.960889 0
M  V30 64085 H 6079.43 1.99335 -2.24066 0
M  V30 64086 H 6076.98 1.01056 -1.19237 0
M  V30 64087 H 6077.71 3.24299 0.00732658 0
M  V30 64088 H 6077.5 3.51039 -1.74683 0
M  V30 64089 H 6078.99 4.07098 -0.930637 0
M  V30 64090 N 6079.43 1.18692 1.03682 0
M  V30 64091 C 6080.67 0.986122 1.7721 0
M  V30 64092 C 6081 -0.482722 1.88105 0
M  V30 64093 O 6080.28 -1.35845 1.39199 0
M  V30 64094 C 6080.56 1.64623 3.20268 0
M  V30 64095 C 6080.42 3.18819 3.17293 0
M  V30 64096 C 6081.73 1.36265 4.18473 0
M  V30 64097 H 6078.85 0.359656 0.643286 0
M  V30 64098 H 6081.5 1.46416 1.21088 0
M  V30 64099 H 6079.65 1.23977 3.68187 0
M  V30 64100 H 6081.32 3.68625 2.77333 0
M  V30 64101 H 6079.56 3.50778 2.5522 0
M  V30 64102 H 6080.23 3.60146 4.18329 0
M  V30 64103 H 6082.71 1.7149 3.79118 0
M  V30 64104 H 6081.58 1.85015 5.16779 0
M  V30 64105 H 6081.84 0.286268 4.41172 0
M  V30 64106 N 6080.9 -1.22659 0.989572 0
M  V30 64107 C 6081.85 -2.24464 0.537073 0
M  V30 64108 C 6082.82 -1.60468 -0.428851 0
M  V30 64109 O 6084.01 -1.87848 -0.334352 0
M  V30 64110 C 6081.15 -3.44794 -0.145405 0
M  V30 64111 C 6080.26 -4.23315 0.861865 0
M  V30 64112 C 6079.39 -5.30979 0.153248 0
M  V30 64113 C 6078.43 -6.01217 1.14911 0
M  V30 64114 N 6077.57 -7.00532 0.469029 0
M  V30 64115 H 6082.41 -2.62534 1.40996 0
M  V30 64116 H 6079.95 -1.29032 0.706336 0
M  V30 64117 H 6081.9 -4.13452 -0.557982 0
M  V30 64118 H 6080.53 -3.07497 -0.982105 0
M  V30 64119 H 6079.59 -3.53986 1.39278 0
M  V30 64120 H 6080.9 -4.71748 1.62035 0
M  V30 64121 H 6080.05 -6.05875 -0.31623 0
M  V30 64122 H 6078.79 -4.83512 -0.63777 0
M  V30 64123 H 6077.8 -5.25105 1.62925 0
M  V30 64124 H 6079.02 -6.50772 1.94095 0
M  V30 64125 H 6076.97 -6.55302 -0.302614 0
M  V30 64126 H 6076.88 -7.46954 1.16602 0
M  V30 64127 H 6078.15 -7.79497 0.0222426 0
M  V30 64128 N 6082.38 -0.762356 -1.37934 0
M  V30 64129 C 6083.31 -0.156118 -2.32978 0
M  V30 64130 C 6084.29 0.693741 -1.5531 0
M  V30 64131 O 6085.48 0.63313 -1.83589 0
M  V30 64132 C 6082.61 0.73108 -3.39518 0
M  V30 64133 C 6081.56 -0.0167338 -4.27997 0
M  V30 64134 C 6080.89 0.989291 -5.25468 0
M  V30 64135 C 6082.19 -1.19027 -5.08557 0
M  V30 64136 H 6083.88 -0.950078 -2.83926 0
M  V30 64137 H 6081.43 -0.458317 -1.36512 0
M  V30 64138 H 6083.38 1.16493 -4.04978 0
M  V30 64139 H 6082.1 1.55746 -2.87073 0
M  V30 64140 H 6080.76 -0.431256 -3.64055 0
M  V30 64141 H 6080.41 1.80997 -4.69307 0
M  V30 64142 H 6080.11 0.493532 -5.85524 0
M  V30 64143 H 6081.64 1.42228 -5.93804 0
M  V30 64144 H 6083.05 -0.833536 -5.67208 0
M  V30 64145 H 6081.45 -1.61748 -5.77891 0
M  V30 64146 H 6082.52 -1.99894 -4.41781 0
M  V30 64147 N 6083.86 1.49047 -0.512132 0
M  V30 64148 C 6084.79 2.27265 0.297198 0
M  V30 64149 C 6085.8 1.3427 0.920627 0
M  V30 64150 O 6086.99 1.59464 0.802084 0
M  V30 64151 C 6084.09 3.07047 1.43441 0
M  V30 64152 C 6083.27 4.27696 0.916226 0
M  V30 64153 C 6082.33 4.89434 1.93239 0
M  V30 64154 O 6081.35 5.49176 1.49647 0
M  V30 64155 N 6082.55 4.80077 3.26352 0
M  V30 64156 H 6085.32 2.97363 -0.373549 0
M  V30 64157 H 6082.88 1.58174 -0.345356 0
M  V30 64158 H 6084.87 3.45221 2.11198 0
M  V30 64159 H 6083.44 2.39485 2.00912 0
M  V30 64160 H 6082.66 3.94149 0.0632029 0
M  V30 64161 H 6083.95 5.05834 0.548608 0
M  V30 64162 H 6083.35 4.32659 3.64449 0
M  V30 64163 H 6081.9 5.22403 3.89792 0
M  V30 64164 N 6085.34 0.246452 1.55661 0
M  V30 64165 C 6086.29 -0.669531 2.22756 0
M  V30 64166 C 6087.28 -1.18044 1.21499 0
M  V30 64167 O 6088.49 -1.13739 1.39512 0
M  V30 64168 H 6084.86 -0.234395 0.714537 0
M  V30 64169 H 6086.83 -0.0804913 2.98291 0
M  V30 64170 C 6085.58 -1.8557 2.94039 0
M  V30 64171 H 6084.9 -1.47171 3.71727 0
M  V30 64172 H 6086.34 -2.47385 3.44349 0
M  V30 64173 C 6084.8 -2.72657 1.97889 0
M  V30 64174 O 6085.33 -3.72171 1.51167 0
M  V30 64175 N 6083.54 -2.39214 1.65 0
M  V30 64176 H 6083.09 -1.58341 2.03189 0
M  V30 64177 H 6083.04 -2.97758 1.00932 0
M  V30 64178 N 6086.82 -1.57577 -0.0266666 0
M  V30 64179 C 6087.76 -2.07807 -1.04495 0
M  V30 64180 C 6088.76 -0.992357 -1.3729 0
M  V30 64181 O 6089.96 -1.17722 -1.36167 0
M  V30 64182 H 6086.34 -0.663188 -0.354522 0
M  V30 64183 H 6088.31 -2.92397 -0.595523 0
M  V30 64184 C 6087.06 -2.57486 -2.33658 0
M  V30 64185 H 6086.38 -3.40647 -2.09284 0
M  V30 64186 H 6087.82 -2.96339 -3.03248 0
M  V30 64187 C 6086.28 -1.47714 -3.0279 0
M  V30 64188 O 6086.81 -0.844749 -3.92717 0
M  V30 64189 N 6085.02 -1.2111 -2.64161 0
M  V30 64190 H 6084.56 -1.72719 -1.91117 0
M  V30 64191 H 6084.52 -0.478769 -3.10733 0
M  V30 64192 N 6088.29 0.29898 -1.54738 0
M  V30 64193 C 6089.2 1.39134 -1.88889 0
M  V30 64194 C 6090.22 1.55374 -0.783258 0
M  V30 64195 O 6091.4 1.7 -1.07991 0
M  V30 64196 C 6088.46 2.73479 -2.13096 0
M  V30 64197 C 6087.52 2.66207 -3.36797 0
M  V30 64198 C 6086.75 3.94145 -3.5984 0
M  V30 64199 O 6086.98 4.936 -2.85858 0
M  V30 64200 O 6085.91 3.95917 -4.53358 0
M  V30 64201 H 6089.74 1.13174 -2.81825 0
M  V30 64202 H 6087.32 0.495221 -1.40954 0
M  V30 64203 H 6089.2 3.52962 -2.30208 0
M  V30 64204 H 6087.88 2.99278 -1.23346 0
M  V30 64205 H 6086.79 1.85189 -3.25047 0
M  V30 64206 H 6088.12 2.45361 -4.26684 0
M  V30 64207 N 6089.77 1.47229 0.56227 0
M  V30 64208 C 6090.7 1.6221 1.67959 0
M  V30 64209 C 6091.68 0.471695 1.63429 0
M  V30 64210 O 6092.87 0.700424 1.81129 0
M  V30 64211 C 6090 1.63138 3.06599 0
M  V30 64212 C 6088.95 2.77354 3.25973 0
M  V30 64213 C 6088.28 2.63353 4.65349 0
M  V30 64214 C 6089.58 4.18994 3.11835 0
M  V30 64215 H 6091.27 2.55744 1.55677 0
M  V30 64216 H 6088.82 1.23078 0.747517 0
M  V30 64217 H 6090.77 1.7221 3.84606 0
M  V30 64218 H 6089.5 0.661613 3.19828 0
M  V30 64219 H 6088.15 2.67785 2.50373 0
M  V30 64220 H 6087.8 1.64415 4.7537 0
M  V30 64221 H 6087.5 3.39974 4.79261 0
M  V30 64222 H 6089.03 2.74346 5.45497 0
M  V30 64223 H 6090.44 4.29567 3.79664 0
M  V30 64224 H 6088.84 4.96363 3.3726 0
M  V30 64225 H 6089.91 4.37716 2.08645 0
M  V30 64226 N 6091.25 -0.808591 1.35276 0
M  V30 64227 C 6092.48 -1.60214 1.31705 0
M  V30 64228 C 6092.9 -1.87816 -0.10332 0
M  V30 64229 O 6092.26 -1.46393 -1.06952 0
M  V30 64230 C 6092.31 -2.91153 2.1275 0
M  V30 64231 O 6091.41 -3.83886 1.50684 0
M  V30 64232 H 6090.75 -0.486726 0.451657 0
M  V30 64233 H 6093.28 -1.00372 1.78288 0
M  V30 64234 H 6093.29 -3.40595 2.24632 0
M  V30 64235 H 6091.97 -2.70388 3.16011 0
M  V30 64236 H 6090.54 -3.42432 1.4763 0
M  V30 64237 N 6092.73 -1.1924 -1.03051 0
M  V30 64238 C 6094.14 -0.996624 -1.57874 0
M  V30 64239 C 6094.49 0.45092 -1.90948 0
M  V30 64240 O 6093.62 1.33003 -1.70702 0
M  V30 64241 C 6094.21 -1.80282 -2.86852 0
M  V30 64242 C 6092.77 -1.65109 -3.38254 0
M  V30 64243 C 6091.92 -1.79087 -2.11715 0
M  V30 64244 H 6094.87 -1.33636 -0.85599 0
M  V30 64245 H 6094.89 -1.29793 -3.57679 0
M  V30 64246 H 6094.4 -2.8563 -2.62749 0
M  V30 64247 H 6092.5 -0.623396 -3.67348 0
M  V30 64248 H 6092.61 -2.45542 -4.11395 0
M  V30 64249 H 6090.98 -1.22132 -2.23508 0
M  V30 64250 H 6091.76 -2.85891 -1.90055 0
M  V30 64251 N 6094.21 1.22132 -0.996063 0
M  V30 64252 C 6095.45 1.91248 -0.674699 0
M  V30 64253 C 6095.79 1.77334 0.791593 0
M  V30 64254 O 6095.06 1.14424 1.57281 0
M  V30 64255 C 6095.34 3.43355 -1.08533 0
M  V30 64256 C 6095.2 3.66303 -2.61041 0
M  V30 64257 C 6096.52 4.35408 -0.640948 0
M  V30 64258 H 6093.63 0.694525 -0.246584 0
M  V30 64259 H 6096.28 1.43945 -1.24015 0
M  V30 64260 H 6094.43 3.83773 -0.604206 0
M  V30 64261 H 6096.1 3.35269 -3.16847 0
M  V30 64262 H 6094.34 3.10475 -3.02965 0
M  V30 64263 H 6095.01 4.72842 -2.84824 0
M  V30 64264 H 6097.49 4.02523 -1.05425 0
M  V30 64265 H 6096.36 5.40501 -0.956527 0
M  V30 64266 H 6096.63 4.39718 0.458266 0
M  V30 64267 N 6095.68 0.76966 1.37528 0
M  V30 64268 C 6096.65 0.160796 2.28635 0
M  V30 64269 C 6097.65 -0.63031 1.47932 0
M  V30 64270 O 6098.84 -0.454206 1.68174 0
M  V30 64271 C 6095.97 -0.779787 3.31862 0
M  V30 64272 H 6097.16 0.963894 2.83988 0
M  V30 64273 H 6094.72 0.53773 1.46759 0
M  V30 64274 H 6095.45 -1.60797 2.81629 0
M  V30 64275 H 6095.24 -0.214712 3.91512 0
M  V30 64276 H 6096.73 -1.20129 3.99949 0
M  V30 64277 N 6097.16 -1.48773 0.520029 0
M  V30 64278 C 6098.09 -2.32293 -0.237132 0
M  V30 64279 C 6099.07 -1.41463 -0.944575 0
M  V30 64280 O 6100.26 -1.70358 -0.932289 0
M  V30 64281 C 6097.39 -3.22431 -1.29056 0
M  V30 64282 C 6096.34 -4.22206 -0.701863 0
M  V30 64283 C 6095.67 -5.0141 -1.85722 0
M  V30 64284 C 6096.97 -5.2132 0.31981 0
M  V30 64285 H 6098.66 -2.95844 0.460053 0
M  V30 64286 H 6096.21 -1.42268 0.222691 0
M  V30 64287 H 6098.16 -3.79681 -1.82813 0
M  V30 64288 H 6096.89 -2.5686 -2.01719 0
M  V30 64289 H 6095.54 -3.66128 -0.185899 0
M  V30 64290 H 6095.19 -4.32271 -2.57199 0
M  V30 64291 H 6094.89 -5.68934 -1.46929 0
M  V30 64292 H 6096.42 -5.61509 -2.39875 0
M  V30 64293 H 6097.83 -5.73152 -0.130303 0
M  V30 64294 H 6096.23 -5.96841 0.624587 0
M  V30 64295 H 6097.3 -4.69064 1.22909 0
M  V30 64296 N 6098.64 -0.254703 -1.55528 0
M  V30 64297 C 6100.06 0.0999627 -1.59287 0
M  V30 64298 C 6100.26 1.56285 -1.2719 0
M  V30 64299 O 6099.31 2.3085 -1.02296 0
M  V30 64300 C 6100.63 -0.256263 -2.99606 0
M  V30 64301 C 6102.17 -0.201201 -3.12353 0
M  V30 64302 C 6102.65 -0.531571 -4.54905 0
M  V30 64303 N 6104.14 -0.482361 -4.60682 0
M  V30 64304 C 6104.87 -0.711048 -5.68974 0
M  V30 64305 N 6104.37 -1.00328 -6.85497 0
M  V30 64306 N 6106.16 -0.641226 -5.58431 0
M  V30 64307 H 6098.31 -1.20862 -1.7466 0
M  V30 64308 H 6100.58 -0.486853 -0.813436 0
M  V30 64309 H 6100.28 -1.27287 -3.27858 0
M  V30 64310 H 6100.16 0.412863 -3.74934 0
M  V30 64311 H 6102.54 0.806089 -2.83877 0
M  V30 64312 H 6102.63 -0.90429 -2.39283 0
M  V30 64313 H 6102.27 -1.53645 -4.84103 0
M  V30 64314 H 6102.2 0.193084 -5.26246 0
M  V30 64315 H 6104.69 -0.265542 -3.76966 0
M  V30 64316 H 6105 -1.16499 -7.63969 0
M  V30 64317 H 6103.35 -1.04083 -6.87162 0
M  V30 64318 H 6106.54 -0.412915 -4.66275 0
M  V30 64319 H 6106.71 -0.822843 -6.42754 0
M  V30 64320 N 6100.12 1.57589 0.0183095 0
M  V30 64321 C 6101.05 2.04075 1.04336 0
M  V30 64322 C 6102.06 0.955412 1.31817 0
M  V30 64323 O 6103.25 1.23254 1.29115 0
M  V30 64324 C 6100.35 2.4102 2.38249 0
M  V30 64325 C 6099.53 3.72065 2.29971 0
M  V30 64326 C 6098.58 3.96079 3.46421 0
M  V30 64327 O 6097.61 4.66994 3.25431 0
M  V30 64328 N 6098.81 3.42551 4.68657 0
M  V30 64329 H 6101.58 2.92631 0.647065 0
M  V30 64330 H 6099.14 1.60583 0.206053 0
M  V30 64331 H 6101.13 2.54214 3.14893 0
M  V30 64332 H 6099.7 1.58078 2.69685 0
M  V30 64333 H 6098.92 3.69122 1.38356 0
M  V30 64334 H 6100.21 4.58011 2.21594 0
M  V30 64335 H 6099.61 2.85091 4.8861 0
M  V30 64336 H 6098.16 3.61106 5.42628 0
M  V30 64337 N 6101.6 -0.29077 1.54894 0
M  V30 64338 C 6102.53 -1.38387 1.8145 0
M  V30 64339 C 6103.51 -1.4832 0.666335 0
M  V30 64340 O 6104.69 -1.65222 0.907412 0
M  V30 64341 C 6101.82 -2.76204 1.96034 0
M  V30 64342 C 6100.86 -2.83644 3.18509 0
M  V30 64343 S 6101.7 -2.44696 4.76324 0
M  V30 64344 C 6102.85 -3.84522 4.93856 0
M  V30 64345 H 6103.09 -1.15654 2.73882 0
M  V30 64346 H 6100.62 -0.489444 1.46437 0
M  V30 64347 H 6102.58 -3.55578 2.05121 0
M  V30 64348 H 6101.24 -2.96199 1.04522 0
M  V30 64349 H 6100.43 -3.84754 3.25546 0
M  V30 64350 H 6100.03 -2.12274 3.07921 0
M  V30 64351 H 6102.33 -4.79622 4.78507 0
M  V30 64352 H 6103.27 -3.82448 5.95935 0
M  V30 64353 H 6103.68 -3.74999 4.21943 0
M  V30 64354 N 6103.07 -1.47525 -0.554454 0
M  V30 64355 C 6104.3 -1.58159 -1.34166 0
M  V30 64356 C 6104.72 -0.23319 -1.86649 0
M  V30 64357 O 6104.08 0.791381 -1.63116 0
M  V30 64358 C 6104.13 -2.6125 -2.48557 0
M  V30 64359 O 6103.23 -2.16712 -3.5087 0
M  V30 64360 H 6102.58 -0.531198 -0.398402 0
M  V30 64361 H 6105.11 -1.93327 -0.669773 0
M  V30 64362 H 6105.12 -2.81757 -2.95088 0
M  V30 64363 H 6103.79 -3.59155 -2.09715 0
M  V30 64364 H 6102.37 -2.06316 -3.10625 0
M  V30 64365 N 6104.55 0.801406 -1.35703 0
M  V30 64366 C 6105.79 1.57206 -1.30635 0
M  V30 64367 C 6106.16 1.91647 0.116382 0
M  V30 64368 O 6107.36 2.67215 0.291484 0
M  V30 64369 C 6105.63 2.82267 -2.19226 0
M  V30 64370 S 6107.19 3.72624 -2.31725 0
M  V30 64371 H 6104.01 0.53857 -0.46418 0
M  V30 64372 H 6106.61 0.944901 -1.71149 0
M  V30 64373 H 6105.31 2.54997 -3.21566 0
M  V30 64374 H 6104.84 3.49965 -1.79689 0
M  V30 64375 H 6106.86 4.72797 -1.50589 0
M  V30 64376 N 6106.03 1.19785 1.02417 0
M  V30 64377 C 6106.99 0.941705 2.08961 0
M  V30 64378 C 6107.99 -0.0797182 1.60602 0
M  V30 64379 O 6109.18 0.155534 1.73504 0
M  V30 64380 C 6106.32 0.416233 3.38349 0
M  V30 64381 H 6107.51 1.88669 2.33118 0
M  V30 64382 H 6105.06 1.01217 1.191 0
M  V30 64383 H 6105.8 -0.534578 3.19864 0
M  V30 64384 H 6105.58 1.15275 3.74772 0
M  V30 64385 H 6107.07 0.256261 4.16813 0
M  V30 64386 N 6107.51 -1.21603 1.00253 0
M  V30 64387 C 6108.47 -2.22105 0.565851 0
M  V30 64388 C 6109.47 -1.56799 -0.356466 0
M  V30 64389 O 6110.66 -1.73578 -0.147093 0
M  V30 64390 C 6107.79 -3.40447 -0.175622 0
M  V30 64391 H 6108.99 -2.62253 1.45477 0
M  V30 64392 H 6106.54 -1.3482 0.790769 0
M  V30 64393 H 6107.28 -3.05785 -1.08009 0
M  V30 64394 H 6107.06 -3.89067 0.486749 0
M  V30 64395 H 6108.55 -4.14958 -0.468976 0
M  V30 64396 N 6108.99 -0.776943 -1.37118 0
M  V30 64397 C 6110.24 -0.342946 -1.99169 0
M  V30 64398 C 6110.56 1.08569 -1.61981 0
M  V30 64399 O 6109.83 1.7463 -0.88775 0
M  V30 64400 H 6108.41 -0.123814 -0.736668 0
M  V30 64401 H 6111.07 -0.996221 -1.67515 0
M  V30 64402 H 6110.16 -0.424745 -3.09196 0
M  V30 64403 N 6110.47 1.48495 -0.527912 0
M  V30 64404 C 6111.69 2.069 0.0029532 0
M  V30 64405 C 6112.11 1.38473 1.28338 0
M  V30 64406 O 6111.47 0.471586 1.76302 0
M  V30 64407 C 6111.52 3.6075 0.232744 0
M  V30 64408 O 6111.24 4.26606 -0.996946 0
M  V30 64409 C 6112.74 4.35944 0.804222 0
M  V30 64410 H 6109.96 0.670209 -0.0325794 0
M  V30 64411 H 6112.5 1.90913 -0.732965 0
M  V30 64412 H 6110.66 3.76349 0.918705 0
M  V30 64413 H 6111.07 5.18722 -0.7764 0
M  V30 64414 H 6112.55 5.44373 0.914444 0
M  V30 64415 H 6113.02 4.00232 1.80862 0
M  V30 64416 H 6113.63 4.25018 0.154891 0
M  V30 64417 N 6111.94 0.262948 1.55391 0
M  V30 64418 C 6113.17 -0.360986 2.03727 0
M  V30 64419 C 6113.59 -1.50366 1.14173 0
M  V30 64420 O 6112.94 -1.81803 0.159348 0
M  V30 64421 C 6112.99 -0.853574 3.51278 0
M  V30 64422 O 6112.72 0.243585 4.37422 0
M  V30 64423 C 6114.22 -1.54657 4.15447 0
M  V30 64424 H 6111.44 -0.0839038 0.665734 0
M  V30 64425 H 6113.98 0.391495 2.00718 0
M  V30 64426 H 6112.14 -1.55618 3.5477 0
M  V30 64427 H 6112.55 -0.133057 5.24331 0
M  V30 64428 H 6114.02 -1.84278 5.20332 0
M  V30 64429 H 6114.5 -2.474 3.62891 0
M  V30 64430 H 6115.11 -0.888123 4.15924 0
M  V30 64431 N 6113.42 -1.57597 -0.00995191 0
M  V30 64432 C 6114.35 -2.04625 -1.03252 0
M  V30 64433 C 6115.37 -0.962389 -1.31308 0
M  V30 64434 O 6116.56 -1.23937 -1.2846 0
M  V30 64435 C 6113.66 -2.4228 -2.36968 0
M  V30 64436 C 6112.83 -3.73279 -2.27995 0
M  V30 64437 C 6111.89 -3.97911 -3.44316 0
M  V30 64438 O 6110.91 -4.68713 -3.2295 0
M  V30 64439 N 6112.12 -3.45032 -4.66833 0
M  V30 64440 H 6114.88 -2.9297 -0.631537 0
M  V30 64441 H 6112.44 -1.6069 -0.197534 0
M  V30 64442 H 6114.43 -2.5588 -3.1354 0
M  V30 64443 H 6113 -1.59506 -2.68843 0
M  V30 64444 H 6112.22 -3.69851 -1.36397 0
M  V30 64445 H 6113.51 -4.59179 -2.19161 0
M  V30 64446 H 6112.91 -2.87678 -4.87091 0
M  V30 64447 H 6111.47 -3.63979 -5.40706 0
M  V30 64448 N 6114.9 0.282551 -1.55046 0
M  V30 64449 C 6116.13 1.03389 -1.79216 0
M  V30 64450 C 6116.54 1.80282 -0.560715 0
M  V30 64451 O 6115.9 1.76344 0.469987 0
M  V30 64452 C 6115.95 1.99999 -3.01135 0
M  V30 64453 O 6115.67 1.26223 -4.19523 0
M  V30 64454 C 6117.17 2.87023 -3.37835 0
M  V30 64455 H 6114.39 0.305834 -0.597249 0
M  V30 64456 H 6116.94 0.316229 -2.0204 0
M  V30 64457 H 6115.09 2.67241 -2.80465 0
M  V30 64458 H 6115.51 1.9126 -4.88385 0
M  V30 64459 H 6116.98 3.50627 -4.26339 0
M  V30 64460 H 6117.46 3.56294 -2.5681 0
M  V30 64461 H 6118.06 2.25286 -3.60731 0
M  V30 64462 N 6116.38 1.47817 0.546623 0
M  V30 64463 C 6117.34 1.60636 1.63489 0
M  V30 64464 C 6118.34 0.480715 1.53446 0
M  V30 64465 O 6119.53 0.746073 1.57415 0
M  V30 64466 C 6116.66 1.56087 3.03067 0
M  V30 64467 H 6117.86 2.57657 1.53469 0
M  V30 64468 H 6115.41 1.36165 0.767385 0
M  V30 64469 H 6116.14 0.604806 3.1861 0
M  V30 64470 H 6115.93 2.37791 3.11766 0
M  V30 64471 H 6117.42 1.68217 3.82221 0
M  V30 64472 N 6117.86 -0.794198 1.36126 0
M  V30 64473 C 6119.1 -1.56511 1.31467 0
M  V30 64474 C 6119.46 -1.91706 -0.106217 0
M  V30 64475 O 6120.66 -2.67366 -0.277309 0
M  V30 64476 C 6118.93 -2.81101 2.2072 0
M  V30 64477 S 6120.49 -3.7139 2.33698 0
M  V30 64478 H 6117.31 -0.536101 0.46703 0
M  V30 64479 H 6119.91 -0.935811 1.71647 0
M  V30 64480 H 6118.61 -2.53288 3.22914 0
M  V30 64481 H 6118.15 -3.49007 1.81542 0
M  V30 64482 H 6120.16 -4.71992 1.53094 0
M  V30 64483 N 6119.33 -1.20327 -1.0178 0
M  V30 64484 C 6120.56 -1.03828 -1.78962 0
M  V30 64485 C 6120.98 0.412557 -1.84237 0
M  V30 64486 O 6120.33 1.28646 -1.29447 0
M  V30 64487 C 6120.39 -1.61363 -3.23487 0
M  V30 64488 O 6120.11 -3.00769 -3.18543 0
M  V30 64489 C 6121.61 -1.498 -4.17223 0
M  V30 64490 H 6118.83 -0.365311 -0.56284 0
M  V30 64491 H 6121.37 -1.59387 -1.28125 0
M  V30 64492 H 6119.53 -1.09926 -3.71477 0
M  V30 64493 H 6119.94 -3.28048 -4.09249 0
M  V30 64494 H 6121.41 -1.94821 -5.16477 0
M  V30 64495 H 6121.89 -0.450296 -4.36886 0
M  V30 64496 H 6122.5 -2.00422 -3.75115 0
M  V30 64497 N 6120.81 1.21069 -1.00896 0
M  V30 64498 C 6122.09 1.85869 -0.609279 0
M  V30 64499 C 6122.47 1.90337 0.912956 0
M  V30 64500 O 6121.82 1.40559 1.80154 0
M  V30 64501 C 6122.03 3.25914 -1.24824 0
M  V30 64502 C 6123.38 4.02269 -1.35886 0
M  V30 64503 O 6124.4 3.3524 -1.20386 0
M  V30 64504 O 6123.26 5.22291 -1.60856 0
M  V30 64505 H 6120.35 0.800098 -0.209218 0
M  V30 64506 H 6122.9 1.2872 -1.10586 0
M  V30 64507 H 6121.67 3.17384 -2.28873 0
M  V30 64508 H 6121.29 3.90686 -0.738261 0
M  V30 64509 N 6122.29 0.784204 1.36704 0
M  V30 64510 C 6123.57 0.278406 1.93609 0
M  V30 64511 C 6123.95 -1.22859 1.71665 0
M  V30 64512 O 6123.3 -2.01762 1.07259 0
M  V30 64513 C 6123.51 0.665353 3.42599 0
M  V30 64514 C 6124.85 0.642152 4.19716 0
M  V30 64515 O 6125.88 0.605505 3.51016 0
M  V30 64516 O 6124.74 0.680369 5.42248 0
M  V30 64517 H 6121.83 0.0675893 0.824233 0
M  V30 64518 H 6124.38 0.866396 1.45917 0
M  V30 64519 H 6123.15 1.70491 3.52205 0
M  V30 64520 H 6122.77 0.0509693 3.97567 0
M  V30 64521 N 6123.77 -1.48213 0.535779 0
M  V30 64522 C 6124.72 -2.31388 -0.237128 0
M  V30 64523 C 6125.71 -1.41592 -0.929945 0
M  V30 64524 O 6126.92 -1.58469 -0.853669 0
M  V30 64525 H 6123.29 -0.745932 -0.09534 0
M  V30 64526 H 6125.26 -2.94451 0.483876 0
M  V30 64527 C 6124.01 -3.23776 -1.26746 0
M  V30 64528 H 6123.33 -3.92821 -0.743764 0
M  V30 64529 H 6124.77 -3.84847 -1.77956 0
M  V30 64530 C 6123.23 -2.45787 -2.30413 0
M  V30 64531 O 6123.76 -2.18685 -3.36957 0
M  V30 64532 N 6121.97 -2.07178 -2.03778 0
M  V30 64533 H 6121.52 -2.2942 -1.17151 0
M  V30 64534 H 6121.47 -1.5531 -2.73361 0
M  V30 64535 N 6125.25 -0.271185 -1.55249 0
M  V30 64536 C 6126.21 0.604869 -2.21075 0
M  V30 64537 C 6127.21 1.08434 -1.18738 0
M  V30 64538 O 6128.4 0.985142 -1.43668 0
M  V30 64539 C 6125.53 1.83406 -2.87359 0
M  V30 64540 H 6126.72 0.0301927 -2.99885 0
M  V30 64541 H 6124.28 -0.0217754 -1.56285 0
M  V30 64542 H 6125.01 2.44934 -2.1255 0
M  V30 64543 H 6124.8 1.49821 -3.62348 0
M  V30 64544 H 6126.29 2.45712 -3.37661 0
M  V30 64545 N 6126.72 1.576 0.00159402 0
M  V30 64546 C 6127.65 2.11358 0.99248 0
M  V30 64547 C 6128.64 1.02235 1.35949 0
M  V30 64548 O 6129.82 1.29909 1.44352 0
M  V30 64549 C 6126.95 2.61557 2.28485 0
M  V30 64550 C 6125.9 3.75192 2.05949 0
M  V30 64551 C 6125.23 4.117 3.41185 0
M  V30 64552 C 6126.53 5.02531 1.42337 0
M  V30 64553 H 6128.22 2.944 0.544883 0
M  V30 64554 H 6125.77 1.41621 0.260652 0
M  V30 64555 H 6127.72 2.97792 2.98157 0
M  V30 64556 H 6126.45 1.75634 2.75355 0
M  V30 64557 H 6125.11 3.39348 1.38703 0
M  V30 64558 H 6124.75 3.22803 3.85755 0
M  V30 64559 H 6124.45 4.88257 3.26923 0
M  V30 64560 H 6125.98 4.50492 4.12176 0
M  V30 64561 H 6127.39 5.36547 2.01965 0
M  V30 64562 H 6125.79 5.83883 1.38568 0
M  V30 64563 H 6126.86 4.8331 0.392395 0
M  V30 64564 N 6128.2 -0.274325 1.55194 0
M  V30 64565 C 6129.17 -1.3223 1.8721 0
M  V30 64566 C 6130.17 -1.42417 0.74659 0
M  V30 64567 O 6131.36 -1.41591 1.01477 0
M  V30 64568 C 6128.49 -2.70383 2.07619 0
M  V30 64569 H 6129.68 -1.05073 2.80891 0
M  V30 64570 H 6127.23 -0.512324 1.47665 0
M  V30 64571 H 6127.97 -3.02723 1.16316 0
M  V30 64572 H 6127.75 -2.64375 2.89565 0
M  V30 64573 H 6129.24 -3.46106 2.33668 0
M  V30 64574 N 6129.68 -1.48105 -0.538776 0
M  V30 64575 C 6130.91 -1.59089 -1.31811 0
M  V30 64576 C 6131.32 -0.246952 -1.87581 0
M  V30 64577 O 6130.66 0.772635 -1.66661 0
M  V30 64578 C 6130.72 -2.57111 -2.51265 0
M  V30 64579 C 6130.39 -4.02385 -2.16646 0
M  V30 64580 C 6131.38 -4.90329 -1.7284 0
M  V30 64581 C 6129.07 -4.47858 -2.27439 0
M  V30 64582 C 6131.06 -6.21772 -1.4028 0
M  V30 64583 C 6128.75 -5.79324 -1.94492 0
M  V30 64584 C 6129.75 -6.66103 -1.50982 0
M  V30 64585 O 6129.44 -7.95124 -1.18463 0
M  V30 64586 H 6129.17 -0.539419 -0.407435 0
M  V30 64587 H 6131.72 -1.94588 -0.657609 0
M  V30 64588 H 6129.95 -2.16716 -3.20267 0
M  V30 64589 H 6131.64 -2.58025 -3.13333 0
M  V30 64590 H 6132.41 -4.56438 -1.63979 0
M  V30 64591 H 6128.29 -3.80506 -2.60262 0
M  V30 64592 H 6131.83 -6.89462 -1.06247 0
M  V30 64593 H 6127.73 -6.12752 -2.02991 0
M  V30 64594 H 6128.5 -8.07796 -1.31936 0
M  V30 64595 N 6131.16 0.786968 -1.36545 0
M  V30 64596 C 6132.39 1.57355 -1.33877 0
M  V30 64597 C 6132.8 1.89025 0.0814181 0
M  V30 64598 O 6132.14 1.50775 1.04941 0
M  V30 64599 C 6132.2 2.91971 -2.09745 0
M  V30 64600 C 6131.87 2.83017 -3.58818 0
M  V30 64601 C 6132.86 2.55092 -4.53017 0
M  V30 64602 C 6130.55 3.01517 -4.01737 0
M  V30 64603 C 6132.54 2.45772 -5.88111 0
M  V30 64604 C 6130.23 2.91819 -5.36922 0
M  V30 64605 C 6131.23 2.63985 -6.29921 0
M  V30 64606 O 6130.91 2.54286 -7.62623 0
M  V30 64607 H 6130.65 0.494643 -0.460765 0
M  V30 64608 H 6133.2 0.984456 -1.80271 0
M  V30 64609 H 6131.43 3.52941 -1.58018 0
M  V30 64610 H 6133.12 3.53261 -1.99904 0
M  V30 64611 H 6133.89 2.405 -4.21171 0
M  V30 64612 H 6129.76 3.22188 -3.29721 0
M  V30 64613 H 6133.31 2.23967 -6.6067 0
M  V30 64614 H 6129.21 3.05975 -5.68374 0
M  V30 64615 H 6129.97 2.69749 -7.72773 0
M  V30 64616 N 6132.64 1.20865 1.01141 0
M  V30 64617 C 6133.58 0.95908 2.11907 0
M  V30 64618 C 6134.58 -0.0914143 1.69153 0
M  V30 64619 O 6135.78 0.0594076 1.79902 0
M  V30 64620 H 6132.16 0.29285 0.692635 0
M  V30 64621 H 6134.13 1.89945 2.30138 0
M  V30 64622 C 6132.88 0.533379 3.43585 0
M  V30 64623 H 6132.2 1.33332 3.76912 0
M  V30 64624 H 6133.64 0.398016 4.22128 0
M  V30 64625 C 6132.1 -0.754896 3.28334 0
M  V30 64626 O 6132.63 -1.81204 3.58508 0
M  V30 64627 N 6130.84 -0.718927 2.81567 0
M  V30 64628 H 6130.38 0.141635 2.5721 0
M  V30 64629 H 6130.34 -1.58122 2.71744 0
M  V30 64630 N 6134.12 -1.20532 1.01537 0
M  V30 64631 C 6135.06 -2.25308 0.577865 0
M  V30 64632 C 6136.06 -1.65019 -0.382785 0
M  V30 64633 O 6137.26 -1.78215 -0.252841 0
M  V30 64634 H 6133.64 -0.732866 0.168558 0
M  V30 64635 H 6135.61 -2.59538 1.47249 0
M  V30 64636 C 6134.36 -3.47631 -0.0693041 0
M  V30 64637 H 6133.68 -3.943 0.660886 0
M  V30 64638 H 6135.12 -4.22646 -0.338557 0
M  V30 64639 C 6133.58 -3.10314 -1.31174 0
M  V30 64640 O 6134.11 -3.21737 -2.40516 0
M  V30 64641 N 6132.32 -2.64875 -1.19538 0
M  V30 64642 H 6131.86 -2.5578 -0.305651 0
M  V30 64643 H 6131.82 -2.40277 -2.02766 0
M  V30 64644 N 6135.59 -0.791442 -1.36286 0
M  V30 64645 C 6136.82 -0.375638 -2.0397 0
M  V30 64646 C 6137.24 1.00056 -1.59281 0
M  V30 64647 O 6136.6 1.64498 -0.76224 0
M  V30 64648 C 6136.65 -0.450017 -3.57781 0
M  V30 64649 O 6135.75 0.542286 -4.08819 0
M  V30 64650 H 6135.09 -0.159203 -0.644632 0
M  V30 64651 H 6137.62 -1.07312 -1.74199 0
M  V30 64652 H 6137.63 -0.314349 -4.06787 0
M  V30 64653 H 6136.31 -1.4539 -3.89659 0
M  V30 64654 H 6134.89 0.368112 -3.71079 0
M  V30 64655 N 6137.07 1.47927 -0.543632 0
M  V30 64656 C 6138.02 2.29828 0.211625 0
M  V30 64657 C 6138.99 1.3822 0.921106 0
M  V30 64658 O 6140.17 1.67184 0.919464 0
M  V30 64659 C 6137.31 3.21893 1.24414 0
M  V30 64660 C 6136.43 4.28585 0.542113 0
M  V30 64661 C 6135.56 5.07816 1.55874 0
M  V30 64662 C 6134.6 6.06296 0.840933 0
M  V30 64663 N 6133.74 6.78535 1.80375 0
M  V30 64664 H 6138.58 2.93895 -0.492938 0
M  V30 64665 H 6136.11 1.44874 -0.254924 0
M  V30 64666 H 6138.07 3.73681 1.85522 0
M  V30 64667 H 6136.7 2.5972 1.91691 0
M  V30 64668 H 6135.75 3.79959 -0.183203 0
M  V30 64669 H 6137.07 4.98796 -0.0208457 0
M  V30 64670 H 6136.22 5.63686 2.24373 0
M  V30 64671 H 6134.96 4.37476 2.15561 0
M  V30 64672 H 6133.96 5.49617 0.141947 0
M  V30 64673 H 6135.19 6.7864 0.249994 0
M  V30 64674 H 6133.14 6.10935 2.38944 0
M  V30 64675 H 6133.05 7.44868 1.29258 0
M  V30 64676 H 6134.32 7.38987 2.4803 0
M  V30 64677 N 6138.55 0.279414 1.55103 0
M  V30 64678 C 6139.8 -0.335471 1.99296 0
M  V30 64679 C 6140.12 -1.56055 1.16927 0
M  V30 64680 O 6139.39 -1.94169 0.259841 0
M  V30 64681 H 6137.97 -0.126942 0.736135 0
M  V30 64682 H 6140.63 0.385746 1.91045 0
M  V30 64683 H 6139.73 -0.622385 3.05831 0
M  V30 64684 N 6140.03 -1.57599 0.00676391 0
M  V30 64685 C 6141.28 -1.90483 -0.675327 0
M  V30 64686 C 6141.6 -0.881543 -1.73936 0
M  V30 64687 O 6140.87 0.0801239 -1.95736 0
M  V30 64688 H 6139.45 -0.703057 -0.252428 0
M  V30 64689 H 6142.11 -1.94838 0.0492885 0
M  V30 64690 H 6141.2 -2.90445 -1.14229 0
M  V30 64691 N 6141.51 0.266091 -1.55337 0
M  V30 64692 C 6142.92 0.613641 -1.47332 0
M  V30 64693 C 6143.12 1.89204 -0.693105 0
M  V30 64694 O 6142.18 2.51585 -0.21473 0
M  V30 64695 C 6143.49 0.734185 -2.91599 0
M  V30 64696 C 6145.04 0.827784 -3.01855 0
M  V30 64697 C 6145.51 0.980048 -4.47391 0
M  V30 64698 N 6147 1.0454 -4.51249 0
M  V30 64699 C 6147.74 1.18214 -5.61082 0
M  V30 64700 N 6147.24 1.28563 -6.80767 0
M  V30 64701 N 6149.03 1.21378 -5.48838 0
M  V30 64702 H 6141.18 -0.573388 -2.04514 0
M  V30 64703 H 6143.44 -0.195161 -0.927694 0
M  V30 64704 H 6143.15 -0.134837 -3.51441 0
M  V30 64705 H 6143.02 1.61228 -3.41006 0
M  V30 64706 H 6145.41 1.68727 -2.42106 0
M  V30 64707 H 6145.49 -0.0750618 -2.5569 0
M  V30 64708 H 6145.13 0.125194 -5.07746 0
M  V30 64709 H 6145.06 1.89765 -4.9122 0
M  V30 64710 H 6147.56 0.977539 -3.65038 0
M  V30 64711 H 6147.87 1.3885 -7.60224 0
M  V30 64712 H 6146.21 1.25555 -6.83565 0
M  V30 64713 H 6149.4 1.12928 -4.54274 0
M  V30 64714 H 6149.58 1.31691 -6.34477 0
M  V30 64715 N 6142.98 1.48388 0.530914 0
M  V30 64716 C 6144.23 1.56358 1.28679 0
M  V30 64717 C 6144.56 0.237089 1.9305 0
M  V30 64718 O 6143.81 -0.772532 1.79807 0
M  V30 64719 C 6144.11 2.64988 2.39826 0
M  V30 64720 C 6143.78 4.07453 1.93114 0
M  V30 64721 C 6142.44 4.46229 1.80093 0
M  V30 64722 C 6144.79 4.96737 1.57803 0
M  V30 64723 C 6142.12 5.72095 1.30093 0
M  V30 64724 C 6144.47 6.23092 1.09266 0
M  V30 64725 C 6143.14 6.60725 0.948603 0
M  V30 64726 H 6142.41 0.572155 0.470871 0
M  V30 64727 H 6145.05 1.82101 0.592562 0
M  V30 64728 H 6143.36 2.33101 3.14915 0
M  V30 64729 H 6145.06 2.6837 2.97957 0
M  V30 64730 H 6141.65 3.76829 2.042 0
M  V30 64731 H 6145.83 4.67458 1.66723 0
M  V30 64732 H 6141.09 5.99978 1.17626 0
M  V30 64733 H 6145.26 6.91672 0.810133 0
M  V30 64734 H 6142.89 7.58142 0.558968 0
M  V30 64735 N 6144.46 -0.779715 1.36961 0
M  V30 64736 C 6145.71 -1.54026 1.31924 0
M  V30 64737 C 6146.04 -1.9395 -0.0985004 0
M  V30 64738 O 6145.32 -1.63461 -1.05407 0
M  V30 64739 C 6145.6 -2.81075 2.25098 0
M  V30 64740 C 6145.45 -2.47456 3.75614 0
M  V30 64741 C 6146.77 -3.8296 2.16863 0
M  V30 64742 H 6143.89 -0.558789 0.480545 0
M  V30 64743 H 6146.53 -0.895093 1.67595 0
M  V30 64744 H 6144.68 -3.36128 1.94808 0
M  V30 64745 H 6146.35 -1.98378 4.16466 0
M  V30 64746 H 6144.6 -1.80262 3.94573 0
M  V30 64747 H 6145.27 -3.3824 4.36232 0
M  V30 64748 H 6147.74 -3.37379 2.43546 0
M  V30 64749 H 6146.62 -4.69591 2.84211 0
M  V30 64750 H 6146.88 -4.26638 1.159 0
M  V30 64751 N 6145.94 -1.21399 -1.00498 0
M  V30 64752 C 6146.87 -0.997343 -2.11129 0
M  V30 64753 C 6147.85 0.0776858 -1.69923 0
M  V30 64754 O 6149.04 -0.0821482 -1.94026 0
M  V30 64755 C 6146.17 -0.561243 -3.42735 0
M  V30 64756 C 6145.12 -1.58083 -3.97736 0
M  V30 64757 C 6144.45 -1.00097 -5.25247 0
M  V30 64758 C 6145.75 -2.96769 -4.29797 0
M  V30 64759 H 6147.44 -1.92263 -2.29511 0
M  V30 64760 H 6144.99 -0.925815 -1.10294 0
M  V30 64761 H 6146.94 -0.396848 -4.19527 0
M  V30 64762 H 6145.66 0.39969 -3.24145 0
M  V30 64763 H 6144.32 -1.73279 -3.23063 0
M  V30 64764 H 6143.97 -0.0317565 -5.0299 0
M  V30 64765 H 6143.67 -1.68202 -5.63011 0
M  V30 64766 H 6145.19 -0.847899 -6.04684 0
M  V30 64767 H 6146.61 -2.85017 -4.97431 0
M  V30 64768 H 6145 -3.61888 -4.78704 0
M  V30 64769 H 6146.07 -3.47614 -3.38072 0
M  V30 64770 N 6147.42 1.19992 -1.02175 0
M  V30 64771 C 6148.38 2.21177 -0.601114 0
M  V30 64772 C 6149.38 1.57346 0.331476 0
M  V30 64773 O 6150.57 1.7379 0.11946 0
M  V30 64774 C 6147.7 3.40684 0.121438 0
M  V30 64775 H 6148.9 2.59905 -1.49631 0
M  V30 64776 H 6146.45 1.33545 -0.812118 0
M  V30 64777 H 6147.18 3.07465 1.03131 0
M  V30 64778 H 6146.97 3.88243 -0.548584 0
M  V30 64779 H 6148.46 4.15652 0.4029 0
M  V30 64780 N 6148.9 0.798659 1.35865 0
M  V30 64781 C 6149.83 0.217833 2.32482 0
M  V30 64782 C 6150.81 -0.652319 1.57095 0
M  V30 64783 O 6151.99 -0.584232 1.85204 0
M  V30 64784 C 6149.12 -0.640805 3.41337 0
M  V30 64785 C 6148.08 0.130204 4.27802 0
M  V30 64786 C 6147.4 -0.849625 5.27907 0
M  V30 64787 C 6148.7 1.32468 5.05222 0
M  V30 64788 H 6150.4 1.02502 2.81307 0
M  V30 64789 H 6147.94 0.494349 1.35249 0
M  V30 64790 H 6149.9 -1.05715 4.07924 0
M  V30 64791 H 6148.62 -1.4808 2.91101 0
M  V30 64792 H 6147.28 0.527627 3.62783 0
M  V30 64793 H 6146.93 -1.6849 4.73941 0
M  V30 64794 H 6146.63 -0.338117 5.86626 0
M  V30 64795 H 6148.15 -1.26434 5.97367 0
M  V30 64796 H 6149.56 0.983628 5.64799 0
M  V30 64797 H 6147.96 1.77013 5.73399 0
M  V30 64798 H 6149.03 2.11537 4.36326 0
M  V30 64799 N 6150.37 -1.47637 0.551469 0
M  V30 64800 C 6151.3 -2.32744 -0.187805 0
M  V30 64801 C 6152.29 -1.43435 -0.914356 0
M  V30 64802 O 6153.47 -1.72298 -0.895944 0
M  V30 64803 C 6150.6 -3.25096 -1.22188 0
M  V30 64804 C 6149.55 -4.236 -0.612149 0
M  V30 64805 C 6148.88 -5.05236 -1.75044 0
M  V30 64806 C 6150.18 -5.20524 0.430317 0
M  V30 64807 H 6151.87 -2.94802 0.522702 0
M  V30 64808 H 6149.42 -1.41763 0.252818 0
M  V30 64809 H 6151.37 -3.83473 -1.74718 0
M  V30 64810 H 6150.1 -2.61081 -1.96225 0
M  V30 64811 H 6148.76 -3.6644 -0.108196 0
M  V30 64812 H 6148.4 -4.37629 -2.47972 0
M  V30 64813 H 6148.1 -5.71922 -1.34828 0
M  V30 64814 H 6149.63 -5.66471 -2.27911 0
M  V30 64815 H 6151.04 -5.73299 -0.00870014 0
M  V30 64816 H 6149.44 -5.95382 0.751046 0
M  V30 64817 H 6150.51 -4.66352 1.32831 0
M  V30 64818 N 6151.85 -0.287636 -1.54953 0
M  V30 64819 C 6153.08 0.33137 -2.04736 0
M  V30 64820 C 6153.5 1.47748 -1.16414 0
M  V30 64821 O 6152.86 1.80544 -0.16536 0
M  V30 64822 C 6152.91 0.777999 -3.52107 0
M  V30 64823 O 6152.01 1.88409 -3.66846 0
M  V30 64824 H 6151.35 0.0665941 -0.660652 0
M  V30 64825 H 6153.88 -0.425586 -2.00125 0
M  V30 64826 H 6153.89 1.07041 -3.93708 0
M  V30 64827 H 6152.57 -0.0604646 -4.15856 0
M  V30 64828 H 6151.15 1.59326 -3.37149 0
M  V30 64829 N 6153.33 1.57593 -0.0151216 0
M  V30 64830 C 6154.61 1.82476 0.70441 0
M  V30 64831 C 6154.99 0.896085 1.91137 0
M  V30 64832 O 6154.34 -0.0516562 2.28442 0
M  V30 64833 C 6154.55 3.31348 1.09587 0
M  V30 64834 C 6155.89 3.97471 1.49339 0
M  V30 64835 O 6156.92 3.35761 1.18924 0
M  V30 64836 O 6155.78 5.06206 2.05954 0
M  V30 64837 H 6152.87 0.75192 0.344305 0
M  V30 64838 H 6155.42 1.69649 -0.0417337 0
M  V30 64839 H 6154.19 3.90586 0.236221 0
M  V30 64840 H 6153.81 3.4923 1.90063 0
M  V30 64841 N 6154.81 -0.257849 1.55476 0
M  V30 64842 C 6155.76 -1.32169 1.85783 0
M  V30 64843 C 6156.74 -1.44 0.717839 0
M  V30 64844 O 6157.93 -1.47425 0.979528 0
M  V30 64845 C 6155.06 -2.67921 2.14647 0
M  V30 64846 C 6154.15 -2.6014 3.34945 0
M  V30 64847 N 6154.54 -2.21984 4.54485 0
M  V30 64848 C 6152.84 -2.91174 3.37837 0
M  V30 64849 C 6153.54 -2.24567 5.36605 0
M  V30 64850 N 6152.52 -2.63639 4.7539 0
M  V30 64851 H 6156.32 -1.01702 2.75743 0
M  V30 64852 H 6153.83 -0.466485 1.55556 0
M  V30 64853 H 6155.83 -3.44682 2.3452 0
M  V30 64854 H 6154.49 -2.99264 1.2598 0
M  V30 64855 H 6155.5 -1.93709 4.80309 0
M  V30 64856 H 6152.18 -3.27129 2.59408 0
M  V30 64857 H 6153.57 -1.975 6.42218 0
M  V30 64858 N 6156.29 -1.48668 -0.523038 0
M  V30 64859 C 6157.22 -1.59802 -1.64305 0
M  V30 64860 C 6158.23 -0.481891 -1.55505 0
M  V30 64861 O 6159.42 -0.753033 -1.61838 0
M  V30 64862 C 6156.52 -1.5182 -3.02991 0
M  V30 64863 C 6155.69 -2.78591 -3.37203 0
M  V30 64864 C 6154.75 -2.63968 -4.552 0
M  V30 64865 O 6153.78 -3.37868 -4.58077 0
M  V30 64866 N 6154.98 -1.74046 -5.53795 0
M  V30 64867 H 6157.75 -2.56392 -1.55188 0
M  V30 64868 H 6155.31 -1.45479 -0.71046 0
M  V30 64869 H 6157.3 -1.39722 -3.79815 0
M  V30 64870 H 6155.87 -0.631772 -3.06149 0
M  V30 64871 H 6155.09 -3.05203 -2.49489 0
M  V30 64872 H 6156.38 -3.6268 -3.56848 0
M  V30 64873 H 6155.77 -1.13221 -5.54254 0
M  V30 64874 H 6154.33 -1.67883 -6.29808 0
M  V30 64875 N 6157.76 0.772441 -1.37372 0
M  V30 64876 C 6159.04 1.52024 -1.23077 0
M  V30 64877 C 6159.42 2.10366 0.175937 0
M  V30 64878 O 6158.77 1.95463 1.18349 0
M  V30 64879 C 6158.98 2.60168 -2.32623 0
M  V30 64880 C 6160.33 3.2759 -2.7013 0
M  V30 64881 O 6161.35 2.70462 -2.31794 0
M  V30 64882 O 6160.21 4.30871 -3.36173 0
M  V30 64883 H 6157.3 0.673289 -0.48022 0
M  V30 64884 H 6159.85 0.809466 -1.4915 0
M  V30 64885 H 6158.62 2.15173 -3.26828 0
M  V30 64886 H 6158.25 3.38847 -2.0801 0
M  V30 64887 N 6159.24 1.21931 0.998532 0
M  V30 64888 C 6160.17 1.00853 2.10597 0
M  V30 64889 C 6161.15 -0.0686733 1.69961 0
M  V30 64890 O 6162.34 0.0924368 1.9398 0
M  V30 64891 C 6159.47 0.579411 3.42433 0
M  V30 64892 C 6158.42 1.6019 3.96892 0
M  V30 64893 C 6157.75 1.02881 5.24709 0
M  V30 64894 C 6159.05 2.99045 4.28217 0
M  V30 64895 H 6160.74 1.93477 2.28488 0
M  V30 64896 H 6158.29 0.931651 1.09801 0
M  V30 64897 H 6160.24 0.419091 4.19311 0
M  V30 64898 H 6158.97 -0.382494 3.24352 0
M  V30 64899 H 6157.62 1.7499 3.2214 0
M  V30 64900 H 6157.27 0.0584309 5.02966 0
M  V30 64901 H 6156.97 1.71185 5.62111 0
M  V30 64902 H 6158.5 0.879955 6.04226 0
M  V30 64903 H 6159.91 2.87651 4.95913 0
M  V30 64904 H 6158.31 3.64421 4.76778 0
M  V30 64905 H 6159.38 3.49402 3.36224 0
M  V30 64906 N 6160.72 -1.19449 1.02809 0
M  V30 64907 C 6161.67 -2.22642 0.608212 0
M  V30 64908 C 6162.64 -1.61751 -0.377582 0
M  V30 64909 O 6163.82 -1.88816 -0.274421 0
M  V30 64910 C 6160.96 -3.45082 -0.0356376 0
M  V30 64911 C 6160.08 -4.20359 0.996103 0
M  V30 64912 C 6159.21 -5.30223 0.322098 0
M  V30 64913 C 6158.25 -5.97257 1.3398 0
M  V30 64914 N 6157.39 -6.98685 0.69166 0
M  V30 64915 H 6162.23 -2.57915 1.49277 0
M  V30 64916 H 6159.76 -1.2672 0.74703 0
M  V30 64917 H 6161.72 -4.15018 -0.426163 0
M  V30 64918 H 6160.35 -3.10466 -0.88378 0
M  V30 64919 H 6159.4 -3.49375 1.50469 0
M  V30 64920 H 6160.72 -4.66354 1.76962 0
M  V30 64921 H 6159.87 -6.06575 -0.123315 0
M  V30 64922 H 6158.61 -4.85296 -0.483621 0
M  V30 64923 H 6157.61 -5.19656 1.79549 0
M  V30 64924 H 6158.84 -6.44267 2.147 0
M  V30 64925 H 6156.78 -6.55933 -0.0939815 0
M  V30 64926 H 6156.7 -7.42866 1.40307 0
M  V30 64927 H 6157.97 -7.79031 0.270222 0
M  V30 64928 N 6162.2 -0.805853 -1.35439 0
M  V30 64929 C 6163.44 -0.395576 -1.99516 0
M  V30 64930 C 6163.8 1.0257 -1.62779 0
M  V30 64931 O 6163.09 1.70167 -0.880561 0
M  V30 64932 C 6163.29 -0.515459 -3.53663 0
M  V30 64933 C 6163.12 -1.94684 -4.05374 0
M  V30 64934 C 6161.89 -2.57505 -4.34763 0
M  V30 64935 C 6164.08 -2.91129 -4.23967 0
M  V30 64936 N 6162.07 -3.92061 -4.724 0
M  V30 64937 C 6163.44 -4.10554 -4.64592 0
M  V30 64938 C 6165.49 -2.87971 -4.06174 0
M  V30 64939 C 6164.19 -5.27251 -4.89284 0
M  V30 64940 C 6166.22 -4.03869 -4.32023 0
M  V30 64941 C 6165.58 -5.22041 -4.72919 0
M  V30 64942 H 6161.68 -0.192507 -0.757935 0
M  V30 64943 H 6164.27 -1.04694 -1.64156 0
M  V30 64944 H 6162.44 0.105906 -3.88256 0
M  V30 64945 H 6164.17 -0.0798396 -4.04621 0
M  V30 64946 H 6160.92 -2.08865 -4.25056 0
M  V30 64947 H 6161.35 -4.61335 -4.95478 0
M  V30 64948 H 6165.99 -1.97759 -3.73699 0
M  V30 64949 H 6163.71 -6.18034 -5.20634 0
M  V30 64950 H 6167.29 -4.02804 -4.19809 0
M  V30 64951 H 6166.17 -6.10232 -4.9253 0
M  V30 64952 N 6163.68 1.47342 -0.559291 0
M  V30 64953 C 6164.64 2.28517 0.176799 0
M  V30 64954 C 6165.64 1.37068 0.840775 0
M  V30 64955 O 6166.83 1.59678 0.696317 0
M  V30 64956 C 6163.96 3.16807 1.25881 0
M  V30 64957 H 6165.16 2.95066 -0.536277 0
M  V30 64958 H 6162.71 1.53066 -0.316317 0
M  V30 64959 H 6163.44 2.54954 2.00422 0
M  V30 64960 H 6163.23 3.84111 0.78749 0
M  V30 64961 H 6164.72 3.77964 1.77575 0
M  V30 64962 N 6165.16 0.295849 1.54798 0
M  V30 64963 C 6166.57 -0.0576955 1.59496 0
M  V30 64964 C 6166.77 -1.52857 1.31289 0
M  V30 64965 O 6165.83 -2.28057 1.0838 0
M  V30 64966 C 6167.14 0.335608 2.98821 0
M  V30 64967 C 6168.69 0.283945 3.11709 0
M  V30 64968 C 6169.16 0.651994 4.53335 0
M  V30 64969 N 6170.65 0.604333 4.59241 0
M  V30 64970 C 6171.39 0.861652 5.66889 0
M  V30 64971 N 6170.89 1.18467 6.82596 0
M  V30 64972 N 6172.68 0.789058 5.56534 0
M  V30 64973 H 6164.83 1.2545 1.71394 0
M  V30 64974 H 6167.09 0.508248 0.800242 0
M  V30 64975 H 6166.8 1.35935 3.24368 0
M  V30 64976 H 6166.67 -0.31331 3.75897 0
M  V30 64977 H 6169.06 -0.730541 2.85915 0
M  V30 64978 H 6169.14 0.967414 2.36801 0
M  V30 64979 H 6168.78 1.66426 4.79859 0
M  V30 64980 H 6168.71 -0.0534909 5.26573 0
M  V30 64981 H 6171.21 0.365394 3.76129 0
M  V30 64982 H 6171.52 1.36713 7.60611 0
M  V30 64983 H 6169.86 1.22266 6.84161 0
M  V30 64984 H 6173.05 0.536395 4.65017 0
M  V30 64985 H 6173.23 0.992969 6.40347 0
M  V30 64986 N 6166.63 -1.57583 0.023479 0
M  V30 64987 C 6167.88 -1.91567 -0.656382 0
M  V30 64988 C 6168.21 -0.899359 -1.72458 0
M  V30 64989 O 6167.46 0.092542 -1.95481 0
M  V30 64990 C 6167.76 -3.32288 -1.31604 0
M  V30 64991 C 6167.43 -4.49306 -0.378767 0
M  V30 64992 C 6166.09 -4.81048 -0.120776 0
M  V30 64993 C 6168.44 -5.20525 0.265168 0
M  V30 64994 C 6165.77 -5.8137 0.78905 0
M  V30 64995 C 6168.12 -6.21817 1.16301 0
M  V30 64996 C 6166.79 -6.52004 1.42995 0
M  V30 64997 H 6166.06 -0.700993 -0.240187 0
M  V30 64998 H 6168.7 -1.91316 0.0840384 0
M  V30 64999 H 6167.01 -3.28774 -2.13108 0
M  V30 65000 H 6168.71 -3.55851 -1.84854 0
M  V30 65001 H 6165.3 -4.24519 -0.590024 0
M  V30 65002 H 6169.48 -4.96237 0.0789003 0
M  V30 65003 H 6164.74 -6.03106 1.00363 0
M  V30 65004 H 6168.91 -6.76124 1.6682 0
M  V30 65005 H 6166.54 -7.29557 2.13662 0
M  V30 65006 N 6168.11 0.2496 -1.55611 0
M  V30 65007 C 6169.52 0.818875 -1.67784 0
M  V30 65008 C 6169.87 1.86132 -0.62044 0
M  V30 65009 O 6169 2.15133 0.233794 0
M  V30 65010 C 6169.59 1.49208 -3.04175 0
M  V30 65011 C 6168.15 2.00909 -3.18296 0
M  V30 65012 C 6167.3 0.859241 -2.63652 0
M  V30 65013 H 6170.25 0.0254628 -1.5868 0
M  V30 65014 H 6170.27 2.36 -2.9847 0
M  V30 65015 H 6169.78 0.733134 -3.81113 0
M  V30 65016 H 6167.88 2.79692 -2.46177 0
M  V30 65017 H 6168 2.20833 -4.2517 0
M  V30 65018 H 6166.36 1.25902 -2.21407 0
M  V30 65019 H 6167.14 0.113424 -3.43113 0
M  V30 65020 N 6169.59 1.48943 0.515146 0
M  V30 65021 C 6170.54 1.64567 1.61822 0
M  V30 65022 C 6171.51 0.487379 1.58789 0
M  V30 65023 O 6172.69 0.712688 1.7699 0
M  V30 65024 C 6169.83 1.70516 3.0003 0
M  V30 65025 C 6168.94 2.97554 3.13186 0
M  V30 65026 C 6168.08 2.9457 4.42043 0
M  V30 65027 C 6167.12 4.16248 4.48781 0
M  V30 65028 N 6166.26 4.11256 5.69045 0
M  V30 65029 H 6171.1 2.5876 1.47809 0
M  V30 65030 H 6168.63 1.2831 0.719378 0
M  V30 65031 H 6170.59 1.71947 3.80118 0
M  V30 65032 H 6169.22 0.798017 3.1278 0
M  V30 65033 H 6168.27 3.058 2.26253 0
M  V30 65034 H 6169.58 3.87543 3.14025 0
M  V30 65035 H 6168.74 2.94485 5.30437 0
M  V30 65036 H 6167.48 2.02335 4.43747 0
M  V30 65037 H 6166.48 4.16593 3.5879 0
M  V30 65038 H 6167.71 5.0966 4.48803 0
M  V30 65039 H 6165.65 3.2185 5.71619 0
M  V30 65040 H 6165.57 4.94966 5.71441 0
M  V30 65041 H 6166.84 4.15253 6.59686 0
M  V30 65042 N 6171.07 -0.765145 1.3778 0
M  V30 65043 C 6172.29 -1.55943 1.36735 0
M  V30 65044 C 6172.72 -1.8805 -0.0435155 0
M  V30 65045 O 6172.08 -1.49722 -1.0224 0
M  V30 65046 C 6172.12 -2.84237 2.21905 0
M  V30 65047 O 6171.23 -3.78897 1.62821 0
M  V30 65048 H 6170.57 -0.47211 0.466913 0
M  V30 65049 H 6173.1 -0.946492 1.81391 0
M  V30 65050 H 6173.11 -3.33276 2.35354 0
M  V30 65051 H 6171.78 -2.60198 3.24453 0
M  V30 65052 H 6170.36 -3.37562 1.58449 0
M  V30 65053 N 6172.55 -1.22459 -0.992051 0
M  V30 65054 C 6173.82 -0.958151 -1.70525 0
M  V30 65055 C 6174.2 0.526523 -2.04428 0
M  V30 65056 O 6173.55 1.49477 -1.72826 0
M  V30 65057 C 6173.76 -1.85656 -2.95521 0
M  V30 65058 C 6175.11 -2.11314 -3.68282 0
M  V30 65059 O 6176.13 -1.83111 -3.0553 0
M  V30 65060 O 6174.99 -2.59085 -4.81183 0
M  V30 65061 H 6172.09 -0.360401 -0.744338 0
M  V30 65062 H 6174.63 -1.33448 -1.04832 0
M  V30 65063 H 6173.4 -2.86076 -2.66976 0
M  V30 65064 H 6173.03 -1.48187 -3.68953 0
M  V30 65065 N 6174.02 1.18902 -1.03441 0
M  V30 65066 C 6175.27 1.88352 -0.732664 0
M  V30 65067 C 6175.59 1.80356 0.74141 0
M  V30 65068 O 6174.86 1.2177 1.53457 0
M  V30 65069 H 6173.44 0.697262 -0.26802 0
M  V30 65070 H 6176.1 1.44324 -1.30983 0
M  V30 65071 H 6175.2 2.94547 -1.03191 0
M  V30 65072 N 6175.5 0.813024 1.3501 0
M  V30 65073 C 6176.73 0.409085 2.02815 0
M  V30 65074 C 6177.14 -0.981948 1.61255 0
M  V30 65075 O 6176.5 -1.63381 0.813195 0
M  V30 65076 C 6176.55 0.490243 3.5816 0
M  V30 65077 O 6176.27 1.82644 3.98212 0
M  V30 65078 C 6177.77 0.0799344 4.43228 0
M  V30 65079 H 6174.99 0.165379 0.650301 0
M  V30 65080 H 6177.54 1.09843 1.72495 0
M  V30 65081 H 6175.69 -0.150921 3.87106 0
M  V30 65082 H 6176.11 1.79373 4.92875 0
M  V30 65083 H 6177.58 0.187824 5.5168 0
M  V30 65084 H 6178.06 -0.975462 4.28231 0
M  V30 65085 H 6178.66 0.694507 4.19591 0
M  V30 65086 N 6176.98 -1.47043 0.567097 0
M  V30 65087 C 6178.23 -2.02046 0.0466587 0
M  V30 65088 C 6178.55 -1.44276 -1.31185 0
M  V30 65089 O 6177.82 -0.621599 -1.85777 0
M  V30 65090 H 6176.4 -0.746864 0.0142586 0
M  V30 65091 H 6179.06 -1.80332 0.739345 0
M  V30 65092 H 6178.16 -3.12081 -0.0340526 0
M  V30 65093 N 6178.46 -0.304054 -1.54639 0
M  V30 65094 C 6179.69 0.306844 -2.04612 0
M  V30 65095 C 6180.1 1.47286 -1.18119 0
M  V30 65096 O 6179.46 1.81317 -0.207494 0
M  V30 65097 C 6179.51 0.760139 -3.53418 0
M  V30 65098 O 6179.23 -0.359474 -4.36623 0
M  V30 65099 C 6180.73 1.43587 -4.19401 0
M  V30 65100 H 6177.95 0.0662235 -0.667724 0
M  V30 65101 H 6180.5 -0.444574 -1.99609 0
M  V30 65102 H 6178.65 1.46157 -3.58771 0
M  V30 65103 H 6179.06 -0.00600714 -5.245 0
M  V30 65104 H 6180.54 1.70417 -5.25035 0
M  V30 65105 H 6181.02 2.37692 -3.69323 0
M  V30 65106 H 6181.62 0.777536 -4.18132 0
M  V30 65107 N 6179.94 1.57568 -0.0318356 0
M  V30 65108 C 6181.19 1.9109 0.645572 0
M  V30 65109 C 6181.5 0.910169 1.73134 0
M  V30 65110 O 6182.7 1.13673 2.46558 0
M  V30 65111 C 6181.16 3.39322 1.19954 0
M  V30 65112 C 6180.77 4.47759 0.14691 0
M  V30 65113 C 6182.51 3.81907 1.8533 0
M  V30 65114 C 6180.42 5.8709 0.712665 0
M  V30 65115 H 6179.35 0.713121 0.244898 0
M  V30 65116 H 6182 1.8324 -0.097579 0
M  V30 65117 H 6180.38 3.42112 1.99438 0
M  V30 65118 H 6181.56 4.56532 -0.625678 0
M  V30 65119 H 6179.87 4.14394 -0.408255 0
M  V30 65120 H 6182.47 4.8336 2.28619 0
M  V30 65121 H 6182.81 3.17113 2.69713 0
M  V30 65122 H 6183.34 3.81552 1.12531 0
M  V30 65123 H 6180.08 6.55434 -0.0930886 0
M  V30 65124 H 6179.6 5.81918 1.45368 0
M  V30 65125 H 6181.28 6.35745 1.20157 0
M  V30 65126 N 6181.41 -0.241344 1.55741 0
M  V30 65127 C 6182.64 -0.984581 1.8163 0
M  V30 65128 C 6183.05 -1.79232 0.606022 0
M  V30 65129 O 6182.4 -1.78481 -0.434778 0
M  V30 65130 C 6182.46 -1.96636 3.00956 0
M  V30 65131 C 6182.12 -1.34503 4.36758 0
M  V30 65132 C 6183.12 -0.744744 5.14538 0
M  V30 65133 C 6180.8 -1.36273 4.83461 0
M  V30 65134 C 6182.8 -0.170433 6.37172 0
M  V30 65135 C 6180.48 -0.784571 6.06043 0
M  V30 65136 C 6181.48 -0.189454 6.82737 0
M  V30 65137 O 6181.17 0.379765 8.03002 0
M  V30 65138 H 6180.9 -0.295097 0.608189 0
M  V30 65139 H 6183.46 -0.26778 2.03647 0
M  V30 65140 H 6181.69 -2.72162 2.74708 0
M  V30 65141 H 6183.38 -2.57349 3.13889 0
M  V30 65142 H 6184.14 -0.723538 4.79573 0
M  V30 65143 H 6180.02 -1.81533 4.23753 0
M  V30 65144 H 6183.56 0.294704 6.96977 0
M  V30 65145 H 6179.46 -0.803123 6.40484 0
M  V30 65146 H 6180.23 0.272166 8.18047 0
M  V30 65147 N 6182.89 -1.49214 -0.50724 0
M  V30 65148 C 6184.12 -1.62085 -1.28593 0
M  V30 65149 C 6184.54 -0.28981 -1.86562 0
M  V30 65150 O 6183.89 0.723928 -1.67528 0
M  V30 65151 C 6183.94 -2.6849 -2.42065 0
M  V30 65152 O 6183.66 -3.9643 -1.86479 0
M  V30 65153 C 6185.17 -2.92009 -3.33535 0
M  V30 65154 H 6182.39 -0.545845 -0.390249 0
M  V30 65155 H 6184.93 -1.95203 -0.609584 0
M  V30 65156 H 6183.08 -2.38167 -3.05541 0
M  V30 65157 H 6183.5 -4.54992 -2.60926 0
M  V30 65158 H 6184.97 -3.70209 -4.0945 0
M  V30 65159 H 6185.45 -2.01687 -3.90153 0
M  V30 65160 H 6186.06 -3.23724 -2.75831 0
M  V30 65161 N 6184.37 0.757827 -1.38184 0
M  V30 65162 C 6185.28 1.90229 -1.37296 0
M  V30 65163 C 6186.3 1.71883 -0.270627 0
M  V30 65164 O 6187.47 1.94879 -0.508348 0
M  V30 65165 C 6184.54 3.25542 -1.19263 0
M  V30 65166 C 6183.6 3.56444 -2.39262 0
M  V30 65167 C 6182.83 4.853 -2.2208 0
M  V30 65168 O 6183.05 5.57369 -1.21229 0
M  V30 65169 O 6181.99 5.15583 -3.10576 0
M  V30 65170 H 6185.81 1.93932 -2.33718 0
M  V30 65171 H 6183.4 0.902518 -1.19059 0
M  V30 65172 H 6185.28 4.0645 -1.1125 0
M  V30 65173 H 6183.96 3.2266 -0.259223 0
M  V30 65174 H 6182.86 2.75714 -2.52849 0
M  V30 65175 H 6184.2 3.64082 -3.31218 0
M  V30 65176 N 6185.85 1.22983 0.985543 0
M  V30 65177 C 6186.78 1.03081 2.09515 0
M  V30 65178 C 6187.76 -0.0506427 1.70025 0
M  V30 65179 O 6188.94 0.113006 1.93871 0
M  V30 65180 C 6186.07 0.615698 3.41799 0
M  V30 65181 C 6185.03 1.64391 3.9517 0
M  V30 65182 C 6184.35 1.08441 5.23588 0
M  V30 65183 C 6185.65 3.0357 4.25021 0
M  V30 65184 H 6187.35 1.9589 2.26423 0
M  V30 65185 H 6184.89 0.943244 1.08807 0
M  V30 65186 H 6186.85 0.463541 4.18843 0
M  V30 65187 H 6185.57 -0.348071 3.2474 0
M  V30 65188 H 6184.23 1.78397 3.20266 0
M  V30 65189 H 6183.88 0.111774 5.02876 0
M  V30 65190 H 6183.58 1.77138 5.60264 0
M  V30 65191 H 6185.1 0.943992 6.03259 0
M  V30 65192 H 6186.52 2.92895 4.92834 0
M  V30 65193 H 6184.91 3.69458 4.72886 0
M  V30 65194 H 6185.98 3.52948 3.32499 0
M  V30 65195 N 6187.33 -1.18352 1.04071 0
M  V30 65196 C 6188.24 -2.25639 0.642194 0
M  V30 65197 C 6189.25 -1.70812 -0.331554 0
M  V30 65198 O 6190.43 -2.00535 -0.186471 0
M  V30 65199 C 6187.49 -3.46698 0.0113703 0
M  V30 65200 C 6186.55 -4.16658 1.03413 0
M  V30 65201 C 6185.79 -5.31938 0.433312 0
M  V30 65202 O 6186.01 -5.65308 -0.76047 0
M  V30 65203 O 6184.94 -5.90576 1.16203 0
M  V30 65204 H 6188.77 -2.61992 1.53604 0
M  V30 65205 H 6186.36 -1.25434 0.811586 0
M  V30 65206 H 6188.24 -4.20028 -0.339787 0
M  V30 65207 H 6186.91 -3.12169 -0.856296 0
M  V30 65208 H 6185.82 -3.45397 1.43708 0
M  V30 65209 H 6187.15 -4.55188 1.87256 0
M  V30 65210 N 6188.8 -0.820173 -1.34577 0
M  V30 65211 C 6190.22 -0.466128 -1.80788 0
M  V30 65212 C 6190.57 1.01321 -1.68013 0
M  V30 65213 O 6189.69 1.78831 -1.21855 0
M  V30 65214 C 6190.29 -0.839307 -3.28239 0
M  V30 65215 C 6188.85 -0.537671 -3.7254 0
M  V30 65216 C 6187.99 -1.05769 -2.56336 0
M  V30 65217 H 6190.94 -1.0106 -1.22363 0
M  V30 65218 H 6190.96 -0.14203 -3.80235 0
M  V30 65219 H 6190.48 -1.91604 -3.37505 0
M  V30 65220 H 6188.58 0.529765 -3.68815 0
M  V30 65221 H 6188.69 -1.07981 -4.66773 0
M  V30 65222 H 6187.05 -0.479363 -2.50148 0
M  V30 65223 H 6187.84 -2.14081 -2.68373 0
M  V30 65224 N 6190.28 1.46741 -0.574887 0
M  V30 65225 C 6191.69 1.86127 -0.146208 0
M  V30 65226 C 6192.04 1.47942 1.2887 0
M  V30 65227 O 6191.17 0.890662 1.97221 0
M  V30 65228 C 6191.76 3.37812 -0.258565 0
M  V30 65229 C 6190.32 3.76224 0.11519 0
M  V30 65230 C 6189.47 2.70773 -0.598092 0
M  V30 65231 H 6192.42 1.38006 -0.783575 0
M  V30 65232 H 6192.44 3.76955 0.518177 0
M  V30 65233 H 6191.95 3.65572 -1.30301 0
M  V30 65234 H 6190.06 3.54081 1.16007 0
M  V30 65235 H 6190.17 4.78417 -0.255681 0
M  V30 65236 H 6188.53 2.5467 -0.0392025 0
M  V30 65237 H 6189.32 3.01374 -1.64404 0
M  V30 65238 N 6191.76 0.312251 1.54476 0
M  V30 65239 C 6193 -0.294435 2.02268 0
M  V30 65240 C 6193.36 -1.50226 1.19567 0
M  V30 65241 O 6194.57 -2.18106 1.5711 0
M  V30 65242 C 6192.84 -0.63124 3.51781 0
M  V30 65243 S 6194.4 -1.21919 4.21522 0
M  V30 65244 H 6191.21 -0.0897381 0.705314 0
M  V30 65245 H 6193.82 0.442742 1.90421 0
M  V30 65246 H 6192.52 0.256122 4.096 0
M  V30 65247 H 6192.05 -1.39891 3.67687 0
M  V30 65248 H 6194.07 -2.50654 4.28237 0
M  V30 65249 N 6193.24 -1.57549 0.0401914 0
M  V30 65250 C 6194.66 -1.56435 -0.316286 0
M  V30 65251 C 6194.86 -1.04685 -1.72172 0
M  V30 65252 O 6193.91 -0.698529 -2.42645 0
M  V30 65253 C 6195.22 -3.00301 -0.154777 0
M  V30 65254 C 6196.77 -3.12178 -0.226711 0
M  V30 65255 C 6197.25 -4.57904 -0.093861 0
M  V30 65256 N 6198.74 -4.62955 -0.150491 0
M  V30 65257 C 6199.47 -5.73355 -0.071645 0
M  V30 65258 N 6198.97 -6.92775 0.0589213 0
M  V30 65259 N 6200.76 -5.61958 -0.126434 0
M  V30 65260 H 6192.91 -1.89513 0.959098 0
M  V30 65261 H 6195.18 -0.872238 0.371355 0
M  V30 65262 H 6194.88 -3.42155 0.813794 0
M  V30 65263 H 6194.76 -3.65799 -0.920393 0
M  V30 65264 H 6197.14 -2.7023 -1.18575 0
M  V30 65265 H 6197.22 -2.49381 0.569471 0
M  V30 65266 H 6196.87 -5.00535 0.861804 0
M  V30 65267 H 6196.8 -5.18694 -0.909049 0
M  V30 65268 H 6199.29 -3.77065 -0.2511 0
M  V30 65269 H 6199.6 -7.72719 0.11209 0
M  V30 65270 H 6197.95 -6.94937 0.0938562 0
M  V30 65271 H 6201.14 -4.6755 -0.226917 0
M  V30 65272 H 6201.31 -6.47971 -0.0615273 0
M  V30 65273 N 6194.72 0.233081 -1.55867 0
M  V30 65274 C 6195.96 0.959156 -1.78344 0
M  V30 65275 C 6196.29 1.84787 -0.606951 0
M  V30 65276 O 6195.55 1.91374 0.409186 0
M  V30 65277 C 6195.85 1.83887 -3.06464 0
M  V30 65278 C 6195.51 1.10435 -4.37167 0
M  V30 65279 C 6194.17 0.90141 -4.72682 0
M  V30 65280 C 6196.53 0.584797 -5.17909 0
M  V30 65281 C 6193.85 0.166828 -5.86463 0
M  V30 65282 C 6196.21 -0.136386 -6.32453 0
M  V30 65283 C 6194.87 -0.350685 -6.66578 0
M  V30 65284 H 6194.14 0.35098 -0.652606 0
M  V30 65285 H 6196.79 0.228182 -1.90136 0
M  V30 65286 H 6195.09 2.63734 -2.89744 0
M  V30 65287 H 6196.79 2.40259 -3.21055 0
M  V30 65288 H 6193.38 1.27249 -4.09275 0
M  V30 65289 H 6197.56 0.72909 -4.90915 0
M  V30 65290 H 6192.82 -0.00954536 -6.11399 0
M  V30 65291 H 6196.99 -0.546538 -6.94252 0
M  V30 65292 H 6194.62 -0.921834 -7.5459 0
M  V30 65293 N 6196.2 1.49481 0.49932 0
M  V30 65294 C 6197.44 1.59288 1.25519 0
M  V30 65295 C 6197.77 0.279478 1.92178 0
M  V30 65296 O 6197.05 -0.717078 1.80799 0
M  V30 65297 C 6197.33 2.75331 2.32088 0
M  V30 65298 C 6197.19 4.1647 1.69919 0
M  V30 65299 C 6198.5 2.8701 3.33636 0
M  V30 65300 H 6195.62 0.579784 0.454994 0
M  V30 65301 H 6198.27 1.81771 0.553101 0
M  V30 65302 H 6196.42 2.56292 2.9197 0
M  V30 65303 H 6198.09 4.4703 1.13851 0
M  V30 65304 H 6196.33 4.2204 1.00325 0
M  V30 65305 H 6197 4.93542 2.47225 0
M  V30 65306 H 6199.48 3.04347 2.83746 0
M  V30 65307 H 6198.35 3.69879 4.05562 0
M  V30 65308 H 6198.61 1.96433 3.96064 0
M  V30 65309 N 6197.67 -0.750488 1.38584 0
M  V30 65310 C 6198.9 -1.53974 1.38202 0
M  V30 65311 C 6199.32 -1.8878 -0.0274313 0
M  V30 65312 O 6198.67 -1.53001 -0.99484 0
M  V30 65313 C 6198.72 -2.83695 2.24053 0
M  V30 65314 O 6198.45 -2.50372 3.59507 0
M  V30 65315 C 6199.95 -3.77815 2.31885 0
M  V30 65316 H 6197.17 -0.476329 0.472601 0
M  V30 65317 H 6199.71 -0.928569 1.82203 0
M  V30 65318 H 6197.87 -3.41181 1.83506 0
M  V30 65319 H 6198.28 -3.33591 4.04743 0
M  V30 65320 H 6199.75 -4.65778 2.96235 0
M  V30 65321 H 6200.23 -4.18469 1.33342 0
M  V30 65322 H 6200.84 -3.26252 2.72836 0
M  V30 65323 N 6199.15 -1.23504 -0.979007 0
M  V30 65324 C 6200.43 -0.976183 -1.69499 0
M  V30 65325 C 6200.81 0.504811 -2.04975 0
M  V30 65326 O 6200.16 1.47636 -1.74402 0
M  V30 65327 C 6200.37 -1.8878 -2.93536 0
M  V30 65328 C 6201.71 -2.15208 -3.6602 0
M  V30 65329 O 6202.74 -1.86341 -3.03571 0
M  V30 65330 O 6201.6 -2.64174 -4.78408 0
M  V30 65331 H 6198.69 -0.368276 -0.740474 0
M  V30 65332 H 6201.24 -1.34552 -1.03411 0
M  V30 65333 H 6200.01 -2.88892 -2.63927 0
M  V30 65334 H 6199.63 -1.52092 -3.67361 0
M  V30 65335 N 6200.63 1.17798 -1.04697 0
M  V30 65336 C 6201.86 1.91865 -0.774314 0
M  V30 65337 C 6202.27 1.76536 0.669363 0
M  V30 65338 O 6201.63 1.0992 1.45684 0
M  V30 65339 C 6201.68 3.43082 -1.13916 0
M  V30 65340 O 6201.4 3.57934 -2.52616 0
M  V30 65341 C 6202.9 4.34235 -0.89192 0
M  V30 65342 H 6200.12 0.60891 -0.281904 0
M  V30 65343 H 6202.67 1.4941 -1.39632 0
M  V30 65344 H 6200.82 3.83302 -0.561998 0
M  V30 65345 H 6201.24 4.51589 -2.66772 0
M  V30 65346 H 6202.71 5.38866 -1.19699 0
M  V30 65347 H 6203.19 4.38859 0.173075 0
M  V30 65348 H 6203.79 3.99721 -1.45268 0
M  V30 65349 N 6202.11 0.827298 1.3414 0
M  V30 65350 C 6203.52 0.475709 1.80538 0
M  V30 65351 C 6203.87 -1.00429 1.68548 0
M  V30 65352 O 6202.99 -1.78182 1.22802 0
M  V30 65353 C 6203.59 0.856703 3.2779 0
M  V30 65354 C 6202.15 0.55742 3.7225 0
M  V30 65355 C 6201.3 1.07127 2.55772 0
M  V30 65356 H 6204.25 1.01707 1.21825 0
M  V30 65357 H 6204.27 0.162193 3.80154 0
M  V30 65358 H 6203.78 1.93391 3.36484 0
M  V30 65359 H 6201.88 -0.510198 3.6909 0
M  V30 65360 H 6201.99 1.10455 4.66194 0
M  V30 65361 H 6200.36 0.492622 2.49891 0
M  V30 65362 H 6201.14 2.15501 2.67234 0
M  V30 65363 N 6203.59 -1.46434 0.582661 0
M  V30 65364 C 6204.53 -2.30308 -0.150616 0
M  V30 65365 C 6205.5 -1.40614 -0.884135 0
M  V30 65366 O 6206.69 -1.69563 -0.874814 0
M  V30 65367 C 6203.83 -3.25079 -1.15836 0
M  V30 65368 C 6202.94 -4.29872 -0.428291 0
M  V30 65369 C 6202.08 -5.1177 -1.42355 0
M  V30 65370 C 6201.11 -6.08312 -0.679889 0
M  V30 65371 N 6200.25 -6.83079 -1.62321 0
M  V30 65372 H 6205.09 -2.92484 0.570686 0
M  V30 65373 H 6202.63 -1.44147 0.293245 0
M  V30 65374 H 6204.59 -3.78468 -1.75549 0
M  V30 65375 H 6203.22 -2.64711 -1.84738 0
M  V30 65376 H 6202.27 -3.79339 0.283878 0
M  V30 65377 H 6203.58 -4.98565 0.153085 0
M  V30 65378 H 6202.73 -5.69436 -2.09349 0
M  V30 65379 H 6201.47 -4.43037 -2.03886 0
M  V30 65380 H 6200.48 -5.498 0.00382395 0
M  V30 65381 H 6201.7 -6.79064 -0.0699765 0
M  V30 65382 H 6199.65 -6.17056 -2.22662 0
M  V30 65383 H 6199.57 -7.48033 -1.09464 0
M  V30 65384 H 6200.83 -7.45303 -2.2835 0
M  V30 65385 N 6205.06 -0.320439 -1.54308 0
M  V30 65386 C 6206.31 0.282513 -2.00116 0
M  V30 65387 C 6206.63 1.529 -1.21023 0
M  V30 65388 O 6205.9 1.93412 -0.311231 0
M  V30 65389 H 6204.48 0.10738 -0.739242 0
M  V30 65390 H 6207.14 -0.436263 -1.89955 0
M  V30 65391 H 6206.24 0.541081 -3.07374 0
M  V30 65392 N 6206.54 1.57525 -0.048546 0
M  V30 65393 C 6207.95 1.80222 0.487528 0
M  V30 65394 C 6208.3 0.96055 1.71079 0
M  V30 65395 O 6207.43 0.176396 2.1568 0
M  V30 65396 C 6208.02 3.26867 0.891245 0
M  V30 65397 C 6206.58 3.50492 1.37231 0
M  V30 65398 C 6205.73 2.7513 0.346251 0
M  V30 65399 H 6208.68 1.56309 -0.274447 0
M  V30 65400 H 6208.7 3.37643 1.75434 0
M  V30 65401 H 6208.21 3.881 0.000744488 0
M  V30 65402 H 6206.31 2.94536 2.28209 0
M  V30 65403 H 6206.43 4.59205 1.36629 0
M  V30 65404 H 6204.79 2.41188 0.818568 0
M  V30 65405 H 6205.57 3.39088 -0.536119 0
M  V30 65406 N 6208.02 -0.224812 1.55988 0
M  V30 65407 C 6208.97 -1.27858 1.92148 0
M  V30 65408 C 6209.94 -1.46738 0.778279 0
M  V30 65409 O 6211.12 -1.6036 1.03389 0
M  V30 65410 C 6208.26 -2.6246 2.24073 0
M  V30 65411 C 6207.38 -2.51406 3.5131 0
M  V30 65412 C 6206.51 -3.7851 3.72698 0
M  V30 65413 C 6205.55 -3.62165 4.9346 0
M  V30 65414 N 6204.69 -4.8121 5.11254 0
M  V30 65415 H 6209.53 -0.963211 2.82004 0
M  V30 65416 H 6207.06 -0.464313 1.3958 0
M  V30 65417 H 6209.02 -3.4084 2.40592 0
M  V30 65418 H 6207.65 -2.921 1.37394 0
M  V30 65419 H 6206.7 -1.64479 3.43003 0
M  V30 65420 H 6208.02 -2.35248 4.39841 0
M  V30 65421 H 6207.17 -4.65332 3.89295 0
M  V30 65422 H 6205.91 -3.9759 2.82442 0
M  V30 65423 H 6204.91 -2.73726 4.76816 0
M  V30 65424 H 6206.14 -3.44558 5.85198 0
M  V30 65425 H 6204.08 -5.0061 4.2394 0
M  V30 65426 H 6204 -4.67766 5.93912 0
M  V30 65427 H 6205.27 -5.69468 5.32284 0
M  V30 65428 N 6209.5 -1.49744 -0.491385 0
M  V30 65429 C 6210.74 -1.59952 -1.24673 0
M  V30 65430 C 6211.08 -0.289666 -1.92028 0
M  V30 65431 O 6210.35 0.70748 -1.81177 0
M  V30 65432 C 6210.64 -2.76558 -2.30625 0
M  V30 65433 C 6210.49 -4.17366 -1.67708 0
M  V30 65434 C 6211.81 -2.88775 -3.3211 0
M  V30 65435 H 6208.93 -0.582188 -0.451913 0
M  V30 65436 H 6211.57 -1.82062 -0.543453 0
M  V30 65437 H 6209.72 -2.57837 -2.90607 0
M  V30 65438 H 6211.39 -4.47627 -1.11479 0
M  V30 65439 H 6209.63 -4.22566 -0.980852 0
M  V30 65440 H 6210.3 -4.94846 -2.44604 0
M  V30 65441 H 6212.78 -3.05848 -2.82128 0
M  V30 65442 H 6211.66 -3.72025 -4.03595 0
M  V30 65443 H 6211.92 -1.98531 -3.95016 0
M  V30 65444 N 6210.98 0.743128 -1.3898 0
M  V30 65445 C 6211.92 1.85705 -1.37049 0
M  V30 65446 C 6212.89 1.6448 -0.231409 0
M  V30 65447 O 6214.08 1.86 -0.425266 0
M  V30 65448 C 6211.22 3.23127 -1.21174 0
M  V30 65449 C 6210.33 3.56112 -2.44557 0
M  V30 65450 C 6209.47 4.82893 -2.21332 0
M  V30 65451 C 6208.51 5.08696 -3.40433 0
M  V30 65452 N 6207.64 6.26677 -3.16577 0
M  V30 65453 H 6212.48 1.8669 -2.32274 0
M  V30 65454 H 6210.02 0.912343 -1.15389 0
M  V30 65455 H 6211.98 4.02442 -1.09982 0
M  V30 65456 H 6210.61 3.21442 -0.295829 0
M  V30 65457 H 6209.66 2.7156 -2.66382 0
M  V30 65458 H 6210.97 3.71102 -3.33293 0
M  V30 65459 H 6210.13 5.70172 -2.07337 0
M  V30 65460 H 6208.86 4.70061 -1.29978 0
M  V30 65461 H 6207.87 4.19881 -3.54936 0
M  V30 65462 H 6209.09 5.23419 -4.32677 0
M  V30 65463 H 6207.04 6.15148 -2.2788 0
M  V30 65464 H 6206.96 6.42216 -3.98866 0
M  V30 65465 H 6208.23 7.16816 -3.06259 0
M  V30 65466 N 6212.45 1.24021 0.972444 0
M  V30 65467 C 6213.68 1.10238 1.74732 0
M  V30 65468 C 6214.09 -0.348343 1.85966 0
M  V30 65469 O 6213.44 -1.2524 1.3439 0
M  V30 65470 C 6213.5 1.66274 3.18737 0
M  V30 65471 C 6213.16 3.15112 3.30989 0
M  V30 65472 C 6214.16 4.12316 3.16688 0
M  V30 65473 C 6211.84 3.54978 3.55382 0
M  V30 65474 C 6213.84 5.47369 3.26598 0
M  V30 65475 C 6211.52 4.90173 3.6493 0
M  V30 65476 C 6212.52 5.86178 3.50549 0
M  V30 65477 O 6212.21 7.18915 3.59744 0
M  V30 65478 H 6211.94 0.386055 0.554921 0
M  V30 65479 H 6214.5 1.64509 1.22988 0
M  V30 65480 H 6212.73 1.06432 3.71765 0
M  V30 65481 H 6214.42 1.4785 3.78015 0
M  V30 65482 H 6215.18 3.82859 2.97732 0
M  V30 65483 H 6211.06 2.8076 3.65643 0
M  V30 65484 H 6214.6 6.22284 3.15291 0
M  V30 65485 H 6210.5 5.19303 3.83398 0
M  V30 65486 H 6211.27 7.26772 3.76489 0
M  V30 65487 N 6213.93 -1.17241 1.0532 0
M  V30 65488 C 6214.86 -2.23489 0.676389 0
M  V30 65489 C 6215.84 -1.66938 -0.326449 0
M  V30 65490 O 6217.03 -1.93128 -0.203755 0
M  V30 65491 C 6214.16 -3.47262 0.0516976 0
M  V30 65492 C 6213.11 -4.16643 0.979436 0
M  V30 65493 C 6212.44 -5.34253 0.218557 0
M  V30 65494 C 6213.74 -4.68728 2.30416 0
M  V30 65495 H 6215.43 -2.55264 1.56463 0
M  V30 65496 H 6212.98 -1.22697 0.753757 0
M  V30 65497 H 6214.93 -4.20806 -0.223717 0
M  V30 65498 H 6213.66 -3.14758 -0.871503 0
M  V30 65499 H 6212.31 -3.45012 1.23944 0
M  V30 65500 H 6211.96 -4.98 -0.707449 0
M  V30 65501 H 6211.66 -5.81612 0.836745 0
M  V30 65502 H 6213.19 -6.1058 -0.0495427 0
M  V30 65503 H 6214.6 -5.33903 2.08856 0
M  V30 65504 H 6213 -5.2667 2.87643 0
M  V30 65505 H 6214.07 -3.85467 2.94182 0
M  V30 65506 N 6215.41 -0.8344 -1.33699 0
M  V30 65507 C 6216.64 -0.44066 -2.01846 0
M  V30 65508 C 6217.05 0.961456 -1.6295 0
M  V30 65509 O 6216.39 1.63553 -0.836435 0
M  V30 65510 C 6216.45 -0.476522 -3.56328 0
M  V30 65511 C 6216.12 -1.83397 -4.18586 0
M  V30 65512 C 6217.11 -2.79654 -4.38281 0
M  V30 65513 C 6214.8 -2.12559 -4.55109 0
M  V30 65514 C 6216.79 -4.03237 -4.93638 0
M  V30 65515 C 6214.48 -3.364 -5.10175 0
M  V30 65516 C 6215.48 -4.31556 -5.29385 0
M  V30 65517 O 6215.17 -5.53207 -5.83281 0
M  V30 65518 H 6214.9 -0.173749 -0.65329 0
M  V30 65519 H 6217.45 -1.12726 -1.71703 0
M  V30 65520 H 6215.68 0.266833 -3.85778 0
M  V30 65521 H 6217.37 -0.101231 -4.05774 0
M  V30 65522 H 6218.14 -2.58423 -4.10418 0
M  V30 65523 H 6214.02 -1.39289 -4.39454 0
M  V30 65524 H 6217.56 -4.7752 -5.08548 0
M  V30 65525 H 6213.46 -3.57489 -5.37468 0
M  V30 65526 H 6214.23 -5.54885 -6.01701 0
M  V30 65527 N 6216.89 1.46123 -0.590418 0
M  V30 65528 C 6218.14 2.02346 -0.0789525 0
M  V30 65529 C 6218.46 1.46098 1.28397 0
M  V30 65530 O 6217.72 0.61894 1.85655 0
M  V30 65531 C 6218.02 3.57389 0.028596 0
M  V30 65532 C 6217.68 4.32712 -1.26773 0
M  V30 65533 C 6216.35 4.53008 -1.62287 0
M  V30 65534 C 6218.7 4.75902 -2.12524 0
M  V30 65535 C 6216.03 5.13749 -2.83336 0
M  V30 65536 C 6218.38 5.3798 -3.32806 0
M  V30 65537 C 6217.04 5.56503 -3.68592 0
M  V30 65538 H 6216.31 0.740437 -0.0288908 0
M  V30 65539 H 6218.96 1.75399 -0.7686 0
M  V30 65540 H 6217.26 3.83516 0.801416 0
M  V30 65541 H 6218.96 3.98576 0.440216 0
M  V30 65542 H 6215.55 4.17216 -0.981279 0
M  V30 65543 H 6219.73 4.5997 -1.86389 0
M  V30 65544 H 6214.99 5.2628 -3.1119 0
M  V30 65545 H 6219.16 5.70404 -3.99515 0
M  V30 65546 H 6216.79 6.03338 -4.62479 0
M  V30 65547 N 6218.37 0.328618 1.54136 0
M  V30 65548 C 6219.62 -0.273357 1.99839 0
M  V30 65549 C 6219.93 -1.52847 1.22054 0
M  V30 65550 O 6221.13 -2.20676 1.5816 0
M  V30 65551 C 6219.59 -0.537632 3.55862 0
M  V30 65552 C 6219.2 0.700718 4.42486 0
M  V30 65553 C 6220.94 -1.09928 4.1002 0
M  V30 65554 C 6218.85 0.408067 5.8999 0
M  V30 65555 H 6217.78 -0.105921 0.746523 0
M  V30 65556 H 6220.43 0.441628 1.78106 0
M  V30 65557 H 6218.81 -1.31293 3.73601 0
M  V30 65558 H 6219.99 1.47598 4.36522 0
M  V30 65559 H 6218.3 1.18294 3.99244 0
M  V30 65560 H 6220.9 -1.33294 5.17819 0
M  V30 65561 H 6221.24 -2.05022 3.62314 0
M  V30 65562 H 6221.77 -0.385043 3.95932 0
M  V30 65563 H 6218.51 1.32832 6.419 0
M  V30 65564 H 6218.03 -0.329394 5.98895 0
M  V30 65565 H 6219.71 0.0197665 6.46997 0
M  V30 65566 N 6219.84 -1.57497 0.0568993 0
M  V30 65567 C 6220.79 -2.11865 -0.915519 0
M  V30 65568 C 6221.76 -1.02743 -1.30511 0
M  V30 65569 O 6222.95 -1.30323 -1.39358 0
M  V30 65570 C 6220.09 -2.67276 -2.18306 0
M  V30 65571 C 6219.2 -3.90505 -1.84744 0
M  V30 65572 C 6218.33 -4.3421 -3.05998 0
M  V30 65573 C 6217.37 -5.50124 -2.68384 0
M  V30 65574 N 6216.51 -5.88857 -3.8235 0
M  V30 65575 H 6221.35 -2.94659 -0.444997 0
M  V30 65576 H 6218.89 -1.45622 -0.208018 0
M  V30 65577 H 6220.85 -2.97505 -2.92484 0
M  V30 65578 H 6219.48 -1.87271 -2.62925 0
M  V30 65579 H 6218.53 -3.66832 -1.0069 0
M  V30 65580 H 6219.84 -4.74736 -1.5306 0
M  V30 65581 H 6218.99 -4.66021 -3.8847 0
M  V30 65582 H 6217.73 -3.48802 -3.40864 0
M  V30 65583 H 6216.74 -5.17979 -1.8433 0
M  V30 65584 H 6217.96 -6.37253 -2.34704 0
M  V30 65585 H 6215.91 -5.06401 -4.17006 0
M  V30 65586 H 6215.83 -6.67793 -3.54384 0
M  V30 65587 H 6217.09 -6.25286 -4.65444 0
M  V30 65588 N 6221.32 0.216536 -1.56105 0
M  V30 65589 C 6222.57 0.938329 -1.78997 0
M  V30 65590 C 6222.89 1.84669 -0.62628 0
M  V30 65591 O 6222.16 1.92628 0.356569 0
M  V30 65592 H 6220.74 0.349468 -0.660213 0
M  V30 65593 H 6223.4 0.227188 -1.93571 0
M  V30 65594 H 6222.5 1.54218 -2.71336 0
M  V30 65595 N 6222.8 1.50002 0.483437 0
M  V30 65596 C 6223.73 1.70885 1.59124 0
M  V30 65597 C 6224.71 0.557662 1.60699 0
M  V30 65598 O 6225.9 0.795452 1.77162 0
M  V30 65599 C 6223.03 1.79161 2.97521 0
M  V30 65600 C 6221.98 2.94244 3.10813 0
M  V30 65601 C 6221.31 2.8765 4.50735 0
M  V30 65602 C 6222.61 4.34935 2.89187 0
M  V30 65603 H 6224.3 2.63637 1.41902 0
M  V30 65604 H 6221.85 1.26867 0.681226 0
M  V30 65605 H 6223.8 1.92355 3.74937 0
M  V30 65606 H 6222.52 0.830217 3.15872 0
M  V30 65607 H 6221.18 2.8068 2.35827 0
M  V30 65608 H 6220.83 1.89382 4.65987 0
M  V30 65609 H 6220.53 3.64901 4.60566 0
M  V30 65610 H 6222.06 3.02876 5.30187 0
M  V30 65611 H 6223.47 4.49089 3.5636 0
M  V30 65612 H 6221.87 5.13542 3.10474 0
M  V30 65613 H 6222.94 4.4816 1.8515 0
M  V30 65614 N 6224.28 -0.735747 1.39372 0
M  V30 65615 C 6225.23 -1.87111 1.38175 0
M  V30 65616 C 6226.22 -1.67314 0.264995 0
M  V30 65617 O 6227.43 -1.74665 0.434989 0
M  V30 65618 H 6223.8 -0.615911 0.43146 0
M  V30 65619 H 6225.77 -1.85237 2.33944 0
M  V30 65620 C 6224.52 -3.24785 1.24136 0
M  V30 65621 H 6223.85 -3.40614 2.09337 0
M  V30 65622 H 6225.29 -4.04421 1.27355 0
M  V30 65623 C 6223.74 -3.36862 -0.0502746 0
M  V30 65624 O 6224.27 -3.88515 -1.02074 0
M  V30 65625 N 6222.48 -2.9038 -0.113082 0
M  V30 65626 H 6222.03 -2.48535 0.677355 0
M  V30 65627 H 6221.99 -2.9884 -0.976822 0
M  V30 65628 N 6225.76 -1.24535 -0.965853 0
M  V30 65629 C 6226.71 -1.03707 -2.08201 0
M  V30 65630 C 6227.7 0.0285712 -1.69376 0
M  V30 65631 O 6228.91 -0.126136 -1.79558 0
M  V30 65632 H 6225.28 -0.318355 -0.681289 0
M  V30 65633 H 6227.25 -1.98356 -2.2293 0
M  V30 65634 C 6226 -0.660531 -3.41368 0
M  V30 65635 H 6225.32 -1.47229 -3.71704 0
M  V30 65636 H 6226.76 -0.554412 -4.2036 0
M  V30 65637 C 6225.22 0.632517 -3.30909 0
M  V30 65638 O 6225.75 1.67773 -3.64986 0
M  V30 65639 N 6223.96 0.61393 -2.84041 0
M  V30 65640 H 6223.51 -0.236999 -2.56507 0
M  V30 65641 H 6223.46 1.47928 -2.77425 0
M  V30 65642 N 6227.24 1.16681 -1.0594 0
M  V30 65643 C 6228.17 2.23127 -0.688231 0
M  V30 65644 C 6229.15 1.67109 0.317591 0
M  V30 65645 O 6230.33 1.93233 0.193511 0
M  V30 65646 C 6227.46 3.47229 -0.070113 0
M  V30 65647 C 6226.42 4.16117 -1.00152 0
M  V30 65648 C 6225.74 5.3413 -0.246887 0
M  V30 65649 C 6227.04 4.67499 -2.32898 0
M  V30 65650 H 6228.74 2.5443 -1.57815 0
M  V30 65651 H 6226.28 1.22295 -0.760253 0
M  V30 65652 H 6228.23 4.20918 0.201397 0
M  V30 65653 H 6226.96 3.15215 0.854799 0
M  V30 65654 H 6225.62 3.4435 -1.25772 0
M  V30 65655 H 6225.27 4.98368 0.681029 0
M  V30 65656 H 6224.97 5.8116 -0.867577 0
M  V30 65657 H 6226.49 6.10598 0.0171615 0
M  V30 65658 H 6227.9 5.32788 -2.11684 0
M  V30 65659 H 6226.3 5.25137 -2.90432 0
M  V30 65660 H 6227.37 3.83901 -2.96223 0
M  V30 65661 N 6228.71 0.841479 1.33255 0
M  V30 65662 C 6229.66 0.265158 2.31084 0
M  V30 65663 C 6230.66 -0.604283 1.58255 0
M  V30 65664 O 6231.86 -0.493554 1.73101 0
M  V30 65665 H 6228.24 0.0670237 0.749007 0
M  V30 65666 H 6230.21 1.10474 2.77197 0
M  V30 65667 C 6228.96 -0.542805 3.43437 0
M  V30 65668 H 6228.28 0.116908 3.99629 0
M  V30 65669 H 6229.72 -0.911859 4.14079 0
M  V30 65670 C 6228.18 -1.72274 2.89523 0
M  V30 65671 O 6228.71 -2.82151 2.85926 0
M  V30 65672 N 6226.91 -1.54548 2.46096 0
M  V30 65673 H 6226.46 -0.651664 2.49221 0
M  V30 65674 H 6226.42 -2.33644 2.10376 0
M  V30 65675 N 6230.19 -1.45807 0.598159 0
M  V30 65676 C 6231.61 -1.57451 0.261048 0
M  V30 65677 C 6231.81 -1.59097 -1.23654 0
M  V30 65678 O 6230.86 -1.51621 -2.01909 0
M  V30 65679 C 6232.18 -2.86155 0.923901 0
M  V30 65680 C 6233.72 -2.99814 0.898935 0
M  V30 65681 C 6234.2 -4.31275 1.54162 0
M  V30 65682 N 6235.69 -4.38011 1.50667 0
M  V30 65683 C 6236.43 -5.3838 1.97319 0
M  V30 65684 N 6235.92 -6.45338 2.52013 0
M  V30 65685 N 6237.71 -5.29678 1.88143 0
M  V30 65686 H 6229.87 -1.42982 1.57066 0
M  V30 65687 H 6232.13 -0.683015 0.657415 0
M  V30 65688 H 6231.83 -2.90805 1.97801 0
M  V30 65689 H 6231.71 -3.74608 0.441449 0
M  V30 65690 H 6234.1 -2.94736 -0.146598 0
M  V30 65691 H 6234.18 -2.12796 1.41956 0
M  V30 65692 H 6233.82 -4.37111 2.58643 0
M  V30 65693 H 6233.75 -5.17093 0.996093 0
M  V30 65694 H 6236.24 -3.61322 1.10703 0
M  V30 65695 H 6236.55 -7.18158 2.85428 0
M  V30 65696 H 6234.9 -6.46115 2.56047 0
M  V30 65697 H 6238.09 -4.45024 1.4516 0
M  V30 65698 H 6238.26 -6.07752 2.24814 0
M  V30 65699 N 6231.67 -0.336787 -1.53959 0
M  V30 65700 C 6232.92 0.261272 -2.00404 0
M  V30 65701 C 6233.24 1.51608 -1.22638 0
M  V30 65702 O 6232.51 1.93071 -0.331727 0
M  V30 65703 H 6231.09 0.0995334 -0.740339 0
M  V30 65704 H 6233.75 -0.456385 -1.89481 0
M  V30 65705 H 6232.85 0.508449 -3.07931 0
M  V30 65706 N 6233.15 1.57465 -0.0652509 0
M  V30 65707 C 6234.08 2.07938 0.940054 0
M  V30 65708 C 6235.06 0.983012 1.29521 0
M  V30 65709 O 6236.24 1.25594 1.40565 0
M  V30 65710 C 6233.37 2.5316 2.25006 0
M  V30 65711 C 6232.42 3.74169 2.04694 0
M  V30 65712 S 6233.25 5.19171 1.31232 0
M  V30 65713 C 6234.4 5.67719 2.63525 0
M  V30 65714 H 6234.64 2.92883 0.510553 0
M  V30 65715 H 6232.17 1.53695 0.147359 0
M  V30 65716 H 6234.13 2.79876 3.00299 0
M  V30 65717 H 6232.79 1.68495 2.65081 0
M  V30 65718 H 6231.98 4.03779 3.01627 0
M  V30 65719 H 6231.58 3.47792 1.37537 0
M  V30 65720 H 6233.88 5.74165 3.59641 0
M  V30 65721 H 6234.82 6.66714 2.38534 0
M  V30 65722 H 6235.23 4.95508 2.7043 0
M  V30 65723 N 6234.63 -0.208255 1.56218 0
M  V30 65724 C 6235.87 -0.93204 1.80113 0
M  V30 65725 C 6236.2 -1.83451 0.637126 0
M  V30 65726 O 6235.48 -1.91083 -0.362999 0
M  V30 65727 C 6235.76 -1.75959 3.14182 0
M  V30 65728 C 6235.62 -0.882719 4.41053 0
M  V30 65729 C 6236.93 -2.73478 3.44815 0
M  V30 65730 H 6234.05 -0.337405 0.65523 0
M  V30 65731 H 6236.7 -0.200133 1.88943 0
M  V30 65732 H 6234.85 -2.38358 3.06786 0
M  V30 65733 H 6236.52 -0.274445 4.60483 0
M  V30 65734 H 6234.76 -0.188769 4.33389 0
M  V30 65735 H 6235.43 -1.49644 5.31329 0
M  V30 65736 H 6237.91 -2.21213 3.52426 0
M  V30 65737 H 6236.78 -3.28473 4.39769 0
M  V30 65738 H 6237.04 -3.51877 2.67647 0
M  V30 65739 N 6236.1 -1.50256 -0.475475 0
M  V30 65740 C 6237.03 -1.71726 -1.58216 0
M  V30 65741 C 6238.01 -0.566177 -1.60401 0
M  V30 65742 O 6239.2 -0.804836 -1.76737 0
M  V30 65743 C 6236.33 -1.80736 -2.96567 0
M  V30 65744 C 6235.28 -2.95888 -3.09248 0
M  V30 65745 C 6234.61 -2.90036 -4.49203 0
M  V30 65746 C 6235.91 -4.36462 -2.86876 0
M  V30 65747 H 6237.6 -2.64385 -1.40502 0
M  V30 65748 H 6235.15 -1.27227 -0.674488 0
M  V30 65749 H 6237.1 -1.94341 -3.73911 0
M  V30 65750 H 6235.83 -0.846957 -3.15427 0
M  V30 65751 H 6234.49 -2.81927 -2.34335 0
M  V30 65752 H 6234.13 -1.9185 -4.64976 0
M  V30 65753 H 6233.83 -3.67338 -4.58625 0
M  V30 65754 H 6235.36 -3.05683 -5.28574 0
M  V30 65755 H 6236.77 -4.50972 -3.53973 0
M  V30 65756 H 6235.17 -5.15182 -3.07746 0
M  V30 65757 H 6236.24 -4.49136 -1.8277 0
M  V30 65758 N 6237.58 0.728346 -1.3976 0
M  V30 65759 C 6238.83 1.48509 -1.37075 0
M  V30 65760 C 6239.15 1.94976 0.0304577 0
M  V30 65761 O 6238.42 1.69456 0.982927 0
M  V30 65762 H 6237 0.55094 -0.504454 0
M  V30 65763 H 6239.66 0.864235 -1.74691 0
M  V30 65764 H 6238.76 2.36404 -2.03764 0
M  V30 65765 N 6239.06 1.25046 0.959235 0
M  V30 65766 C 6240.29 1.12345 1.74337 0
M  V30 65767 C 6240.71 -0.319277 1.85371 0
M  V30 65768 O 6240.07 -1.23125 1.33079 0
M  V30 65769 C 6240.12 1.77745 3.1375 0
M  V30 65770 O 6239.22 1.05397 3.98705 0
M  V30 65771 H 6238.56 0.392498 0.535576 0
M  V30 65772 H 6241.09 1.6552 1.20268 0
M  V30 65773 H 6241.1 1.83844 3.64232 0
M  V30 65774 H 6239.78 2.82712 3.05035 0
M  V30 65775 H 6238.35 1.07145 3.57176 0
M  V30 65776 N 6240.54 -1.16117 1.06558 0
M  V30 65777 C 6241.47 -2.22759 0.700055 0
M  V30 65778 C 6242.45 -1.67275 -0.308724 0
M  V30 65779 O 6243.63 -1.93333 -0.18326 0
M  V30 65780 C 6240.76 -3.47187 0.0885264 0
M  V30 65781 C 6239.72 -4.1558 1.02357 0
M  V30 65782 C 6239.04 -5.33991 0.27521 0
M  V30 65783 C 6240.34 -4.66258 2.35374 0
M  V30 65784 H 6242.04 -2.5359 1.59162 0
M  V30 65785 H 6239.58 -1.2189 0.766728 0
M  V30 65786 H 6241.54 -4.21019 -0.179072 0
M  V30 65787 H 6240.26 -3.15664 -0.83807 0
M  V30 65788 H 6238.92 -3.43678 1.27596 0
M  V30 65789 H 6238.57 -4.98722 -0.65459 0
M  V30 65790 H 6238.27 -5.80692 0.898386 0
M  V30 65791 H 6239.79 -6.10598 0.0152202 0
M  V30 65792 H 6241.21 -5.31657 2.14507 0
M  V30 65793 H 6239.6 -5.2359 2.93213 0
M  V30 65794 H 6240.67 -3.82325 2.98254 0
M  V30 65795 N 6242.02 -0.848534 -1.32807 0
M  V30 65796 C 6242.98 -0.293824 -2.27309 0
M  V30 65797 C 6243.98 0.542989 -1.51355 0
M  V30 65798 O 6245.17 0.355383 -1.70536 0
M  V30 65799 C 6242.3 0.584976 -3.35843 0
M  V30 65800 H 6243.49 -1.12783 -2.77885 0
M  V30 65801 H 6241.05 -0.62238 -1.43374 0
M  V30 65802 H 6241.78 1.44103 -2.90525 0
M  V30 65803 H 6241.57 -0.0139156 -3.92098 0
M  V30 65804 H 6243.06 0.96606 -4.06272 0
M  V30 65805 N 6243.49 1.45488 -0.605884 0
M  V30 65806 C 6244.46 2.28964 0.104009 0
M  V30 65807 C 6245.46 1.39673 0.796742 0
M  V30 65808 O 6246.65 1.61812 0.645164 0
M  V30 65809 C 6243.78 3.20652 1.15739 0
M  V30 65810 H 6244.97 2.93211 -0.629879 0
M  V30 65811 H 6242.53 1.51982 -0.364854 0
M  V30 65812 H 6243.26 2.61201 1.92209 0
M  V30 65813 H 6243.05 3.86422 0.664889 0
M  V30 65814 H 6244.54 3.83422 1.65461 0
M  V30 65815 N 6244.97 0.344947 1.53779 0
M  V30 65816 C 6246.2 -0.252487 2.05354 0
M  V30 65817 C 6246.62 -1.44103 1.21983 0
M  V30 65818 O 6245.97 -1.80703 0.255494 0
M  V30 65819 C 6246.02 -0.666169 3.55309 0
M  V30 65820 O 6245.74 0.47511 4.35516 0
M  V30 65821 C 6247.25 -1.32417 4.23061 0
M  V30 65822 H 6244.47 -0.0484967 0.669245 0
M  V30 65823 H 6247.01 0.49734 1.9836 0
M  V30 65824 H 6245.16 -1.36594 3.6252 0
M  V30 65825 H 6245.58 0.145067 5.24299 0
M  V30 65826 H 6247.05 -1.56437 5.29369 0
M  V30 65827 H 6247.53 -2.27816 3.75495 0
M  V30 65828 H 6248.14 -0.666403 4.20047 0
M  V30 65829 N 6246.45 -1.57428 0.0736007 0
M  V30 65830 C 6247.7 -1.93845 -0.595986 0
M  V30 65831 C 6248.03 -0.953991 -1.69153 0
M  V30 65832 O 6247.3 0.0165045 -1.94493 0
M  V30 65833 C 6247.59 -3.4052 -1.17125 0
M  V30 65834 C 6247.44 -4.49725 -0.082228 0
M  V30 65835 C 6248.76 -3.88049 -2.0762 0
M  V30 65836 H 6245.88 -0.704888 -0.215179 0
M  V30 65837 H 6248.52 -1.89484 0.139937 0
M  V30 65838 H 6246.67 -3.44367 -1.79843 0
M  V30 65839 H 6248.34 -4.57998 0.550941 0
M  V30 65840 H 6246.59 -4.29811 0.586939 0
M  V30 65841 H 6247.26 -5.49496 -0.525161 0
M  V30 65842 H 6249.73 -3.86219 -1.54835 0
M  V30 65843 H 6248.61 -4.91286 -2.44805 0
M  V30 65844 H 6248.87 -3.26095 -2.98521 0
M  V30 65845 N 6247.93 0.199967 -1.56326 0
M  V30 65846 C 6249.34 0.5506 -1.49802 0
M  V30 65847 C 6249.54 1.86094 -0.772729 0
M  V30 65848 O 6248.6 2.50448 -0.321243 0
M  V30 65849 C 6249.91 0.609847 -2.94451 0
M  V30 65850 C 6251.46 0.699012 -3.05095 0
M  V30 65851 C 6251.94 0.789412 -4.51146 0
M  V30 65852 N 6253.43 0.853068 -4.55277 0
M  V30 65853 C 6254.16 0.943099 -5.65591 0
M  V30 65854 N 6253.66 0.995735 -6.85607 0
M  V30 65855 N 6255.45 0.979911 -5.53493 0
M  V30 65856 H 6247.6 -0.659614 -2.01898 0
M  V30 65857 H 6249.87 -0.234332 -0.918582 0
M  V30 65858 H 6249.57 -0.283774 -3.50553 0
M  V30 65859 H 6249.45 1.4662 -3.47538 0
M  V30 65860 H 6251.83 1.58307 -2.49044 0
M  V30 65861 H 6251.91 -0.183441 -2.55141 0
M  V30 65862 H 6251.56 -0.0902709 -5.0782 0
M  V30 65863 H 6251.49 1.6876 -4.98826 0
M  V30 65864 H 6253.98 0.821834 -3.68855 0
M  V30 65865 H 6254.29 1.06481 -7.65429 0
M  V30 65866 H 6252.64 0.964496 -6.88275 0
M  V30 65867 H 6255.83 0.935594 -4.58655 0
M  V30 65868 H 6256 1.04662 -6.39492 0
M  V30 65869 N 6249.41 1.50506 0.4675 0
M  V30 65870 C 6250.34 1.72563 1.57303 0
M  V30 65871 C 6251.32 0.574675 1.60098 0
M  V30 65872 O 6252.5 0.814197 1.76308 0
M  V30 65873 C 6249.63 1.82306 2.95604 0
M  V30 65874 C 6248.59 2.97524 3.07675 0
M  V30 65875 C 6247.91 2.92414 4.47658 0
M  V30 65876 C 6249.21 4.37978 2.84557 0
M  V30 65877 H 6250.91 2.65127 1.39098 0
M  V30 65878 H 6248.45 1.27583 0.667731 0
M  V30 65879 H 6250.41 1.96321 3.72875 0
M  V30 65880 H 6249.13 0.863673 3.14973 0
M  V30 65881 H 6247.79 2.83166 2.32837 0
M  V30 65882 H 6247.44 1.94314 4.63952 0
M  V30 65883 H 6247.14 3.69765 4.5667 0
M  V30 65884 H 6248.66 3.08482 5.26945 0
M  V30 65885 H 6250.07 4.52843 3.51577 0
M  V30 65886 H 6248.47 5.16806 3.0501 0
M  V30 65887 H 6249.54 4.50099 1.80386 0
M  V30 65888 N 6250.88 -0.720924 1.40144 0
M  V30 65889 C 6251.82 -1.84565 1.35898 0
M  V30 65890 C 6252.83 -1.60624 0.265288 0
M  V30 65891 O 6254.02 -1.70597 0.525258 0
M  V30 65892 C 6251.12 -3.20867 1.09075 0
M  V30 65893 C 6250.29 -3.7205 2.29995 0
M  V30 65894 C 6249.35 -4.8695 1.99414 0
M  V30 65895 O 6248.38 -4.99879 2.72231 0
M  V30 65896 N 6249.58 -5.72358 0.968846 0
M  V30 65897 H 6252.34 -1.88709 2.32829 0
M  V30 65898 H 6249.9 -0.902245 1.34429 0
M  V30 65899 H 6251.9 -3.95323 0.866118 0
M  V30 65900 H 6250.47 -3.11905 0.208297 0
M  V30 65901 H 6249.69 -2.88785 2.68322 0
M  V30 65902 H 6250.97 -4.0298 3.10619 0
M  V30 65903 H 6250.37 -5.64517 0.365658 0
M  V30 65904 H 6248.93 -6.46821 0.804114 0
M  V30 65905 N 6252.36 -1.25553 -0.95259 0
M  V30 65906 C 6253.33 -1.06193 -2.03115 0
M  V30 65907 C 6254.33 -0.0140531 -1.60794 0
M  V30 65908 O 6255.52 -0.256427 -1.72302 0
M  V30 65909 C 6252.65 -0.612792 -3.35347 0
M  V30 65910 H 6253.84 -2.0194 -2.21721 0
M  V30 65911 H 6251.39 -1.07988 -1.12996 0
M  V30 65912 H 6252.13 0.347179 -3.22436 0
M  V30 65913 H 6251.91 -1.3693 -3.67414 0
M  V30 65914 H 6253.4 -0.498839 -4.1461 0
M  V30 65915 N 6253.84 1.15551 -1.07172 0
M  V30 65916 C 6255.09 1.85926 -0.792216 0
M  V30 65917 C 6255.41 1.82623 0.683656 0
M  V30 65918 O 6254.68 1.2659 1.49505 0
M  V30 65919 H 6253.26 0.688382 -0.290067 0
M  V30 65920 H 6255.92 1.40084 -1.35508 0
M  V30 65921 H 6255.02 2.91115 -1.1251 0
M  V30 65922 N 6255.32 0.855565 1.32355 0
M  V30 65923 C 6256.27 0.289652 2.30789 0
M  V30 65924 C 6257.26 -0.587464 1.58887 0
M  V30 65925 O 6258.47 -0.475167 1.73615 0
M  V30 65926 H 6254.84 0.0749642 0.748254 0
M  V30 65927 H 6256.81 1.13407 2.7601 0
M  V30 65928 C 6255.56 -0.506349 3.43993 0
M  V30 65929 H 6254.89 0.159287 3.99483 0
M  V30 65930 H 6256.33 -0.867889 4.15023 0
M  V30 65931 C 6254.78 -1.69193 2.91334 0
M  V30 65932 O 6255.31 -2.79103 2.88902 0
M  V30 65933 N 6253.52 -1.5193 2.47721 0
M  V30 65934 H 6253.07 -0.625194 2.49898 0
M  V30 65935 H 6253.03 -2.31399 2.12842 0
M  V30 65936 N 6256.8 -1.45165 0.613591 0
M  V30 65937 C 6257.76 -2.29016 -0.0918649 0
M  V30 65938 C 6258.76 -1.40094 -0.789324 0
M  V30 65939 O 6259.95 -1.62152 -0.636574 0
M  V30 65940 C 6257.08 -3.21261 -1.14036 0
M  V30 65941 H 6258.28 -2.92873 0.64542 0
M  V30 65942 H 6255.83 -1.51786 0.372908 0
M  V30 65943 H 6256.56 -2.62217 -1.90821 0
M  V30 65944 H 6256.35 -3.86769 -0.644387 0
M  V30 65945 H 6257.84 -3.84294 -1.63425 0
M  V30 65946 N 6258.28 -0.353098 -1.53594 0
M  V30 65947 C 6259.5 0.241593 -2.05485 0
M  V30 65948 C 6259.92 1.43454 -1.22745 0
M  V30 65949 O 6259.28 1.80565 -0.265073 0
M  V30 65950 C 6259.33 0.647317 -3.55657 0
M  V30 65951 O 6259.05 -0.4982 -4.35258 0
M  V30 65952 C 6260.55 1.30172 -4.23757 0
M  V30 65953 H 6257.77 0.0449469 -0.669493 0
M  V30 65954 H 6260.31 -0.507853 -1.98094 0
M  V30 65955 H 6258.47 1.34669 -3.6324 0
M  V30 65956 H 6258.88 -0.17287 -5.24215 0
M  V30 65957 H 6260.36 1.53628 -5.30191 0
M  V30 65958 H 6260.83 2.25822 -3.76698 0
M  V30 65959 H 6261.44 0.644117 -4.20394 0
M  V30 65960 N 6259.75 1.57387 -0.0819485 0
M  V30 65961 C 6260.66 2.16807 0.896214 0
M  V30 65962 C 6261.68 1.13395 1.31976 0
M  V30 65963 O 6262.86 1.45707 1.39037 0
M  V30 65964 C 6259.92 2.72615 2.14201 0
M  V30 65965 C 6258.98 3.90935 1.77392 0
M  V30 65966 C 6258.21 4.44072 2.96033 0
M  V30 65967 O 6258.44 3.96181 4.10362 0
M  V30 65968 O 6257.37 5.35271 2.75261 0
M  V30 65969 H 6261.2 3.00772 0.420721 0
M  V30 65970 H 6258.78 1.48727 0.141685 0
M  V30 65971 H 6260.66 3.0834 2.87236 0
M  V30 65972 H 6259.34 1.91703 2.60829 0
M  V30 65973 H 6258.25 3.60045 1.01578 0
M  V30 65974 H 6259.58 4.7317 1.35539 0
M  V30 65975 N 6261.23 -0.191674 1.5643 0
M  V30 65976 C 6262.48 -0.912884 1.81092 0
M  V30 65977 C 6262.81 -1.82765 0.656547 0
M  V30 65978 O 6262.09 -1.91457 -0.342712 0
M  V30 65979 C 6262.37 -1.72617 3.16031 0
M  V30 65980 C 6262.22 -0.83589 4.41965 0
M  V30 65981 C 6263.54 -2.69806 3.47697 0
M  V30 65982 H 6260.66 -0.330437 0.658772 0
M  V30 65983 H 6263.3 -0.180082 1.89145 0
M  V30 65984 H 6261.45 -2.35091 3.09297 0
M  V30 65985 H 6263.12 -0.225589 4.60748 0
M  V30 65986 H 6261.37 -0.142792 4.33565 0
M  V30 65987 H 6262.04 -1.44 5.32887 0
M  V30 65988 H 6264.51 -2.17463 3.54752 0
M  V30 65989 H 6263.39 -3.23791 4.43228 0
M  V30 65990 H 6263.65 -3.49019 2.71364 0
M  V30 65991 N 6262.71 -1.50752 -0.459512 0
M  V30 65992 C 6264.12 -1.55047 -1.04007 0
M  V30 65993 C 6264.47 -0.360769 -1.92855 0
M  V30 65994 O 6263.6 0.525038 -2.09934 0
M  V30 65995 C 6264.19 -2.80981 -1.89301 0
M  V30 65996 C 6262.75 -2.87919 -2.42445 0
M  V30 65997 C 6261.9 -2.49468 -1.21082 0
M  V30 65998 H 6264.85 -1.56849 -0.241655 0
M  V30 65999 H 6264.87 -2.63491 -2.74504 0
M  V30 66000 H 6264.38 -3.67551 -1.2461 0
M  V30 66001 H 6262.48 -2.05728 -3.10655 0
M  V30 66002 H 6262.6 -3.91077 -2.7676 0
M  V30 66003 H 6260.96 -2.02165 -1.54924 0
M  V30 66004 H 6261.74 -3.38359 -0.58035 0
M  V30 66005 N 6264.19 0.713481 -1.40525 0
M  V30 66006 C 6265.15 1.80927 -1.40705 0
M  V30 66007 C 6266.15 1.57967 -0.300505 0
M  V30 66008 O 6267.34 1.6497 -0.559514 0
M  V30 66009 C 6264.47 3.19049 -1.20086 0
M  V30 66010 H 6265.67 1.82166 -2.38235 0
M  V30 66011 H 6263.22 0.919329 -1.26404 0
M  V30 66012 H 6263.95 3.2346 -0.233251 0
M  V30 66013 H 6263.74 3.37114 -2.00241 0
M  V30 66014 H 6265.23 3.99073 -1.23005 0
M  V30 66015 N 6265.67 1.26056 0.945918 0
M  V30 66016 C 6266.61 1.07006 2.06525 0
M  V30 66017 C 6267.61 -0.00162137 1.694 0
M  V30 66018 O 6268.81 0.154686 1.79334 0
M  V30 66019 H 6265.19 0.329153 0.676138 0
M  V30 66020 H 6267.16 2.01877 2.19746 0
M  V30 66021 C 6265.91 0.714756 3.40274 0
M  V30 66022 H 6265.23 1.53124 3.69314 0
M  V30 66023 H 6266.67 0.621218 4.19424 0
M  V30 66024 C 6265.13 -0.579792 3.31874 0
M  V30 66025 O 6265.66 -1.61946 3.67609 0
M  V30 66026 N 6263.87 -0.568664 2.84982 0
M  V30 66027 H 6263.41 0.277777 2.56098 0
M  V30 66028 H 6263.37 -1.43496 2.79743 0
M  V30 66029 N 6267.14 -1.14981 1.07783 0
M  V30 66030 C 6268.37 -1.90285 0.825002 0
M  V30 66031 C 6268.79 -1.77711 -0.616462 0
M  V30 66032 O 6268.15 -1.11286 -1.43126 0
M  V30 66033 C 6268.2 -3.38477 1.2436 0
M  V30 66034 O 6267.3 -4.10537 0.391598 0
M  V30 66035 H 6266.65 -0.592272 0.300183 0
M  V30 66036 H 6269.18 -1.45582 1.4376 0
M  V30 66037 H 6269.19 -3.8928 1.22169 0
M  V30 66038 H 6267.86 -3.46948 2.29347 0
M  V30 66039 H 6266.44 -3.69845 0.476377 0
M  V30 66040 N 6268.62 -0.862572 -1.31899 0
M  V30 66041 C 6269.85 -0.484077 -2.01157 0
M  V30 66042 C 6270.27 0.921422 -1.64788 0
M  V30 66043 O 6269.62 1.6025 -0.873272 0
M  V30 66044 C 6269.67 -0.622834 -3.56094 0
M  V30 66045 O 6269.39 -1.97298 -3.91159 0
M  V30 66046 C 6270.9 -0.244381 -4.42626 0
M  V30 66047 H 6268.12 -0.189401 -0.643715 0
M  V30 66048 H 6270.66 -1.1617 -1.683 0
M  V30 66049 H 6268.81 0.00714547 -3.87399 0
M  V30 66050 H 6269.23 -1.97542 -4.85878 0
M  V30 66051 H 6270.7 -0.392447 -5.50603 0
M  V30 66052 H 6271.18 0.815854 -4.31556 0
M  V30 66053 H 6271.79 -0.849757 -4.16724 0
M  V30 66054 N 6270.1 1.44837 -0.62128 0
M  V30 66055 C 6271.35 2.02432 -0.122036 0
M  V30 66056 C 6271.68 1.48684 1.24927 0
M  V30 66057 O 6270.95 0.666951 1.82707 0
M  V30 66058 C 6271.24 3.59967 -0.0979778 0
M  V30 66059 C 6271.09 4.24019 -1.50092 0
M  V30 66060 C 6272.41 4.36226 0.582685 0
M  V30 66061 H 6269.53 0.735574 -0.0458206 0
M  V30 66062 H 6272.17 1.72528 -0.795873 0
M  V30 66063 H 6270.32 3.85575 0.475834 0
M  V30 66064 H 6271.99 4.09551 -2.12287 0
M  V30 66065 H 6270.24 3.81893 -2.05768 0
M  V30 66066 H 6270.91 5.32989 -1.43621 0
M  V30 66067 H 6273.38 4.15992 0.0948133 0
M  V30 66068 H 6272.26 5.45946 0.568671 0
M  V30 66069 H 6272.52 4.10104 1.65128 0
M  V30 66070 N 6271.58 0.361238 1.53404 0
M  V30 66071 C 6272.51 -0.479288 2.28528 0
M  V30 66072 C 6273.49 -1.08764 1.30784 0
M  V30 66073 O 6274.67 -1.1057 1.59649 0
M  V30 66074 C 6271.8 -1.62139 3.07129 0
M  V30 66075 C 6270.76 -1.1405 4.12525 0
M  V30 66076 C 6270.08 -2.37251 4.79183 0
M  V30 66077 C 6271.38 -0.228338 5.21801 0
M  V30 66078 H 6273.08 0.147449 2.99037 0
M  V30 66079 H 6270.62 0.0723557 1.43818 0
M  V30 66080 H 6272.58 -2.216 3.58429 0
M  V30 66081 H 6271.3 -2.27529 2.34303 0
M  V30 66082 H 6269.96 -0.568608 3.62164 0
M  V30 66083 H 6269.61 -3.01088 4.02933 0
M  V30 66084 H 6269.31 -2.05748 5.50401 0
M  V30 66085 H 6270.83 -2.97405 5.33275 0
M  V30 66086 H 6272.25 -0.730297 5.6863 0
M  V30 66087 H 6270.64 -0.00439163 6.001 0
M  V30 66088 H 6271.71 0.730705 4.79363 0
M  V30 66089 N 6273.06 -1.57341 0.090294 0
M  V30 66090 C 6274.28 -1.98936 -0.586455 0
M  V30 66091 C 6274.71 -0.968897 -1.61227 0
M  V30 66092 O 6274.06 0.0632231 -1.8119 0
M  V30 66093 C 6274.11 -3.39513 -1.21504 0
M  V30 66094 O 6273.22 -3.40211 -2.33088 0
M  V30 66095 H 6272.56 -0.647014 -0.149227 0
M  V30 66096 H 6275.09 -2.0389 0.170285 0
M  V30 66097 H 6275.1 -3.77102 -1.55749 0
M  V30 66098 H 6273.77 -4.13309 -0.463494 0
M  V30 66099 H 6272.35 -3.14412 -2.00498 0
M  V30 66100 N 6274.53 0.183375 -1.5653 0
M  V30 66101 C 6275.78 0.901932 -1.81305 0
M  V30 66102 C 6276.11 1.82763 -0.665433 0
M  V30 66103 O 6275.36 1.92579 0.348094 0
M  V30 66104 C 6275.66 1.74044 -3.1216 0
M  V30 66105 C 6275.33 0.964711 -4.40459 0
M  V30 66106 C 6273.99 0.750574 -4.7531 0
M  V30 66107 C 6276.34 0.419732 -5.19507 0
M  V30 66108 C 6273.67 -0.0198353 -5.86697 0
M  V30 66109 C 6276.02 -0.337527 -6.31699 0
M  V30 66110 C 6274.69 -0.562574 -6.65125 0
M  V30 66111 H 6273.96 0.33004 -0.663441 0
M  V30 66112 H 6276.6 0.167576 -1.90765 0
M  V30 66113 H 6274.91 2.54382 -2.97988 0
M  V30 66114 H 6276.61 2.29923 -3.28537 0
M  V30 66115 H 6273.2 1.14164 -4.13116 0
M  V30 66116 H 6277.38 0.57254 -4.92986 0
M  V30 66117 H 6272.64 -0.204053 -6.11059 0
M  V30 66118 H 6276.81 -0.767132 -6.92162 0
M  V30 66119 H 6274.44 -1.16143 -7.51275 0
M  V30 66120 N 6276.01 1.50994 0.451511 0
M  V30 66121 C 6277.25 1.6461 1.21174 0
M  V30 66122 C 6277.62 0.347955 1.88821 0
M  V30 66123 O 6278.82 0.359737 2.66382 0
M  V30 66124 C 6277.09 2.80678 2.21257 0
M  V30 66125 S 6278.65 3.14541 3.05956 0
M  V30 66126 H 6275.47 0.580084 0.411125 0
M  V30 66127 H 6278.07 1.8885 0.505545 0
M  V30 66128 H 6276.77 3.73455 1.70174 0
M  V30 66129 H 6276.3 2.58583 2.96477 0
M  V30 66130 H 6278.32 2.59879 4.22702 0
M  V30 66131 N 6277.49 -0.706019 1.40901 0
M  V30 66132 C 6278.45 -1.80179 1.41662 0
M  V30 66133 C 6279.45 -1.57806 0.308878 0
M  V30 66134 O 6280.64 -1.64671 0.568255 0
M  V30 66135 C 6277.78 -3.18408 1.21776 0
M  V30 66136 H 6278.97 -1.809 2.39197 0
M  V30 66137 H 6276.52 -0.912613 1.2689 0
M  V30 66138 H 6277.26 -3.23332 0.250401 0
M  V30 66139 H 6277.04 -3.36047 2.02026 0
M  V30 66140 H 6278.53 -3.98415 1.2512 0
M  V30 66141 N 6278.97 -1.26556 -0.93922 0
M  V30 66142 C 6280.22 -1.12216 -1.68564 0
M  V30 66143 C 6280.54 0.334146 -1.91608 0
M  V30 66144 O 6279.8 1.26171 -1.49597 0
M  V30 66145 C 6280.1 -1.83858 -3.06481 0
M  V30 66146 C 6279.76 -3.3375 -3.03186 0
M  V30 66147 C 6278.43 -3.74636 -3.01995 0
M  V30 66148 C 6280.78 -4.29443 -2.95345 0
M  V30 66149 C 6278.11 -5.09601 -2.9073 0
M  V30 66150 C 6280.46 -5.64449 -2.85621 0
M  V30 66151 C 6279.12 -6.04645 -2.82774 0
M  V30 66152 H 6278.39 -0.410628 -0.616819 0
M  V30 66153 H 6281.04 -1.57023 -1.09618 0
M  V30 66154 H 6279.34 -1.31526 -3.69064 0
M  V30 66155 H 6281.04 -1.70201 -3.63087 0
M  V30 66156 H 6277.63 -3.01226 -3.04895 0
M  V30 66157 H 6281.81 -3.98835 -2.95372 0
M  V30 66158 H 6277.07 -5.39904 -2.86904 0
M  V30 66159 H 6281.24 -6.3828 -2.78517 0
M  V30 66160 H 6278.87 -7.0918 -2.73801 0
M  V30 66161 N 6280.45 1.14407 -1.08391 0
M  V30 66162 C 6281.41 2.1768 -0.71751 0
M  V30 66163 C 6282.41 1.58882 0.247604 0
M  V30 66164 O 6283.6 1.74179 0.0271698 0
M  V30 66165 C 6280.73 3.40848 -0.059322 0
M  V30 66166 H 6281.92 2.51608 -1.63197 0
M  V30 66167 H 6279.48 1.29053 -0.881765 0
M  V30 66168 H 6280.21 3.12499 0.866877 0
M  V30 66169 H 6280 3.8479 -0.753612 0
M  V30 66170 H 6281.49 4.17203 0.182006 0
M  V30 66171 N 6281.93 0.869555 1.3144 0
M  V30 66172 C 6283.17 0.480995 1.97013 0
M  V30 66173 C 6283.5 -0.964168 1.68575 0
M  V30 66174 O 6282.78 -1.67889 0.982012 0
M  V30 66175 C 6283.06 0.738188 3.52453 0
M  V30 66176 C 6282.92 2.23285 3.90466 0
M  V30 66177 C 6284.23 0.204392 4.39625 0
M  V30 66178 H 6281.35 0.176231 0.71562 0
M  V30 66179 H 6284 1.09072 1.55574 0
M  V30 66180 H 6282.15 0.219226 3.87881 0
M  V30 66181 H 6283.82 2.81904 3.65141 0
M  V30 66182 H 6282.06 2.70558 3.39088 0
M  V30 66183 H 6282.73 2.36346 4.98843 0
M  V30 66184 H 6285.21 0.648372 4.11017 0
M  V30 66185 H 6284.08 0.4138 5.47338 0
M  V30 66186 H 6284.34 -0.893655 4.32974 0
M  V30 66187 N 6283.4 -1.44506 0.628953 0
M  V30 66188 C 6284.68 -1.95497 0.0635884 0
M  V30 66189 C 6285.06 -1.57097 -1.4101 0
M  V30 66190 O 6284.41 -0.843969 -2.12343 0
M  V30 66191 C 6284.62 -3.47841 0.284173 0
M  V30 66192 C 6285.97 -4.24234 0.176223 0
M  V30 66193 O 6286.99 -3.55548 0.215423 0
M  V30 66194 O 6285.85 -5.46442 0.0793224 0
M  V30 66195 H 6282.94 -0.826665 -0.0235538 0
M  V30 66196 H 6285.49 -1.54567 0.700505 0
M  V30 66197 H 6284.26 -3.68833 1.30684 0
M  V30 66198 H 6283.88 -3.95712 -0.386986 0
M  V30 66199 N 6284.88 -0.369369 -1.5321 0
M  V30 66200 C 6286.29 0.109024 -1.86381 0
M  V30 66201 C 6286.64 1.47844 -1.28983 0
M  V30 66202 O 6285.77 2.07526 -0.61334 0
M  V30 66203 C 6286.36 0.204607 -3.38182 0
M  V30 66204 C 6284.92 0.627261 -3.71137 0
M  V30 66205 C 6284.07 -0.223183 -2.764 0
M  V30 66206 H 6287.02 -0.588019 -1.47404 0
M  V30 66207 H 6287.04 1.02748 -3.66365 0
M  V30 66208 H 6286.55 -0.792215 -3.79928 0
M  V30 66209 H 6284.65 1.63218 -3.34949 0
M  V30 66210 H 6284.77 0.399243 -4.77434 0
M  V30 66211 H 6283.13 0.308519 -2.52825 0
M  V30 66212 H 6283.91 -1.21762 -3.20981 0
M  V30 66213 N 6286.36 1.57291 -0.0986369 0
M  V30 66214 C 6287.32 2.13073 0.844554 0
M  V30 66215 C 6288.32 1.0608 1.20845 0
M  V30 66216 O 6289.51 1.31951 1.13731 0
M  V30 66217 C 6286.64 2.65423 2.13924 0
M  V30 66218 H 6287.84 2.9773 0.360125 0
M  V30 66219 H 6285.39 1.55575 0.150397 0
M  V30 66220 H 6286.13 1.84296 2.66844 0
M  V30 66221 H 6285.91 3.43653 1.88799 0
M  V30 66222 H 6287.4 3.08561 2.81389 0
M  V30 66223 N 6287.84 -0.175072 1.56625 0
M  V30 66224 C 6288.78 -1.2168 1.96119 0
M  V30 66225 C 6289.75 -1.44188 0.824569 0
M  V30 66226 O 6290.94 -1.5699 1.08438 0
M  V30 66227 C 6288.08 -2.55199 2.32309 0
M  V30 66228 C 6287.19 -2.40102 3.59131 0
M  V30 66229 C 6286.33 -3.66461 3.84551 0
M  V30 66230 C 6285.37 -3.46282 5.04733 0
M  V30 66231 N 6284.5 -4.64702 5.26305 0
M  V30 66232 H 6289.34 -0.873006 2.84926 0
M  V30 66233 H 6286.88 -0.419671 1.40986 0
M  V30 66234 H 6288.84 -3.33013 2.51313 0
M  V30 66235 H 6287.47 -2.87582 1.46618 0
M  V30 66236 H 6286.52 -1.53483 3.48062 0
M  V30 66237 H 6287.83 -2.21136 4.47102 0
M  V30 66238 H 6286.99 -4.52712 4.03902 0
M  V30 66239 H 6285.73 -3.88403 2.94948 0
M  V30 66240 H 6284.73 -2.58418 4.85284 0
M  V30 66241 H 6285.96 -3.25766 5.95863 0
M  V30 66242 H 6283.9 -4.86869 4.39652 0
M  V30 66243 H 6283.82 -4.48634 6.08493 0
M  V30 66244 H 6285.09 -5.52246 5.50132 0
M  V30 66245 N 6289.32 -1.51231 -0.443497 0
M  V30 66246 C 6290.28 -1.71517 -1.52035 0
M  V30 66247 C 6291.28 -0.585279 -1.4977 0
M  V30 66248 O 6292.47 -0.85274 -1.51901 0
M  V30 66249 C 6289.6 -1.76594 -2.91595 0
M  V30 66250 H 6290.79 -2.67617 -1.35355 0
M  V30 66251 H 6288.35 -1.41128 -0.671761 0
M  V30 66252 H 6289.08 -0.822853 -3.13687 0
M  V30 66253 H 6288.87 -2.58703 -2.94644 0
M  V30 66254 H 6290.36 -1.94148 -3.69725 0
M  V30 66255 N 6290.79 0.698537 -1.41274 0
M  V30 66256 C 6292.02 1.48523 -1.43613 0
M  V30 66257 C 6292.43 1.8916 -0.0389594 0
M  V30 66258 O 6291.77 1.57143 0.951402 0
M  V30 66259 C 6291.84 2.78041 -2.27889 0
M  V30 66260 C 6291.5 2.59625 -3.7609 0
M  V30 66261 C 6292.5 2.25766 -4.68322 0
M  V30 66262 C 6290.18 2.75358 -4.20099 0
M  V30 66263 C 6292.18 2.07873 -6.02551 0
M  V30 66264 C 6289.86 2.57082 -5.54393 0
M  V30 66265 C 6290.86 2.2339 -6.45435 0
M  V30 66266 O 6290.55 2.05271 -7.77251 0
M  V30 66267 H 6290.28 0.464339 -0.49129 0
M  V30 66268 H 6292.84 0.867818 -1.86167 0
M  V30 66269 H 6291.07 3.42177 -1.80144 0
M  V30 66270 H 6292.75 3.39833 -2.21965 0
M  V30 66271 H 6293.52 2.13228 -4.35613 0
M  V30 66272 H 6289.4 3.00566 -3.49544 0
M  V30 66273 H 6292.94 1.81498 -6.73576 0
M  V30 66274 H 6288.84 2.69209 -5.86683 0
M  V30 66275 H 6289.61 2.20057 -7.88364 0
M  V30 66276 N 6292.27 1.27052 0.932495 0
M  V30 66277 C 6293.22 1.09363 2.03245 0
M  V30 66278 C 6294.19 -0.00390432 1.661 0
M  V30 66279 O 6295.37 0.157516 1.90149 0
M  V30 66280 C 6292.51 0.741822 3.37033 0
M  V30 66281 C 6291.63 1.9165 3.87162 0
M  V30 66282 C 6290.76 1.50701 5.09375 0
M  V30 66283 C 6289.8 2.64946 5.51788 0
M  V30 66284 N 6288.94 2.24619 6.652 0
M  V30 66285 H 6293.78 2.03488 2.17708 0
M  V30 66286 H 6291.31 1.01303 1.06659 0
M  V30 66287 H 6293.27 0.518692 4.13963 0
M  V30 66288 H 6291.9 -0.162463 3.22391 0
M  V30 66289 H 6290.95 2.25231 3.06554 0
M  V30 66290 H 6292.27 2.77368 4.1457 0
M  V30 66291 H 6291.42 1.24484 5.93792 0
M  V30 66292 H 6290.16 0.620857 4.83732 0
M  V30 66293 H 6289.16 2.91883 4.65923 0
M  V30 66294 H 6290.39 3.54175 5.79428 0
M  V30 66295 H 6288.34 1.38449 6.41224 0
M  V30 66296 H 6288.25 3.03877 6.92239 0
M  V30 66297 H 6289.52 2.01637 7.52969 0
M  V30 66298 N 6293.75 -1.13831 1.08997 0
M  V30 66299 C 6295.03 -1.8123 0.735873 0
M  V30 66300 C 6295.41 -1.96174 -0.779668 0
M  V30 66301 O 6294.75 -1.52635 -1.70043 0
M  V30 66302 C 6294.96 -3.16541 1.46979 0
M  V30 66303 C 6296.31 -3.91952 1.63274 0
M  V30 66304 O 6297.34 -3.2615 1.43194 0
M  V30 66305 O 6296.2 -5.09969 1.96453 0
M  V30 66306 H 6293.29 -0.783785 0.263838 0
M  V30 66307 H 6295.84 -1.20796 1.1919 0
M  V30 66308 H 6294.61 -3.00863 2.50194 0
M  V30 66309 H 6294.23 -3.84672 1.00564 0
M  V30 66310 N 6295.23 -0.876513 -1.30977 0
M  V30 66311 C 6296.46 -0.504652 -2.00342 0
M  V30 66312 C 6296.87 0.909128 -1.65926 0
M  V30 66313 O 6296.21 1.60809 -0.888044 0
M  V30 66314 C 6296.27 -0.589643 -3.54631 0
M  V30 66315 C 6295.93 -1.96621 -4.1254 0
M  V30 66316 C 6296.93 -2.93456 -4.29162 0
M  V30 66317 C 6294.62 -2.2693 -4.48116 0
M  V30 66318 C 6296.61 -4.18738 -4.80559 0
M  V30 66319 C 6294.3 -3.52461 -4.99214 0
M  V30 66320 C 6295.3 -4.4818 -5.15387 0
M  V30 66321 O 6294.98 -5.71484 -5.65386 0
M  V30 66322 H 6294.72 -0.194445 -0.647431 0
M  V30 66323 H 6297.27 -1.18132 -1.6803 0
M  V30 66324 H 6295.5 0.143966 -3.86432 0
M  V30 66325 H 6297.19 -0.230274 -4.05246 0
M  V30 66326 H 6297.95 -2.71349 -4.01988 0
M  V30 66327 H 6293.83 -1.53199 -4.348 0
M  V30 66328 H 6297.38 -4.93457 -4.93098 0
M  V30 66329 H 6293.27 -3.74408 -5.25822 0
M  V30 66330 H 6294.04 -5.73747 -5.83744 0
M  V30 66331 N 6296.71 1.4417 -0.636607 0
M  V30 66332 C 6297.64 2.33443 0.0517898 0
M  V30 66333 C 6298.62 1.48522 0.829174 0
M  V30 66334 O 6299.8 1.77228 0.793965 0
M  V30 66335 C 6296.93 3.31667 1.03026 0
M  V30 66336 C 6295.89 4.26448 0.364137 0
M  V30 66337 C 6295.21 5.14582 1.4529 0
M  V30 66338 C 6296.51 5.1713 -0.733066 0
M  V30 66339 H 6298.21 2.91253 -0.693691 0
M  V30 66340 H 6295.75 1.40048 -0.33504 0
M  V30 66341 H 6297.71 3.93007 1.52063 0
M  V30 66342 H 6296.43 2.72077 1.8067 0
M  V30 66343 H 6295.09 3.66448 -0.105634 0
M  V30 66344 H 6294.74 4.51342 2.22035 0
M  V30 66345 H 6294.44 5.7881 1.01254 0
M  V30 66346 H 6295.96 5.78795 1.94496 0
M  V30 66347 H 6297.37 5.72375 -0.325565 0
M  V30 66348 H 6295.77 5.8999 -1.09689 0
M  V30 66349 H 6296.84 4.57814 -1.59795 0
M  V30 66350 N 6298.18 0.377489 1.53012 0
M  V30 66351 C 6299.15 -0.451138 2.24716 0
M  V30 66352 C 6300.15 -0.999963 1.25926 0
M  V30 66353 O 6301.34 -0.883831 1.50113 0
M  V30 66354 C 6298.47 -1.63174 2.99311 0
M  V30 66355 H 6299.66 0.176463 2.9938 0
M  V30 66356 H 6297.22 0.129385 1.55764 0
M  V30 66357 H 6297.95 -2.2971 2.28918 0
M  V30 66358 H 6297.74 -1.24504 3.71808 0
M  V30 66359 H 6299.23 -2.21868 3.53786 0
M  V30 66360 N 6299.66 -1.57237 0.106977 0
M  V30 66361 C 6300.89 -1.99547 -0.565322 0
M  V30 66362 C 6301.31 -0.985943 -1.6019 0
M  V30 66363 O 6300.67 0.044002 -1.81247 0
M  V30 66364 C 6300.72 -3.40783 -1.17896 0
M  V30 66365 O 6299.82 -3.42664 -2.29467 0
M  V30 66366 H 6299.16 -0.648561 -0.142356 0
M  V30 66367 H 6301.69 -2.03698 0.1919 0
M  V30 66368 H 6301.7 -3.78733 -1.5174 0
M  V30 66369 H 6300.38 -4.13778 -0.419631 0
M  V30 66370 H 6298.96 -3.16521 -1.97152 0
M  V30 66371 N 6301.14 0.166763 -1.56715 0
M  V30 66372 C 6302.39 0.880908 -1.81891 0
M  V30 66373 C 6302.71 1.82583 -0.684715 0
M  V30 66374 O 6301.98 1.93665 0.295105 0
M  V30 66375 H 6300.56 0.328287 -0.670997 0
M  V30 66376 H 6303.22 0.16549 -1.94196 0
M  V30 66377 H 6302.32 1.45507 -2.76105 0
M  V30 66378 N 6302.62 1.51464 0.43547 0
M  V30 66379 C 6303.87 1.63901 1.18241 0
M  V30 66380 C 6304.19 0.358389 1.91678 0
M  V30 66381 O 6303.46 -0.625823 1.85635 0
M  V30 66382 H 6302.04 0.604056 0.439461 0
M  V30 66383 H 6304.7 1.88402 0.499084 0
M  V30 66384 H 6303.8 2.46756 1.91096 0
M  V30 66385 N 6304.1 -0.691035 1.41642 0
M  V30 66386 C 6305.03 -1.81641 1.39782 0
M  V30 66387 C 6306.04 -1.60025 0.299299 0
M  V30 66388 O 6307.23 -1.69444 0.561326 0
M  V30 66389 C 6304.33 -3.18481 1.15857 0
M  V30 66390 C 6303.5 -3.67087 2.37835 0
M  V30 66391 C 6302.56 -4.82611 2.09698 0
M  V30 66392 O 6301.59 -4.93992 2.82773 0
M  V30 66393 N 6302.79 -5.70174 1.09003 0
M  V30 66394 H 6305.56 -1.83727 2.36779 0
M  V30 66395 H 6303.12 -0.873528 1.36313 0
M  V30 66396 H 6305.11 -3.93397 0.949777 0
M  V30 66397 H 6303.68 -3.11393 0.27441 0
M  V30 66398 H 6302.9 -2.83029 2.74387 0
M  V30 66399 H 6304.19 -3.96301 3.19097 0
M  V30 66400 H 6303.58 -5.63614 0.485318 0
M  V30 66401 H 6302.14 -6.4497 0.941133 0
M  V30 66402 N 6305.57 -1.27545 -0.925744 0
M  V30 66403 C 6306.99 -1.12684 -1.4886 0
M  V30 66404 C 6307.34 0.287468 -1.94083 0
M  V30 66405 O 6306.46 1.18057 -1.8136 0
M  V30 66406 C 6307.06 -2.03944 -2.70541 0
M  V30 66407 C 6305.62 -1.93183 -3.23044 0
M  V30 66408 C 6304.76 -1.96385 -1.95776 0
M  V30 66409 H 6307.71 -1.40409 -0.739653 0
M  V30 66410 H 6307.73 -1.5964 -3.45392 0
M  V30 66411 H 6307.25 -3.06871 -2.37596 0
M  V30 66412 H 6305.35 -0.932483 -3.60743 0
M  V30 66413 H 6305.46 -2.79524 -3.89106 0
M  V30 66414 H 6303.82 -1.40635 -2.12353 0
M  V30 66415 H 6304.61 -3.0097 -1.65142 0
M  V30 66416 N 6307.05 1.13251 -1.09599 0
M  V30 66417 C 6308.3 1.83922 -0.827991 0
M  V30 66418 C 6308.61 1.84533 0.648595 0
M  V30 66419 O 6309.82 2.51114 1.03219 0
M  V30 66420 C 6308.28 3.30214 -1.43132 0
M  V30 66421 C 6307.88 3.37985 -2.94058 0
M  V30 66422 C 6309.63 4.05914 -1.24235 0
M  V30 66423 C 6307.54 4.7856 -3.47468 0
M  V30 66424 H 6306.47 0.68908 -0.30608 0
M  V30 66425 H 6309.12 1.27581 -1.31891 0
M  V30 66426 H 6307.5 3.86368 -0.868088 0
M  V30 66427 H 6308.67 2.91817 -3.56623 0
M  V30 66428 H 6306.99 2.75751 -3.1201 0
M  V30 66429 H 6309.58 5.09698 -1.61591 0
M  V30 66430 H 6309.93 4.15897 -0.18315 0
M  V30 66431 H 6310.46 3.56094 -1.77318 0
M  V30 66432 H 6307.2 4.73769 -4.53016 0
M  V30 66433 H 6306.72 5.25217 -2.89667 0
M  V30 66434 H 6308.4 5.47483 -3.44778 0
M  V30 66435 N 6308.53 0.883447 1.3051 0
M  V30 66436 C 6309.76 0.516018 2.00362 0
M  V30 66437 C 6310.17 -0.895089 1.66234 0
M  V30 66438 O 6309.53 -1.58841 0.898656 0
M  V30 66439 C 6309.58 0.679407 3.55058 0
M  V30 66440 O 6309.3 2.03496 3.87971 0
M  V30 66441 C 6310.8 0.314768 4.42181 0
M  V30 66442 H 6308.02 0.199618 0.64062 0
M  V30 66443 H 6310.57 1.18833 1.6643 0
M  V30 66444 H 6308.72 0.0544873 3.87362 0
M  V30 66445 H 6309.14 2.05247 4.82674 0
M  V30 66446 H 6310.61 0.479994 5.49909 0
M  V30 66447 H 6311.09 -0.747094 4.32799 0
M  V30 66448 H 6311.69 0.915946 4.1532 0
M  V30 66449 N 6310.01 -1.43831 0.644244 0
M  V30 66450 C 6310.96 -2.3251 -0.0648366 0
M  V30 66451 C 6311.95 -1.481 -0.822353 0
M  V30 66452 O 6313.16 -1.64365 -0.733769 0
M  V30 66453 H 6309.53 -0.750949 -0.039746 0
M  V30 66454 H 6311.5 -2.9005 0.700959 0
M  V30 66455 C 6310.25 -3.32286 -1.0238 0
M  V30 66456 H 6309.57 -3.97256 -0.45033 0
M  V30 66457 H 6311.01 -3.96988 -1.48919 0
M  V30 66458 C 6309.47 -2.62202 -2.11546 0
M  V30 66459 O 6310 -2.43077 -3.19807 0
M  V30 66460 N 6308.21 -2.21723 -1.87849 0
M  V30 66461 H 6307.76 -2.37478 -0.998105 0
M  V30 66462 H 6307.71 -1.7516 -2.61087 0
M  V30 66463 N 6311.49 -0.385598 -1.5281 0
M  V30 66464 C 6312.73 0.197595 -2.03443 0
M  V30 66465 C 6313.09 1.4435 -1.26598 0
M  V30 66466 O 6314.29 2.10361 -1.67337 0
M  V30 66467 C 6312.56 0.462682 -3.54392 0
M  V30 66468 S 6314.12 1.01669 -4.26859 0
M  V30 66469 H 6310.94 0.0559844 -0.708792 0
M  V30 66470 H 6313.54 -0.53309 -1.88091 0
M  V30 66471 H 6312.25 -0.451256 -4.07912 0
M  V30 66472 H 6311.78 1.22189 -3.73943 0
M  V30 66473 H 6313.79 2.29936 -4.39709 0
M  V30 66474 N 6312.97 1.57178 -0.115314 0
M  V30 66475 C 6314.21 1.95357 0.544382 0
M  V30 66476 C 6314.54 0.998503 1.66564 0
M  V30 66477 O 6313.82 0.0350677 1.94468 0
M  V30 66478 C 6314.1 3.43506 1.08055 0
M  V30 66479 C 6313.96 4.49785 -0.0370375 0
M  V30 66480 C 6315.27 3.93417 1.97259 0
M  V30 66481 H 6312.39 0.710345 0.196415 0
M  V30 66482 H 6315.04 1.89046 -0.190126 0
M  V30 66483 H 6313.19 3.49014 1.70649 0
M  V30 66484 H 6314.86 4.56376 -0.672177 0
M  V30 66485 H 6313.1 4.28104 -0.700689 0
M  V30 66486 H 6313.77 5.50695 0.379287 0
M  V30 66487 H 6316.25 3.90189 1.44541 0
M  V30 66488 H 6315.12 4.97604 2.31693 0
M  V30 66489 H 6315.38 3.33895 2.8977 0
M  V30 66490 N 6314.44 -0.15845 1.56801 0
M  V30 66491 C 6315.39 -1.19594 1.97398 0
M  V30 66492 C 6316.36 -1.43305 0.839816 0
M  V30 66493 O 6317.55 -1.55831 1.10097 0
M  V30 66494 C 6314.69 -2.5272 2.35003 0
M  V30 66495 C 6313.8 -2.3628 3.61657 0
M  V30 66496 C 6312.93 -3.62362 3.88416 0
M  V30 66497 C 6311.97 -3.40909 5.08377 0
M  V30 66498 N 6311.11 -4.59093 5.31204 0
M  V30 66499 H 6315.95 -0.842736 2.85836 0
M  V30 66500 H 6313.49 -0.404694 1.41424 0
M  V30 66501 H 6315.44 -3.30328 2.54831 0
M  V30 66502 H 6314.07 -2.8601 1.4966 0
M  V30 66503 H 6313.13 -1.49783 3.4967 0
M  V30 66504 H 6314.44 -2.16381 4.49423 0
M  V30 66505 H 6313.59 -4.48402 4.08681 0
M  V30 66506 H 6312.33 -3.85253 2.99051 0
M  V30 66507 H 6311.34 -2.53257 4.87997 0
M  V30 66508 H 6312.56 -3.19428 5.99285 0
M  V30 66509 H 6310.51 -4.82179 4.44791 0
M  V30 66510 H 6310.42 -4.42155 6.13217 0
M  V30 66511 H 6311.69 -5.4638 5.55958 0
M  V30 66512 N 6315.92 -1.51693 -0.427432 0
M  V30 66513 C 6316.85 -1.68418 -1.53983 0
M  V30 66514 C 6317.83 -0.531727 -1.5366 0
M  V30 66515 O 6319.02 -0.756809 -1.7264 0
M  V30 66516 C 6316.14 -1.70681 -2.9255 0
M  V30 66517 C 6315.19 -2.92009 -3.10858 0
M  V30 66518 S 6316.02 -4.52663 -2.86106 0
M  V30 66519 C 6317.18 -4.57685 -4.26937 0
M  V30 66520 H 6317.41 -2.62506 -1.39564 0
M  V30 66521 H 6314.94 -1.41502 -0.617793 0
M  V30 66522 H 6316.9 -1.7267 -3.72418 0
M  V30 66523 H 6315.56 -0.777532 -3.04324 0
M  V30 66524 H 6314.76 -2.90022 -4.12193 0
M  V30 66525 H 6314.36 -2.87813 -2.38829 0
M  V30 66526 H 6316.65 -4.33936 -5.20294 0
M  V30 66527 H 6317.59 -5.59544 -4.33954 0
M  V30 66528 H 6318 -3.86904 -4.11054 0
M  V30 66529 N 6317.4 0.683514 -1.42007 0
M  V30 66530 C 6318.33 1.80945 -1.47584 0
M  V30 66531 C 6319.31 1.66803 -0.333267 0
M  V30 66532 O 6320.5 1.86355 -0.54638 0
M  V30 66533 C 6317.63 3.19177 -1.36906 0
M  V30 66534 C 6316.58 3.48041 -2.49101 0
M  V30 66535 C 6315.91 4.85756 -2.23484 0
M  V30 66536 C 6317.21 3.45807 -3.91427 0
M  V30 66537 H 6318.9 1.76534 -2.41818 0
M  V30 66538 H 6316.45 0.847899 -1.1639 0
M  V30 66539 H 6318.4 3.97669 -1.39418 0
M  V30 66540 H 6317.12 3.24243 -0.391627 0
M  V30 66541 H 6315.78 2.71906 -2.45892 0
M  V30 66542 H 6315.43 4.87462 -1.24054 0
M  V30 66543 H 6315.13 5.06032 -2.98672 0
M  V30 66544 H 6316.65 5.66543 -2.27731 0
M  V30 66545 H 6318.07 4.14283 -3.96286 0
M  V30 66546 H 6316.46 3.77617 -4.66396 0
M  V30 66547 H 6317.53 2.44546 -4.18719 0
M  V30 66548 N 6318.88 1.28034 0.918967 0
M  V30 66549 C 6320.12 1.1613 1.68206 0
M  V30 66550 C 6320.48 -0.286435 1.89851 0
M  V30 66551 O 6321.68 -0.528079 2.63562 0
M  V30 66552 C 6319.95 1.93242 3.00653 0
M  V30 66553 S 6321.51 1.97652 3.91764 0
M  V30 66554 H 6318.33 0.41442 0.577734 0
M  V30 66555 H 6320.93 1.62063 1.09343 0
M  V30 66556 H 6319.64 2.97603 2.82597 0
M  V30 66557 H 6319.17 1.47838 3.64565 0
M  V30 66558 H 6321.18 1.07925 4.84321 0
M  V30 66559 N 6320.36 -1.12669 1.10198 0
M  V30 66560 C 6321.58 -1.87952 0.864973 0
M  V30 66561 C 6322 -1.79529 -0.584373 0
M  V30 66562 O 6321.36 -1.16745 -1.40274 0
M  V30 66563 C 6321.41 -3.37256 1.30155 0
M  V30 66564 O 6321.13 -3.45474 2.69406 0
M  V30 66565 C 6322.63 -4.29485 1.09808 0
M  V30 66566 H 6319.85 -0.594766 0.310635 0
M  V30 66567 H 6322.39 -1.42577 1.46601 0
M  V30 66568 H 6320.55 -3.80184 0.744236 0
M  V30 66569 H 6320.96 -4.38347 2.88014 0
M  V30 66570 H 6322.44 -5.32541 1.45273 0
M  V30 66571 H 6322.91 -4.39185 0.0365071 0
M  V30 66572 H 6323.52 -3.92335 1.64174 0
M  V30 66573 N 6321.83 -0.890356 -1.3004 0
M  V30 66574 C 6322.78 -0.33253 -2.25562 0
M  V30 66575 C 6323.77 0.542086 -1.51493 0
M  V30 66576 O 6324.96 0.38563 -1.72748 0
M  V30 66577 C 6322.09 0.447183 -3.40375 0
M  V30 66578 C 6321.17 -0.441824 -4.21792 0
M  V30 66579 N 6321.57 -1.54476 -4.81633 0
M  V30 66580 C 6319.86 -0.237911 -4.45365 0
M  V30 66581 C 6320.56 -2.09467 -5.42677 0
M  V30 66582 N 6319.54 -1.38892 -5.25557 0
M  V30 66583 H 6323.34 -1.1752 -2.69381 0
M  V30 66584 H 6320.86 -0.740361 -1.44542 0
M  V30 66585 H 6322.85 0.863488 -4.0786 0
M  V30 66586 H 6321.51 1.28723 -2.98095 0
M  V30 66587 H 6322.52 -1.92758 -4.80692 0
M  V30 66588 H 6319.2 0.564527 -4.13666 0
M  V30 66589 H 6320.59 -3.02117 -6.00146 0
M  V30 66590 N 6323.31 1.43487 -0.651863 0
M  V30 66591 C 6324.54 2.0618 -0.172406 0
M  V30 66592 C 6324.95 1.48852 1.1614 0
M  V30 66593 O 6324.31 0.619306 1.71671 0
M  V30 66594 C 6324.36 3.61425 -0.073831 0
M  V30 66595 O 6324.08 4.16622 -1.35491 0
M  V30 66596 C 6325.58 4.41191 0.431864 0
M  V30 66597 H 6322.8 0.665036 -0.0892627 0
M  V30 66598 H 6325.35 1.84014 -0.892127 0
M  V30 66599 H 6323.5 3.82781 0.596442 0
M  V30 66600 H 6323.92 5.10275 -1.21323 0
M  V30 66601 H 6325.39 5.50164 0.449795 0
M  V30 66602 H 6325.87 4.1412 1.46292 0
M  V30 66603 H 6326.47 4.24801 -0.205871 0
M  V30 66604 N 6324.79 0.393696 1.52603 0
M  V30 66605 C 6326.04 -0.186714 2.01236 0
M  V30 66606 C 6326.36 -1.46952 1.2818 0
M  V30 66607 O 6325.63 -1.91707 0.403155 0
M  V30 66608 H 6324.21 -0.0719876 0.743523 0
M  V30 66609 H 6326.87 0.526396 1.87657 0
M  V30 66610 H 6325.97 -0.393812 3.09605 0
M  V30 66611 N 6326.27 -1.57114 0.123648 0
M  V30 66612 C 6327.5 -1.99707 -0.540817 0
M  V30 66613 C 6327.91 -1.00341 -1.59928 0
M  V30 66614 O 6327.27 0.00304061 -1.825 0
M  V30 66615 C 6327.32 -3.4229 -1.16273 0
M  V30 66616 O 6327.04 -4.37855 -0.146571 0
M  V30 66617 C 6328.54 -4.00039 -1.91007 0
M  V30 66618 H 6325.76 -0.655628 -0.142804 0
M  V30 66619 H 6328.31 -2.03405 0.211356 0
M  V30 66620 H 6326.46 -3.39517 -1.86566 0
M  V30 66621 H 6326.87 -5.21068 -0.599045 0
M  V30 66622 H 6328.35 -5.01873 -2.29843 0
M  V30 66623 H 6328.83 -3.3944 -2.78707 0
M  V30 66624 H 6329.43 -4.06372 -1.25466 0
M  V30 66625 N 6327.75 0.150132 -1.56883 0
M  V30 66626 C 6328.99 0.861566 -1.82815 0
M  V30 66627 C 6329.32 1.81847 -0.704041 0
M  V30 66628 O 6328.59 1.93967 0.274548 0
M  V30 66629 H 6327.17 0.321152 -0.674441 0
M  V30 66630 H 6329.83 0.144884 -1.94361 0
M  V30 66631 H 6328.92 1.4257 -2.77633 0
M  V30 66632 N 6329.22 1.51918 0.419381 0
M  V30 66633 C 6330.16 1.70741 1.52906 0
M  V30 66634 C 6331.17 0.58787 1.51815 0
M  V30 66635 O 6332.36 0.862732 1.56266 0
M  V30 66636 C 6329.46 1.72332 2.91813 0
M  V30 66637 C 6328.63 3.01159 3.1721 0
M  V30 66638 C 6327.69 2.94698 4.35935 0
M  V30 66639 O 6326.72 3.68621 4.33713 0
M  V30 66640 N 6327.92 2.11782 5.40489 0
M  V30 66641 H 6330.68 2.66473 1.37158 0
M  V30 66642 H 6328.24 1.50027 0.608555 0
M  V30 66643 H 6330.24 1.65555 3.69288 0
M  V30 66644 H 6328.81 0.841171 3.0107 0
M  V30 66645 H 6328.03 3.21665 2.27871 0
M  V30 66646 H 6329.31 3.86401 3.31016 0
M  V30 66647 H 6328.71 1.51133 5.45138 0
M  V30 66648 H 6327.27 2.1087 6.16747 0
M  V30 66649 N 6330.7 -0.675973 1.42367 0
M  V30 66650 C 6331.67 -1.77133 1.45452 0
M  V30 66651 C 6332.67 -1.57115 0.342282 0
M  V30 66652 O 6333.86 -1.63428 0.603056 0
M  V30 66653 C 6330.99 -3.15753 1.28503 0
M  V30 66654 H 6332.18 -1.75785 2.42981 0
M  V30 66655 H 6329.73 -0.885492 1.28797 0
M  V30 66656 H 6330.47 -3.22728 0.318929 0
M  V30 66657 H 6330.25 -3.31686 2.09109 0
M  V30 66658 H 6331.74 -3.95672 1.33542 0
M  V30 66659 N 6332.18 -1.2852 -0.912164 0
M  V30 66660 C 6333.43 -1.15144 -1.65605 0
M  V30 66661 C 6333.74 0.298954 -1.93302 0
M  V30 66662 O 6334.95 0.553856 -2.65791 0
M  V30 66663 C 6333.4 -2.01297 -2.98341 0
M  V30 66664 C 6333.01 -3.51086 -2.78285 0
M  V30 66665 C 6334.76 -1.96612 -3.76223 0
M  V30 66666 C 6332.66 -4.29386 -4.06672 0
M  V30 66667 H 6331.59 -0.427332 -0.621211 0
M  V30 66668 H 6334.24 -1.53063 -1.01212 0
M  V30 66669 H 6332.63 -1.56235 -3.63877 0
M  V30 66670 H 6333.8 -4.04116 -2.21419 0
M  V30 66671 H 6332.12 -3.57313 -2.13814 0
M  V30 66672 H 6334.71 -2.52379 -4.7139 0
M  V30 66673 H 6335.06 -0.943229 -4.05474 0
M  V30 66674 H 6335.59 -2.39652 -3.17509 0
M  V30 66675 H 6332.33 -5.32262 -3.82594 0
M  V30 66676 H 6331.85 -3.81128 -4.63143 0
M  V30 66677 H 6333.53 -4.39389 -4.74917 0
M  V30 66678 N 6333.66 1.12083 -1.10794 0
M  V30 66679 C 6334.89 1.8749 -0.874928 0
M  V30 66680 C 6335.3 1.79836 0.574844 0
M  V30 66681 O 6334.66 1.17488 1.39653 0
M  V30 66682 C 6334.71 3.36561 -1.31942 0
M  V30 66683 O 6334.43 3.4404 -2.71234 0
M  V30 66684 C 6335.93 4.28896 -1.12084 0
M  V30 66685 H 6333.15 0.593111 -0.313784 0
M  V30 66686 H 6335.7 1.41798 -1.47355 0
M  V30 66687 H 6333.85 3.79784 -0.764388 0
M  V30 66688 H 6334.26 4.36814 -2.90335 0
M  V30 66689 H 6335.74 5.31763 -1.48095 0
M  V30 66690 H 6336.22 4.39159 -0.0597976 0
M  V30 66691 H 6336.82 3.91459 -1.66252 0
M  V30 66692 N 6335.14 0.89724 1.29566 0
M  V30 66693 C 6336.38 0.522676 1.95949 0
M  V30 66694 C 6336.72 -0.928194 1.70582 0
M  V30 66695 O 6335.99 -1.65768 1.0174 0
M  V30 66696 C 6336.27 0.812782 3.50807 0
M  V30 66697 C 6336.13 2.31518 3.85642 0
M  V30 66698 C 6337.45 0.297597 4.39093 0
M  V30 66699 H 6334.56 0.191371 0.711721 0
M  V30 66700 H 6337.21 1.12347 1.53226 0
M  V30 66701 H 6335.36 0.301452 3.87329 0
M  V30 66702 H 6337.03 2.89586 3.59079 0
M  V30 66703 H 6335.27 2.7769 3.33273 0
M  V30 66704 H 6335.94 2.46874 4.93718 0
M  V30 66705 H 6338.42 0.735409 4.0955 0
M  V30 66706 H 6337.29 0.529806 5.46337 0
M  V30 66707 H 6337.56 -0.801614 4.34772 0
M  V30 66708 N 6336.61 -1.43139 0.659463 0
M  V30 66709 C 6337.84 -2.06086 0.183338 0
M  V30 66710 C 6338.26 -1.49466 -1.15349 0
M  V30 66711 O 6337.61 -0.628401 -1.7134 0
M  V30 66712 C 6337.67 -3.6138 0.0929972 0
M  V30 66713 O 6337.39 -4.15897 1.37699 0
M  V30 66714 C 6338.89 -4.41414 -0.408461 0
M  V30 66715 H 6336.11 -0.664553 0.0927883 0
M  V30 66716 H 6338.65 -1.83539 0.901874 0
M  V30 66717 H 6336.81 -3.83092 -0.576134 0
M  V30 66718 H 6337.22 -5.09625 1.24027 0
M  V30 66719 H 6338.69 -5.50395 -0.420612 0
M  V30 66720 H 6339.17 -4.1489 -1.44093 0
M  V30 66721 H 6339.78 -4.24686 0.228396 0
M  V30 66722 N 6338.09 -0.401784 -1.52392 0
M  V30 66723 C 6339.5 0.0694653 -1.86571 0
M  V30 66724 C 6339.85 1.45075 -1.3209 0
M  V30 66725 O 6338.98 2.06178 -0.657222 0
M  V30 66726 C 6339.57 0.132828 -3.3854 0
M  V30 66727 C 6338.13 0.548396 -3.72384 0
M  V30 66728 C 6337.28 -0.281761 -2.75865 0
M  V30 66729 H 6340.23 -0.619153 -1.46124 0
M  V30 66730 H 6340.25 0.949538 -3.68462 0
M  V30 66731 H 6339.76 -0.872626 -3.78162 0
M  V30 66732 H 6337.87 1.56076 -3.38336 0
M  V30 66733 H 6337.98 0.297882 -4.78173 0
M  V30 66734 H 6336.34 0.254822 -2.53422 0
M  V30 66735 H 6337.13 -1.28543 -3.18326 0
M  V30 66736 N 6339.57 1.57046 -0.131978 0
M  V30 66737 C 6340.48 2.19548 0.826785 0
M  V30 66738 C 6341.5 1.17536 1.28301 0
M  V30 66739 O 6342.67 1.50057 1.34331 0
M  V30 66740 C 6339.74 2.79291 2.0542 0
M  V30 66741 C 6338.8 3.96381 1.64865 0
M  V30 66742 C 6338.03 4.53266 2.81755 0
M  V30 66743 O 6338.25 4.09036 3.9755 0
M  V30 66744 O 6337.19 5.43757 2.58092 0
M  V30 66745 H 6341.01 3.01958 0.32482 0
M  V30 66746 H 6338.6 1.49102 0.094297 0
M  V30 66747 H 6340.48 3.17322 2.77281 0
M  V30 66748 H 6339.16 1.99904 2.54598 0
M  V30 66749 H 6338.06 3.63095 0.900721 0
M  V30 66750 H 6339.4 4.77243 1.20417 0
M  V30 66751 N 6341.05 -0.14181 1.56961 0
M  V30 66752 C 6342.01 -1.15889 1.97743 0
M  V30 66753 C 6343.01 -1.35577 0.864604 0
M  V30 66754 O 6344.2 -1.32481 1.13112 0
M  V30 66755 C 6341.33 -2.51814 2.29788 0
M  V30 66756 H 6342.53 -0.808892 2.88785 0
M  V30 66757 H 6340.08 -0.385334 1.51476 0
M  V30 66758 H 6340.82 -2.91776 1.41554 0
M  V30 66759 H 6340.6 -2.38883 3.1093 0
M  V30 66760 H 6342.09 -3.25057 2.6216 0
M  V30 66761 N 6342.53 -1.52138 -0.411319 0
M  V30 66762 C 6343.48 -1.75932 -1.52153 0
M  V30 66763 C 6344.47 -0.626372 -1.57394 0
M  V30 66764 O 6345.68 -0.808367 -1.60827 0
M  V30 66765 H 6342.05 -0.556318 -0.505979 0
M  V30 66766 H 6344.02 -2.68946 -1.29269 0
M  V30 66767 C 6342.77 -1.92507 -2.89545 0
M  V30 66768 H 6342.09 -2.79103 -2.86254 0
M  V30 66769 H 6343.53 -2.13156 -3.66525 0
M  V30 66770 C 6341.99 -0.691588 -3.29725 0
M  V30 66771 O 6342.52 0.141571 -4.0145 0
M  V30 66772 N 6340.73 -0.52812 -2.85761 0
M  V30 66773 H 6340.28 -1.20721 -2.27561 0
M  V30 66774 H 6340.23 0.295884 -3.13005 0
M  V30 66775 N 6344.01 0.668413 -1.42723 0
M  V30 66776 C 6344.94 1.7932 -1.41137 0
M  V30 66777 C 6345.92 1.60261 -0.27478 0
M  V30 66778 O 6347.1 1.82649 -0.466002 0
M  V30 66779 C 6344.23 3.16411 -1.20837 0
M  V30 66780 C 6343.27 3.54205 -2.37574 0
M  V30 66781 S 6344.11 3.55906 -4.00114 0
M  V30 66782 C 6345.26 4.95679 -3.82169 0
M  V30 66783 H 6345.5 1.80393 -2.36317 0
M  V30 66784 H 6343.03 0.839668 -1.29572 0
M  V30 66785 H 6344.99 3.9554 -1.09812 0
M  V30 66786 H 6343.65 3.12917 -0.272316 0
M  V30 66787 H 6342.84 4.53868 -2.19135 0
M  V30 66788 H 6342.44 2.82452 -2.45146 0
M  V30 66789 H 6344.73 5.83932 -3.43554 0
M  V30 66790 H 6345.68 5.19167 -4.81531 0
M  V30 66791 H 6346.09 4.68498 -3.14912 0
M  V30 66792 N 6345.48 1.29002 0.905335 0
M  V30 66793 C 6346.76 1.07335 1.6352 0
M  V30 66794 C 6347.14 -0.384446 2.0757 0
M  V30 66795 O 6346.49 -1.37216 1.82713 0
M  V30 66796 C 6346.7 2.05573 2.8203 0
M  V30 66797 C 6348.05 2.36182 3.5285 0
M  V30 66798 O 6349.07 2.03723 2.92191 0
M  V30 66799 O 6347.93 2.91617 4.62192 0
M  V30 66800 H 6345.02 0.410821 0.717743 0
M  V30 66801 H 6347.57 1.40353 0.953899 0
M  V30 66802 H 6346.34 3.03788 2.46635 0
M  V30 66803 H 6345.96 1.73251 3.57868 0
M  V30 66804 N 6346.96 -1.11493 1.11387 0
M  V30 66805 C 6347.89 -2.17281 0.729507 0
M  V30 66806 C 6348.91 -1.61042 -0.238586 0
M  V30 66807 O 6350.1 -1.78487 -0.0215644 0
M  V30 66808 C 6347.2 -3.38851 0.0573351 0
M  V30 66809 C 6346.37 -4.24558 1.05211 0
M  V30 66810 C 6345.43 -5.24603 0.409594 0
M  V30 66811 O 6344.45 -5.59179 1.06335 0
M  V30 66812 N 6345.66 -5.74568 -0.827755 0
M  V30 66813 H 6348.42 -2.50865 1.63972 0
M  V30 66814 H 6345.98 -1.27009 1.004 0
M  V30 66815 H 6347.97 -4.02872 -0.384214 0
M  V30 66816 H 6346.54 -3.03334 -0.755444 0
M  V30 66817 H 6345.76 -3.57002 1.67163 0
M  V30 66818 H 6347.05 -4.78661 1.72514 0
M  V30 66819 H 6346.45 -5.48658 -1.37807 0
M  V30 66820 H 6345.01 -6.40427 -1.21229 0
M  V30 66821 N 6348.44 -0.904098 -1.29088 0
M  V30 66822 C 6349.35 -0.389906 -2.31337 0
M  V30 66823 C 6350.37 0.51757 -1.66124 0
M  V30 66824 O 6351.54 0.406089 -1.97263 0
M  V30 66825 C 6348.61 0.370347 -3.44716 0
M  V30 66826 C 6347.67 -0.569181 -4.2551 0
M  V30 66827 C 6346.9 0.154884 -5.33475 0
M  V30 66828 O 6347.12 1.37814 -5.53501 0
M  V30 66829 O 6346.06 -0.504853 -5.99779 0
M  V30 66830 H 6349.88 -1.2383 -2.77308 0
M  V30 66831 H 6347.47 -0.668575 -1.33606 0
M  V30 66832 H 6349.35 0.800092 -4.13735 0
M  V30 66833 H 6348.03 1.19473 -3.00845 0
M  V30 66834 H 6346.93 -1.04813 -3.59117 0
M  V30 66835 H 6348.27 -1.3601 -4.73035 0
M  V30 66836 N 6349.92 1.42788 -0.667045 0
M  V30 66837 C 6351.14 2.06503 -0.192669 0
M  V30 66838 C 6351.57 1.49747 1.13831 0
M  V30 66839 O 6350.93 0.612857 1.70628 0
M  V30 66840 C 6350.97 3.60366 -0.129901 0
M  V30 66841 O 6350.08 4.02373 0.903877 0
M  V30 66842 H 6349.42 0.65624 -0.101217 0
M  V30 66843 H 6351.95 1.83056 -0.913871 0
M  V30 66844 H 6351.96 4.07971 0.0488305 0
M  V30 66845 H 6350.63 4.0105 -1.10144 0
M  V30 66846 H 6349.21 3.66332 0.696814 0
M  V30 66847 N 6351.4 0.40986 1.52177 0
M  V30 66848 C 6352.64 -0.165687 2.01821 0
M  V30 66849 C 6352.97 -1.45081 1.29544 0
M  V30 66850 O 6352.23 -1.91765 0.390491 0
M  V30 66851 C 6352.52 -0.459457 3.54434 0
M  V30 66852 C 6352.19 0.736556 4.44843 0
M  V30 66853 C 6350.85 1.06462 4.69275 0
M  V30 66854 C 6353.2 1.53571 4.98062 0
M  V30 66855 C 6350.53 2.193 5.44173 0
M  V30 66856 C 6352.88 2.65487 5.74195 0
M  V30 66857 C 6351.55 2.98778 5.96899 0
M  V30 66858 H 6350.82 -0.0606291 0.738515 0
M  V30 66859 H 6353.47 0.551428 1.83389 0
M  V30 66860 H 6351.77 -1.25815 3.7105 0
M  V30 66861 H 6353.47 -0.917751 3.90357 0
M  V30 66862 H 6350.06 0.470884 4.26005 0
M  V30 66863 H 6354.24 1.29549 4.79094 0
M  V30 66864 H 6349.5 2.4544 5.59972 0
M  V30 66865 H 6353.67 3.27798 6.14428 0
M  V30 66866 H 6351.3 3.8633 6.54716 0
M  V30 66867 N 6352.87 -1.56974 0.140305 0
M  V30 66868 C 6354.12 -1.95521 -0.511462 0
M  V30 66869 C 6354.44 -1.02578 -1.65839 0
M  V30 66870 O 6353.71 -0.0860516 -1.95711 0
M  V30 66871 H 6352.29 -0.721921 -0.191935 0
M  V30 66872 H 6354.95 -1.93719 0.214237 0
M  V30 66873 H 6354.05 -2.99081 -0.892026 0
M  V30 66874 N 6354.35 0.133484 -1.57034 0
M  V30 66875 C 6355.6 0.842128 -1.83719 0
M  V30 66876 C 6355.92 1.8109 -0.723289 0
M  V30 66877 O 6355.19 1.94247 0.25396 0
M  V30 66878 H 6353.77 0.31398 -0.677809 0
M  V30 66879 H 6356.43 0.124261 -1.94503 0
M  V30 66880 H 6355.53 1.39618 -2.7913 0
M  V30 66881 N 6355.83 1.52354 0.403245 0
M  V30 66882 C 6356.79 1.75487 1.47434 0
M  V30 66883 C 6357.79 0.624782 1.48166 0
M  V30 66884 O 6358.98 0.892714 1.49587 0
M  V30 66885 C 6356.12 1.84263 2.8681 0
M  V30 66886 H 6357.31 2.71112 1.28212 0
M  V30 66887 H 6354.86 1.42859 0.634107 0
M  V30 66888 H 6355.6 0.905733 3.11395 0
M  V30 66889 H 6355.38 2.66424 2.87682 0
M  V30 66890 H 6356.87 2.03882 3.64447 0
M  V30 66891 N 6357.31 -0.660835 1.43076 0
M  V30 66892 C 6358.53 -1.45371 1.47926 0
M  V30 66893 C 6358.96 -1.87854 0.096095 0
M  V30 66894 O 6358.32 -1.56893 -0.908528 0
M  V30 66895 C 6358.36 -2.66993 2.42377 0
M  V30 66896 O 6357.47 -3.65776 1.90478 0
M  V30 66897 H 6356.81 -0.436175 0.500647 0
M  V30 66898 H 6359.34 -0.809333 1.87912 0
M  V30 66899 H 6359.35 -3.149 2.59427 0
M  V30 66900 H 6358.02 -2.35414 3.4286 0
M  V30 66901 H 6356.6 -3.24879 1.83052 0
M  V30 66902 N 6358.79 -1.2948 -0.898481 0
M  V30 66903 C 6360.03 -1.18791 -1.66337 0
M  V30 66904 C 6360.39 0.256195 -1.90283 0
M  V30 66905 O 6361.59 0.486081 -2.64368 0
M  V30 66906 C 6359.86 -1.98001 -2.97541 0
M  V30 66907 S 6361.42 -2.0386 -3.8857 0
M  V30 66908 H 6358.24 -0.423559 -0.571068 0
M  V30 66909 H 6360.84 -1.63782 -1.06751 0
M  V30 66910 H 6359.55 -3.02061 -2.77826 0
M  V30 66911 H 6359.08 -1.53619 -3.62167 0
M  V30 66912 H 6361.09 -1.15617 -4.82542 0
M  V30 66913 N 6360.26 1.10901 -1.11976 0
M  V30 66914 C 6361.5 1.84386 -0.88211 0
M  V30 66915 C 6361.87 1.82978 0.581648 0
M  V30 66916 O 6363.07 2.51967 0.936283 0
M  V30 66917 C 6361.34 3.27318 -1.43518 0
M  V30 66918 S 6362.9 4.17988 -1.33535 0
M  V30 66919 H 6359.72 0.635755 -0.318334 0
M  V30 66920 H 6362.32 1.33485 -1.42835 0
M  V30 66921 H 6361.02 3.25911 -2.4942 0
M  V30 66922 H 6360.55 3.83288 -0.88622 0
M  V30 66923 H 6362.57 4.9527 -0.303594 0
M  V30 66924 N 6361.74 0.910931 1.28607 0
M  V30 66925 C 6362.67 0.414078 2.29799 0
M  V30 66926 C 6363.65 -0.516833 1.62058 0
M  V30 66927 O 6364.84 -0.425169 1.89489 0
M  V30 66928 C 6361.97 -0.349215 3.4554 0
M  V30 66929 C 6360.92 0.4923 4.25159 0
M  V30 66930 C 6360.25 -0.399165 5.33208 0
M  V30 66931 C 6361.55 1.7481 4.92178 0
M  V30 66932 H 6363.24 1.25974 2.71608 0
M  V30 66933 H 6360.79 0.607195 1.30572 0
M  V30 66934 H 6362.74 -0.707624 4.15416 0
M  V30 66935 H 6361.47 -1.22876 3.02604 0
M  V30 66936 H 6360.12 0.83319 3.57006 0
M  V30 66937 H 6359.77 -1.27717 4.86515 0
M  V30 66938 H 6359.47 0.160268 5.87381 0
M  V30 66939 H 6361 -0.753518 6.05933 0
M  V30 66940 H 6362.41 1.45876 5.5443 0
M  V30 66941 H 6360.81 2.24972 5.56334 0
M  V30 66942 H 6361.88 2.47755 4.16828 0
M  V30 66943 N 6363.22 -1.42432 0.674608 0
M  V30 66944 C 6364.45 -2.05582 0.204888 0
M  V30 66945 C 6364.86 -1.50772 -1.143 0
M  V30 66946 O 6364.2 -0.642193 -1.72109 0
M  V30 66947 C 6364.26 -3.59446 0.0623152 0
M  V30 66948 C 6363.93 -4.36947 1.33889 0
M  V30 66949 C 6364.92 -4.67613 2.27231 0
M  V30 66950 C 6362.61 -4.7659 1.58643 0
M  V30 66951 C 6364.6 -5.36856 3.43604 0
M  V30 66952 C 6362.29 -5.45573 2.75306 0
M  V30 66953 C 6363.29 -5.75631 3.67611 0
M  V30 66954 O 6362.98 -6.432 4.82233 0
M  V30 66955 H 6362.71 -0.668971 0.0972319 0
M  V30 66956 H 6365.26 -1.8356 0.921675 0
M  V30 66957 H 6363.49 -3.80125 -0.710049 0
M  V30 66958 H 6365.18 -4.04233 -0.367506 0
M  V30 66959 H 6365.95 -4.37487 2.09356 0
M  V30 66960 H 6361.83 -4.52587 0.876681 0
M  V30 66961 H 6365.37 -5.60235 4.15671 0
M  V30 66962 H 6361.27 -5.75117 2.93106 0
M  V30 66963 H 6362.04 -6.61691 4.81775 0
M  V30 66964 N 6364.7 -0.417924 -1.51958 0
M  V30 66965 C 6365.94 0.154397 -2.03816 0
M  V30 66966 C 6366.3 1.41632 -1.29632 0
M  V30 66967 O 6367.5 2.06765 -1.71761 0
M  V30 66968 C 6365.77 0.387406 -3.55294 0
M  V30 66969 S 6367.33 0.925915 -4.2892 0
M  V30 66970 H 6364.15 0.0409373 -0.70982 0
M  V30 66971 H 6366.75 -0.572867 -1.86918 0
M  V30 66972 H 6365.46 -0.537679 -4.06863 0
M  V30 66973 H 6364.99 1.1423 -3.76451 0
M  V30 66974 H 6367 2.20558 -4.44487 0
M  V30 66975 N 6366.18 1.56898 -0.148628 0
M  V30 66976 C 6367.59 1.58242 0.207771 0
M  V30 66977 C 6367.79 1.16297 1.64552 0
M  V30 66978 O 6366.85 0.864023 2.37257 0
M  V30 66979 C 6368.16 3.00654 -0.0524616 0
M  V30 66980 C 6369.71 3.12998 0.0111197 0
M  V30 66981 C 6370.18 4.57463 -0.221802 0
M  V30 66982 N 6371.68 4.62892 -0.168787 0
M  V30 66983 C 6372.41 5.72487 -0.323497 0
M  V30 66984 N 6371.91 6.90723 -0.536019 0
M  V30 66985 N 6373.7 5.61494 -0.260987 0
M  V30 66986 H 6365.85 1.82455 -1.08737 0
M  V30 66987 H 6368.11 0.844584 -0.430559 0
M  V30 66988 H 6367.82 3.35736 -1.04756 0
M  V30 66989 H 6367.69 3.7127 0.666215 0
M  V30 66990 H 6370.08 2.77756 0.996776 0
M  V30 66991 H 6370.16 2.44865 -0.739912 0
M  V30 66992 H 6369.81 4.93409 -1.20457 0
M  V30 66993 H 6369.74 5.23724 0.549572 0
M  V30 66994 H 6372.23 3.77899 -0.00924866 0
M  V30 66995 H 6372.54 7.70111 -0.644133 0
M  V30 66996 H 6370.88 6.92639 -0.57236 0
M  V30 66997 H 6374.08 4.68002 -0.0957075 0
M  V30 66998 H 6374.25 6.46855 -0.384992 0
M  V30 66999 N 6367.65 -0.125154 1.57102 0
M  V30 67000 C 6368.89 -0.839983 1.86343 0
M  V30 67001 C 6369.26 -1.77341 0.735818 0
M  V30 67002 O 6370.46 -2.52934 0.909832 0
M  V30 67003 C 6368.73 -1.57544 3.20803 0
M  V30 67004 S 6370.29 -2.33269 3.7166 0
M  V30 67005 H 6367.11 -0.280472 0.653343 0
M  V30 67006 H 6369.71 -0.0986783 1.95251 0
M  V30 67007 H 6368.41 -0.881576 4.0082 0
M  V30 67008 H 6367.94 -2.35724 3.14957 0
M  V30 67009 H 6369.96 -3.58876 3.42669 0
M  V30 67010 N 6369.13 -1.52566 -0.395159 0
M  V30 67011 C 6370.08 -1.73286 -1.48175 0
M  V30 67012 C 6371.07 -0.586871 -1.49815 0
M  V30 67013 O 6372.26 -0.844474 -1.55556 0
M  V30 67014 C 6369.39 -1.89958 -2.85956 0
M  V30 67015 C 6368.47 -3.10471 -2.88909 0
M  V30 67016 N 6368.86 -4.32932 -2.61541 0
M  V30 67017 C 6367.16 -3.1059 -3.20077 0
M  V30 67018 C 6367.86 -5.14496 -2.7142 0
M  V30 67019 N 6366.84 -4.50047 -3.04891 0
M  V30 67020 H 6370.64 -2.656 -1.25832 0
M  V30 67021 H 6368.16 -1.50789 -0.603038 0
M  V30 67022 H 6370.15 -2.02923 -3.64181 0
M  V30 67023 H 6368.81 -0.988535 -3.09286 0
M  V30 67024 H 6369.82 -4.6117 -2.35676 0
M  V30 67025 H 6366.5 -2.29273 -3.48912 0
M  V30 67026 H 6367.89 -6.22098 -2.53857 0
M  V30 67027 N 6370.61 0.653238 -1.43424 0
M  V30 67028 C 6371.86 1.409 -1.44327 0
M  V30 67029 C 6372.17 1.9547 -0.0712075 0
M  V30 67030 O 6373.38 2.71467 0.0423178 0
M  V30 67031 C 6371.84 2.54993 -2.53982 0
M  V30 67032 C 6371.44 2.0703 -3.97294 0
M  V30 67033 C 6373.19 3.3236 -2.64078 0
M  V30 67034 C 6371.09 3.18333 -4.98415 0
M  V30 67035 H 6370.02 0.529406 -0.536885 0
M  V30 67036 H 6372.68 0.705079 -1.69413 0
M  V30 67037 H 6371.06 3.27855 -2.22097 0
M  V30 67038 H 6372.23 1.41178 -4.3864 0
M  V30 67039 H 6370.55 1.42542 -3.91243 0
M  V30 67040 H 6373.14 4.15293 -3.36803 0
M  V30 67041 H 6373.49 3.80388 -1.69147 0
M  V30 67042 H 6374.02 2.66578 -2.95265 0
M  V30 67043 H 6370.76 2.75273 -5.94899 0
M  V30 67044 H 6370.28 3.82897 -4.61682 0
M  V30 67045 H 6371.96 3.83465 -5.21118 0
M  V30 67046 N 6372.09 1.29955 0.891602 0
M  V30 67047 C 6373.37 1.09063 1.62372 0
M  V30 67048 C 6373.75 -0.362409 2.07966 0
M  V30 67049 O 6373.09 -1.35271 1.84158 0
M  V30 67050 C 6373.3 2.08552 2.79834 0
M  V30 67051 C 6374.65 2.39912 3.50325 0
M  V30 67052 O 6375.68 2.06811 2.90013 0
M  V30 67053 O 6374.54 2.96503 4.59073 0
M  V30 67054 H 6371.63 0.418411 0.713345 0
M  V30 67055 H 6374.18 1.41356 0.938959 0
M  V30 67056 H 6372.95 3.06387 2.43399 0
M  V30 67057 H 6372.57 1.77037 3.56011 0
M  V30 67058 N 6373.57 -1.10306 1.12563 0
M  V30 67059 C 6374.52 -2.14832 0.763628 0
M  V30 67060 C 6375.5 -1.5913 -0.238019 0
M  V30 67061 O 6376.69 -1.76947 -0.0433158 0
M  V30 67062 C 6373.82 -3.42586 0.221362 0
M  V30 67063 C 6372.91 -4.05218 1.25138 0
M  V30 67064 N 6373.3 -4.42535 2.44942 0
M  V30 67065 C 6371.6 -4.32297 1.09705 0
M  V30 67066 C 6372.3 -4.91756 3.10727 0
M  V30 67067 N 6371.27 -4.88646 2.38171 0
M  V30 67068 H 6375.08 -2.41478 1.67528 0
M  V30 67069 H 6372.59 -1.27441 1.0066 0
M  V30 67070 H 6374.59 -4.16862 -0.0561741 0
M  V30 67071 H 6373.25 -3.17398 -0.684726 0
M  V30 67072 H 6374.26 -4.34188 2.82315 0
M  V30 67073 H 6370.94 -4.16761 0.248372 0
M  V30 67074 H 6372.33 -5.30167 4.12762 0
M  V30 67075 N 6375.05 -0.917739 -1.28122 0
M  V30 67076 C 6376.46 -0.598947 -1.76832 0
M  V30 67077 C 6376.81 0.885795 -1.75066 0
M  V30 67078 O 6375.93 1.69299 -1.34784 0
M  V30 67079 C 6376.53 -1.08047 -3.21109 0
M  V30 67080 C 6375.09 -0.812531 -3.67525 0
M  V30 67081 C 6374.23 -1.24492 -2.47784 0
M  V30 67082 H 6377.18 -1.09858 -1.14529 0
M  V30 67083 H 6377.21 -0.423688 -3.78134 0
M  V30 67084 H 6376.72 -2.16111 -3.22362 0
M  V30 67085 H 6374.82 0.254728 -3.71728 0
M  V30 67086 H 6374.93 -1.42307 -4.57477 0
M  V30 67087 H 6373.3 -0.663596 -2.45903 0
M  V30 67088 H 6374.08 -2.33398 -2.51754 0
M  V30 67089 N 6376.52 1.42072 -0.682152 0
M  V30 67090 C 6377.47 2.326 0.00316801 0
M  V30 67091 C 6378.47 1.50229 0.782798 0
M  V30 67092 O 6379.67 1.66253 0.689932 0
M  V30 67093 H 6376.05 0.751739 0.0198219 0
M  V30 67094 H 6378.02 2.8809 -0.777614 0
M  V30 67095 C 6376.77 3.34883 0.935338 0
M  V30 67096 H 6376.09 3.9831 0.344846 0
M  V30 67097 H 6377.53 4.00796 1.38341 0
M  V30 67098 C 6375.99 2.67718 2.0452 0
M  V30 67099 O 6376.52 2.51471 3.1325 0
M  V30 67100 N 6374.72 2.26626 1.81904 0
M  V30 67101 H 6374.27 2.4004 0.934792 0
M  V30 67102 H 6374.23 1.8202 2.56351 0
M  V30 67103 N 6378 0.425977 1.51734 0
M  V30 67104 C 6379.41 -0.0397747 1.86658 0
M  V30 67105 C 6379.76 -1.42955 1.34381 0
M  V30 67106 O 6378.89 -2.05107 0.68994 0
M  V30 67107 C 6379.48 -0.0789525 3.38708 0
M  V30 67108 C 6378.04 -0.489084 3.73209 0
M  V30 67109 C 6377.19 0.325613 2.75382 0
M  V30 67110 H 6380.14 0.642322 1.4512 0
M  V30 67111 H 6380.16 -0.890798 3.69926 0
M  V30 67112 H 6379.67 0.932678 3.76726 0
M  V30 67113 H 6377.77 -1.50674 3.40776 0
M  V30 67114 H 6377.89 -0.221771 4.78586 0
M  V30 67115 H 6376.25 -0.214472 2.53795 0
M  V30 67116 H 6377.03 1.33591 3.16241 0
M  V30 67117 N 6379.48 -1.56817 0.156946 0
M  V30 67118 C 6380.43 -2.17259 -0.778927 0
M  V30 67119 C 6381.4 -1.10835 -1.23713 0
M  V30 67120 O 6382.58 -1.38922 -1.30788 0
M  V30 67121 C 6379.72 -2.80619 -2.00866 0
M  V30 67122 C 6378.83 -4.01463 -1.59535 0
M  V30 67123 C 6377.97 -4.52792 -2.77764 0
M  V30 67124 C 6377.01 -5.66079 -2.32854 0
M  V30 67125 N 6376.15 -6.11981 -3.44127 0
M  V30 67126 H 6380.99 -2.96892 -0.256705 0
M  V30 67127 H 6378.52 -1.4665 -0.114987 0
M  V30 67128 H 6380.48 -3.15503 -2.72972 0
M  V30 67129 H 6379.11 -2.03613 -2.50483 0
M  V30 67130 H 6378.16 -3.72493 -0.771574 0
M  V30 67131 H 6379.47 -4.83509 -1.22559 0
M  V30 67132 H 6378.63 -4.89783 -3.58046 0
M  V30 67133 H 6377.37 -3.69774 -3.17992 0
M  V30 67134 H 6376.37 -5.28653 -1.51015 0
M  V30 67135 H 6377.6 -6.50889 -1.93702 0
M  V30 67136 H 6375.54 -5.31896 -3.83956 0
M  V30 67137 H 6375.46 -6.88979 -3.11197 0
M  V30 67138 H 6376.73 -6.5362 -4.24736 0
M  V30 67139 N 6380.96 0.116821 -1.57166 0
M  V30 67140 C 6382.21 0.822594 -1.84602 0
M  V30 67141 C 6382.53 1.80313 -0.742455 0
M  V30 67142 O 6381.8 1.94505 0.233343 0
M  V30 67143 H 6380.38 0.306773 -0.681101 0
M  V30 67144 H 6383.04 0.103624 -1.94624 0
M  V30 67145 H 6382.13 1.36649 -2.80595 0
M  V30 67146 N 6382.44 1.52773 0.387063 0
M  V30 67147 C 6383.68 1.67911 1.1319 0
M  V30 67148 C 6384.01 0.420013 1.89911 0
M  V30 67149 O 6383.27 -0.597634 1.86351 0
M  V30 67150 C 6383.56 2.8664 2.13477 0
M  V30 67151 C 6383.23 4.24004 1.53399 0
M  V30 67152 C 6381.89 4.61363 1.36741 0
M  V30 67153 C 6384.24 5.09516 1.09738 0
M  V30 67154 C 6381.57 5.8189 0.749722 0
M  V30 67155 C 6383.92 6.3067 0.49379 0
M  V30 67156 C 6382.59 6.66759 0.314521 0
M  V30 67157 H 6381.86 0.614431 0.414193 0
M  V30 67158 H 6384.51 1.8692 0.416296 0
M  V30 67159 H 6382.81 2.62055 2.91263 0
M  V30 67160 H 6384.51 2.95547 2.71022 0
M  V30 67161 H 6381.1 3.94577 1.67353 0
M  V30 67162 H 6385.28 4.81221 1.21409 0
M  V30 67163 H 6380.54 6.08458 0.599045 0
M  V30 67164 H 6384.71 6.96244 0.147185 0
M  V30 67165 H 6382.34 7.60018 -0.166192 0
M  V30 67166 N 6383.91 -0.645623 1.43769 0
M  V30 67167 C 6385.15 -1.41714 1.47298 0
M  V30 67168 C 6385.52 -1.91753 0.0973329 0
M  V30 67169 O 6386.72 -2.68799 0.0073005 0
M  V30 67170 C 6384.99 -2.56154 2.49239 0
M  V30 67171 S 6386.55 -3.44562 2.71702 0
M  V30 67172 H 6383.37 -0.483646 0.52116 0
M  V30 67173 H 6385.97 -0.748835 1.8059 0
M  V30 67174 H 6384.67 -2.17679 3.47914 0
M  V30 67175 H 6384.2 -3.27827 2.1747 0
M  V30 67176 H 6386.22 -4.53132 2.02202 0
M  V30 67177 N 6385.39 -1.30426 -0.884698 0
M  V30 67178 C 6386.67 -1.09922 -1.61791 0
M  V30 67179 C 6387.05 0.351375 -2.08155 0
M  V30 67180 O 6386.4 1.34292 -1.84873 0
M  V30 67181 C 6386.61 -2.10034 -2.78724 0
M  V30 67182 C 6387.96 -2.41766 -3.49048 0
M  V30 67183 O 6388.98 -2.08346 -2.88913 0
M  V30 67184 O 6387.84 -2.98934 -4.57494 0
M  V30 67185 H 6384.93 -0.422188 -0.711116 0
M  V30 67186 H 6387.48 -1.41852 -0.93145 0
M  V30 67187 H 6386.25 -3.07673 -2.4177 0
M  V30 67188 H 6385.87 -1.78922 -3.55067 0
M  V30 67189 N 6386.87 1.09707 -1.13146 0
M  V30 67190 C 6387.8 2.18298 -0.828738 0
M  V30 67191 C 6388.78 1.6879 0.210673 0
M  V30 67192 O 6389.97 1.94073 0.0702295 0
M  V30 67193 C 6387.1 3.4608 -0.290796 0
M  V30 67194 C 6386.05 4.08906 -1.26413 0
M  V30 67195 C 6385.38 5.31478 -0.586074 0
M  V30 67196 C 6386.68 4.51742 -2.62158 0
M  V30 67197 H 6388.37 2.43879 -1.73676 0
M  V30 67198 H 6385.92 1.17213 -0.83649 0
M  V30 67199 H 6387.87 4.21347 -0.066699 0
M  V30 67200 H 6386.59 3.20014 0.652603 0
M  V30 67201 H 6385.25 3.35655 -1.47416 0
M  V30 67202 H 6384.9 5.01691 0.362707 0
M  V30 67203 H 6384.6 5.74466 -1.23542 0
M  V30 67204 H 6386.12 6.09471 -0.371191 0
M  V30 67205 H 6387.54 5.18247 -2.45139 0
M  V30 67206 H 6385.94 5.05604 -3.23241 0
M  V30 67207 H 6387.01 3.64286 -3.20038 0
M  V30 67208 N 6388.35 0.924521 1.27634 0
M  V30 67209 C 6389.3 0.419749 2.26951 0
M  V30 67210 C 6390.27 -0.511627 1.58024 0
M  V30 67211 O 6391.45 -0.431479 1.85857 0
M  V30 67212 C 6388.59 -0.324312 3.43573 0
M  V30 67213 C 6387.7 0.640809 4.27221 0
M  V30 67214 C 6386.84 -0.122776 5.31058 0
M  V30 67215 C 6385.88 0.835259 6.06374 0
M  V30 67216 N 6385.01 0.104503 7.02022 0
M  V30 67217 H 6389.85 1.27169 2.69504 0
M  V30 67218 H 6387.39 0.638357 1.32527 0
M  V30 67219 H 6389.35 -0.771997 4.09995 0
M  V30 67220 H 6387.98 -1.14051 3.01981 0
M  V30 67221 H 6387.03 1.20702 3.60742 0
M  V30 67222 H 6388.34 1.37312 4.79528 0
M  V30 67223 H 6387.5 -0.630525 6.03415 0
M  V30 67224 H 6386.24 -0.88807 4.79546 0
M  V30 67225 H 6385.24 1.35429 5.32859 0
M  V30 67226 H 6386.47 1.60028 6.59976 0
M  V30 67227 H 6384.41 -0.642603 6.52845 0
M  V30 67228 H 6384.33 0.776439 7.52002 0
M  V30 67229 H 6385.6 -0.382698 7.7856 0
M  V30 67230 N 6389.83 -1.41708 0.689677 0
M  V30 67231 C 6391.07 -2.00924 0.217726 0
M  V30 67232 C 6391.4 -1.54875 -1.18486 0
M  V30 67233 O 6390.67 -0.776809 -1.7984 0
M  V30 67234 H 6389.25 -0.742968 0.0775044 0
M  V30 67235 H 6391.91 -1.73417 0.889517 0
M  V30 67236 H 6391 -3.11247 0.23056 0
M  V30 67237 N 6391.3 -0.434018 -1.51506 0
M  V30 67238 C 6392.25 0.3791 -2.27665 0
M  V30 67239 C 6393.22 1.0197 -1.31116 0
M  V30 67240 O 6394.41 1.03924 -1.60014 0
M  V30 67241 C 6391.55 1.47617 -3.11935 0
M  V30 67242 C 6390.66 0.854027 -4.23474 0
M  V30 67243 C 6389.79 1.92586 -4.95059 0
M  V30 67244 C 6388.83 1.28198 -5.98525 0
M  V30 67245 N 6387.97 2.29504 -6.6353 0
M  V30 67246 H 6392.81 -0.276734 -2.96712 0
M  V30 67247 H 6390.35 -0.148315 -1.4635 0
M  V30 67248 H 6392.31 2.12348 -3.59116 0
M  V30 67249 H 6390.94 2.10168 -2.45009 0
M  V30 67250 H 6389.99 0.0950992 -3.80281 0
M  V30 67251 H 6391.3 0.343911 -4.97613 0
M  V30 67252 H 6390.45 2.64987 -5.45772 0
M  V30 67253 H 6389.19 2.4697 -4.20544 0
M  V30 67254 H 6388.2 0.543426 -5.47108 0
M  V30 67255 H 6389.42 0.745521 -6.74995 0
M  V30 67256 H 6387.37 2.82974 -5.91829 0
M  V30 67257 H 6387.29 1.83374 -7.33423 0
M  V30 67258 H 6388.55 3.01398 -7.18874 0
M  V30 67259 N 6392.78 1.56731 -0.165261 0
M  V30 67260 C 6394.01 2.00779 0.486971 0
M  V30 67261 C 6394.42 1.04453 1.57754 0
M  V30 67262 O 6393.76 0.0364625 1.83664 0
M  V30 67263 C 6393.83 3.41256 1.13068 0
M  V30 67264 C 6393.49 4.56635 0.182505 0
M  V30 67265 C 6394.49 5.16463 -0.596847 0
M  V30 67266 C 6392.17 5.02236 0.0800938 0
M  V30 67267 C 6394.17 6.20315 -1.46587 0
M  V30 67268 C 6391.85 6.05939 -0.792521 0
M  V30 67269 C 6392.85 6.6485 -1.56409 0
M  V30 67270 O 6392.54 7.66543 -2.42214 0
M  V30 67271 H 6392.27 0.663456 0.129624 0
M  V30 67272 H 6394.82 2.03718 -0.262305 0
M  V30 67273 H 6393.05 3.35211 1.92796 0
M  V30 67274 H 6394.74 3.69296 1.6845 0
M  V30 67275 H 6395.51 4.82119 -0.527864 0
M  V30 67276 H 6391.39 4.56099 0.670425 0
M  V30 67277 H 6394.93 6.66225 -2.06857 0
M  V30 67278 H 6390.83 6.39709 -0.862729 0
M  V30 67279 H 6391.6 7.8384 -2.35662 0
M  V30 67280 N 6394.26 -0.108484 1.57226 0
M  V30 67281 C 6395.51 -0.815608 1.85676 0
M  V30 67282 C 6395.84 -1.79028 0.752504 0
M  V30 67283 O 6395.11 -1.93004 -0.240743 0
M  V30 67284 C 6395.4 -1.55622 3.24737 0
M  V30 67285 C 6395.25 -0.600438 4.45774 0
M  V30 67286 C 6396.57 -2.50996 3.61509 0
M  V30 67287 H 6393.69 -0.295052 0.675362 0
M  V30 67288 H 6396.33 -0.0795673 1.89833 0
M  V30 67289 H 6394.48 -2.18365 3.21324 0
M  V30 67290 H 6396.15 0.0189605 4.61296 0
M  V30 67291 H 6394.4 0.0872324 4.33712 0
M  V30 67292 H 6395.07 -1.1555 5.3977 0
M  V30 67293 H 6397.54 -1.98352 3.65781 0
M  V30 67294 H 6396.42 -2.99841 4.59768 0
M  V30 67295 H 6396.68 -3.34143 2.89483 0
M  V30 67296 N 6395.74 -1.52976 -0.378955 0
M  V30 67297 C 6396.67 -1.74735 -1.48326 0
M  V30 67298 C 6397.68 -0.627914 -1.50203 0
M  V30 67299 O 6398.87 -0.90386 -1.53924 0
M  V30 67300 C 6395.97 -1.80008 -2.87141 0
M  V30 67301 C 6395.15 -3.09463 -3.09114 0
M  V30 67302 C 6394.2 -3.06153 -4.27968 0
M  V30 67303 O 6393.23 -3.7999 -4.23788 0
M  V30 67304 N 6394.43 -2.26038 -5.34684 0
M  V30 67305 H 6397.2 -2.70016 -1.30044 0
M  V30 67306 H 6394.76 -1.51588 -0.568564 0
M  V30 67307 H 6396.75 -1.75288 -3.64769 0
M  V30 67308 H 6395.32 -0.920699 -2.98734 0
M  V30 67309 H 6394.54 -3.27593 -2.19263 0
M  V30 67310 H 6395.83 -3.95042 -3.20655 0
M  V30 67311 H 6395.23 -1.65534 -5.40939 0
M  V30 67312 H 6393.78 -2.27148 -6.1094 0
M  V30 67313 N 6397.22 0.637989 -1.44109 0
M  V30 67314 C 6398.47 1.39361 -1.45813 0
M  V30 67315 C 6398.78 1.95384 -0.0919357 0
M  V30 67316 O 6399.98 2.71497 0.0135227 0
M  V30 67317 C 6398.44 2.52284 -2.56672 0
M  V30 67318 C 6398.05 2.02804 -3.99468 0
M  V30 67319 C 6399.79 3.2954 -2.67589 0
M  V30 67320 C 6397.7 3.13029 -5.01764 0
M  V30 67321 H 6396.63 0.523681 -0.54247 0
M  V30 67322 H 6399.28 0.687071 -1.70152 0
M  V30 67323 H 6397.66 3.25481 -2.25562 0
M  V30 67324 H 6398.84 1.36518 -4.40113 0
M  V30 67325 H 6397.15 1.38384 -3.92733 0
M  V30 67326 H 6399.75 4.11697 -3.41188 0
M  V30 67327 H 6400.09 3.78572 -1.73172 0
M  V30 67328 H 6400.62 2.63431 -2.98075 0
M  V30 67329 H 6397.36 2.68948 -5.97785 0
M  V30 67330 H 6396.88 3.77978 -4.65717 0
M  V30 67331 H 6398.56 3.77916 -5.25156 0
M  V30 67332 N 6398.69 1.30893 0.877769 0
M  V30 67333 C 6400.11 1.18131 1.44575 0
M  V30 67334 C 6400.46 -0.215238 1.95016 0
M  V30 67335 O 6399.58 -1.11245 1.85617 0
M  V30 67336 C 6400.18 2.13844 2.62785 0
M  V30 67337 C 6398.74 2.05039 3.15652 0
M  V30 67338 C 6397.88 2.03516 1.88352 0
M  V30 67339 H 6400.83 1.43058 0.687031 0
M  V30 67340 H 6400.85 1.72349 3.39229 0
M  V30 67341 H 6400.37 3.15478 2.26043 0
M  V30 67342 H 6398.47 1.06573 3.57034 0
M  V30 67343 H 6398.58 2.93773 3.78463 0
M  V30 67344 H 6396.94 1.4842 2.06987 0
M  V30 67345 H 6397.73 3.06892 1.53858 0
M  V30 67346 N 6400.17 -1.09106 1.13726 0
M  V30 67347 C 6401.4 -1.85105 0.92433 0
M  V30 67348 C 6401.82 -1.81297 -0.526961 0
M  V30 67349 O 6401.17 -1.21149 -1.36489 0
M  V30 67350 C 6401.22 -3.32945 1.40819 0
M  V30 67351 O 6400.95 -3.36728 2.80261 0
M  V30 67352 C 6402.45 -4.25774 1.23416 0
M  V30 67353 H 6399.67 -0.584583 0.329399 0
M  V30 67354 H 6402.21 -1.37841 1.51063 0
M  V30 67355 H 6400.37 -3.77624 0.864812 0
M  V30 67356 H 6400.78 -4.28962 3.01814 0
M  V30 67357 H 6402.25 -5.2765 1.62142 0
M  V30 67358 H 6402.73 -4.38846 0.176212 0
M  V30 67359 H 6403.34 -3.86914 1.76573 0
M  V30 67360 N 6401.65 -0.931276 -1.27142 0
M  V30 67361 C 6402.88 -0.590025 -1.98309 0
M  V30 67362 C 6403.29 0.832776 -1.69441 0
M  V30 67363 O 6402.65 1.55396 -0.95699 0
M  V30 67364 C 6402.7 -0.810716 -3.52292 0
M  V30 67365 O 6402.42 -2.17755 -3.80151 0
M  V30 67366 C 6403.92 -0.478663 -4.40708 0
M  V30 67367 H 6401.14 -0.223256 -0.63277 0
M  V30 67368 H 6403.69 -1.24928 -1.61905 0
M  V30 67369 H 6401.84 -0.198217 -3.86893 0
M  V30 67370 H 6402.26 -2.2302 -4.74723 0
M  V30 67371 H 6403.73 -0.683758 -5.47749 0
M  V30 67372 H 6404.21 0.585949 -4.35274 0
M  V30 67373 H 6404.81 -1.06946 -4.11634 0
M  V30 67374 N 6403.13 1.4134 -0.697182 0
M  V30 67375 C 6404.37 2.03068 -0.233008 0
M  V30 67376 C 6404.73 1.5403 1.14624 0
M  V30 67377 O 6405.93 2.07694 1.70635 0
M  V30 67378 C 6404.21 3.56221 -0.290049 0
M  V30 67379 S 6405.76 4.38686 0.0998424 0
M  V30 67380 H 6402.58 0.704792 -0.093752 0
M  V30 67381 H 6405.18 1.72749 -0.915317 0
M  V30 67382 H 6403.89 3.89405 -1.29583 0
M  V30 67383 H 6403.42 3.91243 0.411355 0
M  V30 67384 H 6405.43 4.78123 1.32713 0
M  V30 67385 N 6404.61 0.442047 1.51274 0
M  V30 67386 C 6405.57 -0.355422 2.26427 0
M  V30 67387 C 6406.57 -0.945654 1.30054 0
M  V30 67388 O 6407.76 -0.819368 1.53727 0
M  V30 67389 C 6404.89 -1.50333 3.05962 0
M  V30 67390 H 6406.09 0.303282 2.98363 0
M  V30 67391 H 6403.64 0.195333 1.55075 0
M  V30 67392 H 6404.37 -2.19795 2.38455 0
M  V30 67393 H 6404.16 -1.08622 3.76754 0
M  V30 67394 H 6405.65 -2.06663 3.62878 0
M  V30 67395 N 6406.09 -1.56641 0.17357 0
M  V30 67396 C 6407.03 -2.1939 -0.772714 0
M  V30 67397 C 6408.03 -1.1586 -1.23583 0
M  V30 67398 O 6409.23 -1.34054 -1.20123 0
M  V30 67399 H 6405.61 -0.702825 -0.267472 0
M  V30 67400 H 6407.58 -2.97591 -0.219552 0
M  V30 67401 C 6406.33 -2.85063 -1.99084 0
M  V30 67402 H 6405.65 -3.64457 -1.64351 0
M  V30 67403 H 6407.09 -3.32434 -2.63179 0
M  V30 67404 C 6405.55 -1.84954 -2.81591 0
M  V30 67405 O 6406.08 -1.33641 -3.78818 0
M  V30 67406 N 6404.29 -1.53661 -2.46651 0
M  V30 67407 H 6403.83 -1.95582 -1.67647 0
M  V30 67408 H 6403.79 -0.869326 -3.02142 0
M  V30 67409 N 6407.56 0.100145 -1.57281 0
M  V30 67410 C 6408.84 0.835944 -1.76837 0
M  V30 67411 C 6409.22 1.97178 -0.753934 0
M  V30 67412 O 6408.57 2.27452 0.218546 0
M  V30 67413 C 6408.78 1.3352 -3.22449 0
M  V30 67414 C 6410.13 1.78001 -3.85488 0
M  V30 67415 O 6411.15 1.43155 -3.26167 0
M  V30 67416 O 6410.01 2.42415 -4.89793 0
M  V30 67417 H 6407.1 0.398361 -0.724733 0
M  V30 67418 H 6409.65 0.0824188 -1.695 0
M  V30 67419 H 6408.42 0.521171 -3.87814 0
M  V30 67420 H 6408.04 2.15088 -3.34399 0
M  V30 67421 N 6409.04 1.53175 0.370837 0
M  V30 67422 C 6410.45 1.60847 0.947903 0
M  V30 67423 C 6410.8 0.472595 1.90423 0
M  V30 67424 O 6409.93 -0.401748 2.12638 0
M  V30 67425 C 6410.52 2.9154 1.72597 0
M  V30 67426 C 6409.08 3.01565 2.25246 0
M  V30 67427 C 6408.23 2.56104 1.06331 0
M  V30 67428 H 6411.18 1.57991 0.149796 0
M  V30 67429 H 6411.2 2.79047 2.58675 0
M  V30 67430 H 6410.71 3.74191 1.02969 0
M  V30 67431 H 6408.81 2.2349 2.98133 0
M  V30 67432 H 6408.93 4.06547 2.53488 0
M  V30 67433 H 6407.29 2.10854 1.42873 0
M  V30 67434 H 6408.07 3.41167 0.38209 0
M  V30 67435 N 6410.52 -0.630338 1.44445 0
M  V30 67436 C 6411.77 -1.39194 1.47488 0
M  V30 67437 C 6412.1 -1.93903 0.107381 0
M  V30 67438 O 6411.37 -1.73702 -0.875097 0
M  V30 67439 C 6411.66 -2.55665 2.53589 0
M  V30 67440 C 6411.51 -2.063 3.997 0
M  V30 67441 C 6412.83 -3.57849 2.56187 0
M  V30 67442 H 6409.95 -0.504775 0.537002 0
M  V30 67443 H 6412.59 -0.712636 1.76129 0
M  V30 67444 H 6410.74 -3.13616 2.29298 0
M  V30 67445 H 6412.41 -1.53174 4.35127 0
M  V30 67446 H 6410.65 -1.37477 4.11439 0
M  V30 67447 H 6411.33 -2.90156 4.69588 0
M  V30 67448 H 6413.8 -3.097 2.77894 0
M  V30 67449 H 6412.68 -4.36863 3.32328 0
M  V30 67450 H 6412.94 -4.1197 1.60415 0
M  V30 67451 N 6412 -1.31357 -0.870815 0
M  V30 67452 C 6413.25 -1.20755 -1.62058 0
M  V30 67453 C 6413.57 0.234641 -1.93583 0
M  V30 67454 O 6412.84 1.15512 -1.58221 0
M  V30 67455 H 6411.42 -0.443932 -0.600777 0
M  V30 67456 H 6414.08 -1.64671 -1.04257 0
M  V30 67457 H 6413.17 -1.77864 -2.56458 0
M  V30 67458 N 6413.48 1.08501 -1.14303 0
M  V30 67459 C 6414.72 1.80868 -0.910653 0
M  V30 67460 C 6415.05 1.86179 0.562818 0
M  V30 67461 O 6414.31 1.33287 1.43294 0
M  V30 67462 C 6414.6 3.2642 -1.45549 0
M  V30 67463 C 6414.27 3.41229 -2.94744 0
M  V30 67464 C 6412.93 3.44978 -3.35476 0
M  V30 67465 C 6415.28 3.44986 -3.90684 0
M  V30 67466 C 6412.61 3.50074 -4.70813 0
M  V30 67467 C 6414.96 3.51618 -5.25878 0
M  V30 67468 C 6413.63 3.53639 -5.66123 0
M  V30 67469 H 6412.9 0.661844 -0.333231 0
M  V30 67470 H 6415.55 1.27757 -1.42655 0
M  V30 67471 H 6413.85 3.82234 -0.86051 0
M  V30 67472 H 6415.55 3.80966 -1.25164 0
M  V30 67473 H 6412.14 3.39001 -2.62252 0
M  V30 67474 H 6416.32 3.41322 -3.60296 0
M  V30 67475 H 6411.58 3.49931 -5.01356 0
M  V30 67476 H 6415.75 3.53471 -6.00026 0
M  V30 67477 H 6413.38 3.57341 -6.70978 0
M  V30 67478 N 6414.95 0.938006 1.26646 0
M  V30 67479 C 6416.18 0.600534 1.97993 0
M  V30 67480 C 6416.6 -0.823779 1.6988 0
M  V30 67481 O 6415.95 -1.54886 0.965218 0
M  V30 67482 C 6416.01 0.829388 3.51857 0
M  V30 67483 O 6415.73 2.19768 3.7899 0
M  V30 67484 C 6417.23 0.502028 4.40448 0
M  V30 67485 H 6414.45 0.226609 0.631577 0
M  V30 67486 H 6416.99 1.25785 1.61241 0
M  V30 67487 H 6415.15 0.218732 3.86782 0
M  V30 67488 H 6415.56 2.25534 4.73534 0
M  V30 67489 H 6417.03 0.712797 5.47378 0
M  V30 67490 H 6417.51 -0.562857 4.35578 0
M  V30 67491 H 6418.12 1.09127 4.11061 0
M  V30 67492 N 6416.43 -1.40969 0.704668 0
M  V30 67493 C 6417.36 -2.33424 0.0596476 0
M  V30 67494 C 6418.34 -1.52309 -0.757368 0
M  V30 67495 O 6419.53 -1.80814 -0.708503 0
M  V30 67496 C 6416.66 -3.36205 -0.870846 0
M  V30 67497 C 6415.61 -4.277 -0.160258 0
M  V30 67498 C 6414.94 -5.20928 -1.20573 0
M  V30 67499 C 6416.24 -5.13044 0.978961 0
M  V30 67500 H 6417.93 -2.87612 0.831861 0
M  V30 67501 H 6415.48 -1.3829 0.401477 0
M  V30 67502 H 6417.43 -3.99815 -1.33139 0
M  V30 67503 H 6416.16 -2.80387 -1.67483 0
M  V30 67504 H 6414.81 -3.65526 0.28035 0
M  V30 67505 H 6414.46 -4.61422 -2.00248 0
M  V30 67506 H 6414.16 -5.82982 -0.735225 0
M  V30 67507 H 6415.69 -5.87415 -1.6666 0
M  V30 67508 H 6417.1 -5.7017 0.598281 0
M  V30 67509 H 6415.5 -5.84085 1.37714 0
M  V30 67510 H 6416.57 -4.49669 1.81456 0
M  V30 67511 N 6417.91 -0.450063 -1.51037 0
M  V30 67512 C 6419.33 -0.103036 -1.59267 0
M  V30 67513 C 6419.53 1.38875 -1.45999 0
M  V30 67514 O 6418.58 2.15998 -1.30771 0
M  V30 67515 C 6419.9 -0.634495 -2.9393 0
M  V30 67516 C 6421.44 -0.596058 -3.07272 0
M  V30 67517 C 6421.92 -1.1047 -4.44478 0
M  V30 67518 N 6423.41 -1.06323 -4.50832 0
M  V30 67519 C 6424.14 -1.42752 -5.55346 0
M  V30 67520 N 6423.64 -1.8653 -6.67217 0
M  V30 67521 N 6425.43 -1.34488 -5.45774 0
M  V30 67522 H 6417.58 -1.42055 -1.57906 0
M  V30 67523 H 6419.85 -0.586168 -0.745058 0
M  V30 67524 H 6419.55 -1.67874 -3.09049 0
M  V30 67525 H 6419.43 -0.0663994 -3.77142 0
M  V30 67526 H 6421.81 0.439229 -2.91813 0
M  V30 67527 H 6421.9 -1.20071 -2.25869 0
M  V30 67528 H 6421.54 -2.13852 -4.60684 0
M  V30 67529 H 6421.47 -0.476469 -5.2444 0
M  V30 67530 H 6423.96 -0.741896 -3.70546 0
M  V30 67531 H 6424.27 -2.12531 -7.43001 0
M  V30 67532 H 6422.62 -1.90466 -6.68392 0
M  V30 67533 H 6425.81 -1.00144 -4.57262 0
M  V30 67534 H 6425.98 -1.63207 -6.2711 0
M  V30 67535 N 6419.39 1.56547 -0.181875 0
M  V30 67536 C 6420.34 2.19797 0.761069 0
M  V30 67537 C 6421.33 1.16514 1.22967 0
M  V30 67538 O 6422.54 1.34689 1.1941 0
M  V30 67539 H 6418.91 0.704233 0.263741 0
M  V30 67540 H 6420.88 2.97703 0.203766 0
M  V30 67541 C 6419.63 2.86115 1.9757 0
M  V30 67542 H 6418.95 3.65323 1.62416 0
M  V30 67543 H 6420.39 3.33825 2.61413 0
M  V30 67544 C 6418.85 1.86445 2.80606 0
M  V30 67545 O 6419.38 1.35648 3.78104 0
M  V30 67546 N 6417.59 1.54967 2.45832 0
M  V30 67547 H 6417.14 1.96468 1.66608 0
M  V30 67548 H 6417.09 0.885337 3.01677 0
M  V30 67549 N 6420.87 -0.0918024 1.57332 0
M  V30 67550 C 6422.09 -0.808151 1.90464 0
M  V30 67551 C 6422.51 -1.7212 0.775903 0
M  V30 67552 O 6421.87 -1.80753 -0.251931 0
M  V30 67553 C 6421.92 -1.61873 3.23233 0
M  V30 67554 O 6421.64 -0.742411 4.31764 0
M  V30 67555 C 6423.14 -2.43785 3.70248 0
M  V30 67556 H 6420.36 -0.230893 0.630023 0
M  V30 67557 H 6422.9 -0.0680516 2.04387 0
M  V30 67558 H 6421.06 -2.31131 3.10898 0
M  V30 67559 H 6421.47 -1.30415 5.08028 0
M  V30 67560 H 6422.95 -2.96148 4.65833 0
M  V30 67561 H 6423.42 -3.224 2.98253 0
M  V30 67562 H 6424.03 -1.79721 3.85462 0
M  V30 67563 N 6422.34 -1.53369 -0.362709 0
M  V30 67564 C 6423.59 -1.69942 -1.10668 0
M  V30 67565 C 6423.92 -0.451368 -1.88882 0
M  V30 67566 O 6423.2 0.551386 -1.86521 0
M  V30 67567 C 6423.48 -2.95108 -2.06357 0
M  V30 67568 C 6423.33 -4.30077 -1.31733 0
M  V30 67569 C 6424.65 -3.15883 -3.06441 0
M  V30 67570 H 6421.77 -0.618394 -0.400947 0
M  V30 67571 H 6424.41 -1.86013 -0.3872 0
M  V30 67572 H 6422.56 -2.81538 -2.6771 0
M  V30 67573 H 6424.24 -4.55465 -0.731414 0
M  V30 67574 H 6422.48 -4.29358 -0.619196 0
M  V30 67575 H 6423.15 -5.13796 -2.01785 0
M  V30 67576 H 6425.63 -3.28658 -2.55192 0
M  V30 67577 H 6424.5 -4.04891 -3.70614 0
M  V30 67578 H 6424.76 -2.31295 -3.76769 0
M  V30 67579 N 6423.82 0.622669 -1.44778 0
M  V30 67580 C 6425.06 1.39352 -1.49533 0
M  V30 67581 C 6425.43 1.91574 -0.127827 0
M  V30 67582 O 6426.63 2.68753 -0.0500632 0
M  V30 67583 C 6424.9 2.52156 -2.53282 0
M  V30 67584 S 6426.46 3.40196 -2.7715 0
M  V30 67585 H 6423.28 0.475293 -0.528789 0
M  V30 67586 H 6425.88 0.72001 -1.81758 0
M  V30 67587 H 6424.58 2.12116 -3.51333 0
M  V30 67588 H 6424.11 3.24325 -2.22658 0
M  V30 67589 H 6426.13 4.49858 -2.09385 0
M  V30 67590 N 6425.3 1.31817 0.863836 0
M  V30 67591 C 6426.53 1.24831 1.65 0
M  V30 67592 C 6426.94 -0.185325 1.87888 0
M  V30 67593 O 6426.3 -1.1194 1.44138 0
M  V30 67594 C 6426.35 1.99524 3.0145 0
M  V30 67595 O 6426.07 3.37293 2.79581 0
M  V30 67596 C 6427.57 1.99452 3.95896 0
M  V30 67597 H 6424.79 0.431079 0.51421 0
M  V30 67598 H 6427.34 1.73792 1.0778 0
M  V30 67599 H 6425.49 1.54308 3.55342 0
M  V30 67600 H 6425.91 3.75405 3.66294 0
M  V30 67601 H 6427.38 2.56214 4.88936 0
M  V30 67602 H 6427.86 0.978522 4.28161 0
M  V30 67603 H 6428.46 2.44575 3.47942 0
M  V30 67604 N 6426.78 -1.07893 1.14877 0
M  V30 67605 C 6428.02 -1.8065 0.921595 0
M  V30 67606 C 6428.36 -1.86242 -0.550221 0
M  V30 67607 O 6427.63 -1.34211 -1.40775 0
M  V30 67608 C 6427.92 -3.25994 1.5297 0
M  V30 67609 C 6427.77 -3.2858 3.07173 0
M  V30 67610 C 6429.09 -4.23114 1.2109 0
M  V30 67611 H 6426.21 -0.655833 0.336231 0
M  V30 67612 H 6428.85 -1.26288 1.41955 0
M  V30 67613 H 6427 -3.72418 1.10623 0
M  V30 67614 H 6428.67 -2.90442 3.58387 0
M  V30 67615 H 6426.91 -2.677 3.41349 0
M  V30 67616 H 6427.58 -4.3104 3.44831 0
M  V30 67617 H 6430.06 -3.85054 1.57711 0
M  V30 67618 H 6428.94 -5.23113 1.66264 0
M  V30 67619 H 6429.2 -4.41917 0.127035 0
M  V30 67620 N 6428.26 -0.944709 -1.26147 0
M  V30 67621 C 6429.5 -0.601689 -1.95343 0
M  V30 67622 C 6429.86 0.844122 -1.72449 0
M  V30 67623 O 6431.06 1.29625 -2.3548 0
M  V30 67624 C 6429.33 -0.938805 -3.4485 0
M  V30 67625 S 6430.89 -0.706862 -4.33069 0
M  V30 67626 H 6427.71 -0.221492 -0.67562 0
M  V30 67627 H 6430.31 -1.21678 -1.53019 0
M  V30 67628 H 6429.02 -1.9884 -3.59014 0
M  V30 67629 H 6428.55 -0.31358 -3.92148 0
M  V30 67630 H 6430.56 0.427221 -4.94357 0
M  V30 67631 N 6429.74 1.40593 -0.712134 0
M  V30 67632 C 6430.98 2.00552 -0.249664 0
M  V30 67633 C 6431.3 1.5674 1.16007 0
M  V30 67634 O 6430.57 0.805322 1.78582 0
M  V30 67635 H 6429.15 0.741641 -0.0893146 0
M  V30 67636 H 6431.82 1.7198 -0.916994 0
M  V30 67637 H 6430.91 3.10841 -0.280048 0
M  V30 67638 N 6431.21 0.458066 1.50796 0
M  V30 67639 C 6432.15 -0.388531 2.24868 0
M  V30 67640 C 6433.12 -1.00729 1.27642 0
M  V30 67641 O 6434.31 -1.04575 1.56832 0
M  V30 67642 C 6431.44 -1.54326 3.01498 0
M  V30 67643 C 6430.48 -1.04316 4.13546 0
M  V30 67644 S 6431.31 0.0316339 5.35491 0
M  V30 67645 C 6432.47 -1.12727 6.15665 0
M  V30 67646 H 6432.7 0.240275 2.96327 0
M  V30 67647 H 6430.24 0.242797 1.52479 0
M  V30 67648 H 6432.19 -2.20513 3.46243 0
M  V30 67649 H 6430.86 -2.14354 2.29589 0
M  V30 67650 H 6430.05 -1.90725 4.66519 0
M  V30 67651 H 6429.65 -0.459205 3.7117 0
M  V30 67652 H 6431.94 -2.04155 6.46009 0
M  V30 67653 H 6432.89 -0.637083 7.05228 0
M  V30 67654 H 6433.29 -1.37521 5.47493 0
M  V30 67655 N 6432.69 -1.56448 0.190174 0
M  V30 67656 C 6433.94 -1.98496 -0.443951 0
M  V30 67657 C 6434.29 -1.07485 -1.59577 0
M  V30 67658 O 6433.59 -0.118257 -1.91235 0
M  V30 67659 C 6433.78 -3.44353 -0.956867 0
M  V30 67660 C 6433.61 -4.4947 0.143716 0
M  V30 67661 C 6432.38 -5.01729 0.599707 0
M  V30 67662 C 6434.58 -5.05433 0.950908 0
M  V30 67663 N 6432.56 -5.90504 1.67863 0
M  V30 67664 C 6433.93 -5.90831 1.87934 0
M  V30 67665 C 6435.98 -4.8788 0.993877 0
M  V30 67666 C 6434.69 -6.60553 2.84715 0
M  V30 67667 C 6436.71 -5.58337 1.94972 0
M  V30 67668 C 6436.08 -6.43477 2.8656 0
M  V30 67669 H 6432.17 -0.771116 -0.130016 0
M  V30 67670 H 6434.76 -1.92456 0.294736 0
M  V30 67671 H 6432.93 -3.50902 -1.66501 0
M  V30 67672 H 6434.66 -3.73375 -1.56119 0
M  V30 67673 H 6431.42 -4.73203 0.19395 0
M  V30 67674 H 6431.84 -6.39596 2.21914 0
M  V30 67675 H 6436.48 -4.21736 0.299783 0
M  V30 67676 H 6434.2 -7.25898 3.55103 0
M  V30 67677 H 6437.79 -5.46733 1.98931 0
M  V30 67678 H 6436.67 -6.97037 3.59317 0
M  V30 67679 N 6434.17 0.0834573 -1.57379 0
M  V30 67680 C 6435.12 1.10039 -2.02879 0
M  V30 67681 C 6436.09 1.39135 -0.907232 0
M  V30 67682 O 6437.27 1.504 -1.17407 0
M  V30 67683 C 6434.41 2.4122 -2.46793 0
M  V30 67684 C 6433.52 2.18756 -3.72518 0
M  V30 67685 C 6432.66 3.43418 -4.05263 0
M  V30 67686 C 6431.7 3.16266 -5.24063 0
M  V30 67687 N 6430.84 4.33226 -5.52503 0
M  V30 67688 H 6435.68 0.705401 -2.89531 0
M  V30 67689 H 6433.21 0.336758 -1.43193 0
M  V30 67690 H 6435.17 3.17794 -2.70301 0
M  V30 67691 H 6433.8 2.78544 -1.63135 0
M  V30 67692 H 6432.85 1.32929 -3.56418 0
M  V30 67693 H 6434.16 1.94692 -4.59235 0
M  V30 67694 H 6433.32 4.28393 -4.2961 0
M  V30 67695 H 6432.06 3.70546 -3.17091 0
M  V30 67696 H 6431.06 2.29685 -4.99525 0
M  V30 67697 H 6432.29 2.90471 -6.13843 0
M  V30 67698 H 6430.23 4.60408 -4.6729 0
M  V30 67699 H 6430.15 4.12394 -6.33614 0
M  V30 67700 H 6431.42 5.19232 -5.81393 0
M  V30 67701 N 6435.65 1.5356 0.35457 0
M  V30 67702 C 6436.9 1.69938 1.09387 0
M  V30 67703 C 6437.22 0.45949 1.89509 0
M  V30 67704 O 6436.49 -0.526542 1.88691 0
M  V30 67705 H 6435.07 0.626501 0.406823 0
M  V30 67706 H 6437.73 1.90782 0.398515 0
M  V30 67707 H 6436.82 2.56539 1.77748 0
M  V30 67708 N 6437.13 -0.614982 1.45106 0
M  V30 67709 C 6438.36 -1.39897 1.52028 0
M  V30 67710 C 6438.76 -1.88611 0.149179 0
M  V30 67711 O 6438.11 -1.62423 -0.858165 0
M  V30 67712 C 6438.17 -2.64281 2.43712 0
M  V30 67713 C 6437.83 -2.37256 3.90588 0
M  V30 67714 C 6438.83 -1.98077 4.80689 0
M  V30 67715 C 6436.51 -2.50396 4.35439 0
M  V30 67716 C 6438.51 -1.72389 6.13645 0
M  V30 67717 C 6436.2 -2.24322 5.68439 0
M  V30 67718 C 6437.19 -1.85379 6.57361 0
M  V30 67719 O 6436.88 -1.59606 7.87897 0
M  V30 67720 H 6436.61 -0.434905 0.517526 0
M  V30 67721 H 6439.17 -0.757801 1.9091 0
M  V30 67722 H 6437.4 -3.31092 1.99787 0
M  V30 67723 H 6439.09 -3.26314 2.41401 0
M  V30 67724 H 6439.85 -1.87468 4.47304 0
M  V30 67725 H 6435.73 -2.79676 3.66473 0
M  V30 67726 H 6439.28 -1.41918 6.83012 0
M  V30 67727 H 6435.17 -2.34546 6.0138 0
M  V30 67728 H 6435.94 -1.73719 7.99852 0
M  V30 67729 N 6438.6 -1.32273 -0.856834 0
M  V30 67730 C 6439.85 -1.22467 -1.60768 0
M  V30 67731 C 6440.17 0.214096 -1.93821 0
M  V30 67732 O 6439.44 1.13827 -1.59437 0
M  V30 67733 H 6438.02 -0.450279 -0.596035 0
M  V30 67734 H 6440.68 -1.65768 -1.02504 0
M  V30 67735 H 6439.78 -1.80574 -2.54557 0
M  V30 67736 N 6440.08 1.07283 -1.15448 0
M  V30 67737 C 6441.32 1.81486 -0.940324 0
M  V30 67738 C 6441.69 1.84736 0.523141 0
M  V30 67739 O 6442.89 2.54818 0.855648 0
M  V30 67740 C 6441.16 3.22587 -1.53859 0
M  V30 67741 S 6442.72 4.13528 -1.46765 0
M  V30 67742 H 6439.53 0.625306 -0.338399 0
M  V30 67743 H 6442.14 1.28874 -1.4701 0
M  V30 67744 H 6440.84 3.17811 -2.59662 0
M  V30 67745 H 6440.37 3.80275 -1.00771 0
M  V30 67746 H 6442.39 4.94054 -0.461007 0
M  V30 67747 N 6441.56 0.951386 1.25644 0
M  V30 67748 C 6442.78 0.621023 1.97884 0
M  V30 67749 C 6443.21 -0.799323 1.70272 0
M  V30 67750 O 6442.57 -1.54001 0.956726 0
M  V30 67751 C 6442.62 0.881996 3.49647 0
M  V30 67752 O 6441.72 -0.0408351 4.1238 0
M  V30 67753 H 6441.06 0.236455 0.620472 0
M  V30 67754 H 6443.59 1.2771 1.59848 0
M  V30 67755 H 6443.6 0.806964 3.9994 0
M  V30 67756 H 6442.28 1.91721 3.69074 0
M  V30 67757 H 6440.85 0.0861248 3.72801 0
M  V30 67758 N 6443.04 -1.40213 0.71958 0
M  V30 67759 C 6444.28 -2.02671 0.265285 0
M  V30 67760 C 6444.64 -1.55834 -1.12159 0
M  V30 67761 O 6445.84 -2.10383 -1.6731 0
M  V30 67762 C 6444.11 -3.55715 0.346684 0
M  V30 67763 S 6445.67 -4.3879 -0.0300385 0
M  V30 67764 H 6442.49 -0.703211 0.104953 0
M  V30 67765 H 6445.09 -1.71271 0.942684 0
M  V30 67766 H 6443.8 -3.87294 1.35762 0
M  V30 67767 H 6443.33 -3.91848 -0.349059 0
M  V30 67768 H 6445.34 -4.80174 -1.2509 0
M  V30 67769 N 6444.52 -0.466057 -1.50551 0
M  V30 67770 C 6445.79 0.152003 -1.95008 0
M  V30 67771 C 6446.17 1.57446 -1.4062 0
M  V30 67772 O 6445.52 2.20343 -0.605091 0
M  V30 67773 C 6445.73 0.100461 -3.48855 0
M  V30 67774 C 6447.08 0.291849 -4.23596 0
M  V30 67775 O 6448.1 0.177276 -3.55759 0
M  V30 67776 O 6446.96 0.522689 -5.43995 0
M  V30 67777 H 6444.06 0.114411 -0.819048 0
M  V30 67778 H 6446.6 -0.526098 -1.61339 0
M  V30 67779 H 6445.37 -0.892879 -3.80977 0
M  V30 67780 H 6445 0.820238 -3.89047 0
M  V30 67781 N 6445.99 1.56345 -0.198468 0
M  V30 67782 C 6446.93 2.16479 0.752961 0
M  V30 67783 C 6447.94 1.12752 1.17434 0
M  V30 67784 O 6449.13 1.39831 1.10949 0
M  V30 67785 C 6446.23 2.71479 2.0286 0
M  V30 67786 C 6445.4 4.00143 1.76649 0
M  V30 67787 C 6444.46 4.39935 2.88693 0
M  V30 67788 O 6443.49 5.07292 2.58155 0
M  V30 67789 N 6444.69 4.03716 4.17125 0
M  V30 67790 H 6447.45 2.98748 0.238707 0
M  V30 67791 H 6445.01 1.61891 -0.016622 0
M  V30 67792 H 6447.01 2.95083 2.76963 0
M  V30 67793 H 6445.58 1.93645 2.45398 0
M  V30 67794 H 6444.8 3.84636 0.863081 0
M  V30 67795 H 6446.08 4.84121 1.56538 0
M  V30 67796 H 6445.48 3.49544 4.44787 0
M  V30 67797 H 6444.04 4.32263 4.87845 0
M  V30 67798 N 6447.47 -0.07511 1.57421 0
M  V30 67799 C 6448.4 -1.08999 2.06498 0
M  V30 67800 C 6449.38 -1.4057 0.957815 0
M  V30 67801 O 6450.57 -1.50255 1.23033 0
M  V30 67802 C 6447.7 -2.40437 2.50614 0
M  V30 67803 C 6446.65 -2.23227 3.65176 0
M  V30 67804 C 6445.98 -3.60019 3.95336 0
M  V30 67805 C 6447.28 -1.65625 4.95344 0
M  V30 67806 H 6448.97 -0.681622 2.91538 0
M  V30 67807 H 6446.52 -0.326432 1.40251 0
M  V30 67808 H 6448.47 -3.11724 2.83559 0
M  V30 67809 H 6447.2 -2.83248 1.62598 0
M  V30 67810 H 6445.85 -1.54382 3.32508 0
M  V30 67811 H 6445.5 -4.00394 3.04457 0
M  V30 67812 H 6445.2 -3.49344 4.72475 0
M  V30 67813 H 6446.73 -4.32742 4.30775 0
M  V30 67814 H 6448.14 -2.26774 5.26542 0
M  V30 67815 H 6446.54 -1.65655 5.76783 0
M  V30 67816 H 6447.61 -0.617424 4.80953 0
M  V30 67817 N 6448.95 -1.53746 -0.346422 0
M  V30 67818 C 6450.37 -1.43945 -0.689344 0
M  V30 67819 C 6450.57 -0.593887 -1.92549 0
M  V30 67820 O 6449.62 -0.083754 -2.52361 0
M  V30 67821 C 6450.94 -2.87392 -0.884665 0
M  V30 67822 C 6452.48 -2.97148 -0.983465 0
M  V30 67823 C 6452.96 -4.41697 -1.21112 0
M  V30 67824 N 6454.45 -4.45209 -1.27839 0
M  V30 67825 C 6455.18 -5.54184 -1.472 0
M  V30 67826 N 6454.68 -6.7317 -1.63752 0
M  V30 67827 N 6456.47 -5.41793 -1.49724 0
M  V30 67828 H 6448.62 -2.07216 0.466379 0
M  V30 67829 H 6450.89 -0.936579 0.146708 0
M  V30 67830 H 6450.59 -3.51667 -0.0479013 0
M  V30 67831 H 6450.47 -3.32171 -1.78724 0
M  V30 67832 H 6452.85 -2.33014 -1.81075 0
M  V30 67833 H 6452.94 -2.55735 -0.0578579 0
M  V30 67834 H 6452.58 -5.0641 -0.388774 0
M  V30 67835 H 6452.51 -4.80699 -2.15025 0
M  V30 67836 H 6455 -3.59467 -1.16584 0
M  V30 67837 H 6455.31 -7.51985 -1.78152 0
M  V30 67838 H 6453.66 -6.7612 -1.60893 0
M  V30 67839 H 6456.85 -4.47795 -1.36373 0
M  V30 67840 H 6457.02 -6.2678 -1.64471 0
M  V30 67841 N 6450.43 0.607278 -1.4543 0
M  V30 67842 C 6451.34 1.74625 -1.56663 0
M  V30 67843 C 6452.35 1.68052 -0.451073 0
M  V30 67844 O 6453.53 1.88402 -0.711803 0
M  V30 67845 C 6450.6 3.11086 -1.53056 0
M  V30 67846 C 6449.66 3.29111 -2.75653 0
M  V30 67847 C 6448.89 4.59062 -2.72209 0
M  V30 67848 O 6449.11 5.41402 -1.79555 0
M  V30 67849 O 6448.05 4.79806 -3.63414 0
M  V30 67850 H 6451.87 1.68099 -2.52936 0
M  V30 67851 H 6449.46 0.771402 -1.27944 0
M  V30 67852 H 6451.34 3.92388 -1.53654 0
M  V30 67853 H 6450.01 3.18103 -0.599355 0
M  V30 67854 H 6448.92 2.47396 -2.80617 0
M  V30 67855 H 6450.25 3.26971 -3.679 0
M  V30 67856 N 6451.91 1.32725 0.849807 0
M  V30 67857 C 6453.32 1.21171 1.42037 0
M  V30 67858 C 6453.67 -0.173824 1.95428 0
M  V30 67859 O 6452.79 -1.07283 1.87934 0
M  V30 67860 C 6453.39 2.1937 2.5819 0
M  V30 67861 C 6451.95 2.11688 3.11231 0
M  V30 67862 C 6451.09 2.07466 1.83993 0
M  V30 67863 H 6454.05 1.44483 0.656532 0
M  V30 67864 H 6454.07 1.79506 3.35497 0
M  V30 67865 H 6453.58 3.20201 2.193 0
M  V30 67866 H 6451.68 1.14122 3.54693 0
M  V30 67867 H 6451.79 3.01735 3.72147 0
M  V30 67868 H 6450.16 1.52777 2.03792 0
M  V30 67869 H 6450.94 3.10086 1.47314 0
M  V30 67870 N 6453.38 -1.06669 1.16015 0
M  V30 67871 C 6454.31 -2.16024 0.886325 0
M  V30 67872 C 6455.3 -1.6929 -0.165847 0
M  V30 67873 O 6456.48 -1.94191 -0.0187498 0
M  V30 67874 C 6453.61 -3.45188 0.382451 0
M  V30 67875 C 6452.56 -4.0541 1.3721 0
M  V30 67876 C 6451.89 -5.29738 0.72678 0
M  V30 67877 C 6453.19 -4.44632 2.74043 0
M  V30 67878 H 6454.88 -2.39188 1.80081 0
M  V30 67879 H 6452.43 -1.14954 0.867273 0
M  V30 67880 H 6454.38 -4.21022 0.178388 0
M  V30 67881 H 6453.11 -3.21631 -0.567528 0
M  V30 67882 H 6451.77 -3.31628 1.56264 0
M  V30 67883 H 6451.41 -5.02476 -0.229565 0
M  V30 67884 H 6451.11 -5.70989 1.38729 0
M  V30 67885 H 6452.64 -6.08272 0.53265 0
M  V30 67886 H 6454.05 -5.11565 2.58793 0
M  V30 67887 H 6452.45 -4.96856 3.36533 0
M  V30 67888 H 6453.52 -3.55672 3.29583 0
M  V30 67889 N 6454.86 -0.958036 -1.25138 0
M  V30 67890 C 6455.8 -0.425151 -2.24205 0
M  V30 67891 C 6456.77 0.495404 -1.54869 0
M  V30 67892 O 6457.96 0.429001 -1.83553 0
M  V30 67893 C 6455.08 0.387297 -3.36478 0
M  V30 67894 C 6454.13 -0.474144 -4.23856 0
M  V30 67895 S 6454.96 -1.90847 -5.00338 0
M  V30 67896 C 6456.12 -1.10454 -6.16077 0
M  V30 67897 H 6456.35 -1.26471 -2.69058 0
M  V30 67898 H 6453.89 -0.762356 -1.34267 0
M  V30 67899 H 6455.84 0.850101 -4.01601 0
M  V30 67900 H 6454.5 1.20172 -2.90203 0
M  V30 67901 H 6453.7 0.149156 -5.03779 0
M  V30 67902 H 6453.3 -0.872292 -3.63685 0
M  V30 67903 H 6455.59 -0.354856 -6.7657 0
M  V30 67904 H 6456.53 -1.87781 -6.82747 0
M  V30 67905 H 6456.94 -0.63317 -5.60938 0
M  V30 67906 N 6456.34 1.3983 -0.727006 0
M  V30 67907 C 6457.27 2.29161 -0.0423024 0
M  V30 67908 C 6458.29 1.46412 0.711849 0
M  V30 67909 O 6459.47 1.69576 0.557335 0
M  V30 67910 C 6456.57 3.2489 0.964357 0
M  V30 67911 C 6455.75 4.36545 0.273382 0
M  V30 67912 C 6454.81 5.12637 1.18702 0
M  V30 67913 O 6453.83 5.65272 0.667512 0
M  V30 67914 N 6455.03 5.23077 2.51735 0
M  V30 67915 H 6457.8 2.88564 -0.809376 0
M  V30 67916 H 6455.36 1.51324 -0.575568 0
M  V30 67917 H 6457.35 3.72668 1.578 0
M  V30 67918 H 6455.92 2.66574 1.6327 0
M  V30 67919 H 6455.14 3.90747 -0.520622 0
M  V30 67920 H 6456.43 5.08384 -0.205792 0
M  V30 67921 H 6455.83 4.81816 2.96428 0
M  V30 67922 H 6454.39 5.74323 3.08215 0
M  V30 67923 N 6457.82 0.474035 1.50302 0
M  V30 67924 C 6459.04 -0.0798004 2.07246 0
M  V30 67925 C 6459.47 -1.32485 1.33526 0
M  V30 67926 O 6458.83 -1.77191 0.383805 0
M  V30 67927 C 6458.87 -0.3438 3.58957 0
M  V30 67928 O 6457.98 -1.42374 3.87045 0
M  V30 67929 H 6457.32 0.0142842 0.663846 0
M  V30 67930 H 6459.85 0.665922 1.9346 0
M  V30 67931 H 6459.86 -0.583416 4.03807 0
M  V30 67932 H 6458.53 0.566 4.12031 0
M  V30 67933 H 6457.11 -1.1712 3.5403 0
M  V30 67934 N 6459.3 -1.56238 0.206757 0
M  V30 67935 C 6460.26 -2.18384 -0.695766 0
M  V30 67936 C 6461.26 -1.14153 -1.13251 0
M  V30 67937 O 6462.45 -1.39472 -1.04371 0
M  V30 67938 C 6459.58 -2.79529 -1.95131 0
M  V30 67939 H 6460.78 -2.99503 -0.15417 0
M  V30 67940 H 6458.33 -1.56241 -0.0428673 0
M  V30 67941 H 6459.06 -2.0224 -2.53514 0
M  V30 67942 H 6458.85 -3.55843 -1.64676 0
M  V30 67943 H 6460.34 -3.27212 -2.59464 0
M  V30 67944 N 6460.78 0.0667605 -1.57459 0
M  V30 67945 C 6462.05 0.798246 -1.7857 0
M  V30 67946 C 6462.43 1.95534 -0.795588 0
M  V30 67947 O 6461.78 2.27865 0.170251 0
M  V30 67948 C 6461.99 1.26651 -3.25209 0
M  V30 67949 C 6463.34 1.69784 -3.89177 0
M  V30 67950 O 6464.36 1.36205 -3.2913 0
M  V30 67951 O 6463.22 2.31971 -4.94825 0
M  V30 67952 H 6460.32 0.382898 -0.73302 0
M  V30 67953 H 6462.86 0.0464469 -1.69636 0
M  V30 67954 H 6461.63 0.438792 -3.88832 0
M  V30 67955 H 6461.26 2.07947 -3.38886 0
M  V30 67956 N 6462.25 1.53927 0.338263 0
M  V30 67957 C 6463.22 1.81583 1.39859 0
M  V30 67958 C 6464.22 0.687062 1.45383 0
M  V30 67959 O 6465.41 0.955356 1.45666 0
M  V30 67960 C 6462.54 1.96261 2.78737 0
M  V30 67961 H 6463.73 2.76306 1.16598 0
M  V30 67962 H 6461.28 1.4542 0.572945 0
M  V30 67963 H 6462.02 1.03699 3.07273 0
M  V30 67964 H 6461.8 2.78386 2.76123 0
M  V30 67965 H 6463.29 2.19156 3.55472 0
M  V30 67966 N 6463.73 -0.599557 1.4575 0
M  V30 67967 C 6464.96 -1.38966 1.53958 0
M  V30 67968 C 6465.38 -1.87278 0.175684 0
M  V30 67969 O 6464.74 -1.60605 -0.841166 0
M  V30 67970 C 6464.79 -2.56473 2.53483 0
M  V30 67971 O 6463.89 -3.57368 2.0582 0
M  V30 67972 H 6463.23 -0.414548 0.518696 0
M  V30 67973 H 6465.76 -0.728905 1.91176 0
M  V30 67974 H 6465.77 -3.03613 2.72549 0
M  V30 67975 H 6464.45 -2.2066 3.52537 0
M  V30 67976 H 6463.02 -3.16823 1.96667 0
M  V30 67977 N 6465.21 -1.33174 -0.842756 0
M  V30 67978 C 6466.44 -1.2744 -1.62993 0
M  V30 67979 C 6466.85 0.15541 -1.88159 0
M  V30 67980 O 6466.21 1.09632 -1.45901 0
M  V30 67981 C 6466.26 -2.04295 -2.98238 0
M  V30 67982 O 6465.98 -3.41698 -2.74179 0
M  V30 67983 C 6467.48 -2.05725 -3.92673 0
M  V30 67984 H 6464.7 -0.439205 -0.507287 0
M  V30 67985 H 6467.25 -1.75485 -1.05001 0
M  V30 67986 H 6465.4 -1.59942 -3.52842 0
M  V30 67987 H 6465.82 -3.81185 -3.60275 0
M  V30 67988 H 6467.29 -2.63961 -4.84798 0
M  V30 67989 H 6467.77 -1.04651 -4.2655 0
M  V30 67990 H 6468.37 -2.50079 -3.44007 0
M  V30 67991 N 6466.69 1.06052 -1.16579 0
M  V30 67992 C 6467.93 1.78896 -0.948813 0
M  V30 67993 C 6468.26 1.87331 0.5232 0
M  V30 67994 O 6467.52 1.36296 1.40435 0
M  V30 67995 C 6467.82 3.23259 -1.5244 0
M  V30 67996 C 6467.48 3.349 -3.01915 0
M  V30 67997 C 6466.14 3.37784 -3.42718 0
M  V30 67998 C 6468.5 3.36622 -3.97914 0
M  V30 67999 C 6465.82 3.40008 -4.78133 0
M  V30 68000 C 6468.18 3.40384 -5.33218 0
M  V30 68001 C 6466.84 3.41552 -5.73497 0
M  V30 68002 H 6466.11 0.654627 -0.347195 0
M  V30 68003 H 6468.76 1.24702 -1.45333 0
M  V30 68004 H 6467.06 3.80322 -0.941394 0
M  V30 68005 H 6468.76 3.78225 -1.33217 0
M  V30 68006 H 6465.35 3.33362 -2.69383 0
M  V30 68007 H 6469.53 3.33603 -3.67455 0
M  V30 68008 H 6464.79 3.39218 -5.08666 0
M  V30 68009 H 6468.96 3.40664 -6.07389 0
M  V30 68010 H 6466.59 3.43028 -6.78407 0
M  V30 68011 N 6468.17 0.964658 1.24628 0
M  V30 68012 C 6469.1 0.511172 2.27836 0
M  V30 68013 C 6470.08 -0.447634 1.64104 0
M  V30 68014 O 6471.26 -0.344418 1.91121 0
M  V30 68015 C 6468.39 -0.202345 3.4671 0
M  V30 68016 C 6467.35 0.672181 4.22689 0
M  V30 68017 C 6466.67 -0.172654 5.34421 0
M  V30 68018 C 6467.97 1.95527 4.84321 0
M  V30 68019 H 6469.67 1.37381 2.6602 0
M  V30 68020 H 6467.21 0.662028 1.2788 0
M  V30 68021 H 6469.16 -0.530795 4.18044 0
M  V30 68022 H 6467.89 -1.09931 3.07543 0
M  V30 68023 H 6466.55 0.983859 3.53151 0
M  V30 68024 H 6466.2 -1.06968 4.91495 0
M  V30 68025 H 6465.9 0.409252 5.86173 0
M  V30 68026 H 6467.42 -0.495843 6.08583 0
M  V30 68027 H 6468.83 1.6926 5.47744 0
M  V30 68028 H 6467.23 2.48365 5.46292 0
M  V30 68029 H 6468.3 2.65211 4.05945 0
M  V30 68030 N 6469.64 -1.39442 0.734411 0
M  V30 68031 C 6470.59 -2.32451 0.0831621 0
M  V30 68032 C 6471.59 -1.5303 -0.726502 0
M  V30 68033 O 6472.79 -1.68699 -0.627754 0
M  V30 68034 H 6469.17 -0.751956 0.00809202 0
M  V30 68035 H 6471.14 -2.85005 0.884001 0
M  V30 68036 C 6469.89 -3.38124 -0.810404 0
M  V30 68037 H 6469.21 -3.99315 -0.196778 0
M  V30 68038 H 6470.65 -4.05655 -1.23371 0
M  V30 68039 C 6469.11 -2.75124 -1.94443 0
M  V30 68040 O 6469.64 -2.62924 -3.03701 0
M  V30 68041 N 6467.84 -2.33221 -1.73368 0
M  V30 68042 H 6467.39 -2.43344 -0.845058 0
M  V30 68043 H 6467.35 -1.91409 -2.49419 0
M  V30 68044 N 6471.12 -0.481999 -1.50048 0
M  V30 68045 C 6472.37 0.06907 -2.01982 0
M  V30 68046 C 6472.69 1.39228 -1.3653 0
M  V30 68047 O 6471.96 1.8903 -0.51424 0
M  V30 68048 H 6470.54 0.0285156 -0.746456 0
M  V30 68049 H 6473.2 -0.634909 -1.84269 0
M  V30 68050 H 6472.3 0.212634 -3.11375 0
M  V30 68051 N 6472.6 1.56126 -0.21504 0
M  V30 68052 C 6473.85 1.9813 0.41842 0
M  V30 68053 C 6474.17 1.10251 1.60234 0
M  V30 68054 O 6473.43 0.145993 1.95155 0
M  V30 68055 C 6473.73 3.45831 0.901962 0
M  V30 68056 C 6473.39 4.50577 -0.170731 0
M  V30 68057 C 6472.06 4.78944 -0.465427 0
M  V30 68058 C 6474.41 5.13431 -0.896536 0
M  V30 68059 C 6471.74 5.6745 -1.49056 0
M  V30 68060 C 6474.09 6.03047 -1.91096 0
M  V30 68061 C 6472.75 6.29761 -2.21264 0
M  V30 68062 H 6472.02 0.725009 0.153111 0
M  V30 68063 H 6474.67 1.88872 -0.316193 0
M  V30 68064 H 6472.97 3.52261 1.71522 0
M  V30 68065 H 6474.67 3.75699 1.40183 0
M  V30 68066 H 6471.26 4.28544 0.0691151 0
M  V30 68067 H 6475.45 4.9159 -0.682101 0
M  V30 68068 H 6470.7 5.86414 -1.72999 0
M  V30 68069 H 6474.88 6.50803 -2.47847 0
M  V30 68070 H 6472.5 6.98139 -3.00842 0
M  V30 68071 N 6474.08 -0.0584092 1.57492 0
M  V30 68072 C 6475.04 -1.05244 2.03608 0
M  V30 68073 C 6476.04 -1.30804 0.935255 0
M  V30 68074 O 6477.23 -1.26299 1.19976 0
M  V30 68075 C 6474.36 -2.3928 2.42813 0
M  V30 68076 H 6475.56 -0.654676 2.92667 0
M  V30 68077 H 6473.11 -0.304498 1.53305 0
M  V30 68078 H 6473.84 -2.83862 1.56821 0
M  V30 68079 H 6473.63 -2.22066 3.23155 0
M  V30 68080 H 6475.12 -3.10704 2.79022 0
M  V30 68081 N 6475.56 -1.54104 -0.330095 0
M  V30 68082 C 6476.8 -1.72251 -1.07039 0
M  V30 68083 C 6477.14 -0.491331 -1.87882 0
M  V30 68084 O 6476.41 0.511699 -1.87648 0
M  V30 68085 C 6476.69 -2.99419 -2.0005 0
M  V30 68086 C 6476.55 -4.32775 -1.22581 0
M  V30 68087 C 6477.87 -3.22312 -2.99672 0
M  V30 68088 H 6474.98 -0.626759 -0.387739 0
M  V30 68089 H 6477.63 -1.86792 -0.347656 0
M  V30 68090 H 6475.78 -2.87153 -2.61678 0
M  V30 68091 H 6477.45 -4.56914 -0.634639 0
M  V30 68092 H 6475.69 -4.30575 -0.527984 0
M  V30 68093 H 6476.36 -5.17961 -1.90841 0
M  V30 68094 H 6478.84 -3.33997 -2.48164 0
M  V30 68095 H 6477.71 -4.12661 -3.61942 0
M  V30 68096 H 6477.98 -2.39234 -3.71779 0
M  V30 68097 O 6477.07 0.476058 -1.54324 0
M  V30 68098 H 6477.76 1.13053 -1.57285 0
M  V30 END ATOM
M  V30 BEGIN BOND
M  V30 END BOND
M  V30 END CTAB
M  END
$$$$
