drugbank_target|P04926 Malaria protein EXP-1 (DB09274)
 OpenBabel12092121043D

  0  0  0     0  0            999 V3000
M  V30 BEGIN CTAB
M  V30 COUNTS 2465 2484 0 0 0
M  V30 BEGIN ATOM
M  V30 1 H -0.908 1.98254 -0.117106 0
M  V30 2 N 0 1.576 0 0
M  V30 3 C 0.933 2.03868 1.02534 0
M  V30 4 C 1.911 0.928543 1.3348 0
M  V30 5 O 3.095 1.19667 1.45644 0
M  V30 6 C 0.222 2.43627 2.35294 0
M  V30 7 C -0.732 3.65373 2.2001 0
M  V30 8 S 0.101 5.13292 1.52614 0
M  V30 9 C 1.257 5.56322 2.86805 0
M  V30 10 H 1.49 2.90518 0.631377 0
M  V30 11 H -0.977 1.52953 0.210867 0
M  V30 12 H 0.981 2.67203 3.11629 0
M  V30 13 H -0.358 1.57376 2.7183 0
M  V30 14 H -1.165 3.90944 3.18086 0
M  V30 15 H -1.563 3.418 1.51819 0
M  V30 16 H 0.729 5.58782 3.83104 0
M  V30 17 H 1.672 6.56266 2.65933 0
M  V30 18 H 2.08 4.83886 2.90714 0
M  V30 19 N 1.4781 -0.272755 1.55222 0
M  V30 20 C 2.4251 -1.33716 1.88119 0
M  V30 21 C 3.3951 -1.49066 0.73271 0
M  V30 22 O 4.5801 -1.63469 0.984002 0
M  V30 23 C 1.7201 -2.69238 2.15882 0
M  V30 24 C 0.8331 -2.62108 3.43399 0
M  V30 25 C -0.0319 -3.89811 3.60861 0
M  V30 26 C -0.9929 -3.77193 4.8207 0
M  V30 27 N -1.8559 -4.9673 4.96189 0
M  V30 28 H 2.9841 -1.04962 2.78903 0
M  V30 29 H 0.5211 -0.507088 1.38083 0
M  V30 30 H 2.4791 -3.48089 2.29978 0
M  V30 31 H 1.1091 -2.96194 1.28331 0
M  V30 32 H 0.1611 -1.74967 3.37773 0
M  V30 33 H 1.4731 -2.48685 4.32386 0
M  V30 34 H 0.6271 -4.77103 3.74777 0
M  V30 35 H -0.6339 -4.06102 2.7006 0
M  V30 36 H -1.6289 -2.88284 4.68159 0
M  V30 37 H -0.4039 -3.62421 5.74307 0
M  V30 38 H -2.4579 -5.13431 4.08319 0
M  V30 39 H -2.5409 -4.85839 5.79221 0
M  V30 40 H -1.2729 -5.85594 5.1449 0
M  V30 41 N 2.9562 -1.48159 -0.537278 0
M  V30 42 C 4.2052 -1.5506 -1.28993 0
M  V30 43 C 4.5182 -0.226211 -1.94288 0
M  V30 44 O 5.7242 -0.173395 -2.70946 0
M  V30 45 C 4.1802 -2.73429 -2.34018 0
M  V30 46 C 3.7882 -4.1248 -1.74825 0
M  V30 47 C 5.5322 -2.89638 -3.10339 0
M  V30 48 C 3.4392 -5.22121 -2.77747 0
M  V30 49 H 2.3692 -0.577231 -0.485098 0
M  V30 50 H 5.0202 -1.74478 -0.568317 0
M  V30 51 H 3.4022 -2.47431 -3.09182 0
M  V30 52 H 4.5762 -4.48466 -1.05899 0
M  V30 53 H 2.8912 -4.01327 -1.11022 0
M  V30 54 H 5.4882 -3.68718 -3.87235 0
M  V30 55 H 5.8312 -1.9882 -3.65754 0
M  V30 56 H 6.3642 -3.15502 -2.42288 0
M  V30 57 H 3.1032 -6.1488 -2.27161 0
M  V30 58 H 2.6232 -4.90631 -3.45024 0
M  V30 59 H 4.3022 -5.49924 -3.4087 0
M  V30 60 N 4.4343 0.785586 -1.36625 0
M  V30 61 C 5.3643 1.91259 -1.33949 0
M  V30 62 C 6.3453 1.68795 -0.210325 0
M  V30 63 O 7.5303 1.89854 -0.408561 0
M  V30 64 C 4.6603 3.28339 -1.13186 0
M  V30 65 C 3.6143 3.65335 -2.22967 0
M  V30 66 C 2.9403 5.00806 -1.87342 0
M  V30 67 C 4.2403 3.7352 -3.65075 0
M  V30 68 H 5.9343 1.93755 -2.28253 0
M  V30 69 H 3.4803 0.930788 -1.09874 0
M  V30 70 H 5.4333 4.06804 -1.09948 0
M  V30 71 H 4.1573 3.2624 -0.153332 0
M  V30 72 H 2.8163 2.89169 -2.25337 0
M  V30 73 H 2.4643 4.95233 -0.880545 0
M  V30 74 H 2.1643 5.26529 -2.60846 0
M  V30 75 H 3.6883 5.81687 -1.85667 0
M  V30 76 H 5.1023 4.42168 -3.64911 0
M  V30 77 H 3.4993 4.10731 -4.37516 0
M  V30 78 H 4.5693 2.74527 -3.99703 0
M  V30 79 N 5.9124 1.20967 1.01018 0
M  V30 80 C 7.1374 1.0503 1.78839 0
M  V30 81 C 7.5624 -0.395752 1.8389 0
M  V30 82 O 6.9204 -1.28529 1.27867 0
M  V30 83 C 6.9684 1.64602 3.2084 0
M  V30 84 O 6.0724 0.887988 4.02726 0
M  V30 85 H 5.4134 0.369987 0.551367 0
M  V30 86 H 7.9434 1.60399 1.27018 0
M  V30 87 H 7.9534 1.68607 3.71532 0
M  V30 88 H 6.6284 2.69841 3.16479 0
M  V30 89 H 5.2054 0.922648 3.61305 0
M  V30 90 N 7.3905 -1.2043 1.01659 0
M  V30 91 C 8.6365 -1.90079 0.706963 0
M  V30 92 C 8.9695 -1.78648 -0.761474 0
M  V30 93 O 8.2445 -1.17069 -1.55323 0
M  V30 94 C 8.5275 -3.41469 1.14327 0
M  V30 95 C 8.3805 -3.61833 2.67201 0
M  V30 96 C 9.6995 -4.34261 0.714529 0
M  V30 97 H 6.8185 -0.690254 0.2583 0
M  V30 98 H 9.4605 -1.41826 1.26433 0
M  V30 99 H 7.6105 -3.82696 0.669056 0
M  V30 100 H 9.2825 -3.2986 3.22475 0
M  V30 101 H 7.5255 -3.05304 3.08175 0
M  V30 102 H 8.1965 -4.67955 2.92783 0
M  V30 103 H 10.6725 -4.00682 1.12221 0
M  V30 104 H 9.5485 -5.38806 1.04784 0
M  V30 105 H 9.8095 -4.40431 -0.383799 0
M  V30 106 N 8.8686 -0.792821 -1.36206 0
M  V30 107 C 10.1156 -0.366786 -1.99151 0
M  V30 108 C 10.4436 1.06243 -1.62919 0
M  V30 109 O 9.6986 1.74927 -0.877442 0
M  V30 110 C 9.9976 -0.481501 -3.54142 0
M  V30 111 C 9.6636 -1.87202 -4.10203 0
M  V30 112 C 8.3256 -2.25248 -4.25226 0
M  V30 113 C 10.6776 -2.78237 -4.40719 0
M  V30 114 C 8.0056 -3.53723 -4.68078 0
M  V30 115 C 10.3576 -4.06144 -4.85005 0
M  V30 116 C 9.0216 -4.44207 -4.98234 0
M  V30 117 H 8.2916 -0.134217 -0.728743 0
M  V30 118 H 10.9386 -1.01094 -1.62641 0
M  V30 119 H 9.2436 0.246146 -3.91026 0
M  V30 120 H 10.9406 -0.132844 -4.0078 0
M  V30 121 H 7.5306 -1.56639 -3.98951 0
M  V30 122 H 11.7146 -2.50097 -4.28679 0
M  V30 123 H 6.9706 -3.8308 -4.76508 0
M  V30 124 H 11.1446 -4.76796 -5.07581 0
M  V30 125 H 8.7716 -5.43814 -5.31197 0
M  V30 126 N 10.3467 1.47872 -0.545128 0
M  V30 127 C 11.5937 2.02493 -0.0165858 0
M  V30 128 C 11.9217 1.42073 1.32836 0
M  V30 129 O 11.1767 0.561459 1.87473 0
M  V30 130 C 11.4757 3.57131 0.13867 0
M  V30 131 C 11.1417 4.36411 -1.13384 0
M  V30 132 C 9.8037 4.57792 -1.48256 0
M  V30 133 C 12.1557 4.82223 -1.97764 0
M  V30 134 C 9.4837 5.22233 -2.67376 0
M  V30 135 C 11.8357 5.47977 -3.16076 0
M  V30 136 C 10.4997 5.67593 -3.51275 0
M  V30 137 H 9.7697 0.740975 -0.00606918 0
M  V30 138 H 12.4167 1.77683 -0.714207 0
M  V30 139 H 10.7217 3.80865 0.919172 0
M  V30 140 H 12.4187 3.97031 0.562782 0
M  V30 141 H 9.0087 4.2004 -0.852297 0
M  V30 142 H 13.1927 4.65493 -1.72132 0
M  V30 143 H 8.4487 5.35616 -2.94831 0
M  V30 144 H 12.6227 5.8244 -3.81755 0
M  V30 145 H 10.2497 6.17298 -4.43675 0
M  V30 146 N 11.8248 0.280983 1.55075 0
M  V30 147 C 12.7548 -0.597469 2.25727 0
M  V30 148 C 13.7358 -1.15417 1.24952 0
M  V30 149 O 14.9208 -1.18722 1.53684 0
M  V30 150 C 12.0508 -1.7789 2.98283 0
M  V30 151 C 11.0048 -1.35347 4.06036 0
M  V30 152 C 10.3308 -2.61846 4.66198 0
M  V30 153 C 11.6308 -0.499354 5.19907 0
M  V30 154 H 13.3248 -0.00824265 2.99399 0
M  V30 155 H 10.8708 -0.0025244 1.44 0
M  V30 156 H 12.8238 -2.39937 3.46422 0
M  V30 157 H 11.5478 -2.39405 2.22155 0
M  V30 158 H 10.2068 -0.756156 3.58717 0
M  V30 159 H 9.8548 -3.21632 3.86732 0
M  V30 160 H 9.5548 -2.3409 5.38958 0
M  V30 161 H 11.0788 -3.24732 5.1709 0
M  V30 162 H 12.4928 -1.02498 5.64063 0
M  V30 163 H 10.8898 -0.316424 5.99265 0
M  V30 164 H 11.9598 0.480459 4.82514 0
M  V30 165 N 13.3029 -1.57598 0.00835791 0
M  V30 166 C 14.5489 -1.91211 -0.675732 0
M  V30 167 C 14.8819 -0.883139 -1.72958 0
M  V30 168 O 14.1569 0.097016 -1.94258 0
M  V30 169 C 14.4399 -3.35379 -1.31123 0
M  V30 170 C 14.2929 -4.48999 -0.268356 0
M  V30 171 C 15.6119 -3.7912 -2.23508 0
M  V30 172 H 12.7309 -0.695374 -0.244179 0
M  V30 173 H 15.3729 -1.89901 0.0613655 0
M  V30 174 H 13.5229 -3.36626 -1.93946 0
M  V30 175 H 15.1949 -4.59887 0.360844 0
M  V30 176 H 13.4379 -4.31873 0.408482 0
M  V30 177 H 14.1089 -5.46851 -0.752218 0
M  V30 178 H 16.5849 -3.79477 -1.70693 0
M  V30 179 H 15.4609 -4.80729 -2.64936 0
M  V30 180 H 15.7219 -3.13455 -3.11766 0
M  V30 181 N 14.781 0.264519 -1.55364 0
M  V30 182 C 15.711 1.33121 -1.91836 0
M  V30 183 C 16.692 1.51101 -0.781192 0
M  V30 184 O 17.877 1.64003 -1.04003 0
M  V30 185 C 15.007 2.68921 -2.19769 0
M  V30 186 C 13.961 2.65661 -3.35571 0
M  V30 187 C 13.287 4.05093 -3.49004 0
M  V30 188 C 14.587 2.24187 -4.71739 0
M  V30 189 H 16.281 1.02844 -2.81182 0
M  V30 190 H 13.827 0.493286 -1.35287 0
M  V30 191 H 15.78 3.43663 -2.43872 0
M  V30 192 H 14.504 3.00799 -1.27231 0
M  V30 193 H 13.163 1.93377 -3.1145 0
M  V30 194 H 12.811 4.34206 -2.53917 0
M  V30 195 H 12.511 4.03804 -4.26868 0
M  V30 196 H 14.035 4.81561 -3.75408 0
M  V30 197 H 15.449 2.88654 -4.9533 0
M  V30 198 H 13.846 2.34044 -5.52579 0
M  V30 199 H 14.916 1.19327 -4.69988 0
M  V30 200 N 16.2591 1.48442 0.529413 0
M  V30 201 C 17.5061 1.56488 1.28521 0
M  V30 202 C 17.8341 0.239042 1.93025 0
M  V30 203 O 17.0891 -0.770713 1.79885 0
M  V30 204 C 17.3881 2.6523 2.39558 0
M  V30 205 C 17.0541 4.07648 1.92702 0
M  V30 206 C 15.7161 4.46411 1.79641 0
M  V30 207 C 18.0681 4.96896 1.573 0
M  V30 208 C 15.3961 5.72226 1.29514 0
M  V30 209 C 17.7481 6.23202 1.08636 0
M  V30 210 C 16.4121 6.60821 0.941919 0
M  V30 211 H 15.6821 0.572631 0.470292 0
M  V30 212 H 18.3291 1.82161 0.59072 0
M  V30 213 H 16.6341 2.33419 3.14679 0
M  V30 214 H 18.3311 2.68671 2.97686 0
M  V30 215 H 14.9211 3.77036 2.03819 0
M  V30 216 H 19.1051 4.67626 1.66251 0
M  V30 217 H 14.3611 6.00097 1.17019 0
M  V30 218 H 18.5351 6.91753 0.803136 0
M  V30 219 H 16.1621 7.58198 0.5513 0
M  V30 220 N 17.7372 -0.778329 1.37039 0
M  V30 221 C 18.9842 -1.53665 1.31884 0
M  V30 222 C 19.3122 -1.9425 -0.0986303 0
M  V30 223 O 18.5672 -1.63832 -1.07041 0
M  V30 224 C 18.8662 -2.81845 2.19768 0
M  V30 225 C 18.5322 -2.60345 3.68146 0
M  V30 226 C 17.1942 -2.5419 4.08584 0
M  V30 227 C 19.5462 -2.40923 4.62175 0
M  V30 228 C 16.8742 -2.26594 5.41177 0
M  V30 229 C 19.2262 -2.14852 5.94997 0
M  V30 230 C 17.8902 -2.07137 6.34547 0
M  V30 231 H 17.1602 -0.562299 0.482598 0
M  V30 232 H 19.8072 -0.897069 1.69189 0
M  V30 233 H 18.1122 -3.50328 1.75436 0
M  V30 234 H 19.8092 -3.39692 2.13097 0
M  V30 235 H 16.3992 -2.65996 3.36072 0
M  V30 236 H 20.5832 -2.44673 4.31797 0
M  V30 237 H 15.8392 -2.19111 5.70789 0
M  V30 238 H 20.0132 -1.98822 6.67415 0
M  V30 239 H 17.6402 -1.85518 7.37216 0
M  V30 240 N 19.2153 -1.21501 -1.00376 0
M  V30 241 C 20.4643 -1.02718 -1.73586 0
M  V30 242 C 20.7773 0.439589 -1.90596 0
M  V30 243 O 21.9833 0.746848 -2.61026 0
M  V30 244 C 20.4393 -1.78929 -3.1227 0
M  V30 245 C 20.0473 -3.29783 -3.03228 0
M  V30 246 C 21.7913 -1.68557 -3.89601 0
M  V30 247 C 19.6983 -3.98479 -4.36999 0
M  V30 248 H 18.6283 -0.380733 -0.650814 0
M  V30 249 H 21.2793 -1.45248 -1.1214 0
M  V30 250 H 19.6613 -1.29192 -3.74333 0
M  V30 251 H 20.8353 -3.86832 -2.50395 0
M  V30 252 H 19.1503 -3.40711 -2.39385 0
M  V30 253 H 21.7473 -2.17211 -4.88593 0
M  V30 254 H 22.0903 -0.644021 -4.11288 0
M  V30 255 H 22.6233 -2.15778 -3.34193 0
M  V30 256 H 19.3623 -5.02841 -4.20513 0
M  V30 257 H 18.8823 -3.46219 -4.89788 0
M  V30 258 H 20.5613 -4.03462 -5.05794 0
M  V30 259 N 20.6934 1.19889 -1.02296 0
M  V30 260 C 21.9424 1.88743 -0.711257 0
M  V30 261 C 22.2554 1.80112 0.762817 0
M  V30 262 O 23.4614 2.44161 1.18733 0
M  V30 263 C 21.9174 3.38525 -1.22185 0
M  V30 264 C 21.5254 3.55727 -2.72328 0
M  V30 265 C 23.2694 4.12893 -0.985864 0
M  V30 266 C 21.1764 4.99369 -3.16835 0
M  V30 267 H 20.1064 0.706885 -0.262353 0
M  V30 268 H 22.7574 1.35586 -1.23648 0
M  V30 269 H 21.1394 3.91044 -0.624571 0
M  V30 270 H 22.3134 3.13564 -3.3766 0
M  V30 271 H 20.6284 2.94739 -2.9414 0
M  V30 272 H 23.2254 5.18813 -1.29374 0
M  V30 273 H 23.5684 4.16228 0.0775055 0
M  V30 274 H 24.1014 3.66494 -1.54684 0
M  V30 275 H 20.8404 5.01193 -4.22476 0
M  V30 276 H 20.3604 5.42317 -2.56228 0
M  V30 277 H 22.0394 5.67988 -3.09837 0
M  V30 278 N 22.1715 0.800033 1.35784 0
M  V30 279 C 23.4185 0.377342 1.98953 0
M  V30 280 C 23.7465 -1.05378 1.6348 0
M  V30 281 O 23.0015 -1.74459 0.886707 0
M  V30 282 C 23.3005 0.500276 3.53881 0
M  V30 283 C 22.9665 1.89375 4.09204 0
M  V30 284 C 21.6285 2.27499 4.24025 0
M  V30 285 C 23.9805 2.8057 4.39238 0
M  V30 286 C 21.3085 3.562 4.66195 0
M  V30 287 C 23.6605 4.0871 4.82844 0
M  V30 288 C 22.3245 4.46843 4.95871 0
M  V30 289 H 21.5945 0.138079 0.728021 0
M  V30 290 H 24.2415 1.01955 1.62103 0
M  V30 291 H 22.5465 -0.225405 3.91151 0
M  V30 292 H 24.2435 0.154097 4.00704 0
M  V30 293 H 20.8335 1.58753 3.98115 0
M  V30 294 H 25.0175 2.52367 4.27346 0
M  V30 295 H 20.2735 3.85602 4.74469 0
M  V30 296 H 24.4475 4.79481 5.05046 0
M  V30 297 H 22.0745 5.46623 5.28306 0
M  V30 298 N 23.6496 -1.47581 0.552962 0
M  V30 299 C 24.5976 -2.31648 -0.21023 0
M  V30 300 C 25.5916 -1.42663 -0.913432 0
M  V30 301 O 26.7976 -1.5945 -0.835201 0
M  V30 302 H 23.1726 -0.746989 -0.0866676 0
M  V30 303 H 25.1436 -2.93869 0.518051 0
M  V30 304 C 23.8926 -3.25226 -1.22976 0
M  V30 305 H 23.2156 -3.93658 -0.698077 0
M  V30 306 H 24.6556 -3.86889 -1.73473 0
M  V30 307 C 23.1146 -2.48448 -2.27542 0
M  V30 308 O 23.6446 -2.22585 -3.34393 0
M  V30 309 N 21.8506 -2.09532 -2.01357 0
M  V30 310 H 21.3976 -2.30765 -1.14478 0
M  V30 311 H 21.3556 -1.58476 -2.71538 0
M  V30 312 N 25.1277 -0.289203 -1.54924 0
M  V30 313 C 26.0747 0.592115 -2.23075 0
M  V30 314 C 27.0447 1.13881 -1.20915 0
M  V30 315 O 28.2297 1.18551 -1.495 0
M  V30 316 C 25.3697 1.76376 -2.96623 0
M  V30 317 C 24.4827 1.24959 -4.13533 0
M  V30 318 C 23.6177 2.38416 -4.74691 0
M  V30 319 C 22.6567 1.84072 -5.83767 0
M  V30 320 N 21.7937 2.91057 -6.38929 0
M  V30 321 H 26.6337 0.00432038 -2.98 0
M  V30 322 H 24.1707 -0.00963529 -1.47097 0
M  V30 323 H 26.1287 2.45268 -3.3749 0
M  V30 324 H 24.7587 2.32337 -2.24097 0
M  V30 325 H 23.8107 0.453307 -3.77689 0
M  V30 326 H 25.1227 0.811662 -4.92152 0
M  V30 327 H 24.2767 3.15276 -5.18349 0
M  V30 328 H 23.0157 2.8553 -3.95378 0
M  V30 329 H 22.0207 1.05697 -5.39545 0
M  V30 330 H 23.2457 1.37877 -6.64956 0
M  V30 331 H 21.1917 3.37526 -5.62505 0
M  V30 332 H 21.1087 2.51724 -7.12861 0
M  V30 333 H 22.3767 3.6785 -6.87246 0
M  V30 334 N 26.6058 1.57591 -0.0167156 0
M  V30 335 C 27.5158 2.1291 0.98521 0
M  V30 336 C 28.5318 1.07834 1.36557 0
M  V30 337 O 29.7078 1.39826 1.44951 0
M  V30 338 C 26.7728 2.63512 2.25305 0
M  V30 339 C 25.8338 3.83256 1.93426 0
M  V30 340 C 25.0668 4.31435 3.14165 0
M  V30 341 O 25.2898 3.78851 4.26413 0
M  V30 342 O 24.2238 5.23416 2.97186 0
M  V30 343 H 28.0498 2.98772 0.544888 0
M  V30 344 H 25.6348 1.48012 0.203141 0
M  V30 345 H 27.5168 2.96183 2.99756 0
M  V30 346 H 26.1918 1.8074 2.68542 0
M  V30 347 H 25.0988 3.55531 1.16398 0
M  V30 348 H 26.4318 4.67153 1.55013 0
M  V30 349 N 28.0839 -0.256276 1.55502 0
M  V30 350 C 29.3089 -1.00766 1.81276 0
M  V30 351 C 29.7339 -1.78524 0.59252 0
M  V30 352 O 29.0919 -1.75413 -0.45827 0
M  V30 353 C 29.1399 -1.92869 3.04687 0
M  V30 354 O 28.2439 -3.019 2.80945 0
M  V30 355 H 27.5849 -0.287224 0.598664 0
M  V30 356 H 30.1149 -0.280109 2.02674 0
M  V30 357 H 30.1249 -2.34511 3.33869 0
M  V30 358 H 28.7999 -1.35689 3.93143 0
M  V30 359 H 27.3769 -2.64454 2.62904 0
M  V30 360 N 29.562 -1.4872 -0.521534 0
M  V30 361 C 30.492 -1.66771 -1.63431 0
M  V30 362 C 31.473 -0.516499 -1.62069 0
M  V30 363 O 32.658 -0.750013 -1.79132 0
M  V30 364 C 29.788 -1.71515 -3.01993 0
M  V30 365 C 28.742 -2.86222 -3.18216 0
M  V30 366 C 28.068 -2.76061 -4.57924 0
M  V30 367 C 29.368 -4.27419 -3.00184 0
M  V30 368 H 31.062 -2.59932 -1.48579 0
M  V30 369 H 28.608 -1.25089 -0.713358 0
M  V30 370 H 30.561 -1.82731 -3.7972 0
M  V30 371 H 29.285 -0.749393 -3.17886 0
M  V30 372 H 27.944 -2.74575 -2.42908 0
M  V30 373 H 27.592 -1.77437 -4.70665 0
M  V30 374 H 27.292 -3.53037 -4.69722 0
M  V30 375 H 28.816 -2.89256 -5.37739 0
M  V30 376 H 30.23 -4.39855 -3.67697 0
M  V30 377 H 28.627 -5.05458 -3.2347 0
M  V30 378 H 29.697 -4.43293 -1.96518 0
M  V30 379 N 31.0401 0.771051 -1.3745 0
M  V30 380 C 32.0031 1.86598 -1.33093 0
M  V30 381 C 33.0031 1.59076 -0.234845 0
M  V30 382 O 34.1931 1.67145 -0.490732 0
M  V30 383 C 31.3251 3.23747 -1.06773 0
M  V30 384 H 32.5181 1.91873 -2.30488 0
M  V30 385 H 30.0711 0.970876 -1.2249 0
M  V30 386 H 30.8061 3.24148 -0.099129 0
M  V30 387 H 30.5911 3.45115 -1.86112 0
M  V30 388 H 32.0811 4.03824 -1.06377 0
M  V30 389 N 32.5182 1.22032 0.997298 0
M  V30 390 C 33.4282 1.00271 2.12092 0
M  V30 391 C 34.4442 -0.047621 1.73935 0
M  V30 392 O 35.6202 0.144136 2.00884 0
M  V30 393 C 32.6852 0.578449 3.4184 0
M  V30 394 C 31.7462 1.70189 3.94125 0
M  V30 395 C 30.9792 1.29778 5.17681 0
M  V30 396 O 31.2022 0.174676 5.70132 0
M  V30 397 O 30.1362 2.11261 5.63607 0
M  V30 398 H 33.9622 1.94398 2.3333 0
M  V30 399 H 31.5472 1.00587 1.10465 0
M  V30 400 H 33.4292 0.351998 4.19927 0
M  V30 401 H 32.1042 -0.334019 3.21972 0
M  V30 402 H 31.0112 1.98282 3.1723 0
M  V30 403 H 32.3442 2.59206 4.18417 0
M  V30 404 N 33.9963 -1.19345 1.0293 0
M  V30 405 C 34.9433 -2.2258 0.610464 0
M  V30 406 C 35.9133 -1.6179 -0.375946 0
M  V30 407 O 37.0983 -1.88844 -0.272511 0
M  V30 408 C 34.2383 -3.45085 -0.0321473 0
M  V30 409 C 33.3513 -4.20258 1.00035 0
M  V30 410 C 32.4863 -5.3019 0.32746 0
M  V30 411 C 31.5253 -5.97121 1.34584 0
M  V30 412 N 30.6623 -6.98615 0.698726 0
M  V30 413 H 35.5023 -2.57764 1.49538 0
M  V30 414 H 33.0393 -1.26644 0.748311 0
M  V30 415 H 34.9973 -4.15061 -0.421966 0
M  V30 416 H 33.6273 -3.10555 -0.88064 0
M  V30 417 H 32.6793 -3.49223 1.50823 0
M  V30 418 H 33.9913 -4.66175 1.77433 0
M  V30 419 H 33.1453 -6.06587 -0.11718 0
M  V30 420 H 31.8843 -4.85345 -0.478713 0
M  V30 421 H 30.8893 -5.19474 1.80074 0
M  V30 422 H 32.1143 -6.4405 2.15352 0
M  V30 423 H 30.0603 -6.55942 -0.0873471 0
M  V30 424 H 29.9773 -7.42724 1.41058 0
M  V30 425 H 31.2453 -7.79004 0.278102 0
M  V30 426 N 35.4744 -0.807222 -1.35358 0
M  V30 427 C 36.7024 -0.400377 -2.02989 0
M  V30 428 C 37.1174 0.988859 -1.60832 0
M  V30 429 O 36.4744 1.63729 -0.806175 0
M  V30 430 C 36.5254 -0.474867 -3.58368 0
M  V30 431 O 36.2464 -1.80933 -3.98992 0
M  V30 432 C 37.7474 -0.0609112 -4.43258 0
M  V30 433 H 34.9674 -0.162587 -0.651004 0
M  V30 434 H 37.5114 -1.09102 -1.72965 0
M  V30 435 H 35.6664 0.167534 -3.87038 0
M  V30 436 H 36.0804 -1.77256 -4.9364 0
M  V30 437 H 37.5544 -0.164145 -5.51756 0
M  V30 438 H 38.0314 0.993831 -4.27808 0
M  V30 439 H 38.6374 -0.676492 -4.19885 0
M  V30 440 N 36.9525 1.47285 -0.560781 0
M  V30 441 C 37.9005 2.31756 0.197942 0
M  V30 442 C 38.8945 1.43146 0.905854 0
M  V30 443 O 40.1005 1.59891 0.826733 0
M  V30 444 H 36.4755 0.747438 0.0827049 0
M  V30 445 H 38.4465 2.9359 -0.533629 0
M  V30 446 C 37.1955 3.25874 1.21249 0
M  V30 447 H 36.5185 3.94023 0.67719 0
M  V30 448 H 37.9585 3.87803 1.71419 0
M  V30 449 C 36.4175 2.49651 2.26221 0
M  V30 450 O 36.9475 2.24355 3.33208 0
M  V30 451 N 35.1535 2.10597 2.00243 0
M  V30 452 H 34.7005 2.31369 1.13252 0
M  V30 453 H 34.6585 1.59913 2.70694 0
M  V30 454 N 38.4306 0.297415 1.54768 0
M  V30 455 C 39.3776 -0.580276 2.23386 0
M  V30 456 C 40.3476 -1.13238 1.21517 0
M  V30 457 O 41.5326 -1.17757 1.50126 0
M  V30 458 C 38.6726 -1.74801 2.97555 0
M  V30 459 C 37.7856 -1.22764 4.1419 0
M  V30 460 C 36.9206 -2.35895 4.75949 0
M  V30 461 C 35.9596 -1.80974 5.84735 0
M  V30 462 N 35.0966 -2.87664 6.40464 0
M  V30 463 H 39.9366 0.0114833 2.97998 0
M  V30 464 H 37.4736 0.0174361 1.4709 0
M  V30 465 H 39.4316 -2.43475 3.38786 0
M  V30 466 H 38.0616 -2.31145 2.25326 0
M  V30 467 H 37.1136 -0.433271 3.77924 0
M  V30 468 H 38.4256 -0.785551 4.92575 0
M  V30 469 H 37.5796 -3.12523 5.20014 0
M  V30 470 H 36.3186 -2.83429 3.96887 0
M  V30 471 H 35.3236 -1.02834 5.40097 0
M  V30 472 H 36.5486 -1.34348 6.65678 0
M  V30 473 H 34.4946 -3.34538 5.64287 0
M  V30 474 H 34.4116 -2.4794 7.14186 0
M  V30 475 H 35.6796 -3.642 6.89187 0
M  V30 476 N 39.9087 -1.5758 0.0250728 0
M  V30 477 C 40.8187 -2.1343 -0.973905 0
M  V30 478 C 41.8347 -1.08556 -1.35984 0
M  V30 479 O 43.0107 -1.40592 -1.44207 0
M  V30 480 C 40.0757 -2.64703 -2.23904 0
M  V30 481 C 39.1367 -3.84276 -1.91391 0
M  V30 482 C 38.3697 -4.33095 -3.11873 0
M  V30 483 O 38.5927 -3.81107 -4.24398 0
M  V30 484 O 37.5267 -5.24984 -2.94406 0
M  V30 485 H 41.3527 -2.99057 -0.529036 0
M  V30 486 H 38.9377 -1.48118 -0.195288 0
M  V30 487 H 40.8197 -2.97769 -2.98181 0
M  V30 488 H 39.4947 -1.82161 -2.6758 0
M  V30 489 H 38.4017 -3.56143 -1.14511 0
M  V30 490 H 39.7347 -4.67968 -1.52534 0
M  V30 491 N 41.3868 0.248026 -1.55636 0
M  V30 492 C 42.6148 0.993808 -1.81469 0
M  V30 493 C 43.0298 1.78991 -0.60064 0
M  V30 494 O 42.3868 1.77345 0.430682 0
M  V30 495 C 42.4378 1.93258 -3.05506 0
M  V30 496 O 42.1588 1.16869 -4.22224 0
M  V30 497 C 43.6598 2.79444 -3.4413 0
M  V30 498 H 40.8798 0.292486 -0.603898 0
M  V30 499 H 43.4238 0.271253 -2.02693 0
M  V30 500 H 41.5788 2.60943 -2.86335 0
M  V30 501 H 41.9928 1.80359 -4.92515 0
M  V30 502 H 43.4668 3.41066 -4.34026 0
M  V30 503 H 43.9438 3.50499 -2.64665 0
M  V30 504 H 44.5498 2.17214 -3.65648 0
M  V30 505 N 42.8649 1.48995 0.513639 0
M  V30 506 C 44.1129 1.57531 1.26604 0
M  V30 507 C 44.4339 0.258236 1.93283 0
M  V30 508 O 43.7039 -0.721502 1.8213 0
M  V30 509 H 42.2839 0.580387 0.470276 0
M  V30 510 H 44.9459 1.85552 0.596373 0
M  V30 511 H 44.0419 2.36486 2.03669 0
M  V30 512 N 44.343 -0.763751 1.37857 0
M  V30 513 C 45.568 -1.55805 1.36893 0
M  V30 514 C 45.993 -1.88054 -0.0416135 0
M  V30 515 O 45.351 -1.49825 -1.02089 0
M  V30 516 C 45.399 -2.84012 2.22192 0
M  V30 517 O 44.503 -3.78732 1.63204 0
M  V30 518 H 43.844 -0.471638 0.46739 0
M  V30 519 H 46.374 -0.944657 1.81487 0
M  V30 520 H 46.384 -3.33037 2.35691 0
M  V30 521 H 45.059 -2.59869 3.24716 0
M  V30 522 H 43.636 -3.37402 1.58791 0
M  V30 523 N 45.8211 -1.22559 -0.990812 0
M  V30 524 C 47.0691 -1.04933 -1.72724 0
M  V30 525 C 47.3901 0.416158 -1.90508 0
M  V30 526 O 46.6601 1.29918 -1.46622 0
M  V30 527 H 45.2401 -0.385296 -0.639965 0
M  V30 528 H 47.9021 -1.54105 -1.19322 0
M  V30 529 H 46.9981 -1.52886 -2.72089 0
M  V30 530 N 47.2992 1.18797 -1.03562 0
M  V30 531 C 48.5452 1.8893 -0.737113 0
M  V30 532 C 48.8782 1.79837 0.732956 0
M  V30 533 O 48.1532 1.19525 1.5344 0
M  V30 534 C 48.4362 3.39607 -1.19745 0
M  V30 535 C 48.2892 3.57537 -2.72924 0
M  V30 536 C 49.6082 4.33069 -0.783526 0
M  V30 537 H 46.7272 0.686057 -0.269249 0
M  V30 538 H 49.3692 1.39797 -1.28673 0
M  V30 539 H 47.5192 3.81583 -0.729855 0
M  V30 540 H 49.1912 3.24688 -3.27682 0
M  V30 541 H 47.4342 3.00363 -3.12993 0
M  V30 542 H 48.1052 4.63238 -3.00191 0
M  V30 543 H 50.5812 3.98846 -1.18581 0
M  V30 544 H 49.4572 5.3707 -1.13343 0
M  V30 545 H 49.7182 4.40986 0.313681 0
M  V30 546 N 48.7773 0.814389 1.34928 0
M  V30 547 C 50.0023 0.410097 2.03305 0
M  V30 548 C 50.4273 -0.973464 1.60951 0
M  V30 549 O 49.7853 -1.63185 0.789964 0
M  V30 550 C 49.8333 0.51049 3.56968 0
M  V30 551 O 48.9373 -0.473035 4.09678 0
M  V30 552 H 48.2783 0.170088 0.641846 0
M  V30 553 H 50.8083 1.10244 1.72358 0
M  V30 554 H 50.8183 0.383135 4.06197 0
M  V30 555 H 49.4933 1.51963 3.87144 0
M  V30 556 H 48.0703 -0.305272 3.71648 0
M  V30 557 N 50.2554 -1.46986 0.568584 0
M  V30 558 C 51.4804 -2.07335 0.0520528 0
M  V30 559 C 51.9054 -1.41675 -1.23733 0
M  V30 560 O 51.2634 -0.495623 -1.74394 0
M  V30 561 C 51.3114 -3.60417 -0.11501 0
M  V30 562 O 50.4154 -3.95309 -1.17492 0
M  V30 563 H 49.7564 -0.661597 0.0564385 0
M  V30 564 H 52.2864 -1.88837 0.787507 0
M  V30 565 H 52.2964 -4.06698 -0.325644 0
M  V30 566 H 50.9714 -4.07601 0.826675 0
M  V30 567 H 49.5484 -3.60757 -0.943869 0
M  V30 568 N 51.7335 -0.305618 -1.54608 0
M  V30 569 C 52.6805 0.568421 -2.23691 0
M  V30 570 C 53.6505 1.12592 -1.22116 0
M  V30 571 O 54.8355 1.16959 -1.50749 0
M  V30 572 C 51.9755 1.7322 -2.98477 0
M  V30 573 C 51.0885 1.20566 -4.14835 0
M  V30 574 C 50.2235 2.33368 -4.77193 0
M  V30 575 C 49.2625 1.7787 -5.85686 0
M  V30 576 N 48.3995 2.84263 -6.4198 0
M  V30 577 H 53.2395 -0.0272867 -2.97988 0
M  V30 578 H 50.7765 -0.0252363 -1.47078 0
M  V30 579 H 52.7345 2.41675 -3.40072 0
M  V30 580 H 51.3645 2.29947 -2.26548 0
M  V30 581 H 50.4165 0.413223 -3.78149 0
M  V30 582 H 51.7285 0.759417 -4.92985 0
M  V30 583 H 50.8825 3.09761 -5.21664 0
M  V30 584 H 49.6215 2.8132 -3.98385 0
M  V30 585 H 48.6265 0.99968 -5.40635 0
M  V30 586 H 49.8515 1.30816 -6.66381 0
M  V30 587 H 47.7975 3.31541 -5.66053 0
M  V30 588 H 47.7145 2.44149 -7.15491 0
M  V30 589 H 48.9825 3.6054 -6.91109 0
M  V30 590 N 53.2116 1.57565 -0.0334293 0
M  V30 591 C 54.1586 2.10478 0.946981 0
M  V30 592 C 55.1286 1.00787 1.32027 0
M  V30 593 O 56.3136 1.28232 1.41284 0
M  V30 594 C 53.4536 2.63994 2.22263 0
M  V30 595 C 52.5666 3.87709 1.90541 0
M  V30 596 C 51.7016 4.29604 3.12433 0
M  V30 597 C 50.7406 5.46065 2.76549 0
M  V30 598 N 49.8776 5.83096 3.9108 0
M  V30 599 H 54.7176 2.93963 0.488846 0
M  V30 600 H 52.2546 1.45296 0.22969 0
M  V30 601 H 54.2126 2.93114 2.96884 0
M  V30 602 H 52.8426 1.83333 2.65685 0
M  V30 603 H 51.8946 3.65291 1.06144 0
M  V30 604 H 53.2066 4.72403 1.60116 0
M  V30 605 H 52.3606 4.60182 3.9537 0
M  V30 606 H 51.0996 3.43685 3.46023 0
M  V30 607 H 50.1046 5.15176 1.92026 0
M  V30 608 H 51.3296 6.33685 2.44171 0
M  V30 609 H 49.2756 5.00132 4.24504 0
M  V30 610 H 49.1926 6.6244 3.64293 0
M  V30 611 H 50.4606 6.18282 4.74708 0
M  V30 612 N 54.6897 -0.239769 1.55765 0
M  V30 613 C 55.6367 -1.29696 1.90913 0
M  V30 614 C 56.6067 -1.47478 0.764164 0
M  V30 615 O 57.7917 -1.61345 1.01845 0
M  V30 616 C 54.9317 -2.64598 2.21544 0
M  V30 617 C 54.0447 -2.54765 3.48882 0
M  V30 618 C 53.1797 -3.82069 3.69049 0
M  V30 619 C 52.2187 -3.66883 4.89963 0
M  V30 620 N 51.3557 -4.86094 5.06614 0
M  V30 621 H 56.1957 -0.990224 2.81067 0
M  V30 622 H 53.7327 -0.477684 1.39128 0
M  V30 623 H 55.6907 -3.43132 2.3731 0
M  V30 624 H 54.3207 -2.93405 1.34585 0
M  V30 625 H 53.3727 -1.67763 3.41409 0
M  V30 626 H 54.6847 -2.39457 4.37563 0
M  V30 627 H 53.8387 -4.69046 3.84812 0
M  V30 628 H 52.5777 -4.00282 2.78614 0
M  V30 629 H 51.5827 -2.78289 4.74168 0
M  V30 630 H 52.8077 -3.50157 5.81865 0
M  V30 631 H 50.7537 -5.04655 4.19117 0
M  V30 632 H 50.6707 -4.73443 5.89396 0
M  V30 633 H 51.9387 -5.74549 5.26795 0
M  V30 634 N 56.1678 -1.49265 -0.50573 0
M  V30 635 C 57.1158 -1.66065 -1.62866 0
M  V30 636 C 58.1098 -0.526636 -1.61006 0
M  V30 637 O 59.3158 -0.706126 -1.65571 0
M  V30 638 H 55.6908 -0.52356 -0.539805 0
M  V30 639 H 57.6618 -2.60329 -1.45848 0
M  V30 640 C 56.4108 -1.74008 -3.01026 0
M  V30 641 H 55.7338 -2.6064 -3.03161 0
M  V30 642 H 57.1738 -1.89798 -3.79147 0
M  V30 643 C 55.6328 -0.483868 -3.33407 0
M  V30 644 O 56.1628 0.392548 -3.99777 0
M  V30 645 N 54.3688 -0.348236 -2.88506 0
M  V30 646 H 53.9158 -1.06242 -2.34671 0
M  V30 647 H 53.8738 0.491204 -3.10539 0
M  V30 648 N 57.6459 0.756429 -1.3826 0
M  V30 649 C 58.5929 1.87011 -1.35261 0
M  V30 650 C 59.5629 1.64695 -0.215616 0
M  V30 651 O 60.7479 1.864 -0.407399 0
M  V30 652 C 57.8879 3.24275 -1.18068 0
M  V30 653 C 57.0009 3.58442 -2.41129 0
M  V30 654 C 56.1359 4.84994 -2.16689 0
M  V30 655 C 55.1749 5.11939 -3.35537 0
M  V30 656 N 54.3119 6.29685 -3.10549 0
M  V30 657 H 59.1519 1.8891 -2.30472 0
M  V30 658 H 56.6889 0.923373 -1.14509 0
M  V30 659 H 58.6469 4.03479 -1.06116 0
M  V30 660 H 57.2769 3.21711 -0.264973 0
M  V30 661 H 56.3289 2.74103 -2.63764 0
M  V30 662 H 57.6409 3.74283 -3.29717 0
M  V30 663 H 56.7949 5.72135 -2.01857 0
M  V30 664 H 55.5339 4.71286 -1.25462 0
M  V30 665 H 54.5389 4.23268 -3.50891 0
M  V30 666 H 55.7639 5.27546 -4.27635 0
M  V30 667 H 53.7099 6.17306 -2.21967 0
M  V30 668 H 53.6269 6.46014 -3.92686 0
M  V30 669 H 54.8949 7.19722 -2.99367 0
M  V30 670 N 59.124 1.23083 0.984299 0
M  V30 671 C 60.071 1.00854 2.07598 0
M  V30 672 C 61.041 -0.0726709 1.65941 0
M  V30 673 O 62.226 0.0786535 1.90638 0
M  V30 674 C 59.366 0.601645 3.39815 0
M  V30 675 C 58.479 1.75456 3.94765 0
M  V30 676 C 57.614 1.29482 5.15177 0
M  V30 677 C 56.653 2.41873 5.62284 0
M  V30 678 N 55.79 1.96885 6.73929 0
M  V30 679 H 60.63 1.943 2.25946 0
M  V30 680 H 58.167 0.968001 1.10762 0
M  V30 681 H 60.125 0.346854 4.15756 0
M  V30 682 H 58.755 -0.295803 3.21442 0
M  V30 683 H 57.807 2.12346 3.15616 0
M  V30 684 H 59.119 2.59965 4.25699 0
M  V30 685 H 58.273 0.997923 5.98437 0
M  V30 686 H 57.012 0.420046 4.85888 0
M  V30 687 H 56.017 2.72342 4.77608 0
M  V30 688 H 57.242 3.29881 5.93595 0
M  V30 689 H 55.188 1.11782 6.46406 0
M  V30 690 H 55.105 2.74956 7.04227 0
M  V30 691 H 56.373 1.70289 7.60672 0
M  V30 692 N 60.6021 -1.18246 1.0419 0
M  V30 693 C 61.8501 -1.87886 0.744543 0
M  V30 694 C 62.1711 -1.8082 -0.730006 0
M  V30 695 O 61.4411 -1.22736 -1.52685 0
M  V30 696 H 60.0211 -0.695556 0.272417 0
M  V30 697 H 62.6831 -1.43494 1.31892 0
M  V30 698 H 61.7791 -2.9389 1.05049 0
M  V30 699 N 62.0802 -0.821533 -1.34494 0
M  V30 700 C 63.3052 -0.420873 -2.03085 0
M  V30 701 C 63.7302 0.964915 -1.61465 0
M  V30 702 O 63.0882 1.62763 -0.798607 0
M  V30 703 C 63.1362 -0.529414 -3.56693 0
M  V30 704 O 62.2402 0.451302 -4.09923 0
M  V30 705 H 61.5812 -0.173489 -0.640935 0
M  V30 706 H 64.1112 -1.11157 -1.71771 0
M  V30 707 H 64.1212 -0.404671 -4.05988 0
M  V30 708 H 62.7962 -1.54014 -3.86332 0
M  V30 709 H 61.3732 0.285558 -3.71805 0
M  V30 710 N 63.5583 1.46682 -0.576371 0
M  V30 711 C 64.8063 2.02013 -0.0594163 0
M  V30 712 C 65.1273 1.45101 1.30271 0
M  V30 713 O 64.3973 0.633317 1.8538 0
M  V30 714 H 62.9773 0.746759 -0.0189745 0
M  V30 715 H 65.6393 1.79862 -0.750717 0
M  V30 716 H 64.7353 3.12097 0.014345 0
M  V30 717 N 65.0364 0.313813 1.54444 0
M  V30 718 C 65.9464 -0.565714 2.27677 0
M  V30 719 C 66.9624 -1.13754 1.31666 0
M  V30 720 O 68.1384 -1.15959 1.64668 0
M  V30 721 C 65.2034 -1.71528 3.01296 0
M  V30 722 C 64.2644 -1.17624 4.12872 0
M  V30 723 C 63.4974 -2.27102 4.8297 0
M  V30 724 O 63.7204 -3.47256 4.52514 0
M  V30 725 O 62.6544 -1.9307 5.70094 0
M  V30 726 H 66.4804 0.0287296 3.03686 0
M  V30 727 H 64.0654 0.0798312 1.49187 0
M  V30 728 H 65.9474 -2.38476 3.4743 0
M  V30 729 H 64.6224 -2.29608 2.2817 0
M  V30 730 H 63.5294 -0.472124 3.71109 0
M  V30 731 H 64.8624 -0.640695 4.88012 0
M  V30 732 N 66.5145 -1.57545 0.0417849 0
M  V30 733 C 67.9255 -1.80011 -0.495259 0
M  V30 734 C 68.2765 -0.953199 -1.71489 0
M  V30 735 O 67.4015 -0.167138 -2.15754 0
M  V30 736 C 67.9965 -3.26482 -0.905265 0
M  V30 737 C 66.5555 -3.499 -1.38734 0
M  V30 738 C 65.7025 -2.74979 -0.358056 0
M  V30 739 H 68.6535 -1.56425 0.267736 0
M  V30 740 H 68.6745 -3.36887 -1.76882 0
M  V30 741 H 68.1865 -3.88096 -0.017401 0
M  V30 742 H 66.2875 -2.93553 -2.29471 0
M  V30 743 H 66.4005 -4.58615 -1.38598 0
M  V30 744 H 64.7645 -2.40834 -0.828912 0
M  V30 745 H 65.5475 -3.39315 0.521561 0
M  V30 746 N 67.9926 0.231505 -1.5589 0
M  V30 747 C 68.9226 1.29022 -1.94617 0
M  V30 748 C 69.9036 1.4941 -0.813067 0
M  V30 749 O 71.0886 1.6176 -1.07459 0
M  V30 750 C 68.2186 2.64199 -2.25424 0
M  V30 751 C 67.1726 2.58484 -3.41131 0
M  V30 752 C 66.4986 3.97599 -3.57518 0
M  V30 753 C 67.7986 2.1413 -4.76388 0
M  V30 754 H 69.4926 0.968563 -2.83301 0
M  V30 755 H 67.0386 0.464479 -1.36303 0
M  V30 756 H 68.9916 3.38413 -2.51107 0
M  V30 757 H 67.7156 2.98032 -1.33583 0
M  V30 758 H 66.3746 1.86727 -3.15481 0
M  V30 759 H 66.0226 4.28723 -2.6307 0
M  V30 760 H 65.7226 3.94659 -4.35337 0
M  V30 761 H 67.2466 4.7349 -3.85538 0
M  V30 762 H 68.6606 2.78083 -5.01341 0
M  V30 763 H 67.0576 2.2227 -5.57419 0
M  V30 764 H 68.1276 1.09331 -4.72414 0
M  V30 765 N 69.4707 1.49531 0.497807 0
M  V30 766 C 70.7197 1.58426 1.24837 0
M  V30 767 C 71.0327 0.277643 1.93619 0
M  V30 768 O 72.2387 0.24517 2.70391 0
M  V30 769 C 70.6947 2.79538 2.26686 0
M  V30 770 C 70.3027 4.16971 1.63828 0
M  V30 771 C 72.0467 2.97764 3.0255 0
M  V30 772 C 69.9537 5.29301 2.63807 0
M  V30 773 H 68.8837 0.58989 0.469623 0
M  V30 774 H 71.5347 1.75923 0.521857 0
M  V30 775 H 69.9167 2.55542 3.02514 0
M  V30 776 H 71.0907 4.51116 0.939711 0
M  V30 777 H 69.4057 4.04129 1.00342 0
M  V30 778 H 72.0027 3.78856 3.77323 0
M  V30 779 H 72.3457 2.08448 3.60354 0
M  V30 780 H 72.8787 3.21815 2.33838 0
M  V30 781 H 69.6177 6.20687 2.10779 0
M  V30 782 H 69.1377 4.99606 3.31894 0
M  V30 783 H 70.8167 5.58768 3.2617 0
M  V30 784 N 70.9488 -0.749086 1.3866 0
M  V30 785 C 72.2258 -1.4992 1.25632 0
M  V30 786 C 72.6058 -2.10633 -0.140317 0
M  V30 787 O 71.9538 -1.97437 -1.15025 0
M  V30 788 C 72.1638 -2.56195 2.36992 0
M  V30 789 C 73.5118 -3.22972 2.75634 0
M  V30 790 O 74.5358 -2.66502 2.36337 0
M  V30 791 O 73.3948 -4.25122 3.43415 0
M  V30 792 H 70.4888 -0.665067 0.491544 0
M  V30 793 H 73.0348 -0.784113 1.50498 0
M  V30 794 H 71.8068 -2.09612 3.30422 0
M  V30 795 H 71.4298 -3.35279 2.13714 0
M  V30 796 N 72.4269 -1.23603 -0.977757 0
M  V30 797 C 73.6729 -1.07129 -1.72195 0
M  V30 798 C 74.0059 0.390501 -1.90233 0
M  V30 799 O 73.2809 1.28902 -1.45653 0
M  V30 800 C 73.5639 -1.80031 -3.11867 0
M  V30 801 C 73.4169 -3.33899 -3.01383 0
M  V30 802 C 74.7359 -1.56492 -4.11337 0
M  V30 803 H 71.8549 -0.390571 -0.624999 0
M  V30 804 H 74.4969 -1.52142 -1.13811 0
M  V30 805 H 72.6469 -1.41768 -3.6171 0
M  V30 806 H 74.3189 -3.81699 -2.59043 0
M  V30 807 H 72.5619 -3.62796 -2.37827 0
M  V30 808 H 73.2329 -3.801 -4.00285 0
M  V30 809 H 75.7089 -1.89757 -3.70313 0
M  V30 810 H 74.5849 -2.09973 -5.07151 0
M  V30 811 H 74.8459 -0.500874 -4.39254 0
M  V30 812 N 73.905 1.17692 -1.04816 0
M  V30 813 C 74.855 2.1952 -0.616042 0
M  V30 814 C 75.839 1.57147 0.345485 0
M  V30 815 O 77.031 1.76245 0.163325 0
M  V30 816 C 74.16 3.43298 0.0116917 0
M  V30 817 C 73.246 4.12777 -0.973435 0
M  V30 818 N 73.637 4.5814 -2.14339 0
M  V30 819 C 71.935 4.38747 -0.80108 0
M  V30 820 C 72.636 5.11713 -2.7663 0
M  V30 821 N 71.612 5.03686 -2.04453 0
M  V30 822 H 75.414 2.52293 -1.5075 0
M  V30 823 H 72.928 1.3398 -0.917776 0
M  V30 824 H 74.925 4.15519 0.339006 0
M  V30 825 H 73.585 3.12018 0.898593 0
M  V30 826 H 74.596 4.52349 -2.52191 0
M  V30 827 H 71.273 4.17485 0.0350934 0
M  V30 828 H 72.663 5.56962 -3.75823 0
M  V30 829 N 75.3831 0.828654 1.34056 0
M  V30 830 C 76.6601 0.341809 1.9259 0
M  V30 831 C 77.0401 -1.17158 1.75605 0
M  V30 832 O 76.3881 -1.98132 1.13824 0
M  V30 833 C 76.5981 0.777453 3.4023 0
M  V30 834 C 77.9461 0.779579 4.17382 0
M  V30 835 O 78.9701 0.7204 3.48839 0
M  V30 836 O 77.8291 0.857996 5.39723 0
M  V30 837 H 74.9231 0.0946085 0.821571 0
M  V30 838 H 77.4691 0.913827 1.42994 0
M  V30 839 H 76.2411 1.8196 3.46419 0
M  V30 840 H 75.8641 0.181444 3.97186 0
M  V30 841 N 76.8612 -1.46375 0.584142 0
M  V30 842 C 77.7912 -2.33103 -0.136037 0
M  V30 843 C 78.7722 -1.45431 -0.882255 0
M  V30 844 O 79.9572 -1.74246 -0.857434 0
M  V30 845 C 77.0872 -3.27731 -1.14933 0
M  V30 846 C 76.0412 -4.24855 -0.517862 0
M  V30 847 C 75.3672 -5.09001 -1.63773 0
M  V30 848 C 76.6672 -5.19439 0.545886 0
M  V30 849 H 78.3612 -2.93568 0.588086 0
M  V30 850 H 75.9072 -1.41166 0.284259 0
M  V30 851 H 77.8602 -3.87261 -1.66153 0
M  V30 852 H 76.5842 -2.65377 -1.90375 0
M  V30 853 H 75.2432 -3.6659 -0.0267361 0
M  V30 854 H 74.8912 -4.43031 -2.38185 0
M  V30 855 H 74.5912 -5.74777 -1.22085 0
M  V30 856 H 76.1152 -5.71396 -2.15266 0
M  V30 857 H 77.5292 -5.73177 0.118704 0
M  V30 858 H 75.9262 -5.93566 0.88317 0
M  V30 859 H 76.9962 -4.63285 1.43162 0
M  V30 860 N 78.3393 -0.321999 -1.54275 0
M  V30 861 C 79.5883 0.281931 -1.9972 0
M  V30 862 C 79.9013 1.53369 -1.21397 0
M  V30 863 O 81.1073 2.21352 -1.57211 0
M  V30 864 C 79.5633 0.5529 -3.55628 0
M  V30 865 C 79.1713 -0.681721 -4.42783 0
M  V30 866 C 80.9153 1.11687 -4.09544 0
M  V30 867 C 78.8223 -0.382742 -5.9016 0
M  V30 868 H 77.7523 0.109124 -0.746062 0
M  V30 869 H 80.4033 -0.43398 -1.78294 0
M  V30 870 H 78.7853 1.32896 -3.73035 0
M  V30 871 H 79.9593 -1.45723 -4.37151 0
M  V30 872 H 78.2743 -1.1658 -3.99748 0
M  V30 873 H 80.8713 1.35515 -5.17242 0
M  V30 874 H 81.2143 2.06575 -3.61431 0
M  V30 875 H 81.7473 0.402032 -3.95763 0
M  V30 876 H 78.4863 -1.30076 -6.42464 0
M  V30 877 H 78.0063 0.355094 -5.98748 0
M  V30 878 H 79.6853 0.00800157 -6.47 0
M  V30 879 N 79.8174 1.5752 -0.0501392 0
M  V30 880 C 81.0424 1.97376 0.636997 0
M  V30 881 C 81.4674 0.927466 1.63645 0
M  V30 882 O 80.8254 -0.10941 1.8097 0
M  V30 883 C 80.8734 3.36304 1.30123 0
M  V30 884 O 79.9774 3.34156 2.41689 0
M  V30 885 H 79.3184 0.642998 0.165679 0
M  V30 886 H 81.8484 2.04258 -0.118233 0
M  V30 887 H 81.8584 3.73008 1.65315 0
M  V30 888 H 80.5334 4.11993 0.568746 0
M  V30 889 H 79.1104 3.09196 2.08451 0
M  V30 890 N 81.2955 -0.223234 1.56011 0
M  V30 891 C 82.5725 -0.972108 1.69733 0
M  V30 892 C 82.9525 -2.02485 0.59691 0
M  V30 893 O 82.3005 -2.25037 -0.396324 0
M  V30 894 C 82.5105 -1.58407 3.10979 0
M  V30 895 C 83.8585 -2.07696 3.70334 0
M  V30 896 O 84.8825 -1.68304 3.1393 0
M  V30 897 O 83.7415 -2.80096 4.69264 0
M  V30 898 H 80.8355 -0.453993 0.691245 0
M  V30 899 H 83.3815 -0.215149 1.68331 0
M  V30 900 H 82.1535 -0.823831 3.82529 0
M  V30 901 H 81.7765 -2.40661 3.16493 0
M  V30 902 N 82.7736 -1.49793 -0.48987 0
M  V30 903 C 83.7066 -1.61898 -1.60823 0
M  V30 904 C 84.6846 -0.467651 -1.5573 0
M  V30 905 O 85.8686 -0.684682 -1.75626 0
M  V30 906 C 82.9956 -1.58422 -2.99366 0
M  V30 907 C 82.0416 -2.78889 -3.22682 0
M  V30 908 S 82.8746 -4.40429 -3.04602 0
M  V30 909 C 84.0306 -4.39617 -4.4552 0
M  V30 910 H 84.2636 -2.56502 -1.50312 0
M  V30 911 H 81.7966 -1.38822 -0.675849 0
M  V30 912 H 83.7546 -1.57103 -3.79248 0
M  V30 913 H 82.4156 -0.650866 -3.07283 0
M  V30 914 H 81.6086 -2.72708 -4.23847 0
M  V30 915 H 81.2106 -2.77678 -2.50541 0
M  V30 916 H 83.5026 -4.12022 -5.37814 0
M  V30 917 H 84.4456 -5.41097 -4.56749 0
M  V30 918 H 84.8536 -3.69554 -4.2672 0
M  V30 919 N 84.2517 0.741722 -1.39055 0
M  V30 920 C 85.5007 1.49656 -1.35225 0
M  V30 921 C 85.8137 1.95533 0.0512708 0
M  V30 922 O 87.0197 2.7067 0.212138 0
M  V30 923 C 85.4757 2.70389 -2.37525 0
M  V30 924 C 85.0837 2.31489 -3.83558 0
M  V30 925 C 86.8277 3.48236 -2.42759 0
M  V30 926 C 84.7347 3.48903 -4.77515 0
M  V30 927 H 83.6647 0.56197 -0.502699 0
M  V30 928 H 86.3157 0.809727 -1.64668 0
M  V30 929 H 84.6977 3.41113 -2.01142 0
M  V30 930 H 85.8717 1.68354 -4.28945 0
M  V30 931 H 84.1867 1.66749 -3.81554 0
M  V30 932 H 86.7837 4.35558 -3.1015 0
M  V30 933 H 87.1267 3.90229 -1.45008 0
M  V30 934 H 87.6597 2.84535 -2.78002 0
M  V30 935 H 84.3987 3.11966 -5.76504 0
M  V30 936 H 83.9187 4.11041 -4.36813 0
M  V30 937 H 85.5977 4.15328 -4.96096 0
M  V30 938 N 85.7298 1.2412 0.971189 0
M  V30 939 C 86.6768 1.0305 2.06517 0
M  V30 940 C 87.6468 -0.0550666 1.66009 0
M  V30 941 O 88.8318 0.0988688 1.90544 0
M  V30 942 C 85.9718 0.637653 3.39158 0
M  V30 943 C 85.0848 1.79633 3.92882 0
M  V30 944 C 84.2198 1.34939 5.13775 0
M  V30 945 C 83.2588 2.47823 5.59687 0
M  V30 946 N 82.3958 2.04022 6.71803 0
M  V30 947 H 87.2358 1.96685 2.23873 0
M  V30 948 H 84.7728 0.979694 1.09729 0
M  V30 949 H 86.7308 0.390931 4.15364 0
M  V30 950 H 85.3608 -0.261693 3.21737 0
M  V30 951 H 84.4128 2.15681 3.13346 0
M  V30 952 H 85.7248 2.64466 4.22918 0
M  V30 953 H 84.8788 1.06134 5.97345 0
M  V30 954 H 83.6178 0.471557 4.85415 0
M  V30 955 H 82.6228 2.77392 4.74693 0
M  V30 956 H 83.8478 3.36158 5.90063 0
M  V30 957 H 81.7938 1.18632 6.45184 0
M  V30 958 H 81.7108 2.82409 7.01271 0
M  V30 959 H 82.9788 1.78347 7.58823 0
M  V30 960 N 87.2079 -1.17134 1.05439 0
M  V30 961 C 88.1549 -2.21235 0.657539 0
M  V30 962 C 89.1249 -1.62551 -0.341543 0
M  V30 963 O 90.3099 -1.89379 -0.232393 0
M  V30 964 C 87.4499 -3.45076 0.0410575 0
M  V30 965 C 86.5629 -4.18042 1.08927 0
M  V30 966 C 85.6979 -5.29376 0.439848 0
M  V30 967 C 84.7369 -5.94132 1.4722 0
M  V30 968 N 83.8739 -6.96975 0.846756 0
M  V30 969 H 88.7139 -2.54534 1.54972 0
M  V30 970 H 86.2509 -1.25028 0.775006 0
M  V30 971 H 88.2089 -4.15862 -0.33383 0
M  V30 972 H 86.8389 -3.12353 -0.814568 0
M  V30 973 H 85.8909 -3.45945 1.58196 0
M  V30 974 H 87.2029 -4.62306 1.87282 0
M  V30 975 H 86.3569 -6.06699 0.0115125 0
M  V30 976 H 85.0959 -4.86251 -0.375656 0
M  V30 977 H 84.1009 -5.15538 1.91052 0
M  V30 978 H 85.3259 -6.39337 2.28965 0
M  V30 979 H 83.2719 -6.5598 0.0518075 0
M  V30 980 H 83.1889 -7.39565 1.5678 0
M  V30 981 H 84.4569 -7.78239 0.443277 0
M  V30 982 N 88.686 -0.835752 -1.33615 0
M  V30 983 C 89.596 -0.269088 -2.33052 0
M  V30 984 C 90.612 0.603251 -1.63208 0
M  V30 985 O 91.788 0.508112 -1.94885 0
M  V30 986 C 88.853 0.549091 -3.42324 0
M  V30 987 C 87.914 -0.347156 -4.27894 0
M  V30 988 C 87.147 0.43207 -5.31948 0
M  V30 989 O 87.37 1.66409 -5.45586 0
M  V30 990 O 86.304 -0.192298 -6.01593 0
M  V30 991 H 90.13 -1.09243 -2.83372 0
M  V30 992 H 87.715 -0.598198 -1.36901 0
M  V30 993 H 89.597 1.01414 -4.09015 0
M  V30 994 H 88.272 1.34955 -2.94226 0
M  V30 995 H 87.179 -0.859979 -3.64081 0
M  V30 996 H 88.512 -1.1123 -4.79467 0
M  V30 997 N 90.1641 1.46063 -0.591896 0
M  V30 998 C 91.0741 2.34192 0.13831 0
M  V30 999 C 92.0901 1.50305 0.876608 0
M  V30 1000 O 93.2661 1.8315 0.837728 0
M  V30 1001 C 90.3311 3.27656 1.13326 0
M  V30 1002 C 89.3921 4.27445 0.39863 0
M  V30 1003 C 88.6251 5.16443 1.34618 0
M  V30 1004 O 88.8481 5.08553 2.58321 0
M  V30 1005 O 87.7821 5.95843 0.851768 0
M  V30 1006 H 91.6081 2.98002 -0.58552 0
M  V30 1007 H 89.1931 1.45188 -0.352239 0
M  V30 1008 H 91.0751 3.85291 1.70671 0
M  V30 1009 H 89.7501 2.6643 1.83839 0
M  V30 1010 H 88.6571 3.73471 -0.216895 0
M  V30 1011 H 89.9901 4.91482 -0.265709 0
M  V30 1012 N 91.6422 0.330177 1.54103 0
M  V30 1013 C 92.5522 -0.541534 2.28264 0
M  V30 1014 C 93.5682 -1.12351 1.32866 0
M  V30 1015 O 94.7442 -1.14206 1.65888 0
M  V30 1016 C 91.8092 -1.68322 3.03098 0
M  V30 1017 C 90.8702 -1.13238 4.14096 0
M  V30 1018 C 90.1032 -2.21966 4.85352 0
M  V30 1019 O 90.3262 -3.42437 4.56172 0
M  V30 1020 O 89.2602 -1.87013 5.7211 0
M  V30 1021 H 93.0862 0.060938 3.03639 0
M  V30 1022 H 90.6712 0.09565 1.49093 0
M  V30 1023 H 92.5532 -2.34777 3.49939 0
M  V30 1024 H 91.2282 -2.27176 2.30593 0
M  V30 1025 H 90.1352 -0.432736 3.71589 0
M  V30 1026 H 91.4682 -0.588898 4.88664 0
M  V30 1027 N 93.1203 -1.57491 0.0584922 0
M  V30 1028 C 94.0503 -2.14988 -0.911178 0
M  V30 1029 C 95.0313 -1.07343 -1.31952 0
M  V30 1030 O 96.2163 -1.35318 -1.39294 0
M  V30 1031 C 93.3463 -2.70078 -2.18347 0
M  V30 1032 C 92.3003 -3.82771 -1.91495 0
M  V30 1033 C 91.6263 -4.24408 -3.25241 0
M  V30 1034 C 92.9263 -5.07592 -1.23075 0
M  V30 1035 H 94.6203 -2.96263 -0.432246 0
M  V30 1036 H 92.1663 -1.42512 -0.206469 0
M  V30 1037 H 94.1193 -3.08943 -2.86587 0
M  V30 1038 H 92.8433 -1.86005 -2.68458 0
M  V30 1039 H 91.5023 -3.44389 -1.25664 0
M  V30 1040 H 91.1503 -3.37275 -3.73168 0
M  V30 1041 H 90.8503 -5.00366 -3.08071 0
M  V30 1042 H 92.3743 -4.65879 -3.94701 0
M  V30 1043 H 93.7883 -5.43857 -1.81362 0
M  V30 1044 H 92.1853 -5.88741 -1.16207 0
M  V30 1045 H 93.2553 -4.84454 -0.207847 0
M  V30 1046 N 94.5984 0.214957 -1.56127 0
M  V30 1047 C 95.8444 0.939762 -1.79712 0
M  V30 1048 C 96.1774 1.83723 -0.629247 0
M  V30 1049 O 95.4524 1.90925 0.371197 0
M  V30 1050 C 95.7354 1.77306 -3.13424 0
M  V30 1051 C 95.5884 0.90164 -4.40671 0
M  V30 1052 C 96.9074 2.74956 -3.43638 0
M  V30 1053 H 94.0264 0.340214 -0.653776 0
M  V30 1054 H 96.6684 0.20824 -1.88855 0
M  V30 1055 H 94.8184 2.39673 -3.0576 0
M  V30 1056 H 96.4904 0.294206 -4.60361 0
M  V30 1057 H 94.7334 0.207368 -4.33304 0
M  V30 1058 H 95.4044 1.51923 -5.30682 0
M  V30 1059 H 97.8804 2.22724 -3.51473 0
M  V30 1060 H 96.7564 3.30358 -4.38355 0
M  V30 1061 H 97.0174 3.53023 -2.66134 0
M  V30 1062 N 96.0765 1.50051 0.48192 0
M  V30 1063 C 96.9865 1.7089 1.60728 0
M  V30 1064 C 98.0025 0.591788 1.63627 0
M  V30 1065 O 99.1785 0.868817 1.81696 0
M  V30 1066 C 96.2435 1.78855 2.97005 0
M  V30 1067 C 95.3045 3.02537 3.04581 0
M  V30 1068 C 94.5375 3.10112 4.34357 0
M  V30 1069 O 94.7605 2.24765 5.24249 0
M  V30 1070 O 93.6945 4.02747 4.47301 0
M  V30 1071 H 97.5205 2.66264 1.46072 0
M  V30 1072 H 95.1055 1.34018 0.660264 0
M  V30 1073 H 96.9875 1.86336 3.77964 0
M  V30 1074 H 95.6625 0.866628 3.11883 0
M  V30 1075 H 94.5695 3.00563 2.22739 0
M  V30 1076 H 95.9025 3.94272 2.94636 0
M  V30 1077 N 97.5546 -0.734337 1.39446 0
M  V30 1078 C 98.8006 -1.49613 1.36908 0
M  V30 1079 C 99.1336 -1.94169 -0.0347829 0
M  V30 1080 O 98.4086 -1.66833 -0.999847 0
M  V30 1081 C 98.6916 -2.73534 2.34203 0
M  V30 1082 C 98.5446 -2.34993 3.83534 0
M  V30 1083 C 99.8636 -3.75635 2.29317 0
M  V30 1084 H 96.9826 -0.542714 0.498629 0
M  V30 1085 H 99.6246 -0.839597 1.70443 0
M  V30 1086 H 97.7746 -3.29553 2.05736 0
M  V30 1087 H 99.4466 -1.84601 4.22753 0
M  V30 1088 H 97.6896 -1.67213 4.00278 0
M  V30 1089 H 98.3606 -3.23738 4.47099 0
M  V30 1090 H 100.837 -3.29203 2.54489 0
M  V30 1091 H 99.7126 -4.60008 2.99472 0
M  V30 1092 H 99.9736 -4.22603 1.29842 0
M  V30 1093 N 99.0327 -1.24633 -0.964593 0
M  V30 1094 C 99.9807 -1.03917 -2.08096 0
M  V30 1095 C 100.975 0.0268581 -1.69379 0
M  V30 1096 O 102.181 -0.127952 -1.79545 0
M  V30 1097 H 98.5557 -0.319044 -0.680966 0
M  V30 1098 H 100.527 -1.98581 -2.22729 0
M  V30 1099 C 99.2757 -0.663983 -3.41301 0
M  V30 1100 H 98.5987 -1.47605 -3.71555 0
M  V30 1101 H 100.039 -0.558663 -4.20303 0
M  V30 1102 C 98.4977 0.629169 -3.30973 0
M  V30 1103 O 99.0277 1.67404 -3.65156 0
M  V30 1104 N 97.2337 0.611057 -2.84103 0
M  V30 1105 H 96.7807 -0.239593 -2.56483 0
M  V30 1106 H 96.7387 1.47647 -2.77575 0
M  V30 1107 N 100.511 1.16574 -1.06058 0
M  V30 1108 C 101.458 2.20883 -0.669263 0
M  V30 1109 C 102.428 1.62729 0.332918 0
M  V30 1110 O 103.613 1.895 0.222346 0
M  V30 1111 C 100.753 3.45049 -0.0593572 0
M  V30 1112 C 99.8658 4.17458 -1.11143 0
M  V30 1113 C 99.0008 5.29135 -0.467916 0
M  V30 1114 C 98.0398 5.93343 -1.50369 0
M  V30 1115 N 97.1768 6.96516 -0.883706 0
M  V30 1116 H 102.017 2.53709 -1.5632 0
M  V30 1117 H 99.5538 1.24616 -0.781625 0
M  V30 1118 H 101.512 4.16033 0.311771 0
M  V30 1119 H 100.142 3.12781 0.797992 0
M  V30 1120 H 99.1938 3.45101 -1.60029 0
M  V30 1121 H 100.506 4.61307 -1.89731 0
M  V30 1122 H 99.6598 6.06684 -0.0436871 0
M  V30 1123 H 98.3988 4.86443 0.349864 0
M  V30 1124 H 97.4038 5.14517 -1.93784 0
M  V30 1125 H 98.6288 6.38114 -2.32352 0
M  V30 1126 H 96.5748 6.55943 -0.086595 0
M  V30 1127 H 96.4918 7.38723 -1.607 0
M  V30 1128 H 97.7598 7.77993 -0.484543 0
M  V30 1129 N 101.989 0.842826 1.3317 0
M  V30 1130 C 103.405 0.531128 1.50503 0
M  V30 1131 C 103.605 -0.940734 1.78192 0
M  V30 1132 O 102.661 -1.72436 1.84451 0
M  V30 1133 C 103.974 1.40789 2.65705 0
M  V30 1134 C 105.522 1.40708 2.79589 0
M  V30 1135 C 105.997 2.26878 3.97857 0
M  V30 1136 N 107.488 2.24609 4.05099 0
M  V30 1137 C 108.223 2.88019 4.95815 0
M  V30 1138 N 107.719 3.60496 5.9162 0
M  V30 1139 N 109.512 2.77469 4.88843 0
M  V30 1140 H 101.663 1.79557 1.1346 0
M  V30 1141 H 103.926 0.766267 0.558156 0
M  V30 1142 H 103.632 2.454 2.51936 0
M  V30 1143 H 103.506 1.08677 3.61205 0
M  V30 1144 H 105.893 0.368668 2.92788 0
M  V30 1145 H 105.974 1.76829 1.84838 0
M  V30 1146 H 105.618 3.3078 3.85418 0
M  V30 1147 H 105.548 1.88096 4.91861 0
M  V30 1148 H 108.039 1.71906 3.36536 0
M  V30 1149 H 108.352 4.06076 6.57512 0
M  V30 1150 H 106.697 3.64604 5.91683 0
M  V30 1151 H 109.888 2.20406 4.12963 0
M  V30 1152 H 110.061 3.2717 5.59342 0
M  V30 1153 N 103.467 -1.45747 0.599634 0
M  V30 1154 C 104.414 -2.30467 -0.123849 0
M  V30 1155 C 105.384 -1.41632 -0.86774 0
M  V30 1156 O 106.569 -1.70568 -0.855056 0
M  V30 1157 C 103.709 -3.26402 -1.12051 0
M  V30 1158 C 102.822 -4.3034 -0.37832 0
M  V30 1159 C 101.957 -5.13389 -1.364 0
M  V30 1160 C 100.996 -6.09061 -0.609171 0
M  V30 1161 N 100.133 -6.84918 -1.54374 0
M  V30 1162 H 104.973 -2.91802 0.604627 0
M  V30 1163 H 102.51 -1.43797 0.309972 0
M  V30 1164 H 104.468 -3.80482 -1.7114 0
M  V30 1165 H 103.098 -2.66839 -1.8165 0
M  V30 1166 H 102.15 -3.78984 0.327929 0
M  V30 1167 H 103.462 -4.98354 0.210997 0
M  V30 1168 H 102.616 -5.7183 -2.02719 0
M  V30 1169 H 101.355 -4.45376 -1.98725 0
M  V30 1170 H 100.36 -5.49758 0.0676979 0
M  V30 1171 H 101.585 -6.79099 0.00891991 0
M  V30 1172 H 99.531 -6.19601 -2.15478 0
M  V30 1173 H 99.448 -7.49254 -1.00766 0
M  V30 1174 H 100.716 -7.47906 -2.19676 0
M  V30 1175 N 104.945 -0.338344 -1.53925 0
M  V30 1176 C 106.17 0.263987 -2.05713 0
M  V30 1177 C 106.595 1.43847 -1.21201 0
M  V30 1178 O 105.953 1.79904 -0.224535 0
M  V30 1179 C 106.001 0.662 -3.54471 0
M  V30 1180 O 105.105 1.76265 -3.72833 0
M  V30 1181 H 104.446 0.0448722 -0.662482 0
M  V30 1182 H 106.976 -0.491048 -1.9862 0
M  V30 1183 H 106.986 0.940594 -3.9701 0
M  V30 1184 H 105.661 -0.196937 -4.15433 0
M  V30 1185 H 104.238 1.48173 -3.42198 0
M  V30 1186 N 106.423 1.57458 -0.0668435 0
M  V30 1187 C 107.37 2.12439 0.902122 0
M  V30 1188 C 108.34 1.03565 1.2986 0
M  V30 1189 O 109.525 1.312 1.38532 0
M  V30 1190 C 106.665 2.6865 2.16614 0
M  V30 1191 C 105.778 3.91663 1.82274 0
M  V30 1192 C 104.913 4.36134 3.0325 0
M  V30 1193 C 103.952 5.51808 2.64904 0
M  V30 1194 N 103.089 5.9126 3.78624 0
M  V30 1195 H 107.929 2.94934 0.426382 0
M  V30 1196 H 105.466 1.4575 0.198819 0
M  V30 1197 H 107.424 2.99346 2.90599 0
M  V30 1198 H 106.054 1.88928 2.61737 0
M  V30 1199 H 105.106 3.6746 0.983719 0
M  V30 1200 H 106.418 4.75693 1.50059 0
M  V30 1201 H 105.572 4.68465 3.85519 0
M  V30 1202 H 104.311 3.50948 3.38655 0
M  V30 1203 H 103.316 5.19133 1.81055 0
M  V30 1204 H 104.541 6.38722 2.30675 0
M  V30 1205 H 102.487 5.09024 4.138 0
M  V30 1206 H 102.404 6.70018 3.5016 0
M  V30 1207 H 103.672 6.28212 4.61486 0
M  V30 1208 N 107.901 -0.206675 1.56239 0
M  V30 1209 C 109.131 -0.943975 1.83773 0
M  V30 1210 C 109.539 -1.77841 0.645703 0
M  V30 1211 O 108.882 -1.79403 -0.395008 0
M  V30 1212 C 108.944 -1.899 3.05251 0
M  V30 1213 C 108.608 -1.24764 4.39639 0
M  V30 1214 C 109.605 -0.630216 5.16066 0
M  V30 1215 C 107.29 -1.25496 4.8637 0
M  V30 1216 C 109.284 -0.0287946 6.37393 0
M  V30 1217 C 106.971 -0.649698 6.07637 0
M  V30 1218 C 107.969 -0.0376845 6.8299 0
M  V30 1219 O 107.657 0.55812 8.0196 0
M  V30 1220 H 107.389 -0.281508 0.614597 0
M  V30 1221 H 109.943 -0.222458 2.04192 0
M  V30 1222 H 108.173 -2.6599 2.80689 0
M  V30 1223 H 109.862 -2.5031 3.1953 0
M  V30 1224 H 110.628 -0.616785 4.81062 0
M  V30 1225 H 106.507 -1.72072 4.27683 0
M  V30 1226 H 110.051 0.449518 6.9615 0
M  V30 1227 H 105.948 -0.660592 6.42111 0
M  V30 1228 H 106.716 0.453891 8.17241 0
M  V30 1229 N 109.379 -1.50304 -0.473955 0
M  V30 1230 C 110.326 -1.68959 -1.57231 0
M  V30 1231 C 111.296 -0.530899 -1.57387 0
M  V30 1232 O 112.481 -0.761133 -1.74961 0
M  V30 1233 C 109.621 -1.7871 -2.95223 0
M  V30 1234 C 108.734 -3.06061 -3.04878 0
M  V30 1235 C 107.869 -3.06626 -4.33767 0
M  V30 1236 C 106.908 -4.28443 -4.37154 0
M  V30 1237 N 106.045 -4.26763 -5.5751 0
M  V30 1238 H 110.885 -2.6273 -1.40631 0
M  V30 1239 H 108.422 -1.30241 -0.683789 0
M  V30 1240 H 110.38 -1.82344 -3.75242 0
M  V30 1241 H 109.01 -0.883806 -3.10465 0
M  V30 1242 H 108.062 -3.11911 -2.17751 0
M  V30 1243 H 109.374 -3.96039 -3.0324 0
M  V30 1244 H 108.528 -3.08973 -5.22131 0
M  V30 1245 H 107.267 -2.14473 -4.3801 0
M  V30 1246 H 106.272 -4.2631 -3.47188 0
M  V30 1247 H 107.497 -5.2182 -4.34605 0
M  V30 1248 H 105.443 -3.37462 -5.62544 0
M  V30 1249 H 105.36 -5.10507 -5.57601 0
M  V30 1250 H 106.628 -4.33253 -6.48006 0
M  V30 1251 N 110.857 0.726932 -1.39834 0
M  V30 1252 C 111.787 1.85405 -1.41941 0
M  V30 1253 C 112.768 1.67751 -0.281728 0
M  V30 1254 O 113.953 1.8795 -0.488717 0
M  V30 1255 C 111.083 3.23243 -1.2701 0
M  V30 1256 C 110.037 3.55549 -2.38262 0
M  V30 1257 C 109.363 4.9241 -2.08415 0
M  V30 1258 C 110.663 3.577 -3.80589 0
M  V30 1259 H 112.357 1.83899 -2.36266 0
M  V30 1260 H 109.903 0.883349 -1.13723 0
M  V30 1261 H 111.856 4.01775 -1.27103 0
M  V30 1262 H 110.58 3.25296 -0.291564 0
M  V30 1263 H 109.239 2.79351 -2.37399 0
M  V30 1264 H 108.887 4.91052 -1.0898 0
M  V30 1265 H 108.587 5.14992 -2.82943 0
M  V30 1266 H 110.111 5.73289 -2.10171 0
M  V30 1267 H 111.525 4.26293 -3.83337 0
M  V30 1268 H 109.922 3.91804 -4.54543 0
M  V30 1269 H 110.992 2.57328 -4.10987 0
M  V30 1270 N 112.336 1.25143 0.95797 0
M  V30 1271 C 113.299 1.05321 2.03569 0
M  V30 1272 C 114.299 0.007152 1.60798 0
M  V30 1273 O 115.489 0.24903 1.72411 0
M  V30 1274 C 112.621 0.598394 3.35607 0
M  V30 1275 H 113.814 2.00986 2.22586 0
M  V30 1276 H 111.367 1.07502 1.13459 0
M  V30 1277 H 112.102 -0.361014 3.22284 0
M  V30 1278 H 111.887 1.35351 3.67998 0
M  V30 1279 H 113.377 0.48104 4.1482 0
M  V30 1280 N 113.814 -1.1601 1.06675 0
M  V30 1281 C 115.042 -1.90527 0.806667 0
M  V30 1282 C 115.457 -1.77643 -0.639396 0
M  V30 1283 O 114.814 -1.12369 -1.43803 0
M  V30 1284 C 114.865 -3.41106 1.19705 0
M  V30 1285 O 114.586 -3.53608 2.58636 0
M  V30 1286 C 116.087 -4.32663 0.965266 0
M  V30 1287 H 113.307 -0.604053 0.292166 0
M  V30 1288 H 115.851 -1.47026 1.4214 0
M  V30 1289 H 114.006 -3.82296 0.626774 0
M  V30 1290 H 114.42 -4.47011 2.74375 0
M  V30 1291 H 115.894 -5.36763 1.288 0
M  V30 1292 H 116.371 -4.39089 -0.0987936 0
M  V30 1293 H 116.977 -3.97206 1.52011 0
M  V30 1294 N 115.292 -0.849877 -1.32721 0
M  V30 1295 C 116.517 -0.463856 -2.02146 0
M  V30 1296 C 116.942 0.930449 -1.63476 0
M  V30 1297 O 116.3 1.61033 -0.832952 0
M  V30 1298 C 116.348 -0.604955 -3.55489 0
M  V30 1299 O 115.452 0.36425 -4.10788 0
M  V30 1300 H 114.793 -0.187046 -0.637111 0
M  V30 1301 H 117.323 -1.14775 -1.69375 0
M  V30 1302 H 117.333 -0.490696 -4.05038 0
M  V30 1303 H 116.008 -1.62174 -3.82978 0
M  V30 1304 H 114.585 0.206628 -3.72327 0
M  V30 1305 N 116.77 1.45427 -0.607355 0
M  V30 1306 C 118.016 2.0254 -0.102607 0
M  V30 1307 C 118.349 1.47478 1.26348 0
M  V30 1308 O 117.624 0.64939 1.83339 0
M  V30 1309 C 117.907 3.60044 -0.0634347 0
M  V30 1310 C 117.76 4.2544 -1.46017 0
M  V30 1311 C 119.079 4.35646 0.624514 0
M  V30 1312 H 116.198 0.73598 -0.0387607 0
M  V30 1313 H 118.84 1.73284 -0.779282 0
M  V30 1314 H 116.99 3.85101 0.512808 0
M  V30 1315 H 118.662 4.11569 -2.08347 0
M  V30 1316 H 116.905 3.83849 -2.02094 0
M  V30 1317 H 117.576 5.34342 -1.385 0
M  V30 1318 H 120.052 4.15882 0.134723 0
M  V30 1319 H 118.928 5.45376 0.621028 0
M  V30 1320 H 119.189 4.08501 1.69055 0
M  V30 1321 N 118.248 0.346503 1.53744 0
M  V30 1322 C 119.178 -0.501193 2.28058 0
M  V30 1323 C 120.159 -1.10014 1.29734 0
M  V30 1324 O 121.344 -1.12097 1.58581 0
M  V30 1325 C 118.474 -1.65078 3.05559 0
M  V30 1326 C 117.428 -1.18003 4.11411 0
M  V30 1327 C 116.754 -2.41837 4.76884 0
M  V30 1328 C 118.054 -0.278394 5.21558 0
M  V30 1329 H 119.748 0.11875 2.99164 0
M  V30 1330 H 117.294 0.0585531 1.43881 0
M  V30 1331 H 119.247 -2.25028 3.56287 0
M  V30 1332 H 117.971 -2.29767 2.32109 0
M  V30 1333 H 116.63 -0.603331 3.61601 0
M  V30 1334 H 116.278 -3.0494 4.00026 0
M  V30 1335 H 115.978 -2.1102 5.48402 0
M  V30 1336 H 117.502 -3.02508 5.30397 0
M  V30 1337 H 118.916 -0.784823 5.67903 0
M  V30 1338 H 117.313 -0.0619707 6.00068 0
M  V30 1339 H 118.383 0.684677 4.80042 0
M  V30 1340 N 119.726 -1.57421 0.075193 0
M  V30 1341 C 120.689 -2.11791 -0.876203 0
M  V30 1342 C 121.689 -1.04268 -1.22412 0
M  V30 1343 O 122.879 -1.30242 -1.15684 0
M  V30 1344 C 120.011 -2.62207 -2.17854 0
M  V30 1345 H 121.204 -2.9716 -0.40444 0
M  V30 1346 H 118.757 -1.55333 -0.173557 0
M  V30 1347 H 119.492 -1.803 -2.6956 0
M  V30 1348 H 119.277 -3.40802 -1.93897 0
M  V30 1349 H 120.767 -3.04335 -2.85955 0
M  V30 1350 N 121.204 0.198386 -1.56346 0
M  V30 1351 C 122.452 0.91747 -1.80075 0
M  V30 1352 C 122.773 1.83929 -0.647692 0
M  V30 1353 O 122.043 1.93029 0.334166 0
M  V30 1354 H 120.623 0.341774 -0.664228 0
M  V30 1355 H 123.285 0.204684 -1.93822 0
M  V30 1356 H 122.381 1.51055 -2.7311 0
M  V30 1357 N 122.682 1.50554 0.465978 0
M  V30 1358 C 123.612 1.72722 1.57128 0
M  V30 1359 C 124.593 0.576294 1.6004 0
M  V30 1360 O 125.778 0.81598 1.76225 0
M  V30 1361 C 122.908 1.82605 2.95419 0
M  V30 1362 C 121.862 2.97835 3.07373 0
M  V30 1363 C 121.188 2.92867 4.47363 0
M  V30 1364 C 122.488 4.38265 2.84114 0
M  V30 1365 H 124.182 2.65267 1.38829 0
M  V30 1366 H 121.728 1.2765 0.666441 0
M  V30 1367 H 123.681 1.96698 3.72677 0
M  V30 1368 H 122.405 0.866858 3.14886 0
M  V30 1369 H 121.064 2.83401 2.3255 0
M  V30 1370 H 120.712 1.94783 4.63755 0
M  V30 1371 H 120.412 3.70227 4.56296 0
M  V30 1372 H 121.936 3.09015 5.26633 0
M  V30 1373 H 123.35 4.53198 3.51118 0
M  V30 1374 H 121.747 5.17115 3.04487 0
M  V30 1375 H 122.817 4.50281 1.7993 0
M  V30 1376 N 124.16 -0.719506 1.40217 0
M  V30 1377 C 125.09 -1.8465 1.42922 0
M  V30 1378 C 126.071 -1.67599 0.29062 0
M  V30 1379 O 127.256 -1.87688 0.498677 0
M  V30 1380 C 124.386 -3.22565 1.28722 0
M  V30 1381 C 123.34 -3.54281 2.40144 0
M  V30 1382 C 122.666 -4.91298 2.11023 0
M  V30 1383 C 123.966 -3.55676 3.82481 0
M  V30 1384 H 125.66 -1.82644 2.37237 0
M  V30 1385 H 123.206 -0.877305 1.1419 0
M  V30 1386 H 125.159 -4.01095 1.29232 0
M  V30 1387 H 123.883 -3.25137 0.308811 0
M  V30 1388 H 122.542 -2.78088 2.38877 0
M  V30 1389 H 122.19 -4.90468 1.11582 0
M  V30 1390 H 121.89 -5.13485 2.8567 0
M  V30 1391 H 123.414 -5.72166 2.13209 0
M  V30 1392 H 124.828 -4.24254 3.85592 0
M  V30 1393 H 123.225 -3.89388 4.56614 0
M  V30 1394 H 124.295 -2.55144 4.12346 0
M  V30 1395 N 125.638 -1.25649 -0.95132 0
M  V30 1396 C 126.886 -1.10375 -1.69298 0
M  V30 1397 C 127.207 0.355339 -1.91735 0
M  V30 1398 O 126.477 1.25188 -1.50681 0
M  V30 1399 H 125.057 -0.405461 -0.627384 0
M  V30 1400 H 127.719 -1.57823 -1.14358 0
M  V30 1401 H 126.815 -1.61465 -2.67087 0
M  V30 1402 N 127.117 1.15442 -1.07289 0
M  V30 1403 C 128.363 1.86489 -0.796846 0
M  V30 1404 C 128.696 1.82078 0.675371 0
M  V30 1405 O 127.971 1.24346 1.4956 0
M  V30 1406 C 128.254 3.35626 -1.30489 0
M  V30 1407 C 128.107 3.48673 -2.84161 0
M  V30 1408 C 129.426 4.30357 -0.920907 0
M  V30 1409 H 126.545 0.677144 -0.290939 0
M  V30 1410 H 129.187 1.35633 -1.33056 0
M  V30 1411 H 127.337 3.79068 -0.850883 0
M  V30 1412 H 129.009 3.14099 -3.37846 0
M  V30 1413 H 127.252 2.90253 -3.22391 0
M  V30 1414 H 127.923 4.53453 -3.14777 0
M  V30 1415 H 130.399 3.94871 -1.3121 0
M  V30 1416 H 129.275 5.33193 -1.30372 0
M  V30 1417 H 129.536 4.4176 0.173226 0
M  V30 1418 N 128.595 0.856903 1.32268 0
M  V30 1419 C 129.841 0.462069 1.97466 0
M  V30 1420 C 130.174 -0.980298 1.67642 0
M  V30 1421 O 129.449 -1.68824 0.965858 0
M  V30 1422 C 129.732 0.704336 3.53145 0
M  V30 1423 C 129.585 2.19529 3.9259 0
M  V30 1424 C 130.904 0.1622 4.39801 0
M  V30 1425 H 128.023 0.169357 0.717278 0
M  V30 1426 H 130.665 1.07574 1.56614 0
M  V30 1427 H 128.815 0.181999 3.88073 0
M  V30 1428 H 130.487 2.78387 3.67829 0
M  V30 1429 H 128.73 2.67292 3.41668 0
M  V30 1430 H 129.401 2.31549 5.01088 0
M  V30 1431 H 131.877 0.608905 4.11621 0
M  V30 1432 H 130.753 0.361265 5.4771 0
M  V30 1433 H 131.014 -0.935158 4.32096 0
M  V30 1434 N 130.073 -1.45103 0.615059 0
M  V30 1435 C 131.298 -2.07064 0.117988 0
M  V30 1436 C 131.723 -1.4554 -1.19163 0
M  V30 1437 O 131.081 -0.550855 -1.72729 0
M  V30 1438 C 131.129 -3.606 -0.000288387 0
M  V30 1439 O 130.233 -3.98847 -1.04856 0
M  V30 1440 H 129.574 -0.659467 0.0774581 0
M  V30 1441 H 132.104 -1.86236 0.847186 0
M  V30 1442 H 132.114 -4.07529 -0.196091 0
M  V30 1443 H 130.789 -4.04765 0.955932 0
M  V30 1444 H 129.366 -3.63577 -0.828619 0
M  V30 1445 N 131.551 -0.354651 -1.53558 0
M  V30 1446 C 132.779 0.239515 -2.05509 0
M  V30 1447 C 133.194 1.4333 -1.2289 0
M  V30 1448 O 132.551 1.80538 -0.266899 0
M  V30 1449 C 132.602 0.643719 -3.55723 0
M  V30 1450 O 132.323 -0.502602 -4.35207 0
M  V30 1451 C 133.824 1.29743 -4.23889 0
M  V30 1452 H 131.044 0.0442697 -0.669538 0
M  V30 1453 H 133.588 -0.509856 -1.98042 0
M  V30 1454 H 131.743 1.34302 -3.63376 0
M  V30 1455 H 132.157 -0.178172 -5.24197 0
M  V30 1456 H 133.631 1.53091 -5.30346 0
M  V30 1457 H 134.108 2.25441 -3.76926 0
M  V30 1458 H 134.714 0.639865 -4.20459 0
M  V30 1459 N 133.029 1.57378 -0.0835403 0
M  V30 1460 C 134.275 1.94217 0.583733 0
M  V30 1461 C 134.608 0.964653 1.68547 0
M  V30 1462 O 133.883 -0.00422258 1.945 0
M  V30 1463 C 134.166 3.41253 1.14972 0
M  V30 1464 C 134.019 4.49768 0.0538277 0
M  V30 1465 C 135.338 3.89352 2.05166 0
M  V30 1466 H 132.457 0.706233 0.210724 0
M  V30 1467 H 135.099 1.89392 -0.1519 0
M  V30 1468 H 133.249 3.45496 1.77665 0
M  V30 1469 H 134.921 4.57641 -0.579851 0
M  V30 1470 H 133.164 4.29432 -0.614068 0
M  V30 1471 H 133.835 5.49817 0.490452 0
M  V30 1472 H 136.311 3.87189 1.52393 0
M  V30 1473 H 135.187 4.92822 2.41698 0
M  V30 1474 H 135.448 3.27973 2.96456 0
M  V30 1475 N 134.507 -0.190092 1.56449 0
M  V30 1476 C 135.437 -1.23816 1.97969 0
M  V30 1477 C 136.418 -1.47201 0.852395 0
M  V30 1478 O 137.603 -1.58854 1.1171 0
M  V30 1479 C 134.733 -2.5813 2.3235 0
M  V30 1480 C 133.687 -2.49348 3.47864 0
M  V30 1481 C 133.013 -3.8798 3.67934 0
M  V30 1482 C 134.313 -2.01424 4.81898 0
M  V30 1483 H 136.007 -0.89311 2.85769 0
M  V30 1484 H 133.553 -0.428177 1.37487 0
M  V30 1485 H 135.506 -3.31637 2.59991 0
M  V30 1486 H 134.23 -2.94386 1.41438 0
M  V30 1487 H 132.889 -1.78297 3.20321 0
M  V30 1488 H 132.537 -4.21597 2.74344 0
M  V30 1489 H 132.237 -3.82978 4.45648 0
M  V30 1490 H 133.761 -4.63101 3.97957 0
M  V30 1491 H 135.175 -2.64693 5.08538 0
M  V30 1492 H 133.572 -2.07413 5.63116 0
M  V30 1493 H 134.642 -0.967677 4.75146 0
M  V30 1494 N 135.985 -1.50799 -0.457987 0
M  V30 1495 C 136.915 -1.73553 -1.5621 0
M  V30 1496 C 137.896 -0.584774 -1.59732 0
M  V30 1497 O 139.081 -0.825314 -1.7579 0
M  V30 1498 C 136.211 -1.84169 -2.94447 0
M  V30 1499 C 135.165 -2.99461 -3.0579 0
M  V30 1500 C 134.491 -2.95235 -4.45803 0
M  V30 1501 C 135.791 -4.39766 -2.81786 0
M  V30 1502 H 137.485 -2.66 -1.37421 0
M  V30 1503 H 135.031 -1.28002 -0.659662 0
M  V30 1504 H 136.984 -1.98672 -3.71628 0
M  V30 1505 H 135.708 -0.883545 -3.14422 0
M  V30 1506 H 134.367 -2.8463 -2.31044 0
M  V30 1507 H 134.015 -1.97239 -4.62715 0
M  V30 1508 H 133.715 -3.72642 -4.54326 0
M  V30 1509 H 135.239 -3.11803 -5.24987 0
M  V30 1510 H 136.653 -4.55054 -3.4871 0
M  V30 1511 H 135.05 -5.18722 -3.0174 0
M  V30 1512 H 136.12 -4.51229 -1.7754 0
M  V30 1513 N 137.463 0.71206 -1.40597 0
M  V30 1514 C 138.711 1.46907 -1.38791 0
M  V30 1515 C 139.032 1.94998 0.00780391 0
M  V30 1516 O 138.302 1.70587 0.963174 0
M  V30 1517 H 136.882 0.545043 -0.51082 0
M  V30 1518 H 139.544 0.843882 -1.75683 0
M  V30 1519 H 138.64 2.34021 -2.06496 0
M  V30 1520 N 138.941 1.26152 0.944643 0
M  V30 1521 C 140.189 1.11271 1.6871 0
M  V30 1522 C 140.51 -0.345166 1.91921 0
M  V30 1523 O 139.78 -1.24387 1.51343 0
M  V30 1524 H 138.36 0.408783 0.625224 0
M  V30 1525 H 141.022 1.58427 1.1352 0
M  V30 1526 H 140.118 1.62879 2.66227 0
M  V30 1527 N 140.419 -1.14872 1.07899 0
M  V30 1528 C 141.665 -1.86064 0.806725 0
M  V30 1529 C 141.998 -1.82434 -0.665706 0
M  V30 1530 O 141.273 -1.25138 -1.48899 0
M  V30 1531 C 141.556 -3.34929 1.32267 0
M  V30 1532 C 141.409 -3.47161 2.86006 0
M  V30 1533 C 142.728 -4.29863 0.943717 0
M  V30 1534 H 139.847 -0.675591 0.294526 0
M  V30 1535 H 142.489 -1.34925 1.33773 0
M  V30 1536 H 140.639 -3.78611 0.870974 0
M  V30 1537 H 142.311 -3.12302 3.39507 0
M  V30 1538 H 140.554 -2.88539 3.23925 0
M  V30 1539 H 141.225 -4.51777 3.17177 0
M  V30 1540 H 143.701 -3.9417 1.33302 0
M  V30 1541 H 142.577 -5.32494 1.33198 0
M  V30 1542 H 142.838 -4.41846 -0.149796 0
M  V30 1543 N 141.898 -0.863906 -1.31812 0
M  V30 1544 C 143.146 -0.470904 -1.96537 0
M  V30 1545 C 143.467 0.978771 -1.68657 0
M  V30 1546 O 142.737 1.6853 -0.998717 0
M  V30 1547 H 141.317 -0.171148 -0.72713 0
M  V30 1548 H 143.979 -1.10236 -1.60729 0
M  V30 1549 H 143.075 -0.623616 -3.05806 0
M  V30 1550 N 143.376 1.44774 -0.622745 0
M  V30 1551 C 144.306 2.33382 0.0741861 0
M  V30 1552 C 145.287 1.47719 0.843387 0
M  V30 1553 O 146.472 1.76458 0.810934 0
M  V30 1554 C 143.602 3.30663 1.06204 0
M  V30 1555 C 142.556 4.26079 0.405037 0
M  V30 1556 C 141.882 5.13165 1.5022 0
M  V30 1557 C 143.182 5.1781 -0.683414 0
M  V30 1558 H 144.876 2.91905 -0.665713 0
M  V30 1559 H 142.422 1.40363 -0.321587 0
M  V30 1560 H 144.375 3.9153 1.55827 0
M  V30 1561 H 143.099 2.70331 1.83272 0
M  V30 1562 H 141.758 3.66532 -0.0704683 0
M  V30 1563 H 141.406 4.49191 2.26355 0
M  V30 1564 H 141.106 5.77812 1.06803 0
M  V30 1565 H 142.63 5.76902 2.00041 0
M  V30 1566 H 144.044 5.72661 -0.270631 0
M  V30 1567 H 142.441 5.91015 -1.04023 0
M  V30 1568 H 143.511 4.59326 -1.55395 0
M  V30 1569 N 144.854 0.36279 1.53368 0
M  V30 1570 C 146.1 -0.228113 2.01513 0
M  V30 1571 C 146.433 -1.48648 1.2497 0
M  V30 1572 O 145.708 -1.91459 0.342616 0
M  V30 1573 C 145.991 -0.522884 3.56284 0
M  V30 1574 C 145.844 0.74892 4.43521 0
M  V30 1575 C 147.163 -1.32461 4.19693 0
M  V30 1576 H 144.282 -0.0814343 0.732487 0
M  V30 1577 H 146.924 0.48713 1.83649 0
M  V30 1578 H 145.074 -1.1322 3.71636 0
M  V30 1579 H 146.746 1.38648 4.39971 0
M  V30 1580 H 144.989 1.36986 4.11603 0
M  V30 1581 H 145.66 0.497667 5.49752 0
M  V30 1582 H 148.136 -0.809203 4.08156 0
M  V30 1583 H 147.012 -1.49961 5.28018 0
M  V30 1584 H 147.273 -2.33232 3.75573 0
M  V30 1585 N 146.332 -1.57332 0.0918853 0
M  V30 1586 C 147.262 -2.16872 -0.865371 0
M  V30 1587 C 148.243 -1.10118 -1.29646 0
M  V30 1588 O 149.428 -1.38242 -1.36392 0
M  V30 1589 C 146.558 -2.74649 -2.12569 0
M  V30 1590 C 145.512 -3.86747 -1.83333 0
M  V30 1591 C 144.838 -4.31212 -3.16166 0
M  V30 1592 C 146.138 -5.10089 -1.1228 0
M  V30 1593 H 147.832 -2.97114 -0.369307 0
M  V30 1594 H 145.378 -1.42918 -0.176194 0
M  V30 1595 H 147.331 -3.14952 -2.7997 0
M  V30 1596 H 146.055 -1.91657 -2.64452 0
M  V30 1597 H 144.714 -3.46978 -1.18331 0
M  V30 1598 H 144.362 -3.45115 -3.6593 0
M  V30 1599 H 144.062 -5.06788 -2.97388 0
M  V30 1600 H 145.586 -4.74146 -3.84731 0
M  V30 1601 H 147 -5.47582 -1.69785 0
M  V30 1602 H 145.397 -5.91073 -1.03693 0
M  V30 1603 H 146.467 -4.84786 -0.105041 0
M  V30 1604 N 147.81 0.181792 -1.56548 0
M  V30 1605 C 149.04 0.914618 -1.85252 0
M  V30 1606 C 149.448 1.76791 -0.673914 0
M  V30 1607 O 148.791 1.80009 0.366416 0
M  V30 1608 C 148.853 1.85019 -3.08234 0
M  V30 1609 C 148.517 1.17754 -4.41569 0
M  V30 1610 C 149.514 0.548035 -5.17003 0
M  V30 1611 C 147.199 1.17742 -4.88305 0
M  V30 1612 C 149.193 -0.0726128 -6.37359 0
M  V30 1613 C 146.88 0.552946 -6.08593 0
M  V30 1614 C 147.878 -0.070978 -6.82963 0
M  V30 1615 O 147.566 -0.685635 -8.00971 0
M  V30 1616 H 147.298 0.271695 -0.618998 0
M  V30 1617 H 149.852 0.189944 -2.0452 0
M  V30 1618 H 148.082 2.61491 -2.84885 0
M  V30 1619 H 149.771 2.45195 -3.23472 0
M  V30 1620 H 150.537 0.540174 -4.81982 0
M  V30 1621 H 146.416 1.65246 -4.30366 0
M  V30 1622 H 149.96 -0.560213 -6.95347 0
M  V30 1623 H 145.857 0.558354 -6.43081 0
M  V30 1624 H 146.625 -0.58385 -8.16415 0
M  V30 1625 N 149.288 1.51039 0.449983 0
M  V30 1626 C 150.236 1.71995 1.5659 0
M  V30 1627 C 151.23 0.586029 1.5894 0
M  V30 1628 O 152.436 0.76709 1.62837 0
M  V30 1629 H 148.811 0.543233 0.520001 0
M  V30 1630 H 150.782 2.65562 1.36085 0
M  V30 1631 C 149.531 1.8506 2.9436 0
M  V30 1632 H 148.854 2.71712 2.93279 0
M  V30 1633 H 150.294 2.0374 3.71842 0
M  V30 1634 C 148.753 0.607277 3.31382 0
M  V30 1635 O 149.283 -0.243903 4.00959 0
M  V30 1636 N 147.489 0.455073 2.87015 0
M  V30 1637 H 147.036 1.14879 2.30566 0
M  V30 1638 H 146.994 -0.375611 3.12148 0
M  V30 1639 N 150.766 -0.704594 1.40972 0
M  V30 1640 C 151.994 -1.49354 1.43182 0
M  V30 1641 C 152.409 -1.88768 0.0345508 0
M  V30 1642 O 151.766 -1.56184 -0.944081 0
M  V30 1643 C 151.817 -2.76187 2.33244 0
M  V30 1644 O 151.538 -2.38436 3.67532 0
M  V30 1645 C 153.039 -3.7 2.44162 0
M  V30 1646 H 150.259 -0.460559 0.487982 0
M  V30 1647 H 152.803 -0.868261 1.85153 0
M  V30 1648 H 150.958 -3.34974 1.94606 0
M  V30 1649 H 151.372 -3.20126 4.15475 0
M  V30 1650 H 152.846 -4.55803 3.11364 0
M  V30 1651 H 153.323 -4.13867 1.47006 0
M  V30 1652 H 153.929 -3.17121 2.83398 0
M  V30 1653 N 152.244 -1.26651 -0.937939 0
M  V30 1654 C 153.154 -1.10276 -2.07066 0
M  V30 1655 C 154.17 -0.0354197 -1.73964 0
M  V30 1656 O 155.346 -0.239816 -1.99967 0
M  V30 1657 C 152.411 -0.740887 -3.38691 0
M  V30 1658 C 151.472 -1.88799 -3.85556 0
M  V30 1659 C 150.705 -1.54329 -5.10899 0
M  V30 1660 O 150.928 -0.446494 -5.6865 0
M  V30 1661 O 149.862 -2.37911 -5.52885 0
M  V30 1662 H 153.688 -2.05309 -2.23789 0
M  V30 1663 H 151.273 -1.05743 -1.0554 0
M  V30 1664 H 153.155 -0.55195 -4.1777 0
M  V30 1665 H 151.83 0.180022 -3.23199 0
M  V30 1666 H 150.737 -2.13191 -3.07409 0
M  V30 1667 H 152.07 -2.78874 -4.05574 0
M  V30 1668 N 153.722 1.14298 -1.08507 0
M  V30 1669 C 154.669 2.19414 -0.715965 0
M  V30 1670 C 155.639 1.63399 0.298326 0
M  V30 1671 O 156.824 1.89929 0.182101 0
M  V30 1672 C 153.964 3.44845 -0.132534 0
M  V30 1673 C 153.077 4.15007 -1.19973 0
M  V30 1674 C 152.212 5.28024 -0.580048 0
M  V30 1675 C 151.251 5.9002 -1.62921 0
M  V30 1676 N 150.388 6.94485 -1.03125 0
M  V30 1677 H 155.228 2.50336 -1.61666 0
M  V30 1678 H 152.765 1.2293 -0.807882 0
M  V30 1679 H 154.723 4.16601 0.223454 0
M  V30 1680 H 153.353 3.14403 0.731467 0
M  V30 1681 H 152.405 3.41629 -1.67313 0
M  V30 1682 H 153.717 4.57178 -1.99473 0
M  V30 1683 H 152.871 6.06455 -0.172364 0
M  V30 1684 H 151.61 4.87076 0.246603 0
M  V30 1685 H 150.615 5.10291 -2.04654 0
M  V30 1686 H 151.84 6.33042 -2.45835 0
M  V30 1687 H 149.786 6.55612 -0.225711 0
M  V30 1688 H 149.703 7.35148 -1.76334 0
M  V30 1689 H 150.971 7.7679 -0.649458 0
M  V30 1690 N 155.201 0.870884 1.31352 0
M  V30 1691 C 156.449 0.48132 1.96285 0
M  V30 1692 C 156.77 -0.969813 1.69173 0
M  V30 1693 O 156.04 -1.67998 1.00764 0
M  V30 1694 H 154.62 0.175002 0.726212 0
M  V30 1695 H 157.282 1.11087 1.60143 0
M  V30 1696 H 156.378 0.639825 3.05471 0
M  V30 1697 N 156.679 -1.44442 0.630414 0
M  V30 1698 C 158.095 -1.56832 0.295973 0
M  V30 1699 C 158.295 -1.61806 -1.20088 0
M  V30 1700 O 157.351 -1.5607 -1.9849 0
M  V30 1701 C 158.664 -2.84031 0.987264 0
M  V30 1702 C 160.212 -2.97742 0.96534 0
M  V30 1703 C 160.687 -4.27743 1.63708 0
M  V30 1704 N 162.178 -4.34555 1.60364 0
M  V30 1705 C 162.913 -5.33862 2.09234 0
M  V30 1706 N 162.409 -6.39578 2.66292 0
M  V30 1707 N 164.202 -5.25366 1.99867 0
M  V30 1708 H 156.353 -1.39457 1.60205 0
M  V30 1709 H 158.616 -0.668237 0.672431 0
M  V30 1710 H 158.322 -2.86338 2.04215 0
M  V30 1711 H 158.196 -3.73534 0.524588 0
M  V30 1712 H 160.583 -2.94989 -0.0810639 0
M  V30 1713 H 160.664 -2.09589 1.4665 0
M  V30 1714 H 160.308 -4.31255 2.68293 0
M  V30 1715 H 160.238 -5.14752 1.11076 0
M  V30 1716 H 162.729 -3.58772 1.18705 0
M  V30 1717 H 163.042 -7.11637 3.01317 0
M  V30 1718 H 161.387 -6.40265 2.70343 0
M  V30 1719 H 164.578 -4.41688 1.55013 0
M  V30 1720 H 164.751 -6.02606 2.38265 0
M  V30 1721 N 158.157 -0.370918 -1.53173 0
M  V30 1722 C 159.107 0.489588 -2.22681 0
M  V30 1723 C 160.091 1.04442 -1.22395 0
M  V30 1724 O 161.283 0.973578 -1.47819 0
M  V30 1725 C 158.412 1.626 -3.02351 0
M  V30 1726 C 157.498 1.08379 -4.10018 0
M  V30 1727 N 157.889 0.265004 -5.05105 0
M  V30 1728 C 156.187 1.35809 -4.2482 0
M  V30 1729 C 156.888 -0.0324755 -5.81691 0
M  V30 1730 N 155.864 0.566581 -5.40639 0
M  V30 1731 H 159.666 -0.142729 -2.93553 0
M  V30 1732 H 157.18 -0.179221 -1.61408 0
M  V30 1733 H 159.177 2.2547 -3.50669 0
M  V30 1734 H 157.837 2.26132 -2.33011 0
M  V30 1735 H 158.848 -0.0962352 -5.17811 0
M  V30 1736 H 155.525 1.9958 -3.66707 0
M  V30 1737 H 156.915 -0.69473 -6.68299 0
M  V30 1738 N 159.635 1.57281 -0.100228 0
M  V30 1739 C 161.046 1.81725 0.428107 0
M  V30 1740 C 161.397 1.01619 1.67833 0
M  V30 1741 O 160.522 0.247098 2.14985 0
M  V30 1742 C 161.117 3.29617 0.78347 0
M  V30 1743 C 159.676 3.54808 1.25653 0
M  V30 1744 C 158.823 2.76118 0.255752 0
M  V30 1745 H 161.774 1.55324 -0.325608 0
M  V30 1746 H 161.795 3.4322 1.64256 0
M  V30 1747 H 161.307 3.87893 -0.12665 0
M  V30 1748 H 159.408 3.01868 2.18418 0
M  V30 1749 H 159.521 4.63443 1.21482 0
M  V30 1750 H 157.885 2.43745 0.738956 0
M  V30 1751 H 158.668 3.37145 -0.647136 0
M  V30 1752 N 161.113 -0.173488 1.56642 0
M  V30 1753 C 162.36 -0.890465 1.81871 0
M  V30 1754 C 162.688 -1.82339 0.67696 0
M  V30 1755 O 161.943 -1.92795 -0.335926 0
M  V30 1756 C 162.242 -1.72069 3.13252 0
M  V30 1757 C 161.908 -0.936878 4.41059 0
M  V30 1758 C 160.57 -0.720545 4.75775 0
M  V30 1759 C 162.922 -0.386919 5.19762 0
M  V30 1760 C 160.25 0.0568829 5.86672 0
M  V30 1761 C 162.602 0.37741 6.31473 0
M  V30 1762 C 161.266 0.604563 6.64757 0
M  V30 1763 H 160.536 -0.325844 0.665512 0
M  V30 1764 H 163.183 -0.155527 1.90867 0
M  V30 1765 H 161.488 -2.52496 2.99588 0
M  V30 1766 H 163.185 -2.27844 3.29982 0
M  V30 1767 H 159.775 -1.11553 4.13828 0
M  V30 1768 H 163.959 -0.541398 4.93338 0
M  V30 1769 H 159.215 0.242635 6.10918 0
M  V30 1770 H 163.389 0.810825 6.91664 0
M  V30 1771 H 161.016 1.20885 7.50527 0
M  V30 1772 N 162.591 -1.51276 -0.441967 0
M  V30 1773 C 163.538 -1.72256 -1.53612 0
M  V30 1774 C 164.508 -0.564164 -1.56225 0
M  V30 1775 O 165.693 -0.798074 -1.73307 0
M  V30 1776 C 162.833 -1.84932 -2.91366 0
M  V30 1777 C 161.946 -3.12459 -2.98317 0
M  V30 1778 C 161.081 -3.15758 -4.27166 0
M  V30 1779 C 160.12 -4.37619 -4.27967 0
M  V30 1780 N 159.257 -4.38493 -5.48333 0
M  V30 1781 H 164.097 -2.65654 -1.35026 0
M  V30 1782 H 161.634 -1.31662 -0.656009 0
M  V30 1783 H 163.592 -1.90263 -3.7129 0
M  V30 1784 H 162.222 -0.949461 -3.08521 0
M  V30 1785 H 161.274 -3.1646 -2.11086 0
M  V30 1786 H 162.586 -4.02382 -2.94771 0
M  V30 1787 H 161.74 -3.19979 -5.15459 0
M  V30 1788 H 160.479 -2.23715 -4.33362 0
M  V30 1789 H 159.484 -4.33579 -3.38067 0
M  V30 1790 H 160.709 -5.30921 -4.23438 0
M  V30 1791 H 158.655 -3.49318 -5.55259 0
M  V30 1792 H 158.572 -5.22219 -5.46647 0
M  V30 1793 H 159.84 -4.469 -6.38671 0
M  V30 1794 N 164.069 0.697108 -1.41344 0
M  V30 1795 C 165.318 1.45279 -1.39918 0
M  V30 1796 C 165.631 1.95597 -0.0109624 0
M  V30 1797 O 166.837 2.71208 0.125919 0
M  V30 1798 C 165.293 2.62695 -2.46007 0
M  V30 1799 C 164.901 2.19169 -3.90729 0
M  V30 1800 C 166.645 3.40336 -2.53715 0
M  V30 1801 C 164.552 3.33535 -4.88373 0
M  V30 1802 H 163.482 0.545692 -0.520323 0
M  V30 1803 H 166.133 0.756929 -1.67161 0
M  V30 1804 H 164.515 3.34541 -2.11892 0
M  V30 1805 H 165.689 1.54623 -4.34083 0
M  V30 1806 H 164.004 1.54525 -3.86666 0
M  V30 1807 H 166.601 4.2547 -3.2385 0
M  V30 1808 H 166.944 3.85418 -1.5735 0
M  V30 1809 H 167.477 2.75546 -2.86913 0
M  V30 1810 H 164.216 2.93468 -5.86137 0
M  V30 1811 H 163.736 3.96936 -4.49668 0
M  V30 1812 H 165.415 3.99335 -5.09059 0
M  V30 1813 N 165.547 1.27147 0.931209 0
M  V30 1814 C 166.795 1.13055 1.6752 0
M  V30 1815 C 167.116 -0.324791 1.92276 0
M  V30 1816 O 166.386 -1.22775 1.52654 0
M  V30 1817 H 164.966 0.415391 0.620854 0
M  V30 1818 H 167.628 1.59623 1.11833 0
M  V30 1819 H 166.724 1.65694 2.64485 0
M  V30 1820 N 167.025 -1.13721 1.09112 0
M  V30 1821 C 168.25 -1.89314 0.847053 0
M  V30 1822 C 168.675 -1.78416 -0.595774 0
M  V30 1823 O 168.033 -1.12942 -1.41823 0
M  V30 1824 C 168.081 -3.3701 1.28284 0
M  V30 1825 O 167.185 -4.10054 0.439267 0
M  V30 1826 H 166.526 -0.588745 0.307044 0
M  V30 1827 H 169.056 -1.43902 1.45442 0
M  V30 1828 H 169.066 -3.87834 1.26683 0
M  V30 1829 H 167.741 -3.4426 2.33363 0
M  V30 1830 H 166.318 -3.69266 0.519312 0
M  V30 1831 N 168.503 -0.877838 -1.30888 0
M  V30 1832 C 169.728 -0.506629 -2.01117 0
M  V30 1833 C 170.153 0.895564 -1.65412 0
M  V30 1834 O 169.511 1.5923 -0.866922 0
M  V30 1835 C 169.559 -0.680223 -3.54126 0
M  V30 1836 O 168.663 0.277033 -4.11468 0
M  V30 1837 H 168.004 -0.200518 -0.633 0
M  V30 1838 H 170.534 -1.18342 -1.66902 0
M  V30 1839 H 170.544 -0.5765 -4.03907 0
M  V30 1840 H 169.219 -1.70261 -3.79452 0
M  V30 1841 H 167.796 0.127606 -3.72682 0
M  V30 1842 N 169.982 1.44106 -0.638065 0
M  V30 1843 C 171.259 1.95453 -0.0759321 0
M  V30 1844 C 171.639 1.57984 1.40015 0
M  V30 1845 O 170.987 0.857361 2.11806 0
M  V30 1846 C 171.197 3.47655 -0.306132 0
M  V30 1847 C 172.545 4.24114 -0.203008 0
M  V30 1848 O 173.569 3.55405 -0.237871 0
M  V30 1849 O 172.428 5.46381 -0.113827 0
M  V30 1850 H 169.522 0.826797 0.0183332 0
M  V30 1851 H 172.068 1.54122 -0.710251 0
M  V30 1852 H 170.84 3.68 -1.3301 0
M  V30 1853 H 170.463 3.95949 0.361991 0
M  V30 1854 N 171.46 0.379036 1.52974 0
M  V30 1855 C 172.871 -0.0972525 1.86447 0
M  V30 1856 C 173.222 -1.47027 1.29914 0
M  V30 1857 O 172.347 -2.07135 0.626433 0
M  V30 1858 C 172.942 -0.183248 3.38304 0
M  V30 1859 C 171.501 -0.603812 3.71525 0
M  V30 1860 C 170.648 0.240632 2.76254 0
M  V30 1861 H 173.599 0.597316 1.4703 0
M  V30 1862 H 173.62 -1.00432 3.67006 0
M  V30 1863 H 173.132 0.816191 3.79421 0
M  V30 1864 H 171.233 -1.61099 3.35973 0
M  V30 1865 H 171.346 -0.369086 4.77676 0
M  V30 1866 H 169.71 -0.292548 2.53014 0
M  V30 1867 H 170.493 1.23786 3.20206 0
M  V30 1868 N 172.938 -1.57226 0.108567 0
M  V30 1869 C 173.901 -2.13602 -0.831082 0
M  V30 1870 C 174.901 -1.06841 -1.20173 0
M  V30 1871 O 176.091 -1.32666 -1.12895 0
M  V30 1872 C 173.223 -2.66769 -2.12243 0
M  V30 1873 H 174.416 -2.97951 -0.341317 0
M  V30 1874 H 171.969 -1.55667 -0.14057 0
M  V30 1875 H 172.704 -1.85977 -2.65675 0
M  V30 1876 H 172.489 -3.44839 -1.86625 0
M  V30 1877 H 173.979 -3.10332 -2.79435 0
M  V30 1878 N 174.416 0.165178 -1.56732 0
M  V30 1879 C 175.693 0.908443 -1.73224 0
M  V30 1880 C 176.073 2.0013 -0.67165 0
M  V30 1881 O 175.421 2.26353 0.31253 0
M  V30 1882 C 175.631 1.46756 -3.16644 0
M  V30 1883 C 176.979 1.93809 -3.77787 0
M  V30 1884 O 178.003 1.56537 -3.1996 0
M  V30 1885 O 176.862 2.62486 -4.79336 0
M  V30 1886 H 173.956 0.428025 -0.707618 0
M  V30 1887 H 176.502 0.152526 -1.69013 0
M  V30 1888 H 175.274 0.68129 -3.85323 0
M  V30 1889 H 174.897 2.28749 -3.25207 0
M  V30 1890 N 175.894 1.51508 0.433938 0
M  V30 1891 C 176.842 1.73646 1.54757 0
M  V30 1892 C 177.836 0.602854 1.5831 0
M  V30 1893 O 179.042 0.784318 1.62014 0
M  V30 1894 H 175.417 0.548718 0.51421 0
M  V30 1895 H 177.388 2.66991 1.33261 0
M  V30 1896 C 176.137 1.88172 2.92381 0
M  V30 1897 H 175.46 2.74808 2.90381 0
M  V30 1898 H 176.9 2.07672 3.6966 0
M  V30 1899 C 175.359 0.64239 3.30719 0
M  V30 1900 O 175.889 -0.201362 4.01195 0
M  V30 1901 N 174.095 0.485489 2.86516 0
M  V30 1902 H 173.642 1.17318 2.29334 0
M  V30 1903 H 173.6 -0.342482 3.12529 0
M  V30 1904 N 177.372 -0.689602 1.41712 0
M  V30 1905 C 178.335 -1.78521 1.43746 0
M  V30 1906 C 179.335 -1.57436 0.327191 0
M  V30 1907 O 180.525 -1.64 0.587348 0
M  V30 1908 C 177.657 -3.16971 1.25467 0
M  V30 1909 H 178.85 -1.78108 2.41283 0
M  V30 1910 H 176.403 -0.89781 1.27942 0
M  V30 1911 H 177.138 -3.23019 0.287948 0
M  V30 1912 H 176.923 -3.33678 2.05917 0
M  V30 1913 H 178.413 -3.96935 1.2974 0
M  V30 1914 N 178.85 -1.27639 -0.924453 0
M  V30 1915 C 179.798 -1.10485 -2.04685 0
M  V30 1916 C 180.792 -0.0270421 -1.69378 0
M  V30 1917 O 181.998 -0.185008 -1.79047 0
M  V30 1918 H 178.373 -0.340546 -0.670472 0
M  V30 1919 H 180.344 -2.05566 -2.16298 0
M  V30 1920 C 179.093 -0.772229 -3.39016 0
M  V30 1921 H 178.416 -1.59351 -3.66671 0
M  V30 1922 H 179.856 -0.692097 -4.18313 0
M  V30 1923 C 178.315 0.523554 -3.32807 0
M  V30 1924 O 178.845 1.55702 -3.70297 0
M  V30 1925 N 177.051 0.520363 -2.85903 0
M  V30 1926 H 176.598 -0.32107 -2.55591 0
M  V30 1927 H 176.556 1.38742 -2.82131 0
M  V30 1928 N 180.328 1.1314 -1.09713 0
M  V30 1929 C 181.739 1.66029 -0.853885 0
M  V30 1930 C 182.09 1.86241 0.617142 0
M  V30 1931 O 181.215 1.5834 1.47503 0
M  V30 1932 C 181.81 3.01599 -1.5435 0
M  V30 1933 C 180.369 3.51467 -1.34714 0
M  V30 1934 C 179.516 2.26648 -1.59769 0
M  V30 1935 H 182.467 0.970226 -1.25588 0
M  V30 1936 H 182.488 3.67709 -0.978267 0
M  V30 1937 H 182 2.86856 -2.6141 0
M  V30 1938 H 180.101 3.71408 -0.297838 0
M  V30 1939 H 180.214 4.314 -2.08401 0
M  V30 1940 H 178.578 2.33385 -1.01998 0
M  V30 1941 H 179.361 2.14467 -2.68065 0
M  V30 1942 N 181.806 0.884767 1.30421 0
M  V30 1943 C 183.083 0.423185 1.90967 0
M  V30 1944 C 183.463 -1.09605 1.80416 0
M  V30 1945 O 182.811 -1.93126 1.22125 0
M  V30 1946 C 183.021 0.921056 3.36627 0
M  V30 1947 C 184.369 0.955903 4.137 0
M  V30 1948 O 185.393 0.867706 3.4547 0
M  V30 1949 O 184.252 1.08614 5.35598 0
M  V30 1950 H 181.346 0.129369 0.816819 0
M  V30 1951 H 183.892 0.973653 1.3899 0
M  V30 1952 H 182.664 1.96489 3.3839 0
M  V30 1953 H 182.287 0.349741 3.96059 0
M  V30 1954 N 183.284 -1.43765 0.645699 0
M  V30 1955 C 184.247 -2.29163 -0.0409488 0
M  V30 1956 C 185.247 -1.41813 -0.757996 0
M  V30 1957 O 186.437 -1.63527 -0.600382 0
M  V30 1958 C 183.569 -3.23716 -1.06869 0
M  V30 1959 H 184.762 -2.91366 0.710345 0
M  V30 1960 H 182.315 -1.5092 0.406547 0
M  V30 1961 H 183.05 -2.66393 -1.84947 0
M  V30 1962 H 182.835 -3.88105 -0.558277 0
M  V30 1963 H 184.325 -3.87831 -1.54845 0
M  V30 1964 N 184.763 -0.387143 -1.52771 0
M  V30 1965 C 186.04 0.253197 -1.93954 0
M  V30 1966 C 186.42 1.64545 -1.32243 0
M  V30 1967 O 185.768 2.23191 -0.489699 0
M  V30 1968 C 185.978 0.281722 -3.47861 0
M  V30 1969 C 187.326 0.511715 -4.21505 0
M  V30 1970 O 188.35 0.362023 -3.54356 0
M  V30 1971 O 187.209 0.804847 -5.40541 0
M  V30 1972 H 184.303 0.156845 -0.811991 0
M  V30 1973 H 186.849 -0.441494 -1.63856 0
M  V30 1974 H 185.621 -0.693571 -3.85104 0
M  V30 1975 H 185.244 1.02142 -3.84256 0
M  V30 1976 N 186.241 1.57166 -0.116904 0
M  V30 1977 C 187.466 1.999 0.55271 0
M  V30 1978 C 187.891 0.996039 1.59564 0
M  V30 1979 O 187.249 -0.032556 1.81271 0
M  V30 1980 C 187.297 3.4152 1.15742 0
M  V30 1981 O 186.401 3.44106 2.27299 0
M  V30 1982 H 185.742 0.649447 0.138258 0
M  V30 1983 H 188.272 2.03573 -0.204759 0
M  V30 1984 H 188.282 3.79684 1.49346 0
M  V30 1985 H 186.957 4.14034 0.393493 0
M  V30 1986 H 185.534 3.17759 1.9515 0
M  V30 1987 N 187.719 -0.156864 1.56817 0
M  V30 1988 C 188.629 -1.2136 2.00771 0
M  V30 1989 C 189.645 -1.47598 0.921459 0
M  V30 1990 O 190.821 -1.59462 1.2302 0
M  V30 1991 C 187.886 -2.52943 2.37109 0
M  V30 1992 C 186.947 -2.34439 3.59634 0
M  V30 1993 C 186.18 -3.59748 3.94229 0
M  V30 1994 O 186.403 -4.65526 3.29609 0
M  V30 1995 O 185.337 -3.52998 4.8752 0
M  V30 1996 H 189.163 -0.870468 2.90958 0
M  V30 1997 H 186.748 -0.36484 1.44877 0
M  V30 1998 H 188.63 -3.30538 2.61386 0
M  V30 1999 H 187.305 -2.86806 1.5008 0
M  V30 2000 H 186.212 -1.54828 3.40557 0
M  V30 2001 H 187.545 -2.05496 4.4725 0
M  V30 2002 N 189.197 -1.51736 -0.425897 0
M  V30 2003 C 190.422 -1.69082 -1.20108 0
M  V30 2004 C 190.847 -0.392398 -1.83962 0
M  V30 2005 O 190.205 0.64858 -1.69302 0
M  V30 2006 C 190.253 -2.81604 -2.25237 0
M  V30 2007 O 189.357 -2.46004 -3.30992 0
M  V30 2008 H 188.698 -0.563408 -0.35138 0
M  V30 2009 H 191.228 -1.98358 -0.501512 0
M  V30 2010 H 191.238 -3.06025 -2.69838 0
M  V30 2011 H 189.913 -3.75817 -1.78142 0
M  V30 2012 H 188.49 -2.32195 -2.91787 0
M  V30 2013 N 190.675 0.682077 -1.42076 0
M  V30 2014 C 191.623 1.81707 -1.45208 0
M  V30 2015 C 192.617 1.66183 -0.328591 0
M  V30 2016 O 193.823 1.7288 -0.501264 0
M  V30 2017 H 190.198 0.599014 -0.454628 0
M  V30 2018 H 192.169 1.76183 -2.40836 0
M  V30 2019 C 190.918 3.19816 -1.36428 0
M  V30 2020 H 190.241 3.32385 -2.22171 0
M  V30 2021 H 191.681 3.99272 -1.42681 0
M  V30 2022 C 190.14 3.36809 -0.078191 0
M  V30 2023 O 190.67 3.92124 0.87188 0
M  V30 2024 N 188.876 2.906 0.00229266 0
M  V30 2025 H 188.423 2.45772 -0.771616 0
M  V30 2026 H 188.381 3.02347 0.862179 0
M  V30 2027 N 192.153 1.28127 0.917671 0
M  V30 2028 C 193.401 1.14825 1.66312 0
M  V30 2029 C 193.722 -0.304379 1.9261 0
M  V30 2030 O 192.992 -1.21149 1.53947 0
M  V30 2031 H 191.572 0.421953 0.616413 0
M  V30 2032 H 194.234 1.608 1.10134 0
M  V30 2033 H 193.33 1.68489 2.62712 0
M  V30 2034 N 193.631 -1.12557 1.10312 0
M  V30 2035 C 194.541 -2.21841 0.763142 0
M  V30 2036 C 195.557 -1.72354 -0.238801 0
M  V30 2037 O 196.733 -2.01249 -0.0778746 0
M  V30 2038 C 193.798 -3.46131 0.198632 0
M  V30 2039 C 192.859 -4.10464 1.25769 0
M  V30 2040 C 192.092 -5.28821 0.72002 0
M  V30 2041 O 192.315 -5.6859 -0.453993 0
M  V30 2042 O 191.249 -5.83437 1.47935 0
M  V30 2043 H 195.075 -2.53312 1.67532 0
M  V30 2044 H 192.66 -1.20867 0.878157 0
M  V30 2045 H 194.542 -4.2125 -0.112401 0
M  V30 2046 H 193.217 -3.16338 -0.686419 0
M  V30 2047 H 192.124 -3.3713 1.62156 0
M  V30 2048 H 193.457 -4.44408 2.11571 0
M  V30 2049 N 195.109 -0.891671 -1.2995 0
M  V30 2050 C 196.52 -0.563104 -1.78006 0
M  V30 2051 C 196.871 0.920978 -1.73241 0
M  V30 2052 O 195.996 1.71987 -1.31337 0
M  V30 2053 C 196.591 -1.01539 -3.23226 0
M  V30 2054 C 195.15 -0.738124 -3.69092 0
M  V30 2055 C 194.297 -1.19461 -2.50249 0
M  V30 2056 H 197.248 -1.07522 -1.16725 0
M  V30 2057 H 197.269 -0.347217 -3.78912 0
M  V30 2058 H 196.781 -2.09555 -3.26662 0
M  V30 2059 H 194.882 0.329766 -3.71138 0
M  V30 2060 H 194.995 -1.33037 -4.60259 0
M  V30 2061 H 193.359 -0.613787 -2.47194 0
M  V30 2062 H 194.142 -2.28265 -2.56417 0
M  V30 2063 N 196.587 1.43421 -0.653314 0
M  V30 2064 C 197.535 2.32546 0.0501531 0
M  V30 2065 C 198.529 1.48617 0.812985 0
M  V30 2066 O 199.735 1.64825 0.723375 0
M  V30 2067 H 196.11 0.751185 0.0350032 0
M  V30 2068 H 198.081 2.89602 -0.719261 0
M  V30 2069 C 196.83 3.32925 1.00279 0
M  V30 2070 H 196.153 3.97532 0.425236 0
M  V30 2071 H 197.593 3.9792 1.46409 0
M  V30 2072 C 196.052 2.63532 2.09886 0
M  V30 2073 O 196.582 2.45092 3.18265 0
M  V30 2074 N 194.788 2.22905 1.86445 0
M  V30 2075 H 194.335 2.38103 0.98309 0
M  V30 2076 H 194.293 1.76805 2.59976 0
M  V30 2077 N 198.065 0.39524 1.52563 0
M  V30 2078 C 199.028 -0.425001 2.25225 0
M  V30 2079 C 200.028 -0.985266 1.27079 0
M  V30 2080 O 201.218 -0.866332 1.5113 0
M  V30 2081 C 198.35 -1.59686 3.01186 0
M  V30 2082 H 199.543 0.211233 2.99155 0
M  V30 2083 H 197.096 0.147472 1.55603 0
M  V30 2084 H 197.831 -2.27035 2.31572 0
M  V30 2085 H 197.616 -1.20176 3.73229 0
M  V30 2086 H 199.106 -2.17743 3.5634 0
M  V30 2087 N 199.544 -1.57102 0.125237 0
M  V30 2088 C 200.821 -1.86953 -0.575142 0
M  V30 2089 C 201.201 -1.02749 -1.84407 0
M  V30 2090 O 200.549 -0.108144 -2.28244 0
M  V30 2091 C 200.759 -3.38198 -0.861583 0
M  V30 2092 C 202.107 -4.06937 -1.21192 0
M  V30 2093 O 203.131 -3.43252 -0.951645 0
M  V30 2094 O 201.99 -5.19364 -1.70068 0
M  V30 2095 H 199.084 -0.774147 -0.290906 0
M  V30 2096 H 201.63 -1.68942 0.160211 0
M  V30 2097 H 200.402 -3.91282 0.0373647 0
M  V30 2098 H 200.025 -3.61661 -1.65188 0
M  V30 2099 N 201.022 0.148545 -1.56898 0
M  V30 2100 C 202.433 0.708766 -1.72723 0
M  V30 2101 C 202.784 1.81734 -0.739395 0
M  V30 2102 O 201.909 2.16194 0.0943169 0
M  V30 2103 C 202.504 1.29245 -3.13179 0
M  V30 2104 C 201.063 1.79925 -3.30611 0
M  V30 2105 C 200.21 0.687111 -2.68652 0
M  V30 2106 H 203.161 -0.0771063 -1.58513 0
M  V30 2107 H 203.182 2.16224 -3.13093 0
M  V30 2108 H 202.694 0.485382 -3.85053 0
M  V30 2109 H 200.795 2.63203 -2.63732 0
M  V30 2110 H 200.908 1.92903 -4.38549 0
M  V30 2111 H 199.272 1.11335 -2.29078 0
M  V30 2112 H 200.055 -0.108483 -3.43129 0
M  V30 2113 N 202.5 1.5196 0.417844 0
M  V30 2114 C 203.432 1.70895 1.52733 0
M  V30 2115 C 204.445 0.589405 1.51756 0
M  V30 2116 O 205.634 0.864312 1.56179 0
M  V30 2117 C 202.734 1.72627 2.91639 0
M  V30 2118 C 201.907 3.01479 3.16905 0
M  V30 2119 C 200.966 2.95139 4.35637 0
M  V30 2120 O 199.992 3.69059 4.3334 0
M  V30 2121 N 201.194 2.12328 5.40275 0
M  V30 2122 H 203.959 2.66612 1.36888 0
M  V30 2123 H 201.52 1.50089 0.607037 0
M  V30 2124 H 203.512 1.65928 3.6912 0
M  V30 2125 H 202.082 0.844216 3.00985 0
M  V30 2126 H 201.302 3.21895 2.27546 0
M  V30 2127 H 202.59 3.86736 3.30625 0
M  V30 2128 H 201.988 1.51685 5.44985 0
M  V30 2129 H 200.545 2.11494 6.16534 0
M  V30 2130 N 203.978 -0.674533 1.42435 0
M  V30 2131 C 205.224 -1.43671 1.43131 0
M  V30 2132 C 205.557 -1.94142 0.0476021 0
M  V30 2133 O 204.832 -1.70924 -0.928188 0
M  V30 2134 C 205.115 -2.63355 2.45594 0
M  V30 2135 C 204.968 -2.18514 3.93156 0
M  V30 2136 C 206.287 -3.65571 2.45043 0
M  V30 2137 H 203.406 -0.521077 0.521198 0
M  V30 2138 H 206.048 -0.766551 1.7385 0
M  V30 2139 H 204.198 -3.2053 2.19528 0
M  V30 2140 H 205.87 -1.66504 4.30202 0
M  V30 2141 H 204.113 -1.50086 4.07009 0
M  V30 2142 H 204.784 -3.04484 4.60428 0
M  V30 2143 H 207.26 -3.18113 2.68223 0
M  V30 2144 H 206.136 -4.46893 3.18713 0
M  V30 2145 H 206.397 -4.16716 1.47649 0
M  V30 2146 N 205.456 -1.28612 -0.910864 0
M  V30 2147 C 206.684 -1.18792 -1.69399 0
M  V30 2148 C 207.099 0.253039 -1.87097 0
M  V30 2149 O 206.456 1.17071 -1.40003 0
M  V30 2150 C 206.507 -1.88511 -3.08457 0
M  V30 2151 O 206.228 -3.26979 -2.91576 0
M  V30 2152 C 207.729 -1.85029 -4.02839 0
M  V30 2153 H 204.949 -0.412233 -0.529438 0
M  V30 2154 H 207.493 -1.69788 -1.13984 0
M  V30 2155 H 205.648 -1.41379 -3.60681 0
M  V30 2156 H 206.062 -3.61936 -3.79608 0
M  V30 2157 H 207.536 -2.38395 -4.97867 0
M  V30 2158 H 208.013 -0.823303 -4.31414 0
M  V30 2159 H 208.619 -2.31853 -3.56545 0
M  V30 2160 N 206.934 1.1197 -1.10907 0
M  V30 2161 C 207.897 2.16031 -0.765707 0
M  V30 2162 C 208.897 1.59393 0.212235 0
M  V30 2163 O 210.087 1.74196 -0.0115441 0
M  V30 2164 C 207.219 3.40632 -0.135053 0
M  V30 2165 H 208.412 2.47919 -1.68748 0
M  V30 2166 H 205.965 1.27061 -0.910226 0
M  V30 2167 H 206.7 3.14348 0.797218 0
M  V30 2168 H 206.485 3.8302 -0.838937 0
M  V30 2169 H 207.975 4.17505 0.0892469 0
M  V30 2170 N 208.412 0.89855 1.29475 0
M  V30 2171 C 209.344 0.332726 2.26772 0
M  V30 2172 C 210.357 -0.520323 1.54261 0
M  V30 2173 O 211.546 -0.337668 1.75277 0
M  V30 2174 C 208.646 -0.544334 3.345 0
M  V30 2175 C 207.819 0.282728 4.36485 0
M  V30 2176 C 206.878 -0.526982 5.23555 0
M  V30 2177 O 205.904 0.0551165 5.69173 0
M  V30 2178 N 207.106 -1.83331 5.5079 0
M  V30 2179 H 209.871 1.16897 2.75962 0
M  V30 2180 H 207.432 0.762919 1.42798 0
M  V30 2181 H 209.424 -1.09239 3.89678 0
M  V30 2182 H 207.994 -1.28127 2.85136 0
M  V30 2183 H 207.214 1.01221 3.80983 0
M  V30 2184 H 208.502 0.84918 5.01664 0
M  V30 2185 H 207.9 -2.32898 5.15534 0
M  V30 2186 H 206.457 -2.32852 6.08788 0
M  V30 2187 N 209.89 -1.43072 0.660911 0
M  V30 2188 C 211.167 -1.95307 0.107017 0
M  V30 2189 C 211.547 -1.60192 -1.37484 0
M  V30 2190 O 210.895 -0.890949 -2.10415 0
M  V30 2191 C 211.105 -3.47124 0.361402 0
M  V30 2192 C 212.453 -4.23738 0.270455 0
M  V30 2193 O 213.477 -3.54981 0.294382 0
M  V30 2194 O 212.336 -5.46131 0.200737 0
M  V30 2195 H 209.43 -0.826984 -0.00517729 0
M  V30 2196 H 211.976 -1.52972 0.734681 0
M  V30 2197 H 210.748 -3.65837 1.38848 0
M  V30 2198 H 210.371 -3.96475 -0.298953 0
M  V30 2199 N 211.368 -0.403325 -1.52352 0
M  V30 2200 C 212.614 0.174605 -2.02047 0
M  V30 2201 C 212.947 1.45282 -1.28867 0
M  V30 2202 O 212.222 1.90483 -0.393257 0
M  V30 2203 C 212.505 0.428238 -3.57545 0
M  V30 2204 C 212.358 -0.866248 -4.4138 0
M  V30 2205 C 213.677 1.21287 -4.23057 0
M  V30 2206 H 210.796 0.0619851 -0.734389 0
M  V30 2207 H 213.438 -0.53565 -1.82293 0
M  V30 2208 H 211.588 1.03327 -3.74507 0
M  V30 2209 H 213.26 -1.50265 -4.3614 0
M  V30 2210 H 211.503 -1.47851 -4.07827 0
M  V30 2211 H 212.174 -0.643249 -5.48239 0
M  V30 2212 H 214.65 0.700703 -4.10158 0
M  V30 2213 H 213.526 1.35909 -5.31808 0
M  V30 2214 H 213.787 2.23193 -3.81625 0
M  V30 2215 N 212.846 1.57033 -0.133567 0
M  V30 2216 C 214.074 2.00044 0.528195 0
M  V30 2217 C 214.489 1.01349 1.59291 0
M  V30 2218 O 213.846 0.00848369 1.82498 0
M  V30 2219 C 213.897 3.43018 1.1411 0
M  V30 2220 O 213.618 4.37939 0.11892 0
M  V30 2221 C 215.119 4.01237 1.88477 0
M  V30 2222 H 212.339 0.656517 0.138661 0
M  V30 2223 H 214.883 2.03267 -0.224196 0
M  V30 2224 H 213.038 3.40688 1.84418 0
M  V30 2225 H 213.452 5.21436 0.56613 0
M  V30 2226 H 214.926 5.03314 2.26669 0
M  V30 2227 H 215.403 3.41193 2.76558 0
M  V30 2228 H 216.009 4.07156 1.22898 0
M  V30 2229 N 214.325 -0.140222 1.56975 0
M  V30 2230 C 215.736 -0.699596 1.73097 0
M  V30 2231 C 216.087 -1.8134 0.749022 0
M  V30 2232 O 215.212 -2.16241 -0.0828503 0
M  V30 2233 C 215.807 -1.27582 3.1386 0
M  V30 2234 C 214.366 -1.78169 3.31561 0
M  V30 2235 C 213.513 -0.672855 2.69013 0
M  V30 2236 H 216.464 0.0855115 1.58469 0
M  V30 2237 H 216.485 -2.14561 3.14235 0
M  V30 2238 H 215.997 -0.464955 3.85305 0
M  V30 2239 H 214.098 -2.61801 2.65124 0
M  V30 2240 H 214.211 -1.90574 4.39566 0
M  V30 2241 H 212.575 -1.10118 2.29665 0
M  V30 2242 H 213.358 0.126679 3.43066 0
M  V30 2243 N 215.803 -1.52179 -0.40978 0
M  V30 2244 C 216.713 -1.78364 -1.52392 0
M  V30 2245 C 217.729 -0.669183 -1.60617 0
M  V30 2246 O 218.905 -0.954518 -1.77344 0
M  V30 2247 C 215.97 -1.92822 -2.88133 0
M  V30 2248 C 215.031 -3.16725 -2.898 0
M  V30 2249 C 214.264 -3.30483 -4.19067 0
M  V30 2250 O 214.487 -2.49522 -5.12928 0
M  V30 2251 O 213.421 -4.2363 -4.27576 0
M  V30 2252 H 217.247 -2.72931 -1.33201 0
M  V30 2253 H 214.832 -1.37016 -0.59557 0
M  V30 2254 H 216.714 -2.04157 -3.68643 0
M  V30 2255 H 215.389 -1.01444 -3.07393 0
M  V30 2256 H 214.296 -3.10848 -2.08146 0
M  V30 2257 H 215.629 -4.07881 -2.75489 0
M  V30 2258 N 217.281 0.66697 -1.42791 0
M  V30 2259 C 218.213 1.7925 -1.42836 0
M  V30 2260 C 219.226 1.59496 -0.326333 0
M  V30 2261 O 220.415 1.6847 -0.589916 0
M  V30 2262 C 217.515 3.16476 -1.21229 0
M  V30 2263 C 216.688 3.63011 -2.44013 0
M  V30 2264 C 215.747 4.78993 -2.17834 0
M  V30 2265 O 214.773 4.89137 -2.91091 0
M  V30 2266 N 215.975 5.68248 -1.18635 0
M  V30 2267 H 218.74 1.79695 -2.39854 0
M  V30 2268 H 216.301 0.850338 -1.37771 0
M  V30 2269 H 218.293 3.91734 -1.01621 0
M  V30 2270 H 216.863 3.10884 -0.32706 0
M  V30 2271 H 216.083 2.78346 -2.79137 0
M  V30 2272 H 217.371 3.90845 -3.25757 0
M  V30 2273 H 216.769 5.62712 -0.580615 0
M  V30 2274 H 215.326 6.43285 -1.05013 0
M  V30 2275 N 218.759 1.29093 0.90403 0
M  V30 2276 C 220.17 1.15186 1.46932 0
M  V30 2277 C 220.521 -0.254587 1.94541 0
M  V30 2278 O 219.646 -1.14972 1.83332 0
M  V30 2279 C 220.241 2.08492 2.67051 0
M  V30 2280 C 218.8 1.98621 3.19729 0
M  V30 2281 C 217.947 1.9967 1.92425 0
M  V30 2282 H 220.898 1.41641 0.715789 0
M  V30 2283 H 220.919 1.65461 3.42641 0
M  V30 2284 H 220.431 3.10847 2.3237 0
M  V30 2285 H 218.532 0.993389 3.59114 0
M  V30 2286 H 218.645 2.86068 3.8432 0
M  V30 2287 H 217.009 1.44208 2.09943 0
M  V30 2288 H 217.792 3.03721 1.60026 0
M  V30 2289 N 220.237 -1.11381 1.11499 0
M  V30 2290 C 221.169 -2.17207 0.731704 0
M  V30 2291 C 222.182 -1.61066 -0.236957 0
M  V30 2292 O 223.371 -1.78489 -0.0197591 0
M  V30 2293 C 220.471 -3.38846 0.0607624 0
M  V30 2294 C 219.644 -4.24451 1.0564 0
M  V30 2295 C 218.703 -5.24562 0.4149 0
M  V30 2296 O 217.729 -5.59071 1.069 0
M  V30 2297 N 218.931 -5.74651 -0.821943 0
M  V30 2298 H 221.696 -2.50699 1.64225 0
M  V30 2299 H 219.257 -1.26908 1.00529 0
M  V30 2300 H 221.249 -4.02911 -0.380139 0
M  V30 2301 H 219.819 -3.03411 -0.752376 0
M  V30 2302 H 219.039 -3.56833 1.67524 0
M  V30 2303 H 220.327 -4.78486 1.72998 0
M  V30 2304 H 219.725 -5.48797 -1.37252 0
M  V30 2305 H 218.282 -6.40549 -1.20582 0
M  V30 2306 N 221.715 -0.905404 -1.28997 0
M  V30 2307 C 222.963 -0.533192 -1.9494 0
M  V30 2308 C 223.284 0.924618 -1.71685 0
M  V30 2309 O 222.554 1.65268 -1.05183 0
M  V30 2310 H 221.134 -0.194194 -0.721317 0
M  V30 2311 H 223.796 -1.15294 -1.57141 0
M  V30 2312 H 222.892 -0.72059 -3.03667 0
M  V30 2313 N 223.193 1.4272 -0.668489 0
M  V30 2314 C 224.47 1.95248 -0.117373 0
M  V30 2315 C 224.85 1.60919 1.36632 0
M  V30 2316 O 224.198 0.902095 2.09939 0
M  V30 2317 C 224.408 3.46927 -0.379806 0
M  V30 2318 C 225.756 4.23588 -0.292923 0
M  V30 2319 O 226.78 3.5482 -0.313204 0
M  V30 2320 O 225.639 5.46017 -0.229697 0
M  V30 2321 H 222.733 0.827 0.00079152 0
M  V30 2322 H 225.279 1.52581 -0.742783 0
M  V30 2323 H 224.051 3.65096 -1.40786 0
M  V30 2324 H 223.674 3.96627 0.277923 0
M  V30 2325 N 224.671 0.411399 1.52136 0
M  V30 2326 C 225.948 -0.222308 1.94333 0
M  V30 2327 C 226.328 -1.6242 1.34844 0
M  V30 2328 O 225.676 -2.22384 0.525145 0
M  V30 2329 C 225.886 -0.226345 3.48265 0
M  V30 2330 C 227.234 -0.444592 4.22266 0
M  V30 2331 O 228.258 -0.305602 3.54887 0
M  V30 2332 O 227.117 -0.718749 5.41753 0
M  V30 2333 H 224.211 -0.143907 0.814383 0
M  V30 2334 H 226.757 0.467506 1.63133 0
M  V30 2335 H 225.529 0.75475 3.83952 0
M  V30 2336 H 225.152 -0.960163 3.85832 0
M  V30 2337 N 226.149 -1.5696 0.141893 0
M  V30 2338 C 227.097 -2.17784 -0.816874 0
M  V30 2339 C 228.091 -1.1334 -1.25899 0
M  V30 2340 O 229.297 -1.316 -1.22806 0
M  V30 2341 H 225.672 -0.697278 -0.281615 0
M  V30 2342 H 227.643 -2.97087 -0.279621 0
M  V30 2343 C 226.392 -2.80983 -2.04802 0
M  V30 2344 H 225.715 -3.61062 -1.7168 0
M  V30 2345 H 227.155 -3.2705 -2.69841 0
M  V30 2346 C 225.614 -1.79228 -2.8527 0
M  V30 2347 O 226.144 -1.25962 -3.8144 0
M  V30 2348 N 224.35 -1.48647 -2.49704 0
M  V30 2349 H 223.897 -1.92155 -1.71564 0
M  V30 2350 H 223.855 -0.808115 -3.03837 0
M  V30 2351 N 227.627 0.131896 -1.57047 0
M  V30 2352 C 228.575 1.18146 -2.0036 0
M  V30 2353 C 229.569 1.43614 -0.898406 0
M  V30 2354 O 230.775 1.43729 -1.08361 0
M  V30 2355 H 227.15 0.398042 -0.638018 0
M  V30 2356 H 229.121 0.789564 -2.87765 0
M  V30 2357 C 227.87 2.50341 -2.41298 0
M  V30 2358 H 227.193 2.31578 -3.25902 0
M  V30 2359 H 228.633 3.22371 -2.75414 0
M  V30 2360 C 227.092 3.11984 -1.27153 0
M  V30 2361 O 227.622 3.97484 -0.580459 0
M  V30 2362 N 225.828 2.71662 -1.03189 0
M  V30 2363 H 225.375 2.02231 -1.59564 0
M  V30 2364 H 225.333 3.13238 -0.270077 0
M  V30 2365 N 229.106 1.52395 0.401703 0
M  V30 2366 C 230.036 1.79231 1.49661 0
M  V30 2367 C 231.017 0.643654 1.57452 0
M  V30 2368 O 232.202 0.889989 1.72606 0
M  V30 2369 C 229.332 1.94971 2.87409 0
M  V30 2370 C 228.286 3.10604 2.94465 0
M  V30 2371 C 227.612 3.11577 4.34538 0
M  V30 2372 C 228.912 4.49921 2.6527 0
M  V30 2373 H 230.606 2.70917 1.27454 0
M  V30 2374 H 228.152 1.30362 0.6117 0
M  V30 2375 H 230.105 2.12328 3.63999 0
M  V30 2376 H 228.829 0.999632 3.10926 0
M  V30 2377 H 227.488 2.93009 2.20321 0
M  V30 2378 H 227.136 2.14277 4.55076 0
M  V30 2379 H 226.836 3.89247 4.40183 0
M  V30 2380 H 228.36 3.31073 5.13053 0
M  V30 2381 H 229.774 4.67683 3.31581 0
M  V30 2382 H 228.171 5.29564 2.82281 0
M  V30 2383 H 229.241 4.57507 1.60671 0
M  V30 2384 N 230.584 -0.659388 1.43143 0
M  V30 2385 C 231.83 -1.42145 1.44647 0
M  V30 2386 C 232.163 -1.9408 0.0681907 0
M  V30 2387 O 231.438 -1.71899 -0.910007 0
M  V30 2388 C 231.721 -2.60735 2.48373 0
M  V30 2389 C 231.574 -2.14332 3.95451 0
M  V30 2390 C 232.893 -3.62951 2.48906 0
M  V30 2391 H 230.012 -0.51552 0.526696 0
M  V30 2392 H 232.654 -0.748069 1.74654 0
M  V30 2393 H 230.804 -3.18184 2.22916 0
M  V30 2394 H 232.476 -1.61932 4.31944 0
M  V30 2395 H 230.719 -1.4576 4.08578 0
M  V30 2396 H 231.39 -2.99583 4.63631 0
M  V30 2397 H 233.866 -3.1525 2.71582 0
M  V30 2398 H 232.742 -4.43487 3.23435 0
M  V30 2399 H 233.003 -4.15126 1.52061 0
M  V30 2400 N 232.062 -1.29571 -0.897171 0
M  V30 2401 C 233.287 -1.20705 -1.68656 0
M  V30 2402 C 233.712 0.228582 -1.86706 0
M  V30 2403 O 233.07 1.16494 -1.3892 0
M  V30 2404 C 233.118 -1.9282 -3.04717 0
M  V30 2405 O 232.222 -1.24697 -3.93096 0
M  V30 2406 H 231.563 -0.418126 -0.515816 0
M  V30 2407 H 234.093 -1.71183 -1.12061 0
M  V30 2408 H 234.103 -2.01372 -3.54843 0
M  V30 2409 H 232.778 -2.97239 -2.90899 0
M  V30 2410 H 231.355 -1.2442 -3.51531 0
M  V30 2411 N 233.54 1.10788 -1.12088 0
M  V30 2412 C 234.788 1.8231 -0.872205 0
M  V30 2413 C 235.109 1.85419 0.603709 0
M  V30 2414 O 234.379 1.32963 1.43867 0
M  V30 2415 H 232.959 0.675137 -0.319686 0
M  V30 2416 H 235.621 1.34068 -1.41463 0
M  V30 2417 H 234.717 2.85955 -1.25045 0
M  V30 2418 N 235.018 0.912232 1.28515 0
M  V30 2419 C 236.429 0.591352 1.77087 0
M  V30 2420 C 236.78 -0.8933 1.74684 0
M  V30 2421 O 235.905 -1.69876 1.34056 0
M  V30 2422 C 236.5 1.06668 3.2157 0
M  V30 2423 C 235.059 0.79675 3.67871 0
M  V30 2424 C 234.206 1.23427 2.48316 0
M  V30 2425 H 237.157 1.09365 1.15 0
M  V30 2426 H 237.178 0.407455 3.78312 0
M  V30 2427 H 236.69 2.14726 3.23287 0
M  V30 2428 H 234.791 -0.270679 3.71616 0
M  V30 2429 H 234.904 1.40343 4.58084 0
M  V30 2430 H 233.268 0.653036 2.46186 0
M  V30 2431 H 234.051 2.32316 2.52753 0
M  V30 2432 N 236.496 -1.42363 0.676048 0
M  V30 2433 C 237.406 -2.346 -0.00153389 0
M  V30 2434 C 238.422 -1.5516 -0.787485 0
M  V30 2435 O 239.598 -1.87723 -0.729521 0
M  V30 2436 C 236.663 -3.33705 -0.940298 0
M  V30 2437 C 235.724 -4.29042 -0.148739 0
M  V30 2438 C 234.957 -5.23413 -1.04279 0
M  V30 2439 O 235.18 -5.22749 -2.28232 0
M  V30 2440 O 234.114 -5.99795 -0.502925 0
M  V30 2441 H 237.94 -2.94082 0.758268 0
M  V30 2442 H 235.525 -1.42888 0.436289 0
M  V30 2443 H 237.407 -3.94586 -1.47917 0
M  V30 2444 H 236.082 -2.76695 -1.67993 0
M  V30 2445 H 234.989 -3.71571 0.43427 0
M  V30 2446 H 236.322 -4.89097 0.551805 0
M  V30 2447 N 237.974 -0.419461 -1.51915 0
M  V30 2448 C 238.924 0.418496 -2.24126 0
M  V30 2449 C 239.908 1.00495 -1.25656 0
M  V30 2450 O 241.1 0.926058 -1.50842 0
M  V30 2451 C 238.229 1.52899 -3.07371 0
M  V30 2452 C 237.315 0.952797 -4.13258 0
M  V30 2453 N 237.706 0.104175 -5.05693 0
M  V30 2454 C 236.004 1.22224 -4.28926 0
M  V30 2455 C 236.705 -0.21752 -5.81293 0
M  V30 2456 N 235.681 0.394293 -5.42168 0
M  V30 2457 H 239.483 -0.236048 -2.92951 0
M  V30 2458 H 236.997 -0.230481 -1.60756 0
M  V30 2459 H 238.994 2.14199 -3.57665 0
M  V30 2460 H 237.654 2.18605 -2.40088 0
M  V30 2461 H 238.665 -0.260924 -5.17242 0
M  V30 2462 H 235.342 1.87812 -3.72871 0
M  V30 2463 H 236.732 -0.906992 -6.6575 0
M  V30 2464 O 239.491 1.58856 -0.291037 0
M  V30 2465 H 240.182 1.91728 0.275667 0
M  V30 END ATOM
M  V30 BEGIN BOND
M  V30 END BOND
M  V30 END CTAB
M  END
$$$$
