drugbank_target|Q05932 Folylpolyglutamate synthase, mitochondrial (DB00142; DB00293)
 OpenBabel12092119373D

  0  0  0     0  0            999 V3000
M  V30 BEGIN CTAB
M  V30 COUNTS 9095 9211 0 0 0
M  V30 BEGIN ATOM
M  V30 1 H -0.908 1.98254 -0.117106 0
M  V30 2 N 0 1.576 0 0
M  V30 3 C 0.933 2.03868 1.02534 0
M  V30 4 C 1.911 0.928543 1.3348 0
M  V30 5 O 3.095 1.19667 1.45644 0
M  V30 6 C 0.222 2.43627 2.35294 0
M  V30 7 C -0.732 3.65373 2.2001 0
M  V30 8 S 0.101 5.13292 1.52614 0
M  V30 9 C 1.257 5.56322 2.86805 0
M  V30 10 H 1.49 2.90518 0.631377 0
M  V30 11 H -0.977 1.52953 0.210867 0
M  V30 12 H 0.981 2.67203 3.11629 0
M  V30 13 H -0.358 1.57376 2.7183 0
M  V30 14 H -1.165 3.90944 3.18086 0
M  V30 15 H -1.563 3.418 1.51819 0
M  V30 16 H 0.729 5.58782 3.83104 0
M  V30 17 H 1.672 6.56266 2.65933 0
M  V30 18 H 2.08 4.83886 2.90714 0
M  V30 19 N 1.4781 -0.272755 1.55222 0
M  V30 20 C 2.7031 -1.02683 1.80197 0
M  V30 21 C 3.1281 -1.79142 0.573551 0
M  V30 22 O 2.4861 -1.74917 -0.476849 0
M  V30 23 C 2.5341 -1.9609 3.02624 0
M  V30 24 O 1.6381 -3.04863 2.77727 0
M  V30 25 H 0.9791 -0.293557 0.595584 0
M  V30 26 H 3.5091 -0.30159 2.02365 0
M  V30 27 H 3.5191 -2.38039 3.31363 0
M  V30 28 H 2.1941 -1.39851 3.91682 0
M  V30 29 H 0.7711 -2.67228 2.60084 0
M  V30 30 N 2.9562 -1.48159 -0.537278 0
M  V30 31 C 4.3722 -1.34118 -0.865129 0
M  V30 32 C 4.5722 -0.346678 -1.98495 0
M  V30 33 O 3.6282 0.234715 -2.51407 0
M  V30 34 C 4.9412 -2.73963 -1.23954 0
M  V30 35 C 6.4892 -2.82397 -1.34984 0
M  V30 36 C 6.9642 -4.22928 -1.75772 0
M  V30 37 N 8.4552 -4.25566 -1.82887 0
M  V30 38 C 9.1902 -5.31235 -2.15817 0
M  V30 39 N 8.6862 -6.47189 -2.47222 0
M  V30 40 N 10.4792 -5.18624 -2.16761 0
M  V30 41 H 2.6302 -2.1144 0.201715 0
M  V30 42 H 4.8932 -0.947598 0.0275949 0
M  V30 43 H 4.5992 -3.48264 -0.490381 0
M  V30 44 H 4.4732 -3.0702 -2.19132 0
M  V30 45 H 6.8602 -2.08356 -2.08978 0
M  V30 46 H 6.9412 -2.5297 -0.379448 0
M  V30 47 H 6.5852 -4.97482 -1.02341 0
M  V30 48 H 6.5152 -4.49794 -2.73848 0
M  V30 49 H 9.0062 -3.41924 -1.60924 0
M  V30 50 H 9.3192 -7.23564 -2.71433 0
M  V30 51 H 7.6642 -6.50476 -2.44757 0
M  V30 52 H 10.8552 -4.27056 -1.91679 0
M  V30 53 H 11.0282 -6.01078 -2.42093 0
M  V30 54 N 4.4343 0.785586 -1.36625 0
M  V30 55 C 5.3973 1.87999 -1.31107 0
M  V30 56 C 6.3973 1.59316 -0.217959 0
M  V30 57 O 7.5873 1.67656 -0.472977 0
M  V30 58 C 4.7193 3.24861 -1.03334 0
M  V30 59 H 5.9123 1.94307 -2.2844 0
M  V30 60 H 3.4653 0.983813 -1.21453 0
M  V30 61 H 4.2003 3.24235 -0.0647432 0
M  V30 62 H 3.9853 3.4707 -1.82441 0
M  V30 63 H 5.4753 4.04929 -1.02088 0
M  V30 64 N 5.9124 1.20967 1.01018 0
M  V30 65 C 7.3284 0.965905 1.27053 0
M  V30 66 C 7.5284 -0.350785 1.98423 0
M  V30 67 O 6.5844 -1.07773 2.28344 0
M  V30 68 C 7.8974 2.15294 2.09926 0
M  V30 69 C 9.4454 2.19463 2.23171 0
M  V30 70 C 9.9204 3.3767 3.09424 0
M  V30 71 N 11.4114 3.37724 3.17012 0
M  V30 72 C 12.1464 4.25837 3.83993 0
M  V30 73 N 11.6424 5.24138 4.53047 0
M  V30 74 N 13.4354 4.1366 3.80581 0
M  V30 75 H 5.5864 2.0565 0.531194 0
M  V30 76 H 7.8494 0.90024 0.297106 0
M  V30 77 H 7.5554 3.10684 1.64828 0
M  V30 78 H 7.4294 2.13923 3.10672 0
M  V30 79 H 9.8164 1.24632 2.6749 0
M  V30 80 H 9.8974 2.2488 1.21912 0
M  V30 81 H 9.5414 4.32791 2.65808 0
M  V30 82 H 9.4714 3.29491 4.10784 0
M  V30 83 H 11.9624 2.6658 2.6785 0
M  V30 84 H 12.2754 5.87684 5.01844 0
M  V30 85 H 10.6204 5.28068 4.5185 0
M  V30 86 H 13.8114 3.36127 3.25785 0
M  V30 87 H 13.9844 4.82538 4.32505 0
M  V30 88 N 7.3905 -1.2043 1.01659 0
M  V30 89 C 8.6155 -1.94318 0.724942 0
M  V30 90 C 9.0405 -1.74266 -0.708034 0
M  V30 91 O 8.3985 -1.03694 -1.48719 0
M  V30 92 C 8.4465 -3.44486 1.06591 0
M  V30 93 O 7.5505 -4.12017 0.177599 0
M  V30 94 H 6.8915 -0.60708 0.26898 0
M  V30 95 H 9.4215 -1.52861 1.35995 0
M  V30 96 H 9.4315 -3.95106 1.01762 0
M  V30 97 H 8.1065 -3.58404 2.10997 0
M  V30 98 H 6.6835 -3.71821 0.283421 0
M  V30 99 N 8.8686 -0.792821 -1.36206 0
M  V30 100 C 9.8186 -0.166598 -2.27391 0
M  V30 101 C 10.8026 0.651479 -1.47121 0
M  V30 102 O 11.9946 0.510994 -1.69463 0
M  V30 103 C 9.1236 0.695033 -3.36191 0
M  V30 104 C 8.2096 -0.132019 -4.23894 0
M  V30 105 N 8.6006 -1.18822 -4.91645 0
M  V30 106 C 6.8986 0.0885952 -4.45912 0
M  V30 107 C 7.5996 -1.69198 -5.56549 0
M  V30 108 N 6.5756 -1.00065 -5.34311 0
M  V30 109 H 10.3776 -0.974947 -2.77258 0
M  V30 110 H 7.8916 -0.632616 -1.49572 0
M  V30 111 H 9.8886 1.1596 -4.00448 0
M  V30 112 H 8.5486 1.50189 -2.87877 0
M  V30 113 H 9.5596 -1.57069 -4.93507 0
M  V30 114 H 6.2366 0.865688 -4.08426 0
M  V30 115 H 7.6266 -2.57395 -6.20643 0
M  V30 116 N 10.3467 1.47872 -0.545128 0
M  V30 117 C 11.2767 2.32661 0.197793 0
M  V30 118 C 12.2577 1.43041 0.920504 0
M  V30 119 O 13.4427 1.71912 0.90333 0
M  V30 120 C 10.5727 3.24569 1.23582 0
M  V30 121 C 9.5267 4.23333 0.630323 0
M  V30 122 C 8.8527 5.0448 1.77211 0
M  V30 123 C 10.1527 5.20704 -0.407974 0
M  V30 124 H 11.8467 2.95024 -0.510045 0
M  V30 125 H 9.3927 1.4187 -0.246731 0
M  V30 126 H 11.3457 3.8272 1.76362 0
M  V30 127 H 10.0697 2.60236 1.97344 0
M  V30 128 H 8.7287 3.6639 0.123922 0
M  V30 129 H 8.3767 4.36561 2.49847 0
M  V30 130 H 8.0767 5.71339 1.37281 0
M  V30 131 H 9.6007 5.65487 2.3034 0
M  V30 132 H 11.0147 5.7329 0.033305 0
M  V30 133 H 9.4117 5.95699 -0.725486 0
M  V30 134 H 10.4817 4.66917 -1.30828 0
M  V30 135 N 11.8248 0.280983 1.55075 0
M  V30 136 C 13.2408 -0.0729964 1.59433 0
M  V30 137 C 13.4408 -1.5411 1.29817 0
M  V30 138 O 12.4968 -2.29086 1.06187 0
M  V30 139 C 13.8098 0.306921 2.9913 0
M  V30 140 C 15.3578 0.254023 3.11968 0
M  V30 141 C 15.8328 0.608467 4.5394 0
M  V30 142 N 17.3238 0.560241 4.59799 0
M  V30 143 C 18.0588 0.80722 5.6769 0
M  V30 144 N 17.5548 1.11912 6.83701 0
M  V30 145 N 19.3478 0.735623 5.57266 0
M  V30 146 H 11.4988 1.238 1.7259 0
M  V30 147 H 13.7618 0.500547 0.805082 0
M  V30 148 H 13.4678 1.32816 3.25657 0
M  V30 149 H 13.3418 -0.349363 3.75579 0
M  V30 150 H 15.7288 -0.75794 2.852 0
M  V30 151 H 15.8098 0.944649 2.37718 0
M  V30 152 H 15.4538 1.61814 4.81434 0
M  V30 153 H 15.3838 -0.104013 5.26497 0
M  V30 154 H 17.8748 0.329288 3.76463 0
M  V30 155 H 18.1878 1.29409 7.61888 0
M  V30 156 H 16.5328 1.15695 6.85303 0
M  V30 157 H 19.7238 0.491752 4.6551 0
M  V30 158 H 19.8968 0.931482 6.4127 0
M  V30 159 N 13.3029 -1.57598 0.00835791 0
M  V30 160 C 14.2659 -2.07884 -0.965242 0
M  V30 161 C 15.2659 -0.989825 -1.26725 0
M  V30 162 O 16.4559 -1.25218 -1.21104 0
M  V30 163 C 13.5879 -2.52731 -2.28779 0
M  V30 164 H 14.7809 -2.95178 -0.530112 0
M  V30 165 H 12.3339 -1.54458 -0.239283 0
M  V30 166 H 13.0689 -1.68705 -2.76964 0
M  V30 167 H 12.8539 -3.32272 -2.08177 0
M  V30 168 H 14.3439 -2.91933 -2.98605 0
M  V30 169 N 14.781 0.264519 -1.55364 0
M  V30 170 C 15.744 1.31046 -1.88042 0
M  V30 171 C 16.744 1.41943 -0.755569 0
M  V30 172 O 17.934 1.40947 -1.02369 0
M  V30 173 C 15.066 2.69067 -2.09323 0
M  V30 174 H 16.259 1.03297 -2.81549 0
M  V30 175 H 13.812 0.502989 -1.47986 0
M  V30 176 H 14.547 3.01982 -1.18226 0
M  V30 177 H 14.332 2.62542 -2.91229 0
M  V30 178 H 15.822 3.44623 -2.35848 0
M  V30 179 N 16.2591 1.48442 0.529413 0
M  V30 180 C 17.1891 1.65902 1.64313 0
M  V30 181 C 18.1701 0.507897 1.6234 0
M  V30 182 O 19.3551 0.740503 1.79528 0
M  V30 183 C 16.4851 1.69911 3.02898 0
M  V30 184 C 15.4391 2.8453 3.19729 0
M  V30 185 C 14.7651 2.73629 4.59381 0
M  V30 186 C 16.0651 4.25821 3.02447 0
M  V30 187 H 17.7591 2.5914 1.49955 0
M  V30 188 H 15.3051 1.24709 0.719982 0
M  V30 189 H 17.2581 1.80715 3.80684 0
M  V30 190 H 15.9821 0.732524 3.18279 0
M  V30 191 H 14.6411 2.73283 2.44361 0
M  V30 192 H 14.2891 1.74938 4.71599 0
M  V30 193 H 13.9891 3.50541 4.71588 0
M  V30 194 H 15.5131 2.86401 5.39265 0
M  V30 195 H 16.9271 4.37898 3.70024 0
M  V30 196 H 15.3241 5.03735 3.26146 0
M  V30 197 H 16.3941 4.42244 1.98867 0
M  V30 198 N 17.7372 -0.778329 1.37039 0
M  V30 199 C 18.9842 -1.53665 1.31884 0
M  V30 200 C 19.3122 -1.9425 -0.0986303 0
M  V30 201 O 18.5672 -1.63832 -1.07041 0
M  V30 202 C 18.8662 -2.81845 2.19768 0
M  V30 203 C 18.5322 -2.60345 3.68146 0
M  V30 204 C 17.1942 -2.5419 4.08584 0
M  V30 205 C 19.5462 -2.40923 4.62175 0
M  V30 206 C 16.8742 -2.26594 5.41177 0
M  V30 207 C 19.2262 -2.14852 5.94997 0
M  V30 208 C 17.8902 -2.07137 6.34547 0
M  V30 209 H 17.1602 -0.562299 0.482598 0
M  V30 210 H 19.8072 -0.897069 1.69189 0
M  V30 211 H 18.1122 -3.50328 1.75436 0
M  V30 212 H 19.8092 -3.39692 2.13097 0
M  V30 213 H 16.3992 -2.65996 3.36072 0
M  V30 214 H 20.5832 -2.44673 4.31797 0
M  V30 215 H 15.8392 -2.19111 5.70789 0
M  V30 216 H 20.0132 -1.98822 6.67415 0
M  V30 217 H 17.6402 -1.85518 7.37216 0
M  V30 218 N 19.2153 -1.21501 -1.00376 0
M  V30 219 C 20.1453 -0.999478 -2.11028 0
M  V30 220 C 21.1263 0.0759671 -1.6993 0
M  V30 221 O 22.3113 -0.0841106 -1.94018 0
M  V30 222 C 19.4413 -0.564709 -3.42678 0
M  V30 223 C 18.3953 -1.58486 -3.97576 0
M  V30 224 C 17.7213 -1.00628 -5.25146 0
M  V30 225 C 19.0213 -2.97204 -4.29496 0
M  V30 226 H 20.7153 -1.92495 -2.29317 0
M  V30 227 H 18.2613 -0.92693 -1.102 0
M  V30 228 H 20.2143 -0.401091 -4.19487 0
M  V30 229 H 18.9383 0.396411 -3.24185 0
M  V30 230 H 17.5973 -1.73606 -3.22888 0
M  V30 231 H 17.2453 -0.0368439 -5.02987 0
M  V30 232 H 16.9453 -1.68771 -5.62841 0
M  V30 233 H 18.4693 -0.854015 -6.04598 0
M  V30 234 H 19.8833 -2.8552 -4.97143 0
M  V30 235 H 18.2803 -3.62372 -4.78338 0
M  V30 236 H 19.3503 -3.47956 -3.3772 0
M  V30 237 N 20.6934 1.19889 -1.02296 0
M  V30 238 C 21.6564 2.21116 -0.603351 0
M  V30 239 C 22.6564 1.5738 0.329884 0
M  V30 240 O 23.8464 1.73802 0.117702 0
M  V30 241 C 20.9784 3.40696 0.117992 0
M  V30 242 H 22.1714 2.59754 -1.49893 0
M  V30 243 H 19.7244 1.33463 -0.813468 0
M  V30 244 H 20.4594 3.07569 1.0282 0
M  V30 245 H 20.2444 3.88188 -0.552511 0
M  V30 246 H 21.7344 4.15692 0.398696 0
M  V30 247 N 22.1715 0.800033 1.35784 0
M  V30 248 C 23.1345 0.211565 2.28221 0
M  V30 249 C 24.1345 -0.59728 1.49296 0
M  V30 250 O 25.3245 -0.416721 1.69142 0
M  V30 251 C 22.4565 -0.705846 3.33513 0
M  V30 252 H 23.6495 1.02677 2.81776 0
M  V30 253 H 21.2025 0.570211 1.45528 0
M  V30 254 H 21.9375 -1.54498 2.85133 0
M  V30 255 H 21.7225 -0.127655 3.91892 0
M  V30 256 H 23.2125 -1.11211 4.02519 0
M  V30 257 N 23.6496 -1.47581 0.552962 0
M  V30 258 C 24.6126 -2.28439 -0.186605 0
M  V30 259 C 25.6126 -1.36706 -0.84665 0
M  V30 260 O 26.8026 -1.59378 -0.703164 0
M  V30 261 C 23.9346 -3.16264 -1.2724 0
M  V30 262 H 25.1276 -2.95294 0.523609 0
M  V30 263 H 22.6806 -1.532 0.309745 0
M  V30 264 H 23.4156 -2.54091 -2.01514 0
M  V30 265 H 23.2006 -3.83769 -0.803968 0
M  V30 266 H 24.6906 -3.77198 -1.79196 0
M  V30 267 N 25.1277 -0.289203 -1.54924 0
M  V30 268 C 26.3527 0.329299 -2.04769 0
M  V30 269 C 26.7777 1.4763 -1.16564 0
M  V30 270 O 26.1357 1.80527 -0.167186 0
M  V30 271 C 26.1837 0.774438 -3.52186 0
M  V30 272 O 25.2877 1.88038 -3.67036 0
M  V30 273 H 24.6287 0.0659259 -0.660719 0
M  V30 274 H 27.1587 -0.42761 -2.00082 0
M  V30 275 H 27.1687 1.06642 -3.93816 0
M  V30 276 H 25.8437 -0.0646707 -4.1585 0
M  V30 277 H 24.4207 1.58985 -3.3731 0
M  V30 278 N 26.6058 1.57591 -0.0167156 0
M  V30 279 C 27.5688 2.08393 0.954204 0
M  V30 280 C 28.5688 0.996531 1.26198 0
M  V30 281 O 29.7588 1.25858 1.20438 0
M  V30 282 C 26.8908 2.5394 2.27436 0
M  V30 283 H 28.0838 2.95455 0.514451 0
M  V30 284 H 25.6368 1.54582 0.231089 0
M  V30 285 H 26.3718 1.70171 2.76066 0
M  V30 286 H 26.1568 3.33371 2.06412 0
M  V30 287 H 27.6468 2.93512 2.97053 0
M  V30 288 N 28.0839 -0.256276 1.55502 0
M  V30 289 C 29.4999 -0.604325 1.47716 0
M  V30 290 C 29.6999 -1.88763 0.705039 0
M  V30 291 O 28.7559 -2.51445 0.230613 0
M  V30 292 C 30.0689 -0.715756 2.92057 0
M  V30 293 C 31.6169 -0.808706 3.02372 0
M  V30 294 C 32.0919 -0.951777 4.48001 0
M  V30 295 N 33.5829 -1.01688 4.519 0
M  V30 296 C 34.3179 -1.14668 5.61817 0
M  V30 297 N 33.8139 -1.24261 6.81565 0
M  V30 298 N 35.6069 -1.1791 5.49594 0
M  V30 299 H 27.7579 0.586291 2.04148 0
M  V30 300 H 30.0209 0.201015 0.926443 0
M  V30 301 H 29.7269 0.157027 3.51349 0
M  V30 302 H 29.6009 -1.59071 3.42018 0
M  V30 303 H 31.9879 -1.67195 2.43166 0
M  V30 304 H 32.0689 0.0912063 2.55637 0
M  V30 305 H 31.7129 -0.0931291 5.07815 0
M  V30 306 H 31.6429 -1.86659 4.92408 0
M  V30 307 H 34.1339 -0.954468 3.65648 0
M  V30 308 H 34.4469 -1.34046 7.61086 0
M  V30 309 H 32.7919 -1.21236 6.84344 0
M  V30 310 H 35.9829 -1.10057 4.54978 0
M  V30 311 H 36.1559 -1.27681 6.35296 0
M  V30 312 N 29.562 -1.4872 -0.521534 0
M  V30 313 C 30.81 -1.56857 -1.27437 0
M  V30 314 C 31.131 -0.247982 -1.93417 0
M  V30 315 O 30.401 0.731151 -1.81744 0
M  V30 316 H 28.981 -0.577885 -0.473347 0
M  V30 317 H 31.643 -1.85233 -0.606205 0
M  V30 318 H 30.739 -2.35402 -2.0492 0
M  V30 319 N 31.0401 0.771051 -1.3745 0
M  V30 320 C 32.2891 1.52491 -1.3202 0
M  V30 321 C 32.6021 1.9538 0.0927347 0
M  V30 322 O 33.8081 2.70159 0.269503 0
M  V30 323 C 32.2641 2.75366 -2.31736 0
M  V30 324 C 31.8721 2.39573 -3.78562 0
M  V30 325 C 33.6161 3.53307 -2.35318 0
M  V30 326 C 31.5231 3.58954 -4.70007 0
M  V30 327 H 30.4531 0.572506 -0.490666 0
M  V30 328 H 33.1041 0.844474 -1.62914 0
M  V30 329 H 31.4861 3.45303 -1.93861 0
M  V30 330 H 32.6601 1.77415 -4.25277 0
M  V30 331 H 30.9751 1.74805 -3.77932 0
M  V30 332 H 33.5721 4.42039 -3.00842 0
M  V30 333 H 33.9151 3.93217 -1.36698 0
M  V30 334 H 34.4481 2.90367 -2.71904 0
M  V30 335 H 31.1871 3.24125 -5.69757 0
M  V30 336 H 30.7071 4.20214 -4.27996 0
M  V30 337 H 32.3861 4.25758 -4.87175 0
M  V30 338 N 32.5182 1.22032 0.997298 0
M  V30 339 C 33.7462 1.06841 1.7718 0
M  V30 340 C 34.1612 -0.381325 1.84909 0
M  V30 341 O 33.5182 -1.26437 1.31605 0
M  V30 342 C 33.5692 1.66814 3.20711 0
M  V30 343 O 33.2902 3.06116 3.13408 0
M  V30 344 C 34.7912 1.56838 4.14628 0
M  V30 345 H 32.0112 0.374782 0.556578 0
M  V30 346 H 34.5552 1.61532 1.2541 0
M  V30 347 H 32.7102 1.16196 3.69564 0
M  V30 348 H 33.1242 3.34926 4.0364 0
M  V30 349 H 34.5982 2.03532 5.13107 0
M  V30 350 H 35.0752 0.524155 4.36061 0
M  V30 351 H 35.6812 2.06741 3.7167 0
M  V30 352 N 33.9963 -1.19345 1.0293 0
M  V30 353 C 35.2243 -1.92997 0.745644 0
M  V30 354 C 35.6393 -1.75519 -0.695589 0
M  V30 355 O 34.9963 -1.07737 -1.47306 0
M  V30 356 C 35.0473 -3.44741 1.08792 0
M  V30 357 O 34.7683 -3.61658 2.47256 0
M  V30 358 C 36.2693 -4.35515 0.827129 0
M  V30 359 H 33.4893 -0.613042 0.272801 0
M  V30 360 H 36.0333 -1.51473 1.3739 0
M  V30 361 H 34.1883 -3.84097 0.504832 0
M  V30 362 H 34.6023 -4.55514 2.60015 0
M  V30 363 H 36.0763 -5.40589 1.11658 0
M  V30 364 H 36.5533 -4.38552 -0.238436 0
M  V30 365 H 37.1593 -4.01841 1.39297 0
M  V30 366 N 35.4744 -0.807222 -1.35358 0
M  V30 367 C 36.4064 -0.175717 -2.28525 0
M  V30 368 C 37.4194 0.625354 -1.5031 0
M  V30 369 O 38.6084 0.457611 -1.72535 0
M  V30 370 C 35.7084 0.773471 -3.29956 0
M  V30 371 C 34.8814 0.0186296 -4.37396 0
M  V30 372 C 33.9404 0.886395 -5.18681 0
M  V30 373 O 32.9664 0.337106 -5.68201 0
M  V30 374 N 34.1684 2.20839 -5.36852 0
M  V30 375 H 36.9334 -0.976091 -2.83359 0
M  V30 376 H 34.4944 -0.662737 -1.47714 0
M  V30 377 H 36.4864 1.35824 -3.81227 0
M  V30 378 H 35.0564 1.47465 -2.75632 0
M  V30 379 H 34.2764 -0.747349 -3.87051 0
M  V30 380 H 35.5644 -0.501577 -5.06322 0
M  V30 381 H 34.9624 2.67858 -4.98265 0
M  V30 382 H 33.5194 2.74237 -5.91301 0
M  V30 383 N 36.9525 1.47285 -0.560781 0
M  V30 384 C 38.1985 2.02764 -0.0381184 0
M  V30 385 C 38.5315 1.43384 1.30976 0
M  V30 386 O 37.8065 0.590733 1.85312 0
M  V30 387 C 38.0895 3.60064 0.0511427 0
M  V30 388 C 37.9425 4.2987 -1.32408 0
M  V30 389 C 39.2615 4.33439 0.762795 0
M  V30 390 H 36.3805 0.736841 -0.0153264 0
M  V30 391 H 39.0225 1.75675 -0.723759 0
M  V30 392 H 37.1725 3.83274 0.635065 0
M  V30 393 H 38.8445 4.17989 -1.95148 0
M  V30 394 H 37.0875 3.90085 -1.8978 0
M  V30 395 H 37.7585 5.38478 -1.21431 0
M  V30 396 H 40.2345 4.15243 0.266965 0
M  V30 397 H 39.1105 5.43124 0.794221 0
M  V30 398 H 39.3715 4.02915 1.81966 0
M  V30 399 N 38.4306 0.297415 1.54768 0
M  V30 400 C 39.3936 -0.567375 2.22066 0
M  V30 401 C 40.3936 -1.06409 1.20556 0
M  V30 402 O 41.5836 -0.960691 1.45315 0
M  V30 403 C 38.7156 -1.78517 2.90421 0
M  V30 404 H 39.9086 0.0205534 2.99893 0
M  V30 405 H 37.4616 0.0482163 1.56226 0
M  V30 406 H 38.1966 -2.41303 2.16664 0
M  V30 407 H 37.9816 -1.43669 3.64831 0
M  V30 408 H 39.4716 -2.39964 3.41771 0
M  V30 409 N 39.9087 -1.5758 0.0250728 0
M  V30 410 C 40.8717 -2.08896 -0.943139 0
M  V30 411 C 41.8717 -1.00321 -1.25668 0
M  V30 412 O 43.0617 -1.26495 -1.19769 0
M  V30 413 C 40.1937 -2.55143 -2.26086 0
M  V30 414 H 41.3867 -2.95723 -0.498775 0
M  V30 415 H 38.9397 -1.54703 -0.222888 0
M  V30 416 H 39.6747 -1.71633 -2.75159 0
M  V30 417 H 39.4597 -3.34461 -2.04641 0
M  V30 418 H 40.9497 -2.95083 -2.95492 0
M  V30 419 N 41.3868 0.248026 -1.55636 0
M  V30 420 C 42.8028 0.596483 -1.48035 0
M  V30 421 C 43.0028 1.88386 -0.715039 0
M  V30 422 O 42.0588 2.51319 -0.243944 0
M  V30 423 C 43.3718 0.700258 -2.92433 0
M  V30 424 C 44.9198 0.792659 -3.02797 0
M  V30 425 C 45.3948 0.928005 -4.485 0
M  V30 426 N 46.8858 0.992903 -4.52433 0
M  V30 427 C 47.6208 1.11687 -5.62418 0
M  V30 428 N 47.1168 1.20645 -6.82214 0
M  V30 429 N 48.9098 1.14994 -5.50212 0
M  V30 430 H 41.0608 -0.597109 -2.03834 0
M  V30 431 H 43.3238 -0.205925 -0.925364 0
M  V30 432 H 43.0298 -0.175658 -3.51261 0
M  V30 433 H 42.9038 1.57255 -3.42857 0
M  V30 434 H 45.2908 1.65903 -2.4405 0
M  V30 435 H 45.3718 -0.104762 -2.55585 0
M  V30 436 H 45.0158 0.0661971 -5.07857 0
M  V30 437 H 44.9458 1.84045 -4.93391 0
M  V30 438 H 47.4368 0.935064 -3.66149 0
M  V30 439 H 47.7498 1.30008 -7.61786 0
M  V30 440 H 46.0948 1.17605 -6.84977 0
M  V30 441 H 49.2858 1.07643 -4.55555 0
M  V30 442 H 49.4588 1.24311 -6.35965 0
M  V30 443 N 42.8649 1.48995 0.513639 0
M  V30 444 C 44.2809 1.35478 0.843682 0
M  V30 445 C 44.4809 0.378213 1.97919 0
M  V30 446 O 43.5369 -0.194689 2.51748 0
M  V30 447 C 44.8499 2.75901 1.1958 0
M  V30 448 C 46.3979 2.84509 1.30474 0
M  V30 449 C 46.8729 4.25671 1.69021 0
M  V30 450 N 48.3639 4.28422 1.76094 0
M  V30 451 C 49.0989 5.34601 2.07338 0
M  V30 452 N 48.5949 6.5104 2.36894 0
M  V30 453 N 50.3879 5.22007 2.08483 0
M  V30 454 H 42.5389 2.11092 -0.235328 0
M  V30 455 H 44.8019 0.947039 -0.0426669 0
M  V30 456 H 44.5079 3.49001 0.434913 0
M  V30 457 H 44.3819 3.10467 2.1422 0
M  V30 458 H 46.7689 2.11655 2.05637 0
M  V30 459 H 46.8499 2.53542 0.339155 0
M  V30 460 H 46.4939 4.99048 0.944135 0
M  V30 461 H 46.4239 4.54094 2.66658 0
M  V30 462 H 48.9149 3.44441 1.55464 0
M  V30 463 H 49.2279 7.2779 2.59887 0
M  V30 464 H 47.5729 6.54287 2.34378 0
M  V30 465 H 50.7639 4.30051 1.84861 0
M  V30 466 H 50.9369 6.04854 2.325 0
M  V30 467 N 44.343 -0.763751 1.37857 0
M  V30 468 C 45.591 -1.51957 1.33243 0
M  V30 469 C 45.912 -1.94835 -0.0801709 0
M  V30 470 O 45.182 -1.66894 -1.02582 0
M  V30 471 H 43.762 -0.563626 0.49024 0
M  V30 472 H 46.424 -0.908504 1.7243 0
M  V30 473 H 45.52 -2.41523 1.97669 0
M  V30 474 N 45.8211 -1.22559 -0.990812 0
M  V30 475 C 46.7511 -1.0218 -2.09956 0
M  V30 476 C 47.7321 0.0579394 -1.70001 0
M  V30 477 O 48.9171 -0.104684 -1.93918 0
M  V30 478 C 46.0471 -0.601023 -3.4206 0
M  V30 479 C 45.0011 -1.62694 -3.95872 0
M  V30 480 C 44.3271 -1.06193 -5.24049 0
M  V30 481 C 45.6271 -3.01743 -4.2632 0
M  V30 482 H 47.3211 -1.94916 -2.27262 0
M  V30 483 H 44.8671 -0.938566 -1.09211 0
M  V30 484 H 46.8201 -0.445561 -4.19038 0
M  V30 485 H 45.5441 0.362005 -3.24588 0
M  V30 486 H 44.2031 -1.77021 -3.21028 0
M  V30 487 H 43.8511 -0.0901903 -5.02919 0
M  V30 488 H 43.5511 -1.74732 -5.61019 0
M  V30 489 H 45.0751 -0.918092 -6.03658 0
M  V30 490 H 46.4891 -2.90777 -4.94087 0
M  V30 491 H 44.8861 -3.67425 -4.74467 0
M  V30 492 H 45.9561 -3.51518 -3.34011 0
M  V30 493 N 47.2992 1.18797 -1.03562 0
M  V30 494 C 48.5242 1.9314 -0.755764 0
M  V30 495 C 48.9492 1.7537 0.68022 0
M  V30 496 O 48.3072 1.06046 1.47051 0
M  V30 497 C 48.3552 3.42747 -1.12058 0
M  V30 498 O 47.4592 4.11683 -0.243124 0
M  V30 499 H 46.8002 0.602724 -0.278604 0
M  V30 500 H 49.3302 1.50678 -1.3841 0
M  V30 501 H 49.3402 3.93437 -1.08035 0
M  V30 502 H 48.0152 3.55002 -2.16672 0
M  V30 503 H 46.5922 3.71323 -0.342539 0
M  V30 504 N 48.7773 0.814389 1.34928 0
M  V30 505 C 49.7403 0.235759 2.27984 0
M  V30 506 C 50.7403 -0.581412 1.49921 0
M  V30 507 O 51.9303 -0.398758 1.69575 0
M  V30 508 C 49.0623 -0.670433 3.34242 0
M  V30 509 H 50.2553 1.05659 2.80671 0
M  V30 510 H 47.8083 0.585614 1.44915 0
M  V30 511 H 48.5433 -1.51466 2.86755 0
M  V30 512 H 48.3283 -0.0860822 3.92005 0
M  V30 513 H 49.8183 -1.06935 4.03676 0
M  V30 514 N 50.2554 -1.46986 0.568584 0
M  V30 515 C 51.5014 -2.0332 0.0571487 0
M  V30 516 C 51.8564 -1.43384 -1.28291 0
M  V30 517 O 51.1494 -0.584304 -1.82473 0
M  V30 518 C 51.3434 -3.57306 -0.081836 0
M  V30 519 C 51.1724 -4.32174 1.24321 0
M  V30 520 C 49.9424 -4.71633 1.81358 0
M  V30 521 C 52.1404 -4.66598 2.16312 0
M  V30 522 N 50.1224 -5.31191 3.07748 0
M  V30 523 C 51.4934 -5.26578 3.27285 0
M  V30 524 C 53.5484 -4.48527 2.16166 0
M  V30 525 C 52.2514 -5.70395 4.38226 0
M  V30 526 C 54.2774 -4.93351 3.26127 0
M  V30 527 C 53.6394 -5.5339 4.3582 0
M  V30 528 H 49.7384 -0.77943 0.063351 0
M  V30 529 H 52.3224 -1.79323 0.758378 0
M  V30 530 H 50.4934 -3.81046 -0.752207 0
M  V30 531 H 52.2254 -4.00282 -0.59637 0
M  V30 532 H 48.9804 -4.53946 1.35019 0
M  V30 533 H 49.4044 -5.65505 3.72201 0
M  V30 534 H 54.0464 -4.01456 1.32638 0
M  V30 535 H 51.7644 -6.16452 5.22506 0
M  V30 536 H 55.3504 -4.81131 3.27115 0
M  V30 537 H 54.2304 -5.87441 5.19503 0
M  V30 538 N 51.7335 -0.305618 -1.54608 0
M  V30 539 C 53.1445 0.186098 -1.8577 0
M  V30 540 C 53.4955 1.53058 -1.22751 0
M  V30 541 O 52.6205 2.09888 -0.526893 0
M  V30 542 C 53.2155 0.344449 -3.37044 0
M  V30 543 C 51.7745 0.780384 -3.68221 0
M  V30 544 C 50.9215 -0.108554 -2.77087 0
M  V30 545 H 53.8725 -0.526485 -1.49712 0
M  V30 546 H 53.8935 1.17828 -3.61796 0
M  V30 547 H 53.4055 -0.634235 -3.82883 0
M  V30 548 H 51.5065 1.76945 -3.27904 0
M  V30 549 H 51.6195 0.596572 -4.75371 0
M  V30 550 H 49.9835 0.412931 -2.5133 0
M  V30 551 H 50.7665 -1.08368 -3.25747 0
M  V30 552 N 53.2116 1.57565 -0.0334293 0
M  V30 553 C 54.4576 1.92262 0.645226 0
M  V30 554 C 54.7906 0.910543 1.71531 0
M  V30 555 O 54.0656 -0.066099 1.94388 0
M  V30 556 C 54.3486 3.37422 1.2577 0
M  V30 557 C 54.2016 4.49369 0.196891 0
M  V30 558 C 55.5206 3.82628 2.17449 0
M  V30 559 H 52.6396 0.699171 0.233085 0
M  V30 560 H 55.2816 1.89779 -0.0915694 0
M  V30 561 H 53.4316 3.39669 1.88566 0
M  V30 562 H 55.1036 4.59254 -0.433962 0
M  V30 563 H 53.3466 4.31168 -0.477137 0
M  V30 564 H 54.0176 5.47978 0.665124 0
M  V30 565 H 56.4936 3.82145 1.64634 0
M  V30 566 H 55.3696 4.84883 2.57254 0
M  V30 567 H 55.6306 3.18376 3.0674 0
M  V30 568 N 54.6897 -0.239769 1.55765 0
M  V30 569 C 56.1007 -0.808263 1.68297 0
M  V30 570 C 56.4517 -1.85736 0.632181 0
M  V30 571 O 55.5767 -2.15277 -0.220204 0
M  V30 572 C 56.1717 -1.47284 3.05111 0
M  V30 573 C 54.7307 -1.98895 3.19559 0
M  V30 574 C 53.8777 -0.842575 2.64189 0
M  V30 575 H 56.8287 -0.0154422 1.58692 0
M  V30 576 H 56.8497 -2.34111 2.99954 0
M  V30 577 H 56.3617 -0.709053 3.81568 0
M  V30 578 H 54.4627 -2.78132 2.47938 0
M  V30 579 H 54.5757 -2.18143 4.26556 0
M  V30 580 H 52.9397 -1.24501 2.22197 0
M  V30 581 H 53.7227 -0.0917552 3.43177 0
M  V30 582 N 56.1678 -1.49265 -0.50573 0
M  V30 583 C 57.0998 -1.617 -1.62437 0
M  V30 584 C 58.1128 -0.499924 -1.54934 0
M  V30 585 O 59.3018 -0.771785 -1.60953 0
M  V30 586 C 56.4018 -1.5533 -3.01207 0
M  V30 587 C 55.5748 -2.8249 -3.33943 0
M  V30 588 C 54.6338 -2.69238 -4.52103 0
M  V30 589 O 53.6598 -3.43167 -4.5412 0
M  V30 590 N 54.8618 -1.80468 -5.51735 0
M  V30 591 H 57.6268 -2.58177 -1.52199 0
M  V30 592 H 55.1878 -1.46294 -0.693511 0
M  V30 593 H 57.1798 -1.44125 -3.78167 0
M  V30 594 H 55.7498 -0.667297 -3.05395 0
M  V30 595 H 54.9698 -3.08081 -2.45926 0
M  V30 596 H 56.2578 -3.66802 -3.5261 0
M  V30 597 H 55.6558 -1.19653 -5.52901 0
M  V30 598 H 54.2128 -1.75188 -6.27816 0
M  V30 599 N 57.6459 0.756429 -1.3826 0
M  V30 600 C 58.5559 1.9009 -1.37488 0
M  V30 601 C 59.5719 1.71855 -0.272366 0
M  V30 602 O 60.7479 1.94827 -0.510318 0
M  V30 603 C 57.8129 3.25421 -1.19592 0
M  V30 604 C 56.8739 3.56202 -2.39622 0
M  V30 605 C 56.1069 4.85075 -2.2257 0
M  V30 606 O 56.3299 5.57246 -1.21793 0
M  V30 607 O 55.2639 5.15269 -3.11098 0
M  V30 608 H 59.0899 1.93695 -2.33914 0
M  V30 609 H 56.6749 0.901313 -1.1915 0
M  V30 610 H 58.5569 4.06337 -1.11661 0
M  V30 611 H 57.2319 3.22634 -0.262486 0
M  V30 612 H 56.1389 2.75458 -2.53128 0
M  V30 613 H 57.4719 3.63747 -3.31586 0
M  V30 614 N 59.124 1.23083 0.984299 0
M  V30 615 C 60.535 1.05609 1.5396 0
M  V30 616 C 60.886 -0.377793 1.92528 0
M  V30 617 O 60.011 -1.26398 1.75649 0
M  V30 618 C 60.606 1.91087 2.7977 0
M  V30 619 C 59.165 1.77885 3.31713 0
M  V30 620 C 58.312 1.87028 2.04733 0
M  V30 621 H 61.263 1.36802 0.804419 0
M  V30 622 H 61.284 1.43336 3.5247 0
M  V30 623 H 60.796 2.9544 2.51668 0
M  V30 624 H 58.897 0.762995 3.64704 0
M  V30 625 H 59.01 2.61047 4.01735 0
M  V30 626 H 57.374 1.30565 2.18689 0
M  V30 627 H 58.157 2.92929 1.79017 0
M  V30 628 N 60.6021 -1.18246 1.0419 0
M  V30 629 C 61.8271 -1.92736 0.765996 0
M  V30 630 C 62.2521 -1.75728 -0.67091 0
M  V30 631 O 61.6101 -1.06825 -1.46486 0
M  V30 632 C 61.6581 -3.42148 1.13875 0
M  V30 633 O 60.7621 -4.11548 0.264954 0
M  V30 634 H 60.1031 -0.601238 0.281797 0
M  V30 635 H 62.6331 -1.49942 1.39207 0
M  V30 636 H 62.6431 -3.92858 1.1012 0
M  V30 637 H 61.3181 -3.53848 2.18551 0
M  V30 638 H 59.8951 -3.71137 0.362226 0
M  V30 639 N 62.0802 -0.821533 -1.34494 0
M  V30 640 C 63.0132 -0.187704 -2.27427 0
M  V30 641 C 63.9912 0.65507 -1.48821 0
M  V30 642 O 65.1752 0.619111 -1.78043 0
M  V30 643 C 62.3022 0.737996 -3.30562 0
M  V30 644 C 61.3482 -0.0270713 -4.26491 0
M  V30 645 S 62.1812 -1.37329 -5.17592 0
M  V30 646 C 63.3372 -0.452427 -6.24263 0
M  V30 647 H 63.5702 -0.975598 -2.80837 0
M  V30 648 H 61.1032 -0.61736 -1.4152 0
M  V30 649 H 63.0612 1.26654 -3.90473 0
M  V30 650 H 61.7222 1.4994 -2.76001 0
M  V30 651 H 60.9152 0.6766 -4.99438 0
M  V30 652 H 60.5172 -0.48612 -3.70827 0
M  V30 653 H 62.8092 0.356557 -6.76561 0
M  V30 654 H 63.7522 -1.15153 -6.98674 0
M  V30 655 H 64.1602 -0.0414755 -5.64485 0
M  V30 656 N 63.5583 1.46682 -0.576371 0
M  V30 657 C 64.4683 2.34032 0.163141 0
M  V30 658 C 65.4843 1.49367 0.892501 0
M  V30 659 O 66.6603 1.82252 0.857106 0
M  V30 660 C 63.7253 3.26435 1.16795 0
M  V30 661 C 62.7863 4.26998 0.443944 0
M  V30 662 C 62.0193 5.14986 1.40088 0
M  V30 663 O 62.2423 5.05785 2.637 0
M  V30 664 O 61.1763 5.94906 0.914917 0
M  V30 665 H 65.0023 2.98607 -0.55388 0
M  V30 666 H 62.5873 1.45554 -0.336821 0
M  V30 667 H 64.4693 3.83459 1.74748 0
M  V30 668 H 63.1443 2.64465 1.86655 0
M  V30 669 H 62.0513 3.7368 -0.177271 0
M  V30 670 H 63.3843 4.91736 -0.213566 0
M  V30 671 N 65.0364 0.313813 1.54444 0
M  V30 672 C 66.2664 -0.293491 2.04505 0
M  V30 673 C 66.6744 -1.47086 1.19005 0
M  V30 674 O 66.0174 -1.82481 0.211257 0
M  V30 675 C 66.0794 -0.800455 3.50475 0
M  V30 676 C 65.7434 0.253322 4.56297 0
M  V30 677 C 66.7404 1.08612 5.08428 0
M  V30 678 C 64.4254 0.398708 5.00715 0
M  V30 679 C 66.4194 2.05013 6.0353 0
M  V30 680 C 64.1064 1.36614 5.95634 0
M  V30 681 C 65.1044 2.19033 6.46926 0
M  V30 682 O 64.7924 3.14134 7.39983 0
M  V30 683 H 64.5244 -0.0658325 0.672787 0
M  V30 684 H 67.0784 0.455177 2.00293 0
M  V30 685 H 65.3084 -1.59987 3.52053 0
M  V30 686 H 66.9974 -1.32504 3.83663 0
M  V30 687 H 67.7634 0.984736 4.74898 0
M  V30 688 H 63.6424 -0.23289 4.60411 0
M  V30 689 H 67.1864 2.69382 6.4349 0
M  V30 690 H 63.0834 1.4682 6.28581 0
M  V30 691 H 63.8514 3.0926 7.57826 0
M  V30 692 N 66.5145 -1.57545 0.0417849 0
M  V30 693 C 67.4465 -2.07904 -0.964799 0
M  V30 694 C 68.4595 -1.00497 -1.28079 0
M  V30 695 O 69.6485 -1.28087 -1.24322 0
M  V30 696 C 66.7485 -2.49928 -2.28887 0
M  V30 697 C 65.9215 -3.80562 -2.15619 0
M  V30 698 C 64.9805 -4.08999 -3.31069 0
M  V30 699 O 64.0065 -4.79061 -3.0739 0
M  V30 700 N 65.2085 -3.6017 -4.55256 0
M  V30 701 H 67.9735 -2.94886 -0.535029 0
M  V30 702 H 65.5345 -1.61252 -0.144681 0
M  V30 703 H 67.5265 -2.66034 -3.04972 0
M  V30 704 H 66.0965 -1.68245 -2.63463 0
M  V30 705 H 65.3165 -3.74129 -1.24183 0
M  V30 706 H 66.6045 -4.66126 -2.03971 0
M  V30 707 H 66.0025 -3.03512 -4.77386 0
M  V30 708 H 64.5595 -3.81532 -5.28466 0
M  V30 709 N 67.9926 0.231505 -1.5589 0
M  V30 710 C 69.2696 0.981096 -1.69215 0
M  V30 711 C 69.6496 2.02799 -0.586164 0
M  V30 712 O 68.9976 2.24823 0.408253 0
M  V30 713 C 69.2076 1.60054 -3.10135 0
M  V30 714 C 70.5556 2.09658 -3.69227 0
M  V30 715 O 71.5796 1.69967 -3.13033 0
M  V30 716 O 70.4386 2.8258 -4.67772 0
M  V30 717 H 67.5326 0.457653 -0.688827 0
M  V30 718 H 70.0786 0.224073 -1.68214 0
M  V30 719 H 68.8506 0.844105 -3.82087 0
M  V30 720 H 68.4736 2.42336 -3.15212 0
M  V30 721 N 69.4707 1.49531 0.497807 0
M  V30 722 C 70.4337 1.65916 1.58128 0
M  V30 723 C 71.4337 0.530825 1.51786 0
M  V30 724 O 72.6237 0.797342 1.54881 0
M  V30 725 C 69.7557 1.65951 2.9778 0
M  V30 726 H 70.9487 2.62556 1.44929 0
M  V30 727 H 68.5017 1.38611 0.722275 0
M  V30 728 H 69.2367 0.709065 3.16453 0
M  V30 729 H 69.0217 2.47897 3.03792 0
M  V30 730 H 70.5117 1.80673 3.76493 0
M  V30 731 N 70.9488 -0.749086 1.3866 0
M  V30 732 C 72.1948 -1.51056 1.35314 0
M  V30 733 C 72.5278 -1.94121 -0.0553751 0
M  V30 734 O 71.8028 -1.65763 -1.01749 0
M  V30 735 C 72.0858 -2.76003 2.31288 0
M  V30 736 C 71.9388 -2.39047 3.8102 0
M  V30 737 C 73.2578 -3.78046 2.2532 0
M  V30 738 H 70.3768 -0.547972 0.492844 0
M  V30 739 H 73.0188 -0.857628 1.69543 0
M  V30 740 H 71.1688 -3.31716 2.02229 0
M  V30 741 H 72.8408 -1.89074 4.20771 0
M  V30 742 H 71.0838 -1.71449 3.98482 0
M  V30 743 H 71.7548 -3.28462 4.4364 0
M  V30 744 H 74.2308 -3.31884 2.50983 0
M  V30 745 H 73.1068 -4.63159 2.94576 0
M  V30 746 H 73.3678 -4.23957 1.25352 0
M  V30 747 N 72.4269 -1.23603 -0.977757 0
M  V30 748 C 73.8429 -0.999251 -1.24447 0
M  V30 749 C 74.0429 0.298053 -1.99283 0
M  V30 750 O 73.0989 1.01681 -2.31122 0
M  V30 751 C 74.4119 -2.20784 -2.04144 0
M  V30 752 C 75.9599 -2.25303 -2.17273 0
M  V30 753 C 76.4349 -3.45755 -3.00362 0
M  V30 754 N 77.9259 -3.4601 -3.07947 0
M  V30 755 C 78.6609 -4.35868 -3.72568 0
M  V30 756 N 78.1569 -5.35966 -4.38991 0
M  V30 757 N 79.9499 -4.23605 -3.6948 0
M  V30 758 H 72.1009 -2.06986 -0.476483 0
M  V30 759 H 74.3639 -0.907801 -0.273134 0
M  V30 760 H 74.0699 -3.14945 -1.56533 0
M  V30 761 H 73.9439 -2.22085 -3.04891 0
M  V30 762 H 76.3309 -1.3168 -2.64092 0
M  V30 763 H 76.4119 -2.28033 -1.15907 0
M  V30 764 H 76.0559 -4.39687 -2.5424 0
M  V30 765 H 75.9859 -3.40266 -4.01904 0
M  V30 766 H 78.4769 -2.73588 -2.60688 0
M  V30 767 H 78.7899 -6.00783 -4.86086 0
M  V30 768 H 77.1349 -5.39863 -4.37691 0
M  V30 769 H 80.3259 -3.44647 -3.16759 0
M  V30 770 H 80.4989 -4.93836 -4.1956 0
M  V30 771 N 73.905 1.17692 -1.04816 0
M  V30 772 C 74.838 2.20436 -0.590173 0
M  V30 773 C 75.816 1.58115 0.379244 0
M  V30 774 O 77 1.86228 0.291762 0
M  V30 775 C 74.127 3.38424 0.136817 0
M  V30 776 C 73.173 4.19176 -0.787023 0
M  V30 777 S 74.006 4.84815 -2.27409 0
M  V30 778 C 75.162 6.06195 -1.55817 0
M  V30 779 H 75.395 2.58944 -1.46067 0
M  V30 780 H 72.928 1.28246 -0.859784 0
M  V30 781 H 74.886 4.06798 0.550076 0
M  V30 782 H 73.547 2.98312 0.983299 0
M  V30 783 H 72.74 5.03499 -0.224681 0
M  V30 784 H 72.342 3.56219 -1.13947 0
M  V30 785 H 74.634 6.72078 -0.855387 0
M  V30 786 H 75.577 6.6695 -2.37873 0
M  V30 787 H 75.985 5.54701 -1.04722 0
M  V30 788 N 75.3831 0.828654 1.34056 0
M  V30 789 C 76.3131 0.269443 2.3194 0
M  V30 790 C 77.2941 -0.617247 1.58506 0
M  V30 791 O 78.4791 -0.542931 1.86456 0
M  V30 792 C 75.6091 -0.564793 3.42677 0
M  V30 793 C 74.5631 0.225241 4.27407 0
M  V30 794 C 73.8891 -0.7321 5.29664 0
M  V30 795 C 75.1891 1.43663 5.02154 0
M  V30 796 H 76.8831 1.08728 2.7896 0
M  V30 797 H 74.4291 0.524283 1.34117 0
M  V30 798 H 76.3821 -0.966233 4.10173 0
M  V30 799 H 75.1061 -1.41574 2.9432 0
M  V30 800 H 73.7651 0.608117 3.61521 0
M  V30 801 H 73.4131 -1.57916 4.77568 0
M  V30 802 H 73.1131 -0.20767 5.87233 0
M  V30 803 H 74.6371 -1.13128 6.00029 0
M  V30 804 H 76.0511 1.1089 5.62473 0
M  V30 805 H 74.4481 1.89711 5.69324 0
M  V30 806 H 75.5181 2.21181 4.31517 0
M  V30 807 N 76.8612 -1.46375 0.584142 0
M  V30 808 C 77.8092 -2.32042 -0.161047 0
M  V30 809 C 78.8032 -1.44569 -0.882966 0
M  V30 810 O 80.0092 -1.61186 -0.801191 0
M  V30 811 H 76.3842 -0.748659 -0.0708033 0
M  V30 812 H 78.3552 -2.92704 0.580269 0
M  V30 813 C 77.1042 -3.27762 -1.1605 0
M  V30 814 H 76.4272 -3.95051 -0.614419 0
M  V30 815 H 77.8672 -3.90481 -1.65228 0
M  V30 816 C 76.3262 -2.53218 -2.22221 0
M  V30 817 O 76.8562 -2.29628 -3.29597 0
M  V30 818 N 75.0622 -2.13756 -1.96868 0
M  V30 819 H 74.6092 -2.33142 -1.09557 0
M  V30 820 H 74.5672 -1.642 -2.68115 0
M  V30 821 N 78.3393 -0.321999 -1.54275 0
M  V30 822 C 79.5673 0.283052 -2.04955 0
M  V30 823 C 79.9823 1.45904 -1.19823 0
M  V30 824 O 79.3393 1.81063 -0.228545 0
M  V30 825 C 79.3903 0.719028 -3.54277 0
M  V30 826 O 79.1113 -0.410175 -4.36176 0
M  V30 827 C 80.6123 1.38705 -4.21041 0
M  V30 828 H 77.8323 0.0584616 -0.668448 0
M  V30 829 H 80.3763 -0.467734 -1.99079 0
M  V30 830 H 78.5313 1.41979 -3.60445 0
M  V30 831 H 78.9453 -0.0669416 -5.24457 0
M  V30 832 H 80.4193 1.64306 -5.2698 0
M  V30 833 H 80.8963 2.33385 -3.72059 0
M  V30 834 H 81.5023 0.728906 -4.19007 0
M  V30 835 N 79.8174 1.5752 -0.0501392 0
M  V30 836 C 80.7474 2.14502 0.922566 0
M  V30 837 C 81.7284 1.06642 1.3252 0
M  V30 838 O 82.9134 1.34577 1.4001 0
M  V30 839 C 80.0434 2.68916 2.19776 0
M  V30 840 C 78.9974 3.8175 1.93523 0
M  V30 841 C 78.3234 4.22677 3.27487 0
M  V30 842 C 79.6234 5.06932 1.25765 0
M  V30 843 H 81.3174 2.9603 0.447952 0
M  V30 844 H 78.8634 1.42401 0.214024 0
M  V30 845 H 80.8164 3.07419 2.88222 0
M  V30 846 H 79.5404 1.84578 2.69441 0
M  V30 847 H 78.1994 3.43718 1.27489 0
M  V30 848 H 77.8474 3.35291 3.74952 0
M  V30 849 H 77.5474 4.98725 3.1072 0
M  V30 850 H 79.0714 4.63779 3.97166 0
M  V30 851 H 80.4854 5.42888 1.84244 0
M  V30 852 H 78.8824 5.88116 1.19328 0
M  V30 853 H 79.9524 4.84337 0.233536 0
M  V30 854 N 81.2955 -0.223234 1.56011 0
M  V30 855 C 82.2275 -1.30006 1.88762 0
M  V30 856 C 83.2405 -1.43129 0.775746 0
M  V30 857 O 84.4295 -1.44057 1.05403 0
M  V30 858 C 81.5295 -2.67589 2.07965 0
M  V30 859 C 80.7025 -2.76434 3.38973 0
M  V30 860 C 79.7615 -3.95019 3.47629 0
M  V30 861 O 78.7875 -3.83436 4.20672 0
M  V30 862 N 79.9895 -5.09249 2.78649 0
M  V30 863 H 82.7545 -1.02238 2.81722 0
M  V30 864 H 80.3155 -0.413278 1.56536 0
M  V30 865 H 82.3075 -3.45297 2.11073 0
M  V30 866 H 80.8775 -2.87964 1.21638 0
M  V30 867 H 80.0975 -1.85216 3.47978 0
M  V30 868 H 81.3855 -2.79313 4.25278 0
M  V30 869 H 80.7835 -5.21556 2.19081 0
M  V30 870 H 79.3405 -5.85007 2.8742 0
M  V30 871 N 82.7736 -1.49793 -0.48987 0
M  V30 872 C 84.0016 -1.63568 -1.26701 0
M  V30 873 C 84.4166 -0.311465 -1.86213 0
M  V30 874 O 83.7736 0.704416 -1.68357 0
M  V30 875 C 83.8246 -2.71284 -2.38929 0
M  V30 876 O 83.5456 -3.9857 -1.81861 0
M  V30 877 C 85.0466 -2.95864 -3.3012 0
M  V30 878 H 82.2666 -0.550342 -0.383881 0
M  V30 879 H 84.8106 -1.95898 -0.586864 0
M  V30 880 H 82.9656 -2.417 -3.02753 0
M  V30 881 H 83.3796 -4.57993 -2.55622 0
M  V30 882 H 84.8536 -3.74941 -4.05121 0
M  V30 883 H 85.3306 -2.06206 -3.87783 0
M  V30 884 H 85.9366 -3.26907 -2.72051 0
M  V30 885 N 84.2517 0.741722 -1.39055 0
M  V30 886 C 85.1997 1.87702 -1.3737 0
M  V30 887 C 86.1937 1.67427 -0.257812 0
M  V30 888 O 87.3997 1.7485 -0.427489 0
M  V30 889 H 83.7747 0.617757 -0.428812 0
M  V30 890 H 85.7457 1.86239 -2.33147 0
M  V30 891 C 84.4947 3.25315 -1.22741 0
M  V30 892 H 83.8177 3.41509 -2.07873 0
M  V30 893 H 85.2577 4.04964 -1.25618 0
M  V30 894 C 83.7167 3.36838 0.0647316 0
M  V30 895 O 84.2467 3.88073 1.03741 0
M  V30 896 N 82.4527 2.90329 0.125544 0
M  V30 897 H 81.9997 2.48823 -0.666682 0
M  V30 898 H 81.9577 2.98418 0.989639 0
M  V30 899 N 85.7298 1.2412 0.971189 0
M  V30 900 C 86.6928 1.03156 2.04674 0
M  V30 901 C 87.6928 -0.00990322 1.60797 0
M  V30 902 O 88.8828 0.230729 1.72665 0
M  V30 903 C 86.0148 0.562765 3.36223 0
M  V30 904 H 87.2078 1.98614 2.24705 0
M  V30 905 H 84.7608 1.06293 1.14593 0
M  V30 906 H 85.4958 -0.395176 3.21883 0
M  V30 907 H 85.2808 1.31441 3.69413 0
M  V30 908 H 86.7708 0.437015 4.15307 0
M  V30 909 N 87.2079 -1.17134 1.05439 0
M  V30 910 C 88.4559 -1.87085 0.764429 0
M  V30 911 C 88.7769 -1.81584 -0.710787 0
M  V30 912 O 88.0469 -1.24349 -1.51374 0
M  V30 913 H 86.6269 -0.692627 0.279779 0
M  V30 914 H 89.2889 -1.42087 1.33406 0
M  V30 915 H 88.3849 -2.92759 1.0816 0
M  V30 916 N 88.686 -0.835752 -1.33615 0
M  V30 917 C 89.916 -0.442701 -2.01801 0
M  V30 918 C 90.324 0.959807 -1.63047 0
M  V30 919 O 89.667 1.63468 -0.838088 0
M  V30 920 C 89.729 -0.480125 -3.56279 0
M  V30 921 C 89.393 -1.8382 -4.18401 0
M  V30 922 C 90.39 -2.80097 -4.37998 0
M  V30 923 C 88.075 -2.13019 -4.54894 0
M  V30 924 C 90.069 -4.03736 -4.9323 0
M  V30 925 C 87.756 -3.36916 -5.09834 0
M  V30 926 C 88.754 -4.32091 -5.28948 0
M  V30 927 O 88.442 -5.53797 -5.82721 0
M  V30 928 H 88.174 -0.17441 -0.653114 0
M  V30 929 H 90.728 -1.129 -1.71589 0
M  V30 930 H 88.958 0.262931 -3.85805 0
M  V30 931 H 90.647 -0.105335 -4.05763 0
M  V30 932 H 91.413 -2.58838 -4.10156 0
M  V30 933 H 87.292 -1.39733 -4.39313 0
M  V30 934 H 90.836 -4.78034 -5.08064 0
M  V30 935 H 86.733 -3.58033 -5.37106 0
M  V30 936 H 87.501 -5.55494 -6.0114 0
M  V30 937 N 90.1641 1.46063 -0.591896 0
M  V30 938 C 91.0941 2.33172 0.123673 0
M  V30 939 C 92.0751 1.45897 0.87453 0
M  V30 940 O 93.2601 1.74698 0.848181 0
M  V30 941 C 90.3901 3.28336 1.13194 0
M  V30 942 C 89.3441 4.25124 0.495324 0
M  V30 943 C 88.6701 5.09863 1.61071 0
M  V30 944 C 89.9701 5.19143 -0.573425 0
M  V30 945 H 91.6641 2.93252 -0.603646 0
M  V30 946 H 89.2101 1.41014 -0.291741 0
M  V30 947 H 91.1631 3.88137 1.64097 0
M  V30 948 H 89.8871 2.66383 1.88965 0
M  V30 949 H 88.5461 3.66599 0.00729452 0
M  V30 950 H 88.1941 4.44288 2.35832 0
M  V30 951 H 87.8941 5.75417 1.19035 0
M  V30 952 H 89.4181 5.72529 2.12233 0
M  V30 953 H 90.8321 5.73106 -0.1491 0
M  V30 954 H 89.2291 5.93089 -0.914636 0
M  V30 955 H 90.2991 4.62519 -1.45617 0
M  V30 956 N 91.6422 0.330177 1.54103 0
M  V30 957 C 92.5522 -0.541534 2.28264 0
M  V30 958 C 93.5682 -1.12351 1.32866 0
M  V30 959 O 94.7442 -1.14206 1.65888 0
M  V30 960 C 91.8092 -1.68322 3.03098 0
M  V30 961 C 90.8702 -1.13238 4.14096 0
M  V30 962 C 90.1032 -2.21966 4.85352 0
M  V30 963 O 90.3262 -3.42437 4.56172 0
M  V30 964 O 89.2602 -1.87013 5.7211 0
M  V30 965 H 93.0862 0.060938 3.03639 0
M  V30 966 H 90.6712 0.09565 1.49093 0
M  V30 967 H 92.5532 -2.34777 3.49939 0
M  V30 968 H 91.2282 -2.27176 2.30593 0
M  V30 969 H 90.1352 -0.432736 3.71589 0
M  V30 970 H 91.4682 -0.588898 4.88664 0
M  V30 971 N 93.1203 -1.57491 0.0584922 0
M  V30 972 C 94.0523 -2.08916 -0.942694 0
M  V30 973 C 95.0653 -1.0185 -1.27006 0
M  V30 974 O 96.2543 -1.29398 -1.22957 0
M  V30 975 C 93.3543 -2.52341 -2.26224 0
M  V30 976 C 92.5273 -3.82827 -2.1157 0
M  V30 977 C 91.5863 -4.12487 -3.26712 0
M  V30 978 O 90.6123 -4.82295 -3.02292 0
M  V30 979 N 91.8143 -3.64978 -4.5141 0
M  V30 980 H 94.5793 -2.95437 -0.503722 0
M  V30 981 H 92.1403 -1.61397 -0.12757 0
M  V30 982 H 94.1323 -2.69254 -3.02133 0
M  V30 983 H 92.7023 -1.7103 -2.61663 0
M  V30 984 H 91.9223 -3.75425 -1.20208 0
M  V30 985 H 93.2103 -4.68263 -1.99015 0
M  V30 986 H 92.6083 -3.08558 -4.7414 0
M  V30 987 H 91.1653 -3.87115 -5.2439 0
M  V30 988 N 94.5984 0.214957 -1.56127 0
M  V30 989 C 95.8444 0.939762 -1.79712 0
M  V30 990 C 96.1774 1.83723 -0.629247 0
M  V30 991 O 95.4524 1.90925 0.371197 0
M  V30 992 C 95.7354 1.77306 -3.13424 0
M  V30 993 C 95.5884 0.90164 -4.40671 0
M  V30 994 C 96.9074 2.74956 -3.43638 0
M  V30 995 H 94.0264 0.340214 -0.653776 0
M  V30 996 H 96.6684 0.20824 -1.88855 0
M  V30 997 H 94.8184 2.39673 -3.0576 0
M  V30 998 H 96.4904 0.294206 -4.60361 0
M  V30 999 H 94.7334 0.207368 -4.33304 0
M  V30 1000 H 95.4044 1.51923 -5.30682 0
M  V30 1001 H 97.8804 2.22724 -3.51473 0
M  V30 1002 H 96.7564 3.30358 -4.38355 0
M  V30 1003 H 97.0174 3.53023 -2.66134 0
M  V30 1004 N 96.0765 1.50051 0.48192 0
M  V30 1005 C 97.0235 1.68122 1.58125 0
M  V30 1006 C 97.9935 0.522545 1.57666 0
M  V30 1007 O 99.1785 0.751844 1.75362 0
M  V30 1008 C 96.3185 1.77142 2.96167 0
M  V30 1009 C 95.4315 3.0444 3.06497 0
M  V30 1010 C 94.5665 3.04321 4.35387 0
M  V30 1011 C 93.6055 4.26118 4.3942 0
M  V30 1012 N 92.7425 4.238 5.59766 0
M  V30 1013 H 97.5825 2.6198 1.42022 0
M  V30 1014 H 95.1195 1.29877 0.690687 0
M  V30 1015 H 97.0775 1.80352 3.76203 0
M  V30 1016 H 95.7075 0.867329 3.1093 0
M  V30 1017 H 94.7595 3.10752 2.19402 0
M  V30 1018 H 96.0715 3.94426 3.05336 0
M  V30 1019 H 95.2255 3.062 5.23762 0
M  V30 1020 H 93.9645 2.12147 4.39141 0
M  V30 1021 H 92.9695 4.24463 3.49444 0
M  V30 1022 H 94.1945 5.19507 4.37366 0
M  V30 1023 H 92.1405 3.34474 5.64326 0
M  V30 1024 H 92.0575 5.07542 5.60301 0
M  V30 1025 H 93.3255 4.2981 6.50295 0
M  V30 1026 N 97.5546 -0.734337 1.39446 0
M  V30 1027 C 98.9706 -1.03997 1.21065 0
M  V30 1028 C 99.1706 -2.01369 0.0727019 0
M  V30 1029 O 98.2266 -2.45856 -0.575426 0
M  V30 1030 C 99.5396 -1.60163 2.54496 0
M  V30 1031 C 101.088 -1.7224 2.61347 0
M  V30 1032 C 101.563 -2.31814 3.95002 0
M  V30 1033 N 103.054 -2.39223 3.96644 0
M  V30 1034 C 103.789 -2.86258 4.96834 0
M  V30 1035 N 103.285 -3.33184 6.07421 0
M  V30 1036 N 105.078 -2.85473 4.84213 0
M  V30 1037 H 97.2286 -0.0885624 2.12215 0
M  V30 1038 H 99.4916 -0.10191 0.942506 0
M  V30 1039 H 99.1976 -0.960811 3.38321 0
M  V30 1040 H 99.0716 -2.5896 2.74262 0
M  V30 1041 H 101.459 -2.35443 1.77906 0
M  V30 1042 H 101.54 -0.720939 2.4543 0
M  V30 1043 H 101.184 -1.69238 4.78875 0
M  V30 1044 H 101.114 -3.32638 4.08239 0
M  V30 1045 H 103.605 -2.06057 3.16779 0
M  V30 1046 H 103.918 -3.67586 6.7978 0
M  V30 1047 H 102.263 -3.31191 6.11013 0
M  V30 1048 H 105.454 -2.48136 3.96921 0
M  V30 1049 H 105.627 -3.21814 5.62441 0
M  V30 1050 N 99.0327 -1.24633 -0.964593 0
M  V30 1051 C 99.9647 -0.999302 -2.06268 0
M  V30 1052 C 100.978 0.0323226 -1.62768 0
M  V30 1053 O 102.167 -0.205079 -1.77318 0
M  V30 1054 C 99.2667 -0.486816 -3.35385 0
M  V30 1055 C 98.4397 -1.5823 -4.07777 0
M  V30 1056 C 97.4987 -1.07191 -5.15166 0
M  V30 1057 O 96.5247 -1.76426 -5.41168 0
M  V30 1058 N 97.7267 0.0920373 -5.80427 0
M  V30 1059 H 100.492 -1.94477 -2.28033 0
M  V30 1060 H 98.0527 -1.15704 -1.13244 0
M  V30 1061 H 100.045 -0.130066 -4.04491 0
M  V30 1062 H 98.6147 0.364459 -3.10468 0
M  V30 1063 H 97.8347 -2.11109 -3.32906 0
M  V30 1064 H 99.1227 -2.31854 -4.52903 0
M  V30 1065 H 98.5207 0.670784 -5.61709 0
M  V30 1066 H 97.0777 0.389905 -6.50633 0
M  V30 1067 N 100.511 1.16574 -1.06058 0
M  V30 1068 C 101.927 1.3904 -0.783585 0
M  V30 1069 C 102.127 1.91784 0.618145 0
M  V30 1070 O 101.183 2.11511 1.37911 0
M  V30 1071 C 102.496 2.37329 -1.84649 0
M  V30 1072 C 104.044 2.51018 -1.86973 0
M  V30 1073 C 104.519 3.52588 -2.92311 0
M  V30 1074 N 106.01 3.60113 -2.91329 0
M  V30 1075 C 106.745 4.38486 -3.69482 0
M  V30 1076 N 106.241 5.20302 -4.57447 0
M  V30 1077 N 108.034 4.33446 -3.57885 0
M  V30 1078 H 100.185 0.806725 -1.96483 0
M  V30 1079 H 102.448 0.417117 -0.851303 0
M  V30 1080 H 102.154 2.05663 -2.85299 0
M  V30 1081 H 102.028 3.36946 -1.6955 0
M  V30 1082 H 104.415 2.81989 -0.869827 0
M  V30 1083 H 104.496 1.51445 -2.0615 0
M  V30 1084 H 104.14 3.22354 -3.92492 0
M  V30 1085 H 104.07 4.51886 -2.70383 0
M  V30 1086 H 106.561 3.01707 -2.27555 0
M  V30 1087 H 106.874 5.77311 -5.13743 0
M  V30 1088 H 105.219 5.19653 -4.61503 0
M  V30 1089 H 108.41 3.68586 -2.88551 0
M  V30 1090 H 108.583 4.94279 -4.19037 0
M  V30 1091 N 101.989 0.842826 1.3317 0
M  V30 1092 C 103.237 0.439577 1.97262 0
M  V30 1093 C 103.558 -1.00548 1.67078 0
M  V30 1094 O 102.828 -1.70098 0.971779 0
M  V30 1095 H 101.408 0.159558 0.72976 0
M  V30 1096 H 104.07 1.07665 1.62463 0
M  V30 1097 H 103.166 0.574886 3.0676 0
M  V30 1098 N 103.467 -1.45747 0.599634 0
M  V30 1099 C 104.744 -1.95585 0.0240846 0
M  V30 1100 C 105.124 -1.54217 -1.44154 0
M  V30 1101 O 104.472 -0.800903 -2.14004 0
M  V30 1102 C 104.682 -3.48344 0.21385 0
M  V30 1103 C 106.03 -4.24504 0.0904902 0
M  V30 1104 O 107.054 -3.55911 0.143558 0
M  V30 1105 O 105.913 -5.46491 -0.0310766 0
M  V30 1106 H 103.007 -0.82602 -0.0402478 0
M  V30 1107 H 105.553 -1.55951 0.669139 0
M  V30 1108 H 104.325 -3.71397 1.23206 0
M  V30 1109 H 103.948 -3.9485 -0.466842 0
M  V30 1110 N 104.945 -0.338344 -1.53925 0
M  V30 1111 C 106.356 0.146651 -1.86123 0
M  V30 1112 C 106.707 1.5042 -1.2597 0
M  V30 1113 O 105.832 2.08723 -0.571294 0
M  V30 1114 C 106.427 0.272879 -3.37699 0
M  V30 1115 C 104.986 0.702103 -3.69794 0
M  V30 1116 C 104.133 -0.167304 -2.76795 0
M  V30 1117 H 107.084 -0.558123 -1.48562 0
M  V30 1118 H 107.105 1.10128 -3.64214 0
M  V30 1119 H 106.617 -0.715307 -3.81451 0
M  V30 1120 H 104.718 1.6995 -3.31584 0
M  V30 1121 H 104.831 0.495604 -4.7653 0
M  V30 1122 H 103.195 0.359527 -2.5215 0
M  V30 1123 H 103.978 -1.15253 -3.23375 0
M  V30 1124 N 106.423 1.57458 -0.0668435 0
M  V30 1125 C 107.355 2.09413 0.931601 0
M  V30 1126 C 108.368 1.02522 1.26464 0
M  V30 1127 O 109.557 1.30049 1.22269 0
M  V30 1128 C 106.657 2.53537 2.24882 0
M  V30 1129 C 105.83 3.83944 2.09537 0
M  V30 1130 C 104.889 4.14214 3.2452 0
M  V30 1131 O 103.915 4.83891 2.9973 0
M  V30 1132 N 105.117 3.67367 4.49469 0
M  V30 1133 H 107.882 2.95699 0.488048 0
M  V30 1134 H 105.443 1.61462 0.119009 0
M  V30 1135 H 107.435 2.70853 3.00701 0
M  V30 1136 H 106.005 1.72415 2.60753 0
M  V30 1137 H 105.225 3.76057 1.18215 0
M  V30 1138 H 106.513 4.69312 1.96529 0
M  V30 1139 H 105.911 3.11068 4.72497 0
M  V30 1140 H 104.468 3.89891 5.2233 0
M  V30 1141 N 107.901 -0.206675 1.56239 0
M  V30 1142 C 109.129 -0.945345 1.8404 0
M  V30 1143 C 109.544 -1.77336 0.647885 0
M  V30 1144 O 108.901 -1.78425 -0.383511 0
M  V30 1145 C 108.952 -1.8509 3.10522 0
M  V30 1146 O 108.673 -1.05634 4.25174 0
M  V30 1147 C 110.174 -2.70222 3.51418 0
M  V30 1148 H 107.394 -0.276372 0.61144 0
M  V30 1149 H 109.938 -0.217417 2.03341 0
M  V30 1150 H 108.093 -2.53259 2.93153 0
M  V30 1151 H 108.507 -1.67238 4.97124 0
M  V30 1152 H 109.981 -3.29438 4.42916 0
M  V30 1153 H 110.458 -3.43358 2.73864 0
M  V30 1154 H 111.064 -2.07443 3.71278 0
M  V30 1155 N 109.379 -1.50304 -0.473955 0
M  V30 1156 C 110.311 -1.65109 -1.58971 0
M  V30 1157 C 111.324 -0.532676 -1.53839 0
M  V30 1158 O 112.513 -0.805751 -1.59279 0
M  V30 1159 C 109.613 -1.61684 -2.97845 0
M  V30 1160 C 108.786 -2.8951 -3.27876 0
M  V30 1161 C 107.845 -2.78768 -4.4629 0
M  V30 1162 O 106.871 -3.52722 -4.46739 0
M  V30 1163 N 108.073 -1.9213 -5.47783 0
M  V30 1164 H 110.838 -2.61347 -1.46689 0
M  V30 1165 H 108.399 -1.47732 -0.662324 0
M  V30 1166 H 110.391 -1.52114 -3.75024 0
M  V30 1167 H 108.961 -0.731925 -3.03911 0
M  V30 1168 H 108.181 -3.13228 -2.39336 0
M  V30 1169 H 109.469 -3.74199 -3.4475 0
M  V30 1170 H 108.867 -1.31353 -5.50239 0
M  V30 1171 H 107.424 -1.88466 -6.23958 0
M  V30 1172 N 110.857 0.726932 -1.39834 0
M  V30 1173 C 111.787 1.85405 -1.41941 0
M  V30 1174 C 112.768 1.67751 -0.281728 0
M  V30 1175 O 113.953 1.8795 -0.488717 0
M  V30 1176 C 111.083 3.23243 -1.2701 0
M  V30 1177 C 110.037 3.55549 -2.38262 0
M  V30 1178 C 109.363 4.9241 -2.08415 0
M  V30 1179 C 110.663 3.577 -3.80589 0
M  V30 1180 H 112.357 1.83899 -2.36266 0
M  V30 1181 H 109.903 0.883349 -1.13723 0
M  V30 1182 H 111.856 4.01775 -1.27103 0
M  V30 1183 H 110.58 3.25296 -0.291564 0
M  V30 1184 H 109.239 2.79351 -2.37399 0
M  V30 1185 H 108.887 4.91052 -1.0898 0
M  V30 1186 H 108.587 5.14992 -2.82943 0
M  V30 1187 H 110.111 5.73289 -2.10171 0
M  V30 1188 H 111.525 4.26293 -3.83337 0
M  V30 1189 H 109.922 3.91804 -4.54543 0
M  V30 1190 H 110.992 2.57328 -4.10987 0
M  V30 1191 N 112.336 1.25143 0.95797 0
M  V30 1192 C 113.246 1.06968 2.08794 0
M  V30 1193 C 114.262 0.00773911 1.73998 0
M  V30 1194 O 115.438 0.207972 2.00323 0
M  V30 1195 C 112.503 0.68691 3.39827 0
M  V30 1196 C 111.564 1.82641 3.88511 0
M  V30 1197 C 110.797 1.46181 5.1329 0
M  V30 1198 O 111.02 0.355971 5.69288 0
M  V30 1199 O 109.954 2.29085 5.566 0
M  V30 1200 H 113.78 2.01723 2.27027 0
M  V30 1201 H 111.365 1.04051 1.07209 0
M  V30 1202 H 113.247 0.485417 4.18595 0
M  V30 1203 H 111.922 -0.231417 3.22872 0
M  V30 1204 H 110.829 2.08274 3.10762 0
M  V30 1205 H 112.162 2.72386 4.09959 0
M  V30 1206 N 113.814 -1.1601 1.06675 0
M  V30 1207 C 114.777 -2.18724 0.685001 0
M  V30 1208 C 115.777 -1.58496 -0.271246 0
M  V30 1209 O 116.967 -1.74119 -0.0531156 0
M  V30 1210 C 114.099 -3.40899 0.00853648 0
M  V30 1211 H 115.292 -2.54011 1.59431 0
M  V30 1212 H 112.845 -1.30352 0.862441 0
M  V30 1213 H 113.58 -3.11173 -0.913337 0
M  V30 1214 H 113.365 -3.8587 0.696204 0
M  V30 1215 H 114.855 -4.16886 -0.24414 0
M  V30 1216 N 115.292 -0.849877 -1.32721 0
M  V30 1217 C 116.225 -0.235903 -2.26977 0
M  V30 1218 C 117.203 0.623355 -1.50177 0
M  V30 1219 O 118.387 0.581207 -1.79316 0
M  V30 1220 C 115.514 0.667712 -3.32053 0
M  V30 1221 C 114.56 -0.11753 -4.26338 0
M  V30 1222 S 115.393 -1.48277 -5.14562 0
M  V30 1223 C 116.549 -0.584741 -6.23163 0
M  V30 1224 H 116.782 -1.03495 -2.78704 0
M  V30 1225 H 114.315 -0.64724 -1.40179 0
M  V30 1226 H 116.273 1.18343 -3.93072 0
M  V30 1227 H 114.934 1.44052 -2.7912 0
M  V30 1228 H 114.127 0.57051 -5.00761 0
M  V30 1229 H 113.729 -0.564668 -3.69713 0
M  V30 1230 H 116.021 0.212968 -6.77165 0
M  V30 1231 H 116.964 -1.29947 -6.96074 0
M  V30 1232 H 117.372 -0.161202 -5.6427 0
M  V30 1233 N 116.77 1.45427 -0.607355 0
M  V30 1234 C 117.68 2.34325 0.113463 0
M  V30 1235 C 118.696 1.51226 0.860617 0
M  V30 1236 O 119.872 1.84029 0.818255 0
M  V30 1237 C 116.937 3.28839 1.09844 0
M  V30 1238 C 115.998 4.27844 0.353271 0
M  V30 1239 C 115.231 5.17842 1.29133 0
M  V30 1240 O 115.454 5.11264 2.52913 0
M  V30 1241 O 114.388 5.96713 0.788523 0
M  V30 1242 H 118.214 2.97364 -0.617094 0
M  V30 1243 H 115.799 1.44807 -0.367619 0
M  V30 1244 H 117.681 3.8708 1.66575 0
M  V30 1245 H 116.356 2.68365 1.81003 0
M  V30 1246 H 115.263 3.7322 -0.256494 0
M  V30 1247 H 116.596 4.91173 -0.317822 0
M  V30 1248 N 118.248 0.346503 1.53744 0
M  V30 1249 C 119.178 -0.501193 2.28058 0
M  V30 1250 C 120.159 -1.10014 1.29734 0
M  V30 1251 O 121.344 -1.12097 1.58581 0
M  V30 1252 C 118.474 -1.65078 3.05559 0
M  V30 1253 C 117.428 -1.18003 4.11411 0
M  V30 1254 C 116.754 -2.41837 4.76884 0
M  V30 1255 C 118.054 -0.278394 5.21558 0
M  V30 1256 H 119.748 0.11875 2.99164 0
M  V30 1257 H 117.294 0.0585531 1.43881 0
M  V30 1258 H 119.247 -2.25028 3.56287 0
M  V30 1259 H 117.971 -2.29767 2.32109 0
M  V30 1260 H 116.63 -0.603331 3.61601 0
M  V30 1261 H 116.278 -3.0494 4.00026 0
M  V30 1262 H 115.978 -2.1102 5.48402 0
M  V30 1263 H 117.502 -3.02508 5.30397 0
M  V30 1264 H 118.916 -0.784823 5.67903 0
M  V30 1265 H 117.313 -0.0619707 6.00068 0
M  V30 1266 H 118.383 0.684677 4.80042 0
M  V30 1267 N 119.726 -1.57421 0.075193 0
M  V30 1268 C 120.956 -1.97659 -0.601203 0
M  V30 1269 C 121.364 -0.952427 -1.63479 0
M  V30 1270 O 120.707 0.0688241 -1.83571 0
M  V30 1271 C 120.769 -3.34218 -1.32434 0
M  V30 1272 C 120.433 -4.5484 -0.443826 0
M  V30 1273 C 121.43 -5.19034 0.299969 0
M  V30 1274 C 119.115 -5.00952 -0.367709 0
M  V30 1275 C 121.109 -6.27695 1.10807 0
M  V30 1276 C 118.796 -6.09484 0.444058 0
M  V30 1277 C 119.794 -6.72719 1.18061 0
M  V30 1278 O 119.482 -7.79161 1.97898 0
M  V30 1279 H 119.214 -0.65494 -0.167422 0
M  V30 1280 H 121.768 -2.04886 0.145157 0
M  V30 1281 H 119.998 -3.23615 -2.11685 0
M  V30 1282 H 121.687 -3.59038 -1.89331 0
M  V30 1283 H 122.453 -4.84351 0.250776 0
M  V30 1284 H 118.332 -4.51509 -0.930638 0
M  V30 1285 H 121.876 -6.76982 1.68347 0
M  V30 1286 H 117.773 -6.43601 0.494803 0
M  V30 1287 H 118.541 -7.96055 1.90367 0
M  V30 1288 N 121.204 0.198386 -1.56346 0
M  V30 1289 C 122.134 1.24865 -1.9731 0
M  V30 1290 C 123.115 1.47651 -0.844576 0
M  V30 1291 O 124.3 1.59444 -1.10866 0
M  V30 1292 C 121.43 2.59358 -2.30977 0
M  V30 1293 C 120.384 2.5119 -3.46537 0
M  V30 1294 C 119.71 3.89926 -3.65871 0
M  V30 1295 C 121.01 2.03977 -4.80823 0
M  V30 1296 H 122.704 0.908252 -2.85291 0
M  V30 1297 H 120.25 0.435462 -1.37258 0
M  V30 1298 H 122.203 3.33011 -2.58228 0
M  V30 1299 H 120.927 2.95132 -1.39874 0
M  V30 1300 H 119.586 1.79993 -3.19371 0
M  V30 1301 H 119.234 4.23046 -2.72105 0
M  V30 1302 H 118.934 3.85336 -4.4361 0
M  V30 1303 H 120.458 4.65205 -3.95495 0
M  V30 1304 H 121.872 2.67386 -5.07127 0
M  V30 1305 H 120.269 2.10397 -5.62008 0
M  V30 1306 H 121.339 0.992861 -4.74626 0
M  V30 1307 N 122.682 1.50554 0.465978 0
M  V30 1308 C 123.645 1.69233 1.54574 0
M  V30 1309 C 124.645 0.562901 1.50626 0
M  V30 1310 O 125.835 0.830016 1.53155 0
M  V30 1311 C 122.967 1.7223 2.94193 0
M  V30 1312 H 124.16 2.65571 1.39327 0
M  V30 1313 H 121.713 1.40111 0.692711 0
M  V30 1314 H 122.448 0.77603 3.14878 0
M  V30 1315 H 122.233 2.54285 2.98466 0
M  V30 1316 H 123.723 1.88618 3.72576 0
M  V30 1317 N 124.16 -0.719506 1.40217 0
M  V30 1318 C 125.576 -1.02707 1.22161 0
M  V30 1319 C 125.776 -2.0128 0.0940557 0
M  V30 1320 O 124.832 -2.46452 -0.549318 0
M  V30 1321 C 126.145 -1.57454 2.56181 0
M  V30 1322 C 127.693 -1.69458 2.63159 0
M  V30 1323 C 128.168 -2.27611 3.97438 0
M  V30 1324 N 129.659 -2.35002 3.99159 0
M  V30 1325 C 130.394 -2.80972 4.99842 0
M  V30 1326 N 129.89 -3.26723 6.10921 0
M  V30 1327 N 131.683 -2.80321 4.87213 0
M  V30 1328 H 123.834 -0.0660492 2.12297 0
M  V30 1329 H 126.097 -0.0919077 0.943534 0
M  V30 1330 H 125.803 -0.924873 3.39321 0
M  V30 1331 H 125.677 -2.56036 2.76993 0
M  V30 1332 H 128.064 -2.33543 1.80393 0
M  V30 1333 H 128.145 -0.694867 2.46181 0
M  V30 1334 H 127.789 -1.6415 4.80643 0
M  V30 1335 H 127.719 -3.2829 4.11744 0
M  V30 1336 H 130.21 -2.02685 3.18947 0
M  V30 1337 H 130.523 -3.60355 6.8364 0
M  V30 1338 H 128.868 -3.24692 6.14492 0
M  V30 1339 H 132.059 -2.43912 3.9953 0
M  V30 1340 H 132.232 -3.15831 5.65822 0
M  V30 1341 N 125.638 -1.25649 -0.95132 0
M  V30 1342 C 126.863 -1.13443 -1.73624 0
M  V30 1343 C 127.288 0.307565 -1.85568 0
M  V30 1344 O 126.646 1.22282 -1.33854 0
M  V30 1345 C 126.694 -1.79723 -3.12621 0
M  V30 1346 O 125.798 -1.07912 -3.98031 0
M  V30 1347 H 125.139 -0.395872 -0.533086 0
M  V30 1348 H 127.669 -1.66276 -1.1922 0
M  V30 1349 H 127.679 -1.86141 -3.63064 0
M  V30 1350 H 126.354 -2.84633 -3.03244 0
M  V30 1351 H 124.931 -1.09398 -3.56492 0
M  V30 1352 N 127.117 1.15442 -1.07289 0
M  V30 1353 C 128.365 1.85845 -0.794096 0
M  V30 1354 C 128.686 1.82692 0.681809 0
M  V30 1355 O 127.956 1.26741 1.49377 0
M  V30 1356 H 126.536 0.688089 -0.290763 0
M  V30 1357 H 129.198 1.39947 -1.3565 0
M  V30 1358 H 128.294 2.91001 -1.12804 0
M  V30 1359 N 128.595 0.856903 1.32268 0
M  V30 1360 C 129.525 0.31858 2.31316 0
M  V30 1361 C 130.506 -0.583487 1.59779 0
M  V30 1362 O 131.691 -0.503259 1.87566 0
M  V30 1363 C 128.821 -0.491979 3.43798 0
M  V30 1364 C 127.775 0.315849 4.26833 0
M  V30 1365 C 127.101 -0.619586 5.31098 0
M  V30 1366 C 128.401 1.54282 4.98993 0
M  V30 1367 H 130.095 1.14621 2.76591 0
M  V30 1368 H 127.641 0.552613 1.32974 0
M  V30 1369 H 129.594 -0.879012 4.1213 0
M  V30 1370 H 128.318 -1.35299 2.97257 0
M  V30 1371 H 126.977 0.684664 3.6015 0
M  V30 1372 H 126.625 -1.47751 4.8081 0
M  V30 1373 H 126.325 -0.0830621 5.87541 0
M  V30 1374 H 127.849 -1.00375 6.02293 0
M  V30 1375 H 129.263 1.22796 5.59995 0
M  V30 1376 H 127.66 2.01745 5.65172 0
M  V30 1377 H 128.73 2.30285 4.26728 0
M  V30 1378 N 130.073 -1.45103 0.615059 0
M  V30 1379 C 131.005 -2.28786 -0.13762 0
M  V30 1380 C 132.018 -1.40376 -0.824525 0
M  V30 1381 O 133.207 -1.64681 -0.688662 0
M  V30 1382 C 130.307 -3.16322 -1.21628 0
M  V30 1383 C 129.48 -4.33054 -0.615039 0
M  V30 1384 C 128.539 -5.01743 -1.58556 0
M  V30 1385 O 127.565 -5.58293 -1.10895 0
M  V30 1386 N 128.767 -5.01714 -2.91998 0
M  V30 1387 H 131.532 -2.94025 0.580483 0
M  V30 1388 H 129.093 -1.55373 0.45507 0
M  V30 1389 H 131.085 -3.59139 -1.86552 0
M  V30 1390 H 129.655 -2.52943 -1.83681 0
M  V30 1391 H 128.875 -3.93627 0.21245 0
M  V30 1392 H 130.163 -5.08431 -0.193704 0
M  V30 1393 H 129.561 -4.57075 -3.33316 0
M  V30 1394 H 128.118 -5.48371 -3.52325 0
M  V30 1395 N 131.551 -0.354651 -1.53558 0
M  V30 1396 C 132.797 0.238797 -2.01389 0
M  V30 1397 C 133.13 1.49309 -1.2418 0
M  V30 1398 O 132.405 1.91638 -0.332457 0
M  V30 1399 C 132.688 0.541771 -3.56001 0
M  V30 1400 C 132.541 -0.725388 -4.43912 0
M  V30 1401 C 133.86 1.34685 -4.18984 0
M  V30 1402 H 130.979 0.0853177 -0.732045 0
M  V30 1403 H 133.621 -0.477384 -1.83905 0
M  V30 1404 H 131.771 1.15189 -3.71031 0
M  V30 1405 H 133.443 -1.36313 -4.407 0
M  V30 1406 H 131.686 -1.34801 -4.12324 0
M  V30 1407 H 132.357 -0.468505 -5.50008 0
M  V30 1408 H 134.833 0.830837 -4.07721 0
M  V30 1409 H 133.709 1.52759 -5.27215 0
M  V30 1410 H 133.97 2.35221 -3.74331 0
M  V30 1411 N 133.029 1.57378 -0.0835403 0
M  V30 1412 C 133.939 2.16897 0.894021 0
M  V30 1413 C 134.955 1.13528 1.31861 0
M  V30 1414 O 136.131 1.45848 1.3889 0
M  V30 1415 C 133.196 2.72831 2.13925 0
M  V30 1416 C 132.257 3.91115 1.76997 0
M  V30 1417 C 131.49 4.44371 2.95584 0
M  V30 1418 O 131.713 3.96596 4.09961 0
M  V30 1419 O 130.647 5.35549 2.74719 0
M  V30 1420 H 134.473 3.00814 0.417679 0
M  V30 1421 H 132.058 1.48741 0.140181 0
M  V30 1422 H 133.94 3.0863 2.86924 0
M  V30 1423 H 132.615 1.91967 2.60635 0
M  V30 1424 H 131.522 3.60148 1.01214 0
M  V30 1425 H 132.855 4.73307 1.3506 0
M  V30 1426 N 134.507 -0.190092 1.56449 0
M  V30 1427 C 135.784 -0.935886 1.71757 0
M  V30 1428 C 136.164 -2.01173 0.639726 0
M  V30 1429 O 135.512 -2.25827 -0.348502 0
M  V30 1430 C 135.722 -1.51775 3.1427 0
M  V30 1431 C 137.07 -1.99794 3.74656 0
M  V30 1432 O 138.094 -1.61607 3.1743 0
M  V30 1433 O 136.953 -2.70079 4.751 0
M  V30 1434 H 134.047 -0.439229 0.700719 0
M  V30 1435 H 136.593 -0.179395 1.68749 0
M  V30 1436 H 135.365 -0.742505 3.84191 0
M  V30 1437 H 134.988 -2.33894 3.21527 0
M  V30 1438 N 135.985 -1.50799 -0.457987 0
M  V30 1439 C 136.915 -1.73553 -1.5621 0
M  V30 1440 C 137.896 -0.584774 -1.59732 0
M  V30 1441 O 139.081 -0.825314 -1.7579 0
M  V30 1442 C 136.211 -1.84169 -2.94447 0
M  V30 1443 C 135.165 -2.99461 -3.0579 0
M  V30 1444 C 134.491 -2.95235 -4.45803 0
M  V30 1445 C 135.791 -4.39766 -2.81786 0
M  V30 1446 H 137.485 -2.66 -1.37421 0
M  V30 1447 H 135.031 -1.28002 -0.659662 0
M  V30 1448 H 136.984 -1.98672 -3.71628 0
M  V30 1449 H 135.708 -0.883545 -3.14422 0
M  V30 1450 H 134.367 -2.8463 -2.31044 0
M  V30 1451 H 134.015 -1.97239 -4.62715 0
M  V30 1452 H 133.715 -3.72642 -4.54326 0
M  V30 1453 H 135.239 -3.11803 -5.24987 0
M  V30 1454 H 136.653 -4.55054 -3.4871 0
M  V30 1455 H 135.05 -5.18722 -3.0174 0
M  V30 1456 H 136.12 -4.51229 -1.7754 0
M  V30 1457 N 137.463 0.71206 -1.40597 0
M  V30 1458 C 138.74 1.46536 -1.29563 0
M  V30 1459 C 139.12 2.10931 0.0844217 0
M  V30 1460 O 138.468 2.00418 1.0975 0
M  V30 1461 C 138.678 2.49821 -2.43701 0
M  V30 1462 C 140.026 3.15551 -2.841 0
M  V30 1463 O 141.05 2.60142 -2.4332 0
M  V30 1464 O 139.909 4.15867 -3.54566 0
M  V30 1465 H 137.003 0.651801 -0.509004 0
M  V30 1466 H 139.549 0.743935 -1.52524 0
M  V30 1467 H 138.321 2.00778 -3.35863 0
M  V30 1468 H 137.944 3.29495 -2.22528 0
M  V30 1469 N 138.941 1.26152 0.944643 0
M  V30 1470 C 140.357 1.03189 1.21754 0
M  V30 1471 C 140.557 -0.245112 2.00004 0
M  V30 1472 O 139.613 -0.955176 2.33736 0
M  V30 1473 C 140.926 2.26119 1.98219 0
M  V30 1474 C 142.474 2.30984 2.11224 0
M  V30 1475 C 142.949 3.53597 2.91089 0
M  V30 1476 N 144.44 3.54053 2.98664 0
M  V30 1477 C 145.175 4.45593 3.60881 0
M  V30 1478 N 144.671 5.47416 4.24626 0
M  V30 1479 N 146.464 4.33252 3.58119 0
M  V30 1480 H 138.615 2.08177 0.421437 0
M  V30 1481 H 140.878 0.914723 0.248969 0
M  V30 1482 H 140.584 3.18984 1.48128 0
M  V30 1483 H 140.458 2.3009 2.98895 0
M  V30 1484 H 142.845 1.38635 2.60508 0
M  V30 1485 H 142.926 2.31026 1.09821 0
M  V30 1486 H 142.57 4.46273 2.42493 0
M  V30 1487 H 142.5 3.50802 3.92741 0
M  V30 1488 H 144.991 2.80403 2.53343 0
M  V30 1489 H 145.304 6.13459 4.69987 0
M  V30 1490 H 143.649 5.51278 4.23223 0
M  V30 1491 H 146.84 3.52924 3.0751 0
M  V30 1492 H 147.013 5.04786 4.06319 0
M  V30 1493 N 140.419 -1.14872 1.07899 0
M  V30 1494 C 141.349 -2.2193 0.725887 0
M  V30 1495 C 142.33 -1.67622 -0.28927 0
M  V30 1496 O 143.515 -1.93533 -0.160787 0
M  V30 1497 C 140.645 -3.47061 0.128856 0
M  V30 1498 C 139.599 -4.14363 1.07178 0
M  V30 1499 C 138.925 -5.33636 0.337229 0
M  V30 1500 C 140.225 -4.63492 2.40775 0
M  V30 1501 H 141.919 -2.51724 1.62097 0
M  V30 1502 H 139.465 -1.20991 0.780838 0
M  V30 1503 H 141.418 -4.21199 -0.130147 0
M  V30 1504 H 140.142 -3.16617 -0.80134 0
M  V30 1505 H 138.801 -3.42173 1.3158 0
M  V30 1506 H 138.449 -4.99449 -0.596606 0
M  V30 1507 H 138.149 -5.79609 0.965788 0
M  V30 1508 H 139.673 -6.10539 0.0861567 0
M  V30 1509 H 141.087 -5.2913 2.20669 0
M  V30 1510 H 139.484 -5.20148 2.99276 0
M  V30 1511 H 140.554 -3.78834 3.02676 0
M  V30 1512 N 141.898 -0.863906 -1.31812 0
M  V30 1513 C 142.846 -0.30422 -2.30602 0
M  V30 1514 C 143.84 0.577419 -1.59255 0
M  V30 1515 O 145.046 0.464194 -1.73912 0
M  V30 1516 H 141.421 -0.0796877 -0.747766 0
M  V30 1517 H 143.392 -1.15148 -2.75288 0
M  V30 1518 C 142.141 0.484617 -3.44306 0
M  V30 1519 H 141.464 -0.18451 -3.99374 0
M  V30 1520 H 142.904 0.841664 -4.15562 0
M  V30 1521 C 141.363 1.6735 -2.92396 0
M  V30 1522 O 141.893 2.77273 -2.90659 0
M  V30 1523 N 140.099 1.50362 -2.48676 0
M  V30 1524 H 139.646 0.609402 -2.50288 0
M  V30 1525 H 139.604 2.30051 -2.14299 0
M  V30 1526 N 143.376 1.44774 -0.622745 0
M  V30 1527 C 144.625 2.01334 -0.121397 0
M  V30 1528 C 144.938 1.49505 1.26125 0
M  V30 1529 O 146.144 1.98139 1.85616 0
M  V30 1530 C 144.6 3.59516 -0.166298 0
M  V30 1531 C 144.208 4.20342 -1.54974 0
M  V30 1532 C 145.952 4.23582 0.279021 0
M  V30 1533 C 143.859 5.70721 -1.55021 0
M  V30 1534 H 142.789 0.752851 -0.0416172 0
M  V30 1535 H 145.44 1.66083 -0.780309 0
M  V30 1536 H 143.822 3.92027 0.559557 0
M  V30 1537 H 144.996 3.99381 -2.29851 0
M  V30 1538 H 143.311 3.68529 -1.93843 0
M  V30 1539 H 145.908 5.33868 0.298083 0
M  V30 1540 H 146.251 3.95327 1.30471 0
M  V30 1541 H 146.784 3.95843 -0.394063 0
M  V30 1542 H 143.523 6.03698 -2.55399 0
M  V30 1543 H 143.043 5.93829 -0.844245 0
M  V30 1544 H 144.722 6.34203 -1.28047 0
M  V30 1545 N 144.854 0.36279 1.53368 0
M  V30 1546 C 146.103 -0.22888 2.00397 0
M  V30 1547 C 146.416 -1.50096 1.25421 0
M  V30 1548 O 147.622 -2.17106 1.63025 0
M  V30 1549 C 146.078 -0.458417 3.56969 0
M  V30 1550 C 145.686 0.798877 4.4082 0
M  V30 1551 C 147.43 -1.00789 4.12361 0
M  V30 1552 C 145.337 0.539078 5.88938 0
M  V30 1553 H 144.267 -0.089305 0.748693 0
M  V30 1554 H 146.918 0.481099 1.77081 0
M  V30 1555 H 145.3 -1.22959 3.76427 0
M  V30 1556 H 146.474 1.57262 4.33134 0
M  V30 1557 H 144.789 1.27137 3.96516 0
M  V30 1558 H 147.386 -1.21754 5.20653 0
M  V30 1559 H 147.729 -1.9692 3.66781 0
M  V30 1560 H 148.262 -0.296961 3.9669 0
M  V30 1561 H 145.001 1.47064 6.3879 0
M  V30 1562 H 144.521 -0.196222 5.99479 0
M  V30 1563 H 146.2 0.163542 6.46793 0
M  V30 1564 N 146.332 -1.57332 0.0918853 0
M  V30 1565 C 147.282 -2.10385 -0.87876 0
M  V30 1566 C 148.266 -1.01814 -1.24591 0
M  V30 1567 O 149.458 -1.28093 -1.22152 0
M  V30 1568 C 146.587 -2.68517 -2.13901 0
M  V30 1569 C 145.673 -3.84126 -1.79744 0
M  V30 1570 N 146.064 -4.92288 -1.1613 0
M  V30 1571 C 144.362 -3.93801 -2.09373 0
M  V30 1572 C 145.063 -5.7295 -1.00513 0
M  V30 1573 N 144.039 -5.21876 -1.5214 0
M  V30 1574 H 147.841 -2.91395 -0.38293 0
M  V30 1575 H 145.355 -1.62017 -0.111423 0
M  V30 1576 H 147.352 -3.04852 -2.84378 0
M  V30 1577 H 146.012 -1.88961 -2.64053 0
M  V30 1578 H 147.023 -5.1123 -0.828504 0
M  V30 1579 H 143.7 -3.25249 -2.61762 0
M  V30 1580 H 145.09 -6.69978 -0.507902 0
M  V30 1581 N 147.81 0.181792 -1.56548 0
M  V30 1582 C 149.056 0.901431 -1.81665 0
M  V30 1583 C 149.389 1.82347 -0.668075 0
M  V30 1584 O 148.664 1.91669 0.330615 0
M  V30 1585 C 148.947 1.70618 -3.17115 0
M  V30 1586 C 148.8 0.807964 -4.42484 0
M  V30 1587 C 150.119 2.67605 -3.49393 0
M  V30 1588 H 147.238 0.32627 -0.660846 0
M  V30 1589 H 149.88 0.168134 -1.89255 0
M  V30 1590 H 148.03 2.33133 -3.10775 0
M  V30 1591 H 149.702 0.19649 -4.60881 0
M  V30 1592 H 147.945 0.115411 -4.33646 0
M  V30 1593 H 148.616 1.40632 -5.33785 0
M  V30 1594 H 151.092 2.15218 -3.56118 0
M  V30 1595 H 149.968 3.20985 -4.45264 0
M  V30 1596 H 150.229 3.47298 -2.73563 0
M  V30 1597 N 149.288 1.51039 0.449983 0
M  V30 1598 C 150.516 1.66869 1.2232 0
M  V30 1599 C 150.931 0.360727 1.85322 0
M  V30 1600 O 150.288 -0.659531 1.70166 0
M  V30 1601 C 150.339 2.77524 2.31652 0
M  V30 1602 O 150.06 4.03252 1.7123 0
M  V30 1603 C 151.561 3.04512 3.2216 0
M  V30 1604 H 148.781 0.560326 0.369155 0
M  V30 1605 H 151.325 1.97385 0.534719 0
M  V30 1606 H 149.48 2.49642 2.96239 0
M  V30 1607 H 149.894 4.64609 2.43389 0
M  V30 1608 H 151.368 3.85551 3.95038 0
M  V30 1609 H 151.845 2.16415 3.8218 0
M  V30 1610 H 152.451 3.34005 2.63288 0
M  V30 1611 N 150.766 -0.704594 1.40972 0
M  V30 1612 C 152.014 -1.46169 1.39568 0
M  V30 1613 C 152.335 -1.95 0.00253745 0
M  V30 1614 O 151.605 -1.71095 -0.954114 0
M  V30 1615 H 150.185 -0.542326 0.513704 0
M  V30 1616 H 152.847 -0.834553 1.76128 0
M  V30 1617 H 151.943 -2.32922 2.07735 0
M  V30 1618 N 152.244 -1.26651 -0.937939 0
M  V30 1619 C 153.472 -1.15173 -1.7188 0
M  V30 1620 C 153.887 0.292668 -1.86518 0
M  V30 1621 O 153.244 1.20014 -1.37488 0
M  V30 1622 C 153.295 -1.81925 -3.12387 0
M  V30 1623 O 153.016 -3.2072 -2.98446 0
M  V30 1624 C 154.517 -1.76442 -4.06673 0
M  V30 1625 H 151.737 -0.400911 -0.538063 0
M  V30 1626 H 154.281 -1.67332 -1.1756 0
M  V30 1627 H 152.436 -1.33696 -3.63599 0
M  V30 1628 H 152.85 -3.53802 -3.872 0
M  V30 1629 H 154.324 -2.27781 -5.02812 0
M  V30 1630 H 154.801 -0.731608 -4.33064 0
M  V30 1631 H 155.407 -2.24238 -3.61382 0
M  V30 1632 N 153.722 1.14298 -1.08507 0
M  V30 1633 C 154.669 2.19414 -0.715965 0
M  V30 1634 C 155.639 1.63399 0.298326 0
M  V30 1635 O 156.824 1.89929 0.182101 0
M  V30 1636 C 153.964 3.44845 -0.132534 0
M  V30 1637 C 153.077 4.15007 -1.19973 0
M  V30 1638 C 152.212 5.28024 -0.580048 0
M  V30 1639 C 151.251 5.9002 -1.62921 0
M  V30 1640 N 150.388 6.94485 -1.03125 0
M  V30 1641 H 155.228 2.50336 -1.61666 0
M  V30 1642 H 152.765 1.2293 -0.807882 0
M  V30 1643 H 154.723 4.16601 0.223454 0
M  V30 1644 H 153.353 3.14403 0.731467 0
M  V30 1645 H 152.405 3.41629 -1.67313 0
M  V30 1646 H 153.717 4.57178 -1.99473 0
M  V30 1647 H 152.871 6.06455 -0.172364 0
M  V30 1648 H 151.61 4.87076 0.246603 0
M  V30 1649 H 150.615 5.10291 -2.04654 0
M  V30 1650 H 151.84 6.33042 -2.45835 0
M  V30 1651 H 149.786 6.55612 -0.225711 0
M  V30 1652 H 149.703 7.35148 -1.76334 0
M  V30 1653 H 150.971 7.7679 -0.649458 0
M  V30 1654 N 155.201 0.870884 1.31352 0
M  V30 1655 C 156.449 0.48132 1.96285 0
M  V30 1656 C 156.77 -0.969813 1.69173 0
M  V30 1657 O 156.04 -1.67998 1.00764 0
M  V30 1658 H 154.62 0.175002 0.726212 0
M  V30 1659 H 157.282 1.11087 1.60143 0
M  V30 1660 H 156.378 0.639825 3.05471 0
M  V30 1661 N 156.679 -1.44442 0.630414 0
M  V30 1662 C 157.626 -2.30678 -0.0749355 0
M  V30 1663 C 158.596 -1.4344 -0.837502 0
M  V30 1664 O 159.781 -1.72343 -0.818684 0
M  V30 1665 C 156.921 -3.28706 -1.05103 0
M  V30 1666 C 156.034 -4.31046 -0.286954 0
M  V30 1667 C 155.169 -5.16167 -1.2548 0
M  V30 1668 C 154.208 -6.10216 -0.479843 0
M  V30 1669 N 153.345 -6.88039 -1.39811 0
M  V30 1670 H 158.185 -2.90454 0.666386 0
M  V30 1671 H 155.722 -1.43107 0.340404 0
M  V30 1672 H 157.68 -3.84027 -1.63031 0
M  V30 1673 H 156.31 -2.70632 -1.75949 0
M  V30 1674 H 155.362 -3.78203 0.408243 0
M  V30 1675 H 156.674 -4.97794 0.316657 0
M  V30 1676 H 155.828 -5.76002 -1.90544 0
M  V30 1677 H 154.567 -4.49491 -1.89233 0
M  V30 1678 H 153.572 -5.49491 0.184295 0
M  V30 1679 H 154.797 -6.78928 0.152965 0
M  V30 1680 H 152.743 -6.24032 -2.02287 0
M  V30 1681 H 152.66 -7.51223 -0.848508 0
M  V30 1682 H 153.928 -7.52397 -2.03762 0
M  V30 1683 N 158.157 -0.370918 -1.53173 0
M  V30 1684 C 159.405 0.216673 -2.00935 0
M  V30 1685 C 159.726 1.48845 -1.25977 0
M  V30 1686 O 158.996 1.92286 -0.374551 0
M  V30 1687 H 157.576 0.0830565 -0.742368 0
M  V30 1688 H 160.238 -0.49838 -1.8842 0
M  V30 1689 H 159.334 0.439893 -3.08984 0
M  V30 1690 N 159.635 1.57281 -0.100228 0
M  V30 1691 C 160.86 1.99302 0.573881 0
M  V30 1692 C 161.285 0.979059 1.60611 0
M  V30 1693 O 160.643 -0.0517803 1.81226 0
M  V30 1694 C 160.691 3.40274 1.19358 0
M  V30 1695 O 159.795 3.41676 2.30935 0
M  V30 1696 H 159.136 0.647944 0.145138 0
M  V30 1697 H 161.666 2.03779 -0.183156 0
M  V30 1698 H 161.676 3.78078 1.53365 0
M  V30 1699 H 160.351 4.13594 0.437385 0
M  V30 1700 H 158.928 3.15672 1.98509 0
M  V30 1701 N 161.113 -0.173488 1.56642 0
M  V30 1702 C 162.341 -0.906095 1.86004 0
M  V30 1703 C 162.756 -1.75921 0.685355 0
M  V30 1704 O 162.113 -1.79198 -0.345578 0
M  V30 1705 C 162.164 -1.78462 3.14378 0
M  V30 1706 O 161.885 -0.965914 4.27319 0
M  V30 1707 C 163.386 -2.62707 3.57071 0
M  V30 1708 H 160.606 -0.263341 0.617165 0
M  V30 1709 H 163.15 -0.174236 2.03756 0
M  V30 1710 H 161.305 -2.46984 2.98459 0
M  V30 1711 H 161.719 -1.56655 5.00559 0
M  V30 1712 H 163.193 -3.19969 4.49804 0
M  V30 1713 H 163.67 -3.37472 2.81086 0
M  V30 1714 H 164.276 -1.99521 3.75595 0
M  V30 1715 N 162.591 -1.51276 -0.441967 0
M  V30 1716 C 163.831 -1.65372 -1.20132 0
M  V30 1717 C 164.195 -0.359871 -1.88597 0
M  V30 1718 O 165.396 -0.376551 -2.66149 0
M  V30 1719 C 163.667 -2.8207 -2.1948 0
M  V30 1720 S 165.226 -3.16467 -3.03964 0
M  V30 1721 H 162.044 -0.582669 -0.407453 0
M  V30 1722 H 164.646 -1.89166 -0.493609 0
M  V30 1723 H 163.35 -3.74523 -1.67812 0
M  V30 1724 H 162.881 -2.6045 -2.94838 0
M  V30 1725 H 164.896 -2.62543 -4.21053 0
M  V30 1726 N 164.069 0.697108 -1.41344 0
M  V30 1727 C 165.032 1.79281 -1.42797 0
M  V30 1728 C 166.032 1.57607 -0.318837 0
M  V30 1729 O 167.222 1.64309 -0.578642 0
M  V30 1730 C 164.354 3.17632 -1.23785 0
M  V30 1731 H 165.547 1.79385 -2.40335 0
M  V30 1732 H 163.1 0.904582 -1.27464 0
M  V30 1733 H 163.835 3.23167 -0.270814 0
M  V30 1734 H 163.62 3.34765 -2.04144 0
M  V30 1735 H 165.11 3.97617 -1.27633 0
M  V30 1736 N 165.547 1.27147 0.931209 0
M  V30 1737 C 166.794 1.13278 1.67852 0
M  V30 1738 C 167.122 -0.32204 1.91815 0
M  V30 1739 O 166.377 -1.25224 1.50391 0
M  V30 1740 C 166.676 1.8579 3.05314 0
M  V30 1741 C 166.342 3.35657 3.01073 0
M  V30 1742 C 165.004 3.76536 2.99623 0
M  V30 1743 C 167.356 4.31299 2.92627 0
M  V30 1744 C 164.684 5.11426 2.87506 0
M  V30 1745 C 167.036 5.66242 2.82051 0
M  V30 1746 C 165.7 6.06418 2.7895 0
M  V30 1747 H 164.97 0.414515 0.614214 0
M  V30 1748 H 167.617 1.57712 1.08624 0
M  V30 1749 H 165.922 1.33854 3.68226 0
M  V30 1750 H 167.619 1.72491 3.62005 0
M  V30 1751 H 164.209 3.03146 3.02986 0
M  V30 1752 H 168.393 4.00692 2.92848 0
M  V30 1753 H 163.649 5.41705 2.83489 0
M  V30 1754 H 167.823 6.40026 2.74481 0
M  V30 1755 H 165.45 7.10895 2.69318 0
M  V30 1756 N 167.025 -1.13721 1.09112 0
M  V30 1757 C 168.253 -1.88773 0.846899 0
M  V30 1758 C 168.668 -1.7896 -0.601572 0
M  V30 1759 O 168.025 -1.15394 -1.41388 0
M  V30 1760 C 168.076 -3.3849 1.26913 0
M  V30 1761 O 167.797 -3.48043 2.66079 0
M  V30 1762 C 169.298 -4.30518 1.05682 0
M  V30 1763 H 166.518 -0.59772 0.304914 0
M  V30 1764 H 169.062 -1.43977 1.45227 0
M  V30 1765 H 167.217 -3.80881 0.707723 0
M  V30 1766 H 167.631 -4.4109 2.83795 0
M  V30 1767 H 169.105 -5.3391 1.40156 0
M  V30 1768 H 169.582 -4.392 -0.00563416 0
M  V30 1769 H 170.188 -3.93893 1.60402 0
M  V30 1770 N 168.503 -0.877838 -1.30888 0
M  V30 1771 C 169.413 -0.343096 -2.32078 0
M  V30 1772 C 170.429 0.551022 -1.65045 0
M  V30 1773 O 171.605 0.445854 -1.96403 0
M  V30 1774 C 168.67 0.439905 -3.43898 0
M  V30 1775 C 167.731 -0.483111 -4.26573 0
M  V30 1776 C 166.964 0.262616 -5.33053 0
M  V30 1777 O 167.187 1.48967 -5.50604 0
M  V30 1778 O 166.121 -0.383593 -6.00676 0
M  V30 1779 H 169.947 -1.18203 -2.79753 0
M  V30 1780 H 167.532 -0.64145 -1.34929 0
M  V30 1781 H 169.414 0.883504 -4.12034 0
M  V30 1782 H 168.089 1.25526 -2.98371 0
M  V30 1783 H 166.996 -0.975374 -3.61161 0
M  V30 1784 H 168.329 -1.26427 -4.75686 0
M  V30 1785 N 169.982 1.44106 -0.638065 0
M  V30 1786 C 171.222 2.03858 -0.148733 0
M  V30 1787 C 171.586 1.49153 1.20903 0
M  V30 1788 O 172.787 2.00452 1.79088 0
M  V30 1789 C 171.058 3.57117 -0.142314 0
M  V30 1790 S 172.617 4.37897 0.281385 0
M  V30 1791 H 169.435 0.708069 -0.0644912 0
M  V30 1792 H 172.037 1.7639 -0.843009 0
M  V30 1793 H 170.741 3.94436 -1.13349 0
M  V30 1794 H 170.272 3.89205 0.572988 0
M  V30 1795 H 172.287 4.72218 1.52395 0
M  V30 1796 N 171.46 0.379036 1.52974 0
M  V30 1797 C 172.709 -0.207612 2.00629 0
M  V30 1798 C 173.022 -1.48758 1.27006 0
M  V30 1799 O 174.228 -2.15365 1.65318 0
M  V30 1800 C 172.684 -0.42053 3.57435 0
M  V30 1801 C 172.292 0.845587 4.39948 0
M  V30 1802 C 174.036 -0.964102 4.13407 0
M  V30 1803 C 171.943 0.601513 5.88333 0
M  V30 1804 H 170.873 -0.0813591 0.749598 0
M  V30 1805 H 173.524 0.499853 1.76561 0
M  V30 1806 H 171.906 -1.18959 3.7771 0
M  V30 1807 H 173.08 1.61848 4.31442 0
M  V30 1808 H 171.395 1.31336 3.95145 0
M  V30 1809 H 173.992 -1.16225 5.21916 0
M  V30 1810 H 174.335 -1.93019 3.68849 0
M  V30 1811 H 174.868 -0.25487 3.96983 0
M  V30 1812 H 171.607 1.53831 6.37194 0
M  V30 1813 H 171.127 -0.132628 5.99653 0
M  V30 1814 H 172.806 0.232134 6.46583 0
M  V30 1815 N 172.938 -1.57226 0.108567 0
M  V30 1816 C 173.868 -2.17778 -0.84232 0
M  V30 1817 C 174.849 -1.11487 -1.2847 0
M  V30 1818 O 176.034 -1.39681 -1.34918 0
M  V30 1819 C 173.164 -2.76888 -2.09644 0
M  V30 1820 C 172.118 -3.88669 -1.79221 0
M  V30 1821 C 171.444 -4.34541 -3.11574 0
M  V30 1822 C 172.744 -5.11251 -1.06864 0
M  V30 1823 H 174.438 -2.97489 -0.337774 0
M  V30 1824 H 171.984 -1.43097 -0.161025 0
M  V30 1825 H 173.937 -3.17904 -2.76614 0
M  V30 1826 H 172.661 -1.94451 -2.62405 0
M  V30 1827 H 171.32 -3.48213 -1.14644 0
M  V30 1828 H 170.968 -3.48977 -3.62249 0
M  V30 1829 H 170.668 -5.09914 -2.91996 0
M  V30 1830 H 172.192 -4.782 -3.7968 0
M  V30 1831 H 173.606 -5.49352 -1.63968 0
M  V30 1832 H 172.003 -5.9214 -0.974178 0
M  V30 1833 H 173.073 -4.8487 -0.0536168 0
M  V30 1834 N 174.416 0.165178 -1.56732 0
M  V30 1835 C 175.832 0.517174 -1.50988 0
M  V30 1836 C 176.032 1.84331 -0.813894 0
M  V30 1837 O 175.088 2.49672 -0.37682 0
M  V30 1838 C 176.401 0.544261 -2.95733 0
M  V30 1839 C 177.949 0.631039 -3.06573 0
M  V30 1840 C 178.424 0.68896 -4.52788 0
M  V30 1841 N 179.915 0.751683 -4.5706 0
M  V30 1842 C 180.65 0.817177 -5.67547 0
M  V30 1843 N 180.146 0.843129 -6.8765 0
M  V30 1844 N 181.939 0.856668 -5.55534 0
M  V30 1845 H 174.09 -0.704318 -2.00382 0
M  V30 1846 H 176.353 -0.254687 -0.913148 0
M  V30 1847 H 176.059 -0.361607 -3.49836 0
M  V30 1848 H 175.933 1.3886 -3.5071 0
M  V30 1849 H 178.32 1.52733 -2.52501 0
M  V30 1850 H 178.401 -0.240095 -2.54671 0
M  V30 1851 H 178.045 -0.2031 -5.07494 0
M  V30 1852 H 177.975 1.57633 -5.02454 0
M  V30 1853 H 180.466 0.739661 -3.70591 0
M  V30 1854 H 180.779 0.894448 -7.67606 0
M  V30 1855 H 179.124 0.811304 -6.90248 0
M  V30 1856 H 182.315 0.833437 -4.60621 0
M  V30 1857 H 182.488 0.904247 -6.4166 0
M  V30 1858 N 175.894 1.51508 0.433938 0
M  V30 1859 C 177.119 1.68443 1.21003 0
M  V30 1860 C 177.544 0.382636 1.84167 0
M  V30 1861 O 176.902 -0.65755 1.68956 0
M  V30 1862 C 176.95 2.80405 2.26727 0
M  V30 1863 O 176.054 2.44245 3.32292 0
M  V30 1864 H 175.395 0.561536 0.354363 0
M  V30 1865 H 177.925 1.9809 0.512024 0
M  V30 1866 H 177.935 3.0459 2.71457 0
M  V30 1867 H 176.61 3.74867 1.80132 0
M  V30 1868 H 175.187 2.30644 2.93015 0
M  V30 1869 N 177.372 -0.689602 1.41712 0
M  V30 1870 C 178.602 -1.47613 1.44548 0
M  V30 1871 C 179.01 -1.89132 0.0509034 0
M  V30 1872 O 178.353 -1.57741 -0.94146 0
M  V30 1873 C 178.415 -2.76596 2.2964 0
M  V30 1874 C 178.079 -2.57245 3.77722 0
M  V30 1875 C 179.076 -2.22804 4.69739 0
M  V30 1876 C 176.761 -2.727 4.2183 0
M  V30 1877 C 178.755 -2.04064 6.03851 0
M  V30 1878 C 176.442 -2.53576 5.56006 0
M  V30 1879 C 177.44 -2.1931 6.46832 0
M  V30 1880 O 177.128 -2.00359 7.78532 0
M  V30 1881 H 176.86 -0.461227 0.494212 0
M  V30 1882 H 179.414 -0.856045 1.86711 0
M  V30 1883 H 177.644 -3.41033 1.82301 0
M  V30 1884 H 179.333 -3.38424 2.24107 0
M  V30 1885 H 180.099 -2.10473 4.36951 0
M  V30 1886 H 175.978 -2.98353 3.51435 0
M  V30 1887 H 179.522 -1.77241 6.74708 0
M  V30 1888 H 175.419 -2.65499 5.88371 0
M  V30 1889 H 176.187 -2.15075 7.89737 0
M  V30 1890 N 178.85 -1.27639 -0.924453 0
M  V30 1891 C 180.098 -1.13941 -1.66918 0
M  V30 1892 C 180.419 0.314589 -1.92446 0
M  V30 1893 O 179.689 1.21964 -1.53303 0
M  V30 1894 H 178.269 -0.418678 -0.618642 0
M  V30 1895 H 180.931 -1.60213 -1.10985 0
M  V30 1896 H 180.027 -1.67094 -2.63602 0
M  V30 1897 N 180.328 1.1314 -1.09713 0
M  V30 1898 C 181.258 2.20748 -0.761102 0
M  V30 1899 C 182.239 1.68061 0.262566 0
M  V30 1900 O 183.424 1.93765 0.129977 0
M  V30 1901 C 180.554 3.46812 -0.184054 0
M  V30 1902 C 179.508 4.12606 -1.13757 0
M  V30 1903 C 178.834 5.33031 -0.422083 0
M  V30 1904 C 180.134 4.59603 -2.48118 0
M  V30 1905 H 181.828 2.49113 -1.66082 0
M  V30 1906 H 179.374 1.19734 -0.799987 0
M  V30 1907 H 181.327 4.21353 0.0631215 0
M  V30 1908 H 180.051 3.17851 0.750868 0
M  V30 1909 H 178.71 3.40036 -1.37007 0
M  V30 1910 H 178.358 5.00335 0.517072 0
M  V30 1911 H 178.058 5.77999 -1.05788 0
M  V30 1912 H 179.582 6.10325 -0.183277 0
M  V30 1913 H 180.996 5.25552 -2.29059 0
M  V30 1914 H 179.393 5.15321 -3.07514 0
M  V30 1915 H 180.463 3.73971 -3.08665 0
M  V30 1916 N 181.806 0.884767 1.30421 0
M  V30 1917 C 182.753 0.349642 2.28136 0
M  V30 1918 C 183.723 -0.560061 1.56373 0
M  V30 1919 O 184.908 -0.488524 1.8444 0
M  V30 1920 C 182.048 -0.42999 3.42411 0
M  V30 1921 C 181.161 0.508907 4.28992 0
M  V30 1922 C 180.296 -0.286301 5.30428 0
M  V30 1923 C 179.335 0.648079 6.08659 0
M  V30 1924 N 178.472 -0.111792 7.02011 0
M  V30 1925 H 183.312 1.18807 2.73293 0
M  V30 1926 H 180.849 0.597231 1.3443 0
M  V30 1927 H 182.807 -0.897923 4.07423 0
M  V30 1928 H 181.437 -1.23299 2.98324 0
M  V30 1929 H 180.489 1.09533 3.64289 0
M  V30 1930 H 181.801 1.22475 4.8353 0
M  V30 1931 H 180.955 -0.816098 6.01186 0
M  V30 1932 H 179.694 -1.03536 4.76583 0
M  V30 1933 H 178.699 1.18951 5.36778 0
M  V30 1934 H 179.924 1.39623 6.64592 0
M  V30 1935 H 177.87 -0.843395 6.50556 0
M  V30 1936 H 177.787 0.544429 7.54037 0
M  V30 1937 H 179.055 -0.622339 7.77012 0
M  V30 1938 N 183.284 -1.43765 0.645699 0
M  V30 1939 C 184.512 -2.06253 0.163556 0
M  V30 1940 C 184.927 -1.48352 -1.16778 0
M  V30 1941 O 184.284 -0.611932 -1.71935 0
M  V30 1942 C 184.335 -3.61453 0.0583186 0
M  V30 1943 O 184.056 -4.172 1.33702 0
M  V30 1944 C 185.557 -4.41002 -0.450795 0
M  V30 1945 H 182.777 -0.665413 0.0864077 0
M  V30 1946 H 185.321 -1.84396 0.884222 0
M  V30 1947 H 183.476 -3.82522 -0.612865 0
M  V30 1948 H 183.89 -5.10791 1.19131 0
M  V30 1949 H 185.364 -5.49966 -0.473403 0
M  V30 1950 H 185.841 -4.13488 -1.48068 0
M  V30 1951 H 186.447 -4.24886 0.187637 0
M  V30 1952 N 184.763 -0.387143 -1.52771 0
M  V30 1953 C 186.011 0.195349 -2.01154 0
M  V30 1954 C 186.332 1.475 -1.27549 0
M  V30 1955 O 185.602 1.91878 -0.394924 0
M  V30 1956 H 184.182 0.075178 -0.743207 0
M  V30 1957 H 186.844 -0.518337 -1.87881 0
M  V30 1958 H 185.94 0.407096 -3.09434 0
M  V30 1959 N 186.241 1.57166 -0.116904 0
M  V30 1960 C 187.488 1.95123 0.541603 0
M  V30 1961 C 187.816 1.00006 1.6682 0
M  V30 1962 O 187.071 0.0235658 1.95686 0
M  V30 1963 C 187.37 3.39508 1.11664 0
M  V30 1964 C 187.036 4.50762 0.111606 0
M  V30 1965 C 185.698 4.80918 -0.164758 0
M  V30 1966 C 188.05 5.18036 -0.573438 0
M  V30 1967 C 185.378 5.75666 -1.13249 0
M  V30 1968 C 187.73 6.13824 -1.52978 0
M  V30 1969 C 186.394 6.42374 -1.81415 0
M  V30 1970 H 185.664 0.714005 0.198187 0
M  V30 1971 H 188.311 1.9048 -0.197365 0
M  V30 1972 H 186.616 3.40835 1.93232 0
M  V30 1973 H 188.313 3.66189 1.63422 0
M  V30 1974 H 184.903 4.27272 0.337192 0
M  V30 1975 H 189.087 4.94896 -0.373092 0
M  V30 1976 H 184.343 5.96092 -1.35958 0
M  V30 1977 H 188.517 6.65039 -2.06629 0
M  V30 1978 H 186.144 7.15599 -2.56557 0
M  V30 1979 N 187.719 -0.156864 1.56817 0
M  V30 1980 C 188.966 -0.871125 1.82805 0
M  V30 1981 C 189.294 -1.81611 0.696262 0
M  V30 1982 O 188.549 -1.93141 -0.315459 0
M  V30 1983 C 188.848 -1.68737 3.1506 0
M  V30 1984 C 188.514 -0.890045 4.42028 0
M  V30 1985 C 187.176 -0.670042 4.76512 0
M  V30 1986 C 189.528 -0.331769 5.20143 0
M  V30 1987 C 186.856 0.119104 5.86579 0
M  V30 1988 C 189.208 0.444365 6.31037 0
M  V30 1989 C 187.872 0.675035 6.64078 0
M  V30 1990 H 187.142 -0.318767 0.668931 0
M  V30 1991 H 189.789 -0.135274 1.91022 0
M  V30 1992 H 188.094 -2.49304 3.0225 0
M  V30 1993 H 189.791 -2.24331 3.3238 0
M  V30 1994 H 186.381 -1.07157 4.14988 0
M  V30 1995 H 190.565 -0.489043 4.93885 0
M  V30 1996 H 185.821 0.307417 6.10627 0
M  V30 1997 H 189.995 0.884139 6.90765 0
M  V30 1998 H 187.622 1.28839 7.49203 0
M  V30 1999 N 189.197 -1.51736 -0.425897 0
M  V30 2000 C 190.422 -1.69082 -1.20108 0
M  V30 2001 C 190.847 -0.392398 -1.83962 0
M  V30 2002 O 190.205 0.64858 -1.69302 0
M  V30 2003 C 190.253 -2.81604 -2.25237 0
M  V30 2004 O 189.357 -2.46004 -3.30992 0
M  V30 2005 H 188.698 -0.563408 -0.35138 0
M  V30 2006 H 191.228 -1.98358 -0.501512 0
M  V30 2007 H 191.238 -3.06025 -2.69838 0
M  V30 2008 H 189.913 -3.75817 -1.78142 0
M  V30 2009 H 188.49 -2.32195 -2.91787 0
M  V30 2010 N 190.675 0.682077 -1.42076 0
M  V30 2011 C 191.9 1.47558 -1.45744 0
M  V30 2012 C 192.325 1.87977 -0.0680981 0
M  V30 2013 O 191.683 1.55522 0.9318 0
M  V30 2014 C 191.731 2.70575 -2.38373 0
M  V30 2015 O 190.835 3.68573 -1.85007 0
M  V30 2016 H 190.176 0.443585 -0.494093 0
M  V30 2017 H 192.706 0.837238 -1.86686 0
M  V30 2018 H 192.716 3.18729 -2.54707 0
M  V30 2019 H 191.391 2.40495 -3.39315 0
M  V30 2020 H 189.968 3.2757 -1.78192 0
M  V30 2021 N 192.153 1.28127 0.917671 0
M  V30 2022 C 193.564 1.13622 1.48145 0
M  V30 2023 C 193.915 -0.275207 1.9426 0
M  V30 2024 O 193.04 -1.1691 1.82102 0
M  V30 2025 C 193.635 2.05648 2.69248 0
M  V30 2026 C 192.194 1.95219 3.21818 0
M  V30 2027 C 191.341 1.97618 1.94532 0
M  V30 2028 H 194.292 1.40874 0.730772 0
M  V30 2029 H 194.313 1.61818 3.44377 0
M  V30 2030 H 193.825 3.08365 2.35653 0
M  V30 2031 H 191.926 0.955244 3.60147 0
M  V30 2032 H 192.039 2.81976 3.87333 0
M  V30 2033 H 190.403 1.41973 2.11461 0
M  V30 2034 H 191.186 3.02007 1.63238 0
M  V30 2035 N 193.631 -1.12557 1.10312 0
M  V30 2036 C 194.581 -2.16331 0.720076 0
M  V30 2037 C 195.565 -1.58616 -0.270115 0
M  V30 2038 O 196.757 -1.76823 -0.0790507 0
M  V30 2039 C 193.886 -3.42963 0.152113 0
M  V30 2040 C 192.972 -4.07663 1.16927 0
M  V30 2041 N 193.363 -4.47392 2.35953 0
M  V30 2042 C 191.661 -4.34425 1.0095 0
M  V30 2043 C 192.362 -4.97932 3.0073 0
M  V30 2044 N 191.338 -4.93358 2.28252 0
M  V30 2045 H 195.14 -2.44813 1.62616 0
M  V30 2046 H 192.654 -1.29449 0.980654 0
M  V30 2047 H 194.651 -4.16664 -0.14037 0
M  V30 2048 H 193.311 -3.1595 -0.748701 0
M  V30 2049 H 194.322 -4.39802 2.73486 0
M  V30 2050 H 190.999 -4.17177 0.164134 0
M  V30 2051 H 192.389 -5.38397 4.01969 0
M  V30 2052 N 195.109 -0.891671 -1.2995 0
M  V30 2053 C 196.039 -0.379797 -2.30391 0
M  V30 2054 C 197.02 0.540919 -1.6127 0
M  V30 2055 O 198.205 0.453352 -1.88834 0
M  V30 2056 C 195.335 0.400654 -3.44981 0
M  V30 2057 C 194.289 -0.428905 -4.25846 0
M  V30 2058 C 193.615 0.478557 -5.32554 0
M  V30 2059 C 194.915 -1.67458 -4.94727 0
M  V30 2060 H 196.609 -1.21914 -2.73454 0
M  V30 2061 H 194.155 -0.587675 -1.31462 0
M  V30 2062 H 196.108 0.769434 -4.14316 0
M  V30 2063 H 194.832 1.27371 -3.0074 0
M  V30 2064 H 193.491 -0.779911 -3.58208 0
M  V30 2065 H 193.139 1.34951 -4.84559 0
M  V30 2066 H 192.839 -0.0727433 -5.87555 0
M  V30 2067 H 194.363 0.843705 -6.04743 0
M  V30 2068 H 195.777 -1.376 -5.56542 0
M  V30 2069 H 194.174 -2.16659 -5.59624 0
M  V30 2070 H 195.244 -2.41518 -4.20473 0
M  V30 2071 N 196.587 1.43421 -0.653314 0
M  V30 2072 C 197.833 2.02111 -0.166992 0
M  V30 2073 C 198.166 1.51423 1.21592 0
M  V30 2074 O 197.441 0.707389 1.8118 0
M  V30 2075 C 197.724 3.5966 -0.177948 0
M  V30 2076 C 197.577 4.20579 -1.59478 0
M  V30 2077 C 198.896 4.37413 0.4856 0
M  V30 2078 H 196.015 0.734374 -0.0621557 0
M  V30 2079 H 198.657 1.70717 -0.834016 0
M  V30 2080 H 196.807 3.86537 0.390032 0
M  V30 2081 H 198.479 4.04732 -2.21336 0
M  V30 2082 H 196.722 3.77226 -2.14204 0
M  V30 2083 H 197.393 5.29665 -1.5543 0
M  V30 2084 H 199.869 4.161 0.00234528 0
M  V30 2085 H 198.745 5.47075 0.447207 0
M  V30 2086 H 199.006 4.13672 1.55974 0
M  V30 2087 N 198.065 0.39524 1.52563 0
M  V30 2088 C 198.997 -0.472201 2.24283 0
M  V30 2089 C 200.01 -1.02178 1.26742 0
M  V30 2090 O 201.199 -0.923097 1.52778 0
M  V30 2091 C 198.299 -1.66775 2.95024 0
M  V30 2092 C 197.472 -1.2445 4.19322 0
M  V30 2093 C 196.531 -2.30539 4.7301 0
M  V30 2094 O 195.557 -1.91702 5.35947 0
M  V30 2095 N 196.759 -3.6253 4.53379 0
M  V30 2096 H 199.524 0.142282 2.99362 0
M  V30 2097 H 197.085 0.2219 1.60372 0
M  V30 2098 H 199.077 -2.37283 3.27839 0
M  V30 2099 H 197.647 -2.18845 2.23217 0
M  V30 2100 H 196.867 -0.368069 3.92478 0
M  V30 2101 H 198.155 -0.938457 5.0007 0
M  V30 2102 H 197.553 -3.96841 4.03154 0
M  V30 2103 H 196.11 -4.29055 4.90668 0
M  V30 2104 N 199.544 -1.57102 0.125237 0
M  V30 2105 C 200.79 -1.95697 -0.532035 0
M  V30 2106 C 201.123 -1.009 -1.6593 0
M  V30 2107 O 200.398 -0.047347 -1.94442 0
M  V30 2108 C 200.681 -3.44181 -1.05884 0
M  V30 2109 C 200.534 -4.49752 0.0654392 0
M  V30 2110 C 201.853 -3.94655 -1.9477 0
M  V30 2111 H 198.972 -0.711571 -0.191925 0
M  V30 2112 H 201.614 -1.88923 0.20206 0
M  V30 2113 H 199.764 -3.50085 -1.68442 0
M  V30 2114 H 201.436 -4.55943 0.700982 0
M  V30 2115 H 199.679 -4.27653 0.727709 0
M  V30 2116 H 200.35 -5.50924 -0.344505 0
M  V30 2117 H 202.826 -3.91094 -1.42074 0
M  V30 2118 H 201.702 -4.99057 -2.28546 0
M  V30 2119 H 201.963 -3.35718 -2.87656 0
M  V30 2120 N 201.022 0.148545 -1.56898 0
M  V30 2121 C 202.438 0.501131 -1.51528 0
M  V30 2122 C 202.638 1.83458 -0.833399 0
M  V30 2123 O 201.694 2.49259 -0.40328 0
M  V30 2124 C 203.007 0.512864 -2.96294 0
M  V30 2125 C 204.555 0.598487 -3.07225 0
M  V30 2126 C 205.03 0.640897 -4.53494 0
M  V30 2127 N 206.521 0.703163 -4.57832 0
M  V30 2128 C 207.256 0.756935 -5.68382 0
M  V30 2129 N 206.752 0.770147 -6.88506 0
M  V30 2130 N 208.545 0.797698 -5.56411 0
M  V30 2131 H 200.696 -0.725532 -1.99624 0
M  V30 2132 H 202.959 -0.264358 -0.910395 0
M  V30 2133 H 202.665 -0.398691 -3.49433 0
M  V30 2134 H 202.539 1.35133 -3.52163 0
M  V30 2135 H 204.926 1.50046 -2.54106 0
M  V30 2136 H 205.007 -0.267093 -2.54402 0
M  V30 2137 H 204.651 -0.256915 -5.0725 0
M  V30 2138 H 204.581 1.52295 -5.04097 0
M  V30 2139 H 207.072 0.700314 -3.71354 0
M  V30 2140 H 207.385 0.812983 -7.68512 0
M  V30 2141 H 205.73 0.738049 -6.9107 0
M  V30 2142 H 208.921 0.784535 -4.61479 0
M  V30 2143 H 209.094 0.83614 -6.42583 0
M  V30 2144 N 202.5 1.5196 0.417844 0
M  V30 2145 C 203.41 1.77554 1.53336 0
M  V30 2146 C 204.426 0.660655 1.6097 0
M  V30 2147 O 205.602 0.945099 1.77848 0
M  V30 2148 C 202.667 1.91291 2.89152 0
M  V30 2149 C 201.728 3.15183 2.91475 0
M  V30 2150 C 200.961 3.28256 4.20813 0
M  V30 2151 O 201.184 2.46798 5.14244 0
M  V30 2152 O 200.118 4.21356 4.29817 0
M  V30 2153 H 203.944 2.7222 1.34647 0
M  V30 2154 H 201.529 1.36698 0.602828 0
M  V30 2155 H 203.411 2.02199 3.69721 0
M  V30 2156 H 202.086 0.998129 3.07927 0
M  V30 2157 H 200.993 3.09739 2.09791 0
M  V30 2158 H 202.326 4.06414 2.77648 0
M  V30 2159 N 203.978 -0.674533 1.42435 0
M  V30 2160 C 205.394 -0.98769 1.25367 0
M  V30 2161 C 205.594 -2.00879 0.158044 0
M  V30 2162 O 204.65 -2.48075 -0.470633 0
M  V30 2163 C 205.963 -1.49224 2.6106 0
M  V30 2164 C 207.511 -1.61 2.68417 0
M  V30 2165 C 207.986 -2.14852 4.04478 0
M  V30 2166 N 209.477 -2.22185 4.06434 0
M  V30 2167 C 210.212 -2.64928 5.08528 0
M  V30 2168 N 209.708 -3.07121 6.21006 0
M  V30 2169 N 211.501 -2.64679 4.95885 0
M  V30 2170 H 203.652 0.00152503 2.124 0
M  V30 2171 H 205.915 -0.0618434 0.945981 0
M  V30 2172 H 205.621 -0.816453 3.42092 0
M  V30 2173 H 205.495 -2.47094 2.84999 0
M  V30 2174 H 207.882 -2.27686 1.87732 0
M  V30 2175 H 207.963 -0.616195 2.48267 0
M  V30 2176 H 207.607 -1.48775 4.85622 0
M  V30 2177 H 207.537 -3.15024 4.2198 0
M  V30 2178 H 210.028 -1.92435 3.25234 0
M  V30 2179 H 210.341 -3.38423 6.94759 0
M  V30 2180 H 208.686 -3.04978 6.24511 0
M  V30 2181 H 211.877 -2.31078 4.07088 0
M  V30 2182 H 212.05 -2.9767 5.75584 0
M  V30 2183 N 205.456 -1.28612 -0.910864 0
M  V30 2184 C 206.705 -1.15311 -1.65488 0
M  V30 2185 C 207.018 0.296999 -1.93332 0
M  V30 2186 O 208.224 0.551168 -2.65847 0
M  V30 2187 C 206.68 -2.01599 -2.98137 0
M  V30 2188 C 206.288 -3.51367 -2.7793 0
M  V30 2189 C 208.032 -1.96993 -3.76024 0
M  V30 2190 C 205.939 -4.29797 -4.06237 0
M  V30 2191 H 204.869 -0.42796 -0.620779 0
M  V30 2192 H 207.52 -1.53166 -1.01057 0
M  V30 2193 H 205.902 -1.56603 -3.63719 0
M  V30 2194 H 207.076 -4.0434 -2.21011 0
M  V30 2195 H 205.391 -3.57529 -2.13452 0
M  V30 2196 H 207.988 -2.52856 -4.71135 0
M  V30 2197 H 208.331 -0.94733 -4.05378 0
M  V30 2198 H 208.864 -2.39973 -3.17266 0
M  V30 2199 H 205.603 -5.32648 -3.82055 0
M  V30 2200 H 205.123 -3.81596 -4.62757 0
M  V30 2201 H 206.802 -4.39869 -4.74473 0
M  V30 2202 N 206.934 1.1197 -1.10907 0
M  V30 2203 C 208.35 1.35591 -0.841852 0
M  V30 2204 C 208.55 1.94233 0.536246 0
M  V30 2205 O 207.606 2.1717 1.28816 0
M  V30 2206 C 208.919 2.29284 -1.94549 0
M  V30 2207 C 210.467 2.42862 -1.97451 0
M  V30 2208 C 210.942 3.39873 -3.07002 0
M  V30 2209 N 212.433 3.47433 -3.06341 0
M  V30 2210 C 213.168 4.22421 -3.87748 0
M  V30 2211 N 212.664 5.00432 -4.79103 0
M  V30 2212 N 214.457 4.17876 -3.75946 0
M  V30 2213 H 206.608 0.722664 -1.99728 0
M  V30 2214 H 208.871 0.380635 -0.868229 0
M  V30 2215 H 208.577 1.93378 -2.93765 0
M  V30 2216 H 208.451 3.29452 -1.83688 0
M  V30 2217 H 210.838 2.78046 -0.988645 0
M  V30 2218 H 210.919 1.42566 -2.12388 0
M  V30 2219 H 210.563 3.05417 -4.05811 0
M  V30 2220 H 210.493 4.40011 -2.89306 0
M  V30 2221 H 212.984 2.91784 -2.40147 0
M  V30 2222 H 213.297 5.55002 -5.37766 0
M  V30 2223 H 211.642 4.99612 -4.83128 0
M  V30 2224 H 214.833 3.56016 -3.03924 0
M  V30 2225 H 215.006 4.76061 -4.39624 0
M  V30 2226 N 208.412 0.89855 1.29475 0
M  V30 2227 C 209.661 0.519863 1.94885 0
M  V30 2228 C 209.974 -0.9383 1.71625 0
M  V30 2229 O 211.18 -1.42445 2.31131 0
M  V30 2230 C 209.636 0.878836 3.49005 0
M  V30 2231 C 209.244 2.35569 3.81066 0
M  V30 2232 C 210.988 0.570004 4.20656 0
M  V30 2233 C 208.895 2.65558 5.28425 0
M  V30 2234 H 207.825 0.190692 0.729488 0
M  V30 2235 H 210.476 1.09539 1.47219 0
M  V30 2236 H 208.858 0.232253 3.95318 0
M  V30 2237 H 210.032 3.04773 3.45616 0
M  V30 2238 H 208.347 2.63343 3.22552 0
M  V30 2239 H 210.944 0.770925 5.29113 0
M  V30 2240 H 211.287 -0.491404 4.1339 0
M  V30 2241 H 211.82 1.17438 3.8007 0
M  V30 2242 H 208.559 3.70493 5.40754 0
M  V30 2243 H 208.079 2.00977 5.65127 0
M  V30 2244 H 209.758 2.51765 5.96006 0
M  V30 2245 N 209.89 -1.43072 0.660911 0
M  V30 2246 C 210.838 -2.32569 -0.0378199 0
M  V30 2247 C 211.832 -1.49046 -0.805092 0
M  V30 2248 O 213.038 -1.65206 -0.714624 0
M  V30 2249 H 209.413 -0.75136 -0.031019 0
M  V30 2250 H 211.384 -2.89216 0.734609 0
M  V30 2251 C 210.133 -3.33453 -0.985124 0
M  V30 2252 H 209.456 -3.97752 -0.404147 0
M  V30 2253 H 210.896 -3.98691 -1.44297 0
M  V30 2254 C 209.355 -2.64642 -2.08486 0
M  V30 2255 O 209.885 -2.46776 -3.16961 0
M  V30 2256 N 208.091 -2.23891 -1.8526 0
M  V30 2257 H 207.638 -2.38621 -0.970449 0
M  V30 2258 H 207.596 -1.78181 -2.59034 0
M  V30 2259 N 211.368 -0.403325 -1.52352 0
M  V30 2260 C 212.616 0.174003 -2.0135 0
M  V30 2261 C 212.937 1.46139 -1.29106 0
M  V30 2262 O 212.207 1.91448 -0.415253 0
M  V30 2263 H 210.787 0.0672911 -0.743963 0
M  V30 2264 H 213.449 -0.538235 -1.87321 0
M  V30 2265 H 212.545 0.374254 -3.09848 0
M  V30 2266 N 212.846 1.57033 -0.133567 0
M  V30 2267 C 213.778 2.13176 0.841944 0
M  V30 2268 C 214.791 1.07794 1.22001 0
M  V30 2269 O 215.98 1.35117 1.16643 0
M  V30 2270 C 213.08 2.62847 2.13926 0
M  V30 2271 C 212.253 3.92486 1.93064 0
M  V30 2272 C 211.312 4.27605 3.0666 0
M  V30 2273 O 210.338 4.96168 2.78937 0
M  V30 2274 N 211.54 3.861 4.33483 0
M  V30 2275 H 214.305 2.97503 0.362192 0
M  V30 2276 H 211.866 1.61821 0.05042 0
M  V30 2277 H 213.858 2.83363 2.88942 0
M  V30 2278 H 212.428 1.83319 2.53205 0
M  V30 2279 H 211.648 3.80732 1.02159 0
M  V30 2280 H 212.936 4.77225 1.76447 0
M  V30 2281 H 212.334 3.30828 4.58878 0
M  V30 2282 H 210.891 4.11694 5.05323 0
M  V30 2283 N 214.325 -0.140222 1.56975 0
M  V30 2284 C 215.736 -0.699596 1.73097 0
M  V30 2285 C 216.087 -1.8134 0.749022 0
M  V30 2286 O 215.212 -2.16241 -0.0828503 0
M  V30 2287 C 215.807 -1.27582 3.1386 0
M  V30 2288 C 214.366 -1.78169 3.31561 0
M  V30 2289 C 213.513 -0.672855 2.69013 0
M  V30 2290 H 216.464 0.0855115 1.58469 0
M  V30 2291 H 216.485 -2.14561 3.14235 0
M  V30 2292 H 215.997 -0.464955 3.85305 0
M  V30 2293 H 214.098 -2.61801 2.65124 0
M  V30 2294 H 214.211 -1.90574 4.39566 0
M  V30 2295 H 212.575 -1.10118 2.29665 0
M  V30 2296 H 213.358 0.126679 3.43066 0
M  V30 2297 N 215.803 -1.52179 -0.40978 0
M  V30 2298 C 217.052 -1.65434 -1.15388 0
M  V30 2299 C 217.365 -0.390056 -1.91671 0
M  V30 2300 O 218.571 -0.402399 -2.68501 0
M  V30 2301 C 217.027 -2.92279 -2.10003 0
M  V30 2302 C 216.635 -4.25813 -1.39239 0
M  V30 2303 C 218.379 -3.14897 -2.84675 0
M  V30 2304 C 216.286 -5.43782 -2.32498 0
M  V30 2305 H 215.216 -0.616267 -0.434432 0
M  V30 2306 H 217.867 -1.78666 -0.418401 0
M  V30 2307 H 216.249 -2.72744 -2.871 0
M  V30 2308 H 217.423 -4.55828 -0.675099 0
M  V30 2309 H 215.738 -4.09292 -0.766097 0
M  V30 2310 H 218.335 -4.0021 -3.54593 0
M  V30 2311 H 218.678 -2.29103 -3.47588 0
M  V30 2312 H 219.211 -3.34901 -2.14677 0
M  V30 2313 H 215.95 -6.3192 -1.74233 0
M  V30 2314 H 215.47 -5.18106 -3.02201 0
M  V30 2315 H 217.149 -5.76834 -2.93038 0
M  V30 2316 N 217.281 0.66697 -1.42791 0
M  V30 2317 C 218.506 1.46004 -1.47301 0
M  V30 2318 C 218.931 1.87894 -0.0880317 0
M  V30 2319 O 218.289 1.56502 0.915253 0
M  V30 2320 C 218.337 2.68031 -2.41229 0
M  V30 2321 O 217.441 3.6659 -1.88906 0
M  V30 2322 H 216.782 0.43832 -0.49877 0
M  V30 2323 H 219.312 0.817391 -1.87563 0
M  V30 2324 H 219.322 3.1601 -2.58073 0
M  V30 2325 H 217.997 2.36883 -3.41847 0
M  V30 2326 H 216.574 3.25661 -1.81656 0
M  V30 2327 N 218.759 1.29093 0.90403 0
M  V30 2328 C 220.17 1.15186 1.46932 0
M  V30 2329 C 220.521 -0.254587 1.94541 0
M  V30 2330 O 219.646 -1.14972 1.83332 0
M  V30 2331 C 220.241 2.08492 2.67051 0
M  V30 2332 C 218.8 1.98621 3.19729 0
M  V30 2333 C 217.947 1.9967 1.92425 0
M  V30 2334 H 220.898 1.41641 0.715789 0
M  V30 2335 H 220.919 1.65461 3.42641 0
M  V30 2336 H 220.431 3.10847 2.3237 0
M  V30 2337 H 218.532 0.993389 3.59114 0
M  V30 2338 H 218.645 2.86068 3.8432 0
M  V30 2339 H 217.009 1.44208 2.09943 0
M  V30 2340 H 217.792 3.03721 1.60026 0
M  V30 2341 N 220.237 -1.11381 1.11499 0
M  V30 2342 C 221.147 -2.21019 0.786628 0
M  V30 2343 C 222.163 -1.72597 -0.220507 0
M  V30 2344 O 223.339 -2.01321 -0.0565251 0
M  V30 2345 C 220.404 -3.459 0.235333 0
M  V30 2346 C 219.465 -4.09107 1.30115 0
M  V30 2347 C 218.698 -5.28027 0.776068 0
M  V30 2348 O 218.921 -5.6904 -0.393661 0
M  V30 2349 O 217.855 -5.81835 1.54114 0
M  V30 2350 H 221.681 -2.51521 1.70209 0
M  V30 2351 H 219.266 -1.19928 0.890928 0
M  V30 2352 H 221.148 -4.21346 -0.067715 0
M  V30 2353 H 219.823 -3.17049 -0.652828 0
M  V30 2354 H 218.73 -3.35391 1.65722 0
M  V30 2355 H 220.063 -4.42139 2.16273 0
M  V30 2356 N 221.715 -0.905404 -1.28997 0
M  V30 2357 C 222.645 -0.404212 -2.29975 0
M  V30 2358 C 223.626 0.523784 -1.61835 0
M  V30 2359 O 224.811 0.433298 -1.89304 0
M  V30 2360 C 221.941 0.364042 -3.45387 0
M  V30 2361 C 220.895 -0.474048 -4.25367 0
M  V30 2362 C 220.221 0.422045 -5.33032 0
M  V30 2363 C 221.521 -1.72696 -4.92923 0
M  V30 2364 H 223.215 -1.24807 -2.72146 0
M  V30 2365 H 220.761 -0.601585 -1.30832 0
M  V30 2366 H 222.714 0.725447 -4.15109 0
M  V30 2367 H 221.438 1.24174 -3.02074 0
M  V30 2368 H 220.097 -0.81786 -3.57361 0
M  V30 2369 H 219.745 1.29804 -4.85963 0
M  V30 2370 H 219.445 -0.135057 -5.87445 0
M  V30 2371 H 220.969 0.779517 -6.05604 0
M  V30 2372 H 222.383 -1.43495 -5.55051 0
M  V30 2373 H 220.78 -2.22582 -5.57295 0
M  V30 2374 H 221.85 -2.45964 -4.17887 0
M  V30 2375 N 223.193 1.4272 -0.668489 0
M  V30 2376 C 224.44 2.01624 -0.18814 0
M  V30 2377 C 224.768 1.5282 1.20317 0
M  V30 2378 O 224.023 0.718323 1.8204 0
M  V30 2379 C 224.322 3.57021 -0.164499 0
M  V30 2380 C 223.988 4.25232 -1.49962 0
M  V30 2381 C 222.65 4.4358 -1.8652 0
M  V30 2382 C 225.002 4.63727 -2.37921 0
M  V30 2383 C 222.33 4.97694 -3.10674 0
M  V30 2384 C 224.682 5.19218 -3.6138 0
M  V30 2385 C 223.346 5.3578 -3.98115 0
M  V30 2386 H 222.616 0.737795 -0.0688454 0
M  V30 2387 H 225.263 1.70991 -0.862225 0
M  V30 2388 H 223.568 3.87285 0.593079 0
M  V30 2389 H 225.265 4.00372 0.224271 0
M  V30 2390 H 221.855 4.11306 -1.20522 0
M  V30 2391 H 226.039 4.4923 -2.10964 0
M  V30 2392 H 221.295 5.08702 -3.39164 0
M  V30 2393 H 225.469 5.4799 -4.29743 0
M  V30 2394 H 223.096 5.77475 -4.94395 0
M  V30 2395 N 224.671 0.411399 1.52136 0
M  V30 2396 C 225.899 -0.163076 2.06256 0
M  V30 2397 C 226.314 -1.3867 1.28125 0
M  V30 2398 O 225.671 -1.79423 0.333721 0
M  V30 2399 C 225.722 -0.511252 3.57867 0
M  V30 2400 O 225.443 0.66378 4.33042 0
M  V30 2401 C 226.944 -1.13921 4.28412 0
M  V30 2402 H 224.164 -0.0193897 0.67072 0
M  V30 2403 H 226.708 0.583007 1.96013 0
M  V30 2404 H 224.863 -1.20723 3.6811 0
M  V30 2405 H 225.277 0.372601 5.23175 0
M  V30 2406 H 226.751 -1.33302 5.35663 0
M  V30 2407 H 227.228 -2.11296 3.85033 0
M  V30 2408 H 227.834 -0.483373 4.22544 0
M  V30 2409 N 226.149 -1.5696 0.141893 0
M  V30 2410 C 227.096 -2.16501 -0.799737 0
M  V30 2411 C 228.066 -1.09643 -1.24771 0
M  V30 2412 O 229.251 -1.3766 -1.32115 0
M  V30 2413 C 226.391 -2.78679 -2.03549 0
M  V30 2414 C 225.504 -3.99914 -1.6338 0
M  V30 2415 C 224.639 -4.50106 -2.82096 0
M  V30 2416 C 223.678 -5.63819 -2.38275 0
M  V30 2417 N 222.815 -6.08651 -3.49983 0
M  V30 2418 H 227.655 -2.96632 -0.285179 0
M  V30 2419 H 225.192 -1.46533 -0.129053 0
M  V30 2420 H 227.15 -3.1287 -2.75986 0
M  V30 2421 H 225.78 -2.012 -2.52425 0
M  V30 2422 H 224.832 -3.71735 -0.807279 0
M  V30 2423 H 226.144 -4.82311 -1.27192 0
M  V30 2424 H 225.298 -4.86325 -3.62729 0
M  V30 2425 H 224.037 -3.66706 -3.21525 0
M  V30 2426 H 223.042 -5.2718 -1.56081 0
M  V30 2427 H 224.267 -6.49 -1.99938 0
M  V30 2428 H 222.213 -5.28188 -3.89042 0
M  V30 2429 H 222.13 -6.85961 -3.17794 0
M  V30 2430 H 223.398 -6.49515 -4.30988 0
M  V30 2431 N 227.627 0.131896 -1.57047 0
M  V30 2432 C 228.857 0.855219 -1.88068 0
M  V30 2433 C 229.265 1.74557 -0.729817 0
M  V30 2434 O 228.608 1.81083 0.308962 0
M  V30 2435 C 228.67 1.75119 -3.13964 0
M  V30 2436 C 228.334 1.03646 -4.45091 0
M  V30 2437 C 229.331 0.383276 -5.18485 0
M  V30 2438 C 227.016 1.02148 -4.91804 0
M  V30 2439 C 229.01 -0.275347 -6.36805 0
M  V30 2440 C 226.697 0.359047 -6.10044 0
M  V30 2441 C 227.695 -0.288222 -6.82392 0
M  V30 2442 O 227.383 -0.94011 -7.98384 0
M  V30 2443 H 227.115 0.251864 -0.627328 0
M  V30 2444 H 229.669 0.124782 -2.05021 0
M  V30 2445 H 227.899 2.52295 -2.9306 0
M  V30 2446 H 229.588 2.3478 -3.31109 0
M  V30 2447 H 230.354 0.386562 -4.83457 0
M  V30 2448 H 226.233 1.5147 -4.35405 0
M  V30 2449 H 229.777 -0.781148 -6.93213 0
M  V30 2450 H 225.674 0.35348 -6.44531 0
M  V30 2451 H 226.442 -0.84329 -8.14144 0
M  V30 2452 N 229.106 1.52395 0.401703 0
M  V30 2453 C 230.353 1.66817 1.14796 0
M  V30 2454 C 230.681 0.401772 1.90305 0
M  V30 2455 O 229.936 -0.615487 1.85769 0
M  V30 2456 C 230.235 2.84578 2.16217 0
M  V30 2457 C 229.901 4.22513 1.5746 0
M  V30 2458 C 228.563 4.60029 1.41161 0
M  V30 2459 C 230.915 5.0844 1.14622 0
M  V30 2460 C 228.243 5.81144 0.80552 0
M  V30 2461 C 230.595 6.30167 0.55428 0
M  V30 2462 C 229.259 6.66426 0.378482 0
M  V30 2463 H 228.529 0.610428 0.420069 0
M  V30 2464 H 231.176 1.86512 0.434212 0
M  V30 2465 H 229.481 2.59248 2.93764 0
M  V30 2466 H 231.178 2.92933 2.73845 0
M  V30 2467 H 227.768 3.92953 1.71132 0
M  V30 2468 H 231.952 4.80034 1.26021 0
M  V30 2469 H 227.208 6.07855 0.657399 0
M  V30 2470 H 231.382 6.96071 0.213983 0
M  V30 2471 H 229.009 7.60143 -0.0932606 0
M  V30 2472 N 230.584 -0.659388 1.43143 0
M  V30 2473 C 231.83 -1.41984 1.45644 0
M  V30 2474 C 232.185 -1.92245 0.0771718 0
M  V30 2475 O 231.478 -1.68976 -0.903205 0
M  V30 2476 C 231.672 -2.62206 2.42864 0
M  V30 2477 C 231.501 -2.23711 3.90107 0
M  V30 2478 C 230.271 -2.12332 4.58523 0
M  V30 2479 C 232.469 -1.84384 4.80112 0
M  V30 2480 N 230.451 -1.67102 5.9072 0
M  V30 2481 C 231.822 -1.5019 6.01534 0
M  V30 2482 C 233.877 -1.71512 4.67427 0
M  V30 2483 C 232.58 -1.04414 7.11681 0
M  V30 2484 C 234.606 -1.27142 5.77572 0
M  V30 2485 C 233.968 -0.938808 6.98116 0
M  V30 2486 H 230.067 -0.515448 0.588079 0
M  V30 2487 H 232.651 -0.759409 1.79279 0
M  V30 2488 H 230.822 -3.25917 2.11265 0
M  V30 2489 H 232.554 -3.28877 2.35843 0
M  V30 2490 H 229.309 -2.31893 4.12944 0
M  V30 2491 H 229.733 -1.46866 6.60878 0
M  V30 2492 H 234.375 -1.95868 3.74694 0
M  V30 2493 H 232.093 -0.788061 8.04248 0
M  V30 2494 H 235.679 -1.17681 5.69774 0
M  V30 2495 H 234.559 -0.6007 7.81896 0
M  V30 2496 N 232.062 -1.29571 -0.897171 0
M  V30 2497 C 233.478 -1.07637 -1.17841 0
M  V30 2498 C 233.678 0.170713 -2.00776 0
M  V30 2499 O 232.734 0.867768 -2.3712 0
M  V30 2500 C 234.047 -2.3332 -1.8969 0
M  V30 2501 C 235.595 -2.38664 -2.02505 0
M  V30 2502 C 236.07 -3.64157 -2.77765 0
M  V30 2503 N 237.561 -3.64894 -2.85318 0
M  V30 2504 C 238.296 -4.58679 -3.44094 0
M  V30 2505 N 237.792 -5.62799 -4.04017 0
M  V30 2506 N 239.585 -4.46245 -3.41793 0
M  V30 2507 H 231.736 -2.09598 -0.343883 0
M  V30 2508 H 233.999 -0.923333 -0.214848 0
M  V30 2509 H 233.705 -3.24262 -1.36187 0
M  V30 2510 H 233.579 -2.41025 -2.9015 0
M  V30 2511 H 235.966 -1.48208 -2.55183 0
M  V30 2512 H 236.047 -2.34943 -1.01171 0
M  V30 2513 H 235.691 -4.54965 -2.25763 0
M  V30 2514 H 235.621 -3.65137 -3.7945 0
M  V30 2515 H 238.112 -2.89613 -2.42761 0
M  V30 2516 H 238.425 -6.3048 -4.46895 0
M  V30 2517 H 236.77 -5.66605 -4.02472 0
M  V30 2518 H 239.961 -3.64094 -2.94199 0
M  V30 2519 H 240.134 -5.19518 -3.87304 0
M  V30 2520 N 233.54 1.10788 -1.12088 0
M  V30 2521 C 234.47 2.19083 -0.807755 0
M  V30 2522 C 235.451 1.6858 0.226859 0
M  V30 2523 O 236.636 1.93997 0.0888475 0
M  V30 2524 C 233.766 3.46344 -0.257576 0
M  V30 2525 C 232.72 4.101 -1.22483 0
M  V30 2526 C 232.046 5.32016 -0.535052 0
M  V30 2527 C 233.346 4.54236 -2.57811 0
M  V30 2528 H 235.04 2.45534 -1.71328 0
M  V30 2529 H 232.586 1.1801 -0.825205 0
M  V30 2530 H 234.539 4.21392 -0.0262679 0
M  V30 2531 H 233.263 3.19373 0.683278 0
M  V30 2532 H 231.922 3.37054 -1.44189 0
M  V30 2533 H 231.57 5.01319 0.410827 0
M  V30 2534 H 231.27 5.75625 -1.18024 0
M  V30 2535 H 232.794 6.09799 -0.312695 0
M  V30 2536 H 234.208 5.20575 -2.40155 0
M  V30 2537 H 232.605 5.08682 -3.18375 0
M  V30 2538 H 233.675 3.6734 -3.16528 0
M  V30 2539 N 235.018 0.912232 1.28515 0
M  V30 2540 C 236.248 0.559604 1.98877 0
M  V30 2541 C 236.656 -0.863113 1.68366 0
M  V30 2542 O 235.999 -1.58304 0.931969 0
M  V30 2543 C 236.061 0.68703 3.52874 0
M  V30 2544 C 235.725 2.07901 4.06972 0
M  V30 2545 C 236.722 3.05157 4.20922 0
M  V30 2546 C 234.407 2.39178 4.417 0
M  V30 2547 C 236.401 4.31806 4.68852 0
M  V30 2548 C 234.088 3.66068 4.89324 0
M  V30 2549 C 235.086 4.62195 5.02856 0
M  V30 2550 O 234.774 5.86829 5.49442 0
M  V30 2551 H 234.506 0.212191 0.641834 0
M  V30 2552 H 237.06 1.22712 1.64715 0
M  V30 2553 H 235.29 -0.0375486 3.86682 0
M  V30 2554 H 236.979 0.341727 4.04459 0
M  V30 2555 H 237.745 2.82311 3.94367 0
M  V30 2556 H 233.624 1.65109 4.30418 0
M  V30 2557 H 237.168 5.06842 4.79329 0
M  V30 2558 H 233.065 3.88739 5.15318 0
M  V30 2559 H 233.833 5.89597 5.6773 0
M  V30 2560 N 236.496 -1.42363 0.676048 0
M  V30 2561 C 237.446 -2.27987 -0.0242903 0
M  V30 2562 C 238.43 -1.41153 -0.772319 0
M  V30 2563 O 239.622 -1.64592 -0.651025 0
M  V30 2564 C 236.751 -3.29195 -0.973953 0
M  V30 2565 C 235.837 -4.23512 -0.223202 0
M  V30 2566 N 236.228 -4.99865 0.772589 0
M  V30 2567 C 234.526 -4.43606 -0.461469 0
M  V30 2568 C 235.227 -5.68757 1.22027 0
M  V30 2569 N 234.203 -5.40811 0.549975 0
M  V30 2570 H 238.005 -2.84445 0.73949 0
M  V30 2571 H 235.519 -1.54341 0.50522 0
M  V30 2572 H 237.516 -3.89339 -1.49067 0
M  V30 2573 H 236.176 -2.74298 -1.73755 0
M  V30 2574 H 237.187 -5.04921 1.15217 0
M  V30 2575 H 233.864 -3.99749 -1.20446 0
M  V30 2576 H 235.254 -6.40007 2.0455 0
M  V30 2577 N 237.974 -0.419461 -1.51915 0
M  V30 2578 C 239.39 -0.0708431 -1.59443 0
M  V30 2579 C 239.59 1.41796 -1.43164 0
M  V30 2580 O 238.646 2.18596 -1.26381 0
M  V30 2581 C 239.959 -0.574991 -2.95151 0
M  V30 2582 C 241.507 -0.533867 -3.08413 0
M  V30 2583 C 241.982 -1.01469 -4.46618 0
M  V30 2584 N 243.473 -0.971939 -4.52888 0
M  V30 2585 C 244.208 -1.31505 -5.58116 0
M  V30 2586 N 243.704 -1.73014 -6.70849 0
M  V30 2587 N 245.497 -1.23436 -5.48379 0
M  V30 2588 H 237.648 -1.38836 -1.60743 0
M  V30 2589 H 239.911 -0.570998 -0.756747 0
M  V30 2590 H 239.617 -1.61597 -3.12377 0
M  V30 2591 H 239.491 0.00979777 -3.77199 0
M  V30 2592 H 241.878 0.498086 -2.90866 0
M  V30 2593 H 241.959 -1.15484 -2.28248 0
M  V30 2594 H 241.603 -2.04502 -4.6491 0
M  V30 2595 H 241.533 -0.370433 -5.25295 0
M  V30 2596 H 244.024 -0.666893 -3.71969 0
M  V30 2597 H 244.337 -1.97479 -7.47143 0
M  V30 2598 H 242.682 -1.76926 -6.72103 0
M  V30 2599 H 245.873 -0.908869 -4.59192 0
M  V30 2600 H 246.046 -1.50506 -6.30279 0
M  V30 2601 N 239.452 1.56882 -0.150215 0
M  V30 2602 C 240.382 2.19935 0.784284 0
M  V30 2603 C 241.363 1.14854 1.25469 0
M  V30 2604 O 242.548 1.43209 1.31168 0
M  V30 2605 C 239.678 2.82349 2.02229 0
M  V30 2606 C 238.632 3.93285 1.68853 0
M  V30 2607 C 237.958 4.42649 2.99944 0
M  V30 2608 C 239.258 5.13904 0.932714 0
M  V30 2609 H 240.952 2.9828 0.258781 0
M  V30 2610 H 238.498 1.43473 0.123029 0
M  V30 2611 H 240.451 3.25126 2.68088 0
M  V30 2612 H 239.175 2.0134 2.57157 0
M  V30 2613 H 237.834 3.5113 1.05371 0
M  V30 2614 H 237.482 3.58458 3.52869 0
M  V30 2615 H 237.182 5.17476 2.78374 0
M  V30 2616 H 238.706 4.88099 3.66868 0
M  V30 2617 H 240.12 5.53506 1.49345 0
M  V30 2618 H 238.517 5.94515 0.81684 0
M  V30 2619 H 239.587 4.84842 -0.0749568 0
M  V30 2620 N 240.93 -0.123565 1.57115 0
M  V30 2621 C 241.84 -1.17074 2.033 0
M  V30 2622 C 242.856 -1.4561 0.952559 0
M  V30 2623 O 244.032 -1.56817 1.26374 0
M  V30 2624 C 241.097 -2.47857 2.42421 0
M  V30 2625 C 240.158 -2.26758 3.64526 0
M  V30 2626 C 239.391 -3.51305 4.01771 0
M  V30 2627 O 239.614 -4.5843 3.39409 0
M  V30 2628 O 238.548 -3.42578 4.94898 0
M  V30 2629 H 242.374 -0.808555 2.92739 0
M  V30 2630 H 239.959 -0.334027 1.45618 0
M  V30 2631 H 241.841 -3.2492 2.68338 0
M  V30 2632 H 240.516 -2.83558 1.5613 0
M  V30 2633 H 239.423 -1.47569 3.43765 0
M  V30 2634 H 240.756 -1.95963 4.51508 0
M  V30 2635 N 242.408 -1.52605 -0.393616 0
M  V30 2636 C 243.318 -1.79971 -1.50492 0
M  V30 2637 C 244.334 -0.686181 -1.59899 0
M  V30 2638 O 245.51 -0.973274 -1.76322 0
M  V30 2639 C 242.575 -1.95867 -2.86072 0
M  V30 2640 C 241.636 -3.19781 -2.86424 0
M  V30 2641 C 240.869 -3.34909 -4.15538 0
M  V30 2642 O 241.092 -2.54948 -5.10253 0
M  V30 2643 O 240.026 -4.28141 -4.23059 0
M  V30 2644 H 243.852 -2.74328 -1.30299 0
M  V30 2645 H 241.437 -1.3764 -0.581005 0
M  V30 2646 H 243.319 -2.08056 -3.66457 0
M  V30 2647 H 241.994 -1.04699 -3.063 0
M  V30 2648 H 240.901 -3.13038 -2.04837 0
M  V30 2649 H 242.234 -4.1078 -2.71147 0
M  V30 2650 N 243.887 0.651787 -1.4349 0
M  V30 2651 C 245.115 1.43937 -1.48626 0
M  V30 2652 C 245.53 1.8851 -0.104587 0
M  V30 2653 O 244.887 1.5958 0.885464 0
M  V30 2654 C 244.938 2.6734 -2.43334 0
M  V30 2655 O 244.659 2.24631 -3.76128 0
M  V30 2656 C 246.16 3.60683 -2.57726 0
M  V30 2657 H 243.38 0.44213 -0.504739 0
M  V30 2658 H 245.924 0.798944 -1.88248 0
M  V30 2659 H 244.079 3.2752 -2.06904 0
M  V30 2660 H 244.493 3.04485 -4.2707 0
M  V30 2661 H 245.967 4.43933 -3.28067 0
M  V30 2662 H 246.444 4.08126 -1.62265 0
M  V30 2663 H 247.05 3.06384 -2.94973 0
M  V30 2664 N 245.365 1.30045 0.890287 0
M  V30 2665 C 246.312 1.15976 1.99545 0
M  V30 2666 C 247.282 0.0506202 1.66023 0
M  V30 2667 O 248.467 0.219847 1.89529 0
M  V30 2668 C 245.607 0.852054 3.34416 0
M  V30 2669 C 244.72 2.04255 3.80662 0
M  V30 2670 C 243.855 1.6734 5.04154 0
M  V30 2671 C 242.894 2.82916 5.42794 0
M  V30 2672 N 242.031 2.46333 6.57468 0
M  V30 2673 H 246.871 2.10524 2.10911 0
M  V30 2674 H 244.408 1.04749 1.03276 0
M  V30 2675 H 246.366 0.654296 4.12037 0
M  V30 2676 H 244.996 -0.0565502 3.2275 0
M  V30 2677 H 244.048 2.35172 2.98995 0
M  V30 2678 H 245.36 2.90826 4.05242 0
M  V30 2679 H 244.514 1.43908 5.89386 0
M  V30 2680 H 243.253 0.779308 4.81433 0
M  V30 2681 H 242.258 3.0702 4.56091 0
M  V30 2682 H 243.483 3.73004 5.6749 0
M  V30 2683 H 241.429 1.59423 6.36334 0
M  V30 2684 H 241.346 3.26436 6.81891 0
M  V30 2685 H 242.614 2.26244 7.45945 0
M  V30 2686 N 246.843 -1.10192 1.12674 0
M  V30 2687 C 248.12 -1.78717 0.794965 0
M  V30 2688 C 248.5 -1.98628 -0.714853 0
M  V30 2689 O 247.848 -1.58135 -1.64941 0
M  V30 2690 C 248.058 -3.11546 1.5729 0
M  V30 2691 C 249.406 -3.86382 1.76052 0
M  V30 2692 O 250.43 -3.21274 1.53823 0
M  V30 2693 O 249.289 -5.03246 2.13087 0
M  V30 2694 H 246.383 -0.774702 0.289423 0
M  V30 2695 H 248.929 -1.16819 1.23091 0
M  V30 2696 H 247.701 -2.92489 2.59935 0
M  V30 2697 H 247.324 -3.81164 1.13137 0
M  V30 2698 N 248.321 -0.919034 -1.28029 0
M  V30 2699 C 249.569 -0.553838 -1.94363 0
M  V30 2700 C 249.89 0.906357 -1.72656 0
M  V30 2701 O 249.16 1.64143 -1.0693 0
M  V30 2702 H 247.74 -0.201834 -0.719216 0
M  V30 2703 H 250.402 -1.16954 -1.55909 0
M  V30 2704 H 249.498 -0.752758 -3.02886 0
M  V30 2705 N 249.799 1.42003 -0.683588 0
M  V30 2706 C 251.024 2.06265 -0.216647 0
M  V30 2707 C 251.449 1.51059 1.12083 0
M  V30 2708 O 250.807 0.632638 1.69904 0
M  V30 2709 C 250.855 3.60191 -0.171759 0
M  V30 2710 O 249.959 4.03396 0.857069 0
M  V30 2711 H 249.3 0.65502 -0.108834 0
M  V30 2712 H 251.83 1.81982 -0.935077 0
M  V30 2713 H 251.84 4.08 0.0014303 0
M  V30 2714 H 250.515 3.99743 -1.14796 0
M  V30 2715 H 249.092 3.67117 0.654208 0
M  V30 2716 N 251.277 0.427512 1.51691 0
M  V30 2717 C 252.517 -0.141524 2.03909 0
M  V30 2718 C 252.881 -1.40811 1.30523 0
M  V30 2719 O 254.082 -2.05676 1.73063 0
M  V30 2720 C 252.353 -0.364962 3.55532 0
M  V30 2721 S 253.912 -0.898812 4.29496 0
M  V30 2722 H 250.73 -0.0364542 0.710065 0
M  V30 2723 H 253.332 0.584659 1.86553 0
M  V30 2724 H 252.036 0.56336 4.06515 0
M  V30 2725 H 251.567 -1.1185 3.77164 0
M  V30 2726 H 253.582 -2.17747 4.45871 0
M  V30 2727 N 252.755 -1.56801 0.158532 0
M  V30 2728 C 254.001 -1.96781 -0.490405 0
M  V30 2729 C 254.334 -1.04397 -1.63753 0
M  V30 2730 O 253.609 -0.0885805 -1.94298 0
M  V30 2731 C 253.892 -3.4635 -0.985594 0
M  V30 2732 C 253.745 -4.49512 0.160824 0
M  V30 2733 C 255.064 -3.98697 -1.86355 0
M  V30 2734 H 252.183 -0.715482 -0.176788 0
M  V30 2735 H 254.825 -1.88451 0.242088 0
M  V30 2736 H 252.975 -3.53579 -1.60978 0
M  V30 2737 H 254.647 -4.54353 0.797537 0
M  V30 2738 H 252.89 -4.26013 0.818256 0
M  V30 2739 H 253.561 -5.51531 -0.227569 0
M  V30 2740 H 256.037 -3.94019 -1.33746 0
M  V30 2741 H 254.913 -5.03792 -2.17909 0
M  V30 2742 H 255.174 -3.41744 -2.8047 0
M  V30 2743 N 254.233 0.115231 -1.57178 0
M  V30 2744 C 255.458 0.840354 -1.89612 0
M  V30 2745 C 255.883 1.72464 -0.750845 0
M  V30 2746 O 255.241 1.78826 0.298478 0
M  V30 2747 C 255.289 1.64654 -3.20814 0
M  V30 2748 O 254.393 2.7538 -3.06985 0
M  V30 2749 H 253.734 0.232158 -0.622092 0
M  V30 2750 H 256.264 0.0964977 -2.04372 0
M  V30 2751 H 256.274 2.03499 -3.53627 0
M  V30 2752 H 254.949 0.997416 -4.03763 0
M  V30 2753 H 253.526 2.3971 -2.85646 0
M  V30 2754 N 255.711 1.52812 0.385517 0
M  V30 2755 C 256.644 1.72592 1.49289 0
M  V30 2756 C 257.622 0.573819 1.52138 0
M  V30 2757 O 258.806 0.80404 1.70492 0
M  V30 2758 C 255.933 1.78669 2.87741 0
M  V30 2759 C 254.979 3.00455 3.02703 0
M  V30 2760 S 255.812 4.60366 2.73538 0
M  V30 2761 C 256.968 4.69263 4.14177 0
M  V30 2762 H 257.201 2.66248 1.32285 0
M  V30 2763 H 254.734 1.43148 0.578611 0
M  V30 2764 H 256.692 1.82855 3.67524 0
M  V30 2765 H 255.353 0.861 3.02069 0
M  V30 2766 H 254.546 3.01258 4.04054 0
M  V30 2767 H 254.148 2.94278 2.30817 0
M  V30 2768 H 256.44 4.48092 5.08153 0
M  V30 2769 H 257.383 5.71276 4.18388 0
M  V30 2770 H 257.791 3.98072 4.00249 0
M  V30 2771 N 257.189 -0.644168 1.43834 0
M  V30 2772 C 258.6 -1.22554 1.40845 0
M  V30 2773 C 258.951 -1.9585 0.117115 0
M  V30 2774 O 258.076 -2.01734 -0.783086 0
M  V30 2775 C 258.671 -2.22907 2.55143 0
M  V30 2776 C 257.23 -2.76501 2.5539 0
M  V30 2777 C 256.377 -1.51287 2.32396 0
M  V30 2778 H 259.328 -0.43563 1.52604 0
M  V30 2779 H 259.349 -3.05259 2.2715 0
M  V30 2780 H 258.861 -1.69533 3.49114 0
M  V30 2781 H 256.962 -3.33914 1.65324 0
M  V30 2782 H 257.075 -3.23429 3.53455 0
M  V30 2783 H 255.439 -1.78957 1.81236 0
M  V30 2784 H 256.222 -0.998336 3.28463 0
M  V30 2785 N 258.668 -1.30515 -0.883378 0
M  V30 2786 C 260.079 -1.17509 -1.45081 0
M  V30 2787 C 260.43 0.223605 -1.94922 0
M  V30 2788 O 259.555 1.12041 -1.85137 0
M  V30 2789 C 260.15 -2.12715 -2.63701 0
M  V30 2790 C 258.709 -2.03682 -3.16529 0
M  V30 2791 C 257.856 -2.02706 -1.89224 0
M  V30 2792 H 260.807 -1.42762 -0.693165 0
M  V30 2793 H 260.828 -1.70891 -3.39965 0
M  V30 2794 H 260.34 -3.14505 -2.27395 0
M  V30 2795 H 258.441 -1.05039 -3.57488 0
M  V30 2796 H 258.554 -2.92146 -3.7972 0
M  V30 2797 H 256.918 -1.4753 -2.07622 0
M  V30 2798 H 257.701 -3.06229 -1.55174 0
M  V30 2799 N 260.146 1.09593 -1.13257 0
M  V30 2800 C 261.376 1.85231 -0.915049 0
M  V30 2801 C 261.784 1.81345 0.539498 0
M  V30 2802 O 261.127 1.20664 1.38513 0
M  V30 2803 C 261.189 3.34275 -1.3229 0
M  V30 2804 C 260.853 3.6191 -2.79052 0
M  V30 2805 C 261.85 3.57777 -3.77216 0
M  V30 2806 C 259.535 3.90309 -3.16171 0
M  V30 2807 C 261.529 3.81652 -5.1051 0
M  V30 2808 C 259.216 4.13839 -4.49644 0
M  V30 2809 C 260.214 4.09502 -5.46623 0
M  V30 2810 O 259.902 4.32426 -6.77689 0
M  V30 2811 H 259.634 0.591997 -0.326367 0
M  V30 2812 H 262.188 1.394 -1.50854 0
M  V30 2813 H 260.418 3.80805 -0.672667 0
M  V30 2814 H 262.107 3.9132 -1.07812 0
M  V30 2815 H 262.873 3.35865 -3.49885 0
M  V30 2816 H 258.752 3.92811 -2.41289 0
M  V30 2817 H 262.296 3.78182 -5.86195 0
M  V30 2818 H 258.193 4.35232 -4.767 0
M  V30 2819 H 258.961 4.49896 -6.83766 0
M  V30 2820 N 261.624 0.925811 1.2754 0
M  V30 2821 C 262.871 0.565255 1.94451 0
M  V30 2822 C 263.199 -0.89316 1.7278 0
M  V30 2823 O 262.454 -1.65213 1.04895 0
M  V30 2824 C 262.753 0.835296 3.47502 0
M  V30 2825 C 262.419 2.27515 3.89291 0
M  V30 2826 C 261.081 2.66879 4.00411 0
M  V30 2827 C 263.433 3.21158 4.10496 0
M  V30 2828 C 260.761 3.99014 4.30122 0
M  V30 2829 C 263.113 4.52871 4.4169 0
M  V30 2830 C 261.777 4.92072 4.51023 0
M  V30 2831 H 261.047 0.206841 0.711546 0
M  V30 2832 H 263.694 1.16942 1.51647 0
M  V30 2833 H 261.999 0.148442 3.91519 0
M  V30 2834 H 263.696 0.535322 3.97411 0
M  V30 2835 H 260.286 1.95976 3.81171 0
M  V30 2836 H 264.47 2.9195 4.01346 0
M  V30 2837 H 259.726 4.2907 4.35556 0
M  V30 2838 H 263.9 5.25436 4.57045 0
M  V30 2839 H 261.527 5.9449 4.738 0
M  V30 2840 N 263.102 -1.41638 0.69111 0
M  V30 2841 C 264.518 -1.55435 0.362224 0
M  V30 2842 C 264.718 -1.66754 -1.13117 0
M  V30 2843 O 263.774 -1.64348 -1.91692 0
M  V30 2844 C 265.087 -2.79588 1.10684 0
M  V30 2845 C 266.635 -2.9338 1.09075 0
M  V30 2846 C 267.11 -4.20414 1.81703 0
M  V30 2847 N 268.601 -4.27362 1.7865 0
M  V30 2848 C 269.336 -5.24507 2.31689 0
M  V30 2849 N 268.832 -6.27708 2.93179 0
M  V30 2850 N 270.625 -5.16416 2.2197 0
M  V30 2851 H 262.776 -1.32536 1.65976 0
M  V30 2852 H 265.039 -0.639115 0.700168 0
M  V30 2853 H 264.745 -2.77419 2.16175 0
M  V30 2854 H 264.619 -3.70973 0.682545 0
M  V30 2855 H 267.006 -2.95067 0.0441238 0
M  V30 2856 H 267.087 -2.0318 1.55407 0
M  V30 2857 H 266.731 -4.19488 2.86343 0
M  V30 2858 H 266.661 -5.09578 1.32808 0
M  V30 2859 H 269.152 -3.53415 1.33815 0
M  V30 2860 H 269.465 -6.98217 3.31229 0
M  V30 2861 H 267.81 -6.28223 2.97255 0
M  V30 2862 H 271.001 -4.34716 1.73607 0
M  V30 2863 H 271.174 -5.91958 2.63609 0
M  V30 2864 N 264.58 -0.43555 -1.51462 0
M  V30 2865 C 265.827 0.131514 -2.02072 0
M  V30 2866 C 266.155 1.42868 -1.31981 0
M  V30 2867 O 265.41 1.91076 -0.422883 0
M  V30 2868 C 265.709 0.39942 -3.55161 0
M  V30 2869 C 265.375 -0.81172 -4.43533 0
M  V30 2870 C 264.037 -1.14387 -4.67407 0
M  V30 2871 C 266.389 -1.61976 -4.95392 0
M  V30 2872 C 263.717 -2.28477 -5.40384 0
M  V30 2873 C 266.069 -2.75164 -5.6962 0
M  V30 2874 C 264.733 -3.08835 -5.91758 0
M  V30 2875 H 264.003 0.0481244 -0.739436 0
M  V30 2876 H 266.65 -0.58238 -1.8243 0
M  V30 2877 H 264.955 1.19519 -3.73125 0
M  V30 2878 H 266.652 0.85157 -3.91854 0
M  V30 2879 H 263.242 -0.542898 -4.25148 0
M  V30 2880 H 267.426 -1.37637 -4.76833 0
M  V30 2881 H 262.682 -2.5488 -5.55739 0
M  V30 2882 H 266.856 -3.38147 -6.08793 0
M  V30 2883 H 264.483 -3.97353 -6.48086 0
M  V30 2884 N 266.058 1.56714 -0.166846 0
M  V30 2885 C 266.988 2.20754 0.760913 0
M  V30 2886 C 267.969 1.16178 1.24244 0
M  V30 2887 O 269.154 1.44592 1.29641 0
M  V30 2888 C 266.284 2.84478 1.99223 0
M  V30 2889 C 265.238 3.95053 1.64672 0
M  V30 2890 C 264.564 4.45805 2.95232 0
M  V30 2891 C 265.864 5.14865 0.878155 0
M  V30 2892 H 267.558 2.98537 0.22713 0
M  V30 2893 H 265.104 1.43596 0.107805 0
M  V30 2894 H 267.057 3.27951 2.64624 0
M  V30 2895 H 265.781 2.04056 2.55007 0
M  V30 2896 H 264.44 3.52228 1.01641 0
M  V30 2897 H 264.088 3.62181 3.49047 0
M  V30 2898 H 263.788 5.204 2.7287 0
M  V30 2899 H 265.312 4.91962 3.6167 0
M  V30 2900 H 266.726 5.55059 1.43466 0
M  V30 2901 H 265.123 5.95348 0.753738 0
M  V30 2902 H 266.193 4.84735 -0.126377 0
M  V30 2903 N 267.536 -0.106894 1.57237 0
M  V30 2904 C 268.764 -0.826389 1.8968 0
M  V30 2905 C 269.179 -1.72856 0.759353 0
M  V30 2906 O 268.536 -1.80503 -0.269263 0
M  V30 2907 C 268.587 -1.64967 3.21665 0
M  V30 2908 O 268.308 -0.783804 4.31031 0
M  V30 2909 C 269.809 -2.47326 3.67892 0
M  V30 2910 H 267.029 -0.236927 0.627779 0
M  V30 2911 H 269.573 -0.0876593 2.04312 0
M  V30 2912 H 267.728 -2.34103 3.08666 0
M  V30 2913 H 268.142 -1.35284 5.06753 0
M  V30 2914 H 269.616 -3.00604 4.6297 0
M  V30 2915 H 270.093 -3.25247 2.95146 0
M  V30 2916 H 270.699 -1.83411 3.83719 0
M  V30 2917 N 269.014 -1.53014 -0.377408 0
M  V30 2918 C 269.944 -1.81589 -1.46791 0
M  V30 2919 C 270.925 -0.668622 -1.56408 0
M  V30 2920 O 272.11 -0.917337 -1.71168 0
M  V30 2921 C 269.24 -1.99519 -2.8427 0
M  V30 2922 C 268.194 -3.15249 -2.89486 0
M  V30 2923 C 267.52 -3.18451 -4.29527 0
M  V30 2924 C 268.82 -4.54084 -2.58079 0
M  V30 2925 H 270.514 -2.7291 -1.23127 0
M  V30 2926 H 268.06 -1.31319 -0.590883 0
M  V30 2927 H 270.013 -2.18092 -3.60575 0
M  V30 2928 H 268.737 -1.04897 -3.09296 0
M  V30 2929 H 267.396 -2.96477 -2.15631 0
M  V30 2930 H 267.044 -2.2149 -4.5161 0
M  V30 2931 H 266.744 -3.962 -4.33934 0
M  V30 2932 H 268.268 -3.39193 -5.07721 0
M  V30 2933 H 269.682 -4.72899 -3.24098 0
M  V30 2934 H 268.079 -5.33987 -2.7382 0
M  V30 2935 H 269.149 -4.60006 -1.53372 0
M  V30 2936 N 270.492 0.636531 -1.44174 0
M  V30 2937 C 271.425 1.76139 -1.45087 0
M  V30 2938 C 272.403 1.59611 -0.310326 0
M  V30 2939 O 273.587 1.81568 -0.506477 0
M  V30 2940 C 270.714 3.13648 -1.27839 0
M  V30 2941 C 269.76 3.48838 -2.45386 0
M  V30 2942 S 270.593 3.46927 -4.07924 0
M  V30 2943 C 271.749 4.87064 -3.9309 0
M  V30 2944 H 271.982 1.75096 -2.40268 0
M  V30 2945 H 269.515 0.810666 -1.31406 0
M  V30 2946 H 271.473 3.93002 -1.18575 0
M  V30 2947 H 270.134 3.12235 -0.341787 0
M  V30 2948 H 269.327 4.48886 -2.29167 0
M  V30 2949 H 268.929 2.76935 -2.51362 0
M  V30 2950 H 271.221 5.76153 -3.56446 0
M  V30 2951 H 272.164 5.08337 -4.92949 0
M  V30 2952 H 272.572 4.61384 -3.25246 0
M  V30 2953 N 271.97 1.30982 0.876444 0
M  V30 2954 C 272.933 1.18054 1.96459 0
M  V30 2955 C 273.933 0.109399 1.60427 0
M  V30 2956 O 275.123 0.358173 1.70478 0
M  V30 2957 C 272.255 0.810616 3.31122 0
M  V30 2958 H 273.448 2.14735 2.09354 0
M  V30 2959 H 271.001 1.145 1.06392 0
M  V30 2960 H 271.736 -0.155322 3.23928 0
M  V30 2961 H 271.521 1.58481 3.58645 0
M  V30 2962 H 273.011 0.743876 4.10921 0
M  V30 2963 N 273.449 -1.08991 1.13837 0
M  V30 2964 C 274.696 -1.81258 0.902882 0
M  V30 2965 C 275.024 -1.85936 -0.570803 0
M  V30 2966 O 274.279 -1.3267 -1.43865 0
M  V30 2967 C 274.578 -3.27042 1.44147 0
M  V30 2968 C 274.244 -3.4249 2.93276 0
M  V30 2969 C 272.906 -3.46414 3.33992 0
M  V30 2970 C 275.258 -3.4666 3.892 0
M  V30 2971 C 272.586 -3.52091 4.69307 0
M  V30 2972 C 274.938 -3.53872 5.24364 0
M  V30 2973 C 273.602 -3.56066 5.646 0
M  V30 2974 H 272.872 -0.663268 0.330388 0
M  V30 2975 H 275.519 -1.28368 1.42105 0
M  V30 2976 H 273.824 -3.82599 0.844097 0
M  V30 2977 H 275.521 -3.81499 1.23528 0
M  V30 2978 H 272.111 -3.40124 2.60794 0
M  V30 2979 H 276.295 -3.42865 3.58828 0
M  V30 2980 H 271.551 -3.52079 4.9985 0
M  V30 2981 H 275.725 -3.56043 5.98503 0
M  V30 2982 H 273.352 -3.60218 6.69438 0
M  V30 2983 N 274.927 -0.932562 -1.27047 0
M  V30 2984 C 275.877 -0.406392 -2.24349 0
M  V30 2985 C 276.861 0.492066 -1.53191 0
M  V30 2986 O 278.053 0.328717 -1.73921 0
M  V30 2987 C 275.182 0.335214 -3.41659 0
M  V30 2988 C 274.268 -0.58004 -4.20115 0
M  V30 2989 N 274.659 -1.70203 -4.76303 0
M  V30 2990 C 272.957 -0.383974 -4.44344 0
M  V30 2991 C 273.658 -2.27167 -5.35509 0
M  V30 2992 N 272.634 -1.56068 -5.20715 0
M  V30 2993 H 276.436 -1.26299 -2.65378 0
M  V30 2994 H 273.95 -0.787408 -1.42034 0
M  V30 2995 H 275.947 0.729142 -4.10474 0
M  V30 2996 H 274.607 1.18868 -3.0216 0
M  V30 2997 H 275.618 -2.08433 -4.74106 0
M  V30 2998 H 272.295 0.428436 -4.15296 0
M  V30 2999 H 273.685 -3.21654 -5.89905 0
M  V30 3000 N 276.405 1.4127 -0.698611 0
M  V30 3001 C 277.651 2.01478 -0.231207 0
M  V30 3002 C 277.984 1.55215 1.16713 0
M  V30 3003 O 277.259 0.764672 1.78838 0
M  V30 3004 C 277.542 3.58912 -0.292281 0
M  V30 3005 C 277.395 4.15293 -1.72778 0
M  V30 3006 C 278.714 4.38736 0.346194 0
M  V30 3007 H 275.833 0.732025 -0.0854878 0
M  V30 3008 H 278.475 1.67977 -0.887906 0
M  V30 3009 H 276.625 3.87582 0.26686 0
M  V30 3010 H 278.297 3.97486 -2.341 0
M  V30 3011 H 276.54 3.7022 -2.26096 0
M  V30 3012 H 277.211 5.24452 -1.72202 0
M  V30 3013 H 279.687 4.15897 -0.130035 0
M  V30 3014 H 278.563 5.48221 0.272932 0
M  V30 3015 H 278.824 4.18425 1.42734 0
M  V30 3016 N 277.883 0.443576 1.51229 0
M  V30 3017 C 279.13 -0.120796 2.02139 0
M  V30 3018 C 279.458 -1.42166 1.32736 0
M  V30 3019 O 278.713 -1.90849 0.43301 0
M  V30 3020 C 279.012 -0.380579 3.55368 0
M  V30 3021 C 278.678 0.83523 4.43097 0
M  V30 3022 C 277.34 1.16864 4.66794 0
M  V30 3023 C 279.692 1.64601 4.94526 0
M  V30 3024 C 277.02 2.31339 5.39165 0
M  V30 3025 C 279.372 2.78181 5.68153 0
M  V30 3026 C 278.036 3.11969 5.90112 0
M  V30 3027 H 277.306 -0.0442023 0.73968 0
M  V30 3028 H 279.953 0.592046 1.82118 0
M  V30 3029 H 278.258 -1.17538 3.73754 0
M  V30 3030 H 279.955 -0.830777 3.923 0
M  V30 3031 H 276.545 0.565437 4.24854 0
M  V30 3032 H 280.729 1.40163 4.76097 0
M  V30 3033 H 275.985 2.57823 5.5438 0
M  V30 3034 H 280.159 3.41371 6.06992 0
M  V30 3035 H 277.786 4.00784 6.45969 0
M  V30 3036 N 279.361 -1.56624 0.175154 0
M  V30 3037 C 280.291 -2.21155 -0.749195 0
M  V30 3038 C 281.272 -1.16836 -1.23626 0
M  V30 3039 O 282.457 -1.45277 -1.28873 0
M  V30 3040 C 279.587 -2.8553 -1.97711 0
M  V30 3041 C 278.541 -3.95921 -1.62575 0
M  V30 3042 C 277.867 -4.47365 -2.92864 0
M  V30 3043 C 279.167 -5.15323 -0.850838 0
M  V30 3044 H 280.861 -2.98653 -0.211295 0
M  V30 3045 H 278.407 -1.43651 -0.100188 0
M  V30 3046 H 280.36 -3.2935 -2.62881 0
M  V30 3047 H 279.084 -2.05406 -2.53921 0
M  V30 3048 H 277.743 -3.52762 -0.997719 0
M  V30 3049 H 277.391 -3.64027 -3.47122 0
M  V30 3050 H 277.091 -5.21839 -2.70106 0
M  V30 3051 H 278.615 -4.93873 -3.59056 0
M  V30 3052 H 280.029 -5.55812 -1.40521 0
M  V30 3053 H 278.426 -5.95739 -0.722154 0
M  V30 3054 H 279.496 -4.84661 0.152082 0
M  V30 3055 N 280.839 0.0985539 -1.57292 0
M  V30 3056 C 281.771 1.14595 -1.98496 0
M  V30 3057 C 282.784 1.36512 -0.887031 0
M  V30 3058 O 283.973 1.35225 -1.16518 0
M  V30 3059 C 281.073 2.50216 -2.28572 0
M  V30 3060 C 280.246 2.48624 -3.59868 0
M  V30 3061 C 279.305 3.66146 -3.7792 0
M  V30 3062 O 278.331 3.48795 -4.49812 0
M  V30 3063 N 279.533 4.85496 -3.18235 0
M  V30 3064 H 282.298 0.795277 -2.88956 0
M  V30 3065 H 279.859 0.287579 -1.59325 0
M  V30 3066 H 281.851 3.27432 -2.37845 0
M  V30 3067 H 280.421 2.77387 -1.44136 0
M  V30 3068 H 279.641 1.56978 -3.61596 0
M  V30 3069 H 280.929 2.44635 -4.46129 0
M  V30 3070 H 280.327 5.02497 -2.59833 0
M  V30 3071 H 278.884 5.60317 -3.32999 0
M  V30 3072 N 282.317 1.53212 0.369288 0
M  V30 3073 C 283.227 1.82342 1.47609 0
M  V30 3074 C 284.243 0.711532 1.58787 0
M  V30 3075 O 285.419 1.0012 1.74751 0
M  V30 3076 C 282.484 2.00393 2.8292 0
M  V30 3077 C 281.545 3.24297 2.81301 0
M  V30 3078 C 280.778 3.41478 4.10157 0
M  V30 3079 O 281.001 2.63033 5.06132 0
M  V30 3080 O 279.935 4.34817 4.16194 0
M  V30 3081 H 283.761 2.76366 1.25918 0
M  V30 3082 H 281.346 1.38547 0.559034 0
M  V30 3083 H 283.228 2.13859 3.63101 0
M  V30 3084 H 281.903 1.09559 3.04596 0
M  V30 3085 H 280.81 3.16257 1.99831 0
M  V30 3086 H 282.143 4.15041 2.64578 0
M  V30 3087 N 283.795 -0.628877 1.44509 0
M  V30 3088 C 284.742 -1.74074 1.51549 0
M  V30 3089 C 285.712 -1.62084 0.363021 0
M  V30 3090 O 286.897 -1.81975 0.573567 0
M  V30 3091 C 284.037 -3.12328 1.46784 0
M  V30 3092 C 283.15 -3.35277 2.72422 0
M  V30 3093 C 282.285 -4.63515 2.59475 0
M  V30 3094 C 281.324 -4.7965 3.80266 0
M  V30 3095 N 280.461 -5.99168 3.65981 0
M  V30 3096 H 285.301 -1.67392 2.46544 0
M  V30 3097 H 282.838 -0.816527 1.22357 0
M  V30 3098 H 284.796 -3.92286 1.42012 0
M  V30 3099 H 283.426 -3.18018 0.553544 0
M  V30 3100 H 282.478 -2.49242 2.87372 0
M  V30 3101 H 283.79 -3.43078 3.62076 0
M  V30 3102 H 282.944 -5.51638 2.52548 0
M  V30 3103 H 281.683 -4.58076 1.67384 0
M  V30 3104 H 280.688 -3.89957 3.87574 0
M  V30 3105 H 281.913 -4.86902 4.73395 0
M  V30 3106 H 279.859 -5.94814 2.76644 0
M  V30 3107 H 279.776 -6.08035 4.49254 0
M  V30 3108 H 281.044 -6.89846 3.6295 0
M  V30 3109 N 285.273 -1.31445 -0.869486 0
M  V30 3110 C 286.519 -1.21337 -1.62496 0
M  V30 3111 C 286.852 0.227872 -1.92858 0
M  V30 3112 O 286.127 1.16094 -1.56053 0
M  V30 3113 C 286.41 -2.05814 -2.95487 0
M  V30 3114 C 286.263 -3.5824 -2.72 0
M  V30 3115 C 287.582 -1.9079 -3.96594 0
M  V30 3116 H 284.701 -0.442135 -0.589649 0
M  V30 3117 H 287.343 -1.6124 -1.00507 0
M  V30 3118 H 285.493 -1.71913 -3.48394 0
M  V30 3119 H 287.165 -4.0228 -2.25762 0
M  V30 3120 H 285.408 -3.81647 -2.06224 0
M  V30 3121 H 286.079 -4.12657 -3.66631 0
M  V30 3122 H 288.555 -2.20459 -3.52898 0
M  V30 3123 H 287.431 -2.52199 -4.87531 0
M  V30 3124 H 287.692 -0.871341 -4.33428 0
M  V30 3125 N 286.751 1.08385 -1.14413 0
M  V30 3126 C 288.028 1.77429 -0.823297 0
M  V30 3127 C 288.408 1.9974 0.683163 0
M  V30 3128 O 287.756 1.60739 1.62405 0
M  V30 3129 C 287.966 3.09004 -1.62227 0
M  V30 3130 C 289.314 3.83532 -1.82177 0
M  V30 3131 O 290.338 3.18786 -1.58915 0
M  V30 3132 O 289.197 4.99792 -2.21067 0
M  V30 3133 H 286.291 0.769999 -0.301712 0
M  V30 3134 H 288.837 1.14846 -1.24934 0
M  V30 3135 H 287.609 2.88316 -2.64555 0
M  V30 3136 H 287.232 3.79316 -1.19187 0
M  V30 3137 N 288.23 0.939286 1.26551 0
M  V30 3138 C 289.16 0.465044 2.28822 0
M  V30 3139 C 290.141 -0.480692 1.63167 0
M  V30 3140 O 291.326 -0.382955 1.90387 0
M  V30 3141 C 288.456 -0.27234 3.46231 0
M  V30 3142 C 287.41 0.58666 4.2396 0
M  V30 3143 C 286.736 -0.280573 5.33963 0
M  V30 3144 C 288.036 1.85704 4.88171 0
M  V30 3145 H 289.73 1.31979 2.68741 0
M  V30 3146 H 287.276 0.636061 1.29191 0
M  V30 3147 H 289.229 -0.615133 4.16886 0
M  V30 3148 H 287.953 -1.16121 3.0526 0
M  V30 3149 H 286.612 0.91232 3.55067 0
M  V30 3150 H 286.26 -1.16874 4.89234 0
M  V30 3151 H 285.96 0.29076 5.8688 0
M  V30 3152 H 287.484 -0.618678 6.07458 0
M  V30 3153 H 288.898 1.58161 5.51052 0
M  V30 3154 H 287.295 2.37279 5.51197 0
M  V30 3155 H 288.365 2.56957 4.11219 0
M  V30 3156 N 289.708 -1.40897 0.706093 0
M  V30 3157 C 290.671 -2.29131 0.0562841 0
M  V30 3158 C 291.671 -1.44901 -0.697166 0
M  V30 3159 O 292.861 -1.65926 -0.530484 0
M  V30 3160 C 289.993 -3.27957 -0.93043 0
M  V30 3161 H 291.186 -2.88091 0.833284 0
M  V30 3162 H 288.739 -1.4906 0.470192 0
M  V30 3163 H 289.474 -2.73997 -1.73482 0
M  V30 3164 H 289.259 -3.90124 -0.393166 0
M  V30 3165 H 290.749 -3.94049 -1.38256 0
M  V30 3166 N 291.186 -0.45159 -1.50991 0
M  V30 3167 C 292.432 0.110237 -2.025 0
M  V30 3168 C 292.765 1.41109 -1.33424 0
M  V30 3169 O 292.04 1.89135 -0.453659 0
M  V30 3170 C 292.323 0.314271 -3.58726 0
M  V30 3171 C 292.176 -1.00623 -4.38401 0
M  V30 3172 C 293.495 1.07767 -4.26702 0
M  V30 3173 H 290.614 0.0385897 -0.735989 0
M  V30 3174 H 293.256 -0.593374 -1.80497 0
M  V30 3175 H 291.406 0.913601 -3.77605 0
M  V30 3176 H 293.078 -1.64064 -4.31139 0
M  V30 3177 H 291.321 -1.6075 -4.02917 0
M  V30 3178 H 291.992 -0.817341 -5.45915 0
M  V30 3179 H 294.468 0.56986 -4.12179 0
M  V30 3180 H 293.344 1.18921 -5.35863 0
M  V30 3181 H 293.605 2.10939 -3.88532 0
M  V30 3182 N 292.664 1.56529 -0.183458 0
M  V30 3183 C 293.91 1.97537 0.459036 0
M  V30 3184 C 294.243 1.06989 1.62071 0
M  V30 3185 O 293.518 0.11948 1.94133 0
M  V30 3186 C 293.801 3.47874 0.930368 0
M  V30 3187 C 293.654 4.492 -0.232317 0
M  V30 3188 C 294.973 4.01612 1.79989 0
M  V30 3189 H 292.092 0.718204 0.165383 0
M  V30 3190 H 294.734 1.88042 -0.272038 0
M  V30 3191 H 292.884 3.56095 1.55333 0
M  V30 3192 H 294.556 4.53027 -0.86972 0
M  V30 3193 H 292.799 4.24657 -0.885928 0
M  V30 3194 H 293.47 5.51823 0.139796 0
M  V30 3195 H 295.946 3.96097 1.27461 0
M  V30 3196 H 294.822 5.07195 2.09867 0
M  V30 3197 H 295.083 3.46163 2.74998 0
M  V30 3198 N 294.142 -0.090211 1.57342 0
M  V30 3199 C 295.052 -1.12735 2.05738 0
M  V30 3200 C 296.068 -1.43557 0.983231 0
M  V30 3201 O 297.244 -1.54101 1.29672 0
M  V30 3202 C 294.309 -2.42659 2.47624 0
M  V30 3203 C 293.37 -2.18975 3.69254 0
M  V30 3204 C 292.603 -3.42704 4.09133 0
M  V30 3205 O 292.826 -4.51127 3.49057 0
M  V30 3206 O 291.76 -3.32003 5.02053 0
M  V30 3207 H 295.586 -0.746279 2.94388 0
M  V30 3208 H 293.171 -0.303064 1.46294 0
M  V30 3209 H 295.053 -3.19155 2.7517 0
M  V30 3210 H 293.728 -2.80182 1.62109 0
M  V30 3211 H 292.635 -1.40244 3.46818 0
M  V30 3212 H 293.968 -1.86342 4.55563 0
M  V30 3213 N 295.62 -1.53406 -0.361157 0
M  V30 3214 C 296.866 -1.70054 -1.10496 0
M  V30 3215 C 297.199 -0.453278 -1.88836 0
M  V30 3216 O 296.474 0.5495 -1.86576 0
M  V30 3217 C 296.757 -2.95317 -2.06058 0
M  V30 3218 C 296.61 -4.3021 -1.31298 0
M  V30 3219 C 297.929 -3.16193 -3.06121 0
M  V30 3220 H 295.048 -0.618799 -0.400321 0
M  V30 3221 H 297.69 -1.86052 -0.385318 0
M  V30 3222 H 295.84 -2.81809 -2.67425 0
M  V30 3223 H 297.512 -4.55538 -0.726807 0
M  V30 3224 H 295.755 -4.29421 -0.614853 0
M  V30 3225 H 296.426 -5.14 -2.01265 0
M  V30 3226 H 298.902 -3.28916 -2.5486 0
M  V30 3227 H 297.778 -4.05266 -3.70204 0
M  V30 3228 H 298.039 -2.31676 -3.76535 0
M  V30 3229 N 297.098 0.621204 -1.44841 0
M  V30 3230 C 298.346 1.37783 -1.47852 0
M  V30 3231 C 298.667 1.94653 -0.116224 0
M  V30 3232 O 297.937 1.76367 0.852737 0
M  V30 3233 H 296.517 0.511453 -0.544449 0
M  V30 3234 H 299.179 0.730446 -1.80694 0
M  V30 3235 H 298.275 2.20414 -2.20961 0
M  V30 3236 N 298.576 1.31904 0.862503 0
M  V30 3237 C 299.825 1.21373 1.61094 0
M  V30 3238 C 300.138 -0.22504 1.94301 0
M  V30 3239 O 301.344 -0.452121 2.67709 0
M  V30 3240 C 299.8 2.12525 2.9045 0
M  V30 3241 C 299.408 3.61441 2.64697 0
M  V30 3242 C 301.152 2.10813 3.68454 0
M  V30 3243 C 299.059 4.44578 3.90006 0
M  V30 3244 H 297.989 0.450705 0.604468 0
M  V30 3245 H 300.64 1.56811 0.953027 0
M  V30 3246 H 299.022 1.69994 3.57656 0
M  V30 3247 H 300.196 4.12264 2.05851 0
M  V30 3248 H 298.511 3.65205 2.00036 0
M  V30 3249 H 301.108 2.70167 4.61426 0
M  V30 3250 H 301.451 1.09713 4.01583 0
M  V30 3251 H 301.984 2.51583 3.08141 0
M  V30 3252 H 298.723 5.46461 3.62023 0
M  V30 3253 H 298.243 3.98508 4.48276 0
M  V30 3254 H 299.922 4.57176 4.5782 0
M  V30 3255 N 300.054 -1.07777 1.14986 0
M  V30 3256 C 301.302 -1.79934 0.920235 0
M  V30 3257 C 301.623 -1.86955 -0.554336 0
M  V30 3258 O 300.893 -1.36731 -1.40291 0
M  V30 3259 H 299.473 -0.666424 0.337473 0
M  V30 3260 H 302.135 -1.3027 1.44968 0
M  V30 3261 H 301.231 -2.82539 1.32583 0
M  V30 3262 N 301.532 -0.945985 -1.26051 0
M  V30 3263 C 302.78 -0.594941 -1.93145 0
M  V30 3264 C 303.101 0.86953 -1.7454 0
M  V30 3265 O 302.371 1.61838 -1.10387 0
M  V30 3266 H 300.951 -0.217044 -0.714773 0
M  V30 3267 H 303.613 -1.20235 -1.53393 0
M  V30 3268 H 302.709 -0.816835 -3.01221 0
M  V30 3269 N 303.011 1.40521 -0.713556 0
M  V30 3270 C 303.974 2.29098 -0.0684347 0
M  V30 3271 C 304.974 1.45268 0.689472 0
M  V30 3272 O 306.164 1.66205 0.521677 0
M  V30 3273 C 303.296 3.28446 0.913024 0
M  V30 3274 H 304.489 2.87645 -0.84855 0
M  V30 3275 H 302.042 1.48809 -0.47809 0
M  V30 3276 H 302.777 2.74913 1.72027 0
M  V30 3277 H 302.562 3.90327 0.372472 0
M  V30 3278 H 304.052 3.94777 1.36165 0
M  V30 3279 N 304.489 0.459591 1.5075 0
M  V30 3280 C 305.719 -0.0972338 2.06371 0
M  V30 3281 C 306.127 -1.35074 1.32483 0
M  V30 3282 O 305.47 -1.79637 0.384226 0
M  V30 3283 C 305.532 -0.462759 3.56509 0
M  V30 3284 C 305.196 0.687084 4.51805 0
M  V30 3285 C 306.193 1.56578 4.95761 0
M  V30 3286 C 303.878 0.874144 4.94635 0
M  V30 3287 C 305.872 2.61604 5.81242 0
M  V30 3288 C 303.559 1.92765 5.79901 0
M  V30 3289 C 304.557 2.79697 6.23104 0
M  V30 3290 O 304.245 3.83235 7.06673 0
M  V30 3291 H 303.977 -0.00140687 0.675999 0
M  V30 3292 H 306.531 0.644011 1.95043 0
M  V30 3293 H 304.761 -1.25703 3.65699 0
M  V30 3294 H 306.45 -0.953323 3.94546 0
M  V30 3295 H 307.216 1.4329 4.6335 0
M  V30 3296 H 303.095 0.207006 4.60535 0
M  V30 3297 H 306.639 3.29489 6.14884 0
M  V30 3298 H 302.536 2.06064 6.11725 0
M  V30 3299 H 303.304 3.80084 7.24899 0
M  V30 3300 N 305.967 -1.56429 0.191757 0
M  V30 3301 C 307.244 -1.89224 -0.495332 0
M  V30 3302 C 307.624 -1.10478 -1.79883 0
M  V30 3303 O 306.972 -0.204852 -2.2758 0
M  V30 3304 C 307.182 -3.41548 -0.717367 0
M  V30 3305 C 308.53 -4.11711 -1.03823 0
M  V30 3306 O 309.554 -3.4698 -0.805204 0
M  V30 3307 O 308.413 -5.2611 -1.47887 0
M  V30 3308 H 305.507 -0.785788 -0.25781 0
M  V30 3309 H 308.053 -1.68111 0.231721 0
M  V30 3310 H 306.825 -3.90772 0.203287 0
M  V30 3311 H 306.448 -3.68342 -1.497 0
M  V30 3312 N 307.445 0.0818655 -1.57387 0
M  V30 3313 C 308.685 0.788375 -1.88584 0
M  V30 3314 C 309.049 1.75248 -0.784351 0
M  V30 3315 O 310.25 2.50334 -0.979105 0
M  V30 3316 C 308.521 1.48654 -3.25018 0
M  V30 3317 S 310.08 2.22951 -3.7794 0
M  V30 3318 H 306.898 0.262383 -0.660815 0
M  V30 3319 H 309.5 0.0448995 -1.95448 0
M  V30 3320 H 308.204 0.770919 -4.03094 0
M  V30 3321 H 307.735 2.26965 -3.21326 0
M  V30 3322 H 309.75 3.49309 -3.52417 0
M  V30 3323 N 308.923 1.53595 0.353017 0
M  V30 3324 C 310.151 1.74311 1.1146 0
M  V30 3325 C 310.566 0.477854 1.82653 0
M  V30 3326 O 309.923 -0.549977 1.74016 0
M  V30 3327 C 309.974 2.91694 2.13534 0
M  V30 3328 O 309.695 4.13325 1.45238 0
M  V30 3329 C 311.196 3.24384 3.02142 0
M  V30 3330 H 308.416 0.582669 0.332773 0
M  V30 3331 H 310.96 2.00386 0.408107 0
M  V30 3332 H 309.115 2.67977 2.79763 0
M  V30 3333 H 309.529 4.79148 2.13349 0
M  V30 3334 H 311.003 4.09893 3.69718 0
M  V30 3335 H 311.48 2.40282 3.67643 0
M  V30 3336 H 312.086 3.50073 2.41514 0
M  V30 3337 N 310.401 -0.613514 1.45168 0
M  V30 3338 C 311.349 -1.74572 1.53712 0
M  V30 3339 C 312.343 -1.64426 0.407505 0
M  V30 3340 O 313.549 -1.70291 0.583176 0
M  V30 3341 H 309.924 -0.576641 0.48269 0
M  V30 3342 H 311.895 -1.64492 2.48968 0
M  V30 3343 C 310.644 -3.12943 1.51532 0
M  V30 3344 H 309.967 -3.21407 2.37776 0
M  V30 3345 H 311.407 -3.9201 1.61569 0
M  V30 3346 C 309.866 -3.36053 0.238798 0
M  V30 3347 O 310.396 -3.95837 -0.6838 0
M  V30 3348 N 308.602 -2.9028 0.136359 0
M  V30 3349 H 308.149 -2.41811 0.887999 0
M  V30 3350 H 308.107 -3.06116 -0.716944 0
M  V30 3351 N 311.879 -1.3236 -0.855495 0
M  V30 3352 C 313.128 -1.22226 -1.60448 0
M  V30 3353 C 313.441 0.214733 -1.94418 0
M  V30 3354 O 314.647 0.437917 -2.67945 0
M  V30 3355 C 313.103 -2.14063 -2.89318 0
M  V30 3356 C 312.711 -3.62839 -2.62777 0
M  V30 3357 C 314.455 -2.12764 -3.67331 0
M  V30 3358 C 312.362 -4.4664 -3.87643 0
M  V30 3359 H 311.292 -0.453904 -0.602069 0
M  V30 3360 H 313.943 -1.57314 -0.944698 0
M  V30 3361 H 312.325 -1.71889 -3.5675 0
M  V30 3362 H 313.499 -4.1335 -2.03662 0
M  V30 3363 H 311.814 -3.66261 -1.98096 0
M  V30 3364 H 314.411 -2.72611 -4.59987 0
M  V30 3365 H 314.754 -1.11841 -4.00995 0
M  V30 3366 H 315.287 -2.53214 -3.06802 0
M  V30 3367 H 312.026 -5.48373 -3.5912 0
M  V30 3368 H 311.546 -4.0088 -4.46156 0
M  V30 3369 H 313.225 -4.59597 -4.55389 0
M  V30 3370 N 313.357 1.07166 -1.15556 0
M  V30 3371 C 314.606 1.79181 -0.926132 0
M  V30 3372 C 314.919 1.87768 0.547967 0
M  V30 3373 O 316.125 2.56323 0.895036 0
M  V30 3374 C 314.581 3.22 -1.60761 0
M  V30 3375 C 314.189 3.21607 -3.11886 0
M  V30 3376 C 315.933 3.9861 -1.4598 0
M  V30 3377 C 313.84 4.59092 -3.72812 0
M  V30 3378 H 312.77 0.67154 -0.342856 0
M  V30 3379 H 315.421 1.2027 -1.3859 0
M  V30 3380 H 313.803 3.81115 -1.07553 0
M  V30 3381 H 314.977 2.72127 -3.71865 0
M  V30 3382 H 313.292 2.58495 -3.2645 0
M  V30 3383 H 315.889 5.00225 -1.88888 0
M  V30 3384 H 316.232 4.143 -0.407541 0
M  V30 3385 H 316.765 3.45996 -1.96295 0
M  V30 3386 H 313.504 4.48606 -4.77946 0
M  V30 3387 H 313.024 5.08803 -3.17616 0
M  V30 3388 H 314.703 5.28059 -3.73848 0
M  V30 3389 N 314.835 0.952656 1.25548 0
M  V30 3390 C 316.251 0.656769 1.4546 0
M  V30 3391 C 316.451 -0.78633 1.85524 0
M  V30 3392 O 315.507 -1.56183 1.98402 0
M  V30 3393 C 316.82 1.62801 2.52817 0
M  V30 3394 C 318.368 1.63897 2.66659 0
M  V30 3395 C 318.843 2.5978 3.77198 0
M  V30 3396 N 320.334 2.58133 3.84606 0
M  V30 3397 C 321.069 3.29003 4.69621 0
M  V30 3398 N 320.565 4.09339 5.58939 0
M  V30 3399 N 322.358 3.179 4.63569 0
M  V30 3400 H 314.509 1.88526 0.978344 0
M  V30 3401 H 316.772 0.810815 0.491206 0
M  V30 3402 H 316.478 2.65869 2.30232 0
M  V30 3403 H 316.352 1.38898 3.50695 0
M  V30 3404 H 318.739 0.615481 2.8861 0
M  V30 3405 H 318.82 1.91858 1.69187 0
M  V30 3406 H 318.464 3.62254 3.55997 0
M  V30 3407 H 318.394 2.29105 4.7415 0
M  V30 3408 H 320.885 1.99809 3.20757 0
M  V30 3409 H 321.198 4.6034 6.20731 0
M  V30 3410 H 319.543 4.13438 5.58654 0
M  V30 3411 H 322.734 2.54612 3.92798 0
M  V30 3412 H 322.907 3.73398 5.29602 0
M  V30 3413 N 316.313 -1.40141 0.720998 0
M  V30 3414 C 317.26 -2.30688 0.071919 0
M  V30 3415 C 318.23 -1.48476 -0.744584 0
M  V30 3416 O 319.415 -1.77201 -0.707423 0
M  V30 3417 C 316.555 -3.34724 -0.839855 0
M  V30 3418 C 315.668 -4.31998 -0.0122438 0
M  V30 3419 C 314.803 -5.23102 -0.923995 0
M  V30 3420 C 313.842 -6.12033 -0.0907969 0
M  V30 3421 N 312.979 -6.95537 -0.957718 0
M  V30 3422 H 317.819 -2.85628 0.849755 0
M  V30 3423 H 315.356 -1.40653 0.430726 0
M  V30 3424 H 317.314 -3.93618 -1.38279 0
M  V30 3425 H 315.944 -2.81274 -1.58381 0
M  V30 3426 H 314.996 -3.74841 0.64794 0
M  V30 3427 H 316.308 -4.94772 0.632595 0
M  V30 3428 H 315.462 -5.86953 -1.53527 0
M  V30 3429 H 314.201 -4.60615 -1.60264 0
M  V30 3430 H 313.206 -5.47207 0.533377 0
M  V30 3431 H 314.431 -6.76581 0.584428 0
M  V30 3432 H 312.377 -6.35633 -1.62192 0
M  V30 3433 H 312.294 -7.55099 -0.36904 0
M  V30 3434 H 313.562 -7.63832 -1.555 0
M  V30 3435 N 317.792 -0.46758 -1.50504 0
M  V30 3436 C 319.203 -0.0116166 -1.86696 0
M  V30 3437 C 319.554 1.39202 -1.38265 0
M  V30 3438 O 318.679 2.0313 -0.746132 0
M  V30 3439 C 319.274 -0.0143044 -3.38797 0
M  V30 3440 C 317.833 0.386175 -3.74414 0
M  V30 3441 C 316.98 -0.401287 -2.74381 0
M  V30 3442 H 319.931 -0.682022 -1.43297 0
M  V30 3443 H 319.952 0.788641 -3.72237 0
M  V30 3444 H 319.464 -1.03602 -3.74016 0
M  V30 3445 H 317.565 1.41237 -3.44794 0
M  V30 3446 H 317.678 0.0899596 -4.79016 0
M  V30 3447 H 316.042 0.144536 -2.5429 0
M  V30 3448 H 316.825 -1.42244 -3.12444 0
M  V30 3449 N 319.27 1.56325 -0.20005 0
M  V30 3450 C 320.516 1.98012 0.438059 0
M  V30 3451 C 320.849 1.08702 1.60927 0
M  V30 3452 O 320.124 0.140064 1.93995 0
M  V30 3453 C 320.407 3.48841 0.893419 0
M  V30 3454 C 320.26 4.48928 -0.279947 0
M  V30 3455 C 321.579 4.03498 1.75719 0
M  V30 3456 H 318.698 0.719918 0.157757 0
M  V30 3457 H 321.34 1.87743 -0.291968 0
M  V30 3458 H 319.49 3.57723 1.51547 0
M  V30 3459 H 321.162 4.52079 -0.91772 0
M  V30 3460 H 319.405 4.23694 -0.930919 0
M  V30 3461 H 320.076 5.5194 0.0812601 0
M  V30 3462 H 322.552 3.97427 1.23253 0
M  V30 3463 H 321.428 5.09393 2.04476 0
M  V30 3464 H 321.689 3.4906 2.71311 0
M  V30 3465 N 320.748 -0.0735177 1.57428 0
M  V30 3466 C 321.994 -0.774145 1.87443 0
M  V30 3467 C 322.327 -1.77311 0.792103 0
M  V30 3468 O 321.602 -1.93492 -0.197793 0
M  V30 3469 C 321.885 -1.48367 3.28115 0
M  V30 3470 C 321.738 -0.501227 4.46999 0
M  V30 3471 C 323.057 -2.429 3.66998 0
M  V30 3472 H 320.176 -0.279971 0.681752 0
M  V30 3473 H 322.818 -0.0373616 1.89963 0
M  V30 3474 H 320.968 -2.11171 3.26097 0
M  V30 3475 H 322.64 0.121468 4.6114 0
M  V30 3476 H 320.883 0.183593 4.33411 0
M  V30 3477 H 321.554 -1.03526 5.42205 0
M  V30 3478 H 324.03 -1.90175 3.70098 0
M  V30 3479 H 322.906 -2.89549 4.66318 0
M  V30 3480 H 323.167 -3.27628 2.96837 0
M  V30 3481 N 322.226 -1.5378 -0.344866 0
M  V30 3482 C 323.466 -1.72677 -1.09371 0
M  V30 3483 C 323.83 -0.479084 -1.85927 0
M  V30 3484 O 325.031 -0.54505 -2.63216 0
M  V30 3485 C 323.302 -2.95457 -2.01097 0
M  V30 3486 S 324.861 -3.35158 -2.83222 0
M  V30 3487 H 321.679 -0.607402 -0.369573 0
M  V30 3488 H 324.281 -1.91922 -0.372307 0
M  V30 3489 H 322.985 -3.84437 -1.43655 0
M  V30 3490 H 322.516 -2.78673 -2.77678 0
M  V30 3491 H 324.531 -2.88789 -4.03504 0
M  V30 3492 N 323.704 0.605807 -1.45491 0
M  V30 3493 C 324.952 1.36207 -1.49305 0
M  V30 3494 C 325.273 1.94519 -0.136863 0
M  V30 3495 O 324.543 1.77261 0.833983 0
M  V30 3496 H 323.123 0.50565 -0.549843 0
M  V30 3497 H 325.785 0.711239 -1.81459 0
M  V30 3498 H 324.881 2.18058 -2.23287 0
M  V30 3499 N 325.182 1.32811 0.848464 0
M  V30 3500 C 326.428 1.23907 1.60546 0
M  V30 3501 C 326.761 -0.197161 1.93197 0
M  V30 3502 O 326.036 -1.13596 1.5788 0
M  V30 3503 C 326.319 2.10489 2.92175 0
M  V30 3504 C 326.172 3.62522 2.66266 0
M  V30 3505 C 327.491 1.97075 3.93509 0
M  V30 3506 H 324.61 0.451459 0.58254 0
M  V30 3507 H 327.252 1.62818 0.979296 0
M  V30 3508 H 325.402 1.77434 3.45614 0
M  V30 3509 H 327.074 4.05821 2.19334 0
M  V30 3510 H 325.317 3.84879 2.00126 0
M  V30 3511 H 325.988 4.18437 3.6002 0
M  V30 3512 H 328.464 2.26045 3.49346 0
M  V30 3513 H 327.34 2.59923 4.83457 0
M  V30 3514 H 327.601 0.940186 4.31987 0
M  V30 3515 N 326.66 -1.06551 1.16123 0
M  V30 3516 C 327.885 -1.83544 0.965735 0
M  V30 3517 C 328.31 -1.81843 -0.481102 0
M  V30 3518 O 327.668 -1.21732 -1.34354 0
M  V30 3519 C 327.716 -3.28169 1.49457 0
M  V30 3520 O 326.82 -4.0643 0.699157 0
M  V30 3521 H 326.161 -0.568026 0.343864 0
M  V30 3522 H 328.691 -1.34362 1.54299 0
M  V30 3523 H 328.701 -3.78992 1.51092 0
M  V30 3524 H 327.376 -3.28722 2.54784 0
M  V30 3525 H 325.953 -3.65216 0.7531 0
M  V30 3526 N 328.138 -0.959301 -1.25041 0
M  V30 3527 C 329.363 -0.633507 -1.97488 0
M  V30 3528 C 329.788 0.788555 -1.70773 0
M  V30 3529 O 329.146 1.53394 -0.966431 0
M  V30 3530 C 329.194 -0.904057 -3.49083 0
M  V30 3531 O 328.298 0.0147939 -4.12397 0
M  V30 3532 H 327.639 -0.240368 -0.618966 0
M  V30 3533 H 330.169 -1.28717 -1.59038 0
M  V30 3534 H 330.179 -0.832203 -3.99423 0
M  V30 3535 H 328.854 -1.94048 -3.67856 0
M  V30 3536 H 327.431 -0.109664 -3.72739 0
M  V30 3537 N 329.616 1.39756 -0.72842 0
M  V30 3538 C 330.546 2.33289 -0.0991354 0
M  V30 3539 C 331.527 1.53568 0.731489 0
M  V30 3540 O 332.712 1.81987 0.677807 0
M  V30 3541 C 329.842 3.3763 0.813834 0
M  V30 3542 C 328.796 4.2791 0.0878663 0
M  V30 3543 C 328.122 5.22894 1.11741 0
M  V30 3544 C 329.422 5.11314 -1.06563 0
M  V30 3545 H 331.116 2.86163 -0.880408 0
M  V30 3546 H 328.662 1.37591 -0.424819 0
M  V30 3547 H 330.615 4.0201 1.26355 0
M  V30 3548 H 329.339 2.83181 1.62715 0
M  V30 3549 H 327.998 3.65 -0.342159 0
M  V30 3550 H 327.646 4.64744 1.92412 0
M  V30 3551 H 327.346 5.84143 0.636477 0
M  V30 3552 H 328.87 5.90151 1.56697 0
M  V30 3553 H 330.284 5.69076 -0.694671 0
M  V30 3554 H 328.681 5.81671 -1.47577 0
M  V30 3555 H 329.751 4.46534 -1.89038 0
M  V30 3556 N 331.094 0.475555 1.50254 0
M  V30 3557 C 332.342 -0.077738 2.0195 0
M  V30 3558 C 332.663 -1.39813 1.35931 0
M  V30 3559 O 331.933 -1.89249 0.506123 0
M  V30 3560 H 330.513 -0.031719 0.746326 0
M  V30 3561 H 333.175 0.626995 1.84539 0
M  V30 3562 H 332.271 -0.225995 3.11281 0
M  V30 3563 N 332.573 -1.56217 0.208337 0
M  V30 3564 C 333.822 -1.97124 -0.427204 0
M  V30 3565 C 334.135 -1.09859 -1.61835 0
M  V30 3566 O 335.341 -1.40606 -2.32255 0
M  V30 3567 C 333.797 -3.50633 -0.811442 0
M  V30 3568 C 333.405 -4.46582 0.35615 0
M  V30 3569 C 335.149 -4.00282 -1.41332 0
M  V30 3570 C 333.056 -5.91379 -0.0497852 0
M  V30 3571 H 331.986 -0.736086 -0.163381 0
M  V30 3572 H 334.637 -1.8099 0.302456 0
M  V30 3573 H 333.019 -3.62319 -1.59815 0
M  V30 3574 H 334.193 -4.46636 1.1337 0
M  V30 3575 H 332.508 -4.07202 0.870396 0
M  V30 3576 H 335.105 -5.0595 -1.72972 0
M  V30 3577 H 335.448 -3.45359 -2.32449 0
M  V30 3578 H 335.981 -3.91764 -0.690323 0
M  V30 3579 H 332.72 -6.50255 0.827529 0
M  V30 3580 H 332.24 -5.94549 -0.791926 0
M  V30 3581 H 333.919 -6.45209 -0.481042 0
M  V30 3582 N 334.051 0.0651679 -1.57465 0
M  V30 3583 C 335.328 0.79644 -1.78651 0
M  V30 3584 C 335.708 1.95454 -0.797566 0
M  V30 3585 O 335.056 2.27882 0.167946 0
M  V30 3586 C 335.266 1.26322 -3.25337 0
M  V30 3587 C 336.614 1.6939 -3.89348 0
M  V30 3588 O 337.638 1.35872 -3.29268 0
M  V30 3589 O 336.497 2.31471 -4.95059 0
M  V30 3590 H 333.591 0.382157 -0.733407 0
M  V30 3591 H 336.137 0.0447311 -1.69641 0
M  V30 3592 H 334.909 0.434859 -3.88876 0
M  V30 3593 H 334.532 2.07604 -3.39096 0
M  V30 3594 N 335.529 1.53961 0.336706 0
M  V30 3595 C 336.479 1.7881 1.41461 0
M  V30 3596 C 337.463 0.643561 1.47469 0
M  V30 3597 O 338.655 0.903166 1.52223 0
M  V30 3598 C 335.784 2.00722 2.78506 0
M  V30 3599 C 334.87 3.2126 2.76862 0
M  V30 3600 N 335.261 4.42588 2.44845 0
M  V30 3601 C 333.559 3.22568 3.08004 0
M  V30 3602 C 334.26 5.2447 2.51607 0
M  V30 3603 N 333.236 4.61344 2.87511 0
M  V30 3604 H 337.038 2.70205 1.15615 0
M  V30 3605 H 334.552 1.52978 0.545112 0
M  V30 3606 H 336.549 2.1666 3.5618 0
M  V30 3607 H 335.209 1.10573 3.05293 0
M  V30 3608 H 336.22 4.69819 2.17922 0
M  V30 3609 H 332.897 2.42409 3.39918 0
M  V30 3610 H 334.287 6.31324 2.29955 0
M  V30 3611 N 337.007 -0.598083 1.45811 0
M  V30 3612 C 338.235 -1.38322 1.53866 0
M  V30 3613 C 338.65 -1.87992 0.174479 0
M  V30 3614 O 338.007 -1.62756 -0.825627 0
M  V30 3615 C 338.058 -2.58125 2.53089 0
M  V30 3616 O 337.779 -2.10516 3.84206 0
M  V30 3617 C 339.28 -3.50869 2.70935 0
M  V30 3618 H 336.5 -0.423093 0.520801 0
M  V30 3619 H 339.044 -0.728527 1.91083 0
M  V30 3620 H 337.199 -3.19615 2.18917 0
M  V30 3621 H 337.613 -2.88425 4.38077 0
M  V30 3622 H 339.087 -4.31451 3.44317 0
M  V30 3623 H 339.564 -4.01822 1.77301 0
M  V30 3624 H 340.17 -2.95225 3.06141 0
M  V30 3625 N 338.485 -1.33259 -0.841409 0
M  V30 3626 C 339.71 -1.2775 -1.63385 0
M  V30 3627 C 340.135 0.149188 -1.87507 0
M  V30 3628 O 339.493 1.10498 -1.43736 0
M  V30 3629 C 339.541 -2.05571 -2.96265 0
M  V30 3630 O 338.645 -1.41257 -3.87453 0
M  V30 3631 H 337.986 -0.439627 -0.497618 0
M  V30 3632 H 340.516 -1.75782 -1.04699 0
M  V30 3633 H 340.526 -2.16241 -3.45982 0
M  V30 3634 H 339.201 -3.09309 -2.7803 0
M  V30 3635 H 337.778 -1.39217 -3.45938 0
M  V30 3636 N 339.963 1.05934 -1.16686 0
M  V30 3637 C 340.893 2.1546 -0.899949 0
M  V30 3638 C 341.874 1.69391 0.155154 0
M  V30 3639 O 343.059 1.94199 0.00648693 0
M  V30 3640 C 340.189 3.44939 -0.404241 0
M  V30 3641 C 339.143 4.04536 -1.39767 0
M  V30 3642 C 338.469 5.29268 -0.760216 0
M  V30 3643 C 339.769 4.42893 -2.76845 0
M  V30 3644 H 341.463 2.38046 -1.81588 0
M  V30 3645 H 339.009 1.14404 -0.874514 0
M  V30 3646 H 340.962 4.20901 -0.204971 0
M  V30 3647 H 339.686 3.21983 0.547206 0
M  V30 3648 H 338.345 3.30635 -1.58355 0
M  V30 3649 H 337.993 5.02611 0.197831 0
M  V30 3650 H 337.693 5.70101 -1.42332 0
M  V30 3651 H 339.217 6.07924 -0.57105 0
M  V30 3652 H 340.631 5.09921 -2.62019 0
M  V30 3653 H 339.028 4.94721 -3.39663 0
M  V30 3654 H 340.098 3.53584 -3.31823 0
M  V30 3655 N 341.441 0.965919 1.2453 0
M  V30 3656 C 342.371 0.513476 2.27784 0
M  V30 3657 C 343.352 -0.445974 1.6415 0
M  V30 3658 O 344.537 -0.342485 1.91156 0
M  V30 3659 C 341.667 -0.198839 3.4673 0
M  V30 3660 C 340.621 0.676456 4.2262 0
M  V30 3661 C 339.947 -0.167248 5.34438 0
M  V30 3662 C 341.247 1.96017 4.84123 0
M  V30 3663 H 342.941 1.3765 2.65881 0
M  V30 3664 H 340.487 0.663321 1.27813 0
M  V30 3665 H 342.44 -0.526567 4.18097 0
M  V30 3666 H 341.164 -1.0962 3.07654 0
M  V30 3667 H 339.823 0.98743 3.53052 0
M  V30 3668 H 339.471 -1.0647 4.91603 0
M  V30 3669 H 339.171 0.415181 5.86131 0
M  V30 3670 H 340.695 -0.489688 6.08633 0
M  V30 3671 H 342.109 1.69814 5.47573 0
M  V30 3672 H 340.506 2.48918 5.4604 0
M  V30 3673 H 341.576 2.65622 4.05676 0
M  V30 3674 N 342.919 -1.39368 0.735821 0
M  V30 3675 C 344.167 -2.00101 0.283562 0
M  V30 3676 C 344.488 -1.5868 -1.13338 0
M  V30 3677 O 343.758 -0.835423 -1.77193 0
M  V30 3678 H 342.338 -0.740024 0.101851 0
M  V30 3679 H 345 -1.70404 0.945962 0
M  V30 3680 H 344.096 -3.10323 0.332604 0
M  V30 3681 N 344.397 -0.483516 -1.5 0
M  V30 3682 C 345.674 0.129337 -1.95172 0
M  V30 3683 C 346.054 1.55802 -1.4244 0
M  V30 3684 O 345.402 2.19625 -0.630649 0
M  V30 3685 C 345.612 0.0599251 -3.48949 0
M  V30 3686 C 346.96 0.242617 -4.23906 0
M  V30 3687 O 347.984 0.135933 -3.55941 0
M  V30 3688 O 346.843 0.459454 -5.44565 0
M  V30 3689 H 343.937 0.104887 -0.820322 0
M  V30 3690 H 346.483 -0.544807 -1.60717 0
M  V30 3691 H 345.255 -0.937079 -3.79914 0
M  V30 3692 H 344.878 0.774984 -3.89974 0
M  V30 3693 N 345.875 1.56104 -0.216619 0
M  V30 3694 C 347.103 2.02563 0.421413 0
M  V30 3695 C 347.518 1.0965 1.53695 0
M  V30 3696 O 346.875 0.10521 1.82196 0
M  V30 3697 C 346.926 3.48584 0.957665 0
M  V30 3698 O 346.647 4.37953 -0.113389 0
M  V30 3699 C 348.148 4.10664 1.66943 0
M  V30 3700 H 345.368 0.662944 0.103665 0
M  V30 3701 H 347.912 2.01793 -0.331629 0
M  V30 3702 H 346.067 3.49985 1.661 0
M  V30 3703 H 346.481 5.23704 0.288932 0
M  V30 3704 H 347.955 5.14622 1.99671 0
M  V30 3705 H 348.432 3.55373 2.58083 0
M  V30 3706 H 349.038 4.13098 1.01142 0
M  V30 3707 N 347.353 -0.0568162 1.57498 0
M  V30 3708 C 348.599 -0.75422 1.88253 0
M  V30 3709 C 348.932 -1.76461 0.810865 0
M  V30 3710 O 348.207 -1.93691 -0.177259 0
M  V30 3711 C 348.49 -1.44878 3.2967 0
M  V30 3712 C 348.343 -0.453789 4.47505 0
M  V30 3713 C 349.662 -2.38994 3.69554 0
M  V30 3714 H 346.781 -0.272724 0.684683 0
M  V30 3715 H 349.423 -0.0172113 1.89992 0
M  V30 3716 H 347.573 -2.077 3.28318 0
M  V30 3717 H 349.245 0.170371 4.60985 0
M  V30 3718 H 347.488 0.229552 4.33192 0
M  V30 3719 H 348.159 -0.977699 5.43273 0
M  V30 3720 H 350.635 -1.86239 3.72095 0
M  V30 3721 H 349.511 -2.84587 4.69363 0
M  V30 3722 H 349.772 -3.24461 3.00296 0
M  V30 3723 N 348.832 -1.54138 -0.328536 0
M  V30 3724 C 349.742 -1.86192 -1.42723 0
M  V30 3725 C 350.758 -0.753382 -1.56844 0
M  V30 3726 O 351.934 -1.04718 -1.72035 0
M  V30 3727 C 348.999 -2.07824 -2.77507 0
M  V30 3728 C 348.06 -3.31641 -2.72603 0
M  V30 3729 C 347.293 -3.52232 -4.00959 0
M  V30 3730 O 347.516 -2.7636 -4.9898 0
M  V30 3731 O 346.45 -4.45699 -4.0452 0
M  V30 3732 H 350.276 -2.79608 -1.18547 0
M  V30 3733 H 347.861 -1.3998 -0.522104 0
M  V30 3734 H 349.743 -2.23411 -3.57303 0
M  V30 3735 H 348.418 -1.17596 -3.01584 0
M  V30 3736 H 347.325 -3.21444 -1.91376 0
M  V30 3737 H 348.658 -4.2191 -2.53481 0
M  V30 3738 N 350.31 0.590341 -1.46126 0
M  V30 3739 C 351.257 1.69994 -1.56111 0
M  V30 3740 C 352.227 1.61065 -0.405867 0
M  V30 3741 O 353.412 1.8039 -0.621613 0
M  V30 3742 C 350.552 3.08326 -1.55013 0
M  V30 3743 C 349.665 3.27936 -2.81215 0
M  V30 3744 C 348.8 4.56473 -2.71673 0
M  V30 3745 C 347.839 4.694 -3.92849 0
M  V30 3746 N 346.976 5.89254 -3.81738 0
M  V30 3747 H 351.816 1.60797 -2.50895 0
M  V30 3748 H 349.353 0.783799 -1.24479 0
M  V30 3749 H 351.311 3.88383 -1.52362 0
M  V30 3750 H 349.941 3.16439 -0.637667 0
M  V30 3751 H 348.993 2.41536 -2.93879 0
M  V30 3752 H 350.305 3.33357 -3.71045 0
M  V30 3753 H 349.459 5.44748 -2.67085 0
M  V30 3754 H 348.198 4.53477 -1.7947 0
M  V30 3755 H 347.203 3.79544 -3.97777 0
M  V30 3756 H 348.428 4.7418 -4.86138 0
M  V30 3757 H 346.374 5.87271 -2.92317 0
M  V30 3758 H 346.291 5.95911 -4.65217 0
M  V30 3759 H 347.559 6.79981 -3.81112 0
M  V30 3760 N 351.788 1.33704 0.83433 0
M  V30 3761 C 353.037 1.24763 1.58484 0
M  V30 3762 C 353.35 -0.183775 1.94735 0
M  V30 3763 O 354.556 -0.395234 2.68608 0
M  V30 3764 C 353.012 2.18638 2.85876 0
M  V30 3765 C 352.62 3.66974 2.56971 0
M  V30 3766 C 354.364 2.18581 3.63899 0
M  V30 3767 C 352.271 4.5275 3.80488 0
M  V30 3768 H 351.201 0.463425 0.594772 0
M  V30 3769 H 353.852 1.58797 0.919551 0
M  V30 3770 H 352.234 1.77542 3.5397 0
M  V30 3771 H 353.408 4.16538 1.9706 0
M  V30 3772 H 351.723 3.69366 1.92244 0
M  V30 3773 H 354.32 2.79894 4.55591 0
M  V30 3774 H 354.663 1.18207 3.99165 0
M  V30 3775 H 355.196 2.58062 3.02735 0
M  V30 3776 H 351.935 5.54017 3.5035 0
M  V30 3777 H 351.455 4.07927 4.39722 0
M  V30 3778 H 353.134 4.66784 4.4802 0
M  V30 3779 N 353.266 -1.05314 1.17247 0
M  V30 3780 C 354.229 -2.112 0.890357 0
M  V30 3781 C 355.229 -1.60359 -0.118943 0
M  V30 3782 O 356.419 -1.73833 0.113086 0
M  V30 3783 C 353.551 -3.39266 0.333422 0
M  V30 3784 H 354.744 -2.37659 1.82916 0
M  V30 3785 H 352.297 -1.21538 0.982758 0
M  V30 3786 H 353.032 -3.18462 -0.612587 0
M  V30 3787 H 352.817 -3.77477 1.06082 0
M  V30 3788 H 354.307 -4.17315 0.154322 0
M  V30 3789 N 354.744 -0.972509 -1.24016 0
M  V30 3790 C 355.99 -0.647583 -1.92816 0
M  V30 3791 C 356.345 0.809015 -1.74564 0
M  V30 3792 O 355.638 1.57502 -1.09103 0
M  V30 3793 C 355.832 -0.963694 -3.44162 0
M  V30 3794 C 355.661 -2.44947 -3.77135 0
M  V30 3795 C 354.431 -3.11012 -3.98246 0
M  V30 3796 C 356.629 -3.42978 -3.83237 0
M  V30 3797 N 354.611 -4.49277 -4.18358 0
M  V30 3798 C 355.982 -4.66619 -4.08248 0
M  V30 3799 C 358.037 -3.37569 -3.65994 0
M  V30 3800 C 356.74 -5.85516 -4.17808 0
M  V30 3801 C 358.766 -4.55822 -3.76802 0
M  V30 3802 C 358.128 -5.78256 -4.02243 0
M  V30 3803 H 354.227 -0.287894 -0.727077 0
M  V30 3804 H 356.811 -1.24835 -1.49413 0
M  V30 3805 H 354.982 -0.391692 -3.8642 0
M  V30 3806 H 356.714 -0.596849 -4.00275 0
M  V30 3807 H 353.469 -2.61529 -3.94841 0
M  V30 3808 H 353.893 -5.20935 -4.32384 0
M  V30 3809 H 358.535 -2.43945 -3.45327 0
M  V30 3810 H 356.253 -6.79564 -4.37285 0
M  V30 3811 H 359.839 -4.53204 -3.64825 0
M  V30 3812 H 358.719 -6.68231 -4.10411 0
M  V30 3813 N 356.222 1.38976 -0.743202 0
M  V30 3814 C 357.154 2.29096 -0.0689228 0
M  V30 3815 C 358.167 1.47229 0.694791 0
M  V30 3816 O 359.356 1.70212 0.537597 0
M  V30 3817 C 356.456 3.25988 0.926548 0
M  V30 3818 C 355.629 4.36833 0.222647 0
M  V30 3819 C 354.688 5.13981 1.12739 0
M  V30 3820 O 353.714 5.6601 0.601795 0
M  V30 3821 N 354.916 5.25966 2.45641 0
M  V30 3822 H 357.681 2.87604 -0.842846 0
M  V30 3823 H 355.242 1.50645 -0.593109 0
M  V30 3824 H 357.234 3.74476 1.5346 0
M  V30 3825 H 355.804 2.68453 1.60162 0
M  V30 3826 H 355.024 3.90116 -0.565983 0
M  V30 3827 H 356.312 5.0811 -0.264841 0
M  V30 3828 H 355.71 4.85228 2.9081 0
M  V30 3829 H 354.267 5.77865 3.01522 0
M  V30 3830 N 357.7 0.491464 1.49741 0
M  V30 3831 C 358.647 -0.292027 2.28945 0
M  V30 3832 C 359.617 -0.968973 1.34908 0
M  V30 3833 O 360.802 -0.97748 1.6386 0
M  V30 3834 C 357.942 -1.35617 3.17336 0
M  V30 3835 C 357.055 -0.691957 4.26422 0
M  V30 3836 C 356.19 -1.73572 5.02042 0
M  V30 3837 C 355.229 -1.05286 6.02977 0
M  V30 3838 N 354.366 -2.0404 6.71798 0
M  V30 3839 H 359.206 0.389654 2.95442 0
M  V30 3840 H 356.743 0.204003 1.45679 0
M  V30 3841 H 358.701 -1.98502 3.66951 0
M  V30 3842 H 357.331 -2.00674 2.52844 0
M  V30 3843 H 356.383 0.0499523 3.80367 0
M  V30 3844 H 357.695 -0.153946 4.98562 0
M  V30 3845 H 356.849 -2.43987 5.55478 0
M  V30 3846 H 355.588 -2.30757 4.29654 0
M  V30 3847 H 354.593 -0.334446 5.48782 0
M  V30 3848 H 355.818 -0.487636 6.77347 0
M  V30 3849 H 353.764 -2.60205 6.02187 0
M  V30 3850 H 353.681 -1.55279 7.39881 0
M  V30 3851 H 354.949 -2.73772 7.29842 0
M  V30 3852 N 359.178 -1.55987 0.224894 0
M  V30 3853 C 360.426 -1.97998 -0.405099 0
M  V30 3854 C 360.747 -1.11387 -1.60056 0
M  V30 3855 O 360.017 -0.191645 -1.9496 0
M  V30 3856 H 358.597 -0.731235 -0.152658 0
M  V30 3857 H 361.259 -1.92279 0.318567 0
M  V30 3858 H 360.355 -3.03463 -0.729167 0
M  V30 3859 N 360.656 0.0484629 -1.57525 0
M  V30 3860 C 361.904 0.741657 -1.88 0
M  V30 3861 C 362.225 1.76918 -0.820054 0
M  V30 3862 O 361.495 1.95335 0.148661 0
M  V30 3863 H 360.075 0.276908 -0.69378 0
M  V30 3864 H 362.737 0.019013 -1.94891 0
M  V30 3865 H 361.833 1.24336 -2.86264 0
M  V30 3866 N 362.134 1.5431 0.320358 0
M  V30 3867 C 363.383 1.7188 1.05546 0
M  V30 3868 C 363.696 0.501143 1.89071 0
M  V30 3869 O 364.902 0.558258 2.65699 0
M  V30 3870 C 363.358 3.04025 1.92605 0
M  V30 3871 C 362.966 4.33207 1.14176 0
M  V30 3872 C 364.71 3.30959 2.65832 0
M  V30 3873 C 362.617 5.56412 2.00399 0
M  V30 3874 H 361.547 0.640547 0.397763 0
M  V30 3875 H 364.198 1.80802 0.313522 0
M  V30 3876 H 362.58 2.89019 2.7071 0
M  V30 3877 H 363.754 4.58989 0.40819 0
M  V30 3878 H 362.069 4.13062 0.526165 0
M  V30 3879 H 364.666 4.20203 3.30656 0
M  V30 3880 H 365.009 2.48979 3.33639 0
M  V30 3881 H 365.542 3.46847 1.94787 0
M  V30 3882 H 362.281 6.41004 1.37094 0
M  V30 3883 H 361.801 5.34844 2.7148 0
M  V30 3884 H 363.48 5.92938 2.58908 0
M  V30 3885 N 363.613 -0.582584 1.46437 0
M  V30 3886 C 364.86 -1.34079 1.51753 0
M  V30 3887 C 365.188 -1.93762 0.169299 0
M  V30 3888 O 364.443 -1.76989 -0.835062 0
M  V30 3889 C 364.742 -2.48964 2.56421 0
M  V30 3890 C 364.408 -2.07273 4.00436 0
M  V30 3891 C 363.07 -1.95618 4.39644 0
M  V30 3892 C 365.422 -1.75111 4.90903 0
M  V30 3893 C 362.75 -1.5006 5.67185 0
M  V30 3894 C 365.102 -1.31032 6.18881 0
M  V30 3895 C 363.766 -1.17954 6.56996 0
M  V30 3896 H 363.036 -0.49063 0.555304 0
M  V30 3897 H 365.683 -0.656007 1.79913 0
M  V30 3898 H 363.988 -3.22889 2.21923 0
M  V30 3899 H 365.685 -3.07178 2.57765 0
M  V30 3900 H 362.275 -2.17279 3.69443 0
M  V30 3901 H 366.459 -1.83001 4.61329 0
M  V30 3902 H 361.715 -1.38577 5.95488 0
M  V30 3903 H 365.889 -1.052 6.88408 0
M  V30 3904 H 363.516 -0.824279 7.55718 0
M  V30 3905 N 365.091 -1.34144 -0.827227 0
M  V30 3906 C 366.038 -1.25364 -1.93785 0
M  V30 3907 C 367.008 -0.129774 -1.65592 0
M  V30 3908 O 368.193 -0.310024 -1.88264 0
M  V30 3909 C 365.333 -1.01064 -3.2997 0
M  V30 3910 C 364.446 -2.22185 -3.70484 0
M  V30 3911 C 363.581 -1.91203 -4.95595 0
M  V30 3912 C 362.62 -3.08491 -5.28677 0
M  V30 3913 N 361.757 -2.77421 -6.44967 0
M  V30 3914 H 366.597 -2.20347 -2.00627 0
M  V30 3915 H 364.134 -1.09558 -0.981608 0
M  V30 3916 H 366.092 -0.850139 -4.08446 0
M  V30 3917 H 364.722 -0.0975026 -3.22653 0
M  V30 3918 H 363.774 -2.4917 -2.87434 0
M  V30 3919 H 365.086 -3.0983 -3.90905 0
M  V30 3920 H 364.24 -1.71864 -5.81848 0
M  V30 3921 H 362.979 -1.00812 -4.77167 0
M  V30 3922 H 361.984 -3.28431 -4.40923 0
M  V30 3923 H 363.209 -3.99655 -5.49047 0
M  V30 3924 H 361.155 -1.89601 -6.28003 0
M  V30 3925 H 361.072 -3.58598 -6.6554 0
M  V30 3926 H 362.34 -2.61577 -7.34301 0
M  V30 3927 N 366.569 1.04691 -1.17803 0
M  V30 3928 C 367.501 2.12571 -0.857097 0
M  V30 3929 C 368.514 1.62174 0.142647 0
M  V30 3930 O 369.703 1.78301 -0.0843387 0
M  V30 3931 C 366.803 3.37915 -0.258216 0
M  V30 3932 C 365.976 4.1757 -1.30207 0
M  V30 3933 C 365.035 5.2125 -0.720029 0
M  V30 3934 O 364.061 5.51888 -1.39314 0
M  V30 3935 N 365.263 5.78466 0.485507 0
M  V30 3936 H 368.028 2.40698 -1.78562 0
M  V30 3937 H 365.589 1.20831 -1.07757 0
M  V30 3938 H 367.581 4.04442 0.144584 0
M  V30 3939 H 366.151 3.07281 0.574199 0
M  V30 3940 H 365.371 3.46458 -1.88043 0
M  V30 3941 H 366.659 4.67586 -2.00601 0
M  V30 3942 H 366.057 5.55866 1.05022 0
M  V30 3943 H 364.614 6.4649 0.830307 0
M  V30 3944 N 368.047 0.979072 1.23499 0
M  V30 3945 C 369.295 0.645941 1.91499 0
M  V30 3946 C 369.616 -0.822948 1.76784 0
M  V30 3947 O 368.886 -1.58854 1.14639 0
M  V30 3948 H 367.466 0.235919 0.708767 0
M  V30 3949 H 370.128 1.2426 1.50152 0
M  V30 3950 H 369.224 0.896411 2.9895 0
M  V30 3951 N 369.525 -1.3858 0.750561 0
M  V30 3952 C 370.771 -2.00481 0.305825 0
M  V30 3953 C 371.104 -1.5944 -1.10872 0
M  V30 3954 O 370.379 -0.83052 -1.75877 0
M  V30 3955 C 370.662 -3.5758 0.425287 0
M  V30 3956 C 370.515 -4.08594 1.88072 0
M  V30 3957 C 371.834 -4.39719 -0.183122 0
M  V30 3958 H 368.953 -0.728348 0.112598 0
M  V30 3959 H 371.595 -1.64566 0.949638 0
M  V30 3960 H 369.745 -3.88306 -0.122828 0
M  V30 3961 H 371.417 -3.88523 2.48691 0
M  V30 3962 H 369.66 -3.61574 2.39681 0
M  V30 3963 H 370.331 -5.177 1.91548 0
M  V30 3964 H 372.807 -4.15128 0.284303 0
M  V30 3965 H 371.683 -5.48856 -0.0692757 0
M  V30 3966 H 371.944 -4.23434 -1.27106 0
M  V30 3967 N 371.003 -0.499398 -1.49478 0
M  V30 3968 C 372.414 -0.051215 -1.8663 0
M  V30 3969 C 372.765 1.36238 -1.41186 0
M  V30 3970 O 371.89 2.01502 -0.789051 0
M  V30 3971 C 372.485 -0.0861651 -3.3869 0
M  V30 3972 C 371.044 0.30667 -3.75149 0
M  V30 3973 C 370.191 -0.459397 -2.73468 0
M  V30 3974 H 373.142 -0.712264 -1.41818 0
M  V30 3975 H 373.163 0.709507 -3.73826 0
M  V30 3976 H 372.675 -1.11512 -3.71735 0
M  V30 3977 H 370.776 1.33892 -3.47712 0
M  V30 3978 H 370.889 -0.0116669 -4.79099 0
M  V30 3979 H 369.253 0.0905645 -2.54539 0
M  V30 3980 H 370.036 -1.4884 -3.09357 0
M  V30 3981 N 372.481 1.55866 -0.233164 0
M  V30 3982 C 373.444 2.1953 0.658715 0
M  V30 3983 C 374.444 1.16053 1.11303 0
M  V30 3984 O 375.634 1.41218 1.01996 0
M  V30 3985 C 372.766 2.82791 1.90373 0
M  V30 3986 H 373.959 2.99721 0.10347 0
M  V30 3987 H 371.512 1.56291 0.0164245 0
M  V30 3988 H 372.247 2.06501 2.50056 0
M  V30 3989 H 372.032 3.58578 1.58632 0
M  V30 3990 H 373.522 3.31556 2.53891 0
M  V30 3991 N 373.959 -0.0401083 1.57549 0
M  V30 3992 C 375.206 -0.733125 1.88763 0
M  V30 3993 C 375.534 -1.75946 0.829058 0
M  V30 3994 O 374.789 -1.94949 -0.171323 0
M  V30 3995 C 375.088 -1.44902 3.26708 0
M  V30 3996 C 374.754 -0.559707 4.47413 0
M  V30 3997 C 373.416 -0.314731 4.8017 0
M  V30 3998 C 375.768 0.0549743 5.21171 0
M  V30 3999 C 373.096 0.553886 5.8408 0
M  V30 4000 C 375.448 0.911229 6.26003 0
M  V30 4001 C 374.112 1.16577 6.57241 0
M  V30 4002 H 373.382 -0.268269 0.690733 0
M  V30 4003 H 376.029 0.00679408 1.91499 0
M  V30 4004 H 374.334 -2.26197 3.1991 0
M  V30 4005 H 376.031 -1.99058 3.48105 0
M  V30 4006 H 372.621 -0.760793 4.21794 0
M  V30 4007 H 376.805 -0.121344 4.96152 0
M  V30 4008 H 372.061 0.759518 6.06664 0
M  V30 4009 H 376.235 1.3941 6.82303 0
M  V30 4010 H 373.862 1.84058 7.37582 0
M  V30 4011 N 375.437 -1.54477 -0.31217 0
M  V30 4012 C 376.665 -1.77205 -1.068 0
M  V30 4013 C 377.08 -0.526114 -1.81321 0
M  V30 4014 O 376.437 0.503647 -1.75413 0
M  V30 4015 C 376.488 -2.97253 -2.05725 0
M  V30 4016 O 376.209 -4.1703 -1.34228 0
M  V30 4017 C 377.71 -3.32281 -2.93435 0
M  V30 4018 H 374.93 -0.591287 -0.317208 0
M  V30 4019 H 377.474 -2.01398 -0.354834 0
M  V30 4020 H 375.629 -2.753 -2.72559 0
M  V30 4021 H 376.043 -4.84636 -2.00571 0
M  V30 4022 H 377.517 -4.19551 -3.58721 0
M  V30 4023 H 377.994 -2.49945 -3.61143 0
M  V30 4024 H 378.6 -3.56353 -2.32147 0
M  V30 4025 N 376.915 0.57481 -1.46744 0
M  V30 4026 C 378.161 1.3347 -1.52688 0
M  V30 4027 C 378.494 1.93353 -0.181229 0
M  V30 4028 O 377.769 1.76912 0.808237 0
M  V30 4029 C 378.052 2.45811 -2.63152 0
M  V30 4030 C 377.905 1.90912 -4.07275 0
M  V30 4031 C 379.224 3.47822 -2.69644 0
M  V30 4032 H 376.343 0.483935 -0.555856 0
M  V30 4033 H 378.985 0.644968 -1.78718 0
M  V30 4034 H 377.135 3.04646 -2.41088 0
M  V30 4035 H 378.807 1.36473 -4.4065 0
M  V30 4036 H 377.05 1.21691 -4.16382 0
M  V30 4037 H 377.721 2.72042 -4.80309 0
M  V30 4038 H 380.197 2.9888 -2.895 0
M  V30 4039 H 379.073 4.23876 -3.48742 0
M  V30 4040 H 379.334 4.05555 -1.76005 0
M  V30 4041 N 378.394 1.34581 0.820102 0
M  V30 4042 C 379.324 1.29038 1.94606 0
M  V30 4043 C 380.305 0.1673 1.69275 0
M  V30 4044 O 381.49 0.360112 1.90832 0
M  V30 4045 C 378.62 1.04793 3.31113 0
M  V30 4046 C 377.574 2.13597 3.70891 0
M  V30 4047 C 376.9 1.74537 5.05412 0
M  V30 4048 C 378.2 3.55451 3.8269 0
M  V30 4049 H 379.894 2.23248 1.99501 0
M  V30 4050 H 377.44 1.0747 0.958449 0
M  V30 4051 H 379.393 0.995592 4.0947 0
M  V30 4052 H 378.117 0.0702565 3.26524 0
M  V30 4053 H 376.776 2.17905 2.9481 0
M  V30 4054 H 376.424 0.754226 4.97313 0
M  V30 4055 H 376.124 2.47361 5.32997 0
M  V30 4056 H 377.648 1.70803 5.86224 0
M  V30 4057 H 379.062 3.5354 4.51312 0
M  V30 4058 H 377.459 4.26922 4.21732 0
M  V30 4059 H 378.529 3.92587 2.84611 0
M  V30 4060 N 379.872 -1.04064 1.18357 0
M  V30 4061 C 380.804 -2.12114 0.868358 0
M  V30 4062 C 381.817 -1.62247 -0.134045 0
M  V30 4063 O 383.006 -1.78253 0.0937933 0
M  V30 4064 C 380.106 -3.37773 0.276132 0
M  V30 4065 C 379.279 -4.16874 1.3242 0
M  V30 4066 C 378.338 -5.20861 0.747662 0
M  V30 4067 O 377.364 -5.51141 1.42239 0
M  V30 4068 N 378.566 -5.78715 -0.454823 0
M  V30 4069 H 381.331 -2.39748 1.79836 0
M  V30 4070 H 378.892 -1.20258 1.08396 0
M  V30 4071 H 380.884 -4.04513 -0.123133 0
M  V30 4072 H 379.454 -3.07581 -0.557895 0
M  V30 4073 H 378.674 -3.45456 1.89878 0
M  V30 4074 H 379.962 -4.66516 2.03078 0
M  V30 4075 H 379.36 -5.56415 -1.02073 0
M  V30 4076 H 377.917 -6.46921 -0.79601 0
M  V30 4077 N 381.35 -0.985608 -1.22978 0
M  V30 4078 C 382.761 -0.693593 -1.73338 0
M  V30 4079 C 383.112 0.789935 -1.79595 0
M  V30 4080 O 382.237 1.61771 -1.43733 0
M  V30 4081 C 382.832 -1.25235 -3.14804 0
M  V30 4082 C 381.391 -1.00987 -3.626 0
M  V30 4083 C 380.538 -1.37695 -2.40698 0
M  V30 4084 H 383.489 -1.15884 -1.08428 0
M  V30 4085 H 383.51 -0.627329 -3.75293 0
M  V30 4086 H 383.022 -2.33209 -3.10218 0
M  V30 4087 H 381.123 0.0535565 -3.72562 0
M  V30 4088 H 381.236 -1.66812 -4.49122 0
M  V30 4089 H 379.6 -0.795459 -2.4196 0
M  V30 4090 H 380.383 -2.46657 -2.38779 0
M  V30 4091 N 382.828 1.3818 -0.7579 0
M  V30 4092 C 383.738 2.3421 -0.135247 0
M  V30 4093 C 384.754 1.59487 0.695683 0
M  V30 4094 O 385.93 1.91657 0.618832 0
M  V30 4095 C 382.995 3.3862 0.744139 0
M  V30 4096 C 382.056 4.2918 -0.101658 0
M  V30 4097 C 381.289 5.28603 0.735851 0
M  V30 4098 O 381.512 5.35166 1.97366 0
M  V30 4099 O 380.446 6.01707 0.152372 0
M  V30 4100 H 384.272 2.8916 -0.928436 0
M  V30 4101 H 381.857 1.40101 -0.518855 0
M  V30 4102 H 383.739 4.02539 1.2466 0
M  V30 4103 H 382.414 2.86019 1.51575 0
M  V30 4104 H 381.321 3.68407 -0.650167 0
M  V30 4105 H 382.654 4.85048 -0.836024 0
M  V30 4106 N 384.306 0.507319 1.49211 0
M  V30 4107 C 385.554 -0.0348839 2.0207 0
M  V30 4108 C 385.875 -1.36898 1.38866 0
M  V30 4109 O 385.145 -1.88133 0.546151 0
M  V30 4110 H 383.725 -0.0158812 0.746831 0
M  V30 4111 H 386.387 0.665998 1.83168 0
M  V30 4112 H 385.483 -0.159917 3.1169 0
M  V30 4113 N 385.784 -1.5574 0.241426 0
M  V30 4114 C 387.195 -1.84842 -0.262755 0
M  V30 4115 C 387.546 -1.16317 -1.58003 0
M  V30 4116 O 386.671 -0.439653 -2.11887 0
M  V30 4117 C 387.266 -3.35332 -0.483523 0
M  V30 4118 C 385.825 -3.6468 -0.931977 0
M  V30 4119 C 384.972 -2.77299 -0.0061151 0
M  V30 4120 H 387.923 -1.51761 0.464129 0
M  V30 4121 H 387.944 -3.56615 -1.32688 0
M  V30 4122 H 387.456 -3.85178 0.47537 0
M  V30 4123 H 385.557 -3.20307 -1.90353 0
M  V30 4124 H 385.67 -4.72498 -0.792628 0
M  V30 4125 H 384.034 -2.49408 -0.516503 0
M  V30 4126 H 384.817 -3.2995 0.948052 0
M  V30 4127 N 387.262 0.0317525 -1.57568 0
M  V30 4128 C 388.192 1.03274 -2.0942 0
M  V30 4129 C 389.173 1.3788 -0.996143 0
M  V30 4130 O 390.358 1.46811 -1.27122 0
M  V30 4131 C 387.488 2.33448 -2.57137 0
M  V30 4132 C 386.442 2.13091 -3.71182 0
M  V30 4133 C 385.768 3.49001 -4.05095 0
M  V30 4134 C 387.068 1.51928 -4.99715 0
M  V30 4135 H 388.762 0.60112 -2.93303 0
M  V30 4136 H 386.308 0.287705 -1.41097 0
M  V30 4137 H 388.261 3.03802 -2.92032 0
M  V30 4138 H 386.985 2.78665 -1.70333 0
M  V30 4139 H 385.644 1.45171 -3.36632 0
M  V30 4140 H 385.292 3.91862 -3.15362 0
M  V30 4141 H 384.992 3.36207 -4.81911 0
M  V30 4142 H 386.516 4.20721 -4.42522 0
M  V30 4143 H 387.93 2.12196 -5.32584 0
M  V30 4144 H 386.327 1.49716 -5.81124 0
M  V30 4145 H 387.397 0.484811 -4.8247 0
M  V30 4146 N 388.74 1.54641 0.303973 0
M  V30 4147 C 389.703 1.84646 1.35789 0
M  V30 4148 C 390.703 0.7192 1.4382 0
M  V30 4149 O 391.893 0.987491 1.43507 0
M  V30 4150 C 389.025 2.02407 2.74307 0
M  V30 4151 H 390.218 2.78829 1.10429 0
M  V30 4152 H 387.771 1.46658 0.540487 0
M  V30 4153 H 388.506 1.10502 3.04893 0
M  V30 4154 H 388.291 2.84453 2.69868 0
M  V30 4155 H 389.781 2.27002 3.50514 0
M  V30 4156 N 390.218 -0.567019 1.47046 0
M  V30 4157 C 391.464 -1.32658 1.53394 0
M  V30 4158 C 391.797 -1.93254 0.19148 0
M  V30 4159 O 391.072 -1.77338 -0.798844 0
M  V30 4160 C 391.355 -2.44412 2.64452 0
M  V30 4161 C 391.208 -1.88749 4.08282 0
M  V30 4162 C 392.527 -3.46387 2.71485 0
M  V30 4163 H 389.646 -0.48098 0.558415 0
M  V30 4164 H 392.288 -0.635481 1.79058 0
M  V30 4165 H 390.438 -3.03363 2.427 0
M  V30 4166 H 392.11 -1.34134 4.41368 0
M  V30 4167 H 390.353 -1.19481 4.17021 0
M  V30 4168 H 391.024 -2.69491 4.81745 0
M  V30 4169 H 393.5 -2.9734 2.91081 0
M  V30 4170 H 392.376 -4.2202 3.50985 0
M  V30 4171 H 392.637 -4.04616 1.78153 0
M  V30 4172 N 391.696 -1.35014 -0.812953 0
M  V30 4173 C 392.626 -1.30069 -1.93919 0
M  V30 4174 C 393.607 -0.176275 -1.69184 0
M  V30 4175 O 394.792 -0.370227 -1.90638 0
M  V30 4176 C 391.922 -1.06547 -3.30552 0
M  V30 4177 C 390.876 -2.15561 -3.69753 0
M  V30 4178 C 390.202 -1.77214 -5.04479 0
M  V30 4179 C 391.502 -3.57476 -3.808 0
M  V30 4180 H 393.196 -2.24303 -1.98314 0
M  V30 4181 H 390.742 -1.07977 -0.952736 0
M  V30 4182 H 392.695 -1.01729 -4.08937 0
M  V30 4183 H 391.419 -0.0875719 -3.26483 0
M  V30 4184 H 390.078 -2.19466 -2.9365 0
M  V30 4185 H 389.726 -0.780589 -4.96906 0
M  V30 4186 H 389.426 -2.50184 -5.31678 0
M  V30 4187 H 390.95 -1.7391 -5.8531 0
M  V30 4188 H 392.364 -3.55929 -4.4943 0
M  V30 4189 H 390.761 -4.29152 -4.19462 0
M  V30 4190 H 391.831 -3.94091 -2.82525 0
M  V30 4191 N 393.175 1.03435 -1.18907 0
M  V30 4192 C 394.591 1.28973 -0.940111 0
M  V30 4193 C 394.791 1.97676 0.390691 0
M  V30 4194 O 393.847 2.26127 1.12352 0
M  V30 4195 C 395.16 2.14221 -2.11021 0
M  V30 4196 C 396.708 2.27547 -2.14922 0
M  V30 4197 C 397.183 3.16164 -3.31367 0
M  V30 4198 N 398.674 3.23752 -3.31269 0
M  V30 4199 C 399.409 3.92495 -4.18014 0
M  V30 4200 N 398.905 4.63515 -5.14904 0
M  V30 4201 N 400.698 3.88838 -4.05908 0
M  V30 4202 H 392.849 0.57252 -2.04538 0
M  V30 4203 H 395.112 0.315184 -0.894071 0
M  V30 4204 H 394.818 1.71054 -3.073 0
M  V30 4205 H 394.692 3.14919 -2.0762 0
M  V30 4206 H 397.079 2.69947 -1.19217 0
M  V30 4207 H 397.16 1.26418 -2.22378 0
M  V30 4208 H 396.804 2.74474 -4.27348 0
M  V30 4209 H 396.734 4.17339 -3.21148 0
M  V30 4210 H 399.225 2.73167 -2.61129 0
M  V30 4211 H 399.538 5.13583 -5.77453 0
M  V30 4212 H 397.883 4.62398 -5.18857 0
M  V30 4213 H 401.074 3.32491 -3.29495 0
M  V30 4214 H 401.247 4.4214 -4.73726 0
M  V30 4215 N 394.653 0.992116 1.22453 0
M  V30 4216 C 395.93 0.583508 1.86694 0
M  V30 4217 C 396.31 -0.9392 1.89056 0
M  V30 4218 O 395.658 -1.82081 1.38053 0
M  V30 4219 C 395.868 1.20304 3.2761 0
M  V30 4220 C 397.216 1.30308 4.0411 0
M  V30 4221 O 398.24 1.15737 3.36873 0
M  V30 4222 O 397.099 1.53615 5.24466 0
M  V30 4223 H 394.193 0.198129 0.802916 0
M  V30 4224 H 396.739 1.08794 1.30238 0
M  V30 4225 H 395.511 2.24461 3.2052 0
M  V30 4226 H 395.134 0.684144 3.9167 0
M  V30 4227 N 396.131 -1.37776 0.765217 0
M  V30 4228 C 397.547 -1.53297 0.444108 0
M  V30 4229 C 397.747 -1.72515 -1.04119 0
M  V30 4230 O 396.803 -1.74278 -1.82711 0
M  V30 4231 C 398.116 -2.73328 1.25349 0
M  V30 4232 C 399.664 -2.87185 1.24473 0
M  V30 4233 C 400.139 -4.10191 2.03733 0
M  V30 4234 N 401.63 -4.17291 2.01053 0
M  V30 4235 C 402.365 -5.11488 2.59166 0
M  V30 4236 N 401.861 -6.11285 3.26041 0
M  V30 4237 N 403.654 -5.03924 2.49032 0
M  V30 4238 H 395.805 -1.23552 1.72768 0
M  V30 4239 H 398.068 -0.601103 0.733062 0
M  V30 4240 H 397.774 -2.6557 2.30577 0
M  V30 4241 H 397.648 -3.66834 0.87823 0
M  V30 4242 H 400.035 -2.94418 0.20047 0
M  V30 4243 H 400.116 -1.94657 1.65959 0
M  V30 4244 H 399.76 -4.0372 3.08176 0
M  V30 4245 H 399.69 -5.01821 1.59633 0
M  V30 4246 H 402.181 -3.45825 1.5236 0
M  V30 4247 H 402.494 -6.79678 3.67774 0
M  V30 4248 H 400.839 -6.11583 3.30138 0
M  V30 4249 H 404.03 -4.24902 1.96407 0
M  V30 4250 H 404.203 -5.77152 2.94617 0
M  V30 4251 N 397.609 -0.515225 -1.4894 0
M  V30 4252 C 398.572 0.244681 -2.2789 0
M  V30 4253 C 399.572 0.881166 -1.34507 0
M  V30 4254 O 400.762 0.743497 -1.57537 0
M  V30 4255 C 397.894 1.35247 -3.12923 0
M  V30 4256 H 399.087 -0.448289 -2.96531 0
M  V30 4257 H 396.64 -0.270656 -1.53939 0
M  V30 4258 H 397.375 2.07916 -2.48881 0
M  V30 4259 H 397.16 0.901374 -3.81599 0
M  V30 4260 H 398.65 1.88737 -3.72516 0
M  V30 4261 N 399.087 1.5561 -0.249682 0
M  V30 4262 C 400.019 2.18834 0.681496 0
M  V30 4263 C 401.032 1.16546 1.1367 0
M  V30 4264 O 402.221 1.43397 1.06299 0
M  V30 4265 C 399.321 2.77992 1.9384 0
M  V30 4266 C 398.494 4.05725 1.63419 0
M  V30 4267 C 397.553 4.49174 2.74096 0
M  V30 4268 O 396.579 5.15492 2.41364 0
M  V30 4269 N 397.781 4.17191 4.03649 0
M  V30 4270 H 400.546 2.9937 0.140514 0
M  V30 4271 H 398.107 1.6175 -0.0697541 0
M  V30 4272 H 400.099 3.04015 2.67127 0
M  V30 4273 H 398.669 2.01596 2.38909 0
M  V30 4274 H 397.889 3.87261 0.736358 0
M  V30 4275 H 399.177 4.88999 1.40562 0
M  V30 4276 H 398.575 3.63955 4.33074 0
M  V30 4277 H 397.132 4.48043 4.73393 0
M  V30 4278 N 400.565 -0.0233959 1.57583 0
M  V30 4279 C 401.497 -1.04994 2.03737 0
M  V30 4280 C 402.51 -1.32125 0.951152 0
M  V30 4281 O 403.699 -1.29512 1.22837 0
M  V30 4282 C 400.799 -2.39026 2.40249 0
M  V30 4283 C 399.972 -2.31171 3.7132 0
M  V30 4284 C 399.031 -3.47698 3.94959 0
M  V30 4285 O 398.057 -3.26937 4.65941 0
M  V30 4286 N 399.259 -4.6976 3.41037 0
M  V30 4287 H 402.024 -0.656507 2.92421 0
M  V30 4288 H 399.585 -0.211235 1.60516 0
M  V30 4289 H 401.577 -3.15712 2.53196 0
M  V30 4290 H 400.147 -2.70194 1.57207 0
M  V30 4291 H 399.367 -1.39547 3.68674 0
M  V30 4292 H 400.655 -2.23071 4.57293 0
M  V30 4293 H 400.053 -4.89528 2.83512 0
M  V30 4294 H 398.61 -5.43791 3.59353 0
M  V30 4295 N 402.043 -1.548 -0.295768 0
M  V30 4296 C 403.292 -1.73538 -1.02798 0
M  V30 4297 C 403.605 -0.531159 -1.8825 0
M  V30 4298 O 404.811 -0.600458 -2.64777 0
M  V30 4299 C 403.267 -3.07051 -1.87744 0
M  V30 4300 C 402.875 -4.34968 -1.07269 0
M  V30 4301 C 404.619 -3.35146 -2.60533 0
M  V30 4302 C 402.526 -5.5953 -1.91521 0
M  V30 4303 H 401.456 -0.646794 -0.387522 0
M  V30 4304 H 404.107 -1.81278 -0.284718 0
M  V30 4305 H 402.489 -2.93289 -2.66078 0
M  V30 4306 H 403.663 -4.5958 -0.335117 0
M  V30 4307 H 401.978 -4.13847 -0.460384 0
M  V30 4308 H 404.575 -4.2541 -3.23929 0
M  V30 4309 H 404.918 -2.54255 -3.29636 0
M  V30 4310 H 405.451 -3.49902 -1.89244 0
M  V30 4311 H 402.19 -6.43103 -1.26878 0
M  V30 4312 H 401.71 -5.39096 -2.62937 0
M  V30 4313 H 403.389 -5.96982 -2.49442 0
M  V30 4314 N 403.521 0.559213 -1.47345 0
M  V30 4315 C 404.746 1.34676 -1.57725 0
M  V30 4316 C 405.171 1.86723 -0.227164 0
M  V30 4317 O 404.529 1.6286 0.796642 0
M  V30 4318 C 404.577 2.49399 -2.60447 0
M  V30 4319 O 403.681 3.51567 -2.15578 0
M  V30 4320 H 403.022 0.400115 -0.52991 0
M  V30 4321 H 405.552 0.676009 -1.93109 0
M  V30 4322 H 405.562 2.95996 -2.80803 0
M  V30 4323 H 404.237 2.10873 -3.58477 0
M  V30 4324 H 402.814 3.11289 -2.05313 0
M  V30 4325 N 404.999 1.35443 0.805782 0
M  V30 4326 C 406.239 1.30127 1.57627 0
M  V30 4327 C 406.603 -0.122567 1.91608 0
M  V30 4328 O 407.804 -0.300107 2.67119 0
M  V30 4329 C 406.075 2.18314 2.82973 0
M  V30 4330 S 407.634 2.30521 3.7337 0
M  V30 4331 H 404.452 0.462439 0.540066 0
M  V30 4332 H 407.054 1.70843 0.95042 0
M  V30 4333 H 405.758 3.20741 2.56034 0
M  V30 4334 H 405.289 1.78558 3.50543 0
M  V30 4335 H 407.304 1.49062 4.73281 0
M  V30 4336 N 406.477 -1.02803 1.19454 0
M  V30 4337 C 407.888 -1.57667 0.999899 0
M  V30 4338 C 408.239 -1.91041 -0.446956 0
M  V30 4339 O 407.364 -1.70978 -1.32648 0
M  V30 4340 C 407.959 -2.86477 1.80877 0
M  V30 4341 C 406.518 -3.37911 1.65811 0
M  V30 4342 C 405.665 -2.11343 1.79526 0
M  V30 4343 H 408.616 -0.853214 1.33813 0
M  V30 4344 H 408.637 -3.57408 1.30536 0
M  V30 4345 H 408.149 -2.62155 2.86175 0
M  V30 4346 H 406.25 -3.67218 0.63102 0
M  V30 4347 H 406.363 -4.10885 2.46395 0
M  V30 4348 H 404.727 -2.23254 1.22596 0
M  V30 4349 H 405.51 -1.89461 2.86285 0
M  V30 4350 N 407.956 -0.998596 -1.21925 0
M  V30 4351 C 408.886 -0.573688 -2.26343 0
M  V30 4352 C 409.867 0.402296 -1.65274 0
M  V30 4353 O 411.052 0.291683 -1.91997 0
M  V30 4354 C 408.182 0.106839 -3.47136 0
M  V30 4355 C 407.136 -0.788269 -4.20678 0
M  V30 4356 C 406.462 0.0254927 -5.34694 0
M  V30 4357 C 407.762 -2.08784 -4.78755 0
M  V30 4358 H 409.456 -1.44651 -2.62138 0
M  V30 4359 H 407.002 -0.696975 -1.26009 0
M  V30 4360 H 408.955 0.415531 -4.19346 0
M  V30 4361 H 407.679 1.01424 -3.10452 0
M  V30 4362 H 406.338 -1.08069 -3.50309 0
M  V30 4363 H 405.986 0.933989 -4.94253 0
M  V30 4364 H 405.686 -0.570437 -5.84825 0
M  V30 4365 H 407.21 0.328147 -6.09718 0
M  V30 4366 H 408.624 -1.84272 -5.42878 0
M  V30 4367 H 407.021 -2.63307 -5.39249 0
M  V30 4368 H 408.091 -2.76284 -3.98491 0
M  V30 4369 N 409.434 1.37368 -0.772513 0
M  V30 4370 C 410.664 2.03647 -0.348082 0
M  V30 4371 C 411.072 1.58392 1.03482 0
M  V30 4372 O 410.415 0.760921 1.672 0
M  V30 4373 C 410.477 3.58131 -0.313404 0
M  V30 4374 C 410.141 4.2652 -1.64102 0
M  V30 4375 C 411.138 4.50587 -2.5936 0
M  V30 4376 C 408.823 4.64335 -1.91567 0
M  V30 4377 C 410.817 5.11526 -3.80289 0
M  V30 4378 C 408.504 5.24996 -3.12766 0
M  V30 4379 C 409.502 5.48529 -4.06946 0
M  V30 4380 O 409.19 6.07921 -5.26011 0
M  V30 4381 H 408.922 0.660538 -0.143753 0
M  V30 4382 H 411.476 1.76669 -1.04772 0
M  V30 4383 H 409.706 3.84159 0.442617 0
M  V30 4384 H 411.395 4.05813 0.0840613 0
M  V30 4385 H 412.161 4.21784 -2.39423 0
M  V30 4386 H 408.04 4.45353 -1.19088 0
M  V30 4387 H 411.584 5.29811 -4.53813 0
M  V30 4388 H 407.481 5.53223 -3.32588 0
M  V30 4389 H 408.249 6.26398 -5.26847 0
M  V30 4390 N 410.912 0.523116 1.48665 0
M  V30 4391 C 411.842 -0.23231 2.32342 0
M  V30 4392 C 412.823 -0.941637 1.41659 0
M  V30 4393 O 414.008 -0.928751 1.70552 0
M  V30 4394 C 411.138 -1.28387 3.22698 0
M  V30 4395 C 410.092 -0.693098 4.22351 0
M  V30 4396 C 409.418 -1.8468 5.01794 0
M  V30 4397 C 410.718 0.33063 5.21252 0
M  V30 4398 H 412.412 0.466192 2.95748 0
M  V30 4399 H 409.958 0.225643 1.42221 0
M  V30 4400 H 411.911 -1.82024 3.80059 0
M  V30 4401 H 410.635 -2.01186 2.57278 0
M  V30 4402 H 409.294 -0.178299 3.66166 0
M  V30 4403 H 408.942 -2.56301 4.32804 0
M  V30 4404 H 408.642 -1.45747 5.69238 0
M  V30 4405 H 410.166 -2.38709 5.62006 0
M  V30 4406 H 411.58 -0.118407 5.73178 0
M  V30 4407 H 409.977 0.636974 5.9671 0
M  V30 4408 H 411.047 1.23883 4.68808 0
M  V30 4409 N 412.39 -1.55475 0.257931 0
M  V30 4410 C 413.63 -2.01112 -0.365129 0
M  V30 4411 C 413.994 -1.1423 -1.54323 0
M  V30 4412 O 415.195 -1.49371 -2.23477 0
M  V30 4413 C 413.466 -3.49353 -0.754117 0
M  V30 4414 S 415.025 -4.16992 -1.36614 0
M  V30 4415 H 411.843 -0.701737 -0.114397 0
M  V30 4416 H 414.445 -1.91855 0.375747 0
M  V30 4417 H 413.149 -4.10246 0.112441 0
M  V30 4418 H 412.68 -3.6256 -1.52689 0
M  V30 4419 H 414.695 -4.19191 -2.65505 0
M  V30 4420 N 413.868 0.0150385 -1.57593 0
M  V30 4421 C 415.279 0.559832 -1.78109 0
M  V30 4422 C 415.63 1.74814 -0.890756 0
M  V30 4423 O 414.755 2.16216 -0.0892482 0
M  V30 4424 C 415.35 1.02238 -3.23006 0
M  V30 4425 C 413.909 1.51258 -3.44671 0
M  V30 4426 C 413.056 0.456955 -2.73509 0
M  V30 4427 H 416.007 -0.211169 -1.57289 0
M  V30 4428 H 416.028 1.88912 -3.30292 0
M  V30 4429 H 415.54 0.157302 -3.87781 0
M  V30 4430 H 413.641 2.39905 -2.8509 0
M  V30 4431 H 413.754 1.55042 -4.5332 0
M  V30 4432 H 412.118 0.915196 -2.37689 0
M  V30 4433 H 412.901 -0.398896 -3.40975 0
M  V30 4434 N 415.346 1.54954 0.287554 0
M  V30 4435 C 416.279 1.81737 1.3801 0
M  V30 4436 C 417.257 0.669412 1.48181 0
M  V30 4437 O 418.441 0.910839 1.65033 0
M  V30 4438 C 415.568 1.96606 2.75796 0
M  V30 4439 C 414.614 3.19098 2.82982 0
M  V30 4440 S 415.447 4.7683 2.43707 0
M  V30 4441 C 416.603 4.94653 3.83496 0
M  V30 4442 H 416.836 2.74122 1.15085 0
M  V30 4443 H 414.369 1.46538 0.486403 0
M  V30 4444 H 416.327 2.05858 3.55152 0
M  V30 4445 H 414.988 1.05136 2.95982 0
M  V30 4446 H 414.181 3.26344 3.84077 0
M  V30 4447 H 413.783 3.08361 2.11635 0
M  V30 4448 H 416.075 4.79502 4.78628 0
M  V30 4449 H 417.018 5.96728 3.8121 0
M  V30 4450 H 417.426 4.2272 3.74123 0
M  V30 4451 N 416.824 -0.551391 1.4764 0
M  V30 4452 C 417.754 -1.66757 1.63445 0
M  V30 4453 C 418.735 -1.63077 0.483742 0
M  V30 4454 O 419.92 -1.80607 0.71377 0
M  V30 4455 C 417.05 -3.05387 1.65396 0
M  V30 4456 C 416.004 -3.23918 2.79752 0
M  V30 4457 C 415.33 -4.63393 2.66779 0
M  V30 4458 C 416.63 -3.08735 4.21284 0
M  V30 4459 H 418.324 -1.53786 2.56886 0
M  V30 4460 H 415.87 -0.738415 1.23626 0
M  V30 4461 H 417.823 -3.83325 1.75043 0
M  V30 4462 H 416.547 -3.19332 0.685195 0
M  V30 4463 H 415.206 -2.48391 2.69625 0
M  V30 4464 H 414.854 -4.74144 1.67918 0
M  V30 4465 H 414.554 -4.7674 3.43501 0
M  V30 4466 H 416.078 -5.43458 2.78364 0
M  V30 4467 H 417.492 -3.76484 4.32357 0
M  V30 4468 H 415.889 -3.33588 4.98838 0
M  V30 4469 H 416.959 -2.0541 4.39243 0
M  V30 4470 N 418.302 -1.35869 -0.798587 0
M  V30 4471 C 419.212 -1.31578 -1.94228 0
M  V30 4472 C 420.228 -0.21939 -1.72611 0
M  V30 4473 O 421.404 -0.450167 -1.96305 0
M  V30 4474 C 418.469 -1.09528 -3.28944 0
M  V30 4475 C 417.53 -2.28556 -3.63402 0
M  V30 4476 C 416.763 -2.07549 -4.9169 0
M  V30 4477 O 416.986 -1.046 -5.60727 0
M  V30 4478 O 415.92 -2.95106 -5.24591 0
M  V30 4479 H 419.746 -2.27847 -2.00796 0
M  V30 4480 H 417.331 -1.16322 -0.937526 0
M  V30 4481 H 419.213 -0.991127 -4.09579 0
M  V30 4482 H 417.888 -0.16315 -3.23289 0
M  V30 4483 H 416.795 -2.44538 -2.83112 0
M  V30 4484 H 418.128 -3.20244 -3.73771 0
M  V30 4485 N 419.78 1.02168 -1.19998 0
M  V30 4486 C 420.743 2.08765 -0.94604 0
M  V30 4487 C 421.743 1.60618 0.0763846 0
M  V30 4488 O 422.933 1.73472 -0.159135 0
M  V30 4489 C 420.065 3.38262 -0.423255 0
M  V30 4490 H 421.258 2.32726 -1.89153 0
M  V30 4491 H 418.811 1.1889 -1.01464 0
M  V30 4492 H 419.546 3.19974 0.527938 0
M  V30 4493 H 419.331 3.74532 -1.16053 0
M  V30 4494 H 420.821 4.16759 -0.264911 0
M  V30 4495 N 421.258 1.00505 1.21394 0
M  V30 4496 C 422.188 0.585684 2.26035 0
M  V30 4497 C 423.169 -0.393525 1.65485 0
M  V30 4498 O 424.354 -0.281497 1.92149 0
M  V30 4499 C 421.484 -0.0884283 3.47187 0
M  V30 4500 C 420.438 0.810567 4.20254 0
M  V30 4501 C 419.764 0.00286382 5.347 0
M  V30 4502 C 421.064 2.1132 4.77641 0
M  V30 4503 H 422.758 1.46039 2.61368 0
M  V30 4504 H 420.304 0.703648 1.25638 0
M  V30 4505 H 422.257 -0.393286 4.19561 0
M  V30 4506 H 420.981 -0.997766 3.10986 0
M  V30 4507 H 419.64 1.09925 3.49731 0
M  V30 4508 H 419.288 -0.907765 4.94741 0
M  V30 4509 H 418.988 0.601444 5.84514 0
M  V30 4510 H 420.512 -0.295808 6.09883 0
M  V30 4511 H 421.926 1.87148 5.41893 0
M  V30 4512 H 420.323 2.66164 5.37845 0
M  V30 4513 H 421.393 2.78393 3.9702 0
M  V30 4514 N 422.737 -1.36956 0.779787 0
M  V30 4515 C 423.647 -2.33965 0.172491 0
M  V30 4516 C 424.663 -1.60574 -0.670222 0
M  V30 4517 O 425.839 -1.92617 -0.588263 0
M  V30 4518 C 422.904 -3.39761 -0.690173 0
M  V30 4519 C 421.965 -4.28964 0.169924 0
M  V30 4520 C 421.198 -5.29707 -0.651662 0
M  V30 4521 O 421.421 -5.38238 -1.88827 0
M  V30 4522 O 420.355 -6.01873 -0.0566264 0
M  V30 4523 H 424.181 -2.87647 0.974321 0
M  V30 4524 H 421.766 -1.39258 0.541078 0
M  V30 4525 H 423.648 -4.04471 -1.1824 0
M  V30 4526 H 422.323 -2.88394 -1.47006 0
M  V30 4527 H 421.23 -3.67326 0.708696 0
M  V30 4528 H 422.563 -4.83656 0.913085 0
M  V30 4529 N 424.215 -0.530993 -1.48385 0
M  V30 4530 C 425.125 0.23503 -2.3342 0
M  V30 4531 C 426.141 0.93801 -1.46552 0
M  V30 4532 O 427.317 0.912745 -1.7953 0
M  V30 4533 C 424.382 1.26778 -3.22689 0
M  V30 4534 C 423.443 0.575038 -4.25431 0
M  V30 4535 C 422.676 1.55858 -5.10435 0
M  V30 4536 O 422.899 2.79129 -4.97437 0
M  V30 4537 O 421.833 1.09742 -5.91811 0
M  V30 4538 H 425.659 -0.461794 -3.00169 0
M  V30 4539 H 423.244 -0.291903 -1.46521 0
M  V30 4540 H 425.126 1.86457 -3.77904 0
M  V30 4541 H 423.801 1.94699 -2.586 0
M  V30 4542 H 422.708 -0.0622782 -3.74048 0
M  V30 4543 H 424.041 -0.062253 -4.92161 0
M  V30 4544 N 425.693 1.55336 -0.266172 0
M  V30 4545 C 426.941 1.99003 0.35246 0
M  V30 4546 C 427.262 1.15591 1.57047 0
M  V30 4547 O 426.532 0.243268 1.94384 0
M  V30 4548 H 425.112 0.735025 0.133217 0
M  V30 4549 H 427.774 1.91367 -0.369434 0
M  V30 4550 H 426.87 3.05289 0.648453 0
M  V30 4551 N 427.171 -0.0066808 1.57599 0
M  V30 4552 C 428.419 -0.691552 1.899 0
M  V30 4553 C 428.74 -1.74682 0.866672 0
M  V30 4554 O 428.01 -1.95661 -0.0968189 0
M  V30 4555 H 426.59 -0.258416 0.700878 0
M  V30 4556 H 429.252 0.0326655 1.94873 0
M  V30 4557 H 428.348 -1.16702 2.8946 0
M  V30 4558 N 428.649 -1.55105 -0.279332 0
M  V30 4559 C 430.06 -1.66186 -0.850832 0
M  V30 4560 C 430.411 -0.584707 -1.87285 0
M  V30 4561 O 429.536 0.274919 -2.14647 0
M  V30 4562 C 430.131 -3.01264 -1.55001 0
M  V30 4563 C 428.69 -3.14394 -2.06963 0
M  V30 4564 C 427.837 -2.61959 -0.909536 0
M  V30 4565 H 430.788 -1.58602 -0.0558235 0
M  V30 4566 H 430.809 -2.93899 -2.41669 0
M  V30 4567 H 430.321 -3.7964 -0.805931 0
M  V30 4568 H 428.422 -2.4078 -2.84352 0
M  V30 4569 H 428.535 -4.20867 -2.28928 0
M  V30 4570 H 426.899 -2.18957 -1.30116 0
M  V30 4571 H 427.682 -3.42833 -0.179062 0
M  V30 4572 N 430.127 0.543554 -1.4793 0
M  V30 4573 C 431.538 1.12561 -1.48953 0
M  V30 4574 C 431.889 1.94578 -0.251754 0
M  V30 4575 O 431.014 2.0665 0.642255 0
M  V30 4576 C 431.609 2.04801 -2.69892 0
M  V30 4577 C 430.168 2.58251 -2.73831 0
M  V30 4578 C 429.315 1.34918 -2.42265 0
M  V30 4579 H 432.266 0.32947 -1.55242 0
M  V30 4580 H 432.287 2.88886 -2.47639 0
M  V30 4581 H 431.799 1.4508 -3.59963 0
M  V30 4582 H 429.9 3.21732 -1.87934 0
M  V30 4583 H 430.013 2.98312 -3.74895 0
M  V30 4584 H 428.377 1.66046 -1.93134 0
M  V30 4585 H 429.16 0.769693 -3.3456 0
M  V30 4586 N 431.605 1.3629 0.791371 0
M  V30 4587 C 432.535 1.33137 1.91825 0
M  V30 4588 C 433.516 0.203168 1.68882 0
M  V30 4589 O 434.701 0.400509 1.90025 0
M  V30 4590 C 431.831 1.11793 3.28816 0
M  V30 4591 C 430.785 2.21417 3.66277 0
M  V30 4592 C 430.111 1.85218 5.01596 0
M  V30 4593 C 431.411 3.63489 3.75064 0
M  V30 4594 H 433.105 2.2743 1.9472 0
M  V30 4595 H 430.651 1.09479 0.935437 0
M  V30 4596 H 432.604 1.08222 4.07266 0
M  V30 4597 H 431.328 0.139501 3.26302 0
M  V30 4598 H 429.987 2.2411 2.90121 0
M  V30 4599 H 429.635 0.859544 4.95602 0
M  V30 4600 H 429.335 2.58611 5.27631 0
M  V30 4601 H 430.859 1.832 5.82469 0
M  V30 4602 H 432.273 3.63034 4.43711 0
M  V30 4603 H 430.67 4.35771 4.12582 0
M  V30 4604 H 431.74 3.98536 2.76219 0
M  V30 4605 N 433.083 -1.0153 1.20538 0
M  V30 4606 C 434.311 -1.78746 1.04199 0
M  V30 4607 C 434.726 -1.84323 -0.408733 0
M  V30 4608 O 434.083 -1.29714 -1.28377 0
M  V30 4609 C 434.134 -3.23152 1.62035 0
M  V30 4610 O 433.855 -3.17918 3.0143 0
M  V30 4611 C 435.356 -4.16911 1.50666 0
M  V30 4612 H 432.576 -0.56208 0.366479 0
M  V30 4613 H 435.12 -1.27794 1.59653 0
M  V30 4614 H 433.275 -3.71248 1.10697 0
M  V30 4615 H 433.689 -4.08567 3.28897 0
M  V30 4616 H 435.163 -5.16072 1.95892 0
M  V30 4617 H 435.64 -4.36791 0.459363 0
M  V30 4618 H 436.246 -3.74698 2.01201 0
M  V30 4619 N 434.561 -1.01147 -1.20859 0
M  V30 4620 C 435.491 -0.597663 -2.25722 0
M  V30 4621 C 436.472 0.384744 -1.65692 0
M  V30 4622 O 437.657 0.271303 -1.92296 0
M  V30 4623 C 434.787 0.0700149 -3.47229 0
M  V30 4624 C 433.741 -0.832843 -4.19819 0
M  V30 4625 C 433.067 -0.0312202 -5.34691 0
M  V30 4626 C 434.367 -2.1385 -4.76514 0
M  V30 4627 H 436.061 -1.47423 -2.60589 0
M  V30 4628 H 433.607 -0.710301 -1.25263 0
M  V30 4629 H 435.56 0.37103 -4.19763 0
M  V30 4630 H 434.284 0.981259 -3.11511 0
M  V30 4631 H 432.943 -1.11778 -3.49144 0
M  V30 4632 H 432.591 0.881515 -4.95215 0
M  V30 4633 H 432.291 -0.632434 -5.84187 0
M  V30 4634 H 433.815 0.26346 -6.10031 0
M  V30 4635 H 435.229 -1.9002 -5.40893 0
M  V30 4636 H 433.626 -2.69012 -5.36426 0
M  V30 4637 H 434.696 -2.80495 -3.95538 0
M  V30 4638 N 436.039 1.36541 -0.78704 0
M  V30 4639 C 437.287 1.98911 -0.357633 0
M  V30 4640 C 437.608 1.62778 1.07371 0
M  V30 4641 O 436.878 0.900612 1.73971 0
M  V30 4642 H 435.458 0.735734 -0.129246 0
M  V30 4643 H 438.12 1.66776 -1.00855 0
M  V30 4644 H 437.216 3.08874 -0.447549 0
M  V30 4645 N 437.518 0.538854 1.48102 0
M  V30 4646 C 438.448 -0.207654 2.32575 0
M  V30 4647 C 439.429 -0.926559 1.4265 0
M  V30 4648 O 440.614 -0.91061 1.71527 0
M  V30 4649 C 437.744 -1.24957 3.24042 0
M  V30 4650 C 436.698 -0.648263 4.23062 0
M  V30 4651 C 436.024 -1.79348 5.03725 0
M  V30 4652 C 437.324 0.385897 5.20872 0
M  V30 4653 H 439.018 0.497534 2.95237 0
M  V30 4654 H 436.564 0.240715 1.41974 0
M  V30 4655 H 438.517 -1.77983 3.81969 0
M  V30 4656 H 437.241 -1.98446 2.59397 0
M  V30 4657 H 435.9 -0.139452 3.66335 0
M  V30 4658 H 435.548 -2.51696 4.35498 0
M  V30 4659 H 435.248 -1.39702 5.70751 0
M  V30 4660 H 436.772 -2.32735 5.64506 0
M  V30 4661 H 438.186 -0.057607 5.73271 0
M  V30 4662 H 436.583 0.700227 5.96001 0
M  V30 4663 H 437.653 1.28848 4.67468 0
M  V30 4664 N 438.996 -1.55193 0.274407 0
M  V30 4665 C 439.906 -2.26164 -0.623473 0
M  V30 4666 C 440.922 -1.28729 -1.17068 0
M  V30 4667 O 442.098 -1.61663 -1.20112 0
M  V30 4668 C 439.163 -2.96833 -1.7914 0
M  V30 4669 C 438.224 -4.09745 -1.28093 0
M  V30 4670 C 437.457 -4.77034 -2.3932 0
M  V30 4671 O 437.68 -4.4353 -3.5866 0
M  V30 4672 O 436.614 -5.64996 -2.07516 0
M  V30 4673 H 440.44 -3.03661 -0.0485661 0
M  V30 4674 H 438.025 -1.49341 0.0418382 0
M  V30 4675 H 439.907 -3.41248 -2.4724 0
M  V30 4676 H 438.582 -2.22253 -2.35341 0
M  V30 4677 H 437.489 -3.69787 -0.566416 0
M  V30 4678 H 438.822 -4.86224 -0.764683 0
M  V30 4679 N 440.474 -0.00167713 -1.576 0
M  V30 4680 C 441.722 0.681471 -1.90264 0
M  V30 4681 C 442.043 1.7422 -0.875924 0
M  V30 4682 O 441.313 1.95709 0.0864412 0
M  V30 4683 H 439.893 0.254696 -0.702239 0
M  V30 4684 H 442.555 -0.0429996 -1.94853 0
M  V30 4685 H 441.651 1.15166 -2.90075 0
M  V30 4686 N 441.952 1.55251 0.271103 0
M  V30 4687 C 442.862 1.9136 1.35714 0
M  V30 4688 C 443.878 0.811075 1.5394 0
M  V30 4689 O 445.054 1.11031 1.6803 0
M  V30 4690 C 442.119 2.1798 2.69603 0
M  V30 4691 C 441.18 3.4153 2.60107 0
M  V30 4692 C 440.413 3.66871 3.8761 0
M  V30 4693 O 440.636 2.94689 4.8838 0
M  V30 4694 O 439.57 4.60405 3.87699 0
M  V30 4695 H 443.396 2.83815 1.08088 0
M  V30 4696 H 440.981 1.41821 0.469792 0
M  V30 4697 H 442.863 2.36518 3.48765 0
M  V30 4698 H 441.538 1.28708 2.97012 0
M  V30 4699 H 440.445 3.28325 1.79314 0
M  V30 4700 H 441.778 4.31027 2.37647 0
M  V30 4701 N 443.43 -0.535701 1.48216 0
M  V30 4702 C 444.38 -1.63688 1.58714 0
M  V30 4703 C 445.364 -1.54635 0.444615 0
M  V30 4704 O 446.556 -1.62753 0.695742 0
M  V30 4705 C 443.685 -3.02423 1.62466 0
M  V30 4706 C 442.771 -3.16601 2.82178 0
M  V30 4707 N 443.162 -3.00771 4.06658 0
M  V30 4708 C 441.46 -3.47645 2.79391 0
M  V30 4709 C 442.161 -3.18213 4.86945 0
M  V30 4710 N 441.137 -3.45528 4.19656 0
M  V30 4711 H 444.939 -1.5005 2.5271 0
M  V30 4712 H 442.453 -0.741018 1.44508 0
M  V30 4713 H 444.45 -3.81517 1.6808 0
M  V30 4714 H 443.11 -3.17157 0.695826 0
M  V30 4715 H 444.121 -2.77652 4.37184 0
M  V30 4716 H 440.798 -3.68771 1.95739 0
M  V30 4717 H 442.188 -3.1076 5.95716 0
M  V30 4718 N 444.908 -1.36708 -0.784132 0
M  V30 4719 C 445.84 -1.27333 -1.90575 0
M  V30 4720 C 446.853 -0.191706 -1.61667 0
M  V30 4721 O 448.042 -0.446854 -1.72816 0
M  V30 4722 C 445.142 -0.943177 -3.25511 0
M  V30 4723 C 444.315 -2.12776 -3.82158 0
M  V30 4724 C 443.374 -1.76983 -4.95544 0
M  V30 4725 O 442.4 -2.49134 -5.11782 0
M  V30 4726 N 443.602 -0.706624 -5.76183 0
M  V30 4727 H 446.367 -2.23974 -1.99138 0
M  V30 4728 H 443.928 -1.30171 -0.962656 0
M  V30 4729 H 445.92 -0.684799 -3.98864 0
M  V30 4730 H 444.49 -0.0657333 -3.12531 0
M  V30 4731 H 443.71 -2.54863 -3.0073 0
M  V30 4732 H 444.998 -2.91904 -4.16737 0
M  V30 4733 H 444.396 -0.107643 -5.65598 0
M  V30 4734 H 442.953 -0.50808 -6.49817 0
M  V30 4735 N 446.386 1.0089 -1.21074 0
M  V30 4736 C 447.802 1.2695 -0.967257 0
M  V30 4737 C 448.002 1.9846 0.348673 0
M  V30 4738 O 447.058 2.28459 1.0753 0
M  V30 4739 C 448.371 2.09697 -2.15517 0
M  V30 4740 C 449.919 2.22937 -2.197 0
M  V30 4741 C 450.394 3.09064 -3.37999 0
M  V30 4742 N 451.885 3.16653 -3.38061 0
M  V30 4743 C 452.62 3.8354 -4.26245 0
M  V30 4744 N 452.116 4.52488 -5.2462 0
M  V30 4745 N 453.909 3.80141 -4.14064 0
M  V30 4746 H 446.06 0.529005 -2.05707 0
M  V30 4747 H 448.323 0.296148 -0.900556 0
M  V30 4748 H 448.029 1.64497 -3.10859 0
M  V30 4749 H 447.903 3.10444 -2.14253 0
M  V30 4750 H 450.29 2.67357 -1.24916 0
M  V30 4751 H 450.371 1.21673 -2.2501 0
M  V30 4752 H 450.015 2.65347 -4.33074 0
M  V30 4753 H 449.945 4.10433 -3.29928 0
M  V30 4754 H 452.436 2.67566 -2.66865 0
M  V30 4755 H 452.749 5.01219 -5.88217 0
M  V30 4756 H 451.094 4.51288 -5.28549 0
M  V30 4757 H 454.285 3.25427 -3.36474 0
M  V30 4758 H 454.458 4.31992 -4.82998 0
M  V30 4759 N 447.864 1.01787 1.20321 0
M  V30 4760 C 449.089 0.727009 1.9424 0
M  V30 4761 C 449.514 -0.706179 1.74341 0
M  V30 4762 O 448.872 -1.48609 1.03852 0
M  V30 4763 C 448.92 1.06958 3.44372 0
M  V30 4764 O 448.024 0.181983 4.11998 0
M  V30 4765 H 447.365 0.269626 0.606793 0
M  V30 4766 H 449.895 1.36158 1.52716 0
M  V30 4767 H 449.905 1.02182 3.94997 0
M  V30 4768 H 448.58 2.11378 3.58179 0
M  V30 4769 H 447.157 0.287378 3.71791 0
M  V30 4770 N 449.342 -1.36122 0.79427 0
M  V30 4771 C 450.29 -2.31871 0.184023 0
M  V30 4772 C 451.284 -1.56041 -0.659365 0
M  V30 4773 O 452.49 -1.71266 -0.553906 0
M  V30 4774 H 448.865 -0.750896 0.0407373 0
M  V30 4775 H 450.836 -2.80898 1.00693 0
M  V30 4776 C 449.585 -3.41324 -0.662813 0
M  V30 4777 H 448.908 -3.99793 -0.0231944 0
M  V30 4778 H 450.348 -4.10629 -1.05639 0
M  V30 4779 C 448.807 -2.83308 -1.82313 0
M  V30 4780 O 449.337 -2.75863 -2.91997 0
M  V30 4781 N 447.543 -2.40529 -1.63077 0
M  V30 4782 H 447.09 -2.46785 -0.738591 0
M  V30 4783 H 447.048 -2.02059 -2.40872 0
M  V30 4784 N 450.82 -0.546701 -1.47814 0
M  V30 4785 C 451.783 0.196287 -2.28358 0
M  V30 4786 C 452.783 0.852437 -1.36346 0
M  V30 4787 O 453.973 0.709913 -1.59078 0
M  V30 4788 C 451.105 1.28579 -3.15722 0
M  V30 4789 H 452.298 -0.511086 -2.95513 0
M  V30 4790 H 449.851 -0.303248 -1.5333 0
M  V30 4791 H 450.586 2.0259 -2.53235 0
M  V30 4792 H 450.371 0.820229 -3.83425 0
M  V30 4793 H 451.861 1.80793 -3.76435 0
M  V30 4794 N 452.299 1.55045 -0.282633 0
M  V30 4795 C 453.262 2.21515 0.588539 0
M  V30 4796 C 454.262 1.19535 1.07554 0
M  V30 4797 O 455.452 1.44391 0.974514 0
M  V30 4798 C 452.584 2.88704 1.8128 0
M  V30 4799 H 453.777 2.99899 0.00806397 0
M  V30 4800 H 451.33 1.56265 -0.0333067 0
M  V30 4801 H 452.065 2.14352 2.43359 0
M  V30 4802 H 451.85 3.63443 1.47144 0
M  V30 4803 H 453.34 3.39465 2.43214 0
M  V30 4804 N 453.777 0.010035 1.57597 0
M  V30 4805 C 454.707 -0.976857 2.12084 0
M  V30 4806 C 455.688 -1.35191 1.03235 0
M  V30 4807 O 456.873 -1.43389 1.3097 0
M  V30 4808 C 454.003 -2.26548 2.63236 0
M  V30 4809 C 452.957 -2.03175 3.76701 0
M  V30 4810 C 452.283 -3.38138 4.14206 0
M  V30 4811 C 453.583 -1.38625 5.03568 0
M  V30 4812 H 455.277 -0.523145 2.94794 0
M  V30 4813 H 452.823 -0.250195 1.4181 0
M  V30 4814 H 454.776 -2.95952 2.99984 0
M  V30 4815 H 453.5 -2.74051 1.77661 0
M  V30 4816 H 452.159 -1.36195 3.40362 0
M  V30 4817 H 451.807 -3.83363 3.25641 0
M  V30 4818 H 451.507 -3.23312 4.90656 0
M  V30 4819 H 453.031 -4.08841 4.53521 0
M  V30 4820 H 454.445 -1.98 5.38023 0
M  V30 4821 H 452.842 -1.34256 5.84889 0
M  V30 4822 H 453.912 -0.356722 4.83586 0
M  V30 4823 N 455.255 -1.55392 -0.262866 0
M  V30 4824 C 456.218 -1.88181 -1.30846 0
M  V30 4825 C 457.218 -0.757079 -1.41862 0
M  V30 4826 O 458.408 -1.02519 -1.40838 0
M  V30 4827 C 455.54 -2.09609 -2.68844 0
M  V30 4828 H 456.733 -2.81659 -1.02997 0
M  V30 4829 H 454.286 -1.48039 -0.501414 0
M  V30 4830 H 455.021 -1.18547 -3.01856 0
M  V30 4831 H 454.806 -2.91508 -2.62231 0
M  V30 4832 H 456.296 -2.36215 -3.44372 0
M  V30 4833 N 456.733 0.527833 -1.48498 0
M  V30 4834 C 457.663 1.64136 -1.66077 0
M  V30 4835 C 458.644 1.62286 -0.509625 0
M  V30 4836 O 459.829 1.79449 -0.742413 0
M  V30 4837 C 456.959 3.02717 -1.70234 0
M  V30 4838 C 455.913 3.19426 -2.8487 0
M  V30 4839 C 455.239 4.5909 -2.74118 0
M  V30 4840 C 456.539 3.01993 -4.26142 0
M  V30 4841 H 458.233 1.4968 -2.593 0
M  V30 4842 H 455.779 0.718654 -1.24785 0
M  V30 4843 H 457.732 3.80491 -1.8112 0
M  V30 4844 H 456.456 3.18201 -0.735911 0
M  V30 4845 H 455.115 2.4407 -2.73542 0
M  V30 4846 H 454.763 4.71413 -1.7544 0
M  V30 4847 H 454.463 4.71214 -3.51042 0
M  V30 4848 H 455.987 5.3896 -2.86974 0
M  V30 4849 H 457.401 3.69558 -4.38292 0
M  V30 4850 H 455.798 3.2561 -5.04082 0
M  V30 4851 H 456.868 1.98396 -4.42456 0
M  V30 4852 N 458.211 1.37122 0.776871 0
M  V30 4853 C 459.143 1.28342 1.89897 0
M  V30 4854 C 460.156 0.200277 1.61563 0
M  V30 4855 O 461.345 0.456012 1.72577 0
M  V30 4856 C 458.445 0.960427 3.25006 0
M  V30 4857 C 457.618 2.148 3.81025 0
M  V30 4858 C 456.677 1.79608 4.94598 0
M  V30 4859 O 455.703 2.51845 5.10454 0
M  V30 4860 N 456.905 0.737171 5.758 0
M  V30 4861 H 459.67 2.25027 1.97947 0
M  V30 4862 H 457.231 1.3068 0.955739 0
M  V30 4863 H 459.223 0.705942 3.98495 0
M  V30 4864 H 457.793 0.0823066 3.12492 0
M  V30 4865 H 457.013 2.56454 2.99374 0
M  V30 4866 H 458.301 2.9411 4.15183 0
M  V30 4867 H 457.699 0.137637 5.65533 0
M  V30 4868 H 456.256 0.542534 6.49538 0
M  V30 4869 N 459.689 -1.00246 1.21608 0
M  V30 4870 C 460.619 -2.10921 1.00172 0
M  V30 4871 C 461.6 -1.69938 -0.0741587 0
M  V30 4872 O 462.785 -1.94009 0.0861753 0
M  V30 4873 C 459.915 -3.42618 0.568355 0
M  V30 4874 C 458.869 -3.97407 1.58909 0
M  V30 4875 C 458.195 -5.25038 1.01187 0
M  V30 4876 C 459.495 -4.2918 2.97661 0
M  V30 4877 H 461.189 -2.29112 1.92739 0
M  V30 4878 H 458.735 -1.10101 0.928102 0
M  V30 4879 H 460.688 -4.19444 0.405555 0
M  V30 4880 H 459.412 -3.24227 -0.392961 0
M  V30 4881 H 458.071 -3.22703 1.73949 0
M  V30 4882 H 457.719 -5.02982 0.0421965 0
M  V30 4883 H 457.419 -5.62661 1.6937 0
M  V30 4884 H 458.943 -6.04507 0.860448 0
M  V30 4885 H 460.357 -4.96839 2.86049 0
M  V30 4886 H 458.754 -4.77952 3.6288 0
M  V30 4887 H 459.824 -3.3735 3.48315 0
M  V30 4888 N 461.167 -1.02423 -1.1978 0
M  V30 4889 C 462.13 -0.605703 -2.21052 0
M  V30 4890 C 463.13 0.328209 -1.57415 0
M  V30 4891 O 464.32 0.115853 -1.73814 0
M  V30 4892 C 461.452 0.114366 -3.40708 0
M  V30 4893 H 462.645 -1.5017 -2.59594 0
M  V30 4894 H 460.198 -0.814888 -1.33376 0
M  V30 4895 H 460.933 1.02492 -3.07678 0
M  V30 4896 H 460.718 -0.556641 -3.88129 0
M  V30 4897 H 462.208 0.394272 -4.15735 0
M  V30 4898 N 462.645 1.35699 -0.801477 0
M  V30 4899 C 463.595 2.2728 -0.181073 0
M  V30 4900 C 464.579 1.47533 0.642098 0
M  V30 4901 O 465.771 1.69785 0.500193 0
M  V30 4902 C 462.9 3.36626 0.673612 0
M  V30 4903 C 461.986 4.23802 -0.159008 0
M  V30 4904 N 462.377 4.90879 -1.2195 0
M  V30 4905 C 460.675 4.45959 0.0602005 0
M  V30 4906 C 461.376 5.5546 -1.72738 0
M  V30 4907 N 460.352 5.33663 -1.03465 0
M  V30 4908 H 464.154 2.76632 -0.992582 0
M  V30 4909 H 461.668 1.49166 -0.642127 0
M  V30 4910 H 463.665 4.01179 1.13408 0
M  V30 4911 H 462.325 2.88828 1.48353 0
M  V30 4912 H 463.336 4.92497 -1.60209 0
M  V30 4913 H 460.013 4.08969 0.839664 0
M  V30 4914 H 461.403 6.18991 -2.61342 0
M  V30 4915 N 464.123 0.554532 1.47522 0
M  V30 4916 C 465.363 0.0317994 2.04375 0
M  V30 4917 C 465.727 -1.29242 1.41988 0
M  V30 4918 O 466.928 -1.90269 1.89872 0
M  V30 4919 C 465.199 -0.0623344 3.57346 0
M  V30 4920 S 466.758 -0.531578 4.35568 0
M  V30 4921 H 463.576 0.0238553 0.7106 0
M  V30 4922 H 466.178 0.74066 1.80927 0
M  V30 4923 H 464.882 0.905857 4.00278 0
M  V30 4924 H 464.413 -0.794831 3.85287 0
M  V30 4925 H 466.428 -1.79175 4.62721 0
M  V30 4926 N 465.601 -1.54893 0.290851 0
M  V30 4927 C 466.847 -2.00949 -0.314784 0
M  V30 4928 C 467.202 -1.1757 -1.52299 0
M  V30 4929 O 466.495 -0.241558 -1.90071 0
M  V30 4930 C 466.689 -3.49815 -0.732397 0
M  V30 4931 C 466.518 -4.47603 0.433799 0
M  V30 4932 C 465.288 -4.96806 0.922599 0
M  V30 4933 C 467.486 -4.98233 1.27546 0
M  V30 4934 N 465.468 -5.78426 2.05662 0
M  V30 4935 C 466.839 -5.77455 2.25712 0
M  V30 4936 C 468.894 -4.80439 1.307 0
M  V30 4937 C 467.597 -6.40778 3.26796 0
M  V30 4938 C 469.623 -5.44574 2.30637 0
M  V30 4939 C 468.985 -6.23619 3.27533 0
M  V30 4940 H 465.084 -0.777905 -0.0799257 0
M  V30 4941 H 467.668 -1.9015 0.418458 0
M  V30 4942 H 465.839 -3.60925 -1.43483 0
M  V30 4943 H 467.571 -3.82681 -1.31671 0
M  V30 4944 H 464.326 -4.70961 0.49926 0
M  V30 4945 H 464.75 -6.23923 2.62772 0
M  V30 4946 H 469.392 -4.18918 0.571622 0
M  V30 4947 H 467.11 -7.01439 4.01258 0
M  V30 4948 H 470.696 -5.32739 2.33838 0
M  V30 4949 H 469.576 -6.72367 4.03599 0
M  V30 4950 N 467.08 -0.0183926 -1.57589 0
M  V30 4951 C 468.01 0.965596 -2.12599 0
M  V30 4952 C 468.991 1.34641 -1.0395 0
M  V30 4953 O 470.176 1.42693 -1.31729 0
M  V30 4954 C 467.306 2.25149 -2.64434 0
M  V30 4955 C 466.26 2.01175 -3.77773 0
M  V30 4956 C 465.586 3.35937 -4.15994 0
M  V30 4957 C 466.886 1.35953 -5.04296 0
M  V30 4958 H 468.58 0.507504 -2.95067 0
M  V30 4959 H 466.126 0.242671 -1.41941 0
M  V30 4960 H 468.079 2.94357 -3.01549 0
M  V30 4961 H 466.803 2.73105 -1.79112 0
M  V30 4962 H 465.462 1.34388 -3.4108 0
M  V30 4963 H 465.11 3.81631 -3.27669 0
M  V30 4964 H 464.81 3.20705 -4.92364 0
M  V30 4965 H 466.334 4.0643 -4.55683 0
M  V30 4966 H 467.748 1.95144 -5.39065 0
M  V30 4967 H 466.145 1.31152 -5.85593 0
M  V30 4968 H 467.215 0.331071 -4.83768 0
M  V30 4969 N 468.558 1.5553 0.254621 0
M  V30 4970 C 469.49 1.86104 1.33783 0
M  V30 4971 C 470.503 0.746752 1.44663 0
M  V30 4972 O 471.692 1.0248 1.46151 0
M  V30 4973 C 468.792 2.02532 2.71724 0
M  V30 4974 C 467.965 3.33335 2.83208 0
M  V30 4975 C 467.024 3.396 4.01943 0
M  V30 4976 O 466.05 4.12862 3.91834 0
M  V30 4977 N 467.252 2.68332 5.1476 0
M  V30 4978 H 470.017 2.79605 1.07893 0
M  V30 4979 H 467.578 1.55672 0.444732 0
M  V30 4980 H 469.57 2.04074 3.4948 0
M  V30 4981 H 468.14 1.15811 2.90356 0
M  V30 4982 H 467.36 3.44176 1.92189 0
M  V30 4983 H 468.648 4.19565 2.87824 0
M  V30 4984 H 468.046 2.08528 5.25864 0
M  V30 4985 H 466.603 2.75575 5.90679 0
M  V30 4986 N 470.036 -0.519951 1.48776 0
M  V30 4987 C 471.452 -0.849418 1.35119 0
M  V30 4988 C 471.652 -1.98077 0.36982 0
M  V30 4989 O 470.708 -2.51664 -0.205359 0
M  V30 4990 C 472.021 -1.20748 2.75391 0
M  V30 4991 C 473.569 -1.31679 2.83954 0
M  V30 4992 C 474.044 -1.70824 4.24951 0
M  V30 4993 N 475.535 -1.77908 4.27672 0
M  V30 4994 C 476.27 -2.09603 5.33717 0
M  V30 4995 N 475.766 -2.39652 6.5003 0
M  V30 4996 N 477.559 -2.10694 5.21119 0
M  V30 4997 H 469.71 0.226377 2.1119 0
M  V30 4998 H 471.973 0.0386519 0.947212 0
M  V30 4999 H 471.679 -0.449703 3.48813 0
M  V30 5000 H 471.553 -2.15534 3.09556 0
M  V30 5001 H 473.94 -2.06532 2.10781 0
M  V30 5002 H 474.021 -0.3499 2.53396 0
M  V30 5003 H 473.665 -0.965282 4.98643 0
M  V30 5004 H 473.595 -2.6858 4.52959 0
M  V30 5005 H 476.086 -1.56923 3.43779 0
M  V30 5006 H 476.399 -2.6297 7.26682 0
M  V30 5007 H 474.744 -2.37149 6.53288 0
M  V30 5008 H 477.935 -1.86682 4.29264 0
M  V30 5009 H 478.108 -2.35062 6.03863 0
M  V30 5010 N 471.514 -1.37532 -0.769588 0
M  V30 5011 C 472.446 -1.29347 -1.89214 0
M  V30 5012 C 473.459 -0.208842 -1.61455 0
M  V30 5013 O 474.648 -0.465158 -1.72333 0
M  V30 5014 C 471.748 -0.977649 -3.24492 0
M  V30 5015 C 470.921 -2.16817 -3.7988 0
M  V30 5016 C 469.98 -1.82229 -4.93639 0
M  V30 5017 O 469.006 -2.54548 -5.09111 0
M  V30 5018 N 470.208 -0.767696 -5.75401 0
M  V30 5019 H 472.973 -2.26073 -1.96751 0
M  V30 5020 H 470.534 -1.31185 -0.948795 0
M  V30 5021 H 472.526 -0.727065 -3.98115 0
M  V30 5022 H 471.096 -0.0988777 -3.12444 0
M  V30 5023 H 470.316 -2.58038 -2.9801 0
M  V30 5024 H 471.604 -2.96308 -4.13617 0
M  V30 5025 H 471.002 -0.167626 -5.65452 0
M  V30 5026 H 469.559 -0.576973 -6.49241 0
M  V30 5027 N 472.992 0.995999 -1.22138 0
M  V30 5028 C 474.269 1.70834 -0.952642 0
M  V30 5029 C 474.649 2.04257 0.533119 0
M  V30 5030 O 473.997 1.72343 1.50034 0
M  V30 5031 C 474.207 2.96119 -1.84701 0
M  V30 5032 C 475.555 3.68962 -2.10124 0
M  V30 5033 O 476.579 3.0612 -1.82124 0
M  V30 5034 O 475.438 4.82017 -2.57531 0
M  V30 5035 H 472.532 0.745498 -0.357997 0
M  V30 5036 H 475.078 1.05262 -1.33109 0
M  V30 5037 H 473.85 2.67898 -2.85213 0
M  V30 5038 H 473.473 3.6943 -1.46995 0
M  V30 5039 N 474.47 1.03057 1.19235 0
M  V30 5040 C 475.886 0.747947 1.40989 0
M  V30 5041 C 476.086 -0.666752 1.90149 0
M  V30 5042 O 475.142 -1.43249 2.07933 0
M  V30 5043 C 476.455 1.7855 2.41951 0
M  V30 5044 C 478.003 1.80524 2.55695 0
M  V30 5045 C 478.478 2.83243 3.59913 0
M  V30 5046 N 479.969 2.8207 3.67411 0
M  V30 5047 C 480.704 3.58204 4.47747 0
M  V30 5048 N 480.2 4.44057 5.31775 0
M  V30 5049 N 481.993 3.46738 4.42413 0
M  V30 5050 H 474.144 1.94367 0.856468 0
M  V30 5051 H 476.407 0.840412 0.438647 0
M  V30 5052 H 476.113 2.79973 2.12857 0
M  V30 5053 H 475.987 1.6092 3.41152 0
M  V30 5054 H 478.374 0.79778 2.84112 0
M  V30 5055 H 478.455 2.02229 1.56643 0
M  V30 5056 H 478.099 3.84161 3.32239 0
M  V30 5057 H 478.029 2.58795 4.5862 0
M  V30 5058 H 480.52 2.19803 3.074 0
M  V30 5059 H 480.833 4.98884 5.90199 0
M  V30 5060 H 479.178 4.48129 5.3123 0
M  V30 5061 H 482.369 2.79077 3.75811 0
M  V30 5062 H 482.542 4.06322 5.04783 0
M  V30 5063 N 475.948 -1.35272 0.808662 0
M  V30 5064 C 476.898 -2.27181 0.193124 0
M  V30 5065 C 477.882 -1.47871 -0.634265 0
M  V30 5066 O 479.074 -1.70048 -0.491182 0
M  V30 5067 C 476.203 -3.36979 -0.655751 0
M  V30 5068 C 475.289 -4.23712 0.181481 0
M  V30 5069 N 475.68 -4.90225 1.24551 0
M  V30 5070 C 473.978 -4.45985 -0.0365493 0
M  V30 5071 C 474.679 -5.54537 1.75682 0
M  V30 5072 N 473.655 -5.33107 1.06294 0
M  V30 5073 H 477.457 -2.76101 1.00724 0
M  V30 5074 H 474.971 -1.48823 0.650029 0
M  V30 5075 H 476.968 -4.01774 -1.11279 0
M  V30 5076 H 475.628 -2.89611 -1.46819 0
M  V30 5077 H 476.639 -4.91641 1.62818 0
M  V30 5078 H 473.316 -4.09409 -0.817964 0
M  V30 5079 H 474.706 -6.17597 2.64621 0
M  V30 5080 N 477.426 -0.562348 -1.47226 0
M  V30 5081 C 478.674 -0.0401371 -2.0206 0
M  V30 5082 C 478.995 1.3165 -1.43852 0
M  V30 5083 O 478.265 1.85976 -0.615599 0
M  V30 5084 H 476.845 -0.0118479 -0.746906 0
M  V30 5085 H 479.507 -0.73352 -1.8057 0
M  V30 5086 H 478.603 0.0441254 -3.12069 0
M  V30 5087 N 478.904 1.54736 -0.299062 0
M  V30 5088 C 479.867 2.22127 0.565012 0
M  V30 5089 C 480.867 1.20669 1.06281 0
M  V30 5090 O 482.057 1.45417 0.959145 0
M  V30 5091 C 479.189 2.90611 1.78208 0
M  V30 5092 H 480.382 2.99891 -0.0237448 0
M  V30 5093 H 477.935 1.5622 -0.0498788 0
M  V30 5094 H 478.67 2.16921 2.41072 0
M  V30 5095 H 478.455 3.64984 1.43281 0
M  V30 5096 H 479.945 3.42026 2.396 0
M  V30 5097 N 480.382 0.0267497 1.57577 0
M  V30 5098 C 481.63 -0.651116 1.91324 0
M  V30 5099 C 481.951 -1.72804 0.90353 0
M  V30 5100 O 481.221 -1.95822 -0.0552946 0
M  V30 5101 H 479.801 -0.243491 0.706202 0
M  V30 5102 H 482.463 0.0739935 1.94759 0
M  V30 5103 H 481.559 -1.10536 2.9187 0
M  V30 5104 N 481.861 -1.55662 -0.24637 0
M  V30 5105 C 482.771 -1.93495 -1.32653 0
M  V30 5106 C 483.787 -0.835462 -1.5263 0
M  V30 5107 O 484.963 -1.1369 -1.66242 0
M  V30 5108 C 482.028 -2.22242 -2.66101 0
M  V30 5109 C 481.089 -3.45625 -2.54641 0
M  V30 5110 C 480.322 -3.72991 -3.81724 0
M  V30 5111 O 480.545 -3.02421 -4.8363 0
M  V30 5112 O 479.479 -4.66515 -3.80325 0
M  V30 5113 H 483.305 -2.85498 -1.03559 0
M  V30 5114 H 480.89 -1.42551 -0.44717 0
M  V30 5115 H 482.772 -2.42037 -3.44958 0
M  V30 5116 H 481.447 -1.33417 -2.94926 0
M  V30 5117 H 480.354 -3.31136 -1.74067 0
M  V30 5118 H 481.687 -4.34754 -2.3076 0
M  V30 5119 N 483.339 0.512053 -1.4905 0
M  V30 5120 C 484.75 1.09376 -1.51307 0
M  V30 5121 C 485.101 1.94 -0.292971 0
M  V30 5122 O 484.226 2.07965 0.598277 0
M  V30 5123 C 484.821 1.99031 -2.74176 0
M  V30 5124 C 483.38 2.52385 -2.79247 0
M  V30 5125 C 482.527 1.29749 -2.45073 0
M  V30 5126 H 485.478 0.296467 -1.55906 0
M  V30 5127 H 485.499 2.83569 -2.53711 0
M  V30 5128 H 485.011 1.37412 -3.62959 0
M  V30 5129 H 483.112 3.17673 -1.94716 0
M  V30 5130 H 483.225 2.90293 -3.81139 0
M  V30 5131 H 481.589 1.61912 -1.96612 0
M  V30 5132 H 482.372 0.698555 -3.36118 0
M  V30 5133 N 484.817 1.37938 0.762283 0
M  V30 5134 C 485.764 1.34467 1.87583 0
M  V30 5135 C 486.734 0.208633 1.64785 0
M  V30 5136 O 487.919 0.399494 1.86571 0
M  V30 5137 C 485.059 1.16692 3.24772 0
M  V30 5138 C 484.172 2.39608 3.59461 0
M  V30 5139 C 483.307 2.14631 4.85908 0
M  V30 5140 C 482.346 3.33364 5.13357 0
M  V30 5141 N 481.483 3.07877 6.30996 0
M  V30 5142 H 486.323 2.29669 1.89885 0
M  V30 5143 H 483.86 1.14116 0.928219 0
M  V30 5144 H 485.818 1.04405 4.03925 0
M  V30 5145 H 484.448 0.251333 3.2182 0
M  V30 5146 H 483.5 2.626 2.75219 0
M  V30 5147 H 484.812 3.28128 3.75678 0
M  V30 5148 H 483.966 1.99429 5.72986 0
M  V30 5149 H 482.705 1.23463 4.71814 0
M  V30 5150 H 481.71 3.49094 4.24751 0
M  V30 5151 H 482.935 4.25395 5.29354 0
M  V30 5152 H 480.881 2.19348 6.18241 0
M  V30 5153 H 480.798 3.89944 6.47673 0
M  V30 5154 H 482.066 2.96313 7.20985 0
M  V30 5155 N 486.295 -0.989507 1.22664 0
M  V30 5156 C 487.258 -2.06183 1.00106 0
M  V30 5157 C 488.258 -1.60765 -0.0337726 0
M  V30 5158 O 489.448 -1.72989 0.205072 0
M  V30 5159 C 486.58 -3.37021 0.51279 0
M  V30 5160 H 487.773 -2.27629 1.95256 0
M  V30 5161 H 485.326 -1.16158 1.0458 0
M  V30 5162 H 486.061 -3.21261 -0.442917 0
M  V30 5163 H 485.846 -3.71323 1.25942 0
M  V30 5164 H 487.336 -4.1591 0.375315 0
M  V30 5165 N 487.773 -1.03688 -1.18687 0
M  V30 5166 C 488.998 -0.757819 -1.93059 0
M  V30 5167 C 489.423 0.678353 -1.75442 0
M  V30 5168 O 488.781 1.46938 -1.06203 0
M  V30 5169 C 488.829 -1.12423 -3.42627 0
M  V30 5170 O 487.933 -0.247505 -4.11657 0
M  V30 5171 H 487.274 -0.279245 -0.602427 0
M  V30 5172 H 489.804 -1.3857 -1.5053 0
M  V30 5173 H 489.814 -1.08454 -3.93322 0
M  V30 5174 H 488.489 -2.17049 -3.54771 0
M  V30 5175 H 487.066 -0.34649 -3.71287 0
M  V30 5176 N 489.251 1.34841 -0.815825 0
M  V30 5177 C 490.667 1.51543 -0.500697 0
M  V30 5178 C 490.867 1.76261 0.976444 0
M  V30 5179 O 489.923 1.8094 1.76117 0
M  V30 5180 C 491.236 2.68487 -1.35407 0
M  V30 5181 C 492.784 2.82368 -1.35046 0
M  V30 5182 C 493.259 4.02347 -2.18816 0
M  V30 5183 N 494.75 4.09542 -2.16402 0
M  V30 5184 C 495.485 5.01517 -2.77971 0
M  V30 5185 N 494.981 5.98763 -3.48503 0
M  V30 5186 N 496.774 4.94334 -2.67563 0
M  V30 5187 H 488.925 1.17055 -1.77234 0
M  V30 5188 H 491.188 0.573481 -0.754866 0
M  V30 5189 H 490.894 2.56829 -2.40274 0
M  V30 5190 H 490.768 3.63321 -1.01377 0
M  V30 5191 H 493.155 2.93471 -0.309604 0
M  V30 5192 H 493.236 1.88363 -1.73069 0
M  V30 5193 H 492.88 3.92004 -3.22948 0
M  V30 5194 H 492.81 4.95551 -1.78148 0
M  V30 5195 H 495.301 3.39932 -1.65091 0
M  V30 5196 H 495.614 6.6556 -3.92747 0
M  V30 5197 H 493.959 5.98909 -3.52609 0
M  V30 5198 H 497.15 4.1732 -2.12041 0
M  V30 5199 H 497.323 5.6582 -3.15834 0
M  V30 5200 N 490.729 0.570148 1.46925 0
M  V30 5201 C 492.14 0.1402 1.86173 0
M  V30 5202 C 492.491 -1.29347 1.47526 0
M  V30 5203 O 491.616 -1.97508 0.884292 0
M  V30 5204 C 492.211 0.247661 3.37894 0
M  V30 5205 C 490.77 -0.127332 3.76185 0
M  V30 5206 C 489.917 0.589349 2.70965 0
M  V30 5207 H 492.868 0.779117 1.38259 0
M  V30 5208 H 492.889 -0.530341 3.76786 0
M  V30 5209 H 492.401 1.29121 3.65991 0
M  V30 5210 H 490.502 -1.17149 3.53704 0
M  V30 5211 H 490.615 0.240238 4.78497 0
M  V30 5212 H 488.979 0.0309824 2.54681 0
M  V30 5213 H 489.762 1.6343 3.01903 0
M  V30 5214 N 492.207 -1.54576 0.307264 0
M  V30 5215 C 493.455 -1.99867 -0.299574 0
M  V30 5216 C 493.776 -1.19714 -1.53927 0
M  V30 5217 O 493.046 -0.29472 -1.9367 0
M  V30 5218 H 491.626 -0.738299 -0.113683 0
M  V30 5219 H 494.288 -1.9032 0.420042 0
M  V30 5220 H 493.384 -3.06901 -0.567283 0
M  V30 5221 N 493.685 -0.035106 -1.57561 0
M  V30 5222 C 494.615 0.942993 -2.13612 0
M  V30 5223 C 495.596 1.33531 -1.05373 0
M  V30 5224 O 496.781 1.41287 -1.33235 0
M  V30 5225 C 493.911 2.22332 -2.66807 0
M  V30 5226 C 492.865 1.97156 -3.79886 0
M  V30 5227 C 492.191 3.31506 -4.19533 0
M  V30 5228 C 493.491 1.30596 -5.05709 0
M  V30 5229 H 495.185 0.476179 -2.95589 0
M  V30 5230 H 492.731 0.227602 -1.4219 0
M  V30 5231 H 494.684 2.91142 -3.04654 0
M  V30 5232 H 493.408 2.7119 -1.81999 0
M  V30 5233 H 492.067 1.30763 -3.42486 0
M  V30 5234 H 491.715 3.78134 -3.31698 0
M  V30 5235 H 491.415 3.15465 -4.95738 0
M  V30 5236 H 492.939 4.01574 -4.59968 0
M  V30 5237 H 494.353 1.89416 -5.41105 0
M  V30 5238 H 492.75 1.24934 -5.86951 0
M  V30 5239 H 493.82 0.279742 -4.84092 0
M  V30 5240 N 495.163 1.55791 0.238111 0
M  V30 5241 C 496.093 1.94068 1.29846 0
M  V30 5242 C 497.074 0.806726 1.49753 0
M  V30 5243 O 498.259 1.06772 1.62214 0
M  V30 5244 C 495.389 2.24302 2.65153 0
M  V30 5245 C 494.343 3.40032 2.59927 0
M  V30 5246 C 493.669 3.55829 3.99111 0
M  V30 5247 C 494.969 4.75476 2.16148 0
M  V30 5248 H 496.663 2.82887 0.980563 0
M  V30 5249 H 494.209 1.36105 0.470253 0
M  V30 5250 H 496.162 2.4967 3.39475 0
M  V30 5251 H 494.886 1.32318 2.98596 0
M  V30 5252 H 493.545 3.14687 1.88063 0
M  V30 5253 H 493.193 2.6125 4.29834 0
M  V30 5254 H 492.893 4.3366 3.96501 0
M  V30 5255 H 494.417 3.83528 4.7512 0
M  V30 5256 H 495.831 5.00158 2.80205 0
M  V30 5257 H 494.228 5.56472 2.24631 0
M  V30 5258 H 495.298 4.71946 1.11333 0
M  V30 5259 N 496.642 -0.504142 1.49319 0
M  V30 5260 C 497.888 -1.25767 1.59857 0
M  V30 5261 C 498.243 -1.90348 0.280262 0
M  V30 5262 O 497.536 -1.77588 -0.719241 0
M  V30 5263 C 497.73 -2.35021 2.69258 0
M  V30 5264 C 497.559 -1.81154 4.11598 0
M  V30 5265 C 496.329 -1.62596 4.78425 0
M  V30 5266 C 498.527 -1.3252 4.96934 0
M  V30 5267 N 496.509 -1.03625 6.05091 0
M  V30 5268 C 497.88 -0.856633 6.14054 0
M  V30 5269 C 499.935 -1.21063 4.82958 0
M  V30 5270 C 498.638 -0.284841 7.18736 0
M  V30 5271 C 500.664 -0.652815 5.87786 0
M  V30 5272 C 500.026 -0.194461 7.04132 0
M  V30 5273 H 496.125 -0.450293 0.639343 0
M  V30 5274 H 498.709 -0.565344 1.86311 0
M  V30 5275 H 496.88 -3.01719 2.44581 0
M  V30 5276 H 498.612 -3.02061 2.69335 0
M  V30 5277 H 495.367 -1.86873 4.35173 0
M  V30 5278 H 495.791 -0.76076 6.72712 0
M  V30 5279 H 500.433 -1.551 3.93324 0
M  V30 5280 H 498.151 0.0677979 8.08072 0
M  V30 5281 H 501.737 -0.566994 5.79031 0
M  V30 5282 H 500.617 0.230442 7.83861 0
M  V30 5283 N 498.12 -1.38341 -0.754957 0
M  V30 5284 C 499.052 -1.31347 -1.87831 0
M  V30 5285 C 500.065 -0.225955 -1.61224 0
M  V30 5286 O 501.254 -0.48341 -1.7183 0
M  V30 5287 C 498.354 -1.01201 -3.23437 0
M  V30 5288 C 497.527 -2.20834 -3.77559 0
M  V30 5289 C 496.586 -1.87454 -4.91678 0
M  V30 5290 O 495.612 -2.59934 -5.06382 0
M  V30 5291 N 496.814 -0.828682 -5.74555 0
M  V30 5292 H 499.579 -2.28147 -1.94342 0
M  V30 5293 H 497.14 -1.32184 -0.934828 0
M  V30 5294 H 499.132 -0.769249 -3.97322 0
M  V30 5295 H 497.702 -0.132011 -3.12321 0
M  V30 5296 H 496.922 -2.61184 -2.95256 0
M  V30 5297 H 498.21 -3.00678 -4.10451 0
M  V30 5298 H 497.608 -0.227591 -5.65242 0
M  V30 5299 H 496.165 -0.645802 -6.48593 0
M  V30 5300 N 499.598 0.982988 -1.23187 0
M  V30 5301 C 500.528 2.09301 -1.03515 0
M  V30 5302 C 501.509 1.70035 0.0471136 0
M  V30 5303 O 502.694 1.93847 -0.117029 0
M  V30 5304 C 499.824 3.4167 -0.622791 0
M  V30 5305 C 498.778 3.94828 -1.65211 0
M  V30 5306 C 498.104 5.23362 -1.09527 0
M  V30 5307 C 499.404 4.2439 -3.04451 0
M  V30 5308 H 501.098 2.26016 -1.96359 0
M  V30 5309 H 498.644 1.08611 -0.945501 0
M  V30 5310 H 500.597 4.18746 -0.472233 0
M  V30 5311 H 499.321 3.24811 0.341329 0
M  V30 5312 H 497.98 3.19895 -1.79061 0
M  V30 5313 H 497.628 5.02852 -0.122211 0
M  V30 5314 H 497.328 5.59895 -1.783 0
M  V30 5315 H 498.852 6.03062 -0.956511 0
M  V30 5316 H 500.266 4.92225 -2.93917 0
M  V30 5317 H 498.663 4.72118 -3.70438 0
M  V30 5318 H 499.733 3.31765 -3.53638 0
M  V30 5319 N 501.076 1.04316 1.18135 0
M  V30 5320 C 502.487 0.775505 1.69832 0
M  V30 5321 C 502.838 -0.703348 1.8316 0
M  V30 5322 O 501.963 -1.54729 1.51287 0
M  V30 5323 C 502.558 1.40112 3.0847 0
M  V30 5324 C 501.117 1.18172 3.57368 0
M  V30 5325 C 500.264 1.49022 2.33854 0
M  V30 5326 H 503.215 1.20925 1.02775 0
M  V30 5327 H 503.236 0.805672 3.71873 0
M  V30 5328 H 502.748 2.47744 2.98738 0
M  V30 5329 H 500.849 0.124258 3.72393 0
M  V30 5330 H 500.962 1.8805 4.40652 0
M  V30 5331 H 499.326 0.909995 2.37889 0
M  V30 5332 H 500.109 2.57768 2.26738 0
M  V30 5333 N 502.554 -1.34406 0.822964 0
M  V30 5334 C 503.484 -2.32052 0.259608 0
M  V30 5335 C 504.465 -1.58243 -0.623961 0
M  V30 5336 O 505.65 -1.86224 -0.55083 0
M  V30 5337 C 502.78 -3.42434 -0.579314 0
M  V30 5338 C 501.734 -4.27499 0.20712 0
M  V30 5339 C 501.06 -5.29349 -0.754547 0
M  V30 5340 C 502.36 -5.02758 1.41533 0
M  V30 5341 H 504.054 -2.79418 1.07545 0
M  V30 5342 H 501.6 -1.34338 0.518593 0
M  V30 5343 H 503.553 -4.0976 -0.983612 0
M  V30 5344 H 502.277 -2.93717 -1.4282 0
M  V30 5345 H 500.936 -3.61776 0.592787 0
M  V30 5346 H 500.584 -4.76895 -1.59939 0
M  V30 5347 H 500.284 -5.8714 -0.232561 0
M  V30 5348 H 501.808 -5.99544 -1.1567 0
M  V30 5349 H 503.222 -5.62938 1.08504 0
M  V30 5350 H 501.619 -5.70123 1.87296 0
M  V30 5351 H 502.689 -4.32451 2.1935 0
M  V30 5352 N 504.032 -0.577932 -1.46621 0
M  V30 5353 C 504.995 0.147805 -2.28723 0
M  V30 5354 C 505.995 0.823325 -1.38123 0
M  V30 5355 O 507.185 0.676011 -1.60548 0
M  V30 5356 C 504.317 1.21853 -3.18378 0
M  V30 5357 H 505.51 -0.573654 -2.94362 0
M  V30 5358 H 503.063 -0.335703 -1.52652 0
M  V30 5359 H 503.798 1.97173 -2.57475 0
M  V30 5360 H 503.583 0.738714 -3.85078 0
M  V30 5361 H 505.073 1.72768 -3.80186 0
M  V30 5362 N 505.51 1.54411 -0.315457 0
M  V30 5363 C 506.921 1.85885 0.174265 0
M  V30 5364 C 507.272 1.23723 1.52273 0
M  V30 5365 O 506.397 0.540246 2.09548 0
M  V30 5366 C 506.992 3.37257 0.322981 0
M  V30 5367 C 505.551 3.68711 0.756922 0
M  V30 5368 C 504.698 2.77013 -0.126195 0
M  V30 5369 H 507.649 1.49374 -0.536007 0
M  V30 5370 H 507.67 3.62539 1.15522 0
M  V30 5371 H 507.182 3.82471 -0.658602 0
M  V30 5372 H 505.283 3.29024 1.74854 0
M  V30 5373 H 505.396 4.75741 0.566291 0
M  V30 5374 H 503.76 2.51588 0.39692 0
M  V30 5375 H 504.543 3.25051 -1.1044 0
M  V30 5376 N 506.988 0.0434614 1.5754 0
M  V30 5377 C 508.234 -0.632971 1.92669 0
M  V30 5378 C 508.567 -1.70947 0.921446 0
M  V30 5379 O 507.842 -1.94426 -0.0537202 0
M  V30 5380 C 508.125 -1.23619 3.38216 0
M  V30 5381 C 507.978 -0.168274 4.49485 0
M  V30 5382 C 509.297 -2.15008 3.84005 0
M  V30 5383 H 506.416 -0.228629 0.700641 0
M  V30 5384 H 509.058 0.103651 1.89717 0
M  V30 5385 H 507.208 -1.864 3.40863 0
M  V30 5386 H 508.88 0.463196 4.58969 0
M  V30 5387 H 507.123 0.504581 4.30855 0
M  V30 5388 H 507.794 -0.630218 5.48391 0
M  V30 5389 H 510.27 -1.62198 3.83185 0
M  V30 5390 H 509.146 -2.54161 4.86511 0
M  V30 5391 H 509.407 -3.04707 3.20322 0
M  V30 5392 N 508.466 -1.55915 -0.229846 0
M  V30 5393 C 509.713 -1.78542 -0.955452 0
M  V30 5394 C 510.041 -0.610785 -1.84661 0
M  V30 5395 O 509.296 0.405213 -1.91459 0
M  V30 5396 C 509.595 -3.06845 -1.8325 0
M  V30 5397 C 509.261 -4.37395 -1.09528 0
M  V30 5398 C 507.923 -4.72868 -0.891598 0
M  V30 5399 C 510.275 -5.18029 -0.574046 0
M  V30 5400 C 507.603 -5.86496 -0.154655 0
M  V30 5401 C 509.955 -6.32423 0.149513 0
M  V30 5402 C 508.619 -6.66504 0.364519 0
M  V30 5403 H 507.889 -0.653333 -0.349625 0
M  V30 5404 H 510.536 -1.90183 -0.224235 0
M  V30 5405 H 508.841 -2.90291 -2.63132 0
M  V30 5406 H 510.538 -3.21553 -2.39592 0
M  V30 5407 H 507.128 -4.09538 -1.26399 0
M  V30 5408 H 511.312 -4.91066 -0.718899 0
M  V30 5409 H 506.568 -6.11396 0.0222356 0
M  V30 5410 H 510.742 -6.94137 0.560947 0
M  V30 5411 H 508.369 -7.54397 0.937495 0
M  V30 5412 N 509.944 0.496216 -1.49584 0
M  V30 5413 C 510.876 1.61404 -1.62731 0
M  V30 5414 C 511.889 1.54613 -0.50978 0
M  V30 5415 O 513.078 1.60458 -0.782017 0
M  V30 5416 C 510.178 3.00212 -1.57245 0
M  V30 5417 C 509.351 3.32138 -2.84611 0
M  V30 5418 C 508.41 4.5038 -2.72112 0
M  V30 5419 O 507.436 4.51926 -3.46051 0
M  V30 5420 N 508.638 5.50575 -1.83977 0
M  V30 5421 H 511.403 1.50552 -2.59141 0
M  V30 5422 H 508.964 0.684182 -1.46733 0
M  V30 5423 H 510.956 3.77241 -1.4653 0
M  V30 5424 H 509.526 3.04964 -0.686729 0
M  V30 5425 H 508.746 2.4396 -3.09641 0
M  V30 5426 H 510.034 3.50268 -3.69039 0
M  V30 5427 H 509.432 5.52128 -1.23171 0
M  V30 5428 H 507.989 6.26687 -1.79182 0
M  V30 5429 N 511.423 1.38739 0.74761 0
M  V30 5430 C 512.834 1.31507 1.32524 0
M  V30 5431 C 513.185 -0.0263963 1.96182 0
M  V30 5432 O 512.31 -0.92849 1.95469 0
M  V30 5433 C 512.905 2.38162 2.40966 0
M  V30 5434 C 511.464 2.34489 2.94434 0
M  V30 5435 C 510.611 2.20712 1.67873 0
M  V30 5436 H 513.562 1.4901 0.546043 0
M  V30 5437 H 513.583 2.04222 3.21051 0
M  V30 5438 H 513.095 3.35783 1.94605 0
M  V30 5439 H 511.196 1.40467 3.45108 0
M  V30 5440 H 511.309 3.28861 3.48407 0
M  V30 5441 H 509.673 1.67667 1.91729 0
M  V30 5442 H 510.456 3.20285 1.23582 0
M  V30 5443 N 512.901 -0.976442 1.23707 0
M  V30 5444 C 514.129 -1.75341 1.09833 0
M  V30 5445 C 514.544 -1.8553 -0.349885 0
M  V30 5446 O 513.901 -1.33732 -1.24185 0
M  V30 5447 C 513.952 -3.17833 1.72233 0
M  V30 5448 O 513.673 -3.08167 3.11391 0
M  V30 5449 C 515.174 -4.11906 1.63853 0
M  V30 5450 H 512.394 -0.550137 0.384175 0
M  V30 5451 H 514.938 -1.2265 1.63638 0
M  V30 5452 H 513.093 -3.67538 1.22452 0
M  V30 5453 H 513.507 -3.97897 3.41729 0
M  V30 5454 H 514.981 -5.09579 2.12211 0
M  V30 5455 H 515.458 -4.35109 0.598092 0
M  V30 5456 H 516.064 -3.68107 2.13019 0
M  V30 5457 N 514.379 -1.04941 -1.1758 0
M  V30 5458 C 515.604 -0.778253 -1.92245 0
M  V30 5459 C 516.029 0.659707 -1.76152 0
M  V30 5460 O 515.387 1.45803 -1.07755 0
M  V30 5461 C 515.435 -1.16051 -3.41416 0
M  V30 5462 O 514.539 -0.291153 -4.11371 0
M  V30 5463 H 513.88 -0.285619 -0.599431 0
M  V30 5464 H 516.41 -1.40159 -1.49052 0
M  V30 5465 H 516.42 -1.12619 -3.92149 0
M  V30 5466 H 515.095 -2.208 -3.52449 0
M  V30 5467 H 513.672 -0.385851 -3.70898 0
M  V30 5468 N 515.857 1.33968 -0.830081 0
M  V30 5469 C 516.807 2.26845 -0.229242 0
M  V30 5470 C 517.791 1.48862 0.610659 0
M  V30 5471 O 518.983 1.70808 0.464067 0
M  V30 5472 C 516.112 3.3798 0.602057 0
M  V30 5473 C 515.198 4.23369 -0.248866 0
M  V30 5474 N 515.589 4.88182 -1.32334 0
M  V30 5475 C 513.887 4.45987 -0.0344077 0
M  V30 5476 C 514.588 5.51671 -1.84482 0
M  V30 5477 N 513.564 5.31348 -1.14762 0
M  V30 5478 H 517.366 2.74464 -1.05104 0
M  V30 5479 H 514.88 1.4777 -0.673623 0
M  V30 5480 H 516.877 4.03494 1.04873 0
M  V30 5481 H 515.537 2.9191 1.42193 0
M  V30 5482 H 516.548 4.88988 -1.70619 0
M  V30 5483 H 513.225 4.10658 0.752727 0
M  V30 5484 H 514.615 6.13308 -2.74413 0
M  V30 5485 N 517.335 0.585699 1.46312 0
M  V30 5486 C 518.268 -0.194257 2.27372 0
M  V30 5487 C 519.246 -0.894116 1.3581 0
M  V30 5488 O 520.43 -0.907402 1.65222 0
M  V30 5489 C 517.557 -1.27901 3.13622 0
M  V30 5490 C 516.603 -0.684666 4.20969 0
M  V30 5491 S 517.436 0.490745 5.33247 0
M  V30 5492 C 518.592 -0.595137 6.23064 0
M  V30 5493 H 518.825 0.493515 2.93175 0
M  V30 5494 H 516.358 0.372666 1.49835 0
M  V30 5495 H 518.316 -1.90008 3.63878 0
M  V30 5496 H 516.977 -1.93875 2.47126 0
M  V30 5497 H 516.17 -1.50015 4.81156 0
M  V30 5498 H 515.772 -0.139204 3.73741 0
M  V30 5499 H 518.064 -1.48002 6.61137 0
M  V30 5500 H 519.007 -0.0299446 7.08094 0
M  V30 5501 H 519.415 -0.900627 5.57269 0
M  V30 5502 N 518.813 -1.54241 0.323641 0
M  V30 5503 C 520.229 -1.59574 -0.0290018 0
M  V30 5504 C 520.429 -1.34017 -1.50472 0
M  V30 5505 O 519.485 -1.12464 -2.26071 0
M  V30 5506 C 520.798 -2.98169 0.389295 0
M  V30 5507 C 522.346 -3.11148 0.339958 0
M  V30 5508 C 522.821 -4.5209 0.733418 0
M  V30 5509 N 524.312 -4.5808 0.686827 0
M  V30 5510 C 525.047 -5.65248 0.963464 0
M  V30 5511 N 524.543 -6.80355 1.30724 0
M  V30 5512 N 526.336 -5.55025 0.88902 0
M  V30 5513 H 518.487 -1.6911 1.28512 0
M  V30 5514 H 520.75 -0.790972 0.522558 0
M  V30 5515 H 520.456 -3.21871 1.41746 0
M  V30 5516 H 520.33 -3.76399 -0.245657 0
M  V30 5517 H 522.717 -2.87182 -0.679002 0
M  V30 5518 H 522.798 -2.35023 1.00985 0
M  V30 5519 H 522.442 -4.76788 1.75029 0
M  V30 5520 H 522.372 -5.26584 0.0412189 0
M  V30 5521 H 524.863 -3.75411 0.43298 0
M  V30 5522 H 525.176 -7.58029 1.5037 0
M  V30 5523 H 523.521 -6.81851 1.3455 0
M  V30 5524 H 526.712 -4.63977 0.619939 0
M  V30 5525 H 526.885 -6.38458 1.10797 0
M  V30 5526 N 520.291 -0.0518155 -1.57515 0
M  V30 5527 C 521.221 0.920283 -2.146 0
M  V30 5528 C 522.202 1.32406 -1.06783 0
M  V30 5529 O 523.387 1.39866 -1.34726 0
M  V30 5530 C 520.517 2.1949 -2.6915 0
M  V30 5531 C 519.471 1.93116 -3.81956 0
M  V30 5532 C 518.797 3.27037 -4.23026 0
M  V30 5533 C 520.097 1.25225 -5.07066 0
M  V30 5534 H 521.791 0.444801 -2.96077 0
M  V30 5535 H 519.337 0.212508 -1.42423 0
M  V30 5536 H 521.29 2.87894 -3.07725 0
M  V30 5537 H 520.014 2.69244 -1.84865 0
M  V30 5538 H 518.673 1.27123 -3.43854 0
M  V30 5539 H 518.321 3.74595 -3.3569 0
M  V30 5540 H 518.021 3.10189 -4.99056 0
M  V30 5541 H 519.545 3.96673 -4.64202 0
M  V30 5542 H 520.959 1.83666 -5.43083 0
M  V30 5543 H 519.356 1.18702 -5.88243 0
M  V30 5544 H 520.426 0.228382 -4.84362 0
M  V30 5545 N 521.769 1.56035 0.221574 0
M  V30 5546 C 523.017 1.78693 0.944102 0
M  V30 5547 C 523.338 0.620317 1.8487 0
M  V30 5548 O 522.608 -0.362784 1.92512 0
M  V30 5549 H 521.188 0.659082 0.351597 0
M  V30 5550 H 523.85 1.93497 0.233435 0
M  V30 5551 H 522.946 2.70837 1.55093 0
M  V30 5552 N 523.247 -0.488276 1.49845 0
M  V30 5553 C 524.177 -1.59675 1.70371 0
M  V30 5554 C 525.158 -1.60878 0.552473 0
M  V30 5555 O 526.343 -1.77417 0.78973 0
M  V30 5556 C 523.473 -2.98098 1.782 0
M  V30 5557 C 522.427 -3.11761 2.93239 0
M  V30 5558 C 521.753 -4.51661 2.86193 0
M  V30 5559 C 523.053 -2.90589 4.33999 0
M  V30 5560 H 524.747 -1.42752 2.63177 0
M  V30 5561 H 522.293 -0.685317 1.26647 0
M  V30 5562 H 524.246 -3.75555 1.91144 0
M  V30 5563 H 522.97 -3.16138 0.820018 0
M  V30 5564 H 521.629 -2.36732 2.79917 0
M  V30 5565 H 521.277 -4.66595 1.87877 0
M  V30 5566 H 520.977 -4.61742 3.63412 0
M  V30 5567 H 522.501 -5.31162 3.01163 0
M  V30 5568 H 523.915 -3.57807 4.47936 0
M  V30 5569 H 522.312 -3.1213 5.12538 0
M  V30 5570 H 523.382 -1.86595 4.4756 0
M  V30 5571 N 524.725 -1.39134 -0.740242 0
M  V30 5572 C 526.141 -1.20623 -1.0451 0
M  V30 5573 C 526.341 -0.0641651 -2.01398 0
M  V30 5574 O 525.397 0.585843 -2.4561 0
M  V30 5575 C 526.71 -2.53815 -1.6124 0
M  V30 5576 C 528.258 -2.60615 -1.73346 0
M  V30 5577 C 528.733 -3.94015 -2.33486 0
M  V30 5578 N 530.224 -3.95627 -2.40902 0
M  V30 5579 C 530.959 -4.95616 -2.88361 0
M  V30 5580 N 530.455 -6.06003 -3.35756 0
M  V30 5581 N 532.248 -4.82998 -2.87523 0
M  V30 5582 H 524.399 -2.12176 -0.0975576 0
M  V30 5583 H 526.662 -0.942066 -0.105904 0
M  V30 5584 H 526.368 -3.37911 -0.975144 0
M  V30 5585 H 526.242 -2.73162 -2.6012 0
M  V30 5586 H 528.629 -1.76906 -2.36195 0
M  V30 5587 H 528.71 -2.45123 -0.731336 0
M  V30 5588 H 528.354 -4.78153 -1.71267 0
M  V30 5589 H 528.284 -4.06825 -3.34366 0
M  V30 5590 H 530.775 -3.15903 -2.07398 0
M  V30 5591 H 531.088 -6.78215 -3.70464 0
M  V30 5592 H 529.433 -6.09604 -3.33778 0
M  V30 5593 H 532.624 -3.95866 -2.49816 0
M  V30 5594 H 532.797 -5.61072 -3.24196 0
M  V30 5595 N 526.204 0.969867 -1.24223 0
M  V30 5596 C 527.152 2.08535 -1.03034 0
M  V30 5597 C 528.146 1.69366 0.0340379 0
M  V30 5598 O 529.352 1.79597 -0.12034 0
M  V30 5599 H 525.727 0.682313 -0.316154 0
M  V30 5600 H 527.698 2.23569 -1.97635 0
M  V30 5601 C 526.447 3.4158 -0.649509 0
M  V30 5602 H 525.77 3.72177 -1.46028 0
M  V30 5603 H 527.21 4.20536 -0.540841 0
M  V30 5604 C 525.669 3.30703 0.643194 0
M  V30 5605 O 526.199 3.64443 1.68951 0
M  V30 5606 N 524.405 2.83841 0.623095 0
M  V30 5607 H 523.952 2.56583 -0.228719 0
M  V30 5608 H 523.91 2.76946 1.48823 0
M  V30 5609 N 527.682 1.05563 1.17022 0
M  V30 5610 C 528.91 0.78845 1.91288 0
M  V30 5611 C 529.325 -0.656318 1.77025 0
M  V30 5612 O 528.682 -1.44869 1.10992 0
M  V30 5613 C 528.733 1.16444 3.42232 0
M  V30 5614 O 528.454 2.5525 3.5606 0
M  V30 5615 C 529.955 0.923937 4.33565 0
M  V30 5616 H 527.175 0.286389 0.606813 0
M  V30 5617 H 529.719 1.4073 1.48375 0
M  V30 5618 H 527.874 0.590266 3.82877 0
M  V30 5619 H 528.288 2.70097 4.49609 0
M  V30 5620 H 529.762 1.23672 5.37968 0
M  V30 5621 H 530.239 -0.140688 4.38975 0
M  V30 5622 H 530.845 1.48214 3.98639 0
M  V30 5623 N 529.16 -1.33526 0.837174 0
M  V30 5624 C 530.07 -2.33023 0.271568 0
M  V30 5625 C 531.086 -1.63272 -0.601514 0
M  V30 5626 O 532.262 -1.94939 -0.506038 0
M  V30 5627 C 529.327 -3.42382 -0.545448 0
M  V30 5628 C 528.388 -4.27857 0.351709 0
M  V30 5629 C 527.621 -5.31994 -0.426409 0
M  V30 5630 O 527.844 -5.45763 -1.65828 0
M  V30 5631 O 526.778 -6.01572 0.1987 0
M  V30 5632 H 530.604 -2.83256 1.09545 0
M  V30 5633 H 528.189 -1.36837 0.599655 0
M  V30 5634 H 530.071 -4.09122 -1.00979 0
M  V30 5635 H 528.746 -2.94369 -1.34641 0
M  V30 5636 H 527.653 -3.6399 0.863853 0
M  V30 5637 H 528.986 -4.79349 1.1174 0
M  V30 5638 N 530.638 -0.59345 -1.46 0
M  V30 5639 C 531.884 -0.0916503 -2.03193 0
M  V30 5640 C 532.239 1.25839 -1.45541 0
M  V30 5641 O 531.532 1.81455 -0.615191 0
M  V30 5642 C 531.726 0.021178 -3.57394 0
M  V30 5643 C 531.555 -1.31638 -4.30002 0
M  V30 5644 C 530.325 -1.89336 -4.68487 0
M  V30 5645 C 532.523 -2.242 -4.62859 0
M  V30 5646 N 530.505 -3.1672 -5.25891 0
M  V30 5647 C 531.876 -3.36175 -5.20948 0
M  V30 5648 C 533.931 -2.23748 -4.44794 0
M  V30 5649 C 532.634 -4.47844 -5.62875 0
M  V30 5650 C 534.66 -3.34454 -4.87744 0
M  V30 5651 C 534.022 -4.4515 -5.45913 0
M  V30 5652 H 530.121 -0.0765713 -0.778242 0
M  V30 5653 H 532.705 -0.788705 -1.7801 0
M  V30 5654 H 530.876 0.687423 -3.82268 0
M  V30 5655 H 532.608 0.528343 -4.01236 0
M  V30 5656 H 529.363 -1.42704 -4.51589 0
M  V30 5657 H 529.787 -3.81746 -5.59106 0
M  V30 5658 H 534.429 -1.39433 -3.99147 0
M  V30 5659 H 532.147 -5.32894 -6.07495 0
M  V30 5660 H 535.733 -3.35234 -4.75509 0
M  V30 5661 H 534.613 -5.29398 -5.78539 0
M  V30 5662 N 532.116 1.54067 -0.331816 0
M  V30 5663 C 533.527 1.86059 0.15454 0
M  V30 5664 C 533.878 1.25331 1.50952 0
M  V30 5665 O 533.003 0.562441 2.08963 0
M  V30 5666 C 533.598 3.37581 0.287192 0
M  V30 5667 C 532.157 3.69493 0.717773 0
M  V30 5668 C 531.304 2.76863 -0.155569 0
M  V30 5669 H 534.255 1.48797 -0.55182 0
M  V30 5670 H 534.276 3.63744 1.11671 0
M  V30 5671 H 533.788 3.81751 -0.699131 0
M  V30 5672 H 531.889 3.3086 1.71354 0
M  V30 5673 H 532.002 4.76315 0.5158 0
M  V30 5674 H 530.366 2.51995 0.370213 0
M  V30 5675 H 531.149 3.23861 -1.13881 0
M  V30 5676 N 533.594 0.0601682 1.57485 0
M  V30 5677 C 534.842 -0.610386 1.92662 0
M  V30 5678 C 535.163 -1.70849 0.939981 0
M  V30 5679 O 534.433 -1.95895 -0.0137455 0
M  V30 5680 H 533.013 -0.228457 0.711208 0
M  V30 5681 H 535.675 0.115288 1.94559 0
M  V30 5682 H 534.771 -1.0432 2.94149 0
M  V30 5683 N 535.072 -1.5615 -0.213296 0
M  V30 5684 C 536.488 -1.49327 -0.56336 0
M  V30 5685 C 536.688 -0.756826 -1.86747 0
M  V30 5686 O 535.744 -0.299866 -2.50713 0
M  V30 5687 C 537.057 -2.9392 -0.634944 0
M  V30 5688 C 538.605 -3.04487 -0.725013 0
M  V30 5689 C 539.08 -4.50456 -0.82787 0
M  V30 5690 N 540.571 -4.54533 -0.891876 0
M  V30 5691 C 541.306 -5.64766 -0.991315 0
M  V30 5692 N 540.802 -6.84733 -1.05419 0
M  V30 5693 N 542.595 -5.52637 -1.02709 0
M  V30 5694 H 534.746 -2.02453 0.642366 0
M  V30 5695 H 537.009 -0.920548 0.226487 0
M  V30 5696 H 536.715 -3.50783 0.253859 0
M  V30 5697 H 536.589 -3.46274 -1.49579 0
M  V30 5698 H 538.976 -2.47685 -1.60425 0
M  V30 5699 H 539.057 -2.55289 0.161669 0
M  V30 5700 H 538.701 -5.07878 0.0469464 0
M  V30 5701 H 538.631 -4.97369 -1.73009 0
M  V30 5702 H 541.122 -3.68141 -0.85327 0
M  V30 5703 H 541.435 -7.64493 -1.13007 0
M  V30 5704 H 539.78 -6.87427 -1.02318 0
M  V30 5705 H 542.971 -4.5784 -0.974687 0
M  V30 5706 H 543.144 -6.38576 -1.10113 0
M  V30 5707 N 536.55 0.480323 -1.50102 0
M  V30 5708 C 537.778 1.25657 -1.64371 0
M  V30 5709 C 538.193 1.86011 -0.323316 0
M  V30 5710 O 537.55 1.68803 0.693682 0
M  V30 5711 C 537.601 2.37197 -2.728 0
M  V30 5712 O 537.322 1.7932 -3.9972 0
M  V30 5713 C 538.823 3.2823 -2.9796 0
M  V30 5714 H 536.043 0.380369 -0.552775 0
M  V30 5715 H 538.587 0.574379 -1.96268 0
M  V30 5716 H 536.742 3.01208 -2.43623 0
M  V30 5717 H 537.156 2.52701 -4.59611 0
M  V30 5718 H 538.63 4.02725 -3.77513 0
M  V30 5719 H 539.107 3.86462 -2.08671 0
M  V30 5720 H 539.713 2.69964 -3.28633 0
M  V30 5721 N 538.028 1.39524 0.732853 0
M  V30 5722 C 538.96 1.34318 1.85718 0
M  V30 5723 C 539.973 0.251576 1.60844 0
M  V30 5724 O 541.162 0.510685 1.71039 0
M  V30 5725 C 538.262 1.06334 3.21786 0
M  V30 5726 C 537.435 2.26813 3.73998 0
M  V30 5727 C 536.494 1.95253 4.88634 0
M  V30 5728 O 535.52 2.67957 5.02183 0
M  V30 5729 N 536.722 0.919984 5.73164 0
M  V30 5730 H 539.487 2.3121 1.90688 0
M  V30 5731 H 537.048 1.33654 0.91368 0
M  V30 5732 H 539.04 0.832363 3.96048 0
M  V30 5733 H 537.61 0.181682 3.12072 0
M  V30 5734 H 536.83 2.65849 2.91064 0
M  V30 5735 H 538.118 3.0717 4.05616 0
M  V30 5736 H 537.516 0.317487 5.64808 0
M  V30 5737 H 536.073 0.748905 6.47483 0
M  V30 5738 N 539.506 -0.963266 1.24736 0
M  V30 5739 C 540.752 -1.70933 1.09131 0
M  V30 5740 C 541.085 -1.90676 -0.368273 0
M  V30 5741 O 540.36 -1.47147 -1.27193 0
M  V30 5742 C 540.643 -3.09744 1.83658 0
M  V30 5743 C 540.496 -2.97465 3.37394 0
M  V30 5744 C 541.815 -4.09483 1.61282 0
M  V30 5745 H 538.934 -0.620398 0.397838 0
M  V30 5746 H 541.576 -1.12028 1.53459 0
M  V30 5747 H 539.726 -3.60031 1.4598 0
M  V30 5748 H 541.398 -2.54571 3.84696 0
M  V30 5749 H 539.641 -2.33576 3.65547 0
M  V30 5750 H 540.312 -3.95822 3.84745 0
M  V30 5751 H 542.788 -3.68073 1.94066 0
M  V30 5752 H 541.664 -5.04666 2.15878 0
M  V30 5753 H 541.925 -4.38639 0.552102 0
M  V30 5754 N 540.985 -1.06182 -1.16461 0
M  V30 5755 C 541.915 -0.692861 -2.22984 0
M  V30 5756 C 542.896 0.314122 -1.67174 0
M  V30 5757 O 544.081 0.189499 -1.93273 0
M  V30 5758 C 541.211 -0.07732 -3.47214 0
M  V30 5759 C 540.165 -1.01015 -4.15909 0
M  V30 5760 C 539.491 -0.257973 -5.34077 0
M  V30 5761 C 540.791 -2.33868 -4.67015 0
M  V30 5762 H 542.485 -1.58343 -2.54102 0
M  V30 5763 H 540.031 -0.76279 -1.22137 0
M  V30 5764 H 541.984 0.19266 -4.20959 0
M  V30 5765 H 540.708 0.848254 -3.15392 0
M  V30 5766 H 539.367 -1.26486 -3.44088 0
M  V30 5767 H 539.015 0.670684 -4.98509 0
M  V30 5768 H 538.715 -0.879638 -5.80979 0
M  V30 5769 H 540.239 0.00448788 -6.106 0
M  V30 5770 H 541.653 -2.1279 -5.32347 0
M  V30 5771 H 540.05 -2.91522 -5.24533 0
M  V30 5772 H 541.12 -2.97019 -3.83286 0
M  V30 5773 N 542.463 1.3308 -0.844243 0
M  V30 5774 C 543.879 1.50447 -0.532729 0
M  V30 5775 C 544.079 1.78292 0.938837 0
M  V30 5776 O 543.135 1.84635 1.72239 0
M  V30 5777 C 544.448 2.65555 -1.41072 0
M  V30 5778 C 545.996 2.7944 -1.41005 0
M  V30 5779 C 546.471 3.97616 -2.27301 0
M  V30 5780 N 547.962 4.0486 -2.2504 0
M  V30 5781 C 548.697 4.95508 -2.88547 0
M  V30 5782 N 548.193 5.91236 -3.61126 0
M  V30 5783 N 549.986 4.88548 -2.77989 0
M  V30 5784 H 542.137 1.13269 -1.79677 0
M  V30 5785 H 544.4 0.55734 -0.766861 0
M  V30 5786 H 544.106 2.51675 -2.45668 0
M  V30 5787 H 543.98 3.61089 -1.09061 0
M  V30 5788 H 546.367 2.92749 -0.371784 0
M  V30 5789 H 546.448 1.8465 -1.77026 0
M  V30 5790 H 546.092 3.85066 -3.3119 0
M  V30 5791 H 546.022 4.91661 -1.88619 0
M  V30 5792 H 548.513 3.36353 -1.72264 0
M  V30 5793 H 548.826 6.57079 -4.06776 0
M  V30 5794 H 547.171 5.91295 -3.65234 0
M  V30 5795 H 550.362 4.12729 -2.20846 0
M  V30 5796 H 550.535 5.58994 -3.27765 0
M  V30 5797 N 543.941 0.601185 1.45683 0
M  V30 5798 C 545.357 0.264315 1.57396 0
M  V30 5799 C 545.557 -1.23324 1.59353 0
M  V30 5800 O 544.613 -2.01594 1.52039 0
M  V30 5801 C 545.926 0.929839 2.85962 0
M  V30 5802 C 547.474 0.905156 2.99626 0
M  V30 5803 C 547.949 1.55057 4.30954 0
M  V30 5804 N 549.44 1.51576 4.37697 0
M  V30 5805 C 550.175 1.98436 5.37969 0
M  V30 5806 N 549.671 2.53352 6.44813 0
M  V30 5807 N 551.464 1.89242 5.29286 0
M  V30 5808 H 543.615 1.57363 1.42656 0
M  V30 5809 H 545.878 0.658831 0.681649 0
M  V30 5810 H 545.584 1.98404 2.90394 0
M  V30 5811 H 545.458 0.449224 3.74515 0
M  V30 5812 H 547.845 -0.14048 2.94765 0
M  V30 5813 H 547.926 1.42397 2.12501 0
M  V30 5814 H 547.57 2.5955 4.36573 0
M  V30 5815 H 547.5 1.00682 5.16886 0
M  V30 5816 H 549.991 1.11452 3.61091 0
M  V30 5817 H 550.304 2.86918 7.17564 0
M  V30 5818 H 548.649 2.57388 6.45582 0
M  V30 5819 H 551.84 1.46083 4.44722 0
M  V30 5820 H 552.013 2.26075 6.07284 0
M  V30 5821 N 545.419 -1.53889 0.339982 0
M  V30 5822 C 546.667 -2.00458 -0.257112 0
M  V30 5823 C 546.988 -1.22953 -1.51353 0
M  V30 5824 O 546.258 -0.335734 -1.93002 0
M  V30 5825 H 544.838 -0.740544 -0.0979965 0
M  V30 5826 H 547.5 -1.89386 0.460317 0
M  V30 5827 H 546.596 -3.08035 -0.502057 0
M  V30 5828 N 546.897 -0.0685191 -1.57451 0
M  V30 5829 C 548.308 0.464634 -1.80826 0
M  V30 5830 C 548.659 1.69847 -0.982169 0
M  V30 5831 O 547.784 2.15439 -0.203734 0
M  V30 5832 C 548.379 0.849721 -3.27971 0
M  V30 5833 C 546.938 1.32776 -3.52204 0
M  V30 5834 C 546.085 0.311332 -2.75547 0
M  V30 5835 H 549.036 -0.294248 -1.55948 0
M  V30 5836 H 549.057 1.71138 -3.39841 0
M  V30 5837 H 548.569 -0.0484736 -3.8807 0
M  V30 5838 H 546.67 2.24456 -2.97406 0
M  V30 5839 H 546.783 1.30794 -4.60901 0
M  V30 5840 H 545.147 0.787915 -2.42206 0
M  V30 5841 H 545.93 -0.579078 -3.38381 0
M  V30 5842 N 548.375 1.56261 0.205012 0
M  V30 5843 C 549.305 1.96779 1.257 0
M  V30 5844 C 550.286 0.838309 1.48008 0
M  V30 5845 O 551.471 1.10189 1.59913 0
M  V30 5846 C 548.601 2.29876 2.60335 0
M  V30 5847 C 547.555 3.45469 2.52656 0
M  V30 5848 C 546.881 3.64215 3.91473 0
M  V30 5849 C 548.181 4.79954 2.06014 0
M  V30 5850 H 549.875 2.84904 0.920338 0
M  V30 5851 H 547.421 1.37072 0.441277 0
M  V30 5852 H 549.374 2.56814 3.34102 0
M  V30 5853 H 548.098 1.38622 2.95722 0
M  V30 5854 H 546.757 3.18605 1.81345 0
M  V30 5855 H 546.405 2.70309 4.24196 0
M  V30 5856 H 546.105 4.41973 3.87213 0
M  V30 5857 H 547.629 3.93519 4.66878 0
M  V30 5858 H 549.043 5.05989 2.69533 0
M  V30 5859 H 547.44 5.61111 2.12777 0
M  V30 5860 H 548.51 4.74201 1.01297 0
M  V30 5861 N 549.853 -0.472356 1.50355 0
M  V30 5862 C 551.081 -1.24784 1.65035 0
M  V30 5863 C 551.496 -1.85837 0.333176 0
M  V30 5864 O 550.853 -1.69168 -0.68472 0
M  V30 5865 C 550.904 -2.35747 2.74054 0
M  V30 5866 O 550.625 -1.77197 4.00665 0
M  V30 5867 C 552.126 -3.26645 2.99696 0
M  V30 5868 H 549.346 -0.377432 0.554785 0
M  V30 5869 H 551.89 -0.563962 1.9657 0
M  V30 5870 H 550.045 -2.99912 2.45217 0
M  V30 5871 H 550.459 -2.5026 4.60945 0
M  V30 5872 H 551.933 -4.00718 3.79644 0
M  V30 5873 H 552.41 -3.8535 2.10718 0
M  V30 5874 H 553.016 -2.68218 3.3006 0
M  V30 5875 N 551.331 -1.39911 -0.725443 0
M  V30 5876 C 552.577 -1.38862 -1.48624 0
M  V30 5877 C 552.932 0.0125913 -1.92396 0
M  V30 5878 O 552.225 0.981046 -1.64578 0
M  V30 5879 C 552.419 -2.30368 -2.7325 0
M  V30 5880 C 552.248 -3.79247 -2.41665 0
M  V30 5881 C 551.018 -4.48119 -2.3349 0
M  V30 5882 C 553.216 -4.70988 -2.06579 0
M  V30 5883 N 551.198 -5.82282 -1.94476 0
M  V30 5884 C 552.569 -5.93873 -1.78087 0
M  V30 5885 C 554.624 -4.58917 -1.9313 0
M  V30 5886 C 553.327 -7.06036 -1.37499 0
M  V30 5887 C 555.353 -5.71012 -1.53946 0
M  V30 5888 C 554.715 -6.92976 -1.26345 0
M  V30 5889 H 550.814 -0.563394 -0.54232 0
M  V30 5890 H 553.398 -1.75542 -0.842213 0
M  V30 5891 H 551.569 -1.95831 -3.35417 0
M  V30 5892 H 553.301 -2.20245 -3.39521 0
M  V30 5893 H 550.056 -4.01677 -2.50904 0
M  V30 5894 H 550.48 -6.53307 -1.77535 0
M  V30 5895 H 555.122 -3.65149 -2.13134 0
M  V30 5896 H 552.84 -7.99697 -1.16237 0
M  V30 5897 H 556.426 -5.63664 -1.44132 0
M  V30 5898 H 555.306 -7.78243 -0.964787 0
M  V30 5899 N 552.809 0.956637 -1.25245 0
M  V30 5900 C 554.039 1.7332 -1.12445 0
M  V30 5901 C 554.447 1.86392 0.324732 0
M  V30 5902 O 553.79 1.35967 1.23526 0
M  V30 5903 C 553.852 3.16603 -1.70303 0
M  V30 5904 C 553.516 3.26966 -3.19284 0
M  V30 5905 C 554.513 3.11434 -4.16299 0
M  V30 5906 C 552.198 3.50851 -3.59456 0
M  V30 5907 C 554.192 3.1963 -5.51467 0
M  V30 5908 C 551.879 3.58684 -4.94761 0
M  V30 5909 C 552.877 3.43087 -5.90576 0
M  V30 5910 O 552.565 3.50598 -7.2342 0
M  V30 5911 H 552.297 0.549981 -0.393061 0
M  V30 5912 H 554.851 1.20892 -1.66055 0
M  V30 5913 H 553.081 3.70385 -1.11138 0
M  V30 5914 H 554.77 3.76109 -1.52632 0
M  V30 5915 H 555.536 2.92853 -3.86604 0
M  V30 5916 H 551.415 3.62053 -2.85375 0
M  V30 5917 H 554.959 3.07373 -6.26233 0
M  V30 5918 H 550.856 3.76782 -5.24124 0
M  V30 5919 H 551.624 3.67242 -7.31489 0
M  V30 5920 N 554.287 1.06798 1.15896 0
M  V30 5921 C 555.217 0.704677 2.22613 0
M  V30 5922 C 556.198 -0.305252 1.67339 0
M  V30 5923 O 557.383 -0.179247 1.93371 0
M  V30 5924 C 554.513 0.0957325 3.47168 0
M  V30 5925 C 553.467 1.0322 4.15367 0
M  V30 5926 C 552.793 0.286293 5.33933 0
M  V30 5927 C 554.093 2.36341 4.65768 0
M  V30 5928 H 555.787 1.59688 2.53259 0
M  V30 5929 H 553.333 0.769257 1.21731 0
M  V30 5930 H 555.286 -0.170333 4.21056 0
M  V30 5931 H 554.01 -0.831516 3.15838 0
M  V30 5932 H 552.669 1.28309 3.43413 0
M  V30 5933 H 552.317 -0.644237 4.98857 0
M  V30 5934 H 552.017 0.910436 5.80504 0
M  V30 5935 H 553.541 0.0278938 6.10594 0
M  V30 5936 H 554.955 2.1561 5.31211 0
M  V30 5937 H 553.352 2.94299 5.2298 0
M  V30 5938 H 554.422 2.99047 3.81705 0
M  V30 5939 N 555.766 -1.3263 0.851289 0
M  V30 5940 C 557.043 -1.91982 0.374448 0
M  V30 5941 C 557.423 -1.77568 -1.14161 0
M  V30 5942 O 556.771 -1.1717 -1.96172 0
M  V30 5943 C 556.981 -3.38862 0.835088 0
M  V30 5944 C 558.329 -4.15999 0.850309 0
M  V30 5945 O 559.353 -3.47566 0.779505 0
M  V30 5946 O 558.212 -5.38189 0.949481 0
M  V30 5947 H 555.306 -0.819846 0.10854 0
M  V30 5948 H 557.852 -1.41422 0.937966 0
M  V30 5949 H 556.624 -3.43281 1.87814 0
M  V30 5950 H 556.247 -3.96821 0.248833 0
M  V30 5951 N 557.244 -0.608902 -1.45362 0
M  V30 5952 C 558.492 -0.104401 -2.0183 0
M  V30 5953 C 558.813 1.27007 -1.47967 0
M  V30 5954 O 558.083 1.83924 -0.674455 0
M  V30 5955 H 556.663 -0.0356042 -0.746151 0
M  V30 5956 H 559.325 -0.790596 -1.78145 0
M  V30 5957 H 558.421 -0.0551793 -3.12051 0
M  V30 5958 N 558.722 1.53707 -0.348139 0
M  V30 5959 C 559.685 2.23812 0.494058 0
M  V30 5960 C 560.685 1.23989 1.02388 0
M  V30 5961 O 561.875 1.48395 0.912396 0
M  V30 5962 C 559.007 2.96133 1.68872 0
M  V30 5963 H 560.2 2.99663 -0.119141 0
M  V30 5964 H 557.753 1.55983 -0.0995539 0
M  V30 5965 H 558.488 2.24481 2.34049 0
M  V30 5966 H 558.273 3.69357 1.31596 0
M  V30 5967 H 559.763 3.49475 2.28597 0
M  V30 5968 N 560.2 0.0768682 1.57412 0
M  V30 5969 C 561.15 -0.898795 2.09537 0
M  V30 5970 C 562.134 -1.25556 1.0062 0
M  V30 5971 O 563.326 -1.23369 1.26921 0
M  V30 5972 C 560.455 -2.16453 2.66464 0
M  V30 5973 C 559.541 -1.83401 3.82393 0
M  V30 5974 N 559.932 -1.20823 4.91157 0
M  V30 5975 C 558.23 -2.13121 3.91785 0
M  V30 5976 C 558.931 -1.05976 5.71965 0
M  V30 5977 N 557.907 -1.57113 5.204 0
M  V30 5978 H 561.709 -0.410718 2.91016 0
M  V30 5979 H 559.223 -0.126878 1.61904 0
M  V30 5980 H 561.22 -2.87274 3.02125 0
M  V30 5981 H 559.88 -2.65844 1.86433 0
M  V30 5982 H 560.891 -0.877249 5.10416 0
M  V30 5983 H 557.568 -2.64854 3.22736 0
M  V30 5984 H 558.958 -0.571809 6.69462 0
M  V30 5985 N 561.678 -1.56367 -0.196722 0
M  V30 5986 C 562.906 -1.84639 -0.933608 0
M  V30 5987 C 563.321 -0.659164 -1.76919 0
M  V30 5988 O 562.678 0.372142 -1.78665 0
M  V30 5989 C 562.729 -3.11694 -1.83109 0
M  V30 5990 O 562.45 -4.25838 -1.02924 0
M  V30 5991 C 563.951 -3.53132 -2.67979 0
M  V30 5992 H 561.171 -0.613188 -0.272473 0
M  V30 5993 H 563.715 -2.03475 -0.204465 0
M  V30 5994 H 561.87 -2.94759 -2.51387 0
M  V30 5995 H 562.284 -4.98178 -1.64069 0
M  V30 5996 H 563.758 -4.45005 -3.26611 0
M  V30 5997 H 564.235 -2.76045 -3.41608 0
M  V30 5998 H 564.841 -3.72592 -2.05074 0
M  V30 5999 N 563.156 0.464375 -1.50603 0
M  V30 6000 C 564.119 1.54393 -1.69397 0
M  V30 6001 C 565.119 1.50566 -0.564504 0
M  V30 6002 O 566.309 1.53066 -0.831645 0
M  V30 6003 C 563.441 2.9401 -1.72543 0
M  V30 6004 H 564.634 1.39044 -2.65719 0
M  V30 6005 H 562.187 0.69122 -1.40185 0
M  V30 6006 H 562.922 3.14795 -0.77938 0
M  V30 6007 H 562.707 2.98195 -2.54602 0
M  V30 6008 H 564.197 3.72375 -1.89015 0
M  V30 6009 N 564.634 1.40294 0.718013 0
M  V30 6010 C 565.859 1.41941 1.5122 0
M  V30 6011 C 566.284 0.0202371 1.88089 0
M  V30 6012 O 565.642 -0.971078 1.53101 0
M  V30 6013 C 565.69 2.3141 2.76554 0
M  V30 6014 O 564.794 1.75567 3.73162 0
M  V30 6015 H 564.135 0.482644 0.456016 0
M  V30 6016 H 566.665 1.84494 0.884478 0
M  V30 6017 H 566.675 2.46513 3.25108 0
M  V30 6018 H 565.35 3.33085 2.49053 0
M  V30 6019 H 563.927 1.69798 3.31999 0
M  V30 6020 N 566.112 -0.949982 1.2575 0
M  V30 6021 C 567.337 -1.73503 1.13628 0
M  V30 6022 C 567.762 -1.85601 -0.30559 0
M  V30 6023 O 567.12 -1.33984 -1.22139 0
M  V30 6024 C 567.168 -3.1243 1.80055 0
M  V30 6025 O 566.272 -3.97916 1.08336 0
M  V30 6026 H 565.613 -0.532665 0.396439 0
M  V30 6027 H 568.143 -1.19043 1.66403 0
M  V30 6028 H 568.153 -3.62866 1.86527 0
M  V30 6029 H 566.828 -3.02941 2.84956 0
M  V30 6030 H 565.405 -3.56375 1.09777 0
M  V30 6031 N 567.59 -1.07411 -1.15328 0
M  V30 6032 C 568.553 -0.698914 -2.18284 0
M  V30 6033 C 569.553 0.261149 -1.58665 0
M  V30 6034 O 570.743 0.0420277 -1.74149 0
M  V30 6035 C 567.875 -0.0302427 -3.40887 0
M  V30 6036 H 569.068 -1.61045 -2.52991 0
M  V30 6037 H 566.621 -0.870724 -1.298 0
M  V30 6038 H 567.356 0.893505 -3.11748 0
M  V30 6039 H 567.141 -0.720759 -3.85419 0
M  V30 6040 H 568.631 0.21759 -4.17033 0
M  V30 6041 N 569.068 1.32177 -0.85831 0
M  V30 6042 C 570 2.27688 -0.262835 0
M  V30 6043 C 571.013 1.52588 0.567513 0
M  V30 6044 O 572.202 1.74156 0.391407 0
M  V30 6045 C 569.302 3.32668 0.646937 0
M  V30 6046 C 568.475 4.37148 -0.148372 0
M  V30 6047 C 567.534 5.21686 0.687728 0
M  V30 6048 O 566.56 5.69074 0.119934 0
M  V30 6049 N 567.762 5.44892 2.00182 0
M  V30 6050 H 570.527 2.79426 -1.08356 0
M  V30 6051 H 568.088 1.45076 -0.718647 0
M  V30 6052 H 570.08 3.86134 1.2117 0
M  V30 6053 H 568.65 2.81061 1.36834 0
M  V30 6054 H 567.87 3.83915 -0.894572 0
M  V30 6055 H 569.158 5.04038 -0.694514 0
M  V30 6056 H 568.556 5.08128 2.4864 0
M  V30 6057 H 567.113 6.0134 2.51463 0
M  V30 6058 N 570.547 0.616602 1.45037 0
M  V30 6059 C 571.51 -0.0871112 2.29034 0
M  V30 6060 C 572.51 -0.786414 1.40258 0
M  V30 6061 O 573.7 -0.633207 1.62284 0
M  V30 6062 C 570.832 -1.13369 3.21497 0
M  V30 6063 H 572.025 0.651497 2.92738 0
M  V30 6064 H 569.578 0.376058 1.51709 0
M  V30 6065 H 570.313 -1.90277 2.62612 0
M  V30 6066 H 570.098 -0.636358 3.86902 0
M  V30 6067 H 571.588 -1.62627 3.84633 0
M  V30 6068 N 572.025 -1.5352 0.356285 0
M  V30 6069 C 573.265 -2.03027 -0.23649 0
M  V30 6070 C 573.629 -1.23813 -1.46746 0
M  V30 6071 O 574.83 -1.63281 -2.13525 0
M  V30 6072 C 573.101 -3.53442 -0.530415 0
M  V30 6073 S 574.66 -4.24836 -1.09819 0
M  V30 6074 H 571.478 -0.707591 -0.0695378 0
M  V30 6075 H 574.08 -1.89077 0.496999 0
M  V30 6076 H 572.784 -4.087 0.373114 0
M  V30 6077 H 572.315 -3.71536 -1.29323 0
M  V30 6078 H 574.33 -4.35228 -2.38309 0
M  V30 6079 N 573.503 -0.0852151 -1.57369 0
M  V30 6080 C 574.749 0.581666 -1.94279 0
M  V30 6081 C 575.082 1.68444 -0.966446 0
M  V30 6082 O 574.357 1.945 0.00215277 0
M  V30 6083 C 574.64 1.14609 -3.41375 0
M  V30 6084 C 574.493 0.0490414 -4.49773 0
M  V30 6085 C 575.812 2.04751 -3.8957 0
M  V30 6086 H 572.931 0.209972 -0.706456 0
M  V30 6087 H 575.573 -0.153915 -1.89376 0
M  V30 6088 H 573.723 1.77297 -3.45685 0
M  V30 6089 H 575.395 -0.584721 -4.57579 0
M  V30 6090 H 573.638 -0.618638 -4.29366 0
M  V30 6091 H 574.309 0.484601 -5.49869 0
M  V30 6092 H 576.785 1.51981 -3.87351 0
M  V30 6093 H 575.661 2.41173 -4.93079 0
M  V30 6094 H 575.922 2.96107 -3.28288 0
M  V30 6095 N 574.981 1.5647 0.188427 0
M  V30 6096 C 576.397 1.50204 0.539532 0
M  V30 6097 C 576.597 0.78644 1.85519 0
M  V30 6098 O 575.653 0.339714 2.50204 0
M  V30 6099 C 576.966 2.94893 0.588103 0
M  V30 6100 C 578.514 3.05602 0.67648 0
M  V30 6101 C 578.989 4.51716 0.756101 0
M  V30 6102 N 580.48 4.55894 0.819451 0
M  V30 6103 C 581.215 5.66272 0.90134 0
M  V30 6104 N 580.711 6.86323 0.945118 0
M  V30 6105 N 582.504 5.54201 0.939043 0
M  V30 6106 H 574.655 2.01406 -0.674493 0
M  V30 6107 H 576.918 0.916828 -0.241103 0
M  V30 6108 H 576.624 3.50334 -0.309633 0
M  V30 6109 H 576.498 3.4861 1.44051 0
M  V30 6110 H 578.885 2.50206 1.56465 0
M  V30 6111 H 578.966 2.54999 -0.202262 0
M  V30 6112 H 578.61 5.07739 -0.12774 0
M  V30 6113 H 578.54 5.00058 1.65074 0
M  V30 6114 H 581.031 3.69452 0.794594 0
M  V30 6115 H 581.344 7.66194 1.0083 0
M  V30 6116 H 579.689 6.88968 0.913683 0
M  V30 6117 H 582.88 4.59333 0.901725 0
M  V30 6118 H 583.053 6.40247 0.999402 0
M  V30 6119 N 576.459 -0.456382 1.50847 0
M  V30 6120 C 577.705 -1.20618 1.63777 0
M  V30 6121 C 578.06 -1.8936 0.340677 0
M  V30 6122 O 577.353 -1.79786 -0.662378 0
M  V30 6123 C 577.547 -2.26336 2.76599 0
M  V30 6124 C 577.376 -1.67968 4.17153 0
M  V30 6125 C 576.146 -1.47293 4.83356 0
M  V30 6126 C 578.344 -1.16643 5.00898 0
M  V30 6127 N 576.326 -0.843222 6.08081 0
M  V30 6128 C 577.697 -0.660843 6.16468 0
M  V30 6129 C 579.752 -1.05637 4.86565 0
M  V30 6130 C 578.455 -0.0560365 7.19278 0
M  V30 6131 C 580.481 -0.465485 5.89565 0
M  V30 6132 C 579.843 0.0296516 7.04394 0
M  V30 6133 H 575.942 -0.429725 0.653345 0
M  V30 6134 H 578.526 -0.505784 1.88016 0
M  V30 6135 H 576.697 -2.93785 2.54056 0
M  V30 6136 H 578.429 -2.9334 2.78808 0
M  V30 6137 H 575.184 -1.72934 4.40898 0
M  V30 6138 H 575.608 -0.546357 6.74792 0
M  V30 6139 H 580.25 -1.42508 3.98059 0
M  V30 6140 H 577.968 0.324845 8.07447 0
M  V30 6141 H 581.554 -0.382493 5.80541 0
M  V30 6142 H 580.434 0.479705 7.82731 0
M  V30 6143 N 577.937 -1.40673 -0.710563 0
M  V30 6144 C 579.184 -1.39222 -1.47049 0
M  V30 6145 C 579.512 0.0037691 -1.945 0
M  V30 6146 O 578.767 0.989224 -1.68857 0
M  V30 6147 C 579.066 -2.33253 -2.70791 0
M  V30 6148 C 578.732 -3.80406 -2.42079 0
M  V30 6149 C 577.394 -4.20496 -2.33959 0
M  V30 6150 C 579.746 -4.73375 -2.18094 0
M  V30 6151 C 577.074 -5.51584 -1.99929 0
M  V30 6152 C 579.426 -6.04768 -1.85576 0
M  V30 6153 C 578.09 -6.43895 -1.75941 0
M  V30 6154 H 577.36 -0.509449 -0.538092 0
M  V30 6155 H 580.007 -1.73363 -0.81348 0
M  V30 6156 H 578.312 -1.92314 -3.41354 0
M  V30 6157 H 580.009 -2.29412 -3.28894 0
M  V30 6158 H 576.599 -3.48645 -2.49288 0
M  V30 6159 H 580.783 -4.43217 -2.23321 0
M  V30 6160 H 576.039 -5.80797 -1.91011 0
M  V30 6161 H 580.213 -6.76318 -1.66033 0
M  V30 6162 H 577.84 -7.45387 -1.4934 0
M  V30 6163 N 579.415 0.9433 -1.26252 0
M  V30 6164 C 580.831 1.21644 -1.03319 0
M  V30 6165 C 581.031 2.0003 0.242983 0
M  V30 6166 O 580.087 2.33838 0.952688 0
M  V30 6167 C 581.4 1.97978 -2.2633 0
M  V30 6168 C 582.948 2.10978 -2.31209 0
M  V30 6169 C 583.423 2.90713 -3.53907 0
M  V30 6170 N 584.914 2.98287 -3.54371 0
M  V30 6171 C 585.649 3.60406 -4.45976 0
M  V30 6172 N 585.145 4.24043 -5.47868 0
M  V30 6173 N 586.938 3.57658 -4.33633 0
M  V30 6174 H 579.089 0.419221 -2.08222 0
M  V30 6175 H 581.352 0.247995 -0.914988 0
M  V30 6176 H 581.058 1.47788 -3.19142 0
M  V30 6177 H 580.932 2.9865 -2.30408 0
M  V30 6178 H 583.319 2.6036 -1.38913 0
M  V30 6179 H 583.4 1.09575 -2.31143 0
M  V30 6180 H 583.044 2.42018 -4.46531 0
M  V30 6181 H 582.974 3.92367 -3.5122 0
M  V30 6182 H 585.465 2.53044 -2.80673 0
M  V30 6183 H 585.778 4.69334 -6.13959 0
M  V30 6184 H 584.123 4.22637 -5.51728 0
M  V30 6185 H 587.314 3.07134 -3.53251 0
M  V30 6186 H 587.487 4.05782 -5.05218 0
M  V30 6187 N 580.893 1.08022 1.14757 0
M  V30 6188 C 581.825 0.664566 2.19354 0
M  V30 6189 C 582.838 -0.286374 1.60261 0
M  V30 6190 O 584.027 -0.0746362 1.78344 0
M  V30 6191 C 581.127 -0.0434634 3.38872 0
M  V30 6192 C 580.3 0.925381 4.27499 0
M  V30 6193 C 579.359 0.253398 5.2559 0
M  V30 6194 O 578.385 0.896581 5.62094 0
M  V30 6195 N 579.587 -0.998263 5.71852 0
M  V30 6196 H 582.352 1.56438 2.55631 0
M  V30 6197 H 579.913 0.965788 1.29939 0
M  V30 6198 H 581.905 -0.503857 4.01551 0
M  V30 6199 H 580.475 -0.845321 3.00954 0
M  V30 6200 H 579.695 1.56472 3.61815 0
M  V30 6201 H 580.983 1.58203 4.8358 0
M  V30 6202 H 580.381 -1.54063 5.44317 0
M  V30 6203 H 578.938 -1.40222 6.36538 0
M  V30 6204 N 582.371 -1.3172 0.865308 0
M  V30 6205 C 583.334 -2.26918 0.322627 0
M  V30 6206 C 584.334 -1.52031 -0.523751 0
M  V30 6207 O 585.524 -1.70973 -0.333727 0
M  V30 6208 C 582.656 -3.36558 -0.542338 0
M  V30 6209 H 583.849 -2.76432 1.16298 0
M  V30 6210 H 581.402 -1.42573 0.640512 0
M  V30 6211 H 582.137 -2.92329 -1.40407 0
M  V30 6212 H 581.922 -3.92048 0.0636395 0
M  V30 6213 H 583.412 -4.07465 -0.91446 0
M  V30 6214 N 583.85 -0.624285 -1.44708 0
M  V30 6215 C 584.779 0.0717025 -2.3339 0
M  V30 6216 C 585.76 0.841814 -1.47809 0
M  V30 6217 O 586.946 0.809056 -1.76544 0
M  V30 6218 C 584.076 1.05852 -3.30776 0
M  V30 6219 C 583.029 0.400503 -4.26122 0
M  V30 6220 C 582.356 1.49674 -5.13324 0
M  V30 6221 C 583.656 -0.688924 -5.17737 0
M  V30 6222 H 585.35 -0.668819 -2.91834 0
M  V30 6223 H 582.896 -0.32308 -1.40329 0
M  V30 6224 H 584.849 1.5541 -3.91696 0
M  V30 6225 H 583.572 1.82984 -2.70526 0
M  V30 6226 H 582.231 -0.0743687 -3.66525 0
M  V30 6227 H 581.88 2.25877 -4.49431 0
M  V30 6228 H 581.58 1.06188 -5.77926 0
M  V30 6229 H 583.104 1.99427 -5.77115 0
M  V30 6230 H 584.518 -0.276724 -5.72632 0
M  V30 6231 H 582.915 -1.04652 -5.90904 0
M  V30 6232 H 583.985 -1.55884 -4.5916 0
M  V30 6233 N 585.328 1.53329 -0.364422 0
M  V30 6234 C 586.26 2.23286 0.517293 0
M  V30 6235 C 587.273 1.24657 1.04711 0
M  V30 6236 O 588.462 1.50887 0.95369 0
M  V30 6237 C 585.562 2.91604 1.72685 0
M  V30 6238 C 584.735 4.1673 1.32873 0
M  V30 6239 C 583.794 4.68269 2.40022 0
M  V30 6240 O 582.82 5.31976 2.02461 0
M  V30 6241 N 584.022 4.45983 3.7159 0
M  V30 6242 H 586.787 2.99588 -0.0819391 0
M  V30 6243 H 584.348 1.60787 -0.189544 0
M  V30 6244 H 586.34 3.22992 2.4384 0
M  V30 6245 H 584.91 2.18763 2.23297 0
M  V30 6246 H 584.13 3.91657 0.447069 0
M  V30 6247 H 585.418 4.98078 1.03902 0
M  V30 6248 H 584.816 3.95077 4.04883 0
M  V30 6249 H 583.373 4.81924 4.38854 0
M  V30 6250 N 586.806 0.0935595 1.57322 0
M  V30 6251 C 588.054 -0.569383 1.93913 0
M  V30 6252 C 588.375 -1.68817 0.976009 0
M  V30 6253 O 587.645 -1.9588 0.0278099 0
M  V30 6254 H 586.225 -0.21332 0.715894 0
M  V30 6255 H 588.887 0.156531 1.9427 0
M  V30 6256 H 587.983 -0.980577 2.96296 0
M  V30 6257 N 588.284 -1.56567 -0.180126 0
M  V30 6258 C 589.7 -1.50488 -0.531559 0
M  V30 6259 C 589.9 -0.796267 -1.851 0
M  V30 6260 O 588.956 -0.352978 -2.50021 0
M  V30 6261 C 590.269 -2.95201 -0.572456 0
M  V30 6262 C 591.817 -3.05957 -0.660264 0
M  V30 6263 C 592.292 -4.5211 -0.732135 0
M  V30 6264 N 593.783 -4.56322 -0.795262 0
M  V30 6265 C 594.518 -5.66742 -0.871296 0
M  V30 6266 N 594.014 -6.86815 -0.908708 0
M  V30 6267 N 595.807 -5.54691 -0.909639 0
M  V30 6268 H 587.958 -2.01045 0.685165 0
M  V30 6269 H 590.221 -0.915536 0.245962 0
M  V30 6270 H 589.927 -3.50165 0.328208 0
M  V30 6271 H 589.801 -3.49369 -1.422 0
M  V30 6272 H 592.188 -2.51032 -1.55136 0
M  V30 6273 H 592.269 -2.54888 0.215783 0
M  V30 6274 H 591.913 -5.07664 0.154664 0
M  V30 6275 H 591.843 -5.00926 -1.6242 0
M  V30 6276 H 594.334 -3.69868 -0.77499 0
M  V30 6277 H 594.647 -7.66718 -0.967654 0
M  V30 6278 H 592.992 -6.89443 -0.877132 0
M  V30 6279 H 596.183 -4.59804 -0.877353 0
M  V30 6280 H 596.356 -6.40768 -0.965434 0
M  V30 6281 N 589.762 0.448376 -1.51087 0
M  V30 6282 C 590.672 1.56882 -1.74428 0
M  V30 6283 C 591.688 1.62268 -0.62809 0
M  V30 6284 O 592.864 1.79716 -0.909075 0
M  V30 6285 C 589.929 2.92947 -1.85426 0
M  V30 6286 C 588.99 2.97766 -3.09247 0
M  V30 6287 C 588.223 4.27341 -3.19711 0
M  V30 6288 O 588.446 5.19112 -2.36387 0
M  V30 6289 O 587.38 4.38219 -4.12611 0
M  V30 6290 H 591.206 1.40104 -2.69452 0
M  V30 6291 H 588.791 0.630247 -1.35456 0
M  V30 6292 H 590.673 3.73719 -1.94709 0
M  V30 6293 H 589.348 3.09876 -0.935887 0
M  V30 6294 H 588.255 2.15989 -3.0545 0
M  V30 6295 H 589.588 2.8578 -4.00738 0
M  V30 6296 N 591.24 1.41047 0.703093 0
M  V30 6297 C 592.656 1.23351 1.01275 0
M  V30 6298 C 592.856 0.11754 2.01157 0
M  V30 6299 O 591.912 -0.520518 2.47077 0
M  V30 6300 C 593.225 2.58001 1.54454 0
M  V30 6301 C 594.773 2.65119 1.66376 0
M  V30 6302 C 595.248 4.00067 2.22958 0
M  V30 6303 N 596.739 4.01875 2.30328 0
M  V30 6304 C 597.474 5.03087 2.75119 0
M  V30 6305 N 596.97 6.14692 3.19571 0
M  V30 6306 N 598.763 4.90451 2.74616 0
M  V30 6307 H 590.914 2.1236 0.0412686 0
M  V30 6308 H 593.177 0.944543 0.08089 0
M  V30 6309 H 592.883 3.40378 0.88521 0
M  V30 6310 H 592.757 2.79962 2.52786 0
M  V30 6311 H 595.144 1.83106 2.31422 0
M  V30 6312 H 595.225 2.46975 0.666089 0
M  V30 6313 H 594.869 4.82526 1.58529 0
M  V30 6314 H 594.799 4.15547 3.23462 0
M  V30 6315 H 597.29 3.21291 1.98949 0
M  V30 6316 H 597.603 6.87799 3.52352 0
M  V30 6317 H 595.948 6.18239 3.17498 0
M  V30 6318 H 599.139 4.0235 2.39233 0
M  V30 6319 H 599.312 5.6947 3.09206 0
M  V30 6320 N 592.718 -0.936591 1.26751 0
M  V30 6321 C 594.129 -1.49816 1.1141 0
M  V30 6322 C 594.48 -1.9383 -0.304015 0
M  V30 6323 O 593.605 -1.80346 -1.196 0
M  V30 6324 C 594.2 -2.72271 2.01629 0
M  V30 6325 C 592.759 -3.2468 1.9042 0
M  V30 6326 C 591.906 -1.97444 1.94708 0
M  V30 6327 H 594.857 -0.751604 1.39773 0
M  V30 6328 H 594.878 -3.46741 1.56688 0
M  V30 6329 H 594.39 -2.40205 3.04833 0
M  V30 6330 H 592.491 -3.61525 0.901674 0
M  V30 6331 H 592.604 -3.91476 2.76195 0
M  V30 6332 H 590.968 -2.13545 1.38818 0
M  V30 6333 H 591.751 -1.67703 2.9955 0
M  V30 6334 N 594.196 -1.08629 -1.14182 0
M  V30 6335 C 595.421 -0.83902 -1.89671 0
M  V30 6336 C 595.846 0.603332 -1.78161 0
M  V30 6337 O 595.204 1.42301 -1.12339 0
M  V30 6338 C 595.252 -1.26854 -3.37551 0
M  V30 6339 O 594.356 -0.42188 -4.10236 0
M  V30 6340 H 593.697 -0.304545 -0.590041 0
M  V30 6341 H 596.227 -1.4483 -1.44518 0
M  V30 6342 H 596.237 -1.25038 -3.88368 0
M  V30 6343 H 594.912 -2.31901 -3.45246 0
M  V30 6344 H 593.489 -0.503654 -3.69483 0
M  V30 6345 N 595.674 1.31259 -0.872281 0
M  V30 6346 C 596.922 1.96233 -0.483409 0
M  V30 6347 C 597.243 1.69276 0.968012 0
M  V30 6348 O 596.513 1.00943 1.67891 0
M  V30 6349 H 595.093 0.726025 -0.175774 0
M  V30 6350 H 597.755 1.60024 -1.11258 0
M  V30 6351 H 596.851 3.05403 -0.643075 0
M  V30 6352 N 597.152 0.631951 1.44375 0
M  V30 6353 C 598.4 0.136497 2.01639 0
M  V30 6354 C 598.721 -1.24637 1.49969 0
M  V30 6355 O 597.991 -1.82827 0.70363 0
M  V30 6356 H 596.571 0.0474703 0.74549 0
M  V30 6357 H 599.233 0.818837 1.76865 0
M  V30 6358 H 598.329 0.104817 3.11924 0
M  V30 6359 N 598.631 -1.53133 0.372548 0
M  V30 6360 C 600.042 -1.86404 -0.105155 0
M  V30 6361 C 600.393 -1.29289 -1.47576 0
M  V30 6362 O 599.518 -0.617646 -2.07398 0
M  V30 6363 C 600.113 -3.38223 -0.197588 0
M  V30 6364 C 598.672 -3.71266 -0.619556 0
M  V30 6365 C 597.819 -2.76353 0.228919 0
M  V30 6366 H 600.77 -1.47282 0.591077 0
M  V30 6367 H 600.791 -3.66577 -1.01987 0
M  V30 6368 H 600.303 -3.79763 0.800099 0
M  V30 6369 H 598.404 -3.35287 -1.62522 0
M  V30 6370 H 598.517 -4.77515 -0.389332 0
M  V30 6371 H 596.881 -2.52888 -0.303271 0
M  V30 6372 H 597.664 -3.20728 1.22428 0
M  V30 6373 N 600.109 -0.101901 -1.5727 0
M  V30 6374 C 601.019 0.868647 -2.17926 0
M  V30 6375 C 602.035 1.30527 -1.1506 0
M  V30 6376 O 603.211 1.37178 -1.47459 0
M  V30 6377 C 600.276 2.10727 -2.75309 0
M  V30 6378 C 599.337 1.7242 -3.93154 0
M  V30 6379 C 598.57 2.90377 -4.47791 0
M  V30 6380 O 598.793 4.05305 -4.01353 0
M  V30 6381 O 597.727 2.6845 -5.38719 0
M  V30 6382 H 601.553 0.382544 -3.01281 0
M  V30 6383 H 599.138 0.122812 -1.48894 0
M  V30 6384 H 601.02 2.83303 -3.11958 0
M  V30 6385 H 599.695 2.58376 -1.94996 0
M  V30 6386 H 598.602 0.970039 -3.61305 0
M  V30 6387 H 599.935 1.29528 -4.74851 0
M  V30 6388 N 601.587 1.56661 0.17182 0
M  V30 6389 C 602.833 1.82235 0.889845 0
M  V30 6390 C 603.166 0.679673 1.81918 0
M  V30 6391 O 602.441 -0.318404 1.91876 0
M  V30 6392 C 602.724 3.18195 1.68595 0
M  V30 6393 C 602.577 4.42989 0.779773 0
M  V30 6394 C 603.896 3.5109 2.65375 0
M  V30 6395 H 601.015 0.66291 0.322056 0
M  V30 6396 H 603.657 1.89358 0.15608 0
M  V30 6397 H 601.807 3.12253 2.3115 0
M  V30 6398 H 603.479 4.60997 0.16714 0
M  V30 6399 H 601.722 4.33711 0.0877964 0
M  V30 6400 H 602.393 5.3467 1.3723 0
M  V30 6401 H 604.869 3.57482 2.12946 0
M  V30 6402 H 603.745 4.47298 3.18144 0
M  V30 6403 H 604.006 2.75768 3.45549 0
M  V30 6404 N 603.065 -0.440357 1.51323 0
M  V30 6405 C 604.481 -0.7766 1.39431 0
M  V30 6406 C 604.681 -1.95838 0.474296 0
M  V30 6407 O 603.737 -2.52398 -0.0716692 0
M  V30 6408 C 605.05 -1.05981 2.81405 0
M  V30 6409 C 606.598 -1.16442 2.90534 0
M  V30 6410 C 607.073 -1.48058 4.33408 0
M  V30 6411 N 608.564 -1.54988 4.36501 0
M  V30 6412 C 609.299 -1.81017 5.44078 0
M  V30 6413 N 608.795 -2.04858 6.61819 0
M  V30 6414 N 610.588 -1.82774 5.31554 0
M  V30 6415 H 602.739 0.338006 2.09693 0
M  V30 6416 H 605.002 0.0888072 0.943831 0
M  V30 6417 H 604.708 -0.264173 3.50706 0
M  V30 6418 H 604.582 -1.98822 3.20546 0
M  V30 6419 H 606.969 -1.95068 2.21432 0
M  V30 6420 H 607.05 -0.215088 2.54894 0
M  V30 6421 H 606.694 -0.699605 5.03059 0
M  V30 6422 H 606.624 -2.44192 4.66559 0
M  V30 6423 H 609.115 -1.38479 3.51613 0
M  V30 6424 H 609.428 -2.2408 7.396 0
M  V30 6425 H 607.773 -2.02187 6.6494 0
M  V30 6426 H 610.964 -1.63665 4.38556 0
M  V30 6427 H 611.137 -2.02722 6.15474 0
M  V30 6428 N 604.543 -1.41418 -0.695603 0
M  V30 6429 C 605.789 -1.40982 -1.4578 0
M  V30 6430 C 606.122 -0.0187763 -1.94191 0
M  V30 6431 O 605.397 0.95346 -1.69527 0
M  V30 6432 C 605.68 -2.41657 -2.66972 0
M  V30 6433 C 605.533 -3.89869 -2.24327 0
M  V30 6434 C 606.852 -2.39589 -3.69168 0
M  V30 6435 H 603.971 -0.513405 -0.528757 0
M  V30 6436 H 606.613 -1.72693 -0.792275 0
M  V30 6437 H 604.763 -2.14746 -3.23754 0
M  V30 6438 H 606.435 -4.27683 -1.72872 0
M  V30 6439 H 604.678 -4.04737 -1.56111 0
M  V30 6440 H 605.349 -4.55857 -3.11285 0
M  V30 6441 H 607.825 -2.63471 -3.2206 0
M  V30 6442 H 606.701 -3.12044 -4.51575 0
M  V30 6443 H 606.962 -1.41447 -4.18862 0
M  V30 6444 N 606.021 0.929856 -1.27246 0
M  V30 6445 C 606.951 2.04722 -1.12299 0
M  V30 6446 C 607.932 1.70082 -0.0250464 0
M  V30 6447 O 609.117 1.93176 -0.199141 0
M  V30 6448 C 606.247 3.38721 -0.767145 0
M  V30 6449 C 605.201 3.87466 -1.81808 0
M  V30 6450 C 604.527 5.18246 -1.31626 0
M  V30 6451 C 605.827 4.11095 -3.22177 0
M  V30 6452 H 607.521 2.17485 -2.05769 0
M  V30 6453 H 605.067 1.04503 -0.990715 0
M  V30 6454 H 607.02 4.16366 -0.649413 0
M  V30 6455 H 605.744 3.25967 0.203259 0
M  V30 6456 H 604.403 3.12012 -1.92468 0
M  V30 6457 H 604.051 5.01881 -0.335378 0
M  V30 6458 H 603.751 5.51829 -2.01887 0
M  V30 6459 H 605.275 5.98462 -1.21143 0
M  V30 6460 H 606.689 4.79316 -3.1453 0
M  V30 6461 H 605.086 4.55982 -3.90129 0
M  V30 6462 H 606.156 3.16468 -3.67391 0
M  V30 6463 N 607.499 1.09233 1.13605 0
M  V30 6464 C 608.429 0.751738 2.21068 0
M  V30 6465 C 609.41 -0.269688 1.67948 0
M  V30 6466 O 610.595 -0.13819 1.93708 0
M  V30 6467 C 607.725 0.16935 3.46887 0
M  V30 6468 C 606.679 1.12007 4.13084 0
M  V30 6469 C 606.005 0.399483 5.33206 0
M  V30 6470 C 607.305 2.46168 4.6065 0
M  V30 6471 H 608.999 1.65024 2.49815 0
M  V30 6472 H 606.545 0.794905 1.20072 0
M  V30 6473 H 608.498 -0.0809824 4.21322 0
M  V30 6474 H 607.222 -0.764335 3.1753 0
M  V30 6475 H 605.881 1.35564 3.40614 0
M  V30 6476 H 605.529 -0.538277 5.00112 0
M  V30 6477 H 605.229 1.03337 5.78442 0
M  V30 6478 H 606.753 0.157403 6.10397 0
M  V30 6479 H 608.167 2.26829 5.26518 0
M  V30 6480 H 606.564 3.05326 5.1662 0
M  V30 6481 H 607.634 3.07076 3.75276 0
M  V30 6482 N 608.977 -1.30795 0.87923 0
M  V30 6483 C 610.224 -1.96362 0.494786 0
M  V30 6484 C 610.552 -1.69448 -0.954868 0
M  V30 6485 O 609.807 -0.988711 -1.68888 0
M  V30 6486 C 610.106 -3.50287 0.709476 0
M  V30 6487 C 609.772 -3.9724 2.13333 0
M  V30 6488 C 608.434 -4.09772 2.52271 0
M  V30 6489 C 610.786 -4.21807 3.06151 0
M  V30 6490 C 608.114 -4.44227 3.83248 0
M  V30 6491 C 610.466 -4.5773 4.36654 0
M  V30 6492 C 609.13 -4.68469 4.75492 0
M  V30 6493 H 608.4 -0.71854 0.181055 0
M  V30 6494 H 611.047 -1.55764 1.11399 0
M  V30 6495 H 609.352 -3.91799 0.0072 0
M  V30 6496 H 611.049 -3.99082 0.391703 0
M  V30 6497 H 607.639 -3.87988 1.82107 0
M  V30 6498 H 611.823 -4.11611 2.77291 0
M  V30 6499 H 607.079 -4.50741 4.13089 0
M  V30 6500 H 611.253 -4.7569 5.08617 0
M  V30 6501 H 608.88 -4.94923 5.77022 0
M  V30 6502 N 610.455 -0.639598 -1.44038 0
M  V30 6503 C 611.403 0.0723409 -2.32487 0
M  V30 6504 C 612.397 0.827129 -1.47834 0
M  V30 6505 O 613.603 0.73907 -1.64127 0
M  V30 6506 H 609.978 0.0421696 -0.750817 0
M  V30 6507 H 611.949 -0.691593 -2.90275 0
M  V30 6508 C 610.698 1.03452 -3.31953 0
M  V30 6509 H 610.021 0.46315 -3.97108 0
M  V30 6510 H 611.461 1.502 -3.96505 0
M  V30 6511 C 609.92 2.12392 -2.61518 0
M  V30 6512 O 610.45 3.2059 -2.42044 0
M  V30 6513 N 608.656 1.88563 -2.21116 0
M  V30 6514 H 608.203 1.00577 -2.37154 0
M  V30 6515 H 608.161 2.61651 -1.74316 0
M  V30 6516 N 611.933 1.52934 -0.380664 0
M  V30 6517 C 612.896 2.24809 0.446473 0
M  V30 6518 C 613.896 1.26133 0.997347 0
M  V30 6519 O 615.086 1.50297 0.880714 0
M  V30 6520 C 612.218 2.99649 1.62553 0
M  V30 6521 H 613.411 2.99343 -0.182677 0
M  V30 6522 H 610.964 1.55736 -0.132618 0
M  V30 6523 H 611.699 2.29395 2.29235 0
M  V30 6524 H 611.484 3.72066 1.23732 0
M  V30 6525 H 612.974 3.54246 2.21133 0
M  V30 6526 N 613.412 0.11024 1.57214 0
M  V30 6527 C 614.64 -0.557834 1.99238 0
M  V30 6528 C 615.055 -1.60778 0.989734 0
M  V30 6529 O 614.412 -1.82491 -0.0186092 0
M  V30 6530 C 614.463 -1.19189 3.41286 0
M  V30 6531 O 614.184 -0.183919 4.37714 0
M  V30 6532 C 615.685 -1.94413 3.98395 0
M  V30 6533 H 612.905 -0.148392 0.654386 0
M  V30 6534 H 615.449 0.193996 2.03578 0
M  V30 6535 H 613.604 -1.89456 3.37913 0
M  V30 6536 H 614.018 -0.643475 5.20538 0
M  V30 6537 H 615.492 -2.34116 4.99894 0
M  V30 6538 H 615.969 -2.81592 3.3705 0
M  V30 6539 H 616.575 -1.28928 4.05287 0
M  V30 6540 N 614.89 -1.56749 -0.16351 0
M  V30 6541 C 616.138 -1.82074 -0.87713 0
M  V30 6542 C 616.459 -0.688503 -1.82441 0
M  V30 6543 O 615.729 0.291085 -1.93725 0
M  V30 6544 H 614.309 -0.671677 -0.326893 0
M  V30 6545 H 616.971 -1.9423 -0.161459 0
M  V30 6546 H 616.067 -2.76407 -1.44934 0
M  V30 6547 N 616.368 0.432326 -1.51554 0
M  V30 6548 C 617.645 1.19288 -1.55015 0
M  V30 6549 C 618.025 2.08701 -0.317375 0
M  V30 6550 O 617.373 2.17602 0.697243 0
M  V30 6551 C 617.583 1.99037 -2.86679 0
M  V30 6552 C 618.931 2.55907 -3.38817 0
M  V30 6553 O 619.955 2.09243 -2.88263 0
M  V30 6554 O 618.814 3.41029 -4.27038 0
M  V30 6555 H 615.908 0.543369 -0.623441 0
M  V30 6556 H 618.454 0.440988 -1.6387 0
M  V30 6557 H 617.226 1.33397 -3.6786 0
M  V30 6558 H 616.849 2.81281 -2.8101 0
M  V30 6559 N 617.846 1.41785 0.688094 0
M  V30 6560 C 619.262 1.24419 0.999608 0
M  V30 6561 C 619.462 0.138868 2.01021 0
M  V30 6562 O 618.518 -0.494283 2.47615 0
M  V30 6563 C 619.831 2.59625 1.51709 0
M  V30 6564 C 621.379 2.66869 1.63554 0
M  V30 6565 C 621.854 4.0241 2.18702 0
M  V30 6566 N 623.345 4.04295 2.26053 0
M  V30 6567 C 624.08 5.05977 2.69768 0
M  V30 6568 N 623.576 6.18047 3.13033 0
M  V30 6569 N 625.369 4.93336 2.69398 0
M  V30 6570 H 617.52 2.12392 0.0187427 0
M  V30 6571 H 619.783 0.945347 0.0708673 0
M  V30 6572 H 619.489 3.41297 0.849059 0
M  V30 6573 H 619.363 2.82628 2.49803 0
M  V30 6574 H 621.75 1.8555 2.29467 0
M  V30 6575 H 621.831 2.47668 0.639857 0
M  V30 6576 H 621.475 4.8418 1.53402 0
M  V30 6577 H 621.405 4.18955 3.19037 0
M  V30 6578 H 623.896 3.23383 1.9553 0
M  V30 6579 H 624.209 6.91498 3.45038 0
M  V30 6580 H 622.554 6.21572 3.10923 0
M  V30 6581 H 625.745 4.04865 2.34952 0
M  V30 6582 H 625.918 5.72717 3.03148 0
M  V30 6583 N 619.324 -0.923095 1.27737 0
M  V30 6584 C 620.601 -1.64989 1.05062 0
M  V30 6585 C 620.981 -2.07018 -0.413124 0
M  V30 6586 O 620.329 -1.80797 -1.39731 0
M  V30 6587 C 620.539 -2.84847 2.01652 0
M  V30 6588 C 621.887 -3.56083 2.31279 0
M  V30 6589 O 622.911 -2.94981 1.99662 0
M  V30 6590 O 621.77 -4.66182 2.85196 0
M  V30 6591 H 618.864 -0.723357 0.400853 0
M  V30 6592 H 621.41 -0.973224 1.3902 0
M  V30 6593 H 620.182 -2.50814 3.00347 0
M  V30 6594 H 619.805 -3.60231 1.68284 0
M  V30 6595 N 620.802 -1.09834 -1.13024 0
M  V30 6596 C 622.213 -0.855651 -1.65938 0
M  V30 6597 C 622.564 0.615159 -1.86307 0
M  V30 6598 O 621.689 1.47335 -1.58497 0
M  V30 6599 C 622.284 -1.5467 -3.01434 0
M  V30 6600 C 620.843 -1.35088 -3.51323 0
M  V30 6601 C 619.99 -1.6001 -2.26478 0
M  V30 6602 H 622.941 -1.25691 -0.968889 0
M  V30 6603 H 622.962 -0.982179 -3.67605 0
M  V30 6604 H 622.474 -2.61715 -2.86578 0
M  V30 6605 H 620.575 -0.30179 -3.71376 0
M  V30 6606 H 620.688 -2.0886 -4.31178 0
M  V30 6607 H 619.052 -1.02246 -2.33276 0
M  V30 6608 H 619.835 -2.68293 -2.14182 0
M  V30 6609 N 622.28 1.30327 -0.886154 0
M  V30 6610 C 623.243 2.26376 -0.358687 0
M  V30 6611 C 624.243 1.52845 0.499498 0
M  V30 6612 O 625.433 1.71483 0.306485 0
M  V30 6613 C 622.565 3.37379 0.488726 0
M  V30 6614 H 623.758 2.74547 -1.20681 0
M  V30 6615 H 621.311 1.41536 -0.663113 0
M  V30 6616 H 622.046 2.94526 1.35739 0
M  V30 6617 H 621.831 3.91897 -0.126003 0
M  V30 6618 H 623.321 4.08868 0.84952 0
M  V30 6619 N 623.758 0.647228 1.43697 0
M  V30 6620 C 624.721 -0.0385101 2.29168 0
M  V30 6621 C 625.721 -0.756487 1.41894 0
M  V30 6622 O 626.911 -0.598641 1.63591 0
M  V30 6623 C 624.043 -1.06524 3.23829 0
M  V30 6624 H 625.236 0.713445 2.9129 0
M  V30 6625 H 622.789 0.408153 1.50877 0
M  V30 6626 H 623.524 -1.84664 2.66589 0
M  V30 6627 H 623.309 -0.554147 3.88164 0
M  V30 6628 H 624.799 -1.54432 3.87996 0
M  V30 6629 N 625.236 -1.5273 0.388769 0
M  V30 6630 C 626.166 -2.29353 -0.438111 0
M  V30 6631 C 627.147 -1.32719 -1.06394 0
M  V30 6632 O 628.332 -1.61612 -1.07681 0
M  V30 6633 C 625.462 -3.09995 -1.56589 0
M  V30 6634 C 624.416 -4.14509 -1.06613 0
M  V30 6635 C 623.742 -4.83372 -2.28594 0
M  V30 6636 C 625.042 -5.22127 -0.134459 0
M  V30 6637 H 626.736 -2.98723 0.201206 0
M  V30 6638 H 624.282 -1.43665 0.0982089 0
M  V30 6639 H 626.235 -3.62357 -2.15118 0
M  V30 6640 H 624.959 -2.38357 -2.23279 0
M  V30 6641 H 623.618 -3.63128 -0.503383 0
M  V30 6642 H 623.266 -4.08283 -2.93792 0
M  V30 6643 H 622.966 -5.54012 -1.95817 0
M  V30 6644 H 624.49 -5.38538 -2.87766 0
M  V30 6645 H 625.904 -5.69851 -0.627914 0
M  V30 6646 H 624.301 -6.00011 0.103534 0
M  V30 6647 H 625.371 -4.77971 0.816798 0
M  V30 6648 N 626.714 -0.118576 -1.57153 0
M  V30 6649 C 627.644 0.828436 -2.1831 0
M  V30 6650 C 628.625 1.27758 -1.12303 0
M  V30 6651 O 629.81 1.34026 -1.40537 0
M  V30 6652 C 626.94 2.07876 -2.78217 0
M  V30 6653 C 625.894 1.76742 -3.89803 0
M  V30 6654 C 625.22 3.08801 -4.36516 0
M  V30 6655 C 626.52 1.03606 -5.11921 0
M  V30 6656 H 628.214 0.318824 -2.97698 0
M  V30 6657 H 625.76 0.151911 -1.43196 0
M  V30 6658 H 627.713 2.74584 -3.19659 0
M  V30 6659 H 626.437 2.61161 -1.96118 0
M  V30 6660 H 625.096 1.12424 -3.48936 0
M  V30 6661 H 624.744 3.6002 -3.51276 0
M  V30 6662 H 624.444 2.88743 -5.11763 0
M  V30 6663 H 625.968 3.76627 -4.80608 0
M  V30 6664 H 627.382 1.60467 -5.50385 0
M  V30 6665 H 625.779 0.936454 -5.92748 0
M  V30 6666 H 626.849 0.0227421 -4.84895 0
M  V30 6667 N 628.193 1.56834 0.155195 0
M  V30 6668 C 629.14 1.97646 1.19184 0
M  V30 6669 C 630.11 0.842788 1.4313 0
M  V30 6670 O 631.295 1.1042 1.55602 0
M  V30 6671 C 628.435 2.35527 2.52232 0
M  V30 6672 C 627.548 3.62147 2.35529 0
M  V30 6673 C 626.683 3.89167 3.61555 0
M  V30 6674 C 625.722 5.09084 3.39853 0
M  V30 6675 N 624.859 5.32156 4.5799 0
M  V30 6676 H 629.699 2.8601 0.836802 0
M  V30 6677 H 627.236 1.41507 0.401758 0
M  V30 6678 H 629.194 2.55516 3.29799 0
M  V30 6679 H 627.824 1.50253 2.85699 0
M  V30 6680 H 626.876 3.4998 1.49057 0
M  V30 6681 H 628.188 4.49871 2.15448 0
M  V30 6682 H 627.342 4.09611 4.47553 0
M  V30 6683 H 626.081 2.9985 3.84632 0
M  V30 6684 H 625.086 4.88522 2.52243 0
M  V30 6685 H 626.311 5.99947 3.18183 0
M  V30 6686 H 624.257 4.45791 4.81255 0
M  V30 6687 H 624.174 6.14133 4.40882 0
M  V30 6688 H 625.442 5.57091 5.45225 0
M  V30 6689 N 629.671 -0.424282 1.51781 0
M  V30 6690 C 630.601 -1.52305 1.7699 0
M  V30 6691 C 631.582 -1.5839 0.620209 0
M  V30 6692 O 632.767 -1.73908 0.864268 0
M  V30 6693 C 629.897 -2.90271 1.90683 0
M  V30 6694 C 628.851 -2.99043 3.06198 0
M  V30 6695 C 628.177 -4.39116 3.05092 0
M  V30 6696 C 629.477 -2.7192 4.45934 0
M  V30 6697 H 631.171 -1.31461 2.68995 0
M  V30 6698 H 628.717 -0.630985 1.29439 0
M  V30 6699 H 630.67 -3.6711 2.06901 0
M  V30 6700 H 629.394 -3.12376 0.953365 0
M  V30 6701 H 628.053 -2.24646 2.89706 0
M  V30 6702 H 627.701 -4.58207 2.07498 0
M  V30 6703 H 627.401 -4.45912 3.82669 0
M  V30 6704 H 628.925 -5.17911 3.2342 0
M  V30 6705 H 630.339 -3.38487 4.62709 0
M  V30 6706 H 628.736 -2.90111 5.25315 0
M  V30 6707 H 629.806 -1.67445 4.55072 0
M  V30 6708 N 631.149 -1.42148 -0.680565 0
M  V30 6709 C 632.079 -1.4796 -1.80638 0
M  V30 6710 C 633.06 -0.336728 -1.66734 0
M  V30 6711 O 634.245 -0.550247 -1.86242 0
M  V30 6712 C 631.375 -1.37569 -3.18892 0
M  V30 6713 C 630.329 -2.49823 -3.47524 0
M  V30 6714 C 629.655 -2.24491 -4.85291 0
M  V30 6715 C 630.955 -3.92144 -3.44994 0
M  V30 6716 H 632.649 -2.42184 -1.76032 0
M  V30 6717 H 630.195 -1.16566 -0.845481 0
M  V30 6718 H 632.148 -1.40243 -3.97379 0
M  V30 6719 H 630.872 -0.398357 -3.24162 0
M  V30 6720 H 629.531 -2.46455 -2.71395 0
M  V30 6721 H 629.179 -1.25066 -4.87204 0
M  V30 6722 H 628.879 -2.99722 -5.05411 0
M  V30 6723 H 630.403 -2.28906 -5.66069 0
M  V30 6724 H 631.817 -3.97145 -4.13459 0
M  V30 6725 H 630.214 -4.67179 -3.76648 0
M  V30 6726 H 631.284 -4.19225 -2.43676 0
M  V30 6727 N 632.627 0.916307 -1.28225 0
M  V30 6728 C 633.559 2.02303 -1.07732 0
M  V30 6729 C 634.572 1.62773 -0.0298421 0
M  V30 6730 O 635.761 1.76406 -0.272626 0
M  V30 6731 C 632.861 3.33282 -0.614504 0
M  V30 6732 C 632.034 4.01439 -1.73682 0
M  V30 6733 C 631.093 5.10698 -1.26781 0
M  V30 6734 O 630.119 5.34038 -1.96958 0
M  V30 6735 N 631.321 5.80355 -0.129624 0
M  V30 6736 H 634.086 2.20442 -2.03041 0
M  V30 6737 H 631.647 1.08744 -1.19943 0
M  V30 6738 H 633.639 4.03699 -0.284397 0
M  V30 6739 H 632.209 3.11633 0.245664 0
M  V30 6740 H 631.429 3.24604 -2.23665 0
M  V30 6741 H 632.717 4.43721 -2.48976 0
M  V30 6742 H 632.115 5.6386 0.455847 0
M  V30 6743 H 630.672 6.51647 0.141224 0
M  V30 6744 N 634.105 1.10431 1.1244 0
M  V30 6745 C 635.516 0.864439 1.65482 0
M  V30 6746 C 635.867 -0.60527 1.8663 0
M  V30 6747 O 634.992 -1.46492 1.59276 0
M  V30 6748 C 635.587 1.56267 3.0061 0
M  V30 6749 C 634.146 1.3695 3.50602 0
M  V30 6750 C 633.293 1.61209 2.25626 0
M  V30 6751 H 636.244 1.26203 0.962209 0
M  V30 6752 H 636.265 1.00166 3.67079 0
M  V30 6753 H 635.777 2.63231 2.85186 0
M  V30 6754 H 633.878 0.321481 3.71211 0
M  V30 6755 H 633.991 2.11143 4.30064 0
M  V30 6756 H 632.355 1.03482 2.32731 0
M  V30 6757 H 633.138 2.69425 2.12756 0
M  V30 6758 N 635.583 -1.29855 0.893053 0
M  V30 6759 C 636.823 -1.97612 0.522399 0
M  V30 6760 C 637.187 -1.68903 -0.913 0
M  V30 6761 O 638.388 -2.30059 -1.39019 0
M  V30 6762 C 636.659 -3.48356 0.79893 0
M  V30 6763 S 638.218 -4.35568 0.531588 0
M  V30 6764 H 635.036 -0.684005 0.194058 0
M  V30 6765 H 637.638 -1.57803 1.15406 0
M  V30 6766 H 636.342 -3.66743 1.84196 0
M  V30 6767 H 635.873 -3.93094 0.155133 0
M  V30 6768 H 637.888 -4.92232 -0.626295 0
M  V30 6769 N 637.061 -0.65484 -1.43351 0
M  V30 6770 C 637.993 0.0744757 -2.29079 0
M  V30 6771 C 639.006 0.7855 -1.42596 0
M  V30 6772 O 640.195 0.642986 -1.66517 0
M  V30 6773 C 637.295 1.12859 -3.19556 0
M  V30 6774 C 636.468 0.495381 -4.34586 0
M  V30 6775 C 635.527 1.44659 -5.05925 0
M  V30 6776 O 634.553 0.954567 -5.61139 0
M  V30 6777 N 635.755 2.78051 -5.09576 0
M  V30 6778 H 638.52 -0.661346 -2.92312 0
M  V30 6779 H 636.081 -0.497744 -1.54059 0
M  V30 6780 H 638.073 1.76577 -3.64147 0
M  V30 6781 H 636.643 1.76636 -2.57912 0
M  V30 6782 H 635.863 -0.32092 -3.92892 0
M  V30 6783 H 637.151 0.0534203 -5.08772 0
M  V30 6784 H 636.549 3.20584 -4.66093 0
M  V30 6785 H 635.106 3.37068 -5.57878 0
M  V30 6786 N 638.539 1.52521 -0.396863 0
M  V30 6787 C 639.786 2.01672 0.182898 0
M  V30 6788 C 640.114 1.28302 1.46181 0
M  V30 6789 O 639.369 0.374118 1.92091 0
M  V30 6790 C 639.668 3.5403 0.489677 0
M  V30 6791 C 639.334 4.45456 -0.698581 0
M  V30 6792 C 637.996 4.70166 -1.02454 0
M  V30 6793 C 640.348 4.99354 -1.49316 0
M  V30 6794 C 637.676 5.46024 -2.1465 0
M  V30 6795 C 640.028 5.76439 -2.60579 0
M  V30 6796 C 638.692 5.99426 -2.93675 0
M  V30 6797 H 637.962 0.737971 0.066927 0
M  V30 6798 H 640.609 1.83853 -0.535764 0
M  V30 6799 H 638.914 3.69963 1.28976 0
M  V30 6800 H 640.611 3.8956 0.951018 0
M  V30 6801 H 637.201 4.26392 -0.434525 0
M  V30 6802 H 641.385 4.80182 -1.25457 0
M  V30 6803 H 636.641 5.62046 -2.40654 0
M  V30 6804 H 640.815 6.17202 -3.22544 0
M  V30 6805 H 638.442 6.57988 -3.80731 0
M  V30 6806 N 640.017 0.126909 1.57088 0
M  V30 6807 C 641.294 -0.573152 1.87014 0
M  V30 6808 C 641.674 -1.84297 1.02945 0
M  V30 6809 O 641.022 -2.28232 0.110573 0
M  V30 6810 C 641.232 -0.857984 3.38289 0
M  V30 6811 C 642.58 -1.20759 4.07066 0
M  V30 6812 O 643.604 -0.947992 3.43353 0
M  V30 6813 O 642.463 -1.69516 5.19545 0
M  V30 6814 H 639.557 -0.290082 0.774456 0
M  V30 6815 H 642.103 0.162008 1.68925 0
M  V30 6816 H 640.875 0.0415286 3.91278 0
M  V30 6817 H 640.498 -1.64803 3.61837 0
M  V30 6818 N 641.495 -1.56914 -0.146875 0
M  V30 6819 C 642.725 -1.87243 -0.873126 0
M  V30 6820 C 643.133 -0.713127 -1.75246 0
M  V30 6821 O 642.476 0.326228 -1.8078 0
M  V30 6822 C 642.538 -3.12279 -1.78107 0
M  V30 6823 C 642.202 -4.44082 -1.07889 0
M  V30 6824 C 643.199 -5.18096 -0.432734 0
M  V30 6825 C 640.884 -4.90807 -1.06836 0
M  V30 6826 C 642.878 -6.37039 0.214569 0
M  V30 6827 C 640.565 -6.09674 -0.417243 0
M  V30 6828 C 641.563 -6.82636 0.223093 0
M  V30 6829 O 641.251 -7.99245 0.863884 0
M  V30 6830 H 640.983 -0.624896 -0.257839 0
M  V30 6831 H 643.537 -2.04892 -0.14434 0
M  V30 6832 H 641.767 -2.90639 -2.5508 0
M  V30 6833 H 643.456 -3.28854 -2.37929 0
M  V30 6834 H 644.222 -4.83066 -0.432677 0
M  V30 6835 H 640.101 -4.3394 -1.55618 0
M  V30 6836 H 643.645 -6.93927 0.714965 0
M  V30 6837 H 639.542 -6.44165 -0.414967 0
M  V30 6838 H 640.31 -8.14912 0.765564 0
M  V30 6839 N 642.974 0.416227 -1.52004 0
M  V30 6840 C 643.937 1.48926 -1.74223 0
M  V30 6841 C 644.937 1.48693 -0.612119 0
M  V30 6842 O 646.127 1.50343 -0.879921 0
M  V30 6843 C 643.259 2.88372 -1.81809 0
M  V30 6844 H 644.452 1.3052 -2.70008 0
M  V30 6845 H 642.005 0.646271 -1.42313 0
M  V30 6846 H 642.74 3.12157 -0.879135 0
M  V30 6847 H 642.525 2.89944 -2.6396 0
M  V30 6848 H 644.015 3.66173 -2.00766 0
M  V30 6849 N 644.452 1.42507 0.673017 0
M  V30 6850 C 645.698 1.43284 1.43519 0
M  V30 6851 C 646.031 0.049668 1.94136 0
M  V30 6852 O 645.306 -0.926369 1.71022 0
M  V30 6853 C 645.589 2.45874 2.63093 0
M  V30 6854 C 645.442 3.93388 2.18096 0
M  V30 6855 C 646.761 2.45431 3.6531 0
M  V30 6856 H 643.88 0.521752 0.520522 0
M  V30 6857 H 646.522 1.73932 0.764701 0
M  V30 6858 H 644.672 2.19869 3.20296 0
M  V30 6859 H 646.344 4.30379 1.66046 0
M  V30 6860 H 644.587 4.07169 1.49652 0
M  V30 6861 H 645.258 4.60752 3.03993 0
M  V30 6862 H 647.734 2.68561 3.17827 0
M  V30 6863 H 646.61 3.19189 4.46553 0
M  V30 6864 H 646.871 1.48092 4.16559 0
M  V30 6865 N 645.93 -0.909495 1.28709 0
M  V30 6866 C 647.177 -1.65905 1.16111 0
M  V30 6867 C 647.505 -1.92334 -0.289436 0
M  V30 6868 O 646.76 -1.52495 -1.22653 0
M  V30 6869 C 647.059 -3.02117 1.90945 0
M  V30 6870 C 646.725 -2.95332 3.40719 0
M  V30 6871 C 645.387 -2.93189 3.81567 0
M  V30 6872 C 647.739 -2.85264 4.36204 0
M  V30 6873 C 645.067 -2.78784 5.16233 0
M  V30 6874 C 647.419 -2.724 5.70948 0
M  V30 6875 C 646.083 -2.68617 6.11066 0
M  V30 6876 H 645.353 -0.60709 0.42488 0
M  V30 6877 H 648 -1.05932 1.59533 0
M  V30 6878 H 646.305 -3.65901 1.40085 0
M  V30 6879 H 648.002 -3.59026 1.7861 0
M  V30 6880 H 644.592 -2.97797 3.08245 0
M  V30 6881 H 648.776 -2.86005 4.05605 0
M  V30 6882 H 644.032 -2.74254 5.46438 0
M  V30 6883 H 648.206 -2.63579 6.44592 0
M  V30 6884 H 645.833 -2.57213 7.15364 0
M  V30 6885 N 647.408 -1.11026 -1.11852 0
M  V30 6886 C 648.648 -0.866348 -1.85132 0
M  V30 6887 C 649.012 0.597236 -1.82475 0
M  V30 6888 O 650.213 0.957744 -2.51159 0
M  V30 6889 C 648.484 -1.40721 -3.28531 0
M  V30 6890 S 650.043 -1.29964 -4.19112 0
M  V30 6891 H 646.861 -0.312899 -0.638447 0
M  V30 6892 H 649.463 -1.41691 -1.34699 0
M  V30 6893 H 648.167 -2.46631 -3.28027 0
M  V30 6894 H 647.698 -0.85349 -3.8403 0
M  V30 6895 H 649.713 -0.261333 -4.95511 0
M  V30 6896 N 648.886 1.2938 -0.899927 0
M  V30 6897 C 650.297 1.77644 -0.574427 0
M  V30 6898 C 650.648 1.73824 0.909928 0
M  V30 6899 O 649.773 1.32429 1.71147 0
M  V30 6900 C 650.368 3.22573 -1.03595 0
M  V30 6901 C 648.927 3.68614 -0.76161 0
M  V30 6902 C 648.074 2.49483 -1.21052 0
M  V30 6903 H 651.025 1.16038 -1.08263 0
M  V30 6904 H 651.046 3.78684 -0.371337 0
M  V30 6905 H 650.558 3.25321 -2.11631 0
M  V30 6906 H 648.659 3.7134 0.306127 0
M  V30 6907 H 648.772 4.59402 -1.35965 0
M  V30 6908 H 647.136 2.46798 -0.629515 0
M  V30 6909 H 647.919 2.54959 -2.29893 0
M  V30 6910 N 650.364 0.662433 1.43002 0
M  V30 6911 C 651.312 -0.035345 2.32573 0
M  V30 6912 C 652.306 -0.803505 1.49131 0
M  V30 6913 O 653.512 -0.712865 1.65282 0
M  V30 6914 H 649.887 -0.0302194 0.751393 0
M  V30 6915 H 651.858 0.737686 2.89138 0
M  V30 6916 C 650.607 -0.981575 3.33557 0
M  V30 6917 H 649.93 -0.399914 3.97795 0
M  V30 6918 H 651.37 -1.43873 3.98844 0
M  V30 6919 C 649.829 -2.08204 2.64863 0
M  V30 6920 O 650.359 -3.16698 2.47113 0
M  V30 6921 N 648.565 -1.85022 2.24088 0
M  V30 6922 H 648.112 -0.967909 2.38724 0
M  V30 6923 H 648.07 -2.58845 1.78457 0
M  V30 6924 N 651.842 -1.52309 0.404946 0
M  V30 6925 C 652.772 -2.29805 -0.41376 0
M  V30 6926 C 653.753 -1.3384 -1.0498 0
M  V30 6927 O 654.938 -1.62745 -1.05961 0
M  V30 6928 C 652.068 -3.11639 -1.53292 0
M  V30 6929 C 651.022 -4.15616 -1.02211 0
M  V30 6930 C 650.348 -4.8577 -2.23455 0
M  V30 6931 C 651.648 -5.2224 -0.0790725 0
M  V30 6932 H 653.342 -2.98493 0.232878 0
M  V30 6933 H 650.888 -1.43552 0.113441 0
M  V30 6934 H 652.841 -3.64618 -2.11262 0
M  V30 6935 H 651.565 -2.40712 -2.20738 0
M  V30 6936 H 650.224 -3.63641 -0.46484 0
M  V30 6937 H 649.872 -4.11376 -2.89445 0
M  V30 6938 H 649.572 -5.56058 -1.89929 0
M  V30 6939 H 651.096 -5.4156 -2.82038 0
M  V30 6940 H 652.51 -5.70485 -0.567438 0
M  V30 6941 H 650.907 -5.99867 0.167167 0
M  V30 6942 H 651.977 -4.77078 0.867447 0
M  V30 6943 N 653.32 -0.135238 -1.57019 0
M  V30 6944 C 654.548 0.526066 -2.001 0
M  V30 6945 C 654.963 1.59184 -1.01519 0
M  V30 6946 O 654.32 1.82497 -0.0104258 0
M  V30 6947 C 654.371 1.13744 -3.43139 0
M  V30 6948 O 654.092 0.114259 -4.37951 0
M  V30 6949 C 655.593 1.8805 -4.01438 0
M  V30 6950 H 652.813 0.137962 -0.656664 0
M  V30 6951 H 655.357 -0.226359 -2.03243 0
M  V30 6952 H 653.512 1.84056 -3.40885 0
M  V30 6953 H 653.926 0.56058 -5.21496 0
M  V30 6954 H 655.4 2.26133 -5.03555 0
M  V30 6955 H 655.877 2.76194 -3.41487 0
M  V30 6956 H 656.483 1.22464 -4.07287 0
M  V30 6957 N 654.798 1.5699 0.138552 0
M  V30 6958 C 655.708 2.02174 1.19008 0
M  V30 6959 C 656.724 0.938622 1.46512 0
M  V30 6960 O 657.9 1.24872 1.58016 0
M  V30 6961 C 654.965 2.40045 2.50159 0
M  V30 6962 C 654.026 3.62346 2.30226 0
M  V30 6963 C 653.259 3.98401 3.55123 0
M  V30 6964 O 653.482 3.35019 4.61647 0
M  V30 6965 O 652.416 4.91606 3.47285 0
M  V30 6966 H 656.242 2.91954 0.836452 0
M  V30 6967 H 653.827 1.45293 0.347907 0
M  V30 6968 H 655.709 2.65225 3.27465 0
M  V30 6969 H 654.384 1.53417 2.85035 0
M  V30 6970 H 653.291 3.42341 1.50843 0
M  V30 6971 H 654.624 4.49617 2.00262 0
M  V30 6972 N 656.276 -0.40816 1.52223 0
M  V30 6973 C 657.522 -1.15673 1.66576 0
M  V30 6974 C 657.855 -1.90141 0.394996 0
M  V30 6975 O 657.13 -1.84798 -0.606613 0
M  V30 6976 C 657.413 -2.15042 2.88841 0
M  V30 6977 C 657.266 -1.44465 4.25969 0
M  V30 6978 C 658.585 -3.15699 3.0663 0
M  V30 6979 H 655.704 -0.41916 0.606196 0
M  V30 6980 H 658.346 -0.442348 1.84779 0
M  V30 6981 H 656.496 -2.75964 2.73452 0
M  V30 6982 H 658.168 -0.866544 4.53088 0
M  V30 6983 H 656.411 -0.746612 4.27327 0
M  V30 6984 H 657.082 -2.16976 5.07568 0
M  V30 6985 H 659.558 -2.64854 3.20923 0
M  V30 6986 H 658.434 -3.82491 3.9369 0
M  V30 6987 H 658.695 -3.83481 2.19987 0
M  V30 6988 N 657.755 -1.42862 -0.66545 0
M  V30 6989 C 658.98 -1.47456 -1.45848 0
M  V30 6990 C 659.405 -0.0900312 -1.87884 0
M  V30 6991 O 658.763 0.913587 -1.56599 0
M  V30 6992 C 658.811 -2.41514 -2.67774 0
M  V30 6993 O 657.915 -1.89296 -3.66389 0
M  V30 6994 H 657.256 -0.499236 -0.437789 0
M  V30 6995 H 659.786 -1.8765 -0.815394 0
M  V30 6996 H 659.796 -2.58409 -3.15735 0
M  V30 6997 H 658.471 -3.42099 -2.36519 0
M  V30 6998 H 657.048 -1.82003 -3.25468 0
M  V30 6999 N 659.233 0.902656 -1.29189 0
M  V30 7000 C 660.458 1.69167 -1.19989 0
M  V30 7001 C 660.883 1.86607 0.236495 0
M  V30 7002 O 660.241 1.38425 1.17082 0
M  V30 7003 C 660.289 3.05532 -1.91527 0
M  V30 7004 O 659.393 3.93621 -1.2303 0
M  V30 7005 H 658.734 0.517584 -0.415936 0
M  V30 7006 H 661.264 1.12785 -1.70706 0
M  V30 7007 H 661.274 3.55693 -1.99866 0
M  V30 7008 H 659.949 2.92156 -2.96003 0
M  V30 7009 H 658.526 3.52055 -1.22928 0
M  V30 7010 N 660.711 1.11618 1.11262 0
M  V30 7011 C 661.939 0.888739 1.8684 0
M  V30 7012 C 662.354 -0.561558 1.80255 0
M  V30 7013 O 661.711 -1.38782 1.18515 0
M  V30 7014 C 661.762 1.34422 3.35579 0
M  V30 7015 O 661.483 2.73766 3.42029 0
M  V30 7016 C 662.984 1.15246 4.28058 0
M  V30 7017 H 660.204 0.318152 0.590779 0
M  V30 7018 H 662.748 1.48398 1.40707 0
M  V30 7019 H 660.903 0.79239 3.7921 0
M  V30 7020 H 661.317 2.9355 4.34659 0
M  V30 7021 H 662.791 1.52015 5.30656 0
M  V30 7022 H 663.268 0.0922007 4.39103 0
M  V30 7023 H 663.874 1.69136 3.90222 0
M  V30 7024 N 662.189 -1.289 0.906776 0
M  V30 7025 C 663.437 -1.94883 0.535266 0
M  V30 7026 C 663.758 -1.71784 -0.922791 0
M  V30 7027 O 663.028 -1.05359 -1.65156 0
M  V30 7028 H 661.608 -0.721109 0.194962 0
M  V30 7029 H 664.27 -1.57018 1.15461 0
M  V30 7030 H 663.366 -3.03591 0.723821 0
M  V30 7031 N 663.667 -0.670007 -1.42649 0
M  V30 7032 C 664.615 0.0230106 -2.32589 0
M  V30 7033 C 665.609 0.795585 -1.49555 0
M  V30 7034 O 666.815 0.70409 -1.65658 0
M  V30 7035 H 663.19 0.0262342 -0.751542 0
M  V30 7036 H 665.161 -0.753009 -2.88743 0
M  V30 7037 C 663.91 0.963872 -3.34073 0
M  V30 7038 H 663.233 0.378813 -3.98001 0
M  V30 7039 H 664.673 1.41755 -3.99602 0
M  V30 7040 C 663.132 2.06797 -2.65964 0
M  V30 7041 O 663.662 3.15383 -2.48789 0
M  V30 7042 N 661.868 1.83831 -2.25066 0
M  V30 7043 H 661.415 0.955235 -2.39234 0
M  V30 7044 H 661.373 2.57895 -1.79827 0
M  V30 7045 N 665.145 1.52092 -0.413018 0
M  V30 7046 C 666.108 2.25706 0.398687 0
M  V30 7047 C 667.108 1.28221 0.970368 0
M  V30 7048 O 668.298 1.52131 0.848635 0
M  V30 7049 C 665.43 3.03029 1.5616 0
M  V30 7050 H 666.623 2.98888 -0.246131 0
M  V30 7051 H 664.176 1.5542 -0.165622 0
M  V30 7052 H 664.911 2.34205 2.24317 0
M  V30 7053 H 664.696 3.74606 1.15812 0
M  V30 7054 H 666.186 3.58857 2.13569 0
M  V30 7055 N 666.623 0.143563 1.56945 0
M  V30 7056 C 667.9 -0.553285 1.87612 0
M  V30 7057 C 668.28 -1.83195 1.04894 0
M  V30 7058 O 667.628 -2.28102 0.134773 0
M  V30 7059 C 667.838 -0.822055 3.3918 0
M  V30 7060 C 669.186 -1.16435 4.08324 0
M  V30 7061 O 670.21 -0.911522 3.4434 0
M  V30 7062 O 669.069 -1.63996 5.21313 0
M  V30 7063 H 666.163 -0.281851 0.777489 0
M  V30 7064 H 668.709 0.179916 1.68744 0
M  V30 7065 H 667.481 0.0830265 3.91212 0
M  V30 7066 H 667.104 -1.60956 3.63564 0
M  V30 7067 N 668.101 -1.57061 -0.130224 0
M  V30 7068 C 669.033 -1.96147 -1.18571 0
M  V30 7069 C 670.046 -0.859347 -1.38272 0
M  V30 7070 O 671.235 -1.13769 -1.37545 0
M  V30 7071 C 668.335 -2.23484 -2.54771 0
M  V30 7072 C 667.508 -3.54786 -2.55824 0
M  V30 7073 C 666.567 -3.70467 -3.73686 0
M  V30 7074 O 665.593 -4.42693 -3.57787 0
M  V30 7075 N 666.795 -3.08389 -4.91809 0
M  V30 7076 H 669.56 -2.87295 -0.853333 0
M  V30 7077 H 667.121 -1.58714 -0.319621 0
M  V30 7078 H 669.113 -2.312 -3.32158 0
M  V30 7079 H 667.683 -1.38518 -2.80235 0
M  V30 7080 H 666.903 -3.5836 -1.64232 0
M  V30 7081 H 668.191 -4.4111 -2.53573 0
M  V30 7082 H 667.589 -2.49656 -5.0763 0
M  V30 7083 H 666.146 -3.21642 -5.66912 0
M  V30 7084 N 669.579 0.400081 -1.52437 0
M  V30 7085 C 670.511 1.50729 -1.72666 0
M  V30 7086 C 671.524 1.51058 -0.607075 0
M  V30 7087 O 672.713 1.5516 -0.88248 0
M  V30 7088 C 669.813 2.89604 -1.76019 0
M  V30 7089 C 668.986 3.13365 -3.05157 0
M  V30 7090 C 668.045 4.32163 -3.00203 0
M  V30 7091 O 667.071 4.29004 -3.74092 0
M  V30 7092 N 668.273 5.3776 -2.18619 0
M  V30 7093 H 671.038 1.33767 -2.68191 0
M  V30 7094 H 668.599 0.58948 -1.50787 0
M  V30 7095 H 670.591 3.67159 -1.70225 0
M  V30 7096 H 669.161 2.99979 -0.879284 0
M  V30 7097 H 668.381 2.23774 -3.24529 0
M  V30 7098 H 669.669 3.26089 -3.90568 0
M  V30 7099 H 669.067 5.43177 -1.58035 0
M  V30 7100 H 667.624 6.14023 -2.18674 0
M  V30 7101 N 671.057 1.43213 0.657864 0
M  V30 7102 C 672.005 1.48271 1.79216 0
M  V30 7103 C 672.999 0.35675 1.65601 0
M  V30 7104 O 674.205 0.530535 1.72004 0
M  V30 7105 H 670.58 0.464729 0.591211 0
M  V30 7106 H 672.551 2.43792 1.7207 0
M  V30 7107 C 671.3 1.41837 3.17455 0
M  V30 7108 H 670.623 2.27781 3.28567 0
M  V30 7109 H 672.063 1.49438 3.96793 0
M  V30 7110 C 670.522 0.135347 3.36628 0
M  V30 7111 O 671.052 -0.805199 3.93547 0
M  V30 7112 N 669.258 0.0470316 2.90562 0
M  V30 7113 H 668.805 0.813221 2.44427 0
M  V30 7114 H 668.763 -0.810737 3.03767 0
M  V30 7115 N 672.536 -0.895792 1.29666 0
M  V30 7116 C 673.783 -1.64664 1.17864 0
M  V30 7117 C 674.111 -1.92631 -0.26902 0
M  V30 7118 O 673.366 -1.53787 -1.21029 0
M  V30 7119 C 673.665 -3.00075 1.94139 0
M  V30 7120 C 673.331 -2.91702 3.43833 0
M  V30 7121 C 671.993 -2.89126 3.84656 0
M  V30 7122 C 674.345 -2.80622 4.39205 0
M  V30 7123 C 671.673 -2.73293 5.1916 0
M  V30 7124 C 674.025 -2.66329 5.73805 0
M  V30 7125 C 672.689 -2.62121 6.1388 0
M  V30 7126 H 671.959 -0.602549 0.431295 0
M  V30 7127 H 674.606 -1.04234 1.60648 0
M  V30 7128 H 672.911 -3.64394 1.43958 0
M  V30 7129 H 674.608 -3.57111 1.82408 0
M  V30 7130 H 671.198 -2.94511 3.11386 0
M  V30 7131 H 675.382 -2.81686 4.08615 0
M  V30 7132 H 670.638 -2.68443 5.49316 0
M  V30 7133 H 674.812 -2.56727 6.47352 0
M  V30 7134 H 672.439 -2.49611 7.18052 0
M  V30 7135 N 674.014 -1.12206 -1.10668 0
M  V30 7136 C 675.242 -0.898635 -1.86366 0
M  V30 7137 C 675.657 0.551991 -1.80551 0
M  V30 7138 O 675.014 1.38152 -1.19249 0
M  V30 7139 C 675.065 -1.36199 -3.34861 0
M  V30 7140 O 674.786 -2.75576 -3.40573 0
M  V30 7141 C 676.287 -1.17515 -4.2744 0
M  V30 7142 H 673.507 -0.321281 -0.589084 0
M  V30 7143 H 676.051 -1.49142 -1.39918 0
M  V30 7144 H 674.206 -0.81249 -3.78784 0
M  V30 7145 H 674.62 -2.95851 -4.33096 0
M  V30 7146 H 676.094 -1.54827 -5.29842 0
M  V30 7147 H 676.571 -0.115486 -4.39048 0
M  V30 7148 H 677.177 -1.71203 -3.89319 0
M  V30 7149 N 675.492 1.28418 -0.913599 0
M  V30 7150 C 676.738 1.9527 -0.547484 0
M  V30 7151 C 677.071 1.71745 0.906486 0
M  V30 7152 O 676.346 1.03834 1.64465 0
M  V30 7153 C 676.629 3.49748 -0.857205 0
M  V30 7154 C 676.482 3.82675 -2.3639 0
M  V30 7155 C 677.801 4.3868 -0.353258 0
M  V30 7156 H 674.92 0.709236 -0.200381 0
M  V30 7157 H 677.562 1.51789 -1.14281 0
M  V30 7158 H 675.712 3.86915 -0.350548 0
M  V30 7159 H 677.384 3.55378 -2.94116 0
M  V30 7160 H 675.627 3.29724 -2.81894 0
M  V30 7161 H 676.298 4.90547 -2.53115 0
M  V30 7162 H 678.774 4.08584 -0.787288 0
M  V30 7163 H 677.65 5.45621 -0.599049 0
M  V30 7164 H 677.911 4.35753 0.746413 0
M  V30 7165 N 676.97 0.677563 1.42291 0
M  V30 7166 C 678.198 0.209459 2.05837 0
M  V30 7167 C 678.613 -1.13444 1.50917 0
M  V30 7168 O 677.97 -1.70529 0.65008 0
M  V30 7169 C 678.021 0.138819 3.61233 0
M  V30 7170 O 677.742 1.42962 4.14118 0
M  V30 7171 C 679.243 -0.352449 4.41897 0
M  V30 7172 H 676.463 0.101209 0.663323 0
M  V30 7173 H 679.007 0.925077 1.8238 0
M  V30 7174 H 677.162 -0.527505 3.83792 0
M  V30 7175 H 677.576 1.3048 5.08011 0
M  V30 7176 H 679.05 -0.350778 5.50884 0
M  V30 7177 H 679.527 -1.3882 4.16684 0
M  V30 7178 H 680.133 0.282236 4.24362 0
M  V30 7179 N 678.448 -1.51871 0.421078 0
M  V30 7180 C 679.378 -2.30231 -0.389363 0
M  V30 7181 C 680.359 -1.34946 -1.03555 0
M  V30 7182 O 681.544 -1.63859 -1.04229 0
M  V30 7183 C 678.674 -3.13247 -1.49979 0
M  V30 7184 C 677.628 -4.16677 -0.977966 0
M  V30 7185 C 676.954 -4.88112 -2.1829 0
M  V30 7186 C 678.254 -5.22295 -0.0236775 0
M  V30 7187 H 679.948 -2.98229 0.264524 0
M  V30 7188 H 677.494 -1.43424 0.12866 0
M  V30 7189 H 679.447 -3.66838 -2.07383 0
M  V30 7190 H 678.171 -2.4304 -2.18173 0
M  V30 7191 H 676.83 -3.64114 -0.426245 0
M  V30 7192 H 676.478 -4.14423 -2.85066 0
M  V30 7193 H 676.178 -5.58041 -1.84021 0
M  V30 7194 H 677.702 -5.44521 -2.76278 0
M  V30 7195 H 679.116 -5.71055 -0.506899 0
M  V30 7196 H 677.513 -5.99656 0.230782 0
M  V30 7197 H 678.583 -4.76131 0.917999 0
M  V30 7198 N 679.926 -0.151884 -1.56866 0
M  V30 7199 C 681.203 0.543328 -1.87902 0
M  V30 7200 C 681.583 1.82636 -1.05864 0
M  V30 7201 O 680.931 2.28028 -0.146868 0
M  V30 7202 C 681.141 0.804056 -3.39611 0
M  V30 7203 C 682.489 1.14267 -4.08935 0
M  V30 7204 O 683.513 0.893248 -3.44818 0
M  V30 7205 O 682.372 1.61229 -5.22176 0
M  V30 7206 H 679.466 0.277724 -0.778973 0
M  V30 7207 H 682.012 -0.188862 -1.68646 0
M  V30 7208 H 680.784 -0.103772 -3.91162 0
M  V30 7209 H 680.407 1.59025 -3.64413 0
M  V30 7210 N 681.404 1.57128 0.121893 0
M  V30 7211 C 682.336 1.96773 1.17529 0
M  V30 7212 C 683.349 0.866668 1.37814 0
M  V30 7213 O 684.538 1.14497 1.3694 0
M  V30 7214 C 681.638 2.24832 2.53582 0
M  V30 7215 C 680.811 3.56138 2.53939 0
M  V30 7216 C 679.87 3.72443 3.71716 0
M  V30 7217 O 678.896 4.44584 3.55434 0
M  V30 7218 N 680.098 3.10993 4.90167 0
M  V30 7219 H 682.863 2.87743 0.838086 0
M  V30 7220 H 680.424 1.58881 0.311199 0
M  V30 7221 H 682.416 2.32958 3.30927 0
M  V30 7222 H 680.986 1.40002 2.79496 0
M  V30 7223 H 680.206 3.59226 1.62329 0
M  V30 7224 H 681.494 4.42448 2.51231 0
M  V30 7225 H 680.892 2.52345 5.06299 0
M  V30 7226 H 679.449 3.24644 5.65198 0
M  V30 7227 N 682.882 -0.391992 1.52647 0
M  V30 7228 C 684.128 -1.139 1.67793 0
M  V30 7229 C 684.461 -1.89711 0.41514 0
M  V30 7230 O 683.736 -1.85431 -0.586979 0
M  V30 7231 C 684.019 -2.11966 2.91105 0
M  V30 7232 C 683.872 -1.39939 4.27478 0
M  V30 7233 C 685.191 -3.1243 3.09961 0
M  V30 7234 H 682.31 -0.412707 0.610608 0
M  V30 7235 H 684.952 -0.422725 1.85238 0
M  V30 7236 H 683.102 -2.73048 2.76364 0
M  V30 7237 H 684.774 -0.818439 4.53982 0
M  V30 7238 H 683.017 -0.701246 4.28095 0
M  V30 7239 H 683.688 -2.1158 5.09841 0
M  V30 7240 H 686.164 -2.61435 3.23714 0
M  V30 7241 H 685.04 -3.78294 3.97725 0
M  V30 7242 H 685.301 -3.81127 2.24042 0
M  V30 7243 N 684.36 -1.4356 -0.65026 0
M  V30 7244 C 685.29 -1.51758 -1.77459 0
M  V30 7245 C 686.271 -0.372019 -1.65982 0
M  V30 7246 O 687.456 -0.589627 -1.85033 0
M  V30 7247 C 684.586 -1.44302 -3.15902 0
M  V30 7248 C 683.54 -2.57138 -3.42146 0
M  V30 7249 C 682.866 -2.34735 -4.8042 0
M  V30 7250 C 684.166 -3.99373 -3.36598 0
M  V30 7251 H 685.86 -2.45863 -1.70855 0
M  V30 7252 H 683.406 -1.18333 -0.820566 0
M  V30 7253 H 685.359 -1.48641 -3.94314 0
M  V30 7254 H 684.083 -0.467026 -3.23244 0
M  V30 7255 H 682.742 -2.52157 -2.66106 0
M  V30 7256 H 682.39 -1.35372 -4.84441 0
M  V30 7257 H 682.09 -3.10375 -4.9894 0
M  V30 7258 H 683.614 -2.40862 -5.61086 0
M  V30 7259 H 685.028 -4.05826 -4.04942 0
M  V30 7260 H 683.425 -4.75063 -3.66654 0
M  V30 7261 H 684.495 -4.243 -2.34729 0
M  V30 7262 N 685.838 0.888903 -1.30139 0
M  V30 7263 C 686.768 2.01046 -1.18755 0
M  V30 7264 C 687.749 1.69916 -0.0791438 0
M  V30 7265 O 688.934 1.92445 -0.260498 0
M  V30 7266 C 686.064 3.36109 -0.874518 0
M  V30 7267 C 685.018 3.81486 -1.94043 0
M  V30 7268 C 684.344 5.13796 -1.48047 0
M  V30 7269 C 685.644 4.00637 -3.35093 0
M  V30 7270 H 687.338 2.10828 -2.12584 0
M  V30 7271 H 684.884 1.01298 -1.02346 0
M  V30 7272 H 686.837 4.14089 -0.781548 0
M  V30 7273 H 685.561 3.26449 0.0994519 0
M  V30 7274 H 684.22 3.05731 -2.02297 0
M  V30 7275 H 683.868 5.0056 -0.494878 0
M  V30 7276 H 683.568 5.45127 -2.19341 0
M  V30 7277 H 685.092 5.94305 -1.40121 0
M  V30 7278 H 686.506 4.69067 -3.2962 0
M  V30 7279 H 684.903 4.43339 -4.04438 0
M  V30 7280 H 685.973 3.0462 -3.77273 0
M  V30 7281 N 687.317 1.12792 1.10072 0
M  V30 7282 C 688.733 0.864745 1.34143 0
M  V30 7283 C 688.933 -0.503201 1.95116 0
M  V30 7284 O 687.989 -1.25111 2.19325 0
M  V30 7285 C 689.302 1.98413 2.25949 0
M  V30 7286 C 690.85 2.01545 2.39476 0
M  V30 7287 C 691.325 3.12727 3.34613 0
M  V30 7288 N 692.816 3.12194 3.42183 0
M  V30 7289 C 693.551 3.94862 4.15779 0
M  V30 7290 N 693.047 4.87528 4.92228 0
M  V30 7291 N 694.84 3.82985 4.11435 0
M  V30 7292 H 686.991 2.00926 0.68866 0
M  V30 7293 H 689.254 0.874564 0.365844 0
M  V30 7294 H 688.96 2.97005 1.88364 0
M  V30 7295 H 688.834 1.89254 3.26287 0
M  V30 7296 H 691.221 1.0357 2.76328 0
M  V30 7297 H 691.302 2.14777 1.3894 0
M  V30 7298 H 690.946 4.10936 2.98486 0
M  V30 7299 H 690.876 2.96732 4.35037 0
M  V30 7300 H 693.367 2.45065 2.87666 0
M  V30 7301 H 693.68 5.47109 5.45794 0
M  V30 7302 H 692.025 4.91539 4.9134 0
M  V30 7303 H 695.216 3.09923 3.50807 0
M  V30 7304 H 695.389 4.47641 4.68531 0
M  V30 7305 N 688.795 -1.27931 0.920396 0
M  V30 7306 C 690.035 -1.96459 0.564198 0
M  V30 7307 C 690.399 -1.70802 -0.876967 0
M  V30 7308 O 691.6 -2.32956 -1.34107 0
M  V30 7309 C 689.871 -3.46583 0.872641 0
M  V30 7310 S 691.43 -4.34343 0.623859 0
M  V30 7311 H 688.248 -0.679735 0.208523 0
M  V30 7312 H 690.85 -1.55319 1.18727 0
M  V30 7313 H 689.554 -3.62753 1.91933 0
M  V30 7314 H 689.085 -3.92677 0.238479 0
M  V30 7315 H 691.1 -4.93449 -0.521744 0
M  V30 7316 N 690.273 -0.685099 -1.4193 0
M  V30 7317 C 691.203 -0.0273506 -2.33484 0
M  V30 7318 C 692.184 0.778366 -1.51246 0
M  V30 7319 O 693.369 0.733449 -1.79817 0
M  V30 7320 C 690.499 0.917272 -3.34968 0
M  V30 7321 C 689.453 0.21941 -4.27437 0
M  V30 7322 C 688.779 1.27768 -5.1921 0
M  V30 7323 C 690.079 -0.907894 -5.14349 0
M  V30 7324 H 691.773 -0.791994 -2.88735 0
M  V30 7325 H 689.319 -0.382308 -1.38832 0
M  V30 7326 H 691.272 1.38657 -3.97935 0
M  V30 7327 H 689.996 1.71346 -2.78043 0
M  V30 7328 H 688.655 -0.229757 -3.65879 0
M  V30 7329 H 688.303 2.06612 -4.58607 0
M  V30 7330 H 688.003 0.815803 -5.81909 0
M  V30 7331 H 689.527 1.7477 -5.85054 0
M  V30 7332 H 690.941 -0.519348 -5.70943 0
M  V30 7333 H 689.338 -1.2962 -5.85934 0
M  V30 7334 H 690.408 -1.75218 -4.52136 0
M  V30 7335 N 691.751 1.51645 -0.429126 0
M  V30 7336 C 692.661 2.31288 0.392809 0
M  V30 7337 C 693.677 1.39852 1.03525 0
M  V30 7338 O 694.853 1.72926 1.03241 0
M  V30 7339 C 691.918 3.13347 1.48372 0
M  V30 7340 C 690.979 4.20551 0.862268 0
M  V30 7341 C 690.212 4.98688 1.9012 0
M  V30 7342 O 690.435 4.77359 3.12225 0
M  V30 7343 O 689.369 5.83005 1.4963 0
M  V30 7344 H 693.195 3.02609 -0.257138 0
M  V30 7345 H 690.78 1.48163 -0.191851 0
M  V30 7346 H 692.662 3.64387 2.1166 0
M  V30 7347 H 691.337 2.44799 2.1179 0
M  V30 7348 H 690.244 3.73609 0.191568 0
M  V30 7349 H 691.577 4.91449 0.271704 0
M  V30 7350 N 693.229 0.160201 1.56784 0
M  V30 7351 C 694.179 -0.786461 2.14007 0
M  V30 7352 C 695.163 -1.20046 1.07134 0
M  V30 7353 O 696.355 -1.16468 1.33283 0
M  V30 7354 C 693.484 -2.02024 2.77563 0
M  V30 7355 C 692.57 -1.62874 3.91578 0
M  V30 7356 N 692.961 -0.946176 4.96871 0
M  V30 7357 C 691.259 -1.92054 4.02531 0
M  V30 7358 C 691.96 -0.755084 5.76778 0
M  V30 7359 N 690.936 -1.29307 5.27997 0
M  V30 7360 H 694.738 -0.255879 2.92784 0
M  V30 7361 H 692.252 -0.0408778 1.62349 0
M  V30 7362 H 694.249 -2.70855 3.16928 0
M  V30 7363 H 692.909 -2.55587 2.00263 0
M  V30 7364 H 693.92 -0.605455 5.14349 0
M  V30 7365 H 690.597 -2.47374 3.36322 0
M  V30 7366 H 691.987 -0.216138 6.71552 0
M  V30 7367 N 694.707 -1.5719 -0.113559 0
M  V30 7368 C 695.639 -1.97393 -1.16484 0
M  V30 7369 C 696.652 -0.873964 -1.37352 0
M  V30 7370 O 697.841 -1.15222 -1.36331 0
M  V30 7371 C 694.941 -2.26174 -2.52386 0
M  V30 7372 C 694.114 -3.57479 -2.52046 0
M  V30 7373 C 693.173 -3.74409 -3.69735 0
M  V30 7374 O 692.199 -4.46463 -3.53071 0
M  V30 7375 N 693.401 -3.13588 -4.88511 0
M  V30 7376 H 696.166 -2.88184 -0.822814 0
M  V30 7377 H 693.727 -1.59044 -0.302769 0
M  V30 7378 H 695.719 -2.3471 -3.29687 0
M  V30 7379 H 694.289 -1.41483 -2.7875 0
M  V30 7380 H 693.509 -3.60081 -1.60421 0
M  V30 7381 H 694.797 -4.43775 -2.48881 0
M  V30 7382 H 694.195 -2.55026 -5.04953 0
M  V30 7383 H 692.752 -3.27637 -5.63469 0
M  V30 7384 N 696.185 0.383891 -1.52853 0
M  V30 7385 C 697.117 1.48889 -1.74255 0
M  V30 7386 C 698.13 1.50405 -0.623063 0
M  V30 7387 O 699.319 1.54215 -0.898887 0
M  V30 7388 C 696.419 2.87721 -1.79081 0
M  V30 7389 C 695.592 3.10111 -3.08464 0
M  V30 7390 C 694.651 4.28954 -3.0477 0
M  V30 7391 O 693.677 4.25012 -3.78621 0
M  V30 7392 N 694.879 5.35411 -2.24311 0
M  V30 7393 H 697.644 1.30915 -2.69595 0
M  V30 7394 H 695.205 0.573454 -1.51404 0
M  V30 7395 H 697.197 3.65333 -1.7411 0
M  V30 7396 H 695.767 2.99029 -0.911052 0
M  V30 7397 H 694.987 2.20319 -3.26884 0
M  V30 7398 H 696.275 3.21928 -3.94005 0
M  V30 7399 H 695.673 5.41471 -1.63787 0
M  V30 7400 H 694.23 6.1167 -2.25175 0
M  V30 7401 N 697.663 1.43903 0.642637 0
M  V30 7402 C 698.613 1.46321 1.74854 0
M  V30 7403 C 699.597 0.330361 1.57472 0
M  V30 7404 O 700.789 0.574881 1.67404 0
M  V30 7405 C 697.918 1.39919 3.13493 0
M  V30 7406 C 697.004 2.58274 3.36385 0
M  V30 7407 N 697.395 3.83578 3.29699 0
M  V30 7408 C 695.693 2.53224 3.67142 0
M  V30 7409 C 696.394 4.62375 3.52965 0
M  V30 7410 N 695.37 3.93269 3.75287 0
M  V30 7411 H 699.172 2.41062 1.68126 0
M  V30 7412 H 696.686 1.38704 0.844693 0
M  V30 7413 H 698.683 1.39735 3.92785 0
M  V30 7414 H 697.343 0.46207 3.21395 0
M  V30 7415 H 698.354 4.15713 3.08874 0
M  V30 7416 H 695.031 1.68252 3.82096 0
M  V30 7417 H 696.421 5.714 3.53485 0
M  V30 7418 N 699.141 -0.881989 1.30609 0
M  V30 7419 C 700.387 -1.63649 1.20791 0
M  V30 7420 C 700.742 -1.90966 -0.234437 0
M  V30 7421 O 700.035 -1.52163 -1.16434 0
M  V30 7422 C 700.229 -2.97999 1.97311 0
M  V30 7423 C 700.058 -2.83798 3.48839 0
M  V30 7424 C 698.828 -2.83622 4.18195 0
M  V30 7425 C 701.026 -2.59529 4.44015 0
M  V30 7426 N 699.008 -2.60344 5.55962 0
M  V30 7427 C 700.379 -2.45401 5.69366 0
M  V30 7428 C 702.434 -2.44777 4.33576 0
M  V30 7429 C 701.137 -2.18023 6.85462 0
M  V30 7430 C 703.163 -2.18785 5.49443 0
M  V30 7431 C 702.525 -2.05436 6.73777 0
M  V30 7432 H 698.624 -0.603687 0.497077 0
M  V30 7433 H 701.208 -1.03908 1.64655 0
M  V30 7434 H 699.379 -3.55767 1.55834 0
M  V30 7435 H 701.111 -3.6266 1.79611 0
M  V30 7436 H 697.866 -2.95562 3.70054 0
M  V30 7437 H 698.29 -2.51709 6.28468 0
M  V30 7438 H 702.932 -2.53831 3.38126 0
M  V30 7439 H 700.65 -2.07707 7.8095 0
M  V30 7440 H 704.236 -2.08188 5.43276 0
M  V30 7441 H 703.116 -1.85605 7.61919 0
M  V30 7442 N 700.619 -1.13374 -1.09472 0
M  V30 7443 C 701.567 -0.806105 -2.18185 0
M  V30 7444 C 702.561 0.21136 -1.68076 0
M  V30 7445 O 703.767 0.0685558 -1.79869 0
M  V30 7446 H 700.142 -0.242901 -0.71169 0
M  V30 7447 H 702.113 -1.73115 -2.43051 0
M  V30 7448 C 700.862 -0.287928 -3.46506 0
M  V30 7449 H 700.185 -1.06217 -3.85432 0
M  V30 7450 H 701.625 -0.0971054 -4.23889 0
M  V30 7451 C 700.084 0.986256 -3.22141 0
M  V30 7452 O 700.614 2.06217 -3.44728 0
M  V30 7453 N 698.82 0.917153 -2.75747 0
M  V30 7454 H 698.367 0.0414609 -2.57567 0
M  V30 7455 H 698.325 1.77029 -2.59823 0
M  V30 7456 N 702.098 1.27442 -0.927168 0
M  V30 7457 C 703.048 2.24519 -0.396878 0
M  V30 7458 C 704.032 1.52981 0.498555 0
M  V30 7459 O 705.224 1.7378 0.336087 0
M  V30 7460 C 702.353 3.41514 0.349694 0
M  V30 7461 C 701.439 4.20357 -0.562226 0
M  V30 7462 N 701.83 4.7702 -1.68182 0
M  V30 7463 C 700.128 4.44503 -0.365135 0
M  V30 7464 C 700.829 5.36467 -2.24895 0
M  V30 7465 N 699.805 5.21371 -1.5386 0
M  V30 7466 H 703.607 2.65911 -1.25173 0
M  V30 7467 H 701.121 1.42366 -0.78138 0
M  V30 7468 H 703.118 4.10161 0.746536 0
M  V30 7469 H 701.778 3.01653 1.20148 0
M  V30 7470 H 702.789 4.74985 -2.06421 0
M  V30 7471 H 699.466 4.15111 0.446037 0
M  V30 7472 H 700.856 5.91264 -3.1915 0
M  V30 7473 N 703.576 0.692616 1.41565 0
M  V30 7474 C 704.506 0.0397325 2.33466 0
M  V30 7475 C 705.487 -0.770334 1.51657 0
M  V30 7476 O 706.672 -0.723903 1.80203 0
M  V30 7477 C 703.802 -0.899495 3.3545 0
M  V30 7478 C 702.756 -0.196738 4.27548 0
M  V30 7479 C 702.082 -1.25012 5.19881 0
M  V30 7480 C 703.382 0.935158 5.1386 0
M  V30 7481 H 705.076 0.807296 2.88311 0
M  V30 7482 H 702.622 0.389665 1.38628 0
M  V30 7483 H 704.575 -1.36545 3.98665 0
M  V30 7484 H 703.299 -1.69869 2.78948 0
M  V30 7485 H 701.958 0.249158 3.65752 0
M  V30 7486 H 701.606 -2.04177 4.59696 0
M  V30 7487 H 701.306 -0.784931 5.82334 0
M  V30 7488 H 702.83 -1.71665 5.85972 0
M  V30 7489 H 704.244 0.549619 5.70659 0
M  V30 7490 H 702.641 1.32726 5.85238 0
M  V30 7491 H 703.711 1.77613 4.512 0
M  V30 7492 N 705.054 -1.51416 0.437162 0
M  V30 7493 C 706.331 -1.94682 -0.189292 0
M  V30 7494 C 706.711 -1.37581 -1.60108 0
M  V30 7495 O 706.059 -0.562815 -2.2146 0
M  V30 7496 C 706.269 -3.48599 -0.167201 0
M  V30 7497 C 707.617 -4.2296 -0.372856 0
M  V30 7498 O 708.641 -3.55354 -0.245323 0
M  V30 7499 O 707.5 -5.42895 -0.626693 0
M  V30 7500 H 704.594 -0.816708 -0.130063 0
M  V30 7501 H 707.14 -1.62316 0.495128 0
M  V30 7502 H 705.912 -3.82616 0.81981 0
M  V30 7503 H 705.535 -3.87406 -0.894537 0
M  V30 7504 N 706.532 -0.168513 -1.56696 0
M  V30 7505 C 707.442 0.775435 -2.21414 0
M  V30 7506 C 708.458 1.25529 -1.20492 0
M  V30 7507 O 709.634 1.30801 -1.53144 0
M  V30 7508 C 706.699 1.9886 -2.83999 0
M  V30 7509 C 705.76 1.5559 -4.00113 0
M  V30 7510 C 704.993 2.71124 -4.59704 0
M  V30 7511 O 705.216 3.87917 -4.18182 0
M  V30 7512 O 704.15 2.4536 -5.4962 0
M  V30 7513 H 707.976 0.254416 -3.02632 0
M  V30 7514 H 705.561 0.0595507 -1.49281 0
M  V30 7515 H 707.443 2.69816 -3.23693 0
M  V30 7516 H 706.118 2.49874 -2.05779 0
M  V30 7517 H 705.025 0.815924 -3.65094 0
M  V30 7518 H 706.358 1.09271 -4.79917 0
M  V30 7519 N 708.01 1.57248 0.105221 0
M  V30 7520 C 708.92 2.04653 1.14693 0
M  V30 7521 C 709.936 0.969488 1.44489 0
M  V30 7522 O 711.112 1.28196 1.55331 0
M  V30 7523 C 708.177 2.45297 2.45011 0
M  V30 7524 C 707.238 3.67148 2.22489 0
M  V30 7525 C 706.471 4.05844 3.46592 0
M  V30 7526 O 706.694 3.44736 4.54437 0
M  V30 7527 O 705.628 4.98862 3.36779 0
M  V30 7528 H 709.454 2.93663 0.774336 0
M  V30 7529 H 707.039 1.45998 0.31701 0
M  V30 7530 H 708.921 2.72112 3.21766 0
M  V30 7531 H 707.596 1.59429 2.81717 0
M  V30 7532 H 706.503 3.45463 1.43547 0
M  V30 7533 H 707.836 4.53764 1.9068 0
M  V30 7534 N 709.488 -0.375779 1.53054 0
M  V30 7535 C 710.42 -1.47963 1.75042 0
M  V30 7536 C 711.433 -1.50073 0.631031 0
M  V30 7537 O 712.622 -1.53736 0.907052 0
M  V30 7538 C 709.722 -2.86767 1.80604 0
M  V30 7539 C 708.895 -3.08471 3.10104 0
M  V30 7540 C 707.954 -4.27332 3.07041 0
M  V30 7541 O 706.98 -4.22998 3.80869 0
M  V30 7542 N 708.182 -5.34214 2.27147 0
M  V30 7543 H 710.947 -1.29484 2.70285 0
M  V30 7544 H 708.508 -0.565416 1.51706 0
M  V30 7545 H 710.5 -3.64404 1.76045 0
M  V30 7546 H 709.07 -2.98542 0.926897 0
M  V30 7547 H 708.29 -2.18583 3.28048 0
M  V30 7548 H 709.578 -3.19834 3.95706 0
M  V30 7549 H 708.976 -5.40594 1.66656 0
M  V30 7550 H 707.533 -6.10467 2.28415 0
M  V30 7551 N 710.966 -1.44241 -0.634997 0
M  V30 7552 C 711.929 -1.50457 -1.72903 0
M  V30 7553 C 712.929 -0.387058 -1.56072 0
M  V30 7554 O 714.119 -0.649531 -1.61638 0
M  V30 7555 C 711.251 -1.37477 -3.1195 0
M  V30 7556 H 712.444 -2.47907 -1.68767 0
M  V30 7557 H 709.997 -1.31276 -0.84831 0
M  V30 7558 H 710.732 -0.41106 -3.21684 0
M  V30 7559 H 710.517 -2.18506 -3.25573 0
M  V30 7560 H 712.007 -1.44799 -3.91692 0
M  V30 7561 N 712.444 0.87505 -1.31075 0
M  V30 7562 C 713.669 1.66583 -1.23551 0
M  V30 7563 C 714.094 1.87067 0.19686 0
M  V30 7564 O 713.452 1.40877 1.1412 0
M  V30 7565 C 713.5 3.01401 -1.97965 0
M  V30 7566 O 712.604 3.90923 -1.31351 0
M  V30 7567 H 711.945 0.508645 -0.426821 0
M  V30 7568 H 714.475 1.09139 -1.7306 0
M  V30 7569 H 714.485 3.51374 -2.07366 0
M  V30 7570 H 713.16 2.85812 -3.02133 0
M  V30 7571 H 711.737 3.49369 -1.30368 0
M  V30 7572 N 713.922 1.13953 1.08869 0
M  V30 7573 C 715.333 0.916649 1.62648 0
M  V30 7574 C 715.684 -0.545589 1.88462 0
M  V30 7575 O 714.809 -1.41351 1.63856 0
M  V30 7576 C 715.404 1.65751 2.95486 0
M  V30 7577 C 713.963 1.48034 3.46068 0
M  V30 7578 C 713.11 1.68305 2.20383 0
M  V30 7579 H 716.061 1.292 0.921572 0
M  V30 7580 H 716.082 1.11794 3.63707 0
M  V30 7581 H 715.594 2.72171 2.76667 0
M  V30 7582 H 713.695 0.439416 3.7 0
M  V30 7583 H 713.808 2.24719 4.23129 0
M  V30 7584 H 712.172 1.10833 2.29321 0
M  V30 7585 H 712.955 2.76057 2.04077 0
M  V30 7586 N 715.4 -1.26948 0.933913 0
M  V30 7587 C 716.677 -1.89212 0.495784 0
M  V30 7588 C 717.057 -1.84469 -1.02637 0
M  V30 7589 O 716.405 -1.29409 -1.88323 0
M  V30 7590 C 716.615 -3.32865 1.0489 0
M  V30 7591 C 717.963 -4.09749 1.11315 0
M  V30 7592 O 718.987 -3.41905 0.998966 0
M  V30 7593 O 717.846 -5.31061 1.28983 0
M  V30 7594 H 714.94 -0.811284 0.160459 0
M  V30 7595 H 717.486 -1.35171 1.02601 0
M  V30 7596 H 716.258 -3.30642 2.09265 0
M  V30 7597 H 715.881 -3.94435 0.500692 0
M  V30 7598 N 716.879 -0.700114 -1.41195 0
M  V30 7599 C 717.809 -0.0521132 -2.33442 0
M  V30 7600 C 718.79 0.76228 -1.52063 0
M  V30 7601 O 719.975 0.714336 -1.80585 0
M  V30 7602 C 717.105 0.881693 -3.35922 0
M  V30 7603 C 716.059 0.174062 -4.27646 0
M  V30 7604 C 715.385 1.22254 -5.20536 0
M  V30 7605 C 716.685 -0.962396 -5.13357 0
M  V30 7606 H 718.379 -0.822574 -2.87879 0
M  V30 7607 H 715.925 -0.397011 -1.38419 0
M  V30 7608 H 717.878 1.34429 -3.99383 0
M  V30 7609 H 716.602 1.68387 -2.79845 0
M  V30 7610 H 715.261 -0.268551 -3.65615 0
M  V30 7611 H 714.909 2.01736 -4.60773 0
M  V30 7612 H 714.609 0.754038 -5.82742 0
M  V30 7613 H 716.133 1.68555 -5.86874 0
M  V30 7614 H 717.547 -0.579875 -5.7036 0
M  V30 7615 H 715.944 -1.35828 -5.84526 0
M  V30 7616 H 717.014 -1.80003 -4.50252 0
M  V30 7617 N 718.357 1.51182 -0.445186 0
M  V30 7618 C 719.603 2.03097 0.111049 0
M  V30 7619 C 719.958 1.32293 1.397 0
M  V30 7620 O 719.251 0.431529 1.86677 0
M  V30 7621 C 719.445 3.55408 0.376797 0
M  V30 7622 C 719.274 4.40969 -0.88185 0
M  V30 7623 C 718.044 4.85006 -1.41766 0
M  V30 7624 C 720.242 4.82876 -1.77017 0
M  V30 7625 N 718.224 5.54804 -2.62803 0
M  V30 7626 C 719.595 5.51821 -2.82654 0
M  V30 7627 C 721.65 4.64855 -1.78365 0
M  V30 7628 C 720.353 6.04655 -3.89595 0
M  V30 7629 C 722.379 5.18612 -2.84246 0
M  V30 7630 C 721.741 5.87509 -3.88603 0
M  V30 7631 H 717.84 0.781999 0.0012696 0
M  V30 7632 H 720.424 1.84976 -0.60761 0
M  V30 7633 H 718.595 3.73528 1.06449 0
M  V30 7634 H 720.327 3.93985 0.925082 0
M  V30 7635 H 717.082 4.6355 -0.970476 0
M  V30 7636 H 717.506 5.94326 -3.24201 0
M  V30 7637 H 722.148 4.11043 -0.990119 0
M  V30 7638 H 719.866 6.57518 -4.69782 0
M  V30 7639 H 723.452 5.06515 -2.86241 0
M  V30 7640 H 722.332 6.28358 -4.69186 0
M  V30 7641 N 719.835 0.176821 1.56605 0
M  V30 7642 C 721.06 -0.47599 2.01864 0
M  V30 7643 C 721.485 -1.55645 1.05623 0
M  V30 7644 O 720.843 -1.81263 0.0366729 0
M  V30 7645 C 720.891 -1.02619 3.4569 0
M  V30 7646 O 719.995 -2.13996 3.52533 0
M  V30 7647 H 719.336 -0.113363 0.654251 0
M  V30 7648 H 721.866 0.28233 2.02643 0
M  V30 7649 H 721.876 -1.34742 3.85109 0
M  V30 7650 H 720.551 -0.235138 4.15235 0
M  V30 7651 H 719.128 -1.82876 3.24978 0
M  V30 7652 N 721.313 -1.57302 -0.09688 0
M  V30 7653 C 722.276 -2.00976 -1.10188 0
M  V30 7654 C 723.276 -0.903009 -1.3305 0
M  V30 7655 O 724.466 -1.16853 -1.29194 0
M  V30 7656 C 721.598 -2.36893 -2.45142 0
M  V30 7657 H 722.791 -2.9098 -0.726003 0
M  V30 7658 H 720.344 -1.52515 -0.341872 0
M  V30 7659 H 721.079 -1.49837 -2.8761 0
M  V30 7660 H 720.864 -3.17632 -2.29897 0
M  V30 7661 H 722.354 -2.71345 -3.1743 0
M  V30 7662 N 722.791 0.367657 -1.53252 0
M  V30 7663 C 724.202 0.944563 -1.61043 0
M  V30 7664 C 724.553 1.90325 -0.476546 0
M  V30 7665 O 723.678 2.12721 0.397333 0
M  V30 7666 C 724.273 1.71992 -2.91898 0
M  V30 7667 C 722.832 2.2462 -3.02031 0
M  V30 7668 C 721.979 1.05799 -2.56324 0
M  V30 7669 H 724.93 0.146516 -1.58022 0
M  V30 7670 H 724.951 2.58095 -2.79584 0
M  V30 7671 H 724.463 1.02192 -3.74404 0
M  V30 7672 H 722.564 2.97668 -2.24108 0
M  V30 7673 H 722.677 2.52644 -4.07073 0
M  V30 7674 H 721.041 1.42435 -2.1115 0
M  V30 7675 H 721.824 0.375008 -3.41246 0
M  V30 7676 N 724.269 1.44576 0.627338 0
M  V30 7677 C 725.494 1.51271 1.41887 0
M  V30 7678 C 725.919 0.139814 1.8758 0
M  V30 7679 O 725.277 -0.871746 1.58966 0
M  V30 7680 C 725.325 2.48529 2.61277 0
M  V30 7681 O 724.429 1.98944 3.61241 0
M  V30 7682 H 723.77 0.510668 0.424399 0
M  V30 7683 H 726.3 1.89746 0.765356 0
M  V30 7684 H 726.31 2.66689 3.08773 0
M  V30 7685 H 724.985 3.48249 2.27366 0
M  V30 7686 H 723.562 1.90568 3.20528 0
M  V30 7687 N 725.747 -0.868086 1.31537 0
M  V30 7688 C 727.158 -1.437 1.19195 0
M  V30 7689 C 727.509 -1.95169 -0.200842 0
M  V30 7690 O 726.634 -1.86432 -1.09872 0
M  V30 7691 C 727.229 -2.612 2.15778 0
M  V30 7692 C 725.788 -3.1413 2.07363 0
M  V30 7693 C 724.935 -1.86845 2.049 0
M  V30 7694 H 727.886 -0.676457 1.43561 0
M  V30 7695 H 727.907 -3.37948 1.74847 0
M  V30 7696 H 727.419 -2.23709 3.17137 0
M  V30 7697 H 725.52 -3.56238 1.09204 0
M  V30 7698 H 725.633 -3.76285 2.96557 0
M  V30 7699 H 723.997 -2.05886 1.49943 0
M  V30 7700 H 724.78 -1.51589 3.08019 0
M  V30 7701 N 727.225 -1.14528 -1.08264 0
M  V30 7702 C 728.135 -0.84728 -2.18765 0
M  V30 7703 C 729.151 0.172826 -1.7314 0
M  V30 7704 O 730.327 0.000985336 -2.014 0
M  V30 7705 C 727.392 -0.330633 -3.4512 0
M  V30 7706 C 726.453 -1.41348 -4.05363 0
M  V30 7707 C 725.686 -0.921387 -5.25686 0
M  V30 7708 O 725.909 0.236587 -5.69909 0
M  V30 7709 O 724.843 -1.70101 -5.77364 0
M  V30 7710 H 728.669 -1.7708 -2.46731 0
M  V30 7711 H 726.254 -0.923661 -1.17426 0
M  V30 7712 H 728.136 -0.0485053 -4.21372 0
M  V30 7713 H 726.811 0.565147 -3.18728 0
M  V30 7714 H 725.718 -1.74908 -3.30693 0
M  V30 7715 H 727.051 -2.28383 -4.36007 0
M  V30 7716 N 728.703 1.26451 -0.940633 0
M  V30 7717 C 730.114 1.75726 -0.630653 0
M  V30 7718 C 730.465 1.76631 0.854167 0
M  V30 7719 O 729.59 1.37807 1.66848 0
M  V30 7720 C 730.185 3.19114 -1.13805 0
M  V30 7721 C 728.744 3.66005 -0.878497 0
M  V30 7722 C 727.891 2.45505 -1.28928 0
M  V30 7723 H 730.842 1.12535 -1.119 0
M  V30 7724 H 730.863 3.77311 -0.491625 0
M  V30 7725 H 730.375 3.18424 -2.21874 0
M  V30 7726 H 728.476 3.72126 0.187833 0
M  V30 7727 H 728.589 4.54844 -1.50512 0
M  V30 7728 H 726.953 2.4467 -0.707713 0
M  V30 7729 H 727.736 2.47516 -2.37888 0
M  V30 7730 N 730.181 0.707592 1.40822 0
M  V30 7731 C 731.429 0.243189 2.00632 0
M  V30 7732 C 731.75 -1.16512 1.56365 0
M  V30 7733 O 731.02 -1.78841 0.799553 0
M  V30 7734 H 729.6 0.0869203 0.741926 0
M  V30 7735 H 732.262 0.911438 1.72275 0
M  V30 7736 H 731.358 0.270014 3.1093 0
M  V30 7737 N 731.66 -1.50943 0.453197 0
M  V30 7738 C 732.908 -2.01813 -0.107709 0
M  V30 7739 C 733.229 -1.33841 -1.41816 0
M  V30 7740 O 732.499 -0.477973 -1.8998 0
M  V30 7741 H 731.079 -0.745773 -0.0427948 0
M  V30 7742 H 733.741 -1.8545 0.599531 0
M  V30 7743 H 732.837 -3.10911 -0.27218 0
M  V30 7744 N 733.138 -0.185124 -1.56509 0
M  V30 7745 C 734.363 0.465278 -2.02114 0
M  V30 7746 C 734.788 1.55083 -1.06447 0
M  V30 7747 O 734.146 1.81241 -0.0462852 0
M  V30 7748 C 734.194 1.00784 -3.46229 0
M  V30 7749 O 733.298 2.12123 -3.53663 0
M  V30 7750 H 732.639 0.109891 -0.654843 0
M  V30 7751 H 735.169 -0.293072 -2.0249 0
M  V30 7752 H 735.179 1.32697 -3.85818 0
M  V30 7753 H 733.854 0.213113 -4.15354 0
M  V30 7754 H 732.431 1.8115 -3.25943 0
M  V30 7755 N 734.616 1.57351 0.0885366 0
M  V30 7756 C 735.579 2.01557 1.09121 0
M  V30 7757 C 736.579 0.910052 1.3257 0
M  V30 7758 O 737.769 1.17537 1.28572 0
M  V30 7759 C 734.901 2.38189 2.43883 0
M  V30 7760 H 736.094 2.91361 0.710562 0
M  V30 7761 H 733.647 1.52694 0.333779 0
M  V30 7762 H 734.382 1.5136 2.86811 0
M  V30 7763 H 734.167 3.18846 2.28209 0
M  V30 7764 H 735.657 2.73025 3.15986 0
M  V30 7765 N 736.094 -0.359525 1.53444 0
M  V30 7766 C 737.319 -1.12644 1.74144 0
M  V30 7767 C 737.744 -1.82082 0.472007 0
M  V30 7768 O 737.102 -1.71962 -0.57436 0
M  V30 7769 C 737.15 -2.12781 2.9113 0
M  V30 7770 O 736.254 -3.19984 2.60162 0
M  V30 7771 H 735.595 -0.326553 0.578152 0
M  V30 7772 H 738.125 -0.414798 2.00351 0
M  V30 7773 H 738.135 -2.56278 3.17467 0
M  V30 7774 H 736.81 -1.61634 3.83207 0
M  V30 7775 H 735.387 -2.81417 2.44661 0
M  V30 7776 N 737.572 -1.44907 -0.619662 0
M  V30 7777 C 738.502 -1.55488 -1.742 0
M  V30 7778 C 739.483 -0.407143 -1.65156 0
M  V30 7779 O 740.668 -0.628743 -1.8374 0
M  V30 7780 C 737.798 -1.5097 -3.1277 0
M  V30 7781 C 736.752 -2.64337 -3.36615 0
M  V30 7782 C 736.078 -2.44872 -4.75333 0
M  V30 7783 C 737.378 -4.06423 -3.28051 0
M  V30 7784 H 739.072 -2.49432 -1.65602 0
M  V30 7785 H 736.618 -1.20047 -0.795281 0
M  V30 7786 H 738.571 -1.56971 -3.91073 0
M  V30 7787 H 737.295 -0.535486 -3.2218 0
M  V30 7788 H 735.954 -2.57744 -2.60698 0
M  V30 7789 H 735.602 -1.45617 -4.81461 0
M  V30 7790 H 735.302 -3.20888 -4.92244 0
M  V30 7791 H 736.826 -2.52709 -5.55851 0
M  V30 7792 H 738.24 -4.14324 -3.96243 0
M  V30 7793 H 736.637 -4.82733 -3.56495 0
M  V30 7794 H 737.707 -4.29183 -2.25676 0
M  V30 7795 N 739.05 0.861098 -1.31996 0
M  V30 7796 C 739.98 1.98482 -1.22993 0
M  V30 7797 C 740.961 1.6971 -0.115168 0
M  V30 7798 O 742.146 1.91849 -0.30126 0
M  V30 7799 C 739.276 3.34179 -0.945615 0
M  V30 7800 C 738.23 3.77284 -2.02091 0
M  V30 7801 C 737.556 5.1054 -1.58912 0
M  V30 7802 C 738.856 3.93439 -3.43515 0
M  V30 7803 H 740.55 2.06271 -2.17008 0
M  V30 7804 H 738.096 0.991043 -1.04472 0
M  V30 7805 H 740.049 4.12338 -0.869206 0
M  V30 7806 H 738.773 3.26586 0.0301849 0
M  V30 7807 H 737.432 3.01371 -2.08737 0
M  V30 7808 H 737.08 4.99397 -0.600942 0
M  V30 7809 H 736.78 5.40352 -2.30854 0
M  V30 7810 H 738.304 5.91199 -1.52696 0
M  V30 7811 H 739.718 4.6197 -3.39495 0
M  V30 7812 H 738.115 4.34661 -4.13751 0
M  V30 7813 H 739.185 2.96548 -3.8365 0
M  V30 7814 N 740.528 1.15101 1.07655 0
M  V30 7815 C 741.458 0.867864 2.16773 0
M  V30 7816 C 742.439 -0.180283 1.69142 0
M  V30 7817 O 743.624 -0.0353152 1.94168 0
M  V30 7818 C 740.754 0.35299 3.45501 0
M  V30 7819 C 739.708 1.33746 4.06566 0
M  V30 7820 C 739.034 0.681562 5.30338 0
M  V30 7821 C 740.334 2.7024 4.46954 0
M  V30 7822 H 742.028 1.78034 2.40716 0
M  V30 7823 H 739.574 0.857435 1.15689 0
M  V30 7824 H 741.527 0.142465 4.21159 0
M  V30 7825 H 740.251 -0.594945 3.21135 0
M  V30 7826 H 738.91 1.53429 3.32949 0
M  V30 7827 H 738.558 -0.272422 5.02262 0
M  V30 7828 H 738.258 1.33853 5.72151 0
M  V30 7829 H 739.782 0.48074 6.08705 0
M  V30 7830 H 741.196 2.5442 5.13754 0
M  V30 7831 H 739.593 3.32282 4.99709 0
M  V30 7832 H 740.663 3.26537 3.58471 0
M  V30 7833 N 742.006 -1.2595 0.947325 0
M  V30 7834 C 742.969 -2.24407 0.466285 0
M  V30 7835 C 743.969 -1.55054 -0.426005 0
M  V30 7836 O 745.159 -1.7275 -0.224319 0
M  V30 7837 C 742.291 -3.39326 -0.327201 0
M  V30 7838 H 743.484 -2.68477 1.33642 0
M  V30 7839 H 741.037 -1.38211 0.729887 0
M  V30 7840 H 741.772 -3.00667 -1.21532 0
M  V30 7841 H 741.557 -3.9085 0.312839 0
M  V30 7842 H 743.047 -4.12455 -0.653477 0
M  V30 7843 N 743.484 -0.715051 -1.40445 0
M  V30 7844 C 744.895 -0.326763 -1.83818 0
M  V30 7845 C 745.246 1.13851 -1.59789 0
M  V30 7846 O 744.371 1.87611 -1.07848 0
M  V30 7847 C 744.966 -0.586297 -3.33688 0
M  V30 7848 C 743.525 -0.251724 -3.75557 0
M  V30 7849 C 742.672 -0.858928 -2.63662 0
M  V30 7850 H 745.623 -0.914241 -1.2972 0
M  V30 7851 H 745.644 0.148636 -3.8021 0
M  V30 7852 H 745.156 -1.65281 -3.51146 0
M  V30 7853 H 743.257 0.809754 -3.63695 0
M  V30 7854 H 743.37 -0.720348 -4.73654 0
M  V30 7855 H 741.734 -0.287013 -2.53078 0
M  V30 7856 H 742.517 -1.9297 -2.83932 0
M  V30 7857 N 744.962 1.50701 -0.461195 0
M  V30 7858 C 745.912 2.25195 0.35653 0
M  V30 7859 C 746.896 1.2838 0.96992 0
M  V30 7860 O 748.088 1.53338 0.884108 0
M  V30 7861 C 745.217 3.11471 1.44364 0
M  V30 7862 C 744.303 4.15729 0.83847 0
M  V30 7863 N 744.694 5.05788 -0.0353198 0
M  V30 7864 C 742.992 4.32133 1.1035 0
M  V30 7865 C 743.693 5.80472 -0.37774 0
M  V30 7866 N 742.669 5.43049 0.24463 0
M  V30 7867 H 746.471 2.92188 -0.316746 0
M  V30 7868 H 743.985 1.60059 -0.274725 0
M  V30 7869 H 745.982 3.63436 2.04255 0
M  V30 7870 H 744.642 2.46025 2.11901 0
M  V30 7871 H 745.653 5.16326 -0.403465 0
M  V30 7872 H 742.33 3.77908 1.77458 0
M  V30 7873 H 743.72 6.62996 -1.09024 0
M  V30 7874 N 746.441 0.193421 1.56409 0
M  V30 7875 C 747.852 -0.319471 1.83946 0
M  V30 7876 C 748.203 -1.61505 1.11403 0
M  V30 7877 O 747.328 -2.13139 0.374289 0
M  V30 7878 C 747.923 -0.586411 3.33686 0
M  V30 7879 C 746.482 -1.04368 3.61641 0
M  V30 7880 C 745.629 -0.0913834 2.77149 0
M  V30 7881 H 748.58 0.417242 1.53117 0
M  V30 7882 H 748.601 -1.43591 3.52366 0
M  V30 7883 H 748.113 0.356701 3.86457 0
M  V30 7884 H 746.214 -2.00113 3.14302 0
M  V30 7885 H 746.327 -0.937549 4.69837 0
M  V30 7886 H 744.691 -0.592954 2.47702 0
M  V30 7887 H 745.474 0.846142 3.32709 0
M  V30 7888 N 747.919 -1.57396 -0.0801906 0
M  V30 7889 C 749.33 -1.75642 -0.633002 0
M  V30 7890 C 749.681 -0.817708 -1.78348 0
M  V30 7891 O 748.806 0.000233743 -2.164 0
M  V30 7892 C 749.401 -3.18502 -1.15507 0
M  V30 7893 C 747.96 -3.38121 -1.65381 0
M  V30 7894 C 747.107 -2.71386 -0.569661 0
M  V30 7895 H 750.058 -1.58027 0.145949 0
M  V30 7896 H 750.079 -3.22198 -2.02408 0
M  V30 7897 H 749.591 -3.86799 -0.317515 0
M  V30 7898 H 747.692 -2.74926 -2.51488 0
M  V30 7899 H 747.805 -4.46521 -1.73654 0
M  V30 7900 H 746.169 -2.33702 -1.0127 0
M  V30 7901 H 746.952 -3.42332 0.257561 0
M  V30 7902 N 749.397 0.351382 -1.53633 0
M  V30 7903 C 750.347 1.4316 -1.77452 0
M  V30 7904 C 751.331 1.48076 -0.62946 0
M  V30 7905 O 752.523 1.53078 -0.888599 0
M  V30 7906 C 749.652 2.80409 -1.98055 0
M  V30 7907 C 748.738 2.79915 -3.18604 0
M  V30 7908 N 749.129 2.49057 -4.40232 0
M  V30 7909 C 747.427 3.11067 -3.19614 0
M  V30 7910 C 748.128 2.566 -5.22045 0
M  V30 7911 N 747.104 2.919 -4.5858 0
M  V30 7912 H 750.906 1.18188 -2.69089 0
M  V30 7913 H 748.42 0.559684 -1.52451 0
M  V30 7914 H 750.417 3.58231 -2.13251 0
M  V30 7915 H 749.077 3.06334 -1.07655 0
M  V30 7916 H 750.088 2.22395 -4.67719 0
M  V30 7917 H 746.765 3.42215 -2.39154 0
M  V30 7918 H 748.155 2.35968 -6.29101 0
M  V30 7919 N 750.875 1.45233 0.611969 0
M  V30 7920 C 752.103 1.52539 1.39784 0
M  V30 7921 C 752.518 0.156533 1.8815 0
M  V30 7922 O 751.875 -0.84112 1.61961 0
M  V30 7923 C 751.926 2.50614 2.60528 0
M  V30 7924 O 751.647 3.8218 2.14173 0
M  V30 7925 C 753.148 2.67574 3.53439 0
M  V30 7926 H 750.368 0.51674 0.428043 0
M  V30 7927 H 752.912 1.90379 0.746727 0
M  V30 7928 H 751.067 2.15858 3.2169 0
M  V30 7929 H 751.481 4.35305 2.92592 0
M  V30 7930 H 752.955 3.40184 4.34717 0
M  V30 7931 H 753.432 1.73458 4.03496 0
M  V30 7932 H 754.038 3.0331 2.98133 0
M  V30 7933 N 752.353 -0.854086 1.3245 0
M  V30 7934 C 753.593 -1.62216 1.2436 0
M  V30 7935 C 753.957 -1.91042 -0.191564 0
M  V30 7936 O 755.158 -2.65864 -0.396211 0
M  V30 7937 C 753.429 -2.9066 2.0797 0
M  V30 7938 S 754.988 -3.81438 2.16911 0
M  V30 7939 H 751.806 -0.556386 0.442669 0
M  V30 7940 H 754.408 -1.01139 1.67305 0
M  V30 7941 H 753.112 -2.6743 3.11302 0
M  V30 7942 H 752.643 -3.56753 1.65805 0
M  V30 7943 H 754.658 -4.78347 1.31903 0
M  V30 7944 N 753.831 -1.1567 -1.07043 0
M  V30 7945 C 755.056 -0.957946 -1.83952 0
M  V30 7946 C 755.481 0.488807 -1.81638 0
M  V30 7947 O 754.839 1.34869 -1.21162 0
M  V30 7948 C 754.887 -1.48064 -3.288 0
M  V30 7949 O 753.991 -0.681921 -4.06723 0
M  V30 7950 H 753.332 -0.341453 -0.569479 0
M  V30 7951 H 755.862 -1.53728 -1.35015 0
M  V30 7952 H 755.872 -1.49484 -3.7963 0
M  V30 7953 H 754.547 -2.53388 -3.29799 0
M  V30 7954 H 753.124 -0.737612 -3.65532 0
M  V30 7955 N 755.309 1.25446 -0.953992 0
M  V30 7956 C 756.272 2.24156 -0.478179 0
M  V30 7957 C 757.272 1.55278 0.417776 0
M  V30 7958 O 758.462 1.72866 0.215155 0
M  V30 7959 C 755.594 3.39495 0.309202 0
M  V30 7960 H 756.787 2.67764 -1.35064 0
M  V30 7961 H 754.34 1.37822 -0.737206 0
M  V30 7962 H 755.075 3.01307 1.19936 0
M  V30 7963 H 754.86 3.90679 -0.333562 0
M  V30 7964 H 756.35 4.12796 0.631594 0
M  V30 7965 N 756.787 0.722489 1.40064 0
M  V30 7966 C 758.012 0.273446 2.05589 0
M  V30 7967 C 758.437 -1.07875 1.54093 0
M  V30 7968 O 757.795 -1.68095 0.679252 0
M  V30 7969 C 757.843 0.271023 3.5958 0
M  V30 7970 O 756.947 -0.745499 4.05606 0
M  V30 7971 H 756.288 0.126856 0.65177 0
M  V30 7972 H 758.818 0.984906 1.79334 0
M  V30 7973 H 758.828 0.111084 4.07849 0
M  V30 7974 H 757.503 1.25776 3.96425 0
M  V30 7975 H 756.08 -0.552719 3.68781 0
M  V30 7976 N 758.265 -1.50454 0.469181 0
M  V30 7977 C 759.49 -2.0722 -0.0864892 0
M  V30 7978 C 759.915 -1.33098 -1.32916 0
M  V30 7979 O 759.273 -0.378084 -1.77314 0
M  V30 7980 C 759.321 -3.58845 -0.355384 0
M  V30 7981 O 758.425 -3.86583 -1.43622 0
M  V30 7982 H 757.766 -0.663889 0.0121414 0
M  V30 7983 H 760.296 -1.93674 0.659674 0
M  V30 7984 H 760.306 -4.03617 -0.596447 0
M  V30 7985 H 758.981 -4.12211 0.552698 0
M  V30 7986 H 757.558 -3.5365 -1.18262 0
M  V30 7987 N 759.743 -0.201713 -1.56304 0
M  V30 7988 C 760.673 0.71155 -2.22394 0
M  V30 7989 C 761.654 1.21625 -1.18917 0
M  V30 7990 O 762.839 1.26388 -1.47444 0
M  V30 7991 C 759.969 1.92837 -2.88845 0
M  V30 7992 C 758.923 1.55831 -3.98623 0
M  V30 7993 C 758.249 2.85228 -4.52271 0
M  V30 7994 C 759.549 0.763249 -5.16693 0
M  V30 7995 H 761.243 0.160573 -2.98969 0
M  V30 7996 H 758.789 0.0757916 -1.438 0
M  V30 7997 H 760.742 2.57253 -3.33764 0
M  V30 7998 H 759.466 2.50398 -2.09686 0
M  V30 7999 H 758.125 0.9377 -3.54405 0
M  V30 8000 H 757.773 3.40893 -3.69866 0
M  V30 8001 H 757.473 2.6121 -5.26349 0
M  V30 8002 H 758.997 3.50622 -4.99897 0
M  V30 8003 H 760.411 1.31066 -5.58117 0
M  V30 8004 H 758.808 0.620935 -5.96879 0
M  V30 8005 H 759.878 -0.234322 -4.84334 0
M  V30 8006 N 761.222 1.57436 0.0718424 0
M  V30 8007 C 762.468 1.87525 0.772149 0
M  V30 8008 C 762.801 0.79399 1.77227 0
M  V30 8009 O 762.076 -0.195733 1.93513 0
M  V30 8010 C 762.359 3.28272 1.48018 0
M  V30 8011 C 762.212 4.47052 0.49647 0
M  V30 8012 C 763.531 3.67256 2.42509 0
M  V30 8013 H 760.65 0.682049 0.279245 0
M  V30 8014 H 763.292 1.89967 0.03534 0
M  V30 8015 H 761.442 3.26321 2.10824 0
M  V30 8016 H 763.114 4.61127 -0.126375 0
M  V30 8017 H 761.357 4.33392 -0.188205 0
M  V30 8018 H 762.028 5.42315 1.02949 0
M  V30 8019 H 764.504 3.70301 1.89781 0
M  V30 8020 H 763.38 4.66626 2.89053 0
M  V30 8021 H 763.641 2.97186 3.27312 0
M  V30 8022 N 762.7 -0.34323 1.53817 0
M  V30 8023 C 763.947 -1.08344 1.71079 0
M  V30 8024 C 764.275 -1.88633 0.474133 0
M  V30 8025 O 763.53 -1.87984 -0.544116 0
M  V30 8026 C 763.829 -2.05195 2.92626 0
M  V30 8027 C 763.495 -1.41215 4.28216 0
M  V30 8028 C 762.157 -1.23495 4.65083 0
M  V30 8029 C 764.509 -0.951273 5.12445 0
M  V30 8030 C 761.837 -0.583065 5.83796 0
M  V30 8031 C 764.189 -0.313292 6.31824 0
M  V30 8032 C 762.853 -0.123779 6.67385 0
M  V30 8033 H 762.123 -0.396458 0.626021 0
M  V30 8034 H 764.77 -0.362689 1.88034 0
M  V30 8035 H 763.075 -2.83653 2.70275 0
M  V30 8036 H 764.772 -2.62462 3.03175 0
M  V30 8037 H 761.362 -1.56005 3.992 0
M  V30 8038 H 765.546 -1.07602 4.84495 0
M  V30 8039 H 760.802 -0.424854 6.09922 0
M  V30 8040 H 764.976 0.0519179 6.96381 0
M  V30 8041 H 762.603 0.383398 7.59233 0
M  V30 8042 N 764.178 -1.45556 -0.604258 0
M  V30 8043 C 765.403 -1.53509 -1.39462 0
M  V30 8044 C 765.828 -0.169638 -1.87333 0
M  V30 8045 O 765.186 0.846346 -1.60333 0
M  V30 8046 C 765.234 -2.52654 -2.5729 0
M  V30 8047 O 764.338 -2.04666 -3.5803 0
M  V30 8048 H 763.679 -0.517355 -0.416221 0
M  V30 8049 H 766.209 -1.90939 -0.735072 0
M  V30 8050 H 766.219 -2.71568 -3.04491 0
M  V30 8051 H 764.894 -3.51823 -2.21797 0
M  V30 8052 H 763.471 -1.95643 -3.17456 0
M  V30 8053 N 765.656 0.84705 -1.32902 0
M  V30 8054 C 766.896 1.61554 -1.25218 0
M  V30 8055 C 767.26 1.91141 0.18143 0
M  V30 8056 O 768.461 2.6607 0.382106 0
M  V30 8057 C 766.732 2.89553 -2.09509 0
M  V30 8058 S 768.291 3.80283 -2.18931 0
M  V30 8059 H 765.109 0.554031 -0.445613 0
M  V30 8060 H 767.711 1.00251 -1.67839 0
M  V30 8061 H 766.415 2.65776 -3.12716 0
M  V30 8062 H 765.946 3.55868 -1.67694 0
M  V30 8063 H 767.961 4.77641 -1.34438 0
M  V30 8064 N 767.134 1.16236 1.06428 0
M  V30 8065 C 768.383 0.937523 1.78587 0
M  V30 8066 C 768.696 -0.536 1.88113 0
M  V30 8067 O 769.902 -0.878697 2.56887 0
M  V30 8068 C 768.358 1.62808 3.2097 0
M  V30 8069 C 767.966 3.13927 3.19615 0
M  V30 8070 C 769.71 1.48515 3.97673 0
M  V30 8071 C 767.617 3.75727 4.56709 0
M  V30 8072 H 766.547 0.347125 0.669343 0
M  V30 8073 H 769.198 1.39353 1.19385 0
M  V30 8074 H 767.58 1.09977 3.80422 0
M  V30 8075 H 768.754 3.7359 2.69753 0
M  V30 8076 H 767.069 3.28089 2.56411 0
M  V30 8077 H 769.666 1.92069 4.99013 0
M  V30 8078 H 770.009 0.433913 4.14032 0
M  V30 8079 H 770.542 1.98494 3.44739 0
M  V30 8080 H 767.281 4.80793 4.45554 0
M  V30 8081 H 766.801 3.20849 5.0677 0
M  V30 8082 H 768.48 3.77203 5.25668 0
M  V30 8083 N 768.612 -1.24939 0.960631 0
M  V30 8084 C 769.837 -1.9742 0.635608 0
M  V30 8085 C 770.262 -1.70857 -0.786737 0
M  V30 8086 O 769.62 -0.968063 -1.53291 0
M  V30 8087 C 769.668 -3.48987 0.907771 0
M  V30 8088 O 768.772 -4.12399 -0.0104053 0
M  V30 8089 H 768.113 -0.61871 0.241027 0
M  V30 8090 H 770.643 -1.58901 1.28886 0
M  V30 8091 H 770.653 -3.99334 0.836453 0
M  V30 8092 H 769.328 -3.6765 1.94439 0
M  V30 8093 H 767.905 -3.72727 0.113631 0
M  V30 8094 N 770.09 -0.729906 -1.39679 0
M  V30 8095 C 771.04 -0.0627678 -2.27914 0
M  V30 8096 C 772.024 0.717867 -1.43998 0
M  V30 8097 O 773.216 0.587713 -1.66958 0
M  V30 8098 C 770.345 0.847564 -3.32673 0
M  V30 8099 C 769.431 0.0613515 -4.24056 0
M  V30 8100 N 769.822 -0.962863 -4.96551 0
M  V30 8101 C 768.12 0.291773 -4.45045 0
M  V30 8102 C 768.821 -1.43652 -5.63683 0
M  V30 8103 N 767.797 -0.756044 -5.38317 0
M  V30 8104 H 771.599 -0.847545 -2.81414 0
M  V30 8105 H 769.113 -0.563776 -1.523 0
M  V30 8106 H 771.11 1.34094 -3.94746 0
M  V30 8107 H 769.77 1.63156 -2.80732 0
M  V30 8108 H 770.781 -1.34409 -5.00154 0
M  V30 8109 H 767.458 1.05097 -4.04056 0
M  V30 8110 H 768.848 -2.28835 -6.31731 0
M  V30 8111 N 771.568 1.50203 -0.477153 0
M  V30 8112 C 772.531 2.27194 0.302599 0
M  V30 8113 C 773.531 1.32221 0.915112 0
M  V30 8114 O 774.721 1.55593 0.783348 0
M  V30 8115 C 771.853 3.0938 1.43167 0
M  V30 8116 H 773.046 2.97575 -0.372678 0
M  V30 8117 H 770.599 1.54578 -0.231392 0
M  V30 8118 H 771.334 2.43509 2.14182 0
M  V30 8119 H 771.119 3.79181 0.998197 0
M  V30 8120 H 772.609 3.67592 1.98157 0
M  V30 8121 N 773.046 0.209999 1.56195 0
M  V30 8122 C 773.976 -0.699746 2.22769 0
M  V30 8123 C 774.957 -1.20993 1.1956 0
M  V30 8124 O 776.142 -1.25605 1.48112 0
M  V30 8125 C 773.272 -1.91302 2.89863 0
M  V30 8126 C 772.226 -1.53715 3.99444 0
M  V30 8127 C 771.552 -2.82826 4.53777 0
M  V30 8128 C 772.852 -0.735836 5.17091 0
M  V30 8129 H 774.546 -0.144716 2.9905 0
M  V30 8130 H 772.092 -0.0681645 1.43839 0
M  V30 8131 H 774.045 -2.5548 3.35124 0
M  V30 8132 H 772.769 -2.49283 2.11011 0
M  V30 8133 H 771.428 -0.918892 3.54897 0
M  V30 8134 H 771.076 -3.38927 3.71669 0
M  V30 8135 H 770.776 -2.58415 5.27727 0
M  V30 8136 H 772.3 -3.47966 5.01749 0
M  V30 8137 H 773.714 -1.28105 5.58804 0
M  V30 8138 H 772.111 -0.589272 5.972 0
M  V30 8139 H 773.181 0.260004 4.84202 0
M  V30 8140 N 774.524 -1.57472 -0.0634922 0
M  V30 8141 C 775.456 -2.00999 -1.10145 0
M  V30 8142 C 776.469 -0.917219 -1.34503 0
M  V30 8143 O 777.658 -1.19501 -1.32596 0
M  V30 8144 C 774.758 -2.34089 -2.45063 0
M  V30 8145 C 773.931 -3.65317 -2.40546 0
M  V30 8146 C 772.99 -3.85982 -3.57637 0
M  V30 8147 O 772.016 -4.5747 -3.38689 0
M  V30 8148 N 773.218 -3.28971 -4.78287 0
M  V30 8149 H 775.983 -2.90656 -0.730714 0
M  V30 8150 H 773.544 -1.59926 -0.252017 0
M  V30 8151 H 775.536 -2.4508 -3.22053 0
M  V30 8152 H 774.106 -1.50279 -2.74107 0
M  V30 8153 H 773.326 -3.65003 -1.48885 0
M  V30 8154 H 774.614 -4.51468 -2.34636 0
M  V30 8155 H 774.012 -2.70962 -4.96584 0
M  V30 8156 H 772.569 -3.45398 -5.5276 0
M  V30 8157 N 776.003 0.335068 -1.53997 0
M  V30 8158 C 777.249 1.07222 -1.72844 0
M  V30 8159 C 777.604 1.86054 -0.490075 0
M  V30 8160 O 776.897 1.84481 0.517416 0
M  V30 8161 C 777.091 2.0364 -2.9371 0
M  V30 8162 C 776.92 1.34287 -4.29182 0
M  V30 8163 C 775.69 1.08417 -4.93532 0
M  V30 8164 C 777.888 0.764703 -5.08583 0
M  V30 8165 N 775.87 0.357342 -6.12859 0
M  V30 8166 C 777.241 0.168876 -6.1977 0
M  V30 8167 C 779.296 0.666383 -4.9342 0
M  V30 8168 C 777.999 -0.515716 -7.17449 0
M  V30 8169 C 780.025 -0.0044859 -5.914 0
M  V30 8170 C 779.387 -0.589305 -7.01931 0
M  V30 8171 H 775.486 0.376448 -0.685427 0
M  V30 8172 H 778.07 0.354778 -1.9144 0
M  V30 8173 H 776.241 2.72668 -2.76599 0
M  V30 8174 H 777.973 2.70256 -3.01237 0
M  V30 8175 H 774.728 1.37351 -4.53246 0
M  V30 8176 H 775.152 0.00840481 -6.76999 0
M  V30 8177 H 779.794 1.10426 -4.08125 0
M  V30 8178 H 777.512 -0.965457 -8.02312 0
M  V30 8179 H 781.098 -0.0800446 -5.81745 0
M  V30 8180 H 779.978 -1.10019 -7.76444 0
M  V30 8181 N 777.481 1.45874 0.596531 0
M  V30 8182 C 778.73 1.49737 1.35135 0
M  V30 8183 C 779.043 0.147755 1.95041 0
M  V30 8184 O 780.249 0.0640984 2.71424 0
M  V30 8185 C 778.705 2.6378 2.44843 0
M  V30 8186 C 778.313 4.05102 1.91301 0
M  V30 8187 C 780.057 2.769 3.21755 0
M  V30 8188 C 777.964 5.10508 2.98557 0
M  V30 8189 H 776.894 0.557219 0.507959 0
M  V30 8190 H 779.545 1.72046 0.638147 0
M  V30 8191 H 777.927 2.34774 3.189 0
M  V30 8192 H 779.101 4.43836 1.2388 0
M  V30 8193 H 777.416 3.96528 1.271 0
M  V30 8194 H 780.013 3.52819 4.01775 0
M  V30 8195 H 780.356 1.83924 3.73467 0
M  V30 8196 H 780.889 3.05485 2.54802 0
M  V30 8197 H 777.628 6.0523 2.51749 0
M  V30 8198 H 777.148 4.76332 3.6451 0
M  V30 8199 H 778.827 5.35745 3.62748 0
M  V30 8200 N 778.959 -0.83999 1.33349 0
M  V30 8201 C 780.184 -1.63249 1.27924 0
M  V30 8202 C 780.609 -1.87523 -0.147193 0
M  V30 8203 O 779.967 -1.43853 -1.10345 0
M  V30 8204 C 780.015 -2.96046 2.05886 0
M  V30 8205 O 779.119 -3.87303 1.4167 0
M  V30 8206 H 778.46 -0.49715 0.440157 0
M  V30 8207 H 780.99 -1.04512 1.75893 0
M  V30 8208 H 781 -3.45752 2.16609 0
M  V30 8209 H 779.675 -2.77701 3.09605 0
M  V30 8210 H 778.252 -3.45789 1.39585 0
M  V30 8211 N 780.437 -1.16799 -1.0581 0
M  V30 8212 C 781.369 -0.836774 -2.13379 0
M  V30 8213 C 782.382 0.158116 -1.6203 0
M  V30 8214 O 783.571 -0.0673211 -1.78373 0
M  V30 8215 C 780.671 -0.225959 -3.38146 0
M  V30 8216 C 779.844 -1.26217 -4.18794 0
M  V30 8217 C 778.903 -0.670257 -5.21914 0
M  V30 8218 O 777.929 -1.34042 -5.53192 0
M  V30 8219 N 779.131 0.540683 -5.77977 0
M  V30 8220 H 781.896 -1.76257 -2.42391 0
M  V30 8221 H 779.457 -1.06599 -1.21853 0
M  V30 8222 H 781.449 0.18317 -4.04285 0
M  V30 8223 H 780.019 0.603494 -3.06719 0
M  V30 8224 H 779.239 -1.84729 -3.48237 0
M  V30 8225 H 780.527 -1.9613 -4.69479 0
M  V30 8226 H 779.925 1.10322 -5.54838 0
M  V30 8227 H 778.482 0.891958 -6.45668 0
M  V30 8228 N 781.915 1.24427 -0.967243 0
M  V30 8229 C 783.163 1.92107 -0.627638 0
M  V30 8230 C 783.484 1.75991 0.83978 0
M  V30 8231 O 782.754 1.13118 1.59941 0
M  V30 8232 H 781.334 0.710986 -0.229145 0
M  V30 8233 H 783.996 1.51331 -1.22821 0
M  V30 8234 H 783.092 2.99791 -0.867844 0
M  V30 8235 N 783.393 0.737304 1.3929 0
M  V30 8236 C 784.809 0.413132 1.5416 0
M  V30 8237 C 785.009 -1.07574 1.70382 0
M  V30 8238 O 784.065 -1.86185 1.70562 0
M  V30 8239 C 785.378 1.19817 2.75798 0
M  V30 8240 C 786.926 1.18662 2.89635 0
M  V30 8241 C 787.401 1.95427 4.14213 0
M  V30 8242 N 788.892 1.92605 4.21257 0
M  V30 8243 C 789.627 2.48808 5.16606 0
M  V30 8244 N 789.123 3.13659 6.1773 0
M  V30 8245 N 790.916 2.38829 5.08839 0
M  V30 8246 H 783.067 1.70243 1.27008 0
M  V30 8247 H 785.33 0.720802 0.61575 0
M  V30 8248 H 785.036 2.25179 2.70161 0
M  V30 8249 H 784.91 0.804144 3.68529 0
M  V30 8250 H 787.297 0.141112 2.94762 0
M  V30 8251 H 787.378 1.62003 1.97961 0
M  V30 8252 H 787.022 2.9998 4.09847 0
M  V30 8253 H 786.952 1.4949 5.04936 0
M  V30 8254 H 789.443 1.45362 3.48824 0
M  V30 8255 H 789.756 3.54006 6.8695 0
M  V30 8256 H 788.101 3.17749 6.1811 0
M  V30 8257 H 791.292 1.87806 4.28773 0
M  V30 8258 H 791.465 2.82929 5.82971 0
M  V30 8259 N 784.871 -1.49948 0.485112 0
M  V30 8260 C 786.148 -1.95186 -0.12726 0
M  V30 8261 C 786.528 -1.42605 -1.5565 0
M  V30 8262 O 785.876 -0.632986 -2.19558 0
M  V30 8263 C 786.086 -3.48955 -0.0562117 0
M  V30 8264 C 787.434 -4.23932 -0.238106 0
M  V30 8265 O 788.458 -3.55955 -0.132145 0
M  V30 8266 O 787.317 -5.44614 -0.453658 0
M  V30 8267 H 784.411 -0.820433 -0.104014 0
M  V30 8268 H 786.957 -1.60659 0.546517 0
M  V30 8269 H 785.729 -3.79814 0.941122 0
M  V30 8270 H 785.352 -3.90056 -0.770834 0
M  V30 8271 N 786.349 -0.21828 -1.56081 0
M  V30 8272 C 787.76 0.290166 -1.84431 0
M  V30 8273 C 788.111 1.59712 -1.13958 0
M  V30 8274 O 787.236 2.12516 -0.40815 0
M  V30 8275 C 787.831 0.53325 -3.34577 0
M  V30 8276 C 786.39 0.986011 -3.63256 0
M  V30 8277 C 785.537 0.0472798 -2.7726 0
M  V30 8278 H 788.488 -0.441548 -1.52434 0
M  V30 8279 H 788.509 1.37967 -3.54606 0
M  V30 8280 H 788.021 -0.418137 -3.85841 0
M  V30 8281 H 786.122 1.95087 -3.17446 0
M  V30 8282 H 786.235 0.862684 -4.71269 0
M  V30 8283 H 784.599 0.553471 -2.48614 0
M  V30 8284 H 785.382 -0.898966 -3.31321 0
M  V30 8285 N 787.827 1.57504 0.0551401 0
M  V30 8286 C 789.076 1.87237 0.750009 0
M  V30 8287 C 789.389 0.813268 1.77891 0
M  V30 8288 O 790.595 0.99898 2.52453 0
M  V30 8289 C 789.051 3.32187 1.38491 0
M  V30 8290 C 788.659 4.46267 0.393707 0
M  V30 8291 C 790.403 3.71101 2.06117 0
M  V30 8292 C 788.31 5.82265 1.03547 0
M  V30 8293 H 787.24 0.698524 0.283866 0
M  V30 8294 H 789.891 1.835 0.00365997 0
M  V30 8295 H 788.273 3.30588 2.18008 0
M  V30 8296 H 789.447 4.59289 -0.372865 0
M  V30 8297 H 787.762 4.16015 -0.17902 0
M  V30 8298 H 790.359 4.70012 2.54937 0
M  V30 8299 H 790.702 3.01751 2.86796 0
M  V30 8300 H 791.235 3.74762 1.33409 0
M  V30 8301 H 787.974 6.54949 0.268644 0
M  V30 8302 H 787.494 5.73012 1.7725 0
M  V30 8303 H 789.173 6.28148 1.55047 0
M  V30 8304 N 789.305 -0.326896 1.54172 0
M  V30 8305 C 790.552 -1.06523 1.72218 0
M  V30 8306 C 790.88 -1.88119 0.494114 0
M  V30 8307 O 790.135 -1.8855 -0.524147 0
M  V30 8308 C 790.434 -2.0208 2.94785 0
M  V30 8309 C 790.1 -1.36665 4.2969 0
M  V30 8310 C 788.762 -1.18556 4.66367 0
M  V30 8311 C 791.114 -0.896868 5.13425 0
M  V30 8312 C 788.442 -0.521113 5.84381 0
M  V30 8313 C 790.794 -0.246261 6.3212 0
M  V30 8314 C 789.458 -0.052987 6.67479 0
M  V30 8315 H 788.728 -0.389796 0.63019 0
M  V30 8316 H 791.375 -0.342725 1.88408 0
M  V30 8317 H 789.68 -2.8077 2.73268 0
M  V30 8318 H 791.377 -2.59231 3.05941 0
M  V30 8319 H 787.967 -1.51762 4.00832 0
M  V30 8320 H 792.151 -1.02458 4.85609 0
M  V30 8321 H 787.407 -0.36014 6.10338 0
M  V30 8322 H 791.581 0.125775 6.96286 0
M  V30 8323 H 789.208 0.463903 7.58783 0
M  V30 8324 N 790.784 -1.46188 -0.588786 0
M  V30 8325 C 791.716 -1.52319 -1.71265 0
M  V30 8326 C 792.729 -0.412096 -1.57498 0
M  V30 8327 O 793.918 -0.680146 -1.65034 0
M  V30 8328 C 791.018 -1.38164 -3.09458 0
M  V30 8329 C 790.191 -2.63284 -3.49286 0
M  V30 8330 C 789.25 -2.43415 -4.66514 0
M  V30 8331 O 788.276 -3.17113 -4.72682 0
M  V30 8332 N 789.478 -1.49187 -5.61002 0
M  V30 8333 H 792.243 -2.49219 -1.66463 0
M  V30 8334 H 789.804 -1.42167 -0.774601 0
M  V30 8335 H 791.796 -1.22653 -3.85666 0
M  V30 8336 H 790.366 -0.494678 -3.08661 0
M  V30 8337 H 789.586 -2.93779 -2.62845 0
M  V30 8338 H 790.874 -3.46413 -3.7266 0
M  V30 8339 H 790.272 -0.884027 -5.5875 0
M  V30 8340 H 788.829 -1.39642 -6.36666 0
M  V30 8341 N 792.262 0.832906 -1.33792 0
M  V30 8342 C 793.673 1.40489 -1.22963 0
M  V30 8343 C 794.024 1.95633 0.149026 0
M  V30 8344 O 793.149 1.8928 1.04891 0
M  V30 8345 C 793.744 2.55387 -2.22627 0
M  V30 8346 C 792.303 3.08522 -2.15618 0
M  V30 8347 C 791.45 1.81347 -2.09782 0
M  V30 8348 H 794.401 0.638156 -1.45304 0
M  V30 8349 H 794.422 3.33193 -1.83746 0
M  V30 8350 H 793.934 2.15222 -3.22957 0
M  V30 8351 H 792.035 3.53217 -1.18611 0
M  V30 8352 H 792.148 3.6829 -3.0643 0
M  V30 8353 H 790.512 2.01839 -1.55349 0
M  V30 8354 H 791.295 1.43369 -3.1193 0
M  V30 8355 N 793.74 1.17359 1.05189 0
M  V30 8356 C 795.151 0.96793 1.5965 0
M  V30 8357 C 795.502 -0.485355 1.90102 0
M  V30 8358 O 794.627 -1.36066 1.6827 0
M  V30 8359 C 795.222 1.75068 2.90063 0
M  V30 8360 C 793.781 1.58969 3.41183 0
M  V30 8361 C 792.928 1.75231 2.14917 0
M  V30 8362 H 795.879 1.32067 0.880001 0
M  V30 8363 H 795.9 1.23308 3.59966 0
M  V30 8364 H 795.412 2.80835 2.67868 0
M  V30 8365 H 793.513 0.556906 3.68415 0
M  V30 8366 H 793.626 2.38067 4.15766 0
M  V30 8367 H 791.99 1.18073 2.25679 0
M  V30 8368 H 792.773 2.8241 1.95191 0
M  V30 8369 N 795.218 -1.23913 0.973828 0
M  V30 8370 C 796.443 -1.96735 0.656511 0
M  V30 8371 C 796.868 -1.71682 -0.768571 0
M  V30 8372 O 796.226 -0.984267 -1.52256 0
M  V30 8373 C 796.274 -3.48004 0.944735 0
M  V30 8374 O 795.378 -4.12387 0.0333357 0
M  V30 8375 H 794.719 -0.616119 0.247575 0
M  V30 8376 H 797.249 -1.57525 1.30564 0
M  V30 8377 H 797.259 -3.98424 0.87876 0
M  V30 8378 H 795.934 -3.65567 1.98328 0
M  V30 8379 H 794.511 -3.72585 0.153157 0
M  V30 8380 N 796.696 -0.74468 -1.38897 0
M  V30 8381 C 798.107 -0.36568 -1.83084 0
M  V30 8382 C 798.458 1.10436 -1.62168 0
M  V30 8383 O 797.583 1.85281 -1.11804 0
M  V30 8384 C 798.178 -0.656946 -3.3237 0
M  V30 8385 C 796.737 -0.331329 -3.74939 0
M  V30 8386 C 795.884 -0.914661 -2.61781 0
M  V30 8387 H 798.835 -0.941551 -1.27752 0
M  V30 8388 H 798.856 0.0679546 -3.80439 0
M  V30 8389 H 798.368 -1.72693 -3.47561 0
M  V30 8390 H 796.469 0.732426 -3.6533 0
M  V30 8391 H 796.582 -0.820655 -4.72019 0
M  V30 8392 H 794.946 -0.34063 -2.52412 0
M  V30 8393 H 795.729 -1.98949 -2.79775 0
M  V30 8394 N 798.174 1.49689 -0.493057 0
M  V30 8395 C 799.585 1.8665 -0.0433032 0
M  V30 8396 C 799.936 1.40607 1.36836 0
M  V30 8397 O 799.061 0.780503 2.01834 0
M  V30 8398 C 799.656 3.38724 -0.0718069 0
M  V30 8399 C 798.215 3.75015 0.32257 0
M  V30 8400 C 797.362 2.7366 -0.4478 0
M  V30 8401 H 800.313 1.42119 -0.706246 0
M  V30 8402 H 800.334 3.73522 0.725347 0
M  V30 8403 H 799.846 3.72204 -1.09935 0
M  V30 8404 H 797.947 3.47142 1.35364 0
M  V30 8405 H 798.06 4.79099 0.00864259 0
M  V30 8406 H 796.424 2.54498 0.101354 0
M  V30 8407 H 797.207 3.09985 -1.47527 0
M  V30 8408 N 799.652 0.226554 1.55963 0
M  V30 8409 C 800.599 -0.681504 2.20509 0
M  V30 8410 C 801.569 -1.1866 1.16229 0
M  V30 8411 O 802.754 -1.24478 1.44602 0
M  V30 8412 C 799.894 -1.88183 2.89277 0
M  V30 8413 C 799.007 -1.41517 4.08163 0
M  V30 8414 C 798.142 -2.57346 4.647 0
M  V30 8415 C 797.181 -2.07441 5.75877 0
M  V30 8416 N 796.318 -3.16561 6.26685 0
M  V30 8417 H 801.158 -0.124372 2.9774 0
M  V30 8418 H 798.695 -0.0496333 1.47016 0
M  V30 8419 H 800.653 -2.58666 3.27335 0
M  V30 8420 H 799.283 -2.41177 2.14555 0
M  V30 8421 H 798.335 -0.605099 3.75557 0
M  V30 8422 H 799.647 -1.00928 4.88482 0
M  V30 8423 H 798.801 -3.35903 5.05227 0
M  V30 8424 H 797.54 -3.01227 3.83554 0
M  V30 8425 H 796.545 -1.27347 5.34848 0
M  V30 8426 H 797.77 -1.64554 6.58862 0
M  V30 8427 H 795.716 -3.59914 5.48451 0
M  V30 8428 H 795.633 -2.80239 7.02141 0
M  V30 8429 H 796.901 -3.95238 6.71868 0
M  V30 8430 N 801.13 -1.57531 -0.0467866 0
M  V30 8431 C 802.378 -1.88078 -0.739656 0
M  V30 8432 C 802.699 -0.821936 -1.76831 0
M  V30 8433 O 801.969 0.146582 -1.95351 0
M  V30 8434 H 800.549 -0.694075 -0.276169 0
M  V30 8435 H 803.211 -1.94893 -0.0169391 0
M  V30 8436 H 802.307 -2.86396 -1.24031 0
M  V30 8437 N 802.608 0.318715 -1.54344 0
M  V30 8438 C 803.538 1.39751 -1.87061 0
M  V30 8439 C 804.519 1.53741 -0.727848 0
M  V30 8440 O 805.704 1.67541 -0.982016 0
M  V30 8441 C 802.834 2.76446 -2.10226 0
M  V30 8442 C 801.788 2.77239 -3.26071 0
M  V30 8443 C 801.114 4.17056 -3.34617 0
M  V30 8444 C 802.414 2.40555 -4.63606 0
M  V30 8445 H 804.108 1.12619 -2.77412 0
M  V30 8446 H 801.654 0.540318 -1.33479 0
M  V30 8447 H 803.607 3.51985 -2.31699 0
M  V30 8448 H 802.331 3.05066 -1.16629 0
M  V30 8449 H 800.99 2.04155 -3.04493 0
M  V30 8450 H 800.638 4.42824 -2.3857 0
M  V30 8451 H 800.338 4.18492 -4.12478 0
M  V30 8452 H 801.862 4.94401 -3.5833 0
M  V30 8453 H 803.276 3.05808 -4.84927 0
M  V30 8454 H 801.673 2.53234 -5.44052 0
M  V30 8455 H 802.743 1.35698 -4.65526 0
M  V30 8456 N 804.086 1.46499 0.581025 0
M  V30 8457 C 805.016 1.60052 1.70017 0
M  V30 8458 C 805.997 0.450788 1.64018 0
M  V30 8459 O 807.182 0.677237 1.82009 0
M  V30 8460 C 804.312 1.5921 3.08658 0
M  V30 8461 C 803.266 2.73169 3.29488 0
M  V30 8462 C 802.592 2.57389 4.68674 0
M  V30 8463 C 803.892 4.14978 3.1716 0
M  V30 8464 H 805.586 2.53735 1.5893 0
M  V30 8465 H 803.132 1.22113 0.763173 0
M  V30 8466 H 805.085 1.67285 3.86773 0
M  V30 8467 H 803.809 0.620718 3.20647 0
M  V30 8468 H 802.468 2.64566 2.53773 0
M  V30 8469 H 802.116 1.58331 4.77431 0
M  V30 8470 H 801.816 3.33826 4.83564 0
M  V30 8471 H 803.34 2.67358 5.48956 0
M  V30 8472 H 804.754 4.24684 3.85119 0
M  V30 8473 H 803.151 4.92016 3.4357 0
M  V30 8474 H 804.221 4.35016 2.14218 0
M  V30 8475 N 805.565 -0.825799 1.34232 0
M  V30 8476 C 806.793 -1.61363 1.29497 0
M  V30 8477 C 807.208 -1.88341 -0.131536 0
M  V30 8478 O 806.565 -1.47279 -1.07773 0
M  V30 8479 C 806.616 -2.95623 2.08061 0
M  V30 8480 O 806.337 -2.69824 3.45147 0
M  V30 8481 C 807.838 -3.90032 2.10688 0
M  V30 8482 H 805.058 -0.501676 0.445603 0
M  V30 8483 H 807.602 -1.02767 1.76803 0
M  V30 8484 H 805.757 -3.50785 1.64404 0
M  V30 8485 H 806.171 -3.55412 3.85723 0
M  V30 8486 H 807.645 -4.81411 2.70087 0
M  V30 8487 H 808.122 -4.25188 1.10052 0
M  V30 8488 H 808.728 -3.40807 2.54422 0
M  V30 8489 N 807.043 -1.17915 -1.04565 0
M  V30 8490 C 807.993 -0.869634 -2.10764 0
M  V30 8491 C 808.977 0.158502 -1.60117 0
M  V30 8492 O 810.169 -0.04483 -1.76943 0
M  V30 8493 C 807.298 -0.391642 -3.41059 0
M  V30 8494 C 806.384 -1.45156 -3.98485 0
M  V30 8495 N 806.775 -2.6667 -4.29792 0
M  V30 8496 C 805.073 -1.3109 -4.263 0
M  V30 8497 C 805.774 -3.34823 -4.75677 0
M  V30 8498 N 804.75 -2.62203 -4.76183 0
M  V30 8499 H 808.552 -1.79342 -2.32838 0
M  V30 8500 H 806.066 -1.0688 -1.22272 0
M  V30 8501 H 808.063 -0.151428 -4.16625 0
M  V30 8502 H 806.723 0.525862 -3.20413 0
M  V30 8503 H 807.734 -3.0358 -4.19594 0
M  V30 8504 H 804.411 -0.455545 -4.15007 0
M  V30 8505 H 805.801 -4.38645 -5.0896 0
M  V30 8506 N 808.521 1.23394 -0.980386 0
M  V30 8507 C 809.932 1.73631 -0.686239 0
M  V30 8508 C 810.283 1.79259 0.797541 0
M  V30 8509 O 809.408 1.43046 1.62379 0
M  V30 8510 C 810.003 3.15332 -1.239 0
M  V30 8511 C 808.562 3.63024 -0.994494 0
M  V30 8512 C 807.709 2.41279 -1.36673 0
M  V30 8513 H 810.66 1.08918 -1.15423 0
M  V30 8514 H 810.681 3.75556 -0.611414 0
M  V30 8515 H 810.193 3.11204 -2.31892 0
M  V30 8516 H 808.294 3.72535 0.0693492 0
M  V30 8517 H 808.407 4.49825 -1.64906 0
M  V30 8518 H 806.771 2.42295 -0.785195 0
M  V30 8519 H 807.554 2.39822 -2.45642 0
M  V30 8520 N 809.999 0.752036 1.385 0
M  V30 8521 C 811.245 0.307958 2.00448 0
M  V30 8522 C 811.578 -1.10702 1.59558 0
M  V30 8523 O 810.853 -1.75788 0.832391 0
M  V30 8524 C 811.136 0.429092 3.57534 0
M  V30 8525 C 810.989 1.88507 4.08393 0
M  V30 8526 C 812.308 -0.178442 4.39738 0
M  V30 8527 H 809.427 0.113373 0.728228 0
M  V30 8528 H 812.069 0.951389 1.64465 0
M  V30 8529 H 810.219 -0.118695 3.88319 0
M  V30 8530 H 811.891 2.49104 3.88259 0
M  V30 8531 H 810.134 2.40066 3.61318 0
M  V30 8532 H 810.805 1.92099 5.17496 0
M  V30 8533 H 813.281 0.28872 4.15097 0
M  V30 8534 H 812.157 -0.0634349 5.48863 0
M  V30 8535 H 812.418 -1.26655 4.23569 0
M  V30 8536 N 811.477 -1.49425 0.500989 0
M  V30 8537 C 812.44 -2.27646 -0.266416 0
M  V30 8538 C 813.44 -1.3366 -0.893961 0
M  V30 8539 O 814.63 -1.5682 -0.758495 0
M  V30 8540 C 811.762 -3.11618 -1.38227 0
M  V30 8541 H 812.955 -2.96945 0.419973 0
M  V30 8542 H 810.508 -1.5419 0.255954 0
M  V30 8543 H 811.243 -2.46885 -2.10281 0
M  V30 8544 H 811.028 -3.80721 -0.937746 0
M  V30 8545 H 812.518 -3.70698 -1.92283 0
M  V30 8546 N 812.955 -0.234822 -1.55841 0
M  V30 8547 C 813.905 0.68346 -2.17515 0
M  V30 8548 C 814.889 1.14798 -1.1274 0
M  V30 8549 O 816.081 1.09976 -1.38688 0
M  V30 8550 C 813.21 1.88551 -2.86886 0
M  V30 8551 C 812.296 1.44006 -3.98903 0
M  V30 8552 N 812.687 0.708034 -5.0082 0
M  V30 8553 C 810.985 1.7263 -4.11236 0
M  V30 8554 C 811.686 0.479036 -5.79724 0
M  V30 8555 N 810.662 1.03968 -5.33565 0
M  V30 8556 H 814.464 0.115897 -2.93671 0
M  V30 8557 H 811.978 -0.0366273 -1.62359 0
M  V30 8558 H 813.975 2.55425 -3.2949 0
M  V30 8559 H 812.635 2.45742 -2.12229 0
M  V30 8560 H 813.646 0.359363 -5.16652 0
M  V30 8561 H 810.323 2.31046 -3.47741 0
M  V30 8562 H 811.713 -0.104514 -6.71819 0
M  V30 8563 N 814.433 1.57553 0.0384317 0
M  V30 8564 C 815.658 1.93485 0.746872 0
M  V30 8565 C 816.083 0.834069 1.68597 0
M  V30 8566 O 815.441 -0.210902 1.80069 0
M  V30 8567 C 815.489 3.28463 1.4881 0
M  V30 8568 O 814.593 3.20051 2.60079 0
M  V30 8569 H 813.934 0.632675 0.201539 0
M  V30 8570 H 816.464 2.046 -0.00329815 0
M  V30 8571 H 816.474 3.63132 1.86009 0
M  V30 8572 H 815.149 4.08147 0.799297 0
M  V30 8573 H 813.726 2.96998 2.25492 0
M  V30 8574 N 815.911 -0.310526 1.54511 0
M  V30 8575 C 817.159 -1.04484 1.72996 0
M  V30 8576 C 817.48 -1.88118 0.513479 0
M  V30 8577 O 816.75 -1.90119 -0.472384 0
M  V30 8578 H 815.33 -0.388747 0.637875 0
M  V30 8579 H 817.992 -0.343811 1.91844 0
M  V30 8580 H 817.088 -1.70341 2.61515 0
M  V30 8581 N 817.389 -1.46805 -0.573248 0
M  V30 8582 C 818.352 -1.57655 -1.66366 0
M  V30 8583 C 819.352 -0.452905 -1.5429 0
M  V30 8584 O 820.542 -0.717502 -1.58737 0
M  V30 8585 C 817.674 -1.50584 -3.05839 0
M  V30 8586 H 818.867 -2.54842 -1.581 0
M  V30 8587 H 816.42 -1.34756 -0.791868 0
M  V30 8588 H 817.155 -0.547127 -3.19651 0
M  V30 8589 H 816.94 -2.32118 -3.16012 0
M  V30 8590 H 818.43 -1.61282 -3.85199 0
M  V30 8591 N 818.867 0.818669 -1.34668 0
M  V30 8592 C 820.092 1.61193 -1.30505 0
M  V30 8593 C 820.517 1.87734 0.117341 0
M  V30 8594 O 819.875 1.45591 1.08042 0
M  V30 8595 C 819.923 2.92733 -2.1057 0
M  V30 8596 O 819.027 3.85 -1.47813 0
M  V30 8597 H 818.368 0.490085 -0.44801 0
M  V30 8598 H 820.898 1.01701 -1.77534 0
M  V30 8599 H 820.908 3.42262 -2.22082 0
M  V30 8600 H 819.583 2.7274 -3.13984 0
M  V30 8601 H 818.16 3.43525 -1.45069 0
M  V30 8602 N 820.346 1.18468 1.03938 0
M  V30 8603 C 821.595 0.975193 1.76558 0
M  V30 8604 C 821.908 -0.495978 1.89207 0
M  V30 8605 O 823.114 -0.824009 2.58694 0
M  V30 8606 C 821.57 1.69579 3.17444 0
M  V30 8607 C 821.178 3.20636 3.12884 0
M  V30 8608 C 822.922 1.56917 3.94433 0
M  V30 8609 C 820.829 3.8533 4.48636 0
M  V30 8610 H 819.759 0.361244 0.66183 0
M  V30 8611 H 822.41 1.41854 1.16403 0
M  V30 8612 H 820.792 1.18022 3.78004 0
M  V30 8613 H 821.966 3.79228 2.61768 0
M  V30 8614 H 820.281 3.33454 2.49394 0
M  V30 8615 H 822.878 2.02611 4.94826 0
M  V30 8616 H 823.221 0.521638 4.13019 0
M  V30 8617 H 823.754 2.05762 3.40451 0
M  V30 8618 H 820.493 4.90136 4.35255 0
M  V30 8619 H 820.013 3.31526 4.99851 0
M  V30 8620 H 821.692 3.88269 5.17549 0
M  V30 8621 N 821.824 -1.22873 0.986916 0
M  V30 8622 C 822.754 -2.2688 0.552064 0
M  V30 8623 C 823.735 -1.64883 -0.418048 0
M  V30 8624 O 824.92 -1.9171 -0.30999 0
M  V30 8625 C 822.05 -3.47018 -0.139959 0
M  V30 8626 C 821.004 -4.21411 0.748091 0
M  V30 8627 C 820.33 -5.34645 -0.0765132 0
M  V30 8628 C 821.63 -4.80726 2.04206 0
M  V30 8629 H 823.324 -2.63507 1.42143 0
M  V30 8630 H 820.87 -1.26668 0.68492 0
M  V30 8631 H 822.823 -4.18931 -0.455527 0
M  V30 8632 H 821.547 -3.0947 -1.04382 0
M  V30 8633 H 820.206 -3.51325 1.04721 0
M  V30 8634 H 819.854 -4.93339 -0.981109 0
M  V30 8635 H 819.554 -5.85342 0.514606 0
M  V30 8636 H 821.078 -6.09377 -0.386313 0
M  V30 8637 H 822.492 -5.44612 1.79083 0
M  V30 8638 H 820.889 -5.41737 2.5815 0
M  V30 8639 H 821.959 -4.01109 2.72469 0
M  V30 8640 N 823.302 -0.75937 -1.38099 0
M  V30 8641 C 824.718 -0.437606 -1.53483 0
M  V30 8642 C 824.918 1.04849 -1.72072 0
M  V30 8643 O 823.974 1.83448 -1.73502 0
M  V30 8644 C 825.287 -1.24189 -2.73857 0
M  V30 8645 C 826.835 -1.23255 -2.8771 0
M  V30 8646 C 827.31 -2.01992 -4.11051 0
M  V30 8647 N 828.801 -1.99282 -4.1814 0
M  V30 8648 C 829.536 -2.56996 -5.12583 0
M  V30 8649 N 829.032 -3.23446 -6.12662 0
M  V30 8650 N 830.825 -2.46894 -5.04975 0
M  V30 8651 H 822.976 -1.72242 -1.24283 0
M  V30 8652 H 825.239 -0.730507 -0.604205 0
M  V30 8653 H 824.945 -2.29449 -2.66545 0
M  V30 8654 H 824.819 -0.862672 -3.67203 0
M  V30 8655 H 827.206 -0.187988 -2.94501 0
M  V30 8656 H 827.287 -1.65132 -1.95359 0
M  V30 8657 H 826.931 -3.06462 -4.05023 0
M  V30 8658 H 826.861 -1.57505 -5.02494 0
M  V30 8659 H 829.352 -1.50893 -3.46467 0
M  V30 8660 H 829.665 -3.6489 -6.81231 0
M  V30 8661 H 828.01 -3.27543 -6.12977 0
M  V30 8662 H 831.201 -1.94604 -4.25731 0
M  V30 8663 H 831.374 -2.92168 -5.78396 0
M  V30 8664 N 824.78 1.49157 -0.508906 0
M  V30 8665 C 825.69 2.33045 0.269656 0
M  V30 8666 C 826.706 1.45143 0.959662 0
M  V30 8667 O 827.882 1.78155 0.939295 0
M  V30 8668 C 824.947 3.20772 1.31554 0
M  V30 8669 C 824.008 4.24531 0.638131 0
M  V30 8670 C 823.241 5.08065 1.63418 0
M  V30 8671 O 823.464 4.93238 2.86483 0
M  V30 8672 O 822.398 5.90117 1.18516 0
M  V30 8673 H 826.224 3.00821 -0.417183 0
M  V30 8674 H 823.809 1.46938 -0.270119 0
M  V30 8675 H 825.691 3.75095 1.92047 0
M  V30 8676 H 824.366 2.55681 1.98516 0
M  V30 8677 H 823.273 3.74099 -0.00674357 0
M  V30 8678 H 824.606 4.92199 0.0108155 0
M  V30 8679 N 826.258 0.243083 1.55714 0
M  V30 8680 C 827.221 -0.644723 2.19945 0
M  V30 8681 C 828.221 -1.10562 1.16759 0
M  V30 8682 O 829.411 -1.01095 1.41865 0
M  V30 8683 C 826.543 -1.88569 2.83997 0
M  V30 8684 H 827.736 -0.0843839 2.99781 0
M  V30 8685 H 825.289 -0.00647246 1.56299 0
M  V30 8686 H 826.024 -2.48736 2.08089 0
M  V30 8687 H 825.809 -1.56345 3.59581 0
M  V30 8688 H 827.299 -2.51774 3.33166 0
M  V30 8689 N 827.736 -1.57571 -0.0300757 0
M  V30 8690 C 828.699 -2.05468 -1.01565 0
M  V30 8691 C 829.699 -0.958628 -1.29101 0
M  V30 8692 O 830.889 -1.22228 -1.24121 0
M  V30 8693 C 828.021 -2.47077 -2.34874 0
M  V30 8694 H 829.214 -2.93797 -0.601936 0
M  V30 8695 H 826.767 -1.53828 -0.276878 0
M  V30 8696 H 827.502 -1.61901 -2.80996 0
M  V30 8697 H 827.287 -3.27097 -2.16218 0
M  V30 8698 H 828.777 -2.84564 -3.05635 0
M  V30 8699 N 829.214 0.302327 -1.54673 0
M  V30 8700 C 830.177 1.35592 -1.8479 0
M  V30 8701 C 831.177 1.43743 -0.72073 0
M  V30 8702 O 832.367 1.43402 -0.989017 0
M  V30 8703 C 829.499 2.74091 -2.02699 0
M  V30 8704 H 830.692 1.10132 -2.78946 0
M  V30 8705 H 828.245 0.538926 -1.46715 0
M  V30 8706 H 828.98 3.04775 -1.10826 0
M  V30 8707 H 828.765 2.69565 -2.8474 0
M  V30 8708 H 830.255 3.50272 -2.27374 0
M  V30 8709 N 830.692 1.47107 0.565454 0
M  V30 8710 C 831.941 1.5257 1.31929 0
M  V30 8711 C 832.254 0.189092 1.94684 0
M  V30 8712 O 833.46 0.121657 2.71227 0
M  V30 8713 C 831.916 2.68914 2.39193 0
M  V30 8714 C 831.524 4.09069 1.82665 0
M  V30 8715 C 833.268 2.83663 3.1581 0
M  V30 8716 C 831.175 5.16726 2.87661 0
M  V30 8717 H 830.105 0.567869 0.496025 0
M  V30 8718 H 832.756 1.73361 0.60151 0
M  V30 8719 H 831.138 2.41486 3.13848 0
M  V30 8720 H 832.312 4.46364 1.14438 0
M  V30 8721 H 830.627 3.99135 1.1866 0
M  V30 8722 H 833.224 3.61261 3.94201 0
M  V30 8723 H 833.567 1.91804 3.69482 0
M  V30 8724 H 834.1 3.10821 2.48265 0
M  V30 8725 H 830.839 6.10433 2.38854 0
M  V30 8726 H 830.359 4.83957 3.54324 0
M  V30 8727 H 832.038 5.43319 3.51303 0
M  V30 8728 N 832.17 -0.811516 1.35101 0
M  V30 8729 C 833.12 -1.91227 1.24163 0
M  V30 8730 C 834.104 -1.60307 0.138012 0
M  V30 8731 O 835.296 -1.73116 0.368767 0
M  V30 8732 C 832.425 -3.2808 1.01085 0
M  V30 8733 C 831.511 -3.65082 2.15815 0
M  V30 8734 N 831.902 -3.73558 3.4101 0
M  V30 8735 C 830.2 -3.95005 2.07092 0
M  V30 8736 C 830.901 -4.06158 4.16426 0
M  V30 8737 N 829.877 -4.19982 3.45132 0
M  V30 8738 H 833.679 -1.95975 2.19023 0
M  V30 8739 H 831.193 -1.00583 1.27503 0
M  V30 8740 H 833.19 -4.06771 0.913382 0
M  V30 8741 H 831.85 -3.24622 0.0710406 0
M  V30 8742 H 832.861 -3.56761 3.75423 0
M  V30 8743 H 829.538 -3.99601 1.20937 0
M  V30 8744 H 830.928 -4.19824 5.24592 0
M  V30 8745 N 833.648 -1.19017 -1.03309 0
M  V30 8746 C 834.894 -0.991681 -1.769 0
M  V30 8747 C 835.227 0.476813 -1.88255 0
M  V30 8748 O 834.502 1.35407 -1.39625 0
M  V30 8749 C 834.785 -1.65627 -3.19749 0
M  V30 8750 C 834.638 -3.19813 -3.1629 0
M  V30 8751 C 835.957 -1.37579 -4.18043 0
M  V30 8752 H 833.076 -0.361674 -0.642153 0
M  V30 8753 H 835.718 -1.46795 -1.20628 0
M  V30 8754 H 833.868 -1.25132 -3.67796 0
M  V30 8755 H 835.54 -3.69494 -2.76174 0
M  V30 8756 H 833.783 -3.51578 -2.54117 0
M  V30 8757 H 834.454 -3.61457 -4.17196 0
M  V30 8758 H 836.93 -1.72679 -3.78578 0
M  V30 8759 H 835.806 -1.86636 -5.16196 0
M  V30 8760 H 836.067 -0.300118 -4.4108 0
M  V30 8761 N 835.127 1.22348 -0.993418 0
M  V30 8762 C 836.057 2.26584 -0.564088 0
M  V30 8763 C 837.038 1.65102 0.409298 0
M  V30 8764 O 838.223 1.91872 0.299819 0
M  V30 8765 C 835.353 3.47087 0.121554 0
M  V30 8766 C 834.307 4.21009 -0.770429 0
M  V30 8767 C 833.633 5.34678 0.0481586 0
M  V30 8768 C 834.933 4.79636 -2.06752 0
M  V30 8769 H 836.627 2.62749 -1.43538 0
M  V30 8770 H 834.173 1.26303 -0.691628 0
M  V30 8771 H 836.126 4.19166 0.433303 0
M  V30 8772 H 834.85 3.1002 1.0274 0
M  V30 8773 H 833.509 3.50764 -1.06583 0
M  V30 8774 H 833.157 4.93852 0.954933 0
M  V30 8775 H 832.857 5.85061 -0.545641 0
M  V30 8776 H 834.381 6.09573 0.353991 0
M  V30 8777 H 835.795 5.43654 -1.81969 0
M  V30 8778 H 834.192 5.4036 -2.61019 0
M  V30 8779 H 835.262 3.99659 -2.74592 0
M  V30 8780 N 836.605 0.766683 1.37694 0
M  V30 8781 C 837.851 0.329201 2.0011 0
M  V30 8782 C 838.184 -1.09004 1.60723 0
M  V30 8783 O 837.459 -1.74895 0.850989 0
M  V30 8784 C 837.742 0.466989 3.57059 0
M  V30 8785 C 837.595 1.92828 4.06371 0
M  V30 8786 C 838.914 -0.131792 4.39903 0
M  V30 8787 H 836.033 0.12109 0.726984 0
M  V30 8788 H 838.675 0.968779 1.63446 0
M  V30 8789 H 836.825 -0.0775023 3.88423 0
M  V30 8790 H 838.497 2.53208 3.85595 0
M  V30 8791 H 836.74 2.43884 3.58752 0
M  V30 8792 H 837.411 1.97577 5.15429 0
M  V30 8793 H 839.887 0.332731 4.14768 0
M  V30 8794 H 838.763 -0.005217 5.489 0
M  V30 8795 H 839.024 -1.22156 4.24889 0
M  V30 8796 N 838.083 -1.48885 0.516809 0
M  V30 8797 C 839.311 -2.06892 -0.0184017 0
M  V30 8798 C 839.726 -1.37511 -1.29368 0
M  V30 8799 O 839.083 -0.458409 -1.76649 0
M  V30 8800 C 839.134 -3.60566 -0.259673 0
M  V30 8801 O 838.855 -4.27338 0.965065 0
M  V30 8802 C 840.356 -4.35331 -0.836751 0
M  V30 8803 H 837.576 -0.670433 0.0275743 0
M  V30 8804 H 840.12 -1.91455 0.718689 0
M  V30 8805 H 838.275 -3.75653 -0.94678 0
M  V30 8806 H 838.689 -5.19287 0.737647 0
M  V30 8807 H 840.163 -5.43675 -0.955065 0
M  V30 8808 H 840.64 -3.9887 -1.83845 0
M  V30 8809 H 841.246 -4.2489 -0.186622 0
M  V30 8810 N 839.561 -0.251338 -1.55583 0
M  V30 8811 C 840.809 0.371434 -1.98657 0
M  V30 8812 C 841.13 1.58143 -1.14087 0
M  V30 8813 O 840.4 1.94607 -0.224708 0
M  V30 8814 H 838.98 0.140225 -0.733721 0
M  V30 8815 H 841.642 -0.351157 -1.9171 0
M  V30 8816 H 840.738 0.677554 -3.04657 0
M  V30 8817 N 841.039 1.57585 0.0217189 0
M  V30 8818 C 842.264 1.94267 0.726309 0
M  V30 8819 C 842.689 0.851904 1.67703 0
M  V30 8820 O 842.047 -0.191792 1.80283 0
M  V30 8821 C 842.095 3.30023 1.45318 0
M  V30 8822 O 841.199 3.22791 2.5667 0
M  V30 8823 H 840.54 0.634777 0.194818 0
M  V30 8824 H 843.07 2.04585 -0.0249985 0
M  V30 8825 H 843.08 3.65084 1.82147 0
M  V30 8826 H 841.755 4.08972 0.755962 0
M  V30 8827 H 840.332 2.99373 2.2233 0
M  V30 8828 N 842.517 -0.29412 1.54831 0
M  V30 8829 C 843.447 -1.36757 1.89261 0
M  V30 8830 C 844.428 -1.52564 0.752214 0
M  V30 8831 O 845.613 -1.65958 1.00855 0
M  V30 8832 C 842.743 -2.73066 2.14597 0
M  V30 8833 C 841.697 -2.72017 3.3044 0
M  V30 8834 C 841.023 -4.11679 3.4121 0
M  V30 8835 C 842.323 -2.33149 4.67375 0
M  V30 8836 H 844.017 -1.08191 2.79169 0
M  V30 8837 H 841.563 -0.519014 1.34321 0
M  V30 8838 H 843.516 -3.48255 2.37269 0
M  V30 8839 H 842.24 -3.03172 1.21467 0
M  V30 8840 H 840.899 -1.99285 3.07703 0
M  V30 8841 H 840.547 -4.38973 2.45584 0
M  V30 8842 H 840.247 -4.11877 4.19084 0
M  V30 8843 H 841.771 -4.88637 3.6615 0
M  V30 8844 H 843.185 -2.98054 4.89731 0
M  V30 8845 H 841.582 -2.44546 5.48012 0
M  V30 8846 H 842.652 -1.28275 4.67626 0
M  V30 8847 N 843.995 -1.47404 -0.557645 0
M  V30 8848 C 844.945 -1.56267 -1.66026 0
M  V30 8849 C 845.929 -0.42161 -1.55278 0
M  V30 8850 O 847.121 -0.671505 -1.63768 0
M  V30 8851 C 844.25 -1.57958 -3.04802 0
M  V30 8852 C 843.336 -2.77447 -3.20755 0
M  V30 8853 N 843.727 -4.02148 -3.06775 0
M  V30 8854 C 842.025 -2.74199 -3.51754 0
M  V30 8855 C 842.726 -4.82168 -3.25406 0
M  V30 8856 N 841.702 -4.14481 -3.5172 0
M  V30 8857 H 845.504 -2.50454 -1.53785 0
M  V30 8858 H 843.018 -1.43392 -0.762388 0
M  V30 8859 H 845.015 -1.62397 -3.8397 0
M  V30 8860 H 843.675 -0.648667 -3.18155 0
M  V30 8861 H 844.686 -4.33014 -2.84111 0
M  V30 8862 H 841.363 -1.90243 -3.71637 0
M  V30 8863 H 842.753 -5.91037 -3.19569 0
M  V30 8864 N 845.473 0.80434 -1.35529 0
M  V30 8865 C 846.403 1.93086 -1.31301 0
M  V30 8866 C 847.384 1.69068 -0.187044 0
M  V30 8867 O 848.569 1.90399 -0.382359 0
M  V30 8868 C 845.699 3.29867 -1.0865 0
M  V30 8869 C 844.653 3.68373 -2.17911 0
M  V30 8870 C 843.979 5.0334 -1.80423 0
M  V30 8871 C 845.279 3.78516 -3.59893 0
M  V30 8872 H 846.973 1.96882 -2.25561 0
M  V30 8873 H 844.519 0.945841 -1.08581 0
M  V30 8874 H 846.472 4.08281 -1.04331 0
M  V30 8875 H 845.196 3.2642 -0.108359 0
M  V30 8876 H 843.855 2.92247 -2.21331 0
M  V30 8877 H 843.503 4.96399 -0.812213 0
M  V30 8878 H 843.203 5.30074 -2.53565 0
M  V30 8879 H 844.727 5.84191 -1.77633 0
M  V30 8880 H 846.141 4.47155 -3.58783 0
M  V30 8881 H 844.538 4.16721 -4.31814 0
M  V30 8882 H 845.608 2.8001 -3.95882 0
M  V30 8883 N 846.951 1.19563 1.02676 0
M  V30 8884 C 848.197 1.00105 1.76371 0
M  V30 8885 C 848.53 -0.466823 1.88506 0
M  V30 8886 O 847.805 -1.34665 1.40341 0
M  V30 8887 C 848.088 1.67321 3.18866 0
M  V30 8888 C 847.941 3.21486 3.1459 0
M  V30 8889 C 849.26 1.39794 4.17308 0
M  V30 8890 H 846.379 0.365075 0.640226 0
M  V30 8891 H 849.021 1.47433 1.19848 0
M  V30 8892 H 847.171 1.27081 3.67128 0
M  V30 8893 H 848.843 3.70953 2.7421 0
M  V30 8894 H 847.086 3.5292 2.52249 0
M  V30 8895 H 847.757 3.63665 4.15273 0
M  V30 8896 H 850.233 1.74685 3.77657 0
M  V30 8897 H 849.109 1.89371 5.15199 0
M  V30 8898 H 849.37 0.323505 4.40915 0
M  V30 8899 N 848.429 -1.21819 0.999893 0
M  V30 8900 C 849.677 -1.90375 0.678351 0
M  V30 8901 C 849.998 -1.78155 -0.792824 0
M  V30 8902 O 849.268 -1.17319 -1.56885 0
M  V30 8903 H 847.848 -0.704661 0.247915 0
M  V30 8904 H 850.51 -1.48021 1.2679 0
M  V30 8905 H 849.606 -2.97385 0.947023 0
M  V30 8906 N 849.908 -0.773975 -1.37286 0
M  V30 8907 C 851.156 -0.338636 -1.99243 0
M  V30 8908 C 851.477 1.08919 -1.61746 0
M  V30 8909 O 850.747 1.74822 -0.88397 0
M  V30 8910 H 849.327 -0.12222 -0.736934 0
M  V30 8911 H 851.989 -0.992595 -1.67731 0
M  V30 8912 H 851.085 -0.418055 -3.09287 0
M  V30 8913 N 851.386 1.48609 -0.524698 0
M  V30 8914 C 852.632 2.02797 0.0113382 0
M  V30 8915 C 852.965 1.40147 1.34433 0
M  V30 8916 O 852.24 0.545368 1.86698 0
M  V30 8917 C 852.523 3.59832 0.138931 0
M  V30 8918 C 852.376 4.32971 -1.21886 0
M  V30 8919 C 853.695 4.3145 0.868265 0
M  V30 8920 H 850.814 0.736995 0.00264645 0
M  V30 8921 H 853.456 1.77388 -0.680704 0
M  V30 8922 H 851.606 3.81612 0.72834 0
M  V30 8923 H 853.278 4.22624 -1.84897 0
M  V30 8924 H 851.521 3.94597 -1.80211 0
M  V30 8925 H 852.192 5.41279 -1.08263 0
M  V30 8926 H 854.668 4.14468 0.368145 0
M  V30 8927 H 853.544 5.41025 0.926428 0
M  V30 8928 H 853.805 3.98358 1.91737 0
M  V30 8929 N 852.864 0.259585 1.55447 0
M  V30 8930 C 853.794 -0.62852 2.24882 0
M  V30 8931 C 854.775 -1.17128 1.23349 0
M  V30 8932 O 855.96 -1.20829 1.52033 0
M  V30 8933 C 853.09 -1.81983 2.95803 0
M  V30 8934 C 852.044 -1.40929 4.04132 0
M  V30 8935 C 851.37 -2.68246 4.62545 0
M  V30 8936 C 852.67 -0.570956 5.1917 0
M  V30 8937 H 854.364 -0.0495021 2.99359 0
M  V30 8938 H 851.91 -0.0223688 1.43983 0
M  V30 8939 H 853.863 -2.44689 3.43082 0
M  V30 8940 H 852.587 -2.42444 2.18835 0
M  V30 8941 H 851.246 -0.805519 3.57641 0
M  V30 8942 H 850.894 -3.26931 3.82263 0
M  V30 8943 H 850.594 -2.41495 5.35681 0
M  V30 8944 H 852.118 -3.31827 5.12565 0
M  V30 8945 H 853.532 -1.10262 5.62597 0
M  V30 8946 H 851.929 -0.398979 5.98772 0
M  V30 8947 H 852.999 0.413918 4.8313 0
M  V30 8948 N 854.342 -1.57594 -0.0133615 0
M  V30 8949 C 855.289 -2.07574 -1.00905 0
M  V30 8950 C 856.259 -0.968231 -1.34961 0
M  V30 8951 O 857.444 -1.23981 -1.45028 0
M  V30 8952 C 854.584 -2.5728 -2.30002 0
M  V30 8953 C 853.697 -3.81881 -2.01967 0
M  V30 8954 C 852.832 -4.20139 -3.25049 0
M  V30 8955 C 851.871 -5.37614 -2.92639 0
M  V30 8956 N 851.008 -5.71229 -4.08218 0
M  V30 8957 H 855.848 -2.92382 -0.575899 0
M  V30 8958 H 853.385 -1.4455 -0.272722 0
M  V30 8959 H 855.343 -2.84171 -3.05454 0
M  V30 8960 H 853.973 -1.75365 -2.71011 0
M  V30 8961 H 853.025 -3.61979 -1.16942 0
M  V30 8962 H 854.337 -4.67441 -1.74069 0
M  V30 8963 H 853.491 -4.48242 -4.08857 0
M  V30 8964 H 852.23 -3.33262 -3.56073 0
M  V30 8965 H 851.235 -5.09248 -2.07235 0
M  V30 8966 H 852.46 -6.26157 -2.62876 0
M  V30 8967 H 850.406 -4.8731 -4.39164 0
M  V30 8968 H 850.323 -6.51333 -3.83799 0
M  V30 8969 H 851.591 -6.03917 -4.92854 0
M  V30 8970 N 855.82 0.285905 -1.54985 0
M  V30 8971 C 856.75 1.35752 -1.89983 0
M  V30 8972 C 857.731 1.52163 -0.760295 0
M  V30 8973 O 858.916 1.65421 -1.01733 0
M  V30 8974 C 856.046 2.71925 -2.16042 0
M  V30 8975 C 855 2.70261 -3.31878 0
M  V30 8976 C 854.326 4.09864 -3.43388 0
M  V30 8977 C 855.626 2.30667 -4.68604 0
M  V30 8978 H 857.32 1.06709 -2.79738 0
M  V30 8979 H 854.866 0.511884 -1.34595 0
M  V30 8980 H 856.819 3.46992 -2.39113 0
M  V30 8981 H 855.543 3.02523 -1.23074 0
M  V30 8982 H 854.202 1.97651 -3.08755 0
M  V30 8983 H 853.85 4.37664 -2.47909 0
M  V30 8984 H 853.55 4.09648 -4.21262 0
M  V30 8985 H 855.074 4.86689 -3.68736 0
M  V30 8986 H 856.488 2.95453 -4.91305 0
M  V30 8987 H 854.885 2.41637 -5.49301 0
M  V30 8988 H 855.955 1.25793 -4.68299 0
M  V30 8989 N 857.298 1.47698 0.54982 0
M  V30 8990 C 858.228 1.63622 1.66583 0
M  V30 8991 C 859.209 0.485477 1.63025 0
M  V30 8992 O 860.394 0.715692 1.80531 0
M  V30 8993 C 857.524 1.65721 3.05211 0
M  V30 8994 C 856.478 2.80097 3.2362 0
M  V30 8995 C 855.804 2.67272 4.63109 0
M  V30 8996 C 857.104 4.21612 3.08286 0
M  V30 8997 H 858.798 2.57049 1.53512 0
M  V30 8998 H 856.344 1.23705 0.737099 0
M  V30 8999 H 858.297 1.75451 3.83138 0
M  V30 9000 H 857.021 0.688593 3.19258 0
M  V30 9001 H 855.68 2.69889 2.48104 0
M  V30 9002 H 855.328 1.68422 4.73965 0
M  V30 9003 H 855.028 3.44008 4.76374 0
M  V30 9004 H 856.552 2.78942 5.43161 0
M  V30 9005 H 857.966 4.32758 3.76024 0
M  V30 9006 H 856.363 4.99193 3.33057 0
M  V30 9007 H 857.433 4.39462 2.04942 0
M  V30 9008 N 858.776 -0.797141 1.35954 0
M  V30 9009 C 859.686 -1.94088 1.31784 0
M  V30 9010 C 860.702 -1.72588 0.221227 0
M  V30 9011 O 861.878 -1.96256 0.452255 0
M  V30 9012 C 858.943 -3.28828 1.09878 0
M  V30 9013 C 858.004 -3.63158 2.28942 0
M  V30 9014 C 857.237 -4.91469 2.08072 0
M  V30 9015 O 857.46 -5.60616 1.05196 0
M  V30 9016 O 856.394 -5.24277 2.95664 0
M  V30 9017 H 860.22 -2.00554 2.28061 0
M  V30 9018 H 857.805 -0.936288 1.16422 0
M  V30 9019 H 859.687 -4.09473 0.995485 0
M  V30 9020 H 858.362 -3.23271 0.16659 0
M  V30 9021 H 857.269 -2.82851 2.44839 0
M  V30 9022 H 858.602 -3.7343 3.20641 0
M  V30 9023 N 860.254 -1.20106 -1.0204 0
M  V30 9024 C 861.665 -1.00992 -1.57027 0
M  V30 9025 C 862.016 0.434782 -1.91322 0
M  V30 9026 O 861.141 1.31557 -1.71819 0
M  V30 9027 C 861.736 -1.82697 -2.85319 0
M  V30 9028 C 860.295 -1.67959 -3.36848 0
M  V30 9029 C 859.442 -1.80868 -2.10195 0
M  V30 9030 H 862.393 -1.34354 -0.844676 0
M  V30 9031 H 862.414 -1.32809 -3.5657 0
M  V30 9032 H 861.926 -2.87839 -2.60328 0
M  V30 9033 H 860.027 -0.654389 -3.66809 0
M  V30 9034 H 860.14 -2.49006 -4.09308 0
M  V30 9035 H 858.504 -1.24015 -2.22469 0
M  V30 9036 H 859.287 -2.87486 -1.87635 0
M  V30 9037 N 861.732 1.21287 -1.00634 0
M  V30 9038 C 862.695 2.21927 -0.572821 0
M  V30 9039 C 863.695 1.5691 0.351541 0
M  V30 9040 O 864.885 1.73623 0.141643 0
M  V30 9041 C 862.017 3.40501 0.164932 0
M  V30 9042 H 863.21 2.61795 -1.463 0
M  V30 9043 H 860.763 1.34571 -0.794998 0
M  V30 9044 H 861.498 3.06123 1.07049 0
M  V30 9045 H 861.283 3.88912 -0.498962 0
M  V30 9046 H 862.773 4.15103 0.455945 0
M  V30 9047 N 863.21 0.781244 1.36873 0
M  V30 9048 C 864.14 0.188128 2.32741 0
M  V30 9049 C 865.121 -0.672326 1.56249 0
M  V30 9050 O 866.306 -0.607835 1.84442 0
M  V30 9051 C 863.436 -0.684341 3.40491 0
M  V30 9052 C 862.39 0.0755641 4.27933 0
M  V30 9053 C 861.716 -0.916968 5.26779 0
M  V30 9054 C 863.016 1.26006 5.06873 0
M  V30 9055 H 864.71 0.989016 2.82593 0
M  V30 9056 H 862.256 0.477038 1.35869 0
M  V30 9057 H 864.209 -1.10915 4.06541 0
M  V30 9058 H 862.933 -1.51785 2.89187 0
M  V30 9059 H 861.592 0.481258 3.63427 0
M  V30 9060 H 861.24 -1.74528 4.71751 0
M  V30 9061 H 860.94 -0.413 5.86147 0
M  V30 9062 H 862.464 -1.34052 5.95703 0
M  V30 9063 H 863.878 0.911425 5.66009 0
M  V30 9064 H 862.275 1.69676 5.75613 0
M  V30 9065 H 863.345 2.05948 4.38991 0
M  V30 9066 N 864.689 -1.48329 0.532571 0
M  V30 9067 C 865.914 -2.074 0.00147755 0
M  V30 9068 C 866.339 -1.38615 -1.27151 0
M  V30 9069 O 865.697 -0.452949 -1.75551 0
M  V30 9070 C 865.745 -3.60029 -0.202866 0
M  V30 9071 O 864.849 -3.92327 -1.27097 0
M  V30 9072 H 864.19 -0.662777 0.0402883 0
M  V30 9073 H 866.72 -1.90701 0.741224 0
M  V30 9074 H 866.73 -4.05783 -0.424722 0
M  V30 9075 H 865.405 -4.09496 0.727033 0
M  V30 9076 H 863.982 -3.58348 -1.03156 0
M  V30 9077 N 866.167 -0.267825 -1.55308 0
M  V30 9078 C 867.099 0.65591 -2.19614 0
M  V30 9079 C 868.112 1.12302 -1.17865 0
M  V30 9080 O 869.301 1.04618 -1.44628 0
M  V30 9081 C 866.401 1.90582 -2.80235 0
M  V30 9082 C 865.574 1.58673 -4.07605 0
M  V30 9083 C 864.633 2.68836 -4.52343 0
M  V30 9084 O 863.659 2.35331 -5.18274 0
M  V30 9085 N 864.861 3.98752 -4.21873 0
M  V30 9086 H 867.626 0.105566 -2.99514 0
M  V30 9087 H 865.187 -0.0886263 -1.61657 0
M  V30 9088 H 867.179 2.63561 -3.07112 0
M  V30 9089 H 865.749 2.3654 -2.04371 0
M  V30 9090 H 864.969 0.691113 -3.88094 0
M  V30 9091 H 866.257 1.34845 -4.90606 0
M  V30 9092 H 865.655 4.28797 -3.68985 0
M  V30 9093 H 864.212 4.68131 -4.53537 0
M  V30 9094 O 867.684 1.6095 -0.133191 0
M  V30 9095 H 868.375 1.88082 0.463129 0
M  V30 END ATOM
M  V30 BEGIN BOND
M  V30 END BOND
M  V30 END CTAB
M  END
$$$$
