drugbank_target|P0A6D3 3-phosphoshikimate 1-carboxyvinyltransferase (DB01942; DB03116; DB04328; DB04539)
 OpenBabel12092119533D

  0  0  0     0  0            999 V3000
M  V30 BEGIN CTAB
M  V30 COUNTS 6479 6534 0 0 0
M  V30 BEGIN ATOM
M  V30 1 H -0.908 1.98254 -0.117106 0
M  V30 2 N 0 1.576 0 0
M  V30 3 C 0.933 2.03868 1.02534 0
M  V30 4 C 1.911 0.928543 1.3348 0
M  V30 5 O 3.095 1.19667 1.45644 0
M  V30 6 C 0.222 2.43627 2.35294 0
M  V30 7 C -0.732 3.65373 2.2001 0
M  V30 8 S 0.101 5.13292 1.52614 0
M  V30 9 C 1.257 5.56322 2.86805 0
M  V30 10 H 1.49 2.90518 0.631377 0
M  V30 11 H -0.977 1.52953 0.210867 0
M  V30 12 H 0.981 2.67203 3.11629 0
M  V30 13 H -0.358 1.57376 2.7183 0
M  V30 14 H -1.165 3.90944 3.18086 0
M  V30 15 H -1.563 3.418 1.51819 0
M  V30 16 H 0.729 5.58782 3.83104 0
M  V30 17 H 1.672 6.56266 2.65933 0
M  V30 18 H 2.08 4.83886 2.90714 0
M  V30 19 N 1.4781 -0.272755 1.55222 0
M  V30 20 C 2.3881 -1.35918 1.91216 0
M  V30 21 C 3.4041 -1.54026 0.809436 0
M  V30 22 O 4.5801 -1.68148 1.10852 0
M  V30 23 C 1.6451 -2.69834 2.17693 0
M  V30 24 C 0.7061 -2.6047 3.41253 0
M  V30 25 C -0.0609 -3.88 3.66458 0
M  V30 26 O 0.1621 -4.88693 2.94169 0
M  V30 27 O -0.9039 -3.88189 4.59992 0
M  V30 28 H 2.9221 -1.0839 2.83699 0
M  V30 29 H 0.5071 -0.471301 1.41771 0
M  V30 30 H 2.3891 -3.49017 2.36147 0
M  V30 31 H 1.0641 -2.97148 1.28392 0
M  V30 32 H -0.0289 -1.79663 3.28134 0
M  V30 33 H 1.3041 -2.38106 4.30774 0
M  V30 34 N 2.9562 -1.48159 -0.537278 0
M  V30 35 C 4.1812 -1.59707 -1.32319 0
M  V30 36 C 4.6062 -0.254859 -1.86365 0
M  V30 37 O 3.9642 0.772378 -1.64024 0
M  V30 38 C 4.0122 -2.6412 -2.45505 0
M  V30 39 O 3.1162 -2.20774 -3.48328 0
M  V30 40 H 2.4572 -0.535791 -0.392204 0
M  V30 41 H 4.9872 -1.94092 -0.647268 0
M  V30 42 H 4.9972 -2.85166 -2.91795 0
M  V30 43 H 3.6722 -3.61567 -2.05528 0
M  V30 44 H 2.2492 -2.09911 -3.08207 0
M  V30 45 N 4.4343 0.785586 -1.36625 0
M  V30 46 C 5.3643 1.91259 -1.33949 0
M  V30 47 C 6.3453 1.68795 -0.210325 0
M  V30 48 O 7.5303 1.89854 -0.408561 0
M  V30 49 C 4.6603 3.28339 -1.13186 0
M  V30 50 C 3.6143 3.65335 -2.22967 0
M  V30 51 C 2.9403 5.00806 -1.87342 0
M  V30 52 C 4.2403 3.7352 -3.65075 0
M  V30 53 H 5.9343 1.93755 -2.28253 0
M  V30 54 H 3.4803 0.930788 -1.09874 0
M  V30 55 H 5.4333 4.06804 -1.09948 0
M  V30 56 H 4.1573 3.2624 -0.153332 0
M  V30 57 H 2.8163 2.89169 -2.25337 0
M  V30 58 H 2.4643 4.95233 -0.880545 0
M  V30 59 H 2.1643 5.26529 -2.60846 0
M  V30 60 H 3.6883 5.81687 -1.85667 0
M  V30 61 H 5.1023 4.42168 -3.64911 0
M  V30 62 H 3.4993 4.10731 -4.37516 0
M  V30 63 H 4.5693 2.74527 -3.99703 0
M  V30 64 N 5.9124 1.20967 1.01018 0
M  V30 65 C 7.1404 1.04956 1.78303 0
M  V30 66 C 7.5554 -0.400915 1.84494 0
M  V30 67 O 6.9124 -1.27826 1.30257 0
M  V30 68 C 6.9634 1.63403 3.22462 0
M  V30 69 O 6.6844 3.02775 3.16637 0
M  V30 70 C 8.1854 1.52432 4.16268 0
M  V30 71 H 5.4054 0.368858 0.560522 0
M  V30 72 H 7.9494 1.60193 1.27116 0
M  V30 73 H 6.1044 1.1227 3.70775 0
M  V30 74 H 6.5184 3.30626 4.07169 0
M  V30 75 H 7.9924 1.98078 5.15237 0
M  V30 76 H 8.4694 0.477875 4.36592 0
M  V30 77 H 9.0754 2.02787 3.73841 0
M  V30 78 N 7.3905 -1.2043 1.01659 0
M  V30 79 C 8.3205 -2.25466 0.607226 0
M  V30 80 C 9.3015 -1.65853 -0.377716 0
M  V30 81 O 10.4865 -1.92409 -0.263149 0
M  V30 82 C 7.6165 -3.47256 -0.0552949 0
M  V30 83 C 6.5705 -4.19462 0.850632 0
M  V30 84 C 5.8965 -5.34673 0.0538859 0
M  V30 85 C 7.1965 -4.75603 2.15868 0
M  V30 86 H 8.8905 -2.59962 1.48526 0
M  V30 87 H 6.4365 -1.2496 0.715605 0
M  V30 88 H 8.3895 -4.19917 -0.353233 0
M  V30 89 H 7.1135 -3.11924 -0.968045 0
M  V30 90 H 5.7725 -3.48667 1.13257 0
M  V30 91 H 5.4205 -4.95585 -0.860514 0
M  V30 92 H 5.1205 -5.83913 0.657192 0
M  V30 93 H 6.6445 -6.10138 -0.237598 0
M  V30 94 H 8.0585 -5.40083 1.92311 0
M  V30 95 H 6.4555 -5.3528 2.71284 0
M  V30 96 H 7.5255 -3.94346 2.82169 0
M  V30 97 N 8.8686 -0.792821 -1.36206 0
M  V30 98 C 9.8006 -0.151469 -2.28699 0
M  V30 99 C 10.8136 0.641262 -1.49638 0
M  V30 100 O 12.0026 0.475885 -1.72039 0
M  V30 101 C 9.1026 0.808424 -3.29117 0
M  V30 102 C 8.2756 0.0650202 -4.37352 0
M  V30 103 C 7.3346 0.941358 -5.17711 0
M  V30 104 O 6.3606 0.397352 -5.67811 0
M  V30 105 N 7.5626 2.2652 -5.3448 0
M  V30 106 H 10.3276 -0.945982 -2.84379 0
M  V30 107 H 7.8886 -0.647032 -1.48409 0
M  V30 108 H 9.8806 1.3986 -3.79765 0
M  V30 109 H 8.4506 1.5038 -2.74052 0
M  V30 110 H 7.6706 -0.706255 -3.87822 0
M  V30 111 H 8.9586 -0.447847 -5.06825 0
M  V30 112 H 8.3566 2.73128 -4.95396 0
M  V30 113 H 6.9136 2.80493 -5.88359 0
M  V30 114 N 10.3467 1.47872 -0.545128 0
M  V30 115 C 11.7577 1.86384 -0.108581 0
M  V30 116 C 12.1087 1.45309 1.31832 0
M  V30 117 O 11.2337 0.850641 1.9898 0
M  V30 118 C 11.8287 3.38265 -0.190274 0
M  V30 119 C 10.3877 3.75914 0.191164 0
M  V30 120 C 9.5347 2.71926 -0.543273 0
M  V30 121 H 12.4857 1.39561 -0.755537 0
M  V30 122 H 12.5067 3.75831 0.594217 0
M  V30 123 H 12.0187 3.6813 -1.2289 0
M  V30 124 H 10.1197 3.51665 1.23136 0
M  V30 125 H 10.2327 4.78836 -0.158987 0
M  V30 126 H 8.5967 2.54697 0.0122495 0
M  V30 127 H 9.3797 3.04634 -1.58282 0
M  V30 128 N 11.8248 0.280983 1.55075 0
M  V30 129 C 13.0738 -0.334784 1.98902 0
M  V30 130 C 13.3868 -1.56534 1.17288 0
M  V30 131 O 14.5928 -2.25443 1.51287 0
M  V30 132 C 13.0488 -0.646994 3.54037 0
M  V30 133 C 12.6568 0.564085 4.44435 0
M  V30 134 C 14.4008 -1.22506 4.06439 0
M  V30 135 C 12.3078 0.226137 5.90967 0
M  V30 136 H 11.2378 -0.128866 0.742906 0
M  V30 137 H 13.8888 0.386556 1.79382 0
M  V30 138 H 12.2708 -1.42739 3.6938 0
M  V30 139 H 13.4448 1.34082 4.40861 0
M  V30 140 H 11.7598 1.0594 4.02698 0
M  V30 141 H 14.3568 -1.49182 5.13468 0
M  V30 142 H 14.6998 -2.16085 3.55827 0
M  V30 143 H 15.2328 -0.50682 3.94558 0
M  V30 144 H 11.9718 1.12996 6.45687 0
M  V30 145 H 11.4918 -0.513717 5.97596 0
M  V30 146 H 13.1708 -0.179539 6.46751 0
M  V30 147 N 13.3029 -1.57598 0.00835791 0
M  V30 148 C 14.2659 -2.07884 -0.965242 0
M  V30 149 C 15.2659 -0.989825 -1.26725 0
M  V30 150 O 16.4559 -1.25218 -1.21104 0
M  V30 151 C 13.5879 -2.52731 -2.28779 0
M  V30 152 H 14.7809 -2.95178 -0.530112 0
M  V30 153 H 12.3339 -1.54458 -0.239283 0
M  V30 154 H 13.0689 -1.68705 -2.76964 0
M  V30 155 H 12.8539 -3.32272 -2.08177 0
M  V30 156 H 14.3439 -2.91933 -2.98605 0
M  V30 157 N 14.781 0.264519 -1.55364 0
M  V30 158 C 16.197 0.61215 -1.47394 0
M  V30 159 C 16.397 1.89134 -0.695018 0
M  V30 160 O 15.453 2.51563 -0.217275 0
M  V30 161 C 16.766 0.731235 -2.91674 0
M  V30 162 C 18.314 0.82473 -3.01939 0
M  V30 163 C 18.789 0.975522 -4.4749 0
M  V30 164 N 20.28 1.04083 -4.51354 0
M  V30 165 C 21.015 1.17646 -5.61201 0
M  V30 166 N 20.511 1.27874 -6.80896 0
M  V30 167 N 22.304 1.20823 -5.48961 0
M  V30 168 H 14.455 -0.575456 -2.04456 0
M  V30 169 H 16.718 -0.196099 -0.927496 0
M  V30 170 H 16.424 -0.138392 -3.51428 0
M  V30 171 H 16.298 1.60883 -3.41169 0
M  V30 172 H 18.685 1.68482 -2.42276 0
M  V30 173 H 18.766 -0.0776479 -2.55682 0
M  V30 174 H 18.41 0.120058 -5.07758 0
M  V30 175 H 18.34 1.89268 -4.91412 0
M  V30 176 H 20.831 0.973846 -3.65136 0
M  V30 177 H 21.144 1.38081 -7.60364 0
M  V30 178 H 19.489 1.24863 -6.83692 0
M  V30 179 H 22.68 1.12469 -4.54388 0
M  V30 180 H 22.853 1.31049 -6.3461 0
M  V30 181 N 16.2591 1.48442 0.529413 0
M  V30 182 C 17.5051 1.5672 1.28711 0
M  V30 183 C 17.8381 0.2406 1.92704 0
M  V30 184 O 17.1131 -0.753454 1.79313 0
M  V30 185 C 17.3961 2.70587 2.37603 0
M  V30 186 C 17.2491 4.12953 1.78297 0
M  V30 187 C 18.5681 2.80212 3.39366 0
M  V30 188 H 15.6871 0.570474 0.466613 0
M  V30 189 H 18.3291 1.80617 0.589706 0
M  V30 190 H 16.4791 2.50342 2.97088 0
M  V30 191 H 18.1511 4.44639 1.22858 0
M  V30 192 H 16.3941 4.19927 1.0883 0
M  V30 193 H 17.0651 4.88448 2.57144 0
M  V30 194 H 19.5411 2.98553 2.89836 0
M  V30 195 H 18.4171 3.61611 4.12951 0
M  V30 196 H 18.6781 1.88393 3.99951 0
M  V30 197 N 17.7372 -0.778329 1.37039 0
M  V30 198 C 19.0142 -1.52551 1.22424 0
M  V30 199 C 19.3942 -2.10288 -0.184964 0
M  V30 200 O 18.7422 -1.94953 -1.19187 0
M  V30 201 C 18.9522 -2.61164 2.31504 0
M  V30 202 C 20.3002 -3.28746 2.68721 0
M  V30 203 O 21.3242 -2.71455 2.30631 0
M  V30 204 O 20.1832 -4.3231 3.3432 0
M  V30 205 H 17.2772 -0.675343 0.477326 0
M  V30 206 H 19.8232 -0.815859 1.48801 0
M  V30 207 H 18.5952 -2.16574 3.25901 0
M  V30 208 H 18.2182 -3.39737 2.06554 0
M  V30 209 N 19.2153 -1.21501 -1.00376 0
M  V30 210 C 20.4633 -1.03095 -1.73827 0
M  V30 211 C 20.7843 0.436341 -1.90055 0
M  V30 212 O 20.0543 1.31466 -1.45236 0
M  V30 213 H 18.6343 -0.378487 -0.644016 0
M  V30 214 H 21.2963 -1.52831 -1.20949 0
M  V30 215 H 20.3923 -1.49991 -2.73695 0
M  V30 216 N 20.6934 1.19889 -1.02296 0
M  V30 217 C 21.9214 1.9339 -0.735399 0
M  V30 218 C 22.3364 1.75148 0.704887 0
M  V30 219 O 21.6934 1.06954 1.47875 0
M  V30 220 C 21.7444 3.45313 -1.06962 0
M  V30 221 O 21.4654 3.62964 -2.45334 0
M  V30 222 C 22.9664 4.35948 -0.804021 0
M  V30 223 H 20.1864 0.61448 -0.269546 0
M  V30 224 H 22.7304 1.522 -1.36585 0
M  V30 225 H 20.8854 3.84359 -0.484455 0
M  V30 226 H 21.2994 4.56886 -2.57595 0
M  V30 227 H 22.7734 5.41174 -1.0879 0
M  V30 228 H 23.2504 4.3842 0.261691 0
M  V30 229 H 23.8564 4.02574 -1.37164 0
M  V30 230 N 22.1715 0.800033 1.35784 0
M  V30 231 C 23.4205 0.37387 1.98205 0
M  V30 232 C 23.7335 -1.06302 1.64193 0
M  V30 233 O 24.9395 -1.59198 2.19928 0
M  V30 234 C 23.3955 0.617532 3.54562 0
M  V30 235 C 23.0035 2.06654 3.9749 0
M  V30 236 C 24.7475 0.256401 4.23725 0
M  V30 237 C 22.6545 2.2563 5.46667 0
M  V30 238 H 21.5845 0.136055 0.741623 0
M  V30 239 H 24.2355 0.983166 1.54939 0
M  V30 240 H 22.6175 -0.0616248 3.95952 0
M  V30 241 H 23.7915 2.78296 3.67271 0
M  V30 242 H 22.1065 2.38691 3.41197 0
M  V30 243 H 24.7035 0.376318 5.33374 0
M  V30 244 H 25.0465 -0.796692 4.08606 0
M  V30 245 H 25.5795 0.889214 3.87734 0
M  V30 246 H 22.3185 3.2936 5.66747 0
M  V30 247 H 21.8385 1.58504 5.78478 0
M  V30 248 H 23.5175 2.06861 6.1304 0
M  V30 249 N 23.6496 -1.47581 0.552962 0
M  V30 250 C 24.5976 -2.31648 -0.21023 0
M  V30 251 C 25.5916 -1.42663 -0.913432 0
M  V30 252 O 26.7976 -1.5945 -0.835201 0
M  V30 253 H 23.1726 -0.746989 -0.0866676 0
M  V30 254 H 25.1436 -2.93869 0.518051 0
M  V30 255 C 23.8926 -3.25226 -1.22976 0
M  V30 256 H 23.2156 -3.93658 -0.698077 0
M  V30 257 H 24.6556 -3.86889 -1.73473 0
M  V30 258 C 23.1146 -2.48448 -2.27542 0
M  V30 259 O 23.6446 -2.22585 -3.34393 0
M  V30 260 N 21.8506 -2.09532 -2.01357 0
M  V30 261 H 21.3976 -2.30765 -1.14478 0
M  V30 262 H 21.3556 -1.58476 -2.71538 0
M  V30 263 N 25.1277 -0.289203 -1.54924 0
M  V30 264 C 26.0577 0.58549 -2.2604 0
M  V30 265 C 27.0387 1.14753 -1.25562 0
M  V30 266 O 28.2237 1.17906 -1.54311 0
M  V30 267 C 25.3537 1.76305 -2.99222 0
M  V30 268 C 24.3077 1.33191 -4.06748 0
M  V30 269 C 23.6337 2.5937 -4.6758 0
M  V30 270 C 24.9337 0.471775 -5.20165 0
M  V30 271 H 26.6277 -0.00763532 -2.99399 0
M  V30 272 H 24.1737 -0.00511229 -1.43999 0
M  V30 273 H 26.1267 2.38097 -3.47689 0
M  V30 274 H 24.8507 2.38223 -2.23422 0
M  V30 275 H 23.5097 0.737121 -3.59113 0
M  V30 276 H 23.1577 3.19576 -3.88433 0
M  V30 277 H 22.8577 2.31228 -5.40192 0
M  V30 278 H 24.3817 3.21985 -5.18804 0
M  V30 279 H 25.7957 0.995056 -5.64599 0
M  V30 280 H 24.1927 0.284639 -5.99425 0
M  V30 281 H 25.2627 -0.506041 -4.82252 0
M  V30 282 N 26.6058 1.57591 -0.0167156 0
M  V30 283 C 28.0168 1.79201 0.523834 0
M  V30 284 C 28.3678 0.925796 1.72984 0
M  V30 285 O 27.4928 0.132792 2.15992 0
M  V30 286 C 28.0878 3.25 0.957091 0
M  V30 287 C 26.6468 3.47648 1.44283 0
M  V30 288 C 25.7938 2.74374 0.401757 0
M  V30 289 H 28.7448 1.56831 -0.242816 0
M  V30 290 H 28.7658 3.34031 1.82219 0
M  V30 291 H 28.2778 3.88019 0.0791415 0
M  V30 292 H 26.3788 2.89866 2.34113 0
M  V30 293 H 26.4918 4.56352 1.45877 0
M  V30 294 H 24.8558 2.39485 0.867121 0
M  V30 295 H 25.6388 3.40102 -0.467513 0
M  V30 296 N 28.0839 -0.256276 1.55502 0
M  V30 297 C 29.3319 -0.983672 1.76545 0
M  V30 298 C 29.6529 -1.86206 0.578982 0
M  V30 299 O 28.9229 -1.91656 -0.405577 0
M  V30 300 H 27.5029 -0.366191 0.651086 0
M  V30 301 H 30.1649 -0.276479 1.92929 0
M  V30 302 H 29.2609 -1.61087 2.67315 0
M  V30 303 N 29.562 -1.4872 -0.521534 0
M  V30 304 C 30.787 -1.61101 -1.30618 0
M  V30 305 C 31.212 -0.274611 -1.86085 0
M  V30 306 O 30.57 0.754937 -1.64834 0
M  V30 307 C 30.618 -2.66709 -2.4269 0
M  V30 308 O 29.722 -2.24456 -3.45967 0
M  V30 309 H 29.063 -0.539921 -0.386499 0
M  V30 310 H 31.593 -1.94767 -0.626645 0
M  V30 311 H 31.603 -2.88245 -2.88754 0
M  V30 312 H 30.278 -3.63727 -2.01682 0
M  V30 313 H 28.855 -2.13168 -3.05964 0
M  V30 314 N 31.0401 0.771051 -1.3745 0
M  V30 315 C 31.9871 1.88435 -1.3327 0
M  V30 316 C 32.9571 1.64914 -0.198136 0
M  V30 317 O 34.1421 1.86821 -0.387606 0
M  V30 318 C 31.2821 3.25509 -1.14622 0
M  V30 319 C 30.3951 3.60979 -2.37314 0
M  V30 320 C 29.5301 4.87265 -2.11533 0
M  V30 321 C 28.5691 5.15469 -3.30088 0
M  V30 322 N 27.7061 6.32944 -3.03853 0
M  V30 323 H 32.5461 1.91344 -2.28455 0
M  V30 324 H 30.0831 0.935466 -1.13523 0
M  V30 325 H 32.0411 4.04582 -1.01831 0
M  V30 326 H 30.6711 3.21974 -0.230837 0
M  V30 327 H 29.7231 2.76885 -2.60842 0
M  V30 328 H 31.0351 3.77759 -3.25729 0
M  V30 329 H 30.1891 5.74244 -1.95777 0
M  V30 330 H 28.9281 4.7259 -1.20457 0
M  V30 331 H 27.9331 4.26966 -3.46382 0
M  V30 332 H 29.1581 5.32052 -4.22016 0
M  V30 333 H 27.1041 6.19625 -2.15407 0
M  V30 334 H 27.0211 6.50143 -3.85812 0
M  V30 335 H 28.2891 7.22857 -2.91716 0
M  V30 336 N 32.5182 1.22032 0.997298 0
M  V30 337 C 33.7432 1.06921 1.77715 0
M  V30 338 C 34.1682 -0.376226 1.84299 0
M  V30 339 O 33.5262 -1.27165 1.29223 0
M  V30 340 C 33.5742 1.67996 3.19076 0
M  V30 341 O 32.6782 0.930653 4.01762 0
M  V30 342 H 32.0192 0.375814 0.547412 0
M  V30 343 H 34.5492 1.61737 1.25309 0
M  V30 344 H 34.5592 1.72538 3.69723 0
M  V30 345 H 33.2342 2.73182 3.13599 0
M  V30 346 H 31.8112 0.960917 3.60307 0
M  V30 347 N 33.9963 -1.19345 1.0293 0
M  V30 348 C 35.2423 -1.89318 0.727083 0
M  V30 349 C 35.5753 -1.79446 -0.742483 0
M  V30 350 O 34.8503 -1.1871 -1.54072 0
M  V30 351 C 35.1333 -3.40238 1.17942 0
M  V30 352 C 34.9863 -3.58979 2.71024 0
M  V30 353 C 36.3053 -4.33479 0.760548 0
M  V30 354 H 33.4243 -0.687475 0.265606 0
M  V30 355 H 36.0663 -1.40477 1.2793 0
M  V30 356 H 34.2163 -3.81964 0.709608 0
M  V30 357 H 35.8883 -3.26421 3.25955 0
M  V30 358 H 34.1313 -3.02018 3.11396 0
M  V30 359 H 34.8023 -4.64823 2.9773 0
M  V30 360 H 37.2783 -3.99469 1.16464 0
M  V30 361 H 36.1543 -5.37664 1.10493 0
M  V30 362 H 36.4153 -4.40813 -0.337063 0
M  V30 363 N 35.4744 -0.807222 -1.35358 0
M  V30 364 C 36.6994 -0.399309 -2.0352 0
M  V30 365 C 37.1244 0.981986 -1.60433 0
M  V30 366 O 36.4824 1.63601 -0.781299 0
M  V30 367 C 36.5304 -0.491552 -3.57234 0
M  V30 368 O 35.6344 0.494754 -4.09421 0
M  V30 369 H 34.9754 -0.166682 -0.642739 0
M  V30 370 H 37.5054 -1.09328 -1.72941 0
M  V30 371 H 37.5154 -0.361588 -4.06395 0
M  V30 372 H 36.1904 -1.49907 -3.87944 0
M  V30 373 H 34.7674 0.324977 -3.71481 0
M  V30 374 N 36.9525 1.47285 -0.560781 0
M  V30 375 C 37.9005 2.31756 0.197942 0
M  V30 376 C 38.8945 1.43146 0.905854 0
M  V30 377 O 40.1005 1.59891 0.826733 0
M  V30 378 H 36.4755 0.747438 0.0827049 0
M  V30 379 H 38.4465 2.9359 -0.533629 0
M  V30 380 C 37.1955 3.25874 1.21249 0
M  V30 381 H 36.5185 3.94023 0.67719 0
M  V30 382 H 37.9585 3.87803 1.71419 0
M  V30 383 C 36.4175 2.49651 2.26221 0
M  V30 384 O 36.9475 2.24355 3.33208 0
M  V30 385 N 35.1535 2.10597 2.00243 0
M  V30 386 H 34.7005 2.31369 1.13252 0
M  V30 387 H 34.6585 1.59913 2.70694 0
M  V30 388 N 38.4306 0.297415 1.54768 0
M  V30 389 C 39.8466 -0.0560823 1.59501 0
M  V30 390 C 40.0466 -1.52725 1.31444 0
M  V30 391 O 39.1026 -2.27947 1.08611 0
M  V30 392 C 40.4156 0.338631 2.98787 0
M  V30 393 C 41.9636 0.287097 3.11681 0
M  V30 394 C 42.4386 0.656579 4.53269 0
M  V30 395 N 43.9296 0.608977 4.59179 0
M  V30 396 C 44.6646 0.867385 5.66802 0
M  V30 397 N 44.1606 1.19157 6.82476 0
M  V30 398 N 45.9536 0.794687 5.56454 0
M  V30 399 H 38.1046 1.25624 1.71267 0
M  V30 400 H 40.3676 0.509057 0.799728 0
M  V30 401 H 40.0736 1.36263 3.2423 0
M  V30 402 H 39.9476 -0.309508 3.75928 0
M  V30 403 H 42.3346 -0.727649 2.85988 0
M  V30 404 H 42.4156 0.969809 2.36703 0
M  V30 405 H 42.0596 1.66912 4.7969 0
M  V30 406 H 41.9896 -0.0481649 5.26578 0
M  V30 407 H 44.4806 0.369198 3.76092 0
M  V30 408 H 44.7936 1.37482 7.60473 0
M  V30 409 H 43.1386 1.22958 6.84037 0
M  V30 410 H 46.3296 0.541098 4.64962 0
M  V30 411 H 46.5026 0.999445 6.40246 0
M  V30 412 N 39.9087 -1.5758 0.0250728 0
M  V30 413 C 40.8717 -2.08896 -0.943139 0
M  V30 414 C 41.8717 -1.00321 -1.25668 0
M  V30 415 O 43.0617 -1.26495 -1.19769 0
M  V30 416 C 40.1937 -2.55143 -2.26086 0
M  V30 417 H 41.3867 -2.95723 -0.498775 0
M  V30 418 H 38.9397 -1.54703 -0.222888 0
M  V30 419 H 39.6747 -1.71633 -2.75159 0
M  V30 420 H 39.4597 -3.34461 -2.04641 0
M  V30 421 H 40.9497 -2.95083 -2.95492 0
M  V30 422 N 41.3868 0.248026 -1.55636 0
M  V30 423 C 42.3168 1.31079 -1.93237 0
M  V30 424 C 43.2978 1.50264 -0.797174 0
M  V30 425 O 44.4828 1.62891 -1.05737 0
M  V30 426 C 41.6128 2.66575 -2.22609 0
M  V30 427 C 40.5668 2.62087 -3.3837 0
M  V30 428 C 39.8928 4.01369 -3.53281 0
M  V30 429 C 41.1928 2.19171 -4.7409 0
M  V30 430 H 42.8868 0.998556 -2.82257 0
M  V30 431 H 40.4328 0.47891 -1.35803 0
M  V30 432 H 42.3858 3.41057 -2.47503 0
M  V30 433 H 41.1098 2.99432 -1.30414 0
M  V30 434 H 39.7688 1.90063 -3.13483 0
M  V30 435 H 39.4168 4.31489 -2.58508 0
M  V30 436 H 39.1168 3.99254 -4.31127 0
M  V30 437 H 40.6408 4.77552 -3.80495 0
M  V30 438 H 42.0548 2.83384 -4.98363 0
M  V30 439 H 40.4518 2.2817 -5.5503 0
M  V30 440 H 41.5218 1.14336 -4.71227 0
M  V30 441 N 42.8649 1.48995 0.513639 0
M  V30 442 C 43.7949 1.67636 1.62544 0
M  V30 443 C 44.7759 0.525087 1.61793 0
M  V30 444 O 45.9609 0.759502 1.78732 0
M  V30 445 C 43.0909 1.73114 3.01079 0
M  V30 446 C 42.0449 2.87905 3.16693 0
M  V30 447 C 41.3709 2.78486 4.56453 0
M  V30 448 C 42.6709 4.29005 2.97913 0
M  V30 449 H 44.3649 2.60716 1.47198 0
M  V30 450 H 41.9109 1.25465 0.706714 0
M  V30 451 H 43.8639 1.84742 3.78746 0
M  V30 452 H 42.5879 0.766241 3.17484 0
M  V30 453 H 41.2469 2.75859 2.41448 0
M  V30 454 H 40.8949 1.7993 4.69717 0
M  V30 455 H 40.5949 3.55523 4.67843 0
M  V30 456 H 42.1189 2.92104 5.36197 0
M  V30 457 H 43.5329 4.41798 3.65359 0
M  V30 458 H 41.9299 5.07166 3.20785 0
M  V30 459 H 42.9999 4.44329 1.94165 0
M  V30 460 N 44.343 -0.763751 1.37857 0
M  V30 461 C 45.273 -1.89103 1.36975 0
M  V30 462 C 46.254 -1.68439 0.237152 0
M  V30 463 O 47.439 -1.8918 0.438713 0
M  V30 464 C 44.569 -3.26496 1.18395 0
M  V30 465 C 43.523 -3.61741 2.28751 0
M  V30 466 C 42.849 -4.97762 1.95286 0
M  V30 467 C 44.149 -3.67665 3.70972 0
M  V30 468 H 45.843 -1.90099 2.31307 0
M  V30 469 H 43.389 -0.91319 1.11341 0
M  V30 470 H 45.342 -4.05003 1.16406 0
M  V30 471 H 44.066 -3.25955 0.205215 0
M  V30 472 H 42.725 -2.85547 2.29909 0
M  V30 473 H 42.373 -4.93769 0.959221 0
M  V30 474 H 42.073 -5.22313 2.69189 0
M  V30 475 H 43.597 -5.7866 1.94898 0
M  V30 476 H 45.011 -4.36307 3.719 0
M  V30 477 H 43.408 -4.03718 4.43995 0
M  V30 478 H 44.478 -2.68134 4.0402 0
M  V30 479 N 45.8211 -1.22559 -0.990812 0
M  V30 480 C 46.7841 -0.998863 -2.0629 0
M  V30 481 C 47.7841 0.0354834 -1.60761 0
M  V30 482 O 48.9741 -0.203231 -1.7301 0
M  V30 483 C 46.1061 -0.509203 -3.37076 0
M  V30 484 H 47.2991 -1.95014 -2.27837 0
M  V30 485 H 44.8521 -1.04456 -1.16269 0
M  V30 486 H 45.5871 0.446335 -3.21214 0
M  V30 487 H 45.3721 -1.25547 -3.71457 0
M  V30 488 H 46.8621 -0.370888 -4.1595 0
M  V30 489 N 47.2992 1.18797 -1.03562 0
M  V30 490 C 48.2622 2.20464 -0.626769 0
M  V30 491 C 49.2622 1.57721 0.313173 0
M  V30 492 O 50.4522 1.73917 0.0992615 0
M  V30 493 C 47.5842 3.40802 0.0818498 0
M  V30 494 H 48.7772 2.58149 -1.5264 0
M  V30 495 H 46.3302 1.32593 -0.827578 0
M  V30 496 H 47.0652 3.08642 0.995518 0
M  V30 497 H 46.8502 3.8758 -0.593652 0
M  V30 498 H 48.3402 4.16092 0.354584 0
M  V30 499 N 48.7773 0.814389 1.34928 0
M  V30 500 C 49.7073 0.244827 2.32213 0
M  V30 501 C 50.6883 -0.634024 1.57842 0
M  V30 502 O 51.8733 -0.562676 1.8587 0
M  V30 503 C 49.0033 -0.601106 3.42058 0
M  V30 504 C 47.9573 0.179896 4.27622 0
M  V30 505 C 47.2833 -0.788237 5.28858 0
M  V30 506 C 48.5833 1.38329 5.03649 0
M  V30 507 H 50.2773 1.05763 2.80097 0
M  V30 508 H 47.8233 0.510029 1.34665 0
M  V30 509 H 49.7763 -1.00968 4.09125 0
M  V30 510 H 48.5003 -1.44688 2.92802 0
M  V30 511 H 47.1593 0.569739 3.62146 0
M  V30 512 H 46.8073 -1.62973 4.75866 0
M  V30 513 H 46.5073 -0.269942 5.8698 0
M  V30 514 H 48.0313 -1.19485 5.98795 0
M  V30 515 H 49.4453 1.04918 5.63618 0
M  V30 516 H 47.8423 1.83662 5.71304 0
M  V30 517 H 48.9123 2.16592 4.33839 0
M  V30 518 N 50.2554 -1.46986 0.568584 0
M  V30 519 C 51.2184 -2.28624 -0.162366 0
M  V30 520 C 52.2184 -1.37596 -0.832103 0
M  V30 521 O 53.4084 -1.60115 -0.68622 0
M  V30 522 C 50.5404 -3.17596 -1.23878 0
M  V30 523 H 51.7334 -2.94722 0.554899 0
M  V30 524 H 49.2864 -1.52863 0.325976 0
M  V30 525 H 50.0214 -2.56214 -1.98808 0
M  V30 526 H 49.8064 -3.846 -0.763219 0
M  V30 527 H 51.2964 -3.79078 -1.75185 0
M  V30 528 N 51.7335 -0.305618 -1.54608 0
M  V30 529 C 52.6835 0.583595 -2.20405 0
M  V30 530 C 53.6675 1.09539 -1.17856 0
M  V30 531 O 54.8595 1.0354 -1.43557 0
M  V30 532 C 51.9885 1.75277 -2.95183 0
M  V30 533 C 51.0745 1.25672 -4.05052 0
M  V30 534 N 51.4655 0.478998 -5.03527 0
M  V30 535 C 49.7635 1.53704 -4.18678 0
M  V30 536 C 50.4645 0.214269 -5.81305 0
M  V30 537 N 49.4405 0.795374 -5.3775 0
M  V30 538 H 53.2425 -0.0180946 -2.93894 0
M  V30 539 H 50.7565 -0.110601 -1.62023 0
M  V30 540 H 52.7535 2.4014 -3.40791 0
M  V30 541 H 51.4135 2.35812 -2.23211 0
M  V30 542 H 52.4245 0.123473 -5.17753 0
M  V30 543 H 49.1015 2.14954 -3.57912 0
M  V30 544 H 50.4915 -0.410656 -6.70644 0
M  V30 545 N 53.2116 1.57565 -0.0334293 0
M  V30 546 C 54.4596 1.91598 0.642999 0
M  V30 547 C 54.7806 0.910847 1.7242 0
M  V30 548 O 54.0506 -0.0469931 1.95844 0
M  V30 549 H 52.6306 0.707228 0.240496 0
M  V30 550 H 55.2926 1.94726 -0.0822488 0
M  V30 551 H 54.3886 2.92336 1.09298 0
M  V30 552 N 54.6897 -0.239769 1.55765 0
M  V30 553 C 55.6367 -1.29696 1.90913 0
M  V30 554 C 56.6067 -1.47478 0.764164 0
M  V30 555 O 57.7917 -1.61345 1.01845 0
M  V30 556 C 54.9317 -2.64598 2.21544 0
M  V30 557 C 54.0447 -2.54765 3.48882 0
M  V30 558 C 53.1797 -3.82069 3.69049 0
M  V30 559 C 52.2187 -3.66883 4.89963 0
M  V30 560 N 51.3557 -4.86094 5.06614 0
M  V30 561 H 56.1957 -0.990224 2.81067 0
M  V30 562 H 53.7327 -0.477684 1.39128 0
M  V30 563 H 55.6907 -3.43132 2.3731 0
M  V30 564 H 54.3207 -2.93405 1.34585 0
M  V30 565 H 53.3727 -1.67763 3.41409 0
M  V30 566 H 54.6847 -2.39457 4.37563 0
M  V30 567 H 53.8387 -4.69046 3.84812 0
M  V30 568 H 52.5777 -4.00282 2.78614 0
M  V30 569 H 51.5827 -2.78289 4.74168 0
M  V30 570 H 52.8077 -3.50157 5.81865 0
M  V30 571 H 50.7537 -5.04655 4.19117 0
M  V30 572 H 50.6707 -4.73443 5.89396 0
M  V30 573 H 51.9387 -5.74549 5.26795 0
M  V30 574 N 56.1678 -1.49265 -0.50573 0
M  V30 575 C 57.3958 -1.62215 -1.28429 0
M  V30 576 C 57.8108 -0.291697 -1.86533 0
M  V30 577 O 57.1678 0.722233 -1.67601 0
M  V30 578 C 57.2188 -2.68735 -2.41793 0
M  V30 579 O 56.9398 -3.96619 -1.86078 0
M  V30 580 C 58.4408 -2.92346 -3.3324 0
M  V30 581 H 55.6608 -0.546239 -0.389697 0
M  V30 582 H 58.2048 -1.95265 -0.607609 0
M  V30 583 H 56.3598 -2.38476 -3.053 0
M  V30 584 H 56.7738 -4.55256 -2.60465 0
M  V30 585 H 58.2478 -3.70623 -4.09075 0
M  V30 586 H 58.7248 -2.02081 -3.89948 0
M  V30 587 H 59.3308 -3.24003 -2.75503 0
M  V30 588 N 57.6459 0.756429 -1.3826 0
M  V30 589 C 58.8919 1.51772 -1.34511 0
M  V30 590 C 59.2249 1.94089 0.0656691 0
M  V30 591 O 58.4999 1.65221 1.02626 0
M  V30 592 C 58.7829 2.77226 -2.29821 0
M  V30 593 C 58.6359 2.41065 -3.79747 0
M  V30 594 C 59.9549 3.79236 -2.23312 0
M  V30 595 H 57.0739 0.550578 -0.489931 0
M  V30 596 H 59.7159 0.866607 -1.69086 0
M  V30 597 H 57.8659 3.32784 -2.00467 0
M  V30 598 H 59.5379 1.91303 -4.19763 0
M  V30 599 H 57.7809 1.7356 -3.97567 0
M  V30 600 H 58.4519 3.3081 -4.41892 0
M  V30 601 H 60.9279 3.3321 -2.49219 0
M  V30 602 H 59.8039 4.64714 -2.92116 0
M  V30 603 H 60.0649 4.24615 -1.23102 0
M  V30 604 N 59.124 1.23083 0.984299 0
M  V30 605 C 60.054 1.03292 2.09411 0
M  V30 606 C 61.035 -0.048923 1.7003 0
M  V30 607 O 62.22 0.114967 1.93859 0
M  V30 608 C 59.35 0.619155 3.41736 0
M  V30 609 C 58.304 1.64791 3.95004 0
M  V30 610 C 57.63 1.0897 5.23478 0
M  V30 611 C 58.93 3.03999 4.24714 0
M  V30 612 H 60.624 1.96119 2.26225 0
M  V30 613 H 58.17 0.944344 1.08711 0
M  V30 614 H 60.123 0.467777 4.18796 0
M  V30 615 H 58.847 -0.344786 3.24775 0
M  V30 616 H 57.506 1.78721 3.20085 0
M  V30 617 H 57.154 0.11686 5.02864 0
M  V30 618 H 56.854 1.77704 5.60085 0
M  V30 619 H 58.378 0.950093 6.03163 0
M  V30 620 H 59.792 2.93393 4.92538 0
M  V30 621 H 58.189 3.69936 4.72512 0
M  V30 622 H 59.259 3.53285 3.32142 0
M  V30 623 N 60.6021 -1.18246 1.0419 0
M  V30 624 C 61.8301 -1.92195 0.766072 0
M  V30 625 C 62.2451 -1.76247 -0.676933 0
M  V30 626 O 61.6021 -1.09293 -1.46155 0
M  V30 627 C 61.6531 -3.43568 1.12442 0
M  V30 628 O 61.3741 -3.59015 2.51078 0
M  V30 629 C 62.8751 -4.34613 0.873275 0
M  V30 630 H 60.0951 -0.610114 0.279288 0
M  V30 631 H 62.6391 -1.50007 1.38989 0
M  V30 632 H 60.7941 -3.8354 0.545542 0
M  V30 633 H 61.2081 -4.5273 2.64831 0
M  V30 634 H 62.6821 -5.39374 1.17385 0
M  V30 635 H 63.1591 -4.38781 -0.191909 0
M  V30 636 H 63.7651 -4.00341 1.43551 0
M  V30 637 N 62.0802 -0.821533 -1.34494 0
M  V30 638 C 63.0282 -0.230702 -2.31453 0
M  V30 639 C 64.0222 0.627793 -1.57338 0
M  V30 640 O 65.2282 0.519288 -1.72347 0
M  V30 641 H 61.6032 -0.0558577 -0.749923 0
M  V30 642 H 63.5742 -1.06332 -2.78812 0
M  V30 643 C 62.3232 0.59391 -3.4259 0
M  V30 644 H 61.6462 -0.0573588 -3.99759 0
M  V30 645 H 63.0862 0.973446 -4.12674 0
M  V30 646 C 61.5452 1.76568 -2.86924 0
M  V30 647 O 62.0752 2.8638 -2.81691 0
M  V30 648 N 60.2812 1.58198 -2.43766 0
M  V30 649 H 59.8282 0.68872 -2.48222 0
M  V30 650 H 59.7862 2.36752 -2.06871 0
M  V30 651 N 63.5583 1.46682 -0.576371 0
M  V30 652 C 64.4883 2.33028 0.148397 0
M  V30 653 C 65.4693 1.44961 0.889956 0
M  V30 654 O 66.6543 1.73789 0.866662 0
M  V30 655 C 63.7843 3.27117 1.1667 0
M  V30 656 C 62.7383 4.24575 0.540386 0
M  V30 657 C 62.0643 5.08126 1.6647 0
M  V30 658 C 63.3643 5.19722 -0.518331 0
M  V30 659 H 65.0583 2.93875 -0.572509 0
M  V30 660 H 62.6043 1.41315 -0.276768 0
M  V30 661 H 64.5573 3.86374 1.68204 0
M  V30 662 H 63.2813 2.64364 1.9178 0
M  V30 663 H 61.9403 3.66571 0.0461769 0
M  V30 664 H 61.5883 4.41762 2.40531 0
M  V30 665 H 61.2883 5.74122 1.25131 0
M  V30 666 H 62.8123 5.70246 2.18293 0
M  V30 667 H 64.2263 5.73232 -0.0883058 0
M  V30 668 H 62.6233 5.94026 -0.851679 0
M  V30 669 H 63.6933 4.64037 -1.40703 0
M  V30 670 N 65.0364 0.313813 1.54444 0
M  V30 671 C 65.9664 -0.549454 2.26943 0
M  V30 672 C 66.9474 -1.12741 1.27372 0
M  V30 673 O 68.1324 -1.15436 1.56167 0
M  V30 674 C 65.2624 -1.71523 3.01989 0
M  V30 675 C 64.2164 -1.26703 4.08816 0
M  V30 676 C 63.5424 -2.51898 4.71647 0
M  V30 677 C 64.8424 -0.388962 5.2085 0
M  V30 678 H 66.5364 0.0552661 2.99349 0
M  V30 679 H 64.0824 0.0280207 1.43973 0
M  V30 680 H 66.0354 -2.32535 3.51433 0
M  V30 681 H 64.7594 -2.34639 2.27183 0
M  V30 682 H 63.4184 -0.679896 3.6024 0
M  V30 683 H 63.0664 -3.13356 3.93468 0
M  V30 684 H 62.7664 -2.22605 5.43802 0
M  V30 685 H 64.2904 -3.1369 5.23861 0
M  V30 686 H 65.7044 -0.905107 5.6611 0
M  V30 687 H 64.1014 -0.18924 5.99802 0
M  V30 688 H 65.1714 0.582699 4.81386 0
M  V30 689 N 66.5145 -1.57545 0.0417849 0
M  V30 690 C 67.7915 -1.83642 -0.673433 0
M  V30 691 C 68.1715 -0.928298 -1.89594 0
M  V30 692 O 67.5195 0.0129955 -2.28496 0
M  V30 693 C 67.7295 -3.33155 -1.03964 0
M  V30 694 C 69.0775 -3.99941 -1.42592 0
M  V30 695 O 70.1015 -3.37725 -1.13226 0
M  V30 696 O 68.9605 -5.09619 -1.9736 0
M  V30 697 H 66.0545 -0.757638 -0.331533 0
M  V30 698 H 68.6005 -1.69554 0.070433 0
M  V30 699 H 67.3725 -3.9093 -0.170098 0
M  V30 700 H 66.9955 -3.52396 -1.84126 0
M  V30 701 N 67.9926 0.231505 -1.5589 0
M  V30 702 C 69.2176 0.978689 -1.82856 0
M  V30 703 C 69.6426 1.77559 -0.620846 0
M  V30 704 O 69.0006 1.76119 0.430305 0
M  V30 705 C 69.0486 1.87997 -3.07716 0
M  V30 706 O 68.1526 2.97393 -2.85712 0
M  V30 707 H 67.4936 0.277663 -0.603158 0
M  V30 708 H 70.0236 0.24783 -2.03093 0
M  V30 709 H 70.0336 2.2917 -3.37558 0
M  V30 710 H 68.7086 1.29417 -3.95252 0
M  V30 711 H 67.2856 2.60238 -2.67078 0
M  V30 712 N 69.4707 1.49531 0.497807 0
M  V30 713 C 70.7477 1.49682 1.25915 0
M  V30 714 C 71.1277 0.226339 2.09883 0
M  V30 715 O 70.4757 -0.791189 2.14365 0
M  V30 716 C 70.6857 2.77755 2.11313 0
M  V30 717 C 72.0337 3.27371 2.70395 0
M  V30 718 O 73.0577 2.78894 2.21578 0
M  V30 719 O 71.9167 4.11808 3.59272 0
M  V30 720 H 69.0107 0.599228 0.56996 0
M  V30 721 H 71.5567 1.61798 0.511816 0
M  V30 722 H 70.3287 3.61713 1.49264 0
M  V30 723 H 69.9517 2.68515 2.93233 0
M  V30 724 N 70.9488 -0.749086 1.3866 0
M  V30 725 C 72.2258 -1.4992 1.25632 0
M  V30 726 C 72.6058 -2.10633 -0.140317 0
M  V30 727 O 71.9538 -1.97437 -1.15025 0
M  V30 728 C 72.1638 -2.56195 2.36992 0
M  V30 729 C 73.5118 -3.22972 2.75634 0
M  V30 730 O 74.5358 -2.66502 2.36337 0
M  V30 731 O 73.3948 -4.25122 3.43415 0
M  V30 732 H 70.4888 -0.665067 0.491544 0
M  V30 733 H 73.0348 -0.784113 1.50498 0
M  V30 734 H 71.8068 -2.09612 3.30422 0
M  V30 735 H 71.4298 -3.35279 2.13714 0
M  V30 736 N 72.4269 -1.23603 -0.977757 0
M  V30 737 C 73.6729 -1.07129 -1.72195 0
M  V30 738 C 74.0059 0.390501 -1.90233 0
M  V30 739 O 73.2809 1.28902 -1.45653 0
M  V30 740 C 73.5639 -1.80031 -3.11867 0
M  V30 741 C 73.4169 -3.33899 -3.01383 0
M  V30 742 C 74.7359 -1.56492 -4.11337 0
M  V30 743 H 71.8549 -0.390571 -0.624999 0
M  V30 744 H 74.4969 -1.52142 -1.13811 0
M  V30 745 H 72.6469 -1.41768 -3.6171 0
M  V30 746 H 74.3189 -3.81699 -2.59043 0
M  V30 747 H 72.5619 -3.62796 -2.37827 0
M  V30 748 H 73.2329 -3.801 -4.00285 0
M  V30 749 H 75.7089 -1.89757 -3.70313 0
M  V30 750 H 74.5849 -2.09973 -5.07151 0
M  V30 751 H 74.8459 -0.500874 -4.39254 0
M  V30 752 N 73.905 1.17692 -1.04816 0
M  V30 753 C 75.321 1.39863 -0.768794 0
M  V30 754 C 75.521 1.91118 0.638451 0
M  V30 755 O 74.577 2.10036 1.40146 0
M  V30 756 C 75.89 2.39274 -1.82122 0
M  V30 757 C 77.438 2.52987 -1.843 0
M  V30 758 C 77.913 3.55669 -2.88555 0
M  V30 759 N 79.404 3.63183 -2.87493 0
M  V30 760 C 80.139 4.42381 -3.64811 0
M  V30 761 N 79.635 5.25125 -4.51903 0
M  V30 762 N 81.428 4.37217 -3.53267 0
M  V30 763 H 73.579 0.82752 -1.95617 0
M  V30 764 H 75.842 0.426123 -0.846831 0
M  V30 765 H 75.548 2.08678 -2.83102 0
M  V30 766 H 75.422 3.38725 -1.65967 0
M  V30 767 H 77.809 2.82896 -0.839869 0
M  V30 768 H 77.89 1.53623 -2.04532 0
M  V30 769 H 77.534 3.26499 -3.89051 0
M  V30 770 H 77.464 4.54728 -2.65575 0
M  V30 771 H 79.955 3.04103 -2.24343 0
M  V30 772 H 80.268 5.82728 -5.07591 0
M  V30 773 H 78.613 5.24519 -4.55966 0
M  V30 774 H 81.804 3.71626 -2.84625 0
M  V30 775 H 81.977 4.98696 -4.13771 0
M  V30 776 N 75.3831 0.828654 1.34056 0
M  V30 777 C 76.3331 0.226828 2.26869 0
M  V30 778 C 77.3171 -0.612243 1.48796 0
M  V30 779 O 78.5091 -0.465884 1.70759 0
M  V30 780 C 75.6381 -0.605654 3.37915 0
M  V30 781 C 74.7241 0.244361 4.23395 0
M  V30 782 N 75.1151 1.31815 4.88322 0
M  V30 783 C 73.4131 0.0296616 4.4599 0
M  V30 784 C 74.1141 1.83895 5.51867 0
M  V30 785 N 73.0901 1.14196 5.3147 0
M  V30 786 H 76.8921 1.04811 2.74576 0
M  V30 787 H 74.4061 0.67205 1.47842 0
M  V30 788 H 76.4031 -1.05302 4.03382 0
M  V30 789 H 75.0631 -1.42504 2.91758 0
M  V30 790 H 76.0741 1.70099 4.8917 0
M  V30 791 H 72.7511 -0.757097 4.10578 0
M  V30 792 H 74.1411 2.7376 6.136 0
M  V30 793 N 76.8612 -1.46375 0.584142 0
M  V30 794 C 77.7942 -2.27351 -0.196676 0
M  V30 795 C 78.7722 -1.35715 -0.895561 0
M  V30 796 O 79.9562 -1.65126 -0.90916 0
M  V30 797 C 77.0832 -3.13486 -1.28235 0
M  V30 798 C 76.1292 -4.20896 -0.689145 0
M  V30 799 S 76.9622 -5.33299 0.48507 0
M  V30 800 C 78.1182 -6.23 -0.601767 0
M  V30 801 H 78.3512 -2.93228 0.490395 0
M  V30 802 H 75.8842 -1.49875 0.371071 0
M  V30 803 H 77.8422 -3.63676 -1.90395 0
M  V30 804 H 76.5032 -2.4692 -1.94138 0
M  V30 805 H 75.6962 -4.80997 -1.50527 0
M  V30 806 H 75.2982 -3.73726 -0.143181 0
M  V30 807 H 77.5902 -6.60979 -1.48705 0
M  V30 808 H 78.5332 -7.0809 -0.0374799 0
M  V30 809 H 78.9412 -5.57173 -0.906557 0
M  V30 810 N 78.3393 -0.321999 -1.54275 0
M  V30 811 C 79.2693 0.537411 -2.27231 0
M  V30 812 C 80.2503 1.12064 -1.27968 0
M  V30 813 O 81.4353 1.14606 -1.56777 0
M  V30 814 C 78.5653 1.69919 -3.02894 0
M  V30 815 C 77.5193 1.24534 -4.09482 0
M  V30 816 C 76.8453 2.49394 -4.72977 0
M  V30 817 C 78.1453 0.361335 -5.21049 0
M  V30 818 H 79.8393 -0.0711406 -2.99315 0
M  V30 819 H 77.3853 -0.0356555 -1.43956 0
M  V30 820 H 79.3383 2.30668 -3.52662 0
M  V30 821 H 78.0623 2.33431 -2.28424 0
M  V30 822 H 76.7213 0.660782 -3.60596 0
M  V30 823 H 76.3693 3.11265 -3.95124 0
M  V30 824 H 76.0693 2.19718 -5.44975 0
M  V30 825 H 77.5933 3.10908 -5.25517 0
M  V30 826 H 79.0073 0.875072 -5.66582 0
M  V30 827 H 77.4043 0.157428 -5.99893 0
M  V30 828 H 78.4743 -0.60822 -4.8107 0
M  V30 829 N 79.8174 1.5752 -0.0501392 0
M  V30 830 C 80.7654 2.12651 0.942459 0
M  V30 831 C 81.7594 1.05807 1.32292 0
M  V30 832 O 82.9654 1.24217 1.3027 0
M  V30 833 H 79.3404 0.679673 0.321789 0
M  V30 834 H 81.3114 2.94951 0.452356 0
M  V30 835 C 80.0604 2.68565 2.20836 0
M  V30 836 H 79.3834 3.50439 1.92439 0
M  V30 837 H 80.8234 3.10761 2.8845 0
M  V30 838 C 79.2824 1.62291 2.95234 0
M  V30 839 O 79.8124 1.03508 3.88135 0
M  V30 840 N 78.0184 1.33836 2.57946 0
M  V30 841 H 77.5654 1.81826 1.82475 0
M  V30 842 H 77.5234 0.629595 3.08032 0
M  V30 843 N 81.2955 -0.223234 1.56011 0
M  V30 844 C 82.2585 -1.26014 1.9145 0
M  V30 845 C 83.2585 -1.3989 0.792937 0
M  V30 846 O 84.4485 -1.38184 1.0607 0
M  V30 847 C 81.5805 -2.63422 2.16383 0
M  V30 848 H 82.7735 -0.95796 2.84189 0
M  V30 849 H 80.3265 -0.463576 1.49267 0
M  V30 850 H 81.0615 -2.98741 1.2619 0
M  V30 851 H 80.8465 -2.54728 2.98088 0
M  V30 852 H 82.3365 -3.38249 2.44903 0
M  V30 853 N 82.7736 -1.49793 -0.48987 0
M  V30 854 C 83.7036 -1.70201 -1.59856 0
M  V30 855 C 84.6846 -0.55076 -1.60937 0
M  V30 856 O 85.8696 -0.787841 -1.77501 0
M  V30 857 C 82.9996 -1.77882 -2.98287 0
M  V30 858 C 81.9536 -2.92907 -3.12073 0
M  V30 859 C 81.2796 -2.85712 -4.51965 0
M  V30 860 C 82.5796 -4.3369 -2.91051 0
M  V30 861 H 84.2736 -2.63025 -1.43032 0
M  V30 862 H 81.8196 -1.26574 -0.686664 0
M  V30 863 H 83.7726 -1.90744 -3.75759 0
M  V30 864 H 82.4966 -0.816653 -3.16225 0
M  V30 865 H 81.1556 -2.79665 -2.37029 0
M  V30 866 H 80.8036 -1.8738 -4.66795 0
M  V30 867 H 80.5036 -3.62921 -4.62128 0
M  V30 868 H 82.0276 -3.00598 -5.31482 0
M  V30 869 H 83.4416 -4.47555 -3.58284 0
M  V30 870 H 81.8386 -5.12205 -3.12675 0
M  V30 871 H 82.9086 -4.47362 -1.87071 0
M  V30 872 N 84.2517 0.741722 -1.39055 0
M  V30 873 C 85.4797 1.53098 -1.39171 0
M  V30 874 C 85.8947 1.88794 0.0155099 0
M  V30 875 O 85.2517 1.53626 0.985159 0
M  V30 876 C 85.3027 2.82274 -2.2584 0
M  V30 877 O 85.0237 2.48097 -3.61081 0
M  V30 878 C 86.5247 3.76343 -2.34266 0
M  V30 879 H 83.7447 0.473335 -0.4756 0
M  V30 880 H 86.2887 0.917045 -1.82785 0
M  V30 881 H 84.4437 3.40015 -1.85656 0
M  V30 882 H 84.8577 3.31029 -4.06842 0
M  V30 883 H 86.3317 4.63898 -2.9917 0
M  V30 884 H 86.8087 4.17619 -1.35982 0
M  V30 885 H 87.4147 3.24523 -2.74891 0
M  V30 886 N 85.7298 1.2412 0.971189 0
M  V30 887 C 86.6928 1.03156 2.04674 0
M  V30 888 C 87.6928 -0.00990322 1.60797 0
M  V30 889 O 88.8828 0.230729 1.72665 0
M  V30 890 C 86.0148 0.562765 3.36223 0
M  V30 891 H 87.2078 1.98614 2.24705 0
M  V30 892 H 84.7608 1.06293 1.14593 0
M  V30 893 H 85.4958 -0.395176 3.21883 0
M  V30 894 H 85.2808 1.31441 3.69413 0
M  V30 895 H 86.7708 0.437015 4.15307 0
M  V30 896 N 87.2079 -1.17134 1.05439 0
M  V30 897 C 88.1379 -2.2342 0.678649 0
M  V30 898 C 89.1189 -1.66971 -0.32476 0
M  V30 899 O 90.3039 -1.93149 -0.201802 0
M  V30 900 C 87.4339 -3.47256 0.0552099 0
M  V30 901 C 86.3879 -4.16543 0.98365 0
M  V30 902 C 85.7139 -5.34231 0.223961 0
M  V30 903 C 87.0139 -4.68495 2.3089 0
M  V30 904 H 88.7079 -2.55105 1.56722 0
M  V30 905 H 86.2539 -1.2262 0.754998 0
M  V30 906 H 88.2069 -4.20828 -0.21946 0
M  V30 907 H 86.9309 -3.14846 -0.868319 0
M  V30 908 H 85.5899 -3.44887 1.24293 0
M  V30 909 H 85.2379 -4.98071 -0.702412 0
M  V30 910 H 84.9379 -5.81527 0.842627 0
M  V30 911 H 86.4619 -6.10585 -0.0433671 0
M  V30 912 H 87.8759 -5.33691 2.09396 0
M  V30 913 H 86.2729 -5.26379 2.88176 0
M  V30 914 H 87.3429 -3.85169 2.94572 0
M  V30 915 N 88.686 -0.835752 -1.33615 0
M  V30 916 C 89.934 -0.429109 -1.97492 0
M  V30 917 C 90.255 1.01433 -1.66543 0
M  V30 918 O 89.525 1.70611 -0.962744 0
M  V30 919 H 88.105 -0.155686 -0.730596 0
M  V30 920 H 90.767 -1.06802 -1.63031 0
M  V30 921 H 89.863 -0.55861 -3.0706 0
M  V30 922 N 90.1641 1.46063 -0.591896 0
M  V30 923 C 91.4101 2.02638 -0.0811191 0
M  V30 924 C 91.7431 1.4613 1.27905 0
M  V30 925 O 91.0181 0.629908 1.84017 0
M  V30 926 C 91.3011 3.60091 -0.0252436 0
M  V30 927 C 91.1541 4.26965 -1.41496 0
M  V30 928 C 92.4731 4.3496 0.670685 0
M  V30 929 H 89.5921 0.73635 -0.0309524 0
M  V30 930 H 92.2341 1.741 -0.760859 0
M  V30 931 H 90.3841 3.84535 0.553624 0
M  V30 932 H 92.0561 4.13756 -2.0397 0
M  V30 933 H 90.2991 3.85971 -1.98011 0
M  V30 934 H 90.9701 5.35781 -1.32825 0
M  V30 935 H 93.4461 4.15716 0.178825 0
M  V30 936 H 92.3221 5.44686 0.678837 0
M  V30 937 H 92.5831 4.06685 1.73379 0
M  V30 938 N 91.6422 0.330177 1.54103 0
M  V30 939 C 92.8672 -0.274893 2.0557 0
M  V30 940 C 93.2922 -1.44487 1.20437 0
M  V30 941 O 92.6502 -1.80021 0.214991 0
M  V30 942 C 92.6982 -0.68079 3.54115 0
M  V30 943 O 91.8022 -1.7824 3.71893 0
M  V30 944 H 91.1432 -0.0483849 0.662235 0
M  V30 945 H 93.6732 0.480508 1.98878 0
M  V30 946 H 93.6832 -0.961635 3.96505 0
M  V30 947 H 92.3582 0.174903 4.15532 0
M  V30 948 H 90.9352 -1.49985 3.41407 0
M  V30 949 N 93.1203 -1.57491 0.0584922 0
M  V30 950 C 94.3503 -1.9701 -0.622134 0
M  V30 951 C 94.7583 -0.935034 -1.6448 0
M  V30 952 O 94.1013 0.0882904 -1.83488 0
M  V30 953 C 94.1633 -3.32794 -1.35972 0
M  V30 954 C 93.8273 -4.54343 -0.492043 0
M  V30 955 C 94.8243 -5.19323 0.244901 0
M  V30 956 C 92.5093 -5.00534 -0.420821 0
M  V30 957 C 94.5033 -6.28835 1.04143 0
M  V30 958 C 92.1903 -6.09921 0.379389 0
M  V30 959 C 93.1883 -6.73933 1.10919 0
M  V30 960 O 92.8763 -7.81216 1.89623 0
M  V30 961 H 92.6083 -0.653127 -0.174359 0
M  V30 962 H 95.1623 -2.05029 0.123418 0
M  V30 963 H 93.3923 -3.21351 -2.15105 0
M  V30 964 H 95.0813 -3.5701 -1.93129 0
M  V30 965 H 95.8473 -4.8459 0.19939 0
M  V30 966 H 91.7263 -4.50496 -0.978474 0
M  V30 967 H 95.2703 -6.7873 1.61157 0
M  V30 968 H 91.1673 -6.44089 0.426512 0
M  V30 969 H 91.9353 -7.98029 1.81913 0
M  V30 970 N 94.5984 0.214957 -1.56127 0
M  V30 971 C 95.8264 0.955092 -1.83536 0
M  V30 972 C 96.2414 1.77677 -0.638472 0
M  V30 973 O 95.5984 1.78219 0.392968 0
M  V30 974 C 95.6494 1.86734 -3.09536 0
M  V30 975 O 95.3704 1.07887 -4.24608 0
M  V30 976 C 96.8714 2.72082 -3.4998 0
M  V30 977 H 94.0914 0.279611 -0.609966 0
M  V30 978 H 96.6354 0.228197 -2.03223 0
M  V30 979 H 94.7904 2.5481 -2.91806 0
M  V30 980 H 95.2044 1.69872 -4.9623 0
M  V30 981 H 96.6784 3.31782 -4.41163 0
M  V30 982 H 97.1554 3.44806 -2.7204 0
M  V30 983 H 97.7614 2.09409 -3.70173 0
M  V30 984 N 96.0765 1.50051 0.48192 0
M  V30 985 C 97.0065 1.71046 1.58951 0
M  V30 986 C 97.9875 0.559288 1.60642 0
M  V30 987 O 99.1725 0.797243 1.77081 0
M  V30 988 C 96.3025 1.79462 2.97339 0
M  V30 989 C 95.2565 2.94558 3.10515 0
M  V30 990 C 94.5825 2.88105 4.50444 0
M  V30 991 C 95.8825 4.35227 2.88747 0
M  V30 992 H 97.5765 2.6378 1.41635 0
M  V30 993 H 95.1225 1.26936 0.679942 0
M  V30 994 H 97.0755 1.92734 3.74742 0
M  V30 995 H 95.7995 0.833412 3.15788 0
M  V30 996 H 94.4585 2.80918 2.35543 0
M  V30 997 H 94.1065 1.89853 4.65795 0
M  V30 998 H 93.8065 3.65366 4.60197 0
M  V30 999 H 95.3305 3.03412 5.29881 0
M  V30 1000 H 96.7445 4.49449 3.55905 0
M  V30 1001 H 95.1415 5.13856 3.09955 0
M  V30 1002 H 96.2115 4.48347 1.84696 0
M  V30 1003 N 97.5546 -0.734337 1.39446 0
M  V30 1004 C 98.7796 -1.52866 1.40167 0
M  V30 1005 C 99.2046 -1.881 -0.00171513 0
M  V30 1006 O 98.5626 -1.51957 -0.988879 0
M  V30 1007 C 98.6106 -2.79235 2.28167 0
M  V30 1008 O 97.7146 -3.75185 1.71201 0
M  V30 1009 H 97.0556 -0.461618 0.477289 0
M  V30 1010 H 99.5856 -0.905949 1.8345 0
M  V30 1011 H 99.5956 -3.27963 2.42702 0
M  V30 1012 H 98.2706 -2.52923 3.30156 0
M  V30 1013 H 96.8476 -3.33958 1.65912 0
M  V30 1014 N 99.0327 -1.24633 -0.964593 0
M  V30 1015 C 99.9957 -1.0424 -2.04124 0
M  V30 1016 C 100.996 0.00137563 -1.608 0
M  V30 1017 O 102.186 -0.239883 -1.7254 0
M  V30 1018 C 99.3177 -0.580588 -3.3592 0
M  V30 1019 H 100.511 -1.99803 -2.23649 0
M  V30 1020 H 98.0637 -1.06899 -1.14027 0
M  V30 1021 H 98.7987 0.3781 -3.22088 0
M  V30 1022 H 98.5837 -1.33398 -3.6871 0
M  V30 1023 H 100.074 -0.459034 -4.15069 0
M  V30 1024 N 100.511 1.16574 -1.06058 0
M  V30 1025 C 101.788 1.83048 -0.689416 0
M  V30 1026 C 102.168 1.94122 0.829443 0
M  V30 1027 O 101.516 1.48249 1.7388 0
M  V30 1028 C 101.726 3.20186 -1.38859 0
M  V30 1029 C 103.074 3.95989 -1.53226 0
M  V30 1030 O 104.098 3.29696 -1.3483 0
M  V30 1031 O 102.957 5.14813 -1.83384 0
M  V30 1032 H 100.051 0.790258 -0.243764 0
M  V30 1033 H 102.597 1.23797 -1.16071 0
M  V30 1034 H 101.369 3.07146 -2.4244 0
M  V30 1035 H 100.992 3.87112 -0.907216 0
M  V30 1036 N 101.989 0.842826 1.3317 0
M  V30 1037 C 103.405 0.531128 1.50503 0
M  V30 1038 C 103.605 -0.940734 1.78192 0
M  V30 1039 O 102.661 -1.72436 1.84451 0
M  V30 1040 C 103.974 1.40789 2.65705 0
M  V30 1041 C 105.522 1.40708 2.79589 0
M  V30 1042 C 105.997 2.26878 3.97857 0
M  V30 1043 N 107.488 2.24609 4.05099 0
M  V30 1044 C 108.223 2.88019 4.95815 0
M  V30 1045 N 107.719 3.60496 5.9162 0
M  V30 1046 N 109.512 2.77469 4.88843 0
M  V30 1047 H 101.663 1.79557 1.1346 0
M  V30 1048 H 103.926 0.766267 0.558156 0
M  V30 1049 H 103.632 2.454 2.51936 0
M  V30 1050 H 103.506 1.08677 3.61205 0
M  V30 1051 H 105.893 0.368668 2.92788 0
M  V30 1052 H 105.974 1.76829 1.84838 0
M  V30 1053 H 105.618 3.3078 3.85418 0
M  V30 1054 H 105.548 1.88096 4.91861 0
M  V30 1055 H 108.039 1.71906 3.36536 0
M  V30 1056 H 108.352 4.06076 6.57512 0
M  V30 1057 H 106.697 3.64604 5.91683 0
M  V30 1058 H 109.888 2.20406 4.12963 0
M  V30 1059 H 110.061 3.2717 5.59342 0
M  V30 1060 N 103.467 -1.45747 0.599634 0
M  V30 1061 C 104.695 -2.06668 0.0978551 0
M  V30 1062 C 105.11 -1.44562 -1.21439 0
M  V30 1063 O 104.467 -0.556923 -1.73795 0
M  V30 1064 C 104.518 -3.61456 -0.0567044 0
M  V30 1065 O 104.239 -4.21242 1.20361 0
M  V30 1066 C 105.74 -4.39345 -0.590869 0
M  V30 1067 H 102.96 -0.667825 0.0651943 0
M  V30 1068 H 105.504 -1.87115 0.82511 0
M  V30 1069 H 103.659 -3.80378 -0.734251 0
M  V30 1070 H 104.073 -5.14323 1.02821 0
M  V30 1071 H 105.547 -5.48182 -0.648131 0
M  V30 1072 H 106.024 -4.08568 -1.61147 0
M  V30 1073 H 106.63 -4.25268 0.0523679 0
M  V30 1074 N 104.945 -0.338344 -1.53925 0
M  V30 1075 C 106.361 0.0137736 -1.59594 0
M  V30 1076 C 106.561 1.49186 -1.35447 0
M  V30 1077 O 105.617 2.24987 -1.14616 0
M  V30 1078 C 106.93 -0.41773 -2.97784 0
M  V30 1079 C 108.478 -0.369633 -3.1081 0
M  V30 1080 C 108.953 -0.776524 -4.51369 0
M  V30 1081 N 110.444 -0.730506 -4.57403 0
M  V30 1082 C 111.179 -1.01736 -5.64303 0
M  V30 1083 N 110.675 -1.3721 -6.79077 0
M  V30 1084 N 112.468 -0.941942 -5.54151 0
M  V30 1085 H 104.619 -1.3012 -1.67876 0
M  V30 1086 H 106.882 -0.530082 -0.78595 0
M  V30 1087 H 106.588 -1.44811 -3.20504 0
M  V30 1088 H 106.462 0.209729 -3.76616 0
M  V30 1089 H 108.849 0.651568 -2.87817 0
M  V30 1090 H 108.93 -1.03223 -2.34049 0
M  V30 1091 H 108.574 -1.79571 -4.75096 0
M  V30 1092 H 108.504 -0.0914649 -5.26521 0
M  V30 1093 H 110.995 -0.468783 -3.74981 0
M  V30 1094 H 111.308 -1.57597 -7.5656 0
M  V30 1095 H 109.653 -1.4105 -6.80536 0
M  V30 1096 H 112.844 -0.664184 -4.63364 0
M  V30 1097 H 113.017 -1.16884 -6.37371 0
M  V30 1098 N 106.423 1.57458 -0.0668435 0
M  V30 1099 C 107.663 1.95175 0.607116 0
M  V30 1100 C 108.027 0.946039 1.67075 0
M  V30 1101 O 109.228 1.2107 2.39991 0
M  V30 1102 C 107.499 3.37582 1.17358 0
M  V30 1103 S 109.058 3.97271 1.86336 0
M  V30 1104 H 105.876 0.682604 0.19893 0
M  V30 1105 H 108.478 1.95002 -0.139519 0
M  V30 1106 H 107.182 4.08566 0.387553 0
M  V30 1107 H 106.713 3.41288 1.95669 0
M  V30 1108 H 108.728 3.83772 3.14537 0
M  V30 1109 N 107.901 -0.206675 1.56239 0
M  V30 1110 C 108.811 -1.27686 1.96808 0
M  V30 1111 C 109.827 -1.50455 0.874035 0
M  V30 1112 O 111.003 -1.63295 1.17884 0
M  V30 1113 C 108.068 -2.60358 2.28942 0
M  V30 1114 C 107.129 -2.45762 3.51994 0
M  V30 1115 C 106.362 -3.72108 3.82585 0
M  V30 1116 O 106.585 -4.75776 3.14631 0
M  V30 1117 O 105.519 -3.6833 4.76043 0
M  V30 1118 H 109.345 -0.962593 2.88041 0
M  V30 1119 H 106.93 -0.410746 1.43643 0
M  V30 1120 H 108.812 -3.38687 2.50737 0
M  V30 1121 H 107.487 -2.91435 1.4088 0
M  V30 1122 H 106.394 -1.65584 3.35459 0
M  V30 1123 H 107.727 -2.19621 4.40486 0
M  V30 1124 N 109.379 -1.50304 -0.473955 0
M  V30 1125 C 110.628 -1.60392 -1.22301 0
M  V30 1126 C 110.941 -0.308411 -1.93153 0
M  V30 1127 O 112.147 -0.288156 -2.69966 0
M  V30 1128 C 110.603 -2.83109 -2.2221 0
M  V30 1129 C 110.211 -4.19524 -1.57173 0
M  V30 1130 C 111.955 -3.0254 -2.97775 0
M  V30 1131 C 109.862 -5.33431 -2.55353 0
M  V30 1132 H 108.792 -0.597286 -0.460179 0
M  V30 1133 H 111.443 -1.76731 -0.493803 0
M  V30 1134 H 109.825 -2.60322 -2.9841 0
M  V30 1135 H 110.999 -4.52554 -0.867824 0
M  V30 1136 H 109.314 -4.05674 -0.939002 0
M  V30 1137 H 111.911 -3.84811 -3.71248 0
M  V30 1138 H 112.254 -2.14154 -3.56992 0
M  V30 1139 H 112.787 -3.25494 -2.28688 0
M  V30 1140 H 109.526 -6.23962 -2.00878 0
M  V30 1141 H 109.046 -5.04823 -3.23904 0
M  V30 1142 H 110.725 -5.63887 -3.17239 0
M  V30 1143 N 110.857 0.726932 -1.39834 0
M  V30 1144 C 112.106 1.48214 -1.36805 0
M  V30 1145 C 112.419 1.95576 0.0305291 0
M  V30 1146 O 113.625 2.7088 0.183417 0
M  V30 1147 C 112.081 2.67854 -2.40379 0
M  V30 1148 C 111.689 2.27408 -3.85992 0
M  V30 1149 C 113.433 3.45641 -2.46439 0
M  V30 1150 C 111.34 3.43819 -4.81189 0
M  V30 1151 H 110.27 0.556606 -0.508631 0
M  V30 1152 H 112.921 0.792216 -1.65518 0
M  V30 1153 H 111.303 3.3896 -2.04749 0
M  V30 1154 H 112.477 1.63795 -4.30706 0
M  V30 1155 H 110.792 1.62692 -3.83302 0
M  V30 1156 H 113.389 4.32244 -3.14753 0
M  V30 1157 H 113.732 3.88669 -1.49139 0
M  V30 1158 H 114.265 2.8157 -2.81004 0
M  V30 1159 H 111.004 3.05834 -5.79781 0
M  V30 1160 H 110.524 4.06385 -4.41148 0
M  V30 1161 H 112.203 4.10043 -5.00474 0
M  V30 1162 N 112.336 1.25143 0.95797 0
M  V30 1163 C 113.584 1.09476 1.69881 0
M  V30 1164 C 113.905 -0.365502 1.91544 0
M  V30 1165 O 113.175 -1.25985 1.50015 0
M  V30 1166 H 111.755 0.402128 0.629525 0
M  V30 1167 H 114.417 1.57214 1.15194 0
M  V30 1168 H 113.513 1.60046 2.6794 0
M  V30 1169 N 113.814 -1.1601 1.06675 0
M  V30 1170 C 114.762 -2.22586 0.675157 0
M  V30 1171 C 115.756 -1.66525 -0.310766 0
M  V30 1172 O 116.962 -1.79145 -0.175215 0
M  V30 1173 H 113.337 -0.724855 0.200223 0
M  V30 1174 H 115.308 -2.52899 1.58381 0
M  V30 1175 C 114.057 -3.47604 0.0817162 0
M  V30 1176 H 113.38 -3.91058 0.831484 0
M  V30 1177 H 114.82 -4.23718 -0.154708 0
M  V30 1178 C 113.279 -3.15718 -1.17576 0
M  V30 1179 O 113.809 -3.31878 -2.26318 0
M  V30 1180 N 112.015 -2.69816 -1.07923 0
M  V30 1181 H 111.562 -2.56866 -0.194293 0
M  V30 1182 H 111.52 -2.48855 -1.92141 0
M  V30 1183 N 115.292 -0.849877 -1.32721 0
M  V30 1184 C 116.54 -0.450032 -1.97026 0
M  V30 1185 C 116.861 0.996604 -1.67609 0
M  V30 1186 O 116.131 1.6958 -0.980786 0
M  V30 1187 H 114.711 -0.163426 -0.728904 0
M  V30 1188 H 117.373 -1.08526 -1.6189 0
M  V30 1189 H 116.469 -0.591146 -3.0645 0
M  V30 1190 N 116.77 1.45427 -0.607355 0
M  V30 1191 C 118.018 2.01841 -0.102253 0
M  V30 1192 C 118.339 1.47832 1.27164 0
M  V30 1193 O 117.609 0.672497 1.83995 0
M  V30 1194 H 116.189 0.746188 -0.0348101 0
M  V30 1195 H 118.851 1.78229 -0.7887 0
M  V30 1196 H 117.947 3.12057 -0.0518585 0
M  V30 1197 N 118.248 0.346503 1.53744 0
M  V30 1198 C 119.659 -0.136779 1.86198 0
M  V30 1199 C 120.01 -1.49749 1.26766 0
M  V30 1200 O 119.135 -2.08417 0.582355 0
M  V30 1201 C 119.73 -0.254966 3.37839 0
M  V30 1202 C 118.289 -0.682482 3.70161 0
M  V30 1203 C 117.436 0.181981 2.76702 0
M  V30 1204 H 120.387 0.565994 1.48264 0
M  V30 1205 H 120.408 -1.08195 3.64793 0
M  V30 1206 H 119.92 0.735526 3.81066 0
M  V30 1207 H 118.021 -1.68189 3.3248 0
M  V30 1208 H 118.134 -0.470326 4.76786 0
M  V30 1209 H 116.498 -0.34615 2.52337 0
M  V30 1210 H 117.281 1.16966 3.2276 0
M  V30 1211 N 119.726 -1.57421 0.075193 0
M  V30 1212 C 120.656 -2.15942 -0.888324 0
M  V30 1213 C 121.637 -1.08737 -1.30806 0
M  V30 1214 O 122.822 -1.36787 -1.37851 0
M  V30 1215 C 119.952 -2.72379 -2.1547 0
M  V30 1216 C 118.906 -3.8478 -1.87425 0
M  V30 1217 C 118.232 -4.27834 -3.20721 0
M  V30 1218 C 119.532 -5.08869 -1.17684 0
M  V30 1219 H 121.226 -2.96705 -0.400799 0
M  V30 1220 H 118.772 -1.42723 -0.191342 0
M  V30 1221 H 120.725 -3.11965 -2.83295 0
M  V30 1222 H 119.449 -1.88841 -2.6647 0
M  V30 1223 H 118.108 -3.45703 -1.22004 0
M  V30 1224 H 117.756 -3.41214 -3.6957 0
M  V30 1225 H 117.456 -5.03605 -3.02746 0
M  V30 1226 H 118.98 -4.70039 -3.89738 0
M  V30 1227 H 120.394 -5.4575 -1.75584 0
M  V30 1228 H 118.791 -5.8994 -1.09956 0
M  V30 1229 H 119.861 -4.84648 -0.156453 0
M  V30 1230 N 121.204 0.198386 -1.56346 0
M  V30 1231 C 122.154 1.2499 -1.90687 0
M  V30 1232 C 123.138 1.41158 -0.772217 0
M  V30 1233 O 124.33 1.43584 -1.03502 0
M  V30 1234 C 121.459 2.59542 -2.24706 0
M  V30 1235 C 120.545 2.47181 -3.44619 0
M  V30 1236 N 120.936 2.04495 -4.62618 0
M  V30 1237 C 119.234 2.78082 -3.48692 0
M  V30 1238 C 119.935 2.03945 -5.44776 0
M  V30 1239 N 118.911 2.45323 -4.85095 0
M  V30 1240 H 122.713 0.911149 -2.7942 0
M  V30 1241 H 120.227 0.40684 -1.57221 0
M  V30 1242 H 122.224 3.3549 -2.47491 0
M  V30 1243 H 120.884 2.94244 -1.37298 0
M  V30 1244 H 121.895 1.75256 -4.87345 0
M  V30 1245 H 118.572 3.17002 -2.71691 0
M  V30 1246 H 119.962 1.72872 -6.4928 0
M  V30 1247 N 122.682 1.50554 0.465978 0
M  V30 1248 C 123.645 1.69233 1.54574 0
M  V30 1249 C 124.645 0.562901 1.50626 0
M  V30 1250 O 125.835 0.830016 1.53155 0
M  V30 1251 C 122.967 1.7223 2.94193 0
M  V30 1252 H 124.16 2.65571 1.39327 0
M  V30 1253 H 121.713 1.40111 0.692711 0
M  V30 1254 H 122.448 0.77603 3.14878 0
M  V30 1255 H 122.233 2.54285 2.98466 0
M  V30 1256 H 123.723 1.88618 3.72576 0
M  V30 1257 N 124.16 -0.719506 1.40217 0
M  V30 1258 C 125.07 -1.86378 1.42479 0
M  V30 1259 C 126.086 -1.71073 0.317834 0
M  V30 1260 O 127.262 -1.93406 0.561794 0
M  V30 1261 C 124.327 -3.22136 1.28178 0
M  V30 1262 C 123.388 -3.49723 2.48982 0
M  V30 1263 C 122.621 -4.79004 2.35353 0
M  V30 1264 O 122.844 -5.53821 1.36524 0
M  V30 1265 O 121.778 -5.06839 3.2465 0
M  V30 1266 H 125.604 -1.87425 2.38968 0
M  V30 1267 H 123.189 -0.869405 1.21498 0
M  V30 1268 H 125.071 -4.03234 1.22395 0
M  V30 1269 H 123.746 -3.21825 0.347934 0
M  V30 1270 H 122.653 -2.6865 2.60342 0
M  V30 1271 H 123.986 -3.54828 3.41113 0
M  V30 1272 N 125.638 -1.25649 -0.95132 0
M  V30 1273 C 126.886 -1.10375 -1.69298 0
M  V30 1274 C 127.207 0.355339 -1.91735 0
M  V30 1275 O 126.477 1.25188 -1.50681 0
M  V30 1276 H 125.057 -0.405461 -0.627384 0
M  V30 1277 H 127.719 -1.57823 -1.14358 0
M  V30 1278 H 126.815 -1.61465 -2.67087 0
M  V30 1279 N 127.117 1.15442 -1.07289 0
M  V30 1280 C 128.08 2.18358 -0.696591 0
M  V30 1281 C 129.08 1.58637 0.262837 0
M  V30 1282 O 130.27 1.74145 0.0438809 0
M  V30 1283 C 127.402 3.4089 -0.0266151 0
M  V30 1284 H 128.595 2.53162 -1.60776 0
M  V30 1285 H 126.148 1.29893 -0.869342 0
M  V30 1286 H 126.883 3.11653 0.896822 0
M  V30 1287 H 126.668 3.85495 -0.716657 0
M  V30 1288 H 128.158 4.17009 0.222028 0
M  V30 1289 N 128.595 0.856903 1.32268 0
M  V30 1290 C 129.525 0.31858 2.31316 0
M  V30 1291 C 130.506 -0.583487 1.59779 0
M  V30 1292 O 131.691 -0.503259 1.87566 0
M  V30 1293 C 128.821 -0.491979 3.43798 0
M  V30 1294 C 127.775 0.315849 4.26833 0
M  V30 1295 C 127.101 -0.619586 5.31098 0
M  V30 1296 C 128.401 1.54282 4.98993 0
M  V30 1297 H 130.095 1.14621 2.76591 0
M  V30 1298 H 127.641 0.552613 1.32974 0
M  V30 1299 H 129.594 -0.879012 4.1213 0
M  V30 1300 H 128.318 -1.35299 2.97257 0
M  V30 1301 H 126.977 0.684664 3.6015 0
M  V30 1302 H 126.625 -1.47751 4.8081 0
M  V30 1303 H 126.325 -0.0830621 5.87541 0
M  V30 1304 H 127.849 -1.00375 6.02293 0
M  V30 1305 H 129.263 1.22796 5.59995 0
M  V30 1306 H 127.66 2.01745 5.65172 0
M  V30 1307 H 128.73 2.30285 4.26728 0
M  V30 1308 N 130.073 -1.45103 0.615059 0
M  V30 1309 C 130.983 -2.34382 -0.101034 0
M  V30 1310 C 131.999 -1.51681 -0.852585 0
M  V30 1311 O 133.175 -1.8446 -0.808484 0
M  V30 1312 C 130.24 -3.29417 -1.08099 0
M  V30 1313 C 129.301 -4.28025 -0.330577 0
M  V30 1314 C 128.534 -5.1852 -1.26385 0
M  V30 1315 O 128.757 -5.12598 -2.50198 0
M  V30 1316 O 127.691 -5.97122 -0.756866 0
M  V30 1317 H 131.517 -2.97033 0.632855 0
M  V30 1318 H 129.102 -1.4461 0.375293 0
M  V30 1319 H 130.984 -3.87958 -1.6452 0
M  V30 1320 H 129.659 -2.69321 -1.79577 0
M  V30 1321 H 128.566 -3.73078 0.276283 0
M  V30 1322 H 129.899 -4.90997 0.343866 0
M  V30 1323 N 131.551 -0.354651 -1.53558 0
M  V30 1324 C 132.481 0.489091 -2.2832 0
M  V30 1325 C 133.462 1.09324 -1.30316 0
M  V30 1326 O 134.647 1.11255 -1.59173 0
M  V30 1327 C 131.777 1.63456 -3.0643 0
M  V30 1328 C 130.731 1.1582 -4.12031 0
M  V30 1329 C 130.057 2.39305 -4.7816 0
M  V30 1330 C 131.357 0.250731 -5.21698 0
M  V30 1331 H 133.051 -0.134614 -2.99097 0
M  V30 1332 H 130.597 -0.0661826 -1.43848 0
M  V30 1333 H 132.55 2.23136 -3.57475 0
M  V30 1334 H 131.274 2.28533 -2.33325 0
M  V30 1335 H 129.933 0.584146 -3.61916 0
M  V30 1336 H 129.581 3.02814 -4.01637 0
M  V30 1337 H 129.281 2.08109 -5.49513 0
M  V30 1338 H 130.805 2.99691 -5.31994 0
M  V30 1339 H 132.219 0.754695 -5.68311 0
M  V30 1340 H 130.616 0.0301468 -6.00092 0
M  V30 1341 H 131.686 -0.710125 -4.79672 0
M  V30 1342 N 133.029 1.57378 -0.0835403 0
M  V30 1343 C 134.276 1.9393 0.58287 0
M  V30 1344 C 134.604 0.964455 1.68904 0
M  V30 1345 O 133.859 -0.0179474 1.95692 0
M  V30 1346 C 134.158 3.37063 1.1884 0
M  V30 1347 C 133.824 4.50424 0.207194 0
M  V30 1348 C 132.486 4.81159 -0.0627115 0
M  V30 1349 C 134.838 5.19136 -0.463426 0
M  V30 1350 C 132.166 5.77939 -1.01012 0
M  V30 1351 C 134.518 6.16931 -1.39924 0
M  V30 1352 C 133.182 6.46078 -1.67749 0
M  V30 1353 H 132.452 0.70964 0.213287 0
M  V30 1354 H 135.099 1.90856 -0.156916 0
M  V30 1355 H 133.404 3.3666 2.00418 0
M  V30 1356 H 135.101 3.6264 1.71153 0
M  V30 1357 H 131.691 4.2646 0.427747 0
M  V30 1358 H 135.875 4.95576 -0.268034 0
M  V30 1359 H 131.131 5.98842 -1.23283 0
M  V30 1360 H 135.305 6.69273 -1.92476 0
M  V30 1361 H 132.932 7.2088 -2.41321 0
M  V30 1362 N 134.507 -0.190092 1.56449 0
M  V30 1363 C 135.437 -1.23816 1.97969 0
M  V30 1364 C 136.418 -1.47201 0.852395 0
M  V30 1365 O 137.603 -1.58854 1.1171 0
M  V30 1366 C 134.733 -2.5813 2.3235 0
M  V30 1367 C 133.687 -2.49348 3.47864 0
M  V30 1368 C 133.013 -3.8798 3.67934 0
M  V30 1369 C 134.313 -2.01424 4.81898 0
M  V30 1370 H 136.007 -0.89311 2.85769 0
M  V30 1371 H 133.553 -0.428177 1.37487 0
M  V30 1372 H 135.506 -3.31637 2.59991 0
M  V30 1373 H 134.23 -2.94386 1.41438 0
M  V30 1374 H 132.889 -1.78297 3.20321 0
M  V30 1375 H 132.537 -4.21597 2.74344 0
M  V30 1376 H 132.237 -3.82978 4.45648 0
M  V30 1377 H 133.761 -4.63101 3.97957 0
M  V30 1378 H 135.175 -2.64693 5.08538 0
M  V30 1379 H 133.572 -2.07413 5.63116 0
M  V30 1380 H 134.642 -0.967677 4.75146 0
M  V30 1381 N 135.985 -1.50799 -0.457987 0
M  V30 1382 C 137.233 -1.62121 -1.2067 0
M  V30 1383 C 137.554 -0.329793 -1.92191 0
M  V30 1384 O 136.824 0.653409 -1.84682 0
M  V30 1385 H 135.404 -0.597441 -0.448411 0
M  V30 1386 H 138.066 -1.87637 -0.527096 0
M  V30 1387 H 137.162 -2.43882 -1.94751 0
M  V30 1388 N 137.463 0.71206 -1.40597 0
M  V30 1389 C 138.411 1.84746 -1.41321 0
M  V30 1390 C 139.405 1.66842 -0.293268 0
M  V30 1391 O 140.611 1.73904 -0.464481 0
M  V30 1392 H 136.986 0.608522 -0.441819 0
M  V30 1393 H 138.957 1.81252 -2.37045 0
M  V30 1394 C 137.706 3.22638 -1.29614 0
M  V30 1395 H 137.029 3.37023 -2.15071 0
M  V30 1396 H 138.469 4.02209 -1.3418 0
M  V30 1397 C 136.928 3.36899 -0.00673121 0
M  V30 1398 O 137.458 3.90186 0.954859 0
M  V30 1399 N 135.664 2.9053 0.0639327 0
M  V30 1400 H 135.211 2.47353 -0.719311 0
M  V30 1401 H 135.169 3.0045 0.926118 0
M  V30 1402 N 138.941 1.26152 0.944643 0
M  V30 1403 C 139.904 1.07474 2.0244 0
M  V30 1404 C 140.904 0.0242064 1.60782 0
M  V30 1405 O 142.094 0.267302 1.72137 0
M  V30 1406 C 139.226 0.633956 3.34953 0
M  V30 1407 H 140.419 2.03336 2.20442 0
M  V30 1408 H 137.972 1.087 1.12312 0
M  V30 1409 H 138.707 -0.326811 3.22649 0
M  V30 1410 H 138.492 1.39247 3.66542 0
M  V30 1411 H 139.982 0.52501 4.14287 0
M  V30 1412 N 140.419 -1.14872 1.07899 0
M  V30 1413 C 141.667 -1.85422 0.803941 0
M  V30 1414 C 141.988 -1.83051 -0.67211 0
M  V30 1415 O 141.258 -1.27532 -1.48703 0
M  V30 1416 H 139.838 -0.686537 0.294408 0
M  V30 1417 H 142.5 -1.39226 1.3639 0
M  V30 1418 H 141.596 -2.90399 1.14346 0
M  V30 1419 N 141.898 -0.863906 -1.31812 0
M  V30 1420 C 143.126 -0.486111 -2.01108 0
M  V30 1421 C 143.541 0.919755 -1.64882 0
M  V30 1422 O 142.898 1.60162 -0.874893 0
M  V30 1423 C 142.949 -0.626435 -3.56031 0
M  V30 1424 O 142.67 -1.97693 -3.90959 0
M  V30 1425 C 144.171 -0.248857 -4.42601 0
M  V30 1426 H 141.391 -0.190052 -0.643523 0
M  V30 1427 H 143.935 -1.1634 -1.68182 0
M  V30 1428 H 142.09 0.00322717 -3.874 0
M  V30 1429 H 142.504 -1.98034 -4.85678 0
M  V30 1430 H 143.978 -0.398016 -5.50563 0
M  V30 1431 H 144.455 0.811489 -4.31638 0
M  V30 1432 H 145.061 -0.853971 -4.16638 0
M  V30 1433 N 143.376 1.44774 -0.622745 0
M  V30 1434 C 144.339 2.29069 0.0774015 0
M  V30 1435 C 145.339 1.4059 0.780461 0
M  V30 1436 O 146.529 1.62551 0.626322 0
M  V30 1437 C 143.661 3.21974 1.12006 0
M  V30 1438 H 144.854 2.92459 -0.663901 0
M  V30 1439 H 142.407 1.51548 -0.382486 0
M  V30 1440 H 143.142 2.63417 1.89162 0
M  V30 1441 H 142.927 3.87168 0.619951 0
M  V30 1442 H 144.417 3.85318 1.60995 0
M  V30 1443 N 144.854 0.36279 1.53368 0
M  V30 1444 C 145.787 -0.528507 2.21996 0
M  V30 1445 C 146.765 -1.0852 1.21087 0
M  V30 1446 O 147.949 -1.14186 1.4998 0
M  V30 1447 C 145.076 -1.72893 2.91249 0
M  V30 1448 C 144.122 -1.29994 4.06207 0
M  V30 1449 S 144.955 -0.303575 5.34639 0
M  V30 1450 C 146.111 -1.51039 6.07403 0
M  V30 1451 H 146.344 0.0543423 2.9725 0
M  V30 1452 H 143.877 0.146889 1.537 0
M  V30 1453 H 145.835 -2.41751 3.31763 0
M  V30 1454 H 144.496 -2.28303 2.15724 0
M  V30 1455 H 143.689 -2.19549 4.53667 0
M  V30 1456 H 143.291 -0.690608 3.67569 0
M  V30 1457 H 145.583 -2.44186 6.31965 0
M  V30 1458 H 146.526 -1.07721 6.99858 0
M  V30 1459 H 146.934 -1.71518 5.37812 0
M  V30 1460 N 146.332 -1.57332 0.0918853 0
M  V30 1461 C 147.748 -1.57389 -0.264766 0
M  V30 1462 C 147.948 -1.10281 -1.68643 0
M  V30 1463 O 147.004 -0.777801 -2.40222 0
M  V30 1464 C 148.317 -3.00648 -0.0561195 0
M  V30 1465 C 149.865 -3.12754 -0.124116 0
M  V30 1466 C 150.34 -4.57965 0.0564972 0
M  V30 1467 N 151.831 -4.632 0.00155611 0
M  V30 1468 C 152.566 -5.73281 0.116598 0
M  V30 1469 N 152.062 -6.92208 0.286294 0
M  V30 1470 N 153.855 -5.6207 0.0580973 0
M  V30 1471 H 146.006 -1.86262 1.02079 0
M  V30 1472 H 148.269 -0.859579 0.399786 0
M  V30 1473 H 147.975 -3.393 0.925669 0
M  V30 1474 H 147.849 -3.68623 -0.799823 0
M  V30 1475 H 150.236 -2.73976 -1.09641 0
M  V30 1476 H 150.317 -2.47377 0.651024 0
M  V30 1477 H 149.961 -4.97436 1.02564 0
M  V30 1478 H 149.891 -5.21399 -0.738297 0
M  V30 1479 H 152.382 -3.77686 -0.127192 0
M  V30 1480 H 152.695 -7.71934 0.365676 0
M  V30 1481 H 151.04 -6.94254 0.32192 0
M  V30 1482 H 154.231 -4.68043 -0.0733204 0
M  V30 1483 H 154.404 -6.47824 0.151203 0
M  V30 1484 N 147.81 0.181792 -1.56548 0
M  V30 1485 C 149.221 0.745244 -1.71181 0
M  V30 1486 C 149.572 1.83262 -0.70068 0
M  V30 1487 O 148.697 2.15946 0.140154 0
M  V30 1488 C 149.292 1.35859 -3.10367 0
M  V30 1489 C 147.851 1.86898 -3.2672 0
M  V30 1490 C 146.998 0.743942 -2.67134 0
M  V30 1491 H 149.949 -0.0434661 -1.5864 0
M  V30 1492 H 149.97 2.22817 -3.08436 0
M  V30 1493 H 149.482 0.566948 -3.83937 0
M  V30 1494 H 147.583 2.68738 -2.5809 0
M  V30 1495 H 147.696 2.02162 -4.34359 0
M  V30 1496 H 146.06 1.16169 -2.26665 0
M  V30 1497 H 146.843 -0.035676 -3.43281 0
M  V30 1498 N 149.288 1.51039 0.449983 0
M  V30 1499 C 150.218 1.74379 1.55288 0
M  V30 1500 C 151.199 0.593236 1.5942 0
M  V30 1501 O 152.384 0.834625 1.7535 0
M  V30 1502 C 149.514 1.85728 2.93466 0
M  V30 1503 C 148.468 3.01078 3.04197 0
M  V30 1504 C 147.794 2.97595 4.44231 0
M  V30 1505 C 149.094 4.41254 2.7945 0
M  V30 1506 H 150.788 2.66725 1.36008 0
M  V30 1507 H 148.334 1.2835 0.652864 0
M  V30 1508 H 150.287 2.0064 3.70569 0
M  V30 1509 H 149.011 0.900207 3.13949 0
M  V30 1510 H 147.67 2.85851 2.29531 0
M  V30 1511 H 147.318 1.99691 4.61663 0
M  V30 1512 H 147.018 3.75046 4.52343 0
M  V30 1513 H 148.542 3.14583 5.23326 0
M  V30 1514 H 149.956 4.56897 3.46292 0
M  V30 1515 H 148.353 5.20315 2.98985 0
M  V30 1516 H 149.423 4.52164 1.75144 0
M  V30 1517 N 150.766 -0.704594 1.40972 0
M  V30 1518 C 151.729 -1.80035 1.41845 0
M  V30 1519 C 152.729 -1.57774 0.310474 0
M  V30 1520 O 153.919 -1.64613 0.56992 0
M  V30 1521 C 151.051 -3.18284 1.22098 0
M  V30 1522 H 152.244 -1.80658 2.3938 0
M  V30 1523 H 149.797 -0.911329 1.26982 0
M  V30 1524 H 150.532 -3.23306 0.253672 0
M  V30 1525 H 150.317 -3.35843 2.02366 0
M  V30 1526 H 151.807 -3.98289 1.25522 0
M  V30 1527 N 152.244 -1.26651 -0.937939 0
M  V30 1528 C 153.207 -1.08546 -2.01867 0
M  V30 1529 C 154.207 -0.0327327 -1.60767 0
M  V30 1530 O 155.397 -0.276427 -1.71993 0
M  V30 1531 C 152.529 -0.651711 -3.34613 0
M  V30 1532 H 153.722 -2.04502 -2.1936 0
M  V30 1533 H 151.275 -1.09294 -1.11734 0
M  V30 1534 H 152.01 0.309696 -3.22818 0
M  V30 1535 H 151.795 -1.41189 -3.65798 0
M  V30 1536 H 153.285 -0.546973 -4.14002 0
M  V30 1537 N 153.722 1.14298 -1.08507 0
M  V30 1538 C 154.685 2.17607 -0.719711 0
M  V30 1539 C 155.685 1.58907 0.245997 0
M  V30 1540 O 156.875 1.74181 0.0254081 0
M  V30 1541 C 154.007 3.40842 -0.0627695 0
M  V30 1542 H 155.2 2.51443 -1.63452 0
M  V30 1543 H 152.753 1.28963 -0.88307 0
M  V30 1544 H 153.488 3.12587 0.863716 0
M  V30 1545 H 153.273 3.84713 -0.757504 0
M  V30 1546 H 154.763 4.17221 0.177786 0
M  V30 1547 N 155.201 0.870884 1.31352 0
M  V30 1548 C 156.131 0.343096 2.30966 0
M  V30 1549 C 157.112 -0.566507 1.60389 0
M  V30 1550 O 158.297 -0.483336 1.88089 0
M  V30 1551 C 155.427 -0.455487 3.443 0
M  V30 1552 C 154.381 0.361103 4.26474 0
M  V30 1553 C 153.707 -0.563221 5.31725 0
M  V30 1554 C 155.007 1.59566 4.97329 0
M  V30 1555 H 156.701 1.17548 2.75359 0
M  V30 1556 H 154.247 0.566686 1.32381 0
M  V30 1557 H 156.2 -0.83525 4.13039 0
M  V30 1558 H 154.924 -1.32139 2.98675 0
M  V30 1559 H 153.583 0.722825 3.59403 0
M  V30 1560 H 153.231 -1.42643 4.82351 0
M  V30 1561 H 152.931 -0.0207409 5.87596 0
M  V30 1562 H 154.455 -0.939808 6.03324 0
M  V30 1563 H 155.869 1.28728 5.58661 0
M  V30 1564 H 154.266 2.07728 5.63 0
M  V30 1565 H 155.336 2.34798 4.24262 0
M  V30 1566 N 156.679 -1.44442 0.630414 0
M  V30 1567 C 157.919 -2.03934 0.137919 0
M  V30 1568 C 158.283 -1.48509 -1.21692 0
M  V30 1569 O 159.484 -1.99499 -1.80149 0
M  V30 1570 C 157.755 -3.57187 0.123373 0
M  V30 1571 S 159.314 -4.37741 -0.304604 0
M  V30 1572 H 156.132 -0.708401 0.0607353 0
M  V30 1573 H 158.734 -1.76835 0.833643 0
M  V30 1574 H 157.438 -3.95032 1.11256 0
M  V30 1575 H 156.969 -3.88895 -0.59362 0
M  V30 1576 H 158.984 -4.71403 -1.54897 0
M  V30 1577 N 158.157 -0.370918 -1.53173 0
M  V30 1578 C 159.087 0.464847 -2.28826 0
M  V30 1579 C 160.068 1.07936 -1.31468 0
M  V30 1580 O 161.253 1.0956 -1.60344 0
M  V30 1581 C 158.383 1.60196 -3.08147 0
M  V30 1582 C 157.337 1.11443 -4.13237 0
M  V30 1583 C 156.663 2.3422 -4.80672 0
M  V30 1584 C 157.963 0.195384 -5.21934 0
M  V30 1585 H 159.657 -0.166329 -2.98938 0
M  V30 1586 H 157.203 -0.0814359 -1.4377 0
M  V30 1587 H 159.156 2.19332 -3.59822 0
M  V30 1588 H 157.88 2.26045 -2.35735 0
M  V30 1589 H 156.539 0.545727 -3.62515 0
M  V30 1590 H 156.187 2.98537 -4.04827 0
M  V30 1591 H 155.887 2.02269 -5.51689 0
M  V30 1592 H 157.411 2.94032 -5.35143 0
M  V30 1593 H 158.825 0.694375 -5.69079 0
M  V30 1594 H 157.222 -0.0335027 -6.00091 0
M  V30 1595 H 158.292 -0.760961 -4.78892 0
M  V30 1596 N 159.635 1.57281 -0.100228 0
M  V30 1597 C 160.883 1.94153 0.561157 0
M  V30 1598 C 161.204 0.983157 1.68401 0
M  V30 1599 O 160.474 0.0361132 1.95867 0
M  V30 1600 H 159.054 0.716791 0.210283 0
M  V30 1601 H 161.716 1.94202 -0.164765 0
M  V30 1602 H 160.812 2.96709 0.968008 0
M  V30 1603 N 161.113 -0.173488 1.56642 0
M  V30 1604 C 162.338 -0.910149 1.86363 0
M  V30 1605 C 162.763 -1.75132 0.686318 0
M  V30 1606 O 162.121 -1.77595 -0.364643 0
M  V30 1607 C 162.169 -1.76447 3.14482 0
M  V30 1608 O 161.273 -2.86584 2.96553 0
M  V30 1609 H 160.614 -0.255086 0.613047 0
M  V30 1610 H 163.144 -0.172283 2.03873 0
M  V30 1611 H 163.154 -2.16483 3.45831 0
M  V30 1612 H 161.829 -1.14658 3.99783 0
M  V30 1613 H 160.406 -2.50146 2.76553 0
M  V30 1614 N 162.591 -1.51276 -0.441967 0
M  V30 1615 C 163.539 -1.72823 -1.55676 0
M  V30 1616 C 164.533 -0.59445 -1.58627 0
M  V30 1617 O 165.739 -0.775715 -1.62427 0
M  V30 1618 H 162.114 -0.545983 -0.517113 0
M  V30 1619 H 164.085 -2.6628 -1.34675 0
M  V30 1620 C 162.834 -1.86619 -2.93375 0
M  V30 1621 H 162.157 -2.73264 -2.91834 0
M  V30 1622 H 163.597 -2.05709 -3.70756 0
M  V30 1623 C 162.056 -0.624842 -3.31055 0
M  V30 1624 O 162.586 0.222636 -4.01083 0
M  V30 1625 N 160.792 -0.470288 -2.86769 0
M  V30 1626 H 160.339 -1.161 -2.29953 0
M  V30 1627 H 160.297 0.359051 -3.12343 0
M  V30 1628 N 164.069 0.697108 -1.41344 0
M  V30 1629 C 165.346 1.45154 -1.31109 0
M  V30 1630 C 165.726 2.11009 0.0620449 0
M  V30 1631 O 165.074 2.01571 1.07618 0
M  V30 1632 C 165.284 2.47223 -2.46337 0
M  V30 1633 C 166.632 3.1252 -2.87431 0
M  V30 1634 O 167.656 2.57547 -2.46065 0
M  V30 1635 O 166.515 4.12083 -3.58957 0
M  V30 1636 H 163.609 0.646365 -0.515889 0
M  V30 1637 H 166.155 0.727716 -1.53305 0
M  V30 1638 H 164.927 1.97204 -3.37974 0
M  V30 1639 H 164.55 3.27116 -2.2601 0
M  V30 1640 N 165.547 1.27147 0.931209 0
M  V30 1641 C 166.796 1.12664 1.67302 0
M  V30 1642 C 167.109 -0.327718 1.92835 0
M  V30 1643 O 168.315 -0.593392 2.64936 0
M  V30 1644 C 166.771 1.9683 3.01307 0
M  V30 1645 C 166.379 3.46901 2.83485 0
M  V30 1646 C 168.123 1.90985 3.79111 0
M  V30 1647 C 166.03 4.23279 4.13024 0
M  V30 1648 H 164.96 0.41803 0.627509 0
M  V30 1649 H 167.611 1.51539 1.03481 0
M  V30 1650 H 165.993 1.50797 3.66164 0
M  V30 1651 H 167.167 4.00773 2.27415 0
M  V30 1652 H 165.482 3.54088 2.19113 0
M  V30 1653 H 168.079 2.45328 4.75098 0
M  V30 1654 H 168.422 0.882718 4.06834 0
M  V30 1655 H 168.955 2.34895 3.21044 0
M  V30 1656 H 165.694 5.26503 3.90481 0
M  V30 1657 H 165.214 3.74186 4.6877 0
M  V30 1658 H 166.893 4.32265 4.81411 0
M  V30 1659 N 167.025 -1.13721 1.09112 0
M  V30 1660 C 168.271 -1.85198 0.826414 0
M  V30 1661 C 168.604 -1.83129 -0.646319 0
M  V30 1662 O 167.879 -1.2671 -1.47563 0
M  V30 1663 C 168.162 -3.33507 1.35812 0
M  V30 1664 C 168.015 -3.44108 2.89672 0
M  V30 1665 C 169.334 -4.28838 0.989256 0
M  V30 1666 H 166.453 -0.67243 0.301675 0
M  V30 1667 H 169.095 -1.33499 1.35197 0
M  V30 1668 H 167.245 -3.77666 0.911082 0
M  V30 1669 H 168.917 -3.08684 3.428 0
M  V30 1670 H 167.16 -2.85087 3.26967 0
M  V30 1671 H 167.831 -4.48388 3.21951 0
M  V30 1672 H 170.307 -3.92734 1.37475 0
M  V30 1673 H 169.183 -5.31051 1.38838 0
M  V30 1674 H 169.444 -4.4198 -0.102924 0
M  V30 1675 N 168.503 -0.877838 -1.30888 0
M  V30 1676 C 169.433 -0.35534 -2.3078 0
M  V30 1677 C 170.414 0.557994 -1.60687 0
M  V30 1678 O 171.599 0.473355 -1.88343 0
M  V30 1679 C 168.729 0.437221 -3.44537 0
M  V30 1680 C 167.683 -0.383715 -4.26276 0
M  V30 1681 C 167.009 0.535014 -5.32017 0
M  V30 1682 C 168.309 -1.62201 -4.96476 0
M  V30 1683 H 170.003 -1.19007 -2.74732 0
M  V30 1684 H 167.549 -0.573698 -1.32078 0
M  V30 1685 H 169.502 0.813334 -4.13477 0
M  V30 1686 H 168.226 1.30553 -2.99372 0
M  V30 1687 H 166.885 -0.741874 -3.59015 0
M  V30 1688 H 166.533 1.40083 -4.831 0
M  V30 1689 H 166.233 -0.0104211 -5.87599 0
M  V30 1690 H 167.757 0.907799 -6.03814 0
M  V30 1691 H 169.171 -1.31689 -5.5797 0
M  V30 1692 H 167.568 -2.10711 -5.61891 0
M  V30 1693 H 168.638 -2.37044 -4.23011 0
M  V30 1694 N 169.982 1.44106 -0.638065 0
M  V30 1695 C 171.21 2.06336 -0.152615 0
M  V30 1696 C 171.625 1.47731 1.17563 0
M  V30 1697 O 170.982 0.602806 1.72257 0
M  V30 1698 C 171.033 3.61479 -0.0391491 0
M  V30 1699 O 170.754 4.17903 -1.31487 0
M  V30 1700 C 172.255 4.40757 0.474176 0
M  V30 1701 H 169.475 0.665862 -0.0828776 0
M  V30 1702 H 172.019 1.84862 -0.87443 0
M  V30 1703 H 170.174 3.82191 0.633142 0
M  V30 1704 H 170.588 5.11416 -1.16421 0
M  V30 1705 H 172.062 5.49707 0.502562 0
M  V30 1706 H 172.539 4.12697 1.50258 0
M  V30 1707 H 173.145 4.24979 -0.165102 0
M  V30 1708 N 171.46 0.379036 1.52974 0
M  V30 1709 C 172.708 -0.206014 2.01047 0
M  V30 1710 C 173.029 -1.48175 1.26765 0
M  V30 1711 O 172.299 -1.92085 0.384743 0
M  V30 1712 H 170.879 -0.0791184 0.742798 0
M  V30 1713 H 173.541 0.508366 1.88153 0
M  V30 1714 H 172.637 -0.423501 3.09213 0
M  V30 1715 N 172.938 -1.57226 0.108567 0
M  V30 1716 C 173.848 -2.18292 -0.859401 0
M  V30 1717 C 174.864 -1.15612 -1.30038 0
M  V30 1718 O 176.04 -1.48039 -1.36552 0
M  V30 1719 C 173.105 -2.762 -2.09558 0
M  V30 1720 C 172.166 -3.93881 -1.70752 0
M  V30 1721 C 171.399 -4.49018 -2.88477 0
M  V30 1722 O 171.622 -4.03068 -4.036 0
M  V30 1723 O 170.556 -5.39852 -2.66164 0
M  V30 1724 H 174.382 -3.01441 -0.369769 0
M  V30 1725 H 171.967 -1.48945 -0.1165 0
M  V30 1726 H 173.849 -3.13156 -2.81978 0
M  V30 1727 H 172.524 -1.96089 -2.57548 0
M  V30 1728 H 171.431 -3.61713 -0.954714 0
M  V30 1729 H 172.764 -4.75396 -1.27513 0
M  V30 1730 N 174.416 0.165178 -1.56732 0
M  V30 1731 C 175.827 0.727046 -1.71962 0
M  V30 1732 C 176.178 1.82508 -0.720078 0
M  V30 1733 O 175.303 2.16082 0.117242 0
M  V30 1734 C 175.898 1.32559 -3.11791 0
M  V30 1735 C 174.457 1.83422 -3.28684 0
M  V30 1736 C 173.604 0.715567 -2.67908 0
M  V30 1737 H 176.555 -0.0602896 -1.58585 0
M  V30 1738 H 176.576 2.19533 -3.10782 0
M  V30 1739 H 176.088 0.526195 -3.84516 0
M  V30 1740 H 174.189 2.65986 -2.60926 0
M  V30 1741 H 174.302 1.97543 -4.36478 0
M  V30 1742 H 172.666 1.13758 -2.27884 0
M  V30 1743 H 173.449 -0.0720836 -3.43224 0
M  V30 1744 N 175.894 1.51508 0.433938 0
M  V30 1745 C 177.31 1.39759 0.770682 0
M  V30 1746 C 177.51 0.482594 1.95636 0
M  V30 1747 O 176.566 -0.0609691 2.52426 0
M  V30 1748 C 177.879 2.81851 1.04787 0
M  V30 1749 C 179.427 2.91025 1.1521 0
M  V30 1750 C 179.902 4.34032 1.46219 0
M  V30 1751 N 181.393 4.37154 1.53136 0
M  V30 1752 C 182.128 5.4484 1.78709 0
M  V30 1753 N 181.624 6.62682 2.02051 0
M  V30 1754 N 183.417 5.32324 1.80519 0
M  V30 1755 H 175.568 2.09548 -0.346892 0
M  V30 1756 H 177.831 0.943446 -0.0928074 0
M  V30 1757 H 177.537 3.50815 0.249304 0
M  V30 1758 H 177.411 3.21386 1.97461 0
M  V30 1759 H 179.798 2.22257 1.94128 0
M  V30 1760 H 179.879 2.54983 0.204281 0
M  V30 1761 H 179.523 5.03351 0.678274 0
M  V30 1762 H 179.453 4.6759 2.42212 0
M  V30 1763 H 181.944 3.52197 1.36987 0
M  V30 1764 H 182.257 7.40543 2.20943 0
M  V30 1765 H 180.602 6.65791 1.99366 0
M  V30 1766 H 183.793 4.39246 1.61805 0
M  V30 1767 H 183.966 6.16328 2.00111 0
M  V30 1768 N 177.372 -0.689602 1.41712 0
M  V30 1769 C 178.305 -1.81403 1.3845 0
M  V30 1770 C 179.283 -1.60653 0.250874 0
M  V30 1771 O 180.467 -1.83323 0.43874 0
M  V30 1772 C 177.594 -3.18176 1.1611 0
M  V30 1773 C 176.64 -3.57705 2.3227 0
M  V30 1774 S 177.473 -3.61827 3.94767 0
M  V30 1775 C 178.629 -5.01318 3.74742 0
M  V30 1776 H 178.862 -1.83893 2.33603 0
M  V30 1777 H 176.395 -0.858878 1.28307 0
M  V30 1778 H 178.353 -3.97132 1.03907 0
M  V30 1779 H 177.014 -3.13288 0.225668 0
M  V30 1780 H 176.207 -4.57082 2.12349 0
M  V30 1781 H 175.809 -2.86073 2.40911 0
M  V30 1782 H 178.101 -5.88986 3.34817 0
M  V30 1783 H 179.044 -5.26283 4.73743 0
M  V30 1784 H 179.452 -4.73138 3.07898 0
M  V30 1785 N 178.85 -1.27639 -0.924453 0
M  V30 1786 C 179.797 -1.10644 -2.0255 0
M  V30 1787 C 180.767 -0.00658438 -1.66099 0
M  V30 1788 O 181.952 -0.16952 -1.90045 0
M  V30 1789 C 179.092 -0.76309 -3.36557 0
M  V30 1790 C 178.205 -1.94091 -3.85944 0
M  V30 1791 C 177.34 -1.53914 -5.08413 0
M  V30 1792 C 176.379 -2.68425 -5.50104 0
M  V30 1793 N 175.516 -2.28815 -6.63768 0
M  V30 1794 H 180.356 -2.04858 -2.16419 0
M  V30 1795 H 177.893 -1.01974 -1.06017 0
M  V30 1796 H 179.851 -0.544822 -4.13627 0
M  V30 1797 H 178.481 0.142102 -3.22487 0
M  V30 1798 H 177.533 -2.27162 -3.05125 0
M  V30 1799 H 178.845 -2.7998 -4.12811 0
M  V30 1800 H 177.999 -1.28231 -5.92994 0
M  V30 1801 H 176.738 -0.651391 -4.8333 0
M  V30 1802 H 175.743 -2.94819 -4.64071 0
M  V30 1803 H 176.968 -3.57826 -5.7718 0
M  V30 1804 H 174.914 -1.42495 -6.40337 0
M  V30 1805 H 174.831 -3.08242 -6.90306 0
M  V30 1806 H 176.099 -2.06387 -7.51681 0
M  V30 1807 N 180.328 1.1314 -1.09713 0
M  V30 1808 C 181.238 2.22242 -0.751367 0
M  V30 1809 C 182.254 1.72224 0.247938 0
M  V30 1810 O 183.43 2.01205 0.0885463 0
M  V30 1811 C 180.495 3.46231 -0.180274 0
M  V30 1812 C 179.556 4.11125 -1.2359 0
M  V30 1813 C 178.789 5.29195 -0.691966 0
M  V30 1814 O 179.012 5.68342 0.48414 0
M  V30 1815 O 177.946 5.84214 -1.44838 0
M  V30 1816 H 181.772 2.54197 -1.66186 0
M  V30 1817 H 179.357 1.21331 -0.871735 0
M  V30 1818 H 181.239 4.21185 0.134739 0
M  V30 1819 H 179.914 3.1597 0.703185 0
M  V30 1820 H 178.821 3.37985 -1.60366 0
M  V30 1821 H 180.154 4.45524 -2.09211 0
M  V30 1822 N 181.806 0.884767 1.30421 0
M  V30 1823 C 183.222 0.57874 1.48737 0
M  V30 1824 C 183.422 -0.883567 1.81095 0
M  V30 1825 O 182.478 -1.6648 1.89844 0
M  V30 1826 C 183.791 1.49171 2.61091 0
M  V30 1827 C 185.339 1.49532 2.74971 0
M  V30 1828 C 185.814 2.39421 3.90438 0
M  V30 1829 N 187.305 2.37383 3.97748 0
M  V30 1830 C 188.04 3.03647 4.86401 0
M  V30 1831 N 187.536 3.79136 5.79852 0
M  V30 1832 N 189.329 2.9288 4.79768 0
M  V30 1833 H 181.48 1.83075 1.0769 0
M  V30 1834 H 183.743 0.783637 0.533495 0
M  V30 1835 H 183.449 2.53291 2.44001 0
M  V30 1836 H 183.323 1.20113 3.57565 0
M  V30 1837 H 185.71 0.46163 2.91467 0
M  V30 1838 H 185.791 1.8262 1.79119 0
M  V30 1839 H 185.435 3.42874 3.74699 0
M  V30 1840 H 185.365 2.03649 4.85628 0
M  V30 1841 H 187.856 1.82525 3.30897 0
M  V30 1842 H 188.169 4.26789 6.4426 0
M  V30 1843 H 186.514 3.83243 5.79784 0
M  V30 1844 H 189.705 2.33433 4.05742 0
M  V30 1845 H 189.878 3.448 5.4865 0
M  V30 1846 N 183.284 -1.43765 0.645699 0
M  V30 1847 C 184.695 -1.85193 0.236719 0
M  V30 1848 C 185.046 -1.54045 -1.21509 0
M  V30 1849 O 184.171 -0.985694 -1.92647 0
M  V30 1850 C 184.766 -3.36151 0.422845 0
M  V30 1851 C 183.325 -3.76338 0.0682492 0
M  V30 1852 C 182.472 -2.67538 0.729306 0
M  V30 1853 H 185.423 -1.34025 0.849883 0
M  V30 1854 H 185.444 -3.79032 -0.333904 0
M  V30 1855 H 184.956 -3.5879 1.47958 0
M  V30 1856 H 183.057 -3.59312 -0.986179 0
M  V30 1857 H 183.17 -4.76603 0.488469 0
M  V30 1858 H 181.534 -2.54176 0.163235 0
M  V30 1859 H 182.317 -2.93006 1.78892 0
M  V30 1860 N 184.763 -0.387143 -1.52771 0
M  V30 1861 C 186.012 0.19697 -2.00736 0
M  V30 1862 C 186.325 1.48082 -1.27793 0
M  V30 1863 O 187.531 2.14485 -1.66458 0
M  V30 1864 C 185.987 0.401568 -3.57653 0
M  V30 1865 C 185.595 -0.868907 -4.39493 0
M  V30 1866 C 187.339 0.942164 -4.13912 0
M  V30 1867 C 185.246 -0.632705 -5.88006 0
M  V30 1868 H 184.176 0.0773827 -0.750019 0
M  V30 1869 H 186.827 -0.50921 -1.76293 0
M  V30 1870 H 185.209 1.16954 -3.78335 0
M  V30 1871 H 186.383 -1.64133 -4.30577 0
M  V30 1872 H 184.698 -1.33429 -3.94443 0
M  V30 1873 H 187.295 1.13455 -5.22525 0
M  V30 1874 H 187.638 1.9106 -3.69867 0
M  V30 1875 H 188.171 0.233814 -3.97112 0
M  V30 1876 H 184.91 -1.57208 -6.36369 0
M  V30 1877 H 184.43 0.100825 -5.99715 0
M  V30 1878 H 186.109 -0.26642 -6.46451 0
M  V30 1879 N 186.241 1.57166 -0.116904 0
M  V30 1880 C 187.489 1.94737 0.540533 0
M  V30 1881 C 187.81 1.00096 1.67349 0
M  V30 1882 O 187.08 0.0568854 1.95817 0
M  V30 1883 H 185.66 0.718981 0.202669 0
M  V30 1884 H 188.322 1.94017 -0.185353 0
M  V30 1885 H 187.418 2.97719 0.936483 0
M  V30 1886 N 187.719 -0.156864 1.56817 0
M  V30 1887 C 188.669 -1.19891 1.93934 0
M  V30 1888 C 189.653 -1.39061 0.809372 0
M  V30 1889 O 190.845 -1.40789 1.07273 0
M  V30 1890 C 187.974 -2.53493 2.31508 0
M  V30 1891 C 187.06 -2.37957 3.51052 0
M  V30 1892 N 187.451 -1.92158 4.67877 0
M  V30 1893 C 185.749 -2.68739 3.55943 0
M  V30 1894 C 186.45 -1.8943 5.49992 0
M  V30 1895 N 185.426 -2.32375 4.91429 0
M  V30 1896 H 189.228 -0.836746 2.81737 0
M  V30 1897 H 186.742 -0.365012 1.58245 0
M  V30 1898 H 188.739 -3.28811 2.56299 0
M  V30 1899 H 187.399 -2.905 1.45051 0
M  V30 1900 H 188.41 -1.62274 4.91821 0
M  V30 1901 H 185.087 -3.09687 2.80001 0
M  V30 1902 H 186.477 -1.55596 6.53636 0
M  V30 1903 N 189.197 -1.51736 -0.425897 0
M  V30 1904 C 190.127 -1.76827 -1.52494 0
M  V30 1905 C 191.108 -0.618524 -1.58456 0
M  V30 1906 O 192.293 -0.862416 -1.74 0
M  V30 1907 C 189.423 -1.90374 -2.90474 0
M  V30 1908 C 188.377 -3.0588 -2.99369 0
M  V30 1909 C 187.703 -3.04625 -4.3944 0
M  V30 1910 C 189.003 -4.45644 -2.72394 0
M  V30 1911 H 190.697 -2.68855 -1.31748 0
M  V30 1912 H 188.243 -1.29372 -0.632362 0
M  V30 1913 H 190.196 -2.0651 -3.6733 0
M  V30 1914 H 188.92 -0.95004 -3.12477 0
M  V30 1915 H 187.579 -2.89467 -2.24954 0
M  V30 1916 H 187.227 -2.0701 -4.58428 0
M  V30 1917 H 186.927 -3.82195 -4.46319 0
M  V30 1918 H 188.451 -3.22869 -5.18255 0
M  V30 1919 H 189.865 -4.62348 -3.38979 0
M  V30 1920 H 188.262 -5.25006 -2.9067 0
M  V30 1921 H 189.332 -4.54893 -1.67929 0
M  V30 1922 N 190.675 0.682077 -1.42076 0
M  V30 1923 C 191.921 1.44428 -1.42367 0
M  V30 1924 C 192.254 1.94164 -0.0373056 0
M  V30 1925 O 191.529 1.70429 0.937239 0
M  V30 1926 C 191.812 2.64654 -2.44194 0
M  V30 1927 C 191.665 2.20596 -3.91991 0
M  V30 1928 C 192.984 3.66865 -2.431 0
M  V30 1929 H 190.103 0.523834 -0.518428 0
M  V30 1930 H 192.745 0.77576 -1.73442 0
M  V30 1931 H 190.895 3.2169 -2.17826 0
M  V30 1932 H 192.567 1.68783 -4.29313 0
M  V30 1933 H 190.81 1.52242 -4.06208 0
M  V30 1934 H 191.481 3.06921 -4.58807 0
M  V30 1935 H 193.957 3.19531 -2.66532 0
M  V30 1936 H 192.833 4.48577 -3.16339 0
M  V30 1937 H 193.094 4.17493 -1.45437 0
M  V30 1938 N 192.153 1.28127 0.917671 0
M  V30 1939 C 193.43 1.05761 1.64542 0
M  V30 1940 C 193.81 -0.404344 2.07191 0
M  V30 1941 O 193.158 -1.38963 1.81388 0
M  V30 1942 C 193.368 2.02857 2.83989 0
M  V30 1943 C 194.716 2.32786 3.551 0
M  V30 1944 O 195.74 2.0091 2.94132 0
M  V30 1945 O 194.599 2.87169 4.64969 0
M  V30 1946 H 191.693 0.403916 0.721652 0
M  V30 1947 H 194.239 1.39431 0.967322 0
M  V30 1948 H 193.011 3.01407 2.49538 0
M  V30 1949 H 192.634 1.69809 3.59514 0
M  V30 1950 N 193.631 -1.12557 1.10312 0
M  V30 1951 C 194.594 -2.16434 0.75424 0
M  V30 1952 C 195.594 -1.59278 -0.220685 0
M  V30 1953 O 196.784 -1.742 0.00230591 0
M  V30 1954 C 193.916 -3.40699 0.116987 0
M  V30 1955 H 195.109 -2.48811 1.67431 0
M  V30 1956 H 192.662 -1.27542 0.903475 0
M  V30 1957 H 193.397 -3.13921 -0.813877 0
M  V30 1958 H 193.182 -3.83459 0.818613 0
M  V30 1959 H 194.672 -4.17451 -0.111387 0
M  V30 1960 N 195.109 -0.891671 -1.2995 0
M  V30 1961 C 196.039 -0.379797 -2.30391 0
M  V30 1962 C 197.02 0.540919 -1.6127 0
M  V30 1963 O 198.205 0.453352 -1.88834 0
M  V30 1964 C 195.335 0.400654 -3.44981 0
M  V30 1965 C 194.289 -0.428905 -4.25846 0
M  V30 1966 C 193.615 0.478557 -5.32554 0
M  V30 1967 C 194.915 -1.67458 -4.94727 0
M  V30 1968 H 196.609 -1.21914 -2.73454 0
M  V30 1969 H 194.155 -0.587675 -1.31462 0
M  V30 1970 H 196.108 0.769434 -4.14316 0
M  V30 1971 H 194.832 1.27371 -3.0074 0
M  V30 1972 H 193.491 -0.779911 -3.58208 0
M  V30 1973 H 193.139 1.34951 -4.84559 0
M  V30 1974 H 192.839 -0.0727433 -5.87555 0
M  V30 1975 H 194.363 0.843705 -6.04743 0
M  V30 1976 H 195.777 -1.376 -5.56542 0
M  V30 1977 H 194.174 -2.16659 -5.59624 0
M  V30 1978 H 195.244 -2.41518 -4.20473 0
M  V30 1979 N 196.587 1.43421 -0.653314 0
M  V30 1980 C 198.003 1.56341 -0.320886 0
M  V30 1981 C 198.203 1.63696 1.17499 0
M  V30 1982 O 197.259 1.59208 1.95982 0
M  V30 1983 C 198.572 2.82424 -1.03233 0
M  V30 1984 C 200.12 2.96168 -1.01259 0
M  V30 1985 C 200.595 4.25084 -1.70492 0
M  V30 1986 N 202.086 4.31948 -1.67257 0
M  V30 1987 C 202.821 5.30466 -2.17701 0
M  V30 1988 N 202.317 6.35261 -2.76434 0
M  V30 1989 N 204.11 5.2212 -2.082 0
M  V30 1990 H 196.261 1.3689 -1.62403 0
M  V30 1991 H 198.524 0.657455 -0.682977 0
M  V30 1992 H 198.23 2.83053 -2.08744 0
M  V30 1993 H 198.104 3.72653 -0.583948 0
M  V30 1994 H 200.491 2.9508 0.0341235 0
M  V30 1995 H 200.572 2.07229 -1.49966 0
M  V30 1996 H 200.216 4.26932 -2.7512 0
M  V30 1997 H 200.146 5.1292 -1.19251 0
M  V30 1998 H 202.637 3.56838 -1.24398 0
M  V30 1999 H 202.95 7.06754 -3.12601 0
M  V30 2000 H 201.295 6.35884 -2.80495 0
M  V30 2001 H 204.486 4.39166 -1.62021 0
M  V30 2002 H 204.659 5.98739 -2.47822 0
M  V30 2003 N 198.065 0.39524 1.52563 0
M  V30 2004 C 198.995 -0.428384 2.29537 0
M  V30 2005 C 199.976 -1.05831 1.33169 0
M  V30 2006 O 201.161 -1.06995 1.62067 0
M  V30 2007 C 198.291 -1.55274 3.10656 0
M  V30 2008 C 197.245 -1.04855 4.14957 0
M  V30 2009 C 196.571 -2.26543 4.84337 0
M  V30 2010 C 197.871 -0.112324 5.22179 0
M  V30 2011 H 199.565 0.213867 2.98635 0
M  V30 2012 H 197.111 0.104298 1.43622 0
M  V30 2013 H 199.064 -2.1358 3.63265 0
M  V30 2014 H 197.788 -2.22266 2.39302 0
M  V30 2015 H 196.447 -0.487985 3.63338 0
M  V30 2016 H 196.095 -2.92059 4.09525 0
M  V30 2017 H 195.795 -1.93466 5.54837 0
M  V30 2018 H 197.319 -2.85481 5.39753 0
M  V30 2019 H 198.733 -0.603752 5.70112 0
M  V30 2020 H 197.13 0.128968 5.99961 0
M  V30 2021 H 198.2 0.837052 4.77621 0
M  V30 2022 N 199.544 -1.57102 0.125237 0
M  V30 2023 C 200.792 -1.95021 -0.530198 0
M  V30 2024 C 201.113 -1.00982 -1.66816 0
M  V30 2025 O 200.383 -0.0672693 -1.95784 0
M  V30 2026 H 198.963 -0.720046 -0.198853 0
M  V30 2027 H 201.625 -1.93916 0.19564 0
M  V30 2028 H 200.721 -2.98211 -0.920681 0
M  V30 2029 N 201.022 0.148545 -1.56898 0
M  V30 2030 C 202.27 0.859717 -1.82902 0
M  V30 2031 C 202.591 1.81775 -0.70588 0
M  V30 2032 O 201.861 1.93994 0.272586 0
M  V30 2033 H 200.441 0.320469 -0.674766 0
M  V30 2034 H 203.103 0.142918 -1.94375 0
M  V30 2035 H 202.199 1.4229 -2.77777 0
M  V30 2036 N 202.5 1.5196 0.417844 0
M  V30 2037 C 203.463 1.74065 1.49111 0
M  V30 2038 C 204.463 0.610537 1.48758 0
M  V30 2039 O 205.653 0.87832 1.50437 0
M  V30 2040 C 202.785 1.81502 2.88565 0
M  V30 2041 H 203.978 2.69869 1.30807 0
M  V30 2042 H 201.531 1.42244 0.647785 0
M  V30 2043 H 202.266 0.875813 3.1225 0
M  V30 2044 H 202.051 2.63651 2.90225 0
M  V30 2045 H 203.541 2.00376 3.66387 0
M  V30 2046 N 203.978 -0.674533 1.42435 0
M  V30 2047 C 204.925 -1.78807 1.45934 0
M  V30 2048 C 205.895 -1.63157 0.311271 0
M  V30 2049 O 207.08 -1.83707 0.515383 0
M  V30 2050 C 204.22 -3.16839 1.36773 0
M  V30 2051 C 203.333 -3.43774 2.61617 0
M  V30 2052 C 202.468 -4.71536 2.44597 0
M  V30 2053 C 201.507 -4.91505 3.64814 0
M  V30 2054 N 200.644 -6.10508 3.46734 0
M  V30 2055 H 205.484 -1.75151 2.41093 0
M  V30 2056 H 203.021 -0.85504 1.19697 0
M  V30 2057 H 204.979 -3.96606 1.29459 0
M  V30 2058 H 203.609 -3.19619 0.452089 0
M  V30 2059 H 202.661 -2.58259 2.79297 0
M  V30 2060 H 203.973 -3.54423 3.50978 0
M  V30 2061 H 203.127 -5.59393 2.3487 0
M  V30 2062 H 201.866 -4.6317 1.52726 0
M  V30 2063 H 200.871 -4.0209 3.74972 0
M  V30 2064 H 202.096 -5.01716 4.57665 0
M  V30 2065 H 200.042 -6.03315 2.5758 0
M  V30 2066 H 199.959 -6.2202 4.29682 0
M  V30 2067 H 201.227 -7.01044 3.40819 0
M  V30 2068 N 205.456 -1.28612 -0.910864 0
M  V30 2069 C 206.705 -1.15311 -1.65488 0
M  V30 2070 C 207.018 0.296999 -1.93332 0
M  V30 2071 O 208.224 0.551168 -2.65847 0
M  V30 2072 C 206.68 -2.01599 -2.98137 0
M  V30 2073 C 206.288 -3.51367 -2.7793 0
M  V30 2074 C 208.032 -1.96993 -3.76024 0
M  V30 2075 C 205.939 -4.29797 -4.06237 0
M  V30 2076 H 204.869 -0.42796 -0.620779 0
M  V30 2077 H 207.52 -1.53166 -1.01057 0
M  V30 2078 H 205.902 -1.56603 -3.63719 0
M  V30 2079 H 207.076 -4.0434 -2.21011 0
M  V30 2080 H 205.391 -3.57529 -2.13452 0
M  V30 2081 H 207.988 -2.52856 -4.71135 0
M  V30 2082 H 208.331 -0.94733 -4.05378 0
M  V30 2083 H 208.864 -2.39973 -3.17266 0
M  V30 2084 H 205.603 -5.32648 -3.82055 0
M  V30 2085 H 205.123 -3.81596 -4.62757 0
M  V30 2086 H 206.802 -4.39869 -4.74473 0
M  V30 2087 N 206.934 1.1197 -1.10907 0
M  V30 2088 C 208.162 1.87402 -0.876824 0
M  V30 2089 C 208.577 1.79894 0.573025 0
M  V30 2090 O 207.934 1.17629 1.39534 0
M  V30 2091 C 207.985 3.36428 -1.32282 0
M  V30 2092 O 207.706 3.43765 -2.71582 0
M  V30 2093 C 209.207 4.28783 -1.12518 0
M  V30 2094 H 206.427 0.592793 -0.314384 0
M  V30 2095 H 208.971 1.41649 -1.47499 0
M  V30 2096 H 207.126 3.79706 -0.768229 0
M  V30 2097 H 207.54 4.3652 -2.90776 0
M  V30 2098 H 209.014 5.31613 -1.48633 0
M  V30 2099 H 209.491 4.39153 -0.0642394 0
M  V30 2100 H 210.097 3.91291 -1.66648 0
M  V30 2101 N 208.412 0.89855 1.29475 0
M  V30 2102 C 209.642 0.538479 1.99459 0
M  V30 2103 C 210.05 -0.880922 1.67441 0
M  V30 2104 O 209.393 -1.59283 0.915127 0
M  V30 2105 C 209.455 0.649564 3.53583 0
M  V30 2106 C 209.119 2.03573 4.09154 0
M  V30 2107 C 210.116 3.00675 4.24135 0
M  V30 2108 C 207.801 2.3448 4.44212 0
M  V30 2109 C 209.795 4.26809 4.73405 0
M  V30 2110 C 207.482 3.60857 4.93179 0
M  V30 2111 C 208.48 4.56836 5.0773 0
M  V30 2112 O 208.168 5.80969 5.55635 0
M  V30 2113 H 207.9 0.205372 0.644048 0
M  V30 2114 H 210.454 1.20958 1.66007 0
M  V30 2115 H 208.684 -0.0785592 3.8662 0
M  V30 2116 H 210.373 0.29881 4.04799 0
M  V30 2117 H 211.139 2.78112 3.97339 0
M  V30 2118 H 207.018 1.60534 4.32145 0
M  V30 2119 H 210.562 5.0173 4.84678 0
M  V30 2120 H 206.459 3.83251 5.19412 0
M  V30 2121 H 207.227 5.83542 5.73952 0
M  V30 2122 N 209.89 -1.43072 0.660911 0
M  V30 2123 C 210.82 -2.33497 -0.0122829 0
M  V30 2124 C 211.801 -1.49903 -0.803925 0
M  V30 2125 O 212.986 -1.78546 -0.763864 0
M  V30 2126 C 210.116 -3.33363 -0.973994 0
M  V30 2127 C 209.07 -4.27003 -0.291928 0
M  V30 2128 C 208.396 -5.16967 -1.36562 0
M  V30 2129 C 209.696 -5.15816 0.820462 0
M  V30 2130 H 211.39 -2.90038 0.742873 0
M  V30 2131 H 208.936 -1.39461 0.358688 0
M  V30 2132 H 210.889 -3.95524 -1.45392 0
M  V30 2133 H 209.613 -2.75095 -1.7604 0
M  V30 2134 H 208.272 -3.66217 0.167623 0
M  V30 2135 H 207.92 -4.55034 -2.14366 0
M  V30 2136 H 207.62 -5.80441 -0.914454 0
M  V30 2137 H 209.144 -5.82003 -1.84675 0
M  V30 2138 H 210.558 -5.71742 0.422366 0
M  V30 2139 H 208.955 -5.8805 1.19656 0
M  V30 2140 H 210.025 -4.55045 1.67518 0
M  V30 2141 N 211.368 -0.403325 -1.52352 0
M  V30 2142 C 212.278 0.432009 -2.30588 0
M  V30 2143 C 213.294 1.05884 -1.38075 0
M  V30 2144 O 214.47 1.06161 -1.71148 0
M  V30 2145 C 211.535 1.53669 -3.10784 0
M  V30 2146 C 210.596 0.933525 -4.19027 0
M  V30 2147 C 209.829 1.98557 -4.9539 0
M  V30 2148 O 210.052 3.20283 -4.71991 0
M  V30 2149 O 208.986 1.59504 -5.80381 0
M  V30 2150 H 212.812 -0.205739 -3.03002 0
M  V30 2151 H 210.397 -0.166675 -1.48467 0
M  V30 2152 H 212.279 2.17814 -3.60742 0
M  V30 2153 H 210.954 2.15915 -2.41169 0
M  V30 2154 H 209.861 0.254954 -3.7323 0
M  V30 2155 H 211.194 0.35508 -4.90918 0
M  V30 2156 N 212.846 1.57033 -0.133567 0
M  V30 2157 C 213.778 2.13176 0.841944 0
M  V30 2158 C 214.791 1.07794 1.22001 0
M  V30 2159 O 215.98 1.35117 1.16643 0
M  V30 2160 C 213.08 2.62847 2.13926 0
M  V30 2161 C 212.253 3.92486 1.93064 0
M  V30 2162 C 211.312 4.27605 3.0666 0
M  V30 2163 O 210.338 4.96168 2.78937 0
M  V30 2164 N 211.54 3.861 4.33483 0
M  V30 2165 H 214.305 2.97503 0.362192 0
M  V30 2166 H 211.866 1.61821 0.05042 0
M  V30 2167 H 213.858 2.83363 2.88942 0
M  V30 2168 H 212.428 1.83319 2.53205 0
M  V30 2169 H 211.648 3.80732 1.02159 0
M  V30 2170 H 212.936 4.77225 1.76447 0
M  V30 2171 H 212.334 3.30828 4.58878 0
M  V30 2172 H 210.891 4.11694 5.05323 0
M  V30 2173 N 214.325 -0.140222 1.56975 0
M  V30 2174 C 215.235 -1.19223 2.02047 0
M  V30 2175 C 216.251 -1.46612 0.937062 0
M  V30 2176 O 217.427 -1.58148 1.24704 0
M  V30 2177 C 214.492 -2.50414 2.39778 0
M  V30 2178 C 213.553 -2.30612 3.621 0
M  V30 2179 C 212.786 -3.55547 3.98023 0
M  V30 2180 O 213.009 -4.62004 3.34528 0
M  V30 2181 O 211.943 -3.47808 4.91237 0
M  V30 2182 H 215.769 -0.839559 2.91865 0
M  V30 2183 H 213.354 -0.349453 1.45256 0
M  V30 2184 H 215.236 -3.27747 2.64877 0
M  V30 2185 H 213.911 -2.85198 1.53114 0
M  V30 2186 H 212.818 -1.51207 3.4218 0
M  V30 2187 H 214.151 -2.00741 4.49404 0
M  V30 2188 N 215.803 -1.52179 -0.40978 0
M  V30 2189 C 216.751 -1.76086 -1.51975 0
M  V30 2190 C 217.745 -0.627964 -1.57331 0
M  V30 2191 O 218.951 -0.809993 -1.60745 0
M  V30 2192 H 215.326 -0.556829 -0.505416 0
M  V30 2193 H 217.297 -2.69077 -1.28996 0
M  V30 2194 C 216.046 -1.92799 -2.8935 0
M  V30 2195 H 215.369 -2.79392 -2.85972 0
M  V30 2196 H 216.809 -2.13527 -3.66309 0
M  V30 2197 C 215.268 -0.694923 -3.29655 0
M  V30 2198 O 215.798 0.13751 -4.01465 0
M  V30 2199 N 214.004 -0.53101 -2.85707 0
M  V30 2200 H 213.551 -1.20952 -2.27439 0
M  V30 2201 H 213.509 0.292718 -3.13034 0
M  V30 2202 N 217.281 0.66697 -1.42791 0
M  V30 2203 C 218.511 1.45294 -1.46878 0
M  V30 2204 C 218.919 1.89027 -0.0809861 0
M  V30 2205 O 218.262 1.59219 0.916246 0
M  V30 2206 C 218.324 2.72908 -2.34012 0
M  V30 2207 C 217.988 2.51203 -3.81767 0
M  V30 2208 C 218.985 2.15302 -4.73224 0
M  V30 2209 C 216.67 2.65954 -4.26115 0
M  V30 2210 C 218.664 1.94431 -6.07022 0
M  V30 2211 C 216.351 2.44699 -5.59969 0
M  V30 2212 C 217.349 2.08992 -6.5024 0
M  V30 2213 O 217.037 1.87948 -7.81621 0
M  V30 2214 H 216.769 0.453306 -0.501487 0
M  V30 2215 H 219.323 0.826232 -1.88049 0
M  V30 2216 H 217.553 3.38089 -1.87703 0
M  V30 2217 H 219.242 3.34816 -2.29462 0
M  V30 2218 H 220.008 2.03495 -4.40244 0
M  V30 2219 H 215.887 2.92724 -3.56137 0
M  V30 2220 H 219.431 1.66484 -6.77443 0
M  V30 2221 H 215.328 2.56105 -5.9252 0
M  V30 2222 H 216.096 2.02483 -7.93059 0
M  V30 2223 N 218.759 1.29093 0.90403 0
M  V30 2224 C 220.17 1.15186 1.46932 0
M  V30 2225 C 220.521 -0.254587 1.94541 0
M  V30 2226 O 219.646 -1.14972 1.83332 0
M  V30 2227 C 220.241 2.08492 2.67051 0
M  V30 2228 C 218.8 1.98621 3.19729 0
M  V30 2229 C 217.947 1.9967 1.92425 0
M  V30 2230 H 220.898 1.41641 0.715789 0
M  V30 2231 H 220.919 1.65461 3.42641 0
M  V30 2232 H 220.431 3.10847 2.3237 0
M  V30 2233 H 218.532 0.993389 3.59114 0
M  V30 2234 H 218.645 2.86068 3.8432 0
M  V30 2235 H 217.009 1.44208 2.09943 0
M  V30 2236 H 217.792 3.03721 1.60026 0
M  V30 2237 N 220.237 -1.11381 1.11499 0
M  V30 2238 C 221.648 -1.6465 0.880191 0
M  V30 2239 C 221.999 -1.87199 -0.587434 0
M  V30 2240 O 221.124 -1.60667 -1.44966 0
M  V30 2241 C 221.719 -2.99105 1.59128 0
M  V30 2242 C 220.278 -3.49279 1.40289 0
M  V30 2243 C 219.425 -2.24077 1.63354 0
M  V30 2244 H 222.376 -0.950123 1.27116 0
M  V30 2245 H 222.397 -3.66107 1.03664 0
M  V30 2246 H 221.909 -2.82661 2.65941 0
M  V30 2247 H 220.01 -3.70887 0.356888 0
M  V30 2248 H 220.123 -4.2803 2.15238 0
M  V30 2249 H 218.487 -2.31733 1.05698 0
M  V30 2250 H 219.27 -2.10175 2.71443 0
M  V30 2251 N 221.715 -0.905404 -1.28997 0
M  V30 2252 C 222.645 -0.404212 -2.29975 0
M  V30 2253 C 223.626 0.523784 -1.61835 0
M  V30 2254 O 224.811 0.433298 -1.89304 0
M  V30 2255 C 221.941 0.364042 -3.45387 0
M  V30 2256 C 220.895 -0.474048 -4.25367 0
M  V30 2257 C 220.221 0.422045 -5.33032 0
M  V30 2258 C 221.521 -1.72696 -4.92923 0
M  V30 2259 H 223.215 -1.24807 -2.72146 0
M  V30 2260 H 220.761 -0.601585 -1.30832 0
M  V30 2261 H 222.714 0.725447 -4.15109 0
M  V30 2262 H 221.438 1.24174 -3.02074 0
M  V30 2263 H 220.097 -0.81786 -3.57361 0
M  V30 2264 H 219.745 1.29804 -4.85963 0
M  V30 2265 H 219.445 -0.135057 -5.87445 0
M  V30 2266 H 220.969 0.779517 -6.05604 0
M  V30 2267 H 222.383 -1.43495 -5.55051 0
M  V30 2268 H 220.78 -2.22582 -5.57295 0
M  V30 2269 H 221.85 -2.45964 -4.17887 0
M  V30 2270 N 223.193 1.4272 -0.668489 0
M  V30 2271 C 224.609 1.55992 -0.33745 0
M  V30 2272 C 224.809 1.64933 1.15756 0
M  V30 2273 O 223.865 1.61278 1.94282 0
M  V30 2274 C 225.178 2.81314 -1.06222 0
M  V30 2275 C 226.726 2.95078 -1.04394 0
M  V30 2276 C 227.201 4.23252 -1.74991 0
M  V30 2277 N 228.692 4.3015 -1.71829 0
M  V30 2278 C 229.427 5.28127 -2.23315 0
M  V30 2279 N 228.923 6.32293 -2.83156 0
M  V30 2280 N 230.716 5.19882 -2.13726 0
M  V30 2281 H 222.867 1.3516 -1.63846 0
M  V30 2282 H 225.13 0.650174 -0.689912 0
M  V30 2283 H 224.836 2.80823 -2.11734 0
M  V30 2284 H 224.71 3.72012 -0.62344 0
M  V30 2285 H 227.097 2.951 0.0028244 0
M  V30 2286 H 227.178 2.05627 -1.52155 0
M  V30 2287 H 226.822 4.2399 -2.79633 0
M  V30 2288 H 226.752 5.11626 -1.24685 0
M  V30 2289 H 229.243 3.55499 -1.28175 0
M  V30 2290 H 229.556 7.03398 -3.20079 0
M  V30 2291 H 227.901 6.32873 -2.87223 0
M  V30 2292 H 231.092 4.37423 -1.66669 0
M  V30 2293 H 231.265 5.96077 -2.54158 0
M  V30 2294 N 224.671 0.411399 1.52136 0
M  V30 2295 C 225.601 -0.404015 2.29978 0
M  V30 2296 C 226.582 -1.04412 1.34284 0
M  V30 2297 O 227.767 -1.0527 1.63192 0
M  V30 2298 C 224.897 -1.5197 3.12286 0
M  V30 2299 C 223.851 -1.00448 4.16046 0
M  V30 2300 C 223.177 -2.21393 4.86712 0
M  V30 2301 C 224.477 -0.0569336 5.22269 0
M  V30 2302 H 226.171 0.245529 2.98392 0
M  V30 2303 H 223.717 0.119525 1.43503 0
M  V30 2304 H 225.67 -2.09715 3.6551 0
M  V30 2305 H 224.394 -2.19716 2.41646 0
M  V30 2306 H 223.053 -0.449421 3.63835 0
M  V30 2307 H 222.701 -2.87699 4.12599 0
M  V30 2308 H 222.401 -1.87571 5.56858 0
M  V30 2309 H 223.925 -2.7974 5.4275 0
M  V30 2310 H 225.339 -0.54325 5.7072 0
M  V30 2311 H 223.736 0.192594 5.99791 0
M  V30 2312 H 224.806 0.887663 4.76706 0
M  V30 2313 N 226.149 -1.5696 0.141893 0
M  V30 2314 C 227.081 -2.13619 -0.830627 0
M  V30 2315 C 228.094 -1.08439 -1.21428 0
M  V30 2316 O 229.283 -1.35734 -1.15925 0
M  V30 2317 C 226.383 -2.63978 -2.12529 0
M  V30 2318 C 225.556 -3.93504 -1.9098 0
M  V30 2319 C 224.615 -4.29225 -3.04388 0
M  V30 2320 O 223.641 -4.97641 -2.76302 0
M  V30 2321 N 224.843 -3.88393 -4.31429 0
M  V30 2322 H 227.608 -2.97691 -0.34641 0
M  V30 2323 H 225.169 -1.61846 -0.0418375 0
M  V30 2324 H 227.161 -2.84891 -2.87436 0
M  V30 2325 H 225.731 -1.84659 -2.52229 0
M  V30 2326 H 224.951 -3.81269 -1.00139 0
M  V30 2327 H 226.239 -4.78154 -1.73914 0
M  V30 2328 H 225.637 -3.33257 -4.57117 0
M  V30 2329 H 224.194 -4.14368 -5.03133 0
M  V30 2330 N 227.627 0.131896 -1.57047 0
M  V30 2331 C 228.875 0.840269 -1.83804 0
M  V30 2332 C 229.196 1.81017 -0.72512 0
M  V30 2333 O 228.466 1.94272 0.251995 0
M  V30 2334 H 227.046 0.313294 -0.678127 0
M  V30 2335 H 229.708 0.122294 -1.94516 0
M  V30 2336 H 228.804 1.39335 -2.79271 0
M  V30 2337 N 229.106 1.52395 0.401703 0
M  V30 2338 C 230.354 1.66488 1.14569 0
M  V30 2339 C 230.675 0.400897 1.90835 0
M  V30 2340 O 229.945 -0.584415 1.8698 0
M  V30 2341 H 228.525 0.613672 0.425929 0
M  V30 2342 H 231.187 1.89464 0.457093 0
M  V30 2343 H 230.283 2.50942 1.85566 0
M  V30 2344 N 230.584 -0.659388 1.43143 0
M  V30 2345 C 231.831 -1.41935 1.44433 0
M  V30 2346 C 232.159 -1.94387 0.0663522 0
M  V30 2347 O 231.414 -1.72314 -0.927706 0
M  V30 2348 C 231.713 -2.62206 2.42864 0
M  V30 2349 C 231.379 -2.28208 3.88886 0
M  V30 2350 C 230.041 -2.18647 4.28657 0
M  V30 2351 C 232.393 -2.00887 4.8093 0
M  V30 2352 C 229.721 -1.79914 5.58433 0
M  V30 2353 C 232.073 -1.63653 6.11065 0
M  V30 2354 C 230.737 -1.52614 6.49819 0
M  V30 2355 H 230.007 -0.519376 0.528517 0
M  V30 2356 H 232.654 -0.750453 1.76183 0
M  V30 2357 H 230.959 -3.34199 2.04495 0
M  V30 2358 H 232.656 -3.2041 2.41119 0
M  V30 2359 H 229.246 -2.36557 3.57406 0
M  V30 2360 H 233.43 -2.07198 4.5098 0
M  V30 2361 H 228.686 -1.69948 5.87305 0
M  V30 2362 H 232.86 -1.41543 6.81864 0
M  V30 2363 H 230.487 -1.22371 7.50286 0
M  V30 2364 N 232.062 -1.29571 -0.897171 0
M  V30 2365 C 233.29 -1.20583 -1.68129 0
M  V30 2366 C 233.705 0.233181 -1.87354 0
M  V30 2367 O 233.062 1.15579 -1.41236 0
M  V30 2368 C 233.113 -1.91772 -3.06441 0
M  V30 2369 O 232.834 -3.30053 -2.88091 0
M  V30 2370 C 234.335 -1.89291 -4.00854 0
M  V30 2371 H 231.555 -0.417826 -0.525036 0
M  V30 2372 H 234.099 -1.70987 -1.12177 0
M  V30 2373 H 232.254 -1.45196 -3.59161 0
M  V30 2374 H 232.668 -3.65942 -3.75748 0
M  V30 2375 H 234.142 -2.43662 -4.95311 0
M  V30 2376 H 234.619 -0.869014 -4.30517 0
M  V30 2377 H 235.225 -2.35622 -3.54066 0
M  V30 2378 N 233.54 1.10788 -1.12088 0
M  V30 2379 C 234.788 1.8231 -0.872205 0
M  V30 2380 C 235.109 1.85419 0.603709 0
M  V30 2381 O 234.379 1.32963 1.43867 0
M  V30 2382 H 232.959 0.675137 -0.319686 0
M  V30 2383 H 235.621 1.34068 -1.41463 0
M  V30 2384 H 234.717 2.85955 -1.25045 0
M  V30 2385 N 235.018 0.912232 1.28515 0
M  V30 2386 C 236.266 0.543523 1.94654 0
M  V30 2387 C 236.587 -0.9155 1.72173 0
M  V30 2388 O 235.857 -1.64708 1.06058 0
M  V30 2389 H 234.437 0.198017 0.720277 0
M  V30 2390 H 237.099 1.16126 1.56527 0
M  V30 2391 H 236.195 0.736684 3.03281 0
M  V30 2392 N 236.496 -1.42363 0.676048 0
M  V30 2393 C 237.444 -2.32596 -0.0131507 0
M  V30 2394 C 238.438 -1.49891 -0.789238 0
M  V30 2395 O 239.644 -1.65955 -0.697061 0
M  V30 2396 H 236.019 -0.751647 -0.0230481 0
M  V30 2397 H 237.99 -2.88421 0.765243 0
M  V30 2398 C 236.739 -3.34479 -0.949702 0
M  V30 2399 H 236.062 -3.98158 -0.361938 0
M  V30 2400 H 237.502 -4.00199 -1.4006 0
M  V30 2401 C 235.961 -2.66838 -2.05667 0
M  V30 2402 O 236.491 -2.50124 -3.14326 0
M  V30 2403 N 234.697 -2.25843 -1.82875 0
M  V30 2404 H 234.244 -2.39637 -0.945085 0
M  V30 2405 H 234.202 -1.80918 -2.5713 0
M  V30 2406 N 237.974 -0.419461 -1.51915 0
M  V30 2407 C 239.22 0.153166 -2.02221 0
M  V30 2408 C 239.553 1.43907 -1.30401 0
M  V30 2409 O 238.828 1.90055 -0.413438 0
M  V30 2410 C 239.111 0.390291 -3.57979 0
M  V30 2411 C 238.964 -0.913014 -4.40436 0
M  V30 2412 C 240.283 1.16794 -4.2432 0
M  V30 2413 H 237.402 0.0541924 -0.735005 0
M  V30 2414 H 240.044 -0.554955 -1.81715 0
M  V30 2415 H 238.194 0.993491 -3.75582 0
M  V30 2416 H 239.866 -1.54882 -4.34522 0
M  V30 2417 H 238.109 -1.52168 -4.06236 0
M  V30 2418 H 238.78 -0.701361 -5.47526 0
M  V30 2419 H 241.256 0.657161 -4.10878 0
M  V30 2420 H 240.132 1.3026 -5.3322 0
M  V30 2421 H 240.393 2.19132 -3.83971 0
M  V30 2422 N 239.452 1.56882 -0.150215 0
M  V30 2423 C 240.729 1.87844 0.545327 0
M  V30 2424 C 241.109 1.0567 1.82749 0
M  V30 2425 O 240.457 0.144442 2.28043 0
M  V30 2426 C 240.667 3.39526 0.80767 0
M  V30 2427 C 242.015 4.08814 1.14703 0
M  V30 2428 O 243.039 3.44723 0.896917 0
M  V30 2429 O 241.898 5.22004 1.61784 0
M  V30 2430 H 238.992 0.778677 0.278553 0
M  V30 2431 H 241.538 1.68666 -0.187068 0
M  V30 2432 H 240.31 3.91173 -0.0996096 0
M  V30 2433 H 239.933 3.64243 1.59413 0
M  V30 2434 N 240.93 -0.123565 1.57115 0
M  V30 2435 C 242.176 -0.833386 1.84885 0
M  V30 2436 C 242.509 -1.79742 0.735292 0
M  V30 2437 O 241.784 -1.92764 -0.25925 0
M  V30 2438 C 242.067 -1.5873 3.23228 0
M  V30 2439 C 241.92 -0.643183 4.45178 0
M  V30 2440 C 243.239 -2.54453 3.59085 0
M  V30 2441 H 240.358 -0.301518 0.6725 0
M  V30 2442 H 243 -0.097778 1.89748 0
M  V30 2443 H 241.15 -2.21438 3.19214 0
M  V30 2444 H 242.822 -0.0253015 4.61293 0
M  V30 2445 H 241.065 0.0456139 4.33776 0
M  V30 2446 H 241.736 -1.20724 5.38637 0
M  V30 2447 H 244.212 -2.01853 3.63861 0
M  V30 2448 H 243.088 -3.04238 4.5687 0
M  V30 2449 H 243.349 -3.36906 2.86264 0
M  V30 2450 N 242.408 -1.52605 -0.393616 0
M  V30 2451 C 243.685 -1.58001 -1.15304 0
M  V30 2452 C 244.065 -0.370385 -2.07825 0
M  V30 2453 O 243.413 0.641638 -2.19306 0
M  V30 2454 C 243.623 -2.91652 -1.91677 0
M  V30 2455 C 244.971 -3.4522 -2.47201 0
M  V30 2456 O 245.995 -2.93495 -2.01839 0
M  V30 2457 O 244.854 -4.35579 -3.3005 0
M  V30 2458 H 241.948 -0.637068 -0.527327 0
M  V30 2459 H 244.494 -1.64939 -0.399141 0
M  V30 2460 H 243.266 -3.71136 -1.23992 0
M  V30 2461 H 242.889 -2.88077 -2.74039 0
M  V30 2462 N 243.887 0.651787 -1.4349 0
M  V30 2463 C 245.135 1.40888 -1.44897 0
M  V30 2464 C 245.456 1.94856 -0.0749086 0
M  V30 2465 O 244.726 1.74518 0.889956 0
M  V30 2466 H 243.306 0.522887 -0.533478 0
M  V30 2467 H 245.968 0.768609 -1.79104 0
M  V30 2468 H 245.064 2.25052 -2.16236 0
M  V30 2469 N 245.365 1.30045 0.890287 0
M  V30 2470 C 246.59 1.21598 1.68014 0
M  V30 2471 C 247.015 -0.218678 1.86825 0
M  V30 2472 O 246.373 -1.15756 1.39536 0
M  V30 2473 C 246.421 1.94434 3.03691 0
M  V30 2474 O 245.525 1.2678 3.92429 0
M  V30 2475 H 244.866 0.420856 0.513592 0
M  V30 2476 H 247.396 1.71775 1.11151 0
M  V30 2477 H 247.406 2.03251 3.5377 0
M  V30 2478 H 246.081 2.98777 2.89318 0
M  V30 2479 H 244.658 1.26282 3.50866 0
M  V30 2480 N 246.843 -1.10192 1.12674 0
M  V30 2481 C 248.089 -1.82475 0.884915 0
M  V30 2482 C 248.422 -1.85093 -0.58773 0
M  V30 2483 O 247.697 -1.3134 -1.43457 0
M  V30 2484 C 247.98 -3.29018 1.46353 0
M  V30 2485 C 247.833 -3.34718 3.00473 0
M  V30 2486 C 249.152 -4.25473 1.12519 0
M  V30 2487 H 246.271 -0.662492 0.322915 0
M  V30 2488 H 248.913 -1.2913 1.39375 0
M  V30 2489 H 247.063 -3.74576 1.03077 0
M  V30 2490 H 248.735 -2.97622 3.52447 0
M  V30 2491 H 246.978 -2.74541 3.35872 0
M  V30 2492 H 247.649 -4.37918 3.36053 0
M  V30 2493 H 250.125 -3.88161 1.499 0
M  V30 2494 H 249.001 -5.26365 1.55663 0
M  V30 2495 H 249.262 -4.42084 0.0377407 0
M  V30 2496 N 248.321 -0.919034 -1.28029 0
M  V30 2497 C 249.546 -0.570357 -1.99403 0
M  V30 2498 C 249.971 0.842486 -1.68178 0
M  V30 2499 O 249.329 1.56391 -0.917141 0
M  V30 2500 C 249.377 -0.792541 -3.51783 0
M  V30 2501 O 248.481 0.145988 -4.12142 0
M  V30 2502 H 247.822 -0.220555 -0.6263 0
M  V30 2503 H 250.352 -1.23592 -1.63053 0
M  V30 2504 H 250.362 -0.704708 -4.01868 0
M  V30 2505 H 249.037 -1.82247 -3.73844 0
M  V30 2506 H 247.614 0.00897528 -3.72899 0
M  V30 2507 N 249.799 1.42003 -0.683588 0
M  V30 2508 C 251.024 2.06265 -0.216647 0
M  V30 2509 C 251.449 1.51059 1.12083 0
M  V30 2510 O 250.807 0.632638 1.69904 0
M  V30 2511 C 250.855 3.60191 -0.171759 0
M  V30 2512 O 249.959 4.03396 0.857069 0
M  V30 2513 H 249.3 0.65502 -0.108834 0
M  V30 2514 H 251.83 1.81982 -0.935077 0
M  V30 2515 H 251.84 4.08 0.0014303 0
M  V30 2516 H 250.515 3.99743 -1.14796 0
M  V30 2517 H 249.092 3.67117 0.654208 0
M  V30 2518 N 251.277 0.427512 1.51691 0
M  V30 2519 C 252.209 -0.424521 2.25234 0
M  V30 2520 C 253.222 -0.994671 1.2888 0
M  V30 2521 O 254.411 -0.890483 1.54702 0
M  V30 2522 C 251.511 -1.60479 2.98496 0
M  V30 2523 C 250.684 -1.15527 4.21868 0
M  V30 2524 C 249.743 -2.20454 4.77793 0
M  V30 2525 O 248.769 -1.8029 5.39893 0
M  V30 2526 N 249.971 -3.52831 4.60967 0
M  V30 2527 H 252.736 0.205749 2.98993 0
M  V30 2528 H 250.297 0.255867 1.59865 0
M  V30 2529 H 252.289 -2.30276 3.32799 0
M  V30 2530 H 250.859 -2.14061 2.27809 0
M  V30 2531 H 250.079 -0.284736 3.9317 0
M  V30 2532 H 251.367 -0.832173 5.01949 0
M  V30 2533 H 250.765 -3.88201 4.11481 0
M  V30 2534 H 249.322 -4.18551 4.99658 0
M  V30 2535 N 252.755 -1.56801 0.158532 0
M  V30 2536 C 254.002 -1.9649 -0.489679 0
M  V30 2537 C 254.33 -1.04394 -1.6411 0
M  V30 2538 O 253.585 -0.0754401 -1.95555 0
M  V30 2539 C 253.884 -3.4235 -1.02623 0
M  V30 2540 C 253.55 -4.50899 0.00794526 0
M  V30 2541 C 252.212 -4.80312 0.292207 0
M  V30 2542 C 254.564 -5.16333 0.710584 0
M  V30 2543 C 251.892 -5.72461 1.28472 0
M  V30 2544 C 254.244 -6.09553 1.69199 0
M  V30 2545 C 252.908 -6.37339 1.98383 0
M  V30 2546 H 252.178 -0.719009 -0.179186 0
M  V30 2547 H 254.825 -1.8989 0.247798 0
M  V30 2548 H 253.13 -3.45838 -1.84128 0
M  V30 2549 H 254.827 -3.70393 -1.53656 0
M  V30 2550 H 251.417 -4.28015 -0.22379 0
M  V30 2551 H 255.601 -4.93732 0.504174 0
M  V30 2552 H 250.857 -5.92278 1.51714 0
M  V30 2553 H 255.031 -6.59327 2.24189 0
M  V30 2554 H 252.658 -7.08546 2.7544 0
M  V30 2555 N 254.233 0.115231 -1.57178 0
M  V30 2556 C 255.163 1.1423 -2.03651 0
M  V30 2557 C 256.144 1.42967 -0.921655 0
M  V30 2558 O 257.329 1.53343 -1.19162 0
M  V30 2559 C 254.459 2.4675 -2.44401 0
M  V30 2560 C 253.413 2.32467 -3.59365 0
M  V30 2561 C 252.739 3.69984 -3.86026 0
M  V30 2562 C 254.039 1.78203 -4.90959 0
M  V30 2563 H 255.733 0.755749 -2.89705 0
M  V30 2564 H 253.279 0.362093 -1.39373 0
M  V30 2565 H 255.232 3.18854 -2.75517 0
M  V30 2566 H 253.956 2.87302 -1.55322 0
M  V30 2567 H 252.615 1.62811 -3.28463 0
M  V30 2568 H 252.263 4.08028 -2.94147 0
M  V30 2569 H 251.963 3.61279 -4.63412 0
M  V30 2570 H 253.487 4.43587 -4.19599 0
M  V30 2571 H 254.901 2.40128 -5.20587 0
M  V30 2572 H 253.298 1.8031 -5.72371 0
M  V30 2573 H 254.368 0.739876 -4.79222 0
M  V30 2574 N 255.711 1.52812 0.385517 0
M  V30 2575 C 256.939 1.71907 1.15133 0
M  V30 2576 C 257.354 0.439004 1.83625 0
M  V30 2577 O 256.711 -0.586765 1.7281 0
M  V30 2578 C 256.762 2.87099 2.19673 0
M  V30 2579 O 256.483 4.10151 1.53973 0
M  V30 2580 C 257.984 3.17902 3.08955 0
M  V30 2581 H 255.204 0.575479 0.345057 0
M  V30 2582 H 257.748 1.99476 0.45052 0
M  V30 2583 H 255.903 2.61982 2.85384 0
M  V30 2584 H 256.317 4.74514 2.23465 0
M  V30 2585 H 257.791 4.01959 3.7833 0
M  V30 2586 H 258.268 2.3243 3.72657 0
M  V30 2587 H 258.874 3.44871 2.48885 0
M  V30 2588 N 257.189 -0.644168 1.43834 0
M  V30 2589 C 258.152 -1.73857 1.49353 0
M  V30 2590 C 259.152 -1.56315 0.377112 0
M  V30 2591 O 260.342 -1.62048 0.639226 0
M  V30 2592 C 257.474 -3.12819 1.35488 0
M  V30 2593 H 258.667 -1.70342 2.46827 0
M  V30 2594 H 256.22 -0.856652 1.30733 0
M  V30 2595 H 256.955 -3.2194 0.390569 0
M  V30 2596 H 256.74 -3.26958 2.16428 0
M  V30 2597 H 258.23 -3.92606 1.42302 0
M  V30 2598 N 258.668 -1.30515 -0.883378 0
M  V30 2599 C 259.598 -1.19607 -2.00541 0
M  V30 2600 C 260.579 -0.086346 -1.69881 0
M  V30 2601 O 261.764 -0.268654 -1.92333 0
M  V30 2602 C 258.894 -0.888758 -3.35736 0
M  V30 2603 C 257.848 -1.95659 -3.8066 0
M  V30 2604 C 257.174 -1.50224 -5.13164 0
M  V30 2605 C 258.474 -3.36788 -3.99213 0
M  V30 2606 H 260.168 -2.13476 -2.09925 0
M  V30 2607 H 257.714 -1.02775 -1.00863 0
M  V30 2608 H 259.667 -0.799094 -4.13754 0
M  V30 2609 H 258.391 0.0856125 -3.26488 0
M  V30 2610 H 257.05 -2.03591 -3.04871 0
M  V30 2611 H 256.698 -0.516092 -5.00345 0
M  V30 2612 H 256.398 -2.2165 -5.44192 0
M  V30 2613 H 257.922 -1.42639 -5.93706 0
M  V30 2614 H 259.336 -3.31605 -4.67665 0
M  V30 2615 H 257.733 -4.06314 -4.41621 0
M  V30 2616 H 258.803 -3.78561 -3.03017 0
M  V30 2617 N 260.146 1.09593 -1.13257 0
M  V30 2618 C 261.076 2.18214 -0.830946 0
M  V30 2619 C 262.057 1.68812 0.208966 0
M  V30 2620 O 263.242 1.9408 0.0682666 0
M  V30 2621 C 260.372 3.46051 -0.294296 0
M  V30 2622 C 259.326 4.08778 -1.26826 0
M  V30 2623 C 258.652 5.31419 -0.591449 0
M  V30 2624 C 259.952 4.51476 -2.62615 0
M  V30 2625 H 261.646 2.43703 -1.73923 0
M  V30 2626 H 259.192 1.17128 -0.837675 0
M  V30 2627 H 261.145 4.2134 -0.0709606 0
M  V30 2628 H 259.869 3.20079 0.649366 0
M  V30 2629 H 258.528 3.35505 -1.47756 0
M  V30 2630 H 258.176 5.01727 0.357633 0
M  V30 2631 H 257.876 5.74341 -1.24123 0
M  V30 2632 H 259.4 6.09433 -0.377355 0
M  V30 2633 H 260.814 5.17999 -2.45663 0
M  V30 2634 H 259.211 5.05277 -3.23752 0
M  V30 2635 H 260.281 3.63962 -3.20406 0
M  V30 2636 N 261.624 0.925811 1.2754 0
M  V30 2637 C 262.557 0.367836 2.25216 0
M  V30 2638 C 263.535 -0.534738 1.53556 0
M  V30 2639 O 264.719 -0.475672 1.824 0
M  V30 2640 C 261.846 -0.47298 3.35381 0
M  V30 2641 C 260.892 0.365898 4.24928 0
M  V30 2642 S 261.725 1.78025 5.05042 0
M  V30 2643 C 262.881 0.947068 6.18693 0
M  V30 2644 H 263.114 1.19568 2.72196 0
M  V30 2645 H 260.647 0.727867 1.36167 0
M  V30 2646 H 262.605 -0.952242 3.99303 0
M  V30 2647 H 261.266 -1.27533 2.87044 0
M  V30 2648 H 260.459 -0.277582 5.03235 0
M  V30 2649 H 260.061 0.779261 3.65792 0
M  V30 2650 H 262.353 0.182201 6.77255 0
M  V30 2651 H 263.296 1.70309 6.87314 0
M  V30 2652 H 263.704 0.489913 5.6237 0
M  V30 2653 N 263.102 -1.41638 0.69111 0
M  V30 2654 C 264.33 -2.05628 0.22909 0
M  V30 2655 C 264.745 -1.51992 -1.11999 0
M  V30 2656 O 264.102 -0.666322 -1.69901 0
M  V30 2657 C 264.153 -3.61084 0.173283 0
M  V30 2658 O 263.874 -4.12735 1.46907 0
M  V30 2659 C 265.375 -4.42213 -0.310266 0
M  V30 2660 H 262.595 -0.662327 0.107534 0
M  V30 2661 H 265.139 -1.81489 0.942438 0
M  V30 2662 H 263.294 -3.84278 -0.490858 0
M  V30 2663 H 263.708 -5.06743 1.35322 0
M  V30 2664 H 265.182 -5.51194 -0.298196 0
M  V30 2665 H 265.659 -4.1799 -1.34838 0
M  V30 2666 H 266.265 -4.24074 0.322716 0
M  V30 2667 N 264.58 -0.43555 -1.51462 0
M  V30 2668 C 265.543 0.365137 -2.26273 0
M  V30 2669 C 266.543 0.951227 -1.29647 0
M  V30 2670 O 267.733 0.825958 -1.53374 0
M  V30 2671 C 264.865 1.51645 -3.05314 0
M  V30 2672 H 266.058 -0.290474 -2.9849 0
M  V30 2673 H 263.611 -0.188676 -1.55157 0
M  V30 2674 H 264.346 2.20816 -2.3751 0
M  V30 2675 H 264.131 1.10238 -3.76284 0
M  V30 2676 H 265.621 2.08218 -3.61987 0
M  V30 2677 N 266.058 1.56714 -0.166846 0
M  V30 2678 C 267.469 1.83378 0.350646 0
M  V30 2679 C 267.82 1.08646 1.63372 0
M  V30 2680 O 266.945 0.338058 2.13743 0
M  V30 2681 C 267.54 3.32643 0.642963 0
M  V30 2682 C 266.099 3.59818 1.10491 0
M  V30 2683 C 265.246 2.76954 0.138411 0
M  V30 2684 H 268.197 1.53803 -0.391193 0
M  V30 2685 H 268.218 3.49878 1.49551 0
M  V30 2686 H 267.73 3.87007 -0.291055 0
M  V30 2687 H 265.831 3.1086 2.05418 0
M  V30 2688 H 265.944 4.68178 1.01716 0
M  V30 2689 H 264.308 2.4666 0.634911 0
M  V30 2690 H 265.091 3.34097 -0.789549 0
M  V30 2691 N 267.536 -0.106894 1.57237 0
M  V30 2692 C 268.466 -1.13148 2.04254 0
M  V30 2693 C 269.447 -1.42476 0.929224 0
M  V30 2694 O 270.632 -1.52709 1.19973 0
M  V30 2695 C 267.762 -2.4545 2.45706 0
M  V30 2696 C 266.716 -2.30558 3.60592 0
M  V30 2697 C 266.042 -3.67931 3.87983 0
M  V30 2698 C 267.342 -1.75597 4.91897 0
M  V30 2699 H 269.036 -0.740374 2.90101 0
M  V30 2700 H 266.582 -0.354696 1.39563 0
M  V30 2701 H 268.535 -3.17389 2.77205 0
M  V30 2702 H 267.259 -2.86475 1.56843 0
M  V30 2703 H 265.918 -1.61067 3.29322 0
M  V30 2704 H 265.566 -4.06462 2.96306 0
M  V30 2705 H 265.266 -3.58817 4.65322 0
M  V30 2706 H 266.79 -4.41356 4.21945 0
M  V30 2707 H 268.204 -2.37364 5.21854 0
M  V30 2708 H 266.601 -1.77272 5.73319 0
M  V30 2709 H 267.671 -0.714451 4.79608 0
M  V30 2710 N 269.014 -1.53014 -0.377408 0
M  V30 2711 C 269.977 -1.77957 -1.44444 0
M  V30 2712 C 270.977 -0.649763 -1.47087 0
M  V30 2713 O 272.167 -0.917897 -1.48055 0
M  V30 2714 C 269.299 -1.89089 -2.83651 0
M  V30 2715 H 270.492 -2.73243 -1.23606 0
M  V30 2716 H 268.045 -1.43912 -0.609844 0
M  V30 2717 H 268.78 -0.958293 -3.09818 0
M  V30 2718 H 268.565 -2.71254 -2.83132 0
M  V30 2719 H 270.055 -2.1002 -3.60945 0
M  V30 2720 N 270.492 0.636531 -1.44174 0
M  V30 2721 C 271.903 1.21806 -1.41493 0
M  V30 2722 C 272.254 1.95785 -0.1275 0
M  V30 2723 O 271.379 2.02147 0.772376 0
M  V30 2724 C 271.974 2.21551 -2.56321 0
M  V30 2725 C 270.533 2.75143 -2.56853 0
M  V30 2726 C 269.68 1.50052 -2.33195 0
M  V30 2727 H 272.631 0.427531 -1.52833 0
M  V30 2728 H 272.652 3.0405 -2.28765 0
M  V30 2729 H 272.164 1.67679 -3.50008 0
M  V30 2730 H 270.265 3.33033 -1.67093 0
M  V30 2731 H 270.378 3.2155 -3.55165 0
M  V30 2732 H 268.742 1.77993 -1.82183 0
M  V30 2733 H 269.525 0.980903 -3.28988 0
M  V30 2734 N 271.97 1.30982 0.876444 0
M  V30 2735 C 272.88 1.2003 2.01569 0
M  V30 2736 C 273.896 0.11838 1.73597 0
M  V30 2737 O 275.072 0.33495 1.98595 0
M  V30 2738 C 272.137 0.901637 3.34771 0
M  V30 2739 C 271.198 2.06979 3.76109 0
M  V30 2740 C 270.431 1.78529 5.02954 0
M  V30 2741 O 270.654 0.717296 5.65872 0
M  V30 2742 O 269.588 2.64019 5.40905 0
M  V30 2743 H 273.414 2.15753 2.13739 0
M  V30 2744 H 270.999 1.10658 1.00375 0
M  V30 2745 H 272.881 0.750645 4.1466 0
M  V30 2746 H 271.556 -0.0256141 3.2369 0
M  V30 2747 H 270.463 2.27616 2.96887 0
M  V30 2748 H 271.796 2.97907 3.91807 0
M  V30 2749 N 273.449 -1.08991 1.13837 0
M  V30 2750 C 274.726 -1.77863 0.813876 0
M  V30 2751 C 275.106 -1.99375 -0.693746 0
M  V30 2752 O 274.454 -1.59875 -1.63255 0
M  V30 2753 C 274.664 -3.0986 1.60586 0
M  V30 2754 C 276.012 -3.84493 1.8014 0
M  V30 2755 O 277.036 -3.19624 1.57222 0
M  V30 2756 O 275.895 -5.00957 2.18413 0
M  V30 2757 H 272.989 -0.771589 0.297624 0
M  V30 2758 H 275.535 -1.15507 1.24323 0
M  V30 2759 H 274.307 -2.89715 2.63022 0
M  V30 2760 H 273.93 -3.79942 1.17173 0
M  V30 2761 N 274.927 -0.932562 -1.27047 0
M  V30 2762 C 276.155 -0.592031 -1.98249 0
M  V30 2763 C 276.57 0.831062 -1.69525 0
M  V30 2764 O 275.927 1.55299 -0.958561 0
M  V30 2765 C 275.978 -0.814279 -3.5221 0
M  V30 2766 O 275.699 -2.18139 -3.7993 0
M  V30 2767 C 277.2 -0.483121 -4.4066 0
M  V30 2768 H 274.42 -0.223896 -0.632544 0
M  V30 2769 H 276.964 -1.25091 -1.61779 0
M  V30 2770 H 275.119 -0.20213 -3.86872 0
M  V30 2771 H 275.533 -2.235 -4.74498 0
M  V30 2772 H 277.007 -0.689298 -5.47679 0
M  V30 2773 H 277.484 0.581546 -4.35333 0
M  V30 2774 H 278.09 -1.07362 -4.11526 0
M  V30 2775 N 276.405 1.4127 -0.698611 0
M  V30 2776 C 277.651 2.01478 -0.231207 0
M  V30 2777 C 277.984 1.55215 1.16713 0
M  V30 2778 O 277.259 0.764672 1.78838 0
M  V30 2779 C 277.542 3.58912 -0.292281 0
M  V30 2780 C 277.395 4.15293 -1.72778 0
M  V30 2781 C 278.714 4.38736 0.346194 0
M  V30 2782 H 275.833 0.732025 -0.0854878 0
M  V30 2783 H 278.475 1.67977 -0.887906 0
M  V30 2784 H 276.625 3.87582 0.26686 0
M  V30 2785 H 278.297 3.97486 -2.341 0
M  V30 2786 H 276.54 3.7022 -2.26096 0
M  V30 2787 H 277.211 5.24452 -1.72202 0
M  V30 2788 H 279.687 4.15897 -0.130035 0
M  V30 2789 H 278.563 5.48221 0.272932 0
M  V30 2790 H 278.824 4.18425 1.42734 0
M  V30 2791 N 277.883 0.443576 1.51229 0
M  V30 2792 C 279.132 -0.122332 2.01329 0
M  V30 2793 C 279.445 -1.43237 1.33201 0
M  V30 2794 O 280.651 -2.0816 1.74304 0
M  V30 2795 C 279.107 -0.268551 3.58897 0
M  V30 2796 C 278.715 1.03142 4.35965 0
M  V30 2797 C 280.459 -0.787894 4.17124 0
M  V30 2798 C 278.366 0.850504 5.85252 0
M  V30 2799 H 277.296 -0.0494929 0.752374 0
M  V30 2800 H 279.947 0.574289 1.74282 0
M  V30 2801 H 278.329 -1.02832 3.82415 0
M  V30 2802 H 279.503 1.80001 4.24189 0
M  V30 2803 H 277.818 1.47977 3.89219 0
M  V30 2804 H 280.415 -0.939841 5.26375 0
M  V30 2805 H 280.758 -1.77201 3.76703 0
M  V30 2806 H 281.291 -0.0862669 3.97706 0
M  V30 2807 H 278.03 1.80718 6.30096 0
M  V30 2808 H 277.55 0.121825 5.99676 0
M  V30 2809 H 279.229 0.506163 6.45017 0
M  V30 2810 N 279.361 -1.56624 0.175154 0
M  V30 2811 C 280.777 -1.58571 -0.180966 0
M  V30 2812 C 280.977 -1.19065 -1.6256 0
M  V30 2813 O 280.033 -0.904044 -2.35761 0
M  V30 2814 C 281.346 -3.00522 0.103326 0
M  V30 2815 C 282.894 -3.12972 0.0418426 0
M  V30 2816 C 283.369 -4.57022 0.299175 0
M  V30 2817 N 284.86 -4.62541 0.247086 0
M  V30 2818 C 285.595 -5.71857 0.420318 0
M  V30 2819 N 285.091 -6.89717 0.652816 0
M  V30 2820 N 286.884 -5.60972 0.355957 0
M  V30 2821 H 279.035 -1.80589 1.11809 0
M  V30 2822 H 281.298 -0.837178 0.444788 0
M  V30 2823 H 281.004 -3.33916 1.10422 0
M  V30 2824 H 280.878 -3.72344 -0.603299 0
M  V30 2825 H 283.265 -2.79403 -0.949636 0
M  V30 2826 H 283.346 -2.43578 0.781238 0
M  V30 2827 H 282.99 -4.913 1.28788 0
M  V30 2828 H 282.92 -5.24579 -0.460876 0
M  V30 2829 H 285.411 -3.77829 0.0731895 0
M  V30 2830 H 285.724 -7.68911 0.774347 0
M  V30 2831 H 284.069 -6.91572 0.689476 0
M  V30 2832 H 287.26 -4.67773 0.174882 0
M  V30 2833 H 287.433 -6.46111 0.494388 0
M  V30 2834 N 280.839 0.0985539 -1.57292 0
M  V30 2835 C 282.088 0.801358 -1.85098 0
M  V30 2836 C 282.401 1.80066 -0.763902 0
M  V30 2837 O 283.607 2.55112 -0.928981 0
M  V30 2838 C 282.063 1.47599 -3.28242 0
M  V30 2839 C 281.671 0.516624 -4.45011 0
M  V30 2840 C 283.415 2.16272 -3.65276 0
M  V30 2841 C 281.322 1.19564 -5.79188 0
M  V30 2842 H 280.252 0.303022 -0.69043 0
M  V30 2843 H 282.903 0.0542623 -1.8342 0
M  V30 2844 H 281.285 2.27042 -3.2445 0
M  V30 2845 H 282.459 -0.246065 -4.60143 0
M  V30 2846 H 280.774 -0.064227 -4.1635 0
M  V30 2847 H 283.371 2.67802 -4.62803 0
M  V30 2848 H 283.714 2.95009 -2.93727 0
M  V30 2849 H 284.247 1.43693 -3.70941 0
M  V30 2850 H 280.986 0.449157 -6.53959 0
M  V30 2851 H 280.506 1.92984 -5.67906 0
M  V30 2852 H 282.185 1.7231 -6.23633 0
M  V30 2853 N 282.317 1.53212 0.369288 0
M  V30 2854 C 283.264 1.79388 1.45219 0
M  V30 2855 C 284.234 0.638059 1.53356 0
M  V30 2856 O 285.419 0.879852 1.69302 0
M  V30 2857 C 282.559 1.98623 2.82211 0
M  V30 2858 C 281.672 3.26337 2.8307 0
M  V30 2859 C 280.807 3.35779 4.11614 0
M  V30 2860 C 279.846 4.5754 4.06601 0
M  V30 2861 N 278.983 4.64155 5.26787 0
M  V30 2862 H 283.823 2.71794 1.22198 0
M  V30 2863 H 281.36 1.34642 0.592444 0
M  V30 2864 H 283.318 2.07761 3.61789 0
M  V30 2865 H 281.948 1.09558 3.03639 0
M  V30 2866 H 281 3.26171 1.95747 0
M  V30 2867 H 282.312 4.15988 2.75237 0
M  V30 2868 H 281.466 3.44208 4.99606 0
M  V30 2869 H 280.205 2.44137 4.22195 0
M  V30 2870 H 279.21 4.49215 3.16996 0
M  V30 2871 H 280.435 5.50519 3.97625 0
M  V30 2872 H 278.381 3.75413 5.3796 0
M  V30 2873 H 278.298 5.47706 5.21109 0
M  V30 2874 H 279.566 4.76863 6.16621 0
M  V30 2875 N 283.795 -0.628877 1.44509 0
M  V30 2876 C 285.043 -1.38565 1.4712 0
M  V30 2877 C 285.364 -1.94712 0.105899 0
M  V30 2878 O 284.634 -1.75912 -0.862079 0
M  V30 2879 H 283.214 -0.514333 0.541729 0
M  V30 2880 H 285.876 -0.740018 1.80305 0
M  V30 2881 H 284.972 -2.21583 2.19789 0
M  V30 2882 N 285.273 -1.31445 -0.869486 0
M  V30 2883 C 286.55 -1.11795 -1.60503 0
M  V30 2884 C 286.93 0.327168 -2.08549 0
M  V30 2885 O 286.278 1.32135 -1.8642 0
M  V30 2886 C 286.488 -2.13258 -2.76265 0
M  V30 2887 C 287.836 -2.45805 -3.46215 0
M  V30 2888 O 288.86 -2.11688 -2.86473 0
M  V30 2889 O 287.719 -3.04228 -4.5399 0
M  V30 2890 H 284.813 -0.430421 -0.706163 0
M  V30 2891 H 287.359 -1.42925 -0.914907 0
M  V30 2892 H 286.131 -3.10461 -2.3818 0
M  V30 2893 H 285.754 -1.83035 -3.52964 0
M  V30 2894 N 286.751 1.08385 -1.14413 0
M  V30 2895 C 287.681 2.17321 -0.854044 0
M  V30 2896 C 288.662 1.69024 0.191049 0
M  V30 2897 O 289.847 1.94141 0.0476779 0
M  V30 2898 C 286.977 3.45719 -0.330983 0
M  V30 2899 C 285.931 4.07409 -1.31155 0
M  V30 2900 C 285.257 5.30762 -0.64778 0
M  V30 2901 C 286.557 4.48665 -2.67388 0
M  V30 2902 H 288.251 2.41845 -1.76498 0
M  V30 2903 H 285.797 1.16233 -0.850051 0
M  V30 2904 H 287.75 4.21241 -0.115645 0
M  V30 2905 H 286.474 3.2075 0.615381 0
M  V30 2906 H 285.133 3.33919 -1.51306 0
M  V30 2907 H 284.781 5.02078 0.304398 0
M  V30 2908 H 284.481 5.72992 -1.30207 0
M  V30 2909 H 286.005 6.08998 -0.441972 0
M  V30 2910 H 287.419 5.15364 -2.51143 0
M  V30 2911 H 285.816 5.01814 -3.29093 0
M  V30 2912 H 286.886 3.60543 -3.24248 0
M  V30 2913 N 288.23 0.939286 1.26551 0
M  V30 2914 C 289.476 0.586715 1.94128 0
M  V30 2915 C 289.809 -0.8717 1.73537 0
M  V30 2916 O 289.084 -1.62339 1.07127 0
M  V30 2917 C 289.367 0.927497 3.4795 0
M  V30 2918 C 289.22 2.44052 3.77834 0
M  V30 2919 C 290.539 0.441569 4.37879 0
M  V30 2920 H 287.658 0.21463 0.705055 0
M  V30 2921 H 290.3 1.17316 1.49455 0
M  V30 2922 H 288.45 0.428431 3.8613 0
M  V30 2923 H 290.122 3.01216 3.4938 0
M  V30 2924 H 288.365 2.8848 3.23978 0
M  V30 2925 H 289.036 2.62947 4.85348 0
M  V30 2926 H 291.512 0.869448 4.06915 0
M  V30 2927 H 290.388 0.708856 5.44304 0
M  V30 2928 H 290.649 -0.658467 4.37169 0
M  V30 2929 N 289.708 -1.40897 0.706093 0
M  V30 2930 C 290.933 -2.05895 0.249435 0
M  V30 2931 C 291.358 -1.52823 -1.09666 0
M  V30 2932 O 290.716 -0.659589 -1.68876 0
M  V30 2933 C 290.764 -3.59872 0.22904 0
M  V30 2934 O 289.868 -4.04708 -0.792784 0
M  V30 2935 H 289.209 -0.653206 0.119241 0
M  V30 2936 H 291.739 -1.80471 0.96391 0
M  V30 2937 H 291.749 -4.07951 0.0634791 0
M  V30 2938 H 290.424 -3.97866 1.21141 0
M  V30 2939 H 289.001 -3.68111 -0.59572 0
M  V30 2940 N 291.186 -0.45159 -1.50991 0
M  V30 2941 C 292.133 0.352625 -2.2809 0
M  V30 2942 C 293.103 1.0044 -1.32291 0
M  V30 2943 O 294.288 1.02058 -1.6121 0
M  V30 2944 C 291.428 1.43983 -3.13629 0
M  V30 2945 C 290.541 0.804772 -4.24438 0
M  V30 2946 C 289.676 1.86822 -4.97263 0
M  V30 2947 C 288.715 1.21236 -5.99973 0
M  V30 2948 N 287.852 2.2178 -6.66152 0
M  V30 2949 H 292.692 -0.311186 -2.96371 0
M  V30 2950 H 290.229 -0.165308 -1.46168 0
M  V30 2951 H 292.187 2.08161 -3.61559 0
M  V30 2952 H 290.817 2.07307 -2.47434 0
M  V30 2953 H 289.869 0.0509129 -3.80366 0
M  V30 2954 H 291.181 0.286076 -4.97979 0
M  V30 2955 H 290.335 2.58628 -5.48813 0
M  V30 2956 H 289.074 2.42068 -4.23385 0
M  V30 2957 H 288.079 0.479828 -5.47702 0
M  V30 2958 H 289.304 0.667051 -6.75816 0
M  V30 2959 H 287.25 2.76079 -5.95077 0
M  V30 2960 H 287.167 1.74841 -7.35504 0
M  V30 2961 H 288.435 2.93026 -7.22327 0
M  V30 2962 N 292.664 1.56529 -0.183458 0
M  V30 2963 C 294.075 1.83739 0.331177 0
M  V30 2964 C 294.426 1.10373 1.62211 0
M  V30 2965 O 293.551 0.36071 2.13373 0
M  V30 2966 C 294.146 3.33306 0.607646 0
M  V30 2967 C 292.705 3.60969 1.06668 0
M  V30 2968 C 291.852 2.77086 0.109029 0
M  V30 2969 H 294.803 1.53379 -0.407484 0
M  V30 2970 H 294.824 3.51444 1.45832 0
M  V30 2971 H 294.336 3.86677 -0.332086 0
M  V30 2972 H 292.437 3.13021 2.0211 0
M  V30 2973 H 292.55 4.69231 0.967447 0
M  V30 2974 H 290.914 2.47319 0.608714 0
M  V30 2975 H 291.697 3.33241 -0.82494 0
M  V30 2976 N 294.142 -0.090211 1.57342 0
M  V30 2977 C 295.372 -0.805055 1.90269 0
M  V30 2978 C 295.78 -1.72561 0.775842 0
M  V30 2979 O 295.123 -1.81839 -0.260843 0
M  V30 2980 C 295.185 -1.66734 3.18497 0
M  V30 2981 C 294.849 -0.918092 4.47683 0
M  V30 2982 C 295.846 -0.245674 5.19319 0
M  V30 2983 C 293.531 -0.890724 4.94339 0
M  V30 2984 C 295.525 0.444088 6.35851 0
M  V30 2985 C 293.212 -0.197179 6.10782 0
M  V30 2986 C 294.21 0.469044 6.81388 0
M  V30 2987 O 293.898 1.15146 7.95611 0
M  V30 2988 H 293.63 -0.235143 0.633785 0
M  V30 2989 H 296.184 -0.0703805 2.05279 0
M  V30 2990 H 294.414 -2.44437 2.99646 0
M  V30 2991 H 296.103 -2.25919 3.37217 0
M  V30 2992 H 296.869 -0.258246 4.84312 0
M  V30 2993 H 292.748 -1.39873 4.39268 0
M  V30 2994 H 296.292 0.964667 6.90898 0
M  V30 2995 H 292.189 -0.18247 6.45242 0
M  V30 2996 H 292.957 1.05885 8.11622 0
M  V30 2997 N 295.62 -1.53406 -0.361157 0
M  V30 2998 C 296.869 -1.69022 -1.10066 0
M  V30 2999 C 297.182 -0.450838 -1.90333 0
M  V30 3000 O 298.388 -0.487617 -2.67085 0
M  V30 3001 C 296.844 -2.98812 -2.00598 0
M  V30 3002 C 296.452 -4.30027 -1.25621 0
M  V30 3003 C 298.196 -3.23795 -2.74513 0
M  V30 3004 C 296.103 -5.50903 -2.1508 0
M  V30 3005 H 295.033 -0.629776 -0.414606 0
M  V30 3006 H 297.684 -1.79907 -0.361348 0
M  V30 3007 H 296.066 -2.8174 -2.78278 0
M  V30 3008 H 297.24 -4.57745 -0.529739 0
M  V30 3009 H 295.555 -4.11522 -0.635496 0
M  V30 3010 H 298.152 -4.11289 -3.41681 0
M  V30 3011 H 298.495 -2.40045 -3.40123 0
M  V30 3012 H 299.028 -3.41561 -2.03914 0
M  V30 3013 H 295.767 -6.37143 -1.54041 0
M  V30 3014 H 295.287 -5.27459 -2.85565 0
M  V30 3015 H 296.966 -5.85865 -2.74538 0
M  V30 3016 N 297.098 0.621204 -1.44841 0
M  V30 3017 C 298.375 1.38 -1.38619 0
M  V30 3018 C 298.755 2.11041 -0.0498935 0
M  V30 3019 O 298.103 2.06992 0.967816 0
M  V30 3020 C 298.313 2.33817 -2.59096 0
M  V30 3021 C 299.661 2.96844 -3.03593 0
M  V30 3022 O 300.685 2.44141 -2.59371 0
M  V30 3023 O 299.544 3.92476 -3.80296 0
M  V30 3024 H 296.638 0.61811 -0.549426 0
M  V30 3025 H 299.184 0.645429 -1.56947 0
M  V30 3026 H 297.956 1.79012 -3.47952 0
M  V30 3027 H 297.579 3.14676 -2.43032 0
M  V30 3028 N 298.576 1.31904 0.862503 0
M  V30 3029 C 299.825 1.21373 1.61094 0
M  V30 3030 C 300.138 -0.22504 1.94301 0
M  V30 3031 O 301.344 -0.452121 2.67709 0
M  V30 3032 C 299.8 2.12525 2.9045 0
M  V30 3033 C 299.408 3.61441 2.64697 0
M  V30 3034 C 301.152 2.10813 3.68454 0
M  V30 3035 C 299.059 4.44578 3.90006 0
M  V30 3036 H 297.989 0.450705 0.604468 0
M  V30 3037 H 300.64 1.56811 0.953027 0
M  V30 3038 H 299.022 1.69994 3.57656 0
M  V30 3039 H 300.196 4.12264 2.05851 0
M  V30 3040 H 298.511 3.65205 2.00036 0
M  V30 3041 H 301.108 2.70167 4.61426 0
M  V30 3042 H 301.451 1.09713 4.01583 0
M  V30 3043 H 301.984 2.51583 3.08141 0
M  V30 3044 H 298.723 5.46461 3.62023 0
M  V30 3045 H 298.243 3.98508 4.48276 0
M  V30 3046 H 299.922 4.57176 4.5782 0
M  V30 3047 N 300.054 -1.07777 1.14986 0
M  V30 3048 C 301.282 -1.84018 0.945773 0
M  V30 3049 C 301.697 -1.81897 -0.505863 0
M  V30 3050 O 301.054 -1.22726 -1.35072 0
M  V30 3051 C 301.105 -3.31287 1.44677 0
M  V30 3052 O 300.826 -3.33449 2.84154 0
M  V30 3053 C 302.327 -4.24311 1.28355 0
M  V30 3054 H 299.547 -0.580716 0.336169 0
M  V30 3055 H 302.091 -1.36077 1.52654 0
M  V30 3056 H 300.246 -3.76594 0.908625 0
M  V30 3057 H 300.66 -4.25427 3.06777 0
M  V30 3058 H 302.134 -5.2573 1.68261 0
M  V30 3059 H 302.611 -4.38612 0.227184 0
M  V30 3060 H 303.217 -3.84836 1.81056 0
M  V30 3061 N 301.532 -0.945985 -1.26051 0
M  V30 3062 C 302.462 -0.477172 -2.28572 0
M  V30 3063 C 303.443 0.472032 -1.63419 0
M  V30 3064 O 304.628 0.372853 -1.90587 0
M  V30 3065 C 301.758 0.253975 -3.4637 0
M  V30 3066 C 300.712 -0.609135 -4.23643 0
M  V30 3067 C 300.038 0.252252 -5.34105 0
M  V30 3068 C 301.338 -1.8829 -4.8718 0
M  V30 3069 H 303.032 -1.33402 -2.68038 0
M  V30 3070 H 300.578 -0.642904 -1.28852 0
M  V30 3071 H 302.531 0.593016 -4.17207 0
M  V30 3072 H 301.255 1.145 -3.05871 0
M  V30 3073 H 299.914 -0.931138 -3.54578 0
M  V30 3074 H 299.562 1.14278 -4.89846 0
M  V30 3075 H 299.262 -0.32188 -5.86718 0
M  V30 3076 H 300.786 0.586454 -6.07777 0
M  V30 3077 H 302.2 -1.61081 -5.50205 0
M  V30 3078 H 300.597 -2.40199 -5.49931 0
M  V30 3079 H 301.667 -2.59134 -4.09851 0
M  V30 3080 N 303.011 1.40521 -0.713556 0
M  V30 3081 C 303.959 2.32549 -0.0485227 0
M  V30 3082 C 304.953 1.51931 0.74922 0
M  V30 3083 O 306.159 1.67745 0.652816 0
M  V30 3084 H 302.534 0.751994 0.00311138 0
M  V30 3085 H 304.505 2.86291 -0.841443 0
M  V30 3086 C 303.254 3.36879 0.860687 0
M  V30 3087 H 302.577 3.98978 0.256246 0
M  V30 3088 H 304.017 4.03772 1.294 0
M  V30 3089 C 302.476 2.72197 1.9852 0
M  V30 3090 O 303.006 2.5837 3.07584 0
M  V30 3091 N 301.212 2.30612 1.76823 0
M  V30 3092 H 300.759 2.42059 0.881217 0
M  V30 3093 H 300.717 1.87672 2.52243 0
M  V30 3094 N 304.489 0.459591 1.5075 0
M  V30 3095 C 305.419 -0.330644 2.31147 0
M  V30 3096 C 306.4 -1.00087 1.37538 0
M  V30 3097 O 307.585 -1.00025 1.66459 0
M  V30 3098 C 304.715 -1.41958 3.16962 0
M  V30 3099 C 303.669 -0.871608 4.19031 0
M  V30 3100 C 302.995 -2.05797 4.9351 0
M  V30 3101 C 304.295 0.109251 5.22186 0
M  V30 3102 H 305.989 0.340336 2.97459 0
M  V30 3103 H 303.535 0.165119 1.4305 0
M  V30 3104 H 305.488 -1.9798 3.71997 0
M  V30 3105 H 304.212 -2.11917 2.48513 0
M  V30 3106 H 302.871 -0.333442 3.6508 0
M  V30 3107 H 302.519 -2.74427 4.21544 0
M  V30 3108 H 302.219 -1.6976 5.62544 0
M  V30 3109 H 303.743 -2.62331 5.51375 0
M  V30 3110 H 305.157 -0.361405 5.7216 0
M  V30 3111 H 303.554 0.383316 5.98875 0
M  V30 3112 H 304.624 1.03887 4.73641 0
M  V30 3113 N 305.967 -1.56429 0.191757 0
M  V30 3114 C 306.9 -2.14829 -0.76967 0
M  V30 3115 C 307.878 -1.08405 -1.2119 0
M  V30 3116 O 309.062 -1.36498 -1.30002 0
M  V30 3117 C 306.189 -2.70446 -2.03903 0
M  V30 3118 C 305.235 -3.89428 -1.7392 0
M  V30 3119 S 306.068 -5.28048 -0.890265 0
M  V30 3120 C 307.224 -5.87085 -2.16984 0
M  V30 3121 H 307.457 -2.96042 -0.273204 0
M  V30 3122 H 304.99 -1.54383 -0.0231975 0
M  V30 3123 H 306.948 -3.03134 -2.76803 0
M  V30 3124 H 305.609 -1.89281 -2.50662 0
M  V30 3125 H 304.802 -4.26742 -2.68155 0
M  V30 3126 H 304.404 -3.57732 -1.09103 0
M  V30 3127 H 306.696 -6.01244 -3.12269 0
M  V30 3128 H 307.639 -6.83747 -1.84108 0
M  V30 3129 H 308.047 -5.15663 -2.29678 0
M  V30 3130 N 307.445 0.0818655 -1.57387 0
M  V30 3131 C 308.392 1.09834 -2.0299 0
M  V30 3132 C 309.362 1.39043 -0.908639 0
M  V30 3133 O 310.547 1.50282 -1.17559 0
M  V30 3134 C 307.687 2.40971 -2.47037 0
M  V30 3135 C 306.8 2.18379 -3.7274 0
M  V30 3136 C 305.935 3.43008 -4.0561 0
M  V30 3137 C 304.974 3.15736 -5.24383 0
M  V30 3138 N 304.111 4.32667 -5.52941 0
M  V30 3139 H 308.951 0.702472 -2.89602 0
M  V30 3140 H 306.488 0.33531 -1.43227 0
M  V30 3141 H 308.446 3.1752 -2.70623 0
M  V30 3142 H 307.076 2.78379 -1.63417 0
M  V30 3143 H 306.128 1.32569 -3.56552 0
M  V30 3144 H 307.44 1.94227 -4.59431 0
M  V30 3145 H 306.594 4.27958 -4.30043 0
M  V30 3146 H 305.333 3.70225 -3.17466 0
M  V30 3147 H 304.338 2.2918 -4.99757 0
M  V30 3148 H 305.563 2.8985 -6.14136 0
M  V30 3149 H 303.509 4.59935 -4.67756 0
M  V30 3150 H 303.426 4.11753 -6.34031 0
M  V30 3151 H 304.694 5.18644 -5.81918 0
M  V30 3152 N 308.923 1.53595 0.353017 0
M  V30 3153 C 310.151 1.74311 1.1146 0
M  V30 3154 C 310.566 0.477854 1.82653 0
M  V30 3155 O 309.923 -0.549977 1.74016 0
M  V30 3156 C 309.974 2.91694 2.13534 0
M  V30 3157 O 309.695 4.13325 1.45238 0
M  V30 3158 C 311.196 3.24384 3.02142 0
M  V30 3159 H 308.416 0.582669 0.332773 0
M  V30 3160 H 310.96 2.00386 0.408107 0
M  V30 3161 H 309.115 2.67977 2.79763 0
M  V30 3162 H 309.529 4.79148 2.13349 0
M  V30 3163 H 311.003 4.09893 3.69718 0
M  V30 3164 H 311.48 2.40282 3.67643 0
M  V30 3165 H 312.086 3.50073 2.41514 0
M  V30 3166 N 310.401 -0.613514 1.45168 0
M  V30 3167 C 311.648 -1.37268 1.48875 0
M  V30 3168 C 311.976 -1.94077 0.128161 0
M  V30 3169 O 311.231 -1.75178 -0.872416 0
M  V30 3170 C 311.53 -2.54347 2.51083 0
M  V30 3171 C 311.196 -2.1572 3.95949 0
M  V30 3172 C 309.858 -2.04899 4.35396 0
M  V30 3173 C 312.21 -1.85485 4.87078 0
M  V30 3174 C 309.538 -1.62057 5.63875 0
M  V30 3175 C 311.89 -1.4413 6.15962 0
M  V30 3176 C 310.554 -1.31863 6.54346 0
M  V30 3177 H 309.824 -0.502299 0.544773 0
M  V30 3178 H 312.471 -0.694021 1.78481 0
M  V30 3179 H 310.776 -3.27524 2.15024 0
M  V30 3180 H 312.473 -3.12577 2.51191 0
M  V30 3181 H 309.063 -2.25066 3.64751 0
M  V30 3182 H 313.247 -1.92745 4.57343 0
M  V30 3183 H 308.503 -1.51177 5.92415 0
M  V30 3184 H 312.677 -1.19778 6.86022 0
M  V30 3185 H 310.304 -0.984392 7.538 0
M  V30 3186 N 311.879 -1.3236 -0.855495 0
M  V30 3187 C 313.127 -1.22629 -1.60644 0
M  V30 3188 C 313.448 0.212136 -1.93843 0
M  V30 3189 O 312.718 1.13666 -1.59552 0
M  V30 3190 H 311.298 -0.450882 -0.595579 0
M  V30 3191 H 313.96 -1.65871 -1.02337 0
M  V30 3192 H 313.056 -1.80832 -2.54374 0
M  V30 3193 N 313.357 1.07166 -1.15556 0
M  V30 3194 C 314.603 1.80065 -0.932984 0
M  V30 3195 C 314.936 1.86586 0.53845 0
M  V30 3196 O 314.211 1.35098 1.39924 0
M  V30 3197 C 314.494 3.25022 -1.55025 0
M  V30 3198 C 314.347 3.26634 -3.09242 0
M  V30 3199 C 315.666 4.22341 -1.2376 0
M  V30 3200 H 312.785 0.653697 -0.340366 0
M  V30 3201 H 315.427 1.25389 -1.4275 0
M  V30 3202 H 313.577 3.71712 -1.12972 0
M  V30 3203 H 315.249 2.88173 -3.60214 0
M  V30 3204 H 313.492 2.65539 -3.43033 0
M  V30 3205 H 314.163 4.28854 -3.47546 0
M  V30 3206 H 316.639 3.8405 -1.60139 0
M  V30 3207 H 315.515 5.22053 -1.69564 0
M  V30 3208 H 315.776 4.41828 -0.154938 0
M  V30 3209 N 314.835 0.952656 1.25548 0
M  V30 3210 C 315.745 0.47782 2.29682 0
M  V30 3211 C 316.761 -0.453859 1.67977 0
M  V30 3212 O 317.937 -0.330587 1.98668 0
M  V30 3213 C 315.002 -0.238655 3.45878 0
M  V30 3214 C 314.063 0.730994 4.23031 0
M  V30 3215 C 313.296 0.0486165 5.33678 0
M  V30 3216 O 313.519 -1.16612 5.58353 0
M  V30 3217 O 312.453 0.733152 5.97418 0
M  V30 3218 H 316.279 1.34312 2.72386 0
M  V30 3219 H 313.864 0.719026 1.30959 0
M  V30 3220 H 315.746 -0.641774 4.16484 0
M  V30 3221 H 314.421 -1.07916 3.05181 0
M  V30 3222 H 313.328 1.18428 3.5486 0
M  V30 3223 H 314.661 1.53946 4.67506 0
M  V30 3224 N 316.313 -1.40141 0.720998 0
M  V30 3225 C 317.562 -2.0002 0.259804 0
M  V30 3226 C 317.875 -1.57839 -1.15526 0
M  V30 3227 O 319.081 -2.10455 -1.71525 0
M  V30 3228 C 317.537 -3.57516 0.413566 0
M  V30 3229 C 317.145 -4.08667 1.83562 0
M  V30 3230 C 318.889 -4.24498 0.0134387 0
M  V30 3231 C 316.796 -5.58686 1.93968 0
M  V30 3232 H 315.726 -0.748195 0.0933806 0
M  V30 3233 H 318.377 -1.60313 0.892866 0
M  V30 3234 H 316.759 -3.9495 -0.288169 0
M  V30 3235 H 317.933 -3.82598 2.56817 0
M  V30 3236 H 316.248 -3.543 2.1877 0
M  V30 3237 H 318.845 -5.34654 0.0703954 0
M  V30 3238 H 319.188 -4.03375 -1.02927 0
M  V30 3239 H 319.721 -3.92188 0.665815 0
M  V30 3240 H 316.46 -5.8467 2.96379 0
M  V30 3241 H 315.98 -5.86602 1.25131 0
M  V30 3242 H 317.659 -6.23875 1.71431 0
M  V30 3243 N 317.792 -0.46758 -1.50504 0
M  V30 3244 C 318.702 0.33382 -2.32213 0
M  V30 3245 C 319.718 0.999323 -1.42441 0
M  V30 3246 O 320.894 0.988068 -1.75497 0
M  V30 3247 C 317.959 1.4035 -3.17022 0
M  V30 3248 C 317.02 0.754961 -4.2261 0
M  V30 3249 C 316.253 1.77367 -5.03365 0
M  V30 3250 O 316.476 2.99976 -4.8515 0
M  V30 3251 O 315.41 1.34744 -5.86624 0
M  V30 3252 H 319.236 -0.334067 -3.01857 0
M  V30 3253 H 316.821 -0.229496 -1.47627 0
M  V30 3254 H 318.703 2.02318 -3.69656 0
M  V30 3255 H 317.378 2.05492 -2.5011 0
M  V30 3256 H 316.285 0.0964244 -3.73976 0
M  V30 3257 H 317.618 0.146545 -4.91982 0
M  V30 3258 N 319.27 1.56325 -0.20005 0
M  V30 3259 C 320.218 2.20666 0.735482 0
M  V30 3260 C 321.212 1.17934 1.21605 0
M  V30 3261 O 322.418 1.36068 1.17837 0
M  V30 3262 H 318.793 0.70725 0.255542 0
M  V30 3263 H 320.764 2.9792 0.169166 0
M  V30 3264 C 319.513 2.88391 1.94232 0
M  V30 3265 H 318.836 3.67185 1.58161 0
M  V30 3266 H 320.276 3.3684 2.57517 0
M  V30 3267 C 318.735 1.89692 2.78421 0
M  V30 3268 O 319.265 1.40032 3.76502 0
M  V30 3269 N 317.471 1.57813 2.44015 0
M  V30 3270 H 317.018 1.9839 1.64314 0
M  V30 3271 H 316.976 0.920325 3.00628 0
M  V30 3272 N 320.748 -0.0735177 1.57428 0
M  V30 3273 C 321.68 -1.11423 2.00294 0
M  V30 3274 C 322.693 -1.35084 0.908637 0
M  V30 3275 O 323.882 -1.33355 1.18654 0
M  V30 3276 C 320.982 -2.46548 2.32523 0
M  V30 3277 C 320.155 -2.42867 3.63778 0
M  V30 3278 C 319.214 -3.60087 3.83697 0
M  V30 3279 O 318.24 -3.41595 4.55304 0
M  V30 3280 N 319.442 -4.80372 3.25919 0
M  V30 3281 H 322.207 -0.749206 2.90184 0
M  V30 3282 H 319.768 -0.262195 1.59763 0
M  V30 3283 H 321.76 -3.23607 2.43024 0
M  V30 3284 H 320.33 -2.75059 1.48531 0
M  V30 3285 H 319.55 -1.51206 3.64047 0
M  V30 3286 H 320.838 -2.37506 4.49965 0
M  V30 3287 H 320.236 -4.983 2.67795 0
M  V30 3288 H 318.793 -5.54948 3.41871 0
M  V30 3289 N 322.226 -1.5378 -0.344866 0
M  V30 3290 C 323.176 -1.78057 -1.42407 0
M  V30 3291 C 324.16 -0.635732 -1.47808 0
M  V30 3292 O 325.352 -0.89508 -1.527 0
M  V30 3293 C 322.481 -1.99242 -2.79566 0
M  V30 3294 C 321.567 -3.19787 -2.78562 0
M  V30 3295 N 321.958 -4.41284 -2.47189 0
M  V30 3296 C 320.256 -3.2093 -3.0971 0
M  V30 3297 C 320.957 -5.23128 -2.54385 0
M  V30 3298 N 319.933 -4.59813 -2.89953 0
M  V30 3299 H 323.735 -2.69588 -1.17046 0
M  V30 3300 H 321.249 -1.52687 -0.553217 0
M  V30 3301 H 323.246 -2.14768 -3.57324 0
M  V30 3302 H 321.906 -1.08953 -3.05875 0
M  V30 3303 H 322.917 -4.68657 -2.20411 0
M  V30 3304 H 319.594 -2.40603 -3.41199 0
M  V30 3305 H 320.984 -6.30096 -2.333 0
M  V30 3306 N 323.704 0.605807 -1.45491 0
M  V30 3307 C 324.934 1.38934 -1.52908 0
M  V30 3308 C 325.342 1.88513 -0.161086 0
M  V30 3309 O 324.685 1.62962 0.847891 0
M  V30 3310 C 324.747 2.62737 -2.45376 0
M  V30 3311 C 324.411 2.34785 -3.92078 0
M  V30 3312 C 325.408 1.95038 -4.8193 0
M  V30 3313 C 323.093 2.47642 -4.37011 0
M  V30 3314 C 325.087 1.68511 -6.14722 0
M  V30 3315 C 322.774 2.20728 -5.69844 0
M  V30 3316 C 323.772 1.81225 -6.58519 0
M  V30 3317 O 323.46 1.54627 -7.88889 0
M  V30 3318 H 323.192 0.431629 -0.520262 0
M  V30 3319 H 325.746 0.74573 -1.91384 0
M  V30 3320 H 323.976 3.29824 -2.01874 0
M  V30 3321 H 325.665 3.24783 -2.43456 0
M  V30 3322 H 326.431 1.84639 -4.48479 0
M  V30 3323 H 322.31 2.77356 -3.68232 0
M  V30 3324 H 325.854 1.37602 -6.83894 0
M  V30 3325 H 321.751 2.30744 -6.02849 0
M  V30 3326 H 322.519 1.68665 -8.00933 0
M  V30 3327 N 325.182 1.32811 0.848464 0
M  V30 3328 C 326.114 1.18095 1.96433 0
M  V30 3329 C 327.127 0.114354 1.62398 0
M  V30 3330 O 328.316 0.363892 1.74751 0
M  V30 3331 C 325.416 0.786798 3.2964 0
M  V30 3332 C 324.589 1.943 3.91875 0
M  V30 3333 C 323.648 1.53138 5.03423 0
M  V30 3334 O 322.674 2.24432 5.23086 0
M  V30 3335 N 323.876 0.430915 5.78898 0
M  V30 3336 H 326.641 2.14218 2.09597 0
M  V30 3337 H 324.202 1.2543 1.02367 0
M  V30 3338 H 326.194 0.493715 4.01677 0
M  V30 3339 H 324.764 -0.0834541 3.12489 0
M  V30 3340 H 323.984 2.40224 3.12547 0
M  V30 3341 H 325.272 2.71689 4.30189 0
M  V30 3342 H 324.67 -0.162333 5.65467 0
M  V30 3343 H 323.227 0.197466 6.51501 0
M  V30 3344 N 326.66 -1.06551 1.16123 0
M  V30 3345 C 327.592 -2.13908 0.823171 0
M  V30 3346 C 328.605 -1.61926 -0.16843 0
M  V30 3347 O 329.794 -1.78412 0.055962 0
M  V30 3348 C 326.894 -3.38283 0.204424 0
M  V30 3349 C 326.067 -4.19589 1.23548 0
M  V30 3350 C 325.126 -5.2233 0.637011 0
M  V30 3351 O 324.152 -5.54034 1.30516 0
M  V30 3352 N 325.354 -5.77621 -0.577474 0
M  V30 3353 H 328.119 -2.43508 1.74711 0
M  V30 3354 H 325.68 -1.2253 1.05821 0
M  V30 3355 H 327.672 -4.0416 -0.208909 0
M  V30 3356 H 326.242 -3.06329 -0.623012 0
M  V30 3357 H 325.462 -3.49406 1.82507 0
M  V30 3358 H 326.75 -4.70718 1.93137 0
M  V30 3359 H 326.148 -5.54125 -1.13853 0
M  V30 3360 H 324.705 -6.45087 -0.933053 0
M  V30 3361 N 328.138 -0.959301 -1.25041 0
M  V30 3362 C 329.385 -0.616611 -1.92884 0
M  V30 3363 C 329.713 0.847036 -1.75087 0
M  V30 3364 O 328.968 1.62374 -1.09239 0
M  V30 3365 C 329.267 -0.927136 -3.45165 0
M  V30 3366 C 328.933 -2.37757 -3.83122 0
M  V30 3367 C 327.595 -2.77402 -3.93194 0
M  V30 3368 C 329.947 -3.31929 -4.01836 0
M  V30 3369 C 327.275 -4.10277 -4.19392 0
M  V30 3370 C 329.627 -4.64423 -4.29528 0
M  V30 3371 C 328.291 -5.03857 -4.37818 0
M  V30 3372 H 327.561 -0.225634 -0.705812 0
M  V30 3373 H 330.208 -1.20921 -1.48493 0
M  V30 3374 H 328.513 -0.252195 -3.90987 0
M  V30 3375 H 330.21 -0.6405 -3.95852 0
M  V30 3376 H 326.8 -2.06013 -3.75841 0
M  V30 3377 H 330.984 -3.02488 -3.93465 0
M  V30 3378 H 326.24 -4.40467 -4.24027 0
M  V30 3379 H 330.414 -5.37369 -4.42953 0
M  V30 3380 H 328.041 -6.06843 -4.57871 0
M  V30 3381 N 329.616 1.39756 -0.72842 0
M  V30 3382 C 330.862 2.00942 -0.273892 0
M  V30 3383 C 331.195 1.57656 1.13394 0
M  V30 3384 O 330.47 0.802434 1.77176 0
M  V30 3385 C 330.753 3.58211 -0.368346 0
M  V30 3386 C 330.606 4.11534 -1.81548 0
M  V30 3387 C 331.925 4.39372 0.253054 0
M  V30 3388 H 329.044 0.730047 -0.100996 0
M  V30 3389 H 331.686 1.66056 -0.923337 0
M  V30 3390 H 329.836 3.88061 0.184588 0
M  V30 3391 H 331.508 3.92431 -2.42478 0
M  V30 3392 H 329.751 3.65341 -2.33898 0
M  V30 3393 H 330.422 5.20682 -1.83288 0
M  V30 3394 H 332.898 4.15527 -0.218224 0
M  V30 3395 H 331.774 5.48677 0.156585 0
M  V30 3396 H 332.035 4.21358 1.33826 0
M  V30 3397 N 331.094 0.475555 1.50254 0
M  V30 3398 C 332.34 -0.0780073 2.0265 0
M  V30 3399 C 332.673 -1.38968 1.35652 0
M  V30 3400 O 331.948 -1.8839 0.483691 0
M  V30 3401 C 332.231 -0.257161 3.59181 0
M  V30 3402 C 332.084 1.07585 4.36744 0
M  V30 3403 C 333.403 -1.00965 4.28362 0
M  V30 3404 H 330.522 -0.0268758 0.73651 0
M  V30 3405 H 333.164 0.622015 1.7953 0
M  V30 3406 H 331.314 -0.853412 3.79011 0
M  V30 3407 H 332.986 1.70902 4.28474 0
M  V30 3408 H 331.229 1.6714 4.00308 0
M  V30 3409 H 331.9 0.904088 5.44546 0
M  V30 3410 H 334.376 -0.504214 4.13034 0
M  V30 3411 H 333.252 -1.10381 5.37687 0
M  V30 3412 H 333.513 -2.04731 3.91839 0
M  V30 3413 N 332.573 -1.56217 0.208337 0
M  V30 3414 C 333.52 -2.19699 -0.707192 0
M  V30 3415 C 334.49 -1.14836 -1.20008 0
M  V30 3416 O 335.675 -1.4314 -1.26157 0
M  V30 3417 C 332.815 -2.87061 -1.91546 0
M  V30 3418 C 331.928 -4.06483 -1.46271 0
M  V30 3419 C 331.063 -4.61665 -2.62752 0
M  V30 3420 C 330.102 -5.73417 -2.14147 0
M  V30 3421 N 329.239 -6.22948 -3.23853 0
M  V30 3422 H 334.079 -2.97575 -0.159111 0
M  V30 3423 H 331.616 -1.46948 -0.0667874 0
M  V30 3424 H 333.574 -3.24294 -2.62468 0
M  V30 3425 H 332.204 -2.11725 -2.43664 0
M  V30 3426 H 331.256 -3.74825 -0.648886 0
M  V30 3427 H 332.568 -4.87271 -1.06622 0
M  V30 3428 H 331.722 -5.01272 -3.41776 0
M  V30 3429 H 330.461 -3.80013 -3.05682 0
M  V30 3430 H 329.466 -5.33326 -1.33581 0
M  V30 3431 H 330.691 -6.56897 -1.72232 0
M  V30 3432 H 328.637 -5.44213 -3.6629 0
M  V30 3433 H 328.554 -6.98823 -2.88414 0
M  V30 3434 H 329.822 -6.6721 -4.03052 0
M  V30 3435 N 334.051 0.0651679 -1.57465 0
M  V30 3436 C 335.299 0.761555 -1.87202 0
M  V30 3437 C 335.62 1.77778 -0.801243 0
M  V30 3438 O 334.89 1.95166 0.16937 0
M  V30 3439 H 333.47 0.284251 -0.690804 0
M  V30 3440 H 336.132 0.0396827 -1.9486 0
M  V30 3441 H 335.228 1.27365 -2.84929 0
M  V30 3442 N 335.529 1.53961 0.336706 0
M  V30 3443 C 336.777 1.71197 1.07405 0
M  V30 3444 C 337.098 0.481475 1.88962 0
M  V30 3445 O 336.368 -0.504585 1.8929 0
M  V30 3446 H 334.948 0.631185 0.399517 0
M  V30 3447 H 337.61 1.91232 0.376323 0
M  V30 3448 H 336.706 2.58587 1.74755 0
M  V30 3449 N 337.007 -0.598083 1.45811 0
M  V30 3450 C 337.939 -1.72231 1.51225 0
M  V30 3451 C 338.952 -1.57757 0.402059 0
M  V30 3452 O 340.141 -1.65464 0.669624 0
M  V30 3453 C 337.241 -3.10331 1.3619 0
M  V30 3454 C 336.414 -3.50955 2.61054 0
M  V30 3455 C 335.473 -4.68055 2.40439 0
M  V30 3456 O 334.499 -4.74691 3.14097 0
M  V30 3457 N 335.701 -5.61941 1.45612 0
M  V30 3458 H 338.466 -1.68046 2.48154 0
M  V30 3459 H 336.027 -0.783637 1.41671 0
M  V30 3460 H 338.019 -3.86439 1.20195 0
M  V30 3461 H 336.589 -3.0897 0.475015 0
M  V30 3462 H 335.809 -2.64711 2.92099 0
M  V30 3463 H 337.097 -3.74858 3.44034 0
M  V30 3464 H 336.495 -5.59301 0.848431 0
M  V30 3465 H 335.052 -6.37542 1.35585 0
M  V30 3466 N 338.485 -1.33259 -0.841409 0
M  V30 3467 C 339.71 -1.2775 -1.63385 0
M  V30 3468 C 340.135 0.149188 -1.87507 0
M  V30 3469 O 339.493 1.10498 -1.43736 0
M  V30 3470 C 339.541 -2.05571 -2.96265 0
M  V30 3471 O 338.645 -1.41257 -3.87453 0
M  V30 3472 H 337.986 -0.439627 -0.497618 0
M  V30 3473 H 340.516 -1.75782 -1.04699 0
M  V30 3474 H 340.526 -2.16241 -3.45982 0
M  V30 3475 H 339.201 -3.09309 -2.7803 0
M  V30 3476 H 337.778 -1.39217 -3.45938 0
M  V30 3477 N 339.963 1.05934 -1.16686 0
M  V30 3478 C 341.193 1.82226 -0.973515 0
M  V30 3479 C 341.601 1.8297 0.481532 0
M  V30 3480 O 340.944 1.25009 1.34604 0
M  V30 3481 C 341.006 3.29897 -1.42858 0
M  V30 3482 C 340.67 3.52849 -2.90425 0
M  V30 3483 C 341.667 3.45595 -3.88407 0
M  V30 3484 C 339.352 3.80053 -3.28428 0
M  V30 3485 C 341.346 3.65217 -5.22394 0
M  V30 3486 C 339.033 3.99325 -4.62583 0
M  V30 3487 C 340.031 3.91905 -5.59374 0
M  V30 3488 O 339.719 4.10647 -6.91104 0
M  V30 3489 H 339.451 0.581314 -0.345036 0
M  V30 3490 H 342.005 1.3453 -1.55212 0
M  V30 3491 H 340.235 3.78472 -0.793477 0
M  V30 3492 H 341.924 3.87692 -1.20207 0
M  V30 3493 H 342.69 3.24564 -3.60393 0
M  V30 3494 H 338.569 3.84936 -2.53664 0
M  V30 3495 H 342.113 3.59341 -5.9793 0
M  V30 3496 H 338.01 4.19846 -4.90306 0
M  V30 3497 H 338.778 4.27915 -6.97733 0
M  V30 3498 N 341.441 0.965919 1.2453 0
M  V30 3499 C 342.373 0.452465 2.2469 0
M  V30 3500 C 343.386 -0.437821 1.56802 0
M  V30 3501 O 344.575 -0.244283 1.76821 0
M  V30 3502 C 341.675 -0.366258 3.36915 0
M  V30 3503 C 340.848 0.513701 4.34373 0
M  V30 3504 C 339.907 -0.248716 5.25612 0
M  V30 3505 O 338.933 0.356745 5.68081 0
M  V30 3506 N 340.135 -1.53877 5.59734 0
M  V30 3507 H 342.9 1.31361 2.69378 0
M  V30 3508 H 340.461 0.837541 1.38553 0
M  V30 3509 H 342.453 -0.884297 3.94921 0
M  V30 3510 H 341.023 -1.12832 2.91526 0
M  V30 3511 H 340.243 1.21273 3.75082 0
M  V30 3512 H 341.531 1.11391 4.96457 0
M  V30 3513 H 340.929 -2.05243 5.27154 0
M  V30 3514 H 339.486 -2.00254 6.20275 0
M  V30 3515 N 342.919 -1.39368 0.735821 0
M  V30 3516 C 344.144 -2.05319 0.293052 0
M  V30 3517 C 344.569 -1.55115 -1.064 0
M  V30 3518 O 343.927 -0.695261 -1.67439 0
M  V30 3519 C 343.975 -3.59305 0.305323 0
M  V30 3520 O 343.079 -4.06299 -0.706761 0
M  V30 3521 H 342.42 -0.650529 0.13307 0
M  V30 3522 H 344.95 -1.78386 1.00197 0
M  V30 3523 H 344.96 -4.07724 0.149997 0
M  V30 3524 H 343.635 -3.95207 1.29553 0
M  V30 3525 H 342.212 -3.69292 -0.517504 0
M  V30 3526 N 344.397 -0.483516 -1.5 0
M  V30 3527 C 345.808 -0.0314176 -1.86674 0
M  V30 3528 C 346.159 1.37728 -1.39733 0
M  V30 3529 O 345.284 2.02327 -0.767635 0
M  V30 3530 C 345.879 -0.0502376 -3.38763 0
M  V30 3531 C 344.438 0.346442 -3.74802 0
M  V30 3532 C 343.585 -0.430366 -2.7394 0
M  V30 3533 H 346.536 -0.697182 -1.42566 0
M  V30 3534 H 346.557 0.749116 -3.73053 0
M  V30 3535 H 346.069 -1.07563 -3.72897 0
M  V30 3536 H 344.17 1.37572 -3.46273 0
M  V30 3537 H 344.283 0.0391486 -4.79084 0
M  V30 3538 H 342.647 0.117557 -2.54429 0
M  V30 3539 H 343.43 -1.4555 -3.10918 0
M  V30 3540 N 345.875 1.56104 -0.216619 0
M  V30 3541 C 347.123 1.97781 0.415593 0
M  V30 3542 C 347.444 1.10536 1.60645 0
M  V30 3543 O 346.714 0.181303 1.95059 0
M  V30 3544 H 345.294 0.730415 0.156534 0
M  V30 3545 H 347.956 1.92445 -0.308366 0
M  V30 3546 H 347.052 3.03072 0.74525 0
M  V30 3547 N 347.353 -0.0568162 1.57498 0
M  V30 3548 C 348.581 -0.765626 1.92213 0
M  V30 3549 C 348.996 -1.70353 0.813961 0
M  V30 3550 O 348.353 -1.81268 -0.211701 0
M  V30 3551 C 348.404 -1.5465 3.2675 0
M  V30 3552 O 348.125 -0.646278 4.33307 0
M  V30 3553 C 349.626 -2.35497 3.75574 0
M  V30 3554 H 346.846 -0.216835 0.634999 0
M  V30 3555 H 349.39 -0.0226146 2.04487 0
M  V30 3556 H 347.545 -2.24165 3.15957 0
M  V30 3557 H 347.959 -1.19093 5.108 0
M  V30 3558 H 349.433 -2.85722 4.72299 0
M  V30 3559 H 349.91 -3.15692 3.05344 0
M  V30 3560 H 350.516 -1.7111 3.8936 0
M  V30 3561 N 348.832 -1.54138 -0.328536 0
M  V30 3562 C 350.062 -1.75807 -1.08516 0
M  V30 3563 C 350.47 -0.50428 -1.82356 0
M  V30 3564 O 349.813 0.534451 -1.75754 0
M  V30 3565 C 349.875 -2.89423 -2.13248 0
M  V30 3566 C 349.539 -4.28504 -1.5885 0
M  V30 3567 C 350.536 -5.09536 -1.03289 0
M  V30 3568 C 348.221 -4.75034 -1.63243 0
M  V30 3569 C 350.215 -6.35206 -0.52845 0
M  V30 3570 C 347.902 -6.00672 -1.12411 0
M  V30 3571 C 348.9 -6.80592 -0.573062 0
M  V30 3572 O 348.588 -8.03867 -0.0723692 0
M  V30 3573 H 348.32 -0.590633 -0.328829 0
M  V30 3574 H 350.874 -2.01819 -0.381868 0
M  V30 3575 H 349.104 -2.5897 -2.87178 0
M  V30 3576 H 350.793 -2.98921 -2.74592 0
M  V30 3577 H 351.559 -4.74745 -0.99206 0
M  V30 3578 H 347.438 -4.12875 -2.05074 0
M  V30 3579 H 350.982 -6.97532 -0.0976774 0
M  V30 3580 H 346.879 -6.34955 -1.162 0
M  V30 3581 H 347.647 -8.18283 -0.188258 0
M  V30 3582 N 350.31 0.590341 -1.46126 0
M  V30 3583 C 351.24 1.71032 -1.58966 0
M  V30 3584 C 352.221 1.64302 -0.440335 0
M  V30 3585 O 353.406 1.82436 -0.665634 0
M  V30 3586 C 350.536 3.09665 -1.57241 0
M  V30 3587 C 349.49 3.31221 -2.71066 0
M  V30 3588 C 348.816 4.70303 -2.54399 0
M  V30 3589 C 350.116 3.19796 -4.1295 0
M  V30 3590 H 351.81 1.60543 -2.52718 0
M  V30 3591 H 349.356 0.770933 -1.21625 0
M  V30 3592 H 351.309 3.87831 -1.64819 0
M  V30 3593 H 350.033 3.21036 -0.600289 0
M  V30 3594 H 348.692 2.55452 -2.62944 0
M  V30 3595 H 348.34 4.78429 -1.55288 0
M  V30 3596 H 348.04 4.85679 -3.30741 0
M  V30 3597 H 349.564 5.50647 -2.63857 0
M  V30 3598 H 350.978 3.87815 -4.22223 0
M  V30 3599 H 349.375 3.46696 -4.89818 0
M  V30 3600 H 350.445 2.16983 -4.33643 0
M  V30 3601 N 351.788 1.33704 0.83433 0
M  V30 3602 C 353.034 1.25603 1.59222 0
M  V30 3603 C 353.367 -0.176659 1.93395 0
M  V30 3604 O 352.642 -1.11915 1.59076 0
M  V30 3605 C 352.925 2.13576 2.89926 0
M  V30 3606 C 352.778 3.65326 2.62406 0
M  V30 3607 C 354.097 2.01238 3.91397 0
M  V30 3608 H 351.216 0.457613 0.577719 0
M  V30 3609 H 353.858 1.63848 0.961972 0
M  V30 3610 H 352.008 1.8109 3.43713 0
M  V30 3611 H 353.68 4.08124 2.15017 0
M  V30 3612 H 351.923 3.8698 1.96033 0
M  V30 3613 H 352.594 4.22232 3.55562 0
M  V30 3614 H 355.07 2.29738 3.46929 0
M  V30 3615 H 353.946 2.65036 4.80673 0
M  V30 3616 H 354.207 0.985951 4.30966 0
M  V30 3617 N 353.266 -1.05314 1.17247 0
M  V30 3618 C 354.176 -2.16538 0.90268 0
M  V30 3619 C 355.192 -1.73523 -0.128707 0
M  V30 3620 O 356.368 -2.01337 0.0502701 0
M  V30 3621 C 353.433 -3.44167 0.418356 0
M  V30 3622 C 352.494 -4.01635 1.51618 0
M  V30 3623 C 351.727 -5.23171 1.05487 0
M  V30 3624 O 351.95 -5.70327 -0.0914715 0
M  V30 3625 O 350.884 -5.72848 1.8474 0
M  V30 3626 H 354.71 -2.42145 1.83302 0
M  V30 3627 H 352.295 -1.15037 0.953246 0
M  V30 3628 H 354.177 -4.21112 0.155726 0
M  V30 3629 H 352.852 -3.20063 -0.48385 0
M  V30 3630 H 351.759 -3.26135 1.83268 0
M  V30 3631 H 353.092 -4.30053 2.39405 0
M  V30 3632 N 354.744 -0.972509 -1.24016 0
M  V30 3633 C 355.992 -0.635776 -1.91839 0
M  V30 3634 C 356.313 0.832312 -1.76345 0
M  V30 3635 O 355.583 1.5946 -1.13795 0
M  V30 3636 H 354.163 -0.232157 -0.710009 0
M  V30 3637 H 356.825 -1.23462 -1.50809 0
M  V30 3638 H 355.921 -0.880545 -2.99421 0
M  V30 3639 N 356.222 1.38976 -0.743202 0
M  V30 3640 C 357.499 1.94351 -0.220705 0
M  V30 3641 C 357.879 1.67935 1.2791 0
M  V30 3642 O 357.227 1.01211 2.04862 0
M  V30 3643 C 357.437 3.44426 -0.563171 0
M  V30 3644 C 358.785 4.2144 -0.517046 0
M  V30 3645 O 359.809 3.52661 -0.500846 0
M  V30 3646 O 358.668 5.44032 -0.518806 0
M  V30 3647 H 355.762 0.825879 -0.043047 0
M  V30 3648 H 358.308 1.48429 -0.822618 0
M  V30 3649 H 357.08 3.5712 -1.59941 0
M  V30 3650 H 356.703 3.97543 0.0672883 0
M  V30 3651 N 357.7 0.491464 1.49741 0
M  V30 3652 C 358.663 -0.280906 2.27472 0
M  V30 3653 C 359.663 -0.902454 1.33088 0
M  V30 3654 O 360.853 -0.768465 1.56334 0
M  V30 3655 C 357.985 -1.40209 3.10732 0
M  V30 3656 H 359.178 0.401056 2.97206 0
M  V30 3657 H 356.731 0.246131 1.5435 0
M  V30 3658 H 357.466 -2.11849 2.45541 0
M  V30 3659 H 357.251 -0.961969 3.80117 0
M  V30 3660 H 358.741 -1.9464 3.69466 0
M  V30 3661 N 359.178 -1.55987 0.224894 0
M  V30 3662 C 360.403 -2.03232 -0.41369 0
M  V30 3663 C 360.828 -1.10359 -1.52323 0
M  V30 3664 O 360.186 -0.092395 -1.81064 0
M  V30 3665 C 360.234 -3.48682 -0.919405 0
M  V30 3666 O 359.338 -3.58947 -2.03054 0
M  V30 3667 H 358.679 -0.657428 -0.0931903 0
M  V30 3668 H 361.209 -2.01679 0.34451 0
M  V30 3669 H 361.219 -3.8907 -1.22835 0
M  V30 3670 H 359.894 -4.15761 -0.107339 0
M  V30 3671 H 358.471 -3.30448 -1.72796 0
M  V30 3672 N 360.656 0.0484629 -1.57525 0
M  V30 3673 C 361.881 0.759177 -1.93006 0
M  V30 3674 C 362.306 1.69125 -0.823317 0
M  V30 3675 O 361.664 1.79931 0.222364 0
M  V30 3676 C 361.712 1.50899 -3.27509 0
M  V30 3677 O 360.816 2.62112 -3.18388 0
M  V30 3678 H 360.157 0.205564 -0.631379 0
M  V30 3679 H 362.687 0.00972959 -2.04598 0
M  V30 3680 H 362.697 1.88317 -3.6194 0
M  V30 3681 H 361.372 0.825269 -4.0763 0
M  V30 3682 H 359.949 2.27379 -2.95556 0
M  V30 3683 N 362.134 1.5431 0.320358 0
M  V30 3684 C 363.097 1.83195 1.3774 0
M  V30 3685 C 364.097 0.703906 1.44575 0
M  V30 3686 O 365.287 0.972214 1.44546 0
M  V30 3687 C 362.419 1.99487 2.76438 0
M  V30 3688 H 363.612 2.77642 1.1338 0
M  V30 3689 H 361.165 1.46076 0.556012 0
M  V30 3690 H 361.9 1.07262 3.06048 0
M  V30 3691 H 361.685 2.81575 2.7287 0
M  V30 3692 H 363.175 2.23271 3.52902 0
M  V30 3693 N 363.613 -0.582584 1.46437 0
M  V30 3694 C 364.838 -1.37168 1.55563 0
M  V30 3695 C 365.263 -1.87061 0.19743 0
M  V30 3696 O 364.621 -1.61572 -0.822451 0
M  V30 3697 C 364.669 -2.53511 2.56446 0
M  V30 3698 O 363.773 -3.54953 2.09958 0
M  V30 3699 H 363.114 -0.408494 0.523477 0
M  V30 3700 H 365.644 -0.706646 1.9201 0
M  V30 3701 H 365.654 -3.00426 2.76058 0
M  V30 3702 H 364.329 -2.16549 3.55076 0
M  V30 3703 H 362.906 -3.14516 2.00334 0
M  V30 3704 N 365.091 -1.34144 -0.827227 0
M  V30 3705 C 366.321 -1.29138 -1.61267 0
M  V30 3706 C 366.729 0.137597 -1.88699 0
M  V30 3707 O 366.072 1.09379 -1.47587 0
M  V30 3708 C 366.134 -2.0097 -2.9808 0
M  V30 3709 C 365.798 -3.50242 -2.93563 0
M  V30 3710 C 366.795 -4.4523 -2.68452 0
M  V30 3711 C 364.48 -3.92592 -3.13331 0
M  V30 3712 C 366.474 -5.80542 -2.63154 0
M  V30 3713 C 364.161 -5.28005 -3.07658 0
M  V30 3714 C 365.159 -6.21792 -2.82602 0
M  V30 3715 O 364.847 -7.54723 -2.76853 0
M  V30 3716 H 364.579 -0.445851 -0.508127 0
M  V30 3717 H 367.133 -1.77263 -1.03763 0
M  V30 3718 H 365.363 -1.47451 -3.57484 0
M  V30 3719 H 367.052 -1.89309 -3.5905 0
M  V30 3720 H 367.818 -4.13832 -2.52919 0
M  V30 3721 H 363.697 -3.19994 -3.31851 0
M  V30 3722 H 367.241 -6.53717 -2.43516 0
M  V30 3723 H 363.138 -5.59023 -3.22743 0
M  V30 3724 H 363.906 -7.64409 -2.92611 0
M  V30 3725 N 366.569 1.04691 -1.17803 0
M  V30 3726 C 367.816 1.77782 -0.969532 0
M  V30 3727 C 368.144 1.87926 0.501401 0
M  V30 3728 O 367.399 1.37918 1.38842 0
M  V30 3729 C 367.698 3.21467 -1.56186 0
M  V30 3730 C 367.364 3.3137 -3.05786 0
M  V30 3731 C 366.026 3.3378 -3.46619 0
M  V30 3732 C 368.378 3.31976 -4.01797 0
M  V30 3733 C 365.706 3.34431 -4.82051 0
M  V30 3734 C 368.058 3.34167 -5.37136 0
M  V30 3735 C 366.722 3.34866 -5.77426 0
M  V30 3736 H 365.992 0.650549 -0.354777 0
M  V30 3737 H 368.639 1.23006 -1.46772 0
M  V30 3738 H 366.944 3.79203 -0.985515 0
M  V30 3739 H 368.641 3.76652 -1.37602 0
M  V30 3740 H 365.231 3.3021 -2.73238 0
M  V30 3741 H 369.415 3.29311 -3.71306 0
M  V30 3742 H 364.671 3.33285 -5.12573 0
M  V30 3743 H 368.845 3.33585 -6.11305 0
M  V30 3744 H 366.472 3.35124 -6.82346 0
M  V30 3745 N 368.047 0.979072 1.23499 0
M  V30 3746 C 368.977 0.537606 2.27227 0
M  V30 3747 C 369.958 -0.428539 1.64613 0
M  V30 3748 O 371.143 -0.322191 1.91509 0
M  V30 3749 C 368.273 -0.162052 3.46922 0
M  V30 3750 C 367.227 0.721242 4.21879 0
M  V30 3751 C 366.553 -0.110555 5.34586 0
M  V30 3752 C 367.853 2.01141 4.82016 0
M  V30 3753 H 369.547 1.40462 2.64406 0
M  V30 3754 H 367.093 0.67684 1.27102 0
M  V30 3755 H 369.046 -0.482192 4.18632 0
M  V30 3756 H 367.77 -1.06351 3.08799 0
M  V30 3757 H 366.429 1.02482 3.51984 0
M  V30 3758 H 366.077 -1.0125 4.92704 0
M  V30 3759 H 365.777 0.477325 5.85658 0
M  V30 3760 H 367.301 -0.425107 6.09118 0
M  V30 3761 H 368.715 1.75612 5.45741 0
M  V30 3762 H 367.112 2.54695 5.43369 0
M  V30 3763 H 368.182 2.69909 4.02836 0
M  V30 3764 N 369.525 -1.3858 0.750561 0
M  V30 3765 C 370.488 -2.28836 0.129152 0
M  V30 3766 C 371.488 -1.47045 -0.650714 0
M  V30 3767 O 372.678 -1.6753 -0.477428 0
M  V30 3768 C 369.81 -3.30751 -0.825622 0
M  V30 3769 H 371.003 -2.85294 0.924516 0
M  V30 3770 H 368.556 -1.47489 0.517376 0
M  V30 3771 H 369.291 -2.79378 -1.64677 0
M  V30 3772 H 369.076 -3.91177 -0.268852 0
M  V30 3773 H 370.566 -3.98249 -1.2565 0
M  V30 3774 N 371.003 -0.499398 -1.49478 0
M  V30 3775 C 371.966 0.268838 -2.27618 0
M  V30 3776 C 372.966 0.895383 -1.33565 0
M  V30 3777 O 374.156 0.760164 -1.56739 0
M  V30 3778 C 371.288 1.38559 -3.11471 0
M  V30 3779 H 372.481 -0.416812 -2.96989 0
M  V30 3780 H 370.034 -0.254313 -1.54217 0
M  V30 3781 H 370.769 2.10544 -2.46661 0
M  V30 3782 H 370.554 0.941797 -3.80621 0
M  V30 3783 H 372.044 1.92678 -3.70493 0
M  V30 3784 N 372.481 1.55866 -0.233164 0
M  V30 3785 C 373.444 2.1953 0.658715 0
M  V30 3786 C 374.444 1.16053 1.11303 0
M  V30 3787 O 375.634 1.41218 1.01996 0
M  V30 3788 C 372.766 2.82791 1.90373 0
M  V30 3789 H 373.959 2.99721 0.10347 0
M  V30 3790 H 371.512 1.56291 0.0164245 0
M  V30 3791 H 372.247 2.06501 2.50056 0
M  V30 3792 H 372.032 3.58578 1.58632 0
M  V30 3793 H 373.522 3.31556 2.53891 0
M  V30 3794 N 373.959 -0.0401083 1.57549 0
M  V30 3795 C 374.922 -1.02871 2.04817 0
M  V30 3796 C 375.922 -1.29708 0.950388 0
M  V30 3797 O 377.112 -1.24897 1.21435 0
M  V30 3798 C 374.244 -2.36443 2.45576 0
M  V30 3799 H 375.437 -0.620631 2.93408 0
M  V30 3800 H 372.99 -0.286667 1.53649 0
M  V30 3801 H 373.725 -2.82021 1.60108 0
M  V30 3802 H 373.51 -2.18296 3.25713 0
M  V30 3803 H 375 -3.07441 2.82612 0
M  V30 3804 N 375.437 -1.54477 -0.31217 0
M  V30 3805 C 376.686 -1.72438 -1.04633 0
M  V30 3806 C 376.999 -0.511163 -1.88803 0
M  V30 3807 O 378.205 -0.572341 -2.65399 0
M  V30 3808 C 376.661 -3.05043 -1.9099 0
M  V30 3809 C 376.269 -4.33806 -1.11877 0
M  V30 3810 C 378.013 -3.32364 -2.64073 0
M  V30 3811 C 375.92 -5.57467 -1.97445 0
M  V30 3812 H 374.85 -0.642647 -0.394361 0
M  V30 3813 H 377.501 -1.80966 -0.303929 0
M  V30 3814 H 375.883 -2.90451 -2.69173 0
M  V30 3815 H 377.057 -4.59199 -0.383843 0
M  V30 3816 H 375.372 -4.13336 -0.504252 0
M  V30 3817 H 377.969 -4.21951 -3.28423 0
M  V30 3818 H 378.312 -2.50745 -3.32314 0
M  V30 3819 H 378.845 -3.47875 -1.92944 0
M  V30 3820 H 375.584 -6.41722 -1.33692 0
M  V30 3821 H 375.104 -5.36277 -2.6864 0
M  V30 3822 H 376.783 -5.94303 -2.5576 0
M  V30 3823 N 376.915 0.57481 -1.46744 0
M  V30 3824 C 377.862 1.68329 -1.57905 0
M  V30 3825 C 378.832 1.60625 -0.422927 0
M  V30 3826 O 380.017 1.79721 -0.640711 0
M  V30 3827 C 377.157 3.06665 -1.58274 0
M  V30 3828 C 376.27 3.24935 -2.84678 0
M  V30 3829 C 375.405 4.53566 -2.76499 0
M  V30 3830 C 374.444 4.65207 -3.97806 0
M  V30 3831 N 373.581 5.85172 -3.87967 0
M  V30 3832 H 378.421 1.58127 -2.52587 0
M  V30 3833 H 375.958 0.770552 -1.25303 0
M  V30 3834 H 377.916 3.86745 -1.56473 0
M  V30 3835 H 376.546 3.15745 -0.671194 0
M  V30 3836 H 375.598 2.38405 -2.96424 0
M  V30 3837 H 376.91 3.29403 -3.7456 0
M  V30 3838 H 376.064 5.41885 -2.72848 0
M  V30 3839 H 374.803 4.51548 -1.8427 0
M  V30 3840 H 373.808 3.75304 -4.0178 0
M  V30 3841 H 375.033 4.68997 -4.9114 0
M  V30 3842 H 372.979 5.84137 -2.98529 0
M  V30 3843 H 372.896 5.90943 -4.71511 0
M  V30 3844 H 374.164 6.759 -3.88303 0
M  V30 3845 N 378.394 1.34581 0.820102 0
M  V30 3846 C 379.642 1.26845 1.57336 0
M  V30 3847 C 379.963 -0.160667 1.94337 0
M  V30 3848 O 379.233 -1.09396 1.6251 0
M  V30 3849 H 377.813 0.466514 0.583415 0
M  V30 3850 H 380.475 1.68526 0.979027 0
M  V30 3851 H 379.571 1.87513 2.4949 0
M  V30 3852 N 379.872 -1.04064 1.18357 0
M  V30 3853 C 381.12 -1.76915 0.977013 0
M  V30 3854 C 381.441 -1.88624 -0.494577 0
M  V30 3855 O 380.711 -1.41125 -1.3587 0
M  V30 3856 H 379.291 -0.65535 0.358504 0
M  V30 3857 H 381.953 -1.25592 1.49039 0
M  V30 3858 H 381.049 -2.78178 1.41504 0
M  V30 3859 N 381.35 -0.985608 -1.22978 0
M  V30 3860 C 382.578 -0.675582 -1.95559 0
M  V30 3861 C 382.993 0.758413 -1.72897 0
M  V30 3862 O 382.35 1.51094 -1.02357 0
M  V30 3863 C 382.401 -0.96293 -3.48439 0
M  V30 3864 O 382.122 -2.34057 -3.70336 0
M  V30 3865 C 383.623 -0.669585 -4.38214 0
M  V30 3866 H 380.843 -0.250523 -0.622478 0
M  V30 3867 H 383.387 -1.3184 -1.56328 0
M  V30 3868 H 381.542 -0.366033 -3.85667 0
M  V30 3869 H 381.956 -2.43424 -4.64591 0
M  V30 3870 H 383.43 -0.920967 -5.44263 0
M  V30 3871 H 383.907 0.396383 -4.37408 0
M  V30 3872 H 384.513 -1.2472 -4.06602 0
M  V30 3873 N 382.828 1.3818 -0.7579 0
M  V30 3874 C 384.074 2.00316 -0.316453 0
M  V30 3875 C 384.407 1.60026 1.10025 0
M  V30 3876 O 383.682 0.839835 1.75434 0
M  V30 3877 C 383.965 3.57349 -0.444245 0
M  V30 3878 C 383.818 4.07591 -1.90236 0
M  V30 3879 C 385.137 4.3981 0.1598 0
M  V30 3880 H 382.256 0.727741 -0.116459 0
M  V30 3881 H 384.898 1.6406 -0.958352 0
M  V30 3882 H 383.048 3.88365 0.102233 0
M  V30 3883 H 384.72 3.87199 -2.50748 0
M  V30 3884 H 382.963 3.60297 -2.41595 0
M  V30 3885 H 383.634 5.16677 -1.94291 0
M  V30 3886 H 386.11 4.14971 -0.306314 0
M  V30 3887 H 384.986 5.48885 0.0401675 0
M  V30 3888 H 385.247 4.24102 1.24859 0
M  V30 3889 N 384.306 0.507319 1.49211 0
M  V30 3890 C 385.253 -0.267728 2.29242 0
M  V30 3891 C 386.223 -0.954609 1.35928 0
M  V30 3892 O 387.408 -0.960046 1.64887 0
M  V30 3893 C 384.548 -1.32243 3.18756 0
M  V30 3894 C 383.661 -0.64669 4.27132 0
M  V30 3895 C 382.796 -1.68238 5.03855 0
M  V30 3896 C 381.835 -0.98885 6.0406 0
M  V30 3897 N 380.972 -1.96903 6.73924 0
M  V30 3898 H 385.812 0.420968 2.95012 0
M  V30 3899 H 383.349 0.219443 1.45454 0
M  V30 3900 H 385.307 -1.94599 3.69036 0
M  V30 3901 H 383.937 -1.97981 2.54958 0
M  V30 3902 H 382.989 0.0902926 3.80293 0
M  V30 3903 H 384.301 -0.101058 4.98698 0
M  V30 3904 H 383.455 -2.38081 5.58034 0
M  V30 3905 H 382.194 -2.26187 4.32077 0
M  V30 3906 H 381.199 -0.276222 5.49106 0
M  V30 3907 H 382.424 -0.415767 6.77826 0
M  V30 3908 H 380.37 -2.53803 6.04913 0
M  V30 3909 H 380.287 -1.47423 7.41487 0
M  V30 3910 H 381.555 -2.66015 7.32705 0
M  V30 3911 N 385.784 -1.5574 0.241426 0
M  V30 3912 C 387.03 -1.99104 -0.385406 0
M  V30 3913 C 387.363 -1.1293 -1.57988 0
M  V30 3914 O 386.638 -0.191449 -1.93555 0
M  V30 3915 C 386.921 -3.51087 -0.800616 0
M  V30 3916 C 386.774 -4.48028 0.398874 0
M  V30 3917 C 388.093 -4.08015 -1.64959 0
M  V30 3918 H 385.212 -0.723848 -0.138614 0
M  V30 3919 H 387.854 -1.86903 0.341642 0
M  V30 3920 H 386.004 -3.61615 -1.4201 0
M  V30 3921 H 387.676 -4.49487 1.03726 0
M  V30 3922 H 385.919 -4.21077 1.04293 0
M  V30 3923 H 386.59 -5.51962 0.0651056 0
M  V30 3924 H 389.066 -4.00555 -1.12672 0
M  V30 3925 H 387.942 -5.14635 -1.90898 0
M  V30 3926 H 388.203 -3.56131 -2.61961 0
M  V30 3927 N 387.262 0.0317525 -1.57568 0
M  V30 3928 C 388.49 0.734949 -1.93407 0
M  V30 3929 C 388.905 1.69036 -0.84096 0
M  V30 3930 O 388.262 1.81582 0.182836 0
M  V30 3931 C 388.313 1.49432 -3.29169 0
M  V30 3932 O 388.034 0.577261 -4.3428 0
M  V30 3933 C 389.535 2.29492 -3.79273 0
M  V30 3934 H 386.755 0.206706 -0.638368 0
M  V30 3935 H 389.299 -0.00992046 -2.04498 0
M  V30 3936 H 387.454 2.1911 -3.19483 0
M  V30 3937 H 387.868 1.10952 -5.1263 0
M  V30 3938 H 389.342 2.78172 -4.76785 0
M  V30 3939 H 389.819 3.10794 -3.10328 0
M  V30 3940 H 390.425 1.64894 -3.92033 0
M  V30 3941 N 388.74 1.54641 0.303973 0
M  V30 3942 C 389.988 1.73437 1.0375 0
M  V30 3943 C 390.309 0.521449 1.87899 0
M  V30 3944 O 389.579 -0.46432 1.90318 0
M  V30 3945 H 388.159 0.639518 0.386039 0
M  V30 3946 H 390.821 1.91988 0.335675 0
M  V30 3947 H 389.917 2.62235 1.69231 0
M  V30 3948 N 390.218 -0.567019 1.47046 0
M  V30 3949 C 391.467 -1.32091 1.5243 0
M  V30 3950 C 391.78 -1.94704 0.187021 0
M  V30 3951 O 392.986 -2.7124 0.118771 0
M  V30 3952 C 391.442 -2.39479 2.68659 0
M  V30 3953 C 391.05 -1.831 4.08874 0
M  V30 3954 C 392.794 -3.16111 2.83327 0
M  V30 3955 C 390.701 -2.8821 5.16419 0
M  V30 3956 H 389.631 -0.496629 0.56734 0
M  V30 3957 H 392.282 -0.603354 1.73297 0
M  V30 3958 H 390.664 -3.14105 2.41152 0
M  V30 3959 H 391.838 -1.14913 4.46242 0
M  V30 3960 H 390.153 -1.19085 3.99008 0
M  V30 3961 H 392.75 -3.94585 3.60842 0
M  V30 3962 H 393.093 -3.69686 1.91411 0
M  V30 3963 H 393.626 -2.48595 3.10556 0
M  V30 3964 H 390.365 -2.39504 6.10179 0
M  V30 3965 H 389.885 -3.54839 4.8358 0
M  V30 3966 H 391.564 -3.51881 5.42945 0
M  V30 3967 N 391.696 -1.35014 -0.812953 0
M  V30 3968 C 392.944 -1.27678 -1.56661 0
M  V30 3969 C 393.265 0.150359 -1.94419 0
M  V30 3970 O 392.535 1.08532 -1.63088 0
M  V30 3971 H 391.115 -0.469602 -0.580933 0
M  V30 3972 H 393.777 -1.69043 -0.970076 0
M  V30 3973 H 392.873 -1.88833 -2.48492 0
M  V30 3974 N 393.175 1.03435 -1.18907 0
M  V30 3975 C 394.591 1.28973 -0.940111 0
M  V30 3976 C 394.791 1.97676 0.390691 0
M  V30 3977 O 393.847 2.26127 1.12352 0
M  V30 3978 C 395.16 2.14221 -2.11021 0
M  V30 3979 C 396.708 2.27547 -2.14922 0
M  V30 3980 C 397.183 3.16164 -3.31367 0
M  V30 3981 N 398.674 3.23752 -3.31269 0
M  V30 3982 C 399.409 3.92495 -4.18014 0
M  V30 3983 N 398.905 4.63515 -5.14904 0
M  V30 3984 N 400.698 3.88838 -4.05908 0
M  V30 3985 H 392.849 0.57252 -2.04538 0
M  V30 3986 H 395.112 0.315184 -0.894071 0
M  V30 3987 H 394.818 1.71054 -3.073 0
M  V30 3988 H 394.692 3.14919 -2.0762 0
M  V30 3989 H 397.079 2.69947 -1.19217 0
M  V30 3990 H 397.16 1.26418 -2.22378 0
M  V30 3991 H 396.804 2.74474 -4.27348 0
M  V30 3992 H 396.734 4.17339 -3.21148 0
M  V30 3993 H 399.225 2.73167 -2.61129 0
M  V30 3994 H 399.538 5.13583 -5.77453 0
M  V30 3995 H 397.883 4.62398 -5.18857 0
M  V30 3996 H 401.074 3.32491 -3.29495 0
M  V30 3997 H 401.247 4.4214 -4.73726 0
M  V30 3998 N 394.653 0.992116 1.22453 0
M  V30 3999 C 395.601 0.534644 2.26372 0
M  V30 4000 C 396.595 -0.414293 1.64256 0
M  V30 4001 O 397.801 -0.286899 1.77699 0
M  V30 4002 H 394.176 0.154502 0.735957 0
M  V30 4003 H 396.147 1.42256 2.62309 0
M  V30 4004 C 394.896 -0.135815 3.47435 0
M  V30 4005 H 394.219 0.585311 3.95492 0
M  V30 4006 H 395.659 -0.419374 4.21921 0
M  V30 4007 C 394.118 -1.37089 3.07747 0
M  V30 4008 O 394.648 -2.46629 3.17076 0
M  V30 4009 N 392.854 -1.24585 2.62539 0
M  V30 4010 H 392.401 -0.354542 2.55149 0
M  V30 4011 H 392.359 -2.07327 2.36353 0
M  V30 4012 N 396.131 -1.37776 0.765217 0
M  V30 4013 C 397.356 -2.04651 0.336537 0
M  V30 4014 C 397.781 -1.57337 -1.03086 0
M  V30 4015 O 397.139 -0.730621 -1.65927 0
M  V30 4016 C 397.187 -3.58577 0.381468 0
M  V30 4017 O 396.291 -4.07706 -0.62042 0
M  V30 4018 H 395.632 -0.64756 0.146838 0
M  V30 4019 H 398.162 -1.76221 1.03959 0
M  V30 4020 H 398.172 -4.07314 0.236448 0
M  V30 4021 H 396.847 -3.9237 1.37907 0
M  V30 4022 H 395.424 -3.70306 -0.439056 0
M  V30 4023 N 397.609 -0.515225 -1.4894 0
M  V30 4024 C 398.542 0.302518 -2.26186 0
M  V30 4025 C 399.52 0.957895 -1.31389 0
M  V30 4026 O 400.704 0.985198 -1.60705 0
M  V30 4027 C 397.831 1.42719 -3.07163 0
M  V30 4028 C 396.877 0.884736 -4.17223 0
M  V30 4029 S 397.71 -0.235767 -5.34981 0
M  V30 4030 C 398.866 0.891731 -6.19515 0
M  V30 4031 H 399.099 -0.353076 -2.95196 0
M  V30 4032 H 396.632 -0.300753 -1.51443 0
M  V30 4033 H 398.59 2.07152 -3.54398 0
M  V30 4034 H 397.251 2.05445 -2.37595 0
M  V30 4035 H 396.444 1.72801 -4.73451 0
M  V30 4036 H 396.046 0.317362 -3.72651 0
M  V30 4037 H 398.338 1.79377 -6.53322 0
M  V30 4038 H 399.281 0.367751 -7.07144 0
M  V30 4039 H 399.689 1.16548 -5.52338 0
M  V30 4040 N 399.087 1.5561 -0.249682 0
M  V30 4041 C 400.019 2.18834 0.681496 0
M  V30 4042 C 401.032 1.16546 1.1367 0
M  V30 4043 O 402.221 1.43397 1.06299 0
M  V30 4044 C 399.321 2.77992 1.9384 0
M  V30 4045 C 398.494 4.05725 1.63419 0
M  V30 4046 C 397.553 4.49174 2.74096 0
M  V30 4047 O 396.579 5.15492 2.41364 0
M  V30 4048 N 397.781 4.17191 4.03649 0
M  V30 4049 H 400.546 2.9937 0.140514 0
M  V30 4050 H 398.107 1.6175 -0.0697541 0
M  V30 4051 H 400.099 3.04015 2.67127 0
M  V30 4052 H 398.669 2.01596 2.38909 0
M  V30 4053 H 397.889 3.87261 0.736358 0
M  V30 4054 H 399.177 4.88999 1.40562 0
M  V30 4055 H 398.575 3.63955 4.33074 0
M  V30 4056 H 397.132 4.48043 4.73393 0
M  V30 4057 N 400.565 -0.0233959 1.57583 0
M  V30 4058 C 401.813 -0.711654 1.89156 0
M  V30 4059 C 402.134 -1.75591 0.848096 0
M  V30 4060 O 401.404 -1.95547 -0.117566 0
M  V30 4061 H 399.984 -0.265835 0.698098 0
M  V30 4062 H 402.646 0.0119948 1.94896 0
M  V30 4063 H 401.742 -1.19766 2.88206 0
M  V30 4064 N 402.043 -1.548 -0.295768 0
M  V30 4065 C 403.32 -1.65014 -1.05023 0
M  V30 4066 C 403.7 -0.501805 -2.05049 0
M  V30 4067 O 403.048 0.500869 -2.22943 0
M  V30 4068 C 403.258 -3.03252 -1.72741 0
M  V30 4069 C 404.606 -3.60242 -2.24746 0
M  V30 4070 O 405.63 -3.05737 -1.82765 0
M  V30 4071 O 404.489 -4.55687 -3.01681 0
M  V30 4072 H 401.583 -0.669314 -0.485744 0
M  V30 4073 H 404.129 -1.67144 -0.293438 0
M  V30 4074 H 402.901 -3.7827 -1.00138 0
M  V30 4075 H 402.524 -3.04922 -2.55163 0
M  V30 4076 N 403.521 0.559213 -1.47345 0
M  V30 4077 C 404.77 1.31281 -1.53128 0
M  V30 4078 C 405.083 1.94602 -0.197344 0
M  V30 4079 O 406.289 2.71173 -0.133154 0
M  V30 4080 C 404.745 2.38051 -2.69925 0
M  V30 4081 C 404.353 1.8093 -4.0984 0
M  V30 4082 C 406.097 3.14604 -2.84999 0
M  V30 4083 C 404.004 2.85468 -5.1794 0
M  V30 4084 H 402.934 0.493614 -0.569966 0
M  V30 4085 H 405.585 0.594155 -1.73615 0
M  V30 4086 H 403.967 3.12822 -2.42814 0
M  V30 4087 H 405.141 1.12544 -4.46845 0
M  V30 4088 H 403.456 1.16967 -3.99634 0
M  V30 4089 H 406.053 3.92666 -3.62929 0
M  V30 4090 H 406.396 3.68665 -1.93369 0
M  V30 4091 H 406.929 2.46945 -3.1187 0
M  V30 4092 H 403.668 2.36264 -6.1144 0
M  V30 4093 H 403.188 3.52269 -4.85455 0
M  V30 4094 H 404.867 3.48996 -5.44803 0
M  V30 4095 N 404.999 1.35443 0.805782 0
M  V30 4096 C 406.415 1.15499 1.10146 0
M  V30 4097 C 406.615 -0.0319975 2.01475 0
M  V30 4098 O 405.671 -0.70236 2.42535 0
M  V30 4099 C 406.984 2.45833 1.73166 0
M  V30 4100 C 408.532 2.52047 1.85583 0
M  V30 4101 C 409.007 3.82427 2.52019 0
M  V30 4102 N 410.498 3.83682 2.59504 0
M  V30 4103 C 411.233 4.81294 3.11679 0
M  V30 4104 N 410.729 5.89294 3.64287 0
M  V30 4105 N 412.522 4.6873 3.1024 0
M  V30 4106 H 404.673 2.11469 0.198678 0
M  V30 4107 H 406.936 0.93594 0.150731 0
M  V30 4108 H 406.642 3.32874 1.13526 0
M  V30 4109 H 406.516 2.6044 2.72857 0
M  V30 4110 H 408.903 1.65435 2.44367 0
M  V30 4111 H 408.984 2.41354 0.847455 0
M  V30 4112 H 408.628 4.69437 1.93885 0
M  V30 4113 H 408.558 3.90409 3.53395 0
M  V30 4114 H 411.049 3.05648 2.22234 0
M  V30 4115 H 411.362 6.59768 4.02401 0
M  V30 4116 H 409.707 5.92985 3.62483 0
M  V30 4117 H 412.898 3.83496 2.68419 0
M  V30 4118 H 413.071 5.44965 3.50596 0
M  V30 4119 N 406.477 -1.02803 1.19454 0
M  V30 4120 C 407.724 -1.76217 0.997693 0
M  V30 4121 C 408.052 -1.887 -0.47144 0
M  V30 4122 O 407.307 -1.4011 -1.3663 0
M  V30 4123 C 407.606 -3.18941 1.6128 0
M  V30 4124 C 407.272 -3.26463 3.11019 0
M  V30 4125 C 405.934 -3.28223 3.51885 0
M  V30 4126 C 408.286 -3.25542 4.07028 0
M  V30 4127 C 405.614 -3.26719 4.8731 0
M  V30 4128 C 407.966 -3.25579 5.42385 0
M  V30 4129 C 406.63 -3.25637 5.82681 0
M  V30 4130 H 405.9 -0.644823 0.365082 0
M  V30 4131 H 408.547 -1.20655 1.4871 0
M  V30 4132 H 406.852 -3.77587 1.04572 0
M  V30 4133 H 408.549 -3.74415 1.43577 0
M  V30 4134 H 405.139 -3.25822 2.78457 0
M  V30 4135 H 409.323 -3.23362 3.76498 0
M  V30 4136 H 404.579 -3.25089 5.1781 0
M  V30 4137 H 408.753 -3.23817 6.16535 0
M  V30 4138 H 406.38 -3.24226 6.87591 0
M  V30 4139 N 407.956 -0.998596 -1.21925 0
M  V30 4140 C 408.919 -0.558679 -2.22287 0
M  V30 4141 C 409.919 0.361525 -1.56683 0
M  V30 4142 O 411.109 0.152695 -1.73529 0
M  V30 4143 C 408.241 0.18661 -3.40389 0
M  V30 4144 H 409.434 -1.4463 -2.62721 0
M  V30 4145 H 406.987 -0.786413 -1.35075 0
M  V30 4146 H 407.722 1.08996 -3.05435 0
M  V30 4147 H 407.507 -0.474188 -3.89222 0
M  V30 4148 H 408.997 0.482367 -4.14805 0
M  V30 4149 N 409.434 1.37368 -0.772513 0
M  V30 4150 C 410.711 1.93839 -0.26188 0
M  V30 4151 C 411.091 1.7061 1.24319 0
M  V30 4152 O 410.439 1.05534 2.02669 0
M  V30 4153 C 410.649 3.43154 -0.636102 0
M  V30 4154 C 411.997 4.20249 -0.606324 0
M  V30 4155 O 413.021 3.5152 -0.575538 0
M  V30 4156 O 411.88 5.42809 -0.634086 0
M  V30 4157 H 408.974 0.82478 -0.0605555 0
M  V30 4158 H 411.52 1.4665 -0.853917 0
M  V30 4159 H 410.292 3.53647 -1.6748 0
M  V30 4160 H 409.915 3.97596 -0.0170516 0
M  V30 4161 N 410.912 0.523116 1.48665 0
M  V30 4162 C 412.158 -0.0134963 2.02796 0
M  V30 4163 C 412.491 -1.34582 1.40004 0
M  V30 4164 O 411.766 -1.86756 0.543381 0
M  V30 4165 C 412.049 -0.14276 3.59817 0
M  V30 4166 C 411.902 1.21425 4.331 0
M  V30 4167 C 413.221 -0.872856 4.31357 0
M  V30 4168 H 410.34 -0.00343074 0.736992 0
M  V30 4169 H 412.982 0.678816 1.7746 0
M  V30 4170 H 411.132 -0.732401 3.81534 0
M  V30 4171 H 412.804 1.84447 4.2282 0
M  V30 4172 H 411.047 1.79791 3.94788 0
M  V30 4173 H 411.718 1.07687 5.41394 0
M  V30 4174 H 414.194 -0.372555 4.14429 0
M  V30 4175 H 413.07 -0.932185 5.40927 0
M  V30 4176 H 413.331 -1.92161 3.98154 0
M  V30 4177 N 412.39 -1.55475 0.257931 0
M  V30 4178 C 413.32 -2.24815 -0.630912 0
M  V30 4179 C 414.301 -1.23224 -1.17259 0
M  V30 4180 O 415.486 -1.51904 -1.20991 0
M  V30 4181 C 412.616 -2.95609 -1.82298 0
M  V30 4182 C 411.57 -4.03982 -1.41359 0
M  V30 4183 C 410.896 -4.6226 -2.68738 0
M  V30 4184 C 412.196 -5.19109 -0.57648 0
M  V30 4185 H 413.89 -2.99354 -0.0526878 0
M  V30 4186 H 411.436 -1.4398 -0.023901 0
M  V30 4187 H 413.389 -3.42822 -2.45054 0
M  V30 4188 H 412.113 -2.18577 -2.42676 0
M  V30 4189 H 410.772 -3.57555 -0.809324 0
M  V30 4190 H 410.42 -3.81915 -3.27338 0
M  V30 4191 H 410.12 -5.35424 -2.42065 0
M  V30 4192 H 411.644 -5.12212 -3.32372 0
M  V30 4193 H 413.058 -5.62479 -1.10861 0
M  V30 4194 H 411.455 -5.98729 -0.405351 0
M  V30 4195 H 412.525 -4.83174 0.408776 0
M  V30 4196 N 413.868 0.0150385 -1.57593 0
M  V30 4197 C 414.778 1.02791 -2.10882 0
M  V30 4198 C 415.794 1.38702 -1.0506 0
M  V30 4199 O 416.97 1.47739 -1.36877 0
M  V30 4200 C 414.035 2.30568 -2.58919 0
M  V30 4201 C 413.096 2.01108 -3.79281 0
M  V30 4202 C 412.329 3.22794 -4.25018 0
M  V30 4203 O 412.552 4.33959 -3.70183 0
M  V30 4204 O 411.486 3.07672 -5.17322 0
M  V30 4205 H 415.312 0.604973 -2.97613 0
M  V30 4206 H 412.897 0.23292 -1.47573 0
M  V30 4207 H 414.779 3.05662 -2.90084 0
M  V30 4208 H 413.454 2.72129 -1.75293 0
M  V30 4209 H 412.361 1.23537 -3.53114 0
M  V30 4210 H 413.694 1.64394 -4.63935 0
M  V30 4211 N 415.346 1.54954 0.287554 0
M  V30 4212 C 416.293 1.86834 1.35505 0
M  V30 4213 C 417.263 0.718452 1.49758 0
M  V30 4214 O 418.448 0.968358 1.644 0
M  V30 4215 C 415.588 2.13303 2.71286 0
M  V30 4216 C 414.701 3.40883 2.65373 0
M  V30 4217 C 413.836 3.57125 3.93236 0
M  V30 4218 C 412.875 4.78449 3.81776 0
M  V30 4219 N 412.012 4.91426 5.01443 0
M  V30 4220 H 416.852 2.77889 1.07619 0
M  V30 4221 H 414.389 1.37593 0.520241 0
M  V30 4222 H 416.347 2.26646 3.50267 0
M  V30 4223 H 414.977 1.25499 2.97405 0
M  V30 4224 H 414.029 3.36088 1.78182 0
M  V30 4225 H 415.341 4.29993 2.52799 0
M  V30 4226 H 414.495 3.70207 4.80658 0
M  V30 4227 H 413.234 2.66173 4.0866 0
M  V30 4228 H 412.239 4.65386 2.92738 0
M  V30 4229 H 413.464 5.70822 3.67884 0
M  V30 4230 H 411.41 4.03401 5.17304 0
M  V30 4231 H 411.327 5.74559 4.91343 0
M  V30 4232 H 412.595 5.08879 5.90477 0
M  V30 4233 N 416.824 -0.551391 1.4764 0
M  V30 4234 C 417.757 -1.6738 1.5511 0
M  V30 4235 C 418.735 -1.5753 0.402856 0
M  V30 4236 O 419.919 -1.78307 0.611475 0
M  V30 4237 C 417.046 -3.05661 1.45908 0
M  V30 4238 C 416.092 -3.33938 2.65307 0
M  V30 4239 S 416.925 -3.22553 4.27457 0
M  V30 4240 C 418.081 -4.63317 4.20818 0
M  V30 4241 H 418.314 -1.6079 2.50068 0
M  V30 4242 H 415.847 -0.732674 1.35909 0
M  V30 4243 H 417.805 -3.8542 1.41286 0
M  V30 4244 H 416.466 -3.09711 0.523248 0
M  V30 4245 H 415.659 -4.34761 2.54948 0
M  V30 4246 H 415.261 -2.61809 2.67081 0
M  V30 4247 H 417.553 -5.54391 3.89431 0
M  V30 4248 H 418.496 -4.78732 5.21748 0
M  V30 4249 H 418.904 -4.41636 3.51593 0
M  V30 4250 N 418.302 -1.35869 -0.798587 0
M  V30 4251 C 419.55 -1.29332 -1.55298 0
M  V30 4252 C 419.871 0.129729 -1.94568 0
M  V30 4253 O 419.141 1.06796 -1.6423 0
M  V30 4254 H 417.721 -0.475737 -0.57592 0
M  V30 4255 H 420.383 -1.70062 -0.952093 0
M  V30 4256 H 419.479 -1.91458 -2.46476 0
M  V30 4257 N 419.78 1.02168 -1.19998 0
M  V30 4258 C 420.743 2.08765 -0.94604 0
M  V30 4259 C 421.743 1.60618 0.0763846 0
M  V30 4260 O 422.933 1.73472 -0.159135 0
M  V30 4261 C 420.065 3.38262 -0.423255 0
M  V30 4262 H 421.258 2.32726 -1.89153 0
M  V30 4263 H 418.811 1.1889 -1.01464 0
M  V30 4264 H 419.546 3.19974 0.527938 0
M  V30 4265 H 419.331 3.74532 -1.16053 0
M  V30 4266 H 420.821 4.16759 -0.264911 0
M  V30 4267 N 421.258 1.00505 1.21394 0
M  V30 4268 C 422.486 0.706609 1.9446 0
M  V30 4269 C 422.901 -0.73081 1.74082 0
M  V30 4270 O 422.258 -1.49446 1.04747 0
M  V30 4271 C 422.309 1.01824 3.46863 0
M  V30 4272 O 422.03 2.39919 3.66566 0
M  V30 4273 C 423.531 0.739216 4.37093 0
M  V30 4274 H 420.751 0.260394 0.618414 0
M  V30 4275 H 423.295 1.34311 1.54211 0
M  V30 4276 H 421.45 0.427343 3.85036 0
M  V30 4277 H 421.864 2.50784 4.6066 0
M  V30 4278 H 423.338 1.00744 5.42729 0
M  V30 4279 H 423.815 -0.326746 4.37983 0
M  V30 4280 H 424.421 1.31173 4.04566 0
M  V30 4281 N 422.737 -1.36956 0.779787 0
M  V30 4282 C 423.986 -1.98738 0.344405 0
M  V30 4283 C 424.299 -1.62596 -1.08728 0
M  V30 4284 O 425.505 -2.1754 -1.62445 0
M  V30 4285 C 423.961 -3.5544 0.564829 0
M  V30 4286 C 423.569 -4.00514 2.0073 0
M  V30 4287 C 425.313 -4.24059 0.193471 0
M  V30 4288 C 423.22 -5.49957 2.17489 0
M  V30 4289 H 422.15 -0.743561 0.12503 0
M  V30 4290 H 424.801 -1.56381 0.960057 0
M  V30 4291 H 423.183 -3.95817 -0.120397 0
M  V30 4292 H 424.357 -3.71362 2.72814 0
M  V30 4293 H 422.672 -3.44703 2.336 0
M  V30 4294 H 425.269 -5.33874 0.297097 0
M  V30 4295 H 425.612 -4.07378 -0.857263 0
M  V30 4296 H 426.145 -3.89012 0.831556 0
M  V30 4297 H 422.884 -5.71574 3.2091 0
M  V30 4298 H 422.404 -5.80767 1.49899 0
M  V30 4299 H 424.083 -6.16043 1.97738 0
M  V30 4300 N 424.215 -0.530993 -1.48385 0
M  V30 4301 C 425.455 0.000718982 -2.044 0
M  V30 4302 C 425.819 1.31485 -1.39913 0
M  V30 4303 O 427.02 1.93265 -1.86821 0
M  V30 4304 C 425.291 0.119177 -3.57201 0
M  V30 4305 S 426.85 0.600806 -4.34667 0
M  V30 4306 H 423.668 -0.0125473 -0.710889 0
M  V30 4307 H 426.27 -0.711783 -1.82082 0
M  V30 4308 H 424.974 -0.842061 -4.01668 0
M  V30 4309 H 424.505 0.856026 -3.83974 0
M  V30 4310 H 426.52 1.86514 -4.59812 0
M  V30 4311 N 425.693 1.55336 -0.266172 0
M  V30 4312 C 426.939 2.00423 0.346714 0
M  V30 4313 C 427.294 1.15132 1.54151 0
M  V30 4314 O 426.587 0.211289 1.90431 0
M  V30 4315 C 426.781 3.48606 0.787957 0
M  V30 4316 C 426.61 4.48236 -0.362535 0
M  V30 4317 C 425.38 4.98211 -0.843445 0
M  V30 4318 C 427.578 5.00199 -1.19603 0
M  V30 4319 N 425.56 5.81625 -1.96434 0
M  V30 4320 C 426.931 5.80973 -2.16497 0
M  V30 4321 C 428.986 4.82458 -1.2304 0
M  V30 4322 C 427.689 6.45896 -3.1656 0
M  V30 4323 C 429.715 5.48174 -2.21944 0
M  V30 4324 C 429.077 6.28751 -3.17571 0
M  V30 4325 H 425.176 0.776535 0.0922914 0
M  V30 4326 H 427.76 1.90792 -0.388154 0
M  V30 4327 H 425.931 3.58597 1.49207 0
M  V30 4328 H 427.663 3.80538 1.37742 0
M  V30 4329 H 424.418 4.71696 -0.424271 0
M  V30 4330 H 424.842 6.28025 -2.52813 0
M  V30 4331 H 429.484 4.19774 -0.504903 0
M  V30 4332 H 427.202 7.07734 -3.90048 0
M  V30 4333 H 430.788 5.36392 -2.25333 0
M  V30 4334 H 429.668 6.78703 -3.92851 0
M  V30 4335 N 427.171 -0.0066808 1.57599 0
M  V30 4336 C 428.419 -0.691552 1.899 0
M  V30 4337 C 428.74 -1.74682 0.866672 0
M  V30 4338 O 428.01 -1.95661 -0.0968189 0
M  V30 4339 H 426.59 -0.258416 0.700878 0
M  V30 4340 H 429.252 0.0326655 1.94873 0
M  V30 4341 H 428.348 -1.16702 2.8946 0
M  V30 4342 N 428.649 -1.55105 -0.279332 0
M  V30 4343 C 429.926 -1.66119 -1.03267 0
M  V30 4344 C 430.306 -0.523525 -2.04505 0
M  V30 4345 O 429.654 0.477194 -2.23462 0
M  V30 4346 C 429.864 -3.05067 -1.69515 0
M  V30 4347 C 431.212 -3.62606 -2.20912 0
M  V30 4348 O 432.236 -3.07659 -1.79512 0
M  V30 4349 O 431.095 -4.58861 -2.96831 0
M  V30 4350 H 428.189 -0.674429 -0.478618 0
M  V30 4351 H 430.735 -1.67446 -0.275694 0
M  V30 4352 H 429.507 -3.79311 -0.9612 0
M  V30 4353 H 429.13 -3.07611 -2.51915 0
M  V30 4354 N 430.127 0.543554 -1.4793 0
M  V30 4355 C 431.404 1.30458 -1.4574 0
M  V30 4356 C 431.784 2.1048 -0.161692 0
M  V30 4357 O 431.132 2.11831 0.856734 0
M  V30 4358 C 431.342 2.19754 -2.71126 0
M  V30 4359 C 432.69 2.80334 -3.18901 0
M  V30 4360 O 433.714 2.30049 -2.71948 0
M  V30 4361 O 432.573 3.71766 -4.00565 0
M  V30 4362 H 429.667 0.588117 -0.581418 0
M  V30 4363 H 432.213 0.561328 -1.60147 0
M  V30 4364 H 430.985 1.60316 -3.56952 0
M  V30 4365 H 430.608 3.01351 -2.59371 0
M  V30 4366 N 431.605 1.3629 0.791371 0
M  V30 4367 C 432.835 1.33368 1.57786 0
M  V30 4368 C 433.243 -0.0875188 1.88997 0
M  V30 4369 O 432.586 -1.05427 1.50435 0
M  V30 4370 C 432.648 2.08802 2.92646 0
M  V30 4371 C 432.312 3.57903 2.84174 0
M  V30 4372 C 433.309 4.52191 2.56553 0
M  V30 4373 C 430.994 4.00762 3.02812 0
M  V30 4374 C 432.988 5.87315 2.47669 0
M  V30 4375 C 430.675 5.35977 2.93551 0
M  V30 4376 C 431.673 6.29066 2.66017 0
M  V30 4377 O 431.361 7.61798 2.56746 0
M  V30 4378 H 431.093 0.459166 0.496128 0
M  V30 4379 H 433.647 1.79952 0.990269 0
M  V30 4380 H 431.877 1.56878 3.53449 0
M  V30 4381 H 433.566 1.98762 3.53904 0
M  V30 4382 H 434.332 4.20393 2.41858 0
M  V30 4383 H 430.211 3.2868 3.2325 0
M  V30 4384 H 433.755 6.59943 2.26099 0
M  V30 4385 H 429.652 5.67384 3.07808 0
M  V30 4386 H 430.42 7.71898 2.72242 0
M  V30 4387 N 433.083 -1.0153 1.20538 0
M  V30 4388 C 434.332 -1.74558 1.01057 0
M  V30 4389 C 434.645 -1.90168 -0.457756 0
M  V30 4390 O 435.851 -2.60301 -0.771722 0
M  V30 4391 C 434.307 -3.13963 1.75941 0
M  V30 4392 C 433.915 -3.06361 3.26875 0
M  V30 4393 C 435.659 -3.91191 1.64832 0
M  V30 4394 C 433.566 -4.40782 3.94291 0
M  V30 4395 H 432.496 -0.654417 0.374505 0
M  V30 4396 H 435.147 -1.13521 1.44171 0
M  V30 4397 H 433.529 -3.75549 1.25614 0
M  V30 4398 H 434.703 -2.54074 3.84425 0
M  V30 4399 H 433.018 -2.42625 3.38411 0
M  V30 4400 H 435.615 -4.90644 2.12539 0
M  V30 4401 H 435.958 -4.11884 0.604745 0
M  V30 4402 H 436.491 -3.36236 2.12579 0
M  V30 4403 H 433.23 -4.25292 4.98805 0
M  V30 4404 H 432.75 -4.9307 3.41529 0
M  V30 4405 H 434.429 -5.09621 3.98617 0
M  V30 4406 N 434.561 -1.01147 -1.20859 0
M  V30 4407 C 435.786 -0.716698 -1.94623 0
M  V30 4408 C 436.211 0.715415 -1.73964 0
M  V30 4409 O 435.569 1.49157 -1.03062 0
M  V30 4410 C 435.617 -1.0513 -3.44935 0
M  V30 4411 O 434.721 -0.160131 -4.12089 0
M  V30 4412 H 434.062 -0.266404 -0.608214 0
M  V30 4413 H 436.592 -1.35346 -1.53436 0
M  V30 4414 H 436.602 -1.00086 -3.95533 0
M  V30 4415 H 435.277 -2.09475 -3.59295 0
M  V30 4416 H 433.854 -0.267657 -3.71938 0
M  V30 4417 N 436.039 1.36541 -0.78704 0
M  V30 4418 C 437.279 2.01138 -0.363714 0
M  V30 4419 C 437.643 1.61114 1.04433 0
M  V30 4420 O 438.844 2.18285 1.56861 0
M  V30 4421 C 437.115 3.53603 -0.519582 0
M  V30 4422 S 438.674 4.38415 -0.183782 0
M  V30 4423 H 435.492 0.697263 -0.13909 0
M  V30 4424 H 438.094 1.66475 -1.02501 0
M  V30 4425 H 436.798 3.8022 -1.5447 0
M  V30 4426 H 436.329 3.93084 0.15773 0
M  V30 4427 H 438.344 4.85698 1.01547 0
M  V30 4428 N 437.518 0.538854 1.48102 0
M  V30 4429 C 438.746 0.0123136 2.06896 0
M  V30 4430 C 439.161 -1.27312 1.39417 0
M  V30 4431 O 438.518 -1.75949 0.484582 0
M  V30 4432 C 438.569 -0.206118 3.60912 0
M  V30 4433 O 438.29 1.0284 4.25859 0
M  V30 4434 C 439.791 -0.772033 4.36526 0
M  V30 4435 H 437.011 0.0375239 0.66995 0
M  V30 4436 H 439.555 0.747032 1.90367 0
M  V30 4437 H 437.71 -0.89091 3.77017 0
M  V30 4438 H 438.124 0.814654 5.18135 0
M  V30 4439 H 439.598 -0.874251 5.45033 0
M  V30 4440 H 440.075 -1.77904 4.01555 0
M  V30 4441 H 440.681 -0.123526 4.25121 0
M  V30 4442 N 438.996 -1.55193 0.274407 0
M  V30 4443 C 440.412 -1.59401 -0.0797543 0
M  V30 4444 C 440.612 -1.29162 -1.54659 0
M  V30 4445 O 439.668 -1.05215 -2.29534 0
M  V30 4446 C 440.981 -2.99257 0.294238 0
M  V30 4447 C 442.529 -3.12072 0.240796 0
M  V30 4448 C 443.004 -4.54194 0.589218 0
M  V30 4449 N 444.495 -4.60033 0.540744 0
M  V30 4450 C 445.23 -5.68027 0.783147 0
M  V30 4451 N 444.726 -6.8417 1.09013 0
M  V30 4452 N 446.519 -5.57572 0.711993 0
M  V30 4453 H 438.67 -1.73113 1.23067 0
M  V30 4454 H 440.933 -0.807197 0.497129 0
M  V30 4455 H 440.639 -3.26217 1.31435 0
M  V30 4456 H 440.513 -3.75427 -0.365281 0
M  V30 4457 H 442.9 -2.84877 -0.770024 0
M  V30 4458 H 442.981 -2.38117 0.934563 0
M  V30 4459 H 442.625 -4.82115 1.59772 0
M  V30 4460 H 442.555 -5.26448 -0.126331 0
M  V30 4461 H 445.046 -3.76599 0.313327 0
M  V30 4462 H 445.359 -7.6243 1.26178 0
M  V30 4463 H 443.704 -6.85787 1.12789 0
M  V30 4464 H 446.895 -4.65714 0.472014 0
M  V30 4465 H 447.068 -6.41659 0.90429 0
M  V30 4466 N 440.474 -0.00167713 -1.576 0
M  V30 4467 C 441.722 0.681471 -1.90264 0
M  V30 4468 C 442.043 1.7422 -0.875924 0
M  V30 4469 O 441.313 1.95709 0.0864412 0
M  V30 4470 H 439.893 0.254696 -0.702239 0
M  V30 4471 H 442.555 -0.0429996 -1.94853 0
M  V30 4472 H 441.651 1.15166 -2.90075 0
M  V30 4473 N 441.952 1.55251 0.271103 0
M  V30 4474 C 442.862 1.9136 1.35714 0
M  V30 4475 C 443.878 0.811075 1.5394 0
M  V30 4476 O 445.054 1.11031 1.6803 0
M  V30 4477 C 442.119 2.1798 2.69603 0
M  V30 4478 C 441.18 3.4153 2.60107 0
M  V30 4479 C 440.413 3.66871 3.8761 0
M  V30 4480 O 440.636 2.94689 4.8838 0
M  V30 4481 O 439.57 4.60405 3.87699 0
M  V30 4482 H 443.396 2.83815 1.08088 0
M  V30 4483 H 440.981 1.41821 0.469792 0
M  V30 4484 H 442.863 2.36518 3.48765 0
M  V30 4485 H 441.538 1.28708 2.97012 0
M  V30 4486 H 440.445 3.28325 1.79314 0
M  V30 4487 H 441.778 4.31027 2.37647 0
M  V30 4488 N 443.43 -0.535701 1.48216 0
M  V30 4489 C 444.36 -1.65014 1.65204 0
M  V30 4490 C 445.341 -1.62554 0.501011 0
M  V30 4491 O 446.526 -1.7984 0.732886 0
M  V30 4492 C 443.656 -3.03616 1.68626 0
M  V30 4493 C 442.61 -3.20932 2.83172 0
M  V30 4494 C 441.936 -4.60537 2.71679 0
M  V30 4495 C 443.236 -3.04249 4.24535 0
M  V30 4496 H 444.93 -1.51053 2.58502 0
M  V30 4497 H 442.476 -0.725262 1.24402 0
M  V30 4498 H 444.429 -3.81446 1.79099 0
M  V30 4499 H 443.153 -3.18587 0.719026 0
M  V30 4500 H 441.812 -2.45517 2.72244 0
M  V30 4501 H 441.46 -4.72336 1.72937 0
M  V30 4502 H 441.16 -4.73069 3.48538 0
M  V30 4503 H 442.684 -5.40475 2.84112 0
M  V30 4504 H 444.098 -3.71877 4.36326 0
M  V30 4505 H 442.495 -3.28278 5.02348 0
M  V30 4506 H 443.565 -2.00739 4.41397 0
M  V30 4507 N 444.908 -1.36708 -0.784132 0
M  V30 4508 C 445.856 -1.31533 -1.91838 0
M  V30 4509 C 446.85 -0.206205 -1.6814 0
M  V30 4510 O 448.056 -0.373519 -1.76082 0
M  V30 4511 H 444.431 -0.409613 -0.630651 0
M  V30 4512 H 446.402 -2.2731 -1.9332 0
M  V30 4513 C 445.151 -1.12679 -3.28936 0
M  V30 4514 H 444.474 -1.97274 -3.4774 0
M  V30 4515 H 445.914 -1.13106 -4.08636 0
M  V30 4516 C 444.373 0.168281 -3.36479 0
M  V30 4517 O 444.903 1.15625 -3.84699 0
M  V30 4518 N 443.109 0.214762 -2.89805 0
M  V30 4519 H 442.656 -0.589852 -2.50756 0
M  V30 4520 H 442.614 1.08094 -2.95234 0
M  V30 4521 N 446.386 1.0089 -1.21074 0
M  V30 4522 C 447.349 2.0775 -0.968129 0
M  V30 4523 C 448.349 1.6069 0.0593445 0
M  V30 4524 O 449.539 1.73293 -0.177525 0
M  V30 4525 C 446.671 3.37794 -0.459108 0
M  V30 4526 H 447.864 2.30707 -1.9161 0
M  V30 4527 H 445.417 1.17807 -1.02719 0
M  V30 4528 H 446.152 3.20516 0.49397 0
M  V30 4529 H 445.937 3.7328 -1.20019 0
M  V30 4530 H 447.427 4.16454 -0.309099 0
M  V30 4531 N 447.864 1.01787 1.20321 0
M  V30 4532 C 449.113 0.703249 1.89043 0
M  V30 4533 C 449.426 -0.770445 1.79787 0
M  V30 4534 O 450.632 -1.19767 2.43656 0
M  V30 4535 C 449.088 1.20749 3.3904 0
M  V30 4536 C 448.696 2.70817 3.56878 0
M  V30 4537 C 450.44 0.968352 4.13308 0
M  V30 4538 C 448.347 3.14716 5.00708 0
M  V30 4539 H 447.277 0.259354 0.707991 0
M  V30 4540 H 449.928 1.23072 1.36108 0
M  V30 4541 H 448.31 0.607989 3.91305 0
M  V30 4542 H 449.484 3.36327 3.14993 0
M  V30 4543 H 447.799 2.92888 2.95983 0
M  V30 4544 H 450.396 1.27173 5.19356 0
M  V30 4545 H 450.739 -0.095149 4.16191 0
M  V30 4546 H 451.272 1.53129 3.67146 0
M  V30 4547 H 448.011 4.20347 5.02979 0
M  V30 4548 H 447.531 2.53927 5.43398 0
M  V30 4549 H 449.21 3.07426 5.69296 0
M  V30 4550 N 449.342 -1.36122 0.79427 0
M  V30 4551 C 450.619 -1.93398 0.292685 0
M  V30 4552 C 450.999 -1.72567 -1.21589 0
M  V30 4553 O 450.347 -1.08745 -2.00965 0
M  V30 4554 C 450.557 -3.42099 0.690614 0
M  V30 4555 C 451.905 -4.19231 0.673105 0
M  V30 4556 O 452.929 -3.50559 0.631389 0
M  V30 4557 O 451.788 -5.41732 0.720362 0
M  V30 4558 H 448.882 -0.823712 0.0736693 0
M  V30 4559 H 451.428 -1.45273 0.87714 0
M  V30 4560 H 450.2 -3.50938 1.73085 0
M  V30 4561 H 449.823 -3.97519 0.0803036 0
M  V30 4562 N 450.82 -0.546701 -1.47814 0
M  V30 4563 C 451.753 0.254472 -2.26777 0
M  V30 4564 C 452.731 0.929809 -1.33392 0
M  V30 4565 O 453.915 0.950889 -1.62759 0
M  V30 4566 C 451.042 1.36171 -3.10121 0
M  V30 4567 C 450.088 0.796038 -4.19005 0
M  V30 4568 S 450.921 -0.349191 -5.3436 0
M  V30 4569 C 452.077 0.760122 -6.21267 0
M  V30 4570 H 452.31 -0.415612 -2.94381 0
M  V30 4571 H 449.843 -0.332809 -1.5077 0
M  V30 4572 H 451.801 1.99588 -3.58713 0
M  V30 4573 H 450.462 2.00359 -2.41899 0
M  V30 4574 H 449.655 1.62719 -4.7701 0
M  V30 4575 H 449.257 0.238246 -3.7324 0
M  V30 4576 H 451.549 1.65479 -6.5698 0
M  V30 4577 H 452.492 0.217673 -7.07765 0
M  V30 4578 H 452.9 1.04806 -5.54685 0
M  V30 4579 N 452.299 1.55045 -0.282633 0
M  V30 4580 C 453.576 1.9179 0.384166 0
M  V30 4581 C 453.956 1.20778 1.73136 0
M  V30 4582 O 453.304 0.33719 2.25998 0
M  V30 4583 C 453.514 3.45149 0.517014 0
M  V30 4584 C 454.862 4.17064 0.796427 0
M  V30 4585 O 455.886 3.51084 0.601535 0
M  V30 4586 O 454.745 5.33837 1.16962 0
M  V30 4587 H 451.839 0.799483 0.211558 0
M  V30 4588 H 454.385 1.66474 -0.32934 0
M  V30 4589 H 453.157 3.88922 -0.430772 0
M  V30 4590 H 452.78 3.76443 1.2797 0
M  V30 4591 N 453.777 0.010035 1.57597 0
M  V30 4592 C 454.71 -1.01234 2.04516 0
M  V30 4593 C 455.688 -1.32886 0.937024 0
M  V30 4594 O 456.872 -1.44879 1.20592 0
M  V30 4595 C 453.999 -2.33738 2.45121 0
M  V30 4596 C 453.045 -2.17679 3.66767 0
M  V30 4597 S 453.878 -1.49343 5.14254 0
M  V30 4598 C 455.034 -2.83256 5.58137 0
M  V30 4599 H 455.267 -0.612866 2.90914 0
M  V30 4600 H 452.8 -0.201124 1.53084 0
M  V30 4601 H 454.758 -3.09922 2.69182 0
M  V30 4602 H 453.419 -2.70823 1.59103 0
M  V30 4603 H 452.612 -3.1559 3.92962 0
M  V30 4604 H 452.214 -1.4964 3.42759 0
M  V30 4605 H 454.506 -3.79538 5.6121 0
M  V30 4606 H 455.449 -2.61749 6.57946 0
M  V30 4607 H 455.857 -2.87627 4.85727 0
M  V30 4608 N 455.255 -1.55392 -0.262866 0
M  V30 4609 C 456.203 -1.8977 -1.345 0
M  V30 4610 C 457.197 -0.775063 -1.50629 0
M  V30 4611 O 458.403 -0.959519 -1.52293 0
M  V30 4612 H 454.778 -0.602467 -0.450041 0
M  V30 4613 H 456.749 -2.80147 -1.02762 0
M  V30 4614 C 455.498 -2.19501 -2.69657 0
M  V30 4615 H 454.821 -3.05378 -2.5804 0
M  V30 4616 H 456.261 -2.47469 -3.44289 0
M  V30 4617 C 454.72 -1.00597 -3.21531 0
M  V30 4618 O 455.25 -0.245768 -4.00947 0
M  V30 4619 N 453.456 -0.800911 -2.79345 0
M  V30 4620 H 453.003 -1.42079 -2.14875 0
M  V30 4621 H 452.961 -0.00697996 -3.14399 0
M  V30 4622 N 456.733 0.527833 -1.48498 0
M  V30 4623 C 457.683 1.62844 -1.5958 0
M  V30 4624 C 458.667 1.54397 -0.452809 0
M  V30 4625 O 459.859 1.62381 -0.704364 0
M  V30 4626 C 456.988 3.01557 -1.64067 0
M  V30 4627 C 456.074 3.151 -2.83853 0
M  V30 4628 N 456.465 2.9861 -4.08247 0
M  V30 4629 C 454.763 3.46158 -2.8123 0
M  V30 4630 C 455.464 3.15626 -4.88626 0
M  V30 4631 N 454.44 3.43298 -4.21483 0
M  V30 4632 H 458.242 1.48708 -2.53502 0
M  V30 4633 H 455.756 0.733343 -1.44899 0
M  V30 4634 H 457.753 3.8062 -1.70101 0
M  V30 4635 H 456.413 3.16783 -0.712636 0
M  V30 4636 H 457.424 2.75329 -4.3865 0
M  V30 4637 H 454.101 3.67728 -1.97692 0
M  V30 4638 H 455.491 3.07596 -5.97356 0
M  V30 4639 N 458.211 1.37122 0.776871 0
M  V30 4640 C 459.46 1.31373 1.53049 0
M  V30 4641 C 459.773 -0.101016 1.95339 0
M  V30 4642 O 460.979 -0.280953 2.70042 0
M  V30 4643 C 459.435 2.30567 2.76346 0
M  V30 4644 C 459.043 3.77543 2.41175 0
M  V30 4645 C 460.787 2.33818 3.54301 0
M  V30 4646 C 458.694 4.68481 3.60943 0
M  V30 4647 H 457.624 0.488234 0.574581 0
M  V30 4648 H 460.275 1.62554 0.851372 0
M  V30 4649 H 458.657 1.92396 3.46121 0
M  V30 4650 H 459.831 4.24521 1.79216 0
M  V30 4651 H 458.146 3.77187 1.76405 0
M  V30 4652 H 460.743 2.98965 4.4331 0
M  V30 4653 H 461.086 1.3503 3.93793 0
M  V30 4654 H 461.619 2.7067 2.91518 0
M  V30 4655 H 458.358 5.68378 3.26537 0
M  V30 4656 H 457.878 4.2621 4.22025 0
M  V30 4657 H 459.557 4.85366 4.27819 0
M  V30 4658 N 459.689 -1.00246 1.21608 0
M  V30 4659 C 461.1 -1.55511 1.03312 0
M  V30 4660 C 461.451 -1.91946 -0.406332 0
M  V30 4661 O 460.576 -1.73753 -1.28992 0
M  V30 4662 C 461.171 -2.82576 1.86913 0
M  V30 4663 C 459.73 -3.34318 1.72941 0
M  V30 4664 C 458.877 -2.07487 1.83968 0
M  V30 4665 H 461.828 -0.824638 1.35593 0
M  V30 4666 H 461.849 -3.54559 1.38087 0
M  V30 4667 H 461.361 -2.56026 2.91672 0
M  V30 4668 H 459.462 -3.65797 0.70877 0
M  V30 4669 H 459.575 -4.05566 2.55055 0
M  V30 4670 H 457.939 -2.20603 1.27304 0
M  V30 4671 H 458.722 -1.83346 2.9024 0
M  V30 4672 N 461.167 -1.02423 -1.1978 0
M  V30 4673 C 462.444 -0.632802 -1.85081 0
M  V30 4674 C 462.824 0.888745 -1.9148 0
M  V30 4675 O 462.172 1.78357 -1.42832 0
M  V30 4676 C 462.382 -1.28947 -3.24305 0
M  V30 4677 C 463.73 -1.40976 -4.00513 0
M  V30 4678 O 464.754 -1.24628 -3.33686 0
M  V30 4679 O 463.613 -1.67467 -5.20209 0
M  V30 4680 H 460.707 -0.219348 -0.79738 0
M  V30 4681 H 463.253 -1.12209 -1.27307 0
M  V30 4682 H 462.025 -2.3288 -3.14456 0
M  V30 4683 H 461.648 -0.787748 -3.89718 0
M  V30 4684 N 462.645 1.35699 -0.801477 0
M  V30 4685 C 463.608 2.28199 -0.213994 0
M  V30 4686 C 464.608 1.49359 0.595691 0
M  V30 4687 O 465.798 1.69186 0.414921 0
M  V30 4688 C 462.93 3.33587 0.702297 0
M  V30 4689 H 464.123 2.81666 -1.02976 0
M  V30 4690 H 461.676 1.45467 -0.571759 0
M  V30 4691 H 462.411 2.85297 1.54195 0
M  V30 4692 H 462.196 3.91906 0.123484 0
M  V30 4693 H 463.686 4.02638 1.10783 0
M  V30 4694 N 464.123 0.554532 1.47522 0
M  V30 4695 C 465.086 -0.184174 2.28459 0
M  V30 4696 C 466.086 -0.845195 1.36796 0
M  V30 4697 O 467.276 -0.701467 1.59452 0
M  V30 4698 C 464.408 -1.26903 3.16399 0
M  V30 4699 H 465.601 0.526751 2.95238 0
M  V30 4700 H 463.154 0.311375 1.53167 0
M  V30 4701 H 463.889 -2.01244 2.54306 0
M  V30 4702 H 463.674 -0.799883 3.83854 0
M  V30 4703 H 465.164 -1.78794 3.77389 0
M  V30 4704 N 465.601 -1.54893 0.290851 0
M  V30 4705 C 466.534 -2.19289 -0.631489 0
M  V30 4706 C 467.512 -1.15893 -1.14051 0
M  V30 4707 O 468.696 -1.4449 -1.21058 0
M  V30 4708 C 465.823 -2.82866 -1.86291 0
M  V30 4709 C 464.869 -3.997 -1.48801 0
M  V30 4710 S 465.702 -5.32641 -0.552644 0
M  V30 4711 C 466.858 -5.99696 -1.79209 0
M  V30 4712 H 467.091 -2.9718 -0.0843791 0
M  V30 4713 H 464.624 -1.54218 0.075031 0
M  V30 4714 H 466.582 -3.20124 -2.56964 0
M  V30 4715 H 465.243 -2.04839 -2.38117 0
M  V30 4716 H 464.436 -4.42932 -2.40473 0
M  V30 4717 H 464.038 -3.63947 -0.861321 0
M  V30 4718 H 466.33 -6.19886 -2.734 0
M  V30 4719 H 467.273 -6.94071 -1.40251 0
M  V30 4720 H 467.681 -5.29226 -1.96419 0
M  V30 4721 N 467.08 -0.0183926 -1.57589 0
M  V30 4722 C 468.308 0.673046 -1.95647 0
M  V30 4723 C 468.723 1.66275 -0.894312 0
M  V30 4724 O 468.08 1.82072 0.124975 0
M  V30 4725 C 468.131 1.38884 -3.33756 0
M  V30 4726 O 467.852 0.438806 -4.35897 0
M  V30 4727 C 469.353 2.1731 -3.86383 0
M  V30 4728 H 466.573 0.186292 -0.644621 0
M  V30 4729 H 469.117 -0.0749748 -2.04363 0
M  V30 4730 H 467.272 2.08835 -3.26293 0
M  V30 4731 H 467.686 0.945869 -5.15901 0
M  V30 4732 H 469.16 2.62863 -4.85394 0
M  V30 4733 H 469.637 3.00764 -3.20059 0
M  V30 4734 H 470.243 1.52339 -3.97081 0
M  V30 4735 N 468.558 1.5553 0.254621 0
M  V30 4736 C 469.807 1.76202 0.981612 0
M  V30 4737 C 470.12 0.580883 1.86776 0
M  V30 4738 O 471.326 0.670448 2.63092 0
M  V30 4739 C 469.782 3.11921 1.79537 0
M  V30 4740 C 469.39 4.37659 0.956991 0
M  V30 4741 C 471.134 3.41936 2.51555 0
M  V30 4742 C 469.041 5.64411 1.76619 0
M  V30 4743 H 467.971 0.656841 0.370237 0
M  V30 4744 H 470.622 1.81969 0.236556 0
M  V30 4745 H 469.004 3.00241 2.58208 0
M  V30 4746 H 470.178 4.60307 0.21315 0
M  V30 4747 H 468.493 4.14922 0.350497 0
M  V30 4748 H 471.09 4.33849 3.12536 0
M  V30 4749 H 471.433 2.62905 3.22779 0
M  V30 4750 H 471.966 3.54797 1.799 0
M  V30 4751 H 468.705 6.46241 1.09783 0
M  V30 4752 H 468.225 5.45877 2.48551 0
M  V30 4753 H 469.904 6.03386 2.33527 0
M  V30 4754 N 470.036 -0.519951 1.48776 0
M  V30 4755 C 470.999 -1.60574 1.6355 0
M  V30 4756 C 471.999 -1.52557 0.508234 0
M  V30 4757 O 473.189 -1.56047 0.774262 0
M  V30 4758 C 470.321 -3.00211 1.61512 0
M  V30 4759 H 471.514 -1.4881 2.60376 0
M  V30 4760 H 469.067 -0.742772 1.37523 0
M  V30 4761 H 469.802 -3.17471 0.662009 0
M  V30 4762 H 469.587 -3.07439 2.43359 0
M  V30 4763 H 471.077 -3.79134 1.75064 0
M  V30 4764 N 471.514 -1.37532 -0.769588 0
M  V30 4765 C 472.742 -1.36059 -1.55871 0
M  V30 4766 C 473.157 0.053544 -1.88724 0
M  V30 4767 O 472.514 1.01591 -1.5161 0
M  V30 4768 C 472.565 -2.20107 -2.86767 0
M  V30 4769 O 472.286 -3.56009 -2.55321 0
M  V30 4770 C 473.787 -2.26636 -3.80987 0
M  V30 4771 H 471.007 -0.465967 -0.482821 0
M  V30 4772 H 473.551 -1.80901 -0.953686 0
M  V30 4773 H 471.706 -1.78768 -3.43687 0
M  V30 4774 H 472.12 -4.0009 -3.39158 0
M  V30 4775 H 473.594 -2.89763 -4.69831 0
M  V30 4776 H 474.071 -1.2754 -4.20274 0
M  V30 4777 H 474.677 -2.68296 -3.29996 0
M  V30 4778 N 472.992 0.995999 -1.22138 0
M  V30 4779 C 473.955 2.06711 -0.990109 0
M  V30 4780 C 474.955 1.60744 0.0422978 0
M  V30 4781 O 476.145 1.73095 -0.195895 0
M  V30 4782 C 473.277 3.37288 -0.49491 0
M  V30 4783 H 474.47 2.28661 -1.94047 0
M  V30 4784 H 472.023 1.16711 -1.03963 0
M  V30 4785 H 472.758 3.21022 0.459948 0
M  V30 4786 H 472.543 3.71986 -1.23971 0
M  V30 4787 H 474.033 4.16103 -0.353253 0
M  V30 4788 N 474.47 1.03057 1.19235 0
M  V30 4789 C 475.433 0.617418 2.20727 0
M  V30 4790 C 476.433 -0.319856 1.57587 0
M  V30 4791 O 477.623 -0.106633 1.73873 0
M  V30 4792 C 474.755 -0.096296 3.40764 0
M  V30 4793 H 475.948 1.51544 2.58794 0
M  V30 4794 H 473.501 0.821949 1.32942 0
M  V30 4795 H 474.236 -1.00859 3.08217 0
M  V30 4796 H 474.021 0.577217 3.87828 0
M  V30 4797 H 475.511 -0.372219 4.15938 0
M  V30 4798 N 475.948 -1.35272 0.808662 0
M  V30 4799 C 476.878 -2.32315 0.234981 0
M  V30 4800 C 477.859 -1.57572 -0.64071 0
M  V30 4801 O 479.044 -1.8563 -0.570551 0
M  V30 4802 C 476.174 -3.41801 -0.615601 0
M  V30 4803 C 475.128 -4.27694 0.161767 0
M  V30 4804 C 474.454 -5.28519 -0.810649 0
M  V30 4805 C 475.754 -5.04231 1.36193 0
M  V30 4806 H 477.448 -2.80543 1.04575 0
M  V30 4807 H 474.994 -1.3488 0.504315 0
M  V30 4808 H 476.947 -4.08693 -1.02702 0
M  V30 4809 H 475.671 -2.92186 -1.45928 0
M  V30 4810 H 474.33 -3.62384 0.554382 0
M  V30 4811 H 473.978 -4.75171 -1.64988 0
M  V30 4812 H 473.678 -5.8686 -0.294822 0
M  V30 4813 H 475.202 -5.98283 -1.22023 0
M  V30 4814 H 476.616 -5.64058 1.02528 0
M  V30 4815 H 475.013 -5.72077 1.81239 0
M  V30 4816 H 476.083 -4.34753 2.14751 0
M  V30 4817 N 477.426 -0.562348 -1.47226 0
M  V30 4818 C 478.673 -0.0402165 -2.0246 0
M  V30 4819 C 479.001 1.31169 -1.43614 0
M  V30 4820 O 478.256 1.86805 -0.5833 0
M  V30 4821 C 478.555 0.0969817 -3.57268 0
M  V30 4822 C 478.221 -1.1847 -4.35058 0
M  V30 4823 C 476.883 -1.53588 -4.56031 0
M  V30 4824 C 479.235 -2.03378 -4.79882 0
M  V30 4825 C 476.563 -2.73452 -5.19077 0
M  V30 4826 C 478.915 -3.2245 -5.44251 0
M  V30 4827 C 477.579 -3.57876 -5.63455 0
M  V30 4828 H 476.849 -0.0147163 -0.740854 0
M  V30 4829 H 479.496 -0.734895 -1.76838 0
M  V30 4830 H 477.801 0.87466 -3.81912 0
M  V30 4831 H 479.498 0.516408 -3.97661 0
M  V30 4832 H 476.088 -0.90126 -4.19017 0
M  V30 4833 H 480.272 -1.77553 -4.63453 0
M  V30 4834 H 475.528 -3.01062 -5.32139 0
M  V30 4835 H 479.702 -3.88526 -5.77945 0
M  V30 4836 H 477.329 -4.50849 -6.12078 0
M  V30 4837 N 478.904 1.54736 -0.299062 0
M  V30 4838 C 479.867 2.22127 0.565012 0
M  V30 4839 C 480.867 1.20669 1.06281 0
M  V30 4840 O 482.057 1.45417 0.959145 0
M  V30 4841 C 479.189 2.90611 1.78208 0
M  V30 4842 H 480.382 2.99891 -0.0237448 0
M  V30 4843 H 477.935 1.5622 -0.0498788 0
M  V30 4844 H 478.67 2.16921 2.41072 0
M  V30 4845 H 478.455 3.64984 1.43281 0
M  V30 4846 H 479.945 3.42026 2.396 0
M  V30 4847 N 480.382 0.0267497 1.57577 0
M  V30 4848 C 481.329 -0.955894 2.10075 0
M  V30 4849 C 482.299 -1.32453 1.00226 0
M  V30 4850 O 483.484 -1.41826 1.27632 0
M  V30 4851 C 480.624 -2.2338 2.6305 0
M  V30 4852 C 479.737 -1.92183 3.86898 0
M  V30 4853 C 478.872 -3.14251 4.28275 0
M  V30 4854 C 477.911 -2.78862 5.44888 0
M  V30 4855 N 477.048 -3.93548 5.81433 0
M  V30 4856 H 481.888 -0.501303 2.93753 0
M  V30 4857 H 479.425 -0.235847 1.45197 0
M  V30 4858 H 481.383 -2.98124 2.91853 0
M  V30 4859 H 480.013 -2.6646 1.82205 0
M  V30 4860 H 479.065 -1.07692 3.64838 0
M  V30 4861 H 480.377 -1.62117 4.7172 0
M  V30 4862 H 479.531 -3.97317 4.58502 0
M  V30 4863 H 478.27 -3.47476 3.42215 0
M  V30 4864 H 477.275 -1.94208 5.14357 0
M  V30 4865 H 478.5 -2.46855 6.32645 0
M  V30 4866 H 476.446 -4.2662 4.98328 0
M  V30 4867 H 476.363 -3.67098 6.6089 0
M  V30 4868 H 477.631 -4.77325 6.16264 0
M  V30 4869 N 481.861 -1.55662 -0.24637 0
M  V30 4870 C 483.109 -1.77168 -0.972411 0
M  V30 4871 C 483.43 -0.590827 -1.85834 0
M  V30 4872 O 482.7 0.393365 -1.9191 0
M  V30 4873 H 481.28 -0.653405 -0.362038 0
M  V30 4874 H 483.942 -1.93101 -0.264189 0
M  V30 4875 H 483.038 -2.68335 -1.59382 0
M  V30 4876 N 483.339 0.512053 -1.4905 0
M  V30 4877 C 484.567 1.29116 -1.61669 0
M  V30 4878 C 484.982 1.86655 -0.283787 0
M  V30 4879 O 484.339 1.67293 0.729331 0
M  V30 4880 C 484.39 2.4293 -2.67707 0
M  V30 4881 O 484.111 1.87758 -3.95826 0
M  V30 4882 C 485.612 3.34476 -2.90931 0
M  V30 4883 H 482.832 0.392009 -0.544583 0
M  V30 4884 H 485.376 0.615881 -1.95006 0
M  V30 4885 H 483.531 3.06308 -2.37179 0
M  V30 4886 H 483.945 2.62393 -4.54148 0
M  V30 4887 H 485.419 4.10642 -3.68886 0
M  V30 4888 H 485.896 3.90801 -2.00427 0
M  V30 4889 H 486.502 2.76874 -3.22832 0
M  V30 4890 N 484.817 1.37938 0.762283 0
M  V30 4891 C 486.045 1.36883 1.55147 0
M  V30 4892 C 486.46 -0.0435348 1.8875 0
M  V30 4893 O 485.817 -1.00786 1.52146 0
M  V30 4894 C 485.868 2.21624 2.85596 0
M  V30 4895 O 485.589 3.57358 2.5343 0
M  V30 4896 C 487.09 2.28653 3.7978 0
M  V30 4897 H 484.31 0.468521 0.480343 0
M  V30 4898 H 486.854 1.81404 0.944079 0
M  V30 4899 H 485.009 1.80588 3.42734 0
M  V30 4900 H 485.423 4.01883 3.37032 0
M  V30 4901 H 486.897 2.9225 4.68288 0
M  V30 4902 H 487.374 1.29767 4.19592 0
M  V30 4903 H 487.98 2.70043 3.28568 0
M  V30 4904 N 486.295 -0.989507 1.22664 0
M  V30 4905 C 487.523 -1.76496 1.07967 0
M  V30 4906 C 487.938 -1.85148 -0.369543 0
M  V30 4907 O 487.295 -1.32408 -1.25596 0
M  V30 4908 C 487.346 -3.19642 1.68853 0
M  V30 4909 O 487.067 -3.11453 3.08105 0
M  V30 4910 C 488.568 -4.13621 1.59475 0
M  V30 4911 H 485.788 -0.55418 0.378319 0
M  V30 4912 H 488.332 -1.24378 1.62328 0
M  V30 4913 H 486.487 -3.68816 1.18547 0
M  V30 4914 H 486.901 -4.01499 3.37489 0
M  V30 4915 H 488.375 -5.11801 2.06795 0
M  V30 4916 H 488.852 -4.35718 0.55191 0
M  V30 4917 H 489.458 -3.70346 2.09103 0
M  V30 4918 N 487.773 -1.03688 -1.18687 0
M  V30 4919 C 488.703 -0.645407 -2.24403 0
M  V30 4920 C 489.684 0.349511 -1.66471 0
M  V30 4921 O 490.869 0.230453 -1.92828 0
M  V30 4922 C 487.999 -0.00365337 -3.473 0
M  V30 4923 C 486.953 -0.921705 -4.17958 0
M  V30 4924 C 486.279 -0.144629 -5.34504 0
M  V30 4925 C 487.579 -2.23909 -4.71871 0
M  V30 4926 H 489.273 -1.52917 -2.57404 0
M  V30 4927 H 486.819 -0.736711 -1.23728 0
M  V30 4928 H 488.772 0.281908 -4.20456 0
M  V30 4929 H 487.496 0.914963 -3.13522 0
M  V30 4930 H 486.155 -1.19159 -3.46694 0
M  V30 4931 H 485.803 0.776274 -4.96974 0
M  V30 4932 H 485.503 -0.756206 -5.82714 0
M  V30 4933 H 487.027 0.134004 -6.10453 0
M  V30 4934 H 488.441 -2.0145 -5.36741 0
M  V30 4935 H 486.838 -2.8033 -5.30599 0
M  V30 4936 H 487.908 -2.88822 -3.895 0
M  V30 4937 N 489.251 1.34841 -0.815825 0
M  V30 4938 C 490.667 1.51543 -0.500697 0
M  V30 4939 C 490.867 1.76261 0.976444 0
M  V30 4940 O 489.923 1.8094 1.76117 0
M  V30 4941 C 491.236 2.68487 -1.35407 0
M  V30 4942 C 492.784 2.82368 -1.35046 0
M  V30 4943 C 493.259 4.02347 -2.18816 0
M  V30 4944 N 494.75 4.09542 -2.16402 0
M  V30 4945 C 495.485 5.01517 -2.77971 0
M  V30 4946 N 494.981 5.98763 -3.48503 0
M  V30 4947 N 496.774 4.94334 -2.67563 0
M  V30 4948 H 488.925 1.17055 -1.77234 0
M  V30 4949 H 491.188 0.573481 -0.754866 0
M  V30 4950 H 490.894 2.56829 -2.40274 0
M  V30 4951 H 490.768 3.63321 -1.01377 0
M  V30 4952 H 493.155 2.93471 -0.309604 0
M  V30 4953 H 493.236 1.88363 -1.73069 0
M  V30 4954 H 492.88 3.92004 -3.22948 0
M  V30 4955 H 492.81 4.95551 -1.78148 0
M  V30 4956 H 495.301 3.39932 -1.65091 0
M  V30 4957 H 495.614 6.6556 -3.92747 0
M  V30 4958 H 493.959 5.98909 -3.52609 0
M  V30 4959 H 497.15 4.1732 -2.12041 0
M  V30 4960 H 497.323 5.6582 -3.15834 0
M  V30 4961 N 490.729 0.570148 1.46925 0
M  V30 4962 C 491.677 -0.183181 2.31878 0
M  V30 4963 C 492.671 -0.896721 1.43719 0
M  V30 4964 O 493.877 -0.816536 1.60414 0
M  V30 4965 H 490.252 -0.077944 0.74795 0
M  V30 4966 H 492.223 0.552312 2.93244 0
M  V30 4967 C 490.972 -1.19172 3.2664 0
M  V30 4968 H 490.295 -0.652088 3.94446 0
M  V30 4969 H 491.735 -1.68946 3.88887 0
M  V30 4970 C 490.194 -2.24627 2.51086 0
M  V30 4971 O 490.724 -3.31773 2.26472 0
M  V30 4972 N 488.93 -1.98898 2.11867 0
M  V30 4973 H 488.477 -1.11777 2.32086 0
M  V30 4974 H 488.435 -2.6967 1.61634 0
M  V30 4975 N 492.207 -1.54576 0.307264 0
M  V30 4976 C 493.456 -1.99442 -0.300976 0
M  V30 4977 C 493.769 -1.19928 -1.5452 0
M  V30 4978 O 494.975 -1.55092 -2.22842 0
M  V30 4979 C 493.431 -3.55084 -0.586809 0
M  V30 4980 C 493.039 -4.43413 0.639438 0
M  V30 4981 C 494.783 -4.0846 -1.1559 0
M  V30 4982 C 492.69 -5.90499 0.326411 0
M  V30 4983 H 491.62 -0.744986 -0.116238 0
M  V30 4984 H 494.271 -1.787 0.416947 0
M  V30 4985 H 492.653 -3.71749 -1.36449 0
M  V30 4986 H 493.827 -4.38522 1.41545 0
M  V30 4987 H 492.142 -4.00842 1.1276 0
M  V30 4988 H 494.739 -5.15926 -1.40445 0
M  V30 4989 H 495.082 -3.59443 -2.10015 0
M  V30 4990 H 495.615 -3.95362 -0.439778 0
M  V30 4991 H 492.354 -6.43676 1.23939 0
M  V30 4992 H 491.874 -5.98382 -0.412212 0
M  V30 4993 H 493.553 -6.46962 -0.0697393 0
M  V30 4994 N 493.685 -0.035106 -1.57561 0
M  V30 4995 C 494.915 0.651312 -1.96065 0
M  V30 4996 C 495.323 1.6585 -0.910514 0
M  V30 4997 O 494.666 1.83336 0.11552 0
M  V30 4998 C 494.728 1.40897 -3.30739 0
M  V30 4999 C 494.392 0.559436 -4.53563 0
M  V30 5000 C 495.389 -0.16778 -5.19629 0
M  V30 5001 C 493.074 0.495079 -4.99854 0
M  V30 5002 C 495.068 -0.947963 -6.30311 0
M  V30 5003 C 492.755 -0.288804 -6.10417 0
M  V30 5004 C 493.753 -1.00903 -6.75505 0
M  V30 5005 O 493.441 -1.78005 -7.83945 0
M  V30 5006 H 493.173 0.184036 -0.650467 0
M  V30 5007 H 495.727 -0.0929677 -2.05189 0
M  V30 5008 H 493.957 2.19852 -3.18123 0
M  V30 5009 H 495.646 1.98407 -3.54104 0
M  V30 5010 H 496.412 -0.12743 -4.84833 0
M  V30 5011 H 492.291 1.04524 -4.48994 0
M  V30 5012 H 495.835 -1.51064 -6.81047 0
M  V30 5013 H 491.732 -0.33085 -6.44652 0
M  V30 5014 H 492.5 -1.70046 -8.00641 0
M  V30 5015 N 495.163 1.55791 0.238111 0
M  V30 5016 C 496.111 1.91885 1.31464 0
M  V30 5017 C 497.105 0.798929 1.49377 0
M  V30 5018 O 498.311 0.983626 1.50747 0
M  V30 5019 H 494.686 0.609551 0.440399 0
M  V30 5020 H 496.657 2.81747 0.982925 0
M  V30 5021 C 495.406 2.23763 2.6613 0
M  V30 5022 H 494.729 3.09444 2.53149 0
M  V30 5023 H 496.169 2.52915 3.40309 0
M  V30 5024 C 494.628 1.05699 3.1989 0
M  V30 5025 O 495.158 0.309524 4.00506 0
M  V30 5026 N 493.364 0.845251 2.78036 0
M  V30 5027 H 492.911 1.4548 2.12588 0
M  V30 5028 H 492.869 0.0569973 3.14348 0
M  V30 5029 N 496.642 -0.504142 1.49319 0
M  V30 5030 C 497.888 -1.25767 1.59857 0
M  V30 5031 C 498.243 -1.90348 0.280262 0
M  V30 5032 O 497.536 -1.77588 -0.719241 0
M  V30 5033 C 497.73 -2.35021 2.69258 0
M  V30 5034 C 497.559 -1.81154 4.11598 0
M  V30 5035 C 496.329 -1.62596 4.78425 0
M  V30 5036 C 498.527 -1.3252 4.96934 0
M  V30 5037 N 496.509 -1.03625 6.05091 0
M  V30 5038 C 497.88 -0.856633 6.14054 0
M  V30 5039 C 499.935 -1.21063 4.82958 0
M  V30 5040 C 498.638 -0.284841 7.18736 0
M  V30 5041 C 500.664 -0.652815 5.87786 0
M  V30 5042 C 500.026 -0.194461 7.04132 0
M  V30 5043 H 496.125 -0.450293 0.639343 0
M  V30 5044 H 498.709 -0.565344 1.86311 0
M  V30 5045 H 496.88 -3.01719 2.44581 0
M  V30 5046 H 498.612 -3.02061 2.69335 0
M  V30 5047 H 495.367 -1.86873 4.35173 0
M  V30 5048 H 495.791 -0.76076 6.72712 0
M  V30 5049 H 500.433 -1.551 3.93324 0
M  V30 5050 H 498.151 0.0677979 8.08072 0
M  V30 5051 H 501.737 -0.566994 5.79031 0
M  V30 5052 H 500.617 0.230442 7.83861 0
M  V30 5053 N 498.12 -1.38341 -0.754957 0
M  V30 5054 C 499.536 -1.19508 -1.05783 0
M  V30 5055 C 499.736 -0.0428005 -2.01455 0
M  V30 5056 O 498.792 0.611861 -2.44975 0
M  V30 5057 C 500.105 -2.52091 -1.63923 0
M  V30 5058 C 501.653 -2.58762 -1.76101 0
M  V30 5059 C 502.128 -3.91517 -2.37652 0
M  V30 5060 N 503.619 -3.93049 -2.45085 0
M  V30 5061 C 504.354 -4.9253 -2.93602 0
M  V30 5062 N 503.85 -6.02408 -3.42165 0
M  V30 5063 N 505.643 -4.79921 -2.92629 0
M  V30 5064 H 497.794 -2.1206 -0.120056 0
M  V30 5065 H 500.057 -0.94089 -0.11589 0
M  V30 5066 H 499.763 -3.36858 -1.01093 0
M  V30 5067 H 499.637 -2.70388 -2.63003 0
M  V30 5068 H 502.024 -1.74391 -2.38058 0
M  V30 5069 H 502.105 -2.44333 -0.757294 0
M  V30 5070 H 501.749 -4.76309 -1.76329 0
M  V30 5071 H 501.679 -4.03256 -3.38662 0
M  V30 5072 H 504.17 -3.13685 -2.10736 0
M  V30 5073 H 504.483 -6.74248 -3.77637 0
M  V30 5074 H 502.828 -6.0603 -3.40225 0
M  V30 5075 H 506.019 -3.93194 -2.54001 0
M  V30 5076 H 506.192 -5.57601 -3.30128 0
M  V30 5077 N 499.598 0.982988 -1.23187 0
M  V30 5078 C 500.844 1.72648 -1.06398 0
M  V30 5079 C 501.177 1.90066 0.398561 0
M  V30 5080 O 500.452 1.45105 1.29518 0
M  V30 5081 C 500.735 3.12627 -1.78707 0
M  V30 5082 C 500.588 3.02795 -3.32618 0
M  V30 5083 C 501.907 4.11997 -1.54747 0
M  V30 5084 H 499.026 0.626649 -0.387918 0
M  V30 5085 H 501.668 1.14455 -1.51658 0
M  V30 5086 H 499.818 3.62308 -1.40234 0
M  V30 5087 H 501.49 2.60659 -3.80598 0
M  V30 5088 H 499.733 2.39362 -3.61785 0
M  V30 5089 H 500.404 4.01893 -3.78399 0
M  V30 5090 H 502.88 3.71114 -1.88186 0
M  V30 5091 H 501.756 5.08037 -2.07821 0
M  V30 5092 H 502.017 4.39462 -0.482249 0
M  V30 5093 N 501.076 1.04316 1.18135 0
M  V30 5094 C 502.023 0.636398 2.21853 0
M  V30 5095 C 502.993 -0.357039 1.62217 0
M  V30 5096 O 504.178 -0.250453 1.89149 0
M  V30 5097 C 501.318 0.00812779 3.45099 0
M  V30 5098 C 500.431 1.04933 4.19062 0
M  V30 5099 C 499.566 0.389313 5.29771 0
M  V30 5100 C 498.605 1.41544 5.9551 0
M  V30 5101 N 497.742 0.78021 6.97751 0
M  V30 5102 H 502.582 1.52536 2.56002 0
M  V30 5103 H 500.119 0.76304 1.25762 0
M  V30 5104 H 502.077 -0.373497 4.15525 0
M  V30 5105 H 500.707 -0.844336 3.11562 0
M  V30 5106 H 499.759 1.54888 3.47439 0
M  V30 5107 H 501.071 1.82862 4.64072 0
M  V30 5108 H 500.225 -0.0463805 6.06682 0
M  V30 5109 H 498.964 -0.422038 4.8587 0
M  V30 5110 H 497.969 1.86124 5.17337 0
M  V30 5111 H 499.194 2.22854 6.41493 0
M  V30 5112 H 497.14 -0.0107899 6.55999 0
M  V30 5113 H 497.057 1.49716 7.41027 0
M  V30 5114 H 498.325 0.368996 7.78626 0
M  V30 5115 N 502.554 -1.34406 0.822964 0
M  V30 5116 C 503.464 -2.33298 0.246838 0
M  V30 5117 C 504.48 -1.62625 -0.618797 0
M  V30 5118 O 505.656 -1.94391 -0.526685 0
M  V30 5119 C 502.721 -3.41785 -0.581731 0
M  V30 5120 C 501.782 -4.28206 0.306309 0
M  V30 5121 C 501.015 -5.31512 -0.48281 0
M  V30 5122 O 501.238 -5.43973 -1.71607 0
M  V30 5123 O 500.172 -6.01749 0.134884 0
M  V30 5124 H 503.998 -2.84401 1.06534 0
M  V30 5125 H 501.583 -1.37466 0.585108 0
M  V30 5126 H 503.465 -4.08028 -1.05313 0
M  V30 5127 H 502.14 -2.92925 -1.37756 0
M  V30 5128 H 501.047 -3.64885 0.825199 0
M  V30 5129 H 502.38 -4.80507 1.06649 0
M  V30 5130 N 504.032 -0.577932 -1.46621 0
M  V30 5131 C 505.26 -0.0671642 -2.06791 0
M  V30 5132 C 505.675 1.23571 -1.42743 0
M  V30 5133 O 505.032 1.74602 -0.531062 0
M  V30 5134 C 505.083 0.110357 -3.61332 0
M  V30 5135 O 504.804 -1.14095 -4.22982 0
M  V30 5136 C 506.305 0.656025 -4.38419 0
M  V30 5137 H 503.525 -0.0552732 -0.66872 0
M  V30 5138 H 506.069 -0.797242 -1.8832 0
M  V30 5139 H 504.224 0.790637 -3.79246 0
M  V30 5140 H 504.638 -0.951742 -5.15793 0
M  V30 5141 H 506.112 0.729438 -5.47159 0
M  V30 5142 H 506.589 1.67195 -4.06131 0
M  V30 5143 H 507.195 0.0107692 -4.25299 0
M  V30 5144 N 505.51 1.54411 -0.315457 0
M  V30 5145 C 506.787 1.92562 0.343398 0
M  V30 5146 C 507.167 1.24423 1.70535 0
M  V30 5147 O 506.515 0.385051 2.25232 0
M  V30 5148 C 506.725 3.46168 0.443687 0
M  V30 5149 C 508.073 4.18659 0.707783 0
M  V30 5150 O 509.097 3.52281 0.52693 0
M  V30 5151 O 507.956 5.36198 1.05612 0
M  V30 5152 H 505.05 0.80379 0.194552 0
M  V30 5153 H 507.596 1.65738 -0.364577 0
M  V30 5154 H 506.368 3.8792 -0.513172 0
M  V30 5155 H 505.991 3.79073 1.19956 0
M  V30 5156 N 506.988 0.0434614 1.5754 0
M  V30 5157 C 508.404 -0.313039 1.565 0
M  V30 5158 C 508.604 -1.71954 1.05043 0
M  V30 5159 O 507.66 -2.425 0.703564 0
M  V30 5160 C 508.973 -0.148544 3.00333 0
M  V30 5161 C 510.521 -0.220231 3.12224 0
M  V30 5162 C 510.996 -0.0843565 4.57922 0
M  V30 5163 N 512.487 -0.140881 4.62986 0
M  V30 5164 C 513.222 -0.0597443 5.73369 0
M  V30 5165 N 512.718 0.0733004 6.92761 0
M  V30 5166 N 514.511 -0.11477 5.61983 0
M  V30 5167 H 506.662 0.96303 1.89313 0
M  V30 5168 H 508.925 0.373164 0.871466 0
M  V30 5169 H 508.631 0.820894 3.41986 0
M  V30 5170 H 508.505 -0.912798 3.65989 0
M  V30 5171 H 510.892 -1.18014 2.70475 0
M  V30 5172 H 510.973 0.574646 2.49262 0
M  V30 5173 H 510.617 0.872192 5.00355 0
M  V30 5174 H 510.547 -0.898281 5.18882 0
M  V30 5175 H 513.038 -0.243273 3.77116 0
M  V30 5176 H 513.351 0.128128 7.72694 0
M  V30 5177 H 511.696 0.10828 6.94916 0
M  V30 5178 H 514.887 -0.217212 4.67596 0
M  V30 5179 H 515.06 -0.0480779 6.47982 0
M  V30 5180 N 508.466 -1.55915 -0.229846 0
M  V30 5181 C 509.396 -1.94754 -1.28815 0
M  V30 5182 C 510.377 -0.814657 -1.49323 0
M  V30 5183 O 511.562 -1.07631 -1.61645 0
M  V30 5184 C 508.692 -2.25705 -2.63959 0
M  V30 5185 C 507.646 -3.41406 -2.5812 0
M  V30 5186 C 506.972 -3.57941 -3.97218 0
M  V30 5187 C 508.272 -4.76616 -2.13623 0
M  V30 5188 H 509.966 -2.83404 -0.965547 0
M  V30 5189 H 507.512 -1.36353 -0.463028 0
M  V30 5190 H 509.465 -2.51467 -3.38146 0
M  V30 5191 H 508.189 -1.339 -2.9789 0
M  V30 5192 H 506.848 -3.1568 -1.86391 0
M  V30 5193 H 506.496 -2.63526 -4.28443 0
M  V30 5194 H 506.196 -4.35757 -3.94195 0
M  V30 5195 H 507.72 -3.86042 -4.73079 0
M  V30 5196 H 509.134 -5.01637 -2.77549 0
M  V30 5197 H 507.531 -5.57655 -2.21677 0
M  V30 5198 H 508.601 -4.7253 -1.08829 0
M  V30 5199 N 509.944 0.496216 -1.49584 0
M  V30 5200 C 511.191 1.25003 -1.59312 0
M  V30 5201 C 511.519 1.92445 -0.28198 0
M  V30 5202 O 510.774 1.81557 0.730452 0
M  V30 5203 C 511.073 2.3359 -2.705 0
M  V30 5204 C 510.739 1.83574 -4.11839 0
M  V30 5205 C 509.401 1.69653 -4.50302 0
M  V30 5206 C 511.753 1.46193 -5.00277 0
M  V30 5207 C 509.081 1.16736 -5.74969 0
M  V30 5208 C 511.433 0.947265 -6.25468 0
M  V30 5209 C 510.097 0.794485 -6.62755 0
M  V30 5210 H 509.367 0.45742 -0.582965 0
M  V30 5211 H 512.014 0.549996 -1.83432 0
M  V30 5212 H 510.319 3.09401 -2.40371 0
M  V30 5213 H 512.016 2.91627 -2.75235 0
M  V30 5214 H 508.606 1.9537 -3.81482 0
M  V30 5215 H 512.79 1.55793 -4.71214 0
M  V30 5216 H 508.046 1.03623 -6.02555 0
M  V30 5217 H 512.22 0.648846 -6.93371 0
M  V30 5218 H 509.847 0.382271 -7.59238 0
M  V30 5219 N 511.423 1.38739 0.74761 0
M  V30 5220 C 512.386 1.36241 1.84312 0
M  V30 5221 C 513.386 0.261811 1.58654 0
M  V30 5222 O 514.576 0.519031 1.66288 0
M  V30 5223 C 511.708 1.12253 3.21888 0
M  V30 5224 H 512.901 2.33712 1.87933 0
M  V30 5225 H 510.454 1.2412 0.949946 0
M  V30 5226 H 511.189 0.154133 3.23934 0
M  V30 5227 H 510.974 1.91943 3.41907 0
M  V30 5228 H 512.464 1.13215 4.0196 0
M  V30 5229 N 512.901 -0.976442 1.23707 0
M  V30 5230 C 513.834 -2.06793 0.964973 0
M  V30 5231 C 514.812 -1.62304 -0.0981472 0
M  V30 5232 O 515.996 -1.88464 0.0369477 0
M  V30 5233 C 513.123 -3.35636 0.454522 0
M  V30 5234 C 512.169 -3.99069 1.50485 0
M  V30 5235 S 513.002 -4.37814 3.0835 0
M  V30 5236 C 514.158 -5.69805 2.58985 0
M  V30 5237 H 514.391 -2.29556 1.88922 0
M  V30 5238 H 511.924 -1.11317 1.06995 0
M  V30 5239 H 513.882 -4.10162 0.166626 0
M  V30 5240 H 512.543 -3.10876 -0.448871 0
M  V30 5241 H 511.736 -4.91896 1.09792 0
M  V30 5242 H 511.338 -3.30938 1.7423 0
M  V30 5243 H 513.63 -6.46919 2.01252 0
M  V30 5244 H 514.573 -6.15345 3.50366 0
M  V30 5245 H 514.981 -5.27994 1.99705 0
M  V30 5246 N 514.379 -1.04941 -1.1758 0
M  V30 5247 C 515.342 -0.652456 -2.19717 0
M  V30 5248 C 516.342 0.294745 -1.58076 0
M  V30 5249 O 517.532 0.0789579 -1.74021 0
M  V30 5250 C 514.664 0.0420712 -3.40874 0
M  V30 5251 H 515.857 -1.55642 -2.5635 0
M  V30 5252 H 513.41 -0.842995 -1.31618 0
M  V30 5253 H 514.145 0.95943 -3.09783 0
M  V30 5254 H 513.93 -0.638844 -3.86861 0
M  V30 5255 H 515.42 0.306 -4.16477 0
M  V30 5256 N 515.857 1.33968 -0.830081 0
M  V30 5257 C 517.085 2.0228 -0.434773 0
M  V30 5258 C 517.5 1.62487 0.961419 0
M  V30 5259 O 516.857 0.833849 1.62337 0
M  V30 5260 C 516.908 3.5751 -0.535625 0
M  V30 5261 O 516.629 3.95864 -1.87679 0
M  V30 5262 C 518.13 4.43091 -0.136137 0
M  V30 5263 H 515.35 0.648151 -0.173613 0
M  V30 5264 H 517.894 1.71089 -1.12022 0
M  V30 5265 H 516.049 3.87266 0.101817 0
M  V30 5266 H 516.463 4.9056 -1.85609 0
M  V30 5267 H 517.937 5.51398 -0.257772 0
M  V30 5268 H 518.414 4.29433 0.921076 0
M  V30 5269 H 519.02 4.18677 -0.747662 0
M  V30 5270 N 517.335 0.585699 1.46312 0
M  V30 5271 C 518.245 -0.148236 2.34131 0
M  V30 5272 C 519.261 -0.882972 1.49932 0
M  V30 5273 O 520.437 -0.845484 1.82794 0
M  V30 5274 C 517.502 -1.14714 3.27172 0
M  V30 5275 C 516.563 -0.416746 4.27272 0
M  V30 5276 C 515.796 -1.36806 5.15868 0
M  V30 5277 O 516.019 -2.60475 5.07454 0
M  V30 5278 O 514.953 -0.877018 5.95476 0
M  V30 5279 H 518.779 0.572882 2.98248 0
M  V30 5280 H 516.364 0.346082 1.45336 0
M  V30 5281 H 518.246 -1.72303 3.84564 0
M  V30 5282 H 516.921 -1.84967 2.65648 0
M  V30 5283 H 515.828 0.201061 3.73559 0
M  V30 5284 H 517.161 0.244872 4.9159 0
M  V30 5285 N 518.813 -1.54241 0.323641 0
M  V30 5286 C 519.743 -2.27289 -0.534993 0
M  V30 5287 C 520.724 -1.28087 -1.11927 0
M  V30 5288 O 521.909 -1.56899 -1.14439 0
M  V30 5289 C 519.039 -3.03075 -1.69596 0
M  V30 5290 C 517.993 -4.09614 -1.24098 0
M  V30 5291 C 517.319 -4.73242 -2.4889 0
M  V30 5292 C 518.619 -5.21087 -0.355789 0
M  V30 5293 H 520.313 -2.99308 0.0743257 0
M  V30 5294 H 517.859 -1.43952 0.0371874 0
M  V30 5295 H 519.812 -3.52907 -2.30293 0
M  V30 5296 H 518.536 -2.28673 -2.33187 0
M  V30 5297 H 517.195 -3.60666 -0.656945 0
M  V30 5298 H 516.843 -3.95455 -3.10845 0
M  V30 5299 H 516.543 -5.45209 -2.19138 0
M  V30 5300 H 518.067 -5.25848 -3.10348 0
M  V30 5301 H 519.481 -5.66675 -0.869042 0
M  V30 5302 H 517.878 -5.9991 -0.151045 0
M  V30 5303 H 518.948 -4.81005 0.613339 0
M  V30 5304 N 520.291 -0.0518155 -1.57515 0
M  V30 5305 C 521.707 0.304735 -1.56664 0
M  V30 5306 C 521.907 1.71395 -1.05953 0
M  V30 5307 O 520.963 2.42123 -0.716414 0
M  V30 5308 C 522.276 0.132614 -3.00407 0
M  V30 5309 C 523.824 0.20367 -3.12337 0
M  V30 5310 C 524.299 0.0600706 -4.57961 0
M  V30 5311 N 525.79 0.116326 -4.63054 0
M  V30 5312 C 526.525 0.0293363 -5.73392 0
M  V30 5313 N 526.021 -0.110038 -6.92713 0
M  V30 5314 N 527.814 0.0849651 -5.62036 0
M  V30 5315 H 519.965 -0.973056 -1.888 0
M  V30 5316 H 522.228 -0.377781 -0.869474 0
M  V30 5317 H 521.934 -0.839019 -3.41546 0
M  V30 5318 H 521.808 0.893376 -3.66468 0
M  V30 5319 H 524.195 1.16578 -2.71097 0
M  V30 5320 H 524.276 -0.587857 -2.48954 0
M  V30 5321 H 523.92 -0.898715 -4.99886 0
M  V30 5322 H 523.85 0.87075 -5.19351 0
M  V30 5323 H 526.341 0.22327 -3.7724 0
M  V30 5324 H 526.654 -0.169104 -7.72615 0
M  V30 5325 H 524.999 -0.145132 -6.94848 0
M  V30 5326 H 528.19 0.192411 -4.67704 0
M  V30 5327 H 528.363 0.0137131 -6.47999 0
M  V30 5328 N 521.769 1.56035 0.221574 0
M  V30 5329 C 522.716 1.92413 1.27459 0
M  V30 5330 C 523.686 0.781323 1.46576 0
M  V30 5331 O 524.871 1.03721 1.60145 0
M  V30 5332 C 522.011 2.24617 2.61995 0
M  V30 5333 C 521.124 3.51831 2.50677 0
M  V30 5334 C 520.259 3.73482 3.77736 0
M  V30 5335 C 519.298 4.94211 3.6114 0
M  V30 5336 N 518.435 5.12252 4.80148 0
M  V30 5337 H 523.275 2.82203 0.957355 0
M  V30 5338 H 520.812 1.39676 0.461415 0
M  V30 5339 H 522.77 2.41298 3.40339 0
M  V30 5340 H 521.4 1.38 2.91815 0
M  V30 5341 H 520.452 3.43343 1.63767 0
M  V30 5342 H 521.764 4.40328 2.34334 0
M  V30 5343 H 520.918 3.9026 4.64523 0
M  V30 5344 H 519.657 2.83266 3.97003 0
M  V30 5345 H 518.662 4.77384 2.72736 0
M  V30 5346 H 519.887 5.85912 3.43343 0
M  V30 5347 H 517.833 4.24978 4.99729 0
M  V30 5348 H 517.75 5.94881 4.66532 0
M  V30 5349 H 519.018 5.33465 5.68362 0
M  V30 5350 N 523.247 -0.488276 1.49845 0
M  V30 5351 C 524.493 -1.24341 1.6021 0
M  V30 5352 C 524.826 -1.91967 0.293651 0
M  V30 5353 O 524.101 -1.81323 -0.703718 0
M  V30 5354 C 524.384 -2.3005 2.77036 0
M  V30 5355 C 524.237 -1.66842 4.17713 0
M  V30 5356 C 525.556 -3.31509 2.89464 0
M  V30 5357 H 522.675 -0.450704 0.583125 0
M  V30 5358 H 525.317 -0.539673 1.82174 0
M  V30 5359 H 523.467 -2.90071 2.58439 0
M  V30 5360 H 525.139 -1.1055 4.47858 0
M  V30 5361 H 523.382 -0.972079 4.22768 0
M  V30 5362 H 524.053 -2.43576 4.95353 0
M  V30 5363 H 526.529 -2.81493 3.06433 0
M  V30 5364 H 525.405 -4.02822 3.72861 0
M  V30 5365 H 525.666 -3.94603 1.99351 0
M  V30 5366 N 524.725 -1.39134 -0.740242 0
M  V30 5367 C 525.973 -1.35803 -1.49673 0
M  V30 5368 C 526.294 0.0470897 -1.94943 0
M  V30 5369 O 525.564 0.997347 -1.68611 0
M  V30 5370 H 524.144 -0.499736 -0.555224 0
M  V30 5371 H 526.806 -1.73947 -0.879107 0
M  V30 5372 H 525.902 -2.0174 -2.38133 0
M  V30 5373 N 526.204 0.969867 -1.24223 0
M  V30 5374 C 527.167 2.04564 -1.03373 0
M  V30 5375 C 528.167 1.60798 0.00819206 0
M  V30 5376 O 529.357 1.72641 -0.232567 0
M  V30 5377 C 526.489 3.36163 -0.566343 0
M  V30 5378 H 527.682 2.24494 -1.98853 0
M  V30 5379 H 525.235 1.1448 -1.06415 0
M  V30 5380 H 525.97 3.21925 0.391751 0
M  V30 5381 H 525.755 3.69273 -1.31834 0
M  V30 5382 H 527.245 4.1526 -0.441435 0
M  V30 5383 N 527.682 1.05563 1.17022 0
M  V30 5384 C 528.592 0.670758 2.24807 0
M  V30 5385 C 529.608 -0.309865 1.71219 0
M  V30 5386 O 530.784 -0.161025 2.00755 0
M  V30 5387 C 527.849 0.055337 3.46656 0
M  V30 5388 C 526.91 1.08688 4.15314 0
M  V30 5389 C 526.143 0.500736 5.31346 0
M  V30 5390 O 526.366 -0.688718 5.66227 0
M  V30 5391 O 525.3 1.23683 5.89055 0
M  V30 5392 H 529.126 1.56914 2.60023 0
M  V30 5393 H 526.711 0.827428 1.24395 0
M  V30 5394 H 528.593 -0.286492 4.20425 0
M  V30 5395 H 527.268 -0.816638 3.13229 0
M  V30 5396 H 526.175 1.48077 3.43546 0
M  V30 5397 H 527.508 1.93014 4.52777 0
M  V30 5398 N 529.16 -1.33526 0.837174 0
M  V30 5399 C 530.406 -1.9813 0.432704 0
M  V30 5400 C 530.739 -1.66168 -1.00508 0
M  V30 5401 O 530.014 -0.94069 -1.70239 0
M  V30 5402 C 530.297 -3.54151 0.651834 0
M  V30 5403 C 530.15 -3.95806 2.13676 0
M  V30 5404 C 531.469 -4.39993 0.0968937 0
M  V30 5405 H 528.588 -0.719713 0.15869 0
M  V30 5406 H 531.23 -1.58193 1.05237 0
M  V30 5407 H 529.38 -3.88301 0.124369 0
M  V30 5408 H 531.052 -3.71921 2.72896 0
M  V30 5409 H 529.295 -3.45599 2.62191 0
M  V30 5410 H 529.966 -5.0447 2.24084 0
M  V30 5411 H 532.442 -4.12479 0.547733 0
M  V30 5412 H 531.318 -5.48186 0.279917 0
M  V30 5413 H 531.579 -4.3066 -0.9992 0
M  V30 5414 N 530.638 -0.59345 -1.46 0
M  V30 5415 C 531.548 0.135817 -2.34207 0
M  V30 5416 C 532.564 0.875008 -1.50398 0
M  V30 5417 O 533.74 0.835778 -1.83239 0
M  V30 5418 C 530.805 1.12977 -3.27776 0
M  V30 5419 C 529.866 0.394081 -4.27487 0
M  V30 5420 C 529.099 1.34068 -5.16586 0
M  V30 5421 O 529.322 2.5778 -5.08828 0
M  V30 5422 O 528.256 0.845426 -5.95933 0
M  V30 5423 H 532.082 -0.588691 -2.9794 0
M  V30 5424 H 529.667 -0.353784 -1.45151 0
M  V30 5425 H 531.549 1.70261 -3.85473 0
M  V30 5426 H 530.224 1.83556 -2.66625 0
M  V30 5427 H 529.131 -0.220869 -3.73447 0
M  V30 5428 H 530.464 -0.270939 -4.91454 0
M  V30 5429 N 532.116 1.54067 -0.331816 0
M  V30 5430 C 533.026 2.28322 0.539104 0
M  V30 5431 C 534.042 1.32985 1.1221 0
M  V30 5432 O 535.218 1.6601 1.1403 0
M  V30 5433 C 532.283 3.03277 1.68 0
M  V30 5434 C 531.344 4.14216 1.12798 0
M  V30 5435 C 530.577 4.85588 2.2145 0
M  V30 5436 O 530.8 4.56536 3.41952 0
M  V30 5437 O 529.734 5.72309 1.86404 0
M  V30 5438 H 533.56 3.03632 -0.0641692 0
M  V30 5439 H 531.145 1.49083 -0.0972365 0
M  V30 5440 H 533.027 3.50189 2.34405 0
M  V30 5441 H 531.702 2.30834 2.2693 0
M  V30 5442 H 530.609 3.71635 0.428782 0
M  V30 5443 H 531.942 4.88727 0.583698 0
M  V30 5444 N 533.594 0.0601682 1.57485 0
M  V30 5445 C 534.842 -0.610386 1.92662 0
M  V30 5446 C 535.163 -1.70849 0.939981 0
M  V30 5447 O 534.433 -1.95895 -0.0137455 0
M  V30 5448 H 533.013 -0.228457 0.711208 0
M  V30 5449 H 535.675 0.115288 1.94559 0
M  V30 5450 H 534.771 -1.0432 2.94149 0
M  V30 5451 N 535.072 -1.5615 -0.213296 0
M  V30 5452 C 536.022 -1.89485 -1.26804 0
M  V30 5453 C 537.006 -0.758713 -1.41889 0
M  V30 5454 O 538.198 -1.02127 -1.44565 0
M  V30 5455 C 535.327 -2.22219 -2.61675 0
M  V30 5456 C 534.413 -3.42245 -2.50458 0
M  V30 5457 N 534.804 -4.60645 -2.089 0
M  V30 5458 C 533.102 -3.46023 -2.81397 0
M  V30 5459 C 533.803 -5.42805 -2.09135 0
M  V30 5460 N 532.779 -4.82732 -2.49941 0
M  V30 5461 H 536.581 -2.78537 -0.937771 0
M  V30 5462 H 534.095 -1.56826 -0.421824 0
M  V30 5463 H 536.092 -2.44278 -3.37837 0
M  V30 5464 H 534.752 -1.34484 -2.95541 0
M  V30 5465 H 535.763 -4.85651 -1.79899 0
M  V30 5466 H 532.44 -2.68654 -3.1958 0
M  V30 5467 H 533.83 -6.47601 -1.79059 0
M  V30 5468 N 536.55 0.480323 -1.50102 0
M  V30 5469 C 537.827 1.24159 -1.51142 0
M  V30 5470 C 538.207 2.09605 -0.250818 0
M  V30 5471 O 537.555 2.15274 0.766118 0
M  V30 5472 C 537.765 2.08057 -2.80202 0
M  V30 5473 C 539.113 2.66556 -3.30504 0
M  V30 5474 O 540.137 2.18308 -2.81461 0
M  V30 5475 O 538.996 3.54442 -4.15973 0
M  V30 5476 H 536.09 0.562928 -0.605839 0
M  V30 5477 H 538.636 0.492899 -1.62384 0
M  V30 5478 H 537.408 1.45032 -3.6343 0
M  V30 5479 H 537.031 2.90079 -2.71919 0
M  V30 5480 N 538.028 1.39524 0.732853 0
M  V30 5481 C 539.258 1.3994 1.51988 0
M  V30 5482 C 539.666 -0.00727973 1.89199 0
M  V30 5483 O 539.009 -0.989521 1.54771 0
M  V30 5484 C 539.071 2.21026 2.83527 0
M  V30 5485 C 538.735 3.69633 2.68738 0
M  V30 5486 C 539.732 4.62665 2.37143 0
M  V30 5487 C 537.417 4.13244 2.85542 0
M  V30 5488 C 539.411 5.97291 2.22536 0
M  V30 5489 C 537.098 5.47945 2.70554 0
M  V30 5490 C 538.096 6.39783 2.39097 0
M  V30 5491 O 537.784 7.72002 2.24204 0
M  V30 5492 H 537.516 0.479795 0.476206 0
M  V30 5493 H 540.07 1.8399 0.913054 0
M  V30 5494 H 538.3 1.71728 3.46477 0
M  V30 5495 H 539.989 2.13594 3.45156 0
M  V30 5496 H 540.755 4.30272 2.2381 0
M  V30 5497 H 536.634 3.42094 3.09019 0
M  V30 5498 H 540.178 6.68939 1.97905 0
M  V30 5499 H 536.075 5.79928 2.83466 0
M  V30 5500 H 536.843 7.8275 2.39258 0
M  V30 5501 N 539.506 -0.963266 1.24736 0
M  V30 5502 C 540.755 -1.70115 1.08369 0
M  V30 5503 C 541.068 -1.91939 -0.376688 0
M  V30 5504 O 542.274 -2.6334 -0.660624 0
M  V30 5505 C 540.73 -3.06218 1.89099 0
M  V30 5506 C 540.338 -2.92221 3.39574 0
M  V30 5507 C 542.082 -3.83848 1.81275 0
M  V30 5508 C 539.989 -4.23662 4.12631 0
M  V30 5509 H 538.919 -0.637944 0.401924 0
M  V30 5510 H 541.57 -1.07304 1.48856 0
M  V30 5511 H 539.952 -3.69884 1.41429 0
M  V30 5512 H 541.126 -2.37541 3.94856 0
M  V30 5513 H 539.441 -2.28054 3.48397 0
M  V30 5514 H 542.038 -4.81188 2.33158 0
M  V30 5515 H 542.381 -4.08949 0.778895 0
M  V30 5516 H 542.914 -3.26918 2.26649 0
M  V30 5517 H 539.653 -4.03753 5.16395 0
M  V30 5518 H 539.173 -4.78141 3.62135 0
M  V30 5519 H 540.852 -4.92256 4.19873 0
M  V30 5520 N 540.985 -1.06182 -1.16461 0
M  V30 5521 C 542.401 -0.785065 -1.38956 0
M  V30 5522 C 542.601 0.616103 -1.9185 0
M  V30 5523 O 541.657 1.37686 -2.11657 0
M  V30 5524 C 542.97 -1.84902 -2.37132 0
M  V30 5525 C 544.518 -1.8724 -2.50819 0
M  V30 5526 C 544.993 -2.92686 -3.52277 0
M  V30 5527 N 546.484 -2.91712 -3.59803 0
M  V30 5528 C 547.219 -3.69949 -4.38093 0
M  V30 5529 N 546.715 -4.58 -5.19815 0
M  V30 5530 N 548.508 -3.58346 -4.33064 0
M  V30 5531 H 540.659 -1.96569 -0.804634 0
M  V30 5532 H 542.922 -0.851747 -0.416211 0
M  V30 5533 H 542.628 -2.85518 -2.0536 0
M  V30 5534 H 542.502 -1.69908 -3.36766 0
M  V30 5535 H 544.889 -0.872827 -2.81897 0
M  V30 5536 H 544.97 -2.06311 -1.51226 0
M  V30 5537 H 544.614 -3.92835 -3.21937 0
M  V30 5538 H 544.544 -2.70864 -4.51598 0
M  V30 5539 H 547.035 -2.27876 -3.01464 0
M  V30 5540 H 547.348 -5.14357 -5.76764 0
M  V30 5541 H 545.693 -4.62056 -5.19162 0
M  V30 5542 H 548.884 -2.88943 -3.68279 0
M  V30 5543 H 549.057 -4.19563 -4.93833 0
M  V30 5544 N 542.463 1.3308 -0.844243 0
M  V30 5545 C 543.712 1.96868 -0.438833 0
M  V30 5546 C 544.025 1.67599 1.00846 0
M  V30 5547 O 545.231 2.25043 1.51881 0
M  V30 5548 C 543.687 3.5234 -0.73377 0
M  V30 5549 C 543.295 3.90481 -2.1961 0
M  V30 5550 C 545.039 4.22653 -0.395574 0
M  V30 5551 C 542.946 5.38954 -2.43481 0
M  V30 5552 H 541.876 0.736749 -0.160364 0
M  V30 5553 H 544.527 1.51623 -1.03358 0
M  V30 5554 H 542.909 3.95941 -0.068589 0
M  V30 5555 H 544.083 3.57922 -2.90221 0
M  V30 5556 H 542.398 3.33165 -2.4978 0
M  V30 5557 H 544.995 5.31848 -0.551477 0
M  V30 5558 H 545.338 4.11004 0.661921 0
M  V30 5559 H 545.871 3.84601 -1.01621 0
M  V30 5560 H 542.61 5.55612 -3.47816 0
M  V30 5561 H 542.13 5.72954 -1.77437 0
M  V30 5562 H 543.809 6.05907 -2.26905 0
M  V30 5563 N 543.941 0.601185 1.45683 0
M  V30 5564 C 545.169 0.100054 2.06658 0
M  V30 5565 C 545.584 -1.21285 1.44691 0
M  V30 5566 O 544.941 -1.73735 0.558772 0
M  V30 5567 C 544.992 -0.0528579 3.61461 0
M  V30 5568 O 544.713 1.20809 4.21114 0
M  V30 5569 C 546.214 -0.586193 4.39407 0
M  V30 5570 H 543.434 0.065905 0.667756 0
M  V30 5571 H 545.978 0.827101 1.87028 0
M  V30 5572 H 544.133 -0.730203 3.80456 0
M  V30 5573 H 544.547 1.03368 5.14213 0
M  V30 5574 H 546.021 -0.642297 5.4825 0
M  V30 5575 H 546.498 -1.60713 4.0874 0
M  V30 5576 H 547.104 0.0568935 4.25262 0
M  V30 5577 N 545.419 -1.53889 0.339982 0
M  V30 5578 C 546.83 -1.86139 -0.144671 0
M  V30 5579 C 547.181 -1.2613 -1.50285 0
M  V30 5580 O 546.306 -0.573515 -2.08662 0
M  V30 5581 C 546.901 -3.37728 -0.269285 0
M  V30 5582 C 545.46 -3.69868 -0.698168 0
M  V30 5583 C 544.607 -2.76777 0.170249 0
M  V30 5584 H 547.558 -1.48503 0.559704 0
M  V30 5585 H 547.579 -3.64331 -1.0974 0
M  V30 5586 H 547.091 -3.81375 0.719366 0
M  V30 5587 H 545.192 -3.31764 -1.69597 0
M  V30 5588 H 545.305 -4.76582 -0.490533 0
M  V30 5589 H 543.669 -2.52188 -0.356844 0
M  V30 5590 H 544.452 -3.23253 1.15597 0
M  V30 5591 N 546.897 -0.0685191 -1.57451 0
M  V30 5592 C 548.308 0.464634 -1.80826 0
M  V30 5593 C 548.659 1.69847 -0.982169 0
M  V30 5594 O 547.784 2.15439 -0.203734 0
M  V30 5595 C 548.379 0.849721 -3.27971 0
M  V30 5596 C 546.938 1.32776 -3.52204 0
M  V30 5597 C 546.085 0.311332 -2.75547 0
M  V30 5598 H 549.036 -0.294248 -1.55948 0
M  V30 5599 H 549.057 1.71138 -3.39841 0
M  V30 5600 H 548.569 -0.0484736 -3.8807 0
M  V30 5601 H 546.67 2.24456 -2.97406 0
M  V30 5602 H 546.783 1.30794 -4.60901 0
M  V30 5603 H 545.147 0.787915 -2.42206 0
M  V30 5604 H 545.93 -0.579078 -3.38381 0
M  V30 5605 N 548.375 1.56261 0.205012 0
M  V30 5606 C 549.285 1.96944 1.27476 0
M  V30 5607 C 550.301 0.875636 1.50362 0
M  V30 5608 O 551.477 1.18058 1.6317 0
M  V30 5609 C 548.542 2.29219 2.60115 0
M  V30 5610 C 547.603 3.52255 2.45387 0
M  V30 5611 C 546.836 3.8298 3.71701 0
M  V30 5612 O 547.059 3.15138 4.75441 0
M  V30 5613 O 545.993 4.76435 3.67823 0
M  V30 5614 H 549.819 2.88144 0.959527 0
M  V30 5615 H 547.404 1.43686 0.409217 0
M  V30 5616 H 549.286 2.51098 3.3842 0
M  V30 5617 H 547.961 1.4119 2.91285 0
M  V30 5618 H 546.868 3.35635 1.65227 0
M  V30 5619 H 548.201 4.40719 2.19152 0
M  V30 5620 N 549.853 -0.472356 1.50355 0
M  V30 5621 C 550.8 -1.57051 1.69126 0
M  V30 5622 C 551.77 -1.5733 0.532574 0
M  V30 5623 O 552.955 -1.7488 0.762994 0
M  V30 5624 C 550.095 -2.95033 1.79024 0
M  V30 5625 C 549.208 -3.04552 3.06386 0
M  V30 5626 C 548.343 -4.33441 3.07087 0
M  V30 5627 C 547.382 -4.36697 4.28908 0
M  V30 5628 N 546.519 -5.57056 4.27356 0
M  V30 5629 H 551.359 -1.40351 2.62879 0
M  V30 5630 H 548.896 -0.682403 1.30314 0
M  V30 5631 H 550.854 -3.75048 1.82744 0
M  V30 5632 H 549.484 -3.10371 0.887109 0
M  V30 5633 H 548.536 -2.17419 3.12143 0
M  V30 5634 H 549.848 -3.02818 3.96362 0
M  V30 5635 H 549.002 -5.21801 3.09529 0
M  V30 5636 H 547.741 -4.37782 2.14939 0
M  V30 5637 H 546.746 -3.46734 4.2668 0
M  V30 5638 H 547.971 -4.34049 5.22282 0
M  V30 5639 H 545.917 -5.62184 3.3806 0
M  V30 5640 H 545.834 -5.57058 5.111 0
M  V30 5641 H 547.102 -6.47545 4.33942 0
M  V30 5642 N 551.331 -1.39911 -0.725443 0
M  V30 5643 C 552.261 -1.42138 -1.85254 0
M  V30 5644 C 553.242 -0.283513 -1.67721 0
M  V30 5645 O 554.427 -0.490717 -1.87898 0
M  V30 5646 C 551.557 -1.27354 -3.23107 0
M  V30 5647 C 550.511 -2.3864 -3.55296 0
M  V30 5648 C 549.837 -2.08939 -4.92188 0
M  V30 5649 C 551.137 -3.8097 -3.57295 0
M  V30 5650 H 552.831 -2.36461 -1.83648 0
M  V30 5651 H 550.377 -1.13817 -0.882138 0
M  V30 5652 H 552.33 -1.2753 -4.01639 0
M  V30 5653 H 551.054 -0.295025 -3.25265 0
M  V30 5654 H 549.713 -2.37696 -2.79099 0
M  V30 5655 H 549.361 -1.09502 -4.90936 0
M  V30 5656 H 549.061 -2.83491 -5.14691 0
M  V30 5657 H 550.585 -2.10781 -5.73065 0
M  V30 5658 H 551.999 -3.8379 -4.25885 0
M  V30 5659 H 550.396 -4.5496 -3.9132 0
M  V30 5660 H 551.466 -4.11261 -2.5689 0
M  V30 5661 N 552.809 0.956637 -1.25245 0
M  V30 5662 C 553.757 2.0743 -1.0524 0
M  V30 5663 C 554.751 1.69392 0.0160725 0
M  V30 5664 O 555.957 1.7946 -0.139382 0
M  V30 5665 H 552.332 0.678921 -0.323373 0
M  V30 5666 H 554.303 2.2146 -1.99995 0
M  V30 5667 C 553.052 3.40872 -0.685702 0
M  V30 5668 H 552.375 3.70607 -1.49968 0
M  V30 5669 H 553.815 4.19939 -0.585415 0
M  V30 5670 C 552.274 3.31367 0.608082 0
M  V30 5671 O 552.804 3.66214 1.65076 0
M  V30 5672 N 551.01 2.84486 0.592955 0
M  V30 5673 H 550.557 2.56326 -0.25592 0
M  V30 5674 H 550.515 2.78509 1.45877 0
M  V30 5675 N 554.287 1.06798 1.15896 0
M  V30 5676 C 555.534 0.787767 1.86549 0
M  V30 5677 C 555.862 -0.685959 1.82002 0
M  V30 5678 O 555.117 -1.5188 1.23414 0
M  V30 5679 C 555.416 1.23414 3.35416 0
M  V30 5680 C 555.082 2.71285 3.6016 0
M  V30 5681 C 553.744 3.11676 3.66622 0
M  V30 5682 C 556.096 3.6676 3.7032 0
M  V30 5683 C 553.424 4.4637 3.8075 0
M  V30 5684 C 555.776 5.01209 3.8597 0
M  V30 5685 C 554.44 5.41229 3.90676 0
M  V30 5686 H 553.71 0.288264 0.682631 0
M  V30 5687 H 556.357 1.338 1.37003 0
M  V30 5688 H 554.662 0.60319 3.87129 0
M  V30 5689 H 556.359 0.994298 3.88477 0
M  V30 5690 H 552.949 2.39015 3.55767 0
M  V30 5691 H 557.133 3.36685 3.64633 0
M  V30 5692 H 552.389 4.76855 3.82648 0
M  V30 5693 H 556.563 5.75067 3.92773 0
M  V30 5694 H 554.19 6.45602 4.01375 0
M  V30 5695 N 555.766 -1.3263 0.851289 0
M  V30 5696 C 556.729 -2.27247 0.298541 0
M  V30 5697 C 557.729 -1.51467 -0.539847 0
M  V30 5698 O 558.919 -1.7061 -0.351843 0
M  V30 5699 C 556.051 -3.35964 -0.578004 0
M  V30 5700 H 557.244 -2.7765 1.13359 0
M  V30 5701 H 554.797 -1.43245 0.625354 0
M  V30 5702 H 555.532 -2.90823 -1.435 0
M  V30 5703 H 555.317 -3.92094 0.0220539 0
M  V30 5704 H 556.807 -4.06472 -0.957626 0
M  V30 5705 N 557.244 -0.608902 -1.45362 0
M  V30 5706 C 558.154 0.110969 -2.34337 0
M  V30 5707 C 559.17 0.859007 -1.51318 0
M  V30 5708 O 560.346 0.816296 -1.84116 0
M  V30 5709 C 557.411 1.09494 -3.28956 0
M  V30 5710 C 556.472 0.348718 -4.27881 0
M  V30 5711 C 555.705 1.28582 -5.17979 0
M  V30 5712 O 555.928 2.52369 -5.11533 0
M  V30 5713 O 554.862 0.782172 -5.96796 0
M  V30 5714 H 558.688 -0.620258 -2.97299 0
M  V30 5715 H 556.273 -0.36916 -1.44767 0
M  V30 5716 H 558.155 1.66163 -3.87257 0
M  V30 5717 H 556.83 1.80717 -2.68557 0
M  V30 5718 H 555.737 -0.260465 -3.73192 0
M  V30 5719 H 557.07 -0.323049 -4.91139 0
M  V30 5720 N 558.722 1.53707 -0.348139 0
M  V30 5721 C 559.971 2.0017 0.247992 0
M  V30 5722 C 560.284 1.23983 1.51286 0
M  V30 5723 O 561.49 1.60946 2.18652 0
M  V30 5724 C 559.946 3.56515 0.492459 0
M  V30 5725 C 559.554 4.41562 -0.756777 0
M  V30 5726 C 561.298 4.11381 1.0472 0
M  V30 5727 C 559.205 5.89426 -0.482856 0
M  V30 5728 H 558.135 0.747806 0.0964452 0
M  V30 5729 H 560.786 1.77532 -0.464179 0
M  V30 5730 H 559.168 3.75236 1.26545 0
M  V30 5731 H 560.342 4.34615 -1.53122 0
M  V30 5732 H 558.657 3.97711 -1.23348 0
M  V30 5733 H 561.254 5.19468 1.26717 0
M  V30 5734 H 561.597 3.64885 2.00411 0
M  V30 5735 H 562.13 3.96389 0.334801 0
M  V30 5736 H 558.869 6.40164 -1.40962 0
M  V30 5737 H 558.389 5.99264 0.253416 0
M  V30 5738 H 560.068 6.4692 -0.101816 0
M  V30 5739 N 560.2 0.0768682 1.57412 0
M  V30 5740 C 561.163 -0.873949 2.11884 0
M  V30 5741 C 562.163 -1.22301 1.04398 0
M  V30 5742 O 563.353 -1.15545 1.30365 0
M  V30 5743 C 560.485 -2.17575 2.62438 0
M  V30 5744 H 561.678 -0.401278 2.97203 0
M  V30 5745 H 559.231 -0.171904 1.55352 0
M  V30 5746 H 559.966 -2.69368 1.80587 0
M  V30 5747 H 559.751 -1.93534 3.41009 0
M  V30 5748 H 561.241 -2.85631 3.04639 0
M  V30 5749 N 561.678 -1.56367 -0.196722 0
M  V30 5750 C 562.906 -1.84639 -0.933608 0
M  V30 5751 C 563.321 -0.659164 -1.76919 0
M  V30 5752 O 562.678 0.372142 -1.78665 0
M  V30 5753 C 562.729 -3.11694 -1.83109 0
M  V30 5754 O 562.45 -4.25838 -1.02924 0
M  V30 5755 C 563.951 -3.53132 -2.67979 0
M  V30 5756 H 561.171 -0.613188 -0.272473 0
M  V30 5757 H 563.715 -2.03475 -0.204465 0
M  V30 5758 H 561.87 -2.94759 -2.51387 0
M  V30 5759 H 562.284 -4.98178 -1.64069 0
M  V30 5760 H 563.758 -4.45005 -3.26611 0
M  V30 5761 H 564.235 -2.76045 -3.41608 0
M  V30 5762 H 564.841 -3.72592 -2.05074 0
M  V30 5763 N 563.156 0.464375 -1.50603 0
M  V30 5764 C 564.386 1.23727 -1.65454 0
M  V30 5765 C 564.794 1.86119 -0.340032 0
M  V30 5766 O 564.137 1.70301 0.688706 0
M  V30 5767 C 564.199 2.38153 -2.69301 0
M  V30 5768 C 563.863 1.96345 -4.12671 0
M  V30 5769 C 564.86 1.48215 -4.98326 0
M  V30 5770 C 562.545 2.04861 -4.58625 0
M  V30 5771 C 564.539 1.09152 -6.27985 0
M  V30 5772 C 562.226 1.65409 -5.88288 0
M  V30 5773 C 563.224 1.17634 -6.72794 0
M  V30 5774 O 562.912 0.787312 -8.00035 0
M  V30 5775 H 562.644 0.380075 -0.559034 0
M  V30 5776 H 565.198 0.559919 -1.97621 0
M  V30 5777 H 563.428 3.09081 -2.32392 0
M  V30 5778 H 565.117 3.00099 -2.73304 0
M  V30 5779 H 565.883 1.41052 -4.64036 0
M  V30 5780 H 561.762 2.40996 -3.92991 0
M  V30 5781 H 565.306 0.717909 -6.93896 0
M  V30 5782 H 561.203 1.72233 -6.22098 0
M  V30 5783 H 561.971 0.915567 -8.13363 0
M  V30 5784 N 564.634 1.40294 0.718013 0
M  V30 5785 C 565.582 1.40536 1.85344 0
M  V30 5786 C 566.576 0.286192 1.66965 0
M  V30 5787 O 567.782 0.457105 1.74099 0
M  V30 5788 H 564.157 0.439236 0.61039 0
M  V30 5789 H 566.128 2.36275 1.82255 0
M  V30 5790 C 564.877 1.28245 3.23185 0
M  V30 5791 H 564.2 2.1364 3.37932 0
M  V30 5792 H 565.64 1.32474 4.02774 0
M  V30 5793 C 564.099 -0.0075503 3.36899 0
M  V30 5794 O 564.629 -0.971391 3.89778 0
M  V30 5795 N 562.835 -0.0762479 2.905 0
M  V30 5796 H 562.382 0.708819 2.47656 0
M  V30 5797 H 562.34 -0.938846 3.00055 0
M  V30 5798 N 566.112 -0.949982 1.2575 0
M  V30 5799 C 567.389 -1.6718 1.01539 0
M  V30 5800 C 567.769 -2.06095 -0.456942 0
M  V30 5801 O 567.117 -1.77792 -1.43534 0
M  V30 5802 C 567.327 -2.8906 1.95564 0
M  V30 5803 C 568.675 -3.60909 2.23673 0
M  V30 5804 O 569.699 -2.9915 1.9336 0
M  V30 5805 O 568.558 -4.72127 2.75243 0
M  V30 5806 H 565.652 -0.731697 0.385419 0
M  V30 5807 H 568.198 -1.00249 1.36924 0
M  V30 5808 H 566.97 -2.57128 2.94959 0
M  V30 5809 H 566.593 -3.63719 1.60605 0
M  V30 5810 N 567.59 -1.07411 -1.15328 0
M  V30 5811 C 568.54 -0.664788 -2.18093 0
M  V30 5812 C 569.524 0.310395 -1.57878 0
M  V30 5813 O 570.716 0.124026 -1.76565 0
M  V30 5814 C 567.845 -0.0647822 -3.43239 0
M  V30 5815 C 566.931 -1.06514 -4.10506 0
M  V30 5816 N 567.322 -2.24491 -4.53252 0
M  V30 5817 C 565.62 -0.898613 -4.36853 0
M  V30 5818 C 566.321 -2.8796 -5.05424 0
M  V30 5819 N 565.297 -2.15622 -4.99007 0
M  V30 5820 H 569.099 -1.56333 -2.48872 0
M  V30 5821 H 566.613 -0.947393 -1.31902 0
M  V30 5822 H 568.61 0.246363 -4.16171 0
M  V30 5823 H 567.27 0.828866 -3.13943 0
M  V30 5824 H 568.281 -2.62205 -4.46619 0
M  V30 5825 H 564.958 -0.0579118 -4.1746 0
M  V30 5826 H 566.348 -3.88137 -5.48452 0
M  V30 5827 N 569.068 1.32177 -0.85831 0
M  V30 5828 C 570.484 1.49873 -0.548656 0
M  V30 5829 C 570.684 1.79278 0.919874 0
M  V30 5830 O 569.74 1.86451 1.70271 0
M  V30 5831 C 571.053 2.64043 -1.4388 0
M  V30 5832 C 572.601 2.77928 -1.43961 0
M  V30 5833 C 573.076 3.95182 -2.31506 0
M  V30 5834 N 574.567 4.0245 -2.29321 0
M  V30 5835 C 575.302 4.9242 -2.93786 0
M  V30 5836 N 574.798 5.87373 -3.67376 0
M  V30 5837 N 576.591 4.85572 -2.83155 0
M  V30 5838 H 568.742 1.11357 -1.80868 0
M  V30 5839 H 571.005 0.549175 -0.772729 0
M  V30 5840 H 570.711 2.49055 -2.48324 0
M  V30 5841 H 570.585 3.59912 -1.12885 0
M  V30 5842 H 572.972 2.92338 -0.402813 0
M  V30 5843 H 573.053 1.82762 -1.78974 0
M  V30 5844 H 572.697 3.81531 -3.35256 0
M  V30 5845 H 572.627 4.89633 -1.93823 0
M  V30 5846 H 575.118 3.34507 -1.75822 0
M  V30 5847 H 575.431 6.52728 -4.13722 0
M  V30 5848 H 573.776 5.87388 -3.71484 0
M  V30 5849 H 576.967 4.10363 -2.25211 0
M  V30 5850 H 577.14 5.55486 -3.33676 0
M  V30 5851 N 570.547 0.616602 1.45037 0
M  V30 5852 C 571.48 -0.145984 2.27733 0
M  V30 5853 C 572.458 -0.865108 1.37676 0
M  V30 5854 O 573.642 -0.872152 1.6711 0
M  V30 5855 C 570.769 -1.2122 3.16265 0
M  V30 5856 C 569.815 -0.595218 4.22326 0
M  V30 5857 S 570.648 0.603744 5.32086 0
M  V30 5858 C 571.804 -0.462842 6.24186 0
M  V30 5859 H 572.037 0.555591 2.92062 0
M  V30 5860 H 569.57 0.404364 1.49011 0
M  V30 5861 H 571.528 -1.82247 3.67827 0
M  V30 5862 H 570.189 -1.88589 2.51183 0
M  V30 5863 H 569.382 -1.39775 4.8423 0
M  V30 5864 H 568.984 -0.0598965 3.73952 0
M  V30 5865 H 571.276 -1.33945 6.64127 0
M  V30 5866 H 572.219 0.120259 7.07998 0
M  V30 5867 H 572.627 -0.782219 5.59054 0
M  V30 5868 N 572.025 -1.5352 0.356285 0
M  V30 5869 C 572.988 -2.24071 -0.482182 0
M  V30 5870 C 573.988 -1.24531 -1.01729 0
M  V30 5871 O 575.178 -1.48876 -0.904513 0
M  V30 5872 C 572.31 -2.97025 -1.67299 0
M  V30 5873 H 573.503 -2.99596 0.135031 0
M  V30 5874 H 571.056 -1.55928 0.107825 0
M  V30 5875 H 571.791 -2.25719 -2.32855 0
M  V30 5876 H 571.576 -3.7005 -1.29636 0
M  V30 5877 H 573.066 -3.50683 -2.26741 0
M  V30 5878 N 573.503 -0.0852151 -1.57369 0
M  V30 5879 C 574.436 0.913608 -2.09113 0
M  V30 5880 C 575.414 1.28264 -0.999358 0
M  V30 5881 O 576.598 1.3896 -1.27367 0
M  V30 5882 C 573.725 2.21777 -2.55993 0
M  V30 5883 C 572.771 1.99932 -3.76735 0
M  V30 5884 S 573.604 1.24637 -5.20794 0
M  V30 5885 C 574.76 2.56304 -5.71016 0
M  V30 5886 H 574.993 0.473369 -2.93507 0
M  V30 5887 H 572.526 0.127856 -1.5387 0
M  V30 5888 H 574.484 2.96726 -2.83662 0
M  V30 5889 H 573.145 2.62923 -1.71843 0
M  V30 5890 H 572.338 2.96482 -4.07571 0
M  V30 5891 H 571.94 1.33116 -3.49509 0
M  V30 5892 H 574.232 3.5233 -5.78679 0
M  V30 5893 H 575.175 2.3006 -6.69685 0
M  V30 5894 H 575.583 2.64125 -4.98897 0
M  V30 5895 N 574.981 1.5647 0.188427 0
M  V30 5896 C 576.221 1.82803 0.914469 0
M  V30 5897 C 576.585 0.663681 1.80165 0
M  V30 5898 O 577.786 0.807059 2.56398 0
M  V30 5899 C 576.057 3.14187 1.70357 0
M  V30 5900 S 577.616 3.61947 2.48072 0
M  V30 5901 H 574.434 0.641497 0.306599 0
M  V30 5902 H 577.036 1.94694 0.177361 0
M  V30 5903 H 575.74 3.96937 1.04255 0
M  V30 5904 H 575.271 3.05192 2.48237 0
M  V30 5905 H 577.286 3.27913 3.72407 0
M  V30 5906 N 576.459 -0.456382 1.50847 0
M  V30 5907 C 577.706 -1.20736 1.62571 0
M  V30 5908 C 578.034 -1.9163 0.332904 0
M  V30 5909 O 577.289 -1.8343 -0.682058 0
M  V30 5910 C 577.588 -2.26336 2.76599 0
M  V30 5911 C 577.254 -1.7259 4.16562 0
M  V30 5912 C 575.916 -1.57654 4.54641 0
M  V30 5913 C 578.268 -1.32877 5.03977 0
M  V30 5914 C 575.596 -1.0145 5.77862 0
M  V30 5915 C 577.948 -0.7811 6.27759 0
M  V30 5916 C 576.612 -0.618488 6.64628 0
M  V30 5917 H 575.882 -0.441803 0.594888 0
M  V30 5918 H 578.529 -0.501169 1.84826 0
M  V30 5919 H 576.834 -3.0292 2.48489 0
M  V30 5920 H 578.531 -2.84227 2.82871 0
M  V30 5921 H 575.121 -1.85187 3.86528 0
M  V30 5922 H 579.305 -1.43245 4.75179 0
M  V30 5923 H 574.561 -0.876109 6.0509 0
M  V30 5924 H 578.735 -0.464783 6.94847 0
M  V30 5925 H 576.362 -0.180838 7.59985 0
M  V30 5926 N 577.937 -1.40673 -0.710563 0
M  V30 5927 C 579.162 -1.42741 -1.50465 0
M  V30 5928 C 579.587 -0.0302116 -1.88076 0
M  V30 5929 O 578.945 0.962945 -1.53613 0
M  V30 5930 C 578.993 -2.32873 -2.75322 0
M  V30 5931 O 578.097 -1.77544 -3.72226 0
M  V30 5932 H 577.438 -0.485056 -0.45345 0
M  V30 5933 H 579.968 -1.84961 -0.874681 0
M  V30 5934 H 579.978 -2.48233 -3.23797 0
M  V30 5935 H 578.653 -3.34401 -2.47283 0
M  V30 5936 H 577.23 -1.71556 -3.31093 0
M  V30 5937 N 579.415 0.9433 -1.26252 0
M  V30 5938 C 580.345 2.05902 -1.10122 0
M  V30 5939 C 581.326 1.70099 -0.00700552 0
M  V30 5940 O 582.511 1.93377 -0.178641 0
M  V30 5941 C 579.641 3.39516 -0.731175 0
M  V30 5942 C 578.595 3.89372 -1.77688 0
M  V30 5943 C 577.921 5.19613 -1.26122 0
M  V30 5944 C 579.221 4.14489 -3.17799 0
M  V30 5945 H 580.915 2.19655 -2.03451 0
M  V30 5946 H 578.461 1.05548 -0.979576 0
M  V30 5947 H 580.414 4.17031 -0.605215 0
M  V30 5948 H 579.138 3.25733 0.23782 0
M  V30 5949 H 577.797 3.14036 -1.89148 0
M  V30 5950 H 577.445 5.02208 -0.282128 0
M  V30 5951 H 577.145 5.53939 -1.96023 0
M  V30 5952 H 578.669 5.99713 -1.14789 0
M  V30 5953 H 580.083 4.82625 -3.09428 0
M  V30 5954 H 578.48 4.60094 -3.85271 0
M  V30 5955 H 579.55 3.20347 -3.64014 0
M  V30 5956 N 580.893 1.08022 1.14757 0
M  V30 5957 C 582.139 0.808705 1.85978 0
M  V30 5958 C 582.472 -0.663764 1.82504 0
M  V30 5959 O 581.747 -1.48765 1.25296 0
M  V30 5960 C 582.03 1.32623 3.34788 0
M  V30 5961 C 581.883 2.86375 3.46856 0
M  V30 5962 C 583.202 0.948291 4.29762 0
M  V30 5963 H 580.321 0.295244 0.675278 0
M  V30 5964 H 582.963 1.33917 1.34783 0
M  V30 5965 H 581.113 0.875002 3.78518 0
M  V30 5966 H 582.785 3.39839 3.11941 0
M  V30 5967 H 581.028 3.24232 2.88194 0
M  V30 5968 H 581.699 3.17658 4.51439 0
M  V30 5969 H 584.175 1.33722 3.94028 0
M  V30 5970 H 583.051 1.33765 5.32352 0
M  V30 5971 H 583.312 -0.145094 4.41862 0
M  V30 5972 N 582.371 -1.3172 0.865308 0
M  V30 5973 C 583.334 -2.26918 0.322627 0
M  V30 5974 C 584.334 -1.52031 -0.523751 0
M  V30 5975 O 585.524 -1.70973 -0.333727 0
M  V30 5976 C 582.656 -3.36558 -0.542338 0
M  V30 5977 H 583.849 -2.76432 1.16298 0
M  V30 5978 H 581.402 -1.42573 0.640512 0
M  V30 5979 H 582.137 -2.92329 -1.40407 0
M  V30 5980 H 581.922 -3.92048 0.0636395 0
M  V30 5981 H 583.412 -4.07465 -0.91446 0
M  V30 5982 N 583.85 -0.624285 -1.44708 0
M  V30 5983 C 584.779 0.0717025 -2.3339 0
M  V30 5984 C 585.76 0.841814 -1.47809 0
M  V30 5985 O 586.946 0.809056 -1.76544 0
M  V30 5986 C 584.076 1.05852 -3.30776 0
M  V30 5987 C 583.029 0.400503 -4.26122 0
M  V30 5988 C 582.356 1.49674 -5.13324 0
M  V30 5989 C 583.656 -0.688924 -5.17737 0
M  V30 5990 H 585.35 -0.668819 -2.91834 0
M  V30 5991 H 582.896 -0.32308 -1.40329 0
M  V30 5992 H 584.849 1.5541 -3.91696 0
M  V30 5993 H 583.572 1.82984 -2.70526 0
M  V30 5994 H 582.231 -0.0743687 -3.66525 0
M  V30 5995 H 581.88 2.25877 -4.49431 0
M  V30 5996 H 581.58 1.06188 -5.77926 0
M  V30 5997 H 583.104 1.99427 -5.77115 0
M  V30 5998 H 584.518 -0.276724 -5.72632 0
M  V30 5999 H 582.915 -1.04652 -5.90904 0
M  V30 6000 H 583.985 -1.55884 -4.5916 0
M  V30 6001 N 585.328 1.53329 -0.364422 0
M  V30 6002 C 586.553 2.06132 0.229033 0
M  V30 6003 C 586.978 1.23625 1.41769 0
M  V30 6004 O 586.336 0.255038 1.79497 0
M  V30 6005 C 586.384 3.55544 0.60174 0
M  V30 6006 O 585.488 3.75771 1.69912 0
M  V30 6007 H 584.829 0.663148 0.0336213 0
M  V30 6008 H 587.359 1.97758 -0.524689 0
M  V30 6009 H 587.369 3.98549 0.873073 0
M  V30 6010 H 586.044 4.15039 -0.267421 0
M  V30 6011 H 584.621 3.44663 1.42343 0
M  V30 6012 N 586.806 0.0935595 1.57322 0
M  V30 6013 C 588.083 -0.612692 1.85756 0
M  V30 6014 C 588.463 -1.86439 0.99013 0
M  V30 6015 O 587.811 -2.28416 0.0621362 0
M  V30 6016 C 588.021 -0.929547 3.36393 0
M  V30 6017 C 589.369 -1.29366 4.04413 0
M  V30 6018 O 590.393 -1.02061 3.41265 0
M  V30 6019 O 589.252 -1.80498 5.15832 0
M  V30 6020 H 586.346 -0.306444 0.768128 0
M  V30 6021 H 588.892 0.126141 1.69231 0
M  V30 6022 H 587.664 -0.0414766 3.91278 0
M  V30 6023 H 587.287 -1.72441 3.5826 0
M  V30 6024 N 588.284 -1.56567 -0.180126 0
M  V30 6025 C 589.512 -1.85618 -0.913972 0
M  V30 6026 C 589.927 -0.677892 -1.7621 0
M  V30 6027 O 589.284 0.353171 -1.7905 0
M  V30 6028 C 589.335 -3.13619 -1.79793 0
M  V30 6029 O 589.056 -4.26906 -0.98402 0
M  V30 6030 C 590.557 -3.55954 -2.64219 0
M  V30 6031 H 587.777 -0.616043 -0.265954 0
M  V30 6032 H 590.321 -2.03681 -0.182872 0
M  V30 6033 H 588.476 -2.97409 -2.48247 0
M  V30 6034 H 588.89 -4.9989 -1.58776 0
M  V30 6035 H 590.364 -4.48444 -3.21873 0
M  V30 6036 H 590.841 -2.79653 -3.38661 0
M  V30 6037 H 591.447 -3.74746 -2.01111 0
M  V30 6038 N 589.762 0.448376 -1.51087 0
M  V30 6039 C 591.173 1.0286 -1.5581 0
M  V30 6040 C 591.524 1.92583 -0.374989 0
M  V30 6041 O 590.649 2.10316 0.509533 0
M  V30 6042 C 591.244 1.87223 -2.8237 0
M  V30 6043 C 589.803 2.40314 -2.897 0
M  V30 6044 C 588.95 1.19238 -2.50355 0
M  V30 6045 H 591.901 0.230075 -1.57023 0
M  V30 6046 H 591.922 2.72553 -2.6551 0
M  V30 6047 H 591.434 1.21894 -3.68461 0
M  V30 6048 H 589.535 3.09129 -2.08014 0
M  V30 6049 H 589.648 2.73866 -3.93108 0
M  V30 6050 H 588.012 1.53428 -2.03303 0
M  V30 6051 H 588.795 0.555367 -3.38778 0
M  V30 6052 N 591.24 1.41047 0.703093 0
M  V30 6053 C 592.486 1.40207 1.46526 0
M  V30 6054 C 592.819 0.00847763 1.94198 0
M  V30 6055 O 592.094 -0.962437 1.69019 0
M  V30 6056 C 592.377 2.40238 2.6825 0
M  V30 6057 C 592.23 3.88674 2.26391 0
M  V30 6058 C 593.549 2.37627 3.70434 0
M  V30 6059 H 590.668 0.510594 0.531472 0
M  V30 6060 H 593.31 1.72271 0.801422 0
M  V30 6061 H 591.46 2.13026 3.24888 0
M  V30 6062 H 593.132 4.2676 1.75138 0
M  V30 6063 H 591.375 4.03903 1.58255 0
M  V30 6064 H 592.046 4.542 3.13698 0
M  V30 6065 H 594.522 2.61759 3.23452 0
M  V30 6066 H 593.398 3.09645 4.53223 0
M  V30 6067 H 593.659 1.39223 4.19606 0
M  V30 6068 N 592.718 -0.936591 1.26751 0
M  V30 6069 C 593.946 -1.71758 1.15355 0
M  V30 6070 C 594.361 -1.86549 -0.290683 0
M  V30 6071 O 593.718 -1.37616 -1.19868 0
M  V30 6072 C 593.769 -3.12193 1.82258 0
M  V30 6073 O 593.49 -2.98105 3.21038 0
M  V30 6074 C 594.991 -4.06485 1.76875 0
M  V30 6075 H 592.211 -0.537636 0.401483 0
M  V30 6076 H 594.755 -1.17382 1.67457 0
M  V30 6077 H 592.91 -3.63456 1.34083 0
M  V30 6078 H 593.324 -3.86824 3.54214 0
M  V30 6079 H 594.798 -5.02569 2.28316 0
M  V30 6080 H 595.275 -4.32986 0.736216 0
M  V30 6081 H 595.881 -3.61144 2.24623 0
M  V30 6082 N 594.196 -1.08629 -1.14182 0
M  V30 6083 C 595.445 -0.812271 -1.84621 0
M  V30 6084 C 595.758 0.664313 -1.83973 0
M  V30 6085 O 596.964 1.05357 -2.50224 0
M  V30 6086 C 595.42 -1.4031 -3.31423 0
M  V30 6087 C 595.028 -2.91164 -3.40481 0
M  V30 6088 C 596.772 -1.20767 -4.06959 0
M  V30 6089 C 594.679 -3.43373 -4.81507 0
M  V30 6090 H 593.609 -0.30019 -0.691666 0
M  V30 6091 H 596.26 -1.30798 -1.28701 0
M  V30 6092 H 594.642 -0.835096 -3.87094 0
M  V30 6093 H 595.816 -3.5412 -2.94848 0
M  V30 6094 H 594.131 -3.09646 -2.78403 0
M  V30 6095 H 596.728 -1.57237 -5.11058 0
M  V30 6096 H 597.071 -0.147664 -4.16038 0
M  V30 6097 H 597.604 -1.74274 -3.57594 0
M  V30 6098 H 594.343 -4.48958 -4.77616 0
M  V30 6099 H 593.863 -2.85176 -5.27669 0
M  V30 6100 H 595.542 -3.40095 -5.50404 0
M  V30 6101 N 595.674 1.31259 -0.872281 0
M  V30 6102 C 596.604 2.30929 -0.345554 0
M  V30 6103 C 597.585 1.60449 0.5648 0
M  V30 6104 O 598.77 1.8814 0.481335 0
M  V30 6105 C 595.9 3.44348 0.451823 0
M  V30 6106 C 594.854 4.26435 -0.365641 0
M  V30 6107 C 594.18 5.31785 0.557562 0
M  V30 6108 C 595.48 4.97159 -1.60095 0
M  V30 6109 H 597.174 2.75234 -1.17841 0
M  V30 6110 H 594.72 1.3232 -0.568094 0
M  V30 6111 H 596.673 4.13128 0.830854 0
M  V30 6112 H 595.397 2.98816 1.31821 0
M  V30 6113 H 594.056 3.59326 -0.726649 0
M  V30 6114 H 593.704 4.82502 1.4213 0
M  V30 6115 H 593.404 5.87598 0.0144878 0
M  V30 6116 H 594.928 6.03424 0.933387 0
M  V30 6117 H 596.342 5.58523 -1.29323 0
M  V30 6118 H 594.739 5.62779 -2.08327 0
M  V30 6119 H 595.809 4.24012 -2.35249 0
M  V30 6120 N 597.152 0.631951 1.44375 0
M  V30 6121 C 598.429 0.067646 1.95483 0
M  V30 6122 C 598.809 -1.40683 1.57389 0
M  V30 6123 O 598.157 -2.12167 0.848375 0
M  V30 6124 C 598.367 0.291392 3.47781 0
M  V30 6125 C 599.715 0.185028 4.24197 0
M  V30 6126 O 600.739 0.222803 3.55503 0
M  V30 6127 O 599.598 0.0906642 5.46425 0
M  V30 6128 H 596.692 -0.0218379 0.826712 0
M  V30 6129 H 599.238 0.703711 1.54421 0
M  V30 6130 H 598.01 1.31449 3.68561 0
M  V30 6131 H 597.633 -0.378772 3.95792 0
M  V30 6132 N 598.631 -1.53133 0.372548 0
M  V30 6133 C 600.042 -1.86404 -0.105155 0
M  V30 6134 C 600.393 -1.29289 -1.47576 0
M  V30 6135 O 599.518 -0.617646 -2.07398 0
M  V30 6136 C 600.113 -3.38223 -0.197588 0
M  V30 6137 C 598.672 -3.71266 -0.619556 0
M  V30 6138 C 597.819 -2.76353 0.228919 0
M  V30 6139 H 600.77 -1.47282 0.591077 0
M  V30 6140 H 600.791 -3.66577 -1.01987 0
M  V30 6141 H 600.303 -3.79763 0.800099 0
M  V30 6142 H 598.404 -3.35287 -1.62522 0
M  V30 6143 H 598.517 -4.77515 -0.389332 0
M  V30 6144 H 596.881 -2.52888 -0.303271 0
M  V30 6145 H 597.664 -3.20728 1.22428 0
M  V30 6146 N 600.109 -0.101901 -1.5727 0
M  V30 6147 C 601.056 0.854577 -2.14396 0
M  V30 6148 C 602.026 1.27521 -1.06432 0
M  V30 6149 O 603.211 1.35575 -1.34253 0
M  V30 6150 C 600.351 2.10576 -2.73408 0
M  V30 6151 C 599.464 1.73504 -3.95626 0
M  V30 6152 C 598.599 2.9346 -4.42781 0
M  V30 6153 C 597.638 2.52547 -5.57572 0
M  V30 6154 N 596.775 3.65359 -5.99547 0
M  V30 6155 H 601.615 0.360578 -2.9581 0
M  V30 6156 H 599.152 0.166303 -1.46157 0
M  V30 6157 H 601.11 2.83859 -3.05745 0
M  V30 6158 H 599.74 2.57463 -1.94711 0
M  V30 6159 H 598.792 0.901622 -3.6956 0
M  V30 6160 H 600.104 1.39426 -4.78917 0
M  V30 6161 H 599.258 3.74988 -4.76937 0
M  V30 6162 H 597.997 3.30753 -3.58404 0
M  V30 6163 H 597.002 1.69446 -5.23037 0
M  V30 6164 H 598.227 2.1639 -6.43702 0
M  V30 6165 H 596.173 4.02358 -5.18116 0
M  V30 6166 H 596.09 3.35148 -6.77652 0
M  V30 6167 H 597.358 4.47378 -6.38336 0
M  V30 6168 N 601.587 1.56661 0.17182 0
M  V30 6169 C 602.827 1.83762 0.895029 0
M  V30 6170 C 603.191 0.682752 1.79451 0
M  V30 6171 O 604.392 0.834208 2.55528 0
M  V30 6172 C 602.663 3.15976 1.67015 0
M  V30 6173 S 604.222 3.64558 2.44219 0
M  V30 6174 H 601.04 0.644713 0.299778 0
M  V30 6175 H 603.642 1.94871 0.156701 0
M  V30 6176 H 602.346 3.98021 1.00039 0
M  V30 6177 H 601.877 3.07807 2.44986 0
M  V30 6178 H 603.892 3.31845 3.68909 0
M  V30 6179 N 603.065 -0.440357 1.51323 0
M  V30 6180 C 604.293 -1.21255 1.67645 0
M  V30 6181 C 604.708 -1.85088 0.37252 0
M  V30 6182 O 604.065 -1.70582 -0.648683 0
M  V30 6183 C 604.116 -2.29881 2.78993 0
M  V30 6184 O 603.837 -1.68659 4.04334 0
M  V30 6185 C 605.338 -3.20214 3.06558 0
M  V30 6186 H 602.558 -0.36558 0.562666 0
M  V30 6187 H 605.102 -0.52214 1.97722 0
M  V30 6188 H 603.257 -2.94643 2.51524 0
M  V30 6189 H 603.671 -2.40426 4.6615 0
M  V30 6190 H 605.145 -3.92575 3.88058 0
M  V30 6191 H 605.622 -3.80794 2.18844 0
M  V30 6192 H 606.228 -2.61156 3.35675 0
M  V30 6193 N 604.543 -1.41418 -0.695603 0
M  V30 6194 C 605.506 -1.42988 -1.79129 0
M  V30 6195 C 606.506 -0.320514 -1.57573 0
M  V30 6196 O 607.696 -0.58039 -1.64247 0
M  V30 6197 C 604.828 -1.24122 -3.175 0
M  V30 6198 H 606.021 -2.40526 -1.7913 0
M  V30 6199 H 603.574 -1.2756 -0.903225 0
M  V30 6200 H 604.309 -0.274253 -3.23138 0
M  V30 6201 H 604.094 -2.045 -3.34547 0
M  V30 6202 H 605.584 -1.28056 -3.97481 0
M  V30 6203 N 606.021 0.929856 -1.27246 0
M  V30 6204 C 606.968 2.03017 -1.09785 0
M  V30 6205 C 607.938 1.661 0.000456744 0
M  V30 6206 O 609.123 1.90116 -0.161462 0
M  V30 6207 C 606.263 3.36878 -0.748816 0
M  V30 6208 C 605.376 3.86763 -1.92453 0
M  V30 6209 C 604.511 5.09061 -1.51758 0
M  V30 6210 C 603.55 5.51237 -2.66091 0
M  V30 6211 N 602.687 6.64732 -2.25999 0
M  V30 6212 H 607.527 2.17285 -2.03939 0
M  V30 6213 H 605.064 1.06448 -1.01524 0
M  V30 6214 H 607.022 4.13855 -0.527283 0
M  V30 6215 H 605.652 3.22424 0.155771 0
M  V30 6216 H 604.704 3.06086 -2.25867 0
M  V30 6217 H 606.016 4.13994 -2.78227 0
M  V30 6218 H 605.17 5.93532 -1.25716 0
M  V30 6219 H 603.909 4.83602 -0.630896 0
M  V30 6220 H 602.914 4.65316 -2.92849 0
M  V30 6221 H 604.139 5.78692 -3.55377 0
M  V30 6222 H 602.085 6.40935 -1.3978 0
M  V30 6223 H 602.002 6.91607 -3.05313 0
M  V30 6224 H 603.27 7.52549 -2.03199 0
M  V30 6225 N 607.499 1.09233 1.13605 0
M  V30 6226 C 608.727 0.848908 1.88683 0
M  V30 6227 C 609.142 -0.599667 1.79024 0
M  V30 6228 O 608.499 -1.41265 1.15544 0
M  V30 6229 C 608.55 1.27273 3.38355 0
M  V30 6230 O 608.271 2.66449 3.47759 0
M  V30 6231 C 609.772 1.0614 4.30406 0
M  V30 6232 H 606.992 0.305549 0.597395 0
M  V30 6233 H 609.536 1.4538 1.43823 0
M  V30 6234 H 607.691 0.711776 3.80805 0
M  V30 6235 H 608.105 2.84264 4.40788 0
M  V30 6236 H 609.579 1.40725 5.33761 0
M  V30 6237 H 610.056 -0.000960332 4.392 0
M  V30 6238 H 610.662 1.60821 3.93722 0
M  V30 6239 N 608.977 -1.30795 0.87923 0
M  V30 6240 C 610.224 -1.96362 0.494786 0
M  V30 6241 C 610.552 -1.69448 -0.954868 0
M  V30 6242 O 609.807 -0.988711 -1.68888 0
M  V30 6243 C 610.106 -3.50287 0.709476 0
M  V30 6244 C 609.772 -3.9724 2.13333 0
M  V30 6245 C 608.434 -4.09772 2.52271 0
M  V30 6246 C 610.786 -4.21807 3.06151 0
M  V30 6247 C 608.114 -4.44227 3.83248 0
M  V30 6248 C 610.466 -4.5773 4.36654 0
M  V30 6249 C 609.13 -4.68469 4.75492 0
M  V30 6250 H 608.4 -0.71854 0.181055 0
M  V30 6251 H 611.047 -1.55764 1.11399 0
M  V30 6252 H 609.352 -3.91799 0.0072 0
M  V30 6253 H 611.049 -3.99082 0.391703 0
M  V30 6254 H 607.639 -3.87988 1.82107 0
M  V30 6255 H 611.823 -4.11611 2.77291 0
M  V30 6256 H 607.079 -4.50741 4.13089 0
M  V30 6257 H 611.253 -4.7569 5.08617 0
M  V30 6258 H 608.88 -4.94923 5.77022 0
M  V30 6259 N 610.455 -0.639598 -1.44038 0
M  V30 6260 C 611.866 -0.228866 -1.85292 0
M  V30 6261 C 612.217 1.22161 -1.53529 0
M  V30 6262 O 611.342 1.93064 -0.977518 0
M  V30 6263 C 611.937 -0.408592 -3.36327 0
M  V30 6264 C 610.496 -0.0522953 -3.76364 0
M  V30 6265 C 609.643 -0.717959 -2.67844 0
M  V30 6266 H 612.594 -0.844194 -1.34384 0
M  V30 6267 H 612.615 0.349968 -3.78887 0
M  V30 6268 H 612.127 -1.46435 -3.59414 0
M  V30 6269 H 610.228 1.0014 -3.58891 0
M  V30 6270 H 610.341 -0.468261 -4.76806 0
M  V30 6271 H 608.705 -0.152459 -2.54243 0
M  V30 6272 H 609.488 -1.77648 -2.93762 0
M  V30 6273 N 611.933 1.52934 -0.380664 0
M  V30 6274 C 613.21 1.93845 0.261417 0
M  V30 6275 C 613.59 1.31544 1.65104 0
M  V30 6276 O 612.938 0.480234 2.23397 0
M  V30 6277 C 613.148 3.47739 0.296466 0
M  V30 6278 C 614.496 4.21284 0.529578 0
M  V30 6279 O 615.52 3.54199 0.377041 0
M  V30 6280 O 614.379 5.40195 0.827753 0
M  V30 6281 H 611.473 0.811318 0.160285 0
M  V30 6282 H 614.019 1.64042 -0.434544 0
M  V30 6283 H 612.791 3.85395 -0.67724 0
M  V30 6284 H 612.414 3.8382 1.0377 0
M  V30 6285 N 613.412 0.11024 1.57214 0
M  V30 6286 C 614.642 -0.557025 1.98949 0
M  V30 6287 C 615.05 -1.61317 0.988606 0
M  V30 6288 O 614.393 -1.83679 -0.0279159 0
M  V30 6289 C 614.455 -1.24956 3.37085 0
M  V30 6290 C 614.119 -0.342398 4.55716 0
M  V30 6291 C 615.116 0.415511 5.18237 0
M  V30 6292 C 612.801 -0.256029 5.01647 0
M  V30 6293 C 614.795 1.24761 6.25071 0
M  V30 6294 C 612.482 0.579713 6.08344 0
M  V30 6295 C 613.48 1.33017 6.69922 0
M  V30 6296 O 613.168 2.15205 7.74559 0
M  V30 6297 H 612.9 -0.152792 0.658506 0
M  V30 6298 H 615.454 0.19076 2.04512 0
M  V30 6299 H 613.684 -2.04424 3.2825 0
M  V30 6300 H 615.373 -1.81286 3.63167 0
M  V30 6301 H 616.139 0.358605 4.83672 0
M  V30 6302 H 612.018 -0.829831 4.5347 0
M  V30 6303 H 615.562 1.83386 6.73064 0
M  V30 6304 H 611.459 0.638044 6.42339 0
M  V30 6305 H 612.227 2.08052 7.91617 0
M  V30 6306 N 614.89 -1.56749 -0.16351 0
M  V30 6307 C 616.137 -1.82434 -0.878866 0
M  V30 6308 C 616.465 -0.688557 -1.81904 0
M  V30 6309 O 615.72 0.323644 -1.93005 0
M  V30 6310 C 616.019 -3.14342 -1.70071 0
M  V30 6311 C 615.685 -4.41647 -0.908775 0
M  V30 6312 C 614.347 -4.76224 -0.690236 0
M  V30 6313 C 616.699 -5.19998 -0.353815 0
M  V30 6314 C 614.027 -5.86624 0.0942374 0
M  V30 6315 C 616.379 -6.3122 0.41761 0
M  V30 6316 C 615.043 -6.64358 0.646879 0
M  V30 6317 H 614.313 -0.667574 -0.3216 0
M  V30 6318 H 616.96 -1.90963 -0.14337 0
M  V30 6319 H 615.265 -3.0119 -2.50583 0
M  V30 6320 H 616.962 -3.31426 -2.25738 0
M  V30 6321 H 613.552 -4.1453 -1.08916 0
M  V30 6322 H 617.736 -4.93673 -0.509975 0
M  V30 6323 H 612.992 -6.10751 0.281529 0
M  V30 6324 H 617.166 -6.91133 0.854849 0
M  V30 6325 H 614.793 -7.49742 1.25662 0
M  V30 6326 N 616.368 0.432326 -1.51554 0
M  V30 6327 C 617.278 1.55023 -1.76082 0
M  V30 6328 C 618.294 1.61593 -0.645265 0
M  V30 6329 O 619.47 1.78742 -0.928086 0
M  V30 6330 C 616.535 2.90964 -1.88523 0
M  V30 6331 C 615.596 2.9447 -3.12388 0
M  V30 6332 C 614.829 4.23926 -3.24225 0
M  V30 6333 O 615.052 5.16576 -2.4188 0
M  V30 6334 O 613.986 4.33818 -4.17235 0
M  V30 6335 H 617.812 1.37238 -2.70923 0
M  V30 6336 H 615.397 0.615845 -1.36117 0
M  V30 6337 H 617.279 3.71633 -1.98662 0
M  V30 6338 H 615.954 3.08865 -0.9687 0
M  V30 6339 H 614.861 2.12737 -3.07723 0
M  V30 6340 H 616.194 2.81514 -4.03746 0
M  V30 6341 N 617.846 1.41785 0.688094 0
M  V30 6342 C 618.778 1.40159 1.81351 0
M  V30 6343 C 619.791 0.30262 1.59963 0
M  V30 6344 O 620.98 0.564841 1.69327 0
M  V30 6345 C 618.08 1.16517 3.1824 0
M  V30 6346 C 617.253 2.38597 3.66593 0
M  V30 6347 C 616.312 2.10699 4.82174 0
M  V30 6348 O 615.338 2.83798 4.93404 0
M  V30 6349 N 616.54 1.10187 5.69947 0
M  V30 6350 H 619.305 2.3716 1.83236 0
M  V30 6351 H 616.866 1.36494 0.870697 0
M  V30 6352 H 618.858 0.957941 3.93199 0
M  V30 6353 H 617.428 0.280873 3.11336 0
M  V30 6354 H 616.648 2.74974 2.82459 0
M  V30 6355 H 617.936 3.19919 3.95638 0
M  V30 6356 H 617.334 0.497016 5.63512 0
M  V30 6357 H 615.891 0.954518 6.44773 0
M  V30 6358 N 619.324 -0.923095 1.27737 0
M  V30 6359 C 620.254 -2.04124 1.13383 0
M  V30 6360 C 621.235 -1.70066 0.0340658 0
M  V30 6361 O 622.42 -1.93068 0.209383 0
M  V30 6362 C 619.55 -3.3831 0.785097 0
M  V30 6363 C 618.504 -3.86496 1.8386 0
M  V30 6364 C 617.83 -5.1754 1.34373 0
M  V30 6365 C 619.13 -4.09381 3.24353 0
M  V30 6366 H 620.824 -2.1639 2.06919 0
M  V30 6367 H 618.37 -1.03976 0.996243 0
M  V30 6368 H 620.323 -4.16016 0.671485 0
M  V30 6369 H 619.047 -3.2607 -0.185969 0
M  V30 6370 H 617.706 -3.10987 1.9412 0
M  V30 6371 H 617.354 -5.01696 0.361989 0
M  V30 6372 H 617.054 -5.50751 2.04811 0
M  V30 6373 H 618.578 -5.97811 1.24315 0
M  V30 6374 H 619.992 -4.77641 3.17067 0
M  V30 6375 H 618.389 -4.53906 3.92542 0
M  V30 6376 H 619.459 -3.14515 3.69064 0
M  V30 6377 N 620.802 -1.09834 -1.13024 0
M  V30 6378 C 621.765 -0.745058 -2.16752 0
M  V30 6379 C 622.765 0.227435 -1.59183 0
M  V30 6380 O 623.955 0.0050786 -1.74199 0
M  V30 6381 C 621.087 -0.102543 -3.40746 0
M  V30 6382 H 622.28 -1.66375 -2.49518 0
M  V30 6383 H 619.833 -0.898061 -1.27924 0
M  V30 6384 H 620.568 0.827177 -3.13573 0
M  V30 6385 H 620.353 -0.80235 -3.83803 0
M  V30 6386 H 621.843 0.129082 -4.174 0
M  V30 6387 N 622.28 1.30327 -0.886154 0
M  V30 6388 C 623.696 1.48676 -0.580323 0
M  V30 6389 C 623.896 1.81189 0.881639 0
M  V30 6390 O 622.952 1.90021 1.66278 0
M  V30 6391 C 624.265 2.60932 -1.49449 0
M  V30 6392 C 625.813 2.74812 -1.49824 0
M  V30 6393 C 626.288 3.90183 -2.39836 0
M  V30 6394 N 627.779 3.97495 -2.37806 0
M  V30 6395 C 628.514 4.86078 -3.04165 0
M  V30 6396 N 628.01 5.79448 -3.79753 0
M  V30 6397 N 629.803 4.79456 -2.93391 0
M  V30 6398 H 621.954 1.07495 -1.8319 0
M  V30 6399 H 624.217 0.532661 -0.784204 0
M  V30 6400 H 623.923 2.43731 -2.5355 0
M  V30 6401 H 623.797 3.57437 -1.20494 0
M  V30 6402 H 626.184 2.91418 -0.464731 0
M  V30 6403 H 626.265 1.78924 -1.82811 0
M  V30 6404 H 625.909 3.74334 -3.43273 0
M  V30 6405 H 625.839 4.85411 -2.04166 0
M  V30 6406 H 628.33 3.30703 -1.82877 0
M  V30 6407 H 628.643 6.43805 -4.27475 0
M  V30 6408 H 626.988 5.79376 -3.8386 0
M  V30 6409 H 630.179 4.05494 -2.33864 0
M  V30 6410 H 630.352 5.48283 -3.45383 0
M  V30 6411 N 623.758 0.647228 1.43697 0
M  V30 6412 C 625.007 0.155552 2.01099 0
M  V30 6413 C 625.32 -1.23569 1.51624 0
M  V30 6414 O 626.526 -1.82226 2.01261 0
M  V30 6415 C 624.982 0.227296 3.59182 0
M  V30 6416 C 624.59 1.62086 4.17651 0
M  V30 6417 C 626.334 -0.207085 4.23995 0
M  V30 6418 C 624.241 1.64685 5.68008 0
M  V30 6419 H 623.171 0.0543895 0.752036 0
M  V30 6420 H 625.822 0.808386 1.64734 0
M  V30 6421 H 624.204 -0.492937 3.9292 0
M  V30 6422 H 625.378 2.36597 3.95422 0
M  V30 6423 H 623.693 2.0007 3.65186 0
M  V30 6424 H 626.29 -0.207426 5.34298 0
M  V30 6425 H 626.633 -1.23742 3.97484 0
M  V30 6426 H 627.166 0.461193 3.95118 0
M  V30 6427 H 623.905 2.65608 5.99277 0
M  V30 6428 H 623.425 0.944914 5.9231 0
M  V30 6429 H 625.104 1.38792 6.31938 0
M  V30 6430 N 625.236 -1.5273 0.388769 0
M  V30 6431 C 626.461 -2.0647 -0.19621 0
M  V30 6432 C 626.886 -1.25865 -1.39784 0
M  V30 6433 O 626.244 -0.283562 -1.79069 0
M  V30 6434 C 626.292 -3.56456 -0.5451 0
M  V30 6435 O 625.396 -3.78426 -1.63912 0
M  V30 6436 H 624.737 -0.663599 -0.023067 0
M  V30 6437 H 627.267 -1.96898 0.556084 0
M  V30 6438 H 627.277 -3.99888 -0.809557 0
M  V30 6439 H 625.952 -4.14561 0.333417 0
M  V30 6440 H 624.529 -3.46884 -1.36842 0
M  V30 6441 N 626.714 -0.118576 -1.57153 0
M  V30 6442 C 627.646 0.862247 -2.12363 0
M  V30 6443 C 628.659 1.23025 -1.06625 0
M  V30 6444 O 629.848 1.17927 -1.33998 0
M  V30 6445 C 626.948 2.16425 -2.60794 0
M  V30 6446 C 626.121 1.96801 -3.90626 0
M  V30 6447 C 625.18 3.10726 -4.2466 0
M  V30 6448 O 624.206 2.83659 -4.93484 0
M  V30 6449 N 625.408 4.37147 -3.81946 0
M  V30 6450 H 628.173 0.390564 -2.97144 0
M  V30 6451 H 625.734 0.0658591 -1.61766 0
M  V30 6452 H 627.726 2.91633 -2.80593 0
M  V30 6453 H 626.296 2.54943 -1.80895 0
M  V30 6454 H 625.516 1.05787 -3.7974 0
M  V30 6455 H 626.804 1.80993 -4.7552 0
M  V30 6456 H 626.202 4.62014 -3.26435 0
M  V30 6457 H 624.759 5.09229 -4.06853 0
M  V30 6458 N 628.193 1.56834 0.155195 0
M  V30 6459 C 629.156 1.96748 1.17571 0
M  V30 6460 C 630.156 0.853006 1.3631 0
M  V30 6461 O 631.346 1.11978 1.33441 0
M  V30 6462 C 628.478 2.27631 2.53765 0
M  V30 6463 H 629.671 2.88085 0.833498 0
M  V30 6464 H 627.224 1.51141 0.398242 0
M  V30 6465 H 627.959 1.39059 2.92973 0
M  V30 6466 H 627.744 3.0888 2.41527 0
M  V30 6467 H 629.234 2.59377 3.27282 0
M  V30 6468 N 629.671 -0.424282 1.51781 0
M  V30 6469 C 630.634 -1.49848 1.73431 0
M  V30 6470 C 631.634 -1.49016 0.604225 0
M  V30 6471 O 632.824 -1.50808 0.871935 0
M  V30 6472 C 629.956 -2.89332 1.80277 0
M  V30 6473 H 631.149 -1.3195 2.69312 0
M  V30 6474 H 628.702 -0.653809 1.41968 0
M  V30 6475 H 629.437 -3.12618 0.862568 0
M  V30 6476 H 629.222 -2.9134 2.62419 0
M  V30 6477 H 630.712 -3.67233 1.98821 0
M  V30 6478 O 631.188 -1.51103 -0.570103 0
M  V30 6479 H 631.879 -1.50032 -1.22516 0
M  V30 END ATOM
M  V30 BEGIN BOND
M  V30 END BOND
M  V30 END CTAB
M  END
$$$$
