drugbank_target|Q9NRH2 SNF-related serine/threonine-protein kinase (DB12010)
 OpenBabel12092121193D

  0  0  0     0  0            999 V3000
M  V30 BEGIN CTAB
M  V30 COUNTS 11781 11892 0 0 0
M  V30 BEGIN ATOM
M  V30 1 H -0.908 1.98254 -0.117106 0
M  V30 2 N 0 1.576 0 0
M  V30 3 C 0.933 2.03868 1.02534 0
M  V30 4 C 1.911 0.928543 1.3348 0
M  V30 5 O 3.095 1.19667 1.45644 0
M  V30 6 C 0.222 2.43627 2.35294 0
M  V30 7 C -0.732 3.65373 2.2001 0
M  V30 8 S 0.101 5.13292 1.52614 0
M  V30 9 C 1.257 5.56322 2.86805 0
M  V30 10 H 1.49 2.90518 0.631377 0
M  V30 11 H -0.977 1.52953 0.210867 0
M  V30 12 H 0.981 2.67203 3.11629 0
M  V30 13 H -0.358 1.57376 2.7183 0
M  V30 14 H -1.165 3.90944 3.18086 0
M  V30 15 H -1.563 3.418 1.51819 0
M  V30 16 H 0.729 5.58782 3.83104 0
M  V30 17 H 1.672 6.56266 2.65933 0
M  V30 18 H 2.08 4.83886 2.90714 0
M  V30 19 N 1.4781 -0.272755 1.55222 0
M  V30 20 C 2.4411 -1.32041 1.87344 0
M  V30 21 C 3.4411 -1.42342 0.74803 0
M  V30 22 O 4.6311 -1.41488 1.0162 0
M  V30 23 C 1.7631 -2.70173 2.07893 0
M  V30 24 H 2.9561 -1.04789 2.80997 0
M  V30 25 H 0.5091 -0.51083 1.47717 0
M  V30 26 H 1.2441 -3.02605 1.16622 0
M  V30 27 H 1.0291 -2.64082 2.89833 0
M  V30 28 H 2.5191 -3.45869 2.34017 0
M  V30 29 N 2.9562 -1.48159 -0.537278 0
M  V30 30 C 4.2042 -1.55497 -1.29094 0
M  V30 31 C 4.5252 -0.227454 -1.93669 0
M  V30 32 O 3.7952 0.750386 -1.80959 0
M  V30 33 H 2.3752 -0.572832 -0.47945 0
M  V30 34 H 5.0372 -1.84579 -0.625818 0
M  V30 35 H 4.1332 -2.33216 -2.07405 0
M  V30 36 N 4.4343 0.785586 -1.36625 0
M  V30 37 C 5.6813 1.54362 -1.31067 0
M  V30 38 C 6.0093 1.94195 0.10893 0
M  V30 39 O 5.2643 1.63262 1.07908 0
M  V30 40 C 5.5633 2.83007 -2.1827 0
M  V30 41 C 5.2293 2.62294 -3.6676 0
M  V30 42 C 3.8913 2.56353 -4.0723 0
M  V30 43 C 6.2433 2.43371 -4.6089 0
M  V30 44 C 3.5713 2.29461 -5.39967 0
M  V30 45 C 5.9233 2.18005 -5.93849 0
M  V30 46 C 4.5873 2.105 -6.3344 0
M  V30 47 H 3.8573 0.564851 -0.479609 0
M  V30 48 H 6.5043 0.906028 -1.68711 0
M  V30 49 H 4.8093 3.51253 -1.73576 0
M  V30 50 H 6.5063 3.40817 -2.11292 0
M  V30 51 H 3.0963 2.67774 -3.34656 0
M  V30 52 H 7.2803 2.46959 -4.30494 0
M  V30 53 H 2.5363 2.22135 -5.69619 0
M  V30 54 H 6.7103 2.02359 -6.66351 0
M  V30 55 H 4.3373 1.89425 -7.36222 0
M  V30 56 N 5.9124 1.20967 1.01018 0
M  V30 57 C 6.8594 0.964281 2.09691 0
M  V30 58 C 7.8294 -0.107853 1.65749 0
M  V30 59 O 9.0144 0.0381987 1.90762 0
M  V30 60 C 6.1544 0.52943 3.41015 0
M  V30 61 C 5.2674 1.67043 3.98398 0
M  V30 62 C 4.4024 1.18525 5.17808 0
M  V30 63 C 3.4414 2.29892 5.67288 0
M  V30 64 N 2.5784 1.82546 6.77954 0
M  V30 65 H 7.4184 1.89463 2.30017 0
M  V30 66 H 4.9554 0.944289 1.1279 0
M  V30 67 H 6.9134 0.258588 4.16398 0
M  V30 68 H 5.5434 -0.363919 3.20742 0
M  V30 69 H 4.5954 2.05603 3.20049 0
M  V30 70 H 5.9074 2.50877 4.31117 0
M  V30 71 H 5.0614 0.870762 6.00419 0
M  V30 72 H 3.8004 0.316887 4.86669 0
M  V30 73 H 2.8054 2.6215 4.83278 0
M  V30 74 H 4.0304 3.17216 6.00459 0
M  V30 75 H 1.9764 0.980454 6.48632 0
M  V30 76 H 1.8934 2.59956 7.09901 0
M  V30 77 H 3.1614 1.54115 7.64113 0
M  V30 78 N 7.3905 -1.2043 1.01659 0
M  V30 79 C 8.8065 -1.41852 0.731442 0
M  V30 80 C 9.0065 -1.89358 -0.688898 0
M  V30 81 O 8.0625 -2.06247 -1.45666 0
M  V30 82 C 9.3755 -2.44019 1.75714 0
M  V30 83 C 10.9235 -2.57785 1.77527 0
M  V30 84 C 11.3985 -3.63194 2.79023 0
M  V30 85 N 12.8895 -3.70678 2.77763 0
M  V30 86 C 13.6245 -4.51897 3.52954 0
M  V30 87 N 13.1205 -5.36921 4.37821 0
M  V30 88 N 14.9135 -4.4643 3.41551 0
M  V30 89 H 7.0645 -0.879093 1.93354 0
M  V30 90 H 9.3275 -0.448425 0.835236 0
M  V30 91 H 9.0335 -2.1611 2.77469 0
M  V30 92 H 8.9075 -3.43007 1.56927 0
M  V30 93 H 11.2945 -2.85023 0.764569 0
M  V30 94 H 11.3755 -1.58992 2.00387 0
M  V30 95 H 11.0195 -3.36699 3.80258 0
M  V30 96 H 10.9495 -4.61609 2.53425 0
M  V30 97 H 13.4405 -3.09944 2.16201 0
M  V30 98 H 13.7535 -5.95981 4.91962 0
M  V30 99 H 12.0985 -5.36424 4.41899 0
M  V30 100 H 15.2895 -3.79042 2.74672 0
M  V30 101 H 15.4625 -5.09491 4.00404 0
M  V30 102 N 8.8686 -0.792821 -1.36206 0
M  V30 103 C 10.1166 -0.366062 -1.98757 0
M  V30 104 C 10.4376 1.0668 -1.63231 0
M  V30 105 O 9.7076 1.73587 -0.907978 0
M  V30 106 H 8.2876 -0.132364 -0.735179 0
M  V30 107 H 10.9496 -1.01562 -1.66347 0
M  V30 108 H 10.0456 -0.460638 -3.08682 0
M  V30 109 N 10.3467 1.47872 -0.545128 0
M  V30 110 C 11.5767 2.06589 -0.0210534 0
M  V30 111 C 11.9847 1.39997 1.27269 0
M  V30 112 O 11.3277 0.486421 1.77143 0
M  V30 113 C 11.3897 3.58574 0.257933 0
M  V30 114 C 11.0537 4.47132 -0.944573 0
M  V30 115 C 12.0507 4.85986 -1.84699 0
M  V30 116 C 9.7357 4.88821 -1.15584 0
M  V30 117 C 11.7297 5.65314 -2.94446 0
M  V30 118 C 9.4167 5.67916 -2.25642 0
M  V30 119 C 10.4147 6.06073 -3.14905 0
M  V30 120 O 10.1027 6.83578 -4.23057 0
M  V30 121 H 9.8347 0.674971 -0.0372899 0
M  V30 122 H 12.3887 1.91037 -0.754599 0
M  V30 123 H 10.6187 3.72295 1.04564 0
M  V30 124 H 12.3077 3.99356 0.72592 0
M  V30 125 H 13.0737 4.54388 -1.69577 0
M  V30 126 H 8.9527 4.58595 -0.470279 0
M  V30 127 H 12.4967 5.95016 -3.64145 0
M  V30 128 H 8.3937 5.98927 -2.40742 0
M  V30 129 H 9.1617 7.01954 -4.20954 0
M  V30 130 N 11.8248 0.280983 1.55075 0
M  V30 131 C 13.1018 -0.386207 1.91749 0
M  V30 132 C 13.4818 -1.73264 1.20594 0
M  V30 133 O 12.8298 -2.26034 0.334784 0
M  V30 134 C 13.0398 -0.520687 3.45094 0
M  V30 135 C 14.3878 -0.800865 4.16979 0
M  V30 136 O 15.4118 -0.605271 3.5102 0
M  V30 137 O 14.2708 -1.1753 5.33712 0
M  V30 138 H 11.3648 -0.212408 0.799257 0
M  V30 139 H 13.9108 0.327568 1.66509 0
M  V30 140 H 12.6828 0.426633 3.88967 0
M  V30 141 H 12.3058 -1.2837 3.76307 0
M  V30 142 N 13.3029 -1.57598 0.00835791 0
M  V30 143 C 14.5509 -1.90551 -0.6734 0
M  V30 144 C 14.8719 -0.883301 -1.73847 0
M  V30 145 O 14.1419 0.0781442 -1.95744 0
M  V30 146 H 12.7219 -0.703312 -0.251717 0
M  V30 147 H 15.3839 -1.94833 0.0512592 0
M  V30 148 H 14.4799 -2.9056 -1.13935 0
M  V30 149 N 14.781 0.264519 -1.55364 0
M  V30 150 C 15.728 1.32717 -1.88825 0
M  V30 151 C 16.698 1.48675 -0.740605 0
M  V30 152 O 17.883 1.62945 -0.992657 0
M  V30 153 C 15.023 2.68089 -2.17307 0
M  V30 154 C 14.136 2.60284 -3.44785 0
M  V30 155 C 13.271 3.87892 -3.62924 0
M  V30 156 C 12.31 3.74631 -4.84064 0
M  V30 157 N 11.447 4.94092 -4.98816 0
M  V30 158 H 16.287 1.03481 -2.79456 0
M  V30 159 H 13.824 0.499757 -1.3835 0
M  V30 160 H 15.782 3.46864 -2.31821 0
M  V30 161 H 14.412 2.95509 -1.299 0
M  V30 162 H 13.464 1.73173 -3.38697 0
M  V30 163 H 14.776 2.46388 -4.33698 0
M  V30 164 H 13.93 4.75109 -3.77302 0
M  V30 165 H 12.669 4.04664 -2.7221 0
M  V30 166 H 11.674 2.85797 -4.69681 0
M  V30 167 H 12.899 3.5937 -5.76221 0
M  V30 168 H 10.845 5.11259 -4.11036 0
M  V30 169 H 10.762 4.8276 -5.81789 0
M  V30 170 H 12.03 5.82857 -5.17588 0
M  V30 171 N 16.2591 1.48442 0.529413 0
M  V30 172 C 17.5081 1.55742 1.28169 0
M  V30 173 C 17.8211 0.236511 1.94165 0
M  V30 174 O 19.0271 0.187761 2.7085 0
M  V30 175 C 17.4831 2.74667 2.32564 0
M  V30 176 C 17.0911 4.13402 1.72636 0
M  V30 177 C 18.8351 2.9128 3.08798 0
M  V30 178 C 16.7421 5.23587 2.74975 0
M  V30 179 H 15.6721 0.579796 0.48203 0
M  V30 180 H 18.3231 1.74776 0.559056 0
M  V30 181 H 16.7051 2.49067 3.07866 0
M  V30 182 H 17.8791 4.49022 1.03519 0
M  V30 183 H 16.1941 4.0191 1.08892 0
M  V30 184 H 18.7911 3.70767 3.85274 0
M  V30 185 H 19.1341 2.00757 3.64695 0
M  V30 186 H 19.6671 3.16782 2.40611 0
M  V30 187 H 16.4061 6.16076 2.23897 0
M  V30 188 H 15.9261 4.92454 3.42417 0
M  V30 189 H 17.6051 5.51724 3.37949 0
M  V30 190 N 17.7372 -0.778329 1.37039 0
M  V30 191 C 18.7002 -1.87301 1.32102 0
M  V30 192 C 19.7002 -1.59198 0.226405 0
M  V30 193 O 20.8902 -1.67403 0.481861 0
M  V30 194 C 18.0222 -3.24309 1.05055 0
M  V30 195 H 19.2152 -1.93093 2.29467 0
M  V30 196 H 16.7682 -0.977358 1.21973 0
M  V30 197 H 17.5032 -3.24196 0.0819373 0
M  V30 198 H 17.2882 -3.46098 1.84279 0
M  V30 199 H 18.7782 -4.04382 1.04234 0
M  V30 200 N 19.2153 -1.21501 -1.00376 0
M  V30 201 C 20.4633 -1.03095 -1.73827 0
M  V30 202 C 20.7843 0.436341 -1.90055 0
M  V30 203 O 20.0543 1.31466 -1.45236 0
M  V30 204 H 18.6343 -0.378487 -0.644016 0
M  V30 205 H 21.2963 -1.52831 -1.20949 0
M  V30 206 H 20.3923 -1.49991 -2.73695 0
M  V30 207 N 20.6934 1.19889 -1.02296 0
M  V30 208 C 21.6234 2.25141 -0.619174 0
M  V30 209 C 22.6044 1.66051 0.368915 0
M  V30 210 O 23.7894 1.92546 0.252941 0
M  V30 211 C 20.9194 3.4728 0.0368783 0
M  V30 212 C 19.8734 4.19005 -0.872865 0
M  V30 213 C 19.1994 5.34637 -0.0822402 0
M  V30 214 C 20.4994 4.74452 -2.18387 0
M  V30 215 H 22.1934 2.59171 -1.49903 0
M  V30 216 H 19.7394 1.24579 -0.722222 0
M  V30 217 H 21.6924 4.20098 0.330958 0
M  V30 218 H 20.4164 3.12433 0.95149 0
M  V30 219 H 19.0754 3.48061 -1.15105 0
M  V30 220 H 18.7234 4.96034 0.83422 0
M  V30 221 H 18.4234 5.83557 -0.688149 0
M  V30 222 H 19.9474 6.10255 0.205238 0
M  V30 223 H 21.3614 5.39055 -1.95172 0
M  V30 224 H 19.7584 5.33834 -2.74119 0
M  V30 225 H 20.8284 3.92844 -2.84257 0
M  V30 226 N 22.1715 0.800033 1.35784 0
M  V30 227 C 23.4015 0.389041 2.02904 0
M  V30 228 C 23.8095 -1.0027 1.60445 0
M  V30 229 O 23.1525 -1.65633 0.794453 0
M  V30 230 C 23.2145 0.385495 3.57427 0
M  V30 231 C 22.8785 1.72662 4.23127 0
M  V30 232 C 23.8755 2.68385 4.4527 0
M  V30 233 C 21.5605 2.00883 4.60381 0
M  V30 234 C 23.5545 3.90517 5.03761 0
M  V30 235 C 21.2415 3.2328 5.18588 0
M  V30 236 C 22.2395 4.17915 5.40218 0
M  V30 237 O 21.9275 5.38153 5.97199 0
M  V30 238 H 21.6595 0.157032 0.657508 0
M  V30 239 H 24.2135 1.08311 1.74522 0
M  V30 240 H 22.4435 -0.365128 3.84972 0
M  V30 241 H 24.1325 -0.00228296 4.059 0
M  V30 242 H 24.8985 2.47872 4.16874 0
M  V30 243 H 20.7775 1.28037 4.42863 0
M  V30 244 H 24.3215 4.64395 5.2056 0
M  V30 245 H 20.2185 3.43667 5.4641 0
M  V30 246 H 20.9865 5.3936 6.15656 0
M  V30 247 N 23.6496 -1.47581 0.552962 0
M  V30 248 C 24.9266 -1.95563 -0.0381515 0
M  V30 249 C 25.3066 -1.49552 -1.48988 0
M  V30 250 O 24.6546 -0.732414 -2.16444 0
M  V30 251 C 24.8646 -3.48848 0.102919 0
M  V30 252 C 26.2126 -4.24577 -0.0446082 0
M  V30 253 O 27.2366 -3.56187 0.0302548 0
M  V30 254 O 26.0956 -5.46116 -0.204923 0
M  V30 255 H 23.1896 -0.824321 -0.0665067 0
M  V30 256 H 25.7356 -1.58001 0.619186 0
M  V30 257 H 24.5076 -3.75129 1.11328 0
M  V30 258 H 24.1306 -3.93165 -0.592224 0
M  V30 259 N 25.1277 -0.289203 -1.54924 0
M  V30 260 C 26.0577 0.58549 -2.2604 0
M  V30 261 C 27.0387 1.14753 -1.25562 0
M  V30 262 O 28.2237 1.17906 -1.54311 0
M  V30 263 C 25.3537 1.76305 -2.99222 0
M  V30 264 C 24.3077 1.33191 -4.06748 0
M  V30 265 C 23.6337 2.5937 -4.6758 0
M  V30 266 C 24.9337 0.471775 -5.20165 0
M  V30 267 H 26.6277 -0.00763532 -2.99399 0
M  V30 268 H 24.1737 -0.00511229 -1.43999 0
M  V30 269 H 26.1267 2.38097 -3.47689 0
M  V30 270 H 24.8507 2.38223 -2.23422 0
M  V30 271 H 23.5097 0.737121 -3.59113 0
M  V30 272 H 23.1577 3.19576 -3.88433 0
M  V30 273 H 22.8577 2.31228 -5.40192 0
M  V30 274 H 24.3817 3.21985 -5.18804 0
M  V30 275 H 25.7957 0.995056 -5.64599 0
M  V30 276 H 24.1927 0.284639 -5.99425 0
M  V30 277 H 25.2627 -0.506041 -4.82252 0
M  V30 278 N 26.6058 1.57591 -0.0167156 0
M  V30 279 C 27.8828 1.82547 0.702564 0
M  V30 280 C 28.2628 0.898018 1.91047 0
M  V30 281 O 27.6108 -0.0493456 2.28447 0
M  V30 282 C 27.8208 3.31459 1.09251 0
M  V30 283 C 29.1688 3.97622 1.48937 0
M  V30 284 O 30.1928 3.35881 1.18584 0
M  V30 285 O 29.0518 5.06415 2.05442 0
M  V30 286 H 26.1458 0.752268 0.343544 0
M  V30 287 H 28.6918 1.69644 -0.0434495 0
M  V30 288 H 27.4638 3.9061 0.23227 0
M  V30 289 H 27.0868 3.49422 1.89709 0
M  V30 290 N 28.0839 -0.256276 1.55502 0
M  V30 291 C 29.0309 -1.31714 1.89526 0
M  V30 292 C 30.0009 -1.4828 0.748479 0
M  V30 293 O 31.1859 -1.62416 1.00128 0
M  V30 294 C 28.3259 -2.66933 2.18725 0
M  V30 295 C 27.4389 -2.58452 3.4616 0
M  V30 296 C 26.5739 -3.85961 3.64976 0
M  V30 297 C 25.6129 -3.72059 4.86044 0
M  V30 298 N 24.7499 -4.9144 5.01429 0
M  V30 299 H 29.5899 -1.01998 2.80001 0
M  V30 300 H 27.1269 -0.492413 1.38613 0
M  V30 301 H 29.0849 -3.4563 2.33657 0
M  V30 302 H 27.7149 -2.94816 1.31466 0
M  V30 303 H 26.7669 -1.71374 3.3961 0
M  V30 304 H 28.0789 -2.44085 4.34999 0
M  V30 305 H 27.2329 -4.73101 3.79816 0
M  V30 306 H 25.9719 -4.03215 2.74353 0
M  V30 307 H 24.9769 -2.83302 4.7119 0
M  V30 308 H 26.2019 -3.56309 5.78118 0
M  V30 309 H 24.1479 -5.09072 4.13741 0
M  V30 310 H 24.0649 -4.79668 5.84341 0
M  V30 311 H 25.3329 -5.80104 5.20672 0
M  V30 312 N 29.562 -1.4872 -0.521534 0
M  V30 313 C 30.79 -1.60843 -1.30142 0
M  V30 314 C 31.205 -0.271897 -1.86832 0
M  V30 315 O 30.562 0.739969 -1.66825 0
M  V30 316 C 30.613 -2.66155 -2.4463 0
M  V30 317 O 30.334 -3.94623 -1.90275 0
M  V30 318 C 31.835 -2.88795 -3.36322 0
M  V30 319 H 29.055 -0.542075 -0.395468 0
M  V30 320 H 31.599 -1.94609 -0.628285 0
M  V30 321 H 29.754 -2.35224 -3.07812 0
M  V30 322 H 30.168 -4.52468 -2.65279 0
M  V30 323 H 31.642 -3.66264 -4.12983 0
M  V30 324 H 32.119 -1.97934 -3.9207 0
M  V30 325 H 32.725 -3.21063 -2.78924 0
M  V30 326 N 31.0401 0.771051 -1.3745 0
M  V30 327 C 31.9701 1.89827 -1.3597 0
M  V30 328 C 32.9511 1.68562 -0.228216 0
M  V30 329 O 34.1361 1.8941 -0.428675 0
M  V30 330 C 31.2661 3.2712 -1.16662 0
M  V30 331 C 30.2201 3.6295 -2.2683 0
M  V30 332 C 29.5461 4.98791 -1.92644 0
M  V30 333 C 30.8461 3.69627 -3.69017 0
M  V30 334 H 32.5401 1.91323 -2.30295 0
M  V30 335 H 30.0861 0.919082 -1.10855 0
M  V30 336 H 32.0391 4.05615 -1.14256 0
M  V30 337 H 30.7631 3.26059 -0.187926 0
M  V30 338 H 29.4221 2.86763 -2.28392 0
M  V30 339 H 29.0701 4.94271 -0.933021 0
M  V30 340 H 28.7701 5.23733 -2.66416 0
M  V30 341 H 30.2941 5.79685 -1.91826 0
M  V30 342 H 31.7081 4.38273 -3.69581 0
M  V30 343 H 30.1051 4.06067 -4.41848 0
M  V30 344 H 31.1751 2.70273 -4.02592 0
M  V30 345 N 32.5182 1.22032 0.997298 0
M  V30 346 C 33.7662 1.04016 1.73278 0
M  V30 347 C 34.0872 -0.426255 1.90284 0
M  V30 348 O 33.3572 -1.30694 1.45931 0
M  V30 349 H 31.9372 0.381897 0.642 0
M  V30 350 H 34.5992 1.5347 1.20137 0
M  V30 351 H 33.6952 1.51441 2.72896 0
M  V30 352 N 33.9963 -1.19345 1.0293 0
M  V30 353 C 35.4123 -1.41069 0.746446 0
M  V30 354 C 35.6123 -1.90078 -0.668776 0
M  V30 355 O 34.6683 -2.0778 -1.4347 0
M  V30 356 C 35.9813 -2.42141 1.78292 0
M  V30 357 C 37.5293 -2.55887 1.80252 0
M  V30 358 C 38.0043 -3.60214 2.8286 0
M  V30 359 N 39.4953 -3.67711 2.81679 0
M  V30 360 C 40.2303 -4.48128 3.57727 0
M  V30 361 N 39.7263 -5.32248 4.43491 0
M  V30 362 N 41.5193 -4.42782 3.46267 0
M  V30 363 H 33.6703 -0.858536 1.94275 0
M  V30 364 H 35.9333 -0.439541 0.839945 0
M  V30 365 H 35.6393 -2.13155 2.79746 0
M  V30 366 H 35.5133 -3.41323 1.60557 0
M  V30 367 H 37.9003 -2.84196 0.794757 0
M  V30 368 H 37.9813 -1.56858 2.02062 0
M  V30 369 H 37.6253 -3.32647 3.83807 0
M  V30 370 H 37.5553 -4.58895 2.58307 0
M  V30 371 H 40.0463 -3.07634 2.19476 0
M  V30 372 H 40.3593 -5.90729 4.98256 0
M  V30 373 H 38.7043 -5.31707 4.47564 0
M  V30 374 H 41.8953 -3.76107 2.78677 0
M  V30 375 H 42.0683 -5.05215 4.05785 0
M  V30 376 N 35.4744 -0.807222 -1.35358 0
M  V30 377 C 36.7224 -0.387122 -1.98358 0
M  V30 378 C 37.0434 1.04942 -1.64354 0
M  V30 379 O 36.3134 1.72615 -0.926339 0
M  V30 380 H 34.8934 -0.140154 -0.733734 0
M  V30 381 H 37.5554 -1.0332 -1.6526 0
M  V30 382 H 36.6514 -0.493352 -3.08176 0
M  V30 383 N 36.9525 1.47285 -0.560781 0
M  V30 384 C 37.9025 2.27073 0.205384 0
M  V30 385 C 38.8865 1.34569 0.882044 0
M  V30 386 O 40.0785 1.58899 0.77976 0
M  V30 387 C 37.2075 3.20414 1.23247 0
M  V30 388 C 36.2935 4.20399 0.559041 0
M  V30 389 N 36.6845 5.04423 -0.372927 0
M  V30 390 C 34.9825 4.38536 0.812522 0
M  V30 391 C 35.6835 5.76655 -0.764446 0
M  V30 392 N 34.6595 5.43471 -0.11848 0
M  V30 393 H 38.4615 2.89422 -0.511117 0
M  V30 394 H 35.9755 1.57868 -0.380975 0
M  V30 395 H 37.9725 3.76262 1.79534 0
M  V30 396 H 36.6325 2.59623 1.95002 0
M  V30 397 H 37.6435 5.1248 -0.747287 0
M  V30 398 H 34.3205 3.88913 1.51832 0
M  V30 399 H 35.7105 6.54238 -1.53045 0
M  V30 400 N 38.4306 0.297415 1.54768 0
M  V30 401 C 39.6776 -0.312913 2.00068 0
M  V30 402 C 40.0056 -1.54171 1.18582 0
M  V30 403 O 39.2606 -1.94108 0.249133 0
M  V30 404 C 39.5596 -0.717561 3.50123 0
M  V30 405 C 39.2256 0.409095 4.4904 0
M  V30 406 C 37.8876 0.718399 4.75807 0
M  V30 407 C 40.2396 1.16717 5.07963 0
M  V30 408 C 37.5676 1.78896 5.5876 0
M  V30 409 C 39.9196 2.22762 5.92081 0
M  V30 410 C 38.5836 2.54303 6.1716 0
M  V30 411 H 37.8536 -0.114503 0.7321 0
M  V30 412 H 40.5006 0.415767 1.86932 0
M  V30 413 H 38.8056 -1.52627 3.60849 0
M  V30 414 H 40.5026 -1.20091 3.82595 0
M  V30 415 H 37.0926 0.157918 4.28309 0
M  V30 416 H 41.2766 0.941466 4.87289 0
M  V30 417 H 36.5326 2.0381 5.7643 0
M  V30 418 H 40.7066 2.81962 6.36765 0
M  V30 419 H 38.3336 3.3739 6.81229 0
M  V30 420 N 39.9087 -1.5758 0.0250728 0
M  V30 421 C 40.8717 -2.08896 -0.943139 0
M  V30 422 C 41.8717 -1.00321 -1.25668 0
M  V30 423 O 43.0617 -1.26495 -1.19769 0
M  V30 424 C 40.1937 -2.55143 -2.26086 0
M  V30 425 H 41.3867 -2.95723 -0.498775 0
M  V30 426 H 38.9397 -1.54703 -0.222888 0
M  V30 427 H 39.6747 -1.71633 -2.75159 0
M  V30 428 H 39.4597 -3.34461 -2.04641 0
M  V30 429 H 40.9497 -2.95083 -2.95492 0
M  V30 430 N 41.3868 0.248026 -1.55636 0
M  V30 431 C 42.6328 0.97767 -1.77678 0
M  V30 432 C 42.9658 1.85016 -0.590135 0
M  V30 433 O 42.2408 1.90095 0.411611 0
M  V30 434 C 42.5238 1.83914 -3.09593 0
M  V30 435 C 42.3768 0.99491 -4.38659 0
M  V30 436 C 43.6958 2.82183 -3.37729 0
M  V30 437 H 40.8148 0.354005 -0.646413 0
M  V30 438 H 43.4568 0.248253 -1.88371 0
M  V30 439 H 41.6068 2.46104 -3.00608 0
M  V30 440 H 43.2788 0.391789 -4.59633 0
M  V30 441 H 41.5218 0.299231 -4.32767 0
M  V30 442 H 42.1928 1.63145 -5.2734 0
M  V30 443 H 44.6688 2.30129 -3.4667 0
M  V30 444 H 43.5448 3.39582 -4.31249 0
M  V30 445 H 43.8058 3.58588 -2.58586 0
M  V30 446 N 42.8649 1.48995 0.513639 0
M  V30 447 C 44.1109 1.58076 1.27042 0
M  V30 448 C 44.4439 0.261026 1.92438 0
M  V30 449 O 43.7189 -0.734393 1.80103 0
M  V30 450 C 44.0019 2.73091 2.34719 0
M  V30 451 C 43.8549 4.14821 1.73907 0
M  V30 452 C 45.1739 2.83796 3.36375 0
M  V30 453 H 42.2929 0.575391 0.460536 0
M  V30 454 H 44.9349 1.81232 0.570516 0
M  V30 455 H 43.0849 2.53479 2.94416 0
M  V30 456 H 44.7569 4.45917 1.18135 0
M  V30 457 H 42.9999 4.21058 1.0437 0
M  V30 458 H 43.6709 4.91147 2.51949 0
M  V30 459 H 46.1469 3.01611 2.86653 0
M  V30 460 H 45.0229 3.65971 4.09093 0
M  V30 461 H 45.2839 1.92624 3.9793 0
M  V30 462 N 44.343 -0.763751 1.37857 0
M  V30 463 C 45.29 -1.87726 1.34267 0
M  V30 464 C 46.26 -1.64807 0.206879 0
M  V30 465 O 47.445 -1.86613 0.397508 0
M  V30 466 C 44.585 -3.24896 1.16346 0
M  V30 467 C 43.698 -3.59716 2.39225 0
M  V30 468 C 42.833 -4.86137 2.14114 0
M  V30 469 C 41.872 -5.13711 3.32817 0
M  V30 470 N 41.009 -6.31323 3.07206 0
M  V30 471 H 45.849 -1.90129 2.29466 0
M  V30 472 H 43.386 -0.929433 1.14017 0
M  V30 473 H 45.344 -4.04036 1.03975 0
M  V30 474 H 43.974 -3.21847 0.247909 0
M  V30 475 H 43.026 -2.75498 2.62307 0
M  V30 476 H 44.338 -3.76027 3.27728 0
M  V30 477 H 43.492 -5.73198 1.9882 0
M  V30 478 H 42.231 -4.71945 1.22961 0
M  V30 479 H 41.236 -4.25123 3.48641 0
M  V30 480 H 42.461 -5.29807 4.24832 0
M  V30 481 H 40.407 -6.18474 2.1869 0
M  V30 482 H 40.324 -6.48087 3.89254 0
M  V30 483 H 41.592 -7.213 2.95546 0
M  V30 484 N 45.8211 -1.22559 -0.990812 0
M  V30 485 C 46.7511 -1.0218 -2.09956 0
M  V30 486 C 47.7321 0.0579394 -1.70001 0
M  V30 487 O 48.9171 -0.104684 -1.93918 0
M  V30 488 C 46.0471 -0.601023 -3.4206 0
M  V30 489 C 45.0011 -1.62694 -3.95872 0
M  V30 490 C 44.3271 -1.06193 -5.24049 0
M  V30 491 C 45.6271 -3.01743 -4.2632 0
M  V30 492 H 47.3211 -1.94916 -2.27262 0
M  V30 493 H 44.8671 -0.938566 -1.09211 0
M  V30 494 H 46.8201 -0.445561 -4.19038 0
M  V30 495 H 45.5441 0.362005 -3.24588 0
M  V30 496 H 44.2031 -1.77021 -3.21028 0
M  V30 497 H 43.8511 -0.0901903 -5.02919 0
M  V30 498 H 43.5511 -1.74732 -5.61019 0
M  V30 499 H 45.0751 -0.918092 -6.03658 0
M  V30 500 H 46.4891 -2.90777 -4.94087 0
M  V30 501 H 44.8861 -3.67425 -4.74467 0
M  V30 502 H 45.9561 -3.51518 -3.34011 0
M  V30 503 N 47.2992 1.18797 -1.03562 0
M  V30 504 C 48.2622 2.20464 -0.626769 0
M  V30 505 C 49.2622 1.57721 0.313173 0
M  V30 506 O 50.4522 1.73917 0.0992615 0
M  V30 507 C 47.5842 3.40802 0.0818498 0
M  V30 508 H 48.7772 2.58149 -1.5264 0
M  V30 509 H 46.3302 1.32593 -0.827578 0
M  V30 510 H 47.0652 3.08642 0.995518 0
M  V30 511 H 46.8502 3.8758 -0.593652 0
M  V30 512 H 48.3402 4.16092 0.354584 0
M  V30 513 N 48.7773 0.814389 1.34928 0
M  V30 514 C 50.1933 0.499084 1.51596 0
M  V30 515 C 50.3933 -0.978319 1.76157 0
M  V30 516 O 49.4493 -1.76309 1.80752 0
M  V30 517 C 50.7623 1.35121 2.68631 0
M  V30 518 C 52.3103 1.34746 2.82511 0
M  V30 519 C 52.7853 2.18388 4.0258 0
M  V30 520 N 54.2763 2.15966 4.09772 0
M  V30 521 C 55.0113 2.77437 5.01813 0
M  V30 522 N 54.5073 3.47866 5.99134 0
M  V30 523 N 56.3003 2.67037 4.94619 0
M  V30 524 H 48.4513 1.7711 1.17243 0
M  V30 525 H 50.7143 0.754256 0.574284 0
M  V30 526 H 50.4203 2.40001 2.57085 0
M  V30 527 H 50.2943 1.00991 3.63429 0
M  V30 528 H 52.6813 0.30648 2.93504 0
M  V30 529 H 52.7623 1.72869 1.88547 0
M  V30 530 H 52.4063 3.2253 3.92347 0
M  V30 531 H 52.3363 1.77621 4.9574 0
M  V30 532 H 54.8273 1.64729 3.40107 0
M  V30 533 H 55.1403 3.92038 6.65977 0
M  V30 534 H 53.4853 3.51972 5.99284 0
M  V30 535 H 56.6763 2.11597 4.17546 0
M  V30 536 H 56.8493 3.15232 5.66156 0
M  V30 537 N 50.2554 -1.46986 0.568584 0
M  V30 538 C 51.2054 -2.27179 -0.193339 0
M  V30 539 C 52.1894 -1.35035 -0.874895 0
M  V30 540 O 53.3814 -1.5931 -0.771322 0
M  V30 541 C 50.5104 -3.21063 -1.21546 0
M  V30 542 C 49.5964 -4.2069 -0.536738 0
M  V30 543 N 49.9874 -5.04218 0.399673 0
M  V30 544 C 48.2854 -4.38961 -0.789254 0
M  V30 545 C 48.9864 -5.76242 0.795017 0
M  V30 546 N 47.9624 -5.434 0.1473 0
M  V30 547 H 51.7644 -2.89146 0.526458 0
M  V30 548 H 49.2784 -1.57664 0.389342 0
M  V30 549 H 51.2754 -3.77209 -1.77536 0
M  V30 550 H 49.9354 -2.60654 -1.93623 0
M  V30 551 H 50.9464 -5.12077 0.774454 0
M  V30 552 H 47.6234 -3.89713 -1.49767 0
M  V30 553 H 49.0134 -6.53417 1.56513 0
M  V30 554 N 51.7335 -0.305618 -1.54608 0
M  V30 555 C 52.9795 0.302746 -2.00528 0
M  V30 556 C 53.3125 1.53184 -1.19367 0
M  V30 557 O 52.5875 1.92598 -0.271321 0
M  V30 558 C 52.8705 0.654756 -3.54097 0
M  V30 559 C 52.7235 -0.583793 -4.45995 0
M  V30 560 C 54.0425 1.47947 -4.14487 0
M  V30 561 H 51.1615 0.108564 -0.72896 0
M  V30 562 H 53.8035 -0.418634 -1.85331 0
M  V30 563 H 51.9535 1.26935 -3.67178 0
M  V30 564 H 53.6255 -1.22224 -4.44814 0
M  V30 565 H 51.8685 -1.21615 -4.16404 0
M  V30 566 H 52.5395 -0.293287 -5.5122 0
M  V30 567 H 55.0155 0.96013 -4.04871 0
M  V30 568 H 53.8915 1.69454 -5.22088 0
M  V30 569 H 54.1525 2.47011 -3.66658 0
M  V30 570 N 53.2116 1.57565 -0.0334293 0
M  V30 571 C 54.4586 1.91978 0.644272 0
M  V30 572 C 54.7866 0.910231 1.71887 0
M  V30 573 O 54.0416 -0.0801961 1.95536 0
M  V30 574 C 54.3406 3.33112 1.29504 0
M  V30 575 C 54.0066 4.49537 0.350388 0
M  V30 576 C 52.6686 4.81115 0.0903974 0
M  V30 577 C 55.0206 5.20347 -0.298032 0
M  V30 578 C 52.3486 5.8086 -0.825746 0
M  V30 579 C 54.7006 6.2107 -1.20226 0
M  V30 580 C 53.3646 6.51088 -1.4711 0
M  V30 581 H 52.6346 0.702496 0.235756 0
M  V30 582 H 55.2816 1.91259 -0.0961176 0
M  V30 583 H 53.5866 3.30113 2.11028 0
M  V30 584 H 55.2836 3.57011 1.82603 0
M  V30 585 H 51.8736 4.24883 0.563205 0
M  V30 586 H 56.0576 4.96178 -0.110234 0
M  V30 587 H 51.3136 6.02461 -1.04169 0
M  V30 588 H 55.4876 6.75057 -1.71086 0
M  V30 589 H 53.1146 7.28193 -2.18264 0
M  V30 590 N 54.6897 -0.239769 1.55765 0
M  V30 591 C 55.9177 -0.98417 1.81994 0
M  V30 592 C 56.3327 -1.7867 0.610124 0
M  V30 593 O 55.6897 -1.77571 -0.421271 0
M  V30 594 C 55.7407 -1.91635 3.06526 0
M  V30 595 O 55.4617 -1.14629 4.22838 0
M  V30 596 C 56.9627 -2.77616 3.45607 0
M  V30 597 H 54.1827 -0.28928 0.605441 0
M  V30 598 H 56.7267 -0.260499 2.02834 0
M  V30 599 H 54.8817 -2.5942 2.87715 0
M  V30 600 H 55.2957 -1.77745 4.93464 0
M  V30 601 H 56.7697 -3.38759 4.35828 0
M  V30 602 H 57.2467 -3.4909 2.6652 0
M  V30 603 H 57.8527 -2.15271 3.66795 0
M  V30 604 N 56.1678 -1.49265 -0.50573 0
M  V30 605 C 57.4158 -1.582 -1.25766 0
M  V30 606 C 57.7368 -0.268482 -1.93143 0
M  V30 607 O 57.0068 0.711833 -1.8251 0
M  V30 608 H 55.5868 -0.582873 -0.467191 0
M  V30 609 H 58.2488 -1.85865 -0.586525 0
M  V30 610 H 57.3448 -2.37563 -2.02412 0
M  V30 611 N 57.6459 0.756429 -1.3826 0
M  V30 612 C 58.5559 1.9009 -1.37488 0
M  V30 613 C 59.5719 1.71855 -0.272366 0
M  V30 614 O 60.7479 1.94827 -0.510318 0
M  V30 615 C 57.8129 3.25421 -1.19592 0
M  V30 616 C 56.8739 3.56202 -2.39622 0
M  V30 617 C 56.1069 4.85075 -2.2257 0
M  V30 618 O 56.3299 5.57246 -1.21793 0
M  V30 619 O 55.2639 5.15269 -3.11098 0
M  V30 620 H 59.0899 1.93695 -2.33914 0
M  V30 621 H 56.6749 0.901313 -1.1915 0
M  V30 622 H 58.5569 4.06337 -1.11661 0
M  V30 623 H 57.2319 3.22634 -0.262486 0
M  V30 624 H 56.1389 2.75458 -2.53128 0
M  V30 625 H 57.4719 3.63747 -3.31586 0
M  V30 626 N 59.124 1.23083 0.984299 0
M  V30 627 C 60.071 1.00854 2.07598 0
M  V30 628 C 61.041 -0.0726709 1.65941 0
M  V30 629 O 62.226 0.0786535 1.90638 0
M  V30 630 C 59.366 0.601645 3.39815 0
M  V30 631 C 58.479 1.75456 3.94765 0
M  V30 632 C 57.614 1.29482 5.15177 0
M  V30 633 C 56.653 2.41873 5.62284 0
M  V30 634 N 55.79 1.96885 6.73929 0
M  V30 635 H 60.63 1.943 2.25946 0
M  V30 636 H 58.167 0.968001 1.10762 0
M  V30 637 H 60.125 0.346854 4.15756 0
M  V30 638 H 58.755 -0.295803 3.21442 0
M  V30 639 H 57.807 2.12346 3.15616 0
M  V30 640 H 59.119 2.59965 4.25699 0
M  V30 641 H 58.273 0.997923 5.98437 0
M  V30 642 H 57.012 0.420046 4.85888 0
M  V30 643 H 56.017 2.72342 4.77608 0
M  V30 644 H 57.242 3.29881 5.93595 0
M  V30 645 H 55.188 1.11782 6.46406 0
M  V30 646 H 55.105 2.74956 7.04227 0
M  V30 647 H 56.373 1.70289 7.60672 0
M  V30 648 N 60.6021 -1.18246 1.0419 0
M  V30 649 C 61.8481 -1.88536 0.747122 0
M  V30 650 C 62.1811 -1.80223 -0.723409 0
M  V30 651 O 61.4561 -1.20337 -1.52804 0
M  V30 652 C 61.7391 -3.38968 1.21544 0
M  V30 653 C 61.5921 -3.56084 2.74816 0
M  V30 654 C 62.9111 -4.32648 0.806482 0
M  V30 655 H 60.0301 -0.684619 0.272883 0
M  V30 656 H 62.6721 -1.39113 1.29413 0
M  V30 657 H 60.8221 -3.8119 0.750081 0
M  V30 658 H 62.4941 -3.22946 3.29399 0
M  V30 659 H 60.7371 -2.98699 3.14582 0
M  V30 660 H 61.4081 -4.61639 3.02644 0
M  V30 661 H 63.8841 -3.98211 1.20695 0
M  V30 662 H 62.7601 -5.36462 1.1619 0
M  V30 663 H 63.0211 -4.41146 -0.29029 0
M  V30 664 N 62.0802 -0.821533 -1.34494 0
M  V30 665 C 63.0432 -0.247847 -2.27856 0
M  V30 666 C 64.0432 0.573453 -1.50227 0
M  V30 667 O 65.2332 0.389759 -1.69784 0
M  V30 668 C 62.3652 0.652698 -3.34593 0
M  V30 669 H 63.5582 -1.07146 -2.80107 0
M  V30 670 H 61.1112 -0.593291 -1.44602 0
M  V30 671 H 61.8462 1.49943 -2.87555 0
M  V30 672 H 61.6312 0.065292 -3.92046 0
M  V30 673 H 63.1212 1.04793 -4.04238 0
M  V30 674 N 63.5583 1.46682 -0.576371 0
M  V30 675 C 64.8043 2.02712 -0.0596221 0
M  V30 676 C 65.1373 1.44765 1.29448 0
M  V30 677 O 64.4123 0.610355 1.84675 0
M  V30 678 C 64.6953 3.60098 0.0129503 0
M  V30 679 C 64.5483 4.28441 -1.3696 0
M  V30 680 C 65.8673 4.34224 0.71678 0
M  V30 681 H 62.9863 0.736637 -0.0231407 0
M  V30 682 H 65.6283 1.74898 -0.742351 0
M  V30 683 H 63.7783 3.83926 0.594378 0
M  V30 684 H 65.4503 4.15896 -1.9957 0
M  V30 685 H 63.6933 3.8805 -1.93907 0
M  V30 686 H 64.3643 5.3716 -1.27135 0
M  V30 687 H 66.8403 4.15503 0.222908 0
M  V30 688 H 65.7163 5.43936 0.73657 0
M  V30 689 H 65.9773 4.04823 1.77682 0
M  V30 690 N 65.0364 0.313813 1.54444 0
M  V30 691 C 65.9834 -0.55655 2.23989 0
M  V30 692 C 66.9534 -1.11943 1.22711 0
M  V30 693 O 68.1384 -1.16158 1.51367 0
M  V30 694 C 65.2784 -1.71635 2.99392 0
M  V30 695 C 64.3914 -1.18364 4.15468 0
M  V30 696 C 63.5264 -2.30834 4.78424 0
M  V30 697 C 62.5654 -1.74762 5.86622 0
M  V30 698 N 61.7024 -2.80855 6.43479 0
M  V30 699 H 66.5424 0.0430893 2.97969 0
M  V30 700 H 64.0794 0.0330359 1.47063 0
M  V30 701 H 66.0374 -2.39868 3.41349 0
M  V30 702 H 64.6674 -2.28742 2.27765 0
M  V30 703 H 63.7194 -0.393163 3.78363 0
M  V30 704 H 65.0314 -0.733262 4.93381 0
M  V30 705 H 64.1854 -3.0699 5.23299 0
M  V30 706 H 62.9244 -2.79204 3.99871 0
M  V30 707 H 61.9294 -0.970995 5.41158 0
M  V30 708 H 63.1544 -1.2728 6.67066 0
M  V30 709 H 61.1004 -3.28535 5.67804 0
M  V30 710 H 61.0174 -2.40351 7.16776 0
M  V30 711 H 62.2854 -3.5687 6.93011 0
M  V30 712 N 66.5145 -1.57545 0.0417849 0
M  V30 713 C 67.7605 -1.92601 -0.635021 0
M  V30 714 C 68.0935 -0.919627 -1.71045 0
M  V30 715 O 67.3685 0.0557892 -1.9442 0
M  V30 716 C 67.6515 -3.38085 -1.23979 0
M  V30 717 C 67.5045 -4.49467 -0.173057 0
M  V30 718 C 68.8235 -3.83776 -2.15416 0
M  V30 719 H 65.9425 -0.700397 -0.229374 0
M  V30 720 H 68.5845 -1.89728 0.101633 0
M  V30 721 H 66.7345 -3.40664 -1.86762 0
M  V30 722 H 68.4065 -4.59018 0.458312 0
M  V30 723 H 66.6495 -4.30909 0.499996 0
M  V30 724 H 67.3205 -5.48323 -0.636054 0
M  V30 725 H 69.7965 -3.83013 -1.62605 0
M  V30 726 H 68.6725 -4.8624 -2.54679 0
M  V30 727 H 68.9335 -3.19998 -3.05047 0
M  V30 728 N 67.9926 0.231505 -1.5589 0
M  V30 729 C 69.2416 0.955346 -1.7764 0
M  V30 730 C 69.5546 1.85893 -0.608546 0
M  V30 731 O 70.7606 2.62067 -0.70943 0
M  V30 732 C 69.2166 1.74886 -3.14552 0
M  V30 733 C 68.8246 0.891915 -4.39032 0
M  V30 734 C 70.5686 2.46452 -3.45633 0
M  V30 735 C 68.4756 1.68221 -5.66971 0
M  V30 736 H 67.4056 0.360446 -0.662265 0
M  V30 737 H 70.0566 0.209516 -1.823 0
M  V30 738 H 68.4386 2.53723 -3.04041 0
M  V30 739 H 69.6126 0.144793 -4.60572 0
M  V30 740 H 67.9276 0.288863 -4.15397 0
M  V30 741 H 70.5246 3.06061 -4.38441 0
M  V30 742 H 70.8676 3.18841 -2.67668 0
M  V30 743 H 71.4006 1.74613 -3.57428 0
M  V30 744 H 68.1396 1.00178 -6.478 0
M  V30 745 H 67.6596 2.4042 -5.49507 0
M  V30 746 H 69.3386 2.24544 -6.06786 0
M  V30 747 N 69.4707 1.49531 0.497807 0
M  V30 748 C 70.7477 1.49682 1.25915 0
M  V30 749 C 71.1277 0.226339 2.09883 0
M  V30 750 O 70.4757 -0.791189 2.14365 0
M  V30 751 C 70.6857 2.77755 2.11313 0
M  V30 752 C 72.0337 3.27371 2.70395 0
M  V30 753 O 73.0577 2.78894 2.21578 0
M  V30 754 O 71.9167 4.11808 3.59272 0
M  V30 755 H 69.0107 0.599228 0.56996 0
M  V30 756 H 71.5567 1.61798 0.511816 0
M  V30 757 H 70.3287 3.61713 1.49264 0
M  V30 758 H 69.9517 2.68515 2.93233 0
M  V30 759 N 70.9488 -0.749086 1.3866 0
M  V30 760 C 71.8958 -1.86291 1.36251 0
M  V30 761 C 72.8658 -1.64578 0.224347 0
M  V30 762 O 74.0508 -1.86181 0.417279 0
M  V30 763 C 71.1908 -3.23644 1.19786 0
M  V30 764 C 70.3038 -3.57158 2.43027 0
M  V30 765 C 69.4388 -4.83838 2.19258 0
M  V30 766 C 68.4778 -5.10152 3.38247 0
M  V30 767 N 67.6148 -6.28029 3.13884 0
M  V30 768 H 72.4548 -1.87685 2.3147 0
M  V30 769 H 69.9918 -0.917287 1.14997 0
M  V30 770 H 71.9498 -4.0291 1.08254 0
M  V30 771 H 70.5798 -3.21566 0.282031 0
M  V30 772 H 69.6318 -2.72701 2.65214 0
M  V30 773 H 70.9438 -3.7253 3.31697 0
M  V30 774 H 70.0978 -5.71057 2.04888 0
M  V30 775 H 68.8368 -4.70614 1.2796 0
M  V30 776 H 67.8418 -4.21401 3.53131 0
M  V30 777 H 69.0668 -5.25271 4.30427 0
M  V30 778 H 67.0128 -6.1612 2.25238 0
M  V30 779 H 66.9298 -6.43922 3.96106 0
M  V30 780 H 68.1978 -7.18124 3.03179 0
M  V30 781 N 72.4269 -1.23603 -0.977757 0
M  V30 782 C 73.6549 -1.09646 -1.75458 0
M  V30 783 C 74.0699 0.351859 -1.85492 0
M  V30 784 O 73.4269 1.24327 -1.336 0
M  V30 785 C 73.4779 -1.71895 -3.18016 0
M  V30 786 O 73.1989 -3.11063 -3.08498 0
M  V30 787 C 74.6999 -1.63415 -4.12081 0
M  V30 788 H 71.9199 -0.38359 -0.550545 0
M  V30 789 H 74.4639 -1.63507 -1.22824 0
M  V30 790 H 72.6189 -1.22061 -3.67668 0
M  V30 791 H 73.0329 -3.41305 -3.9826 0
M  V30 792 H 74.5069 -2.11669 -5.09804 0
M  V30 793 H 74.9839 -0.593462 -4.35172 0
M  V30 794 H 75.5899 -2.12628 -3.68334 0
M  V30 795 N 73.905 1.17692 -1.04816 0
M  V30 796 C 74.852 2.21581 -0.645797 0
M  V30 797 C 75.822 1.62367 0.350159 0
M  V30 798 O 77.007 1.89254 0.242433 0
M  V30 799 C 74.147 3.45092 -0.0227568 0
M  V30 800 C 73.26 4.18613 -1.06709 0
M  V30 801 C 72.395 5.29602 -0.411767 0
M  V30 802 C 71.434 5.94904 -1.44067 0
M  V30 803 N 70.571 6.97414 -0.809781 0
M  V30 804 H 75.411 2.55353 -1.5362 0
M  V30 805 H 72.948 1.25438 -0.768364 0
M  V30 806 H 74.906 4.15679 0.35588 0
M  V30 807 H 73.536 3.11917 0.831122 0
M  V30 808 H 72.588 3.46779 -1.5636 0
M  V30 809 H 73.9 4.63293 -1.84827 0
M  V30 810 H 73.054 6.06696 0.0206623 0
M  V30 811 H 71.793 4.86045 0.401438 0
M  V30 812 H 70.798 5.16544 -1.88316 0
M  V30 813 H 72.023 6.40542 -2.25571 0
M  V30 814 H 69.969 6.55998 -0.0170186 0
M  V30 815 H 69.886 7.40386 -1.52856 0
M  V30 816 H 71.154 7.78463 -0.401999 0
M  V30 817 N 75.3831 0.828654 1.34056 0
M  V30 818 C 76.3131 0.269443 2.3194 0
M  V30 819 C 77.2941 -0.617247 1.58506 0
M  V30 820 O 78.4791 -0.542931 1.86456 0
M  V30 821 C 75.6091 -0.564793 3.42677 0
M  V30 822 C 74.5631 0.225241 4.27407 0
M  V30 823 C 73.8891 -0.7321 5.29664 0
M  V30 824 C 75.1891 1.43663 5.02154 0
M  V30 825 H 76.8831 1.08728 2.7896 0
M  V30 826 H 74.4291 0.524283 1.34117 0
M  V30 827 H 76.3821 -0.966233 4.10173 0
M  V30 828 H 75.1061 -1.41574 2.9432 0
M  V30 829 H 73.7651 0.608117 3.61521 0
M  V30 830 H 73.4131 -1.57916 4.77568 0
M  V30 831 H 73.1131 -0.20767 5.87233 0
M  V30 832 H 74.6371 -1.13128 6.00029 0
M  V30 833 H 76.0511 1.1089 5.62473 0
M  V30 834 H 74.4481 1.89711 5.69324 0
M  V30 835 H 75.5181 2.21181 4.31517 0
M  V30 836 N 76.8612 -1.46375 0.584142 0
M  V30 837 C 78.1382 -1.956 0.0033388 0
M  V30 838 C 78.5182 -1.52679 -1.45782 0
M  V30 839 O 77.8662 -0.77816 -2.14842 0
M  V30 840 C 78.0762 -3.48551 0.176891 0
M  V30 841 C 79.4242 -4.24576 0.0454609 0
M  V30 842 O 80.4482 -3.56043 0.105801 0
M  V30 843 O 79.3072 -5.46427 -0.0890376 0
M  V30 844 H 76.4012 -0.825547 -0.0490066 0
M  V30 845 H 78.9472 -1.56652 0.65256 0
M  V30 846 H 77.7192 -3.72683 1.1926 0
M  V30 847 H 77.3422 -3.94332 -0.508695 0
M  V30 848 N 78.3393 -0.321999 -1.54275 0
M  V30 849 C 79.5673 0.283052 -2.04955 0
M  V30 850 C 79.9823 1.45904 -1.19823 0
M  V30 851 O 79.3393 1.81063 -0.228545 0
M  V30 852 C 79.3903 0.719028 -3.54277 0
M  V30 853 O 79.1113 -0.410175 -4.36176 0
M  V30 854 C 80.6123 1.38705 -4.21041 0
M  V30 855 H 77.8323 0.0584616 -0.668448 0
M  V30 856 H 80.3763 -0.467734 -1.99079 0
M  V30 857 H 78.5313 1.41979 -3.60445 0
M  V30 858 H 78.9453 -0.0669416 -5.24457 0
M  V30 859 H 80.4193 1.64306 -5.2698 0
M  V30 860 H 80.8963 2.33385 -3.72059 0
M  V30 861 H 81.5023 0.728906 -4.19007 0
M  V30 862 N 79.8174 1.5752 -0.0501392 0
M  V30 863 C 80.7474 2.14502 0.922566 0
M  V30 864 C 81.7284 1.06642 1.3252 0
M  V30 865 O 82.9134 1.34577 1.4001 0
M  V30 866 C 80.0434 2.68916 2.19776 0
M  V30 867 C 78.9974 3.8175 1.93523 0
M  V30 868 C 78.3234 4.22677 3.27487 0
M  V30 869 C 79.6234 5.06932 1.25765 0
M  V30 870 H 81.3174 2.9603 0.447952 0
M  V30 871 H 78.8634 1.42401 0.214024 0
M  V30 872 H 80.8164 3.07419 2.88222 0
M  V30 873 H 79.5404 1.84578 2.69441 0
M  V30 874 H 78.1994 3.43718 1.27489 0
M  V30 875 H 77.8474 3.35291 3.74952 0
M  V30 876 H 77.5474 4.98725 3.1072 0
M  V30 877 H 79.0714 4.63779 3.97166 0
M  V30 878 H 80.4854 5.42888 1.84244 0
M  V30 879 H 78.8824 5.88116 1.19328 0
M  V30 880 H 79.9524 4.84337 0.233536 0
M  V30 881 N 81.2955 -0.223234 1.56011 0
M  V30 882 C 82.2585 -1.26014 1.9145 0
M  V30 883 C 83.2585 -1.3989 0.792937 0
M  V30 884 O 84.4485 -1.38184 1.0607 0
M  V30 885 C 81.5805 -2.63422 2.16383 0
M  V30 886 H 82.7735 -0.95796 2.84189 0
M  V30 887 H 80.3265 -0.463576 1.49267 0
M  V30 888 H 81.0615 -2.98741 1.2619 0
M  V30 889 H 80.8465 -2.54728 2.98088 0
M  V30 890 H 82.3365 -3.38249 2.44903 0
M  V30 891 N 82.7736 -1.49793 -0.48987 0
M  V30 892 C 84.0016 -1.63568 -1.26701 0
M  V30 893 C 84.4166 -0.311465 -1.86213 0
M  V30 894 O 83.7736 0.704416 -1.68357 0
M  V30 895 C 83.8246 -2.71284 -2.38929 0
M  V30 896 O 83.5456 -3.9857 -1.81861 0
M  V30 897 C 85.0466 -2.95864 -3.3012 0
M  V30 898 H 82.2666 -0.550342 -0.383881 0
M  V30 899 H 84.8106 -1.95898 -0.586864 0
M  V30 900 H 82.9656 -2.417 -3.02753 0
M  V30 901 H 83.3796 -4.57993 -2.55622 0
M  V30 902 H 84.8536 -3.74941 -4.05121 0
M  V30 903 H 85.3306 -2.06206 -3.87783 0
M  V30 904 H 85.9366 -3.26907 -2.72051 0
M  V30 905 N 84.2517 0.741722 -1.39055 0
M  V30 906 C 85.4997 1.49818 -1.35643 0
M  V30 907 C 85.8207 1.94938 0.0491642 0
M  V30 908 O 85.0907 1.68505 0.999141 0
M  V30 909 H 83.6707 0.555755 -0.499144 0
M  V30 910 H 86.3327 0.880957 -1.73854 0
M  V30 911 H 85.4287 2.38348 -2.01486 0
M  V30 912 N 85.7298 1.2412 0.971189 0
M  V30 913 C 86.6798 0.997551 2.05019 0
M  V30 914 C 87.6638 -0.0597747 1.60789 0
M  V30 915 O 88.8558 0.153516 1.76333 0
M  V30 916 C 85.9848 0.600557 3.38006 0
M  V30 917 C 85.0708 1.69377 3.88809 0
M  V30 918 N 85.4618 2.92586 4.12586 0
M  V30 919 C 83.7598 1.57048 4.17435 0
M  V30 920 C 84.4608 3.63431 4.54195 0
M  V30 921 N 83.4368 2.90979 4.59165 0
M  V30 922 H 87.2388 1.93316 2.21374 0
M  V30 923 H 84.7528 1.14194 1.1547 0
M  V30 924 H 86.7498 0.40725 4.14906 0
M  V30 925 H 85.4098 -0.327903 3.2304 0
M  V30 926 H 86.4208 3.288 4.00139 0
M  V30 927 H 83.0978 0.709798 4.11422 0
M  V30 928 H 84.4878 4.69102 4.81033 0
M  V30 929 N 87.2079 -1.17134 1.05439 0
M  V30 930 C 88.1379 -2.2342 0.678649 0
M  V30 931 C 89.1189 -1.66971 -0.32476 0
M  V30 932 O 90.3039 -1.93149 -0.201802 0
M  V30 933 C 87.4339 -3.47256 0.0552099 0
M  V30 934 C 86.3879 -4.16543 0.98365 0
M  V30 935 C 85.7139 -5.34231 0.223961 0
M  V30 936 C 87.0139 -4.68495 2.3089 0
M  V30 937 H 88.7079 -2.55105 1.56722 0
M  V30 938 H 86.2539 -1.2262 0.754998 0
M  V30 939 H 88.2069 -4.20828 -0.21946 0
M  V30 940 H 86.9309 -3.14846 -0.868319 0
M  V30 941 H 85.5899 -3.44887 1.24293 0
M  V30 942 H 85.2379 -4.98071 -0.702412 0
M  V30 943 H 84.9379 -5.81527 0.842627 0
M  V30 944 H 86.4619 -6.10585 -0.0433671 0
M  V30 945 H 87.8759 -5.33691 2.09396 0
M  V30 946 H 86.2729 -5.26379 2.88176 0
M  V30 947 H 87.3429 -3.85169 2.94572 0
M  V30 948 N 88.686 -0.835752 -1.33615 0
M  V30 949 C 89.933 -0.429959 -1.97883 0
M  V30 950 C 90.261 1.01006 -1.66217 0
M  V30 951 O 89.516 1.72047 -0.93265 0
M  V30 952 C 89.815 -0.593925 -3.52431 0
M  V30 953 C 89.481 -2.00158 -4.04039 0
M  V30 954 C 88.143 -2.38662 -4.17844 0
M  V30 955 C 90.495 -2.92117 -4.31644 0
M  V30 956 C 87.823 -3.68435 -4.56588 0
M  V30 957 C 90.175 -4.21368 -4.71838 0
M  V30 958 C 88.839 -4.59833 -4.83849 0
M  V30 959 H 88.109 -0.157333 -0.724104 0
M  V30 960 H 90.756 -1.06217 -1.59343 0
M  V30 961 H 89.061 0.121619 -3.91611 0
M  V30 962 H 90.758 -0.260282 -4.00154 0
M  V30 963 H 87.348 -1.69252 -3.93766 0
M  V30 964 H 91.532 -2.63608 -4.20505 0
M  V30 965 H 86.788 -3.98046 -4.64079 0
M  V30 966 H 90.962 -4.92703 -4.92155 0
M  V30 967 H 88.589 -5.60438 -5.13627 0
M  V30 968 N 90.1641 1.46063 -0.591896 0
M  V30 969 C 91.0961 2.28539 0.174001 0
M  V30 970 C 92.1091 1.39047 0.846753 0
M  V30 971 O 93.2981 1.63564 0.714774 0
M  V30 972 C 90.3981 3.14347 1.26645 0
M  V30 973 C 89.5711 4.32021 0.683856 0
M  V30 974 C 88.6301 4.99157 1.66518 0
M  V30 975 O 87.6561 5.56458 1.19763 0
M  V30 976 N 88.8581 4.97005 2.99943 0
M  V30 977 H 91.6231 2.94911 -0.533633 0
M  V30 978 H 89.1841 1.56077 -0.430294 0
M  V30 979 H 91.1761 3.56125 1.92242 0
M  V30 980 H 89.7461 2.49988 1.87682 0
M  V30 981 H 88.9661 3.93915 -0.1498 0
M  V30 982 H 90.2541 5.08059 0.274567 0
M  V30 983 H 89.6521 4.51714 3.40545 0
M  V30 984 H 88.2091 5.42696 3.61004 0
M  V30 985 N 91.6422 0.330177 1.54103 0
M  V30 986 C 92.5522 -0.541534 2.28264 0
M  V30 987 C 93.5682 -1.12351 1.32866 0
M  V30 988 O 94.7442 -1.14206 1.65888 0
M  V30 989 C 91.8092 -1.68322 3.03098 0
M  V30 990 C 90.8702 -1.13238 4.14096 0
M  V30 991 C 90.1032 -2.21966 4.85352 0
M  V30 992 O 90.3262 -3.42437 4.56172 0
M  V30 993 O 89.2602 -1.87013 5.7211 0
M  V30 994 H 93.0862 0.060938 3.03639 0
M  V30 995 H 90.6712 0.09565 1.49093 0
M  V30 996 H 92.5532 -2.34777 3.49939 0
M  V30 997 H 91.2282 -2.27176 2.30593 0
M  V30 998 H 90.1352 -0.432736 3.71589 0
M  V30 999 H 91.4682 -0.588898 4.88664 0
M  V30 1000 N 93.1203 -1.57491 0.0584922 0
M  V30 1001 C 94.3663 -1.93264 -0.614558 0
M  V30 1002 C 94.6993 -0.937717 -1.7006 0
M  V30 1003 O 93.9743 0.0351652 -1.94468 0
M  V30 1004 C 94.2573 -3.3938 -1.20386 0
M  V30 1005 C 94.1103 -4.49625 -0.125375 0
M  V30 1006 C 95.4293 -3.86039 -2.11334 0
M  V30 1007 H 92.5483 -0.702791 -0.221933 0
M  V30 1008 H 95.1903 -1.8961 0.12175 0
M  V30 1009 H 93.3403 -3.42626 -1.83139 0
M  V30 1010 H 95.0123 -4.58506 0.506971 0
M  V30 1011 H 93.2553 -4.30354 0.545672 0
M  V30 1012 H 93.9263 -5.48967 -0.577861 0
M  V30 1013 H 96.4023 -3.84716 -1.58534 0
M  V30 1014 H 95.2783 -4.88914 -2.49507 0
M  V30 1015 H 95.5393 -3.23215 -3.01636 0
M  V30 1016 N 94.5984 0.214957 -1.56127 0
M  V30 1017 C 96.0144 0.564948 -1.49267 0
M  V30 1018 C 96.2144 1.86827 -0.754838 0
M  V30 1019 O 95.2704 2.50745 -0.297198 0
M  V30 1020 C 96.5834 0.638071 -2.93852 0
M  V30 1021 C 98.1314 0.728253 -3.0441 0
M  V30 1022 C 98.6064 0.832663 -4.50367 0
M  V30 1023 N 100.097 0.896712 -4.54437 0
M  V30 1024 C 100.832 0.997324 -5.6466 0
M  V30 1025 N 100.328 1.06147 -6.8462 0
M  V30 1026 N 102.121 1.03297 -5.52527 0
M  V30 1027 H 94.2724 -0.640211 -2.02522 0
M  V30 1028 H 96.5354 -0.225507 -0.920788 0
M  V30 1029 H 96.2414 -0.250126 -3.50809 0
M  V30 1030 H 96.1154 1.49947 -3.46115 0
M  V30 1031 H 98.5024 1.60689 -2.47514 0
M  V30 1032 H 98.5834 -0.158952 -2.55306 0
M  V30 1033 H 98.2274 -0.0415417 -5.07883 0
M  V30 1034 H 98.1574 1.73538 -4.97184 0
M  V30 1035 H 100.648 0.857188 -3.6805 0
M  V30 1036 H 100.961 1.1382 -7.64372 0
M  V30 1037 H 99.3064 1.03049 -6.87318 0
M  V30 1038 H 102.497 0.979558 -4.57736 0
M  V30 1039 H 102.67 1.10793 -6.38458 0
M  V30 1040 N 96.0765 1.50051 0.48192 0
M  V30 1041 C 97.3165 1.62128 1.24474 0
M  V30 1042 C 97.6805 0.309742 1.89485 0
M  V30 1043 O 98.8815 0.305854 2.67054 0
M  V30 1044 C 97.1525 2.76151 2.26882 0
M  V30 1045 S 98.7115 3.08297 3.12247 0
M  V30 1046 H 95.5295 0.571661 0.422759 0
M  V30 1047 H 98.1315 1.87791 0.54359 0
M  V30 1048 H 96.8355 3.69942 1.77683 0
M  V30 1049 H 96.3665 2.52541 3.0164 0
M  V30 1050 H 98.3815 2.51287 4.27866 0
M  V30 1051 N 97.5546 -0.734337 1.39446 0
M  V30 1052 C 98.4876 -1.85715 1.32609 0
M  V30 1053 C 99.4656 -1.6137 0.199636 0
M  V30 1054 O 100.65 -1.84626 0.380195 0
M  V30 1055 C 97.7766 -3.21709 1.05929 0
M  V30 1056 C 96.8226 -3.64913 2.20773 0
M  V30 1057 S 97.6556 -3.74203 3.83056 0
M  V30 1058 C 98.8116 -5.12986 3.58603 0
M  V30 1059 H 99.0446 -1.91232 2.27635 0
M  V30 1060 H 96.5776 -0.899263 1.25509 0
M  V30 1061 H 98.5356 -4.00236 0.912203 0
M  V30 1062 H 97.1966 -3.13848 0.125883 0
M  V30 1063 H 96.3896 -4.63606 1.97699 0
M  V30 1064 H 95.9916 -2.93593 2.31688 0
M  V30 1065 H 98.2836 -5.99339 3.15909 0
M  V30 1066 H 99.2266 -5.41088 4.5676 0
M  V30 1067 H 99.6346 -4.82694 2.9269 0
M  V30 1068 N 99.0327 -1.24633 -0.964593 0
M  V30 1069 C 99.9797 -1.04144 -2.05968 0
M  V30 1070 C 100.95 0.046262 -1.66036 0
M  V30 1071 O 102.135 -0.108972 -1.90489 0
M  V30 1072 C 99.2747 -0.65563 -3.38815 0
M  V30 1073 C 98.3877 -1.81714 -3.91923 0
M  V30 1074 C 97.5227 -1.37662 -5.13052 0
M  V30 1075 C 96.5617 -2.50788 -5.58365 0
M  V30 1076 N 95.6987 -2.07582 -6.70712 0
M  V30 1077 H 100.539 -1.9787 -2.22827 0
M  V30 1078 H 98.0757 -0.9855 -1.09208 0
M  V30 1079 H 100.034 -0.412954 -4.15151 0
M  V30 1080 H 98.6637 0.244627 -3.21872 0
M  V30 1081 H 97.7157 -2.1734 -3.12198 0
M  V30 1082 H 99.0277 -2.66705 -4.21509 0
M  V30 1083 H 98.1817 -1.093 -5.96773 0
M  V30 1084 H 96.9207 -0.497293 -4.85158 0
M  V30 1085 H 95.9257 -2.79906 -4.73215 0
M  V30 1086 H 97.1507 -3.39283 -5.88272 0
M  V30 1087 H 95.0967 -1.22051 -6.44546 0
M  V30 1088 H 95.0137 -2.86125 -6.99763 0
M  V30 1089 H 96.2817 -1.82369 -7.57867 0
M  V30 1090 N 100.511 1.16574 -1.06058 0
M  V30 1091 C 101.441 2.23057 -0.690488 0
M  V30 1092 C 102.422 1.67141 0.315901 0
M  V30 1093 O 103.607 1.93253 0.191556 0
M  V30 1094 C 100.737 3.47222 -0.073625 0
M  V30 1095 C 99.6908 4.16016 -1.00573 0
M  V30 1096 C 99.0168 5.34104 -0.252289 0
M  V30 1097 C 100.317 4.67264 -2.33371 0
M  V30 1098 H 102.011 2.54271 -1.58072 0
M  V30 1099 H 99.5568 1.22218 -0.76149 0
M  V30 1100 H 101.51 4.20939 0.19714 0
M  V30 1101 H 100.234 3.15302 0.85161 0
M  V30 1102 H 98.8928 3.44223 -1.2612 0
M  V30 1103 H 98.5408 4.98437 0.675988 0
M  V30 1104 H 98.2408 5.81072 -0.873455 0
M  V30 1105 H 99.7648 6.10599 0.0109857 0
M  V30 1106 H 101.179 5.32573 -2.12223 0
M  V30 1107 H 99.5758 5.24843 -2.90963 0
M  V30 1108 H 100.646 3.83602 -2.96611 0
M  V30 1109 N 101.989 0.842826 1.3317 0
M  V30 1110 C 103.235 0.441099 1.97945 0
M  V30 1111 C 103.568 -0.998024 1.66593 0
M  V30 1112 O 102.843 -1.69839 0.947898 0
M  V30 1113 C 103.126 0.666841 3.53872 0
M  V30 1114 C 102.979 2.15352 3.94897 0
M  V30 1115 C 104.298 0.115544 4.39948 0
M  V30 1116 H 101.417 0.161739 0.719034 0
M  V30 1117 H 104.059 1.05907 1.57746 0
M  V30 1118 H 102.209 0.140828 3.88245 0
M  V30 1119 H 103.881 2.7447 3.70761 0
M  V30 1120 H 102.124 2.63653 3.44484 0
M  V30 1121 H 102.795 2.26221 5.03516 0
M  V30 1122 H 105.271 0.565213 4.12243 0
M  V30 1123 H 104.147 0.303152 5.48062 0
M  V30 1124 H 104.408 -0.980935 4.3108 0
M  V30 1125 N 103.467 -1.45747 0.599634 0
M  V30 1126 C 104.399 -2.28628 -0.161879 0
M  V30 1127 C 105.412 -1.39494 -0.839367 0
M  V30 1128 O 106.601 -1.63941 -0.706089 0
M  V30 1129 C 103.701 -3.15014 -1.24976 0
M  V30 1130 C 102.874 -4.32378 -0.660935 0
M  V30 1131 C 101.933 -5.00033 -1.63869 0
M  V30 1132 O 100.959 -5.57085 -1.1681 0
M  V30 1133 N 102.161 -4.98589 -2.97303 0
M  V30 1134 H 104.926 -2.94624 0.549265 0
M  V30 1135 H 102.487 -1.55847 0.438565 0
M  V30 1136 H 104.479 -3.5714 -1.9035 0
M  V30 1137 H 103.049 -2.5098 -1.86354 0
M  V30 1138 H 102.269 -3.9383 0.170688 0
M  V30 1139 H 103.557 -5.08197 -0.247619 0
M  V30 1140 H 102.955 -4.53514 -3.38145 0
M  V30 1141 H 101.512 -5.44603 -3.58121 0
M  V30 1142 N 104.945 -0.338344 -1.53925 0
M  V30 1143 C 105.895 0.536712 -2.21593 0
M  V30 1144 C 106.879 1.07015 -1.20153 0
M  V30 1145 O 108.071 1.00471 -1.45721 0
M  V30 1146 C 105.2 1.68977 -2.98834 0
M  V30 1147 C 104.286 1.17052 -4.07627 0
M  V30 1148 N 104.677 0.372085 -5.0443 0
M  V30 1149 C 102.975 1.44789 -4.21844 0
M  V30 1150 C 103.676 0.0909171 -5.81629 0
M  V30 1151 N 102.652 0.681131 -5.39316 0
M  V30 1152 H 106.454 -0.0804298 -2.9379 0
M  V30 1153 H 103.968 -0.144943 -1.61752 0
M  V30 1154 H 105.965 2.32857 -3.45808 0
M  V30 1155 H 104.625 2.31024 -2.28162 0
M  V30 1156 H 105.636 0.0136217 -5.17898 0
M  V30 1157 H 102.313 2.07313 -3.62391 0
M  V30 1158 H 103.703 -0.552817 -6.69622 0
M  V30 1159 N 106.423 1.57458 -0.0668435 0
M  V30 1160 C 107.834 1.80776 0.466558 0
M  V30 1161 C 108.185 0.980361 1.69951 0
M  V30 1162 O 107.31 0.201441 2.1546 0
M  V30 1163 C 107.905 3.27881 0.85321 0
M  V30 1164 C 106.464 3.52062 1.3315 0
M  V30 1165 C 105.611 2.75513 0.314264 0
M  V30 1166 H 108.562 1.5598 -0.292588 0
M  V30 1167 H 108.583 3.39659 1.715 0
M  V30 1168 H 108.095 3.88075 -0.0443439 0
M  V30 1169 H 106.196 2.97167 2.24772 0
M  V30 1170 H 106.309 4.60762 1.31285 0
M  V30 1171 H 104.673 2.42123 0.790492 0
M  V30 1172 H 105.456 3.38442 -0.575477 0
M  V30 1173 N 107.901 -0.206675 1.56239 0
M  V30 1174 C 108.849 -1.27571 1.94495 0
M  V30 1175 C 109.843 -1.47737 0.828862 0
M  V30 1176 O 111.049 -1.48735 1.0138 0
M  V30 1177 H 107.424 -0.428029 0.6183 0
M  V30 1178 H 109.395 -0.925961 2.8367 0
M  V30 1179 C 108.144 -2.61568 2.29079 0
M  V30 1180 H 107.467 -2.46863 3.14482 0
M  V30 1181 H 108.907 -3.35144 2.5972 0
M  V30 1182 C 107.366 -3.17695 1.12123 0
M  V30 1183 O 107.896 -3.99801 0.390153 0
M  V30 1184 N 106.102 -2.76276 0.901097 0
M  V30 1185 H 105.649 -2.09613 1.49733 0
M  V30 1186 H 105.607 -3.1417 0.120319 0
M  V30 1187 N 109.379 -1.50304 -0.473955 0
M  V30 1188 C 110.628 -1.60392 -1.22301 0
M  V30 1189 C 110.941 -0.308411 -1.93153 0
M  V30 1190 O 112.147 -0.288156 -2.69966 0
M  V30 1191 C 110.603 -2.83109 -2.2221 0
M  V30 1192 C 110.211 -4.19524 -1.57173 0
M  V30 1193 C 111.955 -3.0254 -2.97775 0
M  V30 1194 C 109.862 -5.33431 -2.55353 0
M  V30 1195 H 108.792 -0.597286 -0.460179 0
M  V30 1196 H 111.443 -1.76731 -0.493803 0
M  V30 1197 H 109.825 -2.60322 -2.9841 0
M  V30 1198 H 110.999 -4.52554 -0.867824 0
M  V30 1199 H 109.314 -4.05674 -0.939002 0
M  V30 1200 H 111.911 -3.84811 -3.71248 0
M  V30 1201 H 112.254 -2.14154 -3.56992 0
M  V30 1202 H 112.787 -3.25494 -2.28688 0
M  V30 1203 H 109.526 -6.23962 -2.00878 0
M  V30 1204 H 109.046 -5.04823 -3.23904 0
M  V30 1205 H 110.725 -5.63887 -3.17239 0
M  V30 1206 N 110.857 0.726932 -1.39834 0
M  V30 1207 C 112.103 1.48884 -1.377 0
M  V30 1208 C 112.436 1.94185 0.0244852 0
M  V30 1209 O 111.711 1.67361 0.990986 0
M  V30 1210 C 111.994 2.72288 -2.3565 0
M  V30 1211 C 111.847 2.32956 -3.84775 0
M  V30 1212 C 113.166 3.74414 -2.31306 0
M  V30 1213 H 110.285 0.540062 -0.5015 0
M  V30 1214 H 112.927 0.830547 -1.70886 0
M  V30 1215 H 111.077 3.28457 -2.07481 0
M  V30 1216 H 112.749 1.82356 -4.23726 0
M  V30 1217 H 110.992 1.65088 -4.01159 0
M  V30 1218 H 111.663 3.21362 -4.4881 0
M  V30 1219 H 114.139 3.27849 -2.56231 0
M  V30 1220 H 113.015 4.58414 -3.01907 0
M  V30 1221 H 113.276 4.21909 -1.32081 0
M  V30 1222 N 112.336 1.25143 0.95797 0
M  V30 1223 C 113.752 1.01892 1.22842 0
M  V30 1224 C 113.952 -0.266311 1.99732 0
M  V30 1225 O 113.008 -0.979913 2.3271 0
M  V30 1226 C 114.321 2.24004 2.00606 0
M  V30 1227 C 115.869 2.28731 2.13662 0
M  V30 1228 C 116.344 3.5049 2.94823 0
M  V30 1229 N 117.835 3.50866 3.02403 0
M  V30 1230 C 118.57 4.4174 3.65586 0
M  V30 1231 N 118.066 5.42882 4.30408 0
M  V30 1232 N 119.859 4.29429 3.62694 0
M  V30 1233 H 112.01 2.07718 0.443493 0
M  V30 1234 H 114.273 0.912031 0.258657 0
M  V30 1235 H 113.979 3.17395 1.51503 0
M  V30 1236 H 113.853 2.26907 3.01319 0
M  V30 1237 H 116.24 1.35865 2.61963 0
M  V30 1238 H 116.321 2.29848 1.12265 0
M  V30 1239 H 115.965 4.43676 2.47213 0
M  V30 1240 H 115.895 3.46617 3.96439 0
M  V30 1241 H 118.386 2.777 2.56302 0
M  V30 1242 H 118.699 6.0844 4.76467 0
M  V30 1243 H 117.044 5.46758 4.29047 0
M  V30 1244 H 120.235 3.49643 3.11236 0
M  V30 1245 H 120.408 5.00448 4.1165 0
M  V30 1246 N 113.814 -1.1601 1.06675 0
M  V30 1247 C 114.744 -2.22688 0.702307 0
M  V30 1248 C 115.725 -1.67306 -0.307032 0
M  V30 1249 O 116.91 -1.93352 -0.181305 0
M  V30 1250 C 114.04 -3.47178 0.092038 0
M  V30 1251 C 112.994 -4.15477 1.02777 0
M  V30 1252 C 112.32 -5.33963 0.28061 0
M  V30 1253 C 113.62 -4.66019 2.35846 0
M  V30 1254 H 115.314 -2.53429 1.59419 0
M  V30 1255 H 112.86 -1.21813 0.767961 0
M  V30 1256 H 114.813 -4.21037 -0.174814 0
M  V30 1257 H 113.537 -3.15749 -0.834877 0
M  V30 1258 H 112.196 -3.43549 1.27944 0
M  V30 1259 H 111.844 -4.98788 -0.649545 0
M  V30 1260 H 111.544 -5.806 0.904258 0
M  V30 1261 H 113.068 -6.10596 0.021396 0
M  V30 1262 H 114.482 -5.3144 2.15045 0
M  V30 1263 H 112.879 -5.23293 2.93743 0
M  V30 1264 H 113.949 -3.82023 2.98641 0
M  V30 1265 N 115.292 -0.849877 -1.32721 0
M  V30 1266 C 116.522 -0.46408 -2.0132 0
M  V30 1267 C 116.93 0.94246 -1.64056 0
M  V30 1268 O 116.273 1.6257 -0.855379 0
M  V30 1269 C 116.335 -0.517887 -3.5575 0
M  V30 1270 C 115.999 -1.88248 -4.16427 0
M  V30 1271 C 116.996 -2.84726 -4.35002 0
M  V30 1272 C 114.681 -2.17832 -4.52609 0
M  V30 1273 C 116.675 -4.08945 -4.8892 0
M  V30 1274 C 114.362 -3.42304 -5.06232 0
M  V30 1275 C 115.36 -4.37677 -5.24335 0
M  V30 1276 O 115.048 -5.59946 -5.76815 0
M  V30 1277 H 114.78 -0.181327 -0.651227 0
M  V30 1278 H 117.334 -1.14713 -1.70382 0
M  V30 1279 H 115.564 0.221997 -3.86062 0
M  V30 1280 H 117.253 -0.148366 -4.05629 0
M  V30 1281 H 118.019 -2.63174 -4.07388 0
M  V30 1282 H 113.898 -1.44385 -4.37806 0
M  V30 1283 H 117.442 -4.83396 -5.02966 0
M  V30 1284 H 113.339 -3.63709 -5.33278 0
M  V30 1285 H 114.107 -5.61838 -5.95214 0
M  V30 1286 N 116.77 1.45427 -0.607355 0
M  V30 1287 C 117.68 2.34325 0.113463 0
M  V30 1288 C 118.696 1.51226 0.860617 0
M  V30 1289 O 119.872 1.84029 0.818255 0
M  V30 1290 C 116.937 3.28839 1.09844 0
M  V30 1291 C 115.998 4.27844 0.353271 0
M  V30 1292 C 115.231 5.17842 1.29133 0
M  V30 1293 O 115.454 5.11264 2.52913 0
M  V30 1294 O 114.388 5.96713 0.788523 0
M  V30 1295 H 118.214 2.97364 -0.617094 0
M  V30 1296 H 115.799 1.44807 -0.367619 0
M  V30 1297 H 117.681 3.8708 1.66575 0
M  V30 1298 H 116.356 2.68365 1.81003 0
M  V30 1299 H 115.263 3.7322 -0.256494 0
M  V30 1300 H 116.596 4.91173 -0.317822 0
M  V30 1301 N 118.248 0.346503 1.53744 0
M  V30 1302 C 119.494 -0.249473 2.0126 0
M  V30 1303 C 119.827 -1.49965 1.23386 0
M  V30 1304 O 119.102 -1.91811 0.32229 0
M  V30 1305 C 119.385 -0.560643 3.55709 0
M  V30 1306 C 119.238 0.701836 4.44291 0
M  V30 1307 C 120.557 -1.36905 4.18264 0
M  V30 1308 H 117.676 -0.0891987 0.731582 0
M  V30 1309 H 120.318 0.467624 1.84156 0
M  V30 1310 H 118.468 -1.17156 3.70414 0
M  V30 1311 H 120.14 1.33974 4.41417 0
M  V30 1312 H 118.383 1.32612 4.13033 0
M  V30 1313 H 119.054 0.43933 5.50249 0
M  V30 1314 H 121.53 -0.852448 4.07275 0
M  V30 1315 H 120.406 -1.55553 5.26398 0
M  V30 1316 H 120.667 -2.37203 3.73078 0
M  V30 1317 N 119.726 -1.57421 0.075193 0
M  V30 1318 C 120.975 -1.92794 -0.592731 0
M  V30 1319 C 121.288 -0.957478 -1.70563 0
M  V30 1320 O 122.494 -1.20417 -2.43335 0
M  V30 1321 C 120.95 -3.42495 -1.10569 0
M  V30 1322 C 120.558 -4.47994 -0.0236121 0
M  V30 1323 C 122.302 -3.86864 -1.74748 0
M  V30 1324 C 120.209 -5.88829 -0.550803 0
M  V30 1325 H 119.139 -0.719591 -0.225177 0
M  V30 1326 H 121.79 -1.82902 0.147978 0
M  V30 1327 H 120.172 -3.47471 -1.89947 0
M  V30 1328 H 121.346 -4.54637 0.751099 0
M  V30 1329 H 119.661 -4.13113 0.522159 0
M  V30 1330 H 122.258 -4.8947 -2.15229 0
M  V30 1331 H 122.601 -3.24417 -2.60882 0
M  V30 1332 H 123.134 -3.84504 -1.01986 0
M  V30 1333 H 119.873 -6.54929 0.273457 0
M  V30 1334 H 119.393 -5.85698 -1.29296 0
M  V30 1335 H 121.072 -6.38811 -1.02613 0
M  V30 1336 N 121.204 0.198386 -1.56346 0
M  V30 1337 C 122.481 0.944982 -1.71258 0
M  V30 1338 C 122.861 2.0151 -0.629048 0
M  V30 1339 O 122.209 2.25639 0.360473 0
M  V30 1340 C 122.419 1.5344 -3.1346 0
M  V30 1341 C 123.767 2.01778 -3.73591 0
M  V30 1342 O 124.791 1.63288 -3.16568 0
M  V30 1343 O 123.65 2.72594 -4.73661 0
M  V30 1344 H 120.744 0.442939 -0.69838 0
M  V30 1345 H 123.29 0.188342 -1.68652 0
M  V30 1346 H 122.062 0.762869 -3.83792 0
M  V30 1347 H 121.685 2.35596 -3.20282 0
M  V30 1348 N 122.682 1.50554 0.465978 0
M  V30 1349 C 123.91 1.65563 1.24083 0
M  V30 1350 C 124.325 0.341051 1.85694 0
M  V30 1351 O 123.682 -0.677543 1.69457 0
M  V30 1352 C 123.733 2.75051 2.34583 0
M  V30 1353 O 123.454 4.01413 1.75497 0
M  V30 1354 C 124.955 3.01078 3.25372 0
M  V30 1355 H 122.175 0.55638 0.375077 0
M  V30 1356 H 124.719 1.96807 0.555624 0
M  V30 1357 H 122.874 2.46486 2.9887 0
M  V30 1358 H 123.288 4.62002 2.48303 0
M  V30 1359 H 124.762 3.81339 3.99105 0
M  V30 1360 H 125.239 2.12349 3.84453 0
M  V30 1361 H 125.845 3.31194 2.66816 0
M  V30 1362 N 124.16 -0.719506 1.40217 0
M  V30 1363 C 125.092 -1.84428 1.36084 0
M  V30 1364 C 126.105 -1.60597 0.266913 0
M  V30 1365 O 127.294 -1.70544 0.526983 0
M  V30 1366 C 124.394 -3.20757 1.094 0
M  V30 1367 C 123.567 -3.71817 2.30372 0
M  V30 1368 C 122.626 -4.86748 1.99907 0
M  V30 1369 O 121.652 -4.99603 2.72737 0
M  V30 1370 N 122.854 -5.7226 0.974635 0
M  V30 1371 H 125.619 -1.88473 2.33019 0
M  V30 1372 H 123.18 -0.900885 1.3452 0
M  V30 1373 H 125.172 -3.95235 0.870116 0
M  V30 1374 H 123.742 -3.11884 0.211452 0
M  V30 1375 H 122.962 -2.88514 2.68614 0
M  V30 1376 H 124.25 -4.02666 3.11026 0
M  V30 1377 H 123.648 -5.6448 0.371368 0
M  V30 1378 H 122.205 -6.46739 0.810656 0
M  V30 1379 N 125.638 -1.25649 -0.95132 0
M  V30 1380 C 126.866 -1.13343 -1.73092 0
M  V30 1381 C 127.281 0.312434 -1.86197 0
M  V30 1382 O 126.638 1.21465 -1.36207 0
M  V30 1383 C 126.689 -1.78602 -3.14299 0
M  V30 1384 O 126.41 -3.17537 -3.01831 0
M  V30 1385 C 127.911 -1.72119 -4.08522 0
M  V30 1386 H 125.131 -0.395181 -0.542285 0
M  V30 1387 H 127.675 -1.66076 -1.19328 0
M  V30 1388 H 125.83 -1.29832 -3.64996 0
M  V30 1389 H 126.244 -3.49676 -3.90931 0
M  V30 1390 H 127.718 -2.22435 -5.052 0
M  V30 1391 H 128.195 -0.685635 -4.33815 0
M  V30 1392 H 128.801 -2.20393 -3.63741 0
M  V30 1393 N 127.117 1.15442 -1.07289 0
M  V30 1394 C 128.064 2.20161 -0.692653 0
M  V30 1395 C 129.034 1.63073 0.31564 0
M  V30 1396 O 130.219 1.89725 0.202235 0
M  V30 1397 C 127.359 3.44967 -0.0959509 0
M  V30 1398 C 126.472 4.16256 -1.15564 0
M  V30 1399 C 125.607 5.28609 -0.524011 0
M  V30 1400 C 124.646 5.91715 -1.56653 0
M  V30 1401 N 123.783 6.9554 -0.957531 0
M  V30 1402 H 128.623 2.52037 -1.59002 0
M  V30 1403 H 126.16 1.2378 -0.794798 0
M  V30 1404 H 128.118 4.16341 0.267628 0
M  V30 1405 H 126.748 3.1361 0.764772 0
M  V30 1406 H 125.8 3.43385 -1.6368 0
M  V30 1407 H 127.112 4.59268 -1.94613 0
M  V30 1408 H 126.266 6.06604 -0.108032 0
M  V30 1409 H 125.005 4.86787 0.29825 0
M  V30 1410 H 124.01 5.12433 -1.9923 0
M  V30 1411 H 125.235 6.35614 -2.39107 0
M  V30 1412 H 123.181 6.55814 -0.156162 0
M  V30 1413 H 123.098 7.36977 -1.68526 0
M  V30 1414 H 124.366 7.77435 -0.567032 0
M  V30 1415 N 128.595 0.856903 1.32268 0
M  V30 1416 C 129.525 0.31858 2.31316 0
M  V30 1417 C 130.506 -0.583487 1.59779 0
M  V30 1418 O 131.691 -0.503259 1.87566 0
M  V30 1419 C 128.821 -0.491979 3.43798 0
M  V30 1420 C 127.775 0.315849 4.26833 0
M  V30 1421 C 127.101 -0.619586 5.31098 0
M  V30 1422 C 128.401 1.54282 4.98993 0
M  V30 1423 H 130.095 1.14621 2.76591 0
M  V30 1424 H 127.641 0.552613 1.32974 0
M  V30 1425 H 129.594 -0.879012 4.1213 0
M  V30 1426 H 128.318 -1.35299 2.97257 0
M  V30 1427 H 126.977 0.684664 3.6015 0
M  V30 1428 H 126.625 -1.47751 4.8081 0
M  V30 1429 H 126.325 -0.0830621 5.87541 0
M  V30 1430 H 127.849 -1.00375 6.02293 0
M  V30 1431 H 129.263 1.22796 5.59995 0
M  V30 1432 H 127.66 2.01745 5.65172 0
M  V30 1433 H 128.73 2.30285 4.26728 0
M  V30 1434 N 130.073 -1.45103 0.615059 0
M  V30 1435 C 131.303 -2.06254 0.119596 0
M  V30 1436 C 131.711 -1.4591 -1.20445 0
M  V30 1437 O 131.054 -0.570384 -1.7462 0
M  V30 1438 C 131.116 -3.59396 -0.0865591 0
M  V30 1439 C 130.78 -4.42116 1.15683 0
M  V30 1440 C 131.777 -4.7662 2.07676 0
M  V30 1441 C 129.462 -4.82749 1.38775 0
M  V30 1442 C 131.456 -5.50622 3.21082 0
M  V30 1443 C 129.143 -5.56504 2.52481 0
M  V30 1444 C 130.141 -5.90358 3.43463 0
M  V30 1445 O 129.829 -6.62615 4.55189 0
M  V30 1446 H 129.561 -0.672423 0.0694512 0
M  V30 1447 H 132.115 -1.87219 0.844885 0
M  V30 1448 H 130.345 -3.76859 -0.866823 0
M  V30 1449 H 132.034 -4.02365 -0.534555 0
M  V30 1450 H 132.8 -4.4578 1.91063 0
M  V30 1451 H 128.679 -4.55829 0.688545 0
M  V30 1452 H 132.223 -5.76965 3.92119 0
M  V30 1453 H 128.12 -5.86759 2.69043 0
M  V30 1454 H 128.888 -6.81071 4.53966 0
M  V30 1455 N 131.551 -0.354651 -1.53558 0
M  V30 1456 C 132.481 0.489091 -2.2832 0
M  V30 1457 C 133.462 1.09324 -1.30316 0
M  V30 1458 O 134.647 1.11255 -1.59173 0
M  V30 1459 C 131.777 1.63456 -3.0643 0
M  V30 1460 C 130.731 1.1582 -4.12031 0
M  V30 1461 C 130.057 2.39305 -4.7816 0
M  V30 1462 C 131.357 0.250731 -5.21698 0
M  V30 1463 H 133.051 -0.134614 -2.99097 0
M  V30 1464 H 130.597 -0.0661826 -1.43848 0
M  V30 1465 H 132.55 2.23136 -3.57475 0
M  V30 1466 H 131.274 2.28533 -2.33325 0
M  V30 1467 H 129.933 0.584146 -3.61916 0
M  V30 1468 H 129.581 3.02814 -4.01637 0
M  V30 1469 H 129.281 2.08109 -5.49513 0
M  V30 1470 H 130.805 2.99691 -5.31994 0
M  V30 1471 H 132.219 0.754695 -5.68311 0
M  V30 1472 H 130.616 0.0301468 -6.00092 0
M  V30 1473 H 131.686 -0.710125 -4.79672 0
M  V30 1474 N 133.029 1.57378 -0.0835403 0
M  V30 1475 C 134.278 1.93106 0.582498 0
M  V30 1476 C 134.591 0.96651 1.70053 0
M  V30 1477 O 135.797 1.21705 2.42693 0
M  V30 1478 C 134.253 3.43076 1.08751 0
M  V30 1479 C 133.861 4.48 -0.000146404 0
M  V30 1480 C 135.605 3.87785 1.72694 0
M  V30 1481 C 133.512 5.89113 0.519568 0
M  V30 1482 H 132.442 0.720775 0.221358 0
M  V30 1483 H 135.093 1.82821 -0.157675 0
M  V30 1484 H 133.475 3.48474 1.88101 0
M  V30 1485 H 134.649 4.54233 -0.775199 0
M  V30 1486 H 132.964 4.1283 -0.54406 0
M  V30 1487 H 135.561 4.90604 2.1263 0
M  V30 1488 H 135.904 3.25796 2.59158 0
M  V30 1489 H 136.437 3.8504 0.999457 0
M  V30 1490 H 133.176 6.54775 -0.308186 0
M  V30 1491 H 132.696 5.86376 1.26188 0
M  V30 1492 H 134.375 6.39346 0.992237 0
M  V30 1493 N 134.507 -0.190092 1.56449 0
M  V30 1494 C 135.437 -1.23816 1.97969 0
M  V30 1495 C 136.418 -1.47201 0.852395 0
M  V30 1496 O 137.603 -1.58854 1.1171 0
M  V30 1497 C 134.733 -2.5813 2.3235 0
M  V30 1498 C 133.687 -2.49348 3.47864 0
M  V30 1499 C 133.013 -3.8798 3.67934 0
M  V30 1500 C 134.313 -2.01424 4.81898 0
M  V30 1501 H 136.007 -0.89311 2.85769 0
M  V30 1502 H 133.553 -0.428177 1.37487 0
M  V30 1503 H 135.506 -3.31637 2.59991 0
M  V30 1504 H 134.23 -2.94386 1.41438 0
M  V30 1505 H 132.889 -1.78297 3.20321 0
M  V30 1506 H 132.537 -4.21597 2.74344 0
M  V30 1507 H 132.237 -3.82978 4.45648 0
M  V30 1508 H 133.761 -4.63101 3.97957 0
M  V30 1509 H 135.175 -2.64693 5.08538 0
M  V30 1510 H 133.572 -2.07413 5.63116 0
M  V30 1511 H 134.642 -0.967677 4.75146 0
M  V30 1512 N 135.985 -1.50799 -0.457987 0
M  V30 1513 C 136.895 -1.73426 -1.57989 0
M  V30 1514 C 137.911 -0.617745 -1.62665 0
M  V30 1515 O 139.087 -0.897614 -1.80291 0
M  V30 1516 C 136.152 -1.83557 -2.94122 0
M  V30 1517 C 135.213 -3.07345 -2.99729 0
M  V30 1518 C 134.446 -3.16983 -4.29368 0
M  V30 1519 O 134.669 -2.33077 -5.20607 0
M  V30 1520 O 133.603 -4.09812 -4.40837 0
M  V30 1521 H 137.429 -2.68555 -1.41817 0
M  V30 1522 H 135.014 -1.35052 -0.638859 0
M  V30 1523 H 136.896 -1.92326 -3.74952 0
M  V30 1524 H 135.571 -0.916137 -3.10465 0
M  V30 1525 H 134.478 -3.04068 -2.1793 0
M  V30 1526 H 135.811 -3.9891 -2.88326 0
M  V30 1527 N 137.463 0.71206 -1.40597 0
M  V30 1528 C 138.393 1.83889 -1.43899 0
M  V30 1529 C 139.374 1.67442 -0.299504 0
M  V30 1530 O 140.559 1.87421 -0.508624 0
M  V30 1531 C 137.689 3.21877 -1.30431 0
M  V30 1532 C 136.643 3.53002 -2.42019 0
M  V30 1533 C 135.969 4.90172 -2.13626 0
M  V30 1534 C 137.269 3.53643 -3.84362 0
M  V30 1535 H 138.963 1.81383 -2.38203 0
M  V30 1536 H 136.509 0.871237 -1.14654 0
M  V30 1537 H 138.462 4.00404 -1.31357 0
M  V30 1538 H 137.186 3.24968 -0.326049 0
M  V30 1539 H 135.845 2.76818 -2.40349 0
M  V30 1540 H 135.493 4.89869 -1.14182 0
M  V30 1541 H 135.193 5.11962 -2.88389 0
M  V30 1542 H 136.717 5.71028 -2.1624 0
M  V30 1543 H 138.131 4.22203 -3.87837 0
M  V30 1544 H 136.528 3.86961 -4.58673 0
M  V30 1545 H 137.598 2.52954 -4.13693 0
M  V30 1546 N 138.941 1.26152 0.944643 0
M  V30 1547 C 140.189 1.11271 1.6871 0
M  V30 1548 C 140.51 -0.345166 1.91921 0
M  V30 1549 O 139.78 -1.24387 1.51343 0
M  V30 1550 H 138.36 0.408783 0.625224 0
M  V30 1551 H 141.022 1.58427 1.1352 0
M  V30 1552 H 140.118 1.62879 2.66227 0
M  V30 1553 N 140.419 -1.14872 1.07899 0
M  V30 1554 C 141.696 -1.81928 0.71845 0
M  V30 1555 C 142.076 -1.95417 -0.798455 0
M  V30 1556 O 141.424 -1.50997 -1.715 0
M  V30 1557 C 141.634 -3.17937 1.43935 0
M  V30 1558 C 142.982 -3.93501 1.59506 0
M  V30 1559 O 144.006 -3.27509 1.40058 0
M  V30 1560 O 142.865 -5.1183 1.91551 0
M  V30 1561 H 139.959 -0.78628 0.256305 0
M  V30 1562 H 142.505 -1.21934 1.18026 0
M  V30 1563 H 141.277 -3.0325 2.47295 0
M  V30 1564 H 140.9 -3.85619 0.968687 0
M  V30 1565 N 141.898 -0.863906 -1.31812 0
M  V30 1566 C 143.146 -0.470904 -1.96537 0
M  V30 1567 C 143.467 0.978771 -1.68657 0
M  V30 1568 O 142.737 1.6853 -0.998717 0
M  V30 1569 H 141.317 -0.171148 -0.72713 0
M  V30 1570 H 143.979 -1.10236 -1.60729 0
M  V30 1571 H 143.075 -0.623616 -3.05806 0
M  V30 1572 N 143.376 1.44774 -0.622745 0
M  V30 1573 C 144.624 2.01721 -0.123655 0
M  V30 1574 C 144.945 1.49172 1.25589 0
M  V30 1575 O 144.215 0.691974 1.83272 0
M  V30 1576 H 142.795 0.745777 -0.0427225 0
M  V30 1577 H 145.457 1.77382 -0.807559 0
M  V30 1578 H 144.553 3.11984 -0.0849534 0
M  V30 1579 N 144.854 0.36279 1.53368 0
M  V30 1580 C 146.131 -0.284021 1.93527 0
M  V30 1581 C 146.511 -1.66628 1.29608 0
M  V30 1582 O 145.859 -2.23942 0.45413 0
M  V30 1583 C 146.069 -0.337028 3.47369 0
M  V30 1584 C 147.417 -0.578708 4.20638 0
M  V30 1585 O 148.441 -0.418352 3.53735 0
M  V30 1586 O 147.3 -0.89074 5.39192 0
M  V30 1587 H 144.394 -0.169743 0.809393 0
M  V30 1588 H 146.94 0.41537 1.64538 0
M  V30 1589 H 145.712 0.632217 3.86159 0
M  V30 1590 H 145.335 -1.08243 3.82582 0
M  V30 1591 N 146.332 -1.57332 0.0918853 0
M  V30 1592 C 147.265 -2.09499 -0.904735 0
M  V30 1593 C 148.243 -1.00479 -1.27839 0
M  V30 1594 O 149.427 -1.27954 -1.38419 0
M  V30 1595 C 146.554 -2.56931 -2.2069 0
M  V30 1596 C 145.6 -3.77579 -1.98334 0
M  V30 1597 S 146.433 -5.21317 -1.22428 0
M  V30 1598 C 147.589 -5.72097 -2.53882 0
M  V30 1599 H 147.822 -2.93705 -0.460922 0
M  V30 1600 H 145.355 -1.53923 -0.121332 0
M  V30 1601 H 147.313 -2.84917 -2.95521 0
M  V30 1602 H 145.974 -1.72956 -2.62192 0
M  V30 1603 H 145.167 -4.08824 -2.94752 0
M  V30 1604 H 144.769 -3.5007 -1.31633 0
M  V30 1605 H 147.061 -5.80168 -3.49874 0
M  V30 1606 H 148.004 -6.70654 -2.27219 0
M  V30 1607 H 148.412 -5.00012 -2.62007 0
M  V30 1608 N 147.81 0.181792 -1.56548 0
M  V30 1609 C 149.057 0.900097 -1.81396 0
M  V30 1610 C 149.385 1.82695 -0.667281 0
M  V30 1611 O 148.64 1.92614 0.346146 0
M  V30 1612 C 148.939 1.73728 -3.12335 0
M  V30 1613 C 148.605 0.960255 -4.40556 0
M  V30 1614 C 147.267 0.745766 -4.75386 0
M  V30 1615 C 149.619 0.414477 -5.19549 0
M  V30 1616 C 146.947 -0.0257694 -5.86694 0
M  V30 1617 C 149.299 -0.343916 -6.31664 0
M  V30 1618 C 147.963 -0.569301 -6.65068 0
M  V30 1619 H 147.233 0.329369 -0.663775 0
M  V30 1620 H 149.88 0.165647 -1.90782 0
M  V30 1621 H 148.185 2.54081 -2.98245 0
M  V30 1622 H 149.882 2.29591 -3.28769 0
M  V30 1623 H 146.472 1.13746 -4.13231 0
M  V30 1624 H 150.656 0.567554 -4.93044 0
M  V30 1625 H 145.912 -0.210233 -6.11038 0
M  V30 1626 H 150.086 -0.774133 -6.92084 0
M  V30 1627 H 147.713 -1.16903 -7.51158 0
M  V30 1628 N 149.288 1.51039 0.449983 0
M  V30 1629 C 150.565 1.53612 1.21089 0
M  V30 1630 C 150.945 0.292997 2.09057 0
M  V30 1631 O 150.293 -0.72259 2.16774 0
M  V30 1632 C 150.503 2.84337 2.0237 0
M  V30 1633 C 151.851 3.35807 2.59843 0
M  V30 1634 O 152.875 2.85802 2.12593 0
M  V30 1635 O 151.734 4.23029 3.45989 0
M  V30 1636 H 148.828 0.617057 0.550608 0
M  V30 1637 H 151.374 1.63344 0.460082 0
M  V30 1638 H 150.146 3.66278 1.37681 0
M  V30 1639 H 149.769 2.77708 2.84542 0
M  V30 1640 N 150.766 -0.704594 1.40972 0
M  V30 1641 C 151.996 -1.49138 1.42974 0
M  V30 1642 C 152.404 -1.89175 0.0308406 0
M  V30 1643 O 151.747 -1.56734 -0.958138 0
M  V30 1644 C 151.809 -2.79016 2.26694 0
M  V30 1645 C 151.473 -2.61236 3.74973 0
M  V30 1646 C 152.47 -2.27773 4.67349 0
M  V30 1647 C 150.155 -2.77158 4.18914 0
M  V30 1648 C 152.149 -2.10457 6.01653 0
M  V30 1649 C 149.836 -2.59459 5.53285 0
M  V30 1650 C 150.834 -2.26158 6.4447 0
M  V30 1651 O 150.522 -2.08605 7.76363 0
M  V30 1652 H 150.254 -0.466443 0.489292 0
M  V30 1653 H 152.808 -0.8758 1.85793 0
M  V30 1654 H 151.038 -3.42947 1.78673 0
M  V30 1655 H 152.727 -3.40782 2.20504 0
M  V30 1656 H 153.493 -2.15095 4.34694 0
M  V30 1657 H 149.372 -3.02064 3.48251 0
M  V30 1658 H 152.916 -1.84387 6.72791 0
M  V30 1659 H 148.813 -2.71725 5.85522 0
M  V30 1660 H 149.581 -2.23439 7.87412 0
M  V30 1661 N 152.244 -1.26651 -0.937939 0
M  V30 1662 C 153.493 -1.11775 -1.67897 0
M  V30 1663 C 153.806 0.33794 -1.92659 0
M  V30 1664 O 155.012 0.607434 -2.64618 0
M  V30 1665 C 153.468 -1.9523 -3.02346 0
M  V30 1666 C 153.076 -3.45393 -2.8532 0
M  V30 1667 C 154.82 -1.88972 -3.80118 0
M  V30 1668 C 152.727 -4.21083 -4.15263 0
M  V30 1669 H 151.657 -0.414696 -0.629717 0
M  V30 1670 H 154.308 -1.50988 -1.04283 0
M  V30 1671 H 152.69 -1.48853 -3.66959 0
M  V30 1672 H 153.864 -3.99561 -2.29537 0
M  V30 1673 H 152.179 -3.52921 -2.20988 0
M  V30 1674 H 154.776 -2.42805 -4.76392 0
M  V30 1675 H 155.119 -0.86113 -4.07296 0
M  V30 1676 H 155.652 -2.33189 -3.22285 0
M  V30 1677 H 152.391 -5.24425 -3.93267 0
M  V30 1678 H 151.911 -3.71695 -4.70747 0
M  V30 1679 H 153.59 -4.29706 -4.83696 0
M  V30 1680 N 153.722 1.14298 -1.08507 0
M  V30 1681 C 154.655 2.18447 -0.660004 0
M  V30 1682 C 155.633 1.59242 0.328749 0
M  V30 1683 O 156.817 1.87062 0.232367 0
M  V30 1684 C 153.944 3.38688 0.0290807 0
M  V30 1685 C 152.99 4.1646 -0.919982 0
M  V30 1686 S 153.823 4.77334 -2.42718 0
M  V30 1687 C 154.979 6.00931 -1.75024 0
M  V30 1688 H 155.212 2.54166 -1.54231 0
M  V30 1689 H 152.745 1.25446 -0.900149 0
M  V30 1690 H 154.703 4.08342 0.420378 0
M  V30 1691 H 153.364 3.01289 0.887895 0
M  V30 1692 H 152.557 5.02529 -0.384751 0
M  V30 1693 H 152.159 3.52414 -1.25223 0
M  V30 1694 H 154.451 6.69017 -1.06877 0
M  V30 1695 H 155.394 6.59044 -2.58971 0
M  V30 1696 H 155.802 5.51089 -1.22317 0
M  V30 1697 N 155.201 0.870884 1.31352 0
M  V30 1698 C 156.148 0.325425 2.28494 0
M  V30 1699 C 157.118 -0.576615 1.5577 0
M  V30 1700 O 158.303 -0.508059 1.83911 0
M  V30 1701 C 155.443 -0.466283 3.41935 0
M  V30 1702 C 154.556 0.463378 4.29508 0
M  V30 1703 C 153.691 -0.342544 5.30094 0
M  V30 1704 C 152.73 0.583486 6.09313 0
M  V30 1705 N 151.867 -0.186244 7.01853 0
M  V30 1706 H 156.707 1.15901 2.74538 0
M  V30 1707 H 154.244 0.58294 1.35056 0
M  V30 1708 H 156.202 -0.941085 4.06447 0
M  V30 1709 H 154.832 -1.26456 2.97 0
M  V30 1710 H 153.884 1.05663 3.65431 0
M  V30 1711 H 155.196 1.1734 4.84802 0
M  V30 1712 H 154.35 -0.879816 6.00287 0
M  V30 1713 H 153.089 -1.08585 4.75458 0
M  V30 1714 H 152.094 1.13251 5.3801 0
M  V30 1715 H 153.319 1.32566 6.66035 0
M  V30 1716 H 151.265 -0.912348 6.49625 0
M  V30 1717 H 151.182 0.464422 7.54572 0
M  V30 1718 H 152.45 -0.704716 7.76308 0
M  V30 1719 N 156.679 -1.44442 0.630414 0
M  V30 1720 C 157.629 -2.27794 -0.0968103 0
M  V30 1721 C 158.613 -1.38624 -0.816834 0
M  V30 1722 O 159.805 -1.62438 -0.70306 0
M  V30 1723 C 156.934 -3.25929 -1.07819 0
M  V30 1724 C 156.02 -4.22588 -0.357826 0
M  V30 1725 N 156.411 -5.0207 0.613169 0
M  V30 1726 C 154.709 -4.41914 -0.602365 0
M  V30 1727 C 155.41 -5.72351 1.03871 0
M  V30 1728 N 154.386 -5.42287 0.377642 0
M  V30 1729 H 158.188 -2.86653 0.648621 0
M  V30 1730 H 155.702 -1.55871 0.455862 0
M  V30 1731 H 157.699 -3.84399 -1.61378 0
M  V30 1732 H 156.359 -2.68631 -1.82393 0
M  V30 1733 H 157.37 -5.08331 0.990947 0
M  V30 1734 H 154.047 -3.95714 -1.33103 0
M  V30 1735 H 155.437 -6.4619 1.84086 0
M  V30 1736 N 158.157 -0.370918 -1.53173 0
M  V30 1737 C 159.067 0.480823 -2.2962 0
M  V30 1738 C 160.083 1.08789 -1.35798 0
M  V30 1739 O 161.259 1.09768 -1.68858 0
M  V30 1740 C 158.324 1.60227 -3.07454 0
M  V30 1741 C 157.385 1.0222 -4.16953 0
M  V30 1742 C 156.618 2.0902 -4.91066 0
M  V30 1743 O 156.841 3.30222 -4.65091 0
M  V30 1744 O 155.775 1.71778 -5.76867 0
M  V30 1745 H 159.601 -0.141421 -3.03371 0
M  V30 1746 H 157.186 -0.135146 -1.48787 0
M  V30 1747 H 159.068 2.25417 -3.56041 0
M  V30 1748 H 157.743 2.20982 -2.36535 0
M  V30 1749 H 156.65 0.334064 -3.72605 0
M  V30 1750 H 157.983 0.459131 -4.90054 0
M  V30 1751 N 159.635 1.57281 -0.100228 0
M  V30 1752 C 160.545 2.17833 0.870965 0
M  V30 1753 C 161.561 1.14921 1.30649 0
M  V30 1754 O 162.737 1.47313 1.37335 0
M  V30 1755 C 159.802 2.75085 2.1102 0
M  V30 1756 C 158.863 3.9297 1.72838 0
M  V30 1757 C 158.096 4.47482 2.90854 0
M  V30 1758 O 158.319 4.00922 4.05731 0
M  V30 1759 O 157.253 5.38433 2.69023 0
M  V30 1760 H 161.079 3.0124 0.38575 0
M  V30 1761 H 158.664 1.48881 0.124397 0
M  V30 1762 H 160.546 3.11656 2.83634 0
M  V30 1763 H 159.221 1.94721 2.58584 0
M  V30 1764 H 158.128 3.61201 0.973883 0
M  V30 1765 H 159.461 4.74713 1.30033 0
M  V30 1766 N 161.113 -0.173488 1.56642 0
M  V30 1767 C 162.361 -0.888706 1.81512 0
M  V30 1768 C 162.682 -1.82875 0.676872 0
M  V30 1769 O 161.952 -1.93536 -0.303414 0
M  V30 1770 H 160.532 -0.331164 0.669582 0
M  V30 1771 H 163.194 -0.173823 1.94123 0
M  V30 1772 H 162.29 -1.46691 2.75478 0
M  V30 1773 N 162.591 -1.51276 -0.441967 0
M  V30 1774 C 163.521 -1.752 -1.54361 0
M  V30 1775 C 164.502 -0.601682 -1.59103 0
M  V30 1776 O 165.687 -0.843913 -1.74905 0
M  V30 1777 C 162.817 -1.87282 -2.92477 0
M  V30 1778 C 161.771 -3.02687 -3.02596 0
M  V30 1779 C 161.097 -2.99947 -4.42647 0
M  V30 1780 C 162.397 -4.4273 -2.77106 0
M  V30 1781 H 164.091 -2.67442 -1.34592 0
M  V30 1782 H 161.637 -1.28694 -0.646048 0
M  V30 1783 H 163.59 -2.02602 -3.695 0
M  V30 1784 H 162.314 -0.916844 -3.13467 0
M  V30 1785 H 160.973 -2.87065 -2.28012 0
M  V30 1786 H 160.621 -2.02136 -4.60597 0
M  V30 1787 H 160.321 -3.77439 -4.50348 0
M  V30 1788 H 161.845 -3.17354 -5.2165 0
M  V30 1789 H 163.259 -4.58727 -3.43864 0
M  V30 1790 H 161.656 -5.21893 -2.96222 0
M  V30 1791 H 162.726 -4.53087 -1.72744 0
M  V30 1792 N 164.069 0.697108 -1.41344 0
M  V30 1793 C 165.017 1.83237 -1.43272 0
M  V30 1794 C 166.011 1.66522 -0.310947 0
M  V30 1795 O 167.217 1.73402 -0.482899 0
M  V30 1796 H 163.592 0.603802 -0.448249 0
M  V30 1797 H 165.563 1.78727 -2.38954 0
M  V30 1798 C 164.312 3.21245 -1.33029 0
M  V30 1799 H 163.635 3.34723 -2.18633 0
M  V30 1800 H 165.075 4.00763 -1.38439 0
M  V30 1801 C 163.534 3.36873 -0.0424635 0
M  V30 1802 O 164.064 3.91177 0.913421 0
M  V30 1803 N 162.27 2.90581 0.0331145 0
M  V30 1804 H 161.817 2.46577 -0.745506 0
M  V30 1805 H 161.775 3.01416 0.894199 0
M  V30 1806 N 165.547 1.27147 0.931209 0
M  V30 1807 C 166.457 1.11372 2.06478 0
M  V30 1808 C 167.473 0.044645 1.73943 0
M  V30 1809 O 168.649 0.250417 1.99837 0
M  V30 1810 C 165.714 0.758838 3.38294 0
M  V30 1811 C 164.775 1.90841 3.84549 0
M  V30 1812 C 164.008 1.57036 5.10074 0
M  V30 1813 O 164.231 0.476645 5.68405 0
M  V30 1814 O 163.165 2.40839 5.51616 0
M  V30 1815 H 166.991 2.06493 2.22698 0
M  V30 1816 H 164.576 1.06301 1.04978 0
M  V30 1817 H 166.458 0.574098 4.17471 0
M  V30 1818 H 165.133 -0.162879 3.2329 0
M  V30 1819 H 164.04 2.14819 3.06274 0
M  V30 1820 H 165.373 2.81021 4.04089 0
M  V30 1821 N 167.025 -1.13721 1.09112 0
M  V30 1822 C 168.302 -1.81155 0.737706 0
M  V30 1823 C 168.682 -1.96253 -0.777683 0
M  V30 1824 O 168.03 -1.52807 -1.69889 0
M  V30 1825 C 168.24 -3.16392 1.47299 0
M  V30 1826 C 169.588 -3.91787 1.63671 0
M  V30 1827 O 170.612 -3.26005 1.43524 0
M  V30 1828 O 169.471 -5.0977 1.96969 0
M  V30 1829 H 166.565 -0.783518 0.26463 0
M  V30 1830 H 169.111 -1.20676 1.19312 0
M  V30 1831 H 167.883 -3.0061 2.50498 0
M  V30 1832 H 167.506 -3.8457 1.00953 0
M  V30 1833 N 168.503 -0.877838 -1.30888 0
M  V30 1834 C 169.433 -0.35534 -2.3078 0
M  V30 1835 C 170.414 0.557994 -1.60687 0
M  V30 1836 O 171.599 0.473355 -1.88343 0
M  V30 1837 C 168.729 0.437221 -3.44537 0
M  V30 1838 C 167.683 -0.383715 -4.26276 0
M  V30 1839 C 167.009 0.535014 -5.32017 0
M  V30 1840 C 168.309 -1.62201 -4.96476 0
M  V30 1841 H 170.003 -1.19007 -2.74732 0
M  V30 1842 H 167.549 -0.573698 -1.32078 0
M  V30 1843 H 169.502 0.813334 -4.13477 0
M  V30 1844 H 168.226 1.30553 -2.99372 0
M  V30 1845 H 166.885 -0.741874 -3.59015 0
M  V30 1846 H 166.533 1.40083 -4.831 0
M  V30 1847 H 166.233 -0.0104211 -5.87599 0
M  V30 1848 H 167.757 0.907799 -6.03814 0
M  V30 1849 H 169.171 -1.31689 -5.5797 0
M  V30 1850 H 167.568 -2.10711 -5.61891 0
M  V30 1851 H 168.638 -2.37044 -4.23011 0
M  V30 1852 N 169.982 1.44106 -0.638065 0
M  V30 1853 C 170.945 2.29138 0.0531013 0
M  V30 1854 C 171.945 1.41409 0.765506 0
M  V30 1855 O 173.135 1.63206 0.609046 0
M  V30 1856 C 170.267 3.23144 1.08584 0
M  V30 1857 H 171.46 2.91739 -0.694883 0
M  V30 1858 H 169.013 1.51134 -0.398538 0
M  V30 1859 H 169.748 2.65408 1.86357 0
M  V30 1860 H 169.533 3.87804 0.578852 0
M  V30 1861 H 171.023 3.87004 1.56899 0
M  V30 1862 N 171.46 0.379036 1.52974 0
M  V30 1863 C 172.407 -0.461048 2.26148 0
M  V30 1864 C 173.377 -1.06637 1.27349 0
M  V30 1865 O 174.562 -1.09633 1.56157 0
M  V30 1866 C 171.702 -1.58782 3.06402 0
M  V30 1867 C 170.815 -1.00636 4.20115 0
M  V30 1868 C 169.95 -2.10334 4.87784 0
M  V30 1869 C 168.989 -1.49724 5.93506 0
M  V30 1870 N 168.126 -2.5331 6.54812 0
M  V30 1871 H 172.966 0.169429 2.97518 0
M  V30 1872 H 170.503 0.0953806 1.4679 0
M  V30 1873 H 172.461 -2.25174 3.51215 0
M  V30 1874 H 171.091 -2.18876 2.37261 0
M  V30 1875 H 170.143 -0.232332 3.7969 0
M  V30 1876 H 171.455 -0.523343 4.96047 0
M  V30 1877 H 170.609 -2.84519 5.35849 0
M  V30 1878 H 169.348 -2.61992 4.11353 0
M  V30 1879 H 168.353 -0.740598 5.44789 0
M  V30 1880 H 169.578 -0.988732 6.71864 0
M  V30 1881 H 167.524 -3.04156 5.81227 0
M  V30 1882 H 167.441 -2.09734 7.26325 0
M  V30 1883 H 168.709 -3.27155 7.07524 0
M  V30 1884 N 172.938 -1.57226 0.108567 0
M  V30 1885 C 173.885 -2.14756 -0.845481 0
M  V30 1886 C 174.855 -1.06971 -1.27068 0
M  V30 1887 O 176.04 -1.34827 -1.35005 0
M  V30 1888 C 173.18 -2.74298 -2.09415 0
M  V30 1889 C 172.293 -3.96358 -1.71826 0
M  V30 1890 C 171.428 -4.44021 -2.9158 0
M  V30 1891 C 170.467 -5.58637 -2.50181 0
M  V30 1892 N 169.604 -6.01091 -3.62814 0
M  V30 1893 H 174.444 -2.95961 -0.348035 0
M  V30 1894 H 171.981 -1.46226 -0.160106 0
M  V30 1895 H 173.939 -3.06945 -2.82561 0
M  V30 1896 H 172.569 -1.95801 -2.56636 0
M  V30 1897 H 171.621 -3.69939 -0.885947 0
M  V30 1898 H 172.933 -4.79504 -1.37394 0
M  V30 1899 H 172.087 -4.78522 -3.72963 0
M  V30 1900 H 170.826 -3.59803 -3.29231 0
M  V30 1901 H 169.831 -5.23751 -1.67228 0
M  V30 1902 H 171.056 -6.44613 -2.13659 0
M  V30 1903 H 169.002 -5.19817 -4.00158 0
M  V30 1904 H 168.919 -6.79066 -3.32273 0
M  V30 1905 H 170.187 -6.40227 -4.44668 0
M  V30 1906 N 174.416 0.165178 -1.56732 0
M  V30 1907 C 175.646 0.894919 -1.86212 0
M  V30 1908 C 176.054 1.76066 -0.692627 0
M  V30 1909 O 175.397 1.80387 0.347303 0
M  V30 1910 C 175.459 1.8174 -3.10179 0
M  V30 1911 C 175.123 1.13064 -4.42793 0
M  V30 1912 C 176.12 0.493169 -5.17556 0
M  V30 1913 C 173.805 1.12556 -4.89527 0
M  V30 1914 C 175.799 -0.140209 -6.37246 0
M  V30 1915 C 173.486 0.488366 -6.09145 0
M  V30 1916 C 174.484 -0.143411 -6.82849 0
M  V30 1917 O 174.172 -0.77055 -8.00199 0
M  V30 1918 H 173.904 0.265114 -0.621844 0
M  V30 1919 H 176.458 0.168242 -2.0471 0
M  V30 1920 H 174.688 2.58455 -2.87642 0
M  V30 1921 H 176.377 2.4175 -3.26055 0
M  V30 1922 H 177.143 0.489023 -4.82528 0
M  V30 1923 H 173.022 1.60672 -4.32094 0
M  V30 1924 H 176.566 -0.633932 -6.94714 0
M  V30 1925 H 172.463 0.490116 -6.43637 0
M  V30 1926 H 173.231 -0.670408 -8.1575 0
M  V30 1927 N 175.894 1.51508 0.433938 0
M  V30 1928 C 177.141 1.64345 1.18309 0
M  V30 1929 C 177.469 0.361315 1.91115 0
M  V30 1930 O 176.724 -0.654753 1.84422 0
M  V30 1931 C 177.023 2.79928 2.22205 0
M  V30 1932 C 176.689 4.19078 1.66387 0
M  V30 1933 C 175.351 4.56932 1.50887 0
M  V30 1934 C 177.703 5.05894 1.25381 0
M  V30 1935 C 175.031 5.79305 0.928608 0
M  V30 1936 C 177.383 6.2885 0.687823 0
M  V30 1937 C 176.047 6.65473 0.519755 0
M  V30 1938 H 175.317 0.601381 0.432923 0
M  V30 1939 H 177.964 1.85549 0.473676 0
M  V30 1940 H 176.269 2.52959 2.99197 0
M  V30 1941 H 177.966 2.87059 2.79997 0
M  V30 1942 H 174.556 3.89234 1.79428 0
M  V30 1943 H 178.74 4.77253 1.36175 0
M  V30 1944 H 173.996 6.06324 0.786186 0
M  V30 1945 H 178.17 6.95461 0.361581 0
M  V30 1946 H 175.797 7.6017 0.0679979 0
M  V30 1947 N 177.372 -0.689602 1.41712 0
M  V30 1948 C 178.335 -1.78521 1.43746 0
M  V30 1949 C 179.335 -1.57436 0.327191 0
M  V30 1950 O 180.525 -1.64 0.587348 0
M  V30 1951 C 177.657 -3.16971 1.25467 0
M  V30 1952 H 178.85 -1.78108 2.41283 0
M  V30 1953 H 176.403 -0.89781 1.27942 0
M  V30 1954 H 177.138 -3.23019 0.287948 0
M  V30 1955 H 176.923 -3.33678 2.05917 0
M  V30 1956 H 178.413 -3.96935 1.2974 0
M  V30 1957 N 178.85 -1.27639 -0.924453 0
M  V30 1958 C 179.782 -1.06442 -2.02985 0
M  V30 1959 C 180.795 -0.0194771 -1.62788 0
M  V30 1960 O 181.984 -0.261388 -1.76576 0
M  V30 1961 C 179.084 -0.59327 -3.33667 0
M  V30 1962 C 178.257 -1.71123 -4.02537 0
M  V30 1963 C 177.316 -1.23527 -5.11495 0
M  V30 1964 O 176.342 -1.93553 -5.35281 0
M  V30 1965 N 177.544 -0.0926678 -5.80426 0
M  V30 1966 H 180.309 -2.01633 -2.2173 0
M  V30 1967 H 177.87 -1.19248 -1.09505 0
M  V30 1968 H 179.862 -0.258686 -4.03872 0
M  V30 1969 H 178.432 0.265502 -3.1147 0
M  V30 1970 H 177.652 -2.21593 -3.26022 0
M  V30 1971 H 178.94 -2.46145 -4.45298 0
M  V30 1972 H 178.338 0.491741 -5.63559 0
M  V30 1973 H 176.895 0.182714 -6.51544 0
M  V30 1974 N 180.328 1.1314 -1.09713 0
M  V30 1975 C 181.577 1.83838 -0.829851 0
M  V30 1976 C 181.89 1.84599 0.646728 0
M  V30 1977 O 183.096 2.51218 1.02965 0
M  V30 1978 C 181.552 3.30069 -1.43466 0
M  V30 1979 C 181.16 3.37688 -2.94399 0
M  V30 1980 C 182.904 4.05788 -1.24645 0
M  V30 1981 C 180.811 4.78209 -3.47952 0
M  V30 1982 H 179.741 0.68877 -0.306777 0
M  V30 1983 H 182.392 1.27448 -1.3202 0
M  V30 1984 H 180.774 3.8628 -0.871996 0
M  V30 1985 H 181.948 2.91456 -3.56918 0
M  V30 1986 H 180.263 2.75436 -3.12289 0
M  V30 1987 H 182.86 5.09535 -1.62107 0
M  V30 1988 H 183.203 4.15878 -0.187357 0
M  V30 1989 H 183.736 3.55915 -1.77678 0
M  V30 1990 H 180.475 4.73311 -4.53495 0
M  V30 1991 H 179.995 5.24924 -2.90198 0
M  V30 1992 H 181.674 5.47133 -3.45332 0
M  V30 1993 N 181.806 0.884767 1.30421 0
M  V30 1994 C 183.052 0.503851 1.96441 0
M  V30 1995 C 183.385 -0.944518 1.69684 0
M  V30 1996 O 182.66 -1.66737 1.00145 0
M  V30 1997 C 182.943 0.779085 3.51571 0
M  V30 1998 C 182.796 2.27807 3.87846 0
M  V30 1999 C 184.115 0.255452 4.39358 0
M  V30 2000 H 181.234 0.184533 0.713524 0
M  V30 2001 H 183.876 1.10872 1.54297 0
M  V30 2002 H 182.026 0.264274 3.876 0
M  V30 2003 H 183.698 2.86127 3.61841 0
M  V30 2004 H 181.941 2.74479 3.35922 0
M  V30 2005 H 182.612 2.42125 4.96064 0
M  V30 2006 H 185.088 0.696079 4.10236 0
M  V30 2007 H 183.964 0.477361 5.4682 0
M  V30 2008 H 184.225 -0.843293 4.33983 0
M  V30 2009 N 183.284 -1.43765 0.645699 0
M  V30 2010 C 184.234 -2.27884 -0.0726442 0
M  V30 2011 C 185.218 -1.39483 -0.802086 0
M  V30 2012 O 186.41 -1.63174 -0.685791 0
M  V30 2013 C 183.539 -3.27055 -1.04356 0
M  V30 2014 C 182.625 -4.22944 -0.312985 0
M  V30 2015 N 183.016 -5.01391 0.666386 0
M  V30 2016 C 181.314 -4.42528 -0.55546 0
M  V30 2017 C 182.015 -5.71217 1.09935 0
M  V30 2018 N 180.991 -5.41856 0.435137 0
M  V30 2019 H 184.793 -2.85949 0.678988 0
M  V30 2020 H 182.307 -1.55378 0.472368 0
M  V30 2021 H 184.304 -3.86089 -1.57292 0
M  V30 2022 H 182.964 -2.70551 -1.79534 0
M  V30 2023 H 183.975 -5.07252 1.04481 0
M  V30 2024 H 180.652 -3.97104 -1.28899 0
M  V30 2025 H 182.042 -6.44202 1.90929 0
M  V30 2026 N 184.763 -0.387143 -1.52771 0
M  V30 2027 C 185.726 0.436939 -2.24997 0
M  V30 2028 C 186.726 0.991991 -1.26555 0
M  V30 2029 O 187.916 0.874335 -1.50669 0
M  V30 2030 C 185.048 1.61281 -3.00335 0
M  V30 2031 H 186.241 -0.195365 -2.99263 0
M  V30 2032 H 183.794 -0.139218 -1.55679 0
M  V30 2033 H 184.529 2.2826 -2.30364 0
M  V30 2034 H 184.314 1.22154 -3.72587 0
M  V30 2035 H 185.804 2.19629 -3.5518 0
M  V30 2036 N 186.241 1.57166 -0.116904 0
M  V30 2037 C 187.49 1.94298 0.541407 0
M  V30 2038 C 187.803 1.00236 1.67964 0
M  V30 2039 O 189.009 1.26826 2.40057 0
M  V30 2040 C 187.465 3.45306 1.01449 0
M  V30 2041 C 187.073 4.47899 -0.0951738 0
M  V30 2042 C 188.817 3.91361 1.6443 0
M  V30 2043 C 186.724 5.90083 0.394491 0
M  V30 2044 H 185.654 0.725308 0.206019 0
M  V30 2045 H 188.305 1.82446 -0.196419 0
M  V30 2046 H 186.687 3.52385 1.80667 0
M  V30 2047 H 187.861 4.52486 -0.871374 0
M  V30 2048 H 186.176 4.11583 -0.631505 0
M  V30 2049 H 188.773 4.95004 2.02176 0
M  V30 2050 H 189.116 3.3122 2.52189 0
M  V30 2051 H 189.649 3.87073 0.917559 0
M  V30 2052 H 186.388 6.53974 -0.447004 0
M  V30 2053 H 185.908 5.88921 1.13722 0
M  V30 2054 H 187.587 6.41307 0.856399 0
M  V30 2055 N 187.719 -0.156864 1.56817 0
M  V30 2056 C 188.944 -0.890331 1.87318 0
M  V30 2057 C 189.369 -1.74394 0.704855 0
M  V30 2058 O 188.727 -1.77972 -0.345786 0
M  V30 2059 C 188.775 -1.73102 3.16336 0
M  V30 2060 O 187.879 -2.83422 2.99576 0
M  V30 2061 H 187.22 -0.24857 0.615718 0
M  V30 2062 H 189.75 -0.150649 2.04045 0
M  V30 2063 H 189.76 -2.12803 3.48107 0
M  V30 2064 H 188.435 -1.10412 4.00976 0
M  V30 2065 H 187.012 -2.47199 2.7919 0
M  V30 2066 N 189.197 -1.51736 -0.425897 0
M  V30 2067 C 190.427 -1.68549 -1.19476 0
M  V30 2068 C 190.835 -0.387288 -1.85194 0
M  V30 2069 O 190.178 0.645142 -1.71999 0
M  V30 2070 C 190.24 -2.75275 -2.31223 0
M  V30 2071 C 189.904 -4.17534 -1.8578 0
M  V30 2072 C 190.901 -5.01936 -1.35485 0
M  V30 2073 C 188.586 -4.6369 -1.93123 0
M  V30 2074 C 190.58 -6.30559 -0.931347 0
M  V30 2075 C 188.267 -5.92307 -1.50384 0
M  V30 2076 C 189.265 -6.75569 -1.00473 0
M  V30 2077 O 188.953 -8.0178 -0.583452 0
M  V30 2078 H 188.685 -0.568525 -0.365725 0
M  V30 2079 H 191.239 -1.98982 -0.509444 0
M  V30 2080 H 189.469 -2.40182 -3.03067 0
M  V30 2081 H 191.158 -2.80853 -2.93047 0
M  V30 2082 H 191.924 -4.67475 -1.29197 0
M  V30 2083 H 187.803 -3.98997 -2.30916 0
M  V30 2084 H 191.347 -6.95498 -0.541084 0
M  V30 2085 H 187.244 -6.2628 -1.56346 0
M  V30 2086 H 188.012 -8.1543 -0.708275 0
M  V30 2087 N 190.675 0.682077 -1.42076 0
M  V30 2088 C 191.915 1.45424 -1.43636 0
M  V30 2089 C 192.279 1.91939 -0.0484001 0
M  V30 2090 O 193.48 2.6873 0.0612514 0
M  V30 2091 C 191.751 2.62427 -2.42625 0
M  V30 2092 S 193.31 3.51379 -2.62827 0
M  V30 2093 H 190.128 0.496779 -0.508657 0
M  V30 2094 H 192.73 0.794645 -1.78621 0
M  V30 2095 H 191.434 2.26481 -3.42249 0
M  V30 2096 H 190.965 3.33266 -2.09039 0
M  V30 2097 H 192.98 4.58141 -1.9058 0
M  V30 2098 N 192.153 1.28127 0.917671 0
M  V30 2099 C 193.103 1.08361 2.00604 0
M  V30 2100 C 194.087 0.00847518 1.60898 0
M  V30 2101 O 195.279 0.228167 1.75523 0
M  V30 2102 C 192.408 0.743376 3.35155 0
M  V30 2103 C 191.494 1.85716 3.81275 0
M  V30 2104 N 191.885 3.09822 3.99805 0
M  V30 2105 C 190.183 1.74612 4.10398 0
M  V30 2106 C 190.884 3.82368 4.38372 0
M  V30 2107 N 189.86 3.10192 4.4641 0
M  V30 2108 H 193.662 2.02531 2.12975 0
M  V30 2109 H 191.176 1.18989 1.10523 0
M  V30 2110 H 193.173 0.582859 4.12805 0
M  V30 2111 H 191.833 -0.190595 3.2414 0
M  V30 2112 H 192.844 3.45475 3.85833 0
M  V30 2113 H 189.521 0.883657 4.08041 0
M  V30 2114 H 190.911 4.89082 4.60704 0
M  V30 2115 N 193.631 -1.12557 1.10312 0
M  V30 2116 C 194.578 -2.18247 0.750781 0
M  V30 2117 C 195.548 -1.63853 -0.272293 0
M  V30 2118 O 196.733 -1.90195 -0.151862 0
M  V30 2119 C 193.873 -3.44591 0.187379 0
M  V30 2120 C 192.986 -4.13046 1.2656 0
M  V30 2121 C 192.121 -5.27034 0.663978 0
M  V30 2122 C 191.16 -5.87353 1.72287 0
M  V30 2123 N 190.297 -6.92757 1.1416 0
M  V30 2124 H 195.137 -2.47732 1.65628 0
M  V30 2125 H 192.674 -1.21629 0.827337 0
M  V30 2126 H 194.632 -4.16904 -0.157148 0
M  V30 2127 H 193.262 -3.15527 -0.681355 0
M  V30 2128 H 192.314 -3.38924 1.72727 0
M  V30 2129 H 193.626 -4.53947 2.06721 0
M  V30 2130 H 192.78 -6.06104 0.268824 0
M  V30 2131 H 191.519 -4.87407 -0.169082 0
M  V30 2132 H 190.524 -5.06971 2.12746 0
M  V30 2133 H 191.749 -6.29051 2.55875 0
M  V30 2134 H 189.695 -6.5517 0.329984 0
M  V30 2135 H 189.612 -7.3225 1.88007 0
M  V30 2136 H 190.88 -7.75658 0.772956 0
M  V30 2137 N 195.109 -0.891671 -1.2995 0
M  V30 2138 C 196.039 -0.379797 -2.30391 0
M  V30 2139 C 197.02 0.540919 -1.6127 0
M  V30 2140 O 198.205 0.453352 -1.88834 0
M  V30 2141 C 195.335 0.400654 -3.44981 0
M  V30 2142 C 194.289 -0.428905 -4.25846 0
M  V30 2143 C 193.615 0.478557 -5.32554 0
M  V30 2144 C 194.915 -1.67458 -4.94727 0
M  V30 2145 H 196.609 -1.21914 -2.73454 0
M  V30 2146 H 194.155 -0.587675 -1.31462 0
M  V30 2147 H 196.108 0.769434 -4.14316 0
M  V30 2148 H 194.832 1.27371 -3.0074 0
M  V30 2149 H 193.491 -0.779911 -3.58208 0
M  V30 2150 H 193.139 1.34951 -4.84559 0
M  V30 2151 H 192.839 -0.0727433 -5.87555 0
M  V30 2152 H 194.363 0.843705 -6.04743 0
M  V30 2153 H 195.777 -1.376 -5.56542 0
M  V30 2154 H 194.174 -2.16659 -5.59624 0
M  V30 2155 H 195.244 -2.41518 -4.20473 0
M  V30 2156 N 196.587 1.43421 -0.653314 0
M  V30 2157 C 197.537 2.2792 0.060558 0
M  V30 2158 C 198.521 1.39906 0.794677 0
M  V30 2159 O 199.713 1.63536 0.677128 0
M  V30 2160 C 196.842 3.27603 1.0262 0
M  V30 2161 C 195.928 4.23104 0.290551 0
M  V30 2162 N 196.319 5.01031 -0.692967 0
M  V30 2163 C 194.617 4.42816 0.531984 0
M  V30 2164 C 195.318 5.70626 -1.12963 0
M  V30 2165 N 194.294 5.41617 -0.463867 0
M  V30 2166 H 198.096 2.85585 -0.694143 0
M  V30 2167 H 195.61 1.55126 -0.480602 0
M  V30 2168 H 197.607 3.86918 1.55242 0
M  V30 2169 H 196.267 2.71499 1.78096 0
M  V30 2170 H 197.278 5.0669 -1.07169 0
M  V30 2171 H 193.955 3.97782 1.26791 0
M  V30 2172 H 195.345 6.4318 -1.94343 0
M  V30 2173 N 198.065 0.39524 1.52563 0
M  V30 2174 C 199.311 -0.185318 2.01952 0
M  V30 2175 C 199.644 -1.45964 1.28095 0
M  V30 2176 O 198.919 -1.90689 0.38315 0
M  V30 2177 C 199.202 -0.447193 3.57312 0
M  V30 2178 C 199.055 0.842828 4.41833 0
M  V30 2179 C 200.374 -1.23529 4.22408 0
M  V30 2180 H 197.493 -0.0658788 0.73405 0
M  V30 2181 H 200.135 0.525975 1.82575 0
M  V30 2182 H 198.285 -1.05312 3.73954 0
M  V30 2183 H 199.957 1.4795 4.36931 0
M  V30 2184 H 198.2 1.45686 4.08605 0
M  V30 2185 H 198.871 0.614165 5.48573 0
M  V30 2186 H 201.347 -0.722445 4.0978 0
M  V30 2187 H 200.223 -1.38727 5.3108 0
M  V30 2188 H 200.484 -2.25213 3.80436 0
M  V30 2189 N 199.544 -1.57102 0.125237 0
M  V30 2190 C 200.79 -1.95697 -0.532035 0
M  V30 2191 C 201.123 -1.009 -1.6593 0
M  V30 2192 O 200.398 -0.047347 -1.94442 0
M  V30 2193 C 200.681 -3.44181 -1.05884 0
M  V30 2194 C 200.534 -4.49752 0.0654392 0
M  V30 2195 C 201.853 -3.94655 -1.9477 0
M  V30 2196 H 198.972 -0.711571 -0.191925 0
M  V30 2197 H 201.614 -1.88923 0.20206 0
M  V30 2198 H 199.764 -3.50085 -1.68442 0
M  V30 2199 H 201.436 -4.55943 0.700982 0
M  V30 2200 H 199.679 -4.27653 0.727709 0
M  V30 2201 H 200.35 -5.50924 -0.344505 0
M  V30 2202 H 202.826 -3.91094 -1.42074 0
M  V30 2203 H 201.702 -4.99057 -2.28546 0
M  V30 2204 H 201.963 -3.35718 -2.87656 0
M  V30 2205 N 201.022 0.148545 -1.56898 0
M  V30 2206 C 201.972 1.1886 -1.94567 0
M  V30 2207 C 202.956 1.3863 -0.816735 0
M  V30 2208 O 204.148 1.40218 -1.08018 0
M  V30 2209 C 201.277 2.52262 -2.32849 0
M  V30 2210 C 200.363 2.36092 -3.52309 0
M  V30 2211 N 200.754 1.89674 -4.6889 0
M  V30 2212 C 199.052 2.66848 -3.57363 0
M  V30 2213 C 199.753 1.86511 -5.50989 0
M  V30 2214 N 198.729 2.29766 -4.92655 0
M  V30 2215 H 202.531 0.821793 -2.82177 0
M  V30 2216 H 200.045 0.356615 -1.58436 0
M  V30 2217 H 202.042 3.27447 -2.58039 0
M  V30 2218 H 200.702 2.89727 -1.46589 0
M  V30 2219 H 201.713 1.59663 -4.92674 0
M  V30 2220 H 198.39 3.08198 -2.81639 0
M  V30 2221 H 199.78 1.52128 -6.54452 0
M  V30 2222 N 202.5 1.5196 0.417844 0
M  V30 2223 C 203.916 1.40569 0.755816 0
M  V30 2224 C 204.116 0.503316 1.95113 0
M  V30 2225 O 203.172 -0.0341925 2.52477 0
M  V30 2226 C 204.485 2.82947 1.01791 0
M  V30 2227 C 206.033 2.92231 1.12116 0
M  V30 2228 C 206.508 4.35559 1.41608 0
M  V30 2229 N 207.999 4.38753 1.48491 0
M  V30 2230 C 208.734 5.46705 1.7292 0
M  V30 2231 N 208.23 6.64788 1.95011 0
M  V30 2232 N 210.023 5.34209 1.74863 0
M  V30 2233 H 202.174 2.09168 -0.369098 0
M  V30 2234 H 204.437 0.942409 -0.102809 0
M  V30 2235 H 204.143 3.5106 0.212081 0
M  V30 2236 H 204.017 3.23462 1.94042 0
M  V30 2237 H 206.404 2.24304 1.9176 0
M  V30 2238 H 206.485 2.55185 0.177225 0
M  V30 2239 H 206.129 5.04042 0.624848 0
M  V30 2240 H 206.059 4.70133 2.37239 0
M  V30 2241 H 208.55 3.5363 1.33244 0
M  V30 2242 H 208.863 7.42845 2.13076 0
M  V30 2243 H 207.208 6.67869 1.92293 0
M  V30 2244 H 210.399 4.40937 1.57137 0
M  V30 2245 H 210.572 6.18415 1.93563 0
M  V30 2246 N 203.978 -0.674533 1.42435 0
M  V30 2247 C 205.255 -1.4305 1.33402 0
M  V30 2248 C 205.635 -2.11081 -0.0284674 0
M  V30 2249 O 204.983 -2.03257 -1.04397 0
M  V30 2250 C 205.193 -2.43272 2.50239 0
M  V30 2251 C 206.541 -3.07907 2.92367 0
M  V30 2252 O 207.565 -2.53599 2.50132 0
M  V30 2253 O 206.424 -4.0632 3.65467 0
M  V30 2254 H 203.518 -0.638076 0.526106 0
M  V30 2255 H 206.064 -0.703235 1.54443 0
M  V30 2256 H 204.836 -1.91803 3.41068 0
M  V30 2257 H 204.459 -3.23479 2.31186 0
M  V30 2258 N 205.456 -1.28612 -0.910864 0
M  V30 2259 C 206.386 -1.15326 -2.03032 0
M  V30 2260 C 207.367 -0.0502924 -1.70026 0
M  V30 2261 O 208.552 -0.227797 -1.92859 0
M  V30 2262 C 205.682 -0.817343 -3.37545 0
M  V30 2263 C 204.636 -1.8754 -3.84724 0
M  V30 2264 C 203.962 -1.39305 -5.16235 0
M  V30 2265 C 205.262 -3.28244 -4.06267 0
M  V30 2266 H 206.956 -2.08975 -2.14406 0
M  V30 2267 H 204.502 -1.00612 -1.03021 0
M  V30 2268 H 206.455 -0.711151 -4.15356 0
M  V30 2269 H 205.179 0.154846 -3.26233 0
M  V30 2270 H 203.838 -1.97079 -3.09121 0
M  V30 2271 H 203.486 -0.409846 -5.01328 0
M  V30 2272 H 203.186 -2.10057 -5.48771 0
M  V30 2273 H 204.71 -1.30014 -5.96598 0
M  V30 2274 H 206.124 -3.21611 -4.74594 0
M  V30 2275 H 204.521 -3.96855 -4.5014 0
M  V30 2276 H 205.591 -3.72048 -3.10979 0
M  V30 2277 N 206.934 1.1197 -1.10907 0
M  V30 2278 C 207.881 2.17846 -0.762345 0
M  V30 2279 C 208.851 1.63995 0.263599 0
M  V30 2280 O 210.036 1.90273 0.141773 0
M  V30 2281 C 207.176 3.44487 -0.205651 0
M  V30 2282 C 206.289 4.12369 -1.28748 0
M  V30 2283 C 205.424 5.26674 -0.691919 0
M  V30 2284 C 204.463 5.86431 -1.75399 0
M  V30 2285 N 203.6 6.92142 -1.17833 0
M  V30 2286 H 208.44 2.46851 -1.6694 0
M  V30 2287 H 205.977 1.21188 -0.833776 0
M  V30 2288 H 207.935 4.16981 0.135037 0
M  V30 2289 H 206.565 3.15884 0.664613 0
M  V30 2290 H 205.617 3.38003 -1.74522 0
M  V30 2291 H 206.929 4.52844 -2.09125 0
M  V30 2292 H 206.083 6.05953 -0.300963 0
M  V30 2293 H 204.822 4.8749 0.143232 0
M  V30 2294 H 203.827 5.05835 -2.15432 0
M  V30 2295 H 205.052 6.27685 -2.59208 0
M  V30 2296 H 202.998 6.54985 -0.364725 0
M  V30 2297 H 202.915 7.31242 -1.91887 0
M  V30 2298 H 204.183 7.75237 -0.81408 0
M  V30 2299 N 208.412 0.89855 1.29475 0
M  V30 2300 C 209.823 0.572537 1.77705 0
M  V30 2301 C 210.174 -0.911778 1.73727 0
M  V30 2302 O 209.299 -1.71288 1.32247 0
M  V30 2303 C 209.894 1.03252 3.22683 0
M  V30 2304 C 208.453 0.757687 3.68695 0
M  V30 2305 C 207.6 1.20787 2.49612 0
M  V30 2306 H 210.551 1.08139 1.16153 0
M  V30 2307 H 210.572 0.367307 3.78723 0
M  V30 2308 H 210.084 2.11285 3.25546 0
M  V30 2309 H 208.185 -0.310079 3.71308 0
M  V30 2310 H 208.298 1.35476 4.59547 0
M  V30 2311 H 206.662 0.626888 2.46865 0
M  V30 2312 H 207.445 2.29622 2.55203 0
M  V30 2313 N 209.89 -1.43072 0.660911 0
M  V30 2314 C 210.8 -2.34585 -0.0264163 0
M  V30 2315 C 211.816 -1.54316 -0.803898 0
M  V30 2316 O 212.992 -1.86939 -0.749391 0
M  V30 2317 C 210.057 -3.32689 -0.975639 0
M  V30 2318 C 209.118 -4.2886 -0.194236 0
M  V30 2319 C 208.351 -5.22278 -1.09825 0
M  V30 2320 O 208.574 -5.20299 -2.33763 0
M  V30 2321 O 207.508 -5.99228 -0.566513 0
M  V30 2322 H 211.334 -2.94869 0.727034 0
M  V30 2323 H 208.919 -1.43342 0.42111 0
M  V30 2324 H 210.801 -3.92995 -1.52094 0
M  V30 2325 H 209.476 -2.74898 -1.70918 0
M  V30 2326 H 208.383 -3.72011 0.394835 0
M  V30 2327 H 209.716 -4.89655 0.499899 0
M  V30 2328 N 211.368 -0.403325 -1.52352 0
M  V30 2329 C 212.316 0.439752 -2.28405 0
M  V30 2330 C 213.31 1.05089 -1.32863 0
M  V30 2331 O 214.516 0.989759 -1.50345 0
M  V30 2332 H 210.891 0.160587 -0.734653 0
M  V30 2333 H 212.862 -0.222983 -2.97566 0
M  V30 2334 C 211.611 1.54736 -3.11371 0
M  V30 2335 H 210.934 1.08643 -3.84755 0
M  V30 2336 H 212.374 2.1112 -3.67701 0
M  V30 2337 C 210.833 2.51141 -2.24566 0
M  V30 2338 O 211.363 3.54887 -1.88196 0
M  V30 2339 N 209.569 2.21213 -1.8845 0
M  V30 2340 H 209.116 1.36878 -2.18225 0
M  V30 2341 H 209.074 2.85963 -1.30662 0
M  V30 2342 N 212.846 1.57033 -0.133567 0
M  V30 2343 C 214.092 1.95976 0.521649 0
M  V30 2344 C 214.425 1.01779 1.65393 0
M  V30 2345 O 213.7 0.0576581 1.94415 0
M  V30 2346 C 213.983 3.44738 1.04057 0
M  V30 2347 C 213.836 4.49711 -0.0892897 0
M  V30 2348 C 215.155 3.95682 1.92675 0
M  V30 2349 H 212.274 0.712579 0.188149 0
M  V30 2350 H 214.916 1.88813 -0.212076 0
M  V30 2351 H 213.066 3.50973 1.66583 0
M  V30 2352 H 214.738 4.55565 -0.725152 0
M  V30 2353 H 212.981 4.27261 -0.750378 0
M  V30 2354 H 213.652 5.51099 0.315284 0
M  V30 2355 H 216.128 3.91841 1.39998 0
M  V30 2356 H 215.004 5.00262 2.25897 0
M  V30 2357 H 215.265 3.37239 2.85872 0
M  V30 2358 N 214.325 -0.140222 1.56975 0
M  V30 2359 C 215.571 -0.852949 1.83991 0
M  V30 2360 C 215.904 -1.80512 0.716187 0
M  V30 2361 O 215.179 -1.92479 -0.279681 0
M  V30 2362 C 215.462 -1.6215 3.21527 0
M  V30 2363 C 215.315 -0.690363 4.4447 0
M  V30 2364 C 216.634 -2.58247 3.56366 0
M  V30 2365 H 213.753 -0.308634 0.669264 0
M  V30 2366 H 216.395 -0.117898 1.89634 0
M  V30 2367 H 214.545 -2.24812 3.16847 0
M  V30 2368 H 216.217 -0.0742264 4.6124 0
M  V30 2369 H 214.46 -0.000396433 4.338 0
M  V30 2370 H 215.131 -1.2643 5.37326 0
M  V30 2371 H 217.607 -2.05701 3.61699 0
M  V30 2372 H 216.483 -3.09067 4.53617 0
M  V30 2373 H 216.744 -3.39923 2.82674 0
M  V30 2374 N 215.803 -1.52179 -0.40978 0
M  V30 2375 C 217.05 -1.66206 -1.15679 0
M  V30 2376 C 217.378 -0.391674 -1.90516 0
M  V30 2377 O 216.633 0.62533 -1.8544 0
M  V30 2378 C 216.932 -2.83428 -2.17723 0
M  V30 2379 C 216.598 -4.21672 -1.59699 0
M  V30 2380 C 215.26 -4.59274 -1.43599 0
M  V30 2381 C 217.612 -5.07825 -1.17317 0
M  V30 2382 C 214.94 -5.80709 -0.836328 0
M  V30 2383 C 217.292 -6.29864 -0.587691 0
M  V30 2384 C 215.956 -6.66216 -0.413818 0
M  V30 2385 H 215.226 -0.608192 -0.423301 0
M  V30 2386 H 217.873 -1.86279 -0.444097 0
M  V30 2387 H 216.178 -2.57687 -2.95135 0
M  V30 2388 H 217.875 -2.91477 -2.75394 0
M  V30 2389 H 214.465 -3.9204 -1.73213 0
M  V30 2390 H 218.649 -4.79359 -1.28565 0
M  V30 2391 H 213.905 -6.07498 -0.689626 0
M  V30 2392 H 218.079 -6.95948 -0.250894 0
M  V30 2393 H 215.706 -7.60182 0.0529471 0
M  V30 2394 N 217.281 0.66697 -1.42791 0
M  V30 2395 C 218.528 1.42699 -1.43678 0
M  V30 2396 C 218.856 1.94419 -0.0560425 0
M  V30 2397 O 218.111 1.7182 0.936831 0
M  V30 2398 C 218.41 2.6349 -2.4147 0
M  V30 2399 C 218.076 2.30267 -3.8767 0
M  V30 2400 C 216.738 2.20918 -4.27491 0
M  V30 2401 C 219.09 2.03435 -4.79858 0
M  V30 2402 C 216.418 1.82873 -5.57471 0
M  V30 2403 C 218.77 1.66892 -6.10188 0
M  V30 2404 C 217.434 1.56058 -6.49001 0
M  V30 2405 H 216.704 0.522171 -0.525755 0
M  V30 2406 H 219.351 0.759785 -1.75783 0
M  V30 2407 H 217.656 3.35279 -2.0272 0
M  V30 2408 H 219.353 3.21684 -2.39417 0
M  V30 2409 H 215.943 2.38449 -3.56146 0
M  V30 2410 H 220.127 2.09586 -4.49875 0
M  V30 2411 H 215.383 1.7306 -5.86396 0
M  V30 2412 H 219.557 1.45157 -6.81104 0
M  V30 2413 H 217.184 1.26348 -7.49627 0
M  V30 2414 N 218.759 1.29093 0.90403 0
M  V30 2415 C 219.669 1.15727 2.0407 0
M  V30 2416 C 220.685 0.0815308 1.73809 0
M  V30 2417 O 221.861 0.292749 1.99261 0
M  V30 2418 C 218.926 0.830424 3.36608 0
M  V30 2419 C 217.987 1.98955 3.80415 0
M  V30 2420 C 217.22 1.6782 5.06628 0
M  V30 2421 O 217.443 0.597105 5.67266 0
M  V30 2422 O 216.377 2.52486 5.46383 0
M  V30 2423 H 220.203 2.11171 2.18267 0
M  V30 2424 H 217.788 1.08504 1.027 0
M  V30 2425 H 219.67 0.662521 4.16159 0
M  V30 2426 H 218.345 -0.0942678 3.23563 0
M  V30 2427 H 217.252 2.21267 3.01648 0
M  V30 2428 H 218.585 2.89529 3.98037 0
M  V30 2429 N 220.237 -1.11381 1.11499 0
M  V30 2430 C 221.184 -2.17439 0.773887 0
M  V30 2431 C 222.154 -1.64132 -0.254899 0
M  V30 2432 O 223.339 -1.90345 -0.13168 0
M  V30 2433 C 220.479 -3.44373 0.223917 0
M  V30 2434 C 219.592 -4.1168 1.30934 0
M  V30 2435 C 218.727 -5.263 0.71984 0
M  V30 2436 C 217.766 -5.85493 1.78507 0
M  V30 2437 N 216.903 -6.91507 1.21502 0
M  V30 2438 H 221.743 -2.45962 1.68246 0
M  V30 2439 H 219.28 -1.20744 0.840191 0
M  V30 2440 H 221.238 -4.17047 -0.112921 0
M  V30 2441 H 219.868 -3.16232 -0.647851 0
M  V30 2442 H 218.92 -3.37073 1.76312 0
M  V30 2443 H 220.232 -4.51729 2.11524 0
M  V30 2444 H 219.386 -6.05785 0.333094 0
M  V30 2445 H 218.125 -4.87559 -0.117377 0
M  V30 2446 H 217.13 -5.04686 2.18111 0
M  V30 2447 H 218.355 -6.26301 2.62533 0
M  V30 2448 H 216.301 -6.54783 0.399455 0
M  V30 2449 H 216.218 -7.30214 1.95763 0
M  V30 2450 H 217.486 -7.74795 0.855181 0
M  V30 2451 N 221.715 -0.905404 -1.28997 0
M  V30 2452 C 222.647 -0.344748 -2.26592 0
M  V30 2453 C 223.66 0.512135 -1.54535 0
M  V30 2454 O 224.849 0.328368 -1.75454 0
M  V30 2455 C 221.949 0.526587 -3.34784 0
M  V30 2456 C 221.122 -0.305871 -4.36329 0
M  V30 2457 C 220.181 0.499209 -5.23827 0
M  V30 2458 O 219.207 -0.0853004 -5.69136 0
M  V30 2459 N 220.409 1.80408 -5.51755 0
M  V30 2460 H 223.174 -1.18359 -2.75338 0
M  V30 2461 H 220.735 -0.770481 -1.42391 0
M  V30 2462 H 222.727 1.07171 -3.90252 0
M  V30 2463 H 221.297 1.26613 -2.85811 0
M  V30 2464 H 220.517 -1.0324 -3.80441 0
M  V30 2465 H 221.805 -0.875773 -5.01206 0
M  V30 2466 H 221.203 2.3016 -5.16762 0
M  V30 2467 H 219.76 2.29621 -6.10014 0
M  V30 2468 N 223.193 1.4272 -0.668489 0
M  V30 2469 C 224.441 2.01226 -0.187769 0
M  V30 2470 C 224.762 1.53092 1.2078 0
M  V30 2471 O 224.032 0.74993 1.80977 0
M  V30 2472 H 222.612 0.744041 -0.0664272 0
M  V30 2473 H 225.274 1.74723 -0.863583 0
M  V30 2474 H 224.37 3.11556 -0.184166 0
M  V30 2475 N 224.671 0.411399 1.52136 0
M  V30 2476 C 225.601 -0.404015 2.29978 0
M  V30 2477 C 226.582 -1.04412 1.34284 0
M  V30 2478 O 227.767 -1.0527 1.63192 0
M  V30 2479 C 224.897 -1.5197 3.12286 0
M  V30 2480 C 223.851 -1.00448 4.16046 0
M  V30 2481 C 223.177 -2.21393 4.86712 0
M  V30 2482 C 224.477 -0.0569336 5.22269 0
M  V30 2483 H 226.171 0.245529 2.98392 0
M  V30 2484 H 223.717 0.119525 1.43503 0
M  V30 2485 H 225.67 -2.09715 3.6551 0
M  V30 2486 H 224.394 -2.19716 2.41646 0
M  V30 2487 H 223.053 -0.449421 3.63835 0
M  V30 2488 H 222.701 -2.87699 4.12599 0
M  V30 2489 H 222.401 -1.87571 5.56858 0
M  V30 2490 H 223.925 -2.7974 5.4275 0
M  V30 2491 H 225.339 -0.54325 5.7072 0
M  V30 2492 H 223.736 0.192594 5.99791 0
M  V30 2493 H 224.806 0.887663 4.76706 0
M  V30 2494 N 226.149 -1.5696 0.141893 0
M  V30 2495 C 227.395 -1.9625 -0.511248 0
M  V30 2496 C 227.728 -1.02654 -1.64851 0
M  V30 2497 O 227.003 -0.0679676 -1.94381 0
M  V30 2498 C 227.286 -3.45285 -1.02227 0
M  V30 2499 C 227.139 -4.49658 0.113138 0
M  V30 2500 C 228.458 -3.96698 -1.90574 0
M  V30 2501 H 225.577 -0.713567 -0.184367 0
M  V30 2502 H 228.219 -1.88698 0.222087 0
M  V30 2503 H 226.369 -3.51852 -1.64719 0
M  V30 2504 H 228.041 -4.55174 0.749302 0
M  V30 2505 H 226.284 -4.26857 0.773026 0
M  V30 2506 H 226.955 -5.51258 -0.286053 0
M  V30 2507 H 229.431 -3.92578 -1.37918 0
M  V30 2508 H 228.307 -5.01453 -2.2324 0
M  V30 2509 H 228.568 -3.3875 -2.84079 0
M  V30 2510 N 227.627 0.131896 -1.57047 0
M  V30 2511 C 228.574 1.16236 -1.99393 0
M  V30 2512 C 229.544 1.41863 -0.863943 0
M  V30 2513 O 230.729 1.53946 -1.12718 0
M  V30 2514 C 227.869 2.48708 -2.39245 0
M  V30 2515 C 226.982 2.30127 -3.65603 0
M  V30 2516 C 226.117 3.55738 -3.94492 0
M  V30 2517 C 225.156 3.32259 -5.14073 0
M  V30 2518 N 224.293 4.50039 -5.38896 0
M  V30 2519 H 229.133 0.794251 -2.87221 0
M  V30 2520 H 226.67 0.380707 -1.42088 0
M  V30 2521 H 228.628 3.25969 -2.60384 0
M  V30 2522 H 227.258 2.83437 -1.54478 0
M  V30 2523 H 226.31 1.43845 -3.52154 0
M  V30 2524 H 227.622 2.08746 -4.5302 0
M  V30 2525 H 226.776 4.41423 -4.1621 0
M  V30 2526 H 225.515 3.80138 -3.05526 0
M  V30 2527 H 224.52 2.44963 -4.92212 0
M  V30 2528 H 225.745 3.09242 -6.04604 0
M  V30 2529 H 223.691 4.74584 -4.52886 0
M  V30 2530 H 223.608 4.31716 -6.2061 0
M  V30 2531 H 224.876 5.36895 -5.65123 0
M  V30 2532 N 229.106 1.52395 0.401703 0
M  V30 2533 C 230.036 1.79231 1.49661 0
M  V30 2534 C 231.017 0.643654 1.57452 0
M  V30 2535 O 232.202 0.889989 1.72606 0
M  V30 2536 C 229.332 1.94971 2.87409 0
M  V30 2537 C 228.286 3.10604 2.94465 0
M  V30 2538 C 227.612 3.11577 4.34538 0
M  V30 2539 C 228.912 4.49921 2.6527 0
M  V30 2540 H 230.606 2.70917 1.27454 0
M  V30 2541 H 228.152 1.30362 0.6117 0
M  V30 2542 H 230.105 2.12328 3.63999 0
M  V30 2543 H 228.829 0.999632 3.10926 0
M  V30 2544 H 227.488 2.93009 2.20321 0
M  V30 2545 H 227.136 2.14277 4.55076 0
M  V30 2546 H 226.836 3.89247 4.40183 0
M  V30 2547 H 228.36 3.31073 5.13053 0
M  V30 2548 H 229.774 4.67683 3.31581 0
M  V30 2549 H 228.171 5.29564 2.82281 0
M  V30 2550 H 229.241 4.57507 1.60671 0
M  V30 2551 N 230.584 -0.659388 1.43143 0
M  V30 2552 C 231.812 -1.44723 1.47861 0
M  V30 2553 C 232.227 -1.88563 0.0945886 0
M  V30 2554 O 231.584 -1.59108 -0.893915 0
M  V30 2555 C 231.635 -2.68627 2.41913 0
M  V30 2556 O 231.356 -2.26623 3.74932 0
M  V30 2557 C 232.857 -3.62045 2.55809 0
M  V30 2558 H 230.077 -0.444801 0.502387 0
M  V30 2559 H 232.621 -0.808916 1.87821 0
M  V30 2560 H 230.776 -3.28613 2.05164 0
M  V30 2561 H 231.19 -3.06745 4.2545 0
M  V30 2562 H 232.664 -4.45666 3.25708 0
M  V30 2563 H 233.141 -4.08981 1.60099 0
M  V30 2564 H 233.747 -3.07944 2.93344 0
M  V30 2565 N 232.062 -1.29571 -0.897171 0
M  V30 2566 C 233.339 -1.08365 -1.62839 0
M  V30 2567 C 233.719 0.371331 -2.07808 0
M  V30 2568 O 233.067 1.3606 -1.83576 0
M  V30 2569 C 233.277 -2.0735 -2.80726 0
M  V30 2570 C 234.625 -2.38406 -3.51351 0
M  V30 2571 O 235.649 -2.05564 -2.90898 0
M  V30 2572 O 234.508 -2.9453 -4.60341 0
M  V30 2573 H 231.602 -0.415345 -0.715134 0
M  V30 2574 H 234.148 -1.40952 -0.945018 0
M  V30 2575 H 232.92 -3.05339 -2.44711 0
M  V30 2576 H 232.543 -1.75507 -3.56767 0
M  V30 2577 N 233.54 1.10788 -1.12088 0
M  V30 2578 C 234.787 1.82671 -0.873931 0
M  V30 2579 C 235.115 1.85004 0.600311 0
M  V30 2580 O 234.37 1.30365 1.45957 0
M  V30 2581 C 234.669 3.29294 -1.38926 0
M  V30 2582 C 234.335 3.47113 -2.87791 0
M  V30 2583 C 232.997 3.51684 -3.28439 0
M  V30 2584 C 235.349 3.52808 -3.83635 0
M  V30 2585 C 232.677 3.59513 -4.63646 0
M  V30 2586 C 235.029 3.62169 -5.18668 0
M  V30 2587 C 233.693 3.65003 -5.58864 0
M  V30 2588 H 232.963 0.668441 -0.319794 0
M  V30 2589 H 235.61 1.30613 -1.40045 0
M  V30 2590 H 233.915 3.83894 -0.783122 0
M  V30 2591 H 235.612 3.83416 -1.17443 0
M  V30 2592 H 232.202 3.4423 -2.5535 0
M  V30 2593 H 236.386 3.4853 -3.53328 0
M  V30 2594 H 231.642 3.59987 -4.94185 0
M  V30 2595 H 235.816 3.6552 -5.92763 0
M  V30 2596 H 233.443 3.70822 -6.63623 0
M  V30 2597 N 235.018 0.912232 1.28515 0
M  V30 2598 C 236.266 0.543523 1.94654 0
M  V30 2599 C 236.587 -0.9155 1.72173 0
M  V30 2600 O 235.857 -1.64708 1.06058 0
M  V30 2601 H 234.437 0.198017 0.720277 0
M  V30 2602 H 237.099 1.16126 1.56527 0
M  V30 2603 H 236.195 0.736684 3.03281 0
M  V30 2604 N 236.496 -1.42363 0.676048 0
M  V30 2605 C 237.743 -2.01522 0.19883 0
M  V30 2606 C 238.071 -1.53456 -1.19505 0
M  V30 2607 O 237.326 -0.727967 -1.81657 0
M  V30 2608 C 237.625 -3.56929 0.183431 0
M  V30 2609 C 237.291 -4.24431 1.52215 0
M  V30 2610 C 235.953 -4.42585 1.8887 0
M  V30 2611 C 238.305 -4.62459 2.40377 0
M  V30 2612 C 235.633 -4.96039 3.13309 0
M  V30 2613 C 237.985 -5.17294 3.64129 0
M  V30 2614 C 236.649 -5.33661 4.00951 0
M  V30 2615 H 235.919 -0.737419 0.0727571 0
M  V30 2616 H 238.566 -1.70531 0.871281 0
M  V30 2617 H 236.871 -3.87594 -0.572532 0
M  V30 2618 H 238.568 -4.00486 -0.203035 0
M  V30 2619 H 235.158 -4.10661 1.22701 0
M  V30 2620 H 239.342 -4.48105 2.13343 0
M  V30 2621 H 234.598 -5.06896 3.41857 0
M  V30 2622 H 238.772 -5.45704 4.32644 0
M  V30 2623 H 236.399 -5.74845 4.9745 0
M  V30 2624 N 237.974 -0.419461 -1.51915 0
M  V30 2625 C 239.199 0.154572 -2.06823 0
M  V30 2626 C 239.624 1.3722 -1.28656 0
M  V30 2627 O 238.982 1.78461 -0.319583 0
M  V30 2628 C 239.03 0.473172 -3.57482 0
M  V30 2629 O 238.134 1.56255 -3.81652 0
M  V30 2630 H 237.475 0.0096924 -0.663929 0
M  V30 2631 H 240.005 -0.595642 -1.95738 0
M  V30 2632 H 240.015 0.728825 -4.01438 0
M  V30 2633 H 238.69 -0.416873 -4.13805 0
M  V30 2634 H 237.267 1.29825 -3.49571 0
M  V30 2635 N 239.452 1.56882 -0.150215 0
M  V30 2636 C 240.4 2.18214 0.805313 0
M  V30 2637 C 241.394 1.14006 1.25296 0
M  V30 2638 O 242.6 1.3225 1.22107 0
M  V30 2639 H 238.975 0.698762 0.277913 0
M  V30 2640 H 240.946 2.97231 0.263862 0
M  V30 2641 C 239.695 2.82065 2.03309 0
M  V30 2642 H 239.018 3.61968 1.69763 0
M  V30 2643 H 240.458 3.28477 2.68103 0
M  V30 2644 C 238.917 1.80739 2.84315 0
M  V30 2645 O 239.447 1.27983 3.80767 0
M  V30 2646 N 237.653 1.4997 2.48913 0
M  V30 2647 H 237.2 1.93062 1.70542 0
M  V30 2648 H 237.158 0.824217 3.03404 0
M  V30 2649 N 240.93 -0.123565 1.57115 0
M  V30 2650 C 241.877 -1.15177 2.00007 0
M  V30 2651 C 242.847 -1.41403 0.871454 0
M  V30 2652 O 244.032 -1.53346 1.13533 0
M  V30 2653 C 241.172 -2.47436 2.40561 0
M  V30 2654 C 240.285 -2.28184 3.66819 0
M  V30 2655 C 239.42 -3.53641 3.96373 0
M  V30 2656 C 238.459 -3.29528 5.15827 0
M  V30 2657 N 237.596 -4.47175 5.41275 0
M  V30 2658 H 242.436 -0.779008 2.87638 0
M  V30 2659 H 239.973 -0.373166 1.42288 0
M  V30 2660 H 241.931 -3.24584 2.62109 0
M  V30 2661 H 240.561 -2.82614 1.55978 0
M  V30 2662 H 239.613 -1.41976 3.52912 0
M  V30 2663 H 240.925 -2.0634 4.5412 0
M  V30 2664 H 240.079 -4.39209 4.18545 0
M  V30 2665 H 238.818 -3.78512 3.07538 0
M  V30 2666 H 237.823 -2.42349 4.93505 0
M  V30 2667 H 239.048 -3.06031 6.06236 0
M  V30 2668 H 236.994 -4.72175 4.55397 0
M  V30 2669 H 236.911 -4.28419 6.22891 0
M  V30 2670 H 238.179 -5.3389 5.67963 0
M  V30 2671 N 242.408 -1.52605 -0.393616 0
M  V30 2672 C 243.655 -1.67424 -1.1391 0
M  V30 2673 C 243.983 -0.411859 -1.90089 0
M  V30 2674 O 243.238 0.605626 -1.86093 0
M  V30 2675 C 243.537 -2.85721 -2.14705 0
M  V30 2676 C 243.203 -4.23342 -1.55218 0
M  V30 2677 C 241.865 -4.60771 -1.3872 0
M  V30 2678 C 244.217 -5.09041 -1.11924 0
M  V30 2679 C 241.545 -5.81563 -0.774689 0
M  V30 2680 C 243.897 -6.30452 -0.520853 0
M  V30 2681 C 242.561 -6.66617 -0.343134 0
M  V30 2682 H 241.831 -0.612648 -0.416826 0
M  V30 2683 H 244.478 -1.8674 -0.424315 0
M  V30 2684 H 242.783 -2.60803 -2.92385 0
M  V30 2685 H 244.48 -2.94382 -2.72288 0
M  V30 2686 H 241.07 -3.93855 -1.69045 0
M  V30 2687 H 245.254 -4.80695 -1.23473 0
M  V30 2688 H 240.51 -6.08196 -0.625154 0
M  V30 2689 H 244.684 -6.96175 -0.177065 0
M  V30 2690 H 242.311 -7.60083 0.133571 0
M  V30 2691 N 243.887 0.651787 -1.4349 0
M  V30 2692 C 244.819 1.77725 -1.44729 0
M  V30 2693 C 245.832 1.59141 -0.343231 0
M  V30 2694 O 247.021 1.67835 -0.607751 0
M  V30 2695 C 244.121 3.15172 -1.24579 0
M  V30 2696 C 243.294 3.60402 -2.47849 0
M  V30 2697 C 242.353 4.76656 -2.22902 0
M  V30 2698 O 241.379 4.86022 -2.96263 0
M  V30 2699 N 242.581 5.66958 -1.24656 0
M  V30 2700 H 245.346 1.77141 -2.41746 0
M  V30 2701 H 242.907 0.835678 -1.38665 0
M  V30 2702 H 244.899 3.90634 -1.0577 0
M  V30 2703 H 243.469 3.1052 -0.360015 0
M  V30 2704 H 242.689 2.75369 -2.82073 0
M  V30 2705 H 243.977 3.87368 -3.29884 0
M  V30 2706 H 243.375 5.62065 -0.640265 0
M  V30 2707 H 241.932 6.42135 -1.1183 0
M  V30 2708 N 245.365 1.30045 0.890287 0
M  V30 2709 C 246.776 1.16738 1.45702 0
M  V30 2710 C 247.127 -0.233939 1.948 0
M  V30 2711 O 246.252 -1.13021 1.84541 0
M  V30 2712 C 246.847 2.11313 2.64825 0
M  V30 2713 C 245.406 2.02001 3.17604 0
M  V30 2714 C 244.553 2.01699 1.90296 0
M  V30 2715 H 247.504 1.42392 0.700726 0
M  V30 2716 H 247.525 1.69086 3.40867 0
M  V30 2717 H 247.037 3.13294 2.2906 0
M  V30 2718 H 245.138 1.03142 3.5804 0
M  V30 2719 H 245.251 2.90128 3.81264 0
M  V30 2720 H 243.615 1.46427 2.08402 0
M  V30 2721 H 244.398 3.05402 1.56795 0
M  V30 2722 N 246.843 -1.10192 1.12674 0
M  V30 2723 C 248.091 -1.81845 0.881861 0
M  V30 2724 C 248.412 -1.85737 -0.593867 0
M  V30 2725 O 247.682 -1.33724 -1.4316 0
M  V30 2726 H 246.262 -0.673432 0.323261 0
M  V30 2727 H 248.924 -1.33316 1.42172 0
M  V30 2728 H 248.02 -2.85288 1.2656 0
M  V30 2729 N 248.321 -0.919034 -1.28029 0
M  V30 2730 C 249.268 -0.410005 -2.27129 0
M  V30 2731 C 250.238 0.518405 -1.57803 0
M  V30 2732 O 251.423 0.439451 -1.8567 0
M  V30 2733 C 248.563 0.339054 -3.4343 0
M  V30 2734 C 247.676 -0.622468 -4.27492 0
M  V30 2735 C 246.811 0.145567 -5.31001 0
M  V30 2736 C 245.85 -0.809226 -6.06727 0
M  V30 2737 N 244.987 -0.0743728 -7.02061 0
M  V30 2738 H 249.827 -1.26011 -2.70047 0
M  V30 2739 H 247.364 -0.632663 -1.328 0
M  V30 2740 H 249.322 0.789586 -4.0966 0
M  V30 2741 H 247.952 1.15346 -3.01488 0
M  V30 2742 H 247.004 -1.19153 -3.61257 0
M  V30 2743 H 248.316 -1.35252 -4.80113 0
M  V30 2744 H 247.47 0.656417 -6.03139 0
M  V30 2745 H 246.209 0.908643 -4.79161 0
M  V30 2746 H 245.214 -1.3314 -5.33436 0
M  V30 2747 H 246.439 -1.57194 -6.60656 0
M  V30 2748 H 244.385 0.670616 -6.52563 0
M  V30 2749 H 244.302 -0.744157 -7.52329 0
M  V30 2750 H 245.57 0.416109 -7.78389 0
M  V30 2751 N 249.799 1.42003 -0.683588 0
M  V30 2752 C 250.746 2.30798 -0.0107309 0
M  V30 2753 C 251.716 1.4645 0.783688 0
M  V30 2754 O 252.901 1.75263 0.754156 0
M  V30 2755 C 250.041 3.3238 0.928306 0
M  V30 2756 C 249.154 4.31814 0.126776 0
M  V30 2757 C 248.289 5.20468 1.06236 0
M  V30 2758 C 247.328 6.11577 0.253035 0
M  V30 2759 N 246.465 6.92754 1.14179 0
M  V30 2760 H 251.305 2.8778 -0.773727 0
M  V30 2761 H 248.842 1.41745 -0.393283 0
M  V30 2762 H 250.8 3.89813 1.48666 0
M  V30 2763 H 249.43 2.76976 1.65783 0
M  V30 2764 H 248.482 3.76427 -0.54833 0
M  V30 2765 H 249.794 4.96276 -0.501192 0
M  V30 2766 H 248.948 5.82677 1.69035 0
M  V30 2767 H 247.687 4.56204 1.7242 0
M  V30 2768 H 246.692 5.48428 -0.388108 0
M  V30 2769 H 247.917 6.77892 -0.404839 0
M  V30 2770 H 245.863 6.3111 1.78987 0
M  V30 2771 H 245.78 7.53855 0.569111 0
M  V30 2772 H 247.048 7.59441 1.75697 0
M  V30 2773 N 251.277 0.427512 1.51691 0
M  V30 2774 C 252.207 -0.3796 2.30394 0
M  V30 2775 C 253.188 -1.02982 1.35384 0
M  V30 2776 O 254.373 -1.03534 1.643 0
M  V30 2777 C 251.503 -1.48649 3.1388 0
M  V30 2778 C 250.457 -0.960294 4.17088 0
M  V30 2779 C 249.783 -2.16219 4.89033 0
M  V30 2780 C 251.083 -0.00153679 5.223 0
M  V30 2781 H 252.777 0.277164 2.98114 0
M  V30 2782 H 250.323 0.134739 1.43368 0
M  V30 2783 H 252.276 -2.05826 3.67714 0
M  V30 2784 H 251 -2.1714 2.43962 0
M  V30 2785 H 249.659 -0.410806 3.64291 0
M  V30 2786 H 249.307 -2.83307 4.15628 0
M  V30 2787 H 249.007 -1.81654 5.58816 0
M  V30 2788 H 250.531 -2.73968 5.45687 0
M  V30 2789 H 251.945 -0.482687 5.71264 0
M  V30 2790 H 250.342 0.256199 5.99553 0
M  V30 2791 H 251.412 0.938174 4.75738 0
M  V30 2792 N 252.755 -1.56801 0.158532 0
M  V30 2793 C 253.983 -2.00859 -0.496303 0
M  V30 2794 C 254.398 -1.03871 -1.57659 0
M  V30 2795 O 253.755 -0.0375165 -1.82461 0
M  V30 2796 C 253.806 -3.4479 -1.08638 0
M  V30 2797 O 253.527 -4.38072 -0.0492322 0
M  V30 2798 C 255.028 -4.04185 -1.8207 0
M  V30 2799 H 252.248 -0.65864 -0.128199 0
M  V30 2800 H 254.792 -2.02885 0.256506 0
M  V30 2801 H 252.947 -3.43579 -1.78975 0
M  V30 2802 H 253.361 -5.2227 -0.483102 0
M  V30 2803 H 254.835 -5.06857 -2.18633 0
M  V30 2804 H 255.312 -3.45549 -2.71095 0
M  V30 2805 H 255.918 -4.0906 -1.16405 0
M  V30 2806 N 254.233 0.115231 -1.57178 0
M  V30 2807 C 255.461 0.836437 -1.89239 0
M  V30 2808 C 255.876 1.73256 -0.750175 0
M  V30 2809 O 255.233 1.80357 0.278832 0
M  V30 2810 C 255.284 1.66671 -3.20785 0
M  V30 2811 O 255.005 0.806652 -4.3061 0
M  V30 2812 C 256.506 2.49274 -3.66575 0
M  V30 2813 H 253.726 0.240253 -0.626514 0
M  V30 2814 H 256.27 0.0984932 -2.04263 0
M  V30 2815 H 254.425 2.35737 -3.0742 0
M  V30 2816 H 254.839 1.37969 -5.06028 0
M  V30 2817 H 256.313 3.03055 -4.6137 0
M  V30 2818 H 256.79 3.26807 -2.93417 0
M  V30 2819 H 257.396 1.85443 -3.82741 0
M  V30 2820 N 255.711 1.52812 0.385517 0
M  V30 2821 C 256.936 1.72207 1.15583 0
M  V30 2822 C 257.361 0.441034 1.82857 0
M  V30 2823 O 256.719 -0.603465 1.70962 0
M  V30 2824 C 256.767 2.87476 2.17692 0
M  V30 2825 O 255.871 2.54693 3.24354 0
M  V30 2826 H 255.212 0.572526 0.336319 0
M  V30 2827 H 257.742 1.99618 0.448744 0
M  V30 2828 H 257.752 3.13072 2.6163 0
M  V30 2829 H 256.427 3.80408 1.68115 0
M  V30 2830 H 255.004 2.3985 2.85529 0
M  V30 2831 N 257.189 -0.644168 1.43834 0
M  V30 2832 C 258.429 -1.41565 1.47441 0
M  V30 2833 C 258.793 -1.91743 0.0992723 0
M  V30 2834 O 259.994 -2.68798 0.0100192 0
M  V30 2835 C 258.265 -2.55902 2.49498 0
M  V30 2836 S 259.824 -3.44287 2.72051 0
M  V30 2837 H 256.642 -0.483118 0.521649 0
M  V30 2838 H 259.244 -0.747008 1.80666 0
M  V30 2839 H 257.948 -2.17327 3.48134 0
M  V30 2840 H 257.479 -3.27607 2.17801 0
M  V30 2841 H 259.494 -4.52927 2.0266 0
M  V30 2842 N 258.668 -1.30515 -0.883378 0
M  V30 2843 C 259.916 -1.19194 -1.63209 0
M  V30 2844 C 260.237 0.253205 -1.93349 0
M  V30 2845 O 259.507 1.17025 -1.57105 0
M  V30 2846 H 258.087 -0.438148 -0.605009 0
M  V30 2847 H 260.749 -1.63663 -1.05832 0
M  V30 2848 H 259.845 -1.75396 -2.58153 0
M  V30 2849 N 260.146 1.09593 -1.13257 0
M  V30 2850 C 261.371 1.8604 -0.916732 0
M  V30 2851 C 261.796 1.80504 0.529146 0
M  V30 2852 O 261.154 1.18127 1.37534 0
M  V30 2853 C 261.202 3.32017 -1.40703 0
M  V30 2854 O 260.306 4.08141 -0.591153 0
M  V30 2855 H 259.647 0.576943 -0.328683 0
M  V30 2856 H 262.177 1.38405 -1.50682 0
M  V30 2857 H 262.187 3.82865 -1.4099 0
M  V30 2858 H 260.862 3.35361 -2.45979 0
M  V30 2859 H 259.439 3.67084 -0.656005 0
M  V30 2860 N 261.624 0.925811 1.2754 0
M  V30 2861 C 262.554 0.440748 2.29303 0
M  V30 2862 C 263.535 -0.497971 1.62648 0
M  V30 2863 O 264.72 -0.403126 1.8997 0
M  V30 2864 C 261.85 -0.309048 3.45922 0
M  V30 2865 C 260.804 0.54166 4.24559 0
M  V30 2866 C 260.13 -0.337191 5.33636 0
M  V30 2867 C 261.43 1.80516 4.90114 0
M  V30 2868 H 263.124 1.29121 2.70126 0
M  V30 2869 H 260.67 0.622323 1.29858 0
M  V30 2870 H 262.623 -0.659315 4.1621 0
M  V30 2871 H 261.347 -1.19352 3.04011 0
M  V30 2872 H 260.006 0.874609 3.56014 0
M  V30 2873 H 259.654 -1.22056 4.87966 0
M  V30 2874 H 259.354 0.228497 5.87156 0
M  V30 2875 H 260.878 -0.683072 6.06767 0
M  V30 2876 H 262.292 1.52307 5.52698 0
M  V30 2877 H 260.689 2.3142 5.53683 0
M  V30 2878 H 261.759 2.52581 4.13921 0
M  V30 2879 N 263.102 -1.41638 0.69111 0
M  V30 2880 C 264.065 -2.29178 0.0319786 0
M  V30 2881 C 265.065 -1.44153 -0.712496 0
M  V30 2882 O 266.255 -1.65354 -0.548053 0
M  V30 2883 C 263.387 -3.26952 -0.965161 0
M  V30 2884 H 264.58 -2.88959 0.802681 0
M  V30 2885 H 262.133 -1.4955 0.454356 0
M  V30 2886 H 262.868 -2.72142 -1.76378 0
M  V30 2887 H 262.653 -3.89685 -0.434522 0
M  V30 2888 H 264.143 -3.92561 -1.42428 0
M  V30 2889 N 264.58 -0.43555 -1.51462 0
M  V30 2890 C 265.81 0.130053 -2.0619 0
M  V30 2891 C 266.218 1.37164 -1.30317 0
M  V30 2892 O 265.561 1.80225 -0.355598 0
M  V30 2893 C 265.623 0.519418 -3.55728 0
M  V30 2894 C 265.287 -0.615119 -4.52841 0
M  V30 2895 C 266.284 -1.48671 -4.9819 0
M  V30 2896 C 263.969 -0.795341 -4.95963 0
M  V30 2897 C 265.963 -2.52324 -5.8533 0
M  V30 2898 C 263.65 -1.83514 -5.82894 0
M  V30 2899 C 264.648 -2.69748 -6.27475 0
M  V30 2900 O 264.336 -3.71944 -7.1268 0
M  V30 2901 H 264.068 0.0121612 -0.675891 0
M  V30 2902 H 266.622 -0.6129 -1.96043 0
M  V30 2903 H 264.852 1.31505 -3.63653 0
M  V30 2904 H 266.541 1.01597 -3.92979 0
M  V30 2905 H 267.307 -1.359 -4.65571 0
M  V30 2906 H 263.186 -0.133713 -4.60806 0
M  V30 2907 H 266.73 -3.19665 -6.20048 0
M  V30 2908 H 262.627 -1.96306 -6.14926 0
M  V30 2909 H 263.395 -3.68503 -7.30854 0
M  V30 2910 N 266.058 1.56714 -0.166846 0
M  V30 2911 C 267.283 2.01557 0.488833 0
M  V30 2912 C 267.708 1.0463 1.56314 0
M  V30 2913 O 267.066 0.0251304 1.81283 0
M  V30 2914 C 267.114 3.4503 1.04818 0
M  V30 2915 O 266.218 3.51163 2.16236 0
M  V30 2916 H 265.559 0.653516 0.117526 0
M  V30 2917 H 268.089 2.02818 -0.269421 0
M  V30 2918 H 268.099 3.84243 1.37191 0
M  V30 2919 H 266.774 4.15077 0.261572 0
M  V30 2920 H 265.351 3.23807 1.84942 0
M  V30 2921 N 267.536 -0.106894 1.57237 0
M  V30 2922 C 268.499 -1.11466 2.0027 0
M  V30 2923 C 269.499 -1.33623 0.894519 0
M  V30 2924 O 270.689 -1.29935 1.16028 0
M  V30 2925 C 267.821 -2.46646 2.35327 0
M  V30 2926 H 269.014 -0.744516 2.90512 0
M  V30 2927 H 266.567 -0.351576 1.52295 0
M  V30 2928 H 267.302 -2.88558 1.48003 0
M  V30 2929 H 267.087 -2.31915 3.16161 0
M  V30 2930 H 268.577 -3.19151 2.69318 0
M  V30 2931 N 269.014 -1.53014 -0.377408 0
M  V30 2932 C 270.425 -1.60438 -0.954798 0
M  V30 2933 C 270.776 -0.464418 -1.90624 0
M  V30 2934 O 269.901 0.41087 -2.12464 0
M  V30 2935 C 270.496 -2.90797 -1.73847 0
M  V30 2936 C 269.055 -3.00595 -2.26538 0
M  V30 2937 C 268.202 -2.55645 -1.07429 0
M  V30 2938 H 271.153 -1.57926 -0.156575 0
M  V30 2939 H 271.174 -2.77935 -2.5987 0
M  V30 2940 H 270.686 -3.73746 -1.04574 0
M  V30 2941 H 268.787 -2.22208 -2.99089 0
M  V30 2942 H 268.9 -4.05456 -2.5523 0
M  V30 2943 H 267.264 -2.10239 -1.43777 0
M  V30 2944 H 268.047 -3.41 -0.396728 0
M  V30 2945 N 270.492 0.636531 -1.44174 0
M  V30 2946 C 271.402 1.77754 -1.53103 0
M  V30 2947 C 272.418 1.68928 -0.417034 0
M  V30 2948 O 273.594 1.89801 -0.6736 0
M  V30 2949 C 270.659 3.14115 -1.46741 0
M  V30 2950 C 269.72 3.34612 -2.68948 0
M  V30 2951 C 268.953 4.64467 -2.6288 0
M  V30 2952 O 269.176 5.44919 -1.68581 0
M  V30 2953 O 268.11 4.87049 -3.53648 0
M  V30 2954 H 271.936 1.73174 -2.49489 0
M  V30 2955 H 269.521 0.79709 -1.2636 0
M  V30 2956 H 271.403 3.95412 -1.45696 0
M  V30 2957 H 270.078 3.19249 -0.534975 0
M  V30 2958 H 268.985 2.53014 -2.75562 0
M  V30 2959 H 270.318 3.34336 -3.61221 0
M  V30 2960 N 271.97 1.30982 0.876444 0
M  V30 2961 C 273.219 1.19658 1.62373 0
M  V30 2962 C 273.532 -0.245636 1.94052 0
M  V30 2963 O 274.738 -0.48049 2.67214 0
M  V30 2964 C 273.194 2.09433 2.92687 0
M  V30 2965 C 272.802 3.58613 2.68516 0
M  V30 2966 C 274.546 2.06893 3.70669 0
M  V30 2967 C 272.453 4.40416 3.94699 0
M  V30 2968 H 271.383 0.444268 0.609214 0
M  V30 2969 H 274.034 1.55791 0.969605 0
M  V30 2970 H 272.416 1.66191 3.59439 0
M  V30 2971 H 273.59 4.10058 2.10212 0
M  V30 2972 H 271.905 3.63063 2.03898 0
M  V30 2973 H 274.502 2.65258 4.64265 0
M  V30 2974 H 274.845 1.05448 4.02724 0
M  V30 2975 H 275.378 2.48301 3.10792 0
M  V30 2976 H 272.117 5.42591 3.67798 0
M  V30 2977 H 271.637 3.93731 4.52477 0
M  V30 2978 H 273.316 4.52294 4.62644 0
M  V30 2979 N 273.449 -1.08991 1.13837 0
M  V30 2980 C 274.379 -2.17771 0.842507 0
M  V30 2981 C 275.36 -1.6892 -0.20001 0
M  V30 2982 O 276.545 -1.94113 -0.0579731 0
M  V30 2983 C 273.675 -3.4589 0.312644 0
M  V30 2984 C 272.629 -4.08099 1.28992 0
M  V30 2985 C 271.955 -5.31098 0.619623 0
M  V30 2986 C 273.255 -4.50077 2.65005 0
M  V30 2987 H 274.949 -2.42777 1.75213 0
M  V30 2988 H 272.495 -1.16682 0.843875 0
M  V30 2989 H 274.448 -4.21297 0.0933043 0
M  V30 2990 H 273.172 -3.20419 -0.632382 0
M  V30 2991 H 271.831 -3.34717 1.49533 0
M  V30 2992 H 271.479 -5.0191 -0.33102 0
M  V30 2993 H 271.179 -5.73674 1.27167 0
M  V30 2994 H 272.703 -6.09224 0.409669 0
M  V30 2995 H 274.117 -5.16688 2.48407 0
M  V30 2996 H 272.514 -5.03553 3.26427 0
M  V30 2997 H 273.584 -3.62257 3.22332 0
M  V30 2998 N 274.927 -0.932562 -1.27047 0
M  V30 2999 C 275.857 -0.452902 -2.29066 0
M  V30 3000 C 276.838 0.489338 -1.62909 0
M  V30 3001 O 278.023 0.393046 -1.90181 0
M  V30 3002 C 275.153 0.290698 -3.46081 0
M  V30 3003 C 274.107 -0.564168 -4.24265 0
M  V30 3004 C 273.433 0.308886 -5.33807 0
M  V30 3005 C 274.733 -1.83112 -4.89149 0
M  V30 3006 H 276.427 -1.30552 -2.69437 0
M  V30 3007 H 273.973 -0.629201 -1.29526 0
M  V30 3008 H 275.926 0.637233 -4.16554 0
M  V30 3009 H 274.65 1.17738 -3.0464 0
M  V30 3010 H 273.309 -0.893477 -3.55545 0
M  V30 3011 H 272.957 1.19467 -4.88607 0
M  V30 3012 H 272.657 -0.259633 -5.87026 0
M  V30 3013 H 274.181 0.650884 -6.07121 0
M  V30 3014 H 275.595 -1.55236 -5.51883 0
M  V30 3015 H 273.992 -2.34353 -5.52448 0
M  V30 3016 H 275.062 -2.54772 -4.12576 0
M  V30 3017 N 276.405 1.4127 -0.698611 0
M  V30 3018 C 277.653 2.00782 -0.230409 0
M  V30 3019 C 277.974 1.5562 1.17505 0
M  V30 3020 O 277.244 0.78815 1.79346 0
M  V30 3021 H 275.824 0.742464 -0.0821944 0
M  V30 3022 H 278.486 1.72852 -0.90045 0
M  V30 3023 H 277.582 3.11095 -0.25021 0
M  V30 3024 N 277.883 0.443576 1.51229 0
M  V30 3025 C 279.16 -0.181038 1.9476 0
M  V30 3026 C 279.54 -1.59523 1.38259 0
M  V30 3027 O 278.888 -2.2122 0.572198 0
M  V30 3028 C 279.098 -0.152422 3.48667 0
M  V30 3029 C 280.446 -0.354923 4.23114 0
M  V30 3030 O 281.47 -0.230257 3.55455 0
M  V30 3031 O 280.329 -0.603674 5.43156 0
M  V30 3032 H 277.423 -0.1266 0.817252 0
M  V30 3033 H 279.969 0.502004 1.62105 0
M  V30 3034 H 278.741 0.836022 3.82265 0
M  V30 3035 H 278.364 -0.878107 3.87782 0
M  V30 3036 N 279.361 -1.56624 0.175154 0
M  V30 3037 C 280.271 -2.21741 -0.766042 0
M  V30 3038 C 281.287 -1.21023 -1.25018 0
M  V30 3039 O 282.463 -1.53697 -1.3015 0
M  V30 3040 C 279.528 -2.84839 -1.97655 0
M  V30 3041 C 278.589 -4.00769 -1.53892 0
M  V30 3042 C 277.822 -4.60849 -2.69173 0
M  V30 3043 O 278.045 -4.19823 -3.86141 0
M  V30 3044 O 276.979 -5.50655 -2.43028 0
M  V30 3045 H 280.805 -3.02738 -0.241585 0
M  V30 3046 H 278.39 -1.49305 -0.053222 0
M  V30 3047 H 280.272 -3.24834 -2.68442 0
M  V30 3048 H 278.947 -2.06836 -2.48999 0
M  V30 3049 H 277.854 -3.65436 -0.80044 0
M  V30 3050 H 279.187 -4.80376 -1.07236 0
M  V30 3051 N 280.839 0.0985539 -1.57292 0
M  V30 3052 C 282.069 0.815135 -1.8984 0
M  V30 3053 C 282.477 1.7297 -0.766679 0
M  V30 3054 O 281.82 1.81698 0.270483 0
M  V30 3055 C 281.882 1.6842 -3.17608 0
M  V30 3056 C 281.546 0.94182 -4.4719 0
M  V30 3057 C 282.543 0.273212 -5.19182 0
M  V30 3058 C 280.228 0.916927 -4.9386 0
M  V30 3059 C 282.222 -0.410361 -6.36078 0
M  V30 3060 C 279.909 0.229567 -6.10669 0
M  V30 3061 C 280.907 -0.432902 -6.81627 0
M  V30 3062 O 280.595 -1.10925 -7.9621 0
M  V30 3063 H 280.327 0.238501 -0.632529 0
M  V30 3064 H 282.881 0.0812659 -2.05239 0
M  V30 3065 H 281.111 2.46022 -2.98345 0
M  V30 3066 H 282.8 2.27704 -3.36015 0
M  V30 3067 H 283.566 0.283927 -4.84168 0
M  V30 3068 H 279.445 1.42201 -4.3852 0
M  V30 3069 H 282.989 -0.928013 -6.914 0
M  V30 3070 H 278.886 0.216686 -6.45136 0
M  V30 3071 H 279.654 -1.01579 -8.12172 0
M  V30 3072 N 282.317 1.53212 0.369288 0
M  V30 3073 C 283.594 1.59815 1.12776 0
M  V30 3074 C 283.974 0.403402 2.0721 0
M  V30 3075 O 283.322 -0.606667 2.20299 0
M  V30 3076 C 283.532 2.94664 1.87013 0
M  V30 3077 C 284.88 3.49109 2.41677 0
M  V30 3078 O 285.904 2.96669 1.97144 0
M  V30 3079 O 284.763 4.40775 3.23079 0
M  V30 3080 H 281.857 0.645376 0.517125 0
M  V30 3081 H 284.403 1.65553 0.37285 0
M  V30 3082 H 283.175 3.73061 1.18071 0
M  V30 3083 H 282.798 2.92401 2.69421 0
M  V30 3084 N 283.795 -0.628877 1.44509 0
M  V30 3085 C 284.758 -1.72263 1.51188 0
M  V30 3086 C 285.758 -1.55907 0.39367 0
M  V30 3087 O 286.948 -1.61361 0.656377 0
M  V30 3088 C 284.08 -3.11365 1.38798 0
M  V30 3089 H 285.273 -1.67714 2.4862 0
M  V30 3090 H 282.826 -0.842737 1.31634 0
M  V30 3091 H 283.561 -3.21507 0.424693 0
M  V30 3092 H 283.346 -3.24644 2.19884 0
M  V30 3093 H 284.836 -3.91075 1.46458 0
M  V30 3094 N 285.273 -1.31445 -0.869486 0
M  V30 3095 C 286.684 -1.19042 -1.43826 0
M  V30 3096 C 287.035 0.202919 -1.95148 0
M  V30 3097 O 286.16 1.10071 -1.86315 0
M  V30 3098 C 286.755 -2.15499 -2.6143 0
M  V30 3099 C 285.314 -2.07028 -3.14351 0
M  V30 3100 C 284.461 -2.04701 -1.87063 0
M  V30 3101 H 287.412 -1.43489 -0.677984 0
M  V30 3102 H 287.433 -1.74488 -3.38134 0
M  V30 3103 H 286.945 -3.16899 -2.24046 0
M  V30 3104 H 285.046 -1.08825 -3.56354 0
M  V30 3105 H 285.159 -2.96157 -3.766 0
M  V30 3106 H 283.523 -1.49724 -2.06046 0
M  V30 3107 H 284.306 -3.07857 -1.51917 0
M  V30 3108 N 286.751 1.08385 -1.14413 0
M  V30 3109 C 287.714 2.13486 -0.834048 0
M  V30 3110 C 288.714 1.59988 0.161418 0
M  V30 3111 O 289.904 1.74071 -0.0669575 0
M  V30 3112 C 287.036 3.4003 -0.243354 0
M  V30 3113 H 288.229 2.42425 -1.7655 0
M  V30 3114 H 285.782 1.24101 -0.950189 0
M  V30 3115 H 286.517 3.16726 0.696807 0
M  V30 3116 H 286.302 3.80157 -0.960367 0
M  V30 3117 H 287.792 4.17577 -0.0436242 0
M  V30 3118 N 288.23 0.939286 1.26551 0
M  V30 3119 C 289.476 0.586715 1.94128 0
M  V30 3120 C 289.809 -0.8717 1.73537 0
M  V30 3121 O 289.084 -1.62339 1.07127 0
M  V30 3122 C 289.367 0.927497 3.4795 0
M  V30 3123 C 289.22 2.44052 3.77834 0
M  V30 3124 C 290.539 0.441569 4.37879 0
M  V30 3125 H 287.658 0.21463 0.705055 0
M  V30 3126 H 290.3 1.17316 1.49455 0
M  V30 3127 H 288.45 0.428431 3.8613 0
M  V30 3128 H 290.122 3.01216 3.4938 0
M  V30 3129 H 288.365 2.8848 3.23978 0
M  V30 3130 H 289.036 2.62947 4.85348 0
M  V30 3131 H 291.512 0.869448 4.06915 0
M  V30 3132 H 290.388 0.708856 5.44304 0
M  V30 3133 H 290.649 -0.658467 4.37169 0
M  V30 3134 N 289.708 -1.40897 0.706093 0
M  V30 3135 C 290.985 -1.94868 0.169099 0
M  V30 3136 C 291.365 -1.64485 -1.32318 0
M  V30 3137 O 290.713 -0.95744 -2.07474 0
M  V30 3138 C 290.923 -3.45798 0.471654 0
M  V30 3139 C 292.271 -4.22663 0.405127 0
M  V30 3140 O 293.295 -3.53865 0.407168 0
M  V30 3141 O 292.154 -5.45216 0.374383 0
M  V30 3142 H 289.248 -0.82673 0.0211352 0
M  V30 3143 H 291.794 -1.50558 0.782976 0
M  V30 3144 H 290.566 -3.61235 1.50416 0
M  V30 3145 H 290.189 -3.97225 -0.172666 0
M  V30 3146 N 291.186 -0.45159 -1.50991 0
M  V30 3147 C 292.435 0.111653 -2.01391 0
M  V30 3148 C 292.748 1.42529 -1.33959 0
M  V30 3149 O 293.954 2.07232 -1.75405 0
M  V30 3150 C 292.41 0.249514 -3.59034 0
M  V30 3151 C 292.018 -1.05453 -4.35412 0
M  V30 3152 C 293.762 0.765762 -4.17536 0
M  V30 3153 C 291.669 -0.881529 -5.84793 0
M  V30 3154 H 290.599 0.0455022 -0.752626 0
M  V30 3155 H 293.25 -0.583524 -1.73975 0
M  V30 3156 H 291.632 1.00803 -3.82955 0
M  V30 3157 H 292.806 -1.82248 -4.23229 0
M  V30 3158 H 291.121 -1.50039 -3.88429 0
M  V30 3159 H 293.718 0.911913 -5.26866 0
M  V30 3160 H 294.061 1.75201 -3.77638 0
M  V30 3161 H 294.594 0.0651744 -3.97747 0
M  V30 3162 H 291.333 -1.84057 -6.29129 0
M  V30 3163 H 290.853 -0.153625 -5.99603 0
M  V30 3164 H 292.532 -0.540363 -6.4474 0
M  V30 3165 N 292.664 1.56529 -0.183458 0
M  V30 3166 C 293.91 1.98304 0.452466 0
M  V30 3167 C 294.265 1.06799 1.60037 0
M  V30 3168 O 293.558 0.110049 1.91284 0
M  V30 3169 C 293.752 3.43939 0.971637 0
M  V30 3170 C 293.581 4.49528 -0.124425 0
M  V30 3171 C 292.351 5.01981 -0.578168 0
M  V30 3172 C 294.549 5.05836 -0.929207 0
M  V30 3173 N 292.531 5.91219 -1.65327 0
M  V30 3174 C 293.902 5.91632 -1.85396 0
M  V30 3175 C 295.957 4.88302 -0.972929 0
M  V30 3176 C 294.66 6.61768 -2.81878 0
M  V30 3177 C 296.686 5.59168 -1.92574 0
M  V30 3178 C 296.048 6.44701 -2.83795 0
M  V30 3179 H 292.147 0.770551 0.133324 0
M  V30 3180 H 294.731 1.92581 -0.286473 0
M  V30 3181 H 292.902 3.50184 1.68006 0
M  V30 3182 H 294.634 3.72702 1.5772 0
M  V30 3183 H 291.389 4.73282 -0.173639 0
M  V30 3184 H 291.813 6.40543 -2.19167 0
M  V30 3185 H 296.455 4.21861 -0.28168 0
M  V30 3186 H 294.173 7.27415 -3.51984 0
M  V30 3187 H 297.759 5.47582 -1.96583 0
M  V30 3188 H 296.639 6.98573 -3.56322 0
M  V30 3189 N 294.142 -0.090211 1.57342 0
M  V30 3190 C 295.367 -0.810082 1.90925 0
M  V30 3191 C 295.792 -1.71248 0.778187 0
M  V30 3192 O 295.15 -1.79278 -0.269991 0
M  V30 3193 C 295.198 -1.59529 3.23393 0
M  V30 3194 O 294.302 -2.70461 3.11327 0
M  V30 3195 H 293.643 -0.222231 0.625707 0
M  V30 3196 H 296.173 -0.0639716 2.045 0
M  V30 3197 H 296.183 -1.97847 3.5682 0
M  V30 3198 H 294.858 -0.933055 4.05299 0
M  V30 3199 H 293.435 -2.35135 2.89423 0
M  V30 3200 N 295.62 -1.53406 -0.361157 0
M  V30 3201 C 296.55 -1.83136 -1.44857 0
M  V30 3202 C 297.531 -0.685174 -1.5569 0
M  V30 3203 O 298.716 -0.93544 -1.70186 0
M  V30 3204 C 295.846 -2.02522 -2.82138 0
M  V30 3205 C 294.8 -3.18302 -2.86126 0
M  V30 3206 C 294.126 -3.22989 -4.26125 0
M  V30 3207 C 295.426 -4.56796 -2.53248 0
M  V30 3208 H 297.12 -2.74201 -1.20226 0
M  V30 3209 H 294.666 -1.31938 -0.576922 0
M  V30 3210 H 296.619 -2.21904 -3.58241 0
M  V30 3211 H 295.343 -1.08172 -3.08166 0
M  V30 3212 H 294.002 -2.98747 -2.12475 0
M  V30 3213 H 293.65 -2.26267 -4.49235 0
M  V30 3214 H 293.35 -4.00781 -4.29708 0
M  V30 3215 H 294.874 -3.44559 -5.04094 0
M  V30 3216 H 296.288 -4.7631 -3.19064 0
M  V30 3217 H 294.685 -5.36862 -2.68141 0
M  V30 3218 H 295.755 -4.61606 -1.48484 0
M  V30 3219 N 297.098 0.621204 -1.44841 0
M  V30 3220 C 298.346 1.37783 -1.47852 0
M  V30 3221 C 298.667 1.94653 -0.116224 0
M  V30 3222 O 297.937 1.76367 0.852737 0
M  V30 3223 H 296.517 0.511453 -0.544449 0
M  V30 3224 H 299.179 0.730446 -1.80694 0
M  V30 3225 H 298.275 2.20414 -2.20961 0
M  V30 3226 N 298.576 1.31904 0.862503 0
M  V30 3227 C 299.822 1.22197 1.61851 0
M  V30 3228 C 300.155 -0.217641 1.92977 0
M  V30 3229 O 299.43 -1.15264 1.56666 0
M  V30 3230 C 299.713 2.07378 2.94391 0
M  V30 3231 C 299.566 3.59678 2.70096 0
M  V30 3232 C 300.885 1.92891 3.95577 0
M  V30 3233 H 298.004 0.445255 0.587296 0
M  V30 3234 H 300.646 1.6177 0.99651 0
M  V30 3235 H 298.796 1.73758 3.47477 0
M  V30 3236 H 300.468 4.03472 2.23625 0
M  V30 3237 H 298.711 3.82735 2.04197 0
M  V30 3238 H 299.382 4.14595 3.64438 0
M  V30 3239 H 301.858 2.22327 3.51724 0
M  V30 3240 H 300.734 2.54781 4.86187 0
M  V30 3241 H 300.995 0.894315 4.3296 0
M  V30 3242 N 300.054 -1.07777 1.14986 0
M  V30 3243 C 301.303 -1.79669 0.916617 0
M  V30 3244 C 301.616 -1.87474 -0.557917 0
M  V30 3245 O 302.822 -2.55845 -0.908617 0
M  V30 3246 C 301.278 -3.22848 1.59051 0
M  V30 3247 C 300.886 -3.23257 3.10176 0
M  V30 3248 C 302.63 -3.99379 1.43864 0
M  V30 3249 C 300.537 -4.61063 3.70372 0
M  V30 3250 H 299.467 -0.673349 0.33929 0
M  V30 3251 H 302.118 -1.21003 1.37951 0
M  V30 3252 H 300.5 -3.8168 1.0553 0
M  V30 3253 H 301.674 -2.74095 3.70417 0
M  V30 3254 H 299.989 -2.60222 3.25074 0
M  V30 3255 H 302.586 -5.0122 1.86232 0
M  V30 3256 H 302.929 -4.14511 0.385564 0
M  V30 3257 H 303.462 -3.47032 1.94457 0
M  V30 3258 H 300.201 -4.51135 4.7556 0
M  V30 3259 H 299.721 -5.1048 3.14913 0
M  V30 3260 H 301.4 -5.30034 3.71043 0
M  V30 3261 N 301.532 -0.945985 -1.26051 0
M  V30 3262 C 302.462 -0.477172 -2.28572 0
M  V30 3263 C 303.443 0.472032 -1.63419 0
M  V30 3264 O 304.628 0.372853 -1.90587 0
M  V30 3265 C 301.758 0.253975 -3.4637 0
M  V30 3266 C 300.712 -0.609135 -4.23643 0
M  V30 3267 C 300.038 0.252252 -5.34105 0
M  V30 3268 C 301.338 -1.8829 -4.8718 0
M  V30 3269 H 303.032 -1.33402 -2.68038 0
M  V30 3270 H 300.578 -0.642904 -1.28852 0
M  V30 3271 H 302.531 0.593016 -4.17207 0
M  V30 3272 H 301.255 1.145 -3.05871 0
M  V30 3273 H 299.914 -0.931138 -3.54578 0
M  V30 3274 H 299.562 1.14278 -4.89846 0
M  V30 3275 H 299.262 -0.32188 -5.86718 0
M  V30 3276 H 300.786 0.586454 -6.07777 0
M  V30 3277 H 302.2 -1.61081 -5.50205 0
M  V30 3278 H 300.597 -2.40199 -5.49931 0
M  V30 3279 H 301.667 -2.59134 -4.09851 0
M  V30 3280 N 303.011 1.40521 -0.713556 0
M  V30 3281 C 304.258 2.00923 -0.25219 0
M  V30 3282 C 304.586 1.56571 1.15395 0
M  V30 3283 O 303.841 0.775874 1.79663 0
M  V30 3284 C 304.14 3.56317 -0.278 0
M  V30 3285 C 303.806 4.20246 -1.63415 0
M  V30 3286 C 302.468 4.37422 -2.00538 0
M  V30 3287 C 304.82 4.55923 -2.52554 0
M  V30 3288 C 302.148 4.87558 -3.2635 0
M  V30 3289 C 304.5 5.07458 -3.77716 0
M  V30 3290 C 303.164 5.22843 -4.14959 0
M  V30 3291 H 302.434 0.735231 -0.0922829 0
M  V30 3292 H 305.081 1.68161 -0.916188 0
M  V30 3293 H 303.386 3.88976 0.469567 0
M  V30 3294 H 305.083 4.00883 0.0967819 0
M  V30 3295 H 301.673 4.07263 -1.33546 0
M  V30 3296 H 305.857 4.42291 -2.25149 0
M  V30 3297 H 301.113 4.97654 -3.55176 0
M  V30 3298 H 305.287 5.34041 -4.4696 0
M  V30 3299 H 302.914 5.61454 -5.12516 0
M  V30 3300 N 304.489 0.459591 1.5075 0
M  V30 3301 C 305.422 -0.386257 2.24907 0
M  V30 3302 C 306.4 -1.006 1.27744 0
M  V30 3303 O 307.584 -1.04416 1.56938 0
M  V30 3304 C 304.711 -1.54021 3.01654 0
M  V30 3305 C 303.757 -1.03898 4.13651 0
M  V30 3306 S 304.59 0.0370501 5.35487 0
M  V30 3307 C 305.746 -1.12105 6.15779 0
M  V30 3308 H 305.979 0.243272 2.96303 0
M  V30 3309 H 303.512 0.244339 1.52454 0
M  V30 3310 H 305.47 -2.20163 3.46466 0
M  V30 3311 H 304.131 -2.14121 2.29806 0
M  V30 3312 H 303.324 -1.90254 4.66711 0
M  V30 3313 H 302.926 -0.45545 3.71216 0
M  V30 3314 H 305.218 -2.03501 6.46215 0
M  V30 3315 H 306.161 -0.62995 7.05292 0
M  V30 3316 H 306.569 -1.36967 5.47631 0
M  V30 3317 N 305.967 -1.56429 0.191757 0
M  V30 3318 C 306.897 -2.21937 -0.725696 0
M  V30 3319 C 307.878 -1.1814 -1.2238 0
M  V30 3320 O 309.063 -1.46636 -1.27325 0
M  V30 3321 C 306.193 -2.87611 -1.94672 0
M  V30 3322 C 305.147 -3.97623 -1.58366 0
M  V30 3323 C 304.473 -4.50446 -2.88102 0
M  V30 3324 C 305.773 -5.16197 -0.796133 0
M  V30 3325 H 307.467 -2.98861 -0.179606 0
M  V30 3326 H 305.013 -1.43749 -0.0849464 0
M  V30 3327 H 306.966 -3.3212 -2.59373 0
M  V30 3328 H 305.69 -2.08087 -2.51728 0
M  V30 3329 H 304.349 -3.53801 -0.960247 0
M  V30 3330 H 303.997 -3.67688 -3.43241 0
M  V30 3331 H 303.697 -5.24675 -2.64556 0
M  V30 3332 H 305.221 -4.97654 -3.53798 0
M  V30 3333 H 306.635 -5.57271 -1.34618 0
M  V30 3334 H 305.032 -5.96471 -0.658928 0
M  V30 3335 H 306.102 -4.84473 0.203478 0
M  V30 3336 N 307.445 0.0818655 -1.57387 0
M  V30 3337 C 308.691 0.784074 -1.8703 0
M  V30 3338 C 309.024 1.77729 -0.782689 0
M  V30 3339 O 308.299 1.93384 0.208051 0
M  V30 3340 C 308.582 1.50105 -3.27323 0
M  V30 3341 C 308.435 0.524925 -4.46727 0
M  V30 3342 C 309.754 2.44843 -3.65705 0
M  V30 3343 H 306.873 0.283582 -0.680257 0
M  V30 3344 H 309.515 0.0474352 -1.89941 0
M  V30 3345 H 307.665 2.12897 -3.24972 0
M  V30 3346 H 309.337 -0.0970111 -4.61198 0
M  V30 3347 H 307.58 -0.160606 -4.33503 0
M  V30 3348 H 308.251 1.064 -5.41648 0
M  V30 3349 H 310.727 1.92135 -3.69085 0
M  V30 3350 H 309.603 2.92018 -4.64776 0
M  V30 3351 H 309.864 3.29197 -2.95096 0
M  V30 3352 N 308.923 1.53595 0.353017 0
M  V30 3353 C 310.163 1.72094 1.10286 0
M  V30 3354 C 310.527 0.469217 1.86178 0
M  V30 3355 O 311.728 0.531083 2.63501 0
M  V30 3356 C 309.999 2.94386 2.02661 0
M  V30 3357 S 311.558 3.33651 2.84996 0
M  V30 3358 H 308.376 0.605433 0.372789 0
M  V30 3359 H 310.978 1.91722 0.38248 0
M  V30 3360 H 309.682 3.83669 1.45691 0
M  V30 3361 H 309.213 2.77197 2.79152 0
M  V30 3362 H 311.228 2.86645 4.0503 0
M  V30 3363 N 310.401 -0.613514 1.45168 0
M  V30 3364 C 311.649 -1.36997 1.48581 0
M  V30 3365 C 311.97 -1.94589 0.126545 0
M  V30 3366 O 311.24 -1.76816 -0.843372 0
M  V30 3367 H 309.82 -0.508558 0.547154 0
M  V30 3368 H 312.482 -0.720853 1.81079 0
M  V30 3369 H 311.578 -2.1924 2.22127 0
M  V30 3370 N 311.879 -1.3236 -0.855495 0
M  V30 3371 C 312.811 -1.17052 -1.97057 0
M  V30 3372 C 313.824 -0.10574 -1.62456 0
M  V30 3373 O 315.013 -0.354619 -1.74942 0
M  V30 3374 C 312.113 -0.769305 -3.30053 0
M  V30 3375 C 311.286 -1.9222 -3.929 0
M  V30 3376 C 310.345 -1.50466 -5.04228 0
M  V30 3377 O 309.371 -2.21655 -5.24269 0
M  V30 3378 N 310.573 -0.400209 -5.79119 0
M  V30 3379 H 313.338 -2.13103 -2.1073 0
M  V30 3380 H 310.899 -1.24885 -1.0303 0
M  V30 3381 H 312.891 -0.472407 -4.01933 0
M  V30 3382 H 311.461 0.100025 -3.1244 0
M  V30 3383 H 310.681 -2.38563 -3.13817 0
M  V30 3384 H 311.969 -2.69403 -4.31624 0
M  V30 3385 H 311.367 0.192319 -5.65373 0
M  V30 3386 H 309.924 -0.162912 -6.51596 0
M  V30 3387 N 313.357 1.07166 -1.15556 0
M  V30 3388 C 314.768 1.6127 -0.940693 0
M  V30 3389 C 315.119 1.89251 0.517551 0
M  V30 3390 O 314.244 1.65937 1.38903 0
M  V30 3391 C 314.839 2.92993 -1.7012 0
M  V30 3392 C 313.398 3.43832 -1.53156 0
M  V30 3393 C 312.545 2.1786 -1.71558 0
M  V30 3394 H 315.496 0.90229 -1.30554 0
M  V30 3395 H 315.517 3.62007 -1.17181 0
M  V30 3396 H 315.029 2.72596 -2.76248 0
M  V30 3397 H 313.13 3.69307 -0.494294 0
M  V30 3398 H 313.243 4.19747 -2.30975 0
M  V30 3399 H 311.607 2.2765 -1.14225 0
M  V30 3400 H 312.39 1.99956 -2.79056 0
M  V30 3401 N 314.835 0.952656 1.25548 0
M  V30 3402 C 316.246 0.647392 1.75116 0
M  V30 3403 C 316.597 -0.837274 1.77438 0
M  V30 3404 O 315.722 -1.65525 1.39393 0
M  V30 3405 C 316.317 1.16845 3.18014 0
M  V30 3406 C 314.876 0.913382 3.6515 0
M  V30 3407 C 314.023 1.31265 2.44264 0
M  V30 3408 H 316.974 1.12968 1.11462 0
M  V30 3409 H 316.995 0.527606 3.76824 0
M  V30 3410 H 316.507 2.24902 3.16292 0
M  V30 3411 H 314.608 -0.152316 3.72289 0
M  V30 3412 H 314.721 1.54845 4.53387 0
M  V30 3413 H 313.085 0.731028 2.43984 0
M  V30 3414 H 313.868 2.40239 2.45234 0
M  V30 3415 N 316.313 -1.40141 0.720998 0
M  V30 3416 C 317.56 -2.00787 0.262842 0
M  V30 3417 C 317.888 -1.5718 -1.14563 0
M  V30 3418 O 317.143 -0.785391 -1.79249 0
M  V30 3419 C 317.442 -3.56165 0.296892 0
M  V30 3420 C 317.108 -4.19373 1.65641 0
M  V30 3421 C 315.77 -4.36352 2.02855 0
M  V30 3422 C 318.122 -4.54578 2.54968 0
M  V30 3423 C 315.45 -4.8582 3.28931 0
M  V30 3424 C 317.802 -5.05447 3.80402 0
M  V30 3425 C 316.466 -5.20635 4.17726 0
M  V30 3426 H 315.736 -0.734731 0.0961807 0
M  V30 3427 H 318.383 -1.67673 0.925093 0
M  V30 3428 H 316.688 -3.8922 -0.448932 0
M  V30 3429 H 318.385 -4.00929 -0.0755208 0
M  V30 3430 H 314.975 -4.06549 1.35704 0
M  V30 3431 H 319.159 -4.41091 2.27491 0
M  V30 3432 H 314.415 -4.95764 3.57811 0
M  V30 3433 H 318.589 -5.31663 4.49786 0
M  V30 3434 H 316.216 -5.58728 5.15487 0
M  V30 3435 N 317.792 -0.46758 -1.50504 0
M  V30 3436 C 318.724 0.364655 -2.26281 0
M  V30 3437 C 319.737 0.960151 -1.31472 0
M  V30 3438 O 320.926 0.849153 -1.57008 0
M  V30 3439 C 318.026 1.52509 -3.02645 0
M  V30 3440 C 317.199 1.04302 -4.24782 0
M  V30 3441 C 316.258 2.07709 -4.8347 0
M  V30 3442 O 315.284 1.65913 -5.44483 0
M  V30 3443 N 316.486 3.40485 -4.70159 0
M  V30 3444 H 319.251 -0.28495 -2.98342 0
M  V30 3445 H 316.812 -0.298163 -1.59131 0
M  V30 3446 H 318.804 2.21371 -3.38787 0
M  V30 3447 H 317.374 2.07945 -2.33404 0
M  V30 3448 H 316.594 0.180393 -3.93787 0
M  V30 3449 H 317.882 0.698798 -5.03978 0
M  V30 3450 H 317.28 3.77155 -4.21629 0
M  V30 3451 H 315.837 4.05156 -5.1058 0
M  V30 3452 N 319.27 1.56325 -0.20005 0
M  V30 3453 C 320.18 2.22931 0.730668 0
M  V30 3454 C 321.196 1.22997 1.23076 0
M  V30 3455 O 322.372 1.55748 1.27689 0
M  V30 3456 C 319.437 2.87948 1.93098 0
M  V30 3457 C 318.498 4.03166 1.47497 0
M  V30 3458 C 317.731 4.65073 2.61807 0
M  V30 3459 O 317.954 4.25913 3.79413 0
M  V30 3460 O 316.888 5.54452 2.34237 0
M  V30 3461 H 320.714 3.03084 0.193391 0
M  V30 3462 H 318.299 1.49371 0.0294621 0
M  V30 3463 H 320.181 3.29063 2.6324 0
M  V30 3464 H 318.856 2.10771 2.45677 0
M  V30 3465 H 317.763 3.66664 0.742201 0
M  V30 3466 H 319.096 4.82022 0.995796 0
M  V30 3467 N 320.748 -0.0735177 1.57428 0
M  V30 3468 C 321.711 -1.07192 2.02589 0
M  V30 3469 C 322.711 -1.31695 0.922661 0
M  V30 3470 O 323.901 -1.27445 1.18758 0
M  V30 3471 C 321.033 -2.41599 2.40506 0
M  V30 3472 H 322.226 -0.682727 2.92025 0
M  V30 3473 H 319.779 -0.319193 1.53006 0
M  V30 3474 H 320.514 -2.85354 1.5409 0
M  V30 3475 H 320.299 -2.25156 3.21009 0
M  V30 3476 H 321.789 -3.13367 2.76027 0
M  V30 3477 N 322.226 -1.5378 -0.344866 0
M  V30 3478 C 323.174 -1.82373 -1.4437 0
M  V30 3479 C 324.168 -0.694128 -1.54526 0
M  V30 3480 O 325.374 -0.877442 -1.57165 0
M  V30 3481 H 321.749 -0.577765 -0.481344 0
M  V30 3482 H 323.72 -2.74306 -1.17468 0
M  V30 3483 C 322.469 -2.04898 -2.80913 0
M  V30 3484 H 321.792 -2.9127 -2.73865 0
M  V30 3485 H 323.232 -2.28871 -3.56923 0
M  V30 3486 C 321.691 -0.834116 -3.26411 0
M  V30 3487 O 322.221 -0.0328885 -4.01687 0
M  V30 3488 N 320.427 -0.65171 -2.83198 0
M  V30 3489 H 319.974 -1.30489 -2.22104 0
M  V30 3490 H 319.932 0.159686 -3.13994 0
M  V30 3491 N 323.704 0.605807 -1.45491 0
M  V30 3492 C 324.981 1.36522 -1.40075 0
M  V30 3493 C 325.361 2.10976 -0.0722744 0
M  V30 3494 O 324.709 2.08007 0.945808 0
M  V30 3495 C 324.919 2.31056 -2.61561 0
M  V30 3496 C 326.267 2.93608 -3.06724 0
M  V30 3497 O 327.291 2.41376 -2.61946 0
M  V30 3498 O 326.15 3.88421 -3.84437 0
M  V30 3499 H 323.244 0.612248 -0.555951 0
M  V30 3500 H 325.79 0.628747 -1.57623 0
M  V30 3501 H 324.562 1.75311 -3.49831 0
M  V30 3502 H 324.185 3.12081 -2.46356 0
M  V30 3503 N 325.182 1.32811 0.848464 0
M  V30 3504 C 326.407 1.26882 1.6406 0
M  V30 3505 C 326.832 -0.15913 1.87426 0
M  V30 3506 O 326.19 -1.11258 1.43148 0
M  V30 3507 C 326.238 2.03997 2.97351 0
M  V30 3508 O 325.342 1.39201 3.88197 0
M  V30 3509 H 324.683 0.436982 0.499943 0
M  V30 3510 H 327.213 1.75224 1.0563 0
M  V30 3511 H 327.223 2.14403 3.47124 0
M  V30 3512 H 325.898 3.0783 2.79666 0
M  V30 3513 H 324.475 1.37381 3.46671 0
M  V30 3514 N 326.66 -1.06551 1.16123 0
M  V30 3515 C 327.57 -2.17484 0.879662 0
M  V30 3516 C 328.586 -1.73377 -0.147104 0
M  V30 3517 O 329.762 -2.01379 0.0289128 0
M  V30 3518 C 326.827 -3.44591 0.381829 0
M  V30 3519 C 325.888 -4.0322 1.4735 0
M  V30 3520 C 325.121 -5.24261 0.999324 0
M  V30 3521 O 325.344 -5.70198 -0.151957 0
M  V30 3522 O 324.278 -5.74775 1.78653 0
M  V30 3523 H 328.104 -2.44075 1.80724 0
M  V30 3524 H 325.689 -1.16042 0.940992 0
M  V30 3525 H 327.571 -4.21254 0.111053 0
M  V30 3526 H 326.246 -3.19532 -0.51777 0
M  V30 3527 H 325.153 -3.2806 1.79798 0
M  V30 3528 H 326.486 -4.32568 2.34831 0
M  V30 3529 N 328.138 -0.959301 -1.25041 0
M  V30 3530 C 329.366 -0.633949 -1.96948 0
M  V30 3531 C 329.781 0.794916 -1.7125 0
M  V30 3532 O 329.138 1.53231 -0.991287 0
M  V30 3533 C 329.189 -0.888805 -3.50403 0
M  V30 3534 O 328.91 -2.26149 -3.75218 0
M  V30 3535 C 330.411 -0.576482 -4.39536 0
M  V30 3536 H 327.631 -0.237263 -0.627652 0
M  V30 3537 H 330.175 -1.28495 -1.59089 0
M  V30 3538 H 328.33 -0.284145 -3.86357 0
M  V30 3539 H 328.744 -2.33514 -4.6965 0
M  V30 3540 H 330.218 -0.805314 -5.46094 0
M  V30 3541 H 330.695 0.489075 -4.36468 0
M  V30 3542 H 331.301 -1.16067 -4.09156 0
M  V30 3543 N 329.616 1.39756 -0.72842 0
M  V30 3544 C 330.546 2.33289 -0.0991354 0
M  V30 3545 C 331.527 1.53568 0.731489 0
M  V30 3546 O 332.712 1.81987 0.677807 0
M  V30 3547 C 329.842 3.3763 0.813834 0
M  V30 3548 C 328.796 4.2791 0.0878663 0
M  V30 3549 C 328.122 5.22894 1.11741 0
M  V30 3550 C 329.422 5.11314 -1.06563 0
M  V30 3551 H 331.116 2.86163 -0.880408 0
M  V30 3552 H 328.662 1.37591 -0.424819 0
M  V30 3553 H 330.615 4.0201 1.26355 0
M  V30 3554 H 329.339 2.83181 1.62715 0
M  V30 3555 H 327.998 3.65 -0.342159 0
M  V30 3556 H 327.646 4.64744 1.92412 0
M  V30 3557 H 327.346 5.84143 0.636477 0
M  V30 3558 H 328.87 5.90151 1.56697 0
M  V30 3559 H 330.284 5.69076 -0.694671 0
M  V30 3560 H 328.681 5.81671 -1.47577 0
M  V30 3561 H 329.751 4.46534 -1.89038 0
M  V30 3562 N 331.094 0.475555 1.50254 0
M  V30 3563 C 332.322 -0.0754493 2.06762 0
M  V30 3564 C 332.737 -1.33111 1.33891 0
M  V30 3565 O 332.094 -1.77846 0.40952 0
M  V30 3566 C 332.145 -0.359008 3.59713 0
M  V30 3567 O 331.866 0.846851 4.29837 0
M  V30 3568 C 333.367 -0.956484 4.32858 0
M  V30 3569 H 330.587 0.00907525 0.670939 0
M  V30 3570 H 333.131 0.665618 1.93364 0
M  V30 3571 H 331.286 -1.05001 3.72899 0
M  V30 3572 H 331.7 0.594162 5.21124 0
M  V30 3573 H 333.174 -1.10463 5.40834 0
M  V30 3574 H 333.651 -1.94775 3.93649 0
M  V30 3575 H 334.257 -0.303723 4.24214 0
M  V30 3576 N 332.573 -1.56217 0.208337 0
M  V30 3577 C 333.506 -2.15633 -0.746842 0
M  V30 3578 C 334.484 -1.09685 -1.20034 0
M  V30 3579 O 335.668 -1.3787 -1.28547 0
M  V30 3580 C 332.795 -2.72594 -2.01023 0
M  V30 3581 C 331.841 -3.91251 -1.69779 0
M  V30 3582 S 332.674 -5.28962 -0.834209 0
M  V30 3583 C 333.83 -5.89353 -2.10745 0
M  V30 3584 H 334.063 -2.96315 -0.241789 0
M  V30 3585 H 331.596 -1.54398 -0.00682183 0
M  V30 3586 H 333.554 -3.06053 -2.73572 0
M  V30 3587 H 332.215 -1.91929 -2.48641 0
M  V30 3588 H 331.408 -4.29562 -2.63614 0
M  V30 3589 H 331.01 -3.58869 -1.05303 0
M  V30 3590 H 333.302 -6.04522 -3.05875 0
M  V30 3591 H 334.245 -6.85661 -1.76845 0
M  V30 3592 H 334.653 -5.1807 -2.24196 0
M  V30 3593 N 334.051 0.0651679 -1.57465 0
M  V30 3594 C 335.3 0.761916 -1.86756 0
M  V30 3595 C 335.613 1.78406 -0.801925 0
M  V30 3596 O 336.819 2.53084 -0.982885 0
M  V30 3597 C 335.275 1.40603 -3.31299 0
M  V30 3598 C 334.883 0.422115 -4.46007 0
M  V30 3599 C 336.627 2.08476 -3.69781 0
M  V30 3600 C 334.534 1.07252 -5.81593 0
M  V30 3601 H 333.464 0.288308 -0.696702 0
M  V30 3602 H 336.115 0.015344 -1.83494 0
M  V30 3603 H 334.497 2.20109 -3.29193 0
M  V30 3604 H 335.671 -0.343613 -4.59517 0
M  V30 3605 H 333.986 -0.152527 -4.16121 0
M  V30 3606 H 336.583 2.57925 -4.68379 0
M  V30 3607 H 336.926 2.88712 -2.99919 0
M  V30 3608 H 337.459 1.35792 -3.73905 0
M  V30 3609 H 334.198 0.310342 -6.54765 0
M  V30 3610 H 333.718 1.80895 -5.71872 0
M  V30 3611 H 335.397 1.59043 -6.27148 0
M  V30 3612 N 335.529 1.53961 0.336706 0
M  V30 3613 C 336.462 1.77255 1.43722 0
M  V30 3614 C 337.44 0.62193 1.50236 0
M  V30 3615 O 338.624 0.857874 1.67847 0
M  V30 3616 C 335.751 1.87733 2.81912 0
M  V30 3617 C 334.797 3.09933 2.92991 0
M  V30 3618 S 335.63 4.68836 2.58753 0
M  V30 3619 C 336.786 4.82202 3.99039 0
M  V30 3620 H 337.019 2.70322 1.23748 0
M  V30 3621 H 334.552 1.44917 0.532777 0
M  V30 3622 H 336.51 1.94455 3.61521 0
M  V30 3623 H 335.171 0.956666 2.99177 0
M  V30 3624 H 334.364 3.1396 3.94265 0
M  V30 3625 H 333.966 3.01472 2.21338 0
M  V30 3626 H 336.258 4.64032 4.9364 0
M  V30 3627 H 337.201 5.84298 4.00002 0
M  V30 3628 H 337.609 4.10604 3.87382 0
M  V30 3629 N 337.007 -0.598083 1.45811 0
M  V30 3630 C 338.284 -1.35777 1.40797 0
M  V30 3631 C 338.664 -2.10935 0.083462 0
M  V30 3632 O 338.012 -2.08505 -0.934763 0
M  V30 3633 C 338.222 -2.29666 2.62783 0
M  V30 3634 C 339.57 -2.91977 3.08277 0
M  V30 3635 O 340.594 -2.39984 2.63223 0
M  V30 3636 O 339.453 -3.86376 3.86491 0
M  V30 3637 H 336.547 -0.609291 0.55919 0
M  V30 3638 H 339.093 -0.620379 1.57954 0
M  V30 3639 H 337.865 -1.73454 3.50756 0
M  V30 3640 H 337.488 -3.1077 2.48008 0
M  V30 3641 N 338.485 -1.33259 -0.841409 0
M  V30 3642 C 339.725 -1.25902 -1.61022 0
M  V30 3643 C 340.089 0.173325 -1.91216 0
M  V30 3644 O 341.29 0.370824 -2.6623 0
M  V30 3645 C 339.561 -2.10735 -2.88662 0
M  V30 3646 S 341.12 -2.20541 -3.79351 0
M  V30 3647 H 337.938 -0.447958 -0.552137 0
M  V30 3648 H 340.54 -1.68263 -0.995382 0
M  V30 3649 H 339.244 -3.1384 -2.64448 0
M  V30 3650 H 338.775 -1.69201 -3.55154 0
M  V30 3651 H 340.79 -1.36462 -4.77067 0
M  V30 3652 N 339.963 1.05934 -1.16686 0
M  V30 3653 C 340.91 2.13499 -0.876748 0
M  V30 3654 C 341.88 1.65162 0.176299 0
M  V30 3655 O 343.065 1.90757 0.0407143 0
M  V30 3656 C 340.205 3.42912 -0.387967 0
M  V30 3657 C 339.318 4.04964 -1.50426 0
M  V30 3658 C 338.453 5.22266 -0.970125 0
M  V30 3659 C 337.492 5.76309 -2.06238 0
M  V30 3660 N 336.629 6.84922 -1.54356 0
M  V30 3661 H 341.469 2.37654 -1.7979 0
M  V30 3662 H 339.006 1.16598 -0.896843 0
M  V30 3663 H 340.964 4.17111 -0.086186 0
M  V30 3664 H 339.594 3.18963 0.496235 0
M  V30 3665 H 338.646 3.28277 -1.92193 0
M  V30 3666 H 339.958 4.41122 -2.32836 0
M  V30 3667 H 339.112 6.03506 -0.621743 0
M  V30 3668 H 337.851 4.87564 -0.115377 0
M  V30 3669 H 336.856 4.93704 -2.41942 0
M  V30 3670 H 338.081 6.13062 -2.92115 0
M  V30 3671 H 336.027 6.52131 -0.711406 0
M  V30 3672 H 335.944 7.20043 -2.30379 0
M  V30 3673 H 337.212 7.69832 -1.22387 0
M  V30 3674 N 341.441 0.965919 1.2453 0
M  V30 3675 C 342.671 0.643451 1.96324 0
M  V30 3676 C 343.079 -0.790927 1.71875 0
M  V30 3677 O 342.422 -1.54208 0.998273 0
M  V30 3678 C 342.484 0.836078 3.49643 0
M  V30 3679 C 342.148 2.24975 3.97788 0
M  V30 3680 C 343.145 3.22735 4.07601 0
M  V30 3681 C 340.83 2.57697 4.31158 0
M  V30 3682 C 342.824 4.51303 4.50116 0
M  V30 3683 C 340.511 3.86492 4.73357 0
M  V30 3684 C 341.509 4.83107 4.828 0
M  V30 3685 O 341.197 6.09605 5.24058 0
M  V30 3686 H 340.929 0.239223 0.632257 0
M  V30 3687 H 343.483 1.29587 1.59362 0
M  V30 3688 H 341.713 0.12649 3.86493 0
M  V30 3689 H 343.402 0.512965 4.02646 0
M  V30 3690 H 344.168 2.98783 3.82039 0
M  V30 3691 H 340.047 1.83216 4.23028 0
M  V30 3692 H 343.591 5.26716 4.57401 0
M  V30 3693 H 339.488 4.10245 4.98366 0
M  V30 3694 H 340.256 6.13146 5.42213 0
M  V30 3695 N 342.919 -1.39368 0.735821 0
M  V30 3696 C 344.147 -2.04795 0.294393 0
M  V30 3697 C 344.562 -1.55478 -1.07107 0
M  V30 3698 O 343.919 -0.720038 -1.67695 0
M  V30 3699 C 343.97 -3.6035 0.288071 0
M  V30 3700 O 343.691 -4.07852 1.59963 0
M  V30 3701 C 345.192 -4.42976 -0.169422 0
M  V30 3702 H 342.412 -0.658571 0.128551 0
M  V30 3703 H 344.956 -1.78399 0.999701 0
M  V30 3704 H 343.111 -3.85645 -0.368355 0
M  V30 3705 H 343.525 -5.02181 1.51375 0
M  V30 3706 H 344.999 -5.51864 -0.122687 0
M  V30 3707 H 345.476 -4.22068 -1.21472 0
M  V30 3708 H 346.082 -4.22832 0.457469 0
M  V30 3709 N 344.397 -0.483516 -1.5 0
M  V30 3710 C 345.643 0.0672592 -2.02688 0
M  V30 3711 C 345.976 1.38247 -1.36387 0
M  V30 3712 O 345.251 1.88131 -0.493675 0
M  V30 3713 C 345.534 0.238109 -3.59312 0
M  V30 3714 C 345.387 -1.099 -4.36168 0
M  V30 3715 C 346.706 0.986916 -4.28892 0
M  V30 3716 H 343.825 0.0229696 -0.736642 0
M  V30 3717 H 346.467 -0.631527 -1.79197 0
M  V30 3718 H 344.617 0.8333 -3.79458 0
M  V30 3719 H 346.289 -1.73172 -4.27562 0
M  V30 3720 H 344.532 -1.69261 -3.99416 0
M  V30 3721 H 345.203 -0.932954 -5.44059 0
M  V30 3722 H 347.679 0.482302 -4.13295 0
M  V30 3723 H 346.555 1.07527 -5.38265 0
M  V30 3724 H 346.816 2.0265 -3.92919 0
M  V30 3725 N 345.875 1.56104 -0.216619 0
M  V30 3726 C 347.286 1.844 0.292128 0
M  V30 3727 C 347.637 1.13788 1.59833 0
M  V30 3728 O 346.762 0.405888 2.12559 0
M  V30 3729 C 347.357 3.3452 0.53681 0
M  V30 3730 C 345.916 3.63151 0.989876 0
M  V30 3731 C 345.063 2.77255 0.0502302 0
M  V30 3732 H 348.014 1.52481 -0.439926 0
M  V30 3733 H 348.035 3.54459 1.38345 0
M  V30 3734 H 347.547 3.85885 -0.414031 0
M  V30 3735 H 345.648 3.17238 1.95425 0
M  V30 3736 H 345.761 4.71177 0.867698 0
M  V30 3737 H 344.125 2.48555 0.556117 0
M  V30 3738 H 344.908 3.31416 -0.89544 0
M  V30 3739 N 347.353 -0.0568162 1.57498 0
M  V30 3740 C 348.578 -0.769402 1.92601 0
M  V30 3741 C 349.003 -1.69559 0.814336 0
M  V30 3742 O 348.361 -1.79811 -0.231903 0
M  V30 3743 C 348.409 -1.52634 3.26704 0
M  V30 3744 O 347.513 -2.63797 3.16994 0
M  V30 3745 H 346.854 -0.208909 0.63028 0
M  V30 3746 H 349.384 -0.0205798 2.0459 0
M  V30 3747 H 349.394 -1.90234 3.60936 0
M  V30 3748 H 348.069 -0.846875 4.07186 0
M  V30 3749 H 346.646 -2.28943 2.94346 0
M  V30 3750 N 348.832 -1.54138 -0.328536 0
M  V30 3751 C 349.782 -1.79557 -1.4051 0
M  V30 3752 C 350.766 -0.651373 -1.47126 0
M  V30 3753 O 351.958 -0.911226 -1.51742 0
M  V30 3754 C 349.087 -2.02196 -2.77438 0
M  V30 3755 C 348.173 -3.22724 -2.75155 0
M  V30 3756 N 348.564 -4.43881 -2.42494 0
M  V30 3757 C 346.862 -3.24196 -3.06289 0
M  V30 3758 C 347.563 -5.25797 -2.48822 0
M  V30 3759 N 346.539 -4.62862 -2.8506 0
M  V30 3760 H 350.341 -2.70814 -1.1418 0
M  V30 3761 H 347.855 -1.53265 -0.536991 0
M  V30 3762 H 349.852 -2.18546 -3.55026 0
M  V30 3763 H 348.512 -1.12191 -3.04702 0
M  V30 3764 H 349.523 -4.70969 -2.15428 0
M  V30 3765 H 346.2 -2.44208 -3.38627 0
M  V30 3766 H 347.59 -6.32535 -2.26603 0
M  V30 3767 N 350.31 0.590341 -1.46126 0
M  V30 3768 C 351.556 1.35082 -1.51264 0
M  V30 3769 C 351.889 1.93534 -0.160711 0
M  V30 3770 O 351.164 1.76045 0.826956 0
M  V30 3771 C 351.447 2.48588 -2.6053 0
M  V30 3772 C 351.3 1.95221 -4.05227 0
M  V30 3773 C 352.619 3.50662 -2.6594 0
M  V30 3774 H 349.738 0.489803 -0.550692 0
M  V30 3775 H 352.38 0.663887 -1.78024 0
M  V30 3776 H 350.53 3.07186 -2.37843 0
M  V30 3777 H 352.202 1.41139 -4.39178 0
M  V30 3778 H 350.445 1.26101 -4.15068 0
M  V30 3779 H 351.116 2.77121 -4.77397 0
M  V30 3780 H 353.592 3.01934 -2.86313 0
M  V30 3781 H 352.468 4.27551 -3.44226 0
M  V30 3782 H 352.729 4.07399 -1.71694 0
M  V30 3783 N 351.788 1.33704 0.83433 0
M  V30 3784 C 353.013 1.28615 1.62705 0
M  V30 3785 C 353.438 -0.139242 1.87584 0
M  V30 3786 O 352.796 -1.09734 1.4432 0
M  V30 3787 C 352.844 2.07139 2.95171 0
M  V30 3788 O 351.948 1.4331 3.86699 0
M  V30 3789 H 351.289 0.44226 0.49528 0
M  V30 3790 H 353.819 1.76335 1.03766 0
M  V30 3791 H 353.829 2.18073 3.44831 0
M  V30 3792 H 352.504 3.10779 2.76386 0
M  V30 3793 H 351.081 1.4105 3.45195 0
M  V30 3794 N 353.266 -1.05314 1.17247 0
M  V30 3795 C 354.213 -2.13031 0.888058 0
M  V30 3796 C 355.183 -1.65253 -0.167537 0
M  V30 3797 O 356.368 -1.90775 -0.0305974 0
M  V30 3798 C 353.508 -3.42702 0.406147 0
M  V30 3799 C 352.621 -4.04161 1.52572 0
M  V30 3800 C 351.756 -5.21744 0.997808 0
M  V30 3801 C 350.795 -5.75207 2.09291 0
M  V30 3802 N 349.932 -6.84094 1.57986 0
M  V30 3803 H 354.772 -2.36698 1.81048 0
M  V30 3804 H 352.309 -1.16121 0.903013 0
M  V30 3805 H 354.267 -4.17059 0.108305 0
M  V30 3806 H 352.897 -3.19222 -0.479313 0
M  V30 3807 H 351.949 -3.27253 1.93931 0
M  V30 3808 H 353.261 -4.39881 2.35172 0
M  V30 3809 H 352.415 -6.03168 0.653739 0
M  V30 3810 H 351.154 -4.87495 0.141232 0
M  V30 3811 H 350.159 -4.92414 2.44557 0
M  V30 3812 H 351.384 -6.11505 2.95362 0
M  V30 3813 H 349.33 -6.51745 0.74598 0
M  V30 3814 H 349.247 -7.18811 2.34195 0
M  V30 3815 H 350.515 -7.69172 1.26468 0
M  V30 3816 N 354.744 -0.972509 -1.24016 0
M  V30 3817 C 355.654 -0.5143 -2.28893 0
M  V30 3818 C 356.67 0.427078 -1.68677 0
M  V30 3819 O 357.846 0.298939 -1.99169 0
M  V30 3820 C 354.911 0.183598 -3.46214 0
M  V30 3821 C 353.972 -0.798202 -4.21814 0
M  V30 3822 C 353.205 -0.133514 -5.33533 0
M  V30 3823 O 353.428 1.07714 -5.60137 0
M  V30 3824 O 352.362 -0.828103 -5.96176 0
M  V30 3825 H 356.188 -1.38629 -2.70214 0
M  V30 3826 H 353.773 -0.739769 -1.29799 0
M  V30 3827 H 355.655 0.575433 -4.17453 0
M  V30 3828 H 354.33 1.03048 -3.0686 0
M  V30 3829 H 353.237 -1.24059 -3.52931 0
M  V30 3830 H 354.57 -1.61364 -4.64997 0
M  V30 3831 N 356.222 1.38976 -0.743202 0
M  V30 3832 C 357.462 2.02193 -0.29954 0
M  V30 3833 C 357.826 1.5771 1.09506 0
M  V30 3834 O 359.027 2.13184 1.63726 0
M  V30 3835 C 357.298 3.55077 -0.406822 0
M  V30 3836 S 358.857 4.38778 -0.0442109 0
M  V30 3837 H 355.675 0.701335 -0.116836 0
M  V30 3838 H 358.277 1.69651 -0.971529 0
M  V30 3839 H 356.981 3.84942 -1.42295 0
M  V30 3840 H 356.512 3.92383 0.282707 0
M  V30 3841 H 358.527 4.82222 1.16947 0
M  V30 3842 N 357.7 0.491464 1.49741 0
M  V30 3843 C 358.647 -0.292027 2.28945 0
M  V30 3844 C 359.617 -0.968973 1.34908 0
M  V30 3845 O 360.802 -0.97748 1.6386 0
M  V30 3846 C 357.942 -1.35617 3.17336 0
M  V30 3847 C 357.055 -0.691957 4.26422 0
M  V30 3848 C 356.19 -1.73572 5.02042 0
M  V30 3849 C 355.229 -1.05286 6.02977 0
M  V30 3850 N 354.366 -2.0404 6.71798 0
M  V30 3851 H 359.206 0.389654 2.95442 0
M  V30 3852 H 356.743 0.204003 1.45679 0
M  V30 3853 H 358.701 -1.98502 3.66951 0
M  V30 3854 H 357.331 -2.00674 2.52844 0
M  V30 3855 H 356.383 0.0499523 3.80367 0
M  V30 3856 H 357.695 -0.153946 4.98562 0
M  V30 3857 H 356.849 -2.43987 5.55478 0
M  V30 3858 H 355.588 -2.30757 4.29654 0
M  V30 3859 H 354.593 -0.334446 5.48782 0
M  V30 3860 H 355.818 -0.487636 6.77347 0
M  V30 3861 H 353.764 -2.60205 6.02187 0
M  V30 3862 H 353.681 -1.55279 7.39881 0
M  V30 3863 H 354.949 -2.73772 7.29842 0
M  V30 3864 N 359.178 -1.55987 0.224894 0
M  V30 3865 C 360.455 -1.90232 -0.455083 0
M  V30 3866 C 360.835 -1.14269 -1.77499 0
M  V30 3867 O 360.183 -0.253079 -2.27094 0
M  V30 3868 C 360.393 -3.42993 -0.644758 0
M  V30 3869 C 361.741 -4.13821 -0.950669 0
M  V30 3870 O 362.765 -3.4861 -0.731423 0
M  V30 3871 O 361.624 -5.29128 -1.36695 0
M  V30 3872 H 358.718 -0.79108 -0.241084 0
M  V30 3873 H 361.264 -1.67581 0.267327 0
M  V30 3874 H 360.036 -3.90252 0.28613 0
M  V30 3875 H 359.659 -3.71434 -1.41853 0
M  V30 3876 N 360.656 0.0484629 -1.57525 0
M  V30 3877 C 361.586 1.0549 -2.08313 0
M  V30 3878 C 362.567 1.38929 -0.981463 0
M  V30 3879 O 363.752 1.48151 -1.25558 0
M  V30 3880 C 360.882 2.36162 -2.54646 0
M  V30 3881 C 359.836 2.17016 -3.68901 0
M  V30 3882 C 359.162 3.53278 -4.01371 0
M  V30 3883 C 360.462 1.57219 -4.98076 0
M  V30 3884 H 362.156 0.632195 -2.92649 0
M  V30 3885 H 359.702 0.302654 -1.40784 0
M  V30 3886 H 361.655 3.06882 -2.88793 0
M  V30 3887 H 360.379 2.80456 -1.67368 0
M  V30 3888 H 359.038 1.48733 -3.35073 0
M  V30 3889 H 358.686 3.95185 -3.11188 0
M  V30 3890 H 358.386 3.41299 -4.78318 0
M  V30 3891 H 359.91 4.25391 -4.38035 0
M  V30 3892 H 361.324 2.17832 -5.30304 0
M  V30 3893 H 359.721 1.55871 -5.79503 0
M  V30 3894 H 360.791 0.535956 -4.81929 0
M  V30 3895 N 362.134 1.5431 0.320358 0
M  V30 3896 C 363.383 1.7188 1.05546 0
M  V30 3897 C 363.696 0.501143 1.89071 0
M  V30 3898 O 364.902 0.558258 2.65699 0
M  V30 3899 C 363.358 3.04025 1.92605 0
M  V30 3900 C 362.966 4.33207 1.14176 0
M  V30 3901 C 364.71 3.30959 2.65832 0
M  V30 3902 C 362.617 5.56412 2.00399 0
M  V30 3903 H 361.547 0.640547 0.397763 0
M  V30 3904 H 364.198 1.80802 0.313522 0
M  V30 3905 H 362.58 2.89019 2.7071 0
M  V30 3906 H 363.754 4.58989 0.40819 0
M  V30 3907 H 362.069 4.13062 0.526165 0
M  V30 3908 H 364.666 4.20203 3.30656 0
M  V30 3909 H 365.009 2.48979 3.33639 0
M  V30 3910 H 365.542 3.46847 1.94787 0
M  V30 3911 H 362.281 6.41004 1.37094 0
M  V30 3912 H 361.801 5.34844 2.7148 0
M  V30 3913 H 363.48 5.92938 2.58908 0
M  V30 3914 N 363.613 -0.582584 1.46437 0
M  V30 3915 C 364.841 -1.36682 1.55324 0
M  V30 3916 C 365.256 -1.87796 0.194409 0
M  V30 3917 O 364.613 -1.63623 -0.808318 0
M  V30 3918 C 364.664 -2.55426 2.55812 0
M  V30 3919 O 364.385 -2.0643 3.86417 0
M  V30 3920 C 365.886 -3.47976 2.74641 0
M  V30 3921 H 363.106 -0.417545 0.525259 0
M  V30 3922 H 365.65 -0.708219 1.91845 0
M  V30 3923 H 363.805 -3.17275 2.22295 0
M  V30 3924 H 364.219 -2.83762 4.41111 0
M  V30 3925 H 365.693 -4.27775 3.48874 0
M  V30 3926 H 366.17 -3.99919 1.81553 0
M  V30 3927 H 366.776 -2.91962 3.09255 0
M  V30 3928 N 365.091 -1.34144 -0.827227 0
M  V30 3929 C 366.507 -1.13732 -1.11969 0
M  V30 3930 C 366.707 0.0640463 -2.01398 0
M  V30 3931 O 365.763 0.740856 -2.41387 0
M  V30 3932 C 367.076 -2.43047 -1.77055 0
M  V30 3933 C 368.624 -2.49063 -1.89569 0
M  V30 3934 C 369.099 -3.78369 -2.58072 0
M  V30 3935 N 370.59 -3.79505 -2.65575 0
M  V30 3936 C 371.325 -4.76274 -3.19297 0
M  V30 3937 N 370.821 -5.83424 -3.73616 0
M  V30 3938 N 372.614 -4.63735 -3.17658 0
M  V30 3939 H 364.765 -2.11126 -0.232296 0
M  V30 3940 H 367.028 -0.933424 -0.165602 0
M  V30 3941 H 366.734 -3.31025 -1.18807 0
M  V30 3942 H 366.608 -2.56066 -2.76966 0
M  V30 3943 H 368.995 -1.61527 -2.46968 0
M  V30 3944 H 369.076 -2.39975 -0.885745 0
M  V30 3945 H 368.72 -4.66293 -2.01329 0
M  V30 3946 H 368.65 -3.84737 -3.59562 0
M  V30 3947 H 371.141 -3.02074 -2.27068 0
M  V30 3948 H 371.454 -6.53282 -4.12846 0
M  V30 3949 H 369.799 -5.87143 -3.71871 0
M  V30 3950 H 372.99 -3.79177 -2.74486 0
M  V30 3951 H 373.163 -5.39318 -3.59221 0
M  V30 3952 N 366.569 1.04691 -1.17803 0
M  V30 3953 C 367.502 2.12068 -0.842765 0
M  V30 3954 C 368.48 1.61455 0.192608 0
M  V30 3955 O 369.664 1.88359 0.072995 0
M  V30 3956 C 366.791 3.37715 -0.258063 0
M  V30 3957 C 365.837 4.07164 -1.26962 0
M  V30 3958 S 366.67 4.55047 -2.82299 0
M  V30 3959 C 367.826 5.83935 -2.25323 0
M  V30 3960 H 368.059 2.4018 -1.75217 0
M  V30 3961 H 365.592 1.17366 -1.00323 0
M  V30 3962 H 367.55 4.10435 0.0727935 0
M  V30 3963 H 366.211 3.0773 0.629357 0
M  V30 3964 H 365.404 4.9746 -0.809263 0
M  V30 3965 H 365.006 3.40533 -1.54639 0
M  V30 3966 H 367.298 6.57552 -1.63192 0
M  V30 3967 H 368.241 6.34725 -3.13894 0
M  V30 3968 H 368.649 5.3874 -1.68582 0
M  V30 3969 N 368.047 0.979072 1.23499 0
M  V30 3970 C 368.977 0.537606 2.27227 0
M  V30 3971 C 369.958 -0.428539 1.64613 0
M  V30 3972 O 371.143 -0.322191 1.91509 0
M  V30 3973 C 368.273 -0.162052 3.46922 0
M  V30 3974 C 367.227 0.721242 4.21879 0
M  V30 3975 C 366.553 -0.110555 5.34586 0
M  V30 3976 C 367.853 2.01141 4.82016 0
M  V30 3977 H 369.547 1.40462 2.64406 0
M  V30 3978 H 367.093 0.67684 1.27102 0
M  V30 3979 H 369.046 -0.482192 4.18632 0
M  V30 3980 H 367.77 -1.06351 3.08799 0
M  V30 3981 H 366.429 1.02482 3.51984 0
M  V30 3982 H 366.077 -1.0125 4.92704 0
M  V30 3983 H 365.777 0.477325 5.85658 0
M  V30 3984 H 367.301 -0.425107 6.09118 0
M  V30 3985 H 368.715 1.75612 5.45741 0
M  V30 3986 H 367.112 2.54695 5.43369 0
M  V30 3987 H 368.182 2.69909 4.02836 0
M  V30 3988 N 369.525 -1.3858 0.750561 0
M  V30 3989 C 370.457 -2.29057 0.0810714 0
M  V30 3990 C 371.47 -1.47596 -0.686973 0
M  V30 3991 O 372.659 -1.70495 -0.528563 0
M  V30 3992 C 369.759 -3.26475 -0.909247 0
M  V30 3993 C 368.932 -4.36945 -0.199478 0
M  V30 3994 C 367.991 -5.14572 -1.10011 0
M  V30 3995 O 367.017 -5.66321 -0.57177 0
M  V30 3996 N 368.219 -5.27262 -2.42849 0
M  V30 3997 H 370.984 -2.87153 0.858087 0
M  V30 3998 H 368.545 -1.50328 0.60109 0
M  V30 3999 H 370.537 -3.75285 -1.51471 0
M  V30 4000 H 369.107 -2.69298 -1.58736 0
M  V30 4001 H 368.327 -3.8981 0.586664 0
M  V30 4002 H 369.615 -5.07963 0.291783 0
M  V30 4003 H 369.013 -4.86763 -2.88233 0
M  V30 4004 H 367.57 -5.79456 -2.98453 0
M  V30 4005 N 371.003 -0.499398 -1.49478 0
M  V30 4006 C 372.419 -0.155261 -1.58843 0
M  V30 4007 C 372.619 1.34008 -1.50479 0
M  V30 4008 O 371.675 2.11589 -1.37791 0
M  V30 4009 C 372.988 -0.730636 -2.91689 0
M  V30 4010 C 374.536 -0.696599 -3.0515 0
M  V30 4011 C 375.011 -1.25001 -4.40612 0
M  V30 4012 N 376.502 -1.21064 -4.47099 0
M  V30 4013 C 377.237 -1.60905 -5.50361 0
M  V30 4014 N 376.733 -2.08331 -6.60735 0
M  V30 4015 N 378.526 -1.52331 -5.41065 0
M  V30 4016 H 370.677 -1.47162 -1.53158 0
M  V30 4017 H 372.94 -0.610309 -0.725415 0
M  V30 4018 H 372.646 -1.77928 -3.03372 0
M  V30 4019 H 372.52 -0.190161 -3.7672 0
M  V30 4020 H 374.907 0.343204 -2.93097 0
M  V30 4021 H 374.988 -1.2742 -2.21806 0
M  V30 4022 H 374.632 -2.28859 -4.53416 0
M  V30 4023 H 374.562 -0.64836 -5.22593 0
M  V30 4024 H 377.053 -0.863128 -3.67911 0
M  V30 4025 H 377.366 -2.36805 -7.35624 0
M  V30 4026 H 375.711 -2.12304 -6.6178 0
M  V30 4027 H 378.902 -1.151 -4.53729 0
M  V30 4028 H 379.075 -1.83704 -6.21415 0
M  V30 4029 N 372.481 1.55866 -0.233164 0
M  V30 4030 C 373.758 1.90471 0.444988 0
M  V30 4031 C 374.138 1.15209 1.7689 0
M  V30 4032 O 373.486 0.265119 2.26957 0
M  V30 4033 C 373.696 3.4333 0.626559 0
M  V30 4034 C 375.044 4.14319 0.92871 0
M  V30 4035 O 376.068 3.48993 0.712926 0
M  V30 4036 O 374.927 5.29846 1.33887 0
M  V30 4037 H 372.021 0.792347 0.236885 0
M  V30 4038 H 374.567 1.67437 -0.276211 0
M  V30 4039 H 373.339 3.90095 -0.306822 0
M  V30 4040 H 372.962 3.72181 1.39881 0
M  V30 4041 N 373.959 -0.0401083 1.57549 0
M  V30 4042 C 375.37 -0.588097 1.77196 0
M  V30 4043 C 375.721 -1.76209 0.862832 0
M  V30 4044 O 374.846 -2.16331 0.0548389 0
M  V30 4045 C 375.441 -1.07363 3.21339 0
M  V30 4046 C 374 -1.56723 3.42221 0
M  V30 4047 C 373.147 -0.50041 2.72747 0
M  V30 4048 H 376.098 0.186119 1.57605 0
M  V30 4049 H 376.119 -1.94143 3.27244 0
M  V30 4050 H 375.631 -0.218975 3.87482 0
M  V30 4051 H 373.732 -2.4441 2.81237 0
M  V30 4052 H 373.845 -1.62234 4.50796 0
M  V30 4053 H 372.209 -0.952894 2.36203 0
M  V30 4054 H 372.992 0.344599 3.41566 0
M  V30 4055 N 375.437 -1.54477 -0.31217 0
M  V30 4056 C 376.384 -1.84655 -1.38461 0
M  V30 4057 C 377.354 -0.694536 -1.50882 0
M  V30 4058 O 378.539 -0.942081 -1.6592 0
M  V30 4059 C 375.679 -2.0896 -2.74645 0
M  V30 4060 C 374.792 -3.36618 -2.70763 0
M  V30 4061 C 373.927 -3.50824 -3.98868 0
M  V30 4062 C 372.966 -4.72315 -3.89339 0
M  V30 4063 N 372.103 -4.83387 -5.09197 0
M  V30 4064 H 376.943 -2.76142 -1.12026 0
M  V30 4065 H 374.48 -1.36748 -0.542065 0
M  V30 4066 H 376.438 -2.21045 -3.53829 0
M  V30 4067 H 375.068 -1.20752 -2.99364 0
M  V30 4068 H 374.12 -3.33211 -1.83506 0
M  V30 4069 H 375.432 -4.25917 -2.59608 0
M  V30 4070 H 374.586 -3.62513 -4.86486 0
M  V30 4071 H 373.325 -2.59638 -4.12843 0
M  V30 4072 H 372.33 -4.6067 -3.00105 0
M  V30 4073 H 373.555 -5.64897 -3.76919 0
M  V30 4074 H 371.501 -3.9512 -5.23657 0
M  V30 4075 H 371.418 -5.66669 -5.00422 0
M  V30 4076 H 372.686 -4.9942 -5.98498 0
M  V30 4077 N 376.915 0.57481 -1.46744 0
M  V30 4078 C 378.331 0.898981 -1.31873 0
M  V30 4079 C 378.531 1.99313 -0.29605 0
M  V30 4080 O 377.587 2.50728 0.298621 0
M  V30 4081 C 378.9 1.30886 -2.7072 0
M  V30 4082 C 380.448 1.42127 -2.78871 0
M  V30 4083 C 380.923 1.86478 -4.18318 0
M  V30 4084 N 382.414 1.93658 -4.20774 0
M  V30 4085 C 383.149 2.29267 -5.2557 0
M  V30 4086 N 382.645 2.63612 -6.40688 0
M  V30 4087 N 384.438 2.29889 -5.1294 0
M  V30 4088 H 376.589 -0.147839 -2.11885 0
M  V30 4089 H 378.852 -0.00347013 -0.947994 0
M  V30 4090 H 378.558 0.578853 -3.46904 0
M  V30 4091 H 378.432 2.26874 -3.01343 0
M  V30 4092 H 380.819 2.14213 -2.0297 0
M  V30 4093 H 380.9 0.443705 -2.51922 0
M  V30 4094 H 380.544 1.14968 -4.94717 0
M  V30 4095 H 380.474 2.85207 -4.42679 0
M  V30 4096 H 382.965 1.69574 -3.37718 0
M  V30 4097 H 383.278 2.89759 -7.16421 0
M  V30 4098 H 381.623 2.61232 -6.44036 0
M  V30 4099 H 384.814 2.02485 -4.22039 0
M  V30 4100 H 384.987 2.57312 -5.94722 0
M  V30 4101 N 378.394 1.34581 0.820102 0
M  V30 4102 C 379.81 1.14325 1.11364 0
M  V30 4103 C 380.01 -0.0533648 2.01429 0
M  V30 4104 O 379.066 -0.728044 2.41776 0
M  V30 4105 C 380.379 2.43983 1.75764 0
M  V30 4106 C 381.927 2.50065 1.88246 0
M  V30 4107 C 382.402 3.79732 2.56061 0
M  V30 4108 N 383.893 3.80908 2.63558 0
M  V30 4109 C 384.628 4.77961 3.16766 0
M  V30 4110 N 384.124 5.85397 3.70517 0
M  V30 4111 N 385.917 4.65413 3.15194 0
M  V30 4112 H 378.068 2.11246 0.221096 0
M  V30 4113 H 380.331 0.934289 0.160649 0
M  V30 4114 H 380.037 3.31651 1.1705 0
M  V30 4115 H 379.911 2.57531 2.75604 0
M  V30 4116 H 382.298 1.62834 2.46108 0
M  V30 4117 H 382.379 2.40442 0.873006 0
M  V30 4118 H 382.023 4.67354 1.98853 0
M  V30 4119 H 381.953 3.86639 3.57516 0
M  V30 4120 H 384.444 3.03274 2.25463 0
M  V30 4121 H 384.757 6.55463 4.09376 0
M  V30 4122 H 383.102 5.89107 3.68752 0
M  V30 4123 H 386.293 3.80627 2.72471 0
M  V30 4124 H 386.466 5.41216 3.56356 0
M  V30 4125 N 379.872 -1.04064 1.18357 0
M  V30 4126 C 380.835 -2.10243 0.912707 0
M  V30 4127 C 381.835 -1.60477 -0.101928 0
M  V30 4128 O 383.025 -1.73703 0.131517 0
M  V30 4129 C 380.157 -3.38893 0.369387 0
M  V30 4130 H 381.35 -2.35706 1.85426 0
M  V30 4131 H 378.903 -1.20489 0.995594 0
M  V30 4132 H 379.638 -3.19094 -0.578776 0
M  V30 4133 H 379.423 -3.76331 1.1008 0
M  V30 4134 H 380.913 -4.17128 0.198575 0
M  V30 4135 N 381.35 -0.985608 -1.22978 0
M  V30 4136 C 382.575 -0.675254 -1.961 0
M  V30 4137 C 383 0.752154 -1.72407 0
M  V30 4138 O 382.358 1.5131 -0.998751 0
M  V30 4139 C 382.406 -0.977899 -3.47087 0
M  V30 4140 O 381.51 -0.072685 -4.12336 0
M  V30 4141 H 380.851 -0.253443 -0.613728 0
M  V30 4142 H 383.381 -1.32061 -1.56272 0
M  V30 4143 H 383.391 -0.916739 -3.97567 0
M  V30 4144 H 382.066 -2.01807 -3.63657 0
M  V30 4145 H 380.643 -0.188703 -3.72422 0
M  V30 4146 N 382.828 1.3818 -0.7579 0
M  V30 4147 C 383.758 2.33027 -0.148597 0
M  V30 4148 C 384.739 1.55085 0.69875 0
M  V30 4149 O 385.924 1.83384 0.639053 0
M  V30 4150 C 383.054 3.3928 0.742034 0
M  V30 4151 C 382.008 4.28 -0.00291946 0
M  V30 4152 C 381.334 5.25146 1.00625 0
M  V30 4153 C 382.634 5.08938 -1.17385 0
M  V30 4154 H 384.328 2.84231 -0.940909 0
M  V30 4155 H 381.874 1.36659 -0.453908 0
M  V30 4156 H 383.827 4.046 1.17799 0
M  V30 4157 H 382.551 2.86569 1.56671 0
M  V30 4158 H 381.21 3.64192 -0.419504 0
M  V30 4159 H 380.858 4.68721 1.8251 0
M  V30 4160 H 380.558 5.85361 0.512428 0
M  V30 4161 H 382.082 5.93342 1.44143 0
M  V30 4162 H 383.496 5.67474 -0.815224 0
M  V30 4163 H 381.893 5.7841 -1.59882 0
M  V30 4164 H 382.963 4.42424 -1.98468 0
M  V30 4165 N 384.306 0.507319 1.49211 0
M  V30 4166 C 385.216 -0.272136 2.33016 0
M  V30 4167 C 386.232 -0.961206 1.45041 0
M  V30 4168 O 387.408 -0.941191 1.78055 0
M  V30 4169 C 384.473 -1.31895 3.20631 0
M  V30 4170 C 383.534 -0.642648 4.24463 0
M  V30 4171 C 382.767 -1.63959 5.07891 0
M  V30 4172 O 382.99 -2.87007 4.92933 0
M  V30 4173 O 381.924 -1.19143 5.8999 0
M  V30 4174 H 385.75 0.413982 3.00865 0
M  V30 4175 H 383.335 0.268556 1.46966 0
M  V30 4176 H 385.217 -1.92446 3.7489 0
M  V30 4177 H 383.892 -1.98788 2.5547 0
M  V30 4178 H 382.799 0.00276252 3.741 0
M  V30 4179 H 384.132 -0.0160534 4.92197 0
M  V30 4180 N 385.784 -1.5574 0.241426 0
M  V30 4181 C 386.694 -2.2479 -0.671305 0
M  V30 4182 C 387.71 -1.26217 -1.19772 0
M  V30 4183 O 388.886 -1.59079 -1.23514 0
M  V30 4184 C 385.951 -2.92966 -1.85396 0
M  V30 4185 C 385.012 -4.06935 -1.36756 0
M  V30 4186 C 384.245 -4.71851 -2.49384 0
M  V30 4187 O 384.468 -4.35823 -3.67987 0
M  V30 4188 O 383.402 -5.60467 -2.19454 0
M  V30 4189 H 387.228 -3.0349 -0.112966 0
M  V30 4190 H 384.813 -1.49397 0.0101513 0
M  V30 4191 H 386.695 -3.35927 -2.54423 0
M  V30 4192 H 385.37 -2.17211 -2.40002 0
M  V30 4193 H 384.277 -3.68503 -0.644726 0
M  V30 4194 H 385.61 -4.84492 -0.867647 0
M  V30 4195 N 387.262 0.0317525 -1.57568 0
M  V30 4196 C 388.511 0.722131 -1.8833 0
M  V30 4197 C 388.824 1.76664 -0.839587 0
M  V30 4198 O 390.03 2.50942 -1.03635 0
M  V30 4199 C 388.486 1.33544 -3.34207 0
M  V30 4200 C 388.094 0.327415 -4.46802 0
M  V30 4201 C 389.838 2.00585 -3.7412 0
M  V30 4202 C 387.745 0.948915 -5.83738 0
M  V30 4203 H 386.675 0.273466 -0.702661 0
M  V30 4204 H 389.326 -0.0235811 -1.83485 0
M  V30 4205 H 387.708 2.13077 -3.33788 0
M  V30 4206 H 388.882 -0.441006 -4.58685 0
M  V30 4207 H 387.197 -0.240758 -4.15703 0
M  V30 4208 H 389.794 2.47932 -4.73744 0
M  V30 4209 H 390.137 2.82285 -3.05975 0
M  V30 4210 H 390.67 1.27831 -3.76702 0
M  V30 4211 H 387.409 0.171387 -6.55276 0
M  V30 4212 H 386.929 1.68724 -5.7558 0
M  V30 4213 H 388.608 1.45705 -6.3038 0
M  V30 4214 N 388.74 1.54641 0.303973 0
M  V30 4215 C 389.65 1.88439 1.39743 0
M  V30 4216 C 390.666 0.778239 1.55626 0
M  V30 4217 O 391.842 1.07442 1.70347 0
M  V30 4218 C 388.907 2.12212 2.74166 0
M  V30 4219 C 387.968 3.35936 2.67293 0
M  V30 4220 C 387.201 3.58566 3.95305 0
M  V30 4221 O 387.424 2.84263 4.9452 0
M  V30 4222 O 386.358 4.52078 3.97378 0
M  V30 4223 H 390.184 2.81458 1.14083 0
M  V30 4224 H 387.769 1.40793 0.499768 0
M  V30 4225 H 389.651 2.29067 3.53704 0
M  V30 4226 H 388.326 1.22379 2.99675 0
M  V30 4227 H 387.233 3.24448 1.86237 0
M  V30 4228 H 388.566 4.2589 2.46736 0
M  V30 4229 N 390.218 -0.567019 1.47046 0
M  V30 4230 C 391.166 -1.69593 1.59188 0
M  V30 4231 C 392.16 -1.63046 0.459609 0
M  V30 4232 O 393.366 -1.6835 0.637058 0
M  V30 4233 H 389.741 -0.560993 0.500791 0
M  V30 4234 H 391.712 -1.56488 2.54075 0
M  V30 4235 C 390.461 -3.07964 1.61411 0
M  V30 4236 H 389.784 -3.13679 2.47881 0
M  V30 4237 H 391.224 -3.86671 1.73958 0
M  V30 4238 C 389.683 -3.35123 0.34559 0
M  V30 4239 O 390.213 -3.97812 -0.557521 0
M  V30 4240 N 388.419 -2.89699 0.22864 0
M  V30 4241 H 387.966 -2.38863 0.964479 0
M  V30 4242 H 387.924 -3.08242 -0.619192 0
M  V30 4243 N 391.696 -1.35014 -0.812953 0
M  V30 4244 C 392.646 -1.23959 -1.91359 0
M  V30 4245 C 393.63 -0.136306 -1.60322 0
M  V30 4246 O 394.822 -0.366925 -1.73155 0
M  V30 4247 C 391.951 -1.00736 -3.28188 0
M  V30 4248 C 391.037 -2.15426 -3.65311 0
M  V30 4249 N 391.428 -3.40612 -3.73921 0
M  V30 4250 C 389.726 -2.06672 -3.95225 0
M  V30 4251 C 390.427 -4.15994 -4.06601 0
M  V30 4252 N 389.403 -3.44685 -4.20349 0
M  V30 4253 H 393.205 -2.18815 -1.96208 0
M  V30 4254 H 390.719 -1.27395 -1.00718 0
M  V30 4255 H 392.716 -0.909052 -4.06868 0
M  V30 4256 H 391.376 -0.067586 -3.2463 0
M  V30 4257 H 392.387 -3.75043 -3.5716 0
M  V30 4258 H 389.064 -1.20511 -3.99729 0
M  V30 4259 H 390.454 -5.24145 -4.20382 0
M  V30 4260 N 393.175 1.03435 -1.18907 0
M  V30 4261 C 394.586 1.58195 -0.991523 0
M  V30 4262 C 394.937 1.90801 0.457081 0
M  V30 4263 O 394.062 1.70272 1.33553 0
M  V30 4264 C 394.657 2.87432 -1.79355 0
M  V30 4265 C 393.216 3.38785 -1.64017 0
M  V30 4266 C 392.363 2.12292 -1.78402 0
M  V30 4267 H 395.314 0.860299 -1.33359 0
M  V30 4268 H 395.335 3.58096 -1.28638 0
M  V30 4269 H 394.847 2.63669 -2.84781 0
M  V30 4270 H 392.948 3.67547 -0.611536 0
M  V30 4271 H 393.061 4.12186 -2.44212 0
M  V30 4272 H 391.425 2.23901 -1.2141 0
M  V30 4273 H 392.208 1.90977 -2.85277 0
M  V30 4274 N 394.653 0.992116 1.22453 0
M  V30 4275 C 395.899 0.678177 1.91761 0
M  V30 4276 C 396.254 -0.781141 1.75829 0
M  V30 4277 O 395.547 -1.55747 1.11595 0
M  V30 4278 C 395.741 1.01832 3.42586 0
M  V30 4279 C 395.57 2.50916 3.73191 0
M  V30 4280 C 394.34 3.17308 3.93248 0
M  V30 4281 C 396.538 3.49032 3.77732 0
M  V30 4282 N 394.52 4.55876 4.11157 0
M  V30 4283 C 395.891 4.73055 4.00773 0
M  V30 4284 C 397.946 3.43349 3.60577 0
M  V30 4285 C 396.649 5.92089 4.0844 0
M  V30 4286 C 398.675 4.61759 3.69503 0
M  V30 4287 C 398.037 5.84582 3.92993 0
M  V30 4288 H 394.136 0.299425 0.722405 0
M  V30 4289 H 396.72 1.27197 1.47408 0
M  V30 4290 H 394.891 0.453118 3.85748 0
M  V30 4291 H 396.623 0.660454 3.99274 0
M  V30 4292 H 393.378 2.67778 3.9063 0
M  V30 4293 H 393.802 5.27748 4.24042 0
M  V30 4294 H 398.444 2.49408 3.41402 0
M  V30 4295 H 396.162 6.86435 4.26418 0
M  V30 4296 H 399.748 4.58951 3.57569 0
M  V30 4297 H 398.628 6.74676 3.99728 0
M  V30 4298 N 396.131 -1.37776 0.765217 0
M  V30 4299 C 397.061 -2.32945 0.160953 0
M  V30 4300 C 398.042 -1.55454 -0.690516 0
M  V30 4301 O 399.227 -1.83721 -0.629318 0
M  V30 4302 C 396.357 -3.39669 -0.724031 0
M  V30 4303 C 395.311 -4.27992 0.0256173 0
M  V30 4304 C 394.637 -5.25673 -0.978383 0
M  V30 4305 C 395.937 -5.08309 1.20082 0
M  V30 4306 H 397.631 -2.83728 0.955969 0
M  V30 4307 H 395.177 -1.36416 0.461149 0
M  V30 4308 H 397.13 -4.05219 -1.15652 0
M  V30 4309 H 395.854 -2.87396 -1.5515 0
M  V30 4310 H 394.513 -3.63964 0.438812 0
M  V30 4311 H 394.161 -4.69682 -1.80022 0
M  V30 4312 H 393.861 -5.85625 -0.481378 0
M  V30 4313 H 395.385 -5.94098 -1.40995 0
M  V30 4314 H 396.799 -5.67034 0.845307 0
M  V30 4315 H 395.196 -5.77554 1.62947 0
M  V30 4316 H 396.266 -4.41365 2.00811 0
M  V30 4317 N 397.609 -0.515225 -1.4894 0
M  V30 4318 C 398.541 0.292481 -2.27326 0
M  V30 4319 C 399.554 0.917838 -1.3446 0
M  V30 4320 O 400.743 0.798772 -1.5963 0
M  V30 4321 C 397.843 1.42803 -3.07344 0
M  V30 4322 C 397.016 0.907347 -4.27885 0
M  V30 4323 C 396.075 1.92222 -4.89834 0
M  V30 4324 O 395.101 1.48506 -5.49486 0
M  V30 4325 N 396.303 3.25355 -4.80754 0
M  V30 4326 H 399.068 -0.379721 -2.97285 0
M  V30 4327 H 396.629 -0.348638 -1.58102 0
M  V30 4328 H 398.621 2.10481 -3.45658 0
M  V30 4329 H 397.191 2.00414 -2.39902 0
M  V30 4330 H 396.411 0.0550218 -3.94162 0
M  V30 4331 H 397.699 0.538108 -5.05946 0
M  V30 4332 H 397.097 3.6355 -4.33414 0
M  V30 4333 H 395.654 3.88707 -5.23211 0
M  V30 4334 N 399.087 1.5561 -0.249682 0
M  V30 4335 C 400.335 1.98618 0.373548 0
M  V30 4336 C 400.656 1.13919 1.58264 0
M  V30 4337 O 399.926 0.222637 1.94631 0
M  V30 4338 H 398.506 0.733571 0.141006 0
M  V30 4339 H 401.168 1.91748 -0.349117 0
M  V30 4340 H 400.264 3.04584 0.680796 0
M  V30 4341 N 400.565 -0.0233959 1.57583 0
M  V30 4342 C 401.811 -0.714119 1.89811 0
M  V30 4343 C 402.144 -1.74702 0.848113 0
M  V30 4344 O 401.419 -1.94023 -0.136135 0
M  V30 4345 C 401.702 -1.37853 3.32669 0
M  V30 4346 C 401.555 -0.358764 4.48367 0
M  V30 4347 C 402.874 -2.31101 3.7454 0
M  V30 4348 H 399.993 -0.25814 0.690314 0
M  V30 4349 H 402.635 0.0230927 1.89986 0
M  V30 4350 H 400.785 -2.00689 3.3265 0
M  V30 4351 H 402.457 0.268115 4.6052 0
M  V30 4352 H 400.7 0.321387 4.32608 0
M  V30 4353 H 401.371 -0.862242 5.45224 0
M  V30 4354 H 403.847 -1.78304 3.75961 0
M  V30 4355 H 402.723 -2.74567 4.75294 0
M  V30 4356 H 402.984 -3.18018 3.0711 0
M  V30 4357 N 402.043 -1.548 -0.295768 0
M  V30 4358 C 403.32 -1.65014 -1.05023 0
M  V30 4359 C 403.7 -0.501805 -2.05049 0
M  V30 4360 O 403.048 0.500869 -2.22943 0
M  V30 4361 C 403.258 -3.03252 -1.72741 0
M  V30 4362 C 404.606 -3.60242 -2.24746 0
M  V30 4363 O 405.63 -3.05737 -1.82765 0
M  V30 4364 O 404.489 -4.55687 -3.01681 0
M  V30 4365 H 401.583 -0.669314 -0.485744 0
M  V30 4366 H 404.129 -1.67144 -0.293438 0
M  V30 4367 H 402.901 -3.7827 -1.00138 0
M  V30 4368 H 402.524 -3.04922 -2.55163 0
M  V30 4369 N 403.521 0.559213 -1.47345 0
M  V30 4370 C 404.932 1.14134 -1.47751 0
M  V30 4371 C 405.283 1.94834 -0.231103 0
M  V30 4372 O 404.408 2.05957 0.664137 0
M  V30 4373 C 405.003 2.07653 -2.67705 0
M  V30 4374 C 403.562 2.61141 -2.71076 0
M  V30 4375 C 402.709 1.3748 -2.40821 0
M  V30 4376 H 405.66 0.345917 -1.54884 0
M  V30 4377 H 405.681 2.91497 -2.44561 0
M  V30 4378 H 405.193 1.4889 -3.58404 0
M  V30 4379 H 403.294 3.23707 -1.84511 0
M  V30 4380 H 403.407 3.02272 -3.7171 0
M  V30 4381 H 401.771 1.68086 -1.91362 0
M  V30 4382 H 402.554 0.805135 -3.33725 0
M  V30 4383 N 404.999 1.35443 0.805782 0
M  V30 4384 C 406.224 1.32037 1.59941 0
M  V30 4385 C 406.649 -0.0994215 1.87837 0
M  V30 4386 O 406.007 -1.06648 1.46615 0
M  V30 4387 C 406.055 2.13354 2.90711 0
M  V30 4388 O 405.159 1.5148 3.83572 0
M  V30 4389 H 404.5 0.452666 0.485787 0
M  V30 4390 H 407.03 1.78496 1.00002 0
M  V30 4391 H 407.04 2.25338 3.40128 0
M  V30 4392 H 405.715 3.16572 2.69732 0
M  V30 4393 H 404.292 1.4834 3.42125 0
M  V30 4394 N 406.477 -1.02803 1.19454 0
M  V30 4395 C 407.888 -1.57667 0.999899 0
M  V30 4396 C 408.239 -1.91041 -0.446956 0
M  V30 4397 O 407.364 -1.70978 -1.32648 0
M  V30 4398 C 407.959 -2.86477 1.80877 0
M  V30 4399 C 406.518 -3.37911 1.65811 0
M  V30 4400 C 405.665 -2.11343 1.79526 0
M  V30 4401 H 408.616 -0.853214 1.33813 0
M  V30 4402 H 408.637 -3.57408 1.30536 0
M  V30 4403 H 408.149 -2.62155 2.86175 0
M  V30 4404 H 406.25 -3.67218 0.63102 0
M  V30 4405 H 406.363 -4.10885 2.46395 0
M  V30 4406 H 404.727 -2.23254 1.22596 0
M  V30 4407 H 405.51 -1.89461 2.86285 0
M  V30 4408 N 407.956 -0.998596 -1.21925 0
M  V30 4409 C 408.919 -0.558679 -2.22287 0
M  V30 4410 C 409.919 0.361525 -1.56683 0
M  V30 4411 O 411.109 0.152695 -1.73529 0
M  V30 4412 C 408.241 0.18661 -3.40389 0
M  V30 4413 H 409.434 -1.4463 -2.62721 0
M  V30 4414 H 406.987 -0.786413 -1.35075 0
M  V30 4415 H 407.722 1.08996 -3.05435 0
M  V30 4416 H 407.507 -0.474188 -3.89222 0
M  V30 4417 H 408.997 0.482367 -4.14805 0
M  V30 4418 N 409.434 1.37368 -0.772513 0
M  V30 4419 C 410.662 2.03942 -0.348588 0
M  V30 4420 C 411.077 1.58264 1.02947 0
M  V30 4421 O 410.434 0.764246 1.65727 0
M  V30 4422 C 410.485 3.5946 -0.38351 0
M  V30 4423 O 410.206 4.03468 -1.70721 0
M  V30 4424 C 411.707 4.4327 0.0519152 0
M  V30 4425 H 408.927 0.654931 -0.145966 0
M  V30 4426 H 411.471 1.75686 -1.04665 0
M  V30 4427 H 409.626 3.86486 0.265978 0
M  V30 4428 H 410.04 4.97991 -1.64636 0
M  V30 4429 H 411.514 5.51995 -0.0236733 0
M  V30 4430 H 411.991 4.2514 1.10238 0
M  V30 4431 H 412.597 4.21471 -0.569415 0
M  V30 4432 N 410.912 0.523116 1.48665 0
M  V30 4433 C 411.859 -0.243398 2.29513 0
M  V30 4434 C 412.829 -0.940139 1.36933 0
M  V30 4435 O 414.014 -0.942503 1.65896 0
M  V30 4436 C 411.154 -1.28855 3.20141 0
M  V30 4437 C 410.267 -0.60135 4.27794 0
M  V30 4438 C 409.402 -1.62884 5.05611 0
M  V30 4439 C 408.441 -0.924726 6.05075 0
M  V30 4440 N 407.578 -1.89744 6.75975 0
M  V30 4441 H 412.418 0.452234 2.94549 0
M  V30 4442 H 409.955 0.234858 1.45213 0
M  V30 4443 H 411.913 -1.90674 3.71079 0
M  V30 4444 H 410.543 -1.95266 2.57043 0
M  V30 4445 H 409.595 0.130623 3.80176 0
M  V30 4446 H 410.907 -0.0481585 4.98777 0
M  V30 4447 H 410.061 -2.32149 5.60528 0
M  V30 4448 H 408.8 -2.21592 4.34452 0
M  V30 4449 H 407.805 -0.217966 5.49368 0
M  V30 4450 H 409.03 -0.343851 6.78229 0
M  V30 4451 H 406.976 -2.47373 6.07571 0
M  V30 4452 H 406.893 -1.3955 7.43009 0
M  V30 4453 H 408.161 -2.58229 7.35485 0
M  V30 4454 N 412.39 -1.55475 0.257931 0
M  V30 4455 C 413.62 -2.03314 -0.367026 0
M  V30 4456 C 414.028 -1.13625 -1.51281 0
M  V30 4457 O 413.371 -0.145334 -1.83124 0
M  V30 4458 C 413.433 -3.47362 -0.926284 0
M  V30 4459 C 413.097 -4.56914 0.0886584 0
M  V30 4460 C 414.094 -5.12013 0.902123 0
M  V30 4461 C 411.779 -5.01827 0.217936 0
M  V30 4462 C 413.773 -6.10529 1.83122 0
M  V30 4463 C 411.46 -6.00172 1.15052 0
M  V30 4464 C 412.458 -6.54402 1.95568 0
M  V30 4465 O 412.146 -7.50827 2.87253 0
M  V30 4466 H 411.878 -0.669976 -0.0900443 0
M  V30 4467 H 414.432 -2.01804 0.382673 0
M  V30 4468 H 412.662 -3.46056 -1.72575 0
M  V30 4469 H 414.351 -3.78637 -1.46249 0
M  V30 4470 H 415.117 -4.78139 0.812891 0
M  V30 4471 H 410.996 -4.59272 -0.398721 0
M  V30 4472 H 414.54 -6.52783 2.46008 0
M  V30 4473 H 410.437 -6.33465 1.24064 0
M  V30 4474 H 411.205 -7.68483 2.81739 0
M  V30 4475 N 413.868 0.0150385 -1.57593 0
M  V30 4476 C 414.816 1.02958 -2.08572 0
M  V30 4477 C 415.81 1.36554 -1.00246 0
M  V30 4478 O 417.016 1.35295 -1.18724 0
M  V30 4479 H 413.391 0.349619 -0.665786 0
M  V30 4480 H 415.362 0.573932 -2.92829 0
M  V30 4481 C 414.111 2.31752 -2.59203 0
M  V30 4482 H 413.434 2.06765 -3.42182 0
M  V30 4483 H 414.874 3.01053 -2.98568 0
M  V30 4484 C 413.333 3.01692 -1.49945 0
M  V30 4485 O 413.863 3.92083 -0.873704 0
M  V30 4486 N 412.069 2.6326 -1.23056 0
M  V30 4487 H 411.616 1.89838 -1.74125 0
M  V30 4488 H 411.574 3.10372 -0.501685 0
M  V30 4489 N 415.346 1.54954 0.287554 0
M  V30 4490 C 416.595 1.74081 1.01877 0
M  V30 4491 C 416.908 0.541135 1.87966 0
M  V30 4492 O 418.114 0.614491 2.64455 0
M  V30 4493 C 416.57 3.08042 1.86113 0
M  V30 4494 C 416.178 4.35531 1.04961 0
M  V30 4495 C 417.922 3.36523 2.58752 0
M  V30 4496 C 415.829 5.60538 1.88551 0
M  V30 4497 H 414.759 0.64884 0.384087 0
M  V30 4498 H 417.41 1.81426 0.275101 0
M  V30 4499 H 415.792 2.94696 2.64519 0
M  V30 4500 H 416.966 4.59751 0.31074 0
M  V30 4501 H 415.281 4.14085 0.43843 0
M  V30 4502 H 417.878 4.27122 3.21668 0
M  V30 4503 H 418.221 2.56 3.28283 0
M  V30 4504 H 418.754 3.50901 1.87386 0
M  V30 4505 H 415.493 6.43767 1.23466 0
M  V30 4506 H 415.013 5.40483 2.60074 0
M  V30 4507 H 416.692 5.98297 2.46273 0
M  V30 4508 N 416.824 -0.551391 1.4764 0
M  V30 4509 C 418.235 -1.13349 1.48354 0
M  V30 4510 C 418.586 -1.94709 0.241432 0
M  V30 4511 O 417.711 -2.06306 -0.653205 0
M  V30 4512 C 418.306 -2.0623 2.68802 0
M  V30 4513 C 416.865 -2.597 2.72457 0
M  V30 4514 C 416.012 -1.36201 2.41546 0
M  V30 4515 H 418.963 -0.337698 1.55065 0
M  V30 4516 H 418.984 -2.90196 2.46103 0
M  V30 4517 H 418.496 -1.46987 3.59188 0
M  V30 4518 H 416.597 -3.22724 1.86225 0
M  V30 4519 H 416.71 -3.00296 3.73308 0
M  V30 4520 H 415.074 -1.67068 1.9225 0
M  V30 4521 H 415.857 -0.787425 3.34147 0
M  V30 4522 N 418.302 -1.35869 -0.798587 0
M  V30 4523 C 419.232 -1.32118 -1.92528 0
M  V30 4524 C 420.213 -0.194209 -1.68988 0
M  V30 4525 O 421.398 -0.390426 -1.90235 0
M  V30 4526 C 418.528 -1.10047 -3.29404 0
M  V30 4527 C 417.482 -2.19471 -3.67446 0
M  V30 4528 C 416.808 -1.82555 -5.02571 0
M  V30 4529 C 418.108 -3.61495 -3.76987 0
M  V30 4530 H 419.802 -2.26394 -1.95924 0
M  V30 4531 H 417.348 -1.08981 -0.94123 0
M  V30 4532 H 419.301 -1.06061 -4.07835 0
M  V30 4533 H 418.025 -0.122195 -3.26371 0
M  V30 4534 H 416.684 -2.22568 -2.91306 0
M  V30 4535 H 416.332 -0.833249 -4.9605 0
M  V30 4536 H 416.032 -2.5581 -5.28995 0
M  V30 4537 H 417.556 -1.80108 -5.83432 0
M  V30 4538 H 418.97 -3.60676 -4.4563 0
M  V30 4539 H 417.367 -4.33577 -4.14887 0
M  V30 4540 H 418.437 -3.97065 -2.78329 0
M  V30 4541 N 419.78 1.02168 -1.19998 0
M  V30 4542 C 421.026 1.75945 -1.00852 0
M  V30 4543 C 421.359 1.88702 0.458828 0
M  V30 4544 O 420.634 1.40911 1.34069 0
M  V30 4545 C 420.917 3.18154 -1.68671 0
M  V30 4546 C 420.77 3.13224 -3.22817 0
M  V30 4547 C 422.089 4.16711 -1.41561 0
M  V30 4548 H 419.208 0.638673 -0.367785 0
M  V30 4549 H 421.85 1.19222 -1.4794 0
M  V30 4550 H 420 3.66586 -1.28636 0
M  V30 4551 H 421.672 2.72635 -3.72112 0
M  V30 4552 H 419.915 2.50751 -3.53986 0
M  V30 4553 H 420.586 4.13728 -3.65422 0
M  V30 4554 H 423.062 3.76913 -1.76284 0
M  V30 4555 H 421.938 5.14391 -1.91553 0
M  V30 4556 H 422.199 4.40774 -0.342193 0
M  V30 4557 N 421.258 1.00505 1.21394 0
M  V30 4558 C 422.483 0.706367 1.95001 0
M  V30 4559 C 422.908 -0.72463 1.73582 0
M  V30 4560 O 422.266 -1.49702 1.0227 0
M  V30 4561 C 422.314 1.03299 3.45487 0
M  V30 4562 O 421.418 0.138275 4.12168 0
M  V30 4563 H 420.759 0.263175 0.609619 0
M  V30 4564 H 423.289 1.34531 1.54151 0
M  V30 4565 H 423.299 0.979872 3.96059 0
M  V30 4566 H 421.974 2.07567 3.60401 0
M  V30 4567 H 420.551 0.247928 3.72075 0
M  V30 4568 N 422.737 -1.36956 0.779787 0
M  V30 4569 C 423.967 -2.03459 0.358877 0
M  V30 4570 C 424.375 -1.58939 -1.02641 0
M  V30 4571 O 423.718 -0.769777 -1.66794 0
M  V30 4572 C 423.78 -3.5796 0.332393 0
M  V30 4573 C 423.444 -4.25644 1.66362 0
M  V30 4574 C 424.441 -4.49205 2.61746 0
M  V30 4575 C 422.126 -4.63313 1.94027 0
M  V30 4576 C 424.12 -5.09503 3.82996 0
M  V30 4577 C 421.807 -5.2333 3.15546 0
M  V30 4578 C 422.805 -5.46363 4.0985 0
M  V30 4579 O 422.493 -6.05122 5.29228 0
M  V30 4580 H 422.225 -0.659767 0.147254 0
M  V30 4581 H 424.779 -1.76111 1.05708 0
M  V30 4582 H 423.009 -3.84388 -0.422237 0
M  V30 4583 H 424.698 -4.05852 -0.0625389 0
M  V30 4584 H 425.464 -4.20508 2.41657 0
M  V30 4585 H 421.343 -4.44715 1.21448 0
M  V30 4586 H 424.887 -5.27397 4.56617 0
M  V30 4587 H 420.784 -5.51451 3.35517 0
M  V30 4588 H 421.552 -6.23595 5.30161 0
M  V30 4589 N 424.215 -0.530993 -1.48385 0
M  V30 4590 C 425.162 0.231223 -2.29639 0
M  V30 4591 C 426.132 0.932864 -1.37429 0
M  V30 4592 O 427.317 0.933692 -1.66394 0
M  V30 4593 C 424.457 1.27155 -3.2082 0
M  V30 4594 C 423.57 0.578655 -4.28107 0
M  V30 4595 C 422.705 1.602 -5.06467 0
M  V30 4596 C 421.744 0.892625 -6.05556 0
M  V30 4597 N 420.881 1.86157 -6.76971 0
M  V30 4598 H 425.721 -0.467848 -2.94305 0
M  V30 4599 H 423.258 -0.242556 -1.45086 0
M  V30 4600 H 425.216 1.88703 -3.72085 0
M  V30 4601 H 423.846 1.939 -2.58075 0
M  V30 4602 H 422.898 -0.150782 -3.80101 0
M  V30 4603 H 424.21 0.0217065 -4.98795 0
M  V30 4604 H 423.364 2.29173 -5.61751 0
M  V30 4605 H 422.103 2.19285 -4.35621 0
M  V30 4606 H 421.108 0.188829 -5.49476 0
M  V30 4607 H 422.333 0.307878 -6.78402 0
M  V30 4608 H 420.279 2.44147 -6.08875 0
M  V30 4609 H 420.196 1.35608 -7.43738 0
M  V30 4610 H 421.464 2.54325 -7.36844 0
M  V30 4611 N 425.693 1.55336 -0.266172 0
M  V30 4612 C 426.641 2.23587 0.641228 0
M  V30 4613 C 427.635 1.22986 1.16494 0
M  V30 4614 O 428.841 1.40943 1.1196 0
M  V30 4615 H 425.216 0.717452 0.225315 0
M  V30 4616 H 427.187 2.9837 0.0426561 0
M  V30 4617 C 425.936 2.96369 1.81826 0
M  V30 4618 H 425.259 3.73563 1.42445 0
M  V30 4619 H 426.699 3.47459 2.42998 0
M  V30 4620 C 425.158 2.0133 2.70125 0
M  V30 4621 O 425.688 1.55875 3.70224 0
M  V30 4622 N 423.894 1.6802 2.37102 0
M  V30 4623 H 423.441 2.05181 1.55751 0
M  V30 4624 H 423.399 1.047 2.96454 0
M  V30 4625 N 427.171 -0.0066808 1.57599 0
M  V30 4626 C 428.101 -0.999296 2.11036 0
M  V30 4627 C 429.082 -1.36278 1.01795 0
M  V30 4628 O 430.267 -1.4477 1.29442 0
M  V30 4629 C 427.397 -2.29328 2.60818 0
M  V30 4630 C 426.351 -2.07159 3.74525 0
M  V30 4631 C 425.677 -3.42512 4.10596 0
M  V30 4632 C 426.977 -1.43959 5.02069 0
M  V30 4633 H 428.671 -0.554382 2.94223 0
M  V30 4634 H 426.217 -0.265221 1.41536 0
M  V30 4635 H 428.17 -2.99117 2.96828 0
M  V30 4636 H 426.894 -2.7592 1.74745 0
M  V30 4637 H 425.553 -1.39797 3.38899 0
M  V30 4638 H 425.201 -3.86795 3.21556 0
M  V30 4639 H 424.901 -3.28498 4.87199 0
M  V30 4640 H 426.425 -4.13628 4.4916 0
M  V30 4641 H 427.839 -2.03696 5.35893 0
M  V30 4642 H 426.236 -1.40452 5.83432 0
M  V30 4643 H 427.306 -0.407992 4.83181 0
M  V30 4644 N 428.649 -1.55105 -0.279332 0
M  V30 4645 C 429.874 -1.7976 -1.03446 0
M  V30 4646 C 430.299 -0.565952 -1.79384 0
M  V30 4647 O 429.657 0.484259 -1.74713 0
M  V30 4648 C 429.705 -3.0179 -1.97371 0
M  V30 4649 O 428.809 -2.76432 -3.06038 0
M  V30 4650 H 428.15 -0.594334 -0.29608 0
M  V30 4651 H 430.68 -2.02235 -0.310165 0
M  V30 4652 H 430.69 -3.30351 -2.39441 0
M  V30 4653 H 429.365 -3.91085 -1.4151 0
M  V30 4654 H 427.942 -2.58949 -2.68328 0
M  V30 4655 N 430.127 0.543554 -1.4793 0
M  V30 4656 C 431.037 1.67657 -1.64098 0
M  V30 4657 C 432.053 1.65934 -0.523622 0
M  V30 4658 O 433.229 1.85133 -0.792943 0
M  V30 4659 C 430.294 3.04146 -1.66421 0
M  V30 4660 C 429.355 3.16831 -2.89684 0
M  V30 4661 C 428.588 4.46809 -2.91886 0
M  V30 4662 O 428.811 5.33095 -2.02895 0
M  V30 4663 O 427.745 4.63573 -3.83906 0
M  V30 4664 H 431.571 1.56957 -2.59997 0
M  V30 4665 H 429.156 0.715116 -1.31173 0
M  V30 4666 H 431.038 3.85346 -1.70548 0
M  V30 4667 H 429.713 3.152 -0.736923 0
M  V30 4668 H 428.62 2.34977 -2.91095 0
M  V30 4669 H 429.953 3.10687 -3.81752 0
M  V30 4670 N 431.605 1.3629 0.791371 0
M  V30 4671 C 432.515 1.32606 1.93527 0
M  V30 4672 C 433.531 0.228541 1.72493 0
M  V30 4673 O 434.707 0.460571 1.96063 0
M  V30 4674 C 431.772 1.11271 3.28359 0
M  V30 4675 C 430.833 2.3048 3.62185 0
M  V30 4676 C 430.066 2.10154 4.90583 0
M  V30 4677 O 430.289 1.07572 5.60165 0
M  V30 4678 O 429.223 2.97884 5.23019 0
M  V30 4679 H 433.049 2.28909 1.99585 0
M  V30 4680 H 430.634 1.16818 0.931344 0
M  V30 4681 H 432.516 1.01283 4.09047 0
M  V30 4682 H 431.191 0.180292 3.23198 0
M  V30 4683 H 430.098 2.46036 2.81811 0
M  V30 4684 H 431.431 3.22221 3.72068 0
M  V30 4685 N 433.083 -1.0153 1.20538 0
M  V30 4686 C 433.993 -2.13557 0.971113 0
M  V30 4687 C 435.009 -1.73845 -0.0734366 0
M  V30 4688 O 436.185 -2.01075 0.114299 0
M  V30 4689 C 433.25 -3.42661 0.527639 0
M  V30 4690 C 432.311 -3.96608 1.64319 0
M  V30 4691 C 431.544 -5.1955 1.22078 0
M  V30 4692 O 431.767 -5.70329 0.0900198 0
M  V30 4693 O 430.701 -5.66681 2.02871 0
M  V30 4694 H 434.527 -2.3619 1.90913 0
M  V30 4695 H 432.112 -1.11946 0.989362 0
M  V30 4696 H 433.994 -4.20404 0.289621 0
M  V30 4697 H 432.669 -3.21441 -0.381779 0
M  V30 4698 H 431.576 -3.20139 1.93551 0
M  V30 4699 H 432.909 -4.22219 2.52966 0
M  V30 4700 N 434.561 -1.01147 -1.20859 0
M  V30 4701 C 435.511 -0.548247 -2.2131 0
M  V30 4702 C 436.495 0.393646 -1.5601 0
M  V30 4703 O 437.687 0.217445 -1.75659 0
M  V30 4704 C 434.816 0.117252 -3.431 0
M  V30 4705 C 433.902 -0.846043 -4.15575 0
M  V30 4706 N 434.293 -2.00149 -4.64515 0
M  V30 4707 C 432.591 -0.665783 -4.41003 0
M  V30 4708 C 433.292 -2.60764 -5.19978 0
M  V30 4709 N 432.268 -1.88868 -5.09735 0
M  V30 4710 H 436.07 -1.42921 -2.56809 0
M  V30 4711 H 433.584 -0.876142 -1.36739 0
M  V30 4712 H 435.581 0.46662 -4.1428 0
M  V30 4713 H 434.241 0.994115 -3.09107 0
M  V30 4714 H 435.252 -2.38162 -4.5989 0
M  V30 4715 H 431.929 0.163456 -4.1718 0
M  V30 4716 H 433.319 -3.58519 -5.68255 0
M  V30 4717 N 436.039 1.36541 -0.78704 0
M  V30 4718 C 436.987 2.31965 -0.171724 0
M  V30 4719 C 437.981 1.55689 0.667631 0
M  V30 4720 O 439.187 1.70969 0.562981 0
M  V30 4721 H 435.562 0.751101 -0.0367545 0
M  V30 4722 H 437.533 2.81428 -0.992017 0
M  V30 4723 C 436.282 3.40968 0.680904 0
M  V30 4724 H 435.605 3.99775 0.0443961 0
M  V30 4725 H 437.045 4.10063 1.07815 0
M  V30 4726 C 435.504 2.82338 1.83813 0
M  V30 4727 O 436.034 2.74311 2.93456 0
M  V30 4728 N 434.24 2.39661 1.6435 0
M  V30 4729 H 433.787 2.46389 0.751668 0
M  V30 4730 H 433.745 2.00779 2.4194 0
M  V30 4731 N 437.518 0.538854 1.48102 0
M  V30 4732 C 438.743 0.0102694 2.07397 0
M  V30 4733 C 439.168 -1.26562 1.39153 0
M  V30 4734 O 438.526 -1.75357 0.460387 0
M  V30 4735 C 438.574 -0.187602 3.60112 0
M  V30 4736 O 437.678 -1.25432 3.92862 0
M  V30 4737 H 437.019 0.0430975 0.6626 0
M  V30 4738 H 439.549 0.749301 1.90385 0
M  V30 4739 H 439.559 -0.407517 4.0596 0
M  V30 4740 H 438.234 0.744386 4.09184 0
M  V30 4741 H 436.811 -1.01636 3.58782 0
M  V30 4742 N 438.996 -1.55193 0.274407 0
M  V30 4743 C 440.245 -1.98758 -0.343213 0
M  V30 4744 C 440.558 -1.16624 -1.5703 0
M  V30 4745 O 441.764 -1.5033 -2.26082 0
M  V30 4746 C 440.22 -3.53759 -0.661996 0
M  V30 4747 C 439.828 -4.4467 0.54524 0
M  V30 4748 C 441.572 -4.05916 -1.24228 0
M  V30 4749 C 439.479 -5.91058 0.201084 0
M  V30 4750 H 438.409 -0.742353 -0.132014 0
M  V30 4751 H 441.06 -1.79545 0.378948 0
M  V30 4752 H 439.442 -3.68772 -1.44304 0
M  V30 4753 H 440.616 -4.41426 1.32212 0
M  V30 4754 H 438.931 -4.03143 1.04232 0
M  V30 4755 H 441.528 -5.12831 -1.51357 0
M  V30 4756 H 441.871 -3.54908 -2.17592 0
M  V30 4757 H 442.404 -3.9434 -0.523542 0
M  V30 4758 H 439.143 -6.46161 1.10258 0
M  V30 4759 H 438.663 -5.97373 -0.539045 0
M  V30 4760 H 440.342 -6.46669 -0.206954 0
M  V30 4761 N 440.474 -0.00167713 -1.576 0
M  V30 4762 C 441.723 0.682021 -1.89819 0
M  V30 4763 C 442.036 1.74844 -0.876871 0
M  V30 4764 O 443.242 2.48688 -1.08934 0
M  V30 4765 C 441.698 1.26425 -3.36964 0
M  V30 4766 C 441.306 0.232568 -4.47396 0
M  V30 4767 C 443.05 1.92604 -3.78291 0
M  V30 4768 C 440.957 0.824882 -5.85619 0
M  V30 4769 H 439.887 0.258499 -0.708304 0
M  V30 4770 H 442.538 -0.0624957 -1.83394 0
M  V30 4771 H 440.92 2.05949 -3.38232 0
M  V30 4772 H 442.094 -0.5382 -4.57646 0
M  V30 4773 H 440.409 -0.32888 -4.15099 0
M  V30 4774 H 443.006 2.37827 -4.78897 0
M  V30 4775 H 443.349 2.75732 -3.11894 0
M  V30 4776 H 443.882 1.19812 -3.79328 0
M  V30 4777 H 440.621 0.0323542 -6.55492 0
M  V30 4778 H 440.141 1.56477 -5.79029 0
M  V30 4779 H 441.82 1.32301 -6.33329 0
M  V30 4780 N 441.952 1.55251 0.271103 0
M  V30 4781 C 442.884 1.84675 1.35749 0
M  V30 4782 C 443.897 0.731366 1.45447 0
M  V30 4783 O 445.086 1.00924 1.4723 0
M  V30 4784 C 442.186 1.99638 2.73857 0
M  V30 4785 C 441.359 3.30312 2.86727 0
M  V30 4786 C 440.418 3.35318 4.05522 0
M  V30 4787 O 439.444 4.08682 3.96191 0
M  V30 4788 N 440.646 2.62857 5.17577 0
M  V30 4789 H 443.411 2.78445 1.10853 0
M  V30 4790 H 440.972 1.55191 0.461218 0
M  V30 4791 H 442.964 2.00355 3.51625 0
M  V30 4792 H 441.534 1.12725 2.91568 0
M  V30 4793 H 440.754 3.42118 1.95829 0
M  V30 4794 H 442.042 4.16488 2.92258 0
M  V30 4795 H 441.44 2.02939 5.28046 0
M  V30 4796 H 439.997 2.69295 5.93568 0
M  V30 4797 N 443.43 -0.535701 1.48216 0
M  V30 4798 C 444.846 -0.863701 1.3421 0
M  V30 4799 C 445.046 -1.98458 0.34879 0
M  V30 4800 O 444.102 -2.51432 -0.23204 0
M  V30 4801 C 445.415 -1.23662 2.74095 0
M  V30 4802 C 446.963 -1.34683 2.82541 0
M  V30 4803 C 447.438 -1.75322 4.23115 0
M  V30 4804 N 448.929 -1.82434 4.2576 0
M  V30 4805 C 449.664 -2.15252 5.31464 0
M  V30 4806 N 449.16 -2.46533 6.47452 0
M  V30 4807 N 450.953 -2.16209 5.18855 0
M  V30 4808 H 443.104 0.203965 2.11418 0
M  V30 4809 H 445.367 0.0286033 0.947568 0
M  V30 4810 H 445.073 -0.486674 3.48316 0
M  V30 4811 H 444.947 -2.18805 3.07253 0
M  V30 4812 H 447.334 -2.08756 2.08579 0
M  V30 4813 H 447.415 -0.376756 2.5301 0
M  V30 4814 H 447.059 -1.01812 4.97591 0
M  V30 4815 H 446.989 -2.7337 4.50085 0
M  V30 4816 H 449.48 -1.6056 3.42095 0
M  V30 4817 H 449.793 -2.70662 7.23852 0
M  V30 4818 H 448.138 -2.44065 6.50736 0
M  V30 4819 H 451.329 -1.91224 4.2726 0
M  V30 4820 H 451.502 -2.41453 6.01335 0
M  V30 4821 N 444.908 -1.36708 -0.784132 0
M  V30 4822 C 445.841 -1.25827 -1.90375 0
M  V30 4823 C 446.819 -0.141331 -1.61985 0
M  V30 4824 O 448.003 -0.313389 -1.85877 0
M  V30 4825 C 445.13 -0.942621 -3.25319 0
M  V30 4826 C 444.176 -2.07474 -3.72635 0
M  V30 4827 S 445.009 -3.69317 -3.8777 0
M  V30 4828 C 446.165 -3.39876 -5.25581 0
M  V30 4829 H 446.398 -2.20593 -1.99314 0
M  V30 4830 H 443.931 -1.22186 -0.943926 0
M  V30 4831 H 445.889 -0.767321 -4.03265 0
M  V30 4832 H 444.55 -0.0126566 -3.14097 0
M  V30 4833 H 443.743 -1.80858 -4.70432 0
M  V30 4834 H 443.345 -2.20953 -3.01754 0
M  V30 4835 H 445.637 -2.94097 -6.10339 0
M  V30 4836 H 446.58 -4.36956 -5.57203 0
M  V30 4837 H 446.988 -2.75098 -4.92931 0
M  V30 4838 N 446.386 1.0089 -1.21074 0
M  V30 4839 C 447.632 1.74866 -1.02712 0
M  V30 4840 C 447.965 1.89178 0.438787 0
M  V30 4841 O 447.24 1.42325 1.32567 0
M  V30 4842 C 447.523 3.16347 -1.72036 0
M  V30 4843 C 447.376 3.09782 -3.26121 0
M  V30 4844 C 448.695 4.15187 -1.45973 0
M  V30 4845 H 445.814 0.634736 -0.374539 0
M  V30 4846 H 448.456 1.17646 -1.49196 0
M  V30 4847 H 446.606 3.65201 -1.32517 0
M  V30 4848 H 448.278 2.68673 -3.74983 0
M  V30 4849 H 446.521 2.46982 -3.56626 0
M  V30 4850 H 447.192 4.09829 -3.6979 0
M  V30 4851 H 449.668 3.75022 -1.80272 0
M  V30 4852 H 448.544 5.12331 -1.96999 0
M  V30 4853 H 448.805 4.40386 -0.388924 0
M  V30 4854 N 447.864 1.01787 1.20321 0
M  V30 4855 C 448.794 0.609625 2.25401 0
M  V30 4856 C 449.775 -0.375951 1.65893 0
M  V30 4857 O 450.96 -0.261101 1.92437 0
M  V30 4858 C 448.09 -0.0515995 3.47262 0
M  V30 4859 C 447.044 0.855095 4.19371 0
M  V30 4860 C 446.37 0.0595757 5.34667 0
M  V30 4861 C 447.67 2.16374 4.75373 0
M  V30 4862 H 449.364 1.48803 2.59804 0
M  V30 4863 H 446.91 0.716934 1.24884 0
M  V30 4864 H 448.863 -0.348764 4.19954 0
M  V30 4865 H 447.587 -0.964726 3.12027 0
M  V30 4866 H 446.246 1.13628 3.48546 0
M  V30 4867 H 445.894 -0.85524 4.95676 0
M  V30 4868 H 445.594 0.663406 5.83843 0
M  V30 4869 H 447.118 -0.231105 6.10162 0
M  V30 4870 H 448.532 1.92885 5.39878 0
M  V30 4871 H 446.929 2.71853 5.34991 0
M  V30 4872 H 447.999 2.82589 3.94045 0
M  V30 4873 N 449.342 -1.36122 0.79427 0
M  V30 4874 C 450.59 -1.98718 0.368177 0
M  V30 4875 C 450.911 -1.63345 -1.06506 0
M  V30 4876 O 450.181 -0.909825 -1.73491 0
M  V30 4877 H 448.761 -0.735038 0.133146 0
M  V30 4878 H 451.423 -1.66239 1.01739 0
M  V30 4879 H 450.519 -3.08633 0.463923 0
M  V30 4880 N 450.82 -0.546701 -1.47814 0
M  V30 4881 C 452.097 0.0464413 -1.95545 0
M  V30 4882 C 452.477 1.4962 -1.48919 0
M  V30 4883 O 451.825 2.16752 -0.723232 0
M  V30 4884 C 452.035 -0.0881298 -3.48889 0
M  V30 4885 C 453.383 0.0626059 -4.24554 0
M  V30 4886 O 454.407 -0.0151555 -3.56197 0
M  V30 4887 O 453.266 0.228071 -5.46024 0
M  V30 4888 H 450.36 0.0700004 -0.824032 0
M  V30 4889 H 452.906 -0.612482 -1.58262 0
M  V30 4890 H 451.678 -1.09737 -3.75597 0
M  V30 4891 H 451.301 0.608886 -3.9291 0
M  V30 4892 N 452.299 1.55045 -0.282633 0
M  V30 4893 C 453.548 1.98938 0.332667 0
M  V30 4894 C 453.861 1.17455 1.56409 0
M  V30 4895 O 455.067 1.51527 2.25282 0
M  V30 4896 C 453.523 3.54105 0.643226 0
M  V30 4897 C 453.131 4.44374 -0.568814 0
M  V30 4898 C 454.875 4.06569 1.22074 0
M  V30 4899 C 452.782 5.90943 -0.232426 0
M  V30 4900 H 451.712 0.743043 0.128075 0
M  V30 4901 H 454.363 1.79341 -0.388464 0
M  V30 4902 H 452.745 3.69532 1.42346 0
M  V30 4903 H 453.919 4.40718 -1.34551 0
M  V30 4904 H 452.234 4.02585 -1.06369 0
M  V30 4905 H 454.831 5.13626 1.48635 0
M  V30 4906 H 455.174 3.56057 2.15707 0
M  V30 4907 H 455.707 3.94612 0.502621 0
M  V30 4908 H 452.446 6.45567 -1.13683 0
M  V30 4909 H 451.966 5.9765 0.507357 0
M  V30 4910 H 453.645 6.4677 0.172657 0
M  V30 4911 N 453.777 0.010035 1.57597 0
M  V30 4912 C 454.74 -0.963029 2.07986 0
M  V30 4913 C 455.74 -1.26619 0.991173 0
M  V30 4914 O 456.93 -1.2097 1.25347 0
M  V30 4915 C 454.062 -2.2851 2.52974 0
M  V30 4916 H 455.255 -0.526971 2.95234 0
M  V30 4917 H 452.808 -0.237639 1.54483 0
M  V30 4918 H 453.543 -2.76784 1.69 0
M  V30 4919 H 453.328 -2.07824 3.32493 0
M  V30 4920 H 454.818 -2.98294 2.9225 0
M  V30 4921 N 455.255 -1.55392 -0.262866 0
M  V30 4922 C 456.532 -1.67204 -1.01499 0
M  V30 4923 C 456.912 -0.545186 -2.03939 0
M  V30 4924 O 456.26 0.453467 -2.23955 0
M  V30 4925 C 456.47 -3.06847 -1.6627 0
M  V30 4926 C 457.818 -3.64928 -2.17054 0
M  V30 4927 O 458.842 -3.09545 -1.76239 0
M  V30 4928 O 457.701 -4.61984 -2.91947 0
M  V30 4929 H 454.795 -0.679467 -0.471438 0
M  V30 4930 H 457.341 -1.67729 -0.257918 0
M  V30 4931 H 456.113 -3.80309 -0.920915 0
M  V30 4932 H 455.736 -3.10266 -2.48638 0
M  V30 4933 N 456.733 0.527833 -1.48498 0
M  V30 4934 C 458.149 0.856571 -1.34666 0
M  V30 4935 C 458.349 1.98271 -0.35931 0
M  V30 4936 O 457.405 2.51551 0.218703 0
M  V30 4937 C 458.718 1.22207 -2.74747 0
M  V30 4938 C 460.266 1.33183 -2.83251 0
M  V30 4939 C 460.741 1.73075 -4.24039 0
M  V30 4940 N 462.232 1.80174 -4.26722 0
M  V30 4941 C 462.967 2.1243 -5.32598 0
M  V30 4942 N 462.463 2.43096 -6.4875 0
M  V30 4943 N 464.256 2.13454 -5.19994 0
M  V30 4944 H 456.407 -0.215174 -2.11307 0
M  V30 4945 H 458.67 -0.0336281 -0.947403 0
M  V30 4946 H 458.376 0.468195 -3.4857 0
M  V30 4947 H 458.25 2.17173 -3.08409 0
M  V30 4948 H 460.637 2.07647 -2.09683 0
M  V30 4949 H 460.718 0.363333 -2.53206 0
M  V30 4950 H 460.362 0.991712 -4.98124 0
M  V30 4951 H 460.292 2.70979 -4.51529 0
M  V30 4952 H 462.783 1.58744 -3.42942 0
M  V30 4953 H 463.096 2.6682 -7.25277 0
M  V30 4954 H 461.441 2.40611 -6.52021 0
M  V30 4955 H 464.632 1.88956 -4.28268 0
M  V30 4956 H 464.805 2.38261 -6.02608 0
M  V30 4957 N 458.211 1.37122 0.776871 0
M  V30 4958 C 459.488 1.22586 1.52421 0
M  V30 4959 C 459.868 -0.182726 2.10308 0
M  V30 4960 O 459.216 -1.18979 1.9508 0
M  V30 4961 C 459.426 2.31782 2.60918 0
M  V30 4962 C 460.774 2.69071 3.2846 0
M  V30 4963 O 461.798 2.3092 2.71209 0
M  V30 4964 O 460.657 3.3478 4.31954 0
M  V30 4965 H 457.751 0.478045 0.674835 0
M  V30 4966 H 460.297 1.48888 0.814275 0
M  V30 4967 H 459.069 3.26131 2.16227 0
M  V30 4968 H 458.692 2.06916 3.39517 0
M  V30 4969 N 459.689 -1.00246 1.21608 0
M  V30 4970 C 460.652 -2.07233 0.979133 0
M  V30 4971 C 461.652 -1.6072 -0.0508219 0
M  V30 4972 O 462.842 -1.73196 0.186712 0
M  V30 4973 C 459.974 -3.37546 0.477016 0
M  V30 4974 H 461.167 -2.29687 1.92831 0
M  V30 4975 H 458.72 -1.17261 1.03342 0
M  V30 4976 H 459.455 -3.20773 -0.476966 0
M  V30 4977 H 459.24 -3.72638 1.21997 0
M  V30 4978 H 460.73 -4.16285 0.331181 0
M  V30 4979 N 461.167 -1.02423 -1.1978 0
M  V30 4980 C 462.416 -0.713265 -1.88667 0
M  V30 4981 C 462.729 0.7609 -1.80193 0
M  V30 4982 O 463.935 1.18473 -2.44288 0
M  V30 4983 C 462.391 -1.22545 -3.38394 0
M  V30 4984 C 461.999 -2.72706 -3.55437 0
M  V30 4985 C 463.743 -0.990257 -4.12788 0
M  V30 4986 C 461.65 -3.17367 -4.99031 0
M  V30 4987 H 460.58 -0.263105 -0.706606 0
M  V30 4988 H 463.231 -1.23792 -1.35454 0
M  V30 4989 H 461.613 -0.628732 -3.90977 0
M  V30 4990 H 462.787 -3.37993 -3.13205 0
M  V30 4991 H 461.102 -2.94453 -2.94425 0
M  V30 4992 H 463.699 -1.29926 -5.18675 0
M  V30 4993 H 464.042 0.0730761 -4.16236 0
M  V30 4994 H 464.575 -1.55074 -3.66329 0
M  V30 4995 H 461.314 -4.23009 -5.00743 0
M  V30 4996 H 460.834 -2.56805 -5.42044 0
M  V30 4997 H 462.513 -3.10441 -5.67658 0
M  V30 4998 N 462.645 1.35699 -0.801477 0
M  V30 4999 C 463.891 1.99208 -0.380022 0
M  V30 5000 C 464.224 1.63445 1.04878 0
M  V30 5001 O 463.499 0.895223 1.72673 0
M  V30 5002 C 463.782 3.55755 -0.557708 0
M  V30 5003 C 463.635 4.01332 -2.03107 0
M  V30 5004 C 464.954 4.40096 0.0197968 0
M  V30 5005 H 462.073 0.723667 -0.139552 0
M  V30 5006 H 464.715 1.60928 -1.01006 0
M  V30 5007 H 462.865 3.88494 -0.0213741 0
M  V30 5008 H 464.537 3.79026 -2.62939 0
M  V30 5009 H 462.78 3.52429 -2.52936 0
M  V30 5010 H 463.451 5.10234 -2.1063 0
M  V30 5011 H 465.927 4.13786 -0.438179 0
M  V30 5012 H 464.803 5.48735 -0.134477 0
M  V30 5013 H 465.064 4.2786 1.11303 0
M  V30 5014 N 464.123 0.554532 1.47522 0
M  V30 5015 C 465.033 -0.197865 2.33764 0
M  V30 5016 C 466.049 -0.914576 1.48025 0
M  V30 5017 O 467.225 -0.884067 1.80959 0
M  V30 5018 C 464.29 -1.21628 3.24665 0
M  V30 5019 C 463.351 -0.507283 4.26292 0
M  V30 5020 C 462.584 -1.47718 5.1285 0
M  V30 5021 O 462.807 -2.7118 5.01814 0
M  V30 5022 O 461.741 -1.00313 5.93482 0
M  V30 5023 H 465.567 0.50949 2.99396 0
M  V30 5024 H 463.152 0.315176 1.46038 0
M  V30 5025 H 465.034 -1.80421 3.80823 0
M  V30 5026 H 463.709 -1.9056 2.61665 0
M  V30 5027 H 462.616 0.121778 3.73902 0
M  V30 5028 H 463.949 0.140544 4.91999 0
M  V30 5029 N 465.601 -1.54893 0.290851 0
M  V30 5030 C 466.564 -2.21824 -0.576784 0
M  V30 5031 C 467.564 -1.20104 -1.06919 0
M  V30 5032 O 468.754 -1.44906 -0.966843 0
M  V30 5033 C 465.886 -2.89662 -1.79747 0
M  V30 5034 H 467.079 -2.99899 0.00784051 0
M  V30 5035 H 464.632 -1.56245 0.0415934 0
M  V30 5036 H 465.367 -2.15639 -2.42219 0
M  V30 5037 H 465.152 -3.64219 -1.45214 0
M  V30 5038 H 466.642 -3.4075 -2.4141 0
M  V30 5039 N 467.08 -0.0183926 -1.57589 0
M  V30 5040 C 468.01 0.965596 -2.12599 0
M  V30 5041 C 468.991 1.34641 -1.0395 0
M  V30 5042 O 470.176 1.42693 -1.31729 0
M  V30 5043 C 467.306 2.25149 -2.64434 0
M  V30 5044 C 466.26 2.01175 -3.77773 0
M  V30 5045 C 465.586 3.35937 -4.15994 0
M  V30 5046 C 466.886 1.35953 -5.04296 0
M  V30 5047 H 468.58 0.507504 -2.95067 0
M  V30 5048 H 466.126 0.242671 -1.41941 0
M  V30 5049 H 468.079 2.94357 -3.01549 0
M  V30 5050 H 466.803 2.73105 -1.79112 0
M  V30 5051 H 465.462 1.34388 -3.4108 0
M  V30 5052 H 465.11 3.81631 -3.27669 0
M  V30 5053 H 464.81 3.20705 -4.92364 0
M  V30 5054 H 466.334 4.0643 -4.55683 0
M  V30 5055 H 467.748 1.95144 -5.39065 0
M  V30 5056 H 466.145 1.31152 -5.85593 0
M  V30 5057 H 467.215 0.331071 -4.83768 0
M  V30 5058 N 468.558 1.5553 0.254621 0
M  V30 5059 C 469.468 1.92789 1.33677 0
M  V30 5060 C 470.484 0.827356 1.53071 0
M  V30 5061 O 471.66 1.12807 1.66843 0
M  V30 5062 C 468.725 2.20827 2.67275 0
M  V30 5063 C 467.786 3.4427 2.5647 0
M  V30 5064 C 467.019 3.70961 3.83697 0
M  V30 5065 O 467.242 2.99852 4.85227 0
M  V30 5066 O 466.176 4.64491 3.82794 0
M  V30 5067 H 470.002 2.84945 1.05071 0
M  V30 5068 H 467.587 1.42312 0.454723 0
M  V30 5069 H 469.469 2.40204 3.46237 0
M  V30 5070 H 468.144 1.31851 2.9563 0
M  V30 5071 H 467.051 3.30209 1.75821 0
M  V30 5072 H 468.384 4.33524 2.33062 0
M  V30 5073 N 470.036 -0.519951 1.48776 0
M  V30 5074 C 471.264 -1.29971 1.60982 0
M  V30 5075 C 471.679 -1.86803 0.273885 0
M  V30 5076 O 471.036 -1.66904 -0.738193 0
M  V30 5077 C 471.087 -2.44346 2.66415 0
M  V30 5078 O 470.808 -1.89855 3.94825 0
M  V30 5079 C 472.309 -3.36014 2.89153 0
M  V30 5080 H 469.529 -0.394891 0.542496 0
M  V30 5081 H 472.073 -0.626214 1.94676 0
M  V30 5082 H 470.228 -3.07562 2.35552 0
M  V30 5083 H 470.642 -2.64798 4.5275 0
M  V30 5084 H 472.116 -4.12593 3.66703 0
M  V30 5085 H 472.593 -3.91859 1.98351 0
M  V30 5086 H 473.199 -2.78582 3.21359 0
M  V30 5087 N 471.514 -1.37532 -0.769588 0
M  V30 5088 C 472.462 -1.33561 -1.90432 0
M  V30 5089 C 473.456 -0.224027 -1.67912 0
M  V30 5090 O 474.662 -0.392174 -1.75676 0
M  V30 5091 H 471.037 -0.416279 -0.626271 0
M  V30 5092 H 473.008 -2.29348 -1.90899 0
M  V30 5093 C 471.757 -1.16162 -3.27722 0
M  V30 5094 H 471.08 -2.00951 -3.45628 0
M  V30 5095 H 472.52 -1.17434 -4.07413 0
M  V30 5096 C 470.979 0.132583 -3.36639 0
M  V30 5097 O 471.509 1.11539 -3.85904 0
M  V30 5098 N 469.715 0.184013 -2.90017 0
M  V30 5099 H 469.262 -0.616415 -2.50116 0
M  V30 5100 H 469.22 1.04956 -2.96364 0
M  V30 5101 N 472.992 0.995999 -1.22138 0
M  V30 5102 C 474.408 1.25917 -0.980667 0
M  V30 5103 C 474.608 1.98819 0.327604 0
M  V30 5104 O 473.664 2.29587 1.05101 0
M  V30 5105 C 474.977 2.07399 -2.17729 0
M  V30 5106 C 476.525 2.20594 -2.22052 0
M  V30 5107 C 477 3.05462 -3.41258 0
M  V30 5108 N 478.491 3.13049 -3.41401 0
M  V30 5109 C 479.226 3.78997 -4.30289 0
M  V30 5110 N 478.722 4.46899 -5.2939 0
M  V30 5111 N 480.515 3.75728 -4.18073 0
M  V30 5112 H 472.666 0.507158 -2.06256 0
M  V30 5113 H 474.929 0.28658 -0.903646 0
M  V30 5114 H 474.635 1.61191 -3.12586 0
M  V30 5115 H 474.509 3.08154 -2.17534 0
M  V30 5116 H 476.896 2.66017 -1.27745 0
M  V30 5117 H 476.977 1.1928 -2.26287 0
M  V30 5118 H 476.621 2.60739 -4.35864 0
M  V30 5119 H 476.551 4.06911 -3.34262 0
M  V30 5120 H 479.042 2.64721 -2.69688 0
M  V30 5121 H 479.355 4.94952 -5.935 0
M  V30 5122 H 477.7 4.45657 -5.33306 0
M  V30 5123 H 480.891 3.2184 -3.39907 0
M  V30 5124 H 481.064 4.26845 -4.87553 0
M  V30 5125 N 474.47 1.03057 1.19235 0
M  V30 5126 C 475.7 0.746613 1.92638 0
M  V30 5127 C 476.108 -0.698708 1.75826 0
M  V30 5128 O 475.451 -1.487 1.07861 0
M  V30 5129 C 475.513 1.02024 3.44719 0
M  V30 5130 C 475.177 2.45745 3.85303 0
M  V30 5131 C 476.174 3.43887 3.8992 0
M  V30 5132 C 473.859 2.8019 4.16892 0
M  V30 5133 C 475.853 4.74529 4.2556 0
M  V30 5134 C 473.54 4.1104 4.52205 0
M  V30 5135 C 474.538 5.0802 4.56513 0
M  V30 5136 O 474.226 6.36527 4.91008 0
M  V30 5137 H 473.958 0.272401 0.618687 0
M  V30 5138 H 476.512 1.37853 1.52269 0
M  V30 5139 H 474.742 0.331184 3.85279 0
M  V30 5140 H 476.431 0.725677 3.9936 0
M  V30 5141 H 477.197 3.18614 3.65664 0
M  V30 5142 H 473.076 2.05382 4.12722 0
M  V30 5143 H 476.62 5.50222 4.28838 0
M  V30 5144 H 472.517 4.36086 4.7592 0
M  V30 5145 H 473.285 6.41025 5.08949 0
M  V30 5146 N 475.948 -1.35272 0.808662 0
M  V30 5147 C 476.896 -2.31663 0.208606 0
M  V30 5148 C 477.89 -1.56731 -0.642778 0
M  V30 5149 O 479.096 -1.71843 -0.53571 0
M  V30 5150 H 475.471 -0.750421 0.0486993 0
M  V30 5151 H 477.442 -2.79814 1.03666 0
M  V30 5152 C 476.191 -3.42008 -0.626573 0
M  V30 5153 H 475.514 -3.99795 0.0192103 0
M  V30 5154 H 476.954 -4.11727 -1.01278 0
M  V30 5155 C 475.413 -2.85226 -1.79298 0
M  V30 5156 O 475.943 -2.78945 -2.89055 0
M  V30 5157 N 474.149 -2.42245 -1.60516 0
M  V30 5158 H 473.696 -2.47554 -0.712375 0
M  V30 5159 H 473.654 -2.04603 -2.38715 0
M  V30 5160 N 477.426 -0.562348 -1.47226 0
M  V30 5161 C 478.376 0.202967 -2.27095 0
M  V30 5162 C 479.36 0.880611 -1.34663 0
M  V30 5163 O 480.552 0.778069 -1.58981 0
M  V30 5164 C 477.681 1.22906 -3.20545 0
M  V30 5165 C 476.767 0.554566 -4.20459 0
M  V30 5166 N 477.158 -0.378295 -5.04383 0
M  V30 5167 C 475.456 0.807854 -4.38623 0
M  V30 5168 C 476.157 -0.770583 -5.76573 0
M  V30 5169 N 475.133 -0.124263 -5.43458 0
M  V30 5170 H 478.935 -0.514196 -2.89367 0
M  V30 5171 H 476.449 -0.382655 -1.57827 0
M  V30 5172 H 478.446 1.79134 -3.76453 0
M  V30 5173 H 477.106 1.94726 -2.59831 0
M  V30 5174 H 478.117 -0.75274 -5.124 0
M  V30 5175 H 474.794 1.51418 -3.89075 0
M  V30 5176 H 476.184 -1.53742 -6.54074 0
M  V30 5177 N 478.904 1.54736 -0.299062 0
M  V30 5178 C 480.153 1.99279 0.311549 0
M  V30 5179 C 480.466 1.19107 1.55154 0
M  V30 5180 O 481.672 1.53908 2.23662 0
M  V30 5181 C 480.128 3.54768 0.605632 0
M  V30 5182 C 479.736 4.43746 -0.615914 0
M  V30 5183 C 481.48 4.07841 1.17754 0
M  V30 5184 C 479.387 5.90663 -0.29509 0
M  V30 5185 H 478.317 0.744359 0.120187 0
M  V30 5186 H 480.968 1.78919 -0.407464 0
M  V30 5187 H 479.35 3.71021 1.38419 0
M  V30 5188 H 480.524 4.39267 -1.39218 0
M  V30 5189 H 478.839 4.01434 -1.10633 0
M  V30 5190 H 481.436 5.15174 1.43179 0
M  V30 5191 H 481.779 3.58324 2.11918 0
M  V30 5192 H 482.312 3.95123 0.460739 0
M  V30 5193 H 479.051 6.44325 -1.20524 0
M  V30 5194 H 478.571 5.98155 0.44394 0
M  V30 5195 H 480.25 6.46916 0.104048 0
M  V30 5196 N 480.382 0.0267497 1.57577 0
M  V30 5197 C 481.61 -0.662661 1.96001 0
M  V30 5198 C 482.025 -1.65799 0.903117 0
M  V30 5199 O 481.382 -1.82135 -0.115317 0
M  V30 5200 C 481.433 -1.37112 3.34488 0
M  V30 5201 O 481.154 -0.415683 4.36123 0
M  V30 5202 C 482.655 -2.15257 3.8753 0
M  V30 5203 H 479.875 -0.18287 0.6456 0
M  V30 5204 H 482.419 0.0858116 2.0432 0
M  V30 5205 H 480.574 -2.07101 3.27395 0
M  V30 5206 H 480.988 -0.918496 5.16395 0
M  V30 5207 H 482.462 -2.60285 4.86781 0
M  V30 5208 H 482.939 -2.99063 3.21649 0
M  V30 5209 H 483.545 -1.50231 3.97883 0
M  V30 5210 N 481.861 -1.55662 -0.24637 0
M  V30 5211 C 482.824 -1.89558 -1.28842 0
M  V30 5212 C 483.824 -0.772082 -1.41052 0
M  V30 5213 O 485.014 -1.04007 -1.39743 0
M  V30 5214 C 482.146 -2.12449 -2.66605 0
M  V30 5215 H 483.339 -2.82735 -1.00004 0
M  V30 5216 H 480.892 -1.48562 -0.485684 0
M  V30 5217 H 481.627 -1.21742 -3.00582 0
M  V30 5218 H 481.412 -2.94273 -2.59125 0
M  V30 5219 H 482.902 -2.39854 -3.41847 0
M  V30 5220 N 483.339 0.512053 -1.4905 0
M  V30 5221 C 484.567 1.29116 -1.61669 0
M  V30 5222 C 484.982 1.86655 -0.283787 0
M  V30 5223 O 484.339 1.67293 0.729331 0
M  V30 5224 C 484.39 2.4293 -2.67707 0
M  V30 5225 O 484.111 1.87758 -3.95826 0
M  V30 5226 C 485.612 3.34476 -2.90931 0
M  V30 5227 H 482.832 0.392009 -0.544583 0
M  V30 5228 H 485.376 0.615881 -1.95006 0
M  V30 5229 H 483.531 3.06308 -2.37179 0
M  V30 5230 H 483.945 2.62393 -4.54148 0
M  V30 5231 H 485.419 4.10642 -3.68886 0
M  V30 5232 H 485.896 3.90801 -2.00427 0
M  V30 5233 H 486.502 2.76874 -3.22832 0
M  V30 5234 N 484.817 1.37938 0.762283 0
M  V30 5235 C 486.047 1.36685 1.54922 0
M  V30 5236 C 486.455 -0.0474099 1.89141 0
M  V30 5237 O 485.798 -1.02213 1.52638 0
M  V30 5238 C 485.86 2.14963 2.88152 0
M  V30 5239 C 485.524 3.6385 2.76518 0
M  V30 5240 C 486.521 4.57531 2.46904 0
M  V30 5241 C 484.206 4.07095 2.94243 0
M  V30 5242 C 486.2 5.92436 2.35156 0
M  V30 5243 C 483.887 5.42083 2.82116 0
M  V30 5244 C 484.885 6.34567 2.52614 0
M  V30 5245 O 484.573 7.67073 2.40529 0
M  V30 5246 H 484.305 0.469586 0.486276 0
M  V30 5247 H 486.859 1.82012 0.951876 0
M  V30 5248 H 485.089 1.6434 3.50042 0
M  V30 5249 H 486.778 2.06224 3.49609 0
M  V30 5250 H 487.544 4.25428 2.32886 0
M  V30 5251 H 483.423 3.35462 3.16206 0
M  V30 5252 H 486.967 6.64591 2.12049 0
M  V30 5253 H 482.864 5.73785 2.95704 0
M  V30 5254 H 483.632 7.77499 2.55807 0
M  V30 5255 N 486.295 -0.989507 1.22664 0
M  V30 5256 C 487.542 -1.72953 1.05325 0
M  V30 5257 C 487.87 -1.90104 -0.411168 0
M  V30 5258 O 487.125 -1.44386 -1.32103 0
M  V30 5259 C 487.424 -3.13649 1.71345 0
M  V30 5260 C 487.09 -3.16403 3.21248 0
M  V30 5261 C 485.752 -3.16862 3.62149 0
M  V30 5262 C 488.104 -3.12428 4.17179 0
M  V30 5263 C 485.432 -3.11051 4.97458 0
M  V30 5264 C 487.784 -3.08159 5.52468 0
M  V30 5265 C 486.448 -3.06935 5.92746 0
M  V30 5266 H 485.718 -0.632881 0.385412 0
M  V30 5267 H 488.365 -1.15863 1.52473 0
M  V30 5268 H 486.67 -3.74069 1.16532 0
M  V30 5269 H 488.367 -3.69658 1.55416 0
M  V30 5270 H 484.957 -3.16798 2.88682 0
M  V30 5271 H 489.141 -3.11221 3.86595 0
M  V30 5272 H 484.397 -3.0845 5.27891 0
M  V30 5273 H 488.571 -3.04039 6.26525 0
M  V30 5274 H 486.198 -3.02186 6.97558 0
M  V30 5275 N 487.773 -1.03688 -1.18687 0
M  V30 5276 C 488.703 -0.645407 -2.24403 0
M  V30 5277 C 489.684 0.349511 -1.66471 0
M  V30 5278 O 490.869 0.230453 -1.92828 0
M  V30 5279 C 487.999 -0.00365337 -3.473 0
M  V30 5280 C 486.953 -0.921705 -4.17958 0
M  V30 5281 C 486.279 -0.144629 -5.34504 0
M  V30 5282 C 487.579 -2.23909 -4.71871 0
M  V30 5283 H 489.273 -1.52917 -2.57404 0
M  V30 5284 H 486.819 -0.736711 -1.23728 0
M  V30 5285 H 488.772 0.281908 -4.20456 0
M  V30 5286 H 487.496 0.914963 -3.13522 0
M  V30 5287 H 486.155 -1.19159 -3.46694 0
M  V30 5288 H 485.803 0.776274 -4.96974 0
M  V30 5289 H 485.503 -0.756206 -5.82714 0
M  V30 5290 H 487.027 0.134004 -6.10453 0
M  V30 5291 H 488.441 -2.0145 -5.36741 0
M  V30 5292 H 486.838 -2.8033 -5.30599 0
M  V30 5293 H 487.908 -2.88822 -3.895 0
M  V30 5294 N 489.251 1.34841 -0.815825 0
M  V30 5295 C 490.181 2.32187 -0.247298 0
M  V30 5296 C 491.162 1.5791 0.632344 0
M  V30 5297 O 492.347 1.8593 0.560698 0
M  V30 5298 C 489.477 3.42122 0.597466 0
M  V30 5299 C 488.431 4.27602 -0.184446 0
M  V30 5300 C 487.757 5.28942 0.782609 0
M  V30 5301 C 489.057 5.03502 -1.38865 0
M  V30 5302 H 490.751 2.79985 -1.06061 0
M  V30 5303 H 488.297 1.34611 -0.511461 0
M  V30 5304 H 490.25 4.09232 1.00533 0
M  V30 5305 H 488.974 2.92956 1.44376 0
M  V30 5306 H 487.633 3.62085 -0.573592 0
M  V30 5307 H 487.281 4.7604 1.62466 0
M  V30 5308 H 486.981 5.87008 0.263695 0
M  V30 5309 H 488.505 5.98922 1.18848 0
M  V30 5310 H 489.919 5.63506 -1.05518 0
M  V30 5311 H 488.316 5.71108 -1.8427 0
M  V30 5312 H 489.386 4.33608 -2.17054 0
M  V30 5313 N 490.729 0.570148 1.46925 0
M  V30 5314 C 491.692 -0.159933 2.28641 0
M  V30 5315 C 492.692 -0.830638 1.37685 0
M  V30 5316 O 493.882 -0.684516 1.60187 0
M  V30 5317 C 491.014 -1.2354 3.17727 0
M  V30 5318 H 492.207 0.558035 2.94662 0
M  V30 5319 H 489.76 0.327603 1.52828 0
M  V30 5320 H 490.495 -1.98535 2.56426 0
M  V30 5321 H 490.28 -0.759125 3.84681 0
M  V30 5322 H 491.77 -1.74782 3.79264 0
M  V30 5323 N 492.207 -1.54576 0.307264 0
M  V30 5324 C 493.117 -2.27435 -0.57536 0
M  V30 5325 C 494.133 -1.31183 -1.14311 0
M  V30 5326 O 495.309 -1.64175 -1.16656 0
M  V30 5327 C 492.374 -3.00566 -1.72803 0
M  V30 5328 C 491.435 -4.12369 -1.19373 0
M  V30 5329 C 490.668 -4.82003 -2.29147 0
M  V30 5330 O 490.891 -4.51038 -3.49171 0
M  V30 5331 O 489.825 -5.69271 -1.95485 0
M  V30 5332 H 493.651 -3.03696 0.0158558 0
M  V30 5333 H 491.236 -1.49219 0.0735064 0
M  V30 5334 H 493.118 -3.46416 -2.39946 0
M  V30 5335 H 491.793 -2.27195 -2.30574 0
M  V30 5336 H 490.7 -3.70905 -0.487851 0
M  V30 5337 H 492.033 -4.87736 -0.661376 0
M  V30 5338 N 493.685 -0.035106 -1.57561 0
M  V30 5339 C 495.101 0.321334 -1.56332 0
M  V30 5340 C 495.301 1.72509 -1.04129 0
M  V30 5341 O 494.357 2.4287 -0.690694 0
M  V30 5342 C 495.67 0.164469 -3.0025 0
M  V30 5343 C 497.218 0.236786 -3.12103 0
M  V30 5344 C 497.693 0.10864 -4.57871 0
M  V30 5345 N 499.184 0.165433 -4.62904 0
M  V30 5346 C 499.919 0.0901506 -5.73329 0
M  V30 5347 N 499.415 -0.0365606 -6.9279 0
M  V30 5348 N 501.208 0.144572 -5.61914 0
M  V30 5349 H 493.359 -0.952976 -1.89821 0
M  V30 5350 H 495.622 -0.368537 -0.873432 0
M  V30 5351 H 495.328 -0.802746 -3.42416 0
M  V30 5352 H 495.202 0.932194 -3.655 0
M  V30 5353 H 497.589 1.19446 -2.69845 0
M  V30 5354 H 497.67 -0.561419 -2.49563 0
M  V30 5355 H 497.314 -0.845644 -5.00811 0
M  V30 5356 H 497.244 0.925786 -5.18398 0
M  V30 5357 H 499.735 0.263269 -3.76982 0
M  V30 5358 H 500.048 -0.0871487 -7.72751 0
M  V30 5359 H 498.393 -0.0714256 -6.94963 0
M  V30 5360 H 501.584 0.242006 -4.67474 0
M  V30 5361 H 501.757 0.0824413 -6.47948 0
M  V30 5362 N 495.163 1.55791 0.238111 0
M  V30 5363 C 496.412 1.77234 0.962868 0
M  V30 5364 C 496.725 0.600661 1.86149 0
M  V30 5365 O 497.931 0.698315 2.62366 0
M  V30 5366 C 496.387 3.13808 1.76218 0
M  V30 5367 C 495.995 4.3865 0.910518 0
M  V30 5368 C 497.739 3.44585 2.47914 0
M  V30 5369 C 495.646 5.66252 1.70623 0
M  V30 5370 H 494.576 0.660731 0.36325 0
M  V30 5371 H 497.227 1.8221 0.217242 0
M  V30 5372 H 495.609 3.02963 2.55009 0
M  V30 5373 H 496.783 4.60507 0.164316 0
M  V30 5374 H 495.098 4.15271 0.30647 0
M  V30 5375 H 497.695 4.3714 3.07917 0
M  V30 5376 H 498.038 2.66314 3.19973 0
M  V30 5377 H 498.571 3.56685 1.76127 0
M  V30 5378 H 495.31 6.47369 1.02923 0
M  V30 5379 H 494.83 5.48483 2.42748 0
M  V30 5380 H 496.509 6.05829 2.27114 0
M  V30 5381 N 496.642 -0.504142 1.49319 0
M  V30 5382 C 497.572 -1.61473 1.68667 0
M  V30 5383 C 498.553 -1.61455 0.535378 0
M  V30 5384 O 499.738 -1.78245 0.770868 0
M  V30 5385 C 496.868 -2.99971 1.75028 0
M  V30 5386 C 495.822 -3.14854 2.89916 0
M  V30 5387 C 495.148 -4.54671 2.81387 0
M  V30 5388 C 496.448 -2.95176 4.30893 0
M  V30 5389 H 498.142 -1.45535 2.61648 0
M  V30 5390 H 495.688 -0.698711 1.25913 0
M  V30 5391 H 497.641 -3.77562 1.8715 0
M  V30 5392 H 496.365 -3.1699 0.786441 0
M  V30 5393 H 495.024 -2.39687 2.77391 0
M  V30 5394 H 494.672 -4.68562 1.82917 0
M  V30 5395 H 494.372 -4.6557 3.58494 0
M  V30 5396 H 495.896 -5.34327 2.95512 0
M  V30 5397 H 497.31 -3.62538 4.44116 0
M  V30 5398 H 495.707 -3.17549 5.09198 0
M  V30 5399 H 496.777 -1.91332 4.45556 0
M  V30 5400 N 498.12 -1.38341 -0.754957 0
M  V30 5401 C 499.536 -1.19508 -1.05783 0
M  V30 5402 C 499.736 -0.0428005 -2.01455 0
M  V30 5403 O 498.792 0.611861 -2.44975 0
M  V30 5404 C 500.105 -2.52091 -1.63923 0
M  V30 5405 C 501.653 -2.58762 -1.76101 0
M  V30 5406 C 502.128 -3.91517 -2.37652 0
M  V30 5407 N 503.619 -3.93049 -2.45085 0
M  V30 5408 C 504.354 -4.9253 -2.93602 0
M  V30 5409 N 503.85 -6.02408 -3.42165 0
M  V30 5410 N 505.643 -4.79921 -2.92629 0
M  V30 5411 H 497.794 -2.1206 -0.120056 0
M  V30 5412 H 500.057 -0.94089 -0.11589 0
M  V30 5413 H 499.763 -3.36858 -1.01093 0
M  V30 5414 H 499.637 -2.70388 -2.63003 0
M  V30 5415 H 502.024 -1.74391 -2.38058 0
M  V30 5416 H 502.105 -2.44333 -0.757294 0
M  V30 5417 H 501.749 -4.76309 -1.76329 0
M  V30 5418 H 501.679 -4.03256 -3.38662 0
M  V30 5419 H 504.17 -3.13685 -2.10736 0
M  V30 5420 H 504.483 -6.74248 -3.77637 0
M  V30 5421 H 502.828 -6.0603 -3.40225 0
M  V30 5422 H 506.019 -3.93194 -2.54001 0
M  V30 5423 H 506.192 -5.57601 -3.30128 0
M  V30 5424 N 499.598 0.982988 -1.23187 0
M  V30 5425 C 500.508 2.10907 -1.02739 0
M  V30 5426 C 501.524 1.73979 0.0273188 0
M  V30 5427 O 502.7 2.00702 -0.16757 0
M  V30 5428 C 499.765 3.41142 -0.618304 0
M  V30 5429 C 498.826 3.92112 -1.74777 0
M  V30 5430 C 498.059 5.16131 -1.3581 0
M  V30 5431 O 498.282 5.6989 -0.241201 0
M  V30 5432 O 497.216 5.61103 -2.17824 0
M  V30 5433 H 501.042 2.31046 -1.97108 0
M  V30 5434 H 498.627 1.09284 -1.01869 0
M  V30 5435 H 500.509 4.19488 -0.400982 0
M  V30 5436 H 499.184 3.2234 0.296421 0
M  V30 5437 H 498.091 3.14895 -2.0197 0
M  V30 5438 H 499.424 4.15364 -2.64071 0
M  V30 5439 N 501.076 1.04316 1.18135 0
M  V30 5440 C 502.023 0.636398 2.21853 0
M  V30 5441 C 502.993 -0.357039 1.62217 0
M  V30 5442 O 504.178 -0.250453 1.89149 0
M  V30 5443 C 501.318 0.00812779 3.45099 0
M  V30 5444 C 500.431 1.04933 4.19062 0
M  V30 5445 C 499.566 0.389313 5.29771 0
M  V30 5446 C 498.605 1.41544 5.9551 0
M  V30 5447 N 497.742 0.78021 6.97751 0
M  V30 5448 H 502.582 1.52536 2.56002 0
M  V30 5449 H 500.119 0.76304 1.25762 0
M  V30 5450 H 502.077 -0.373497 4.15525 0
M  V30 5451 H 500.707 -0.844336 3.11562 0
M  V30 5452 H 499.759 1.54888 3.47439 0
M  V30 5453 H 501.071 1.82862 4.64072 0
M  V30 5454 H 500.225 -0.0463805 6.06682 0
M  V30 5455 H 498.964 -0.422038 4.8587 0
M  V30 5456 H 497.969 1.86124 5.17337 0
M  V30 5457 H 499.194 2.22854 6.41493 0
M  V30 5458 H 497.14 -0.0107899 6.55999 0
M  V30 5459 H 497.057 1.49716 7.41027 0
M  V30 5460 H 498.325 0.368996 7.78626 0
M  V30 5461 N 502.554 -1.34406 0.822964 0
M  V30 5462 C 503.486 -2.28305 0.202375 0
M  V30 5463 C 504.499 -1.5103 -0.60777 0
M  V30 5464 O 505.688 -1.73057 -0.437444 0
M  V30 5465 C 502.788 -3.30836 -0.734911 0
M  V30 5466 C 501.961 -4.37388 0.0324177 0
M  V30 5467 C 501.02 -5.1968 -0.825803 0
M  V30 5468 O 500.046 -5.68556 -0.270771 0
M  V30 5469 N 501.248 -5.39393 -2.14558 0
M  V30 5470 H 504.013 -2.82201 1.00909 0
M  V30 5471 H 501.574 -1.4693 0.67993 0
M  V30 5472 H 503.566 -3.82786 -1.31365 0
M  V30 5473 H 502.136 -2.77334 -1.44238 0
M  V30 5474 H 501.356 -3.86152 0.792469 0
M  V30 5475 H 502.644 -5.05702 0.560633 0
M  V30 5476 H 502.042 -5.01357 -2.62025 0
M  V30 5477 H 500.599 -5.94461 -2.67318 0
M  V30 5478 N 504.032 -0.577932 -1.46621 0
M  V30 5479 C 504.942 0.160651 -2.34049 0
M  V30 5480 C 505.958 0.890911 -1.49462 0
M  V30 5481 O 507.134 0.855166 -1.82343 0
M  V30 5482 C 504.199 1.16447 -3.26559 0
M  V30 5483 C 503.26 0.4394 -4.27045 0
M  V30 5484 C 502.493 1.3954 -5.15135 0
M  V30 5485 O 502.716 2.63162 -5.06065 0
M  V30 5486 O 501.65 0.908585 -5.95003 0
M  V30 5487 H 505.476 -0.557057 -2.98547 0
M  V30 5488 H 503.061 -0.338369 -1.45518 0
M  V30 5489 H 504.943 1.7434 -3.83645 0
M  V30 5490 H 503.618 1.86373 -2.64663 0
M  V30 5491 H 502.525 -0.181247 -3.73661 0
M  V30 5492 H 503.858 -0.218799 -4.91713 0
M  V30 5493 N 505.51 1.54411 -0.315457 0
M  V30 5494 C 506.457 2.24048 0.554166 0
M  V30 5495 C 507.427 1.2283 1.11812 0
M  V30 5496 O 508.612 1.51491 1.15997 0
M  V30 5497 C 505.752 2.99574 1.71316 0
M  V30 5498 C 504.865 4.15594 1.17922 0
M  V30 5499 C 504 4.78669 2.30324 0
M  V30 5500 C 503.039 5.86807 1.74137 0
M  V30 5501 N 502.176 6.43777 2.8017 0
M  V30 5502 H 507.016 2.97964 -0.0462602 0
M  V30 5503 H 504.553 1.47059 -0.0346009 0
M  V30 5504 H 506.511 3.41604 2.39505 0
M  V30 5505 H 505.141 2.28008 2.285 0
M  V30 5506 H 504.193 3.78404 0.389136 0
M  V30 5507 H 505.505 4.93459 0.728012 0
M  V30 5508 H 504.659 5.23626 3.06433 0
M  V30 5509 H 503.398 4.00168 2.78778 0
M  V30 5510 H 502.403 5.41261 0.965236 0
M  V30 5511 H 503.628 6.67201 1.2657 0
M  V30 5512 H 501.574 5.68153 3.2793 0
M  V30 5513 H 501.491 7.17031 2.39588 0
M  V30 5514 H 502.759 6.9339 3.56132 0
M  V30 5515 N 506.988 0.0434614 1.5754 0
M  V30 5516 C 507.898 -0.94893 2.14552 0
M  V30 5517 C 508.914 -1.34707 1.10136 0
M  V30 5518 O 510.09 -1.42557 1.42266 0
M  V30 5519 C 507.155 -2.208 2.67298 0
M  V30 5520 C 506.216 -1.86893 3.86484 0
M  V30 5521 C 505.449 -3.06797 4.36705 0
M  V30 5522 O 505.672 -4.19921 3.86034 0
M  V30 5523 O 504.606 -2.8826 5.28384 0
M  V30 5524 H 508.432 -0.494099 2.99654 0
M  V30 5525 H 506.017 -0.177989 1.48336 0
M  V30 5526 H 507.899 -2.94686 3.01228 0
M  V30 5527 H 506.574 -2.65436 1.85272 0
M  V30 5528 H 505.481 -1.10347 3.57455 0
M  V30 5529 H 506.814 -1.47062 4.69716 0
M  V30 5530 N 508.466 -1.55915 -0.229846 0
M  V30 5531 C 509.715 -1.77742 -0.953455 0
M  V30 5532 C 510.028 -0.610524 -1.85828 0
M  V30 5533 O 511.234 -0.712219 -2.61992 0
M  V30 5534 C 509.69 -3.14738 -1.74551 0
M  V30 5535 C 509.298 -4.39126 -0.887242 0
M  V30 5536 C 511.042 -3.45895 -2.46084 0
M  V30 5537 C 508.949 -5.67149 -1.67617 0
M  V30 5538 H 507.879 -0.662648 -0.359741 0
M  V30 5539 H 510.53 -1.82322 -0.207576 0
M  V30 5540 H 508.912 -3.04311 -2.53399 0
M  V30 5541 H 510.086 -4.60588 -0.139892 0
M  V30 5542 H 508.401 -4.15427 -0.284443 0
M  V30 5543 H 510.998 -4.38767 -3.05594 0
M  V30 5544 H 511.341 -2.68007 -3.18556 0
M  V30 5545 H 511.874 -3.57614 -1.74233 0
M  V30 5546 H 508.613 -6.47906 -0.994881 0
M  V30 5547 H 508.133 -5.49763 -2.39836 0
M  V30 5548 H 509.812 -6.07025 -2.23898 0
M  V30 5549 N 509.944 0.496216 -1.49584 0
M  V30 5550 C 510.876 1.61404 -1.62731 0
M  V30 5551 C 511.889 1.54613 -0.50978 0
M  V30 5552 O 513.078 1.60458 -0.782017 0
M  V30 5553 C 510.178 3.00212 -1.57245 0
M  V30 5554 C 509.351 3.32138 -2.84611 0
M  V30 5555 C 508.41 4.5038 -2.72112 0
M  V30 5556 O 507.436 4.51926 -3.46051 0
M  V30 5557 N 508.638 5.50575 -1.83977 0
M  V30 5558 H 511.403 1.50552 -2.59141 0
M  V30 5559 H 508.964 0.684182 -1.46733 0
M  V30 5560 H 510.956 3.77241 -1.4653 0
M  V30 5561 H 509.526 3.04964 -0.686729 0
M  V30 5562 H 508.746 2.4396 -3.09641 0
M  V30 5563 H 510.034 3.50268 -3.69039 0
M  V30 5564 H 509.432 5.52128 -1.23171 0
M  V30 5565 H 507.989 6.26687 -1.79182 0
M  V30 5566 N 511.423 1.38739 0.74761 0
M  V30 5567 C 512.651 1.38521 1.53686 0
M  V30 5568 C 513.066 -0.0235129 1.88785 0
M  V30 5569 O 512.423 -0.991662 1.53207 0
M  V30 5570 C 512.474 2.24641 2.83229 0
M  V30 5571 O 512.195 3.60026 2.49625 0
M  V30 5572 C 513.696 2.32669 3.77333 0
M  V30 5573 H 510.916 0.473589 0.475347 0
M  V30 5574 H 513.46 1.82395 0.924786 0
M  V30 5575 H 511.615 1.84213 3.40799 0
M  V30 5576 H 512.029 4.05435 3.3275 0
M  V30 5577 H 513.503 2.97201 4.65162 0
M  V30 5578 H 513.98 1.3421 4.18192 0
M  V30 5579 H 514.586 2.73512 3.25685 0
M  V30 5580 N 512.901 -0.976442 1.23707 0
M  V30 5581 C 514.317 -1.24341 1.00058 0
M  V30 5582 C 514.517 -1.99315 -0.295932 0
M  V30 5583 O 513.573 -2.3123 -1.01435 0
M  V30 5584 C 514.886 -2.03909 2.21001 0
M  V30 5585 C 516.434 -2.17034 2.25534 0
M  V30 5586 C 516.909 -2.99994 3.46075 0
M  V30 5587 N 518.4 -3.07578 3.46338 0
M  V30 5588 C 519.135 -3.72104 4.36264 0
M  V30 5589 N 518.631 -4.3842 5.36432 0
M  V30 5590 N 520.424 -3.69029 4.23998 0
M  V30 5591 H 512.575 -0.47428 2.07037 0
M  V30 5592 H 514.838 -0.272167 0.908091 0
M  V30 5593 H 514.544 -1.56198 3.15111 0
M  V30 5594 H 514.418 -3.04654 2.22409 0
M  V30 5595 H 516.805 -2.63951 1.31961 0
M  V30 5596 H 516.886 -1.15664 2.28156 0
M  V30 5597 H 516.53 -2.53772 4.39957 0
M  V30 5598 H 516.46 -4.01541 3.40694 0
M  V30 5599 H 518.951 -2.60397 2.73865 0
M  V30 5600 H 519.264 -4.85447 6.013 0
M  V30 5601 H 517.609 -4.37116 5.40328 0
M  V30 5602 H 520.8 -3.16392 3.44984 0
M  V30 5603 H 520.973 -4.19034 4.94282 0
M  V30 5604 N 514.379 -1.04941 -1.1758 0
M  V30 5605 C 515.604 -0.778253 -1.92245 0
M  V30 5606 C 516.029 0.659707 -1.76152 0
M  V30 5607 O 515.387 1.45803 -1.07755 0
M  V30 5608 C 515.435 -1.16051 -3.41416 0
M  V30 5609 O 514.539 -0.291153 -4.11371 0
M  V30 5610 H 513.88 -0.285619 -0.599431 0
M  V30 5611 H 516.41 -1.40159 -1.49052 0
M  V30 5612 H 516.42 -1.12619 -3.92149 0
M  V30 5613 H 515.095 -2.208 -3.52449 0
M  V30 5614 H 513.672 -0.385851 -3.70898 0
M  V30 5615 N 515.857 1.33968 -0.830081 0
M  V30 5616 C 516.82 2.27694 -0.26235 0
M  V30 5617 C 517.82 1.50589 0.563876 0
M  V30 5618 O 519.01 1.70028 0.378941 0
M  V30 5619 C 516.142 3.35002 0.63138 0
M  V30 5620 H 517.335 2.79419 -1.08928 0
M  V30 5621 H 514.888 1.44221 -0.602486 0
M  V30 5622 H 515.623 2.88504 1.48109 0
M  V30 5623 H 515.408 3.92079 0.0403276 0
M  V30 5624 H 516.898 4.04897 1.02217 0
M  V30 5625 N 517.335 0.585699 1.46312 0
M  V30 5626 C 518.56 0.0762461 2.0726 0
M  V30 5627 C 518.985 -1.22071 1.43109 0
M  V30 5628 O 518.343 -1.73804 0.515942 0
M  V30 5629 C 518.391 -0.0729404 3.60526 0
M  V30 5630 O 517.495 -1.1287 3.96654 0
M  V30 5631 H 516.836 0.0641558 0.660893 0
M  V30 5632 H 519.366 0.809492 1.87905 0
M  V30 5633 H 519.376 -0.278158 4.07051 0
M  V30 5634 H 518.051 0.874188 4.06609 0
M  V30 5635 H 516.628 -0.901703 3.61834 0
M  V30 5636 N 518.813 -1.54241 0.323641 0
M  V30 5637 C 520.224 -1.85975 -0.164405 0
M  V30 5638 C 520.575 -1.24529 -1.51615 0
M  V30 5639 O 519.7 -0.551351 -2.09258 0
M  V30 5640 C 520.295 -3.37424 -0.305091 0
M  V30 5641 C 518.854 -3.69107 -0.737358 0
M  V30 5642 C 518.001 -2.76942 0.140884 0
M  V30 5643 H 520.952 -1.49088 0.543922 0
M  V30 5644 H 520.973 -3.63147 -1.13598 0
M  V30 5645 H 520.485 -3.82116 0.678876 0
M  V30 5646 H 518.586 -3.29947 -1.73107 0
M  V30 5647 H 518.699 -4.76035 -0.541053 0
M  V30 5648 H 517.063 -2.51795 -0.383572 0
M  V30 5649 H 517.846 -3.24461 1.12162 0
M  V30 5650 N 520.291 -0.0518155 -1.57515 0
M  V30 5651 C 521.516 0.634896 -1.97443 0
M  V30 5652 C 521.941 1.63546 -0.929207 0
M  V30 5653 O 521.299 1.80981 0.107484 0
M  V30 5654 C 521.347 1.29765 -3.36442 0
M  V30 5655 O 520.451 2.41333 -3.34413 0
M  V30 5656 H 519.792 0.164994 -0.643174 0
M  V30 5657 H 522.322 -0.120407 -2.04245 0
M  V30 5658 H 522.332 1.64918 -3.73184 0
M  V30 5659 H 521.007 0.564361 -4.12053 0
M  V30 5660 H 519.584 2.08122 -3.09418 0
M  V30 5661 N 521.769 1.56035 0.221574 0
M  V30 5662 C 522.717 1.93269 1.29421 0
M  V30 5663 C 523.711 0.814727 1.48521 0
M  V30 5664 O 524.917 0.999559 1.49696 0
M  V30 5665 H 521.292 0.614188 0.43391 0
M  V30 5666 H 523.263 2.82773 0.952987 0
M  V30 5667 C 522.012 2.26573 2.63742 0
M  V30 5668 H 521.335 3.12112 2.49853 0
M  V30 5669 H 522.775 2.5651 3.37607 0
M  V30 5670 C 521.234 1.09086 3.1875 0
M  V30 5671 O 521.764 0.351985 4.00155 0
M  V30 5672 N 519.97 0.874693 2.77124 0
M  V30 5673 H 519.517 1.47726 2.11033 0
M  V30 5674 H 519.475 0.0903349 3.1427 0
M  V30 5675 N 523.247 -0.488276 1.49845 0
M  V30 5676 C 524.496 -1.23826 1.59217 0
M  V30 5677 C 524.809 -1.93439 0.289966 0
M  V30 5678 O 526.015 -2.70229 0.262382 0
M  V30 5679 C 524.471 -2.24902 2.80976 0
M  V30 5680 C 524.079 -1.6117 4.18005 0
M  V30 5681 C 525.823 -3.00648 2.99685 0
M  V30 5682 C 523.73 -2.60431 5.3097 0
M  V30 5683 H 522.66 -0.465858 0.592868 0
M  V30 5684 H 525.311 -0.510645 1.76252 0
M  V30 5685 H 523.693 -3.0088 2.57463 0
M  V30 5686 H 524.867 -0.910968 4.51706 0
M  V30 5687 H 523.182 -0.97767 4.0476 0
M  V30 5688 H 525.779 -3.74903 3.81251 0
M  V30 5689 H 526.122 -3.5902 2.10738 0
M  V30 5690 H 526.655 -2.31784 3.23297 0
M  V30 5691 H 523.394 -2.06823 6.22017 0
M  V30 5692 H 522.914 -3.28707 5.01709 0
M  V30 5693 H 524.593 -3.22606 5.60834 0
M  V30 5694 N 524.725 -1.39134 -0.740242 0
M  V30 5695 C 525.672 -1.37434 -1.8542 0
M  V30 5696 C 526.642 -0.234822 -1.64432 0
M  V30 5697 O 527.827 -0.429125 -1.85912 0
M  V30 5698 C 524.967 -1.21844 -3.22875 0
M  V30 5699 C 524.08 -2.45296 -3.55603 0
M  V30 5700 C 523.215 -2.22334 -4.82432 0
M  V30 5701 C 522.254 -3.41488 -5.07988 0
M  V30 5702 N 521.391 -3.17877 -6.26018 0
M  V30 5703 H 526.231 -2.3266 -1.86207 0
M  V30 5704 H 523.768 -1.15578 -0.909946 0
M  V30 5705 H 525.726 -1.10818 -4.02213 0
M  V30 5706 H 524.356 -0.3025 -3.21379 0
M  V30 5707 H 523.408 -2.66945 -2.71006 0
M  V30 5708 H 524.72 -3.34063 -3.7041 0
M  V30 5709 H 523.874 -2.0852 -5.69741 0
M  V30 5710 H 522.613 -1.30954 -4.6979 0
M  V30 5711 H 521.618 -3.55807 -4.19144 0
M  V30 5712 H 522.843 -4.33763 -5.22519 0
M  V30 5713 H 520.789 -2.29156 -6.14673 0
M  V30 5714 H 520.706 -4.00198 -6.41387 0
M  V30 5715 H 521.974 -3.07746 -7.16179 0
M  V30 5716 N 526.204 0.969867 -1.24223 0
M  V30 5717 C 527.167 2.04564 -1.03373 0
M  V30 5718 C 528.167 1.60798 0.00819206 0
M  V30 5719 O 529.357 1.72641 -0.232567 0
M  V30 5720 C 526.489 3.36163 -0.566343 0
M  V30 5721 H 527.682 2.24494 -1.98853 0
M  V30 5722 H 525.235 1.1448 -1.06415 0
M  V30 5723 H 525.97 3.21925 0.391751 0
M  V30 5724 H 525.755 3.69273 -1.31834 0
M  V30 5725 H 527.245 4.1526 -0.441435 0
M  V30 5726 N 527.682 1.05563 1.17022 0
M  V30 5727 C 528.614 0.617888 2.20714 0
M  V30 5728 C 529.627 -0.320303 1.59618 0
M  V30 5729 O 530.816 -0.112449 1.78145 0
M  V30 5730 C 527.916 -0.115333 3.38704 0
M  V30 5731 C 527.089 0.834493 4.29366 0
M  V30 5732 C 526.148 0.141855 5.26009 0
M  V30 5733 O 525.174 0.777151 5.6387 0
M  V30 5734 N 526.376 -1.11934 5.69606 0
M  V30 5735 H 529.141 1.50981 2.58892 0
M  V30 5736 H 526.702 0.938008 1.31958 0
M  V30 5737 H 528.694 -0.588918 4.00392 0
M  V30 5738 H 527.264 -0.908967 2.99093 0
M  V30 5739 H 526.484 1.48762 3.65053 0
M  V30 5740 H 527.772 1.4791 4.86827 0
M  V30 5741 H 527.17 -1.65574 5.40927 0
M  V30 5742 H 525.727 -1.53692 6.33421 0
M  V30 5743 N 529.16 -1.33526 0.837174 0
M  V30 5744 C 530.407 -1.97837 0.432064 0
M  V30 5745 C 530.735 -1.66324 -1.00829 0
M  V30 5746 O 529.99 -0.93448 -1.71948 0
M  V30 5747 C 530.289 -3.52367 0.597675 0
M  V30 5748 C 529.955 -4.03826 2.00587 0
M  V30 5749 C 528.617 -4.1759 2.39106 0
M  V30 5750 C 530.969 -4.31333 2.92576 0
M  V30 5751 C 528.297 -4.56195 3.68921 0
M  V30 5752 C 530.649 -4.7139 4.2187 0
M  V30 5753 C 529.313 -4.8336 4.60347 0
M  V30 5754 H 528.583 -0.723937 0.158104 0
M  V30 5755 H 531.23 -1.5923 1.06387 0
M  V30 5756 H 529.535 -3.91624 -0.117452 0
M  V30 5757 H 531.232 -4.00126 0.26454 0
M  V30 5758 H 527.822 -3.93586 1.69671 0
M  V30 5759 H 532.006 -4.20224 2.64056 0
M  V30 5760 H 527.262 -4.63655 3.9854 0
M  V30 5761 H 531.436 -4.91631 4.93226 0
M  V30 5762 H 529.063 -5.1303 5.60985 0
M  V30 5763 N 530.638 -0.59345 -1.46 0
M  V30 5764 C 532.054 -0.255965 -1.57534 0
M  V30 5765 C 532.254 1.24167 -1.58697 0
M  V30 5766 O 531.31 2.02398 -1.50968 0
M  V30 5767 C 532.623 -0.91466 -2.86451 0
M  V30 5768 C 534.171 -0.889253 -3.00102 0
M  V30 5769 C 534.646 -1.52769 -4.3177 0
M  V30 5770 N 536.137 -1.49253 -4.38495 0
M  V30 5771 C 536.872 -1.9558 -5.39014 0
M  V30 5772 N 536.368 -2.49929 -6.46148 0
M  V30 5773 N 538.161 -1.86432 -5.30282 0
M  V30 5774 H 530.312 -1.56604 -1.43489 0
M  V30 5775 H 532.575 -0.655207 -0.685133 0
M  V30 5776 H 532.281 -1.96861 -2.91442 0
M  V30 5777 H 532.155 -0.429356 -3.74748 0
M  V30 5778 H 534.542 0.156111 -2.94687 0
M  V30 5779 H 534.623 -1.41268 -2.13253 0
M  V30 5780 H 534.267 -2.57231 -4.37944 0
M  V30 5781 H 534.197 -0.979398 -5.17412 0
M  V30 5782 H 536.688 -1.09536 -3.61677 0
M  V30 5783 H 537.001 -2.83109 -7.19075 0
M  V30 5784 H 535.346 -2.53961 -6.46938 0
M  V30 5785 H 538.537 -1.43722 -4.4549 0
M  V30 5786 H 538.71 -2.22852 -6.08474 0
M  V30 5787 N 532.116 1.54067 -0.331816 0
M  V30 5788 C 533.048 2.22139 0.564538 0
M  V30 5789 C 534.061 1.22408 1.07332 0
M  V30 5790 O 535.25 1.4883 0.985481 0
M  V30 5791 C 532.35 2.87876 1.78831 0
M  V30 5792 C 531.523 4.13817 1.41682 0
M  V30 5793 C 530.582 4.63072 2.49901 0
M  V30 5794 O 529.608 5.27562 2.13699 0
M  V30 5795 N 530.81 4.38001 3.80967 0
M  V30 5796 H 533.575 2.99694 -0.0183736 0
M  V30 5797 H 531.136 1.61153 -0.155396 0
M  V30 5798 H 533.128 3.17747 2.50637 0
M  V30 5799 H 531.698 2.13977 2.27887 0
M  V30 5800 H 530.918 3.9062 0.530044 0
M  V30 5801 H 532.206 4.95762 1.14443 0
M  V30 5802 H 531.604 3.864 4.13173 0
M  V30 5803 H 530.161 4.72507 4.48977 0
M  V30 5804 N 533.594 0.0601682 1.57485 0
M  V30 5805 C 534.819 -0.624416 1.97777 0
M  V30 5806 C 535.244 -1.63051 0.937867 0
M  V30 5807 O 534.602 -1.81036 -0.0978845 0
M  V30 5808 C 534.65 -1.27979 3.37126 0
M  V30 5809 O 533.754 -2.39556 3.35688 0
M  V30 5810 H 533.095 -0.161581 0.64404 0
M  V30 5811 H 535.625 0.131237 2.04179 0
M  V30 5812 H 535.635 -1.62937 3.74053 0
M  V30 5813 H 534.31 -0.542501 4.12347 0
M  V30 5814 H 532.887 -2.06478 3.10517 0
M  V30 5815 N 535.072 -1.5615 -0.213296 0
M  V30 5816 C 536.318 -1.80718 -0.933402 0
M  V30 5817 C 536.673 -0.634441 -1.81639 0
M  V30 5818 O 535.966 0.371182 -1.8797 0
M  V30 5819 C 536.16 -3.08772 -1.79985 0
M  V30 5820 C 535.989 -4.38389 -1.00224 0
M  V30 5821 C 534.759 -5.00513 -0.693885 0
M  V30 5822 C 536.957 -5.13013 -0.363598 0
M  V30 5823 N 534.939 -6.13774 0.124266 0
M  V30 5824 C 536.31 -6.19186 0.31757 0
M  V30 5825 C 538.365 -4.97126 -0.277468 0
M  V30 5826 C 537.068 -7.11197 1.07664 0
M  V30 5827 C 539.094 -5.89544 0.468155 0
M  V30 5828 C 538.456 -6.95149 1.13784 0
M  V30 5829 H 534.555 -0.712833 -0.321549 0
M  V30 5830 H 537.139 -1.93633 -0.203588 0
M  V30 5831 H 535.31 -2.97126 -2.50142 0
M  V30 5832 H 537.042 -3.21499 -2.45806 0
M  V30 5833 H 533.797 -4.62619 -1.01391 0
M  V30 5834 H 534.221 -6.74981 0.522418 0
M  V30 5835 H 538.863 -4.15526 -0.78087 0
M  V30 5836 H 536.581 -7.92273 1.59153 0
M  V30 5837 H 540.167 -5.79327 0.535911 0
M  V30 5838 H 539.047 -7.65428 1.70557 0
M  V30 5839 N 536.55 0.480323 -1.50102 0
M  V30 5840 C 537.961 1.06142 -1.53593 0
M  V30 5841 C 538.312 1.93335 -0.334055 0
M  V30 5842 O 537.437 2.09188 0.55403 0
M  V30 5843 C 538.032 1.9317 -2.78336 0
M  V30 5844 C 536.591 2.46405 -2.84538 0
M  V30 5845 C 535.738 1.24521 -2.4777 0
M  V30 5846 H 538.689 0.26333 -1.565 0
M  V30 5847 H 538.71 2.78123 -2.59669 0
M  V30 5848 H 538.222 1.29683 -3.65792 0
M  V30 5849 H 536.323 3.13472 -2.01411 0
M  V30 5850 H 536.436 2.82143 -3.87211 0
M  V30 5851 H 534.8 1.57706 -2.00003 0
M  V30 5852 H 535.583 0.627102 -3.37524 0
M  V30 5853 N 538.028 1.39524 0.732853 0
M  V30 5854 C 539.256 1.40143 1.52209 0
M  V30 5855 C 539.671 -0.00348836 1.888 0
M  V30 5856 O 539.028 -0.975357 1.5425 0
M  V30 5857 C 539.079 2.27632 2.8083 0
M  V30 5858 O 538.8 3.62654 2.45792 0
M  V30 5859 C 540.301 2.36658 3.74844 0
M  V30 5860 H 537.521 0.478604 0.470297 0
M  V30 5861 H 540.065 1.83366 0.905388 0
M  V30 5862 H 538.22 1.87818 3.38826 0
M  V30 5863 H 538.634 4.08941 3.28431 0
M  V30 5864 H 540.108 3.02118 4.61984 0
M  V30 5865 H 540.585 1.38638 4.16745 0
M  V30 5866 H 541.191 2.76951 3.22766 0
M  V30 5867 N 539.506 -0.963266 1.24736 0
M  V30 5868 C 540.453 -2.05857 1.04363 0
M  V30 5869 C 541.423 -1.6604 -0.0444951 0
M  V30 5870 O 542.608 -1.90477 0.110999 0
M  V30 5871 C 539.748 -3.38745 0.659235 0
M  V30 5872 C 538.861 -3.9173 1.82131 0
M  V30 5873 C 537.996 -5.12906 1.38208 0
M  V30 5874 C 537.035 -5.58098 2.51382 0
M  V30 5875 N 536.172 -6.7049 2.08295 0
M  V30 5876 H 541.012 -2.22616 1.98107 0
M  V30 5877 H 538.549 -1.09103 0.986661 0
M  V30 5878 H 540.507 -4.15107 0.417371 0
M  V30 5879 H 539.137 -3.21898 -0.241201 0
M  V30 5880 H 538.189 -3.11966 2.17672 0
M  V30 5881 H 539.501 -4.21225 2.67153 0
M  V30 5882 H 538.655 -5.96657 1.09935 0
M  V30 5883 H 537.394 -4.85105 0.502456 0
M  V30 5884 H 536.399 -4.72917 2.80409 0
M  V30 5885 H 537.624 -5.87911 3.39909 0
M  V30 5886 H 535.57 -6.44416 1.22737 0
M  V30 5887 H 535.487 -6.99458 2.86869 0
M  V30 5888 H 536.755 -7.57672 1.83175 0
M  V30 5889 N 540.985 -1.06182 -1.16461 0
M  V30 5890 C 542.234 -0.772927 -1.86303 0
M  V30 5891 C 542.547 0.703187 -1.82523 0
M  V30 5892 O 543.753 1.10641 -2.47933 0
M  V30 5893 C 542.209 -1.33249 -3.34324 0
M  V30 5894 C 541.817 -2.83876 -3.46581 0
M  V30 5895 C 543.561 -1.12108 -4.09429 0
M  V30 5896 C 541.468 -3.33082 -4.88682 0
M  V30 5897 H 540.398 -0.285452 -0.697878 0
M  V30 5898 H 543.049 -1.28039 -1.31447 0
M  V30 5899 H 541.431 -0.7528 -3.88779 0
M  V30 5900 H 542.605 -3.47786 -3.02293 0
M  V30 5901 H 540.92 -3.03671 -2.84909 0
M  V30 5902 H 543.517 -1.46361 -5.14279 0
M  V30 5903 H 543.86 -0.0593832 -4.16258 0
M  V30 5904 H 544.393 -1.6665 -3.6121 0
M  V30 5905 H 541.132 -4.38726 -4.87032 0
M  V30 5906 H 540.652 -2.73919 -5.33599 0
M  V30 5907 H 542.331 -3.28344 -5.57494 0
M  V30 5908 N 542.463 1.3308 -0.844243 0
M  V30 5909 C 543.74 1.92178 -0.364261 0
M  V30 5910 C 544.12 1.76961 1.15101 0
M  V30 5911 O 543.468 1.16128 1.9679 0
M  V30 5912 C 543.678 3.393 -0.817106 0
M  V30 5913 C 545.026 4.16444 -0.828236 0
M  V30 5914 O 546.05 3.47975 -0.761062 0
M  V30 5915 O 544.909 5.38685 -0.920926 0
M  V30 5916 H 542.003 0.820411 -0.10419 0
M  V30 5917 H 544.549 1.41918 -0.930453 0
M  V30 5918 H 543.321 3.44272 -1.85991 0
M  V30 5919 H 542.944 3.96947 -0.227785 0
M  V30 5920 N 543.941 0.601185 1.45683 0
M  V30 5921 C 545.187 0.0940202 2.02582 0
M  V30 5922 C 545.52 -1.26972 1.46941 0
M  V30 5923 O 544.795 -1.83613 0.641612 0
M  V30 5924 C 545.078 0.0481715 3.60068 0
M  V30 5925 C 544.931 1.44212 4.26055 0
M  V30 5926 C 546.25 -0.642975 4.35378 0
M  V30 5927 H 543.369 0.0356404 0.736138 0
M  V30 5928 H 546.011 0.771929 1.73612 0
M  V30 5929 H 544.161 -0.529128 3.8488 0
M  V30 5930 H 545.833 2.06601 4.12449 0
M  V30 5931 H 544.076 2.00465 3.84703 0
M  V30 5932 H 544.747 1.36234 5.34925 0
M  V30 5933 H 547.223 -0.152351 4.15821 0
M  V30 5934 H 546.099 -0.644141 5.45107 0
M  V30 5935 H 546.36 -1.70785 4.0778 0
M  V30 5936 N 545.419 -1.53889 0.339982 0
M  V30 5937 C 546.83 -1.86139 -0.144671 0
M  V30 5938 C 547.181 -1.2613 -1.50285 0
M  V30 5939 O 546.306 -0.573515 -2.08662 0
M  V30 5940 C 546.901 -3.37728 -0.269285 0
M  V30 5941 C 545.46 -3.69868 -0.698168 0
M  V30 5942 C 544.607 -2.76777 0.170249 0
M  V30 5943 H 547.558 -1.48503 0.559704 0
M  V30 5944 H 547.579 -3.64331 -1.0974 0
M  V30 5945 H 547.091 -3.81375 0.719366 0
M  V30 5946 H 545.192 -3.31764 -1.69597 0
M  V30 5947 H 545.305 -4.76582 -0.490533 0
M  V30 5948 H 543.669 -2.52188 -0.356844 0
M  V30 5949 H 544.452 -3.23253 1.15597 0
M  V30 5950 N 546.897 -0.0685191 -1.57451 0
M  V30 5951 C 547.829 0.929372 -2.09512 0
M  V30 5952 C 548.842 1.26354 -1.02657 0
M  V30 5953 O 550.031 1.2213 -1.30179 0
M  V30 5954 C 547.131 2.24612 -2.53777 0
M  V30 5955 C 546.304 2.09128 -3.84167 0
M  V30 5956 C 545.363 3.24079 -4.14559 0
M  V30 5957 O 544.389 2.99215 -4.8421 0
M  V30 5958 N 545.591 4.49077 -3.67845 0
M  V30 5959 H 548.356 0.484901 -2.95751 0
M  V30 5960 H 545.917 0.11729 -1.61475 0
M  V30 5961 H 547.909 3.00412 -2.71172 0
M  V30 5962 H 546.479 2.60569 -1.72692 0
M  V30 5963 H 545.699 1.17815 -3.76182 0
M  V30 5964 H 546.987 1.9603 -4.69521 0
M  V30 5965 H 546.385 4.72165 -3.11571 0
M  V30 5966 H 544.942 5.21915 -3.90446 0
M  V30 5967 N 548.375 1.56261 0.205012 0
M  V30 5968 C 549.652 1.70856 0.952233 0
M  V30 5969 C 550.032 0.620501 2.01775 0
M  V30 5970 O 549.38 -0.370035 2.25484 0
M  V30 5971 C 549.59 3.12807 1.54767 0
M  V30 5972 C 550.938 3.72733 2.0336 0
M  V30 5973 O 551.962 3.15873 1.64629 0
M  V30 5974 O 550.821 4.72501 2.746 0
M  V30 5975 H 547.915 0.696496 0.445895 0
M  V30 5976 H 550.461 1.6857 0.195489 0
M  V30 5977 H 549.233 3.83465 0.779132 0
M  V30 5978 H 548.856 3.1928 2.36951 0
M  V30 5979 N 549.853 -0.472356 1.50355 0
M  V30 5980 C 550.783 -1.57859 1.72055 0
M  V30 5981 C 551.764 -1.60283 0.569505 0
M  V30 5982 O 552.949 -1.7657 0.808503 0
M  V30 5983 C 550.079 -2.96191 1.81351 0
M  V30 5984 C 549.033 -3.08633 2.96529 0
M  V30 5985 C 548.359 -4.486 2.90968 0
M  V30 5986 C 549.659 -2.85969 4.37057 0
M  V30 5987 H 551.353 -1.39953 2.64676 0
M  V30 5988 H 548.899 -0.671846 1.27367 0
M  V30 5989 H 550.852 -3.73507 1.95117 0
M  V30 5990 H 549.576 -3.15251 0.853502 0
M  V30 5991 H 548.235 -2.33749 2.82413 0
M  V30 5992 H 547.883 -4.64577 1.92815 0
M  V30 5993 H 547.583 -4.57861 3.68289 0
M  V30 5994 H 549.107 -5.27938 3.0678 0
M  V30 5995 H 550.521 -3.53036 4.51706 0
M  V30 5996 H 548.918 -3.06677 5.15819 0
M  V30 5997 H 549.988 -1.81838 4.49514 0
M  V30 5998 N 551.331 -1.39911 -0.725443 0
M  V30 5999 C 552.241 -1.41688 -1.8698 0
M  V30 6000 C 553.257 -0.310579 -1.71206 0
M  V30 6001 O 554.433 -0.55359 -1.93642 0
M  V30 6002 C 551.498 -1.26811 -3.22676 0
M  V30 6003 C 550.559 -2.47497 -3.50776 0
M  V30 6004 C 549.792 -2.3332 -4.79997 0
M  V30 6005 O 550.015 -1.34175 -5.54394 0
M  V30 6006 O 548.949 -3.22498 -5.08211 0
M  V30 6007 H 552.775 -2.38171 -1.88436 0
M  V30 6008 H 550.36 -1.21128 -0.874548 0
M  V30 6009 H 552.242 -1.20684 -4.03749 0
M  V30 6010 H 550.917 -0.334289 -3.21969 0
M  V30 6011 H 549.824 -2.59201 -2.69751 0
M  V30 6012 H 551.157 -3.39606 -3.5627 0
M  V30 6013 N 552.809 0.956637 -1.25245 0
M  V30 6014 C 554.086 1.67716 -1.00651 0
M  V30 6015 C 554.466 2.0585 0.467866 0
M  V30 6016 O 553.814 1.77029 1.44475 0
M  V30 6017 C 554.024 2.90093 -1.94028 0
M  V30 6018 C 555.372 3.6209 -2.21756 0
M  V30 6019 O 556.396 3.00171 -1.9177 0
M  V30 6020 O 555.255 4.7358 -2.72735 0
M  V30 6021 H 552.349 0.733731 -0.381533 0
M  V30 6022 H 554.895 1.00974 -1.3639 0
M  V30 6023 H 553.667 2.58689 -2.93591 0
M  V30 6024 H 553.29 3.64566 -1.58674 0
M  V30 6025 N 554.287 1.06798 1.15896 0
M  V30 6026 C 555.564 0.701057 1.82605 0
M  V30 6027 C 555.944 -0.817066 1.94646 0
M  V30 6028 O 555.292 -1.72933 1.49353 0
M  V30 6029 C 555.502 1.40895 3.19296 0
M  V30 6030 C 556.85 1.55744 3.95005 0
M  V30 6031 O 557.874 1.36927 3.28831 0
M  V30 6032 O 556.733 1.86658 5.13635 0
M  V30 6033 H 553.827 0.248791 0.78869 0
M  V30 6034 H 556.373 1.16857 1.23055 0
M  V30 6035 H 555.145 2.4439 3.05596 0
M  V30 6036 H 554.768 0.931847 3.86526 0
M  V30 6037 N 555.766 -1.3263 0.851289 0
M  V30 6038 C 556.696 -2.31449 0.308771 0
M  V30 6039 C 557.677 -1.59531 -0.590255 0
M  V30 6040 O 558.862 -1.87351 -0.511205 0
M  V30 6041 C 555.992 -3.43586 -0.506548 0
M  V30 6042 C 554.946 -4.26963 0.297753 0
M  V30 6043 C 554.272 -5.30831 -0.642094 0
M  V30 6044 C 555.572 -4.99643 1.52166 0
M  V30 6045 H 557.266 -2.77074 1.13447 0
M  V30 6046 H 554.812 -1.33207 0.546971 0
M  V30 6047 H 556.765 -4.11754 -0.896474 0
M  V30 6048 H 555.489 -2.96681 -1.36558 0
M  V30 6049 H 554.148 -3.60437 0.669391 0
M  V30 6050 H 553.796 -4.8018 -1.49788 0
M  V30 6051 H 553.496 -5.87501 -0.107968 0
M  V30 6052 H 555.02 -6.01862 -1.02927 0
M  V30 6053 H 556.434 -5.6051 1.20421 0
M  V30 6054 H 554.831 -5.66022 1.99347 0
M  V30 6055 H 555.901 -4.27701 2.28474 0
M  V30 6056 N 557.244 -0.608902 -1.45362 0
M  V30 6057 C 558.472 -0.111013 -2.06602 0
M  V30 6058 C 558.887 1.20516 -1.45332 0
M  V30 6059 O 558.244 1.73437 -0.567978 0
M  V30 6060 C 558.295 0.033688 -3.61484 0
M  V30 6061 O 558.016 -1.23041 -4.20467 0
M  V30 6062 C 559.517 0.562882 -4.39712 0
M  V30 6063 H 556.737 -0.0694453 -0.667397 0
M  V30 6064 H 559.281 -0.837008 -1.86586 0
M  V30 6065 H 557.436 0.710016 -3.80838 0
M  V30 6066 H 557.85 -1.06094 -5.13658 0
M  V30 6067 H 559.324 0.613213 -5.48583 0
M  V30 6068 H 559.801 1.58543 -4.09586 0
M  V30 6069 H 560.407 -0.0794454 -4.25226 0
M  V30 6070 N 558.722 1.53707 -0.348139 0
M  V30 6071 C 559.685 2.23812 0.494058 0
M  V30 6072 C 560.685 1.23989 1.02388 0
M  V30 6073 O 561.875 1.48395 0.912396 0
M  V30 6074 C 559.007 2.96133 1.68872 0
M  V30 6075 H 560.2 2.99663 -0.119141 0
M  V30 6076 H 557.753 1.55983 -0.0995539 0
M  V30 6077 H 558.488 2.24481 2.34049 0
M  V30 6078 H 558.273 3.69357 1.31596 0
M  V30 6079 H 559.763 3.49475 2.28597 0
M  V30 6080 N 560.2 0.0768682 1.57412 0
M  V30 6081 C 561.428 -0.59997 1.9801 0
M  V30 6082 C 561.843 -1.62842 0.955408 0
M  V30 6083 O 561.2 -1.8241 -0.057314 0
M  V30 6084 C 561.251 -1.26401 3.38681 0
M  V30 6085 O 560.972 -0.276723 4.37225 0
M  V30 6086 C 562.473 -2.0282 3.94182 0
M  V30 6087 H 559.693 -0.162239 0.651091 0
M  V30 6088 H 562.237 0.150771 2.03943 0
M  V30 6089 H 560.392 -1.96581 3.33819 0
M  V30 6090 H 560.806 -0.753744 5.19056 0
M  V30 6091 H 562.28 -2.44667 4.94815 0
M  V30 6092 H 562.757 -2.88678 3.31001 0
M  V30 6093 H 563.363 -1.37496 4.02461 0
M  V30 6094 N 561.678 -1.56367 -0.196722 0
M  V30 6095 C 563.089 -1.70462 -0.761545 0
M  V30 6096 C 563.44 -0.683161 -1.83922 0
M  V30 6097 O 562.565 0.160753 -2.15802 0
M  V30 6098 C 563.16 -3.09057 -1.38814 0
M  V30 6099 C 561.719 -3.24922 -1.90007 0
M  V30 6100 C 560.866 -2.66412 -0.769399 0
M  V30 6101 H 563.817 -1.58675 0.0283263 0
M  V30 6102 H 563.838 -3.06296 -2.2575 0
M  V30 6103 H 563.35 -3.83378 -0.603559 0
M  V30 6104 H 561.451 -2.55514 -2.71189 0
M  V30 6105 H 561.564 -4.3241 -2.06297 0
M  V30 6106 H 559.928 -2.25546 -1.18326 0
M  V30 6107 H 560.711 -3.433 0.00291773 0
M  V30 6108 N 563.156 0.464375 -1.50603 0
M  V30 6109 C 564.086 1.56944 -1.72889 0
M  V30 6110 C 565.067 1.59979 -0.577997 0
M  V30 6111 O 566.252 1.76138 -0.817855 0
M  V30 6112 C 563.382 2.95225 -1.8292 0
M  V30 6113 C 562.336 3.07056 -2.98162 0
M  V30 6114 C 561.662 4.47051 -2.93343 0
M  V30 6115 C 562.962 2.83648 -4.38567 0
M  V30 6116 H 564.656 1.38547 -2.65415 0
M  V30 6117 H 562.202 0.665082 -1.27721 0
M  V30 6118 H 564.155 3.72467 -1.97095 0
M  V30 6119 H 562.879 3.14793 -0.870209 0
M  V30 6120 H 561.538 2.32248 -2.83648 0
M  V30 6121 H 561.186 4.63547 -1.95276 0
M  V30 6122 H 560.886 4.55902 -3.70712 0
M  V30 6123 H 562.41 5.26304 -3.09575 0
M  V30 6124 H 563.824 3.50636 -4.53572 0
M  V30 6125 H 562.221 3.03937 -5.17438 0
M  V30 6126 H 563.291 1.79451 -4.50472 0
M  V30 6127 N 564.634 1.40294 0.718013 0
M  V30 6128 C 565.859 1.41941 1.5122 0
M  V30 6129 C 566.284 0.0202371 1.88089 0
M  V30 6130 O 565.642 -0.971078 1.53101 0
M  V30 6131 C 565.69 2.3141 2.76554 0
M  V30 6132 O 564.794 1.75567 3.73162 0
M  V30 6133 H 564.135 0.482644 0.456016 0
M  V30 6134 H 566.665 1.84494 0.884478 0
M  V30 6135 H 566.675 2.46513 3.25108 0
M  V30 6136 H 565.35 3.33085 2.49053 0
M  V30 6137 H 563.927 1.69798 3.31999 0
M  V30 6138 N 566.112 -0.949982 1.2575 0
M  V30 6139 C 567.062 -2.03297 1.03221 0
M  V30 6140 C 568.046 -1.60867 -0.0324751 0
M  V30 6141 O 569.238 -1.76047 0.183423 0
M  V30 6142 C 566.367 -3.36938 0.657841 0
M  V30 6143 C 565.453 -3.85878 1.75952 0
M  V30 6144 N 565.844 -4.0756 2.99547 0
M  V30 6145 C 564.142 -4.14709 1.64111 0
M  V30 6146 C 564.843 -4.47961 3.71087 0
M  V30 6147 N 563.819 -4.5416 2.98731 0
M  V30 6148 H 567.621 -2.1806 1.97045 0
M  V30 6149 H 565.135 -1.13516 1.16138 0
M  V30 6150 H 567.132 -4.14155 0.477614 0
M  V30 6151 H 565.792 -3.2355 -0.273025 0
M  V30 6152 H 566.803 -3.94501 3.35544 0
M  V30 6153 H 563.48 -4.10158 0.779527 0
M  V30 6154 H 564.87 -4.73002 4.77199 0
M  V30 6155 N 567.59 -1.07411 -1.15328 0
M  V30 6156 C 568.553 -0.698914 -2.18284 0
M  V30 6157 C 569.553 0.261149 -1.58665 0
M  V30 6158 O 570.743 0.0420277 -1.74149 0
M  V30 6159 C 567.875 -0.0302427 -3.40887 0
M  V30 6160 H 569.068 -1.61045 -2.52991 0
M  V30 6161 H 566.621 -0.870724 -1.298 0
M  V30 6162 H 567.356 0.893505 -3.11748 0
M  V30 6163 H 567.141 -0.720759 -3.85419 0
M  V30 6164 H 568.631 0.21759 -4.17033 0
M  V30 6165 N 569.068 1.32177 -0.85831 0
M  V30 6166 C 570.296 2.01313 -0.477582 0
M  V30 6167 C 570.711 1.6449 0.926736 0
M  V30 6168 O 570.068 0.868096 1.60531 0
M  V30 6169 C 570.119 3.56293 -0.611337 0
M  V30 6170 O 569.84 3.91794 -1.96034 0
M  V30 6171 C 571.341 4.42702 -0.230093 0
M  V30 6172 H 568.561 0.644323 -0.187322 0
M  V30 6173 H 571.105 1.68674 -1.15626 0
M  V30 6174 H 569.26 3.87395 0.0196494 0
M  V30 6175 H 569.674 4.86513 -1.95973 0
M  V30 6176 H 571.148 5.50727 -0.374674 0
M  V30 6177 H 571.625 4.3129 0.829779 0
M  V30 6178 H 572.231 4.16997 -0.836302 0
M  V30 6179 N 570.547 0.616602 1.45037 0
M  V30 6180 C 571.793 0.115501 2.02471 0
M  V30 6181 C 572.126 -1.25406 1.4828 0
M  V30 6182 O 571.401 -1.82922 0.661051 0
M  V30 6183 C 571.684 0.0863588 3.59996 0
M  V30 6184 C 571.537 1.48723 4.24501 0
M  V30 6185 C 572.856 -0.596762 4.36035 0
M  V30 6186 H 569.975 0.0434461 0.735718 0
M  V30 6187 H 572.617 0.7903 1.72784 0
M  V30 6188 H 570.767 -0.488277 3.85419 0
M  V30 6189 H 572.439 2.10964 4.10234 0
M  V30 6190 H 570.682 2.04534 3.82555 0
M  V30 6191 H 571.353 1.419 5.3345 0
M  V30 6192 H 573.829 -0.10824 4.15959 0
M  V30 6193 H 572.705 -0.586289 5.4576 0
M  V30 6194 H 572.966 -1.66451 4.09569 0
M  V30 6195 N 572.025 -1.5352 0.356285 0
M  V30 6196 C 573.436 -1.86282 -0.12492 0
M  V30 6197 C 573.787 -1.27717 -1.48939 0
M  V30 6198 O 572.912 -0.595614 -2.08042 0
M  V30 6199 C 573.507 -3.37995 -0.23345 0
M  V30 6200 C 572.066 -3.70588 -0.658899 0
M  V30 6201 C 571.213 -2.76581 0.199596 0
M  V30 6202 H 574.164 -1.47901 0.575423 0
M  V30 6203 H 574.185 -3.65475 -1.0587 0
M  V30 6204 H 573.697 -3.8059 0.759776 0
M  V30 6205 H 571.798 -3.33544 -1.66069 0
M  V30 6206 H 571.911 -4.77076 -0.439957 0
M  V30 6207 H 570.275 -2.52552 -0.330076 0
M  V30 6208 H 571.058 -3.22008 1.19019 0
M  V30 6209 N 573.503 -0.0852151 -1.57369 0
M  V30 6210 C 574.435 0.907099 -2.10486 0
M  V30 6211 C 575.448 1.25259 -1.03991 0
M  V30 6212 O 576.637 1.20743 -1.31467 0
M  V30 6213 C 573.737 2.21908 -2.56145 0
M  V30 6214 C 572.91 2.05042 -3.86363 0
M  V30 6215 C 571.969 3.19664 -4.17973 0
M  V30 6216 O 570.995 2.94062 -4.87356 0
M  V30 6217 N 572.197 4.45151 -3.72587 0
M  V30 6218 H 574.962 0.453505 -2.96249 0
M  V30 6219 H 572.523 0.100157 -1.6159 0
M  V30 6220 H 574.515 2.97519 -2.74343 0
M  V30 6221 H 573.085 2.58723 -1.75446 0
M  V30 6222 H 572.305 1.13819 -3.77411 0
M  V30 6223 H 573.593 1.91039 -4.71574 0
M  V30 6224 H 572.991 4.68834 -3.16561 0
M  V30 6225 H 571.548 5.17744 -3.9596 0
M  V30 6226 N 574.981 1.5647 0.188427 0
M  V30 6227 C 576.206 1.85486 0.927891 0
M  V30 6228 C 576.631 0.669575 1.75779 0
M  V30 6229 O 575.989 -0.381573 1.77239 0
M  V30 6230 C 576.037 3.12784 1.7944 0
M  V30 6231 O 575.141 2.93805 2.894 0
M  V30 6232 H 574.482 0.610585 0.260925 0
M  V30 6233 H 577.012 2.037 0.191729 0
M  V30 6234 H 577.022 3.43749 2.19774 0
M  V30 6235 H 575.697 3.98671 1.18468 0
M  V30 6236 H 574.274 2.74153 2.52774 0
M  V30 6237 N 576.459 -0.456382 1.50847 0
M  V30 6238 C 577.87 -1.03685 1.55262 0
M  V30 6239 C 578.221 -1.92779 0.364771 0
M  V30 6240 O 577.346 -2.10043 -0.52068 0
M  V30 6241 C 577.941 -1.88718 2.81374 0
M  V30 6242 C 576.5 -2.41847 2.88422 0
M  V30 6243 C 575.647 -1.20564 2.49719 0
M  V30 6244 H 578.598 -0.238399 1.56899 0
M  V30 6245 H 578.619 -2.73957 2.6406 0
M  V30 6246 H 578.131 -1.23847 3.67809 0
M  V30 6247 H 576.232 -3.10228 2.06372 0
M  V30 6248 H 576.345 -2.75947 3.9165 0
M  V30 6249 H 574.709 -1.54504 2.02486 0
M  V30 6250 H 575.492 -0.573326 3.38479 0
M  V30 6251 N 577.937 -1.40673 -0.710563 0
M  V30 6252 C 578.9 -1.4108 -1.80635 0
M  V30 6253 C 579.9 -0.303783 -1.57904 0
M  V30 6254 O 581.09 -0.562937 -1.64853 0
M  V30 6255 C 578.222 -1.20748 -3.18799 0
M  V30 6256 H 579.415 -2.38612 -1.81671 0
M  V30 6257 H 576.968 -1.26595 -0.916704 0
M  V30 6258 H 577.703 -0.239964 -3.23411 0
M  V30 6259 H 577.488 -2.00941 -3.36698 0
M  V30 6260 H 578.978 -1.23833 -3.98817 0
M  V30 6261 N 579.415 0.9433 -1.26252 0
M  V30 6262 C 580.831 1.21644 -1.03319 0
M  V30 6263 C 581.031 2.0003 0.242983 0
M  V30 6264 O 580.087 2.33838 0.952688 0
M  V30 6265 C 581.4 1.97978 -2.2633 0
M  V30 6266 C 582.948 2.10978 -2.31209 0
M  V30 6267 C 583.423 2.90713 -3.53907 0
M  V30 6268 N 584.914 2.98287 -3.54371 0
M  V30 6269 C 585.649 3.60406 -4.45976 0
M  V30 6270 N 585.145 4.24043 -5.47868 0
M  V30 6271 N 586.938 3.57658 -4.33633 0
M  V30 6272 H 579.089 0.419221 -2.08222 0
M  V30 6273 H 581.352 0.247995 -0.914988 0
M  V30 6274 H 581.058 1.47788 -3.19142 0
M  V30 6275 H 580.932 2.9865 -2.30408 0
M  V30 6276 H 583.319 2.6036 -1.38913 0
M  V30 6277 H 583.4 1.09575 -2.31143 0
M  V30 6278 H 583.044 2.42018 -4.46531 0
M  V30 6279 H 582.974 3.92367 -3.5122 0
M  V30 6280 H 585.465 2.53044 -2.80673 0
M  V30 6281 H 585.778 4.69334 -6.13959 0
M  V30 6282 H 584.123 4.22637 -5.51728 0
M  V30 6283 H 587.314 3.07134 -3.53251 0
M  V30 6284 H 587.487 4.05782 -5.05218 0
M  V30 6285 N 580.893 1.08022 1.14757 0
M  V30 6286 C 581.856 0.71048 2.1791 0
M  V30 6287 C 582.856 -0.252731 1.58801 0
M  V30 6288 O 584.046 -0.0327915 1.74169 0
M  V30 6289 C 581.178 0.0483203 3.40866 0
M  V30 6290 H 582.371 1.62384 2.52134 0
M  V30 6291 H 579.924 0.877595 1.29337 0
M  V30 6292 H 580.659 -0.876959 3.12218 0
M  V30 6293 H 580.444 0.741189 3.85031 0
M  V30 6294 H 581.934 -0.195471 4.17142 0
M  V30 6295 N 582.371 -1.3172 0.865308 0
M  V30 6296 C 583.334 -2.26918 0.322627 0
M  V30 6297 C 584.334 -1.52031 -0.523751 0
M  V30 6298 O 585.524 -1.70973 -0.333727 0
M  V30 6299 C 582.656 -3.36558 -0.542338 0
M  V30 6300 H 583.849 -2.76432 1.16298 0
M  V30 6301 H 581.402 -1.42573 0.640512 0
M  V30 6302 H 582.137 -2.92329 -1.40407 0
M  V30 6303 H 581.922 -3.92048 0.0636395 0
M  V30 6304 H 583.412 -4.07465 -0.91446 0
M  V30 6305 N 583.85 -0.624285 -1.44708 0
M  V30 6306 C 585.127 -0.0572781 -1.95516 0
M  V30 6307 C 585.507 1.41516 -1.56641 0
M  V30 6308 O 584.855 2.12614 -0.837111 0
M  V30 6309 C 585.065 -0.272944 -3.47931 0
M  V30 6310 C 586.413 -0.162529 -4.24289 0
M  V30 6311 O 587.437 -0.203946 -3.55616 0
M  V30 6312 O 586.296 -0.0616847 -5.46465 0
M  V30 6313 H 583.389 0.0262219 -0.826584 0
M  V30 6314 H 585.936 -0.695512 -1.54793 0
M  V30 6315 H 584.707 -1.29492 -3.69253 0
M  V30 6316 H 584.331 0.399756 -3.95585 0
M  V30 6317 N 585.328 1.53329 -0.364422 0
M  V30 6318 C 586.553 2.06132 0.229033 0
M  V30 6319 C 586.978 1.23625 1.41769 0
M  V30 6320 O 586.336 0.255038 1.79497 0
M  V30 6321 C 586.384 3.55544 0.60174 0
M  V30 6322 O 585.488 3.75771 1.69912 0
M  V30 6323 H 584.829 0.663148 0.0336213 0
M  V30 6324 H 587.359 1.97758 -0.524689 0
M  V30 6325 H 587.369 3.98549 0.873073 0
M  V30 6326 H 586.044 4.15039 -0.267421 0
M  V30 6327 H 584.621 3.44663 1.42343 0
M  V30 6328 N 586.806 0.0935595 1.57322 0
M  V30 6329 C 588.052 -0.571355 1.94585 0
M  V30 6330 C 588.385 -1.67929 0.975366 0
M  V30 6331 O 587.66 -1.94498 0.00816206 0
M  V30 6332 C 587.943 -1.12797 3.41978 0
M  V30 6333 C 587.796 -0.0251881 4.49793 0
M  V30 6334 C 589.115 -2.02682 3.90651 0
M  V30 6335 H 586.234 -0.206223 0.70756 0
M  V30 6336 H 588.876 0.163956 1.89291 0
M  V30 6337 H 587.026 -1.75461 3.4662 0
M  V30 6338 H 588.698 0.608979 4.57263 0
M  V30 6339 H 586.941 0.641399 4.29032 0
M  V30 6340 H 587.612 -0.455433 5.50118 0
M  V30 6341 H 590.088 -1.49925 3.88152 0
M  V30 6342 H 588.964 -2.38555 4.94351 0
M  V30 6343 H 589.225 -2.94362 3.29854 0
M  V30 6344 N 588.284 -1.56567 -0.180126 0
M  V30 6345 C 589.214 -1.98753 -1.22553 0
M  V30 6346 C 590.195 -0.86175 -1.46656 0
M  V30 6347 O 591.38 -1.12719 -1.58139 0
M  V30 6348 C 588.51 -2.33988 -2.56645 0
M  V30 6349 C 587.464 -3.49445 -2.47128 0
M  V30 6350 C 586.79 -3.70397 -3.8563 0
M  V30 6351 C 588.09 -4.83171 -1.98352 0
M  V30 6352 H 589.784 -2.86332 -0.874896 0
M  V30 6353 H 587.33 -1.37757 -0.419414 0
M  V30 6354 H 589.283 -2.62097 -3.29974 0
M  V30 6355 H 588.007 -1.43309 -2.93479 0
M  V30 6356 H 586.666 -3.2145 -1.76254 0
M  V30 6357 H 586.314 -2.77023 -4.19842 0
M  V30 6358 H 586.014 -4.48077 -3.80132 0
M  V30 6359 H 587.538 -4.00897 -4.60558 0
M  V30 6360 H 588.952 -5.10213 -2.61449 0
M  V30 6361 H 587.349 -5.64425 -2.03823 0
M  V30 6362 H 588.419 -4.75753 -0.937402 0
M  V30 6363 N 589.762 0.448376 -1.51087 0
M  V30 6364 C 590.71 1.56407 -1.72161 0
M  V30 6365 C 591.704 1.58878 -0.587721 0
M  V30 6366 O 592.91 1.62755 -0.768822 0
M  V30 6367 H 589.285 0.519423 -0.543786 0
M  V30 6368 H 591.256 1.35803 -2.65707 0
M  V30 6369 C 590.005 2.94163 -1.85373 0
M  V30 6370 H 589.328 2.9299 -2.72024 0
M  V30 6371 H 590.768 3.71625 -2.04135 0
M  V30 6372 C 589.227 3.31317 -0.610803 0
M  V30 6373 O 589.757 4.00985 0.239636 0
M  V30 6374 N 587.963 2.86966 -0.458127 0
M  V30 6375 H 587.51 2.30443 -1.15124 0
M  V30 6376 H 587.468 3.12188 0.372289 0
M  V30 6377 N 591.24 1.41047 0.703093 0
M  V30 6378 C 592.488 1.39723 1.4602 0
M  V30 6379 C 592.809 0.00461257 1.94999 0
M  V30 6380 O 592.079 -0.952292 1.71196 0
M  V30 6381 H 590.659 0.514281 0.541779 0
M  V30 6382 H 593.321 1.76217 0.832678 0
M  V30 6383 H 592.417 2.07982 2.32701 0
M  V30 6384 N 592.718 -0.936591 1.26751 0
M  V30 6385 C 593.668 -2.0219 1.05371 0
M  V30 6386 C 594.652 -1.60893 -0.0154112 0
M  V30 6387 O 595.844 -1.75843 0.202085 0
M  V30 6388 C 592.973 -3.36222 0.693541 0
M  V30 6389 C 592.059 -3.8399 1.80035 0
M  V30 6390 N 592.45 -4.0436 3.03852 0
M  V30 6391 C 590.748 -4.12945 1.685 0
M  V30 6392 C 591.449 -4.44 3.75818 0
M  V30 6393 N 590.425 -4.50966 3.03531 0
M  V30 6394 H 594.227 -2.15958 1.99347 0
M  V30 6395 H 591.741 -1.12277 1.17335 0
M  V30 6396 H 593.738 -4.13625 0.521513 0
M  V30 6397 H 592.398 -3.23821 -0.238693 0
M  V30 6398 H 593.409 -3.9092 3.39709 0
M  V30 6399 H 590.086 -4.09308 0.822986 0
M  V30 6400 H 591.476 -4.67914 4.82189 0
M  V30 6401 N 594.196 -1.08629 -1.14182 0
M  V30 6402 C 595.612 -0.814363 -1.3726 0
M  V30 6403 C 595.812 0.575271 -1.93114 0
M  V30 6404 O 594.868 1.33165 -2.1453 0
M  V30 6405 C 596.181 -1.8989 -2.33157 0
M  V30 6406 C 597.729 -1.92518 -2.46791 0
M  V30 6407 C 598.204 -3.00092 -3.45989 0
M  V30 6408 N 599.695 -2.99279 -3.53534 0
M  V30 6409 C 600.43 -3.79158 -4.30147 0
M  V30 6410 N 599.926 -4.68923 -5.09983 0
M  V30 6411 N 601.719 -3.67451 -4.25366 0
M  V30 6412 H 593.87 -1.98232 -0.762758 0
M  V30 6413 H 596.133 -0.860383 -0.398051 0
M  V30 6414 H 595.839 -2.89809 -1.99257 0
M  V30 6415 H 595.713 -1.77013 -3.33086 0
M  V30 6416 H 598.1 -0.932425 -2.79982 0
M  V30 6417 H 598.181 -2.09473 -1.46816 0
M  V30 6418 H 597.825 -3.99575 -3.13532 0
M  V30 6419 H 597.755 -2.80382 -4.45751 0
M  V30 6420 H 600.246 -2.3422 -2.96563 0
M  V30 6421 H 600.559 -5.26475 -5.65724 0
M  V30 6422 H 598.904 -4.72964 -5.09244 0
M  V30 6423 H 602.095 -2.9669 -3.62067 0
M  V30 6424 H 602.268 -4.29944 -4.84822 0
M  V30 6425 N 595.674 1.31259 -0.872281 0
M  V30 6426 C 596.899 2.0133 -0.498099 0
M  V30 6427 C 597.324 1.65031 0.902568 0
M  V30 6428 O 596.682 0.860164 1.59596 0
M  V30 6429 C 596.73 3.54411 -0.665205 0
M  V30 6430 O 595.834 4.11347 0.294473 0
M  V30 6431 H 595.175 0.633844 -0.197832 0
M  V30 6432 H 597.705 1.67402 -1.17633 0
M  V30 6433 H 597.715 4.04147 -0.559373 0
M  V30 6434 H 596.39 3.80171 -1.68651 0
M  V30 6435 H 594.967 3.72624 0.143403 0
M  V30 6436 N 597.152 0.631951 1.44375 0
M  V30 6437 C 598.099 -0.0724807 2.30686 0
M  V30 6438 C 599.069 -0.835975 1.43529 0
M  V30 6439 O 600.254 -0.816849 1.7243 0
M  V30 6440 C 597.394 -1.04753 3.28817 0
M  V30 6441 C 596.507 -0.282367 4.31076 0
M  V30 6442 C 595.642 -1.2493 5.163 0
M  V30 6443 C 594.681 -0.473349 6.10267 0
M  V30 6444 N 593.818 -1.39079 6.88187 0
M  V30 6445 H 598.658 0.669477 2.90383 0
M  V30 6446 H 596.195 0.341927 1.43071 0
M  V30 6447 H 598.153 -1.62623 3.842 0
M  V30 6448 H 596.783 -1.75661 2.70819 0
M  V30 6449 H 595.835 0.412268 3.78159 0
M  V30 6450 H 597.147 0.321955 4.9776 0
M  V30 6451 H 596.301 -1.89931 5.76204 0
M  V30 6452 H 595.04 -1.88755 4.49692 0
M  V30 6453 H 594.045 0.190142 5.49471 0
M  V30 6454 H 595.27 0.16019 6.78911 0
M  V30 6455 H 593.216 -2.01623 6.24247 0
M  V30 6456 H 593.133 -0.840513 7.51313 0
M  V30 6457 H 594.401 -2.02961 7.52613 0
M  V30 6458 N 598.631 -1.53133 0.372548 0
M  V30 6459 C 599.879 -2.00958 -0.214534 0
M  V30 6460 C 600.2 -1.26135 -1.48711 0
M  V30 6461 O 599.47 -0.376597 -1.92246 0
M  V30 6462 H 598.05 -0.742456 -0.0822664 0
M  V30 6463 H 600.712 -1.88367 0.500385 0
M  V30 6464 H 599.808 -3.09031 -0.436605 0
M  V30 6465 N 600.109 -0.101901 -1.5727 0
M  V30 6466 C 601.039 0.851544 -2.17419 0
M  V30 6467 C 602.02 1.28942 -1.10941 0
M  V30 6468 O 603.205 1.35509 -1.39107 0
M  V30 6469 C 600.335 2.10816 -2.75996 0
M  V30 6470 C 599.289 1.80867 -3.87906 0
M  V30 6471 C 598.615 3.13413 -4.33216 0
M  V30 6472 C 599.915 1.0903 -5.10793 0
M  V30 6473 H 601.609 0.350381 -2.97343 0
M  V30 6474 H 599.155 0.16709 -1.43027 0
M  V30 6475 H 601.108 2.77959 -3.16729 0
M  V30 6476 H 599.832 2.63227 -1.93337 0
M  V30 6477 H 598.491 1.16119 -3.47724 0
M  V30 6478 H 598.139 3.63725 -3.47438 0
M  V30 6479 H 597.839 2.94155 -5.08671 0
M  V30 6480 H 599.363 3.81704 -4.76586 0
M  V30 6481 H 600.777 1.66295 -5.48652 0
M  V30 6482 H 599.174 0.99927 -5.91722 0
M  V30 6483 H 600.244 0.0741704 -4.84843 0
M  V30 6484 N 601.587 1.56661 0.17182 0
M  V30 6485 C 602.827 1.83762 0.895029 0
M  V30 6486 C 603.191 0.682752 1.79451 0
M  V30 6487 O 604.392 0.834208 2.55528 0
M  V30 6488 C 602.663 3.15976 1.67015 0
M  V30 6489 S 604.222 3.64558 2.44219 0
M  V30 6490 H 601.04 0.644713 0.299778 0
M  V30 6491 H 603.642 1.94871 0.156701 0
M  V30 6492 H 602.346 3.98021 1.00039 0
M  V30 6493 H 601.877 3.07807 2.44986 0
M  V30 6494 H 603.892 3.31845 3.68909 0
M  V30 6495 N 603.065 -0.440357 1.51323 0
M  V30 6496 C 604.342 -1.20109 1.5438 0
M  V30 6497 C 604.722 -2.08866 0.306303 0
M  V30 6498 O 604.07 -2.1723 -0.708773 0
M  V30 6499 C 604.28 -2.00555 2.8562 0
M  V30 6500 C 605.628 -2.577 3.37455 0
M  V30 6501 O 606.652 -2.10769 2.8715 0
M  V30 6502 O 605.511 -3.43289 4.25224 0
M  V30 6503 H 602.605 -0.546668 0.620551 0
M  V30 6504 H 605.151 -0.449672 1.63634 0
M  V30 6505 H 603.923 -1.35346 3.67147 0
M  V30 6506 H 603.546 -2.82768 2.79514 0
M  V30 6507 N 604.543 -1.41418 -0.695603 0
M  V30 6508 C 605.768 -1.44329 -1.48942 0
M  V30 6509 C 606.193 -0.0501579 -1.88033 0
M  V30 6510 O 605.551 0.946598 -1.54626 0
M  V30 6511 C 605.599 -2.3578 -2.72837 0
M  V30 6512 O 604.703 -1.81482 -3.70322 0
M  V30 6513 H 604.044 -0.489838 -0.44828 0
M  V30 6514 H 606.574 -1.85878 -0.855014 0
M  V30 6515 H 606.584 -2.51654 -3.21145 0
M  V30 6516 H 605.259 -3.37005 -2.43722 0
M  V30 6517 H 603.836 -1.75058 -3.29255 0
M  V30 6518 N 606.021 0.929856 -1.27246 0
M  V30 6519 C 606.984 2.01172 -1.09829 0
M  V30 6520 C 607.984 1.60743 -0.0429687 0
M  V30 6521 O 609.174 1.71813 -0.287373 0
M  V30 6522 C 606.306 3.34191 -0.673003 0
M  V30 6523 H 607.499 2.18054 -2.05895 0
M  V30 6524 H 605.052 1.11036 -1.10003 0
M  V30 6525 H 605.787 3.23009 0.289134 0
M  V30 6526 H 605.572 3.64892 -1.43515 0
M  V30 6527 H 607.062 4.13646 -0.573323 0
M  V30 6528 N 607.499 1.09233 1.13605 0
M  V30 6529 C 608.446 0.729921 2.18954 0
M  V30 6530 C 609.416 -0.287916 1.63586 0
M  V30 6531 O 610.601 -0.170003 1.90041 0
M  V30 6532 C 607.741 0.154489 3.44754 0
M  V30 6533 C 606.854 1.22613 4.14234 0
M  V30 6534 C 605.989 0.613657 5.27644 0
M  V30 6535 C 605.028 1.66674 5.8897 0
M  V30 6536 N 604.165 1.07545 6.93814 0
M  V30 6537 H 609.005 1.63257 2.49302 0
M  V30 6538 H 606.542 0.815693 1.22413 0
M  V30 6539 H 608.5 -0.196923 4.16735 0
M  V30 6540 H 607.13 -0.711433 3.14863 0
M  V30 6541 H 606.182 1.69485 3.40557 0
M  V30 6542 H 607.494 2.0238 4.55899 0
M  V30 6543 H 606.648 0.210976 6.06333 0
M  V30 6544 H 605.387 -0.215584 4.87223 0
M  V30 6545 H 604.392 2.07899 5.08978 0
M  V30 6546 H 605.617 2.49861 6.31464 0
M  V30 6547 H 603.563 0.267451 6.55455 0
M  V30 6548 H 603.48 1.81011 7.3401 0
M  V30 6549 H 604.748 0.698906 7.7636 0
M  V30 6550 N 608.977 -1.30795 0.87923 0
M  V30 6551 C 609.924 -2.28282 0.339968 0
M  V30 6552 C 610.894 -1.56134 -0.566685 0
M  V30 6553 O 612.079 -1.84231 -0.496338 0
M  V30 6554 C 609.219 -3.42225 -0.444501 0
M  V30 6555 C 608.332 -4.29204 0.490717 0
M  V30 6556 C 607.467 -5.30302 -0.308784 0
M  V30 6557 C 606.506 -6.08929 0.622272 0
M  V30 6558 N 605.643 -7.01957 -0.14155 0
M  V30 6559 H 610.483 -2.73794 1.17647 0
M  V30 6560 H 608.02 -1.34682 0.591527 0
M  V30 6561 H 609.978 -4.07038 -0.915186 0
M  V30 6562 H 608.608 -2.97799 -1.24562 0
M  V30 6563 H 607.66 -3.6475 1.07988 0
M  V30 6564 H 608.972 -4.84045 1.20425 0
M  V30 6565 H 608.126 -6.00835 -0.841575 0
M  V30 6566 H 606.865 -4.7614 -1.05556 0
M  V30 6567 H 605.87 -5.37278 1.16674 0
M  V30 6568 H 607.095 -6.65178 1.36804 0
M  V30 6569 H 605.041 -6.50192 -0.870966 0
M  V30 6570 H 604.958 -7.54261 0.51246 0
M  V30 6571 H 606.226 -7.76741 -0.655271 0
M  V30 6572 N 610.455 -0.639598 -1.44038 0
M  V30 6573 C 611.732 -0.078012 -1.95444 0
M  V30 6574 C 612.112 1.39847 -1.58133 0
M  V30 6575 O 611.46 2.11714 -0.859614 0
M  V30 6576 C 611.67 -0.309832 -3.47622 0
M  V30 6577 C 613.018 -0.207521 -4.24093 0
M  V30 6578 O 614.042 -0.241653 -3.55379 0
M  V30 6579 O 612.901 -0.119641 -5.46369 0
M  V30 6580 H 609.995 0.0174534 -0.826816 0
M  V30 6581 H 612.541 -0.711891 -1.54046 0
M  V30 6582 H 611.313 -1.33401 -3.67858 0
M  V30 6583 H 610.936 0.357777 -3.95987 0
M  V30 6584 N 611.933 1.52934 -0.380664 0
M  V30 6585 C 613.21 1.93845 0.261417 0
M  V30 6586 C 613.59 1.31544 1.65104 0
M  V30 6587 O 612.938 0.480234 2.23397 0
M  V30 6588 C 613.148 3.47739 0.296466 0
M  V30 6589 C 614.496 4.21284 0.529578 0
M  V30 6590 O 615.52 3.54199 0.377041 0
M  V30 6591 O 614.379 5.40195 0.827753 0
M  V30 6592 H 611.473 0.811318 0.160285 0
M  V30 6593 H 614.019 1.64042 -0.434544 0
M  V30 6594 H 612.791 3.85395 -0.67724 0
M  V30 6595 H 612.414 3.8382 1.0377 0
M  V30 6596 N 613.412 0.11024 1.57214 0
M  V30 6597 C 614.342 -0.840002 2.17867 0
M  V30 6598 C 615.323 -1.28352 1.11624 0
M  V30 6599 O 616.508 -1.3477 1.39824 0
M  V30 6600 C 613.638 -2.09349 2.77111 0
M  V30 6601 C 612.592 -1.78807 3.8886 0
M  V30 6602 C 611.918 -3.11112 4.34872 0
M  V30 6603 C 613.218 -1.0632 5.11364 0
M  V30 6604 H 614.912 -0.334608 2.97524 0
M  V30 6605 H 612.458 -0.159502 1.43114 0
M  V30 6606 H 614.411 -2.76275 3.18198 0
M  V30 6607 H 613.135 -2.62198 1.9473 0
M  V30 6608 H 611.794 -1.14273 3.48335 0
M  V30 6609 H 611.442 -3.61877 3.49362 0
M  V30 6610 H 611.142 -2.91453 5.10224 0
M  V30 6611 H 612.666 -3.79171 4.78604 0
M  V30 6612 H 614.08 -1.63383 5.49526 0
M  V30 6613 H 612.477 -0.967876 5.92243 0
M  V30 6614 H 613.547 -0.0484569 4.84876 0
M  V30 6615 N 614.89 -1.56749 -0.16351 0
M  V30 6616 C 616.301 -1.72039 -0.725216 0
M  V30 6617 C 616.652 -0.72202 -1.82432 0
M  V30 6618 O 615.777 0.114942 -2.16095 0
M  V30 6619 C 616.372 -3.11932 -1.32227 0
M  V30 6620 C 614.931 -3.28879 -1.83072 0
M  V30 6621 C 614.078 -2.67984 -0.712716 0
M  V30 6622 H 617.029 -1.58579 0.0619772 0
M  V30 6623 H 617.05 -3.11015 -2.19202 0
M  V30 6624 H 616.562 -3.84572 -0.522103 0
M  V30 6625 H 614.663 -2.61209 -2.65708 0
M  V30 6626 H 614.776 -4.36688 -1.97079 0
M  V30 6627 H 613.14 -2.28005 -1.13515 0
M  V30 6628 H 613.923 -3.43216 0.0757361 0
M  V30 6629 N 616.368 0.432326 -1.51554 0
M  V30 6630 C 617.278 1.55023 -1.76082 0
M  V30 6631 C 618.294 1.61593 -0.645265 0
M  V30 6632 O 619.47 1.78742 -0.928086 0
M  V30 6633 C 616.535 2.90964 -1.88523 0
M  V30 6634 C 615.596 2.9447 -3.12388 0
M  V30 6635 C 614.829 4.23926 -3.24225 0
M  V30 6636 O 615.052 5.16576 -2.4188 0
M  V30 6637 O 613.986 4.33818 -4.17235 0
M  V30 6638 H 617.812 1.37238 -2.70923 0
M  V30 6639 H 615.397 0.615845 -1.36117 0
M  V30 6640 H 617.279 3.71633 -1.98662 0
M  V30 6641 H 615.954 3.08865 -0.9687 0
M  V30 6642 H 614.861 2.12737 -3.07723 0
M  V30 6643 H 616.194 2.81514 -4.03746 0
M  V30 6644 N 617.846 1.41785 0.688094 0
M  V30 6645 C 618.776 1.47 1.8142 0
M  V30 6646 C 619.757 0.327881 1.6691 0
M  V30 6647 O 620.942 0.540362 1.86531 0
M  V30 6648 C 618.072 1.35876 3.19617 0
M  V30 6649 C 617.026 2.47976 3.48844 0
M  V30 6650 C 616.352 2.21915 4.86475 0
M  V30 6651 C 617.652 3.90309 3.47068 0
M  V30 6652 H 619.346 2.41247 1.77314 0
M  V30 6653 H 616.892 1.16116 0.851651 0
M  V30 6654 H 618.845 1.38134 3.98117 0
M  V30 6655 H 617.569 0.38116 3.24368 0
M  V30 6656 H 616.228 2.45013 2.72698 0
M  V30 6657 H 615.876 1.2248 4.8786 0
M  V30 6658 H 615.576 2.97037 5.06994 0
M  V30 6659 H 617.1 2.25901 5.67275 0
M  V30 6660 H 618.514 3.94947 4.1556 0
M  V30 6661 H 616.911 4.65175 3.7912 0
M  V30 6662 H 617.981 4.17927 2.45896 0
M  V30 6663 N 619.324 -0.923095 1.27737 0
M  V30 6664 C 620.287 -2.00587 1.10894 0
M  V30 6665 C 621.287 -1.60718 0.0514927 0
M  V30 6666 O 622.477 -1.71658 0.296481 0
M  V30 6667 C 619.609 -3.33829 0.690717 0
M  V30 6668 H 620.802 -2.16959 2.07048 0
M  V30 6669 H 618.355 -1.10451 1.1059 0
M  V30 6670 H 619.09 -3.23157 -0.272 0
M  V30 6671 H 618.875 -3.64125 1.45448 0
M  V30 6672 H 620.365 -4.13336 0.595252 0
M  V30 6673 N 620.802 -1.09834 -1.13024 0
M  V30 6674 C 622.05 -0.835297 -1.8403 0
M  V30 6675 C 622.371 0.640944 -1.84165 0
M  V30 6676 O 621.641 1.46517 -1.30037 0
M  V30 6677 H 620.221 -0.306018 -0.681441 0
M  V30 6678 H 622.883 -1.38734 -1.36891 0
M  V30 6679 H 621.979 -1.19258 -2.88416 0
M  V30 6680 N 622.28 1.30327 -0.886154 0
M  V30 6681 C 623.691 1.78243 -0.555554 0
M  V30 6682 C 624.042 1.72849 0.928314 0
M  V30 6683 O 623.167 1.30607 1.72542 0
M  V30 6684 C 623.762 3.23654 -1.00168 0
M  V30 6685 C 622.321 3.69401 -0.722471 0
M  V30 6686 C 621.468 2.50753 -1.18399 0
M  V30 6687 H 624.419 1.1718 -1.07026 0
M  V30 6688 H 624.44 3.79056 -0.331152 0
M  V30 6689 H 623.952 3.27548 -2.08169 0
M  V30 6690 H 622.053 3.70995 0.345496 0
M  V30 6691 H 622.166 4.60818 -1.31085 0
M  V30 6692 H 620.53 2.47452 -0.603303 0
M  V30 6693 H 621.313 2.57383 -2.27176 0
M  V30 6694 N 623.758 0.647228 1.43697 0
M  V30 6695 C 624.721 -0.0385101 2.29168 0
M  V30 6696 C 625.721 -0.756487 1.41894 0
M  V30 6697 O 626.911 -0.598641 1.63591 0
M  V30 6698 C 624.043 -1.06524 3.23829 0
M  V30 6699 H 625.236 0.713445 2.9129 0
M  V30 6700 H 622.789 0.408153 1.50877 0
M  V30 6701 H 623.524 -1.84664 2.66589 0
M  V30 6702 H 623.309 -0.554147 3.88164 0
M  V30 6703 H 624.799 -1.54432 3.87996 0
M  V30 6704 N 625.236 -1.5273 0.388769 0
M  V30 6705 C 626.166 -2.29353 -0.438111 0
M  V30 6706 C 627.147 -1.32719 -1.06394 0
M  V30 6707 O 628.332 -1.61612 -1.07681 0
M  V30 6708 C 625.462 -3.09995 -1.56589 0
M  V30 6709 C 624.416 -4.14509 -1.06613 0
M  V30 6710 C 623.742 -4.83372 -2.28594 0
M  V30 6711 C 625.042 -5.22127 -0.134459 0
M  V30 6712 H 626.736 -2.98723 0.201206 0
M  V30 6713 H 624.282 -1.43665 0.0982089 0
M  V30 6714 H 626.235 -3.62357 -2.15118 0
M  V30 6715 H 624.959 -2.38357 -2.23279 0
M  V30 6716 H 623.618 -3.63128 -0.503383 0
M  V30 6717 H 623.266 -4.08283 -2.93792 0
M  V30 6718 H 622.966 -5.54012 -1.95817 0
M  V30 6719 H 624.49 -5.38538 -2.87766 0
M  V30 6720 H 625.904 -5.69851 -0.627914 0
M  V30 6721 H 624.301 -6.00011 0.103534 0
M  V30 6722 H 625.371 -4.77971 0.816798 0
M  V30 6723 N 626.714 -0.118576 -1.57153 0
M  V30 6724 C 627.939 0.550582 -1.99958 0
M  V30 6725 C 628.364 1.59458 -0.997736 0
M  V30 6726 O 627.722 1.81274 0.0306269 0
M  V30 6727 C 627.77 1.15379 -3.41643 0
M  V30 6728 O 626.874 2.26932 -3.44348 0
M  V30 6729 H 626.215 0.137567 -0.649593 0
M  V30 6730 H 628.745 -0.206926 -2.03551 0
M  V30 6731 H 628.755 1.48942 -3.79843 0
M  V30 6732 H 627.43 0.389087 -4.14076 0
M  V30 6733 H 626.007 1.94812 -3.17967 0
M  V30 6734 N 628.193 1.56834 0.155195 0
M  V30 6735 C 629.421 1.87049 0.884326 0
M  V30 6736 C 629.836 0.705839 1.7511 0
M  V30 6737 O 629.193 -0.324641 1.79589 0
M  V30 6738 C 629.244 3.1644 1.74781 0
M  V30 6739 O 628.965 4.28417 0.915978 0
M  V30 6740 C 630.466 3.60113 2.58522 0
M  V30 6741 H 627.686 0.620196 0.25612 0
M  V30 6742 H 630.23 2.03946 0.150445 0
M  V30 6743 H 628.385 3.01321 2.43484 0
M  V30 6744 H 628.799 5.02353 1.50803 0
M  V30 6745 H 630.273 4.53508 3.14698 0
M  V30 6746 H 630.75 2.85005 3.34169 0
M  V30 6747 H 631.356 3.77898 1.95124 0
M  V30 6748 N 629.671 -0.424282 1.51781 0
M  V30 6749 C 630.917 -1.17434 1.6534 0
M  V30 6750 C 631.25 -1.90549 0.374806 0
M  V30 6751 O 630.525 -1.84145 -0.626179 0
M  V30 6752 C 630.808 -2.18093 2.86544 0
M  V30 6753 C 630.661 -1.48975 4.24413 0
M  V30 6754 C 631.98 -3.18934 3.03264 0
M  V30 6755 H 629.099 -0.425566 0.601716 0
M  V30 6756 H 631.741 -0.461921 1.84299 0
M  V30 6757 H 629.891 -2.78849 2.7051 0
M  V30 6758 H 631.563 -0.914551 4.52143 0
M  V30 6759 H 629.806 -0.791893 4.26511 0
M  V30 6760 H 630.477 -2.22347 5.05238 0
M  V30 6761 H 632.953 -2.68243 3.18096 0
M  V30 6762 H 631.829 -3.86645 3.89611 0
M  V30 6763 H 632.09 -3.85793 2.15908 0
M  V30 6764 N 631.149 -1.42148 -0.680565 0
M  V30 6765 C 632.56 -1.3768 -1.26099 0
M  V30 6766 C 632.911 -0.0672348 -1.96085 0
M  V30 6767 O 632.036 0.834172 -1.99676 0
M  V30 6768 C 632.631 -2.49387 -2.29328 0
M  V30 6769 C 631.19 -2.4827 -2.82911 0
M  V30 6770 C 630.337 -2.2847 -1.57152 0
M  V30 6771 H 633.288 -1.51446 -0.474326 0
M  V30 6772 H 633.309 -2.19307 -3.10941 0
M  V30 6773 H 632.821 -3.44686 -1.78363 0
M  V30 6774 H 630.922 -1.56773 -3.38013 0
M  V30 6775 H 631.035 -3.45109 -3.3232 0
M  V30 6776 H 629.399 -1.76623 -1.83511 0
M  V30 6777 H 630.182 -3.25816 -1.0816 0
M  V30 6778 N 632.627 0.916307 -1.28225 0
M  V30 6779 C 634.038 1.48024 -1.13779 0
M  V30 6780 C 634.389 1.94289 0.273139 0
M  V30 6781 O 633.514 1.82226 1.16716 0
M  V30 6782 C 634.109 2.69029 -2.05935 0
M  V30 6783 C 632.668 3.2161 -1.95561 0
M  V30 6784 C 631.815 1.94321 -1.97825 0
M  V30 6785 H 634.766 0.729272 -1.40951 0
M  V30 6786 H 634.787 3.44204 -1.62184 0
M  V30 6787 H 634.299 2.35325 -3.08616 0
M  V30 6788 H 632.4 3.60045 -0.959076 0
M  V30 6789 H 632.513 3.87032 -2.82388 0
M  V30 6790 H 630.877 2.1131 -1.42198 0
M  V30 6791 H 631.66 1.62917 -3.0218 0
M  V30 6792 N 634.105 1.10431 1.1244 0
M  V30 6793 C 635.068 0.756542 2.16354 0
M  V30 6794 C 636.068 -0.21899 1.59302 0
M  V30 6795 O 637.258 0.00415969 1.742 0
M  V30 6796 C 634.39 0.120612 3.40687 0
M  V30 6797 H 635.583 1.67696 2.48632 0
M  V30 6798 H 633.136 0.904832 1.27446 0
M  V30 6799 H 633.871 -0.810536 3.14008 0
M  V30 6800 H 633.656 0.822693 3.83372 0
M  V30 6801 H 635.146 -0.106945 4.17463 0
M  V30 6802 N 635.583 -1.29855 0.893053 0
M  V30 6803 C 636.808 -2.00512 0.530066 0
M  V30 6804 C 637.233 -1.66446 -0.876199 0
M  V30 6805 O 636.591 -0.885446 -1.58207 0
M  V30 6806 C 636.639 -3.53308 0.721505 0
M  V30 6807 O 635.743 -4.11764 -0.228994 0
M  V30 6808 H 635.084 -0.630617 0.207891 0
M  V30 6809 H 637.614 -1.6551 1.20282 0
M  V30 6810 H 637.624 -4.03206 0.623599 0
M  V30 6811 H 636.299 -3.77439 1.74678 0
M  V30 6812 H 634.876 -3.72805 -0.0841034 0
M  V30 6813 N 637.061 -0.65484 -1.43351 0
M  V30 6814 C 637.991 0.0221809 -2.33489 0
M  V30 6815 C 638.972 0.810272 -1.49561 0
M  V30 6816 O 640.157 0.771426 -1.78221 0
M  V30 6817 C 637.287 0.988117 -3.32947 0
M  V30 6818 C 636.241 0.310026 -4.26876 0
M  V30 6819 C 635.567 1.38752 -5.16384 0
M  V30 6820 C 636.867 -0.798589 -5.16159 0
M  V30 6821 H 638.561 -0.730571 -2.9035 0
M  V30 6822 H 636.107 -0.352773 -1.39612 0
M  V30 6823 H 638.06 1.47067 -3.94904 0
M  V30 6824 H 636.784 1.77205 -2.74346 0
M  V30 6825 H 635.443 -0.152097 -3.66284 0
M  V30 6826 H 635.091 2.16293 -4.54121 0
M  V30 6827 H 634.791 0.939051 -5.80048 0
M  V30 6828 H 636.315 1.87141 -5.81215 0
M  V30 6829 H 637.729 -0.398126 -5.71916 0
M  V30 6830 H 636.126 -1.17163 -5.88552 0
M  V30 6831 H 637.196 -1.65588 -4.55751 0
M  V30 6832 N 638.539 1.52521 -0.396863 0
M  V30 6833 C 639.486 2.26671 0.434624 0
M  V30 6834 C 640.456 1.28584 1.05144 0
M  V30 6835 O 641.641 1.57426 1.07804 0
M  V30 6836 C 638.781 3.08234 1.55196 0
M  V30 6837 C 637.894 4.21261 0.957262 0
M  V30 6838 C 637.029 4.90205 2.04627 0
M  V30 6839 C 636.068 5.95213 1.42787 0
M  V30 6840 N 635.205 6.57723 2.45651 0
M  V30 6841 H 640.045 2.973 -0.204139 0
M  V30 6842 H 637.582 1.46669 -0.112505 0
M  V30 6843 H 639.54 3.53819 2.2106 0
M  V30 6844 H 638.17 2.398 2.16092 0
M  V30 6845 H 637.222 3.79935 0.188005 0
M  V30 6846 H 638.534 4.96624 0.465416 0
M  V30 6847 H 637.688 5.39133 2.78246 0
M  V30 6848 H 636.427 4.14383 2.57174 0
M  V30 6849 H 635.432 5.45616 0.676968 0
M  V30 6850 H 636.657 6.72972 0.910255 0
M  V30 6851 H 634.603 5.84737 2.97353 0
M  V30 6852 H 634.52 7.28723 2.01243 0
M  V30 6853 H 635.788 7.11293 3.18876 0
M  V30 6854 N 640.017 0.126909 1.57088 0
M  V30 6855 C 641.428 -0.397201 1.82426 0
M  V30 6856 C 641.779 -1.66084 1.04453 0
M  V30 6857 O 640.904 -2.14534 0.283552 0
M  V30 6858 C 641.499 -0.727411 3.30899 0
M  V30 6859 C 640.058 -1.19612 3.56889 0
M  V30 6860 C 639.205 -0.20885 2.76512 0
M  V30 6861 H 642.156 0.351924 1.54749 0
M  V30 6862 H 642.177 -1.58407 3.45959 0
M  V30 6863 H 641.689 0.19247 3.87622 0
M  V30 6864 H 639.79 -2.13263 3.05532 0
M  V30 6865 H 639.903 -1.13598 4.65438 0
M  V30 6866 H 638.267 -0.697479 2.44964 0
M  V30 6867 H 639.05 0.704267 3.35998 0
M  V30 6868 N 641.495 -1.56914 -0.146875 0
M  V30 6869 C 642.723 -1.87515 -0.874394 0
M  V30 6870 C 643.138 -0.715116 -1.74733 0
M  V30 6871 O 642.495 0.315113 -1.79759 0
M  V30 6872 C 642.546 -3.17362 -1.731 0
M  V30 6873 O 642.267 -4.28897 -0.893245 0
M  V30 6874 C 643.768 -3.61479 -2.56609 0
M  V30 6875 H 640.988 -0.621546 -0.252827 0
M  V30 6876 H 643.532 -2.04023 -0.139627 0
M  V30 6877 H 641.687 -3.02608 -2.41883 0
M  V30 6878 H 642.101 -5.03146 -1.48137 0
M  V30 6879 H 643.575 -4.5517 -3.12289 0
M  V30 6880 H 644.052 -2.86773 -3.32653 0
M  V30 6881 H 644.658 -3.78927 -1.93117 0
M  V30 6882 N 642.974 0.416227 -1.52004 0
M  V30 6883 C 643.937 1.48926 -1.74223 0
M  V30 6884 C 644.937 1.48693 -0.612119 0
M  V30 6885 O 646.127 1.50343 -0.879921 0
M  V30 6886 C 643.259 2.88372 -1.81809 0
M  V30 6887 H 644.452 1.3052 -2.70008 0
M  V30 6888 H 642.005 0.646271 -1.42313 0
M  V30 6889 H 642.74 3.12157 -0.879135 0
M  V30 6890 H 642.525 2.89944 -2.6396 0
M  V30 6891 H 644.015 3.66173 -2.00766 0
M  V30 6892 N 644.452 1.42507 0.673017 0
M  V30 6893 C 645.677 1.4668 1.46627 0
M  V30 6894 C 646.102 0.080066 1.8793 0
M  V30 6895 O 645.46 -0.921879 1.56112 0
M  V30 6896 C 645.508 2.40091 2.69051 0
M  V30 6897 O 644.612 1.8735 3.67387 0
M  V30 6898 H 643.953 0.496908 0.44043 0
M  V30 6899 H 646.483 1.87215 0.825334 0
M  V30 6900 H 646.493 2.56731 3.17101 0
M  V30 6901 H 645.168 3.4084 2.3833 0
M  V30 6902 H 643.745 1.80274 3.26429 0
M  V30 6903 N 645.93 -0.909495 1.28709 0
M  V30 6904 C 647.178 -1.65577 1.15882 0
M  V30 6905 C 647.499 -1.928 -0.292108 0
M  V30 6906 O 646.769 -1.54716 -1.20166 0
M  V30 6907 H 645.349 -0.613714 0.425869 0
M  V30 6908 H 648.011 -1.09108 1.61498 0
M  V30 6909 H 647.107 -2.61634 1.70159 0
M  V30 6910 N 647.408 -1.11026 -1.11852 0
M  V30 6911 C 648.824 -0.843294 -1.35502 0
M  V30 6912 C 649.024 0.534179 -1.9429 0
M  V30 6913 O 648.08 1.28585 -2.17307 0
M  V30 6914 C 649.393 -1.94793 -2.29077 0
M  V30 6915 C 650.941 -1.97709 -2.42652 0
M  V30 6916 C 651.416 -3.07364 -3.39546 0
M  V30 6917 N 652.907 -3.0671 -3.47107 0
M  V30 6918 C 653.642 -3.88197 -4.22008 0
M  V30 6919 N 653.138 -4.79635 -4.99922 0
M  V30 6920 N 654.931 -3.76391 -4.17476 0
M  V30 6921 H 647.082 -1.99805 -0.720538 0
M  V30 6922 H 649.345 -0.868633 -0.379711 0
M  V30 6923 H 649.051 -2.93971 -1.93065 0
M  V30 6924 H 648.925 -1.84039 -3.29256 0
M  V30 6925 H 651.312 -0.991604 -2.77941 0
M  V30 6926 H 651.393 -2.1254 -1.4234 0
M  V30 6927 H 651.037 -4.06136 -3.04985 0
M  V30 6928 H 650.967 -2.89774 -4.39703 0
M  V30 6929 H 653.458 -2.40457 -2.91528 0
M  V30 6930 H 653.771 -5.38357 -5.54429 0
M  V30 6931 H 652.116 -4.8366 -4.99097 0
M  V30 6932 H 655.307 -3.04303 -3.55693 0
M  V30 6933 H 655.48 -4.40131 -4.75593 0
M  V30 6934 N 648.886 1.2938 -0.899927 0
M  V30 6935 C 649.833 2.27713 -0.376243 0
M  V30 6936 C 650.803 1.57016 0.541774 0
M  V30 6937 O 651.988 1.84997 0.466966 0
M  V30 6938 C 649.128 3.42889 0.39 0
M  V30 6939 C 648.241 4.28369 -0.558938 0
M  V30 6940 C 647.376 5.30726 0.224379 0
M  V30 6941 C 646.415 6.07862 -0.719068 0
M  V30 6942 N 645.552 7.02094 0.0298569 0
M  V30 6943 H 650.392 2.71888 -1.21988 0
M  V30 6944 H 647.929 1.33724 -0.612879 0
M  V30 6945 H 649.887 4.08443 0.850314 0
M  V30 6946 H 648.517 2.99743 1.19809 0
M  V30 6947 H 647.569 3.62986 -1.13777 0
M  V30 6948 H 648.881 4.82068 -1.2811 0
M  V30 6949 H 648.035 6.02098 0.745881 0
M  V30 6950 H 646.774 4.77759 0.979674 0
M  V30 6951 H 645.779 5.35353 -1.25207 0
M  V30 6952 H 647.004 6.62917 -1.4737 0
M  V30 6953 H 644.95 6.51496 0.767415 0
M  V30 6954 H 644.867 7.5335 -0.632391 0
M  V30 6955 H 646.135 7.77685 0.531615 0
M  V30 6956 N 650.364 0.662433 1.43002 0
M  V30 6957 C 651.604 0.183312 2.03576 0
M  V30 6958 C 651.968 -1.18354 1.51183 0
M  V30 6959 O 653.169 -1.7566 2.03462 0
M  V30 6960 C 651.44 0.202908 3.56824 0
M  V30 6961 S 652.999 -0.20702 4.38311 0
M  V30 6962 H 649.817 0.0765001 0.706872 0
M  V30 6963 H 652.419 0.872827 1.74934 0
M  V30 6964 H 651.123 1.20028 3.92456 0
M  V30 6965 H 650.654 -0.506845 3.90121 0
M  V30 6966 H 652.669 -1.44358 4.74737 0
M  V30 6967 N 651.842 -1.52309 0.404946 0
M  V30 6968 C 652.772 -2.29805 -0.41376 0
M  V30 6969 C 653.753 -1.3384 -1.0498 0
M  V30 6970 O 654.938 -1.62745 -1.05961 0
M  V30 6971 C 652.068 -3.11639 -1.53292 0
M  V30 6972 C 651.022 -4.15616 -1.02211 0
M  V30 6973 C 650.348 -4.8577 -2.23455 0
M  V30 6974 C 651.648 -5.2224 -0.0790725 0
M  V30 6975 H 653.342 -2.98493 0.232878 0
M  V30 6976 H 650.888 -1.43552 0.113441 0
M  V30 6977 H 652.841 -3.64618 -2.11262 0
M  V30 6978 H 651.565 -2.40712 -2.20738 0
M  V30 6979 H 650.224 -3.63641 -0.46484 0
M  V30 6980 H 649.872 -4.11376 -2.89445 0
M  V30 6981 H 649.572 -5.56058 -1.89929 0
M  V30 6982 H 651.096 -5.4156 -2.82038 0
M  V30 6983 H 652.51 -5.70485 -0.567438 0
M  V30 6984 H 650.907 -5.99867 0.167167 0
M  V30 6985 H 651.977 -4.77078 0.867447 0
M  V30 6986 N 653.32 -0.135238 -1.57019 0
M  V30 6987 C 654.567 0.518794 -1.95742 0
M  V30 6988 C 654.895 1.65642 -1.01947 0
M  V30 6989 O 654.15 1.95645 -0.0464016 0
M  V30 6990 C 654.449 1.07694 -3.40788 0
M  V30 6991 C 654.115 0.058992 -4.50861 0
M  V30 6992 C 652.777 -0.220872 -4.80693 0
M  V30 6993 C 655.129 -0.633856 -5.17331 0
M  V30 6994 C 652.457 -1.19959 -5.74305 0
M  V30 6995 C 654.809 -1.60131 -6.11997 0
M  V30 6996 C 653.473 -1.889 -6.40213 0
M  V30 6997 H 652.743 0.18984 -0.716269 0
M  V30 6998 H 655.39 -0.219581 -1.90237 0
M  V30 6999 H 653.695 1.89241 -3.43067 0
M  V30 7000 H 655.392 1.59137 -3.68071 0
M  V30 7001 H 651.982 0.287304 -4.27636 0
M  V30 7002 H 656.166 -0.430823 -4.94427 0
M  V30 7003 H 651.422 -1.42905 -5.94465 0
M  V30 7004 H 655.596 -2.14376 -6.62583 0
M  V30 7005 H 653.223 -2.64891 -7.12556 0
M  V30 7006 N 654.798 1.5699 0.138552 0
M  V30 7007 C 656.214 1.51844 0.491472 0
M  V30 7008 C 656.414 0.845063 1.82923 0
M  V30 7009 O 655.47 0.419143 2.48997 0
M  V30 7010 C 656.783 2.96615 0.493987 0
M  V30 7011 C 658.331 3.076 0.578913 0
M  V30 7012 C 658.806 4.53893 0.612009 0
M  V30 7013 N 660.297 4.5827 0.673997 0
M  V30 7014 C 661.032 5.68852 0.720729 0
M  V30 7015 N 660.528 6.88982 0.726292 0
M  V30 7016 N 662.321 5.56908 0.762253 0
M  V30 7017 H 654.472 1.99158 -0.738228 0
M  V30 7018 H 656.735 0.908693 -0.270149 0
M  V30 7019 H 656.441 3.49172 -0.420933 0
M  V30 7020 H 656.315 3.53017 1.32887 0
M  V30 7021 H 658.702 2.55057 1.48425 0
M  V30 7022 H 658.783 2.54227 -0.283286 0
M  V30 7023 H 658.427 5.07076 -0.289208 0
M  V30 7024 H 658.357 5.05057 1.49082 0
M  V30 7025 H 660.848 3.71793 0.676654 0
M  V30 7026 H 661.161 7.69014 0.764032 0
M  V30 7027 H 659.506 6.91526 0.69403 0
M  V30 7028 H 662.697 4.61969 0.755135 0
M  V30 7029 H 662.87 6.43102 0.795207 0
M  V30 7030 N 656.276 -0.40816 1.52223 0
M  V30 7031 C 657.522 -1.15673 1.66576 0
M  V30 7032 C 657.855 -1.90141 0.394996 0
M  V30 7033 O 657.13 -1.84798 -0.606613 0
M  V30 7034 C 657.413 -2.15042 2.88841 0
M  V30 7035 C 657.266 -1.44465 4.25969 0
M  V30 7036 C 658.585 -3.15699 3.0663 0
M  V30 7037 H 655.704 -0.41916 0.606196 0
M  V30 7038 H 658.346 -0.442348 1.84779 0
M  V30 7039 H 656.496 -2.75964 2.73452 0
M  V30 7040 H 658.168 -0.866544 4.53088 0
M  V30 7041 H 656.411 -0.746612 4.27327 0
M  V30 7042 H 657.082 -2.16976 5.07568 0
M  V30 7043 H 659.558 -2.64854 3.20923 0
M  V30 7044 H 658.434 -3.82491 3.9369 0
M  V30 7045 H 658.695 -3.83481 2.19987 0
M  V30 7046 N 657.755 -1.42862 -0.66545 0
M  V30 7047 C 658.665 -1.49491 -1.80803 0
M  V30 7048 C 659.681 -0.382914 -1.69734 0
M  V30 7049 O 660.857 -0.635223 -1.9112 0
M  V30 7050 C 657.922 -1.40383 -3.17007 0
M  V30 7051 C 656.983 -2.62152 -3.39963 0
M  V30 7052 C 656.216 -2.53469 -4.69669 0
M  V30 7053 O 656.439 -1.57568 -5.48205 0
M  V30 7054 O 655.373 -3.43763 -4.94075 0
M  V30 7055 H 659.199 -2.45949 -1.78165 0
M  V30 7056 H 656.784 -1.24728 -0.822387 0
M  V30 7057 H 658.666 -1.377 -3.98267 0
M  V30 7058 H 657.341 -0.470546 -3.20262 0
M  V30 7059 H 656.248 -2.70409 -2.58515 0
M  V30 7060 H 657.581 -3.54411 -3.41546 0
M  V30 7061 N 659.233 0.902656 -1.29189 0
M  V30 7062 C 660.143 2.03946 -1.15944 0
M  V30 7063 C 661.159 1.738 -0.0833803 0
M  V30 7064 O 662.335 1.9923 -0.29487 0
M  V30 7065 C 659.4 3.36519 -0.834006 0
M  V30 7066 C 658.461 3.80203 -1.9936 0
M  V30 7067 C 657.694 5.06449 -1.68359 0
M  V30 7068 O 657.917 5.67202 -0.603141 0
M  V30 7069 O 656.851 5.46114 -2.53067 0
M  V30 7070 H 660.677 2.18043 -2.11403 0
M  V30 7071 H 658.262 1.02584 -1.08613 0
M  V30 7072 H 660.144 4.16089 -0.666949 0
M  V30 7073 H 658.819 3.23573 0.0908245 0
M  V30 7074 H 657.726 3.01413 -2.21588 0
M  V30 7075 H 659.059 3.97729 -2.89952 0
M  V30 7076 N 660.711 1.11618 1.11262 0
M  V30 7077 C 661.988 0.777876 1.79467 0
M  V30 7078 C 662.368 -0.733774 1.97937 0
M  V30 7079 O 661.716 -1.66443 1.56554 0
M  V30 7080 C 661.926 1.5431 3.13032 0
M  V30 7081 C 663.274 1.72357 3.88044 0
M  V30 7082 O 664.298 1.5075 3.22727 0
M  V30 7083 O 663.157 2.08276 5.05256 0
M  V30 7084 H 660.251 0.282018 0.777428 0
M  V30 7085 H 662.797 1.21971 1.17988 0
M  V30 7086 H 661.569 2.57132 2.94956 0
M  V30 7087 H 661.192 1.09495 3.82226 0
M  V30 7088 N 662.189 -1.289 0.906776 0
M  V30 7089 C 663.099 -2.31256 0.394707 0
M  V30 7090 C 664.115 -1.66231 -0.514121 0
M  V30 7091 O 665.291 -1.97347 -0.401994 0
M  V30 7092 C 662.356 -3.44792 -0.363191 0
M  V30 7093 C 661.417 -4.25391 0.578012 0
M  V30 7094 C 660.65 -5.33506 -0.143811 0
M  V30 7095 O 660.873 -5.53786 -1.36665 0
M  V30 7096 O 659.807 -5.99673 0.5173 0
M  V30 7097 H 663.633 -2.77051 1.24405 0
M  V30 7098 H 661.218 -1.33466 0.671346 0
M  V30 7099 H 663.1 -4.139 -0.791503 0
M  V30 7100 H 661.775 -3.01093 -1.18848 0
M  V30 7101 H 660.682 -3.58899 1.05558 0
M  V30 7102 H 662.015 -4.72752 1.36992 0
M  V30 7103 N 663.667 -0.670007 -1.42649 0
M  V30 7104 C 664.577 0.0114788 -2.34597 0
M  V30 7105 C 665.593 0.794055 -1.54825 0
M  V30 7106 O 666.769 0.737472 -1.87412 0
M  V30 7107 C 663.834 0.954436 -3.33304 0
M  V30 7108 C 662.895 0.166925 -4.28975 0
M  V30 7109 C 662.128 1.06497 -5.22967 0
M  V30 7110 O 662.351 2.30446 -5.21777 0
M  V30 7111 O 661.285 0.528347 -5.99577 0
M  V30 7112 H 665.111 -0.745794 -2.944 0
M  V30 7113 H 662.696 -0.430228 -1.43071 0
M  V30 7114 H 664.578 1.49589 -3.93956 0
M  V30 7115 H 663.253 1.69164 -2.7598 0
M  V30 7116 H 662.16 -0.418515 -3.71752 0
M  V30 7117 H 663.493 -0.531067 -4.89327 0
M  V30 7118 N 665.145 1.52092 -0.413018 0
M  V30 7119 C 666.055 2.30858 0.417318 0
M  V30 7120 C 667.071 1.38746 1.05003 0
M  V30 7121 O 668.247 1.71821 1.05069 0
M  V30 7122 C 665.312 3.11756 1.51687 0
M  V30 7123 C 664.373 4.19613 0.906825 0
M  V30 7124 C 663.606 4.96644 1.95399 0
M  V30 7125 O 663.829 4.7402 3.17271 0
M  V30 7126 O 662.763 5.81385 1.55805 0
M  V30 7127 H 666.589 3.02865 -0.225028 0
M  V30 7128 H 664.174 1.48358 -0.176126 0
M  V30 7129 H 666.056 3.62122 2.15512 0
M  V30 7130 H 664.731 2.42539 2.14375 0
M  V30 7131 H 663.638 3.73385 0.231183 0
M  V30 7132 H 664.971 4.91134 0.323814 0
M  V30 7133 N 666.623 0.143563 1.56945 0
M  V30 7134 C 667.9 -0.553285 1.87612 0
M  V30 7135 C 668.28 -1.83195 1.04894 0
M  V30 7136 O 667.628 -2.28102 0.134773 0
M  V30 7137 C 667.838 -0.822055 3.3918 0
M  V30 7138 C 669.186 -1.16435 4.08324 0
M  V30 7139 O 670.21 -0.911522 3.4434 0
M  V30 7140 O 669.069 -1.63996 5.21313 0
M  V30 7141 H 666.163 -0.281851 0.777489 0
M  V30 7142 H 668.709 0.179916 1.68744 0
M  V30 7143 H 667.481 0.0830265 3.91212 0
M  V30 7144 H 667.104 -1.60956 3.63564 0
M  V30 7145 N 668.101 -1.57061 -0.130224 0
M  V30 7146 C 669.011 -2.02802 -1.17934 0
M  V30 7147 C 670.027 -0.946378 -1.46013 0
M  V30 7148 O 671.203 -1.25708 -1.57351 0
M  V30 7149 C 668.268 -2.41368 -2.48882 0
M  V30 7150 C 667.329 -3.63561 -2.28301 0
M  V30 7151 C 666.562 -4.00279 -3.53005 0
M  V30 7152 O 666.785 -3.37463 -4.59864 0
M  V30 7153 O 665.719 -4.93441 -3.44673 0
M  V30 7154 H 669.545 -2.92394 -0.820958 0
M  V30 7155 H 667.13 -1.45475 -0.340197 0
M  V30 7156 H 669.012 -2.66958 -3.26054 0
M  V30 7157 H 667.687 -1.54926 -2.84217 0
M  V30 7158 H 666.594 -3.43136 -1.49025 0
M  V30 7159 H 667.927 -4.50673 -1.97875 0
M  V30 7160 N 669.579 0.400081 -1.52437 0
M  V30 7161 C 670.489 1.51253 -1.79331 0
M  V30 7162 C 671.505 1.60188 -0.679396 0
M  V30 7163 O 672.681 1.76733 -0.965791 0
M  V30 7164 C 669.746 2.869 -1.94652 0
M  V30 7165 C 668.807 2.87777 -3.18564 0
M  V30 7166 C 668.04 4.16954 -3.33145 0
M  V30 7167 O 668.263 5.11329 -2.52783 0
M  V30 7168 O 667.197 4.2487 -4.26343 0
M  V30 7169 H 671.023 1.31461 -2.73773 0
M  V30 7170 H 668.608 0.586834 -1.37392 0
M  V30 7171 H 670.49 3.67336 -2.065 0
M  V30 7172 H 669.165 3.06741 -1.034 0
M  V30 7173 H 668.072 2.06162 -3.12167 0
M  V30 7174 H 669.405 2.72886 -4.09627 0
M  V30 7175 N 671.057 1.43213 0.657864 0
M  V30 7176 C 672.334 1.35063 1.41483 0
M  V30 7177 C 672.714 -0.0038314 2.111 0
M  V30 7178 O 672.062 -1.02018 2.04462 0
M  V30 7179 C 672.272 2.53061 2.40335 0
M  V30 7180 C 673.62 2.9594 3.04474 0
M  V30 7181 O 674.644 2.53074 2.50663 0
M  V30 7182 O 673.503 3.70184 4.02027 0
M  V30 7183 H 670.597 0.533517 0.631893 0
M  V30 7184 H 673.143 1.55253 0.685162 0
M  V30 7185 H 671.915 3.43283 1.87809 0
M  V30 7186 H 671.538 2.34945 3.20759 0
M  V30 7187 N 672.536 -0.895792 1.29666 0
M  V30 7188 C 673.483 -2.00035 1.15129 0
M  V30 7189 C 674.453 -1.66043 0.0435819 0
M  V30 7190 O 675.638 -1.89621 0.211811 0
M  V30 7191 C 672.778 -3.34774 0.83787 0
M  V30 7192 C 671.891 -3.81525 2.0264 0
M  V30 7193 C 671.026 -5.04858 1.65201 0
M  V30 7194 C 670.065 -5.43988 2.80612 0
M  V30 7195 N 669.202 -6.58507 2.43544 0
M  V30 7196 H 674.042 -2.11802 2.09628 0
M  V30 7197 H 671.579 -1.03719 1.04311 0
M  V30 7198 H 673.537 -4.12311 0.636824 0
M  V30 7199 H 672.167 -3.22724 -0.0702314 0
M  V30 7200 H 671.219 -2.9999 2.33903 0
M  V30 7201 H 672.531 -4.06472 2.89106 0
M  V30 7202 H 671.685 -5.8999 1.41408 0
M  V30 7203 H 670.424 -4.81759 0.758893 0
M  V30 7204 H 669.429 -4.57388 3.05083 0
M  V30 7205 H 670.654 -5.69066 3.70595 0
M  V30 7206 H 668.6 -6.37004 1.56724 0
M  V30 7207 H 668.517 -6.83269 3.23542 0
M  V30 7208 H 669.785 -7.46897 2.2308 0
M  V30 7209 N 674.014 -1.12206 -1.10668 0
M  V30 7210 C 674.961 -0.787716 -2.16942 0
M  V30 7211 C 675.931 0.244442 -1.64291 0
M  V30 7212 O 677.116 0.119558 -1.90425 0
M  V30 7213 C 674.256 -0.24584 -3.44223 0
M  V30 7214 C 673.369 -1.33552 -4.10838 0
M  V30 7215 C 672.504 -0.753337 -5.25831 0
M  V30 7216 C 671.543 -1.82231 -5.84344 0
M  V30 7217 N 670.68 -1.25902 -6.90719 0
M  V30 7218 H 675.52 -1.69809 -2.44885 0
M  V30 7219 H 673.057 -0.847862 -1.20207 0
M  V30 7220 H 675.015 0.0863639 -4.17111 0
M  V30 7221 H 673.645 0.627702 -3.16638 0
M  V30 7222 H 672.697 -1.78454 -3.35944 0
M  V30 7223 H 674.009 -2.14396 -4.50373 0
M  V30 7224 H 673.163 -0.37166 -6.05561 0
M  V30 7225 H 671.902 0.0863297 -4.87624 0
M  V30 7226 H 670.907 -2.2132 -5.03287 0
M  V30 7227 H 672.132 -2.66515 -6.24617 0
M  V30 7228 H 670.078 -0.44114 -6.54515 0
M  V30 7229 H 669.995 -2.00408 -7.28953 0
M  V30 7230 H 671.263 -0.904498 -7.74235 0
M  V30 7231 N 675.492 1.28418 -0.913599 0
M  V30 7232 C 676.903 1.77024 -0.593237 0
M  V30 7233 C 677.254 1.74779 0.891441 0
M  V30 7234 O 676.379 1.34237 1.69733 0
M  V30 7235 C 676.974 3.21456 -1.07011 0
M  V30 7236 C 675.533 3.67786 -0.800664 0
M  V30 7237 C 674.68 2.48185 -1.23691 0
M  V30 7238 H 677.631 1.14883 -1.09487 0
M  V30 7239 H 677.652 3.78269 -0.411481 0
M  V30 7240 H 677.164 3.23058 -2.1507 0
M  V30 7241 H 675.265 3.71644 0.266725 0
M  V30 7242 H 675.378 4.57934 -1.4083 0
M  V30 7243 H 673.742 2.46116 -0.655655 0
M  V30 7244 H 674.525 2.52506 -2.32585 0
M  V30 7245 N 676.97 0.677563 1.42291 0
M  V30 7246 C 677.903 -0.0492638 2.28147 0
M  V30 7247 C 678.881 -0.805936 1.41221 0
M  V30 7248 O 680.065 -0.80049 1.70659 0
M  V30 7249 C 677.192 -1.07697 3.21122 0
M  V30 7250 C 676.238 -0.41556 4.24471 0
M  V30 7251 S 677.071 0.828876 5.29046 0
M  V30 7252 C 678.227 -0.197687 6.25588 0
M  V30 7253 H 678.46 0.678965 2.89443 0
M  V30 7254 H 675.993 0.467201 1.47162 0
M  V30 7255 H 677.951 -1.66482 3.75225 0
M  V30 7256 H 676.612 -1.77766 2.58956 0
M  V30 7257 H 675.805 -1.19112 4.89723 0
M  V30 7258 H 675.407 0.0987632 3.7387 0
M  V30 7259 H 677.699 -1.05656 6.69211 0
M  V30 7260 H 678.642 0.420437 7.06851 0
M  V30 7261 H 679.05 -0.544401 5.61869 0
M  V30 7262 N 678.448 -1.51871 0.421078 0
M  V30 7263 C 679.673 -2.0684 -0.152371 0
M  V30 7264 C 680.098 -1.28802 -1.37083 0
M  V30 7265 O 679.456 -0.321482 -1.78427 0
M  V30 7266 C 679.504 -3.57532 -0.469368 0
M  V30 7267 O 678.608 -3.81818 -1.55848 0
M  V30 7268 H 677.949 -0.663939 -0.00898586 0
M  V30 7269 H 680.479 -1.95674 0.597724 0
M  V30 7270 H 680.489 -4.01515 -0.724553 0
M  V30 7271 H 679.164 -4.13761 0.421276 0
M  V30 7272 H 677.741 -3.49709 -1.29453 0
M  V30 7273 N 679.926 -0.151884 -1.56866 0
M  V30 7274 C 680.856 0.781943 -2.20018 0
M  V30 7275 C 681.837 1.25347 -1.14987 0
M  V30 7276 O 683.022 1.31015 -1.43348 0
M  V30 7277 C 680.152 2.01928 -2.82564 0
M  V30 7278 C 679.106 1.68434 -3.93464 0
M  V30 7279 C 678.432 2.99472 -4.42968 0
M  V30 7280 C 679.732 0.927244 -5.14003 0
M  V30 7281 H 681.426 0.255607 -2.98307 0
M  V30 7282 H 678.972 0.121502 -1.43486 0
M  V30 7283 H 680.925 2.67741 -3.25411 0
M  V30 7284 H 679.649 2.56943 -2.01614 0
M  V30 7285 H 678.308 1.04998 -3.51242 0
M  V30 7286 H 677.956 3.52488 -3.58834 0
M  V30 7287 H 677.656 2.77823 -5.17772 0
M  V30 7288 H 679.18 3.66348 -4.88489 0
M  V30 7289 H 680.594 1.48756 -5.53665 0
M  V30 7290 H 678.991 0.810513 -5.94601 0
M  V30 7291 H 680.061 -0.0801163 -4.84834 0
M  V30 7292 N 681.404 1.57128 0.121893 0
M  V30 7293 C 682.629 1.89254 0.848385 0
M  V30 7294 C 683.054 0.743527 1.72781 0
M  V30 7295 O 682.412 -0.306056 1.78698 0
M  V30 7296 C 682.46 3.20113 1.66012 0
M  V30 7297 O 681.564 3.05815 2.76679 0
M  V30 7298 H 680.905 0.621103 0.234793 0
M  V30 7299 H 683.435 2.0433 0.10516 0
M  V30 7300 H 683.445 3.52761 2.04996 0
M  V30 7301 H 682.12 4.03336 1.01452 0
M  V30 7302 H 680.697 2.84627 2.40918 0
M  V30 7303 N 682.882 -0.391992 1.52647 0
M  V30 7304 C 684.11 -1.1586 1.71418 0
M  V30 7305 C 684.525 -1.8381 0.431216 0
M  V30 7306 O 683.882 -1.7256 -0.594085 0
M  V30 7307 C 683.933 -2.20888 2.86165 0
M  V30 7308 O 683.654 -1.5571 4.09495 0
M  V30 7309 C 685.155 -3.103 3.1659 0
M  V30 7310 H 682.375 -0.347494 0.574011 0
M  V30 7311 H 684.919 -0.458972 1.99283 0
M  V30 7312 H 683.074 -2.86492 2.6077 0
M  V30 7313 H 683.488 -2.25474 4.73563 0
M  V30 7314 H 684.962 -3.8003 4.00351 0
M  V30 7315 H 685.439 -3.73639 2.30848 0
M  V30 7316 H 686.045 -2.50345 3.43813 0
M  V30 7317 N 684.36 -1.4356 -0.65026 0
M  V30 7318 C 685.292 -1.44918 -1.77571 0
M  V30 7319 C 686.305 -0.344925 -1.59104 0
M  V30 7320 O 687.494 -0.609537 -1.6777 0
M  V30 7321 C 684.594 -1.24914 -3.15039 0
M  V30 7322 C 683.767 -2.48232 -3.60138 0
M  V30 7323 C 682.826 -2.23409 -4.76419 0
M  V30 7324 O 681.852 -2.9678 -4.85706 0
M  V30 7325 N 683.054 -1.25259 -5.66825 0
M  V30 7326 H 685.819 -2.41935 -1.76883 0
M  V30 7327 H 683.38 -1.38754 -0.834202 0
M  V30 7328 H 685.372 -1.06185 -3.90521 0
M  V30 7329 H 683.942 -0.363319 -3.10481 0
M  V30 7330 H 683.162 -2.82366 -2.75069 0
M  V30 7331 H 684.45 -3.30296 -3.87017 0
M  V30 7332 H 683.848 -0.646246 -5.61997 0
M  V30 7333 H 682.405 -1.12513 -6.42016 0
M  V30 7334 N 685.838 0.888903 -1.30139 0
M  V30 7335 C 687.084 1.6428 -1.18912 0
M  V30 7336 C 687.417 1.92499 0.256477 0
M  V30 7337 O 686.692 1.54312 1.18397 0
M  V30 7338 C 686.975 2.9851 -2.01405 0
M  V30 7339 C 686.828 2.77288 -3.54163 0
M  V30 7340 C 688.147 3.99383 -1.84882 0
M  V30 7341 H 685.266 0.596148 -0.433333 0
M  V30 7342 H 687.908 1.0289 -1.5973 0
M  V30 7343 H 686.058 3.50907 -1.66722 0
M  V30 7344 H 687.73 2.31709 -3.98884 0
M  V30 7345 H 685.973 2.11867 -3.78543 0
M  V30 7346 H 686.644 3.72717 -4.07168 0
M  V30 7347 H 689.12 3.56132 -2.15196 0
M  V30 7348 H 687.996 4.91222 -2.44934 0
M  V30 7349 H 688.257 4.34674 -0.806902 0
M  V30 7350 N 687.317 1.12792 1.10072 0
M  V30 7351 C 688.563 0.886857 1.82381 0
M  V30 7352 C 688.896 -0.58576 1.85155 0
M  V30 7353 O 688.171 -1.43317 1.31493 0
M  V30 7354 C 688.454 1.46703 3.28862 0
M  V30 7355 C 688.307 3.00829 3.34398 0
M  V30 7356 C 689.626 1.12971 4.25353 0
M  V30 7357 H 686.745 0.32362 0.662148 0
M  V30 7358 H 689.387 1.39513 1.28982 0
M  V30 7359 H 687.537 1.03476 3.74466 0
M  V30 7360 H 689.209 3.52764 2.97247 0
M  V30 7361 H 687.452 3.36164 2.74183 0
M  V30 7362 H 688.123 3.36519 4.3756 0
M  V30 7363 H 690.599 1.50313 3.88001 0
M  V30 7364 H 689.475 1.56223 5.26199 0
M  V30 7365 H 689.736 0.0424452 4.4208 0
M  V30 7366 N 688.795 -1.27931 0.920396 0
M  V30 7367 C 689.725 -2.29487 0.431024 0
M  V30 7368 C 690.706 -1.62435 -0.504861 0
M  V30 7369 O 691.891 -1.89797 -0.411176 0
M  V30 7370 C 689.021 -3.45788 -0.323709 0
M  V30 7371 C 687.975 -4.24784 0.523658 0
M  V30 7372 C 687.301 -5.33488 -0.359809 0
M  V30 7373 C 688.601 -4.90874 1.78437 0
M  V30 7374 H 690.295 -2.70671 1.27975 0
M  V30 7375 H 687.841 -1.30121 0.616813 0
M  V30 7376 H 689.794 -4.15927 -0.676952 0
M  V30 7377 H 688.518 -3.03502 -1.2064 0
M  V30 7378 H 687.177 -3.56382 0.85951 0
M  V30 7379 H 686.825 -4.87445 -1.24124 0
M  V30 7380 H 686.525 -5.87247 0.203605 0
M  V30 7381 H 688.049 -6.06472 -0.708787 0
M  V30 7382 H 689.463 -5.53339 1.49963 0
M  V30 7383 H 687.86 -5.54659 2.29071 0
M  V30 7384 H 688.93 -4.14988 2.50824 0
M  V30 7385 N 690.273 -0.685099 -1.4193 0
M  V30 7386 C 691.689 -0.355632 -1.55587 0
M  V30 7387 C 691.889 1.13823 -1.66273 0
M  V30 7388 O 690.945 1.92387 -1.63534 0
M  V30 7389 C 692.258 -1.09498 -2.80055 0
M  V30 7390 C 693.806 -1.07831 -2.93839 0
M  V30 7391 C 694.281 -1.79919 -4.21181 0
M  V30 7392 N 695.772 -1.76837 -4.28115 0
M  V30 7393 C 696.507 -2.29463 -5.25485 0
M  V30 7394 N 696.003 -2.90516 -6.28945 0
M  V30 7395 N 697.796 -2.19779 -5.17353 0
M  V30 7396 H 689.947 -1.65412 -1.33239 0
M  V30 7397 H 692.21 -0.697453 -0.642078 0
M  V30 7398 H 691.916 -2.14997 -2.78333 0
M  V30 7399 H 691.79 -0.666813 -3.71259 0
M  V30 7400 H 694.177 -0.0316152 -2.95083 0
M  V30 7401 H 694.258 -1.54545 -2.03837 0
M  V30 7402 H 693.902 -2.84562 -4.20698 0
M  V30 7403 H 693.832 -1.30647 -5.10136 0
M  V30 7404 H 696.323 -1.32315 -3.53979 0
M  V30 7405 H 696.636 -3.28266 -6.99615 0
M  V30 7406 H 694.981 -2.94589 -6.29478 0
M  V30 7407 H 698.172 -1.71763 -4.35448 0
M  V30 7408 H 698.345 -2.61097 -5.9307 0
M  V30 7409 N 691.751 1.51645 -0.429126 0
M  V30 7410 C 693.167 1.59394 -0.080994 0
M  V30 7411 C 693.367 1.44064 1.40882 0
M  V30 7412 O 692.423 1.27771 2.17786 0
M  V30 7413 C 693.736 2.94779 -0.593773 0
M  V30 7414 C 695.284 3.08067 -0.553494 0
M  V30 7415 C 695.759 4.45963 -1.04311 0
M  V30 7416 N 697.25 4.5226 -1.00076 0
M  V30 7417 C 697.985 5.57268 -1.35056 0
M  V30 7418 N 697.481 6.69734 -1.77282 0
M  V30 7419 N 699.274 5.47582 -1.26925 0
M  V30 7420 H 691.425 1.59856 -1.39857 0
M  V30 7421 H 693.688 0.753095 -0.575805 0
M  V30 7422 H 693.394 3.11342 -1.63583 0
M  V30 7423 H 693.268 3.77197 -0.0142202 0
M  V30 7424 H 695.655 2.91177 0.479556 0
M  V30 7425 H 695.736 2.27508 -1.16935 0
M  V30 7426 H 695.38 4.63598 -2.07459 0
M  V30 7427 H 695.31 5.25049 -0.403873 0
M  V30 7428 H 697.801 3.71537 -0.690564 0
M  V30 7429 H 698.114 7.4587 -2.02232 0
M  V30 7430 H 696.459 6.70963 -1.81202 0
M  V30 7431 H 699.65 4.58604 -0.93809 0
M  V30 7432 H 699.823 6.29308 -1.54516 0
M  V30 7433 N 693.229 0.160201 1.56784 0
M  V30 7434 C 694.176 -0.774416 2.1742 0
M  V30 7435 C 695.146 -1.23483 1.11091 0
M  V30 7436 O 696.331 -1.30499 1.39193 0
M  V30 7437 C 693.471 -2.00283 2.81035 0
M  V30 7438 C 692.584 -1.58701 4.01793 0
M  V30 7439 C 691.719 -2.76824 4.53367 0
M  V30 7440 C 690.758 -2.31679 5.66561 0
M  V30 7441 N 689.895 -3.42856 6.12694 0
M  V30 7442 H 694.735 -0.250542 2.96945 0
M  V30 7443 H 692.272 -0.111943 1.46673 0
M  V30 7444 H 694.23 -2.72316 3.16069 0
M  V30 7445 H 692.86 -2.5006 2.04132 0
M  V30 7446 H 691.912 -0.76384 3.72652 0
M  V30 7447 H 693.224 -1.21555 4.83762 0
M  V30 7448 H 692.378 -3.57029 4.90525 0
M  V30 7449 H 691.117 -3.17223 3.70433 0
M  V30 7450 H 690.122 -1.49917 5.28966 0
M  V30 7451 H 691.347 -1.9235 6.5129 0
M  V30 7452 H 689.293 -3.82852 5.32692 0
M  V30 7453 H 689.21 -3.09767 6.89624 0
M  V30 7454 H 690.478 -4.23379 6.545 0
M  V30 7455 N 694.707 -1.5719 -0.113559 0
M  V30 7456 C 696.118 -1.74259 -0.670116 0
M  V30 7457 C 696.469 -0.779694 -1.80042 0
M  V30 7458 O 695.594 0.0461353 -2.16351 0
M  V30 7459 C 696.189 -3.15981 -1.22236 0
M  V30 7460 C 694.748 -3.34537 -1.72516 0
M  V30 7461 C 693.895 -2.70116 -0.627098 0
M  V30 7462 H 696.846 -1.58301 0.112396 0
M  V30 7463 H 696.867 -3.17832 -2.09197 0
M  V30 7464 H 696.379 -3.86038 -0.39949 0
M  V30 7465 H 694.48 -2.6953 -2.57263 0
M  V30 7466 H 694.593 -4.42737 -1.83086 0
M  V30 7467 H 692.957 -2.31501 -1.06204 0
M  V30 7468 H 693.74 -3.42802 0.184889 0
M  V30 7469 N 696.185 0.383891 -1.52853 0
M  V30 7470 C 697.41 1.154 -1.7233 0
M  V30 7471 C 697.835 1.82809 -0.44298 0
M  V30 7472 O 697.193 1.71026 0.601645 0
M  V30 7473 C 697.241 2.17386 -2.87708 0
M  V30 7474 O 696.345 3.24082 -2.55038 0
M  V30 7475 H 695.686 0.335709 -0.572883 0
M  V30 7476 H 698.216 0.44662 -1.99666 0
M  V30 7477 H 698.226 2.61296 -3.1335 0
M  V30 7478 H 696.901 1.6771 -3.80587 0
M  V30 7479 H 695.478 2.85273 -2.40153 0
M  V30 7480 N 697.663 1.43903 0.642637 0
M  V30 7481 C 698.909 1.46296 1.40447 0
M  V30 7482 C 699.242 0.0908361 1.93987 0
M  V30 7483 O 698.517 -0.889884 1.72949 0
M  V30 7484 C 698.8 2.51399 2.57819 0
M  V30 7485 C 698.653 3.97926 2.09702 0
M  V30 7486 C 699.972 2.53125 3.60022 0
M  V30 7487 H 697.091 0.532676 0.509338 0
M  V30 7488 H 699.733 1.75515 0.727635 0
M  V30 7489 H 697.883 2.26614 3.1556 0
M  V30 7490 H 699.555 4.33804 1.5688 0
M  V30 7491 H 697.798 4.10252 1.40982 0
M  V30 7492 H 698.469 4.67096 2.94152 0
M  V30 7493 H 700.945 2.75242 3.12059 0
M  V30 7494 H 699.821 3.28589 4.39682 0
M  V30 7495 H 700.082 1.56895 4.13324 0
M  V30 7496 N 699.141 -0.881989 1.30609 0
M  V30 7497 C 700.369 -1.66711 1.22536 0
M  V30 7498 C 700.784 -1.87614 -0.2113 0
M  V30 7499 O 700.141 -1.42576 -1.13923 0
M  V30 7500 C 700.192 -3.04182 1.95335 0
M  V30 7501 O 699.913 -2.8422 3.33393 0
M  V30 7502 C 701.414 -3.98617 1.93956 0
M  V30 7503 H 698.634 -0.520124 0.423925 0
M  V30 7504 H 701.178 -1.10174 1.72285 0
M  V30 7505 H 699.333 -3.57442 1.49378 0
M  V30 7506 H 699.747 -3.71452 3.70302 0
M  V30 7507 H 701.221 -4.92433 2.49426 0
M  V30 7508 H 701.698 -4.29473 0.919198 0
M  V30 7509 H 702.304 -3.51292 2.39738 0
M  V30 7510 N 700.619 -1.13374 -1.09472 0
M  V30 7511 C 701.567 -0.806105 -2.18185 0
M  V30 7512 C 702.561 0.21136 -1.68076 0
M  V30 7513 O 703.767 0.0685558 -1.79869 0
M  V30 7514 H 700.142 -0.242901 -0.71169 0
M  V30 7515 H 702.113 -1.73115 -2.43051 0
M  V30 7516 C 700.862 -0.287928 -3.46506 0
M  V30 7517 H 700.185 -1.06217 -3.85432 0
M  V30 7518 H 701.625 -0.0971054 -4.23889 0
M  V30 7519 C 700.084 0.986256 -3.22141 0
M  V30 7520 O 700.614 2.06217 -3.44728 0
M  V30 7521 N 698.82 0.917153 -2.75747 0
M  V30 7522 H 698.367 0.0414609 -2.57567 0
M  V30 7523 H 698.325 1.77029 -2.59823 0
M  V30 7524 N 702.098 1.27442 -0.927168 0
M  V30 7525 C 703.514 1.46754 -0.627329 0
M  V30 7526 C 703.714 1.83902 0.823549 0
M  V30 7527 O 702.77 1.95215 1.60148 0
M  V30 7528 C 704.083 2.56045 -1.57674 0
M  V30 7529 C 705.631 2.69906 -1.58491 0
M  V30 7530 C 706.106 3.82355 -2.52128 0
M  V30 7531 N 707.597 3.89728 -2.50332 0
M  V30 7532 C 708.332 4.76155 -3.19475 0
M  V30 7533 N 707.828 5.67073 -3.97995 0
M  V30 7534 N 709.621 4.6988 -3.08496 0
M  V30 7535 H 701.772 1.01613 -1.86517 0
M  V30 7536 H 704.035 0.507443 -0.800753 0
M  V30 7537 H 703.741 2.35542 -2.61176 0
M  V30 7538 H 703.615 3.53423 -1.31804 0
M  V30 7539 H 706.002 2.89792 -0.557208 0
M  V30 7540 H 706.083 1.73018 -1.8841 0
M  V30 7541 H 705.727 3.63224 -3.55008 0
M  V30 7542 H 705.657 4.7867 -2.19505 0
M  V30 7543 H 708.148 3.24717 -1.93306 0
M  V30 7544 H 708.461 6.2988 -4.4774 0
M  V30 7545 H 706.806 5.6687 -4.02098 0
M  V30 7546 H 709.997 3.97848 -2.46646 0
M  V30 7547 H 710.17 5.37017 -3.62652 0
M  V30 7548 N 703.576 0.692616 1.41565 0
M  V30 7549 C 704.506 0.0397325 2.33466 0
M  V30 7550 C 705.487 -0.770334 1.51657 0
M  V30 7551 O 706.672 -0.723903 1.80203 0
M  V30 7552 C 703.802 -0.899495 3.3545 0
M  V30 7553 C 702.756 -0.196738 4.27548 0
M  V30 7554 C 702.082 -1.25012 5.19881 0
M  V30 7555 C 703.382 0.935158 5.1386 0
M  V30 7556 H 705.076 0.807296 2.88311 0
M  V30 7557 H 702.622 0.389665 1.38628 0
M  V30 7558 H 704.575 -1.36545 3.98665 0
M  V30 7559 H 703.299 -1.69869 2.78948 0
M  V30 7560 H 701.958 0.249158 3.65752 0
M  V30 7561 H 701.606 -2.04177 4.59696 0
M  V30 7562 H 701.306 -0.784931 5.82334 0
M  V30 7563 H 702.83 -1.71665 5.85972 0
M  V30 7564 H 704.244 0.549619 5.70659 0
M  V30 7565 H 702.641 1.32726 5.85238 0
M  V30 7566 H 703.711 1.77613 4.512 0
M  V30 7567 N 705.054 -1.51416 0.437162 0
M  V30 7568 C 706.282 -2.06503 -0.128045 0
M  V30 7569 C 706.697 -1.30461 -1.36475 0
M  V30 7570 O 706.054 -0.364127 -1.78831 0
M  V30 7571 C 706.105 -3.58683 -0.450437 0
M  V30 7572 O 705.826 -4.31853 0.737186 0
M  V30 7573 C 707.327 -4.30284 -1.06633 0
M  V30 7574 H 704.547 -0.670952 -0.00800269 0
M  V30 7575 H 707.091 -1.94996 0.616193 0
M  V30 7576 H 705.246 -3.70106 -1.14457 0
M  V30 7577 H 705.66 -5.22467 0.461347 0
M  V30 7578 H 707.134 -5.37848 -1.24191 0
M  V30 7579 H 707.611 -3.88564 -2.0473 0
M  V30 7580 H 708.217 -4.23304 -0.411585 0
M  V30 7581 N 706.532 -0.168513 -1.56696 0
M  V30 7582 C 707.757 0.486688 -2.01609 0
M  V30 7583 C 708.182 1.56203 -1.04796 0
M  V30 7584 O 707.54 1.8128 -0.0270596 0
M  V30 7585 C 707.588 1.04451 -3.45141 0
M  V30 7586 O 706.692 2.15862 -3.51393 0
M  V30 7587 H 706.033 0.116831 -0.653641 0
M  V30 7588 H 708.563 -0.271579 -2.0279 0
M  V30 7589 H 708.573 1.36782 -3.84389 0
M  V30 7590 H 707.248 0.257155 -4.15104 0
M  V30 7591 H 705.825 1.84597 -3.24004 0
M  V30 7592 N 708.01 1.57248 0.105221 0
M  V30 7593 C 709.426 1.52853 0.459153 0
M  V30 7594 C 709.626 0.883674 1.8109 0
M  V30 7595 O 708.682 0.471864 2.48052 0
M  V30 7596 C 709.995 2.97596 0.43096 0
M  V30 7597 C 711.543 3.08758 0.513536 0
M  V30 7598 C 712.018 4.55089 0.515593 0
M  V30 7599 N 713.509 4.59597 0.576639 0
M  V30 7600 C 714.244 5.70253 0.599904 0
M  V30 7601 N 713.74 6.90368 0.579985 0
M  V30 7602 N 715.533 5.58399 0.643953 0
M  V30 7603 H 707.684 1.97547 -0.780306 0
M  V30 7604 H 709.947 0.902758 -0.289363 0
M  V30 7605 H 709.653 3.48201 -0.494903 0
M  V30 7606 H 709.527 3.55756 1.2537 0
M  V30 7607 H 711.914 2.58148 1.42982 0
M  V30 7608 H 711.995 2.53568 -0.337148 0
M  V30 7609 H 711.639 5.06348 -0.396701 0
M  V30 7610 H 711.569 5.08105 1.38335 0
M  V30 7611 H 714.06 3.73144 0.597639 0
M  V30 7612 H 714.373 7.70462 0.600741 0
M  V30 7613 H 712.718 6.92843 0.547191 0
M  V30 7614 H 715.909 4.63467 0.656975 0
M  V30 7615 H 716.082 6.44644 0.658616 0
M  V30 7616 N 709.488 -0.375779 1.53054 0
M  V30 7617 C 710.435 -1.45978 1.78771 0
M  V30 7618 C 711.405 -1.53625 0.631552 0
M  V30 7619 O 712.59 -1.69674 0.872667 0
M  V30 7620 C 709.73 -2.8305 1.97425 0
M  V30 7621 C 708.843 -2.84451 3.25134 0
M  V30 7622 C 707.978 -4.13034 3.34031 0
M  V30 7623 C 707.017 -4.08536 4.55812 0
M  V30 7624 N 706.154 -5.2875 4.61918 0
M  V30 7625 H 710.994 -1.23349 2.71273 0
M  V30 7626 H 708.531 -0.598147 1.3439 0
M  V30 7627 H 710.489 -3.62666 2.06225 0
M  V30 7628 H 709.119 -3.04101 1.0827 0
M  V30 7629 H 708.171 -1.97127 3.25338 0
M  V30 7630 H 709.483 -2.76998 4.14818 0
M  V30 7631 H 708.637 -5.0106 3.42087 0
M  V30 7632 H 707.376 -4.23226 2.42345 0
M  V30 7633 H 706.381 -3.18897 4.47867 0
M  V30 7634 H 707.606 -3.99955 5.48828 0
M  V30 7635 H 705.552 -5.39547 3.73129 0
M  V30 7636 H 705.469 -5.23426 5.45492 0
M  V30 7637 H 706.737 -6.18637 4.74245 0
M  V30 7638 N 710.966 -1.44241 -0.634997 0
M  V30 7639 C 712.191 -1.50516 -1.42687 0
M  V30 7640 C 712.616 -0.129864 -1.87651 0
M  V30 7641 O 711.974 0.880164 -1.58502 0
M  V30 7642 C 712.022 -2.4714 -2.62591 0
M  V30 7643 O 711.126 -1.97025 -3.62291 0
M  V30 7644 H 710.467 -0.50841 -0.427101 0
M  V30 7645 H 712.997 -1.89337 -0.775408 0
M  V30 7646 H 713.007 -2.65048 -3.10183 0
M  V30 7647 H 711.682 -3.47039 -2.29209 0
M  V30 7648 H 710.259 -1.88866 -3.21534 0
M  V30 7649 N 712.444 0.87505 -1.31075 0
M  V30 7650 C 713.407 1.96333 -1.18263 0
M  V30 7651 C 714.407 1.60416 -0.111106 0
M  V30 7652 O 715.597 1.7044 -0.359987 0
M  V30 7653 C 712.729 3.31036 -0.81414 0
M  V30 7654 H 713.922 2.09125 -2.14958 0
M  V30 7655 H 711.475 1.06271 -1.14614 0
M  V30 7656 H 712.21 3.23944 0.151875 0
M  V30 7657 H 711.995 3.58476 -1.58862 0
M  V30 7658 H 713.485 4.10842 -0.748249 0
M  V30 7659 N 713.922 1.13953 1.08869 0
M  V30 7660 C 715.333 0.916649 1.62648 0
M  V30 7661 C 715.684 -0.545589 1.88462 0
M  V30 7662 O 714.809 -1.41351 1.63856 0
M  V30 7663 C 715.404 1.65751 2.95486 0
M  V30 7664 C 713.963 1.48034 3.46068 0
M  V30 7665 C 713.11 1.68305 2.20383 0
M  V30 7666 H 716.061 1.292 0.921572 0
M  V30 7667 H 716.082 1.11794 3.63707 0
M  V30 7668 H 715.594 2.72171 2.76667 0
M  V30 7669 H 713.695 0.439416 3.7 0
M  V30 7670 H 713.808 2.24719 4.23129 0
M  V30 7671 H 712.172 1.10833 2.29321 0
M  V30 7672 H 712.955 2.76057 2.04077 0
M  V30 7673 N 715.4 -1.26948 0.933913 0
M  V30 7674 C 716.646 -1.94374 0.57848 0
M  V30 7675 C 716.979 -1.73166 -0.879048 0
M  V30 7676 O 716.254 -1.06438 -1.62792 0
M  V30 7677 C 716.537 -3.4834 0.912739 0
M  V30 7678 C 716.39 -3.78866 2.42448 0
M  V30 7679 C 717.709 -4.38062 0.423003 0
M  V30 7680 H 714.828 -0.705959 0.211639 0
M  V30 7681 H 717.47 -1.49951 1.16682 0
M  V30 7682 H 715.62 -3.86309 0.412058 0
M  V30 7683 H 717.292 -3.50654 2.99733 0
M  V30 7684 H 715.535 -3.25198 2.87104 0
M  V30 7685 H 716.206 -4.86458 2.60887 0
M  V30 7686 H 718.682 -4.0728 0.852191 0
M  V30 7687 H 717.558 -5.44599 0.685776 0
M  V30 7688 H 717.819 -4.36886 -0.676994 0
M  V30 7689 N 716.879 -0.700114 -1.41195 0
M  V30 7690 C 717.809 -0.0521132 -2.33442 0
M  V30 7691 C 718.79 0.76228 -1.52063 0
M  V30 7692 O 719.975 0.714336 -1.80585 0
M  V30 7693 C 717.105 0.881693 -3.35922 0
M  V30 7694 C 716.059 0.174062 -4.27646 0
M  V30 7695 C 715.385 1.22254 -5.20536 0
M  V30 7696 C 716.685 -0.962396 -5.13357 0
M  V30 7697 H 718.379 -0.822574 -2.87879 0
M  V30 7698 H 715.925 -0.397011 -1.38419 0
M  V30 7699 H 717.878 1.34429 -3.99383 0
M  V30 7700 H 716.602 1.68387 -2.79845 0
M  V30 7701 H 715.261 -0.268551 -3.65615 0
M  V30 7702 H 714.909 2.01736 -4.60773 0
M  V30 7703 H 714.609 0.754038 -5.82742 0
M  V30 7704 H 716.133 1.68555 -5.86874 0
M  V30 7705 H 717.547 -0.579875 -5.7036 0
M  V30 7706 H 715.944 -1.35828 -5.84526 0
M  V30 7707 H 717.014 -1.80003 -4.50252 0
M  V30 7708 N 718.357 1.51182 -0.445186 0
M  V30 7709 C 719.305 2.29531 0.376597 0
M  V30 7710 C 720.299 1.35711 1.01385 0
M  V30 7711 O 721.505 1.53018 0.947922 0
M  V30 7712 H 717.88 0.738803 0.140267 0
M  V30 7713 H 719.851 2.96838 -0.304958 0
M  V30 7714 C 718.6 3.1552 1.4609 0
M  V30 7715 H 717.923 3.87605 0.979912 0
M  V30 7716 H 719.363 3.73384 2.009 0
M  V30 7717 C 717.822 2.31406 2.44852 0
M  V30 7718 O 718.352 1.97912 3.49562 0
M  V30 7719 N 716.558 1.94478 2.15932 0
M  V30 7720 H 716.105 2.21917 1.30808 0
M  V30 7721 H 716.063 1.38498 2.82251 0
M  V30 7722 N 719.835 0.176821 1.56605 0
M  V30 7723 C 720.767 -0.782836 2.15417 0
M  V30 7724 C 721.78 -1.18982 1.11117 0
M  V30 7725 O 722.969 -1.12872 1.38283 0
M  V30 7726 C 720.069 -2.06596 2.68647 0
M  V30 7727 C 719.242 -1.82167 3.9766 0
M  V30 7728 C 718.301 -2.94751 4.35899 0
M  V30 7729 O 717.327 -2.65148 5.03672 0
M  V30 7730 N 718.529 -4.2267 3.97907 0
M  V30 7731 H 721.294 -0.280012 2.98389 0
M  V30 7732 H 718.855 -0.00577529 1.61899 0
M  V30 7733 H 720.847 -2.81018 2.91223 0
M  V30 7734 H 719.417 -2.48054 1.90232 0
M  V30 7735 H 718.637 -0.916208 3.83405 0
M  V30 7736 H 719.925 -1.6322 4.81909 0
M  V30 7737 H 719.323 -4.4958 3.43357 0
M  V30 7738 H 717.88 -4.93778 4.25472 0
M  V30 7739 N 721.313 -1.57302 -0.09688 0
M  V30 7740 C 722.562 -1.85183 -0.799388 0
M  V30 7741 C 722.875 -0.765818 -1.79985 0
M  V30 7742 O 724.081 -0.931696 -2.55013 0
M  V30 7743 C 722.537 -3.28399 -1.47249 0
M  V30 7744 C 722.145 -4.45066 -0.511888 0
M  V30 7745 C 723.889 -3.65506 -2.15883 0
M  V30 7746 C 721.796 -5.79315 -1.18948 0
M  V30 7747 H 720.726 -0.690752 -0.302287 0
M  V30 7748 H 723.377 -1.83425 -0.0523104 0
M  V30 7749 H 721.759 -3.24692 -2.26697 0
M  V30 7750 H 722.933 -4.60116 0.250962 0
M  V30 7751 H 721.248 -4.16343 0.0686576 0
M  V30 7752 H 723.845 -4.63087 -2.67309 0
M  V30 7753 H 724.188 -2.94041 -2.94696 0
M  V30 7754 H 724.721 -3.71094 -1.43298 0
M  V30 7755 H 721.46 -6.54007 -0.442198 0
M  V30 7756 H 720.98 -5.68111 -1.9238 0
M  V30 7757 H 722.659 -6.23816 -1.71646 0
M  V30 7758 N 722.791 0.367657 -1.53252 0
M  V30 7759 C 724.038 1.11052 -1.69333 0
M  V30 7760 C 724.366 1.89363 -0.444064 0
M  V30 7761 O 723.621 1.87094 0.573953 0
M  V30 7762 C 723.92 2.09825 -2.89324 0
M  V30 7763 C 723.586 1.4801 -4.25915 0
M  V30 7764 C 722.248 1.30879 -4.6306 0
M  V30 7765 C 724.6 1.03268 -5.10867 0
M  V30 7766 C 721.928 0.675868 -5.82794 0
M  V30 7767 C 724.28 0.41377 -6.31245 0
M  V30 7768 C 722.944 0.229939 -6.67104 0
M  V30 7769 H 722.214 0.406367 -0.619634 0
M  V30 7770 H 724.861 0.392558 -1.87433 0
M  V30 7771 H 723.166 2.87917 -2.65728 0
M  V30 7772 H 724.863 2.67252 -2.98961 0
M  V30 7773 H 721.453 1.62336 -3.96667 0
M  V30 7774 H 725.637 1.15297 -4.82722 0
M  V30 7775 H 720.893 0.521833 -6.09169 0
M  V30 7776 H 725.067 0.0588768 -6.96375 0
M  V30 7777 H 722.694 -0.262562 -7.59746 0
M  V30 7778 N 724.269 1.44576 0.627338 0
M  V30 7779 C 725.179 1.54232 1.76776 0
M  V30 7780 C 726.195 0.427782 1.6866 0
M  V30 7781 O 727.371 0.685671 1.89369 0
M  V30 7782 C 724.436 1.48738 3.13174 0
M  V30 7783 C 723.497 2.71074 3.32893 0
M  V30 7784 C 722.73 2.65832 4.62784 0
M  V30 7785 O 722.953 1.72048 5.43834 0
M  V30 7786 O 721.887 3.56742 4.84787 0
M  V30 7787 H 725.713 2.50586 1.71582 0
M  V30 7788 H 723.298 1.26865 0.789028 0
M  V30 7789 H 725.18 1.48211 3.94476 0
M  V30 7790 H 723.855 0.555292 3.18902 0
M  V30 7791 H 722.762 2.77168 2.51254 0
M  V30 7792 H 724.095 3.63342 3.32029 0
M  V30 7793 N 725.747 -0.868086 1.31537 0
M  V30 7794 C 726.657 -2.00801 1.21311 0
M  V30 7795 C 727.673 -1.73518 0.129431 0
M  V30 7796 O 728.849 -1.98378 0.347588 0
M  V30 7797 C 725.914 -3.3419 0.922935 0
M  V30 7798 C 724.975 -3.74783 2.0937 0
M  V30 7799 C 724.208 -5.01807 1.81728 0
M  V30 7800 O 724.431 -5.65404 0.753313 0
M  V30 7801 O 723.365 -5.39213 2.67457 0
M  V30 7802 H 727.191 -2.12361 2.17109 0
M  V30 7803 H 724.776 -0.996684 1.11295 0
M  V30 7804 H 726.658 -4.14174 0.777033 0
M  V30 7805 H 725.333 -3.237 -0.00500301 0
M  V30 7806 H 724.24 -2.95432 2.29501 0
M  V30 7807 H 725.573 -3.89902 3.00396 0
M  V30 7808 N 727.225 -1.14528 -1.08264 0
M  V30 7809 C 728.473 -0.912599 -1.80322 0
M  V30 7810 C 728.794 0.562256 -1.86718 0
M  V30 7811 O 728.064 1.40869 -1.36135 0
M  V30 7812 H 726.644 -0.334645 -0.667849 0
M  V30 7813 H 729.306 -1.44415 -1.30883 0
M  V30 7814 H 728.402 -1.31384 -2.83098 0
M  V30 7815 N 728.703 1.26451 -0.940633 0
M  V30 7816 C 729.613 2.30128 -0.455881 0
M  V30 7817 C 730.629 1.67536 0.469867 0
M  V30 7818 O 731.805 1.98344 0.349529 0
M  V30 7819 C 728.87 3.45634 0.271648 0
M  V30 7820 C 727.931 4.23709 -0.690594 0
M  V30 7821 C 727.164 5.337 0.00231047 0
M  V30 7822 O 727.387 5.57215 1.21935 0
M  V30 7823 O 726.321 5.98091 -0.676111 0
M  V30 7824 H 730.147 2.73655 -1.31707 0
M  V30 7825 H 727.732 1.3164 -0.706497 0
M  V30 7826 H 729.614 4.15853 0.681486 0
M  V30 7827 H 728.289 3.04138 1.10824 0
M  V30 7828 H 727.196 3.55974 -1.15037 0
M  V30 7829 H 728.529 4.68953 -1.49478 0
M  V30 7830 N 730.181 0.707592 1.40822 0
M  V30 7831 C 731.406 0.251626 2.05868 0
M  V30 7832 C 731.831 -1.09503 1.5294 0
M  V30 7833 O 731.189 -1.68806 0.661385 0
M  V30 7834 C 731.237 0.23287 3.59847 0
M  V30 7835 O 730.341 -0.788477 4.04792 0
M  V30 7836 H 729.682 0.119936 0.653078 0
M  V30 7837 H 732.212 0.96583 1.80369 0
M  V30 7838 H 732.222 0.0678204 4.07944 0
M  V30 7839 H 730.897 1.21565 3.97737 0
M  V30 7840 H 729.474 -0.591802 3.68174 0
M  V30 7841 N 731.66 -1.50943 0.453197 0
M  V30 7842 C 732.937 -1.94872 -0.168633 0
M  V30 7843 C 733.317 -1.39272 -1.5864 0
M  V30 7844 O 732.665 -0.586272 -2.20851 0
M  V30 7845 C 732.875 -3.48757 -0.130217 0
M  V30 7846 C 734.223 -4.23331 -0.327975 0
M  V30 7847 O 735.247 -3.55594 -0.207619 0
M  V30 7848 O 734.106 -5.43529 -0.569077 0
M  V30 7849 H 731.2 -0.818042 -0.121394 0
M  V30 7850 H 733.746 -1.61782 0.512316 0
M  V30 7851 H 732.518 -3.81725 0.860346 0
M  V30 7852 H 732.141 -3.88333 -0.853397 0
M  V30 7853 N 733.138 -0.185124 -1.56509 0
M  V30 7854 C 734.415 0.503348 -1.89013 0
M  V30 7855 C 734.795 1.80349 -1.09715 0
M  V30 7856 O 734.143 2.27665 -0.195203 0
M  V30 7857 C 734.353 0.731839 -3.41241 0
M  V30 7858 C 735.701 1.05568 -4.11267 0
M  V30 7859 O 736.725 0.819906 -3.46635 0
M  V30 7860 O 735.584 1.50116 -5.25478 0
M  V30 7861 H 732.678 0.261139 -0.784688 0
M  V30 7862 H 735.224 -0.224592 -1.68207 0
M  V30 7863 H 733.996 -0.18672 -3.90854 0
M  V30 7864 H 733.619 1.5126 -3.67704 0
M  V30 7865 N 734.616 1.57351 0.0885366 0
M  V30 7866 C 735.526 2.05858 1.12516 0
M  V30 7867 C 736.542 0.984758 1.43452 0
M  V30 7868 O 737.718 1.29836 1.53963 0
M  V30 7869 C 734.783 2.47882 2.42395 0
M  V30 7870 C 733.844 3.69487 2.18582 0
M  V30 7871 C 733.077 4.09497 3.42268 0
M  V30 7872 O 733.3 3.49536 4.50755 0
M  V30 7873 O 732.234 5.02406 3.31469 0
M  V30 7874 H 736.06 2.94467 0.743146 0
M  V30 7875 H 733.645 1.46326 0.301507 0
M  V30 7876 H 735.527 2.75509 3.18862 0
M  V30 7877 H 734.202 1.62408 2.8001 0
M  V30 7878 H 733.109 3.46967 1.39875 0
M  V30 7879 H 734.442 4.55761 1.85857 0
M  V30 7880 N 736.094 -0.359525 1.53444 0
M  V30 7881 C 737.341 -1.10152 1.6992 0
M  V30 7882 C 737.669 -1.89125 0.4541 0
M  V30 7883 O 736.924 -1.87396 -0.564023 0
M  V30 7884 C 737.223 -2.08287 2.90433 0
M  V30 7885 C 736.889 -1.45749 4.26694 0
M  V30 7886 C 735.551 -1.28421 4.63747 0
M  V30 7887 C 737.903 -1.00557 5.11408 0
M  V30 7888 C 735.231 -0.644951 5.83144 0
M  V30 7889 C 737.583 -0.380288 6.31456 0
M  V30 7890 C 736.247 -0.194557 6.67216 0
M  V30 7891 H 735.517 -0.403076 0.621781 0
M  V30 7892 H 738.164 -0.382612 1.87639 0
M  V30 7893 H 736.469 -2.86503 2.67251 0
M  V30 7894 H 738.166 -2.65662 3.00374 0
M  V30 7895 H 734.756 -1.6023 3.97523 0
M  V30 7896 H 738.94 -1.12735 4.83326 0
M  V30 7897 H 734.196 -0.48952 6.09437 0
M  V30 7898 H 738.37 -0.0219455 6.96397 0
M  V30 7899 H 735.997 0.30285 7.59597 0
M  V30 7900 N 737.572 -1.44907 -0.619662 0
M  V30 7901 C 738.849 -1.38766 -1.37852 0
M  V30 7902 C 739.229 -0.0521393 -2.11036 0
M  V30 7903 O 738.577 0.965613 -2.07095 0
M  V30 7904 C 738.787 -2.59344 -2.33541 0
M  V30 7905 C 740.135 -3.03909 -2.96521 0
M  V30 7906 O 741.159 -2.59631 -2.43865 0
M  V30 7907 O 740.018 -3.80713 -3.92071 0
M  V30 7908 H 737.112 -0.550083 -0.617525 0
M  V30 7909 H 739.658 -1.57015 -0.643759 0
M  V30 7910 H 738.43 -3.48142 -1.78642 0
M  V30 7911 H 738.053 -2.43367 -3.14417 0
M  V30 7912 N 739.05 0.861098 -1.31996 0
M  V30 7913 C 739.983 1.97266 -1.14724 0
M  V30 7914 C 740.961 1.62528 -0.0483789 0
M  V30 7915 O 742.145 1.87366 -0.206478 0
M  V30 7916 C 739.272 3.30181 -0.754861 0
M  V30 7917 C 738.318 3.839 -1.85804 0
M  V30 7918 S 739.151 4.08274 -3.46515 0
M  V30 7919 C 740.307 5.44174 -3.09235 0
M  V30 7920 H 740.54 2.11614 -2.08822 0
M  V30 7921 H 738.073 1.01232 -1.16582 0
M  V30 7922 H 740.031 4.06996 -0.535232 0
M  V30 7923 H 738.692 3.13655 0.167155 0
M  V30 7924 H 737.885 4.80013 -1.53633 0
M  V30 7925 H 737.487 3.13907 -2.03318 0
M  V30 7926 H 739.779 6.26172 -2.58679 0
M  V30 7927 H 740.722 5.81301 -4.04345 0
M  V30 7928 H 741.13 5.0787 -2.46431 0
M  V30 7929 N 740.528 1.15101 1.07655 0
M  V30 7930 C 741.805 0.834578 1.76902 0
M  V30 7931 C 742.185 -0.670431 2.00171 0
M  V30 7932 O 741.533 -1.61378 1.6177 0
M  V30 7933 C 741.743 1.64191 3.07965 0
M  V30 7934 C 743.091 1.84615 3.82364 0
M  V30 7935 O 744.115 1.60941 3.17768 0
M  V30 7936 O 742.974 2.24244 4.98374 0
M  V30 7937 H 740.068 0.306608 0.768063 0
M  V30 7938 H 742.614 1.25663 1.14048 0
M  V30 7939 H 741.386 2.66386 2.86626 0
M  V30 7940 H 741.009 1.216 3.78549 0
M  V30 7941 N 742.006 -1.2595 0.947325 0
M  V30 7942 C 742.916 -2.29883 0.468079 0
M  V30 7943 C 743.932 -1.67783 -0.460975 0
M  V30 7944 O 745.108 -1.98526 -0.339006 0
M  V30 7945 C 742.173 -3.45773 -0.253315 0
M  V30 7946 C 741.234 -4.23337 0.713054 0
M  V30 7947 C 740.467 -5.33694 0.025993 0
M  V30 7948 O 740.69 -5.57853 -1.18978 0
M  V30 7949 O 739.624 -5.97724 0.70782 0
M  V30 7950 H 743.45 -2.72952 1.33156 0
M  V30 7951 H 741.035 -1.31263 0.713468 0
M  V30 7952 H 742.917 -4.16209 -0.659423 0
M  V30 7953 H 741.592 -3.04721 -1.09209 0
M  V30 7954 H 740.499 -3.55359 1.16923 0
M  V30 7955 H 741.832 -4.68154 1.51963 0
M  V30 7956 N 743.484 -0.715051 -1.40445 0
M  V30 7957 C 744.432 -0.0509974 -2.32544 0
M  V30 7958 C 745.426 0.747602 -1.52011 0
M  V30 7959 O 746.632 0.651031 -1.67814 0
M  V30 7960 H 743.007 0.00231113 -0.751996 0
M  V30 7961 H 744.978 -0.84449 -2.86201 0
M  V30 7962 C 743.727 0.857101 -3.3697 0
M  V30 7963 H 743.05 0.252 -3.99005 0
M  V30 7964 H 744.49 1.28971 -4.03909 0
M  V30 7965 C 742.949 1.98231 -2.72408 0
M  V30 7966 O 743.479 3.07309 -2.58697 0
M  V30 7967 N 741.685 1.76577 -2.308 0
M  V30 7968 H 741.232 0.878641 -2.42152 0
M  V30 7969 H 741.19 2.52043 -1.87941 0
M  V30 7970 N 744.962 1.50701 -0.461195 0
M  V30 7971 C 745.892 2.31182 0.328184 0
M  V30 7972 C 746.873 1.37644 0.999408 0
M  V30 7973 O 748.058 1.66565 0.99848 0
M  V30 7974 C 745.188 3.17113 1.41621 0
M  V30 7975 C 744.142 4.19124 0.867148 0
M  V30 7976 C 743.468 4.93728 2.05272 0
M  V30 7977 C 744.768 5.22174 -0.114808 0
M  V30 7978 H 746.462 2.97423 -0.343501 0
M  V30 7979 H 744.008 1.43033 -0.166641 0
M  V30 7980 H 745.961 3.72208 1.97584 0
M  V30 7981 H 744.685 2.48739 2.11652 0
M  V30 7982 H 743.344 3.65116 0.329557 0
M  V30 7983 H 742.992 4.21835 2.73978 0
M  V30 7984 H 742.692 5.62724 1.69161 0
M  V30 7985 H 744.216 5.51654 2.61744 0
M  V30 7986 H 745.63 5.72198 0.355316 0
M  V30 7987 H 744.027 5.98833 -0.389689 0
M  V30 7988 H 745.097 4.7353 -1.04391 0
M  V30 7989 N 746.441 0.193421 1.56409 0
M  V30 7990 C 747.852 -0.319471 1.83946 0
M  V30 7991 C 748.203 -1.61505 1.11403 0
M  V30 7992 O 747.328 -2.13139 0.374289 0
M  V30 7993 C 747.923 -0.586411 3.33686 0
M  V30 7994 C 746.482 -1.04368 3.61641 0
M  V30 7995 C 745.629 -0.0913834 2.77149 0
M  V30 7996 H 748.58 0.417242 1.53117 0
M  V30 7997 H 748.601 -1.43591 3.52366 0
M  V30 7998 H 748.113 0.356701 3.86457 0
M  V30 7999 H 746.214 -2.00113 3.14302 0
M  V30 8000 H 746.327 -0.937549 4.69837 0
M  V30 8001 H 744.691 -0.592954 2.47702 0
M  V30 8002 H 745.474 0.846142 3.32709 0
M  V30 8003 N 747.919 -1.57396 -0.0801906 0
M  V30 8004 C 749.33 -1.75642 -0.633002 0
M  V30 8005 C 749.681 -0.817708 -1.78348 0
M  V30 8006 O 748.806 0.000233743 -2.164 0
M  V30 8007 C 749.401 -3.18502 -1.15507 0
M  V30 8008 C 747.96 -3.38121 -1.65381 0
M  V30 8009 C 747.107 -2.71386 -0.569661 0
M  V30 8010 H 750.058 -1.58027 0.145949 0
M  V30 8011 H 750.079 -3.22198 -2.02408 0
M  V30 8012 H 749.591 -3.86799 -0.317515 0
M  V30 8013 H 747.692 -2.74926 -2.51488 0
M  V30 8014 H 747.805 -4.46521 -1.73654 0
M  V30 8015 H 746.169 -2.33702 -1.0127 0
M  V30 8016 H 746.952 -3.42332 0.257561 0
M  V30 8017 N 749.397 0.351382 -1.53633 0
M  V30 8018 C 750.344 1.43115 -1.81071 0
M  V30 8019 C 751.314 1.52601 -0.655913 0
M  V30 8020 O 752.499 1.68264 -0.89955 0
M  V30 8021 C 749.639 2.79874 -2.01903 0
M  V30 8022 C 748.752 2.79242 -3.29618 0
M  V30 8023 C 747.887 4.07667 -3.40559 0
M  V30 8024 C 746.926 4.01233 -4.62254 0
M  V30 8025 N 746.063 5.21334 -4.70271 0
M  V30 8026 H 750.903 1.19017 -2.73201 0
M  V30 8027 H 748.44 0.576691 -1.35324 0
M  V30 8028 H 750.398 3.5934 -2.11969 0
M  V30 8029 H 749.028 3.0234 -1.13094 0
M  V30 8030 H 748.08 1.91927 -3.28433 0
M  V30 8031 H 749.392 2.70363 -4.19172 0
M  V30 8032 H 748.546 4.95555 -3.50015 0
M  V30 8033 H 747.285 4.19317 -2.49047 0
M  V30 8034 H 746.29 3.11732 -4.52884 0
M  V30 8035 H 747.515 3.91173 -5.55122 0
M  V30 8036 H 745.461 5.33543 -3.81665 0
M  V30 8037 H 745.378 5.14681 -5.5375 0
M  V30 8038 H 746.646 6.11014 -4.84027 0
M  V30 8039 N 750.875 1.45233 0.611969 0
M  V30 8040 C 751.805 1.5641 1.73373 0
M  V30 8041 C 752.786 0.415896 1.64937 0
M  V30 8042 O 753.971 0.638478 1.83404 0
M  V30 8043 C 751.101 1.52627 3.11965 0
M  V30 8044 C 750.055 2.66119 3.35208 0
M  V30 8045 C 749.381 2.4739 4.74028 0
M  V30 8046 C 750.681 4.08157 3.25891 0
M  V30 8047 H 752.375 2.50307 1.64277 0
M  V30 8048 H 749.921 1.20467 0.788904 0
M  V30 8049 H 751.874 1.59043 3.90235 0
M  V30 8050 H 750.598 0.552564 3.21892 0
M  V30 8051 H 749.257 2.59123 2.59327 0
M  V30 8052 H 748.905 1.48168 4.80682 0
M  V30 8053 H 748.605 3.23494 4.90536 0
M  V30 8054 H 750.129 2.55653 5.54503 0
M  V30 8055 H 751.543 4.1642 3.9404 0
M  V30 8056 H 749.94 4.84617 3.5393 0
M  V30 8057 H 751.01 4.30374 2.23397 0
M  V30 8058 N 752.353 -0.854086 1.3245 0
M  V30 8059 C 753.578 -1.64597 1.26185 0
M  V30 8060 C 754.003 -1.87357 -0.167074 0
M  V30 8061 O 753.361 -1.42675 -1.11864 0
M  V30 8062 C 753.409 -2.98213 2.02734 0
M  V30 8063 O 752.513 -3.88784 1.37554 0
M  V30 8064 H 751.854 -0.50179 0.434859 0
M  V30 8065 H 754.384 -1.06372 1.74775 0
M  V30 8066 H 754.394 -3.4803 2.1293 0
M  V30 8067 H 753.069 -2.80969 3.06642 0
M  V30 8068 H 751.646 -3.4725 1.3591 0
M  V30 8069 N 753.831 -1.1567 -1.07043 0
M  V30 8070 C 755.247 -0.900006 -1.31803 0
M  V30 8071 C 755.447 0.451293 -1.96381 0
M  V30 8072 O 754.503 1.19252 -2.22565 0
M  V30 8073 C 755.816 -2.04334 -2.20609 0
M  V30 8074 C 757.364 -2.07823 -2.34048 0
M  V30 8075 C 757.839 -3.21488 -3.26204 0
M  V30 8076 N 759.33 -3.21156 -3.33786 0
M  V30 8077 C 760.065 -4.05746 -4.05163 0
M  V30 8078 N 759.561 -5.00407 -4.79129 0
M  V30 8079 N 761.354 -3.93759 -4.01136 0
M  V30 8080 H 753.505 -2.02681 -0.635146 0
M  V30 8081 H 755.768 -0.883956 -0.342528 0
M  V30 8082 H 755.474 -3.01895 -1.80423 0
M  V30 8083 H 755.348 -1.97838 -3.21154 0
M  V30 8084 H 757.735 -1.1086 -2.73485 0
M  V30 8085 H 757.816 -2.18386 -1.33197 0
M  V30 8086 H 757.46 -4.18706 -2.87485 0
M  V30 8087 H 757.39 -3.08162 -4.27017 0
M  V30 8088 H 759.881 -2.52606 -2.81067 0
M  V30 8089 H 760.194 -5.61387 -5.31097 0
M  V30 8090 H 758.539 -5.04393 -4.78135 0
M  V30 8091 H 761.73 -3.19115 -3.42466 0
M  V30 8092 H 761.903 -4.59906 -4.56498 0
M  V30 8093 N 755.309 1.25446 -0.953992 0
M  V30 8094 C 756.239 2.28264 -0.491717 0
M  V30 8095 C 757.22 1.63717 0.461617 0
M  V30 8096 O 758.405 1.90821 0.36071 0
M  V30 8097 C 755.535 3.46525 0.231915 0
M  V30 8098 C 754.489 4.23247 -0.636098 0
M  V30 8099 C 753.815 5.34254 0.218238 0
M  V30 8100 C 755.115 4.85971 -1.91389 0
M  V30 8101 H 756.809 2.67183 -1.35106 0
M  V30 8102 H 754.355 1.2844 -0.651095 0
M  V30 8103 H 756.308 4.17576 0.566439 0
M  V30 8104 H 755.032 3.06594 1.12551 0
M  V30 8105 H 753.691 3.53978 -0.953696 0
M  V30 8106 H 753.339 4.90564 1.11156 0
M  V30 8107 H 753.039 5.86501 -0.359232 0
M  V30 8108 H 754.563 6.08138 0.547743 0
M  V30 8109 H 755.977 5.49168 -1.64581 0
M  V30 8110 H 754.374 5.48391 -2.43696 0
M  V30 8111 H 755.444 4.08192 -2.61738 0
M  V30 8112 N 756.787 0.722489 1.40064 0
M  V30 8113 C 757.734 0.0743738 2.3068 0
M  V30 8114 C 758.704 -0.743004 1.48555 0
M  V30 8115 O 759.889 -0.705536 1.77276 0
M  V30 8116 C 757.029 -0.836292 3.34814 0
M  V30 8117 C 756.142 -0.00764663 4.31999 0
M  V30 8118 C 755.277 -0.918428 5.232 0
M  V30 8119 C 754.316 -0.0842838 6.12042 0
M  V30 8120 N 753.453 -0.950316 6.95639 0
M  V30 8121 H 758.293 0.852794 2.85537 0
M  V30 8122 H 755.83 0.432222 1.40607 0
M  V30 8123 H 757.788 -1.3786 3.93765 0
M  V30 8124 H 756.418 -1.58082 2.81443 0
M  V30 8125 H 755.47 0.651928 3.74772 0
M  V30 8126 H 756.782 0.63786 4.94705 0
M  V30 8127 H 755.936 -1.52902 5.87116 0
M  V30 8128 H 754.675 -1.59774 4.60786 0
M  V30 8129 H 753.68 0.5392 5.4715 0
M  V30 8130 H 754.905 0.591628 6.76518 0
M  V30 8131 H 752.851 -1.61515 6.35806 0
M  V30 8132 H 752.768 -0.361004 7.55138 0
M  V30 8133 H 754.036 -1.54687 7.63997 0
M  V30 8134 N 758.265 -1.50454 0.469181 0
M  V30 8135 C 759.198 -2.25149 -0.371928 0
M  V30 8136 C 760.176 -1.28382 -0.997845 0
M  V30 8137 O 761.36 -1.57599 -1.03415 0
M  V30 8138 C 758.487 -3.02629 -1.52097 0
M  V30 8139 C 757.533 -4.14305 -1.01262 0
M  V30 8140 S 758.366 -5.35453 0.0711459 0
M  V30 8141 C 759.522 -6.1648 -1.08181 0
M  V30 8142 H 759.755 -2.96142 0.262134 0
M  V30 8143 H 757.288 -1.52296 0.254042 0
M  V30 8144 H 759.246 -3.47861 -2.17952 0
M  V30 8145 H 757.907 -2.31165 -2.12654 0
M  V30 8146 H 757.1 -4.67913 -1.87278 0
M  V30 8147 H 756.702 -3.71499 -0.431804 0
M  V30 8148 H 758.994 -6.47497 -1.99382 0
M  V30 8149 H 759.937 -7.05679 -0.585028 0
M  V30 8150 H 760.345 -5.48492 -1.33478 0
M  V30 8151 N 759.743 -0.201713 -1.56304 0
M  V30 8152 C 760.691 0.733133 -2.20744 0
M  V30 8153 C 761.685 1.2148 -1.18064 0
M  V30 8154 O 762.891 1.17692 -1.36193 0
M  V30 8155 H 759.266 0.254789 -0.707521 0
M  V30 8156 H 761.237 0.165996 -2.97938 0
M  V30 8157 C 759.986 1.93925 -2.88597 0
M  V30 8158 H 759.309 1.5777 -3.67353 0
M  V30 8159 H 760.749 2.57158 -3.37114 0
M  V30 8160 C 759.208 2.78219 -1.89989 0
M  V30 8161 O 759.738 3.76353 -1.40432 0
M  V30 8162 N 757.944 2.43847 -1.58072 0
M  V30 8163 H 757.491 1.64103 -1.98565 0
M  V30 8164 H 757.449 3.0053 -0.923524 0
M  V30 8165 N 761.222 1.57436 0.0718424 0
M  V30 8166 C 762.471 1.86431 0.769826 0
M  V30 8167 C 762.784 0.794355 1.78744 0
M  V30 8168 O 763.99 0.972148 2.53499 0
M  V30 8169 C 762.446 3.307 1.42006 0
M  V30 8170 C 762.054 4.45824 0.441017 0
M  V30 8171 C 763.798 3.68894 2.10041 0
M  V30 8172 C 761.705 5.81134 1.09717 0
M  V30 8173 H 760.635 0.695474 0.291259 0
M  V30 8174 H 763.286 1.83485 0.0231224 0
M  V30 8175 H 761.668 3.28257 2.21502 0
M  V30 8176 H 762.842 4.59659 -0.32413 0
M  V30 8177 H 761.157 4.16181 -0.134886 0
M  V30 8178 H 763.754 4.67281 2.59908 0
M  V30 8179 H 764.097 2.98692 2.89981 0
M  V30 8180 H 764.63 3.73326 1.37376 0
M  V30 8181 H 761.369 6.54628 0.338095 0
M  V30 8182 H 760.889 5.711 1.83317 0
M  V30 8183 H 762.568 6.26468 1.617 0
M  V30 8184 N 762.7 -0.34323 1.53817 0
M  V30 8185 C 763.663 -1.40444 1.8113 0
M  V30 8186 C 764.663 -1.45604 0.682366 0
M  V30 8187 O 765.853 -1.45974 0.950649 0
M  V30 8188 C 762.985 -2.79369 1.95361 0
M  V30 8189 H 764.178 -1.17489 2.75928 0
M  V30 8190 H 761.731 -0.577636 1.45234 0
M  V30 8191 H 762.466 -3.07607 1.02707 0
M  V30 8192 H 762.251 -2.7702 2.77493 0
M  V30 8193 H 763.741 -3.56178 2.18008 0
M  V30 8194 N 764.178 -1.45556 -0.604258 0
M  V30 8195 C 765.403 -1.53509 -1.39462 0
M  V30 8196 C 765.828 -0.169638 -1.87333 0
M  V30 8197 O 765.186 0.846346 -1.60333 0
M  V30 8198 C 765.234 -2.52654 -2.5729 0
M  V30 8199 O 764.338 -2.04666 -3.5803 0
M  V30 8200 H 763.679 -0.517355 -0.416221 0
M  V30 8201 H 766.209 -1.90939 -0.735072 0
M  V30 8202 H 766.219 -2.71568 -3.04491 0
M  V30 8203 H 764.894 -3.51823 -2.21797 0
M  V30 8204 H 763.471 -1.95643 -3.17456 0
M  V30 8205 N 765.656 0.84705 -1.32902 0
M  V30 8206 C 767.067 1.41785 -1.21466 0
M  V30 8207 C 767.418 1.95464 0.169767 0
M  V30 8208 O 766.543 1.88157 1.06892 0
M  V30 8209 C 767.138 2.57734 -2.19906 0
M  V30 8210 C 765.697 3.10791 -2.12334 0
M  V30 8211 C 764.844 1.83562 -2.07847 0
M  V30 8212 H 767.795 0.653532 -1.44619 0
M  V30 8213 H 767.816 3.35123 -1.80202 0
M  V30 8214 H 767.328 2.18635 -3.20656 0
M  V30 8215 H 765.429 3.54455 -1.14858 0
M  V30 8216 H 765.542 3.71519 -3.02506 0
M  V30 8217 H 763.906 2.03475 -1.53199 0
M  V30 8218 H 764.689 1.4667 -3.10392 0
M  V30 8219 N 767.134 1.16236 1.06428 0
M  V30 8220 C 768.382 0.941171 1.78847 0
M  V30 8221 C 768.703 -0.53248 1.87589 0
M  V30 8222 O 767.973 -1.38686 1.38358 0
M  V30 8223 H 766.553 0.345228 0.66244 0
M  V30 8224 H 769.215 1.46479 1.28569 0
M  V30 8225 H 768.311 1.35871 2.80972 0
M  V30 8226 N 768.612 -1.24939 0.960631 0
M  V30 8227 C 769.84 -1.96881 0.636045 0
M  V30 8228 C 770.255 -1.71334 -0.793093 0
M  V30 8229 O 769.612 -0.992917 -1.53125 0
M  V30 8230 C 769.663 -3.50309 0.892533 0
M  V30 8231 O 769.384 -3.74977 2.26548 0
M  V30 8232 C 770.885 -4.39474 0.581159 0
M  V30 8233 H 768.105 -0.627399 0.237931 0
M  V30 8234 H 770.649 -1.58952 1.28664 0
M  V30 8235 H 768.804 -3.86326 0.288257 0
M  V30 8236 H 769.218 -4.69401 2.34014 0
M  V30 8237 H 770.692 -5.46008 0.811125 0
M  V30 8238 H 771.169 -4.3652 -0.48443 0
M  V30 8239 H 771.775 -4.09032 1.16502 0
M  V30 8240 N 770.09 -0.729906 -1.39679 0
M  V30 8241 C 771.336 -0.27603 -2.00913 0
M  V30 8242 C 771.669 1.13227 -1.57776 0
M  V30 8243 O 770.944 1.7709 -0.804319 0
M  V30 8244 C 771.227 -0.372157 -3.58172 0
M  V30 8245 C 771.08 -1.81986 -4.11341 0
M  V30 8246 C 772.399 0.248378 -4.39399 0
M  V30 8247 H 769.518 -0.101773 -0.729939 0
M  V30 8248 H 772.16 -0.925104 -1.65957 0
M  V30 8249 H 770.31 0.180459 -3.88081 0
M  V30 8250 H 771.982 -2.42896 -3.92172 0
M  V30 8251 H 770.225 -2.34287 -3.65092 0
M  V30 8252 H 770.896 -1.83842 -5.20486 0
M  V30 8253 H 773.372 -0.222645 -4.15504 0
M  V30 8254 H 772.248 0.150746 -5.48693 0
M  V30 8255 H 772.509 1.33378 -4.21501 0
M  V30 8256 N 771.568 1.50203 -0.477153 0
M  V30 8257 C 772.518 2.25561 0.332625 0
M  V30 8258 C 773.502 1.29401 0.956249 0
M  V30 8259 O 774.694 1.54267 0.867795 0
M  V30 8260 C 771.823 3.12984 1.41052 0
M  V30 8261 C 770.909 4.16595 0.79433 0
M  V30 8262 N 771.3 5.05722 -0.0889633 0
M  V30 8263 C 769.598 4.33279 1.0576 0
M  V30 8264 C 770.299 5.80039 -0.439286 0
M  V30 8265 N 769.275 5.43278 0.187018 0
M  V30 8266 H 773.077 2.91836 -0.347718 0
M  V30 8267 H 770.591 1.59759 -0.291686 0
M  V30 8268 H 772.588 3.65582 2.00388 0
M  V30 8269 H 771.248 2.48258 2.09279 0
M  V30 8270 H 772.259 5.15869 -0.458205 0
M  V30 8271 H 768.936 3.79769 1.7344 0
M  V30 8272 H 770.326 6.61802 -1.1605 0
M  V30 8273 N 773.046 0.209999 1.56195 0
M  V30 8274 C 773.993 -0.704854 2.19774 0
M  V30 8275 C 774.963 -1.19886 1.14964 0
M  V30 8276 O 776.148 -1.26005 1.43274 0
M  V30 8277 C 773.288 -1.91241 2.87265 0
M  V30 8278 C 772.401 -1.45838 4.06639 0
M  V30 8279 C 771.536 -2.6226 4.61945 0
M  V30 8280 C 770.575 -2.13537 5.73645 0
M  V30 8281 N 769.712 -3.2319 6.23292 0
M  V30 8282 H 774.552 -0.155944 2.97592 0
M  V30 8283 H 772.089 -0.0652235 1.46955 0
M  V30 8284 H 774.047 -2.62123 3.24573 0
M  V30 8285 H 772.677 -2.43439 2.11985 0
M  V30 8286 H 771.729 -0.644897 3.74894 0
M  V30 8287 H 773.041 -1.06103 4.87384 0
M  V30 8288 H 772.195 -3.41243 5.01636 0
M  V30 8289 H 770.934 -3.05278 3.80338 0
M  V30 8290 H 769.939 -1.33013 5.33468 0
M  V30 8291 H 771.164 -1.71533 6.57079 0
M  V30 8292 H 769.11 -3.65711 5.44602 0
M  V30 8293 H 769.027 -2.8767 6.99129 0
M  V30 8294 H 770.295 -4.02342 6.67639 0
M  V30 8295 N 774.524 -1.57472 -0.0634922 0
M  V30 8296 C 775.94 -1.54016 -0.418466 0
M  V30 8297 C 776.14 -0.931376 -1.78683 0
M  V30 8298 O 775.196 -0.537465 -2.46714 0
M  V30 8299 C 776.509 -2.98634 -0.351906 0
M  V30 8300 C 778.057 -3.10012 -0.431494 0
M  V30 8301 C 778.532 -4.56296 -0.394754 0
M  V30 8302 N 780.023 -4.60964 -0.454583 0
M  V30 8303 C 780.758 -5.71643 -0.448501 0
M  V30 8304 N 780.254 -6.91663 -0.396742 0
M  V30 8305 N 782.047 -5.5991 -0.495677 0
M  V30 8306 H 774.198 -1.95409 0.832408 0
M  V30 8307 H 776.461 -0.894769 0.313197 0
M  V30 8308 H 776.167 -3.46766 0.587048 0
M  V30 8309 H 776.041 -3.58955 -1.15893 0
M  V30 8310 H 778.428 -2.61848 -1.36087 0
M  V30 8311 H 778.509 -2.52585 0.404258 0
M  V30 8312 H 778.153 -5.05119 0.530811 0
M  V30 8313 H 778.083 -5.11594 -1.24815 0
M  V30 8314 H 780.574 -3.74598 -0.498496 0
M  V30 8315 H 780.887 -7.71783 -0.396256 0
M  V30 8316 H 779.232 -6.9405 -0.363304 0
M  V30 8317 H 782.423 -4.65046 -0.533864 0
M  V30 8318 H 782.596 -6.46164 -0.487469 0
M  V30 8319 N 776.003 0.335068 -1.53997 0
M  V30 8320 C 777.233 1.0926 -1.75345 0
M  V30 8321 C 777.641 1.82568 -0.496545 0
M  V30 8322 O 776.984 1.75525 0.541897 0
M  V30 8323 C 777.046 2.14473 -2.88516 0
M  V30 8324 C 776.71 1.60665 -4.27827 0
M  V30 8325 C 777.707 1.05448 -5.09094 0
M  V30 8326 C 775.392 1.65255 -4.74337 0
M  V30 8327 C 777.386 0.555372 -6.34976 0
M  V30 8328 C 775.073 1.14956 -6.0019 0
M  V30 8329 C 776.071 0.601907 -6.80343 0
M  V30 8330 O 775.759 0.106445 -8.0383 0
M  V30 8331 H 775.491 0.331329 -0.589234 0
M  V30 8332 H 778.045 0.39042 -2.01655 0
M  V30 8333 H 776.275 2.88274 -2.5775 0
M  V30 8334 H 777.964 2.75857 -2.97755 0
M  V30 8335 H 778.73 1.01218 -4.74321 0
M  V30 8336 H 774.609 2.06822 -4.12002 0
M  V30 8337 H 778.153 0.127245 -6.97484 0
M  V30 8338 H 774.05 1.18891 -6.34457 0
M  V30 8339 H 774.818 0.222944 -8.18196 0
M  V30 8340 N 777.481 1.45874 0.596531 0
M  V30 8341 C 778.431 1.5181 1.70111 0
M  V30 8342 C 779.415 0.380293 1.56341 0
M  V30 8343 O 780.607 0.627849 1.6549 0
M  V30 8344 C 777.736 1.49822 3.08883 0
M  V30 8345 C 776.822 2.68845 3.27998 0
M  V30 8346 N 777.213 3.93873 3.17329 0
M  V30 8347 C 775.511 2.64777 3.589 0
M  V30 8348 C 776.212 4.73371 3.38076 0
M  V30 8349 N 775.188 4.0501 3.62585 0
M  V30 8350 H 778.99 2.46289 1.60372 0
M  V30 8351 H 776.504 1.41321 0.800138 0
M  V30 8352 H 778.501 1.5216 3.8814 0
M  V30 8353 H 777.161 0.564086 3.19763 0
M  V30 8354 H 778.172 4.25329 2.95492 0
M  V30 8355 H 774.849 1.80323 3.7655 0
M  V30 8356 H 776.239 5.82357 3.35127 0
M  V30 8357 N 778.959 -0.83999 1.33349 0
M  V30 8358 C 780.375 -1.13049 1.12659 0
M  V30 8359 C 780.575 -2.01328 -0.0832613 0
M  V30 8360 O 779.631 -2.40669 -0.763856 0
M  V30 8361 C 780.944 -1.79366 2.41347 0
M  V30 8362 C 782.492 -1.91937 2.47243 0
M  V30 8363 C 782.967 -2.6167 3.75889 0
M  V30 8364 N 784.458 -2.69184 3.76954 0
M  V30 8365 C 785.193 -3.23827 4.73206 0
M  V30 8366 N 784.689 -3.79166 5.79832 0
M  V30 8367 N 786.482 -3.22068 4.60683 0
M  V30 8368 H 778.633 -0.252432 2.10895 0
M  V30 8369 H 780.896 -0.174501 0.931801 0
M  V30 8370 H 780.602 -1.2196 3.29877 0
M  V30 8371 H 780.476 -2.79396 2.53412 0
M  V30 8372 H 782.863 -2.48498 1.59163 0
M  V30 8373 H 782.944 -0.908604 2.39119 0
M  V30 8374 H 782.588 -2.05769 4.64351 0
M  V30 8375 H 782.518 -3.63217 3.81289 0
M  V30 8376 H 785.009 -2.2994 2.99893 0
M  V30 8377 H 785.322 -4.19061 6.49313 0
M  V30 8378 H 783.667 -3.77457 5.83568 0
M  V30 8379 H 786.858 -2.78092 3.7654 0
M  V30 8380 H 787.031 -3.64351 5.35866 0
M  V30 8381 N 780.437 -1.16799 -1.0581 0
M  V30 8382 C 781.853 -0.913935 -1.30841 0
M  V30 8383 C 782.053 0.430439 -1.96849 0
M  V30 8384 O 781.109 1.16885 -2.23817 0
M  V30 8385 C 782.422 -2.06662 -2.18429 0
M  V30 8386 C 783.97 -2.10294 -2.31831 0
M  V30 8387 C 784.445 -3.2493 -3.22776 0
M  V30 8388 N 785.936 -3.24678 -3.30361 0
M  V30 8389 C 786.671 -4.10021 -4.00837 0
M  V30 8390 N 786.167 -5.05461 -4.73795 0
M  V30 8391 N 787.96 -3.97991 -3.96937 0
M  V30 8392 H 780.111 -2.03343 -0.613613 0
M  V30 8393 H 782.374 -0.88754 -0.333133 0
M  V30 8394 H 782.08 -3.03791 -1.77211 0
M  V30 8395 H 781.954 -2.01233 -3.19038 0
M  V30 8396 H 784.341 -1.13754 -2.72294 0
M  V30 8397 H 784.422 -2.19786 -1.30873 0
M  V30 8398 H 784.066 -4.21731 -2.83028 0
M  V30 8399 H 783.996 -3.12674 -4.23725 0
M  V30 8400 H 786.487 -2.55573 -2.78372 0
M  V30 8401 H 786.8 -5.66989 -5.25113 0
M  V30 8402 H 785.145 -5.09436 -4.72758 0
M  V30 8403 H 788.336 -3.2273 -3.39062 0
M  V30 8404 H 788.509 -4.64722 -4.51594 0
M  V30 8405 N 781.915 1.24427 -0.967243 0
M  V30 8406 C 782.862 2.25398 -0.496419 0
M  V30 8407 C 783.832 1.59667 0.457781 0
M  V30 8408 O 785.017 1.87213 0.368246 0
M  V30 8409 C 782.157 3.44474 0.207693 0
M  V30 8410 C 781.27 4.24804 -0.785221 0
M  V30 8411 C 780.405 5.31169 -0.0572631 0
M  V30 8412 C 779.444 6.03195 -1.04027 0
M  V30 8413 N 778.581 7.01265 -0.34235 0
M  V30 8414 H 783.421 2.65039 -1.36229 0
M  V30 8415 H 780.958 1.30288 -0.682902 0
M  V30 8416 H 782.916 4.12376 0.632612 0
M  V30 8417 H 781.546 3.05672 1.03752 0
M  V30 8418 H 780.598 3.56445 -1.32858 0
M  V30 8419 H 781.91 4.74599 -1.53483 0
M  V30 8420 H 781.064 6.05205 0.425674 0
M  V30 8421 H 779.803 4.8228 0.725047 0
M  V30 8422 H 778.808 5.27964 -1.53409 0
M  V30 8423 H 780.033 6.54173 -1.82302 0
M  V30 8424 H 777.979 6.54648 0.420993 0
M  V30 8425 H 777.896 7.48939 -1.03084 0
M  V30 8426 H 779.164 7.7941 0.118634 0
M  V30 8427 N 783.393 0.737304 1.3929 0
M  V30 8428 C 784.618 0.295237 2.05288 0
M  V30 8429 C 785.043 -1.06235 1.55228 0
M  V30 8430 O 784.401 -1.67365 0.697043 0
M  V30 8431 C 784.449 0.309146 3.59272 0
M  V30 8432 O 783.553 -0.702437 4.06374 0
M  V30 8433 H 782.894 0.133762 0.650387 0
M  V30 8434 H 785.424 1.00387 1.78279 0
M  V30 8435 H 785.434 0.154336 4.07708 0
M  V30 8436 H 784.109 1.29974 3.95069 0
M  V30 8437 H 782.686 -0.513574 3.69346 0
M  V30 8438 N 784.871 -1.49948 0.485112 0
M  V30 8439 C 785.803 -2.26691 -0.338222 0
M  V30 8440 C 786.816 -1.32584 -0.944742 0
M  V30 8441 O 788.005 -1.57989 -0.830772 0
M  V30 8442 C 785.105 -3.04405 -1.48966 0
M  V30 8443 C 784.278 -4.25971 -0.993371 0
M  V30 8444 C 783.337 -4.85861 -2.02052 0
M  V30 8445 O 782.363 -5.46382 -1.59547 0
M  V30 8446 N 783.565 -4.74101 -3.34975 0
M  V30 8447 H 786.33 -2.97989 0.319748 0
M  V30 8448 H 783.891 -1.58772 0.316714 0
M  V30 8449 H 785.883 -3.41348 -2.17403 0
M  V30 8450 H 784.453 -2.35815 -2.05207 0
M  V30 8451 H 783.673 -3.93971 -0.134424 0
M  V30 8452 H 784.961 -5.0476 -0.639934 0
M  V30 8453 H 784.359 -4.26002 -3.72208 0
M  V30 8454 H 782.916 -5.15274 -3.9917 0
M  V30 8455 N 786.349 -0.21828 -1.56081 0
M  V30 8456 C 787.597 0.413488 -1.97825 0
M  V30 8457 C 787.918 1.60527 -1.10707 0
M  V30 8458 O 787.188 1.9504 -0.183378 0
M  V30 8459 H 785.768 0.155757 -0.730581 0
M  V30 8460 H 788.43 -0.310413 -1.92412 0
M  V30 8461 H 787.526 0.742024 -3.03151 0
M  V30 8462 N 787.827 1.57504 0.0551401 0
M  V30 8463 C 789.243 1.54236 0.410292 0
M  V30 8464 C 789.443 0.940839 1.78187 0
M  V30 8465 O 788.499 0.550541 2.46425 0
M  V30 8466 C 789.812 2.98816 0.336064 0
M  V30 8467 C 791.36 3.10236 0.415047 0
M  V30 8468 C 791.835 4.56499 0.37055 0
M  V30 8469 N 793.326 4.61199 0.43013 0
M  V30 8470 C 794.061 5.71873 0.418179 0
M  V30 8471 N 793.557 6.91864 0.360056 0
M  V30 8472 N 795.35 5.60165 0.465977 0
M  V30 8473 H 787.501 1.94965 -0.842759 0
M  V30 8474 H 789.764 0.893096 -0.317937 0
M  V30 8475 H 789.47 3.4645 -0.605429 0
M  V30 8476 H 789.344 3.59564 1.13988 0
M  V30 8477 H 791.731 2.62566 1.34697 0
M  V30 8478 H 791.812 2.52367 -0.417648 0
M  V30 8479 H 791.456 5.0483 -0.557592 0
M  V30 8480 H 791.386 5.12249 1.221 0
M  V30 8481 H 793.877 3.74857 0.478623 0
M  V30 8482 H 794.19 7.71983 0.35532 0
M  V30 8483 H 792.535 6.94233 0.326492 0
M  V30 8484 H 795.726 4.65322 0.509194 0
M  V30 8485 H 795.899 6.46413 0.453194 0
M  V30 8486 N 789.305 -0.326896 1.54172 0
M  V30 8487 C 790.553 -1.06313 1.71878 0
M  V30 8488 C 790.874 -1.88652 0.493498 0
M  V30 8489 O 790.144 -1.89608 -0.492522 0
M  V30 8490 H 788.724 -0.39549 0.633716 0
M  V30 8491 H 791.386 -0.364139 1.91468 0
M  V30 8492 H 790.482 -1.73105 2.59694 0
M  V30 8493 N 790.784 -1.46188 -0.588786 0
M  V30 8494 C 792.009 -1.5498 -1.37826 0
M  V30 8495 C 792.434 -0.189498 -1.87143 0
M  V30 8496 O 791.792 0.829293 -1.61222 0
M  V30 8497 C 791.84 -2.55369 -2.54596 0
M  V30 8498 O 790.944 -2.08452 -3.55839 0
M  V30 8499 H 790.285 -0.521741 -0.41071 0
M  V30 8500 H 792.815 -1.91708 -0.714779 0
M  V30 8501 H 792.825 -2.74782 -3.01594 0
M  V30 8502 H 791.5 -3.54155 -2.18052 0
M  V30 8503 H 790.077 -1.98999 -3.15363 0
M  V30 8504 N 792.262 0.832906 -1.33792 0
M  V30 8505 C 793.487 1.62568 -1.28788 0
M  V30 8506 C 793.912 1.87599 0.137246 0
M  V30 8507 O 793.27 1.44436 1.0958 0
M  V30 8508 C 793.318 2.9495 -2.07453 0
M  V30 8509 O 792.422 3.86546 -1.43722 0
M  V30 8510 H 791.763 0.494809 -0.442787 0
M  V30 8511 H 794.293 1.03578 -1.76445 0
M  V30 8512 H 794.303 3.44599 -2.1844 0
M  V30 8513 H 792.978 2.76055 -3.11073 0
M  V30 8514 H 791.555 3.45044 -1.41417 0
M  V30 8515 N 793.74 1.17359 1.05189 0
M  V30 8516 C 794.98 0.972812 1.79766 0
M  V30 8517 C 795.344 -0.489832 1.85647 0
M  V30 8518 O 796.545 -0.809682 2.56315 0
M  V30 8519 C 794.816 1.59636 3.19767 0
M  V30 8520 S 796.375 1.54178 4.10822 0
M  V30 8521 H 793.193 0.34959 0.619119 0
M  V30 8522 H 795.795 1.49304 1.26209 0
M  V30 8523 H 794.499 2.65336 3.13089 0
M  V30 8524 H 794.03 1.07594 3.78401 0
M  V30 8525 H 796.045 0.549785 4.93145 0
M  V30 8526 N 795.218 -1.23913 0.973828 0
M  V30 8527 C 796.443 -1.96735 0.656511 0
M  V30 8528 C 796.868 -1.71682 -0.768571 0
M  V30 8529 O 796.226 -0.984267 -1.52256 0
M  V30 8530 C 796.274 -3.48004 0.944735 0
M  V30 8531 O 795.378 -4.12387 0.0333357 0
M  V30 8532 H 794.719 -0.616119 0.247575 0
M  V30 8533 H 797.249 -1.57525 1.30564 0
M  V30 8534 H 797.259 -3.98424 0.87876 0
M  V30 8535 H 795.934 -3.65567 1.98328 0
M  V30 8536 H 794.511 -3.72585 0.153157 0
M  V30 8537 N 796.696 -0.74468 -1.38897 0
M  V30 8538 C 797.921 -0.306119 -2.05128 0
M  V30 8539 C 798.346 1.0541 -1.55789 0
M  V30 8540 O 797.704 1.66993 -0.705909 0
M  V30 8541 C 797.752 -0.328195 -3.59103 0
M  V30 8542 O 796.856 0.680876 -4.06741 0
M  V30 8543 H 796.197 -0.137209 -0.649669 0
M  V30 8544 H 798.727 -1.01331 -1.77745 0
M  V30 8545 H 798.737 -0.175956 -4.0762 0
M  V30 8546 H 797.412 -1.32067 -3.94374 0
M  V30 8547 H 795.989 0.49398 -3.69614 0
M  V30 8548 N 798.174 1.49689 -0.493057 0
M  V30 8549 C 799.399 2.07331 0.0535114 0
M  V30 8550 C 799.824 1.35196 1.30781 0
M  V30 8551 O 799.182 0.406246 1.7669 0
M  V30 8552 C 799.23 3.59364 0.29825 0
M  V30 8553 O 798.334 3.88819 1.37454 0
M  V30 8554 H 797.675 0.663612 -0.0227018 0
M  V30 8555 H 800.205 1.926 -0.690402 0
M  V30 8556 H 800.215 4.04515 0.532159 0
M  V30 8557 H 798.89 4.1128 -0.618207 0
M  V30 8558 H 797.467 3.55487 1.12621 0
M  V30 8559 N 799.652 0.226554 1.55963 0
M  V30 8560 C 800.562 -0.692725 2.24139 0
M  V30 8561 C 801.578 -1.20971 1.25068 0
M  V30 8562 O 802.754 -1.25027 1.57893 0
M  V30 8563 C 799.819 -1.88183 2.91184 0
M  V30 8564 C 798.88 -1.40633 4.05612 0
M  V30 8565 C 798.113 -2.53875 4.6945 0
M  V30 8566 O 798.336 -3.72129 4.32292 0
M  V30 8567 O 797.27 -2.24792 5.58348 0
M  V30 8568 H 801.096 -0.141921 3.03368 0
M  V30 8569 H 798.681 -0.0041049 1.49399 0
M  V30 8570 H 800.563 -2.57617 3.33484 0
M  V30 8571 H 799.238 -2.42064 2.14911 0
M  V30 8572 H 798.145 -0.67986 3.67871 0
M  V30 8573 H 799.478 -0.913838 4.83642 0
M  V30 8574 N 801.13 -1.57531 -0.0467866 0
M  V30 8575 C 802.358 -1.92696 -0.753371 0
M  V30 8576 C 802.773 -0.824792 -1.69831 0
M  V30 8577 O 802.13 0.200155 -1.81399 0
M  V30 8578 C 802.181 -3.27728 -1.52566 0
M  V30 8579 O 801.902 -4.3371 -0.618674 0
M  V30 8580 C 803.403 -3.77066 -2.33101 0
M  V30 8581 H 800.623 -0.636367 -0.212788 0
M  V30 8582 H 803.167 -2.04498 -0.00959361 0
M  V30 8583 H 801.322 -3.17378 -2.22148 0
M  V30 8584 H 801.736 -5.11548 -1.15839 0
M  V30 8585 H 803.21 -4.74109 -2.82709 0
M  V30 8586 H 803.687 -3.07348 -3.13741 0
M  V30 8587 H 804.293 -3.90442 -1.68628 0
M  V30 8588 N 802.608 0.318715 -1.54344 0
M  V30 8589 C 803.833 1.07987 -1.77069 0
M  V30 8590 C 804.258 1.80766 -0.520117 0
M  V30 8591 O 803.616 1.73424 0.528566 0
M  V30 8592 C 803.664 2.04987 -2.96669 0
M  V30 8593 O 802.768 3.12974 -2.68554 0
M  V30 8594 H 802.109 0.311109 -0.586606 0
M  V30 8595 H 804.639 0.361533 -2.0138 0
M  V30 8596 H 804.649 2.47771 -3.2415 0
M  V30 8597 H 803.324 1.51417 -3.87357 0
M  V30 8598 H 801.901 2.74831 -2.52037 0
M  V30 8599 N 804.086 1.46499 0.581025 0
M  V30 8600 C 805.363 1.42372 1.34125 0
M  V30 8601 C 805.743 0.108073 2.10823 0
M  V30 8602 O 805.091 -0.910366 2.09582 0
M  V30 8603 C 805.301 2.65445 2.26583 0
M  V30 8604 C 806.649 3.11664 2.88359 0
M  V30 8605 O 807.673 2.66006 2.36896 0
M  V30 8606 O 806.532 3.90974 3.81839 0
M  V30 8607 H 803.626 0.566262 0.602724 0
M  V30 8608 H 806.172 1.58667 0.601903 0
M  V30 8609 H 804.944 3.52756 1.69348 0
M  V30 8610 H 804.567 2.51618 3.07854 0
M  V30 8611 N 805.565 -0.825799 1.34232 0
M  V30 8612 C 806.842 -1.56741 1.17011 0
M  V30 8613 C 807.222 -2.09512 -0.258425 0
M  V30 8614 O 806.57 -1.90664 -1.25935 0
M  V30 8615 C 806.78 -2.69104 2.22225 0
M  V30 8616 C 808.128 -3.37947 2.57055 0
M  V30 8617 O 809.152 -2.79358 2.20992 0
M  V30 8618 O 808.011 -4.43743 3.1899 0
M  V30 8619 H 805.105 -0.69163 0.453405 0
M  V30 8620 H 807.651 -0.867422 1.45856 0
M  V30 8621 H 806.423 -2.27844 3.18124 0
M  V30 8622 H 806.046 -3.46756 1.94541 0
M  V30 8623 N 807.043 -1.17915 -1.04565 0
M  V30 8624 C 808.32 -0.881187 -1.74627 0
M  V30 8625 C 808.7 0.617123 -2.01878 0
M  V30 8626 O 808.048 1.57032 -1.65991 0
M  V30 8627 C 808.258 -1.72299 -3.03503 0
M  V30 8628 C 809.606 -1.94688 -3.77335 0
M  V30 8629 O 810.63 -1.6931 -3.13389 0
M  V30 8630 O 809.489 -2.37379 -4.92253 0
M  V30 8631 H 806.583 -0.326864 -0.759664 0
M  V30 8632 H 809.129 -1.28642 -1.10676 0
M  V30 8633 H 807.901 -2.73891 -2.79462 0
M  V30 8634 H 807.524 -1.31593 -3.75192 0
M  V30 8635 N 808.521 1.23394 -0.980386 0
M  V30 8636 C 809.746 1.96384 -0.666935 0
M  V30 8637 C 810.171 1.72087 0.759456 0
M  V30 8638 O 809.529 0.992328 1.51732 0
M  V30 8639 C 809.577 3.47499 -0.963177 0
M  V30 8640 O 808.681 4.12363 -0.0552051 0
M  V30 8641 H 808.022 0.614797 -0.250839 0
M  V30 8642 H 810.552 1.56831 -1.31398 0
M  V30 8643 H 810.562 3.97953 -0.899877 0
M  V30 8644 H 809.237 3.6451 -2.00264 0
M  V30 8645 H 807.814 3.72499 -0.172914 0
M  V30 8646 N 809.999 0.752036 1.385 0
M  V30 8647 C 810.909 0.125318 2.34265 0
M  V30 8648 C 811.925 -0.702437 1.59191 0
M  V30 8649 O 813.101 -0.626951 1.91393 0
M  V30 8650 C 810.166 -0.758486 3.38301 0
M  V30 8651 C 809.227 0.0834636 4.29219 0
M  V30 8652 C 808.46 -0.758252 5.28286 0
M  V30 8653 O 808.683 -1.99632 5.34325 0
M  V30 8654 O 807.617 -0.177878 6.01637 0
M  V30 8655 H 811.443 0.91617 2.89551 0
M  V30 8656 H 809.028 0.512911 1.4032 0
M  V30 8657 H 810.91 -1.26365 4.02007 0
M  V30 8658 H 809.585 -1.52786 2.85374 0
M  V30 8659 H 808.492 0.634545 3.68679 0
M  V30 8660 H 809.825 0.815455 4.85398 0
M  V30 8661 N 811.477 -1.49425 0.500989 0
M  V30 8662 C 812.702 -2.07356 -0.0425154 0
M  V30 8663 C 813.127 -1.35887 -1.30063 0
M  V30 8664 O 812.485 -0.41561 -1.76472 0
M  V30 8665 C 812.533 -3.59518 -0.279188 0
M  V30 8666 O 811.637 -3.89542 -1.3539 0
M  V30 8667 H 810.978 -0.663482 0.0262207 0
M  V30 8668 H 813.508 -1.92231 0.700607 0
M  V30 8669 H 813.518 -4.04791 -0.5107 0
M  V30 8670 H 812.193 -4.10946 0.640009 0
M  V30 8671 H 810.77 -3.56079 -1.10734 0
M  V30 8672 N 812.955 -0.234822 -1.55841 0
M  V30 8673 C 814.371 0.120295 -1.59146 0
M  V30 8674 C 814.571 1.57896 -1.25184 0
M  V30 8675 O 813.627 2.32138 -0.993393 0
M  V30 8676 C 814.94 -0.217984 -2.99909 0
M  V30 8677 C 816.488 -0.161298 -3.12584 0
M  V30 8678 C 816.963 -0.473438 -4.55546 0
M  V30 8679 N 818.454 -0.423494 -4.6126 0
M  V30 8680 C 819.189 -0.638334 -5.69836 0
M  V30 8681 N 818.685 -0.915659 -6.86722 0
M  V30 8682 N 820.478 -0.569864 -5.59204 0
M  V30 8683 H 812.629 -1.18622 -1.76189 0
M  V30 8684 H 814.892 -0.476426 -0.819587 0
M  V30 8685 H 814.598 -1.2309 -3.29457 0
M  V30 8686 H 814.472 0.460707 -3.74376 0
M  V30 8687 H 816.859 0.842274 -2.82825 0
M  V30 8688 H 816.94 -0.873661 -2.40418 0
M  V30 8689 H 816.584 -1.47451 -4.86025 0
M  V30 8690 H 816.514 0.260268 -5.25956 0
M  V30 8691 H 819.005 -0.217383 -3.77274 0
M  V30 8692 H 819.318 -1.06734 -7.65394 0
M  V30 8693 H 817.663 -0.953 -6.88435 0
M  V30 8694 H 820.854 -0.35334 -4.66765 0
M  V30 8695 H 821.027 -0.740698 -6.43753 0
M  V30 8696 N 814.433 1.57553 0.0384317 0
M  V30 8697 C 815.849 1.54663 0.39391 0
M  V30 8698 C 816.049 0.959685 1.77179 0
M  V30 8699 O 815.105 0.576647 2.45827 0
M  V30 8700 C 816.418 2.99156 0.304352 0
M  V30 8701 C 817.966 3.10659 0.382119 0
M  V30 8702 C 818.441 4.56866 0.322111 0
M  V30 8703 N 819.932 4.61629 0.38119 0
M  V30 8704 C 820.667 5.72284 0.357501 0
M  V30 8705 N 820.163 6.92207 0.286654 0
M  V30 8706 N 821.956 5.60628 0.406538 0
M  V30 8707 H 814.107 1.9406 -0.86339 0
M  V30 8708 H 816.37 0.889673 -0.327392 0
M  V30 8709 H 816.076 3.45788 -0.642141 0
M  V30 8710 H 815.95 3.60753 1.10168 0
M  V30 8711 H 818.337 2.6398 1.31904 0
M  V30 8712 H 818.418 2.5191 -0.444391 0
M  V30 8713 H 818.062 5.0421 -0.611104 0
M  V30 8714 H 817.992 5.13515 1.1666 0
M  V30 8715 H 820.483 3.75343 0.438838 0
M  V30 8716 H 820.796 7.72316 0.273421 0
M  V30 8717 H 819.141 6.9454 0.252841 0
M  V30 8718 H 822.332 4.65836 0.459812 0
M  V30 8719 H 822.505 6.46858 0.384608 0
M  V30 8720 N 815.911 -0.310526 1.54511 0
M  V30 8721 C 817.327 -0.655637 1.45511 0
M  V30 8722 C 817.527 -1.91114 0.638564 0
M  V30 8723 O 816.583 -2.52098 0.142497 0
M  V30 8724 C 817.896 -0.817501 2.89374 0
M  V30 8725 C 819.444 -0.914003 2.99358 0
M  V30 8726 C 819.919 -1.10794 4.44397 0
M  V30 8727 N 821.41 -1.17437 4.48066 0
M  V30 8728 C 822.145 -1.34255 5.57461 0
M  V30 8729 N 821.641 -1.48032 6.768 0
M  V30 8730 N 823.434 -1.37067 5.45132 0
M  V30 8731 H 815.585 0.514506 2.06074 0
M  V30 8732 H 817.848 0.168478 0.932909 0
M  V30 8733 H 817.554 0.034003 3.51684 0
M  V30 8734 H 817.428 -1.7094 3.36243 0
M  V30 8735 H 819.815 -1.756 2.37168 0
M  V30 8736 H 819.896 0.00170958 2.558 0
M  V30 8737 H 819.54 -0.270743 5.07178 0
M  V30 8738 H 819.47 -2.03773 4.85576 0
M  V30 8739 H 821.961 -1.08181 3.62084 0
M  V30 8740 H 822.274 -1.60593 7.5593 0
M  V30 8741 H 820.619 -1.45105 6.79683 0
M  V30 8742 H 823.81 -1.25909 4.50849 0
M  V30 8743 H 823.983 -1.49831 6.3044 0
M  V30 8744 N 817.389 -1.46805 -0.573248 0
M  V30 8745 C 818.319 -1.60951 -1.69165 0
M  V30 8746 C 819.3 -0.45948 -1.63777 0
M  V30 8747 O 820.485 -0.68688 -1.81647 0
M  V30 8748 C 817.615 -1.60844 -3.07809 0
M  V30 8749 C 816.569 -2.74913 -3.28035 0
M  V30 8750 C 815.895 -2.59871 -4.67302 0
M  V30 8751 C 817.195 -4.16654 -3.14955 0
M  V30 8752 H 818.889 -2.54574 -1.57582 0
M  V30 8753 H 816.435 -1.22516 -0.756686 0
M  V30 8754 H 818.388 -1.69334 -3.85881 0
M  V30 8755 H 817.112 -0.637714 -3.20314 0
M  V30 8756 H 815.771 -2.65908 -2.52366 0
M  V30 8757 H 815.419 -1.60861 -4.76585 0
M  V30 8758 H 815.119 -3.36386 -4.81786 0
M  V30 8759 H 816.643 -2.70265 -5.4753 0
M  V30 8760 H 818.057 -4.26721 -3.82861 0
M  V30 8761 H 816.454 -4.93831 -3.40956 0
M  V30 8762 H 817.524 -4.36146 -2.11908 0
M  V30 8763 N 818.867 0.818669 -1.34668 0
M  V30 8764 C 820.144 1.56118 -1.17841 0
M  V30 8765 C 820.524 2.09646 0.24731 0
M  V30 8766 O 819.872 1.91329 1.24922 0
M  V30 8767 C 820.082 2.67922 -2.23649 0
M  V30 8768 C 821.43 3.36579 -2.58843 0
M  V30 8769 O 822.454 2.78182 -2.22471 0
M  V30 8770 O 821.313 4.42045 -3.21339 0
M  V30 8771 H 818.407 0.689216 -0.457067 0
M  V30 8772 H 820.953 0.859674 -1.46314 0
M  V30 8773 H 819.725 2.26153 -3.19328 0
M  V30 8774 H 819.348 3.45719 -1.96377 0
M  V30 8775 N 820.346 1.18468 1.03938 0
M  V30 8776 C 821.293 0.912859 2.1198 0
M  V30 8777 C 822.263 -0.14824 1.65437 0
M  V30 8778 O 823.448 -0.008331 1.90798 0
M  V30 8779 C 820.588 0.446114 3.42204 0
M  V30 8780 C 819.701 1.57278 4.02353 0
M  V30 8781 C 818.836 1.05863 5.20544 0
M  V30 8782 C 817.875 2.1599 5.72726 0
M  V30 8783 N 817.012 1.65959 6.82204 0
M  V30 8784 H 821.852 1.83798 2.34569 0
M  V30 8785 H 819.389 0.916504 1.15059 0
M  V30 8786 H 821.347 0.15697 4.16905 0
M  V30 8787 H 819.977 -0.442025 3.19759 0
M  V30 8788 H 819.029 1.97737 3.24968 0
M  V30 8789 H 820.341 2.40289 4.37107 0
M  V30 8790 H 819.495 0.724087 6.02364 0
M  V30 8791 H 818.234 0.198116 4.87297 0
M  V30 8792 H 817.239 2.50287 4.89527 0
M  V30 8793 H 818.464 3.02479 6.08016 0
M  V30 8794 H 816.41 0.82199 6.5083 0
M  V30 8795 H 816.327 2.42567 7.16029 0
M  V30 8796 H 817.595 1.35436 7.67644 0
M  V30 8797 N 821.824 -1.22873 0.986916 0
M  V30 8798 C 823.101 -1.86939 0.575589 0
M  V30 8799 C 823.481 -1.88656 -0.947205 0
M  V30 8800 O 822.829 -1.3728 -1.82665 0
M  V30 8801 C 823.039 -3.28117 1.18914 0
M  V30 8802 C 824.387 -4.04659 1.28593 0
M  V30 8803 O 825.411 -3.3736 1.14308 0
M  V30 8804 O 824.27 -5.25112 1.51391 0
M  V30 8805 H 821.364 -0.803748 0.194724 0
M  V30 8806 H 823.91 -1.30698 1.08241 0
M  V30 8807 H 822.682 -3.21468 2.231 0
M  V30 8808 H 822.305 -3.91956 0.667535 0
M  V30 8809 N 823.302 -0.75937 -1.38099 0
M  V30 8810 C 824.527 -0.327859 -2.04792 0
M  V30 8811 C 824.952 1.03752 -1.56899 0
M  V30 8812 O 824.31 1.66235 -0.723581 0
M  V30 8813 C 824.358 -0.366264 -3.58735 0
M  V30 8814 O 823.462 0.637697 -4.0744 0
M  V30 8815 H 822.803 -0.144092 -0.648177 0
M  V30 8816 H 825.333 -1.03211 -1.7666 0
M  V30 8817 H 825.343 -0.219179 -4.07411 0
M  V30 8818 H 824.018 -1.36243 -3.92951 0
M  V30 8819 H 822.595 0.454749 -3.70117 0
M  V30 8820 N 824.78 1.49157 -0.508906 0
M  V30 8821 C 826.028 2.02073 0.0327335 0
M  V30 8822 C 826.349 1.39012 1.3675 0
M  V30 8823 O 825.619 0.548153 1.88075 0
M  V30 8824 H 824.199 0.746848 0.0150864 0
M  V30 8825 H 826.861 1.83097 -0.667946 0
M  V30 8826 H 825.957 3.11707 0.1566 0
M  V30 8827 N 826.258 0.243083 1.55714 0
M  V30 8828 C 827.505 -0.38272 1.9885 0
M  V30 8829 C 827.833 -1.58225 1.13115 0
M  V30 8830 O 827.088 -1.94861 0.181067 0
M  V30 8831 C 827.387 -0.839621 3.47398 0
M  V30 8832 C 827.053 0.251737 4.50197 0
M  V30 8833 C 825.715 0.551487 4.78029 0
M  V30 8834 C 828.067 0.988728 5.11736 0
M  V30 8835 C 825.395 1.59237 5.64677 0
M  V30 8836 C 827.747 2.0191 5.99512 0
M  V30 8837 C 826.411 2.32554 6.2568 0
M  V30 8838 H 825.681 -0.140047 0.727645 0
M  V30 8839 H 828.328 0.35011 1.88272 0
M  V30 8840 H 826.633 -1.65159 3.55288 0
M  V30 8841 H 828.33 -1.33404 3.78159 0
M  V30 8842 H 824.92 0.00796741 4.28599 0
M  V30 8843 H 829.104 0.7704 4.90284 0
M  V30 8844 H 824.36 1.83517 5.83208 0
M  V30 8845 H 828.534 2.59511 6.46241 0
M  V30 8846 H 826.161 3.13349 6.92616 0
M  V30 8847 N 827.736 -1.57571 -0.0300757 0
M  V30 8848 C 828.964 -1.93485 -0.732891 0
M  V30 8849 C 829.379 -0.842758 -1.68947 0
M  V30 8850 O 828.736 0.180904 -1.81601 0
M  V30 8851 C 828.787 -3.29328 -1.49082 0
M  V30 8852 O 828.508 -4.34341 -0.572639 0
M  V30 8853 C 830.009 -3.79517 -2.29088 0
M  V30 8854 H 827.229 -0.638588 -0.206026 0
M  V30 8855 H 829.773 -2.04496 0.0120966 0
M  V30 8856 H 827.928 -3.19716 -2.1877 0
M  V30 8857 H 828.342 -5.12748 -1.10406 0
M  V30 8858 H 829.816 -4.77081 -2.77665 0
M  V30 8859 H 830.293 -3.10659 -3.10464 0
M  V30 8860 H 830.899 -3.92208 -1.64477 0
M  V30 8861 N 829.214 0.302327 -1.54673 0
M  V30 8862 C 830.444 1.05516 -1.77623 0
M  V30 8863 C 830.852 1.81474 -0.535159 0
M  V30 8864 O 830.195 1.76635 0.504543 0
M  V30 8865 C 830.257 2.08305 -2.93001 0
M  V30 8866 C 829.921 1.51554 -4.31139 0
M  V30 8867 C 830.918 0.946261 -5.11216 0
M  V30 8868 C 828.603 1.55157 -4.77736 0
M  V30 8869 C 830.597 0.420559 -6.36011 0
M  V30 8870 C 828.284 1.022 -6.02494 0
M  V30 8871 C 829.282 0.457461 -6.81466 0
M  V30 8872 O 828.97 -0.064083 -8.03874 0
M  V30 8873 H 828.702 0.318756 -0.59613 0
M  V30 8874 H 831.256 0.347558 -2.02438 0
M  V30 8875 H 829.486 2.82742 -2.63807 0
M  V30 8876 H 831.175 2.69479 -3.03539 0
M  V30 8877 H 831.941 0.911338 -4.76361 0
M  V30 8878 H 827.82 1.98037 -4.16296 0
M  V30 8879 H 831.364 -0.0207298 -6.97597 0
M  V30 8880 H 827.261 1.05406 -6.36836 0
M  V30 8881 H 828.029 0.0493422 -8.18485 0
M  V30 8882 N 830.692 1.47107 0.565454 0
M  V30 8883 C 831.917 1.57153 1.35343 0
M  V30 8884 C 832.342 0.219247 1.86818 0
M  V30 8885 O 831.7 -0.803539 1.62521 0
M  V30 8886 C 831.748 2.59387 2.50501 0
M  V30 8887 O 830.852 2.14086 3.52478 0
M  V30 8888 H 830.193 0.528209 0.402357 0
M  V30 8889 H 832.723 1.92821 0.684189 0
M  V30 8890 H 832.733 2.79546 2.97184 0
M  V30 8891 H 831.408 3.57579 2.12391 0
M  V30 8892 H 829.985 2.03991 3.12157 0
M  V30 8893 N 832.17 -0.811516 1.35101 0
M  V30 8894 C 833.416 -1.57016 1.29296 0
M  V30 8895 C 833.771 -1.91941 -0.13288 0
M  V30 8896 O 833.064 -1.58121 -1.08204 0
M  V30 8897 C 833.258 -2.87121 2.1283 0
M  V30 8898 C 833.087 -2.64908 3.63392 0
M  V30 8899 C 831.857 -2.61055 4.32641 0
M  V30 8900 C 834.055 -2.35628 4.57148 0
M  V30 8901 N 832.037 -2.30508 5.68981 0
M  V30 8902 C 833.408 -2.14876 5.81574 0
M  V30 8903 C 835.463 -2.2145 4.45942 0
M  V30 8904 C 834.166 -1.81381 6.96055 0
M  V30 8905 C 836.192 -1.89352 5.60267 0
M  V30 8906 C 835.554 -1.69432 6.83719 0
M  V30 8907 H 831.653 -0.57649 0.528378 0
M  V30 8908 H 834.237 -0.950338 1.69931 0
M  V30 8909 H 832.408 -3.47007 1.74473 0
M  V30 8910 H 834.14 -3.52629 1.98582 0
M  V30 8911 H 830.895 -2.75531 3.85201 0
M  V30 8912 H 831.319 -2.18042 6.40927 0
M  V30 8913 H 835.961 -2.35551 3.51106 0
M  V30 8914 H 833.679 -1.66018 7.90863 0
M  V30 8915 H 837.265 -1.79098 5.53548 0
M  V30 8916 H 836.145 -1.44957 7.70686 0
M  V30 8917 N 833.648 -1.19017 -1.03309 0
M  V30 8918 C 834.598 -0.89194 -2.0983 0
M  V30 8919 C 835.582 0.14151 -1.60277 0
M  V30 8920 O 836.774 -0.0635946 -1.76886 0
M  V30 8921 C 833.903 -0.427793 -3.40624 0
M  V30 8922 C 832.989 -1.49374 -3.96923 0
M  V30 8923 N 833.38 -2.71213 -4.26939 0
M  V30 8924 C 831.678 -1.35605 -4.24885 0
M  V30 8925 C 832.379 -3.39849 -4.72099 0
M  V30 8926 N 831.355 -2.67239 -4.73375 0
M  V30 8927 H 835.157 -1.81801 -2.30923 0
M  V30 8928 H 832.671 -1.08171 -1.21131 0
M  V30 8929 H 834.668 -0.195608 -4.16441 0
M  V30 8930 H 833.328 0.491848 -3.20953 0
M  V30 8931 H 834.339 -3.08014 -4.16351 0
M  V30 8932 H 831.016 -0.499537 -4.14501 0
M  V30 8933 H 832.406 -4.44018 -5.04279 0
M  V30 8934 N 835.127 1.22348 -0.993418 0
M  V30 8935 C 836.543 1.43222 -0.704238 0
M  V30 8936 C 836.743 1.88009 0.724909 0
M  V30 8937 O 835.799 2.03429 1.49575 0
M  V30 8938 C 837.112 2.47328 -1.71025 0
M  V30 8939 C 838.66 2.61126 -1.72576 0
M  V30 8940 C 839.135 3.68453 -2.72041 0
M  V30 8941 N 840.626 3.75911 -2.70639 0
M  V30 8942 C 841.361 4.58551 -3.44266 0
M  V30 8943 N 840.857 5.45179 -4.27495 0
M  V30 8944 N 842.65 4.52866 -3.32969 0
M  V30 8945 H 834.801 0.915832 -1.91641 0
M  V30 8946 H 837.064 0.464283 -0.826526 0
M  V30 8947 H 836.77 2.21366 -2.73295 0
M  V30 8948 H 836.644 3.45939 -1.50353 0
M  V30 8949 H 839.031 2.86431 -0.710037 0
M  V30 8950 H 839.112 1.62787 -1.97317 0
M  V30 8951 H 838.756 3.43895 -3.73763 0
M  V30 8952 H 838.686 4.66362 -2.4457 0
M  V30 8953 H 841.177 3.14014 -2.10247 0
M  V30 8954 H 841.49 6.0526 -4.80499 0
M  V30 8955 H 839.835 5.44759 -4.31582 0
M  V30 8956 H 843.026 3.84215 -2.67389 0
M  V30 8957 H 843.199 5.17039 -3.90608 0
M  V30 8958 N 836.605 0.766683 1.37694 0
M  V30 8959 C 838.021 0.445739 1.53249 0
M  V30 8960 C 838.221 -1.03935 1.72626 0
M  V30 8961 O 837.277 -1.82525 1.74473 0
M  V30 8962 C 838.59 1.2564 2.73194 0
M  V30 8963 C 840.138 1.24779 2.87053 0
M  V30 8964 C 840.613 2.04169 4.09974 0
M  V30 8965 N 842.104 2.01497 4.17077 0
M  V30 8966 C 842.839 2.5971 5.11212 0
M  V30 8967 N 842.335 3.26691 6.10938 0
M  V30 8968 N 844.128 2.49568 5.03659 0
M  V30 8969 H 836.279 1.72899 1.23368 0
M  V30 8970 H 838.542 0.733701 0.600322 0
M  V30 8971 H 838.248 2.30859 2.65324 0
M  V30 8972 H 838.122 0.882133 3.6674 0
M  V30 8973 H 840.509 0.203603 2.94397 0
M  V30 8974 H 840.59 1.66166 1.9448 0
M  V30 8975 H 840.234 3.08606 4.03392 0
M  V30 8976 H 840.164 1.60167 5.01651 0
M  V30 8977 H 842.655 1.52728 3.45662 0
M  V30 8978 H 842.968 3.68497 6.79286 0
M  V30 8979 H 841.313 3.30789 6.11231 0
M  V30 8980 H 844.504 1.96859 4.24693 0
M  V30 8981 H 844.677 2.95231 5.76839 0
M  V30 8982 N 838.083 -1.48885 0.516809 0
M  V30 8983 C 839.36 -1.95412 -0.0858293 0
M  V30 8984 C 839.74 -1.45875 -1.5259 0
M  V30 8985 O 839.088 -0.679415 -2.18166 0
M  V30 8986 C 839.298 -3.48995 0.0178194 0
M  V30 8987 C 840.646 -4.24342 -0.14813 0
M  V30 8988 O 841.67 -3.56155 -0.0566125 0
M  V30 8989 O 840.529 -5.45454 -0.338035 0
M  V30 8990 H 837.623 -0.822455 -0.0865884 0
M  V30 8991 H 840.169 -1.59464 0.580472 0
M  V30 8992 H 838.941 -3.77732 1.02147 0
M  V30 8993 H 838.564 -3.91604 -0.687924 0
M  V30 8994 N 839.561 -0.251338 -1.55583 0
M  V30 8995 C 840.786 0.379136 -2.03905 0
M  V30 8996 C 841.211 1.50428 -1.12929 0
M  V30 8997 O 840.569 1.80882 -0.123114 0
M  V30 8998 C 840.617 0.86009 -3.50193 0
M  V30 8999 O 839.721 1.96932 -3.62342 0
M  V30 9000 H 839.062 0.0820183 -0.658915 0
M  V30 9001 H 841.592 -0.378692 -2.01065 0
M  V30 9002 H 841.602 1.16214 -3.91099 0
M  V30 9003 H 840.277 0.0367559 -4.15884 0
M  V30 9004 H 838.854 1.67163 -3.33333 0
M  V30 9005 N 841.039 1.57585 0.0217189 0
M  V30 9006 C 842.264 1.94267 0.726309 0
M  V30 9007 C 842.689 0.851904 1.67703 0
M  V30 9008 O 842.047 -0.191792 1.80283 0
M  V30 9009 C 842.095 3.30023 1.45318 0
M  V30 9010 O 841.199 3.22791 2.5667 0
M  V30 9011 H 840.54 0.634777 0.194818 0
M  V30 9012 H 843.07 2.04585 -0.0249985 0
M  V30 9013 H 843.08 3.65084 1.82147 0
M  V30 9014 H 841.755 4.08972 0.755962 0
M  V30 9015 H 840.332 2.99373 2.2233 0
M  V30 9016 N 842.517 -0.29412 1.54831 0
M  V30 9017 C 843.427 -1.3854 1.89325 0
M  V30 9018 C 844.443 -1.55127 0.788133 0
M  V30 9019 O 845.619 -1.6966 1.08524 0
M  V30 9020 C 842.684 -2.72809 2.13954 0
M  V30 9021 C 841.745 -2.65148 3.37631 0
M  V30 9022 C 840.978 -3.93014 3.61076 0
M  V30 9023 O 841.201 -4.927 2.87406 0
M  V30 9024 O 840.135 -3.94491 4.54599 0
M  V30 9025 H 843.961 -1.12289 2.82179 0
M  V30 9026 H 841.546 -0.490793 1.41108 0
M  V30 9027 H 843.428 -3.52238 2.31315 0
M  V30 9028 H 842.103 -2.9889 1.24285 0
M  V30 9029 H 841.01 -1.84168 3.25627 0
M  V30 9030 H 842.343 -2.4402 4.27452 0
M  V30 9031 N 843.995 -1.47404 -0.557645 0
M  V30 9032 C 845.243 -1.53703 -1.31224 0
M  V30 9033 C 845.564 -0.200742 -1.93964 0
M  V30 9034 O 844.834 0.775253 -1.79907 0
M  V30 9035 H 843.414 -0.566171 -0.487299 0
M  V30 9036 H 846.076 -1.83699 -0.651195 0
M  V30 9037 H 845.172 -2.30335 -2.10599 0
M  V30 9038 N 845.473 0.80434 -1.35529 0
M  V30 9039 C 846.884 1.37849 -1.25915 0
M  V30 9040 C 847.235 1.95905 0.107495 0
M  V30 9041 O 846.36 1.91462 1.00852 0
M  V30 9042 C 846.955 2.50608 -2.27994 0
M  V30 9043 C 845.514 3.03879 -2.22114 0
M  V30 9044 C 844.661 1.76856 -2.13582 0
M  V30 9045 H 847.612 0.607192 -1.46625 0
M  V30 9046 H 847.633 3.29221 -1.90772 0
M  V30 9047 H 847.145 2.08323 -3.27449 0
M  V30 9048 H 845.246 3.50622 -1.26077 0
M  V30 9049 H 845.359 3.61707 -3.14173 0
M  V30 9050 H 843.723 1.98498 -1.59595 0
M  V30 9051 H 844.506 1.36721 -3.14901 0
M  V30 9052 N 846.951 1.19563 1.02676 0
M  V30 9053 C 848.362 1.00158 1.57561 0
M  V30 9054 C 848.713 -0.444922 1.91089 0
M  V30 9055 O 847.838 -1.32466 1.71119 0
M  V30 9056 C 848.433 1.81181 2.86284 0
M  V30 9057 C 846.992 1.66171 3.37734 0
M  V30 9058 C 846.139 1.7975 2.11152 0
M  V30 9059 H 849.09 1.33904 0.85179 0
M  V30 9060 H 849.111 1.30916 3.57269 0
M  V30 9061 H 848.623 2.86454 2.6185 0
M  V30 9062 H 846.724 0.634927 3.6715 0
M  V30 9063 H 846.837 2.46832 4.10622 0
M  V30 9064 H 845.201 1.22833 2.23123 0
M  V30 9065 H 845.984 2.86487 1.89157 0
M  V30 9066 N 848.429 -1.21819 0.999893 0
M  V30 9067 C 849.677 -1.90375 0.678351 0
M  V30 9068 C 849.998 -1.78155 -0.792824 0
M  V30 9069 O 849.268 -1.17319 -1.56885 0
M  V30 9070 H 847.848 -0.704661 0.247915 0
M  V30 9071 H 850.51 -1.48021 1.2679 0
M  V30 9072 H 849.606 -2.97385 0.947023 0
M  V30 9073 N 849.908 -0.773975 -1.37286 0
M  V30 9074 C 851.133 -0.349561 -2.04433 0
M  V30 9075 C 851.558 1.02082 -1.5799 0
M  V30 9076 O 850.916 1.65458 -0.741172 0
M  V30 9077 C 850.964 -0.404292 -3.58326 0
M  V30 9078 O 850.068 0.594447 -4.08093 0
M  V30 9079 H 849.409 -0.150959 -0.646612 0
M  V30 9080 H 851.939 -1.05079 -1.75555 0
M  V30 9081 H 851.949 -0.262378 -4.07155 0
M  V30 9082 H 850.624 -1.40403 -3.91484 0
M  V30 9083 H 849.201 0.415468 -3.70578 0
M  V30 9084 N 851.386 1.48609 -0.524698 0
M  V30 9085 C 852.296 2.33318 0.244923 0
M  V30 9086 C 853.312 1.46153 0.944214 0
M  V30 9087 O 854.488 1.79141 0.920347 0
M  V30 9088 C 851.553 3.22149 1.28144 0
M  V30 9089 C 850.614 4.25184 0.593068 0
M  V30 9090 C 849.847 5.0977 1.5802 0
M  V30 9091 O 850.07 4.96249 2.81235 0
M  V30 9092 O 849.004 5.9134 1.1225 0
M  V30 9093 H 852.83 3.00362 -0.449066 0
M  V30 9094 H 850.415 1.46643 -0.285689 0
M  V30 9095 H 852.297 3.77111 1.88057 0
M  V30 9096 H 850.972 2.57772 1.95793 0
M  V30 9097 H 849.879 3.74071 -0.0464214 0
M  V30 9098 H 851.212 4.92183 -0.0413893 0
M  V30 9099 N 852.864 0.259585 1.55447 0
M  V30 9100 C 854.112 -0.360893 1.98852 0
M  V30 9101 C 854.433 -1.57535 1.14924 0
M  V30 9102 O 853.703 -1.94485 0.235025 0
M  V30 9103 H 852.283 -0.136332 0.734454 0
M  V30 9104 H 854.945 0.361319 1.91522 0
M  V30 9105 H 854.041 -0.661388 3.05012 0
M  V30 9106 N 854.342 -1.57594 -0.0133615 0
M  V30 9107 C 855.619 -1.81173 -0.737273 0
M  V30 9108 C 855.999 -0.861395 -1.92726 0
M  V30 9109 O 855.347 0.0929324 -2.28311 0
M  V30 9110 C 855.557 -3.29314 -1.15557 0
M  V30 9111 C 856.905 -3.94707 -1.56498 0
M  V30 9112 O 857.929 -3.33557 -1.24973 0
M  V30 9113 O 856.788 -5.02402 -2.15069 0
M  V30 9114 H 853.882 -0.745575 -0.357837 0
M  V30 9115 H 856.428 -1.69696 0.0110674 0
M  V30 9116 H 855.2 -3.90096 -0.30677 0
M  V30 9117 H 854.823 -3.45739 -1.96343 0
M  V30 9118 N 855.82 0.285905 -1.54985 0
M  V30 9119 C 857.068 1.01718 -1.74636 0
M  V30 9120 C 857.389 1.87277 -0.543342 0
M  V30 9121 O 856.659 1.90847 0.442078 0
M  V30 9122 H 855.239 0.378549 -0.643979 0
M  V30 9123 H 857.901 0.313247 -1.92366 0
M  V30 9124 H 856.997 1.66159 -2.64192 0
M  V30 9125 N 857.298 1.47698 0.54982 0
M  V30 9126 C 858.546 1.54397 1.30407 0
M  V30 9127 C 858.867 0.211026 1.93855 0
M  V30 9128 O 858.137 -0.765701 1.80316 0
M  V30 9129 H 856.717 0.568747 0.484289 0
M  V30 9130 H 859.379 1.84042 0.641444 0
M  V30 9131 H 858.475 2.31449 2.09375 0
M  V30 9132 N 858.776 -0.797141 1.35954 0
M  V30 9133 C 860.024 -1.55161 1.29497 0
M  V30 9134 C 860.345 -1.94582 -0.127659 0
M  V30 9135 O 859.615 -1.64343 -1.06622 0
M  V30 9136 H 858.195 -0.575413 0.47635 0
M  V30 9137 H 860.857 -0.950282 1.70164 0
M  V30 9138 H 859.953 -2.46272 1.9172 0
M  V30 9139 N 860.254 -1.20106 -1.0204 0
M  V30 9140 C 861.186 -0.904236 -2.10609 0
M  V30 9141 C 862.199 0.106487 -1.62451 0
M  V30 9142 O 863.388 -0.124035 -1.78069 0
M  V30 9143 C 860.488 -0.333423 -3.37256 0
M  V30 9144 C 859.661 -1.39476 -4.14566 0
M  V30 9145 C 858.72 -0.835961 -5.19517 0
M  V30 9146 O 857.746 -1.51573 -5.48648 0
M  V30 9147 N 858.948 0.356531 -5.79404 0
M  V30 9148 H 861.713 -1.8388 -2.36661 0
M  V30 9149 H 859.274 -1.10422 -1.184 0
M  V30 9150 H 861.266 0.0544571 -4.04663 0
M  V30 9151 H 859.836 0.505608 -3.08484 0
M  V30 9152 H 859.056 -1.95714 -3.42184 0
M  V30 9153 H 860.344 -2.10967 -4.63001 0
M  V30 9154 H 859.742 0.926143 -5.58067 0
M  V30 9155 H 858.299 0.686093 -6.48179 0
M  V30 9156 N 861.732 1.21287 -1.00634 0
M  V30 9157 C 862.957 1.94925 -0.708441 0
M  V30 9158 C 863.382 1.73659 0.722783 0
M  V30 9159 O 862.74 1.02429 1.49593 0
M  V30 9160 C 862.788 3.45377 -1.03667 0
M  V30 9161 O 861.892 4.12153 -0.142661 0
M  V30 9162 H 861.233 0.609338 -0.263824 0
M  V30 9163 H 863.763 1.54008 -1.34695 0
M  V30 9164 H 863.773 3.95954 -0.984086 0
M  V30 9165 H 862.448 3.6018 -2.0795 0
M  V30 9166 H 861.025 3.72048 -0.251888 0
M  V30 9167 N 863.21 0.781244 1.36873 0
M  V30 9168 C 864.157 0.172146 2.30157 0
M  V30 9169 C 865.127 -0.679328 1.51573 0
M  V30 9170 O 866.312 -0.629713 1.80109 0
M  V30 9171 C 863.452 -0.693534 3.38059 0
M  V30 9172 C 862.565 0.175586 4.31643 0
M  V30 9173 C 861.7 -0.695695 5.26625 0
M  V30 9174 C 860.739 0.17538 6.11849 0
M  V30 9175 N 859.876 -0.654416 6.99043 0
M  V30 9176 H 864.716 0.973133 2.81663 0
M  V30 9177 H 862.253 0.491469 1.38647 0
M  V30 9178 H 864.211 -1.21035 3.99257 0
M  V30 9179 H 862.841 -1.46003 2.87894 0
M  V30 9180 H 861.893 0.810295 3.7167 0
M  V30 9181 H 863.205 0.847107 4.91554 0
M  V30 9182 H 862.359 -1.27863 5.93073 0
M  V30 9183 H 861.098 -1.40087 4.67148 0
M  V30 9184 H 860.103 0.77078 5.4437 0
M  V30 9185 H 861.328 0.87803 6.734 0
M  V30 9186 H 859.274 -1.34403 6.42084 0
M  V30 9187 H 859.191 -0.0403998 7.55989 0
M  V30 9188 H 860.459 -1.22144 7.69871 0
M  V30 9189 N 864.689 -1.48329 0.532571 0
M  V30 9190 C 866.1 -1.86469 0.0927749 0
M  V30 9191 C 866.451 -1.44186 -1.3306 0
M  V30 9192 O 865.576 -0.833741 -1.99694 0
M  V30 9193 C 866.171 -3.38414 0.161588 0
M  V30 9194 C 864.73 -3.75739 -0.223028 0
M  V30 9195 C 863.877 -2.72377 0.520199 0
M  V30 9196 H 866.828 -1.40197 0.743678 0
M  V30 9197 H 866.849 -3.75314 -0.626059 0
M  V30 9198 H 866.361 -3.69159 1.19765 0
M  V30 9199 H 864.462 -3.50608 -1.26113 0
M  V30 9200 H 864.575 -4.78954 0.118385 0
M  V30 9201 H 862.939 -2.54678 -0.0338425 0
M  V30 9202 H 863.722 -3.05965 1.55694 0
M  V30 9203 N 866.167 -0.267825 -1.55308 0
M  V30 9204 C 867.392 0.357487 -2.04296 0
M  V30 9205 C 867.817 1.49222 -1.14518 0
M  V30 9206 O 867.175 1.80741 -0.142292 0
M  V30 9207 C 867.223 0.822899 -3.51085 0
M  V30 9208 O 866.327 1.93078 -3.6441 0
M  V30 9209 H 865.668 0.075025 -0.659748 0
M  V30 9210 H 868.198 -0.399996 -2.00652 0
M  V30 9211 H 868.208 1.12059 -3.92309 0
M  V30 9212 H 866.883 -0.0073562 -4.15899 0
M  V30 9213 H 865.46 1.63618 -3.35087 0
M  V30 9214 N 867.645 1.57599 0.00500368 0
M  V30 9215 C 868.593 2.09223 1.01628 0
M  V30 9216 C 869.587 1.01113 1.35913 0
M  V30 9217 O 870.793 1.19583 1.34536 0
M  V30 9218 H 867.168 0.667999 0.345372 0
M  V30 9219 H 869.139 2.93188 0.555274 0
M  V30 9220 C 867.888 2.60674 2.30097 0
M  V30 9221 H 867.211 3.43491 2.04582 0
M  V30 9222 H 868.651 3.00479 2.99146 0
M  V30 9223 C 867.11 1.51862 3.00731 0
M  V30 9224 O 867.64 0.898651 3.91519 0
M  V30 9225 N 865.846 1.24729 2.62471 0
M  V30 9226 H 865.393 1.7533 1.88725 0
M  V30 9227 H 865.351 0.521437 3.10046 0
M  V30 9228 N 869.123 -0.277682 1.55134 0
M  V30 9229 C 870.086 -1.32635 1.86924 0
M  V30 9230 C 871.086 -1.42578 0.743507 0
M  V30 9231 O 872.276 -1.4181 1.01171 0
M  V30 9232 C 869.408 -2.70832 2.07034 0
M  V30 9233 H 870.601 -1.0568 2.80663 0
M  V30 9234 H 868.154 -0.515517 1.47554 0
M  V30 9235 H 868.889 -3.02974 1.15661 0
M  V30 9236 H 868.674 -2.65001 2.88993 0
M  V30 9237 H 870.164 -3.46611 2.32918 0
M  V30 9238 N 870.601 -1.47988 -0.541979 0
M  V30 9239 C 871.826 -1.59286 -1.32826 0
M  V30 9240 C 872.251 -0.24894 -1.86445 0
M  V30 9241 O 871.609 0.777581 -1.63778 0
M  V30 9242 C 871.657 -2.6334 -2.46343 0
M  V30 9243 O 870.761 -2.19667 -3.49028 0
M  V30 9244 H 870.102 -0.534543 -0.393903 0
M  V30 9245 H 872.632 -1.93885 -0.653427 0
M  V30 9246 H 872.642 -2.84238 -2.92699 0
M  V30 9247 H 871.317 -3.60913 -2.06675 0
M  V30 9248 H 869.894 -2.08932 -3.08872 0
M  V30 9249 N 872.079 0.78992 -1.36375 0
M  V30 9250 C 873.327 1.54472 -1.30319 0
M  V30 9251 C 873.648 1.94647 0.117338 0
M  V30 9252 O 872.918 1.64906 1.05748 0
M  V30 9253 H 871.498 0.572879 -0.479394 0
M  V30 9254 H 874.16 0.941245 -1.70665 0
M  V30 9255 H 873.256 2.45252 -1.93024 0
M  V30 9256 N 873.557 1.20646 1.01402 0
M  V30 9257 C 874.805 1.01618 1.74695 0
M  V30 9258 C 875.126 -0.452438 1.89679 0
M  V30 9259 O 874.396 -1.32693 1.44116 0
M  V30 9260 H 872.976 0.373013 0.647202 0
M  V30 9261 H 875.638 1.518 1.22241 0
M  V30 9262 H 874.734 1.47666 2.74957 0
M  V30 9263 N 875.035 -1.20752 1.01276 0
M  V30 9264 C 876.281 -1.90302 0.700924 0
M  V30 9265 C 876.614 -1.78406 -0.767142 0
M  V30 9266 O 875.889 -1.16575 -1.55694 0
M  V30 9267 C 876.172 -3.41831 1.13242 0
M  V30 9268 C 876.025 -3.6268 2.66051 0
M  V30 9269 C 877.344 -4.34486 0.700738 0
M  V30 9270 H 874.463 -0.69107 0.256107 0
M  V30 9271 H 877.105 -1.42227 1.25982 0
M  V30 9272 H 875.255 -3.82906 0.656902 0
M  V30 9273 H 876.927 -3.30882 3.21426 0
M  V30 9274 H 875.17 -3.06281 3.07204 0
M  V30 9275 H 875.841 -4.68882 2.91296 0
M  V30 9276 H 878.317 -4.01036 1.10948 0
M  V30 9277 H 877.193 -5.39136 1.03073 0
M  V30 9278 H 877.454 -4.40307 -0.39778 0
M  V30 9279 N 876.513 -0.788492 -1.36457 0
M  V30 9280 C 877.79 -0.284484 -1.9352 0
M  V30 9281 C 878.17 1.2232 -1.7205 0
M  V30 9282 O 877.518 2.01424 -1.07892 0
M  V30 9283 C 877.728 -0.676106 -3.42388 0
M  V30 9284 C 879.076 -0.655327 -4.19512 0
M  V30 9285 O 880.1 -0.616523 -3.50824 0
M  V30 9286 O 878.959 -0.697391 -5.42032 0
M  V30 9287 H 876.053 -0.0701769 -0.824017 0
M  V30 9288 H 878.599 -0.870974 -1.45644 0
M  V30 9289 H 877.371 -1.71596 -3.51668 0
M  V30 9290 H 876.994 -0.0634517 -3.97549 0
M  V30 9291 N 877.991 1.48044 -0.54043 0
M  V30 9292 C 878.938 2.29781 0.216597 0
M  V30 9293 C 879.908 1.38021 0.924094 0
M  V30 9294 O 881.093 1.66985 0.923078 0
M  V30 9295 C 878.233 3.21623 1.2511 0
M  V30 9296 C 877.346 4.28467 0.551384 0
M  V30 9297 C 876.481 5.07477 1.56972 0
M  V30 9298 C 875.52 6.06113 0.854048 0
M  V30 9299 N 874.657 6.78143 1.81842 0
M  V30 9300 H 879.497 2.94001 -0.486578 0
M  V30 9301 H 877.034 1.44929 -0.251789 0
M  V30 9302 H 878.992 3.73279 1.8633 0
M  V30 9303 H 877.622 2.59305 1.92252 0
M  V30 9304 H 876.674 3.79997 -0.174982 0
M  V30 9305 H 877.986 4.98799 -0.0100542 0
M  V30 9306 H 877.14 5.63199 2.25592 0
M  V30 9307 H 875.879 4.37008 2.16507 0
M  V30 9308 H 874.884 5.49585 0.153838 0
M  V30 9309 H 876.109 6.78584 0.264675 0
M  V30 9310 H 874.055 6.10417 2.40265 0
M  V30 9311 H 873.972 7.44587 1.3087 0
M  V30 9312 H 875.24 7.38448 2.49628 0
M  V30 9313 N 879.47 0.276058 1.55163 0
M  V30 9314 C 880.433 -0.597924 2.21263 0
M  V30 9315 C 881.433 -1.0806 1.19078 0
M  V30 9316 O 882.623 -0.980626 1.43977 0
M  V30 9317 C 879.755 -1.82503 2.87933 0
M  V30 9318 H 880.948 -0.0207769 2.99893 0
M  V30 9319 H 878.501 0.0266823 1.56277 0
M  V30 9320 H 879.236 -2.44266 2.13318 0
M  V30 9321 H 879.021 -1.48683 3.62816 0
M  V30 9322 H 880.511 -2.44651 3.38431 0
M  V30 9323 N 880.948 -1.576 0.00335426 0
M  V30 9324 C 882.173 -1.95398 -0.695311 0
M  V30 9325 C 882.598 -0.878476 -1.66326 0
M  V30 9326 O 881.956 0.163086 -1.80565 0
M  V30 9327 C 882.004 -3.32293 -1.40049 0
M  V30 9328 O 881.108 -3.26834 -2.51502 0
M  V30 9329 H 880.449 -0.637796 -0.184694 0
M  V30 9330 H 882.979 -2.04519 0.057543 0
M  V30 9331 H 882.989 -3.67936 -1.76316 0
M  V30 9332 H 881.664 -4.10123 -0.690803 0
M  V30 9333 H 880.241 -3.02872 -2.17539 0
M  V30 9334 N 882.426 0.269451 -1.5528 0
M  V30 9335 C 883.837 0.840233 -1.66724 0
M  V30 9336 C 884.188 1.86909 -0.596621 0
M  V30 9337 O 883.313 2.14817 0.261246 0
M  V30 9338 C 883.908 1.5308 -3.02245 0
M  V30 9339 C 882.467 2.04957 -3.15705 0
M  V30 9340 C 881.614 0.892838 -2.62533 0
M  V30 9341 H 884.565 0.0457236 -1.58634 0
M  V30 9342 H 884.586 2.39792 -2.95432 0
M  V30 9343 H 884.098 0.781741 -3.80145 0
M  V30 9344 H 882.199 2.82813 -2.42585 0
M  V30 9345 H 882.312 2.26244 -4.22316 0
M  V30 9346 H 880.676 1.28719 -2.19781 0
M  V30 9347 H 881.459 0.157229 -3.4294 0
M  V30 9348 N 883.904 1.48273 0.534124 0
M  V30 9349 C 885.129 1.59988 1.31979 0
M  V30 9350 C 885.554 0.258824 1.86311 0
M  V30 9351 O 884.912 -0.768885 1.64188 0
M  V30 9352 C 884.96 2.64642 2.44943 0
M  V30 9353 O 884.064 2.21515 3.47858 0
M  V30 9354 H 883.405 0.536625 0.391063 0
M  V30 9355 H 885.935 1.94229 0.643135 0
M  V30 9356 H 885.945 2.85786 2.91187 0
M  V30 9357 H 884.62 3.62004 2.04758 0
M  V30 9358 H 883.197 2.10567 3.0776 0
M  V30 9359 N 885.382 -0.782676 1.36792 0
M  V30 9360 C 886.292 -1.92679 1.33835 0
M  V30 9361 C 887.308 -1.72344 0.23952 0
M  V30 9362 O 888.484 -1.95766 0.473045 0
M  V30 9363 C 885.549 -3.27644 1.1336 0
M  V30 9364 C 884.61 -3.6071 2.32781 0
M  V30 9365 C 883.843 -4.89234 2.13273 0
M  V30 9366 O 884.066 -5.59468 1.11136 0
M  V30 9367 O 883 -5.21112 3.01208 0
M  V30 9368 H 886.826 -1.98124 2.30175 0
M  V30 9369 H 884.411 -0.923887 1.17408 0
M  V30 9370 H 886.293 -4.08394 1.03886 0
M  V30 9371 H 884.968 -3.23076 0.200868 0
M  V30 9372 H 883.875 -2.80238 2.47825 0
M  V30 9373 H 885.208 -3.70008 3.24584 0
M  V30 9374 N 886.86 -1.21182 -1.00761 0
M  V30 9375 C 887.808 -0.965728 -2.11604 0
M  V30 9376 C 888.802 0.0861028 -1.69181 0
M  V30 9377 O 890.008 -0.0650558 -1.79882 0
M  V30 9378 H 886.383 -0.295023 -0.691712 0
M  V30 9379 H 888.354 -1.90667 -2.2954 0
M  V30 9380 C 887.103 -0.544164 -3.43415 0
M  V30 9381 H 886.426 -1.34515 -3.76491 0
M  V30 9382 H 887.866 -0.411268 -4.22001 0
M  V30 9383 C 886.325 0.744583 -3.28569 0
M  V30 9384 O 886.855 1.80078 -3.59075 0
M  V30 9385 N 885.061 0.710083 -2.81791 0
M  V30 9386 H 884.608 -0.14971 -2.57165 0
M  V30 9387 H 884.566 1.57268 -2.72239 0
M  V30 9388 N 888.338 1.20213 -1.01915 0
M  V30 9389 C 889.286 2.25125 -0.584936 0
M  V30 9390 C 890.28 1.65138 0.377602 0
M  V30 9391 O 891.486 1.78294 0.247245 0
M  V30 9392 H 887.861 0.732333 -0.170858 0
M  V30 9393 H 889.832 2.59075 -1.48063 0
M  V30 9394 C 888.581 3.47651 0.058389 0
M  V30 9395 H 887.904 3.9409 -0.673263 0
M  V30 9396 H 889.344 4.2275 0.325285 0
M  V30 9397 C 887.803 3.10725 1.30199 0
M  V30 9398 O 888.333 3.22491 2.39505 0
M  V30 9399 N 886.539 2.6525 1.18706 0
M  V30 9400 H 886.086 2.55875 0.297618 0
M  V30 9401 H 886.044 2.40913 2.02011 0
M  V30 9402 N 889.816 0.795718 1.36037 0
M  V30 9403 C 890.779 0.204318 2.28287 0
M  V30 9404 C 891.779 -0.602017 1.49105 0
M  V30 9405 O 892.969 -0.422089 1.69009 0
M  V30 9406 C 890.101 -0.716431 3.33287 0
M  V30 9407 H 891.294 1.01781 2.821 0
M  V30 9408 H 888.847 0.565588 1.45708 0
M  V30 9409 H 889.582 -1.55403 2.84641 0
M  V30 9410 H 889.367 -0.140096 3.9185 0
M  V30 9411 H 890.857 -1.12488 4.02164 0
M  V30 9412 N 891.294 -1.47756 0.548274 0
M  V30 9413 C 892.542 -2.02089 0.0208542 0
M  V30 9414 C 892.863 -1.42589 -1.33017 0
M  V30 9415 O 892.133 -0.597825 -1.86555 0
M  V30 9416 H 890.713 -0.746985 0.00472023 0
M  V30 9417 H 893.375 -1.81262 0.716257 0
M  V30 9418 H 892.471 -3.12012 -0.0739016 0
M  V30 9419 N 892.772 -0.284283 -1.55015 0
M  V30 9420 C 894.02 0.329212 -1.99401 0
M  V30 9421 C 894.341 1.55687 -1.17416 0
M  V30 9422 O 893.611 1.94087 -0.265937 0
M  V30 9423 H 892.191 0.12463 -0.73653 0
M  V30 9424 H 894.853 -0.391743 -1.90922 0
M  V30 9425 H 893.949 0.61278 -3.06025 0
M  V30 9426 N 894.251 1.57596 -0.0117121 0
M  V30 9427 C 895.499 1.90694 0.669342 0
M  V30 9428 C 895.82 0.886999 1.73659 0
M  V30 9429 O 895.09 -0.0739779 1.9576 0
M  V30 9430 H 893.67 0.703846 0.250219 0
M  V30 9431 H 896.332 1.94821 -0.0554057 0
M  V30 9432 H 895.428 2.90802 1.13316 0
M  V30 9433 N 895.729 -0.261212 1.5542 0
M  V30 9434 C 896.954 -1.01341 1.80955 0
M  V30 9435 C 897.379 -1.78711 0.586849 0
M  V30 9436 O 896.737 -1.75266 -0.463837 0
M  V30 9437 C 896.785 -1.93835 3.04073 0
M  V30 9438 O 895.889 -3.02791 2.79985 0
M  V30 9439 H 895.23 -0.289123 0.597749 0
M  V30 9440 H 897.76 -0.286543 2.02584 0
M  V30 9441 H 897.77 -2.3557 3.33123 0
M  V30 9442 H 896.445 -1.36936 3.9271 0
M  V30 9443 H 895.022 -2.65287 2.62063 0
M  V30 9444 N 897.207 -1.48554 -0.526253 0
M  V30 9445 C 898.618 -1.50256 -1.10815 0
M  V30 9446 C 898.969 -0.274445 -1.94271 0
M  V30 9447 O 898.094 0.618094 -2.07385 0
M  V30 9448 C 898.689 -2.72264 -2.01638 0
M  V30 9449 C 897.248 -2.76826 -2.55038 0
M  V30 9450 C 896.395 -2.43823 -1.32081 0
M  V30 9451 H 899.346 -1.55616 -0.31133 0
M  V30 9452 H 899.367 -2.50993 -2.85977 0
M  V30 9453 H 898.879 -3.61632 -1.4087 0
M  V30 9454 H 896.98 -1.91676 -3.19517 0
M  V30 9455 H 897.093 -3.78351 -2.93917 0
M  V30 9456 H 895.457 -1.95058 -1.63781 0
M  V30 9457 H 896.24 -3.35436 -0.730596 0
M  V30 9458 N 898.685 0.775411 -1.37205 0
M  V30 9459 C 899.91 1.5696 -1.35567 0
M  V30 9460 C 900.335 1.88012 0.0575554 0
M  V30 9461 O 899.693 1.48954 1.03355 0
M  V30 9462 C 899.741 2.85886 -2.19776 0
M  V30 9463 O 898.845 3.80103 -1.59987 0
M  V30 9464 H 898.186 0.475583 -0.463375 0
M  V30 9465 H 900.716 0.96001 -1.80679 0
M  V30 9466 H 900.726 3.35024 -2.32859 0
M  V30 9467 H 899.401 2.62613 -3.22502 0
M  V30 9468 H 897.978 3.38736 -1.55924 0
M  V30 9469 N 900.163 1.21714 1.00117 0
M  V30 9470 C 901.388 1.06357 1.78054 0
M  V30 9471 C 901.813 -0.382075 1.84179 0
M  V30 9472 O 901.171 -1.27575 1.28819 0
M  V30 9473 C 901.219 1.66982 3.19608 0
M  V30 9474 O 900.323 0.917892 4.02055 0
M  V30 9475 H 899.664 0.374074 0.548602 0
M  V30 9476 H 902.194 1.61338 1.25822 0
M  V30 9477 H 902.204 1.71363 3.70268 0
M  V30 9478 H 900.879 2.72185 3.14465 0
M  V30 9479 H 899.456 0.949473 3.6061 0
M  V30 9480 N 901.641 -1.19671 1.02551 0
M  V30 9481 C 902.889 -1.88894 0.71858 0
M  V30 9482 C 903.21 -1.79797 -0.754856 0
M  V30 9483 O 902.48 -1.20621 -1.54362 0
M  V30 9484 H 901.06 -0.699244 0.262806 0
M  V30 9485 H 903.722 -1.45298 1.29902 0
M  V30 9486 H 902.818 -2.95309 1.00989 0
M  V30 9487 N 903.119 -0.802921 -1.35613 0
M  V30 9488 C 904.344 -0.392846 -2.03645 0
M  V30 9489 C 904.769 0.987075 -1.6012 0
M  V30 9490 O 904.127 1.63849 -0.776101 0
M  V30 9491 C 904.175 -0.480208 -3.57388 0
M  V30 9492 O 903.279 0.507751 -4.09262 0
M  V30 9493 H 902.62 -0.16464 -0.643265 0
M  V30 9494 H 905.15 -1.08779 -1.73287 0
M  V30 9495 H 905.16 -0.348683 -4.06507 0
M  V30 9496 H 903.835 -1.48675 -3.88418 0
M  V30 9497 H 902.412 0.336769 -3.71376 0
M  V30 9498 N 904.597 1.47463 -0.556102 0
M  V30 9499 C 905.845 2.02075 -0.0315712 0
M  V30 9500 C 906.166 1.43292 1.32259 0
M  V30 9501 O 905.436 0.60771 1.86236 0
M  V30 9502 H 904.016 0.74695 -0.0086816 0
M  V30 9503 H 906.678 1.80879 -0.725859 0
M  V30 9504 H 905.774 3.12047 0.0573538 0
M  V30 9505 N 906.075 0.2925 1.54862 0
M  V30 9506 C 907.323 -0.318633 1.99572 0
M  V30 9507 C 907.644 -1.55062 1.1824 0
M  V30 9508 O 906.914 -1.93943 0.276226 0
M  V30 9509 H 905.494 -0.120722 0.737181 0
M  V30 9510 H 908.156 0.401862 1.90712 0
M  V30 9511 H 907.252 -0.596542 3.06346 0
M  V30 9512 N 907.553 -1.57587 0.0200696 0
M  V30 9513 C 908.501 -2.10814 -0.982868 0
M  V30 9514 C 909.495 -1.03263 -1.34287 0
M  V30 9515 O 910.701 -1.21708 -1.32617 0
M  V30 9516 H 907.076 -0.673409 -0.334701 0
M  V30 9517 H 909.047 -2.94034 -0.50856 0
M  V30 9518 C 907.796 -2.64301 -2.25921 0
M  V30 9519 H 907.119 -3.46703 -1.99091 0
M  V30 9520 H 908.559 -3.052 -2.94328 0
M  V30 9521 C 907.018 -1.56628 -2.98277 0
M  V30 9522 O 907.548 -0.960825 -3.9004 0
M  V30 9523 N 905.754 -1.28889 -2.60453 0
M  V30 9524 H 905.301 -1.7831 -1.85912 0
M  V30 9525 H 905.259 -0.570697 -3.09177 0
M  V30 9526 N 909.032 0.252966 -1.55557 0
M  V30 9527 C 910.443 0.822503 -1.67606 0
M  V30 9528 C 910.794 1.86265 -0.616411 0
M  V30 9529 O 909.919 2.15082 0.238447 0
M  V30 9530 C 910.514 1.49866 -3.03852 0
M  V30 9531 C 909.073 2.01597 -3.17861 0
M  V30 9532 C 908.22 0.864943 -2.63465 0
M  V30 9533 H 911.171 0.0288958 -1.58674 0
M  V30 9534 H 911.192 2.36646 -2.97958 0
M  V30 9535 H 910.704 0.741378 -3.80953 0
M  V30 9536 H 908.805 2.80224 -2.45571 0
M  V30 9537 H 908.918 2.21752 -4.24692 0
M  V30 9538 H 907.282 1.2638 -2.21134 0
M  V30 9539 H 908.065 0.120847 -3.43087 0
M  V30 9540 N 910.51 1.48831 0.518367 0
M  V30 9541 C 911.738 1.6112 1.298 0
M  V30 9542 C 912.153 0.275872 1.86774 0
M  V30 9543 O 911.51 -0.736416 1.66983 0
M  V30 9544 C 911.561 2.66675 2.44063 0
M  V30 9545 O 911.282 3.95027 1.89434 0
M  V30 9546 C 912.783 2.8951 3.35706 0
M  V30 9547 H 910.003 0.542916 0.394314 0
M  V30 9548 H 912.547 1.94743 0.624142 0
M  V30 9549 H 910.702 2.35879 3.07311 0
M  V30 9550 H 911.116 4.53031 2.64316 0
M  V30 9551 H 912.59 3.67142 4.12202 0
M  V30 9552 H 913.067 1.98768 3.91648 0
M  V30 9553 H 913.673 3.21656 2.7824 0
M  V30 9554 N 911.988 -0.768124 1.37614 0
M  V30 9555 C 912.936 -1.9029 1.33763 0
M  V30 9556 C 913.93 -1.67888 0.225814 0
M  V30 9557 O 915.136 -1.75634 0.394043 0
M  V30 9558 H 911.511 -0.625828 0.416945 0
M  V30 9559 H 913.482 -1.90654 2.29551 0
M  V30 9560 C 912.231 -3.27598 1.16511 0
M  V30 9561 H 911.554 -3.45414 2.01318 0
M  V30 9562 H 912.994 -4.07288 1.17867 0
M  V30 9563 C 911.453 -3.36653 -0.129001 0
M  V30 9564 O 911.983 -3.86023 -1.11128 0
M  V30 9565 N 910.189 -2.90036 -0.180926 0
M  V30 9566 H 909.736 -2.5005 0.619076 0
M  V30 9567 H 909.694 -2.96475 -1.04641 0
M  V30 9568 N 913.466 -1.22244 -0.994698 0
M  V30 9569 C 914.694 -1.07218 -1.76952 0
M  V30 9570 C 915.109 0.377388 -1.8499 0
M  V30 9571 O 914.466 1.26157 -1.31874 0
M  V30 9572 C 914.517 -1.67496 -3.20355 0
M  V30 9573 O 914.238 -3.06782 -3.12756 0
M  V30 9574 C 915.739 -1.57721 -4.14294 0
M  V30 9575 H 912.959 -0.375966 -0.555779 0
M  V30 9576 H 915.503 -1.61799 -1.25065 0
M  V30 9577 H 913.658 -1.16982 -3.69315 0
M  V30 9578 H 914.072 -3.35784 -4.02926 0
M  V30 9579 H 915.546 -2.04623 -5.12673 0
M  V30 9580 H 916.023 -0.533434 -4.35949 0
M  V30 9581 H 916.629 -2.07531 -3.71229 0
M  V30 9582 N 914.944 1.19125 -1.03184 0
M  V30 9583 C 916.169 1.93379 -0.749628 0
M  V30 9584 C 916.594 1.75153 0.685785 0
M  V30 9585 O 915.952 1.05579 1.47386 0
M  V30 9586 C 916 3.43101 -1.1097 0
M  V30 9587 O 915.104 4.11758 -0.230053 0
M  V30 9588 H 914.445 0.603605 -0.276689 0
M  V30 9589 H 916.975 1.51116 -1.37931 0
M  V30 9590 H 916.985 3.93778 -1.06785 0
M  V30 9591 H 915.66 3.55688 -2.15544 0
M  V30 9592 H 914.237 3.7143 -0.330748 0
M  V30 9593 N 916.422 0.810101 1.35185 0
M  V30 9594 C 917.67 0.391343 1.98275 0
M  V30 9595 C 917.991 -1.04592 1.64577 0
M  V30 9596 O 917.261 -1.72417 0.93001 0
M  V30 9597 H 915.841 0.141715 0.733434 0
M  V30 9598 H 918.503 1.03672 1.6504 0
M  V30 9599 H 917.599 0.49991 3.0807 0
M  V30 9600 N 917.9 -1.47166 0.563914 0
M  V30 9601 C 919.128 -2.06846 0.0474287 0
M  V30 9602 C 919.543 -1.41557 -1.24928 0
M  V30 9603 O 918.9 -0.514376 -1.75101 0
M  V30 9604 C 918.951 -3.6121 -0.144831 0
M  V30 9605 O 918.672 -4.24052 1.10053 0
M  V30 9606 C 920.173 -4.37773 -0.69783 0
M  V30 9607 H 917.393 -0.669217 0.0488896 0
M  V30 9608 H 919.937 -1.89072 0.779235 0
M  V30 9609 H 918.092 -3.78474 -0.82679 0
M  V30 9610 H 918.506 -5.16677 0.902481 0
M  V30 9611 H 919.98 -5.46438 -0.781616 0
M  V30 9612 H 920.457 -4.04517 -1.71063 0
M  V30 9613 H 921.063 -4.25269 -0.0513516 0
M  V30 9614 N 919.378 -0.300708 -1.54705 0
M  V30 9615 C 920.606 0.31127 -2.04545 0
M  V30 9616 C 921.021 1.47542 -1.178 0
M  V30 9617 O 920.378 1.81361 -0.203571 0
M  V30 9618 C 920.429 0.767783 -3.53253 0
M  V30 9619 O 920.15 -0.350027 -4.36699 0
M  V30 9620 C 921.651 1.44494 -4.1909 0
M  V30 9621 H 918.871 0.067668 -0.667579 0
M  V30 9622 H 921.415 -0.440254 -1.99705 0
M  V30 9623 H 919.57 1.46933 -3.58454 0
M  V30 9624 H 919.984 0.00534038 -5.245 0
M  V30 9625 H 921.458 1.71553 -5.24665 0
M  V30 9626 H 921.935 2.3849 -3.68808 0
M  V30 9627 H 922.541 0.786581 -4.17963 0
M  V30 9628 N 920.856 1.57574 -0.0284266 0
M  V30 9629 C 922.272 1.56194 0.327958 0
M  V30 9630 C 922.472 1.03397 1.72949 0
M  V30 9631 O 921.528 0.680392 2.4316 0
M  V30 9632 C 922.841 3.00177 0.177196 0
M  V30 9633 C 924.389 3.12 0.250014 0
M  V30 9634 C 924.864 4.57821 0.128049 0
M  V30 9635 N 926.355 4.6283 0.185054 0
M  V30 9636 C 927.09 5.73286 0.114454 0
M  V30 9637 N 926.586 6.928 -0.00719225 0
M  V30 9638 N 928.379 5.61848 0.16839 0
M  V30 9639 H 920.53 1.90224 -0.944921 0
M  V30 9640 H 922.793 0.874987 -0.364832 0
M  V30 9641 H 922.499 3.42753 -0.788224 0
M  V30 9642 H 922.373 3.65101 0.94768 0
M  V30 9643 H 924.76 2.69337 1.20589 0
M  V30 9644 H 924.841 2.49799 -0.550835 0
M  V30 9645 H 924.485 5.01165 -0.824407 0
M  V30 9646 H 924.415 5.18001 0.947753 0
M  V30 9647 H 926.906 3.76867 0.279247 0
M  V30 9648 H 927.219 7.72781 -0.0543903 0
M  V30 9649 H 925.564 6.94987 -0.0419648 0
M  V30 9650 H 928.755 4.67367 0.261821 0
M  V30 9651 H 928.928 6.47907 0.109908 0
M  V30 9652 N 922.334 -0.244713 1.55689 0
M  V30 9653 C 923.75 -0.593331 1.48161 0
M  V30 9654 C 923.95 -1.88234 0.719047 0
M  V30 9655 O 923.006 -2.51266 0.249292 0
M  V30 9656 C 924.319 -0.694032 2.92581 0
M  V30 9657 C 925.867 -0.786213 3.02965 0
M  V30 9658 C 926.342 -0.918457 4.48696 0
M  V30 9659 N 927.833 -0.983272 4.52643 0
M  V30 9660 C 928.568 -1.1049 5.62654 0
M  V30 9661 N 928.064 -1.19193 6.8247 0
M  V30 9662 N 929.857 -1.13823 5.50455 0
M  V30 9663 H 922.008 0.601446 2.03707 0
M  V30 9664 H 924.271 0.207894 0.924924 0
M  V30 9665 H 923.977 0.183133 3.51223 0
M  V30 9666 H 923.851 -1.56525 3.4319 0
M  V30 9667 H 926.238 -1.65383 2.44402 0
M  V30 9668 H 926.319 0.110202 2.55563 0
M  V30 9669 H 925.963 -0.0553881 5.0787 0
M  V30 9670 H 925.893 -1.82994 4.93782 0
M  V30 9671 H 928.384 -0.927269 3.66347 0
M  V30 9672 H 928.697 -1.28387 7.62061 0
M  V30 9673 H 927.042 -1.16147 6.85226 0
M  V30 9674 H 930.233 -1.06673 4.55783 0
M  V30 9675 H 930.406 -1.22957 6.36228 0
M  V30 9676 N 923.813 -1.49104 -0.510467 0
M  V30 9677 C 925.053 -1.59723 -1.27545 0
M  V30 9678 C 925.417 -0.273525 -1.90042 0
M  V30 9679 O 926.618 -0.254835 -2.67589 0
M  V30 9680 C 924.889 -2.71771 -2.3211 0
M  V30 9681 S 926.448 -3.02282 -3.18074 0
M  V30 9682 H 923.266 -0.563489 -0.433591 0
M  V30 9683 H 925.868 -1.86719 -0.579328 0
M  V30 9684 H 924.572 -3.66483 -1.84711 0
M  V30 9685 H 924.103 -2.46739 -3.06404 0
M  V30 9686 H 926.118 -2.43076 -4.32583 0
M  V30 9687 N 925.291 0.760815 -1.38019 0
M  V30 9688 C 926.254 1.85604 -1.34476 0
M  V30 9689 C 927.254 1.58897 -0.24666 0
M  V30 9690 O 928.444 1.66776 -0.50314 0
M  V30 9691 C 925.576 3.22945 -1.09176 0
M  V30 9692 H 926.769 1.90155 -2.31908 0
M  V30 9693 H 924.322 0.961746 -1.23208 0
M  V30 9694 H 925.057 3.24066 -0.123216 0
M  V30 9695 H 924.842 3.43723 -1.88672 0
M  V30 9696 H 926.332 4.03022 -1.09375 0
M  V30 9697 N 926.769 1.22769 0.988202 0
M  V30 9698 C 928.017 1.05301 1.725 0
M  V30 9699 C 928.338 -0.412103 1.90596 0
M  V30 9700 O 927.608 -1.29606 1.46898 0
M  V30 9701 H 926.188 0.386658 0.639144 0
M  V30 9702 H 928.85 1.54359 1.18993 0
M  V30 9703 H 927.946 1.53465 2.71763 0
M  V30 9704 N 928.247 -1.18576 1.03814 0
M  V30 9705 C 929.658 -1.70159 0.768299 0
M  V30 9706 C 930.009 -1.8286 -0.711106 0
M  V30 9707 O 929.134 -1.5063 -1.55369 0
M  V30 9708 C 929.729 -3.09062 1.38804 0
M  V30 9709 C 928.288 -3.57866 1.16656 0
M  V30 9710 C 927.435 -2.34484 1.48029 0
M  V30 9711 H 930.386 -1.03287 1.20488 0
M  V30 9712 H 930.407 -3.72211 0.7899 0
M  V30 9713 H 929.919 -2.99785 2.46476 0
M  V30 9714 H 928.02 -3.72442 0.108471 0
M  V30 9715 H 928.133 -4.41445 1.8618 0
M  V30 9716 H 926.497 -2.38273 0.899902 0
M  V30 9717 H 927.28 -2.27829 2.56805 0
M  V30 9718 N 929.725 -0.817259 -1.34754 0
M  V30 9719 C 930.95 -0.414423 -2.03217 0
M  V30 9720 C 931.375 0.970037 -1.61158 0
M  V30 9721 O 930.733 1.63016 -0.793436 0
M  V30 9722 C 930.781 -0.518087 -3.56859 0
M  V30 9723 O 929.885 0.464314 -4.09778 0
M  V30 9724 H 929.226 -0.171454 -0.641482 0
M  V30 9725 H 931.756 -1.10611 -1.72123 0
M  V30 9726 H 931.766 -0.391779 -4.06115 0
M  V30 9727 H 930.441 -1.52786 -3.86819 0
M  V30 9728 H 929.018 0.297361 -3.71712 0
M  V30 9729 N 931.203 1.46865 -0.571711 0
M  V30 9730 C 932.151 2.31897 0.180714 0
M  V30 9731 C 933.145 1.43815 0.895191 0
M  V30 9732 O 934.351 1.60501 0.814828 0
M  V30 9733 H 930.726 0.748032 0.077148 0
M  V30 9734 H 932.697 2.93185 -0.555432 0
M  V30 9735 C 931.446 3.26766 1.18824 0
M  V30 9736 H 930.769 3.94515 0.64789 0
M  V30 9737 H 932.209 3.89067 1.68532 0
M  V30 9738 C 930.668 2.51325 2.2436 0
M  V30 9739 O 931.198 2.26825 3.31532 0
M  V30 9740 N 929.404 2.12079 1.98673 0
M  V30 9741 H 928.951 2.32204 1.1153 0
M  V30 9742 H 928.909 1.61921 2.69498 0
M  V30 9743 N 932.681 0.308908 1.54543 0
M  V30 9744 C 933.906 -0.303196 2.05172 0
M  V30 9745 C 934.331 -1.46133 1.18434 0
M  V30 9746 O 933.689 -1.803 0.190162 0
M  V30 9747 C 933.737 -0.729526 3.53143 0
M  V30 9748 O 932.841 -1.83348 3.69401 0
M  V30 9749 H 932.182 -0.0575066 0.661505 0
M  V30 9750 H 934.712 0.453055 1.99521 0
M  V30 9751 H 934.722 -1.01619 3.95143 0
M  V30 9752 H 933.397 0.117622 4.15734 0
M  V30 9753 H 931.974 -1.54676 3.39308 0
M  V30 9754 N 934.159 -1.57557 0.0367827 0
M  V30 9755 C 935.092 -2.06205 -0.977479 0
M  V30 9756 C 936.07 -0.959444 -1.31276 0
M  V30 9757 O 937.254 -1.23033 -1.42811 0
M  V30 9758 C 934.381 -2.49053 -2.29544 0
M  V30 9759 C 933.427 -3.70409 -2.11423 0
M  V30 9760 S 934.26 -5.16715 -1.40593 0
M  V30 9761 C 935.416 -5.62864 -2.73742 0
M  V30 9762 H 935.649 -2.91913 -0.5634 0
M  V30 9763 H 933.182 -1.53404 -0.175111 0
M  V30 9764 H 935.14 -2.74403 -3.05308 0
M  V30 9765 H 933.801 -1.63677 -2.68083 0
M  V30 9766 H 932.994 -3.98262 -3.08875 0
M  V30 9767 H 932.596 -3.4525 -1.438 0
M  V30 9768 H 934.888 -5.67571 -3.69958 0
M  V30 9769 H 935.831 -6.62294 -2.50544 0
M  V30 9770 H 936.239 -4.90539 -2.79341 0
M  V30 9771 N 935.637 0.236453 -1.55816 0
M  V30 9772 C 936.569 1.31602 -1.87653 0
M  V30 9773 C 937.582 1.43782 -0.763584 0
M  V30 9774 O 938.771 1.44945 -1.04178 0
M  V30 9775 C 935.871 2.69342 -2.05689 0
M  V30 9776 C 935.044 2.79298 -3.36617 0
M  V30 9777 C 934.103 3.97952 -3.44268 0
M  V30 9778 O 933.129 3.86989 -4.17406 0
M  V30 9779 N 934.331 5.11594 -2.74321 0
M  V30 9780 H 937.096 1.04623 -2.80845 0
M  V30 9781 H 934.657 0.426534 -1.5618 0
M  V30 9782 H 936.649 3.47074 -2.08138 0
M  V30 9783 H 935.219 2.88984 -1.19192 0
M  V30 9784 H 934.439 1.8816 -3.46395 0
M  V30 9785 H 935.727 2.82908 -4.22895 0
M  V30 9786 H 935.125 5.23394 -2.14651 0
M  V30 9787 H 933.682 5.87422 -2.8245 0
M  V30 9788 N 937.115 1.49373 0.502552 0
M  V30 9789 C 938.045 1.68839 1.61294 0
M  V30 9790 C 939.026 0.537096 1.61398 0
M  V30 9791 O 940.211 0.772764 1.78163 0
M  V30 9792 C 937.341 1.75347 2.99784 0
M  V30 9793 C 936.295 2.90251 3.14545 0
M  V30 9794 C 935.621 2.8187 4.54371 0
M  V30 9795 C 936.921 4.31207 2.94717 0
M  V30 9796 H 938.615 2.61803 1.45257 0
M  V30 9797 H 936.161 1.25987 0.697371 0
M  V30 9798 H 938.114 1.87552 3.77362 0
M  V30 9799 H 936.838 0.789814 3.16906 0
M  V30 9800 H 935.497 2.77646 2.39392 0
M  V30 9801 H 935.145 1.83416 4.68367 0
M  V30 9802 H 934.845 3.5899 4.65188 0
M  V30 9803 H 936.369 2.96081 5.34012 0
M  V30 9804 H 937.783 4.44501 3.62065 0
M  V30 9805 H 936.18 5.09536 3.17007 0
M  V30 9806 H 937.25 4.45759 1.90857 0
M  V30 9807 N 938.594 -0.753485 1.38421 0
M  V30 9808 C 939.557 -1.84888 1.35459 0
M  V30 9809 C 940.557 -1.58764 0.255083 0
M  V30 9810 O 941.747 -1.66507 0.511978 0
M  V30 9811 C 938.879 -3.22361 1.10888 0
M  V30 9812 H 940.072 -1.88922 2.32913 0
M  V30 9813 H 937.625 -0.955199 1.23716 0
M  V30 9814 H 938.36 -3.23996 0.1404 0
M  V30 9815 H 938.145 -3.42717 1.90492 0
M  V30 9816 H 939.635 -4.02437 1.1151 0
M  V30 9817 N 940.072 -1.23292 -0.981677 0
M  V30 9818 C 941.297 -1.09176 -1.76339 0
M  V30 9819 C 941.722 0.352726 -1.84763 0
M  V30 9820 O 941.08 1.25509 -1.30832 0
M  V30 9821 C 941.128 -1.72046 -3.16911 0
M  V30 9822 O 940.232 -0.98174 -4.00544 0
M  V30 9823 H 939.573 -0.382755 -0.542581 0
M  V30 9824 H 942.103 -1.63319 -1.23239 0
M  V30 9825 H 942.113 -1.77232 -3.67495 0
M  V30 9826 H 940.788 -2.77154 -3.10095 0
M  V30 9827 H 939.365 -1.00672 -3.59054 0
M  V30 9828 N 941.55 1.18024 -1.04442 0
M  V30 9829 C 942.966 1.40107 -0.76435 0
M  V30 9830 C 943.166 1.90914 0.644516 0
M  V30 9831 O 942.222 2.0959 1.40813 0
M  V30 9832 C 943.535 2.39851 -1.81361 0
M  V30 9833 C 945.083 2.53571 -1.83496 0
M  V30 9834 C 945.558 3.56583 -2.87424 0
M  V30 9835 N 947.049 3.64094 -2.86339 0
M  V30 9836 C 947.784 4.43537 -3.63405 0
M  V30 9837 N 947.28 5.26557 -4.50233 0
M  V30 9838 N 949.073 4.38336 -3.51877 0
M  V30 9839 H 941.224 0.833726 -1.95353 0
M  V30 9840 H 943.487 0.42881 -0.845474 0
M  V30 9841 H 943.193 2.09576 -2.82438 0
M  V30 9842 H 943.067 3.39251 -1.6489 0
M  V30 9843 H 945.454 2.83161 -0.830883 0
M  V30 9844 H 945.535 1.54272 -2.04044 0
M  V30 9845 H 945.179 3.27733 -3.88012 0
M  V30 9846 H 945.109 4.55569 -2.6413 0
M  V30 9847 H 947.6 3.04814 -2.23376 0
M  V30 9848 H 947.913 5.84336 -5.05738 0
M  V30 9849 H 946.258 5.25964 -4.54298 0
M  V30 9850 H 949.449 3.72528 -2.83444 0
M  V30 9851 H 949.622 5.00007 -4.12186 0
M  V30 9852 N 943.028 0.824394 1.34319 0
M  V30 9853 C 944.253 0.425194 2.02995 0
M  V30 9854 C 944.678 -0.961476 1.6167 0
M  V30 9855 O 944.036 -1.62593 0.80207 0
M  V30 9856 C 944.084 0.537004 3.56579 0
M  V30 9857 O 943.188 -0.442576 4.10018 0
M  V30 9858 H 942.529 0.174853 0.640564 0
M  V30 9859 H 945.059 1.11522 1.71534 0
M  V30 9860 H 945.069 0.413311 4.05901 0
M  V30 9861 H 943.744 1.54836 3.86004 0
M  V30 9862 H 942.321 -0.277644 3.71865 0
M  V30 9863 N 944.506 -1.46559 0.579492 0
M  V30 9864 C 945.469 -2.28739 -0.145371 0
M  V30 9865 C 946.469 -1.38211 -0.821854 0
M  V30 9866 O 947.659 -1.6062 -0.674302 0
M  V30 9867 C 944.791 -3.18507 -1.21515 0
M  V30 9868 H 945.984 -2.94301 0.576786 0
M  V30 9869 H 943.537 -1.52616 0.337327 0
M  V30 9870 H 944.272 -2.57685 -1.96899 0
M  V30 9871 H 944.057 -3.85157 -0.734616 0
M  V30 9872 H 945.547 -3.80369 -1.72363 0
M  V30 9873 N 945.984 -0.3171 -1.54377 0
M  V30 9874 C 947.232 0.286842 -2.00054 0
M  V30 9875 C 947.553 1.53161 -1.20692 0
M  V30 9876 O 946.823 1.93479 -0.307045 0
M  V30 9877 H 945.403 0.108979 -0.739008 0
M  V30 9878 H 948.065 -0.432152 -1.90049 0
M  V30 9879 H 947.161 0.547729 -3.07256 0
M  V30 9880 N 947.462 1.57535 -0.0451378 0
M  V30 9881 C 948.372 2.14653 0.946646 0
M  V30 9882 C 949.388 1.10279 1.3459 0
M  V30 9883 O 950.564 1.42417 1.42405 0
M  V30 9884 C 947.629 2.67533 2.20515 0
M  V30 9885 C 946.69 3.86682 1.86481 0
M  V30 9886 C 945.923 4.37031 3.06332 0
M  V30 9887 O 946.146 3.86481 4.1951 0
M  V30 9888 O 945.08 5.28691 2.87697 0
M  V30 9889 H 948.906 2.99706 0.49091 0
M  V30 9890 H 946.491 1.48355 0.17641 0
M  V30 9891 H 948.373 3.01542 2.94365 0
M  V30 9892 H 947.048 1.85554 2.65238 0
M  V30 9893 H 945.955 3.57573 1.09966 0
M  V30 9894 H 947.288 4.69873 1.46562 0
M  V30 9895 N 948.94 -0.228186 1.55939 0
M  V30 9896 C 949.87 -1.28607 1.94891 0
M  V30 9897 C 950.851 -1.49236 0.816245 0
M  V30 9898 O 952.036 -1.61531 1.07803 0
M  V30 9899 C 949.166 -2.63719 2.25986 0
M  V30 9900 C 948.12 -2.57757 3.4168 0
M  V30 9901 C 947.446 -3.96837 3.58364 0
M  V30 9902 C 948.746 -2.13116 4.76843 0
M  V30 9903 H 950.44 -0.962531 2.83506 0
M  V30 9904 H 947.986 -0.461577 1.36402 0
M  V30 9905 H 949.939 -3.37878 2.51826 0
M  V30 9906 H 948.663 -2.97747 1.34217 0
M  V30 9907 H 947.322 -1.86055 3.15878 0
M  V30 9908 H 946.97 -4.28162 2.63982 0
M  V30 9909 H 946.67 -3.93731 4.36176 0
M  V30 9910 H 948.194 -4.72668 3.86545 0
M  V30 9911 H 949.608 -2.77015 5.01932 0
M  V30 9912 H 948.005 -2.21083 5.57891 0
M  V30 9913 H 949.075 -1.08326 4.72645 0
M  V30 9914 N 950.418 -1.49637 -0.494624 0
M  V30 9915 C 951.664 -1.59681 -1.25019 0
M  V30 9916 C 951.997 -0.285511 -1.9209 0
M  V30 9917 O 951.272 0.711398 -1.81023 0
M  V30 9918 C 951.555 -2.76058 -2.31222 0
M  V30 9919 C 951.408 -4.17002 -1.68611 0
M  V30 9920 C 952.727 -2.88056 -3.32734 0
M  V30 9921 H 949.846 -0.581209 -0.453172 0
M  V30 9922 H 952.488 -1.81944 -0.547391 0
M  V30 9923 H 950.638 -2.57207 -2.91164 0
M  V30 9924 H 952.31 -4.47385 -1.12447 0
M  V30 9925 H 950.553 -4.22352 -0.989991 0
M  V30 9926 H 951.224 -4.94316 -2.45674 0
M  V30 9927 H 953.7 -3.05237 -2.82789 0
M  V30 9928 H 952.576 -3.71151 -4.04399 0
M  V30 9929 H 952.837 -1.97676 -3.95445 0
M  V30 9930 N 951.896 0.746133 -1.38819 0
M  V30 9931 C 952.806 1.89063 -1.38897 0
M  V30 9932 C 953.822 1.71648 -0.28513 0
M  V30 9933 O 954.998 1.94443 -0.524783 0
M  V30 9934 C 952.063 3.24523 -1.22007 0
M  V30 9935 C 951.124 3.54411 -2.42263 0
M  V30 9936 C 950.357 4.83408 -2.26169 0
M  V30 9937 O 950.58 5.56325 -1.25931 0
M  V30 9938 O 949.514 5.12943 -3.14918 0
M  V30 9939 H 953.34 1.91951 -2.35347 0
M  V30 9940 H 950.925 0.892433 -1.19816 0
M  V30 9941 H 952.807 4.05496 -1.14677 0
M  V30 9942 H 951.482 3.2243 -0.286455 0
M  V30 9943 H 950.389 2.73569 -2.55168 0
M  V30 9944 H 951.722 3.61273 -3.3428 0
M  V30 9945 N 953.375 1.23811 0.975125 0
M  V30 9946 C 954.6 1.10109 1.75757 0
M  V30 9947 C 955.025 -0.342922 1.84948 0
M  V30 9948 O 954.383 -1.24814 1.31496 0
M  V30 9949 C 954.431 1.73724 3.15994 0
M  V30 9950 O 953.535 1.00297 4.00018 0
M  V30 9951 H 952.876 0.385627 0.540544 0
M  V30 9952 H 955.406 1.63971 1.22372 0
M  V30 9953 H 955.416 1.79178 3.6655 0
M  V30 9954 H 954.091 2.78794 3.0862 0
M  V30 9955 H 952.668 1.02575 3.58515 0
M  V30 9956 N 954.853 -1.17469 1.05066 0
M  V30 9957 C 955.783 -2.23635 0.671552 0
M  V30 9958 C 956.764 -1.66867 -0.33006 0
M  V30 9959 O 957.949 -1.93084 -0.207933 0
M  V30 9960 C 955.079 -3.47272 0.0441845 0
M  V30 9961 C 954.033 -4.16854 0.97042 0
M  V30 9962 C 953.359 -5.34299 0.206998 0
M  V30 9963 C 954.659 -4.69225 2.29401 0
M  V30 9964 H 956.353 -2.55602 1.55911 0
M  V30 9965 H 953.899 -1.2286 0.751101 0
M  V30 9966 H 955.852 -4.20756 -0.23282 0
M  V30 9967 H 954.576 -3.14568 -0.878311 0
M  V30 9968 H 953.235 -3.4528 1.23197 0
M  V30 9969 H 952.883 -4.97846 -0.718222 0
M  V30 9970 H 952.583 -5.81792 0.82416 0
M  V30 9971 H 954.107 -6.10568 -0.0627525 0
M  V30 9972 H 955.521 -5.34353 2.077 0
M  V30 9973 H 953.918 -5.27291 2.86503 0
M  V30 9974 H 954.988 -3.86102 2.93348 0
M  V30 9975 N 956.331 -0.831506 -1.3388 0
M  V30 9976 C 957.278 -0.257449 -2.2936 0
M  V30 9977 C 958.248 0.622604 -1.5399 0
M  V30 9978 O 959.433 0.562432 -1.82322 0
M  V30 9979 C 956.573 0.567587 -3.404 0
M  V30 9980 C 955.686 -0.335666 -4.30694 0
M  V30 9981 C 954.821 0.499762 -5.28844 0
M  V30 9982 C 953.86 -0.402343 -6.10776 0
M  V30 9983 N 952.997 0.39452 -7.00991 0
M  V30 9984 H 957.837 -1.077 -2.77857 0
M  V30 9985 H 955.374 -0.542589 -1.36727 0
M  V30 9986 H 957.332 1.06133 -4.03474 0
M  V30 9987 H 955.962 1.35217 -2.93115 0
M  V30 9988 H 955.014 -0.94768 -3.68406 0
M  V30 9989 H 956.326 -1.02896 -4.88072 0
M  V30 9990 H 955.48 1.05763 -5.9741 0
M  V30 9991 H 954.219 1.22652 -4.72025 0
M  V30 9992 H 953.224 -0.972288 -5.41135 0
M  V30 9993 H 954.449 -1.12735 -6.69677 0
M  V30 9994 H 952.395 1.1048 -6.4663 0
M  V30 9995 H 952.312 -0.240209 -7.55618 0
M  V30 9996 H 953.58 0.934867 -7.73874 0
M  V30 9997 N 957.809 1.4625 -0.587256 0
M  V30 9998 C 958.739 2.33132 0.131076 0
M  V30 9999 C 959.72 1.45619 0.879158 0
M  V30 10000 O 960.905 1.74428 0.853723 0
M  V30 10001 C 958.035 3.27975 1.14236 0
M  V30 10002 C 956.989 4.24965 0.508819 0
M  V30 10003 C 956.315 5.09349 1.62689 0
M  V30 10004 C 957.615 5.19322 -0.55694 0
M  V30 10005 H 959.309 2.93442 -0.594333 0
M  V30 10006 H 956.855 1.41106 -0.287263 0
M  V30 10007 H 958.808 3.87614 1.65328 0
M  V30 10008 H 957.532 2.65781 1.8981 0
M  V30 10009 H 956.191 3.66595 0.0189337 0
M  V30 10010 H 955.839 4.43537 2.37242 0
M  V30 10011 H 955.539 5.75036 1.20861 0
M  V30 10012 H 957.063 5.71852 2.14049 0
M  V30 10013 H 958.477 5.73151 -0.130903 0
M  V30 10014 H 956.874 5.93376 -0.895801 0
M  V30 10015 H 957.944 4.62979 -1.44148 0
M  V30 10016 N 959.287 0.325282 1.54207 0
M  V30 10017 C 960.22 -0.582485 2.20641 0
M  V30 10018 C 961.198 -1.11441 1.18405 0
M  V30 10019 O 962.382 -1.17809 1.4715 0
M  V30 10020 C 959.509 -1.79944 2.86946 0
M  V30 10021 C 958.555 -1.39861 4.02916 0
M  V30 10022 S 959.388 -0.433859 5.3374 0
M  V30 10023 C 960.544 -1.65806 6.03539 0
M  V30 10024 H 960.777 -0.0181601 2.97294 0
M  V30 10025 H 958.31 0.109365 1.54012 0
M  V30 10026 H 960.268 -2.4977 3.25769 0
M  V30 10027 H 958.929 -2.33495 2.10092 0
M  V30 10028 H 958.122 -2.30547 4.48179 0
M  V30 10029 H 957.724 -0.780036 3.65775 0
M  V30 10030 H 960.016 -2.59524 6.25822 0
M  V30 10031 H 960.959 -1.24756 6.97023 0
M  V30 10032 H 961.367 -1.84581 5.3347 0
M  V30 10033 N 960.765 -1.57509 0.0534917 0
M  V30 10034 C 961.99 -1.97511 -0.632794 0
M  V30 10035 C 962.415 -0.930947 -1.63447 0
M  V30 10036 O 961.773 0.105558 -1.80992 0
M  V30 10037 C 961.821 -3.3658 -1.29407 0
M  V30 10038 O 960.925 -3.3467 -2.40977 0
M  V30 10039 H 960.266 -0.643349 -0.16431 0
M  V30 10040 H 962.796 -2.04232 0.12258 0
M  V30 10041 H 962.806 -3.73359 -1.64521 0
M  V30 10042 H 961.481 -4.12113 -0.559976 0
M  V30 10043 H 960.058 -3.09639 -2.07793 0
M  V30 10044 N 962.243 0.219913 -1.56058 0
M  V30 10045 C 963.173 1.27572 -1.9557 0
M  V30 10046 C 964.154 1.48801 -0.824148 0
M  V30 10047 O 965.339 1.60957 -1.08658 0
M  V30 10048 C 962.469 2.62517 -2.27381 0
M  V30 10049 C 961.423 2.55941 -3.43042 0
M  V30 10050 C 960.749 3.94931 -3.60463 0
M  V30 10051 C 962.049 2.10584 -4.77966 0
M  V30 10052 H 963.743 0.947482 -2.84013 0
M  V30 10053 H 961.289 0.454337 -1.36645 0
M  V30 10054 H 963.242 3.36538 -2.53615 0
M  V30 10055 H 961.966 2.97031 -1.35794 0
M  V30 10056 H 960.625 1.84377 -3.1686 0
M  V30 10057 H 960.273 4.26756 -2.66249 0
M  V30 10058 H 959.973 3.91413 -4.38258 0
M  V30 10059 H 961.497 4.70611 -3.89046 0
M  V30 10060 H 962.911 2.74349 -5.03394 0
M  V30 10061 H 961.308 2.18122 -5.59055 0
M  V30 10062 H 962.378 1.05818 -4.73213 0
M  V30 10063 N 963.721 1.49897 0.486681 0
M  V30 10064 C 964.961 1.61732 1.24988 0
M  V30 10065 C 965.325 0.303724 1.89582 0
M  V30 10066 O 966.526 0.297373 2.6715 0
M  V30 10067 C 964.797 2.75429 2.27757 0
M  V30 10068 S 966.356 3.07304 3.13225 0
M  V30 10069 H 963.174 0.570316 0.424571 0
M  V30 10070 H 965.776 1.87617 0.549549 0
M  V30 10071 H 964.48 3.69376 1.78857 0
M  V30 10072 H 964.011 2.51582 3.0244 0
M  V30 10073 H 966.026 2.49928 4.28661 0
M  V30 10074 N 965.199 -0.738761 1.39212 0
M  V30 10075 C 966.129 -1.86602 1.40364 0
M  V30 10076 C 967.11 -1.67984 0.267495 0
M  V30 10077 O 968.295 -1.88358 0.472765 0
M  V30 10078 C 965.425 -3.24308 1.24265 0
M  V30 10079 C 964.379 -3.57557 2.35239 0
M  V30 10080 C 963.705 -4.94159 2.04233 0
M  V30 10081 C 965.005 -3.60914 3.77543 0
M  V30 10082 H 966.699 -1.85896 2.34698 0
M  V30 10083 H 964.245 -0.892959 1.1297 0
M  V30 10084 H 966.198 -4.02838 1.23692 0
M  V30 10085 H 964.922 -3.25531 0.263974 0
M  V30 10086 H 963.581 -2.81354 2.35022 0
M  V30 10087 H 963.229 -4.91959 1.04813 0
M  V30 10088 H 962.929 -5.17373 2.78567 0
M  V30 10089 H 964.453 -5.7505 2.05303 0
M  V30 10090 H 965.867 -4.29528 3.79709 0
M  V30 10091 H 964.264 -3.95644 4.51205 0
M  V30 10092 H 965.334 -2.60803 4.08791 0
M  V30 10093 N 966.677 -1.24326 -0.968545 0
M  V30 10094 C 967.925 -1.08032 -1.70803 0
M  V30 10095 C 968.246 0.381728 -1.91227 0
M  V30 10096 O 967.516 1.27253 -1.48942 0
M  V30 10097 H 966.096 -0.396777 -0.632912 0
M  V30 10098 H 968.758 -1.56232 -1.16523 0
M  V30 10099 H 967.854 -1.57769 -2.69287 0
M  V30 10100 N 968.156 1.1691 -1.05688 0
M  V30 10101 C 969.381 1.91745 -0.790478 0
M  V30 10102 C 969.806 1.76568 0.648478 0
M  V30 10103 O 969.164 1.08682 1.45114 0
M  V30 10104 C 969.212 3.4067 -1.18222 0
M  V30 10105 O 968.316 4.11177 -0.317341 0
M  V30 10106 H 967.657 0.5976 -0.28943 0
M  V30 10107 H 970.187 1.48157 -1.41105 0
M  V30 10108 H 970.197 3.91424 -1.15114 0
M  V30 10109 H 968.872 3.51036 -2.2304 0
M  V30 10110 H 967.449 3.70645 -0.409459 0
M  V30 10111 N 969.634 0.838594 1.33437 0
M  V30 10112 C 970.566 0.229006 2.28053 0
M  V30 10113 C 971.579 -0.590103 1.51729 0
M  V30 10114 O 972.768 -0.417218 1.73556 0
M  V30 10115 C 969.868 -0.696251 3.31671 0
M  V30 10116 C 969.041 0.0834606 4.3732 0
M  V30 10117 C 968.1 -0.765097 5.20608 0
M  V30 10118 O 967.126 -0.2044 5.68833 0
M  V30 10119 N 968.328 -2.08249 5.4186 0
M  V30 10120 H 971.093 1.04196 2.81004 0
M  V30 10121 H 968.654 0.697031 1.46127 0
M  V30 10122 H 970.646 -1.26889 3.84293 0
M  V30 10123 H 969.216 -1.40992 2.78998 0
M  V30 10124 H 968.436 0.837481 3.85201 0
M  V30 10125 H 969.724 0.619613 5.05013 0
M  V30 10126 H 969.122 -2.56156 5.04381 0
M  V30 10127 H 967.679 -2.60362 5.97541 0
M  V30 10128 N 971.112 -1.45937 0.595003 0
M  V30 10129 C 972.042 -2.33198 -0.11871 0
M  V30 10130 C 973.023 -1.46083 -0.871423 0
M  V30 10131 O 974.208 -1.74879 -0.844461 0
M  V30 10132 C 971.338 -3.28576 -1.12495 0
M  V30 10133 C 970.292 -4.25229 -0.486275 0
M  V30 10134 C 969.618 -5.10204 -1.59986 0
M  V30 10135 C 970.918 -5.19019 0.584473 0
M  V30 10136 H 972.612 -2.93122 0.609886 0
M  V30 10137 H 970.158 -1.40951 0.294742 0
M  V30 10138 H 972.111 -3.88485 -1.6327 0
M  V30 10139 H 970.835 -2.66784 -1.88398 0
M  V30 10140 H 969.494 -3.666 0.000507962 0
M  V30 10141 H 969.142 -4.44789 -2.34886 0
M  V30 10142 H 968.842 -5.75669 -1.1781 0
M  V30 10143 H 970.366 -5.7298 -2.11014 0
M  V30 10144 H 971.78 -5.73073 0.161297 0
M  V30 10145 H 970.177 -5.92893 0.927256 0
M  V30 10146 H 971.247 -4.62208 1.46601 0
M  V30 10147 N 972.59 -0.333456 -1.54032 0
M  V30 10148 C 973.54 0.543745 -2.21421 0
M  V30 10149 C 974.524 1.07396 -1.19812 0
M  V30 10150 O 975.716 1.00934 -1.45401 0
M  V30 10151 C 972.845 1.69925 -2.98296 0
M  V30 10152 C 971.931 1.18345 -4.07253 0
M  V30 10153 N 972.322 0.388098 -5.04309 0
M  V30 10154 C 970.62 1.46128 -4.21382 0
M  V30 10155 C 971.321 0.109383 -5.81597 0
M  V30 10156 N 970.297 0.69825 -5.39097 0
M  V30 10157 H 974.099 -0.0711018 -2.93814 0
M  V30 10158 H 971.613 -0.139807 -1.61797 0
M  V30 10159 H 973.61 2.33954 -3.45067 0
M  V30 10160 H 972.27 2.31747 -2.27428 0
M  V30 10161 H 973.281 0.0300645 -5.17891 0
M  V30 10162 H 969.958 2.08463 -3.61731 0
M  V30 10163 H 971.348 -0.531554 -6.69794 0
M  V30 10164 N 974.068 1.57479 -0.061844 0
M  V30 10165 C 975.316 1.92727 0.608336 0
M  V30 10166 C 975.637 0.941799 1.70749 0
M  V30 10167 O 974.907 -0.0116608 1.95897 0
M  V30 10168 H 973.487 0.71145 0.2277 0
M  V30 10169 H 976.149 1.94546 -0.117359 0
M  V30 10170 H 975.245 2.9426 1.04007 0
M  V30 10171 N 975.546 -0.211634 1.56173 0
M  V30 10172 C 976.771 -0.955324 1.84088 0
M  V30 10173 C 977.196 -1.76754 0.643407 0
M  V30 10174 O 976.554 -1.76653 -0.407842 0
M  V30 10175 C 976.602 -1.84063 3.10085 0
M  V30 10176 O 975.706 -2.9373 2.89476 0
M  V30 10177 H 975.047 -0.26996 0.606645 0
M  V30 10178 H 977.577 -0.221947 2.03393 0
M  V30 10179 H 977.587 -2.24852 3.40449 0
M  V30 10180 H 976.262 -1.24373 3.96868 0
M  V30 10181 H 974.839 -2.56816 2.7037 0
M  V30 10182 N 977.024 -1.50153 -0.478725 0
M  V30 10183 C 978.252 -1.64505 -1.25482 0
M  V30 10184 C 978.667 -0.325295 -1.85977 0
M  V30 10185 O 978.024 0.691885 -1.68876 0
M  V30 10186 C 978.075 -2.73052 -2.36906 0
M  V30 10187 O 977.796 -3.99911 -1.78894 0
M  V30 10188 C 979.297 -2.98309 -3.27912 0
M  V30 10189 H 976.517 -0.55318 -0.379781 0
M  V30 10190 H 979.061 -1.96329 -0.57229 0
M  V30 10191 H 977.216 -2.43944 -3.00949 0
M  V30 10192 H 977.63 -4.5988 -2.52211 0
M  V30 10193 H 979.104 -3.77942 -4.02323 0
M  V30 10194 H 979.581 -2.09082 -3.8624 0
M  V30 10195 H 980.187 -3.2892 -2.69614 0
M  V30 10196 N 978.502 0.731368 -1.39602 0
M  V30 10197 C 979.449 1.84541 -1.38612 0
M  V30 10198 C 980.419 1.64279 -0.245287 0
M  V30 10199 O 981.604 1.85635 -0.440954 0
M  V30 10200 C 978.744 3.22092 -1.23897 0
M  V30 10201 C 977.857 3.54034 -2.47555 0
M  V30 10202 C 976.992 4.81007 -2.25402 0
M  V30 10203 C 976.031 5.05804 -3.44716 0
M  V30 10204 N 975.168 6.23981 -3.21857 0
M  V30 10205 H 980.008 1.84722 -2.33841 0
M  V30 10206 H 977.545 0.902569 -1.16156 0
M  V30 10207 H 979.503 4.01499 -1.13376 0
M  V30 10208 H 978.133 3.2118 -0.322958 0
M  V30 10209 H 977.185 2.69301 -2.68665 0
M  V30 10210 H 978.497 3.68275 -3.36415 0
M  V30 10211 H 977.651 5.68401 -2.12143 0
M  V30 10212 H 976.39 4.68946 -1.33943 0
M  V30 10213 H 975.395 4.1687 -3.58468 0
M  V30 10214 H 976.62 5.19747 -4.37081 0
M  V30 10215 H 974.566 6.13202 -2.33065 0
M  V30 10216 H 974.483 6.38826 -4.04274 0
M  V30 10217 H 975.751 7.14205 -3.123 0
M  V30 10218 N 979.98 1.24838 0.961938 0
M  V30 10219 C 981.21 1.11709 1.73795 0
M  V30 10220 C 981.618 -0.33263 1.86253 0
M  V30 10221 O 980.961 -1.24101 1.35443 0
M  V30 10222 C 981.023 1.68959 3.17322 0
M  V30 10223 C 980.687 3.17895 3.28316 0
M  V30 10224 C 981.684 4.14975 3.13196 0
M  V30 10225 C 979.369 3.57966 3.52372 0
M  V30 10226 C 981.363 5.50107 3.21965 0
M  V30 10227 C 979.05 4.93237 3.60778 0
M  V30 10228 C 980.048 5.89116 3.45588 0
M  V30 10229 O 979.736 7.21927 3.53662 0
M  V30 10230 H 979.468 0.390726 0.551642 0
M  V30 10231 H 982.022 1.65541 1.21594 0
M  V30 10232 H 980.252 1.09567 3.70853 0
M  V30 10233 H 981.941 1.51036 3.76753 0
M  V30 10234 H 982.707 3.85359 2.94489 0
M  V30 10235 H 978.586 2.83837 3.63259 0
M  V30 10236 H 982.13 6.24924 3.10025 0
M  V30 10237 H 978.027 5.22522 3.79 0
M  V30 10238 H 978.795 7.29925 3.7034 0
M  V30 10239 N 981.458 -1.16348 1.06306 0
M  V30 10240 C 982.707 -1.8622 0.774909 0
M  V30 10241 C 983.02 -1.82598 -0.701245 0
M  V30 10242 O 984.226 -2.48051 -1.10377 0
M  V30 10243 C 982.682 -3.34182 1.33604 0
M  V30 10244 C 982.29 -3.46279 2.84245 0
M  V30 10245 C 984.034 -4.09309 1.12544 0
M  V30 10246 C 981.941 -4.88327 3.33602 0
M  V30 10247 H 980.871 -0.697574 0.286194 0
M  V30 10248 H 983.522 -1.31311 1.28179 0
M  V30 10249 H 981.904 -3.88698 0.756937 0
M  V30 10250 H 983.078 -3.01923 3.48108 0
M  V30 10251 H 981.393 -2.84585 3.03974 0
M  V30 10252 H 983.99 -5.14123 1.46909 0
M  V30 10253 H 984.333 -4.16251 0.0638129 0
M  V30 10254 H 984.866 -3.61032 1.67034 0
M  V30 10255 H 981.605 -4.86565 4.39244 0
M  V30 10256 H 981.125 -5.33307 2.74487 0
M  V30 10257 H 982.804 -5.57144 3.28937 0
M  V30 10258 N 982.937 -0.845659 -1.3299 0
M  V30 10259 C 984.186 -0.440928 -1.96822 0
M  V30 10260 C 984.499 1.00668 -1.67706 0
M  V30 10261 O 985.705 1.51641 -2.25205 0
M  V30 10262 C 984.161 -0.73752 -3.52262 0
M  V30 10263 C 983.769 -2.20026 -3.90247 0
M  V30 10264 C 985.513 -0.400072 -4.22611 0
M  V30 10265 C 983.42 -2.44054 -5.38694 0
M  V30 10266 H 982.35 -0.161148 -0.736578 0
M  V30 10267 H 985.001 -1.03519 -1.51513 0
M  V30 10268 H 983.383 -0.0728025 -3.95933 0
M  V30 10269 H 984.557 -2.90602 -3.57613 0
M  V30 10270 H 982.872 -2.50135 -3.32899 0
M  V30 10271 H 985.469 -0.557136 -5.3179 0
M  V30 10272 H 985.812 0.657547 -4.11074 0
M  V30 10273 H 986.345 -1.0203 -3.84493 0
M  V30 10274 H 983.084 -3.48407 -5.55241 0
M  V30 10275 H 982.604 -1.78047 -5.72765 0
M  V30 10276 H 984.283 -2.27549 -6.05665 0
M  V30 10277 N 984.415 1.45619 -0.602734 0
M  V30 10278 C 985.692 1.9558 -0.0282472 0
M  V30 10279 C 986.072 1.54523 1.43826 0
M  V30 10280 O 985.42 0.805456 2.13833 0
M  V30 10281 C 985.63 3.48298 -0.221263 0
M  V30 10282 C 986.978 4.24483 -0.0995249 0
M  V30 10283 O 988.002 3.55879 -0.151132 0
M  V30 10284 O 986.861 5.46497 0.0194454 0
M  V30 10285 H 983.955 0.826104 0.0384897 0
M  V30 10286 H 986.501 1.55808 -0.672456 0
M  V30 10287 H 985.273 3.71134 -1.23997 0
M  V30 10288 H 984.896 3.94948 0.458437 0
M  V30 10289 N 985.893 0.34162 1.53853 0
M  V30 10290 C 987.304 -0.14269 1.86154 0
M  V30 10291 C 987.655 -1.50151 1.2629 0
M  V30 10292 O 986.78 -2.08601 0.575735 0
M  V30 10293 C 987.375 -0.265691 3.37757 0
M  V30 10294 C 985.934 -0.694231 3.69942 0
M  V30 10295 C 985.081 0.173195 2.76759 0
M  V30 10296 H 988.032 0.561284 1.48443 0
M  V30 10297 H 988.053 -1.09352 3.64448 0
M  V30 10298 H 987.565 0.723424 3.81298 0
M  V30 10299 H 985.666 -1.69244 3.31945 0
M  V30 10300 H 985.779 -0.485461 4.76634 0
M  V30 10301 H 984.143 -0.35416 2.52226 0
M  V30 10302 H 984.926 1.15941 3.23129 0
M  V30 10303 N 987.371 -1.57444 0.0701946 0
M  V30 10304 C 988.303 -2.09611 -0.927142 0
M  V30 10305 C 989.316 -1.02791 -1.26245 0
M  V30 10306 O 990.505 -1.30309 -1.21992 0
M  V30 10307 C 987.605 -2.54015 -2.24342 0
M  V30 10308 C 986.778 -3.84389 -2.08719 0
M  V30 10309 C 985.837 -4.14904 -3.23638 0
M  V30 10310 O 984.863 -4.84528 -2.98699 0
M  V30 10311 N 986.065 -3.68322 -4.48686 0
M  V30 10312 H 988.83 -2.95803 -0.481753 0
M  V30 10313 H 986.391 -1.61487 -0.115572 0
M  V30 10314 H 988.383 -2.71492 -3.00124 0
M  V30 10315 H 986.953 -1.72969 -2.60385 0
M  V30 10316 H 986.173 -3.76308 -1.17415 0
M  V30 10317 H 987.461 -4.69729 -1.9553 0
M  V30 10318 H 986.859 -3.12073 -4.71834 0
M  V30 10319 H 985.416 -3.91002 -5.21499 0
M  V30 10320 N 988.849 0.203349 -1.56283 0
M  V30 10321 C 989.797 1.27157 -1.94766 0
M  V30 10322 C 990.791 1.4756 -0.832005 0
M  V30 10323 O 991.997 1.48519 -1.01696 0
M  V30 10324 H 988.372 0.426712 -0.61921 0
M  V30 10325 H 990.343 0.919921 -2.83866 0
M  V30 10326 C 989.092 2.6108 -2.29636 0
M  V30 10327 H 988.415 2.46193 -3.15006 0
M  V30 10328 H 989.855 3.34591 -2.60433 0
M  V30 10329 C 988.314 3.17456 -1.12799 0
M  V30 10330 O 988.844 3.99717 -0.398661 0
M  V30 10331 N 987.05 2.76084 -0.906975 0
M  V30 10332 H 986.597 2.09294 -1.50179 0
M  V30 10333 H 986.555 3.14143 -0.127005 0
M  V30 10334 N 990.327 1.50405 0.470755 0
M  V30 10335 C 991.575 1.61092 1.2204 0
M  V30 10336 C 991.896 0.313487 1.92464 0
M  V30 10337 O 991.166 -0.669043 1.84121 0
M  V30 10338 H 989.746 0.593618 0.45346 0
M  V30 10339 H 992.408 1.87184 0.542985 0
M  V30 10340 H 991.504 2.42222 1.96812 0
M  V30 10341 N 991.805 -0.723954 1.39988 0
M  V30 10342 C 992.735 -1.85103 1.42335 0
M  V30 10343 C 993.716 -1.6769 0.285297 0
M  V30 10344 O 994.901 -1.87846 0.492716 0
M  V30 10345 C 992.031 -3.22972 1.27697 0
M  V30 10346 C 990.985 -3.55041 2.39018 0
M  V30 10347 C 990.311 -4.91965 2.09462 0
M  V30 10348 C 991.611 -3.56889 3.8135 0
M  V30 10349 H 993.305 -1.83396 2.36656 0
M  V30 10350 H 990.851 -0.880926 1.13911 0
M  V30 10351 H 992.804 -4.01503 1.27958 0
M  V30 10352 H 991.528 -3.25233 0.298487 0
M  V30 10353 H 990.187 -2.78845 2.37993 0
M  V30 10354 H 989.835 -4.90819 1.10025 0
M  V30 10355 H 989.535 -5.14389 2.84038 0
M  V30 10356 H 991.059 -5.7284 2.11391 0
M  V30 10357 H 992.473 -4.25476 3.84243 0
M  V30 10358 H 990.87 -3.90836 4.55376 0
M  V30 10359 H 991.94 -2.56452 4.11534 0
M  V30 10360 N 993.283 -1.25346 -0.955304 0
M  V30 10361 C 994.508 -1.12892 -1.73983 0
M  V30 10362 C 994.933 0.313455 -1.8547 0
M  V30 10363 O 994.291 1.22706 -1.33465 0
M  V30 10364 C 994.339 -1.78729 -3.1319 0
M  V30 10365 O 993.443 -1.06648 -3.98372 0
M  V30 10366 H 992.784 -0.394178 -0.534341 0
M  V30 10367 H 995.314 -1.65897 -1.19747 0
M  V30 10368 H 995.324 -1.84987 -3.63653 0
M  V30 10369 H 993.999 -2.83669 -3.04146 0
M  V30 10370 H 992.576 -1.08266 -3.56837 0
M  V30 10371 N 994.761 1.15782 -1.06922 0
M  V30 10372 C 996.008 1.86465 -0.789752 0
M  V30 10373 C 996.336 1.82075 0.684022 0
M  V30 10374 O 995.591 1.23576 1.51748 0
M  V30 10375 C 995.89 3.35284 -1.2377 0
M  V30 10376 C 995.556 3.59871 -2.71668 0
M  V30 10377 C 994.218 3.6629 -3.12066 0
M  V30 10378 C 996.57 3.69929 -3.67154 0
M  V30 10379 C 993.898 3.80275 -4.46775 0
M  V30 10380 C 996.25 3.85436 -5.01619 0
M  V30 10381 C 994.914 3.901 -5.41644 0
M  V30 10382 H 994.184 0.682324 -0.288991 0
M  V30 10383 H 996.831 1.36861 -1.33945 0
M  V30 10384 H 995.136 3.87065 -0.607309 0
M  V30 10385 H 996.833 3.88371 -0.998431 0
M  V30 10386 H 993.423 3.55512 -2.39393 0
M  V30 10387 H 997.607 3.64274 -3.37073 0
M  V30 10388 H 992.863 3.8214 -4.77262 0
M  V30 10389 H 997.037 3.92161 -5.75485 0
M  V30 10390 H 994.664 4.00688 -6.46029 0
M  V30 10391 N 996.239 0.8527 1.3254 0
M  V30 10392 C 997.464 0.468157 2.02047 0
M  V30 10393 C 997.889 -0.926967 1.63673 0
M  V30 10394 O 997.247 -1.60855 0.836378 0
M  V30 10395 C 997.295 0.612519 3.5536 0
M  V30 10396 O 996.399 -0.355506 4.10865 0
M  V30 10397 H 995.74 0.188401 0.636711 0
M  V30 10398 H 998.27 1.15135 1.6913 0
M  V30 10399 H 998.28 0.499315 4.04933 0
M  V30 10400 H 996.955 1.62988 3.82632 0
M  V30 10401 H 995.532 -0.198703 3.7237 0
M  V30 10402 N 997.718 -1.45297 0.610449 0
M  V30 10403 C 998.943 -2.07101 0.111414 0
M  V30 10404 C 999.368 -1.45161 -1.19625 0
M  V30 10405 O 998.726 -0.545368 -1.72903 0
M  V30 10406 C 998.774 -3.60598 -0.0117372 0
M  V30 10407 O 997.878 -3.98512 -1.06122 0
M  V30 10408 H 997.219 -0.659709 0.075364 0
M  V30 10409 H 999.749 -1.86504 0.841269 0
M  V30 10410 H 999.759 -4.07464 -0.209028 0
M  V30 10411 H 998.434 -4.05067 0.943076 0
M  V30 10412 H 997.011 -3.63312 -0.840158 0
M  V30 10413 N 999.196 -0.349774 -1.5367 0
M  V30 10414 C 1000.44 0.245189 -2.01312 0
M  V30 10415 C 1000.77 1.49702 -1.23705 0
M  V30 10416 O 1000.05 1.91742 -0.326371 0
M  V30 10417 C 1000.33 0.553071 -3.55827 0
M  V30 10418 C 1000.19 -0.71129 -4.4414 0
M  V30 10419 C 1001.5 1.36015 -4.18555 0
M  V30 10420 H 998.624 0.0876415 -0.73177 0
M  V30 10421 H 1001.27 -0.471543 -1.84056 0
M  V30 10422 H 999.416 1.16367 -3.70663 0
M  V30 10423 H 1001.09 -1.34913 -4.41131 0
M  V30 10424 H 999.331 -1.33491 -4.1275 0
M  V30 10425 H 1000 -0.45104 -5.50154 0
M  V30 10426 H 1002.48 0.843778 -4.07455 0
M  V30 10427 H 1001.35 1.54432 -5.26728 0
M  V30 10428 H 1001.61 2.36408 -3.73582 0
M  V30 10429 N 1000.67 1.57404 -0.0785433 0
M  V30 10430 C 1001.62 2.13104 0.88631 0
M  V30 10431 C 1002.59 1.04527 1.29086 0
M  V30 10432 O 1003.78 1.32226 1.37553 0
M  V30 10433 C 1000.92 2.70252 2.14611 0
M  V30 10434 C 1000.03 3.93007 1.79358 0
M  V30 10435 C 999.164 4.38376 3 0
M  V30 10436 C 998.203 5.53761 2.60796 0
M  V30 10437 N 997.34 5.94058 3.74219 0
M  V30 10438 H 1002.18 2.95243 0.404452 0
M  V30 10439 H 999.717 1.45894 0.187982 0
M  V30 10440 H 1001.67 3.01497 2.88367 0
M  V30 10441 H 1000.3 1.90868 2.60326 0
M  V30 10442 H 999.357 3.68181 0.956384 0
M  V30 10443 H 1000.67 4.76795 1.4652 0
M  V30 10444 H 999.823 4.71317 3.82027 0
M  V30 10445 H 998.562 3.53455 3.36037 0
M  V30 10446 H 997.567 5.20464 1.77192 0
M  V30 10447 H 998.792 6.40419 2.25922 0
M  V30 10448 H 996.738 5.12085 4.10005 0
M  V30 10449 H 996.655 6.72602 3.45171 0
M  V30 10450 H 997.923 6.31624 4.56805 0
M  V30 10451 N 1002.15 -0.195058 1.56388 0
M  V30 10452 C 1003.4 -0.9168 1.80894 0
M  V30 10453 C 1003.73 -1.82907 0.652592 0
M  V30 10454 O 1003.01 -1.91382 -0.346853 0
M  V30 10455 C 1003.29 -1.733 3.15657 0
M  V30 10456 C 1003.14 -0.845449 4.41783 0
M  V30 10457 C 1004.46 -2.70557 3.47112 0
M  V30 10458 H 1001.58 -0.331861 0.658056 0
M  V30 10459 H 1004.22 -0.184174 1.89105 0
M  V30 10460 H 1002.37 -2.3576 3.08787 0
M  V30 10461 H 1004.04 -0.235557 4.60698 0
M  V30 10462 H 1002.29 -0.152172 4.33533 0
M  V30 10463 H 1002.96 -1.45152 5.32574 0
M  V30 10464 H 1005.43 -2.1823 3.54281 0
M  V30 10465 H 1004.31 -3.24749 4.42526 0
M  V30 10466 H 1004.57 -3.49605 2.70608 0
M  V30 10467 N 1003.63 -1.50653 -0.462772 0
M  V30 10468 C 1004.56 -1.66286 -1.5774 0
M  V30 10469 C 1005.57 -0.544094 -1.53439 0
M  V30 10470 O 1006.76 -0.817566 -1.58676 0
M  V30 10471 C 1003.86 -1.63893 -2.96635 0
M  V30 10472 C 1003.04 -2.91939 -3.25716 0
M  V30 10473 C 1002.1 -2.82076 -4.44206 0
M  V30 10474 O 1001.12 -3.56032 -4.44106 0
M  V30 10475 N 1002.32 -1.96196 -5.4634 0
M  V30 10476 H 1005.09 -2.6243 -1.44742 0
M  V30 10477 H 1002.65 -1.48221 -0.651326 0
M  V30 10478 H 1004.64 -1.54897 -3.73884 0
M  V30 10479 H 1003.21 -0.75449 -3.03358 0
M  V30 10480 H 1002.43 -3.14998 -2.37002 0
M  V30 10481 H 1003.72 -3.7675 -3.4196 0
M  V30 10482 H 1003.12 -1.35439 -5.49247 0
M  V30 10483 H 1001.67 -1.93097 -6.2254 0
M  V30 10484 N 1005.11 0.71652 -1.4037 0
M  V30 10485 C 1006.02 1.86074 -1.42876 0
M  V30 10486 C 1007.03 1.71005 -0.321475 0
M  V30 10487 O 1008.21 1.93286 -0.565909 0
M  V30 10488 C 1005.28 3.21862 -1.28863 0
M  V30 10489 C 1004.34 3.49193 -2.49726 0
M  V30 10490 C 1003.57 4.78502 -2.36372 0
M  V30 10491 O 1003.79 5.53529 -1.37703 0
M  V30 10492 O 1002.73 5.06147 -3.25728 0
M  V30 10493 H 1006.55 1.86916 -2.39366 0
M  V30 10494 H 1004.14 0.866818 -1.21683 0
M  V30 10495 H 1006.02 4.02972 -1.23253 0
M  V30 10496 H 1004.69 3.2175 -0.354783 0
M  V30 10497 H 1003.6 2.68095 -2.60913 0
M  V30 10498 H 1004.93 3.54101 -3.41868 0
M  V30 10499 N 1006.59 1.25851 0.948643 0
M  V30 10500 C 1007.53 1.06759 2.04625 0
M  V30 10501 C 1008.5 -0.0251144 1.66081 0
M  V30 10502 O 1009.69 0.133221 1.90334 0
M  V30 10503 C 1006.83 0.698724 3.37952 0
M  V30 10504 C 1005.94 1.8669 3.89578 0
M  V30 10505 C 1005.08 1.44184 5.11258 0
M  V30 10506 C 1004.12 2.57878 5.55126 0
M  V30 10507 N 1003.25 2.16106 6.68014 0
M  V30 10508 H 1008.09 2.00691 2.20289 0
M  V30 10509 H 1005.63 0.999327 1.07944 0
M  V30 10510 H 1007.59 0.465788 4.14592 0
M  V30 10511 H 1006.22 -0.203618 3.22157 0
M  V30 10512 H 1005.27 2.21298 3.09405 0
M  V30 10513 H 1006.58 2.72051 4.18079 0
M  V30 10514 H 1005.74 1.16891 5.95333 0
M  V30 10515 H 1004.47 0.559035 4.84485 0
M  V30 10516 H 1003.48 2.85909 4.69612 0
M  V30 10517 H 1004.7 3.46747 5.83904 0
M  V30 10518 H 1002.65 1.3025 6.42939 0
M  V30 10519 H 1002.57 2.95012 6.96063 0
M  V30 10520 H 1003.84 1.92005 7.55483 0
M  V30 10521 N 1008.06 -1.15214 1.07534 0
M  V30 10522 C 1009.29 -1.90463 0.820883 0
M  V30 10523 C 1009.71 -1.77578 -0.620305 0
M  V30 10524 O 1009.07 -1.10976 -1.43366 0
M  V30 10525 C 1009.12 -3.38746 1.23627 0
M  V30 10526 O 1008.22 -4.1062 0.382715 0
M  V30 10527 H 1007.57 -0.59292 0.298901 0
M  V30 10528 H 1010.1 -1.45893 1.43445 0
M  V30 10529 H 1010.11 -3.89543 1.21327 0
M  V30 10530 H 1008.78 -3.47443 2.28596 0
M  V30 10531 H 1007.36 -3.69947 0.468374 0
M  V30 10532 N 1009.54 -0.859717 -1.32086 0
M  V30 10533 C 1010.77 -0.479724 -2.01262 0
M  V30 10534 C 1011.19 0.924985 -1.64589 0
M  V30 10535 O 1010.54 1.60439 -0.869803 0
M  V30 10536 C 1010.59 -0.615128 -3.56228 0
M  V30 10537 O 1010.31 -1.96451 -3.91585 0
M  V30 10538 C 1011.82 -0.234804 -4.42678 0
M  V30 10539 H 1009.04 -0.188007 -0.644123 0
M  V30 10540 H 1011.58 -1.15805 -1.68551 0
M  V30 10541 H 1009.73 0.0155268 -3.87397 0
M  V30 10542 H 1010.15 -1.96491 -4.86304 0
M  V30 10543 H 1011.62 -0.380534 -5.50687 0
M  V30 10544 H 1012.1 0.825189 -4.31378 0
M  V30 10545 H 1012.71 -0.840739 -4.16907 0
M  V30 10546 N 1011.02 1.44971 -0.618145 0
M  V30 10547 C 1012.27 2.03009 -0.126125 0
M  V30 10548 C 1012.62 1.47656 1.23351 0
M  V30 10549 O 1011.91 0.645901 1.80385 0
M  V30 10550 C 1012.11 3.57378 -0.0394861 0
M  V30 10551 C 1011.94 4.27706 -1.38918 0
M  V30 10552 C 1010.71 4.65206 -1.97261 0
M  V30 10553 C 1012.91 4.58987 -2.32024 0
M  V30 10554 N 1010.89 5.2044 -3.256 0
M  V30 10555 C 1012.26 5.15167 -3.44969 0
M  V30 10556 C 1014.31 4.40932 -2.31265 0
M  V30 10557 C 1013.02 5.55193 -4.57333 0
M  V30 10558 C 1015.04 4.81997 -3.42684 0
M  V30 10559 C 1014.4 5.38279 -4.54352 0
M  V30 10560 H 1010.5 0.77683 -0.0897695 0
M  V30 10561 H 1013.09 1.76646 -0.818805 0
M  V30 10562 H 1011.26 3.8338 0.622441 0
M  V30 10563 H 1012.99 4.02075 0.460165 0
M  V30 10564 H 1009.75 4.49102 -1.50348 0
M  V30 10565 H 1010.17 5.52546 -3.9118 0
M  V30 10566 H 1014.81 3.96723 -1.46187 0
M  V30 10567 H 1012.53 5.98362 -5.43128 0
M  V30 10568 H 1016.12 4.69751 -3.43257 0
M  V30 10569 H 1015 5.6947 -5.39142 0
M  V30 10570 N 1012.5 0.357919 1.53482 0
M  V30 10571 C 1013.45 -0.49217 2.25491 0
M  V30 10572 C 1014.42 -1.08382 1.25867 0
M  V30 10573 O 1015.6 -1.11775 1.54632 0
M  V30 10574 C 1012.74 -1.6299 3.04185 0
M  V30 10575 C 1011.85 -1.06416 4.18688 0
M  V30 10576 C 1010.99 -2.17037 4.84839 0
M  V30 10577 C 1010.03 -1.57889 5.91386 0
M  V30 10578 N 1009.16 -2.6231 6.51259 0
M  V30 10579 H 1014 0.128412 2.97723 0
M  V30 10580 H 1011.54 0.0751423 1.46908 0
M  V30 10581 H 1013.5 -2.29993 3.48079 0
M  V30 10582 H 1012.13 -2.22125 2.34223 0
M  V30 10583 H 1011.18 -0.284635 3.79334 0
M  V30 10584 H 1012.49 -0.591654 4.95279 0
M  V30 10585 H 1011.65 -2.91876 5.31877 0
M  V30 10586 H 1010.39 -2.67636 4.07703 0
M  V30 10587 H 1009.39 -0.815605 5.43717 0
M  V30 10588 H 1010.62 -1.08123 6.70437 0
M  V30 10589 H 1008.56 -3.12137 5.7698 0
M  V30 10590 H 1008.48 -2.19724 7.23365 0
M  V30 10591 H 1009.75 -3.36875 7.02948 0
M  V30 10592 N 1013.98 -1.5736 0.0868897 0
M  V30 10593 C 1014.91 -2.09211 -0.911382 0
M  V30 10594 C 1015.89 -1.00072 -1.28157 0
M  V30 10595 O 1017.07 -1.27514 -1.38825 0
M  V30 10596 C 1014.2 -2.56229 -2.21504 0
M  V30 10597 C 1013.24 -3.76948 -1.99531 0
M  V30 10598 S 1014.08 -5.20926 -1.24083 0
M  V30 10599 C 1015.23 -5.71288 -2.55697 0
M  V30 10600 H 1015.47 -2.93557 -0.470245 0
M  V30 10601 H 1013 -1.53883 -0.126218 0
M  V30 10602 H 1014.96 -2.83978 -2.96424 0
M  V30 10603 H 1013.62 -1.72123 -2.6274 0
M  V30 10604 H 1012.81 -4.07887 -2.96048 0
M  V30 10605 H 1012.41 -3.4965 -1.32744 0
M  V30 10606 H 1014.71 -5.79054 -3.51714 0
M  V30 10607 H 1015.65 -6.6993 -2.29347 0
M  V30 10608 H 1016.06 -4.99178 -2.63594 0
M  V30 10609 N 1015.45 0.186762 -1.56489 0
M  V30 10610 C 1016.69 0.912523 -1.829 0
M  V30 10611 C 1017.06 1.80094 -0.665598 0
M  V30 10612 O 1018.26 2.56312 -0.809787 0
M  V30 10613 C 1016.53 1.70022 -3.14368 0
M  V30 10614 S 1018.09 2.47686 -3.62211 0
M  V30 10615 H 1014.91 0.305916 -0.641823 0
M  V30 10616 H 1017.51 0.175289 -1.94713 0
M  V30 10617 H 1016.21 1.03832 -3.97048 0
M  V30 10618 H 1015.74 2.47912 -3.05456 0
M  V30 10619 H 1017.76 3.72058 -3.28309 0
M  V30 10620 N 1016.93 1.50896 0.454776 0
M  V30 10621 C 1018.18 1.61936 1.20248 0
M  V30 10622 C 1018.49 0.332983 1.92745 0
M  V30 10623 O 1019.7 0.322512 2.69578 0
M  V30 10624 C 1018.16 2.85916 2.18587 0
M  V30 10625 C 1017.76 4.21492 1.51818 0
M  V30 10626 C 1019.51 3.06307 2.93898 0
M  V30 10627 C 1017.42 5.3664 2.48539 0
M  V30 10628 H 1016.35 0.603098 0.452536 0
M  V30 10629 H 1019 1.77345 0.471257 0
M  V30 10630 H 1017.38 2.64101 2.95071 0
M  V30 10631 H 1018.55 4.53623 0.810123 0
M  V30 10632 H 1016.87 4.06837 0.887265 0
M  V30 10633 H 1019.46 3.89507 3.66317 0
M  V30 10634 H 1019.81 2.18683 3.54236 0
M  V30 10635 H 1020.34 3.2838 2.24525 0
M  V30 10636 H 1017.08 6.26469 1.92916 0
M  V30 10637 H 1016.6 5.08907 3.17449 0
M  V30 10638 H 1018.28 5.67881 3.10033 0
M  V30 10639 N 1018.41 -0.709066 1.40748 0
M  V30 10640 C 1019.64 -1.50313 1.42901 0
M  V30 10641 C 1020.06 -1.88072 0.032213 0
M  V30 10642 O 1019.42 -1.53716 -0.96131 0
M  V30 10643 C 1019.47 -2.75074 2.33166 0
M  V30 10644 O 1018.57 -3.72036 1.7794 0
M  V30 10645 H 1017.91 -0.452934 0.485538 0
M  V30 10646 H 1020.44 -0.872712 1.85054 0
M  V30 10647 H 1020.45 -3.23532 2.48578 0
M  V30 10648 H 1019.13 -2.46927 3.34664 0
M  V30 10649 H 1017.7 -3.30911 1.71908 0
M  V30 10650 N 1019.89 -1.26353 -0.941956 0
M  V30 10651 C 1021.11 -1.14731 -1.72776 0
M  V30 10652 C 1021.54 0.293766 -1.85792 0
M  V30 10653 O 1020.9 1.21284 -1.34759 0
M  V30 10654 C 1020.95 -1.82041 -3.11277 0
M  V30 10655 O 1020.05 -1.10867 -3.97218 0
M  V30 10656 H 1019.39 -0.399823 -0.53013 0
M  V30 10657 H 1021.92 -1.67157 -1.17981 0
M  V30 10658 H 1021.93 -1.88834 -3.61671 0
M  V30 10659 H 1020.61 -2.86879 -3.0112 0
M  V30 10660 H 1019.18 -1.12044 -3.55669 0
M  V30 10661 N 1021.37 1.14642 -1.08144 0
M  V30 10662 C 1022.6 1.89484 -0.830864 0
M  V30 10663 C 1023.01 1.78443 0.616722 0
M  V30 10664 O 1022.37 1.14191 1.42361 0
M  V30 10665 C 1022.42 3.39554 -1.24039 0
M  V30 10666 O 1022.14 3.50286 -2.63119 0
M  V30 10667 C 1023.64 4.31399 -1.02029 0
M  V30 10668 H 1020.86 0.600283 -0.299835 0
M  V30 10669 H 1023.4 1.45204 -1.44001 0
M  V30 10670 H 1021.56 3.81467 -0.675407 0
M  V30 10671 H 1021.97 4.43481 -2.80045 0
M  V30 10672 H 1023.45 5.35079 -1.35625 0
M  V30 10673 H 1023.92 4.39179 0.0428697 0
M  V30 10674 H 1024.53 3.95238 -1.57057 0
M  V30 10675 N 1022.85 0.866709 1.31628 0
M  V30 10676 C 1024.09 0.475086 1.96437 0
M  V30 10677 C 1024.41 -0.975179 1.68865 0
M  V30 10678 O 1023.68 -1.68317 1.0023 0
M  V30 10679 H 1022.26 0.172695 0.726764 0
M  V30 10680 H 1024.93 1.10578 1.60494 0
M  V30 10681 H 1024.02 0.630123 3.05673 0
M  V30 10682 N 1024.32 -1.44642 0.625825 0
M  V30 10683 C 1025.27 -2.32408 -0.0945221 0
M  V30 10684 C 1026.27 -1.47038 -0.841198 0
M  V30 10685 O 1027.47 -1.63415 -0.754698 0
M  V30 10686 H 1023.85 -0.75038 -0.0493321 0
M  V30 10687 H 1025.82 -2.90922 0.663863 0
M  V30 10688 C 1024.57 -3.30951 -1.06615 0
M  V30 10689 H 1023.89 -3.96648 -0.501021 0
M  V30 10690 H 1025.33 -3.95054 -1.53976 0
M  V30 10691 C 1023.79 -2.59479 -2.14877 0
M  V30 10692 O 1024.32 -2.38974 -3.22885 0
M  V30 10693 N 1022.52 -2.19307 -1.90665 0
M  V30 10694 H 1022.07 -2.36184 -1.02835 0
M  V30 10695 H 1022.03 -1.71811 -2.63303 0
M  V30 10696 N 1025.8 -0.366053 -1.5329 0
M  V30 10697 C 1026.76 0.467904 -2.24373 0
M  V30 10698 C 1027.76 1.00934 -1.25176 0
M  V30 10699 O 1028.95 0.895015 -1.49449 0
M  V30 10700 C 1026.09 1.65405 -2.98084 0
M  V30 10701 H 1027.28 -0.154105 -2.99504 0
M  V30 10702 H 1024.83 -0.117751 -1.55856 0
M  V30 10703 H 1025.57 2.31413 -2.27197 0
M  V30 10704 H 1025.35 1.27277 -3.70868 0
M  V30 10705 H 1026.84 2.24503 -3.52119 0
M  V30 10706 N 1027.28 1.57312 -0.0952337 0
M  V30 10707 C 1028.53 1.93974 0.567319 0
M  V30 10708 C 1028.85 0.977805 1.68713 0
M  V30 10709 O 1028.12 0.0298944 1.95877 0
M  V30 10710 H 1026.7 0.71612 0.212558 0
M  V30 10711 H 1029.36 1.94254 -0.158598 0
M  V30 10712 H 1028.46 2.964 0.977423 0
M  V30 10713 N 1028.76 -0.17846 1.56586 0
M  V30 10714 C 1029.69 -1.24547 1.92408 0
M  V30 10715 C 1030.7 -1.40849 0.816421 0
M  V30 10716 O 1031.89 -1.40979 1.09486 0
M  V30 10717 C 1028.99 -2.61523 2.15544 0
M  V30 10718 C 1028.16 -2.66613 3.46751 0
M  V30 10719 C 1027.22 -3.84901 3.588 0
M  V30 10720 O 1026.25 -3.71231 4.31482 0
M  V30 10721 N 1027.45 -5.0106 2.9312 0
M  V30 10722 H 1030.22 -0.941275 2.84535 0
M  V30 10723 H 1027.78 -0.368275 1.57656 0
M  V30 10724 H 1029.77 -3.3911 2.20876 0
M  V30 10725 H 1028.34 -2.84362 1.29835 0
M  V30 10726 H 1027.56 -1.75174 3.5314 0
M  V30 10727 H 1028.85 -2.67018 4.33104 0
M  V30 10728 H 1028.25 -5.15067 2.33928 0
M  V30 10729 H 1026.8 -5.76535 3.04057 0
M  V30 10730 N 1030.24 -1.51135 -0.446768 0
M  V30 10731 C 1031.48 -1.63578 -1.19875 0
M  V30 10732 C 1031.81 -0.346478 -1.91084 0
M  V30 10733 O 1031.09 0.653447 -1.83195 0
M  V30 10734 C 1031.37 -2.83275 -2.22323 0
M  V30 10735 C 1031.23 -4.22155 -1.55259 0
M  V30 10736 C 1032.54 -2.98496 -3.23401 0
M  V30 10737 H 1029.66 -0.595333 -0.434452 0
M  V30 10738 H 1032.31 -1.83593 -0.48923 0
M  V30 10739 H 1030.46 -2.6634 -2.82834 0
M  V30 10740 H 1032.13 -4.50736 -0.981571 0
M  V30 10741 H 1030.37 -4.25288 -0.855122 0
M  V30 10742 H 1031.04 -5.01882 -2.29823 0
M  V30 10743 H 1033.52 -3.14079 -2.72935 0
M  V30 10744 H 1032.39 -3.83828 -3.92386 0
M  V30 10745 H 1032.65 -2.10157 -3.88956 0
M  V30 10746 N 1031.71 0.701592 -1.41122 0
M  V30 10747 C 1033.12 1.28129 -1.35793 0
M  V30 10748 C 1033.48 1.96163 -0.0381185 0
M  V30 10749 O 1032.6 1.98416 0.863723 0
M  V30 10750 C 1033.2 2.33005 -2.45955 0
M  V30 10751 C 1031.75 2.86566 -2.44043 0
M  V30 10752 C 1030.9 1.60526 -2.26112 0
M  V30 10753 H 1033.85 0.496756 -1.50725 0
M  V30 10754 H 1033.87 3.14163 -2.14667 0
M  V30 10755 H 1033.39 1.8346 -3.42 0
M  V30 10756 H 1031.49 3.40304 -1.51737 0
M  V30 10757 H 1031.6 3.37406 -3.40138 0
M  V30 10758 H 1029.96 1.86113 -1.7388 0
M  V30 10759 H 1030.75 1.12985 -3.24175 0
M  V30 10760 N 1033.19 1.2685 0.935242 0
M  V30 10761 C 1034.15 1.08975 2.01636 0
M  V30 10762 C 1035.15 0.0361543 1.60759 0
M  V30 10763 O 1036.34 0.280087 1.71934 0
M  V30 10764 C 1033.48 0.658831 3.34473 0
M  V30 10765 H 1034.67 2.04968 2.18925 0
M  V30 10766 H 1032.22 1.09531 1.11501 0
M  V30 10767 H 1032.96 -0.302824 3.22883 0
M  V30 10768 H 1032.74 1.41967 3.65497 0
M  V30 10769 H 1034.23 0.555783 4.13885 0
M  V30 10770 N 1034.67 -1.14067 1.0875 0
M  V30 10771 C 1035.92 -1.85459 0.82053 0
M  V30 10772 C 1036.25 -1.82923 -0.65213 0
M  V30 10773 O 1035.52 -1.26241 -1.47965 0
M  V30 10774 C 1035.81 -3.33937 1.34752 0
M  V30 10775 C 1035.66 -3.45026 2.88578 0
M  V30 10776 C 1036.98 -4.2915 0.975636 0
M  V30 10777 H 1034.1 -0.673384 0.299538 0
M  V30 10778 H 1036.74 -1.33927 1.34772 0
M  V30 10779 H 1034.89 -3.77953 0.899086 0
M  V30 10780 H 1036.56 -3.09771 3.41818 0
M  V30 10781 H 1034.81 -2.86124 3.26061 0
M  V30 10782 H 1035.48 -4.49408 3.20526 0
M  V30 10783 H 1037.95 -3.93168 1.36228 0
M  V30 10784 H 1036.83 -5.31489 1.37152 0
M  V30 10785 H 1037.09 -4.41945 -0.116956 0
M  V30 10786 N 1036.15 -0.873678 -1.31166 0
M  V30 10787 C 1037.4 -0.485497 -1.96182 0
M  V30 10788 C 1037.72 0.96621 -1.69379 0
M  V30 10789 O 1036.99 1.67783 -1.01121 0
M  V30 10790 H 1035.57 -0.176547 -0.725838 0
M  V30 10791 H 1038.23 -1.11428 -1.59906 0
M  V30 10792 H 1037.33 -0.646325 -3.05334 0
M  V30 10793 N 1037.63 1.44308 -0.633487 0
M  V30 10794 C 1038.87 2.01624 -0.138643 0
M  V30 10795 C 1039.2 1.50101 1.24477 0
M  V30 10796 O 1038.47 0.705575 1.82752 0
M  V30 10797 H 1037.05 0.745439 -0.0482636 0
M  V30 10798 H 1039.71 1.76777 -0.820719 0
M  V30 10799 H 1038.8 3.11913 -0.108136 0
M  V30 10800 N 1039.1 0.374177 1.53094 0
M  V30 10801 C 1040.35 -0.213981 2.00562 0
M  V30 10802 C 1040.67 -1.4916 1.26533 0
M  V30 10803 O 1041.87 -2.15889 1.64634 0
M  V30 10804 C 1040.33 -0.431876 3.57299 0
M  V30 10805 C 1039.94 0.831615 4.40214 0
M  V30 10806 C 1041.68 -0.977222 4.13099 0
M  V30 10807 C 1039.59 0.582831 5.88521 0
M  V30 10808 H 1038.52 -0.0837386 0.749336 0
M  V30 10809 H 1041.17 0.494245 1.76719 0
M  V30 10810 H 1039.55 -1.20158 3.7733 0
M  V30 10811 H 1040.72 1.60477 4.31953 0
M  V30 10812 H 1039.04 1.30081 3.9556 0
M  V30 10813 H 1041.64 -1.17881 5.21544 0
M  V30 10814 H 1041.98 -1.94189 3.68234 0
M  V30 10815 H 1042.51 -0.267473 3.969 0
M  V30 10816 H 1039.25 1.51807 6.37679 0
M  V30 10817 H 1038.77 -0.151666 5.99608 0
M  V30 10818 H 1040.45 0.211604 6.46654 0
M  V30 10819 N 1040.58 -1.57259 0.103575 0
M  V30 10820 C 1041.53 -2.14487 -0.852295 0
M  V30 10821 C 1042.5 -1.06567 -1.27407 0
M  V30 10822 O 1043.68 -1.34398 -1.35432 0
M  V30 10823 C 1040.82 -2.73632 -2.10284 0
M  V30 10824 C 1039.94 -3.95811 -1.73083 0
M  V30 10825 C 1039.07 -4.43093 -2.92988 0
M  V30 10826 C 1038.11 -5.5784 -2.51953 0
M  V30 10827 N 1037.25 -5.99936 -3.64721 0
M  V30 10828 H 1042.09 -2.95849 -0.35743 0
M  V30 10829 H 1039.63 -1.46175 -0.164748 0
M  V30 10830 H 1041.58 -3.06046 -2.83534 0
M  V30 10831 H 1040.21 -1.94985 -2.57256 0
M  V30 10832 H 1039.27 -3.69656 -0.897688 0
M  V30 10833 H 1040.58 -4.79066 -1.38916 0
M  V30 10834 H 1039.73 -4.77335 -3.74481 0
M  V30 10835 H 1038.47 -3.58756 -3.30372 0
M  V30 10836 H 1037.48 -5.23217 -1.6889 0
M  V30 10837 H 1038.7 -6.43932 -2.15705 0
M  V30 10838 H 1036.65 -5.18543 -4.01807 0
M  V30 10839 H 1036.56 -6.78008 -3.34427 0
M  V30 10840 H 1037.83 -6.38812 -4.46699 0
M  V30 10841 N 1042.06 0.170153 -1.56679 0
M  V30 10842 C 1043.31 0.886592 -1.8206 0
M  V30 10843 C 1043.64 1.82194 -0.680839 0
M  V30 10844 O 1042.89 1.92866 0.331822 0
M  V30 10845 C 1043.19 1.71402 -3.13618 0
M  V30 10846 C 1042.86 0.927489 -4.41258 0
M  V30 10847 C 1041.52 0.710417 -4.75927 0
M  V30 10848 C 1043.87 0.375855 -5.19843 0
M  V30 10849 C 1041.2 -0.0693691 -5.86659 0
M  V30 10850 C 1043.55 -0.390849 -6.31391 0
M  V30 10851 C 1042.21 -0.61871 -6.64626 0
M  V30 10852 H 1041.48 0.324427 -0.666204 0
M  V30 10853 H 1044.13 0.151464 -1.909 0
M  V30 10854 H 1042.44 2.51858 -3.00125 0
M  V30 10855 H 1044.13 2.27141 -3.30466 0
M  V30 10856 H 1040.72 1.10672 -4.14065 0
M  V30 10857 H 1044.91 0.530897 -4.93452 0
M  V30 10858 H 1040.16 -0.255637 -6.10865 0
M  V30 10859 H 1044.34 -0.825544 -6.9149 0
M  V30 10860 H 1041.96 -1.22482 -7.50268 0
M  V30 10861 N 1043.54 1.5137 0.438746 0
M  V30 10862 C 1044.79 1.63969 1.1883 0
M  V30 10863 C 1045.11 0.355245 1.91228 0
M  V30 10864 O 1044.37 -0.660605 1.84213 0
M  V30 10865 C 1044.67 2.79221 2.23093 0
M  V30 10866 C 1044.33 4.18547 1.67717 0
M  V30 10867 C 1043 4.5645 1.52337 0
M  V30 10868 C 1045.35 5.05494 1.26986 0
M  V30 10869 C 1042.68 5.79007 0.946996 0
M  V30 10870 C 1045.03 6.28628 0.707785 0
M  V30 10871 C 1043.69 6.65305 0.540881 0
M  V30 10872 H 1042.96 0.600003 0.43483 0
M  V30 10873 H 1045.61 1.85398 0.479565 0
M  V30 10874 H 1043.91 2.52008 2.99999 0
M  V30 10875 H 1045.61 2.86168 2.80907 0
M  V30 10876 H 1042.2 3.88663 1.80663 0
M  V30 10877 H 1046.38 4.76818 1.37689 0
M  V30 10878 H 1041.64 6.06072 0.805432 0
M  V30 10879 H 1045.81 6.95342 0.38366 0
M  V30 10880 H 1043.44 7.60144 0.0921324 0
M  V30 10881 N 1045.02 -0.694098 1.41492 0
M  V30 10882 C 1046.24 -1.48789 1.44488 0
M  V30 10883 C 1046.67 -1.88028 0.0521588 0
M  V30 10884 O 1046.02 -1.54727 -0.944952 0
M  V30 10885 C 1046.07 -2.72586 2.3607 0
M  V30 10886 O 1045.18 -3.70128 1.81876 0
M  V30 10887 H 1044.52 -0.447758 0.490315 0
M  V30 10888 H 1047.05 -0.853036 1.85969 0
M  V30 10889 H 1047.06 -3.20877 2.51995 0
M  V30 10890 H 1045.73 -2.43363 3.37264 0
M  V30 10891 H 1044.31 -3.29069 1.75408 0
M  V30 10892 N 1046.49 -1.27344 -0.928501 0
M  V30 10893 C 1047.77 -1.04362 -1.65433 0
M  V30 10894 C 1048.15 0.421896 -2.06841 0
M  V30 10895 O 1047.5 1.40496 -1.80203 0
M  V30 10896 C 1047.71 -2.00442 -2.85699 0
M  V30 10897 C 1049.06 -2.29767 -3.57061 0
M  V30 10898 O 1050.08 -1.98409 -2.95825 0
M  V30 10899 O 1048.94 -2.83217 -4.67387 0
M  V30 10900 H 1046.03 -0.397783 -0.72505 0
M  V30 10901 H 1048.58 -1.38606 -0.979109 0
M  V30 10902 H 1047.35 -2.99281 -2.52085 0
M  V30 10903 H 1046.98 -1.66755 -3.60941 0
M  V30 10904 N 1047.97 1.13488 -1.09353 0
M  V30 10905 C 1048.92 2.16933 -0.701709 0
M  V30 10906 C 1049.91 1.58382 0.283553 0
M  V30 10907 O 1051.1 1.7675 0.0940391 0
M  V30 10908 C 1048.23 3.43079 -0.123031 0
M  V30 10909 C 1047.31 4.08639 -1.13466 0
M  V30 10910 N 1047.7 4.49377 -2.32152 0
M  V30 10911 C 1046 4.35265 -0.972632 0
M  V30 10912 C 1046.7 5.00464 -2.96497 0
M  V30 10913 N 1045.68 4.95275 -2.24061 0
M  V30 10914 H 1049.48 2.46183 -1.60534 0
M  V30 10915 H 1047 1.30275 -0.969644 0
M  V30 10916 H 1048.99 4.1653 0.17569 0
M  V30 10917 H 1047.65 3.15304 0.775461 0
M  V30 10918 H 1048.66 4.42105 -2.69748 0
M  V30 10919 H 1045.34 4.17301 -0.12876 0
M  V30 10920 H 1046.73 5.41785 -3.9739 0
M  V30 10921 N 1049.45 0.880621 1.30701 0
M  V30 10922 C 1050.38 0.288813 2.26365 0
M  V30 10923 C 1051.36 -0.588135 1.51591 0
M  V30 10924 O 1052.55 -0.539197 1.80624 0
M  V30 10925 C 1049.67 -0.590032 3.33521 0
M  V30 10926 C 1048.72 0.217003 4.25948 0
M  V30 10927 S 1049.55 1.60246 5.10961 0
M  V30 10928 C 1050.71 0.730023 6.21628 0
M  V30 10929 H 1050.94 1.09971 2.76213 0
M  V30 10930 H 1048.47 0.67978 1.3863 0
M  V30 10931 H 1050.43 -1.09136 3.95727 0
M  V30 10932 H 1049.09 -1.37498 2.82406 0
M  V30 10933 H 1048.29 -0.453481 5.01956 0
M  V30 10934 H 1047.89 0.650803 3.68294 0
M  V30 10935 H 1050.18 -0.0548644 6.77478 0
M  V30 10936 H 1051.12 1.46157 6.92852 0
M  V30 10937 H 1051.53 0.292854 5.6374 0
M  V30 10938 N 1050.93 -1.4397 0.641131 0
M  V30 10939 C 1051.89 -2.29149 -0.0482243 0
M  V30 10940 C 1052.89 -1.41572 -0.762495 0
M  V30 10941 O 1054.08 -1.63335 -0.605571 0
M  V30 10942 C 1051.21 -3.23375 -1.07896 0
M  V30 10943 H 1052.41 -2.9159 0.70109 0
M  V30 10944 H 1049.96 -1.51048 0.401754 0
M  V30 10945 H 1050.7 -2.65804 -1.85792 0
M  V30 10946 H 1050.48 -3.87926 -0.570597 0
M  V30 10947 H 1051.97 -3.87337 -1.56075 0
M  V30 10948 N 1052.41 -0.382291 -1.52893 0
M  V30 10949 C 1053.68 0.259354 -1.93873 0
M  V30 10950 C 1054.06 1.64964 -1.3172 0
M  V30 10951 O 1053.41 2.23345 -0.482611 0
M  V30 10952 C 1053.62 0.292765 -3.4777 0
M  V30 10953 C 1054.97 0.525095 -4.21341 0
M  V30 10954 O 1055.99 0.373272 -3.54239 0
M  V30 10955 O 1054.85 0.822004 -5.40283 0
M  V30 10956 H 1051.95 0.159422 -0.811489 0
M  V30 10957 H 1054.49 -0.436289 -1.63996 0
M  V30 10958 H 1053.27 -0.681341 -3.85323 0
M  V30 10959 H 1052.89 1.03362 -3.8393 0
M  V30 10960 N 1053.89 1.57202 -0.111913 0
M  V30 10961 C 1055.11 1.99297 0.555713 0
M  V30 10962 C 1055.53 0.991444 1.60673 0
M  V30 10963 O 1054.89 -0.0166672 1.82492 0
M  V30 10964 C 1054.94 3.41413 1.18826 0
M  V30 10965 O 1054.66 4.37733 0.179261 0
M  V30 10966 C 1056.16 3.98602 1.93989 0
M  V30 10967 H 1053.38 0.654543 0.147695 0
M  V30 10968 H 1055.92 2.03557 -0.196163 0
M  V30 10969 H 1054.08 3.38115 1.89096 0
M  V30 10970 H 1054.49 5.20606 0.637935 0
M  V30 10971 H 1055.97 5.00143 2.33584 0
M  V30 10972 H 1056.44 3.37349 2.81233 0
M  V30 10973 H 1057.05 4.05424 1.28497 0
M  V30 10974 N 1055.36 -0.161842 1.56767 0
M  V30 10975 C 1056.59 -0.892247 1.86672 0
M  V30 10976 C 1057.01 -1.75407 0.69841 0
M  V30 10977 O 1056.36 -1.7945 -0.332251 0
M  V30 10978 C 1056.41 -1.7612 3.15696 0
M  V30 10979 O 1056.14 -0.934131 4.28025 0
M  V30 10980 C 1057.64 -2.60046 3.59014 0
M  V30 10981 H 1054.86 -0.258747 0.619105 0
M  V30 10982 H 1057.4 -0.159089 2.0388 0
M  V30 10983 H 1055.56 -2.44759 3.00286 0
M  V30 10984 H 1055.97 -1.52931 5.01709 0
M  V30 10985 H 1057.44 -3.16618 4.5217 0
M  V30 10986 H 1057.92 -3.35374 2.83586 0
M  V30 10987 H 1058.53 -1.96724 3.77067 0
M  V30 10988 N 1056.84 -1.516 -0.430713 0
M  V30 10989 C 1058.07 -1.68414 -1.20185 0
M  V30 10990 C 1058.48 -0.384297 -1.84847 0
M  V30 10991 O 1057.84 0.637808 -1.70992 0
M  V30 10992 C 1057.89 -2.80451 -2.28099 0
M  V30 10993 O 1057.61 -4.05399 -1.66081 0
M  V30 10994 C 1059.11 -3.0859 -3.18256 0
M  V30 10995 H 1056.33 -0.564982 -0.361989 0
M  V30 10996 H 1058.88 -1.9805 -0.50954 0
M  V30 10997 H 1057.03 -2.53395 -2.93036 0
M  V30 10998 H 1057.45 -4.67671 -2.37453 0
M  V30 10999 H 1058.92 -3.9055 -3.90096 0
M  V30 11000 H 1059.4 -2.21264 -3.79393 0
M  V30 11001 H 1060 -3.37331 -2.59014 0
M  V30 11002 N 1058.32 0.686584 -1.41858 0
M  V30 11003 C 1059.23 1.83002 -1.46791 0
M  V30 11004 C 1060.25 1.70284 -0.357675 0
M  V30 11005 O 1061.42 1.92042 -0.606781 0
M  V30 11006 C 1058.49 3.19056 -1.35661 0
M  V30 11007 C 1057.55 3.43817 -2.57077 0
M  V30 11008 C 1056.78 4.7338 -2.46469 0
M  V30 11009 O 1057 5.50483 -1.49413 0
M  V30 11010 O 1055.94 4.99124 -3.36391 0
M  V30 11011 H 1059.76 1.81797 -2.43277 0
M  V30 11012 H 1057.35 0.840812 -1.23494 0
M  V30 11013 H 1059.23 4.00267 -1.31773 0
M  V30 11014 H 1057.91 3.20925 -0.422951 0
M  V30 11015 H 1056.81 2.625 -2.66541 0
M  V30 11016 H 1058.15 3.4677 -3.49302 0
M  V30 11017 N 1059.8 1.27835 0.921735 0
M  V30 11018 C 1060.73 1.136 2.04003 0
M  V30 11019 C 1061.71 0.0358756 1.70062 0
M  V30 11020 O 1062.89 0.211438 1.93046 0
M  V30 11021 C 1060.02 0.788697 3.38226 0
M  V30 11022 C 1058.98 1.84272 3.863 0
M  V30 11023 C 1058.3 1.34923 5.17397 0
M  V30 11024 C 1059.6 3.24788 4.09035 0
M  V30 11025 H 1061.3 2.07149 2.1617 0
M  V30 11026 H 1058.84 0.997349 1.0387 0
M  V30 11027 H 1060.8 0.675911 4.15944 0
M  V30 11028 H 1059.52 -0.182499 3.2609 0
M  V30 11029 H 1058.18 1.94451 3.1078 0
M  V30 11030 H 1057.83 0.367328 5.01657 0
M  V30 11031 H 1057.53 2.05397 5.50532 0
M  V30 11032 H 1059.05 1.24951 5.97678 0
M  V30 11033 H 1060.47 3.17575 4.77304 0
M  V30 11034 H 1058.86 3.93025 4.53488 0
M  V30 11035 H 1059.93 3.69398 3.14122 0
M  V30 11036 N 1061.28 -1.12907 1.09954 0
M  V30 11037 C 1062.19 -2.22082 0.756095 0
M  V30 11038 C 1063.2 -1.72277 -0.244272 0
M  V30 11039 O 1064.38 -2.01224 -0.0842637 0
M  V30 11040 C 1061.44 -3.46192 0.187642 0
M  V30 11041 C 1060.5 -4.10861 1.24465 0
M  V30 11042 C 1059.74 -5.29047 0.703227 0
M  V30 11043 O 1059.96 -5.68443 -0.472043 0
M  V30 11044 O 1058.89 -5.83904 1.46082 0
M  V30 11045 H 1062.72 -2.53842 1.66727 0
M  V30 11046 H 1060.3 -1.21145 0.874316 0
M  V30 11047 H 1062.19 -4.21212 -0.125774 0
M  V30 11048 H 1060.86 -3.16119 -0.696459 0
M  V30 11049 H 1059.77 -3.37643 1.61085 0
M  V30 11050 H 1061.1 -4.45078 2.10159 0
M  V30 11051 N 1062.75 -0.88754 -1.30232 0
M  V30 11052 C 1064.17 -0.581904 -1.48614 0
M  V30 11053 C 1064.37 0.879711 -1.81282 0
M  V30 11054 O 1063.43 1.66076 -1.90198 0
M  V30 11055 C 1064.74 -1.49726 -2.60773 0
M  V30 11056 C 1066.29 -1.50117 -2.74653 0
M  V30 11057 C 1066.76 -2.40251 -3.89927 0
M  V30 11058 N 1068.25 -2.38229 -3.97242 0
M  V30 11059 C 1068.99 -3.04682 -4.85754 0
M  V30 11060 N 1068.48 -3.80369 -5.79043 0
M  V30 11061 N 1070.28 -2.93901 -4.79144 0
M  V30 11062 H 1062.43 -1.83304 -1.073 0
M  V30 11063 H 1064.69 -0.78477 -0.531826 0
M  V30 11064 H 1064.4 -2.5381 -2.43462 0
M  V30 11065 H 1064.27 -1.20874 -3.57308 0
M  V30 11066 H 1066.66 -0.467832 -2.91368 0
M  V30 11067 H 1066.74 -1.83001 -1.7873 0
M  V30 11068 H 1066.38 -3.43671 -3.73969 0
M  V30 11069 H 1066.31 -2.04682 -4.85194 0
M  V30 11070 H 1068.8 -1.83229 -3.30508 0
M  V30 11071 H 1069.12 -4.28159 -6.4335 0
M  V30 11072 H 1067.46 -3.84477 -5.78967 0
M  V30 11073 H 1070.65 -2.34296 -4.05245 0
M  V30 11074 H 1070.83 -3.45967 -5.47915 0
M  V30 11075 N 1064.23 1.43628 -0.648757 0
M  V30 11076 C 1065.48 2.01083 -0.157692 0
M  V30 11077 C 1065.79 1.51756 1.23408 0
M  V30 11078 O 1067 2.01455 1.82012 0
M  V30 11079 C 1065.46 3.59157 -0.231118 0
M  V30 11080 C 1065.06 4.17478 -1.6253 0
M  V30 11081 C 1066.81 4.24016 0.202573 0
M  V30 11082 C 1064.72 5.67832 -1.6529 0
M  V30 11083 H 1063.65 0.751977 -0.0551897 0
M  V30 11084 H 1066.3 1.64648 -0.810139 0
M  V30 11085 H 1064.68 3.92972 0.488755 0
M  V30 11086 H 1065.85 3.9517 -2.37017 0
M  V30 11087 H 1064.17 3.64973 -2.00459 0
M  V30 11088 H 1066.76 5.34319 0.20174 0
M  V30 11089 H 1067.11 3.97616 1.23319 0
M  V30 11090 H 1067.64 3.95068 -0.465398 0
M  V30 11091 H 1064.38 5.98994 -2.66246 0
M  V30 11092 H 1063.9 5.92209 -0.951217 0
M  V30 11093 H 1065.58 6.3179 -1.39465 0
M  V30 11094 N 1065.71 0.390394 1.52688 0
M  V30 11095 C 1066.66 -0.444229 2.26485 0
M  V30 11096 C 1067.63 -1.05688 1.28138 0
M  V30 11097 O 1068.81 -1.0847 1.56968 0
M  V30 11098 C 1065.95 -1.56501 3.07574 0
M  V30 11099 C 1065.07 -0.975111 4.20851 0
M  V30 11100 C 1064.2 -2.06704 4.89333 0
M  V30 11101 C 1063.24 -1.45309 5.94602 0
M  V30 11102 N 1062.38 -2.48437 6.56676 0
M  V30 11103 H 1067.22 0.191535 2.97384 0
M  V30 11104 H 1064.75 0.106287 1.46716 0
M  V30 11105 H 1066.71 -2.22558 3.52879 0
M  V30 11106 H 1065.34 -2.17107 2.38881 0
M  V30 11107 H 1064.39 -0.204109 3.79852 0
M  V30 11108 H 1065.71 -0.486465 4.96422 0
M  V30 11109 H 1064.86 -2.80528 5.37949 0
M  V30 11110 H 1063.6 -2.58928 4.13289 0
M  V30 11111 H 1062.6 -0.700091 5.45324 0
M  V30 11112 H 1063.83 -0.938775 6.7258 0
M  V30 11113 H 1061.77 -2.99829 5.83471 0
M  V30 11114 H 1061.69 -2.04331 7.27863 0
M  V30 11115 H 1062.96 -3.21888 7.09935 0
M  V30 11116 N 1067.19 -1.57141 0.120249 0
M  V30 11117 C 1068.41 -2.00017 -0.548454 0
M  V30 11118 C 1068.84 -0.999433 -1.59352 0
M  V30 11119 O 1068.2 0.0286978 -1.81277 0
M  V30 11120 C 1068.24 -3.41766 -1.15015 0
M  V30 11121 O 1067.35 -3.44589 -2.26566 0
M  V30 11122 H 1066.69 -0.649739 -0.136875 0
M  V30 11123 H 1069.22 -2.03529 0.209092 0
M  V30 11124 H 1069.23 -3.80001 -1.48537 0
M  V30 11125 H 1067.9 -4.14117 -0.384681 0
M  V30 11126 H 1066.48 -3.18174 -1.94473 0
M  V30 11127 N 1068.67 0.153526 -1.5685 0
M  V30 11128 C 1069.61 1.18973 -1.97773 0
M  V30 11129 C 1070.58 1.43041 -0.844311 0
M  V30 11130 O 1071.77 1.55484 -1.10586 0
M  V30 11131 C 1068.91 2.51981 -2.35795 0
M  V30 11132 C 1068.02 2.35143 -3.62397 0
M  V30 11133 C 1067.16 3.61141 -3.89552 0
M  V30 11134 C 1066.2 3.39311 -5.09445 0
M  V30 11135 N 1065.33 4.57423 -5.32643 0
M  V30 11136 H 1070.17 0.833758 -2.86099 0
M  V30 11137 H 1067.71 0.400252 -1.4155 0
M  V30 11138 H 1069.67 3.29527 -2.55867 0
M  V30 11139 H 1068.3 2.85539 -1.50557 0
M  V30 11140 H 1067.35 1.48684 -3.50139 0
M  V30 11141 H 1068.66 2.14969 -4.501 0
M  V30 11142 H 1067.82 4.47117 -4.10087 0
M  V30 11143 H 1066.55 3.84312 -3.00259 0
M  V30 11144 H 1065.56 2.51723 -4.8879 0
M  V30 11145 H 1066.78 3.17545 -6.00285 0
M  V30 11146 H 1064.73 4.8078 -4.46303 0
M  V30 11147 H 1064.65 4.40228 -6.14602 0
M  V30 11148 H 1065.92 5.44632 -5.57671 0
M  V30 11149 N 1070.14 1.51827 0.422667 0
M  V30 11150 C 1071.09 1.74791 1.53463 0
M  V30 11151 C 1072.09 0.614602 1.57858 0
M  V30 11152 O 1073.29 0.796336 1.61426 0
M  V30 11153 H 1069.67 0.552524 0.510118 0
M  V30 11154 H 1071.64 2.67974 1.31273 0
M  V30 11155 C 1070.39 1.90339 2.90975 0
M  V30 11156 H 1069.71 2.76958 2.8833 0
M  V30 11157 H 1071.15 2.10413 3.68106 0
M  V30 11158 C 1069.61 0.66695 3.30232 0
M  V30 11159 O 1070.14 -0.171542 4.01334 0
M  V30 11160 N 1068.35 0.506768 2.86147 0
M  V30 11161 H 1067.89 1.19019 2.28456 0
M  V30 11162 H 1067.85 -0.319247 3.12775 0
M  V30 11163 N 1071.62 -0.679052 1.4222 0
M  V30 11164 C 1072.55 -1.80481 1.48152 0
M  V30 11165 C 1073.53 -1.66698 0.338502 0
M  V30 11166 O 1074.72 -1.86183 0.552228 0
M  V30 11167 C 1071.85 -3.18746 1.37908 0
M  V30 11168 C 1070.8 -3.47258 2.50192 0
M  V30 11169 C 1070.13 -4.85052 2.25008 0
M  V30 11170 C 1071.43 -3.44576 3.92511 0
M  V30 11171 H 1073.12 -1.75774 2.42371 0
M  V30 11172 H 1070.67 -0.844241 1.16656 0
M  V30 11173 H 1072.62 -3.97229 1.40666 0
M  V30 11174 H 1071.35 -3.24119 0.401806 0
M  V30 11175 H 1070 -2.71133 2.46744 0
M  V30 11176 H 1069.65 -4.8707 1.25584 0
M  V30 11177 H 1069.35 -5.05092 3.00259 0
M  V30 11178 H 1070.88 -5.65825 2.29508 0
M  V30 11179 H 1072.29 -4.13036 3.97585 0
M  V30 11180 H 1070.69 -3.76151 4.67579 0
M  V30 11181 H 1071.76 -2.4323 4.19484 0
M  V30 11182 N 1073.1 -1.28322 -0.914942 0
M  V30 11183 C 1074.05 -1.12146 -2.01722 0
M  V30 11184 C 1075.02 -0.0189279 -1.66089 0
M  V30 11185 O 1076.2 -0.183638 -1.89914 0
M  V30 11186 C 1073.34 -0.78808 -3.35981 0
M  V30 11187 C 1072.46 -1.96954 -3.84491 0
M  V30 11188 C 1071.59 -1.57688 -5.07255 0
M  V30 11189 C 1070.63 -2.72506 -5.48094 0
M  V30 11190 N 1069.77 -2.33741 -6.62049 0
M  V30 11191 H 1074.61 -2.06461 -2.1489 0
M  V30 11192 H 1072.14 -1.0276 -1.05256 0
M  V30 11193 H 1074.1 -0.575546 -4.13211 0
M  V30 11194 H 1072.73 0.118132 -3.22584 0
M  V30 11195 H 1071.78 -2.29423 -3.03429 0
M  V30 11196 H 1073.1 -2.8304 -4.10719 0
M  V30 11197 H 1072.25 -1.32634 -5.92025 0
M  V30 11198 H 1070.99 -0.687291 -4.82833 0
M  V30 11199 H 1069.99 -2.9826 -4.61867 0
M  V30 11200 H 1071.22 -3.62106 -5.74505 0
M  V30 11201 H 1069.16 -1.4725 -6.3926 0
M  V30 11202 H 1069.08 -3.13364 -6.87997 0
M  V30 11203 H 1070.35 -2.11968 -7.50127 0
M  V30 11204 N 1074.58 1.12322 -1.10551 0
M  V30 11205 C 1075.53 2.20166 -0.750317 0
M  V30 11206 C 1076.52 1.67484 0.254066 0
M  V30 11207 O 1077.73 1.79637 0.114309 0
M  V30 11208 H 1074.1 0.717642 -0.22471 0
M  V30 11209 H 1076.07 2.47378 -1.66873 0
M  V30 11210 C 1074.82 3.47126 -0.199651 0
M  V30 11211 H 1074.14 3.88011 -0.963735 0
M  V30 11212 H 1075.58 4.23999 0.0108033 0
M  V30 11213 C 1074.04 3.19526 1.06792 0
M  V30 11214 O 1074.57 3.39368 2.14923 0
M  V30 11215 N 1072.78 2.73324 0.987032 0
M  V30 11216 H 1072.33 2.57378 0.106997 0
M  V30 11217 H 1072.28 2.55234 1.83584 0
M  V30 11218 N 1076.06 0.894434 1.2976 0
M  V30 11219 C 1077 0.357958 2.29829 0
M  V30 11220 C 1078 -0.540093 1.6056 0
M  V30 11221 O 1079.2 -0.423478 1.74948 0
M  V30 11222 H 1075.58 0.0971183 0.745702 0
M  V30 11223 H 1077.55 1.21542 2.72526 0
M  V30 11224 C 1076.3 -0.404126 3.45343 0
M  V30 11225 H 1075.62 0.277671 3.98835 0
M  V30 11226 H 1077.06 -0.744446 4.17413 0
M  V30 11227 C 1075.52 -1.6048 2.96222 0
M  V30 11228 O 1076.05 -2.70414 2.97051 0
M  V30 11229 N 1074.26 -1.44517 2.52117 0
M  V30 11230 H 1073.8 -0.55082 2.51642 0
M  V30 11231 H 1073.76 -2.24987 2.1961 0
M  V30 11232 N 1077.53 -1.43282 0.656365 0
M  V30 11233 C 1078.78 -2.02075 0.171293 0
M  V30 11234 C 1079.11 -1.51682 -1.21269 0
M  V30 11235 O 1078.39 -0.711243 -1.81029 0
M  V30 11236 C 1078.67 -3.59621 0.185602 0
M  V30 11237 C 1078.52 -4.20239 1.60373 0
M  V30 11238 C 1079.84 -4.37515 -0.476289 0
M  V30 11239 H 1076.96 -0.73424 0.0637185 0
M  V30 11240 H 1079.6 -1.70539 0.837648 0
M  V30 11241 H 1077.75 -3.86619 -0.381804 0
M  V30 11242 H 1079.43 -4.0426 2.22197 0
M  V30 11243 H 1077.67 -3.76769 2.15006 0
M  V30 11244 H 1078.34 -5.29333 1.56557 0
M  V30 11245 H 1080.82 -4.16099 0.00651073 0
M  V30 11246 H 1079.69 -5.47169 -0.435562 0
M  V30 11247 H 1079.95 -4.14003 -1.55093 0
M  V30 11248 N 1079.01 -0.398486 -1.52479 0
M  V30 11249 C 1079.94 0.423498 -2.29627 0
M  V30 11250 C 1080.92 1.05547 -1.33394 0
M  V30 11251 O 1082.11 1.0665 -1.62294 0
M  V30 11252 C 1079.24 1.54612 -3.10986 0
M  V30 11253 C 1078.19 1.03971 -4.15179 0
M  V30 11254 C 1077.52 2.25512 -4.84818 0
M  V30 11255 C 1078.82 0.10121 -5.22202 0
M  V30 11256 H 1080.51 -0.220222 -2.98589 0
M  V30 11257 H 1078.06 -0.107355 -1.43599 0
M  V30 11258 H 1080.01 2.12806 -3.63719 0
M  V30 11259 H 1078.74 2.21756 -2.39774 0
M  V30 11260 H 1077.4 0.480251 -3.63441 0
M  V30 11261 H 1077.04 2.91187 -4.10145 0
M  V30 11262 H 1076.74 1.92285 -5.55248 0
M  V30 11263 H 1078.27 2.84331 -5.40359 0
M  V30 11264 H 1079.68 0.591617 -5.70239 0
M  V30 11265 H 1078.08 -0.141737 -5.99933 0
M  V30 11266 H 1079.15 -0.847216 -4.77441 0
M  V30 11267 N 1080.49 1.57075 -0.12858 0
M  V30 11268 C 1081.42 2.12907 0.848708 0
M  V30 11269 C 1082.44 1.07406 1.22343 0
M  V30 11270 O 1083.63 1.34746 1.17071 0
M  V30 11271 C 1080.73 2.62167 2.1476 0
M  V30 11272 C 1079.9 3.91871 1.94309 0
M  V30 11273 C 1078.96 4.26629 3.08016 0
M  V30 11274 O 1077.98 4.9528 2.80511 0
M  V30 11275 N 1079.19 3.84721 4.34706 0
M  V30 11276 H 1081.95 2.97387 0.371636 0
M  V30 11277 H 1079.51 1.61805 0.0555574 0
M  V30 11278 H 1081.5 2.82444 2.89841 0
M  V30 11279 H 1080.07 1.82514 2.53786 0
M  V30 11280 H 1079.29 3.80406 1.03367 0
M  V30 11281 H 1080.58 4.76662 1.77962 0
M  V30 11282 H 1079.98 3.2937 4.59926 0
M  V30 11283 H 1078.54 4.10087 5.06628 0
M  V30 11284 N 1081.97 -0.145205 1.5693 0
M  V30 11285 C 1082.9 -1.18096 2.01434 0
M  V30 11286 C 1083.88 -1.447 0.894204 0
M  V30 11287 O 1085.07 -1.55589 1.16214 0
M  V30 11288 C 1082.2 -2.51369 2.39647 0
M  V30 11289 C 1081.15 -2.39283 3.54863 0
M  V30 11290 C 1080.48 -3.77283 3.78895 0
M  V30 11291 C 1081.78 -1.8754 4.87469 0
M  V30 11292 H 1083.47 -0.810897 2.8821 0
M  V30 11293 H 1081.02 -0.388624 1.38657 0
M  V30 11294 H 1082.97 -3.24054 2.69382 0
M  V30 11295 H 1081.69 -2.90214 1.49811 0
M  V30 11296 H 1080.35 -1.6905 3.25296 0
M  V30 11297 H 1080 -4.13567 2.86307 0
M  V30 11298 H 1079.7 -3.70057 4.56433 0
M  V30 11299 H 1081.22 -4.51514 4.11057 0
M  V30 11300 H 1082.64 -2.50019 5.1591 0
M  V30 11301 H 1081.03 -1.912 5.68826 0
M  V30 11302 H 1082.1 -0.831194 4.77723 0
M  V30 11303 N 1083.45 -1.52049 -0.414609 0
M  V30 11304 C 1084.86 -1.58062 -0.993638 0
M  V30 11305 C 1085.21 -0.417795 -1.917 0
M  V30 11306 O 1084.33 0.462558 -2.11399 0
M  V30 11307 C 1084.93 -2.86471 -1.80886 0
M  V30 11308 C 1083.49 -2.94981 -2.33801 0
M  V30 11309 C 1082.64 -2.52949 -1.13631 0
M  V30 11310 H 1085.59 -1.57497 -0.19504 0
M  V30 11311 H 1085.61 -2.71515 -2.66571 0
M  V30 11312 H 1085.12 -3.71085 -1.13657 0
M  V30 11313 H 1083.22 -2.14849 -3.04419 0
M  V30 11314 H 1083.33 -3.99111 -2.65042 0
M  V30 11315 H 1081.7 -2.0667 -1.48861 0
M  V30 11316 H 1082.48 -3.39931 -0.479765 0
M  V30 11317 N 1084.93 0.6715 -1.42579 0
M  V30 11318 C 1085.86 1.79693 -1.49107 0
M  V30 11319 C 1086.84 1.66516 -0.347338 0
M  V30 11320 O 1088.02 1.85887 -0.562094 0
M  V30 11321 C 1085.15 3.1801 -1.39596 0
M  V30 11322 C 1084.11 3.45926 -2.5203 0
M  V30 11323 C 1083.43 4.83852 -2.27577 0
M  V30 11324 C 1084.73 3.4249 -3.94333 0
M  V30 11325 H 1086.43 1.74486 -2.433 0
M  V30 11326 H 1083.97 0.838042 -1.17102 0
M  V30 11327 H 1085.92 3.96478 -1.42771 0
M  V30 11328 H 1084.65 3.23901 -0.418989 0
M  V30 11329 H 1083.31 2.6982 -2.48178 0
M  V30 11330 H 1082.96 4.86398 -1.28165 0
M  V30 11331 H 1082.66 5.03493 -3.02934 0
M  V30 11332 H 1084.18 5.646 -2.32506 0
M  V30 11333 H 1085.59 4.10922 -3.9977 0
M  V30 11334 H 1083.99 3.73666 -4.69568 0
M  V30 11335 H 1085.06 2.41002 -4.20768 0
M  V30 11336 N 1086.4 1.28806 0.908124 0
M  V30 11337 C 1087.64 1.17546 1.67219 0
M  V30 11338 C 1088.01 -0.270396 1.90086 0
M  V30 11339 O 1089.21 -0.505808 2.63998 0
M  V30 11340 C 1087.48 1.95774 2.99011 0
M  V30 11341 S 1089.04 2.00953 3.90081 0
M  V30 11342 H 1085.86 0.419283 0.574215 0
M  V30 11343 H 1088.46 1.6298 1.07971 0
M  V30 11344 H 1087.16 2.99978 2.80074 0
M  V30 11345 H 1086.69 1.50911 3.63303 0
M  V30 11346 H 1088.71 1.1201 4.83392 0
M  V30 11347 N 1087.88 -1.11734 1.11145 0
M  V30 11348 C 1088.79 -2.21267 0.779607 0
M  V30 11349 C 1089.81 -1.72526 -0.225986 0
M  V30 11350 O 1090.98 -2.01302 -0.0629166 0
M  V30 11351 C 1088.05 -3.45973 0.22435 0
M  V30 11352 C 1087.11 -4.09518 1.28816 0
M  V30 11353 C 1086.34 -5.28271 0.7593 0
M  V30 11354 O 1086.57 -5.68912 -0.411725 0
M  V30 11355 O 1085.5 -5.82322 1.52266 0
M  V30 11356 H 1089.33 -2.5206 1.6941 0
M  V30 11357 H 1086.91 -1.20211 0.887115 0
M  V30 11358 H 1088.79 -4.21322 -0.0810921 0
M  V30 11359 H 1087.47 -3.1684 -0.662891 0
M  V30 11360 H 1086.37 -3.35915 1.64657 0
M  V30 11361 H 1087.71 -4.42824 2.14868 0
M  V30 11362 N 1089.36 -0.901303 -1.29284 0
M  V30 11363 C 1090.31 -0.378666 -2.27672 0
M  V30 11364 C 1091.28 0.540102 -1.57074 0
M  V30 11365 O 1092.46 0.464997 -1.85047 0
M  V30 11366 C 1089.6 0.38635 -3.42931 0
M  V30 11367 C 1088.71 -0.563496 -4.28309 0
M  V30 11368 C 1087.85 0.218731 -5.30749 0
M  V30 11369 C 1086.89 -0.725536 -6.07785 0
M  V30 11370 N 1086.03 0.0223854 -7.02096 0
M  V30 11371 H 1090.87 -1.22277 -2.71758 0
M  V30 11372 H 1088.4 -0.614302 -1.33659 0
M  V30 11373 H 1090.36 0.845967 -4.08533 0
M  V30 11374 H 1088.99 1.1949 -2.9987 0
M  V30 11375 H 1088.04 -1.14163 -3.62865 0
M  V30 11376 H 1089.35 -1.28623 -4.81931 0
M  V30 11377 H 1088.51 0.739473 -6.02177 0
M  V30 11378 H 1087.25 0.97459 -4.77863 0
M  V30 11379 H 1086.25 -1.25776 -5.3522 0
M  V30 11380 H 1087.48 -1.48075 -6.6276 0
M  V30 11381 H 1085.42 0.760482 -6.51577 0
M  V30 11382 H 1085.34 -0.640408 -7.53283 0
M  V30 11383 H 1086.61 0.523339 -7.77741 0
M  V30 11384 N 1090.84 1.42931 -0.663954 0
M  V30 11385 C 1092.07 2.06028 -0.189808 0
M  V30 11386 C 1092.48 1.49827 1.14879 0
M  V30 11387 O 1091.84 0.633778 1.71142 0
M  V30 11388 C 1091.89 3.61349 -0.104343 0
M  V30 11389 O 1091.61 4.15463 -1.39004 0
M  V30 11390 C 1093.11 4.4154 0.394599 0
M  V30 11391 H 1090.33 0.664259 -0.0948744 0
M  V30 11392 H 1092.87 1.83255 -0.907632 0
M  V30 11393 H 1091.03 3.83271 0.564103 0
M  V30 11394 H 1091.44 5.09233 -1.25626 0
M  V30 11395 H 1092.92 5.50525 0.403329 0
M  V30 11396 H 1093.39 4.1534 1.4279 0
M  V30 11397 H 1094 4.24612 -0.241729 0
M  V30 11398 N 1092.32 0.406567 1.52266 0
M  V30 11399 C 1093.56 -0.171391 2.00971 0
M  V30 11400 C 1093.88 -1.46443 1.29668 0
M  V30 11401 O 1095.08 -2.12348 1.69176 0
M  V30 11402 C 1093.54 -0.35599 3.58135 0
M  V30 11403 C 1093.15 0.924803 4.38351 0
M  V30 11404 C 1094.89 -0.889378 4.15079 0
M  V30 11405 C 1092.8 0.707534 5.87152 0
M  V30 11406 H 1091.73 -0.0678253 0.750943 0
M  V30 11407 H 1094.38 0.531619 1.7563 0
M  V30 11408 H 1092.76 -1.12127 3.79794 0
M  V30 11409 H 1093.94 1.69603 4.28452 0
M  V30 11410 H 1092.25 1.38442 3.92712 0
M  V30 11411 H 1094.85 -1.06792 5.23927 0
M  V30 11412 H 1095.19 -1.86334 3.7227 0
M  V30 11413 H 1095.72 -0.183224 3.97378 0
M  V30 11414 H 1092.46 1.65299 6.34316 0
M  V30 11415 H 1091.98 -0.024446 5.99795 0
M  V30 11416 H 1093.66 0.348721 6.4606 0
M  V30 11417 N 1093.79 -1.57004 0.136909 0
M  V30 11418 C 1095.02 -2.00587 -0.527209 0
M  V30 11419 C 1095.44 -1.01628 -1.58283 0
M  V30 11420 O 1094.8 0.00946934 -1.81298 0
M  V30 11421 C 1094.85 -3.42967 -1.11384 0
M  V30 11422 O 1093.95 -3.46973 -2.22898 0
M  V30 11423 H 1093.3 -0.651155 -0.129976 0
M  V30 11424 H 1095.83 -2.03296 0.230667 0
M  V30 11425 H 1095.84 -3.81555 -1.44499 0
M  V30 11426 H 1094.51 -4.14502 -0.340736 0
M  V30 11427 H 1093.09 -3.20219 -1.91087 0
M  V30 11428 N 1095.27 0.136881 -1.57004 0
M  V30 11429 C 1096.52 0.849031 -1.84172 0
M  V30 11430 C 1096.85 1.80359 -0.720027 0
M  V30 11431 O 1096.13 1.92538 0.275584 0
M  V30 11432 C 1096.41 1.61465 -3.21871 0
M  V30 11433 C 1096.26 0.680902 -4.44616 0
M  V30 11434 C 1097.58 2.57488 -3.56914 0
M  V30 11435 H 1094.7 0.307209 -0.669919 0
M  V30 11436 H 1097.34 0.113862 -1.89659 0
M  V30 11437 H 1095.49 2.24137 -3.17325 0
M  V30 11438 H 1097.16 0.0644094 -4.61255 0
M  V30 11439 H 1095.41 -0.00883629 -4.33799 0
M  V30 11440 H 1096.08 1.25286 -5.37594 0
M  V30 11441 H 1098.55 2.0493 -3.62136 0
M  V30 11442 H 1097.43 3.08101 -4.54274 0
M  V30 11443 H 1097.69 3.39321 -2.83397 0
M  V30 11444 N 1096.75 1.52266 0.40654 0
M  V30 11445 C 1097.7 1.76409 1.516 0
M  V30 11446 C 1098.69 0.631311 1.57197 0
M  V30 11447 O 1099.9 0.813413 1.60573 0
M  V30 11448 H 1096.27 0.557904 0.50423 0
M  V30 11449 H 1098.24 2.69351 1.28424 0
M  V30 11450 C 1096.99 1.93415 2.88939 0
M  V30 11451 H 1096.32 2.8 2.85377 0
M  V30 11452 H 1097.76 2.14306 3.65854 0
M  V30 11453 C 1096.22 0.701938 3.29506 0
M  V30 11454 O 1096.75 -0.128965 4.01493 0
M  V30 11455 N 1094.95 0.537089 2.85594 0
M  V30 11456 H 1094.5 1.21435 2.27181 0
M  V30 11457 H 1094.46 -0.286055 3.13096 0
M  V30 11458 N 1098.23 -0.663929 1.42933 0
M  V30 11459 C 1099.48 -1.41973 1.43271 0
M  V30 11460 C 1099.79 -1.95518 0.0566103 0
M  V30 11461 O 1101 -2.71428 -0.0625862 0
M  V30 11462 C 1099.45 -2.56882 2.52071 0
M  V30 11463 C 1099.06 -2.0999 3.95737 0
M  V30 11464 C 1100.8 -3.34322 2.61589 0
M  V30 11465 C 1098.71 -3.22046 4.96025 0
M  V30 11466 H 1097.64 -0.5334 0.532917 0
M  V30 11467 H 1100.29 -0.717709 1.68882 0
M  V30 11468 H 1098.67 -3.29504 2.19643 0
M  V30 11469 H 1099.85 -1.44449 4.37574 0
M  V30 11470 H 1098.16 -1.45459 3.90168 0
M  V30 11471 H 1100.76 -4.17796 3.33692 0
M  V30 11472 H 1101.1 -3.8164 1.66302 0
M  V30 11473 H 1101.64 -2.68775 2.93266 0
M  V30 11474 H 1098.38 -2.79708 5.92827 0
M  V30 11475 H 1097.9 -3.86333 4.5881 0
M  V30 11476 H 1099.57 -3.87345 5.1824 0
M  V30 11477 N 1099.71 -1.29285 -0.901281 0
M  V30 11478 C 1100.64 -1.10086 -2.01032 0
M  V30 11479 C 1101.65 -0.0488364 -1.62727 0
M  V30 11480 O 1102.84 -0.293194 -1.76076 0
M  V30 11481 C 1099.94 -0.653357 -3.32542 0
M  V30 11482 C 1099.11 -1.78355 -3.99385 0
M  V30 11483 C 1098.17 -1.32733 -5.09184 0
M  V30 11484 O 1097.2 -2.03177 -5.31703 0
M  V30 11485 N 1098.4 -0.197345 -5.80164 0
M  V30 11486 H 1101.17 -2.056 -2.18057 0
M  V30 11487 H 1098.73 -1.21204 -1.07337 0
M  V30 11488 H 1100.72 -0.331491 -4.0334 0
M  V30 11489 H 1099.29 0.209278 -3.11899 0
M  V30 11490 H 1098.51 -2.27438 -3.21972 0
M  V30 11491 H 1099.8 -2.54137 -4.40785 0
M  V30 11492 H 1099.19 0.390011 -5.64354 0
M  V30 11493 H 1097.75 0.0651642 -6.51767 0
M  V30 11494 N 1101.18 1.11143 -1.11736 0
M  V30 11495 C 1102.6 1.34962 -0.851905 0
M  V30 11496 C 1102.8 1.94627 0.521797 0
M  V30 11497 O 1101.86 2.18121 1.27198 0
M  V30 11498 C 1103.17 2.27832 -1.96248 0
M  V30 11499 C 1104.72 2.41388 -1.9925 0
M  V30 11500 C 1105.19 3.37582 -3.09519 0
M  V30 11501 N 1106.68 3.45147 -3.08914 0
M  V30 11502 C 1107.42 4.19527 -3.90876 0
M  V30 11503 N 1106.91 4.96858 -4.82809 0
M  V30 11504 N 1108.71 4.15071 -3.79042 0
M  V30 11505 H 1100.86 0.707801 -2.0026 0
M  V30 11506 H 1103.12 0.374172 -0.871033 0
M  V30 11507 H 1102.83 1.91189 -2.95194 0
M  V30 11508 H 1102.7 3.28078 -1.86132 0
M  V30 11509 H 1105.09 2.77304 -1.00928 0
M  V30 11510 H 1105.17 1.40983 -2.13442 0
M  V30 11511 H 1104.81 3.02393 -4.0807 0
M  V30 11512 H 1104.74 4.37849 -2.92568 0
M  V30 11513 H 1107.23 2.89991 -2.42309 0
M  V30 11514 H 1107.55 5.5099 -5.41876 0
M  V30 11515 H 1105.89 4.96008 -4.86828 0
M  V30 11516 H 1109.08 3.53748 -3.06562 0
M  V30 11517 H 1109.26 4.72781 -4.4315 0
M  V30 11518 N 1102.66 0.908147 1.28804 0
M  V30 11519 C 1103.61 0.382315 2.29437 0
M  V30 11520 C 1104.6 -0.523033 1.61123 0
M  V30 11521 O 1105.81 -0.404898 1.75387 0
M  V30 11522 H 1102.19 0.105022 0.74463 0
M  V30 11523 H 1104.16 1.24425 2.71221 0
M  V30 11524 C 1102.91 -0.367475 3.45753 0
M  V30 11525 H 1102.23 0.319957 3.98518 0
M  V30 11526 H 1103.67 -0.700131 4.1818 0
M  V30 11527 C 1102.13 -1.57329 2.97908 0
M  V30 11528 O 1102.66 -2.67248 2.99902 0
M  V30 11529 N 1100.86 -1.41835 2.53636 0
M  V30 11530 H 1100.41 -0.524099 2.52212 0
M  V30 11531 H 1100.37 -2.22645 2.21984 0
M  V30 11532 N 1104.14 -1.42577 0.671525 0
M  V30 11533 C 1105.55 -1.84736 0.270084 0
M  V30 11534 C 1105.9 -1.56212 -1.18711 0
M  V30 11535 O 1105.03 -1.02028 -1.90838 0
M  V30 11536 C 1105.62 -3.35334 0.483409 0
M  V30 11537 C 1104.18 -3.76154 0.136119 0
M  V30 11538 C 1103.33 -2.66179 0.777444 0
M  V30 11539 H 1106.28 -1.3247 0.873919 0
M  V30 11540 H 1106.3 -3.79573 -0.265483 0
M  V30 11541 H 1105.81 -3.56063 1.54405 0
M  V30 11542 H 1103.91 -3.61033 -0.921209 0
M  V30 11543 H 1104.03 -4.75645 0.574356 0
M  V30 11544 H 1102.39 -2.53841 0.209055 0
M  V30 11545 H 1103.17 -2.89732 1.84148 0
M  V30 11546 N 1105.62 -0.414636 -1.52048 0
M  V30 11547 C 1106.57 0.408141 -2.27163 0
M  V30 11548 C 1107.54 1.03636 -1.29803 0
M  V30 11549 O 1108.72 1.05959 -1.58674 0
M  V30 11550 C 1105.86 1.51588 -3.10024 0
M  V30 11551 C 1104.97 0.908034 -4.22349 0
M  V30 11552 C 1104.11 1.98893 -4.9256 0
M  V30 11553 C 1103.15 1.35831 -5.96839 0
M  V30 11554 N 1102.28 2.37958 -6.60545 0
M  V30 11555 H 1107.12 -0.238822 -2.97041 0
M  V30 11556 H 1104.66 -0.129614 -1.46528 0
M  V30 11557 H 1106.62 2.16916 -3.56375 0
M  V30 11558 H 1105.25 2.13279 -2.42305 0
M  V30 11559 H 1104.3 0.143652 -3.80129 0
M  V30 11560 H 1105.61 0.407426 -4.97133 0
M  V30 11561 H 1104.77 2.71935 -5.42343 0
M  V30 11562 H 1103.51 2.5232 -4.17356 0
M  V30 11563 H 1102.51 0.613246 -5.46369 0
M  V30 11564 H 1103.74 0.831655 -6.73988 0
M  V30 11565 H 1101.68 2.90508 -5.88167 0
M  V30 11566 H 1101.6 1.92725 -7.31022 0
M  V30 11567 H 1102.87 3.10553 -7.14966 0
M  V30 11568 N 1107.1 1.56929 -0.145233 0
M  V30 11569 C 1108.01 2.20238 0.808219 0
M  V30 11570 C 1109.02 1.18615 1.27304 0
M  V30 11571 O 1110.2 1.51186 1.3306 0
M  V30 11572 C 1107.26 2.81016 2.03055 0
M  V30 11573 C 1106.32 3.97759 1.61512 0
M  V30 11574 C 1105.56 4.55628 2.77918 0
M  V30 11575 O 1105.78 4.12378 3.94082 0
M  V30 11576 O 1104.71 5.45917 2.53492 0
M  V30 11577 H 1108.54 3.02221 0.299314 0
M  V30 11578 H 1106.13 1.49176 0.0817051 0
M  V30 11579 H 1108.01 3.19652 2.74592 0
M  V30 11580 H 1106.68 2.02047 2.52901 0
M  V30 11581 H 1105.59 3.63842 0.870033 0
M  V30 11582 H 1106.92 4.78242 1.16383 0
M  V30 11583 N 1108.58 -0.128553 1.57075 0
M  V30 11584 C 1109.82 -0.836355 1.83982 0
M  V30 11585 C 1110.14 -1.80862 0.728971 0
M  V30 11586 O 1109.41 -1.94326 -0.247859 0
M  V30 11587 H 1107.99 -0.31185 0.678792 0
M  V30 11588 H 1110.66 -0.118153 1.94542 0
M  V30 11589 H 1109.75 -1.38741 2.79567 0
M  V30 11590 N 1110.05 -1.5248 -0.398459 0
M  V30 11591 C 1110.98 -1.79549 -1.49279 0
M  V30 11592 C 1111.96 -0.647004 -1.57315 0
M  V30 11593 O 1113.15 -0.893661 -1.72416 0
M  V30 11594 C 1110.28 -1.95582 -2.86993 0
M  V30 11595 C 1109.23 -3.1123 -2.93803 0
M  V30 11596 C 1108.56 -3.12501 -4.33874 0
M  V30 11597 C 1109.86 -4.50485 -2.64312 0
M  V30 11598 H 1111.55 -2.71187 -1.26877 0
M  V30 11599 H 1109.1 -1.30492 -0.608924 0
M  V30 11600 H 1111.05 -2.13102 -3.63546 0
M  V30 11601 H 1109.78 -1.00625 -3.10712 0
M  V30 11602 H 1108.44 -2.93477 -2.19697 0
M  V30 11603 H 1108.08 -2.15245 -4.54619 0
M  V30 11604 H 1107.78 -3.90183 -4.39353 0
M  V30 11605 H 1109.31 -3.32164 -5.12347 0
M  V30 11606 H 1110.72 -4.68387 -3.30585 0
M  V30 11607 H 1109.12 -5.30163 -2.81153 0
M  V30 11608 H 1110.19 -4.57848 -1.59696 0
M  V30 11609 N 1111.53 0.65634 -1.43283 0
M  V30 11610 C 1112.46 1.78101 -1.51004 0
M  V30 11611 C 1113.44 1.66138 -0.36498 0
M  V30 11612 O 1114.63 1.85281 -0.581778 0
M  V30 11613 C 1111.76 3.16511 -1.42961 0
M  V30 11614 C 1110.71 3.43233 -2.55685 0
M  V30 11615 C 1110.04 4.81411 -2.32696 0
M  V30 11616 C 1111.34 3.38288 -3.97943 0
M  V30 11617 H 1113.03 1.71896 -2.45137 0
M  V30 11618 H 1110.58 0.825575 -1.17984 0
M  V30 11619 H 1112.53 3.94941 -1.46968 0
M  V30 11620 H 1111.25 3.23439 -0.45332 0
M  V30 11621 H 1109.91 2.67173 -2.51026 0
M  V30 11622 H 1109.56 4.85011 -1.33317 0
M  V30 11623 H 1109.26 5.00251 -3.08257 0
M  V30 11624 H 1110.79 5.62102 -2.38481 0
M  V30 11625 H 1112.2 4.06659 -4.04106 0
M  V30 11626 H 1110.6 3.68664 -4.73505 0
M  V30 11627 H 1111.67 2.36525 -4.23301 0
M  V30 11628 N 1113.01 1.29761 0.894412 0
M  V30 11629 C 1114.25 1.19313 1.65963 0
M  V30 11630 C 1114.61 -0.25022 1.90363 0
M  V30 11631 O 1115.81 -0.477779 2.6452 0
M  V30 11632 C 1114.09 1.98934 2.96917 0
M  V30 11633 S 1115.64 2.05079 3.87928 0
M  V30 11634 H 1112.46 0.42535 0.569735 0
M  V30 11635 H 1115.06 1.64116 1.06236 0
M  V30 11636 H 1113.77 3.02932 2.76876 0
M  V30 11637 H 1113.3 1.54756 3.61682 0
M  V30 11638 H 1115.31 1.17131 4.82177 0
M  V30 11639 N 1114.49 -1.10549 1.12324 0
M  V30 11640 C 1115.45 -2.15039 0.793156 0
M  V30 11641 C 1116.45 -1.59651 -0.19192 0
M  V30 11642 O 1117.64 -1.74167 0.0337262 0
M  V30 11643 C 1114.77 -3.40433 0.17842 0
M  V30 11644 H 1115.97 -2.4575 1.71892 0
M  V30 11645 H 1113.52 -1.25892 0.926333 0
M  V30 11646 H 1114.25 -3.15338 -0.757122 0
M  V30 11647 H 1114.04 -3.81921 0.887645 0
M  V30 11648 H 1115.53 -4.17584 -0.0360724 0
M  V30 11649 N 1115.97 -0.914965 -1.28321 0
M  V30 11650 C 1117.19 -0.564023 -1.99583 0
M  V30 11651 C 1117.62 0.847821 -1.6791 0
M  V30 11652 O 1116.97 1.56682 -0.912171 0
M  V30 11653 C 1117.02 -0.781368 -3.52033 0
M  V30 11654 O 1116.13 0.159072 -4.12093 0
M  V30 11655 H 1115.47 -0.218565 -0.626997 0
M  V30 11656 H 1118 -1.23074 -1.63444 0
M  V30 11657 H 1118.01 -0.691946 -4.0209 0
M  V30 11658 H 1116.68 -1.81059 -3.7442 0
M  V30 11659 H 1115.26 0.0208145 -3.72894 0
M  V30 11660 N 1117.44 1.42219 -0.679077 0
M  V30 11661 C 1118.67 2.06333 -0.210097 0
M  V30 11662 C 1119.09 1.50703 1.12562 0
M  V30 11663 O 1118.45 0.627241 1.70104 0
M  V30 11664 C 1118.5 3.60243 -0.160322 0
M  V30 11665 O 1117.6 4.03122 0.869872 0
M  V30 11666 H 1116.94 0.655362 -0.106754 0
M  V30 11667 H 1119.47 1.82278 -0.929294 0
M  V30 11668 H 1119.48 4.07997 0.014384 0
M  V30 11669 H 1118.16 4.00106 -1.13526 0
M  V30 11670 H 1116.74 3.66907 0.66586 0
M  V30 11671 N 1118.92 0.422693 1.51826 0
M  V30 11672 C 1120.33 -0.0438129 1.86649 0
M  V30 11673 C 1120.68 -1.43246 1.34071 0
M  V30 11674 O 1119.81 -2.05256 0.685501 0
M  V30 11675 C 1120.4 -0.0862802 3.3869 0
M  V30 11676 C 1118.96 -0.497157 3.73102 0
M  V30 11677 C 1118.11 0.319655 2.75451 0
M  V30 11678 H 1121.06 0.639181 1.45259 0
M  V30 11679 H 1121.08 -0.8988 3.69732 0
M  V30 11680 H 1120.59 0.924525 3.76927 0
M  V30 11681 H 1118.69 -1.51411 3.40449 0
M  V30 11682 H 1118.81 -0.232125 4.78537 0
M  V30 11683 H 1117.17 -0.219963 2.53748 0
M  V30 11684 H 1117.95 1.32906 3.16529 0
M  V30 11685 N 1120.4 -1.5685 0.153553 0
M  V30 11686 C 1121.36 -2.15894 -0.769564 0
M  V30 11687 C 1122.36 -1.10239 -1.17064 0
M  V30 11688 O 1123.55 -1.35845 -1.09049 0
M  V30 11689 C 1120.68 -2.72738 -2.04516 0
M  V30 11690 H 1121.88 -2.98807 -0.255842 0
M  V30 11691 H 1119.43 -1.56005 -0.0959279 0
M  V30 11692 H 1120.17 -1.9351 -2.60239 0
M  V30 11693 H 1119.95 -3.50042 -1.76672 0
M  V30 11694 H 1121.44 -3.18208 -2.70432 0
M  V30 11695 N 1121.88 0.120221 -1.57141 0
M  V30 11696 C 1123.1 0.84637 -1.89344 0
M  V30 11697 C 1123.53 1.72702 -0.745365 0
M  V30 11698 O 1122.89 1.7873 0.304155 0
M  V30 11699 C 1122.93 1.65671 -3.20289 0
M  V30 11700 O 1122.04 2.76353 -3.06109 0
M  V30 11701 H 1121.38 0.234132 -0.621352 0
M  V30 11702 H 1123.91 0.102986 -2.04341 0
M  V30 11703 H 1123.92 2.04621 -3.52979 0
M  V30 11704 H 1122.59 1.01023 -4.03444 0
M  V30 11705 H 1121.17 2.40615 -2.84884 0
M  V30 11706 N 1123.36 1.52689 0.390367 0
M  V30 11707 C 1124.6 1.69354 1.1445 0
M  V30 11708 C 1124.96 0.423677 1.87267 0
M  V30 11709 O 1126.16 0.466669 2.64718 0
M  V30 11710 C 1124.43 2.89356 2.0978 0
M  V30 11711 S 1125.99 3.26602 2.93047 0
M  V30 11712 H 1122.81 0.596162 0.387442 0
M  V30 11713 H 1125.41 1.90732 0.429119 0
M  V30 11714 H 1124.12 3.80003 1.55004 0
M  V30 11715 H 1123.65 2.70307 2.85828 0
M  V30 11716 H 1125.66 2.76683 4.11899 0
M  V30 11717 N 1124.83 -0.648732 1.43629 0
M  V30 11718 C 1126.07 -1.42032 1.46991 0
M  V30 11719 C 1126.44 -1.91774 0.0931841 0
M  V30 11720 O 1127.64 -2.688 0.00148504 0
M  V30 11721 C 1125.91 -2.56693 2.48684 0
M  V30 11722 S 1127.47 -3.45149 2.70956 0
M  V30 11723 H 1124.29 -0.484772 0.520113 0
M  V30 11724 H 1126.89 -0.75274 1.80427 0
M  V30 11725 H 1125.59 -2.18431 3.47442 0
M  V30 11726 H 1125.12 -3.28296 2.1676 0
M  V30 11727 H 1127.14 -4.53569 2.01221 0
M  V30 11728 N 1126.31 -1.30234 -0.887518 0
M  V30 11729 C 1127.26 -1.13013 -1.9802 0
M  V30 11730 C 1128.25 -0.0460253 -1.60834 0
M  V30 11731 O 1129.44 -0.26907 -1.74943 0
M  V30 11732 C 1126.57 -0.821397 -3.33329 0
M  V30 11733 C 1125.65 -1.94564 -3.76837 0
M  V30 11734 N 1126.04 -3.19068 -3.92465 0
M  V30 11735 C 1124.34 -1.84142 -4.06211 0
M  V30 11736 C 1125.04 -3.92495 -4.29328 0
M  V30 11737 N 1124.02 -3.20526 -4.39049 0
M  V30 11738 H 1127.82 -2.07446 -2.0819 0
M  V30 11739 H 1125.34 -1.21536 -1.07716 0
M  V30 11740 H 1127.33 -0.679046 -4.11333 0
M  V30 11741 H 1125.99 0.114891 -3.24497 0
M  V30 11742 H 1127 -3.54386 -3.77665 0
M  V30 11743 H 1123.68 -0.97865 -4.05868 0
M  V30 11744 H 1125.07 -4.99701 -4.49164 0
M  V30 11745 N 1127.79 1.09952 -1.12909 0
M  V30 11746 C 1129.04 1.82286 -0.888797 0
M  V30 11747 C 1129.37 1.85218 0.58379 0
M  V30 11748 O 1128.64 1.31645 1.43177 0
M  V30 11749 C 1128.93 3.28706 -1.47053 0
M  V30 11750 C 1128.78 3.34078 -3.01184 0
M  V30 11751 C 1130.1 4.25233 -1.13424 0
M  V30 11752 H 1127.22 0.661803 -0.324324 0
M  V30 11753 H 1129.86 1.28833 -1.3965 0
M  V30 11754 H 1128.01 3.74356 -1.03874 0
M  V30 11755 H 1129.68 2.96871 -3.5308 0
M  V30 11756 H 1127.93 2.73825 -3.36455 0
M  V30 11757 H 1128.6 4.37202 -3.36984 0
M  V30 11758 H 1131.07 3.87841 -1.50726 0
M  V30 11759 H 1129.95 5.26033 -1.56783 0
M  V30 11760 H 1130.21 4.42075 -0.0471496 0
M  V30 11761 N 1129.27 0.921757 1.27833 0
M  V30 11762 C 1130.52 0.55493 1.93916 0
M  V30 11763 C 1130.83 -0.907191 1.7329 0
M  V30 11764 O 1132.04 -1.38253 2.33663 0
M  V30 11765 C 1130.49 0.941644 3.47363 0
M  V30 11766 C 1130.1 2.42404 3.76755 0
M  V30 11767 C 1131.84 0.645785 4.19559 0
M  V30 11768 C 1129.75 2.75046 5.23549 0
M  V30 11769 H 1128.68 0.203818 0.72593 0
M  V30 11770 H 1131.33 1.12176 1.4522 0
M  V30 11771 H 1129.71 0.303519 3.94835 0
M  V30 11772 H 1130.89 3.10957 3.40062 0
M  V30 11773 H 1129.2 2.69118 3.17749 0
M  V30 11774 H 1131.8 0.866237 5.27637 0
M  V30 11775 H 1132.14 -0.41676 4.14209 0
M  V30 11776 H 1132.68 1.24274 3.7789 0
M  V30 11777 H 1129.42 3.80186 5.33984 0
M  V30 11778 H 1128.94 2.11138 5.6141 0
M  V30 11779 H 1130.61 2.62474 5.91368 0
M  V30 11780 O 1130.79 -1.38808 0.825501 0
M  V30 11781 H 1131.48 -1.89342 0.408555 0
M  V30 END ATOM
M  V30 BEGIN BOND
M  V30 END BOND
M  V30 END CTAB
M  END
$$$$
