drugbank_target|P00782 Subtilisin BPN' (DB01805; DB01915; DB02442; DB03297; DB04491)
 OpenBabel12092119533D

  0  0  0     0  0            999 V3000
M  V30 BEGIN CTAB
M  V30 COUNTS 5506 5558 0 0 0
M  V30 BEGIN ATOM
M  V30 1 H -0.908 1.98254 -0.117106 0
M  V30 2 N 0 1.576 0 0
M  V30 3 C 0.933 2.03868 1.02534 0
M  V30 4 C 1.911 0.928543 1.3348 0
M  V30 5 O 3.095 1.19667 1.45644 0
M  V30 6 C 0.222 2.43627 2.35294 0
M  V30 7 C -0.732 3.65373 2.2001 0
M  V30 8 S 0.101 5.13292 1.52614 0
M  V30 9 C 1.257 5.56322 2.86805 0
M  V30 10 H 1.49 2.90518 0.631377 0
M  V30 11 H -0.977 1.52953 0.210867 0
M  V30 12 H 0.981 2.67203 3.11629 0
M  V30 13 H -0.358 1.57376 2.7183 0
M  V30 14 H -1.165 3.90944 3.18086 0
M  V30 15 H -1.563 3.418 1.51819 0
M  V30 16 H 0.729 5.58782 3.83104 0
M  V30 17 H 1.672 6.56266 2.65933 0
M  V30 18 H 2.08 4.83886 2.90714 0
M  V30 19 N 1.4781 -0.272755 1.55222 0
M  V30 20 C 2.8941 -0.619959 1.47067 0
M  V30 21 C 3.0941 -1.895 0.684978 0
M  V30 22 O 2.1501 -2.51675 0.203931 0
M  V30 23 C 3.4631 -0.746693 2.91282 0
M  V30 24 C 5.0111 -0.840731 3.01497 0
M  V30 25 C 5.4861 -0.99924 4.46967 0
M  V30 26 N 6.9771 -1.06476 4.50796 0
M  V30 27 C 7.7121 -1.20621 5.6057 0
M  V30 28 N 7.2081 -1.31483 6.80209 0
M  V30 29 N 9.0011 -1.23733 5.48312 0
M  V30 30 H 1.1521 0.564606 2.04758 0
M  V30 31 H 3.4151 0.191177 0.928523 0
M  V30 32 H 3.1211 0.119753 3.51496 0
M  V30 33 H 2.9951 -1.6269 3.40311 0
M  V30 34 H 5.3821 -1.69764 2.41379 0
M  V30 35 H 5.4631 0.0640874 2.5572 0
M  V30 36 H 5.1071 -0.146984 5.07687 0
M  V30 37 H 5.0371 -1.91871 4.90401 0
M  V30 38 H 7.5281 -0.993196 3.64615 0
M  V30 39 H 7.8411 -1.42111 7.59621 0
M  V30 40 H 6.1861 -1.28487 6.8302 0
M  V30 41 H 9.3771 -1.14877 4.53785 0
M  V30 42 H 9.5501 -1.34412 6.33906 0
M  V30 43 N 2.9562 -1.48159 -0.537278 0
M  V30 44 C 4.2042 -1.55497 -1.29094 0
M  V30 45 C 4.5252 -0.227454 -1.93669 0
M  V30 46 O 3.7952 0.750386 -1.80959 0
M  V30 47 H 2.3752 -0.572832 -0.47945 0
M  V30 48 H 5.0372 -1.84579 -0.625818 0
M  V30 49 H 4.1332 -2.33216 -2.07405 0
M  V30 50 N 4.4343 0.785586 -1.36625 0
M  V30 51 C 5.3813 1.89838 -1.31264 0
M  V30 52 C 6.3513 1.65115 -0.180633 0
M  V30 53 O 7.5363 1.87222 -0.36777 0
M  V30 54 C 4.6763 3.26706 -1.11163 0
M  V30 55 C 3.7893 3.63476 -2.33472 0
M  V30 56 C 2.9243 4.89481 -2.06353 0
M  V30 57 C 1.9633 5.18941 -3.24602 0
M  V30 58 N 1.1003 6.36131 -2.97123 0
M  V30 59 H 5.9403 1.93756 -2.26413 0
M  V30 60 H 3.4773 0.947454 -1.12524 0
M  V30 61 H 5.4353 4.05639 -0.975337 0
M  V30 62 H 4.0653 3.222 -0.196674 0
M  V30 63 H 3.1173 2.79636 -2.57891 0
M  V30 64 H 4.4293 3.81193 -3.21704 0
M  V30 65 H 3.5833 5.76288 -1.89675 0
M  V30 66 H 2.3223 4.73841 -1.15437 0
M  V30 67 H 1.3273 4.30615 -3.41834 0
M  V30 68 H 2.5523 5.36498 -4.16349 0
M  V30 69 H 0.4983 6.21875 -2.08823 0
M  V30 70 H 0.4153 6.54198 -3.78894 0
M  V30 71 H 1.6833 7.2591 -2.84033 0
M  V30 72 N 5.9124 1.20967 1.01018 0
M  V30 73 C 6.8594 0.964281 2.09691 0
M  V30 74 C 7.8294 -0.107853 1.65749 0
M  V30 75 O 9.0144 0.0381987 1.90762 0
M  V30 76 C 6.1544 0.52943 3.41015 0
M  V30 77 C 5.2674 1.67043 3.98398 0
M  V30 78 C 4.4024 1.18525 5.17808 0
M  V30 79 C 3.4414 2.29892 5.67288 0
M  V30 80 N 2.5784 1.82546 6.77954 0
M  V30 81 H 7.4184 1.89463 2.30017 0
M  V30 82 H 4.9554 0.944289 1.1279 0
M  V30 83 H 6.9134 0.258588 4.16398 0
M  V30 84 H 5.5434 -0.363919 3.20742 0
M  V30 85 H 4.5954 2.05603 3.20049 0
M  V30 86 H 5.9074 2.50877 4.31117 0
M  V30 87 H 5.0614 0.870762 6.00419 0
M  V30 88 H 3.8004 0.316887 4.86669 0
M  V30 89 H 2.8054 2.6215 4.83278 0
M  V30 90 H 4.0304 3.17216 6.00459 0
M  V30 91 H 1.9764 0.980454 6.48632 0
M  V30 92 H 1.8934 2.59956 7.09901 0
M  V30 93 H 3.1614 1.54115 7.64113 0
M  V30 94 N 7.3905 -1.2043 1.01659 0
M  V30 95 C 8.6365 -1.90079 0.706963 0
M  V30 96 C 8.9695 -1.78648 -0.761474 0
M  V30 97 O 8.2445 -1.17069 -1.55323 0
M  V30 98 C 8.5275 -3.41469 1.14327 0
M  V30 99 C 8.3805 -3.61833 2.67201 0
M  V30 100 C 9.6995 -4.34261 0.714529 0
M  V30 101 H 6.8185 -0.690254 0.2583 0
M  V30 102 H 9.4605 -1.41826 1.26433 0
M  V30 103 H 7.6105 -3.82696 0.669056 0
M  V30 104 H 9.2825 -3.2986 3.22475 0
M  V30 105 H 7.5255 -3.05304 3.08175 0
M  V30 106 H 8.1965 -4.67955 2.92783 0
M  V30 107 H 10.6725 -4.00682 1.12221 0
M  V30 108 H 9.5485 -5.38806 1.04784 0
M  V30 109 H 9.8095 -4.40431 -0.383799 0
M  V30 110 N 8.8686 -0.792821 -1.36206 0
M  V30 111 C 10.1146 -0.376415 -1.99887 0
M  V30 112 C 10.4696 1.04127 -1.61788 0
M  V30 113 O 9.7626 1.71004 -0.864193 0
M  V30 114 C 9.9566 -0.481501 -3.54142 0
M  V30 115 C 9.7856 -1.90786 -4.07223 0
M  V30 116 C 8.5556 -2.53322 -4.37214 0
M  V30 117 C 10.7536 -2.87048 -4.26741 0
M  V30 118 N 8.7356 -3.8751 -4.7614 0
M  V30 119 C 10.1066 -4.06077 -4.6851 0
M  V30 120 C 12.1616 -2.8406 -4.08918 0
M  V30 121 C 10.8646 -5.22532 -4.94321 0
M  V30 122 C 12.8906 -3.99705 -4.35878 0
M  V30 123 C 12.2526 -5.1748 -4.77906 0
M  V30 124 H 8.3516 -0.185226 -0.759747 0
M  V30 125 H 10.9356 -1.03114 -1.65153 0
M  V30 126 H 9.1066 0.143154 -3.88136 0
M  V30 127 H 10.8386 -0.0410128 -4.04679 0
M  V30 128 H 7.5936 -2.04777 -4.2704 0
M  V30 129 H 8.0176 -4.5656 -4.99882 0
M  V30 130 H 12.6596 -1.94165 -3.75579 0
M  V30 131 H 10.3776 -6.1301 -5.2654 0
M  V30 132 H 13.9636 -3.98758 -4.23655 0
M  V30 133 H 12.8436 -6.05478 -4.98363 0
M  V30 134 N 10.3467 1.47872 -0.545128 0
M  V30 135 C 11.5957 2.01695 -0.0145033 0
M  V30 136 C 11.9087 1.42609 1.33873 0
M  V30 137 O 13.1147 1.88021 1.95858 0
M  V30 138 C 11.5707 3.59892 0.0245068 0
M  V30 139 C 11.1787 4.27966 -1.32475 0
M  V30 140 C 12.9227 4.21507 0.50316 0
M  V30 141 C 10.8297 5.78136 -1.2455 0
M  V30 142 H 9.7597 0.753998 -0.00165172 0
M  V30 143 H 12.4107 1.69985 -0.691175 0
M  V30 144 H 10.7927 3.88509 0.766575 0
M  V30 145 H 11.9667 4.11003 -2.08357 0
M  V30 146 H 10.2817 3.78286 -1.74036 0
M  V30 147 H 12.8787 5.31538 0.580656 0
M  V30 148 H 13.2217 3.87855 1.51243 0
M  V30 149 H 13.7547 3.97376 -0.183681 0
M  V30 150 H 10.4937 6.16388 -2.23039 0
M  V30 151 H 10.0137 5.97469 -0.528282 0
M  V30 152 H 11.6927 6.40099 -0.942488 0
M  V30 153 N 11.8248 0.280983 1.55075 0
M  V30 154 C 13.0498 -0.340154 2.04592 0
M  V30 155 C 13.4748 -1.48246 1.15779 0
M  V30 156 O 12.8328 -1.80614 0.15761 0
M  V30 157 C 12.8808 -0.793104 3.5177 0
M  V30 158 O 11.9848 -1.89981 3.66034 0
M  V30 159 H 11.3258 -0.0694289 0.66036 0
M  V30 160 H 13.8558 0.416993 2.00306 0
M  V30 161 H 13.8658 -1.08729 3.93245 0
M  V30 162 H 12.5408 0.0426163 4.15878 0
M  V30 163 H 11.1178 -1.60771 3.36463 0
M  V30 164 N 13.3029 -1.57598 0.00835791 0
M  V30 165 C 14.2329 -2.1198 -0.979113 0
M  V30 166 C 15.2139 -1.03091 -1.35301 0
M  V30 167 O 16.3989 -1.30818 -1.43528 0
M  V30 168 C 13.5289 -2.62995 -2.26828 0
M  V30 169 C 12.4829 -3.76485 -2.03576 0
M  V30 170 C 11.8089 -4.13846 -3.38579 0
M  V30 171 C 13.1089 -5.0342 -1.39161 0
M  V30 172 H 14.8029 -2.94738 -0.526281 0
M  V30 173 H 12.3489 -1.41783 -0.251704 0
M  V30 174 H 14.3019 -2.99669 -2.96271 0
M  V30 175 H 13.0259 -1.7737 -2.7424 0
M  V30 176 H 11.6849 -3.40217 -1.36557 0
M  V30 177 H 11.3329 -3.25232 -3.83709 0
M  V30 178 H 11.0329 -4.90312 -3.23834 0
M  V30 179 H 12.5569 -4.53086 -4.09323 0
M  V30 180 H 13.9709 -5.37812 -1.98573 0
M  V30 181 H 12.3679 -5.84746 -1.34878 0
M  V30 182 H 13.4379 -4.83548 -0.361868 0
M  V30 183 N 14.781 0.264519 -1.55364 0
M  V30 184 C 15.711 1.33121 -1.91836 0
M  V30 185 C 16.692 1.51101 -0.781192 0
M  V30 186 O 17.877 1.64003 -1.04003 0
M  V30 187 C 15.007 2.68921 -2.19769 0
M  V30 188 C 13.961 2.65661 -3.35571 0
M  V30 189 C 13.287 4.05093 -3.49004 0
M  V30 190 C 14.587 2.24187 -4.71739 0
M  V30 191 H 16.281 1.02844 -2.81182 0
M  V30 192 H 13.827 0.493286 -1.35287 0
M  V30 193 H 15.78 3.43663 -2.43872 0
M  V30 194 H 14.504 3.00799 -1.27231 0
M  V30 195 H 13.163 1.93377 -3.1145 0
M  V30 196 H 12.811 4.34206 -2.53917 0
M  V30 197 H 12.511 4.03804 -4.26868 0
M  V30 198 H 14.035 4.81561 -3.75408 0
M  V30 199 H 15.449 2.88654 -4.9533 0
M  V30 200 H 13.846 2.34044 -5.52579 0
M  V30 201 H 14.916 1.19327 -4.69988 0
M  V30 202 N 16.2591 1.48442 0.529413 0
M  V30 203 C 17.5061 1.56488 1.28521 0
M  V30 204 C 17.8341 0.239042 1.93025 0
M  V30 205 O 17.0891 -0.770713 1.79885 0
M  V30 206 C 17.3881 2.6523 2.39558 0
M  V30 207 C 17.0541 4.07648 1.92702 0
M  V30 208 C 15.7161 4.46411 1.79641 0
M  V30 209 C 18.0681 4.96896 1.573 0
M  V30 210 C 15.3961 5.72226 1.29514 0
M  V30 211 C 17.7481 6.23202 1.08636 0
M  V30 212 C 16.4121 6.60821 0.941919 0
M  V30 213 H 15.6821 0.572631 0.470292 0
M  V30 214 H 18.3291 1.82161 0.59072 0
M  V30 215 H 16.6341 2.33419 3.14679 0
M  V30 216 H 18.3311 2.68671 2.97686 0
M  V30 217 H 14.9211 3.77036 2.03819 0
M  V30 218 H 19.1051 4.67626 1.66251 0
M  V30 219 H 14.3611 6.00097 1.17019 0
M  V30 220 H 18.5351 6.91753 0.803136 0
M  V30 221 H 16.1621 7.58198 0.5513 0
M  V30 222 N 17.7372 -0.778329 1.37039 0
M  V30 223 C 18.7002 -1.87301 1.32102 0
M  V30 224 C 19.7002 -1.59198 0.226405 0
M  V30 225 O 20.8902 -1.67403 0.481861 0
M  V30 226 C 18.0222 -3.24309 1.05055 0
M  V30 227 H 19.2152 -1.93093 2.29467 0
M  V30 228 H 16.7682 -0.977358 1.21973 0
M  V30 229 H 17.5032 -3.24196 0.0819373 0
M  V30 230 H 17.2882 -3.46098 1.84279 0
M  V30 231 H 18.7782 -4.04382 1.04234 0
M  V30 232 N 19.2153 -1.21501 -1.00376 0
M  V30 233 C 20.1453 -0.999478 -2.11028 0
M  V30 234 C 21.1263 0.0759671 -1.6993 0
M  V30 235 O 22.3113 -0.0841106 -1.94018 0
M  V30 236 C 19.4413 -0.564709 -3.42678 0
M  V30 237 C 18.3953 -1.58486 -3.97576 0
M  V30 238 C 17.7213 -1.00628 -5.25146 0
M  V30 239 C 19.0213 -2.97204 -4.29496 0
M  V30 240 H 20.7153 -1.92495 -2.29317 0
M  V30 241 H 18.2613 -0.92693 -1.102 0
M  V30 242 H 20.2143 -0.401091 -4.19487 0
M  V30 243 H 18.9383 0.396411 -3.24185 0
M  V30 244 H 17.5973 -1.73606 -3.22888 0
M  V30 245 H 17.2453 -0.0368439 -5.02987 0
M  V30 246 H 16.9453 -1.68771 -5.62841 0
M  V30 247 H 18.4693 -0.854015 -6.04598 0
M  V30 248 H 19.8833 -2.8552 -4.97143 0
M  V30 249 H 18.2803 -3.62372 -4.78338 0
M  V30 250 H 19.3503 -3.47956 -3.3772 0
M  V30 251 N 20.6934 1.19889 -1.02296 0
M  V30 252 C 21.6564 2.21116 -0.603351 0
M  V30 253 C 22.6564 1.5738 0.329884 0
M  V30 254 O 23.8464 1.73802 0.117702 0
M  V30 255 C 20.9784 3.40696 0.117992 0
M  V30 256 H 22.1714 2.59754 -1.49893 0
M  V30 257 H 19.7244 1.33463 -0.813468 0
M  V30 258 H 20.4594 3.07569 1.0282 0
M  V30 259 H 20.2444 3.88188 -0.552511 0
M  V30 260 H 21.7344 4.15692 0.398696 0
M  V30 261 N 22.1715 0.800033 1.35784 0
M  V30 262 C 23.1015 0.220184 2.3246 0
M  V30 263 C 24.0825 -0.65073 1.57161 0
M  V30 264 O 25.2675 -0.582359 1.85263 0
M  V30 265 C 22.3975 -0.637353 3.41402 0
M  V30 266 C 21.3515 0.134531 4.27789 0
M  V30 267 C 20.6775 -0.844285 5.27992 0
M  V30 268 C 21.9775 1.32979 5.05088 0
M  V30 269 H 23.6715 1.02787 2.81203 0
M  V30 270 H 21.2175 0.495717 1.35199 0
M  V30 271 H 23.1705 -1.05302 4.08031 0
M  V30 272 H 21.8945 -1.47785 2.91251 0
M  V30 273 H 20.5535 0.531296 3.6273 0
M  V30 274 H 20.2015 -1.68011 4.74111 0
M  V30 275 H 19.9015 -0.332184 5.8666 0
M  V30 276 H 21.4255 -1.2583 5.97494 0
M  V30 277 H 22.8395 0.98934 5.64699 0
M  V30 278 H 21.2365 1.77593 5.7322 0
M  V30 279 H 22.3065 2.11978 4.36111 0
M  V30 280 N 23.6496 -1.47581 0.552962 0
M  V30 281 C 24.8986 -2.01684 0.0251995 0
M  V30 282 C 25.2116 -1.43317 -1.33115 0
M  V30 283 O 26.4176 -1.89057 -1.94858 0
M  V30 284 C 24.8736 -3.599 -0.00542052 0
M  V30 285 C 24.4816 -4.27257 1.34742 0
M  V30 286 C 26.2256 -4.21768 -0.4808 0
M  V30 287 C 24.1326 -5.77467 1.27614 0
M  V30 288 H 23.0626 -0.753979 0.00565033 0
M  V30 289 H 25.7136 -1.69616 0.70018 0
M  V30 290 H 24.0956 -3.88911 -0.745961 0
M  V30 291 H 25.2696 -4.09893 2.10534 0
M  V30 292 H 23.5846 -3.77358 1.76039 0
M  V30 293 H 26.1816 -5.31838 -0.55246 0
M  V30 294 H 26.5246 -3.88651 -1.49184 0
M  V30 295 H 27.0576 -3.97273 0.204752 0
M  V30 296 H 23.7966 -6.15196 2.26304 0
M  V30 297 H 23.3166 -5.9718 0.55996 0
M  V30 298 H 24.9956 -6.3959 0.976421 0
M  V30 299 N 25.1277 -0.289203 -1.54924 0
M  V30 300 C 26.3747 0.323519 -1.99899 0
M  V30 301 C 26.7027 1.54797 -1.17762 0
M  V30 302 O 25.9577 1.94237 -0.238835 0
M  V30 303 C 26.2567 0.736119 -3.49737 0
M  V30 304 C 25.9227 -0.385276 -4.49251 0
M  V30 305 C 24.5847 -0.693156 -4.76181 0
M  V30 306 C 26.9367 -1.14021 -5.08575 0
M  V30 307 C 24.2647 -1.7593 -5.59701 0
M  V30 308 C 26.6167 -2.19619 -5.93254 0
M  V30 309 C 25.2807 -2.51026 -6.185 0
M  V30 310 H 24.5507 0.118384 -0.731482 0
M  V30 311 H 27.1977 -0.405847 -1.8715 0
M  V30 312 H 25.5027 1.54539 -3.60035 0
M  V30 313 H 27.1997 1.22118 -3.81953 0
M  V30 314 H 23.7897 -0.135202 -4.28387 0
M  V30 315 H 27.9737 -0.915611 -4.87781 0
M  V30 316 H 23.2297 -2.0075 -5.77503 0
M  V30 317 H 27.4037 -2.78581 -6.38252 0
M  V30 318 H 25.0307 -3.33772 -6.83008 0
M  V30 319 N 26.6058 1.57591 -0.0167156 0
M  V30 320 C 27.8338 1.95575 0.675128 0
M  V30 321 C 28.2488 0.892542 1.6637 0
M  V30 322 O 27.6058 -0.126912 1.82058 0
M  V30 323 C 27.6568 3.33608 1.39239 0
M  V30 324 O 27.3778 4.3585 0.443444 0
M  V30 325 C 28.8788 3.86151 2.17721 0
M  V30 326 H 26.0988 0.644423 0.186978 0
M  V30 327 H 28.6428 2.0437 -0.0728 0
M  V30 328 H 26.7978 3.2607 2.09182 0
M  V30 329 H 27.2118 5.158 0.951358 0
M  V30 330 H 28.6858 4.85114 2.63379 0
M  V30 331 H 29.1628 3.19738 3.01105 0
M  V30 332 H 29.7688 3.96918 1.52761 0
M  V30 333 N 28.0839 -0.256276 1.55502 0
M  V30 334 C 29.0169 -1.34321 1.84481 0
M  V30 335 C 29.9949 -1.46802 0.699131 0
M  V30 336 O 31.1789 -1.63165 0.943904 0
M  V30 337 C 28.3059 -2.71779 2.02123 0
M  V30 338 C 27.3519 -2.76496 3.24734 0
M  V30 339 S 28.1849 -2.3405 4.81644 0
M  V30 340 C 29.3409 -3.73452 5.02279 0
M  V30 341 H 29.5739 -1.09539 2.76385 0
M  V30 342 H 27.1069 -0.45678 1.47489 0
M  V30 343 H 29.0649 -3.50932 2.12972 0
M  V30 344 H 27.7259 -2.93803 1.11078 0
M  V30 345 H 26.9189 -3.77424 3.34016 0
M  V30 346 H 26.5209 -2.05379 3.12563 0
M  V30 347 H 28.8129 -4.6887 4.89047 0
M  V30 348 H 29.7559 -3.6911 6.04287 0
M  V30 349 H 30.1639 -3.6553 4.30172 0
M  V30 350 N 29.562 -1.4872 -0.521534 0
M  V30 351 C 30.525 -1.63379 -1.60748 0
M  V30 352 C 31.525 -0.50661 -1.52611 0
M  V30 353 O 32.715 -0.772601 -1.5613 0
M  V30 354 C 29.847 -1.61192 -3.00383 0
M  V30 355 H 31.04 -2.60217 -1.49087 0
M  V30 356 H 28.593 -1.37444 -0.744235 0
M  V30 357 H 29.328 -0.65863 -3.17541 0
M  V30 358 H 29.113 -2.43032 -3.07698 0
M  V30 359 H 30.603 -1.7466 -3.7932 0
M  V30 360 N 31.0401 0.771051 -1.3745 0
M  V30 361 C 32.2871 1.52963 -1.32697 0
M  V30 362 C 32.6151 1.94299 0.0883274 0
M  V30 363 O 31.8701 1.64397 1.0617 0
M  V30 364 C 32.1691 2.80676 -2.2126 0
M  V30 365 C 31.8351 2.58389 -3.69521 0
M  V30 366 C 30.4971 2.52019 -4.09927 0
M  V30 367 C 32.8491 2.38469 -4.63446 0
M  V30 368 C 30.1771 2.23721 -5.42371 0
M  V30 369 C 32.5291 2.11694 -5.96128 0
M  V30 370 C 31.1931 2.03769 -6.35637 0
M  V30 371 H 30.4631 0.559732 -0.485573 0
M  V30 372 H 33.1101 0.888083 -1.69662 0
M  V30 373 H 31.4151 3.49392 -1.77291 0
M  V30 374 H 33.1121 3.38557 -2.14895 0
M  V30 375 H 29.7021 2.6421 -3.37478 0
M  V30 376 H 33.8861 2.4238 -4.33089 0
M  V30 377 H 29.1421 2.16081 -5.71943 0
M  V30 378 H 33.3161 1.9528 -6.6846 0
M  V30 379 H 30.9431 1.81606 -7.38189 0
M  V30 380 N 32.5182 1.22032 0.997298 0
M  V30 381 C 33.7662 1.04016 1.73278 0
M  V30 382 C 34.0872 -0.426255 1.90284 0
M  V30 383 O 33.3572 -1.30694 1.45931 0
M  V30 384 H 31.9372 0.381897 0.642 0
M  V30 385 H 34.5992 1.5347 1.20137 0
M  V30 386 H 33.6952 1.51441 2.72896 0
M  V30 387 N 33.9963 -1.19345 1.0293 0
M  V30 388 C 35.2213 -1.93538 0.745511 0
M  V30 389 C 35.6463 -1.75007 -0.689511 0
M  V30 390 O 35.0043 -1.05265 -1.47611 0
M  V30 391 C 35.0523 -3.43336 1.10239 0
M  V30 392 O 34.1563 -4.11806 0.221289 0
M  V30 393 H 33.4973 -0.604193 0.275404 0
M  V30 394 H 36.0273 -1.5141 1.37609 0
M  V30 395 H 36.0373 -3.94004 1.05947 0
M  V30 396 H 34.7123 -3.56146 2.14786 0
M  V30 397 H 33.2893 -3.715 0.322842 0
M  V30 398 N 35.4744 -0.807222 -1.35358 0
M  V30 399 C 36.7024 -0.400377 -2.02989 0
M  V30 400 C 37.1174 0.988859 -1.60832 0
M  V30 401 O 36.4744 1.63729 -0.806175 0
M  V30 402 C 36.5254 -0.474867 -3.58368 0
M  V30 403 O 36.2464 -1.80933 -3.98992 0
M  V30 404 C 37.7474 -0.0609112 -4.43258 0
M  V30 405 H 34.9674 -0.162587 -0.651004 0
M  V30 406 H 37.5114 -1.09102 -1.72965 0
M  V30 407 H 35.6664 0.167534 -3.87038 0
M  V30 408 H 36.0804 -1.77256 -4.9364 0
M  V30 409 H 37.5544 -0.164145 -5.51756 0
M  V30 410 H 38.0314 0.993831 -4.27808 0
M  V30 411 H 38.6374 -0.676492 -4.19885 0
M  V30 412 N 36.9525 1.47285 -0.560781 0
M  V30 413 C 38.1775 2.07359 -0.0410566 0
M  V30 414 C 38.6025 1.41017 1.24483 0
M  V30 415 O 37.9605 0.486368 1.74654 0
M  V30 416 C 38.0085 3.6035 0.134123 0
M  V30 417 O 37.1125 3.94681 1.19587 0
M  V30 418 H 36.4535 0.661887 -0.0529291 0
M  V30 419 H 38.9835 1.89252 -0.777482 0
M  V30 420 H 38.9935 4.0652 0.347207 0
M  V30 421 H 37.6685 4.08034 -0.805047 0
M  V30 422 H 36.2455 3.60251 0.962987 0
M  V30 423 N 38.4306 0.297415 1.54768 0
M  V30 424 C 39.6556 -0.318435 2.04941 0
M  V30 425 C 40.0806 -1.4701 1.17345 0
M  V30 426 O 39.4386 -1.80436 0.176758 0
M  V30 427 C 39.4866 -0.755749 3.52592 0
M  V30 428 O 38.5906 -1.86088 3.68028 0
M  V30 429 H 37.9316 -0.062421 0.661059 0
M  V30 430 H 40.4616 0.438215 1.99852 0
M  V30 431 H 40.4716 -1.04552 3.94376 0
M  V30 432 H 39.1466 0.0867233 4.1581 0
M  V30 433 H 37.7236 -1.57193 3.38149 0
M  V30 434 N 39.9087 -1.5758 0.0250728 0
M  V30 435 C 40.8717 -2.08896 -0.943139 0
M  V30 436 C 41.8717 -1.00321 -1.25668 0
M  V30 437 O 43.0617 -1.26495 -1.19769 0
M  V30 438 C 40.1937 -2.55143 -2.26086 0
M  V30 439 H 41.3867 -2.95723 -0.498775 0
M  V30 440 H 38.9397 -1.54703 -0.222888 0
M  V30 441 H 39.6747 -1.71633 -2.75159 0
M  V30 442 H 39.4597 -3.34461 -2.04641 0
M  V30 443 H 40.9497 -2.95083 -2.95492 0
M  V30 444 N 41.3868 0.248026 -1.55636 0
M  V30 445 C 42.3188 1.32993 -1.8667 0
M  V30 446 C 43.3318 1.44345 -0.752877 0
M  V30 447 O 44.5208 1.45715 -1.03098 0
M  V30 448 C 41.6208 2.70863 -2.03682 0
M  V30 449 C 40.7938 2.81792 -3.34532 0
M  V30 450 C 39.8528 4.005 -3.41301 0
M  V30 451 O 38.8788 3.9008 -4.14519 0
M  V30 452 N 40.0808 5.13618 -2.70512 0
M  V30 453 H 42.8458 1.06707 -2.8006 0
M  V30 454 H 40.4068 0.438129 -1.55859 0
M  V30 455 H 42.3988 3.48612 -2.05553 0
M  V30 456 H 40.9688 2.89862 -1.17041 0
M  V30 457 H 40.1888 1.90729 -3.44987 0
M  V30 458 H 41.4768 2.86043 -4.20781 0
M  V30 459 H 40.8748 5.24975 -2.10755 0
M  V30 460 H 39.4318 5.89505 -2.78077 0
M  V30 461 N 42.8649 1.48995 0.513639 0
M  V30 462 C 43.8279 1.64229 1.59879 0
M  V30 463 C 44.8279 0.514696 1.5234 0
M  V30 464 O 46.0179 0.78087 1.55718 0
M  V30 465 C 43.1499 1.62783 2.99524 0
M  V30 466 H 44.3429 2.61004 1.47705 0
M  V30 467 H 41.8959 1.37837 0.736936 0
M  V30 468 H 42.6309 0.675461 3.17188 0
M  V30 469 H 42.4159 2.4466 3.06404 0
M  V30 470 H 43.9059 1.76669 3.78388 0
M  V30 471 N 44.343 -0.763751 1.37857 0
M  V30 472 C 45.306 -1.85889 1.34081 0
M  V30 473 C 46.306 -1.58949 0.243277 0
M  V30 474 O 47.496 -1.66882 0.499589 0
M  V30 475 C 44.628 -3.23176 1.08489 0
M  V30 476 H 45.821 -1.90648 2.31502 0
M  V30 477 H 43.374 -0.964367 1.23003 0
M  V30 478 H 44.109 -3.24091 0.116318 0
M  V30 479 H 43.894 -3.44124 1.8794 0
M  V30 480 H 45.384 -4.03254 1.08517 0
M  V30 481 N 45.8211 -1.22559 -0.990812 0
M  V30 482 C 47.0691 -1.04933 -1.72724 0
M  V30 483 C 47.3901 0.416158 -1.90508 0
M  V30 484 O 46.6601 1.29918 -1.46622 0
M  V30 485 H 45.2401 -0.385296 -0.639965 0
M  V30 486 H 47.9021 -1.54105 -1.19322 0
M  V30 487 H 46.9981 -1.52886 -2.72089 0
M  V30 488 N 47.2992 1.18797 -1.03562 0
M  V30 489 C 48.2462 2.22253 -0.622259 0
M  V30 490 C 49.2162 1.61987 0.36736 0
M  V30 491 O 50.4012 1.88986 0.262492 0
M  V30 492 C 47.5412 3.45097 0.0138462 0
M  V30 493 C 46.6542 4.19722 -1.02263 0
M  V30 494 C 45.7892 5.30009 -0.355573 0
M  V30 495 C 44.8282 5.96399 -1.37749 0
M  V30 496 N 43.9652 6.98234 -0.735766 0
M  V30 497 H 48.8052 2.56968 -1.50903 0
M  V30 498 H 46.3422 1.26245 -0.755017 0
M  V30 499 H 48.3002 4.15279 0.399948 0
M  V30 500 H 46.9302 3.11018 0.864158 0
M  V30 501 H 45.9822 3.48418 -1.52673 0
M  V30 502 H 47.2942 4.65227 -1.79903 0
M  V30 503 H 46.4482 6.0664 0.0850095 0
M  V30 504 H 45.1872 4.85592 0.452967 0
M  V30 505 H 44.1922 5.18512 -1.82826 0
M  V30 506 H 45.4172 6.42899 -2.18764 0
M  V30 507 H 43.3632 6.55979 0.0525597 0
M  V30 508 H 43.2802 7.41965 -1.44995 0
M  V30 509 H 44.5482 7.78845 -0.31941 0
M  V30 510 N 48.7773 0.814389 1.34928 0
M  V30 511 C 50.0023 0.410097 2.03305 0
M  V30 512 C 50.4273 -0.973464 1.60951 0
M  V30 513 O 49.7853 -1.63185 0.789964 0
M  V30 514 C 49.8333 0.51049 3.56968 0
M  V30 515 O 48.9373 -0.473035 4.09678 0
M  V30 516 H 48.2783 0.170088 0.641846 0
M  V30 517 H 50.8083 1.10244 1.72358 0
M  V30 518 H 50.8183 0.383135 4.06197 0
M  V30 519 H 49.4933 1.51963 3.87144 0
M  V30 520 H 48.0703 -0.305272 3.71648 0
M  V30 521 N 50.2554 -1.46986 0.568584 0
M  V30 522 C 51.2034 -2.31858 -0.185649 0
M  V30 523 C 52.1974 -1.43624 -0.898249 0
M  V30 524 O 53.4034 -1.60327 -0.818242 0
M  V30 525 H 49.7784 -0.747866 -0.0787399 0
M  V30 526 H 51.7494 -2.93303 0.549191 0
M  V30 527 C 50.4984 -3.26513 -1.19519 0
M  V30 528 H 49.8214 -3.94377 -0.656285 0
M  V30 529 H 51.2614 -3.88707 -1.6936 0
M  V30 530 C 49.7204 -2.50847 -2.24894 0
M  V30 531 O 50.2504 -2.26119 -3.32014 0
M  V30 532 N 48.4564 -2.11656 -1.99124 0
M  V30 533 H 48.0034 -2.31966 -1.12024 0
M  V30 534 H 47.9614 -1.61347 -2.69842 0
M  V30 535 N 51.7335 -0.305618 -1.54608 0
M  V30 536 C 52.9815 0.301701 -1.99835 0
M  V30 537 C 53.3025 1.54054 -1.19551 0
M  V30 538 O 52.5725 1.93702 -0.292658 0
M  V30 539 H 51.1525 0.114468 -0.738178 0
M  V30 540 H 53.8145 -0.418016 -1.90364 0
M  V30 541 H 52.9105 0.570548 -3.06841 0
M  V30 542 N 53.2116 1.57565 -0.0334293 0
M  V30 543 C 54.1216 2.13943 0.962572 0
M  V30 544 C 55.1376 1.09276 1.35406 0
M  V30 545 O 56.3136 1.41355 1.4346 0
M  V30 546 C 53.3786 2.65887 2.22497 0
M  V30 547 C 52.4396 3.85286 1.8935 0
M  V30 548 C 51.6726 4.34743 3.09571 0
M  V30 549 O 51.8956 3.83352 4.22371 0
M  V30 550 O 50.8296 5.26538 2.91618 0
M  V30 551 H 54.6556 2.99333 0.513169 0
M  V30 552 H 52.2406 1.4822 0.18743 0
M  V30 553 H 54.1226 2.99346 2.96598 0
M  V30 554 H 52.7976 1.83578 2.6661 0
M  V30 555 H 51.7046 3.56746 1.1262 0
M  V30 556 H 53.0376 4.68771 1.5005 0
M  V30 557 N 54.6897 -0.239769 1.55765 0
M  V30 558 C 55.6367 -1.29696 1.90913 0
M  V30 559 C 56.6067 -1.47478 0.764164 0
M  V30 560 O 57.7917 -1.61345 1.01845 0
M  V30 561 C 54.9317 -2.64598 2.21544 0
M  V30 562 C 54.0447 -2.54765 3.48882 0
M  V30 563 C 53.1797 -3.82069 3.69049 0
M  V30 564 C 52.2187 -3.66883 4.89963 0
M  V30 565 N 51.3557 -4.86094 5.06614 0
M  V30 566 H 56.1957 -0.990224 2.81067 0
M  V30 567 H 53.7327 -0.477684 1.39128 0
M  V30 568 H 55.6907 -3.43132 2.3731 0
M  V30 569 H 54.3207 -2.93405 1.34585 0
M  V30 570 H 53.3727 -1.67763 3.41409 0
M  V30 571 H 54.6847 -2.39457 4.37563 0
M  V30 572 H 53.8387 -4.69046 3.84812 0
M  V30 573 H 52.5777 -4.00282 2.78614 0
M  V30 574 H 51.5827 -2.78289 4.74168 0
M  V30 575 H 52.8077 -3.50157 5.81865 0
M  V30 576 H 50.7537 -5.04655 4.19117 0
M  V30 577 H 50.6707 -4.73443 5.89396 0
M  V30 578 H 51.9387 -5.74549 5.26795 0
M  V30 579 N 56.1678 -1.49265 -0.50573 0
M  V30 580 C 57.1148 -1.65585 -1.6078 0
M  V30 581 C 58.0848 -0.497396 -1.58478 0
M  V30 582 O 59.2698 -0.72385 -1.76536 0
M  V30 583 C 56.4098 -1.72408 -2.98948 0
M  V30 584 C 55.5228 -2.99525 -3.11301 0
M  V30 585 C 54.6578 -2.97356 -4.40174 0
M  V30 586 C 53.6968 -4.19074 -4.46143 0
M  V30 587 N 52.8338 -4.14841 -5.66437 0
M  V30 588 H 57.6738 -2.59688 -1.46172 0
M  V30 589 H 55.2108 -1.28761 -0.711261 0
M  V30 590 H 57.1688 -1.74344 -3.79025 0
M  V30 591 H 55.7988 -0.817753 -3.1227 0
M  V30 592 H 54.8508 -3.07222 -2.24318 0
M  V30 593 H 56.1628 -3.89518 -3.11572 0
M  V30 594 H 55.3168 -2.97829 -5.28567 0
M  V30 595 H 54.0558 -2.05133 -4.42461 0
M  V30 596 H 53.0608 -4.1885 -3.56153 0
M  V30 597 H 54.2858 -5.12483 -4.45575 0
M  V30 598 H 52.2318 -3.25453 -5.69575 0
M  V30 599 H 52.1488 -4.98564 -5.68304 0
M  V30 600 H 53.4168 -4.1941 -6.57051 0
M  V30 601 N 57.6459 0.756429 -1.3826 0
M  V30 602 C 58.8759 1.54341 -1.3734 0
M  V30 603 C 59.2839 1.89159 0.0393917 0
M  V30 604 O 58.6269 1.5307 1.01565 0
M  V30 605 C 58.6889 2.87238 -2.16182 0
M  V30 606 C 58.3529 2.74973 -3.65019 0
M  V30 607 C 59.3499 2.44962 -4.58574 0
M  V30 608 C 57.0349 2.92515 -4.08338 0
M  V30 609 C 59.0289 2.32642 -5.93428 0
M  V30 610 C 56.7159 2.79815 -5.43274 0
M  V30 611 C 57.7139 2.49921 -6.35632 0
M  V30 612 O 57.4019 2.37275 -7.68086 0
M  V30 613 H 57.1339 0.484281 -0.471643 0
M  V30 614 H 59.6879 0.944152 -1.82414 0
M  V30 615 H 57.9179 3.49342 -1.65822 0
M  V30 616 H 59.6069 3.48731 -2.07705 0
M  V30 617 H 60.3729 2.31081 -4.26412 0
M  V30 618 H 56.2519 3.14781 -3.368 0
M  V30 619 H 59.7959 2.0923 -6.65484 0
M  V30 620 H 55.6929 2.93269 -5.75034 0
M  V30 621 H 56.4609 2.52509 -7.78577 0
M  V30 622 N 59.124 1.23083 0.984299 0
M  V30 623 C 60.373 1.05466 1.71929 0
M  V30 624 C 60.686 -0.409211 1.91272 0
M  V30 625 O 61.892 -0.705226 2.62181 0
M  V30 626 C 60.348 1.83874 3.09384 0
M  V30 627 C 59.956 3.34566 2.97943 0
M  V30 628 C 61.7 1.74734 3.8687 0
M  V30 629 C 59.607 4.05381 4.30605 0
M  V30 630 H 58.537 0.391039 0.644674 0
M  V30 631 H 61.188 1.47013 1.09815 0
M  V30 632 H 59.57 1.35131 3.72231 0
M  V30 633 H 60.744 3.90767 2.44209 0
M  V30 634 H 59.059 3.44476 2.33934 0
M  V30 635 H 61.656 2.24957 4.85076 0
M  V30 636 H 61.999 0.709372 4.10212 0
M  V30 637 H 62.532 2.21067 3.30717 0
M  V30 638 H 59.271 5.09467 4.1246 0
M  V30 639 H 58.791 3.53967 4.84218 0
M  V30 640 H 60.47 4.11458 4.99311 0
M  V30 641 N 60.6021 -1.18246 1.0419 0
M  V30 642 C 61.8481 -1.88536 0.747122 0
M  V30 643 C 62.1811 -1.80223 -0.723409 0
M  V30 644 O 61.4561 -1.20337 -1.52804 0
M  V30 645 C 61.7391 -3.38968 1.21544 0
M  V30 646 C 61.5921 -3.56084 2.74816 0
M  V30 647 C 62.9111 -4.32648 0.806482 0
M  V30 648 H 60.0301 -0.684619 0.272883 0
M  V30 649 H 62.6721 -1.39113 1.29413 0
M  V30 650 H 60.8221 -3.8119 0.750081 0
M  V30 651 H 62.4941 -3.22946 3.29399 0
M  V30 652 H 60.7371 -2.98699 3.14582 0
M  V30 653 H 61.4081 -4.61639 3.02644 0
M  V30 654 H 63.8841 -3.98211 1.20695 0
M  V30 655 H 62.7601 -5.36462 1.1619 0
M  V30 656 H 63.0211 -4.41146 -0.29029 0
M  V30 657 N 62.0802 -0.821533 -1.34494 0
M  V30 658 C 63.3282 -0.408139 -1.97936 0
M  V30 659 C 63.6492 1.03193 -1.65457 0
M  V30 660 O 62.9192 1.71622 -0.944595 0
M  V30 661 H 61.4992 -0.147928 -0.732206 0
M  V30 662 H 64.1612 -1.05067 -1.64155 0
M  V30 663 H 63.2572 -0.52601 -3.07635 0
M  V30 664 N 63.5583 1.46682 -0.576371 0
M  V30 665 C 64.8053 2.02412 -0.0595339 0
M  V30 666 C 65.1333 1.44859 1.29793 0
M  V30 667 O 64.3883 0.601099 1.8624 0
M  V30 668 C 64.6873 3.57345 0.062886 0
M  V30 669 C 64.3533 4.33908 -1.22616 0
M  V30 670 C 63.0153 4.54544 -1.57933 0
M  V30 671 C 65.3673 4.77919 -2.07948 0
M  V30 672 C 62.6953 5.16444 -2.78393 0
M  V30 673 C 65.0473 5.41149 -3.27629 0
M  V30 674 C 63.7113 5.60014 -3.63236 0
M  V30 675 H 62.9813 0.74068 -0.021785 0
M  V30 676 H 65.6283 1.76128 -0.751735 0
M  V30 677 H 63.9333 3.82729 0.838178 0
M  V30 678 H 65.6303 3.98136 0.478439 0
M  V30 679 H 62.2203 4.18138 -0.941202 0
M  V30 680 H 66.4043 4.61738 -1.81967 0
M  V30 681 H 61.6603 5.29242 -3.06126 0
M  V30 682 H 65.8343 5.74211 -3.94023 0
M  V30 683 H 63.4613 6.07748 -4.56669 0
M  V30 684 N 65.0364 0.313813 1.54444 0
M  V30 685 C 65.9834 -0.55655 2.23989 0
M  V30 686 C 66.9534 -1.11943 1.22711 0
M  V30 687 O 68.1384 -1.16158 1.51367 0
M  V30 688 C 65.2784 -1.71635 2.99392 0
M  V30 689 C 64.3914 -1.18364 4.15468 0
M  V30 690 C 63.5264 -2.30834 4.78424 0
M  V30 691 C 62.5654 -1.74762 5.86622 0
M  V30 692 N 61.7024 -2.80855 6.43479 0
M  V30 693 H 66.5424 0.0430893 2.97969 0
M  V30 694 H 64.0794 0.0330359 1.47063 0
M  V30 695 H 66.0374 -2.39868 3.41349 0
M  V30 696 H 64.6674 -2.28742 2.27765 0
M  V30 697 H 63.7194 -0.393163 3.78363 0
M  V30 698 H 65.0314 -0.733262 4.93381 0
M  V30 699 H 64.1854 -3.0699 5.23299 0
M  V30 700 H 62.9244 -2.79204 3.99871 0
M  V30 701 H 61.9294 -0.970995 5.41158 0
M  V30 702 H 63.1544 -1.2728 6.67066 0
M  V30 703 H 61.1004 -3.28535 5.67804 0
M  V30 704 H 61.0174 -2.40351 7.16776 0
M  V30 705 H 62.2854 -3.5687 6.93011 0
M  V30 706 N 66.5145 -1.57545 0.0417849 0
M  V30 707 C 67.4465 -2.07904 -0.964799 0
M  V30 708 C 68.4595 -1.00497 -1.28079 0
M  V30 709 O 69.6485 -1.28087 -1.24322 0
M  V30 710 C 66.7485 -2.49928 -2.28887 0
M  V30 711 C 65.9215 -3.80562 -2.15619 0
M  V30 712 C 64.9805 -4.08999 -3.31069 0
M  V30 713 O 64.0065 -4.79061 -3.0739 0
M  V30 714 N 65.2085 -3.6017 -4.55256 0
M  V30 715 H 67.9735 -2.94886 -0.535029 0
M  V30 716 H 65.5345 -1.61252 -0.144681 0
M  V30 717 H 67.5265 -2.66034 -3.04972 0
M  V30 718 H 66.0965 -1.68245 -2.63463 0
M  V30 719 H 65.3165 -3.74129 -1.24183 0
M  V30 720 H 66.6045 -4.66126 -2.03971 0
M  V30 721 H 66.0025 -3.03512 -4.77386 0
M  V30 722 H 64.5595 -3.81532 -5.28466 0
M  V30 723 N 67.9926 0.231505 -1.5589 0
M  V30 724 C 69.2206 0.974505 -1.82513 0
M  V30 725 C 69.6356 1.78344 -0.619591 0
M  V30 726 O 68.9926 1.77792 0.411848 0
M  V30 727 C 69.0436 1.90007 -3.07538 0
M  V30 728 O 68.7646 1.12385 -4.2344 0
M  V30 729 C 70.2656 2.75779 -3.47075 0
M  V30 730 H 67.4856 0.286065 -0.606966 0
M  V30 731 H 70.0296 0.249739 -2.02969 0
M  V30 732 H 68.1846 2.57891 -2.89086 0
M  V30 733 H 68.5986 1.75125 -4.944 0
M  V30 734 H 70.0726 3.36443 -4.37619 0
M  V30 735 H 70.5496 3.47672 -2.68367 0
M  V30 736 H 71.1556 2.13323 -3.67931 0
M  V30 737 N 69.4707 1.49531 0.497807 0
M  V30 738 C 70.4037 1.61043 1.6168 0
M  V30 739 C 71.3817 0.459386 1.55976 0
M  V30 740 O 72.5657 0.675358 1.75986 0
M  V30 741 C 69.6927 1.56833 3.00202 0
M  V30 742 C 68.7387 2.77173 3.24156 0
M  V30 743 S 69.5717 4.38808 3.06933 0
M  V30 744 C 70.7277 4.37248 4.47845 0
M  V30 745 H 70.9607 2.55702 1.51671 0
M  V30 746 H 68.4937 1.38462 0.683201 0
M  V30 747 H 70.4517 1.55089 3.80076 0
M  V30 748 H 69.1127 0.634561 3.07623 0
M  V30 749 H 68.3057 2.70456 4.25288 0
M  V30 750 H 67.9077 2.76346 2.5201 0
M  V30 751 H 70.1997 4.09164 5.39992 0
M  V30 752 H 71.1427 5.38668 4.59612 0
M  V30 753 H 71.5507 3.67286 4.28674 0
M  V30 754 N 70.9488 -0.749086 1.3866 0
M  V30 755 C 72.1738 -1.54344 1.38538 0
M  V30 756 C 72.5988 -1.88088 -0.0216655 0
M  V30 757 O 71.9568 -1.50899 -1.00494 0
M  V30 758 C 72.0048 -2.8164 2.25192 0
M  V30 759 O 71.1088 -3.7698 1.67212 0
M  V30 760 H 70.4498 -0.466654 0.472367 0
M  V30 761 H 72.9798 -0.925355 1.82478 0
M  V30 762 H 72.9898 -3.30519 2.3921 0
M  V30 763 H 71.6648 -2.56411 3.27454 0
M  V30 764 H 70.2418 -3.35699 1.6236 0
M  V30 765 N 72.4269 -1.23603 -0.977757 0
M  V30 766 C 73.6549 -1.09646 -1.75458 0
M  V30 767 C 74.0699 0.351859 -1.85492 0
M  V30 768 O 73.4269 1.24327 -1.336 0
M  V30 769 C 73.4779 -1.71895 -3.18016 0
M  V30 770 O 73.1989 -3.11063 -3.08498 0
M  V30 771 C 74.6999 -1.63415 -4.12081 0
M  V30 772 H 71.9199 -0.38359 -0.550545 0
M  V30 773 H 74.4639 -1.63507 -1.22824 0
M  V30 774 H 72.6189 -1.22061 -3.67668 0
M  V30 775 H 73.0329 -3.41305 -3.9826 0
M  V30 776 H 74.5069 -2.11669 -5.09804 0
M  V30 777 H 74.9839 -0.593462 -4.35172 0
M  V30 778 H 75.5899 -2.12628 -3.68334 0
M  V30 779 N 73.905 1.17692 -1.04816 0
M  V30 780 C 74.838 2.20436 -0.590173 0
M  V30 781 C 75.816 1.58115 0.379244 0
M  V30 782 O 77 1.86228 0.291762 0
M  V30 783 C 74.127 3.38424 0.136817 0
M  V30 784 C 73.173 4.19176 -0.787023 0
M  V30 785 S 74.006 4.84815 -2.27409 0
M  V30 786 C 75.162 6.06195 -1.55817 0
M  V30 787 H 75.395 2.58944 -1.46067 0
M  V30 788 H 72.928 1.28246 -0.859784 0
M  V30 789 H 74.886 4.06798 0.550076 0
M  V30 790 H 73.547 2.98312 0.983299 0
M  V30 791 H 72.74 5.03499 -0.224681 0
M  V30 792 H 72.342 3.56219 -1.13947 0
M  V30 793 H 74.634 6.72078 -0.855387 0
M  V30 794 H 75.577 6.6695 -2.37873 0
M  V30 795 H 75.985 5.54701 -1.04722 0
M  V30 796 N 75.3831 0.828654 1.34056 0
M  V30 797 C 76.6081 0.431637 2.02859 0
M  V30 798 C 77.0331 -0.956339 1.61975 0
M  V30 799 O 76.3911 -1.62338 0.807228 0
M  V30 800 C 76.4391 0.548323 3.56407 0
M  V30 801 O 75.5431 -0.429556 4.10157 0
M  V30 802 H 74.8841 0.176886 0.640006 0
M  V30 803 H 77.4141 1.12066 1.71179 0
M  V30 804 H 77.4241 0.426196 4.05768 0
M  V30 805 H 76.0991 1.5606 3.8551 0
M  V30 806 H 74.6761 -0.265836 3.71951 0
M  V30 807 N 76.8612 -1.46375 0.584142 0
M  V30 808 C 77.8242 -2.28784 -0.138108 0
M  V30 809 C 78.8242 -1.38471 -0.817462 0
M  V30 810 O 80.0142 -1.60833 -0.669199 0
M  V30 811 C 77.1462 -3.18892 -1.20503 0
M  V30 812 H 78.3392 -2.94117 0.586127 0
M  V30 813 H 75.8922 -1.52509 0.342171 0
M  V30 814 H 76.6272 -2.58309 -1.96079 0
M  V30 815 H 76.4122 -3.85388 -0.722384 0
M  V30 816 H 77.9022 -3.80914 -1.71155 0
M  V30 817 N 78.3393 -0.321999 -1.54275 0
M  V30 818 C 79.3023 0.531975 -2.22941 0
M  V30 819 C 80.3023 1.04478 -1.22234 0
M  V30 820 O 81.4923 0.937452 -1.46825 0
M  V30 821 C 78.6243 1.73874 -2.93224 0
M  V30 822 H 79.8173 -0.0682612 -2.99822 0
M  V30 823 H 77.3703 -0.0730644 -1.56129 0
M  V30 824 H 78.1053 2.37825 -2.20476 0
M  V30 825 H 77.8903 1.37847 -3.6707 0
M  V30 826 H 79.3803 2.34496 -3.45545 0
M  V30 827 N 79.8174 1.5752 -0.0501392 0
M  V30 828 C 80.7644 2.1147 0.924603 0
M  V30 829 C 81.7344 1.02182 1.30951 0
M  V30 830 O 82.9194 1.29723 1.39916 0
M  V30 831 C 80.0594 2.66337 2.19451 0
M  V30 832 C 79.1724 3.89708 1.86418 0
M  V30 833 C 78.3074 4.32893 3.07859 0
M  V30 834 C 77.3464 5.48967 2.70742 0
M  V30 835 N 76.4834 5.87211 3.84874 0
M  V30 836 H 81.3234 2.94465 0.457639 0
M  V30 837 H 78.8604 1.45531 0.214266 0
M  V30 838 H 80.8184 2.96247 2.93758 0
M  V30 839 H 79.4484 1.86141 2.63726 0
M  V30 840 H 78.5004 3.66396 1.02264 0
M  V30 841 H 79.8124 4.74074 1.55096 0
M  V30 842 H 78.9664 4.6435 3.90466 0
M  V30 843 H 77.7054 3.47336 3.42358 0
M  V30 844 H 76.7104 5.17183 1.86551 0
M  V30 845 H 77.9354 6.3624 2.37436 0
M  V30 846 H 75.8814 5.04607 4.19175 0
M  V30 847 H 75.7984 6.66266 3.57247 0
M  V30 848 H 77.0664 6.23282 4.68123 0
M  V30 849 N 81.2955 -0.223234 1.56011 0
M  V30 850 C 82.2425 -1.27664 1.92277 0
M  V30 851 C 83.2125 -1.46659 0.779763 0
M  V30 852 O 84.3975 -1.60256 1.03551 0
M  V30 853 C 81.5375 -2.62234 2.24338 0
M  V30 854 C 80.6505 -2.51051 3.51564 0
M  V30 855 C 79.7855 -3.78133 3.7308 0
M  V30 856 C 78.8245 -3.61665 4.93827 0
M  V30 857 N 77.9615 -4.80693 5.11741 0
M  V30 858 H 82.8015 -0.960358 2.82101 0
M  V30 859 H 80.3385 -0.462901 1.39627 0
M  V30 860 H 82.2965 -3.40596 2.40936 0
M  V30 861 H 80.9265 -2.91961 1.3769 0
M  V30 862 H 79.9785 -1.64132 3.43169 0
M  V30 863 H 81.2905 -2.34803 4.40079 0
M  V30 864 H 80.4445 -4.64938 3.89766 0
M  V30 865 H 79.1835 -3.97304 2.82844 0
M  V30 866 H 78.1885 -2.73244 4.77093 0
M  V30 867 H 79.4135 -3.43966 5.85546 0
M  V30 868 H 77.3595 -5.00181 4.24446 0
M  V30 869 H 77.2765 -4.67165 5.94384 0
M  V30 870 H 78.5445 -5.6893 5.3286 0
M  V30 871 N 82.7736 -1.49793 -0.48987 0
M  V30 872 C 83.7206 -1.67281 -1.59014 0
M  V30 873 C 84.6906 -0.514177 -1.57941 0
M  V30 874 O 85.8756 -0.742533 -1.75759 0
M  V30 875 C 83.0156 -1.75569 -2.97102 0
M  V30 876 C 82.1286 -3.0281 -3.08107 0
M  V30 877 C 81.2636 -3.02008 -4.36995 0
M  V30 878 C 80.3026 -4.23782 -4.41673 0
M  V30 879 N 79.4396 -4.20826 -5.62005 0
M  V30 880 H 84.2796 -2.61224 -1.43409 0
M  V30 881 H 81.8166 -1.29508 -0.697565 0
M  V30 882 H 83.7746 -1.78354 -3.77155 0
M  V30 883 H 82.4046 -0.850827 -3.11385 0
M  V30 884 H 81.4566 -3.09584 -2.21047 0
M  V30 885 H 82.7686 -3.92801 -3.07423 0
M  V30 886 H 81.9226 -3.03418 -5.25378 0
M  V30 887 H 80.6616 -2.09815 -4.4026 0
M  V30 888 H 79.6666 -4.22604 -3.5169 0
M  V30 889 H 80.8916 -5.17181 -4.40115 0
M  V30 890 H 78.8376 -3.31476 -5.66091 0
M  V30 891 H 78.7546 -5.04564 -5.62984 0
M  V30 892 H 80.0226 -4.26355 -6.52565 0
M  V30 893 N 84.2517 0.741722 -1.39055 0
M  V30 894 C 85.5287 1.49252 -1.26425 0
M  V30 895 C 85.9087 2.10705 0.129144 0
M  V30 896 O 85.2567 1.98045 1.13976 0
M  V30 897 C 85.4667 2.54934 -2.38347 0
M  V30 898 C 86.8147 3.21506 -2.77343 0
M  V30 899 O 87.8387 2.65245 -2.37747 0
M  V30 900 O 86.6977 4.23294 -3.45665 0
M  V30 901 H 83.7917 0.662451 -0.495064 0
M  V30 902 H 86.3377 0.776121 -1.50912 0
M  V30 903 H 85.1097 2.07857 -3.31529 0
M  V30 904 H 84.7327 3.34141 -2.15489 0
M  V30 905 N 85.7298 1.2412 0.971189 0
M  V30 906 C 86.9758 1.08041 1.71625 0
M  V30 907 C 87.3088 -0.380407 1.90438 0
M  V30 908 O 86.5838 -1.28127 1.46334 0
M  V30 909 C 86.8668 1.81682 3.10908 0
M  V30 910 C 86.7198 3.35493 2.99608 0
M  V30 911 C 88.0388 1.58671 4.10501 0
M  V30 912 H 85.1578 0.39388 0.622919 0
M  V30 913 H 87.7998 1.52743 1.13003 0
M  V30 914 H 85.9498 1.43684 3.60953 0
M  V30 915 H 87.6218 3.83068 2.57015 0
M  V30 916 H 85.8648 3.64052 2.35899 0
M  V30 917 H 86.5358 3.82217 3.98264 0
M  V30 918 H 89.0118 1.91719 3.69301 0
M  V30 919 H 87.8878 2.1266 5.06031 0
M  V30 920 H 88.1488 0.524161 4.38982 0
M  V30 921 N 87.2079 -1.17134 1.05439 0
M  V30 922 C 88.4569 -1.86791 0.761049 0
M  V30 923 C 88.7699 -1.82072 -0.714795 0
M  V30 924 O 89.9759 -2.47223 -1.12218 0
M  V30 925 C 88.4319 -3.35166 1.31117 0
M  V30 926 C 88.0399 -3.48381 2.81664 0
M  V30 927 C 89.7839 -4.10134 1.09499 0
M  V30 928 C 87.6909 -4.90793 3.29964 0
M  V30 929 H 86.6209 -0.699681 0.281002 0
M  V30 930 H 89.2719 -1.3226 1.27199 0
M  V30 931 H 87.6539 -3.8925 0.72803 0
M  V30 932 H 88.8279 -3.04502 3.45855 0
M  V30 933 H 87.1429 -2.86836 3.01851 0
M  V30 934 H 89.7399 -5.152 1.43084 0
M  V30 935 H 90.0829 -4.16287 0.0328772 0
M  V30 936 H 90.6159 -3.62264 1.64346 0
M  V30 937 H 87.3549 -4.89816 4.35616 0
M  V30 938 H 86.8749 -5.35333 2.70516 0
M  V30 939 H 88.5539 -5.59573 3.24787 0
M  V30 940 N 88.686 -0.835752 -1.33615 0
M  V30 941 C 89.911 -0.442389 -2.02627 0
M  V30 942 C 90.336 0.947735 -1.62479 0
M  V30 943 O 89.694 1.61907 -0.815826 0
M  V30 944 C 89.742 -0.567216 -3.56111 0
M  V30 945 O 88.846 0.407799 -4.10379 0
M  V30 946 H 88.187 -0.180278 -0.639059 0
M  V30 947 H 90.717 -1.12972 -1.70583 0
M  V30 948 H 90.727 -0.447708 -4.05536 0
M  V30 949 H 89.402 -1.58103 -3.84677 0
M  V30 950 H 87.979 0.246107 -3.72087 0
M  V30 951 N 90.1641 1.46063 -0.591896 0
M  V30 952 C 91.0741 2.34192 0.13831 0
M  V30 953 C 92.0901 1.50305 0.876608 0
M  V30 954 O 93.2661 1.8315 0.837728 0
M  V30 955 C 90.3311 3.27656 1.13326 0
M  V30 956 C 89.3921 4.27445 0.39863 0
M  V30 957 C 88.6251 5.16443 1.34618 0
M  V30 958 O 88.8481 5.08553 2.58321 0
M  V30 959 O 87.7821 5.95843 0.851768 0
M  V30 960 H 91.6081 2.98002 -0.58552 0
M  V30 961 H 89.1931 1.45188 -0.352239 0
M  V30 962 H 91.0751 3.85291 1.70671 0
M  V30 963 H 89.7501 2.6643 1.83839 0
M  V30 964 H 88.6571 3.73471 -0.216895 0
M  V30 965 H 89.9901 4.91482 -0.265709 0
M  V30 966 N 91.6422 0.330177 1.54103 0
M  V30 967 C 92.5892 -0.532762 2.24567 0
M  V30 968 C 93.5592 -1.10635 1.23892 0
M  V30 969 O 94.7442 -1.14546 1.5259 0
M  V30 970 C 91.8842 -1.6845 3.01195 0
M  V30 971 C 90.9972 -1.13951 4.167 0
M  V30 972 C 90.1322 -2.25746 4.80845 0
M  V30 973 C 89.1712 -1.6853 5.88442 0
M  V30 974 N 88.3082 -2.74014 6.46421 0
M  V30 975 H 93.1482 0.0746905 2.97906 0
M  V30 976 H 90.6852 0.048632 1.4702 0
M  V30 977 H 92.6432 -2.36234 3.43874 0
M  V30 978 H 91.2732 -2.26314 2.30178 0
M  V30 979 H 90.3252 -0.35301 3.78758 0
M  V30 980 H 91.6372 -0.680892 4.94131 0
M  V30 981 H 90.7912 -3.01422 5.26526 0
M  V30 982 H 89.5302 -2.74947 4.0281 0
M  V30 983 H 88.5352 -0.913543 5.42157 0
M  V30 984 H 89.7602 -1.20198 6.68378 0
M  V30 985 H 87.7062 -3.22494 5.71256 0
M  V30 986 H 87.6232 -2.32735 7.19285 0
M  V30 987 H 88.8912 -3.49499 6.96757 0
M  V30 988 N 93.1203 -1.57491 0.0584922 0
M  V30 989 C 94.3683 -1.92597 -0.612436 0
M  V30 990 C 94.6893 -0.938162 -1.70949 0
M  V30 991 O 93.9593 0.0158301 -1.95894 0
M  V30 992 H 92.5393 -0.710964 -0.229214 0
M  V30 993 H 95.2013 -1.94571 0.113218 0
M  V30 994 H 94.2973 -2.94038 -1.04633 0
M  V30 995 N 94.5984 0.214957 -1.56127 0
M  V30 996 C 95.8464 0.936518 -1.79091 0
M  V30 997 C 96.1674 1.84606 -0.628148 0
M  V30 998 O 95.4374 1.92664 0.35462 0
M  V30 999 H 94.0174 0.3488 -0.660566 0
M  V30 1000 H 96.6794 0.22523 -1.93594 0
M  V30 1001 H 95.7754 1.53943 -2.71492 0
M  V30 1002 N 96.0765 1.50051 0.48192 0
M  V30 1003 C 97.0235 1.68122 1.58125 0
M  V30 1004 C 97.9935 0.522545 1.57666 0
M  V30 1005 O 99.1785 0.751844 1.75362 0
M  V30 1006 C 96.3185 1.77142 2.96167 0
M  V30 1007 C 95.4315 3.0444 3.06497 0
M  V30 1008 C 94.5665 3.04321 4.35387 0
M  V30 1009 C 93.6055 4.26118 4.3942 0
M  V30 1010 N 92.7425 4.238 5.59766 0
M  V30 1011 H 97.5825 2.6198 1.42022 0
M  V30 1012 H 95.1195 1.29877 0.690687 0
M  V30 1013 H 97.0775 1.80352 3.76203 0
M  V30 1014 H 95.7075 0.867329 3.1093 0
M  V30 1015 H 94.7595 3.10752 2.19402 0
M  V30 1016 H 96.0715 3.94426 3.05336 0
M  V30 1017 H 95.2255 3.062 5.23762 0
M  V30 1018 H 93.9645 2.12147 4.39141 0
M  V30 1019 H 92.9695 4.24463 3.49444 0
M  V30 1020 H 94.1945 5.19507 4.37366 0
M  V30 1021 H 92.1405 3.34474 5.64326 0
M  V30 1022 H 92.0575 5.07542 5.60301 0
M  V30 1023 H 93.3255 4.2981 6.50295 0
M  V30 1024 N 97.5546 -0.734337 1.39446 0
M  V30 1025 C 98.8006 -1.49613 1.36908 0
M  V30 1026 C 99.1336 -1.94169 -0.0347829 0
M  V30 1027 O 98.4086 -1.66833 -0.999847 0
M  V30 1028 C 98.6916 -2.73534 2.34203 0
M  V30 1029 C 98.5446 -2.34993 3.83534 0
M  V30 1030 C 99.8636 -3.75635 2.29317 0
M  V30 1031 H 96.9826 -0.542714 0.498629 0
M  V30 1032 H 99.6246 -0.839597 1.70443 0
M  V30 1033 H 97.7746 -3.29553 2.05736 0
M  V30 1034 H 99.4466 -1.84601 4.22753 0
M  V30 1035 H 97.6896 -1.67213 4.00278 0
M  V30 1036 H 98.3606 -3.23738 4.47099 0
M  V30 1037 H 100.837 -3.29203 2.54489 0
M  V30 1038 H 99.7126 -4.60008 2.99472 0
M  V30 1039 H 99.9736 -4.22603 1.29842 0
M  V30 1040 N 99.0327 -1.24633 -0.964593 0
M  V30 1041 C 99.9647 -0.999302 -2.06268 0
M  V30 1042 C 100.978 0.0323226 -1.62768 0
M  V30 1043 O 102.167 -0.205079 -1.77318 0
M  V30 1044 C 99.2667 -0.486816 -3.35385 0
M  V30 1045 C 98.4397 -1.5823 -4.07777 0
M  V30 1046 C 97.4987 -1.07191 -5.15166 0
M  V30 1047 O 96.5247 -1.76426 -5.41168 0
M  V30 1048 N 97.7267 0.0920373 -5.80427 0
M  V30 1049 H 100.492 -1.94477 -2.28033 0
M  V30 1050 H 98.0527 -1.15704 -1.13244 0
M  V30 1051 H 100.045 -0.130066 -4.04491 0
M  V30 1052 H 98.6147 0.364459 -3.10468 0
M  V30 1053 H 97.8347 -2.11109 -3.32906 0
M  V30 1054 H 99.1227 -2.31854 -4.52903 0
M  V30 1055 H 98.5207 0.670784 -5.61709 0
M  V30 1056 H 97.0777 0.389905 -6.50633 0
M  V30 1057 N 100.511 1.16574 -1.06058 0
M  V30 1058 C 101.458 2.20883 -0.669263 0
M  V30 1059 C 102.428 1.62729 0.332918 0
M  V30 1060 O 103.613 1.895 0.222346 0
M  V30 1061 C 100.753 3.45049 -0.0593572 0
M  V30 1062 C 99.8658 4.17458 -1.11143 0
M  V30 1063 C 99.0008 5.29135 -0.467916 0
M  V30 1064 C 98.0398 5.93343 -1.50369 0
M  V30 1065 N 97.1768 6.96516 -0.883706 0
M  V30 1066 H 102.017 2.53709 -1.5632 0
M  V30 1067 H 99.5538 1.24616 -0.781625 0
M  V30 1068 H 101.512 4.16033 0.311771 0
M  V30 1069 H 100.142 3.12781 0.797992 0
M  V30 1070 H 99.1938 3.45101 -1.60029 0
M  V30 1071 H 100.506 4.61307 -1.89731 0
M  V30 1072 H 99.6598 6.06684 -0.0436871 0
M  V30 1073 H 98.3988 4.86443 0.349864 0
M  V30 1074 H 97.4038 5.14517 -1.93784 0
M  V30 1075 H 98.6288 6.38114 -2.32352 0
M  V30 1076 H 96.5748 6.55943 -0.086595 0
M  V30 1077 H 96.4918 7.38723 -1.607 0
M  V30 1078 H 97.7598 7.77993 -0.484543 0
M  V30 1079 N 101.989 0.842826 1.3317 0
M  V30 1080 C 102.921 0.236245 2.27979 0
M  V30 1081 C 103.934 -0.585282 1.51915 0
M  V30 1082 O 105.123 -0.411705 1.73687 0
M  V30 1083 C 102.223 -0.685717 3.3189 0
M  V30 1084 C 101.396 0.0973448 4.37292 0
M  V30 1085 C 100.455 -0.748565 5.20848 0
M  V30 1086 O 99.4809 -0.186339 5.68895 0
M  V30 1087 N 100.683 -2.06527 5.42519 0
M  V30 1088 H 103.448 1.05088 2.80672 0
M  V30 1089 H 101.009 0.701667 1.45905 0
M  V30 1090 H 103.001 -1.25669 3.84694 0
M  V30 1091 H 101.571 -1.40105 2.79445 0
M  V30 1092 H 100.791 0.849706 3.84933 0
M  V30 1093 H 102.079 0.635643 5.04814 0
M  V30 1094 H 101.477 -2.54554 5.05192 0
M  V30 1095 H 100.034 -2.58464 5.98364 0
M  V30 1096 N 103.467 -1.45747 0.599634 0
M  V30 1097 C 104.714 -2.02292 0.0917284 0
M  V30 1098 C 105.042 -1.46906 -1.27472 0
M  V30 1099 O 104.297 -0.630652 -1.8526 0
M  V30 1100 C 104.596 -3.57399 -0.00602758 0
M  V30 1101 C 104.262 -4.31902 1.29503 0
M  V30 1102 C 102.924 -4.51974 1.65144 0
M  V30 1103 C 105.276 -4.74551 2.15525 0
M  V30 1104 C 102.604 -5.11949 2.86574 0
M  V30 1105 C 104.956 -5.35868 3.36196 0
M  V30 1106 C 103.62 -5.54165 3.72099 0
M  V30 1107 H 102.89 -0.740239 0.0335658 0
M  V30 1108 H 105.537 -1.7491 0.779661 0
M  V30 1109 H 103.842 -3.84014 -0.777183 0
M  V30 1110 H 105.539 -3.98846 -0.415038 0
M  V30 1111 H 102.129 -4.16588 1.00761 0
M  V30 1112 H 106.313 -4.58784 1.8929 0
M  V30 1113 H 101.569 -5.24305 3.14507 0
M  V30 1114 H 105.743 -5.6787 4.03109 0
M  V30 1115 H 103.37 -6.00406 4.6628 0
M  V30 1116 N 104.945 -0.338344 -1.53925 0
M  V30 1117 C 105.892 0.520845 -2.24846 0
M  V30 1118 C 106.862 1.09976 -1.24477 0
M  V30 1119 O 108.047 1.13735 -1.53196 0
M  V30 1120 C 105.187 1.6685 -3.02084 0
M  V30 1121 C 104.3 1.11739 -4.17299 0
M  V30 1122 C 103.435 2.23193 -4.82036 0
M  V30 1123 C 102.474 1.65407 -5.89328 0
M  V30 1124 N 101.611 2.70582 -6.47866 0
M  V30 1125 H 106.451 -0.0904881 -2.97863 0
M  V30 1126 H 103.988 -0.0564282 -1.46992 0
M  V30 1127 H 105.946 2.34407 -3.45122 0
M  V30 1128 H 104.576 2.2509 -2.31375 0
M  V30 1129 H 103.628 0.332919 -3.7894 0
M  V30 1130 H 104.94 0.654677 -4.94485 0
M  V30 1131 H 104.094 2.98626 -5.28117 0
M  V30 1132 H 102.833 2.72807 -4.04262 0
M  V30 1133 H 101.838 0.884779 -5.42634 0
M  V30 1134 H 103.063 1.16652 -6.69006 0
M  V30 1135 H 101.009 3.1946 -5.72959 0
M  V30 1136 H 100.926 2.28917 -7.20509 0
M  V30 1137 H 102.194 3.45799 -6.98601 0
M  V30 1138 N 106.423 1.57458 -0.0668435 0
M  V30 1139 C 107.653 1.97337 0.611677 0
M  V30 1140 C 108.061 0.943744 1.63982 0
M  V30 1141 O 107.404 -0.0785584 1.83532 0
M  V30 1142 C 107.466 3.33511 1.34205 0
M  V30 1143 C 107.13 4.54598 0.467941 0
M  V30 1144 C 108.127 5.19186 -0.272439 0
M  V30 1145 C 105.812 5.0075 0.39427 0
M  V30 1146 C 107.806 6.28274 -1.07476 0
M  V30 1147 C 105.493 6.09711 -0.411729 0
M  V30 1148 C 106.491 6.73335 -1.14492 0
M  V30 1149 O 106.179 7.80199 -1.93763 0
M  V30 1150 H 105.911 0.654042 0.170893 0
M  V30 1151 H 108.465 2.04961 -0.134289 0
M  V30 1152 H 106.695 3.22487 2.13398 0
M  V30 1153 H 108.384 3.58029 1.91233 0
M  V30 1154 H 109.15 4.84477 -0.225086 0
M  V30 1155 H 105.029 4.51009 0.954569 0
M  V30 1156 H 108.573 6.77866 -1.64755 0
M  V30 1157 H 104.47 6.43854 -0.460664 0
M  V30 1158 H 105.238 7.97053 -1.86142 0
M  V30 1159 N 107.901 -0.206675 1.56239 0
M  V30 1160 C 109.147 -0.930218 1.80208 0
M  V30 1161 C 109.48 -1.83387 0.638981 0
M  V30 1162 O 108.755 -1.91119 -0.361066 0
M  V30 1163 C 109.038 -1.75641 3.1436 0
M  V30 1164 C 108.891 -0.878257 4.41142 0
M  V30 1165 C 110.21 -2.73129 3.45092 0
M  V30 1166 H 107.329 -0.336742 0.655571 0
M  V30 1167 H 109.971 -0.198222 1.88963 0
M  V30 1168 H 108.121 -2.38048 3.07027 0
M  V30 1169 H 109.793 -0.269787 4.6051 0
M  V30 1170 H 108.036 -0.184385 4.33408 0
M  V30 1171 H 108.707 -1.49106 5.3148 0
M  V30 1172 H 111.183 -2.20856 3.52649 0
M  V30 1173 H 110.059 -3.28028 4.40101 0
M  V30 1174 H 110.32 -3.51606 2.68003 0
M  V30 1175 N 109.379 -1.50304 -0.473955 0
M  V30 1176 C 110.656 -1.51667 -1.23518 0
M  V30 1177 C 111.036 -0.259701 -2.09496 0
M  V30 1178 O 110.384 0.756986 -2.15597 0
M  V30 1179 C 110.594 -2.81082 -2.06868 0
M  V30 1180 C 111.942 -3.31631 -2.65153 0
M  V30 1181 O 112.966 -2.82384 -2.17113 0
M  V30 1182 O 111.825 -4.17471 -3.52675 0
M  V30 1183 H 108.919 -0.60822 -0.560355 0
M  V30 1184 H 111.465 -1.62592 -0.486011 0
M  V30 1185 H 110.237 -3.64041 -1.4349 0
M  V30 1186 H 109.86 -2.73146 -2.88924 0
M  V30 1187 N 110.857 0.726932 -1.39834 0
M  V30 1188 C 111.82 1.82269 -1.38962 0
M  V30 1189 C 112.82 1.58248 -0.285334 0
M  V30 1190 O 114.01 1.65499 -0.54366 0
M  V30 1191 C 111.142 3.20186 -1.17019 0
M  V30 1192 H 112.335 1.84443 -2.36476 0
M  V30 1193 H 109.888 0.931416 -1.25516 0
M  V30 1194 H 110.623 3.23669 -0.202204 0
M  V30 1195 H 110.408 3.3902 -1.96998 0
M  V30 1196 H 111.898 4.00235 -1.1917 0
M  V30 1197 N 112.336 1.25143 0.95797 0
M  V30 1198 C 113.299 1.05321 2.03569 0
M  V30 1199 C 114.299 0.007152 1.60798 0
M  V30 1200 O 115.489 0.24903 1.72411 0
M  V30 1201 C 112.621 0.598394 3.35607 0
M  V30 1202 H 113.814 2.00986 2.22586 0
M  V30 1203 H 111.367 1.07502 1.13459 0
M  V30 1204 H 112.102 -0.361014 3.22284 0
M  V30 1205 H 111.887 1.35351 3.67998 0
M  V30 1206 H 113.377 0.48104 4.1482 0
M  V30 1207 N 113.814 -1.1601 1.06675 0
M  V30 1208 C 115.039 -1.91068 0.806706 0
M  V30 1209 C 115.464 -1.77112 -0.633485 0
M  V30 1210 O 114.822 -1.09908 -1.44187 0
M  V30 1211 C 114.87 -3.39655 1.21106 0
M  V30 1212 O 113.974 -4.10893 0.352189 0
M  V30 1213 H 113.315 -0.595125 0.294486 0
M  V30 1214 H 115.845 -1.46955 1.42356 0
M  V30 1215 H 115.855 -3.90434 1.18428 0
M  V30 1216 H 114.53 -3.49132 2.26008 0
M  V30 1217 H 113.107 -3.70285 0.440868 0
M  V30 1218 N 115.292 -0.849877 -1.32721 0
M  V30 1219 C 116.255 -0.296122 -2.27279 0
M  V30 1220 C 117.255 0.541458 -1.5141 0
M  V30 1221 O 118.445 0.353658 -1.70572 0
M  V30 1222 C 115.577 0.581579 -3.35902 0
M  V30 1223 H 116.77 -1.13064 -2.77771 0
M  V30 1224 H 114.323 -0.62383 -1.43311 0
M  V30 1225 H 115.058 1.43809 -2.9067 0
M  V30 1226 H 114.843 -0.0178814 -3.92096 0
M  V30 1227 H 116.333 0.961951 -4.0637 0
M  V30 1228 N 116.77 1.45427 -0.607355 0
M  V30 1229 C 117.998 2.06614 -0.108814 0
M  V30 1230 C 118.413 1.45204 1.2067 0
M  V30 1231 O 117.77 0.566132 1.73497 0
M  V30 1232 C 117.821 3.61481 0.0375347 0
M  V30 1233 O 117.542 4.20598 -1.22593 0
M  V30 1234 C 119.043 4.39652 0.567561 0
M  V30 1235 H 116.263 0.66747 -0.0687351 0
M  V30 1236 H 118.807 1.86675 -0.835022 0
M  V30 1237 H 116.962 3.80762 0.714068 0
M  V30 1238 H 117.376 5.1377 -1.05547 0
M  V30 1239 H 118.85 5.48518 0.61905 0
M  V30 1240 H 119.327 4.09417 1.58978 0
M  V30 1241 H 119.933 4.25234 -0.0749202 0
M  V30 1242 N 118.248 0.346503 1.53744 0
M  V30 1243 C 119.178 -0.501193 2.28058 0
M  V30 1244 C 120.159 -1.10014 1.29734 0
M  V30 1245 O 121.344 -1.12097 1.58581 0
M  V30 1246 C 118.474 -1.65078 3.05559 0
M  V30 1247 C 117.428 -1.18003 4.11411 0
M  V30 1248 C 116.754 -2.41837 4.76884 0
M  V30 1249 C 118.054 -0.278394 5.21558 0
M  V30 1250 H 119.748 0.11875 2.99164 0
M  V30 1251 H 117.294 0.0585531 1.43881 0
M  V30 1252 H 119.247 -2.25028 3.56287 0
M  V30 1253 H 117.971 -2.29767 2.32109 0
M  V30 1254 H 116.63 -0.603331 3.61601 0
M  V30 1255 H 116.278 -3.0494 4.00026 0
M  V30 1256 H 115.978 -2.1102 5.48402 0
M  V30 1257 H 117.502 -3.02508 5.30397 0
M  V30 1258 H 118.916 -0.784823 5.67903 0
M  V30 1259 H 117.313 -0.0619707 6.00068 0
M  V30 1260 H 118.383 0.684677 4.80042 0
M  V30 1261 N 119.726 -1.57421 0.075193 0
M  V30 1262 C 120.674 -2.14124 -0.908508 0
M  V30 1263 C 121.668 -1.07898 -1.30592 0
M  V30 1264 O 122.874 -1.26273 -1.28277 0
M  V30 1265 H 119.249 -0.684707 -0.310935 0
M  V30 1266 H 121.22 -2.95634 -0.405374 0
M  V30 1267 C 119.969 -2.72044 -2.16535 0
M  V30 1268 H 119.292 -3.53456 -1.86839 0
M  V30 1269 H 120.732 -3.15311 -2.83469 0
M  V30 1270 C 119.191 -1.66968 -2.92615 0
M  V30 1271 O 119.721 -1.0967 -3.86439 0
M  V30 1272 N 117.927 -1.37923 -2.55784 0
M  V30 1273 H 117.474 -1.84706 -1.79559 0
M  V30 1274 H 117.432 -0.67852 -3.06991 0
M  V30 1275 N 121.204 0.198386 -1.56346 0
M  V30 1276 C 122.114 1.2664 -1.97483 0
M  V30 1277 C 123.13 1.49989 -0.882002 0
M  V30 1278 O 124.306 1.62668 -1.18748 0
M  V30 1279 C 121.371 2.59141 -2.30319 0
M  V30 1280 C 120.432 2.43892 -3.53292 0
M  V30 1281 C 119.665 3.70074 -3.84553 0
M  V30 1282 O 119.888 4.74101 -3.1715 0
M  V30 1283 O 118.822 3.658 -4.7799 0
M  V30 1284 H 122.648 0.947304 -2.88548 0
M  V30 1285 H 120.233 0.403123 -1.43859 0
M  V30 1286 H 122.115 3.37352 -2.5253 0
M  V30 1287 H 120.79 2.90684 -1.42423 0
M  V30 1288 H 119.697 1.63803 -3.36332 0
M  V30 1289 H 121.03 2.17282 -4.41644 0
M  V30 1290 N 122.682 1.50554 0.465978 0
M  V30 1291 C 123.629 1.6979 1.56333 0
M  V30 1292 C 124.599 0.539239 1.57103 0
M  V30 1293 O 125.784 0.770401 1.74555 0
M  V30 1294 C 122.924 1.80273 2.94271 0
M  V30 1295 C 122.037 3.07674 3.0325 0
M  V30 1296 C 121.172 3.08922 4.32135 0
M  V30 1297 C 120.211 4.30755 4.34875 0
M  V30 1298 N 119.348 4.29714 5.55239 0
M  V30 1299 H 124.188 2.63472 1.39235 0
M  V30 1300 H 121.725 1.30602 0.676873 0
M  V30 1301 H 123.683 1.84332 3.74269 0
M  V30 1302 H 122.313 0.900258 3.09992 0
M  V30 1303 H 121.365 3.13062 2.16094 0
M  V30 1304 H 122.677 3.97642 3.01135 0
M  V30 1305 H 121.831 3.11738 5.20485 0
M  V30 1306 H 120.57 2.16792 4.36866 0
M  V30 1307 H 119.575 4.28146 3.44922 0
M  V30 1308 H 120.8 5.24117 4.31831 0
M  V30 1309 H 118.746 3.4044 5.60746 0
M  V30 1310 H 118.663 5.13456 5.54886 0
M  V30 1311 H 119.931 4.36683 6.457 0
M  V30 1312 N 124.16 -0.719506 1.40217 0
M  V30 1313 C 125.123 -1.8153 1.39927 0
M  V30 1314 C 126.123 -1.58095 0.293723 0
M  V30 1315 O 127.313 -1.65209 0.552429 0
M  V30 1316 C 124.445 -3.19561 1.18716 0
M  V30 1317 H 125.638 -1.83186 2.37451 0
M  V30 1318 H 123.191 -0.924746 1.26008 0
M  V30 1319 H 123.926 -3.23557 0.219366 0
M  V30 1320 H 123.711 -3.3797 1.98793 0
M  V30 1321 H 125.201 -3.99598 1.21291 0
M  V30 1322 N 125.638 -1.25649 -0.95132 0
M  V30 1323 C 126.884 -1.10757 -1.69884 0
M  V30 1324 C 127.217 0.350061 -1.91019 0
M  V30 1325 O 126.492 1.25783 -1.48354 0
M  V30 1326 C 126.775 -1.86606 -3.07978 0
M  V30 1327 C 126.628 -3.40217 -2.94232 0
M  V30 1328 C 127.947 -1.65182 -4.07925 0
M  V30 1329 H 125.066 -0.40374 -0.616574 0
M  V30 1330 H 127.708 -1.54521 -1.10558 0
M  V30 1331 H 125.858 -1.49409 -3.58621 0
M  V30 1332 H 127.53 -3.87108 -2.50889 0
M  V30 1333 H 125.773 -3.67759 -2.30078 0
M  V30 1334 H 126.444 -3.88505 -3.92133 0
M  V30 1335 H 128.92 -1.9757 -3.66204 0
M  V30 1336 H 127.796 -2.20683 -5.02583 0
M  V30 1337 H 128.057 -0.593933 -4.38092 0
M  V30 1338 N 127.117 1.15442 -1.07289 0
M  V30 1339 C 128.064 2.20161 -0.692653 0
M  V30 1340 C 129.034 1.63073 0.31564 0
M  V30 1341 O 130.219 1.89725 0.202235 0
M  V30 1342 C 127.359 3.44967 -0.0959509 0
M  V30 1343 C 126.472 4.16256 -1.15564 0
M  V30 1344 C 125.607 5.28609 -0.524011 0
M  V30 1345 C 124.646 5.91715 -1.56653 0
M  V30 1346 N 123.783 6.9554 -0.957531 0
M  V30 1347 H 128.623 2.52037 -1.59002 0
M  V30 1348 H 126.16 1.2378 -0.794798 0
M  V30 1349 H 128.118 4.16341 0.267628 0
M  V30 1350 H 126.748 3.1361 0.764772 0
M  V30 1351 H 125.8 3.43385 -1.6368 0
M  V30 1352 H 127.112 4.59268 -1.94613 0
M  V30 1353 H 126.266 6.06604 -0.108032 0
M  V30 1354 H 125.005 4.86787 0.29825 0
M  V30 1355 H 124.01 5.12433 -1.9923 0
M  V30 1356 H 125.235 6.35614 -2.39107 0
M  V30 1357 H 123.181 6.55814 -0.156162 0
M  V30 1358 H 123.098 7.36977 -1.68526 0
M  V30 1359 H 124.366 7.77435 -0.567032 0
M  V30 1360 N 128.595 0.856903 1.32268 0
M  V30 1361 C 129.505 0.306131 2.32594 0
M  V30 1362 C 130.521 -0.577209 1.64147 0
M  V30 1363 O 131.697 -0.477043 1.95669 0
M  V30 1364 C 128.762 -0.494561 3.43154 0
M  V30 1365 C 127.823 0.415186 4.27288 0
M  V30 1366 C 127.056 -0.347387 5.32568 0
M  V30 1367 O 127.279 -1.57708 5.48165 0
M  V30 1368 O 126.213 0.287982 6.01211 0
M  V30 1369 H 130.039 1.13737 2.81598 0
M  V30 1370 H 127.624 0.619902 1.35932 0
M  V30 1371 H 129.506 -0.948944 4.10576 0
M  V30 1372 H 128.181 -1.30257 2.96336 0
M  V30 1373 H 127.088 0.917793 3.62667 0
M  V30 1374 H 128.421 1.18844 4.77637 0
M  V30 1375 N 130.073 -1.45103 0.615059 0
M  V30 1376 C 131.003 -2.33339 -0.0865619 0
M  V30 1377 C 131.984 -1.4727 -0.851209 0
M  V30 1378 O 133.169 -1.76026 -0.820281 0
M  V30 1379 C 130.299 -3.30095 -1.07956 0
M  V30 1380 C 129.253 -4.25858 -0.427628 0
M  V30 1381 C 128.579 -5.12361 -1.5294 0
M  V30 1382 C 129.879 -5.18165 0.655944 0
M  V30 1383 H 131.573 -2.92254 0.650224 0
M  V30 1384 H 129.119 -1.40532 0.314138 0
M  V30 1385 H 131.072 -3.90698 -1.57901 0
M  V30 1386 H 129.796 -2.69355 -1.84703 0
M  V30 1387 H 128.455 -3.66564 0.0510292 0
M  V30 1388 H 128.103 -4.47984 -2.28734 0
M  V30 1389 H 127.803 -5.77238 -1.09865 0
M  V30 1390 H 129.327 -5.75833 -2.03098 0
M  V30 1391 H 130.741 -5.72796 0.240257 0
M  V30 1392 H 129.138 -5.91559 1.00888 0
M  V30 1393 H 130.208 -4.60144 1.52957 0
M  V30 1394 N 131.551 -0.354651 -1.53558 0
M  V30 1395 C 132.498 0.496968 -2.25386 0
M  V30 1396 C 133.468 1.0865 -1.25636 0
M  V30 1397 O 134.653 1.12104 -1.54394 0
M  V30 1398 C 131.793 1.63637 -3.03837 0
M  V30 1399 C 130.906 1.07307 -4.18461 0
M  V30 1400 C 130.041 2.18068 -4.84376 0
M  V30 1401 C 129.08 1.59147 -5.91049 0
M  V30 1402 N 128.217 2.63695 -6.50699 0
M  V30 1403 H 133.057 -0.122075 -2.9775 0
M  V30 1404 H 130.594 -0.0720154 -1.46924 0
M  V30 1405 H 132.552 2.30734 -3.47589 0
M  V30 1406 H 131.182 2.22623 -2.33749 0
M  V30 1407 H 130.234 0.292708 -3.79272 0
M  V30 1408 H 131.546 0.602193 -4.95152 0
M  V30 1409 H 130.7 2.93007 -5.31255 0
M  V30 1410 H 129.439 2.68504 -4.07133 0
M  V30 1411 H 128.444 0.827175 -5.43542 0
M  V30 1412 H 129.669 1.09549 -6.70206 0
M  V30 1413 H 127.615 3.13365 -5.76315 0
M  V30 1414 H 127.532 2.21263 -7.22896 0
M  V30 1415 H 128.8 3.3837 -7.02229 0
M  V30 1416 N 133.029 1.57378 -0.0835403 0
M  V30 1417 C 133.976 2.13384 0.879539 0
M  V30 1418 C 134.946 1.04936 1.28754 0
M  V30 1419 O 136.131 1.32662 1.37133 0
M  V30 1420 C 133.271 2.70932 2.13752 0
M  V30 1421 C 132.384 3.93575 1.7811 0
M  V30 1422 C 131.519 4.39326 2.98607 0
M  V30 1423 C 130.558 5.54587 2.59037 0
M  V30 1424 N 129.695 5.95243 3.72331 0
M  V30 1425 H 134.535 2.9537 0.395076 0
M  V30 1426 H 132.072 1.45953 0.183349 0
M  V30 1427 H 134.03 3.02411 2.87408 0
M  V30 1428 H 132.66 1.91693 2.59718 0
M  V30 1429 H 131.712 3.68483 0.94469 0
M  V30 1430 H 133.024 4.77258 1.45005 0
M  V30 1431 H 132.178 4.72528 3.80529 0
M  V30 1432 H 130.917 3.5452 3.34913 0
M  V30 1433 H 129.922 5.21024 1.75539 0
M  V30 1434 H 131.147 6.41133 2.23887 0
M  V30 1435 H 129.093 5.13385 4.08378 0
M  V30 1436 H 129.01 6.73694 3.43034 0
M  V30 1437 H 130.278 6.33072 4.54797 0
M  V30 1438 N 134.507 -0.190092 1.56449 0
M  V30 1439 C 135.784 -0.935886 1.71757 0
M  V30 1440 C 136.164 -2.01173 0.639726 0
M  V30 1441 O 135.512 -2.25827 -0.348502 0
M  V30 1442 C 135.722 -1.51775 3.1427 0
M  V30 1443 C 137.07 -1.99794 3.74656 0
M  V30 1444 O 138.094 -1.61607 3.1743 0
M  V30 1445 O 136.953 -2.70079 4.751 0
M  V30 1446 H 134.047 -0.439229 0.700719 0
M  V30 1447 H 136.593 -0.179395 1.68749 0
M  V30 1448 H 135.365 -0.742505 3.84191 0
M  V30 1449 H 134.988 -2.33894 3.21527 0
M  V30 1450 N 135.985 -1.50799 -0.457987 0
M  V30 1451 C 137.396 -1.55152 -1.0385 0
M  V30 1452 C 137.747 -0.362719 -1.92818 0
M  V30 1453 O 136.872 0.522915 -2.09987 0
M  V30 1454 C 137.467 -2.81173 -1.89017 0
M  V30 1455 C 136.026 -2.88164 -2.42154 0
M  V30 1456 C 135.173 -2.49591 -1.20829 0
M  V30 1457 H 138.124 -1.56874 -0.240068 0
M  V30 1458 H 138.145 -2.63769 -2.74238 0
M  V30 1459 H 137.657 -3.67677 -1.24238 0
M  V30 1460 H 135.758 -2.06042 -3.10447 0
M  V30 1461 H 135.871 -3.91356 -2.76364 0
M  V30 1462 H 134.235 -2.02322 -1.54719 0
M  V30 1463 H 135.018 -3.38418 -0.576927 0
M  V30 1464 N 137.463 0.71206 -1.40597 0
M  V30 1465 C 138.688 1.50617 -1.42581 0
M  V30 1466 C 139.113 1.88079 -0.0282102 0
M  V30 1467 O 138.471 1.53511 0.964579 0
M  V30 1468 C 138.519 2.7557 -2.3258 0
M  V30 1469 O 137.623 3.72414 -1.77148 0
M  V30 1470 H 136.964 0.453966 -0.484573 0
M  V30 1471 H 139.494 0.876649 -1.84868 0
M  V30 1472 H 139.504 3.2406 -2.47889 0
M  V30 1473 H 138.179 2.47639 -3.34138 0
M  V30 1474 H 136.756 3.31276 -1.71204 0
M  V30 1475 N 138.941 1.26152 0.944643 0
M  V30 1476 C 140.187 1.11657 1.69294 0
M  V30 1477 C 140.52 -0.339926 1.91202 0
M  V30 1478 O 139.795 -1.24994 1.49019 0
M  V30 1479 C 140.078 1.88236 3.06984 0
M  V30 1480 C 139.931 3.41772 2.92424 0
M  V30 1481 C 141.25 1.67343 4.07043 0
M  V30 1482 H 138.369 0.407004 0.614424 0
M  V30 1483 H 141.011 1.55106 1.09737 0
M  V30 1484 H 139.161 1.51308 3.57824 0
M  V30 1485 H 140.833 3.88433 2.48832 0
M  V30 1486 H 139.076 3.68974 2.28124 0
M  V30 1487 H 139.747 3.90579 3.90067 0
M  V30 1488 H 142.223 1.99509 3.65151 0
M  V30 1489 H 141.099 2.23346 5.01406 0
M  V30 1490 H 141.36 0.617158 4.37771 0
M  V30 1491 N 140.419 -1.14872 1.07899 0
M  V30 1492 C 141.382 -2.17986 0.708161 0
M  V30 1493 C 142.382 -1.58775 -0.25442 0
M  V30 1494 O 143.572 -1.74166 -0.034645 0
M  V30 1495 C 140.704 -3.40871 0.0446929 0
M  V30 1496 H 141.897 -2.52306 1.62116 0
M  V30 1497 H 139.45 -1.2943 0.876218 0
M  V30 1498 H 140.185 -3.12124 -0.880281 0
M  V30 1499 H 139.97 -3.8511 0.737091 0
M  V30 1500 H 141.46 -4.17121 -0.19991 0
M  V30 1501 N 141.898 -0.863906 -1.31812 0
M  V30 1502 C 143.128 -0.485406 -2.00817 0
M  V30 1503 C 143.536 0.925007 -1.65046 0
M  V30 1504 O 142.879 1.61653 -0.872574 0
M  V30 1505 C 142.941 -0.555589 -3.55181 0
M  V30 1506 C 142.605 -1.92654 -4.14407 0
M  V30 1507 C 143.602 -2.89324 -4.31958 0
M  V30 1508 C 141.287 -2.2262 -4.50273 0
M  V30 1509 C 143.281 -4.14108 -4.84555 0
M  V30 1510 C 140.968 -3.47654 -5.02573 0
M  V30 1511 C 141.966 -4.43214 -5.19664 0
M  V30 1512 O 141.654 -5.66033 -5.70843 0
M  V30 1513 H 141.386 -0.188224 -0.649267 0
M  V30 1514 H 143.94 -1.16514 -1.69156 0
M  V30 1515 H 142.17 0.181037 -3.86276 0
M  V30 1516 H 143.859 -0.19138 -4.05449 0
M  V30 1517 H 144.625 -2.6748 -4.04573 0
M  V30 1518 H 140.504 -1.4902 -4.3625 0
M  V30 1519 H 144.048 -4.88703 -4.9781 0
M  V30 1520 H 139.945 -3.69345 -5.29391 0
M  V30 1521 H 140.713 -5.6812 -5.89222 0
M  V30 1522 N 143.376 1.44774 -0.622745 0
M  V30 1523 C 144.622 2.0242 -0.124083 0
M  V30 1524 C 144.955 1.4881 1.24777 0
M  V30 1525 O 144.23 0.668799 1.8264 0
M  V30 1526 C 144.513 3.59957 -0.101619 0
M  V30 1527 C 144.366 4.23867 -1.50521 0
M  V30 1528 C 145.685 4.36284 0.578272 0
M  V30 1529 H 142.804 0.735528 -0.0465645 0
M  V30 1530 H 145.446 1.72447 -0.797617 0
M  V30 1531 H 143.596 3.85623 0.471934 0
M  V30 1532 H 145.268 4.09336 -2.12701 0
M  V30 1533 H 143.511 3.81684 -2.06154 0
M  V30 1534 H 144.182 5.32843 -1.4416 0
M  V30 1535 H 146.658 4.16001 0.0906057 0
M  V30 1536 H 145.534 5.46004 0.563149 0
M  V30 1537 H 145.795 4.10271 1.64713 0
M  V30 1538 N 144.854 0.36279 1.53368 0
M  V30 1539 C 145.764 -0.492994 2.29362 0
M  V30 1540 C 146.78 -1.09507 1.35219 0
M  V30 1541 O 147.956 -1.10662 1.68273 0
M  V30 1542 C 145.021 -1.61855 3.066 0
M  V30 1543 C 144.082 -1.04429 4.16405 0
M  V30 1544 C 143.315 -2.11621 4.89951 0
M  V30 1545 O 143.538 -3.32684 4.63333 0
M  V30 1546 O 142.472 -1.74835 5.75948 0
M  V30 1547 H 146.298 0.125331 3.03441 0
M  V30 1548 H 143.883 0.127253 1.48857 0
M  V30 1549 H 145.765 -2.27302 3.54841 0
M  V30 1550 H 144.44 -2.22233 2.3536 0
M  V30 1551 H 143.347 -0.353819 3.72423 0
M  V30 1552 H 144.68 -0.485113 4.89804 0
M  V30 1553 N 146.332 -1.57332 0.0918853 0
M  V30 1554 C 147.242 -2.17368 -0.882505 0
M  V30 1555 C 148.258 -1.14226 -1.31257 0
M  V30 1556 O 149.434 -1.46582 -1.38115 0
M  V30 1557 C 146.499 -2.73962 -2.12476 0
M  V30 1558 C 145.56 -3.92048 -1.7492 0
M  V30 1559 C 144.793 -4.45933 -2.93223 0
M  V30 1560 O 145.016 -3.98764 -4.07852 0
M  V30 1561 O 143.95 -5.36999 -2.71875 0
M  V30 1562 H 147.776 -3.01031 -0.40172 0
M  V30 1563 H 145.361 -1.48813 -0.132291 0
M  V30 1564 H 147.243 -3.10147 -2.85283 0
M  V30 1565 H 145.918 -1.93347 -2.59613 0
M  V30 1566 H 144.825 -3.6068 -0.993025 0
M  V30 1567 H 146.158 -4.74017 -1.32548 0
M  V30 1568 N 147.81 0.181792 -1.56548 0
M  V30 1569 C 149.087 0.926765 -1.72251 0
M  V30 1570 C 149.467 2.00831 -0.650386 0
M  V30 1571 O 148.815 2.26008 0.336521 0
M  V30 1572 C 149.025 1.50106 -3.1507 0
M  V30 1573 C 150.373 1.97805 -3.75711 0
M  V30 1574 O 151.397 1.59922 -3.18282 0
M  V30 1575 O 150.256 2.67555 -4.76525 0
M  V30 1576 H 147.35 0.435506 -0.703039 0
M  V30 1577 H 149.896 0.170443 -1.68842 0
M  V30 1578 H 148.668 0.72212 -3.84579 0
M  V30 1579 H 148.291 2.32186 -3.22763 0
M  V30 1580 N 149.288 1.51039 0.449983 0
M  V30 1581 C 150.238 1.67824 1.54335 0
M  V30 1582 C 151.222 0.5324 1.51836 0
M  V30 1583 O 152.414 0.787762 1.58503 0
M  V30 1584 C 149.543 1.7951 2.92628 0
M  V30 1585 C 148.629 2.99838 2.9993 0
M  V30 1586 N 149.02 4.23207 2.77001 0
M  V30 1587 C 147.318 2.98832 3.31082 0
M  V30 1588 C 148.019 5.04361 2.89818 0
M  V30 1589 N 146.995 4.38746 3.2094 0
M  V30 1590 H 150.797 2.60884 1.35339 0
M  V30 1591 H 148.311 1.48513 0.657085 0
M  V30 1592 H 150.308 1.89642 3.7127 0
M  V30 1593 H 148.968 0.876227 3.12654 0
M  V30 1594 H 149.979 4.5236 2.52172 0
M  V30 1595 H 146.656 2.16527 3.56963 0
M  V30 1596 H 148.046 6.12528 2.76151 0
M  V30 1597 N 150.766 -0.704594 1.40972 0
M  V30 1598 C 152.012 -1.46675 1.40051 0
M  V30 1599 C 152.345 -1.94199 0.00641102 0
M  V30 1600 O 151.62 -1.68916 -0.964235 0
M  V30 1601 C 151.903 -2.68505 2.39952 0
M  V30 1602 C 151.756 -2.26805 3.88432 0
M  V30 1603 C 153.075 -3.70686 2.37233 0
M  V30 1604 H 150.194 -0.532015 0.510028 0
M  V30 1605 H 152.836 -0.803255 1.72185 0
M  V30 1606 H 150.986 -3.25114 2.1268 0
M  V30 1607 H 152.658 -1.75592 4.26574 0
M  V30 1608 H 150.901 -1.58685 4.03734 0
M  V30 1609 H 151.572 -3.14181 4.53866 0
M  V30 1610 H 154.048 -3.23731 2.61415 0
M  V30 1611 H 152.924 -4.53553 3.09162 0
M  V30 1612 H 153.185 -4.19754 1.38777 0
M  V30 1613 N 152.244 -1.26651 -0.937939 0
M  V30 1614 C 153.207 -1.08546 -2.01867 0
M  V30 1615 C 154.207 -0.0327327 -1.60767 0
M  V30 1616 O 155.397 -0.276427 -1.71993 0
M  V30 1617 C 152.529 -0.651711 -3.34613 0
M  V30 1618 H 153.722 -2.04502 -2.1936 0
M  V30 1619 H 151.275 -1.09294 -1.11734 0
M  V30 1620 H 152.01 0.309696 -3.22818 0
M  V30 1621 H 151.795 -1.41189 -3.65798 0
M  V30 1622 H 153.285 -0.546973 -4.14002 0
M  V30 1623 N 153.722 1.14298 -1.08507 0
M  V30 1624 C 154.672 2.17449 -0.685569 0
M  V30 1625 C 155.656 1.58167 0.295315 0
M  V30 1626 O 156.848 1.76675 0.107172 0
M  V30 1627 C 153.977 3.43161 -0.0975318 0
M  V30 1628 C 153.063 4.09471 -1.10426 0
M  V30 1629 N 153.454 4.51089 -2.28806 0
M  V30 1630 C 151.752 4.35976 -0.940258 0
M  V30 1631 C 152.453 5.02654 -2.9277 0
M  V30 1632 N 151.429 4.96927 -2.20374 0
M  V30 1633 H 155.231 2.47369 -1.587 0
M  V30 1634 H 152.745 1.30992 -0.959936 0
M  V30 1635 H 154.742 4.16388 0.20664 0
M  V30 1636 H 153.402 3.14719 0.798872 0
M  V30 1637 H 154.413 4.44097 -2.66455 0
M  V30 1638 H 151.09 4.17386 -0.0977441 0
M  V30 1639 H 152.48 5.44723 -3.93352 0
M  V30 1640 N 155.201 0.870884 1.31352 0
M  V30 1641 C 156.164 0.332243 2.26779 0
M  V30 1642 C 157.164 -0.517302 1.52252 0
M  V30 1643 O 158.354 -0.326477 1.71113 0
M  V30 1644 C 155.486 -0.528066 3.36785 0
M  V30 1645 H 156.679 1.17469 2.75937 0
M  V30 1646 H 154.232 0.64655 1.423 0
M  V30 1647 H 154.967 -1.39167 2.92922 0
M  V30 1648 H 154.752 0.0802582 3.92018 0
M  V30 1649 H 156.242 -0.897179 4.07849 0
M  V30 1650 N 156.679 -1.44442 0.630414 0
M  V30 1651 C 157.909 -2.06115 0.141465 0
M  V30 1652 C 158.317 -1.47179 -1.1889 0
M  V30 1653 O 157.66 -0.588873 -1.74006 0
M  V30 1654 C 157.722 -3.59467 -0.0484355 0
M  V30 1655 C 157.386 -4.40864 1.20366 0
M  V30 1656 C 158.383 -4.74391 2.12719 0
M  V30 1657 C 156.068 -4.8125 1.43887 0
M  V30 1658 C 158.062 -5.47186 3.26904 0
M  V30 1659 C 155.749 -5.53795 2.5837 0
M  V30 1660 C 156.747 -5.86682 3.49705 0
M  V30 1661 O 156.435 -6.57749 4.62191 0
M  V30 1662 H 156.167 -0.671648 0.0765792 0
M  V30 1663 H 158.721 -1.86312 0.864695 0
M  V30 1664 H 156.951 -3.77758 -0.826803 0
M  V30 1665 H 158.64 -4.02909 -0.491849 0
M  V30 1666 H 159.406 -4.43728 1.95781 0
M  V30 1667 H 155.285 -4.55073 0.736853 0
M  V30 1668 H 158.829 -5.72773 3.98217 0
M  V30 1669 H 154.726 -5.83872 2.75251 0
M  V30 1670 H 155.494 -6.76217 4.61164 0
M  V30 1671 N 158.157 -0.370918 -1.53173 0
M  V30 1672 C 159.12 0.460778 -2.24521 0
M  V30 1673 C 160.12 1.00536 -1.25496 0
M  V30 1674 O 161.31 0.890266 -1.49733 0
M  V30 1675 C 158.442 1.64457 -2.98608 0
M  V30 1676 H 159.635 -0.163613 -2.99453 0
M  V30 1677 H 157.188 -0.122699 -1.55818 0
M  V30 1678 H 157.923 2.30691 -2.2793 0
M  V30 1679 H 157.708 1.26099 -3.7127 0
M  V30 1680 H 159.198 2.23384 -3.5283 0
M  V30 1681 N 159.635 1.57281 -0.100228 0
M  V30 1682 C 160.567 2.11342 0.886972 0
M  V30 1683 C 161.58 1.05182 1.24261 0
M  V30 1684 O 162.769 1.32613 1.19483 0
M  V30 1685 C 159.869 2.5825 2.19454 0
M  V30 1686 C 159.042 3.88302 2.01346 0
M  V30 1687 C 158.101 4.21004 3.15661 0
M  V30 1688 O 157.127 4.9014 2.89398 0
M  V30 1689 N 158.329 3.76818 4.41575 0
M  V30 1690 H 161.094 2.96668 0.425216 0
M  V30 1691 H 158.655 1.61678 0.0847334 0
M  V30 1692 H 160.647 2.7717 2.94888 0
M  V30 1693 H 159.217 1.77907 2.57037 0
M  V30 1694 H 158.437 3.7848 1.10212 0
M  V30 1695 H 159.725 4.73375 1.8653 0
M  V30 1696 H 159.123 3.2102 4.65792 0
M  V30 1697 H 157.68 4.00882 5.13942 0
M  V30 1698 N 161.113 -0.173488 1.56642 0
M  V30 1699 C 162.338 -0.910149 1.86363 0
M  V30 1700 C 162.763 -1.75132 0.686318 0
M  V30 1701 O 162.121 -1.77595 -0.364643 0
M  V30 1702 C 162.169 -1.76447 3.14482 0
M  V30 1703 O 161.273 -2.86584 2.96553 0
M  V30 1704 H 160.614 -0.255086 0.613047 0
M  V30 1705 H 163.144 -0.172283 2.03873 0
M  V30 1706 H 163.154 -2.16483 3.45831 0
M  V30 1707 H 161.829 -1.14658 3.99783 0
M  V30 1708 H 160.406 -2.50146 2.76553 0
M  V30 1709 N 162.591 -1.51276 -0.441967 0
M  V30 1710 C 163.837 -1.63958 -1.19355 0
M  V30 1711 C 164.17 -0.352543 -1.90973 0
M  V30 1712 O 163.445 0.647627 -1.83401 0
M  V30 1713 C 163.728 -2.83979 -2.21422 0
M  V30 1714 C 163.581 -4.22646 -1.53918 0
M  V30 1715 C 164.9 -2.99521 -3.22451 0
M  V30 1716 H 162.019 -0.596709 -0.432559 0
M  V30 1717 H 164.661 -1.83748 -0.483398 0
M  V30 1718 H 162.811 -2.67237 -2.81987 0
M  V30 1719 H 164.483 -4.51045 -0.967256 0
M  V30 1720 H 162.726 -4.25558 -0.841615 0
M  V30 1721 H 163.397 -5.02609 -2.28229 0
M  V30 1722 H 165.873 -3.14944 -2.71937 0
M  V30 1723 H 164.749 -3.85072 -3.91166 0
M  V30 1724 H 165.01 -2.11391 -3.88287 0
M  V30 1725 N 164.069 0.697108 -1.41344 0
M  V30 1726 C 165.48 1.27697 -1.36199 0
M  V30 1727 C 165.831 1.9615 -0.0443463 0
M  V30 1728 O 164.956 1.98689 0.857419 0
M  V30 1729 C 165.551 2.32223 -2.46694 0
M  V30 1730 C 164.11 2.8579 -2.44952 0
M  V30 1731 C 163.257 1.59807 -2.26621 0
M  V30 1732 H 166.208 0.491968 -1.50882 0
M  V30 1733 H 166.229 3.1348 -2.15664 0
M  V30 1734 H 165.741 1.82373 -3.42581 0
M  V30 1735 H 163.842 3.3982 -1.52817 0
M  V30 1736 H 163.955 3.36325 -3.41207 0
M  V30 1737 H 162.319 1.8556 -1.7447 0
M  V30 1738 H 163.102 1.11956 -3.24532 0
M  V30 1739 N 165.547 1.27147 0.931209 0
M  V30 1740 C 166.777 1.15914 1.71019 0
M  V30 1741 C 167.185 -0.287112 1.87009 0
M  V30 1742 O 166.528 -1.20761 1.38429 0
M  V30 1743 C 166.59 1.76647 3.13107 0
M  V30 1744 C 166.254 3.25807 3.20467 0
M  V30 1745 C 167.251 4.22489 3.02983 0
M  V30 1746 C 164.936 3.66452 3.43538 0
M  V30 1747 C 166.93 5.57794 3.08454 0
M  V30 1748 C 164.617 5.01888 3.48643 0
M  V30 1749 C 165.615 5.97369 3.31119 0
M  V30 1750 O 165.303 7.30337 3.35952 0
M  V30 1751 H 165.035 0.404062 0.54195 0
M  V30 1752 H 167.589 1.68457 1.17521 0
M  V30 1753 H 165.819 1.18578 3.68071 0
M  V30 1754 H 167.508 1.60179 3.72958 0
M  V30 1755 H 168.274 3.92425 2.85004 0
M  V30 1756 H 164.153 2.92611 3.5623 0
M  V30 1757 H 167.697 6.32298 2.94694 0
M  V30 1758 H 163.594 5.31609 3.66145 0
M  V30 1759 H 164.362 7.38739 3.5243 0
M  V30 1760 N 167.025 -1.13721 1.09112 0
M  V30 1761 C 168.273 -1.84559 0.823562 0
M  V30 1762 C 168.594 -1.83754 -0.652658 0
M  V30 1763 O 167.864 -1.29102 -1.47342 0
M  V30 1764 H 166.444 -0.683376 0.301673 0
M  V30 1765 H 169.106 -1.37771 1.37859 0
M  V30 1766 H 168.202 -2.8917 1.17419 0
M  V30 1767 N 168.503 -0.877838 -1.30888 0
M  V30 1768 C 169.749 -0.493426 -1.96706 0
M  V30 1769 C 170.082 0.953504 -1.6918 0
M  V30 1770 O 169.357 1.67266 -0.992594 0
M  V30 1771 C 169.64 -0.760429 -3.51979 0
M  V30 1772 C 169.493 -2.25747 -3.89048 0
M  V30 1773 C 170.812 -0.232148 -4.39487 0
M  V30 1774 H 167.931 -0.180746 -0.714493 0
M  V30 1775 H 170.573 -1.10052 -1.54882 0
M  V30 1776 H 168.723 -0.243715 -3.87735 0
M  V30 1777 H 170.395 -2.84204 -3.63354 0
M  V30 1778 H 168.638 -2.72694 -3.37373 0
M  V30 1779 H 169.309 -2.39491 -4.97341 0
M  V30 1780 H 171.785 -0.674314 -4.106 0
M  V30 1781 H 170.661 -0.448355 -5.47066 0
M  V30 1782 H 170.922 0.866297 -4.33529 0
M  V30 1783 N 169.982 1.44106 -0.638065 0
M  V30 1784 C 171.207 2.0685 -0.150916 0
M  V30 1785 C 171.632 1.47417 1.16833 0
M  V30 1786 O 170.99 0.578264 1.71831 0
M  V30 1787 C 171.038 3.60555 -0.05708 0
M  V30 1788 O 170.142 4.00465 0.984972 0
M  V30 1789 H 169.483 0.658151 -0.0879399 0
M  V30 1790 H 172.013 1.84865 -0.876707 0
M  V30 1791 H 172.023 4.07789 0.131232 0
M  V30 1792 H 170.698 4.03193 -1.02021 0
M  V30 1793 H 169.275 3.64849 0.770672 0
M  V30 1794 N 171.46 0.379036 1.52974 0
M  V30 1795 C 172.392 -0.495963 2.2377 0
M  V30 1796 C 173.405 -1.03517 1.25651 0
M  V30 1797 O 174.594 -0.939249 1.51791 0
M  V30 1798 C 171.694 -1.69894 2.93239 0
M  V30 1799 C 170.867 -1.2889 4.17979 0
M  V30 1800 C 169.926 -2.35543 4.70538 0
M  V30 1801 O 168.952 -1.97375 5.33883 0
M  V30 1802 N 170.154 -3.67318 4.49508 0
M  V30 1803 H 172.919 0.110523 2.99496 0
M  V30 1804 H 170.48 0.204878 1.60598 0
M  V30 1805 H 172.472 -2.40747 3.25304 0
M  V30 1806 H 171.042 -2.212 2.20883 0
M  V30 1807 H 170.262 -0.409676 3.92065 0
M  V30 1808 H 171.55 -0.991443 4.99047 0
M  V30 1809 H 170.948 -4.01095 3.98923 0
M  V30 1810 H 169.505 -4.34235 4.8609 0
M  V30 1811 N 172.938 -1.57226 0.108567 0
M  V30 1812 C 174.187 -1.94008 -0.551703 0
M  V30 1813 C 174.5 -0.993442 -1.68494 0
M  V30 1814 O 175.706 -1.25551 -2.40726 0
M  V30 1815 C 174.162 -3.44763 -1.03279 0
M  V30 1816 C 173.77 -4.47943 0.0714193 0
M  V30 1817 C 175.514 -3.90483 -1.66503 0
M  V30 1818 C 173.421 -5.89865 -0.425779 0
M  V30 1819 H 172.351 -0.724206 -0.209863 0
M  V30 1820 H 175.002 -1.82547 0.186741 0
M  V30 1821 H 173.384 -3.51422 -1.82533 0
M  V30 1822 H 174.558 -4.52942 0.847365 0
M  V30 1823 H 172.873 -4.11913 0.609669 0
M  V30 1824 H 175.47 -4.93925 -2.04798 0
M  V30 1825 H 175.813 -3.29877 -2.53942 0
M  V30 1826 H 176.346 -3.86581 -0.938074 0
M  V30 1827 H 173.085 -6.54202 0.412316 0
M  V30 1828 H 172.605 -5.88309 -1.16843 0
M  V30 1829 H 174.284 -6.40844 -0.890397 0
M  V30 1830 N 174.416 0.165178 -1.56732 0
M  V30 1831 C 175.363 1.2044 -1.96883 0
M  V30 1832 C 176.333 1.43664 -0.833657 0
M  V30 1833 O 177.518 1.56302 -1.09427 0
M  V30 1834 C 174.658 2.53727 -2.33916 0
M  V30 1835 C 173.771 2.3783 -3.6064 0
M  V30 1836 C 172.906 3.64026 -3.86857 0
M  V30 1837 C 171.945 3.43088 -5.06909 0
M  V30 1838 N 171.082 4.61369 -5.29229 0
M  V30 1839 H 175.922 0.854996 -2.85471 0
M  V30 1840 H 173.459 0.41076 -1.41249 0
M  V30 1841 H 175.417 3.31419 -2.53411 0
M  V30 1842 H 174.047 2.8665 -1.48431 0
M  V30 1843 H 173.099 1.51282 -3.49024 0
M  V30 1844 H 174.411 2.18308 -4.4849 0
M  V30 1845 H 173.565 4.50152 -4.06753 0
M  V30 1846 H 172.304 3.86533 -2.97394 0
M  V30 1847 H 171.309 2.55349 -4.86906 0
M  V30 1848 H 172.534 3.21997 -5.97909 0
M  V30 1849 H 170.48 4.84084 -4.42718 0
M  V30 1850 H 170.397 4.44783 -6.11313 0
M  V30 1851 H 171.665 5.48761 -5.53608 0
M  V30 1852 N 175.894 1.51508 0.433938 0
M  V30 1853 C 176.857 1.72473 1.50949 0
M  V30 1854 C 177.857 0.594725 1.49398 0
M  V30 1855 O 179.047 0.862315 1.5136 0
M  V30 1856 C 176.179 1.78431 2.90474 0
M  V30 1857 H 177.372 2.68467 1.33662 0
M  V30 1858 H 174.925 1.41549 0.662836 0
M  V30 1859 H 175.66 0.842645 3.13161 0
M  V30 1860 H 175.445 2.60558 2.93005 0
M  V30 1861 H 176.935 1.96479 3.68491 0
M  V30 1862 N 177.372 -0.689602 1.41712 0
M  V30 1863 C 178.783 -1.26973 1.36875 0
M  V30 1864 C 179.134 -1.96124 0.054748 0
M  V30 1865 O 178.259 -1.99141 -0.84687 0
M  V30 1866 C 178.854 -2.30912 2.47922 0
M  V30 1867 C 177.413 -2.84486 2.46464 0
M  V30 1868 C 176.56 -1.58603 2.27465 0
M  V30 1869 H 179.511 -0.48396 1.51141 0
M  V30 1870 H 179.532 -3.12331 2.17323 0
M  V30 1871 H 179.044 -1.80554 3.43543 0
M  V30 1872 H 177.145 -3.39005 1.54617 0
M  V30 1873 H 177.258 -3.34511 3.42986 0
M  V30 1874 H 175.622 -1.84632 1.75451 0
M  V30 1875 H 176.405 -1.10233 3.25121 0
M  V30 1876 N 178.85 -1.27639 -0.924453 0
M  V30 1877 C 179.813 -1.10681 -2.00705 0
M  V30 1878 C 180.813 -0.0497823 -1.60723 0
M  V30 1879 O 182.003 -0.294654 -1.7169 0
M  V30 1880 C 179.135 -0.687164 -3.33902 0
M  V30 1881 H 180.328 -2.06817 -2.17179 0
M  V30 1882 H 177.881 -1.10473 -1.10569 0
M  V30 1883 H 178.616 0.275439 -3.23128 0
M  V30 1884 H 178.401 -1.45061 -3.6428 0
M  V30 1885 H 179.891 -0.590853 -4.13399 0
M  V30 1886 N 180.328 1.1314 -1.09713 0
M  V30 1887 C 181.258 2.20748 -0.761102 0
M  V30 1888 C 182.239 1.68061 0.262566 0
M  V30 1889 O 183.424 1.93765 0.129977 0
M  V30 1890 C 180.554 3.46812 -0.184054 0
M  V30 1891 C 179.508 4.12606 -1.13757 0
M  V30 1892 C 178.834 5.33031 -0.422083 0
M  V30 1893 C 180.134 4.59603 -2.48118 0
M  V30 1894 H 181.828 2.49113 -1.66082 0
M  V30 1895 H 179.374 1.19734 -0.799987 0
M  V30 1896 H 181.327 4.21353 0.0631215 0
M  V30 1897 H 180.051 3.17851 0.750868 0
M  V30 1898 H 178.71 3.40036 -1.37007 0
M  V30 1899 H 178.358 5.00335 0.517072 0
M  V30 1900 H 178.058 5.77999 -1.05788 0
M  V30 1901 H 179.582 6.10325 -0.183277 0
M  V30 1902 H 180.996 5.25552 -2.29059 0
M  V30 1903 H 179.393 5.15321 -3.07514 0
M  V30 1904 H 180.463 3.73971 -3.08665 0
M  V30 1905 N 181.806 0.884767 1.30421 0
M  V30 1906 C 182.756 0.322846 2.25703 0
M  V30 1907 C 183.74 -0.548582 1.51259 0
M  V30 1908 O 184.932 -0.39304 1.72581 0
M  V30 1909 C 182.061 -0.461787 3.4018 0
M  V30 1910 C 181.147 0.423717 4.21978 0
M  V30 1911 N 181.538 1.52408 4.82292 0
M  V30 1912 C 179.836 0.218795 4.45463 0
M  V30 1913 C 180.537 2.07136 5.43571 0
M  V30 1914 N 179.513 1.36635 5.26148 0
M  V30 1915 H 183.315 1.16363 2.69883 0
M  V30 1916 H 180.829 0.73415 1.44859 0
M  V30 1917 H 182.826 -0.880985 4.07485 0
M  V30 1918 H 181.486 -1.30001 2.9754 0
M  V30 1919 H 182.497 1.90693 4.81515 0
M  V30 1920 H 179.174 -0.582275 4.1342 0
M  V30 1921 H 180.564 2.99538 6.01437 0
M  V30 1922 N 183.284 -1.43765 0.645699 0
M  V30 1923 C 184.509 -2.06767 0.161883 0
M  V30 1924 C 184.934 -1.48034 -1.16049 0
M  V30 1925 O 184.292 -0.587369 -1.71522 0
M  V30 1926 C 184.34 -3.60519 0.0762003 0
M  V30 1927 O 183.444 -4.00982 -0.963721 0
M  V30 1928 H 182.785 -0.657675 0.091429 0
M  V30 1929 H 185.315 -1.84397 0.886499 0
M  V30 1930 H 185.325 -4.07853 -0.109604 0
M  V30 1931 H 184 -4.02646 1.04157 0
M  V30 1932 H 182.577 -3.65253 -0.751312 0
M  V30 1933 N 184.763 -0.387143 -1.52771 0
M  V30 1934 C 185.695 0.484089 -2.2403 0
M  V30 1935 C 186.708 1.02849 -1.26198 0
M  V30 1936 O 187.897 0.931186 -1.52286 0
M  V30 1937 C 184.997 1.68337 -2.94136 0
M  V30 1938 C 184.17 1.26672 -4.18656 0
M  V30 1939 C 183.229 2.33045 -4.7178 0
M  V30 1940 O 182.255 1.94541 -5.34923 0
M  V30 1941 N 183.457 3.64929 -4.5145 0
M  V30 1942 H 186.222 -0.126404 -2.99433 0
M  V30 1943 H 183.783 -0.213392 -1.60488 0
M  V30 1944 H 185.775 2.39019 -3.26577 0
M  V30 1945 H 184.345 2.20025 -2.22053 0
M  V30 1946 H 183.565 0.388878 -3.92277 0
M  V30 1947 H 184.853 0.964964 -4.99566 0
M  V30 1948 H 184.251 3.98974 -4.01044 0
M  V30 1949 H 182.808 4.31651 -4.88386 0
M  V30 1950 N 186.241 1.57166 -0.116904 0
M  V30 1951 C 187.489 1.94737 0.540533 0
M  V30 1952 C 187.81 1.00096 1.67349 0
M  V30 1953 O 187.08 0.0568854 1.95817 0
M  V30 1954 H 185.66 0.718981 0.202669 0
M  V30 1955 H 188.322 1.94017 -0.185353 0
M  V30 1956 H 187.418 2.97719 0.936483 0
M  V30 1957 N 187.719 -0.156864 1.56817 0
M  V30 1958 C 188.949 -0.885031 1.86684 0
M  V30 1959 C 189.357 -1.75696 0.701954 0
M  V30 1960 O 188.7 -1.80569 -0.337732 0
M  V30 1961 C 188.762 -1.80092 3.11138 0
M  V30 1962 C 188.426 -1.10714 4.43386 0
M  V30 1963 C 189.423 -0.465714 5.1781 0
M  V30 1964 C 187.108 -1.09959 4.90117 0
M  V30 1965 C 189.102 0.174002 6.37162 0
M  V30 1966 C 186.789 -0.456055 6.09396 0
M  V30 1967 C 187.787 0.179622 6.82764 0
M  V30 1968 O 187.475 0.812975 7.99779 0
M  V30 1969 H 187.207 -0.261813 0.623242 0
M  V30 1970 H 189.761 -0.157383 2.04796 0
M  V30 1971 H 187.991 -2.56926 2.89009 0
M  V30 1972 H 189.68 -2.40018 3.27332 0
M  V30 1973 H 190.446 -0.463427 4.82781 0
M  V30 1974 H 186.325 -1.58378 4.3294 0
M  V30 1975 H 189.869 0.670765 6.94368 0
M  V30 1976 H 185.766 -0.455975 6.43888 0
M  V30 1977 H 186.534 0.71366 8.15383 0
M  V30 1978 N 189.197 -1.51736 -0.425897 0
M  V30 1979 C 190.425 -1.68794 -1.1965 0
M  V30 1980 C 190.84 -0.390164 -1.84725 0
M  V30 1981 O 190.197 0.632376 -1.71194 0
M  V30 1982 C 190.248 -2.81174 -2.27208 0
M  V30 1983 O 189.969 -4.05925 -1.64793 0
M  V30 1984 C 191.47 -3.09599 -3.17275 0
M  V30 1985 H 188.69 -0.566128 -0.360194 0
M  V30 1986 H 191.234 -1.98211 -0.503249 0
M  V30 1987 H 189.389 -2.54324 -2.9223 0
M  V30 1988 H 189.803 -4.68423 -2.35967 0
M  V30 1989 H 191.277 -3.91786 -3.88854 0
M  V30 1990 H 191.754 -2.22468 -3.78688 0
M  V30 1991 H 192.36 -3.38151 -2.57941 0
M  V30 1992 N 190.675 0.682077 -1.42076 0
M  V30 1993 C 191.923 1.4393 -1.41876 0
M  V30 1994 C 192.244 1.94971 -0.0335599 0
M  V30 1995 O 191.514 1.72591 0.926773 0
M  V30 1996 H 190.094 0.534085 -0.522267 0
M  V30 1997 H 192.756 0.806427 -1.77434 0
M  V30 1998 H 191.852 2.29588 -2.11414 0
M  V30 1999 N 192.153 1.28127 0.917671 0
M  V30 2000 C 193.378 1.18007 1.70555 0
M  V30 2001 C 193.803 -0.258257 1.86319 0
M  V30 2002 O 193.161 -1.1869 1.37049 0
M  V30 2003 C 193.209 1.87948 3.07746 0
M  V30 2004 O 192.313 1.18427 3.9503 0
M  V30 2005 H 191.654 0.409867 0.522403 0
M  V30 2006 H 194.184 1.69379 1.1477 0
M  V30 2007 H 194.194 1.95701 3.58001 0
M  V30 2008 H 192.869 2.92573 2.95591 0
M  V30 2009 H 191.446 1.18811 3.53466 0
M  V30 2010 N 193.631 -1.12557 1.10312 0
M  V30 2011 C 194.579 -2.20325 0.745629 0
M  V30 2012 C 195.573 -1.67429 -0.25763 0
M  V30 2013 O 196.779 -1.79612 -0.118132 0
M  V30 2014 H 193.154 -0.718118 0.223182 0
M  V30 2015 H 195.125 -2.47733 1.66346 0
M  V30 2016 C 193.874 -3.47168 0.192262 0
M  V30 2017 H 193.197 -3.88215 0.955475 0
M  V30 2018 H 194.637 -4.23995 -0.0198274 0
M  V30 2019 C 193.096 -3.19298 -1.07472 0
M  V30 2020 O 193.626 -3.3891 -2.15645 0
M  V30 2021 N 191.832 -2.73113 -0.992847 0
M  V30 2022 H 191.379 -2.57354 -0.112474 0
M  V30 2023 H 191.337 -2.54842 -1.84127 0
M  V30 2024 N 195.109 -0.891671 -1.2995 0
M  V30 2025 C 196.355 -0.514261 -1.96171 0
M  V30 2026 C 196.688 0.935506 -1.70182 0
M  V30 2027 O 195.963 1.66204 -1.01028 0
M  V30 2028 C 196.246 -0.797719 -3.51153 0
M  V30 2029 C 196.099 -2.2986 -3.86632 0
M  V30 2030 C 197.418 -0.278749 -4.39216 0
M  V30 2031 H 194.537 -0.188314 -0.712535 0
M  V30 2032 H 197.179 -1.11689 -1.53706 0
M  V30 2033 H 195.329 -0.284826 -3.87455 0
M  V30 2034 H 197.001 -2.88042 -3.60319 0
M  V30 2035 H 195.244 -2.76257 -3.34462 0
M  V30 2036 H 195.915 -2.44753 -4.94773 0
M  V30 2037 H 198.391 -0.717825 -4.09862 0
M  V30 2038 H 197.267 -0.506353 -5.46559 0
M  V30 2039 H 197.528 0.820266 -4.34424 0
M  V30 2040 N 196.587 1.43421 -0.653314 0
M  V30 2041 C 197.534 2.30768 0.0382271 0
M  V30 2042 C 198.504 1.44755 0.814576 0
M  V30 2043 O 199.689 1.73624 0.791162 0
M  V30 2044 C 196.829 3.30336 0.998599 0
M  V30 2045 C 195.942 4.31448 0.218342 0
M  V30 2046 C 195.077 5.18098 1.17252 0
M  V30 2047 C 194.116 6.10902 0.382702 0
M  V30 2048 N 193.253 6.90176 1.28848 0
M  V30 2049 H 198.093 2.89357 -0.712511 0
M  V30 2050 H 195.63 1.42548 -0.363128 0
M  V30 2051 H 197.588 3.86572 1.56901 0
M  V30 2052 H 196.218 2.73397 1.71621 0
M  V30 2053 H 195.27 3.77506 -0.46836 0
M  V30 2054 H 196.582 4.97227 -0.395812 0
M  V30 2055 H 195.736 5.7896 1.81356 0
M  V30 2056 H 194.475 4.52444 1.82058 0
M  V30 2057 H 193.48 5.49128 -0.27169 0
M  V30 2058 H 194.705 6.78598 -0.260957 0
M  V30 2059 H 192.651 6.27171 1.92334 0
M  V30 2060 H 192.568 7.52478 0.728887 0
M  V30 2061 H 193.836 7.55543 1.91766 0
M  V30 2062 N 198.065 0.39524 1.52563 0
M  V30 2063 C 199.311 -0.185318 2.01952 0
M  V30 2064 C 199.644 -1.45964 1.28095 0
M  V30 2065 O 198.919 -1.90689 0.38315 0
M  V30 2066 C 199.202 -0.447193 3.57312 0
M  V30 2067 C 199.055 0.842828 4.41833 0
M  V30 2068 C 200.374 -1.23529 4.22408 0
M  V30 2069 H 197.493 -0.0658788 0.73405 0
M  V30 2070 H 200.135 0.525975 1.82575 0
M  V30 2071 H 198.285 -1.05312 3.73954 0
M  V30 2072 H 199.957 1.4795 4.36931 0
M  V30 2073 H 198.2 1.45686 4.08605 0
M  V30 2074 H 198.871 0.614165 5.48573 0
M  V30 2075 H 201.347 -0.722445 4.0978 0
M  V30 2076 H 200.223 -1.38727 5.3108 0
M  V30 2077 H 200.484 -2.25213 3.80436 0
M  V30 2078 N 199.544 -1.57102 0.125237 0
M  V30 2079 C 200.507 -2.14471 -0.80838 0
M  V30 2080 C 201.507 -1.0811 -1.19033 0
M  V30 2081 O 202.697 -1.33856 -1.11482 0
M  V30 2082 C 199.829 -2.69005 -2.09402 0
M  V30 2083 H 201.022 -2.98297 -0.309696 0
M  V30 2084 H 198.575 -1.55807 -0.124051 0
M  V30 2085 H 199.31 -1.88785 -2.63687 0
M  V30 2086 H 199.095 -3.46799 -1.82957 0
M  V30 2087 H 200.585 -3.13278 -2.76128 0
M  V30 2088 N 201.022 0.148545 -1.56898 0
M  V30 2089 C 202.268 0.862694 -1.83536 0
M  V30 2090 C 202.601 1.80889 -0.706604 0
M  V30 2091 O 201.876 1.92328 0.289885 0
M  V30 2092 C 202.159 1.63853 -3.20662 0
M  V30 2093 C 202.012 0.713925 -4.44098 0
M  V30 2094 C 203.331 2.60133 -3.54991 0
M  V30 2095 H 200.45 0.312179 -0.667618 0
M  V30 2096 H 203.092 0.127953 -1.89569 0
M  V30 2097 H 201.242 2.26489 -3.1565 0
M  V30 2098 H 202.914 0.098686 -4.61194 0
M  V30 2099 H 201.157 0.0234019 -4.33794 0
M  V30 2100 H 201.828 1.29278 -5.36648 0
M  V30 2101 H 204.304 2.07616 -3.60603 0
M  V30 2102 H 203.18 3.11468 -4.51972 0
M  V30 2103 H 203.441 3.41417 -2.80868 0
M  V30 2104 N 202.5 1.5196 0.417844 0
M  V30 2105 C 203.749 1.6482 1.16264 0
M  V30 2106 C 204.062 0.379886 1.91876 0
M  V30 2107 O 205.268 0.388154 2.68711 0
M  V30 2108 C 203.724 2.91161 2.1155 0
M  V30 2109 C 203.332 4.25068 1.41495 0
M  V30 2110 C 205.076 3.13383 2.86341 0
M  V30 2111 C 202.983 5.42541 2.35379 0
M  V30 2112 H 201.913 0.613954 0.437694 0
M  V30 2113 H 204.564 1.78442 0.427871 0
M  V30 2114 H 202.946 2.71218 2.88543 0
M  V30 2115 H 204.12 4.55463 0.699263 0
M  V30 2116 H 202.435 4.0888 0.787792 0
M  V30 2117 H 205.032 3.98324 3.5671 0
M  V30 2118 H 205.375 2.27256 3.48798 0
M  V30 2119 H 205.908 3.33757 2.1645 0
M  V30 2120 H 202.647 6.30987 1.77582 0
M  V30 2121 H 202.167 5.16497 3.04945 0
M  V30 2122 H 203.846 5.75272 2.96093 0
M  V30 2123 N 203.978 -0.674533 1.42435 0
M  V30 2124 C 205.255 -1.4305 1.33402 0
M  V30 2125 C 205.635 -2.11081 -0.0284674 0
M  V30 2126 O 204.983 -2.03257 -1.04397 0
M  V30 2127 C 205.193 -2.43272 2.50239 0
M  V30 2128 C 206.541 -3.07907 2.92367 0
M  V30 2129 O 207.565 -2.53599 2.50132 0
M  V30 2130 O 206.424 -4.0632 3.65467 0
M  V30 2131 H 203.518 -0.638076 0.526106 0
M  V30 2132 H 206.064 -0.703235 1.54443 0
M  V30 2133 H 204.836 -1.91803 3.41068 0
M  V30 2134 H 204.459 -3.23479 2.31186 0
M  V30 2135 N 205.456 -1.28612 -0.910864 0
M  V30 2136 C 206.681 -1.1891 -1.69927 0
M  V30 2137 C 207.106 0.248372 -1.86453 0
M  V30 2138 O 206.464 1.17961 -1.37676 0
M  V30 2139 C 206.512 -1.89578 -3.06745 0
M  V30 2140 O 205.616 -1.20521 -3.94396 0
M  V30 2141 H 204.957 -0.412632 -0.520222 0
M  V30 2142 H 207.487 -1.69985 -1.1387 0
M  V30 2143 H 207.497 -1.97597 -3.56958 0
M  V30 2144 H 206.172 -2.94136 -2.94035 0
M  V30 2145 H 204.749 -1.20684 -3.52831 0
M  V30 2146 N 206.934 1.1197 -1.10907 0
M  V30 2147 C 208.182 1.83225 -0.852819 0
M  V30 2148 C 208.503 1.84769 0.623341 0
M  V30 2149 O 207.773 1.3143 1.45269 0
M  V30 2150 H 206.353 0.67849 -0.312507 0
M  V30 2151 H 209.015 1.3556 -1.40033 0
M  V30 2152 H 208.111 2.87265 -1.22005 0
M  V30 2153 N 208.412 0.89855 1.29475 0
M  V30 2154 C 209.661 0.519863 1.94885 0
M  V30 2155 C 209.974 -0.9383 1.71625 0
M  V30 2156 O 211.18 -1.42445 2.31131 0
M  V30 2157 C 209.636 0.878836 3.49005 0
M  V30 2158 C 209.244 2.35569 3.81066 0
M  V30 2159 C 210.988 0.570004 4.20656 0
M  V30 2160 C 208.895 2.65558 5.28425 0
M  V30 2161 H 207.825 0.190692 0.729488 0
M  V30 2162 H 210.476 1.09539 1.47219 0
M  V30 2163 H 208.858 0.232253 3.95318 0
M  V30 2164 H 210.032 3.04773 3.45616 0
M  V30 2165 H 208.347 2.63343 3.22552 0
M  V30 2166 H 210.944 0.770925 5.29113 0
M  V30 2167 H 211.287 -0.491404 4.1339 0
M  V30 2168 H 211.82 1.17438 3.8007 0
M  V30 2169 H 208.559 3.70493 5.40754 0
M  V30 2170 H 208.079 2.00977 5.65127 0
M  V30 2171 H 209.758 2.51765 5.96006 0
M  V30 2172 N 209.89 -1.43072 0.660911 0
M  V30 2173 C 211.167 -1.95307 0.107017 0
M  V30 2174 C 211.547 -1.60192 -1.37484 0
M  V30 2175 O 210.895 -0.890949 -2.10415 0
M  V30 2176 C 211.105 -3.47124 0.361402 0
M  V30 2177 C 212.453 -4.23738 0.270455 0
M  V30 2178 O 213.477 -3.54981 0.294382 0
M  V30 2179 O 212.336 -5.46131 0.200737 0
M  V30 2180 H 209.43 -0.826984 -0.00517729 0
M  V30 2181 H 211.976 -1.52972 0.734681 0
M  V30 2182 H 210.748 -3.65837 1.38848 0
M  V30 2183 H 210.371 -3.96475 -0.298953 0
M  V30 2184 N 211.368 -0.403325 -1.52352 0
M  V30 2185 C 212.593 0.176499 -2.06648 0
M  V30 2186 C 213.018 1.38577 -1.27193 0
M  V30 2187 O 212.376 1.7879 -0.300637 0
M  V30 2188 C 212.424 0.511061 -3.5696 0
M  V30 2189 O 211.528 1.60294 -3.79973 0
M  V30 2190 H 210.869 0.0167337 -0.663789 0
M  V30 2191 H 213.399 -0.574848 -1.96359 0
M  V30 2192 H 213.409 0.771362 -4.00642 0
M  V30 2193 H 212.084 -0.37296 -4.14224 0
M  V30 2194 H 210.661 1.33526 -3.48174 0
M  V30 2195 N 212.846 1.57033 -0.133567 0
M  V30 2196 C 214.071 2.00475 0.531477 0
M  V30 2197 C 214.496 1.01291 1.58499 0
M  V30 2198 O 213.854 -0.0133279 1.81295 0
M  V30 2199 C 213.902 3.42729 1.12113 0
M  V30 2200 O 213.006 3.46498 2.23636 0
M  V30 2201 H 212.347 0.650876 0.131362 0
M  V30 2202 H 214.877 2.03344 -0.22634 0
M  V30 2203 H 214.887 3.81246 1.4531 0
M  V30 2204 H 213.562 4.14428 0.349557 0
M  V30 2205 H 212.139 3.19811 1.91769 0
M  V30 2206 N 214.325 -0.140222 1.56975 0
M  V30 2207 C 215.275 -1.17827 1.95194 0
M  V30 2208 C 216.259 -1.38195 0.824075 0
M  V30 2209 O 217.451 -1.39643 1.0876 0
M  V30 2210 C 214.58 -2.51024 2.34184 0
M  V30 2211 C 213.666 -2.3422 3.53556 0
M  V30 2212 N 214.057 -1.87185 4.69889 0
M  V30 2213 C 212.355 -2.64949 3.58773 0
M  V30 2214 C 213.056 -1.83586 5.5197 0
M  V30 2215 N 212.032 -2.2715 4.93866 0
M  V30 2216 H 215.834 -0.806817 2.82609 0
M  V30 2217 H 213.348 -0.348208 1.58623 0
M  V30 2218 H 215.345 -3.26074 2.59772 0
M  V30 2219 H 214.005 -2.88945 1.48124 0
M  V30 2220 H 215.016 -1.57048 4.93514 0
M  V30 2221 H 211.693 -3.067 2.8327 0
M  V30 2222 H 213.083 -1.48655 6.55249 0
M  V30 2223 N 215.803 -1.52179 -0.40978 0
M  V30 2224 C 217.214 -1.58377 -0.988615 0
M  V30 2225 C 217.565 -0.423879 -1.91566 0
M  V30 2226 O 216.69 0.455844 -2.11544 0
M  V30 2227 C 217.285 -2.87044 -1.79976 0
M  V30 2228 C 215.844 -2.95722 -2.32863 0
M  V30 2229 C 214.991 -2.53309 -1.12828 0
M  V30 2230 H 217.942 -1.57558 -0.190039 0
M  V30 2231 H 217.963 -2.7236 -2.65707 0
M  V30 2232 H 217.475 -3.71444 -1.12478 0
M  V30 2233 H 215.576 -2.15814 -3.03735 0
M  V30 2234 H 215.689 -3.99951 -2.63773 0
M  V30 2235 H 214.053 -2.07142 -1.48204 0
M  V30 2236 H 214.836 -3.40082 -0.46897 0
M  V30 2237 N 217.281 0.66697 -1.42791 0
M  V30 2238 C 218.558 1.4234 -1.34159 0
M  V30 2239 C 218.938 2.11093 0.0172729 0
M  V30 2240 O 218.286 2.03808 1.03318 0
M  V30 2241 C 218.496 2.41942 -2.51526 0
M  V30 2242 C 219.844 3.06353 -2.93995 0
M  V30 2243 O 220.868 2.52269 -2.51473 0
M  V30 2244 O 219.727 4.04376 -3.67617 0
M  V30 2245 H 216.821 0.635277 -0.529483 0
M  V30 2246 H 219.367 0.695034 -1.54814 0
M  V30 2247 H 218.139 1.89991 -3.42081 0
M  V30 2248 H 217.762 3.22249 -2.32898 0
M  V30 2249 N 218.759 1.29093 0.90403 0
M  V30 2250 C 219.689 1.16401 2.02418 0
M  V30 2251 C 220.67 0.0593085 1.69997 0
M  V30 2252 O 221.855 0.238021 1.92736 0
M  V30 2253 C 218.985 0.835233 3.37107 0
M  V30 2254 C 217.939 1.89578 3.83724 0
M  V30 2255 C 217.265 1.42041 5.15489 0
M  V30 2256 C 218.565 3.30394 4.04521 0
M  V30 2257 H 220.259 2.10109 2.13295 0
M  V30 2258 H 217.805 1.01157 1.02486 0
M  V30 2259 H 219.758 0.733169 4.14973 0
M  V30 2260 H 218.482 -0.137543 3.2631 0
M  V30 2261 H 217.141 1.98715 3.08071 0
M  V30 2262 H 216.789 0.436426 5.01103 0
M  V30 2263 H 216.489 2.12964 5.4765 0
M  V30 2264 H 218.013 1.33176 5.959 0
M  V30 2265 H 219.427 3.24123 4.72882 0
M  V30 2266 H 217.824 3.99237 4.48029 0
M  V30 2267 H 218.894 3.73692 3.09002 0
M  V30 2268 N 220.237 -1.11381 1.11499 0
M  V30 2269 C 221.184 -2.17439 0.773887 0
M  V30 2270 C 222.154 -1.64132 -0.254899 0
M  V30 2271 O 223.339 -1.90345 -0.13168 0
M  V30 2272 C 220.479 -3.44373 0.223917 0
M  V30 2273 C 219.592 -4.1168 1.30934 0
M  V30 2274 C 218.727 -5.263 0.71984 0
M  V30 2275 C 217.766 -5.85493 1.78507 0
M  V30 2276 N 216.903 -6.91507 1.21502 0
M  V30 2277 H 221.743 -2.45962 1.68246 0
M  V30 2278 H 219.28 -1.20744 0.840191 0
M  V30 2279 H 221.238 -4.17047 -0.112921 0
M  V30 2280 H 219.868 -3.16232 -0.647851 0
M  V30 2281 H 218.92 -3.37073 1.76312 0
M  V30 2282 H 220.232 -4.51729 2.11524 0
M  V30 2283 H 219.386 -6.05785 0.333094 0
M  V30 2284 H 218.125 -4.87559 -0.117377 0
M  V30 2285 H 217.13 -5.04686 2.18111 0
M  V30 2286 H 218.355 -6.26301 2.62533 0
M  V30 2287 H 216.301 -6.54783 0.399455 0
M  V30 2288 H 216.218 -7.30214 1.95763 0
M  V30 2289 H 217.486 -7.74795 0.855181 0
M  V30 2290 N 221.715 -0.905404 -1.28997 0
M  V30 2291 C 222.961 -0.535039 -1.95615 0
M  V30 2292 C 223.294 0.917404 -1.71165 0
M  V30 2293 O 222.569 1.65123 -1.02785 0
M  V30 2294 C 222.852 -0.834918 -3.50287 0
M  V30 2295 C 222.705 -2.33948 -3.84172 0
M  V30 2296 C 224.024 -0.325318 -4.38896 0
M  V30 2297 H 221.143 -0.195861 -0.710498 0
M  V30 2298 H 223.785 -1.13313 -1.52513 0
M  V30 2299 H 221.935 -0.325904 -3.87131 0
M  V30 2300 H 223.607 -2.91847 -3.57243 0
M  V30 2301 H 221.85 -2.79789 -3.31513 0
M  V30 2302 H 222.521 -2.49987 -4.92149 0
M  V30 2303 H 224.997 -0.761256 -4.09077 0
M  V30 2304 H 223.873 -0.564295 -5.45992 0
M  V30 2305 H 224.134 0.774144 -4.35269 0
M  V30 2306 N 223.193 1.4272 -0.668489 0
M  V30 2307 C 224.156 2.292 0.00448567 0
M  V30 2308 C 225.156 1.43001 0.735339 0
M  V30 2309 O 226.346 1.64461 0.57429 0
M  V30 2310 C 223.478 3.25375 1.01705 0
M  V30 2311 H 224.671 2.90199 -0.756608 0
M  V30 2312 H 222.224 1.50254 -0.430506 0
M  V30 2313 H 222.959 2.69301 1.80686 0
M  V30 2314 H 222.744 3.88944 0.496463 0
M  V30 2315 H 224.234 3.90245 1.48655 0
M  V30 2316 N 224.671 0.411399 1.52136 0
M  V30 2317 C 225.919 -0.163322 2.01439 0
M  V30 2318 C 226.24 -1.45453 1.29879 0
M  V30 2319 O 225.51 -1.91225 0.4254 0
M  V30 2320 H 224.09 -0.0633447 0.744309 0
M  V30 2321 H 226.752 0.548161 1.87033 0
M  V30 2322 H 225.848 -0.357817 3.10042 0
M  V30 2323 N 226.149 -1.5696 0.141893 0
M  V30 2324 C 227.397 -1.95573 -0.509484 0
M  V30 2325 C 227.718 -1.02746 -1.65736 0
M  V30 2326 O 226.988 -0.0880311 -1.95702 0
M  V30 2327 H 225.568 -0.722115 -0.191205 0
M  V30 2328 H 228.23 -1.93697 0.216196 0
M  V30 2329 H 227.326 -2.99171 -0.889 0
M  V30 2330 N 227.627 0.131896 -1.57047 0
M  V30 2331 C 228.59 1.14638 -1.98471 0
M  V30 2332 C 229.59 1.35029 -0.873148 0
M  V30 2333 O 230.78 1.31764 -1.13946 0
M  V30 2334 C 227.912 2.50358 -2.31373 0
M  V30 2335 H 229.105 0.79064 -2.8929 0
M  V30 2336 H 226.658 0.375761 -1.51716 0
M  V30 2337 H 227.393 2.90876 -1.43393 0
M  V30 2338 H 227.178 2.36915 -3.12432 0
M  V30 2339 H 228.668 3.23395 -2.64207 0
M  V30 2340 N 229.106 1.52395 0.401703 0
M  V30 2341 C 230.331 1.70972 1.17403 0
M  V30 2342 C 230.756 0.421615 1.83314 0
M  V30 2343 O 230.114 -0.621564 1.70312 0
M  V30 2344 C 230.162 2.85151 2.20728 0
M  V30 2345 O 229.266 2.51238 3.27037 0
M  V30 2346 H 228.607 0.568927 0.342372 0
M  V30 2347 H 231.137 1.99131 0.469891 0
M  V30 2348 H 231.147 3.10279 2.64936 0
M  V30 2349 H 229.822 3.78603 1.7214 0
M  V30 2350 H 228.399 2.36808 2.88057 0
M  V30 2351 N 230.584 -0.659388 1.43143 0
M  V30 2352 C 231.517 -1.78425 1.42267 0
M  V30 2353 C 232.495 -1.60085 0.284894 0
M  V30 2354 O 233.679 -1.82351 0.477527 0
M  V30 2355 C 230.806 -3.15642 1.22833 0
M  V30 2356 C 229.852 -3.52698 2.39806 0
M  V30 2357 S 230.685 -3.53372 4.02353 0
M  V30 2358 C 231.841 -4.93256 3.85291 0
M  V30 2359 H 232.074 -1.78897 2.37452 0
M  V30 2360 H 229.607 -0.831469 1.301 0
M  V30 2361 H 231.565 -3.94838 1.12308 0
M  V30 2362 H 230.226 -3.12739 0.29207 0
M  V30 2363 H 229.419 -4.52475 2.21996 0
M  V30 2364 H 229.021 -2.80899 2.46925 0
M  V30 2365 H 231.313 -5.81751 3.47235 0
M  V30 2366 H 232.256 -5.16115 4.84799 0
M  V30 2367 H 232.664 -4.665 3.17865 0
M  V30 2368 N 232.062 -1.29571 -0.897171 0
M  V30 2369 C 233.308 -1.17863 -1.65034 0
M  V30 2370 C 233.641 0.268729 -1.92332 0
M  V30 2371 O 232.916 1.19378 -1.53555 0
M  V30 2372 C 233.199 -1.995 -2.99786 0
M  V30 2373 C 233.052 -3.5239 -2.79538 0
M  V30 2374 C 234.371 -1.82335 -4.00552 0
M  V30 2375 H 231.49 -0.429528 -0.598895 0
M  V30 2376 H 234.132 -1.59072 -1.03905 0
M  V30 2377 H 232.282 -1.64485 -3.51962 0
M  V30 2378 H 233.954 -3.97401 -2.34244 0
M  V30 2379 H 232.197 -3.77187 -2.14273 0
M  V30 2380 H 232.868 -4.04787 -3.75302 0
M  V30 2381 H 235.344 -2.12924 -3.57495 0
M  V30 2382 H 234.22 -2.41801 -4.92771 0
M  V30 2383 H 234.481 -0.779209 -4.35179 0
M  V30 2384 N 233.54 1.10788 -1.12088 0
M  V30 2385 C 234.951 1.64181 -0.88891 0
M  V30 2386 C 235.302 1.87508 0.577498 0
M  V30 2387 O 234.427 1.61434 1.44112 0
M  V30 2388 C 235.022 2.98257 -1.60712 0
M  V30 2389 C 233.581 3.4853 -1.42139 0
M  V30 2390 C 232.728 2.23208 -1.6454 0
M  V30 2391 H 235.679 0.943368 -1.27618 0
M  V30 2392 H 235.7 3.65552 -1.05604 0
M  V30 2393 H 235.212 2.81246 -2.67436 0
M  V30 2394 H 233.313 3.70692 -0.376552 0
M  V30 2395 H 233.426 4.26882 -2.17505 0
M  V30 2396 H 231.79 2.31169 -1.06925 0
M  V30 2397 H 232.573 2.08733 -2.72554 0
M  V30 2398 N 235.018 0.912232 1.28515 0
M  V30 2399 C 236.243 0.559774 1.99703 0
M  V30 2400 C 236.668 -0.851393 1.67729 0
M  V30 2401 O 236.026 -1.56875 0.908834 0
M  V30 2402 C 236.074 0.773874 3.52198 0
M  V30 2403 O 235.178 -0.167842 4.12058 0
M  V30 2404 H 234.519 0.21723 0.627461 0
M  V30 2405 H 237.049 1.22725 1.63706 0
M  V30 2406 H 237.059 0.683386 4.02236 0
M  V30 2407 H 235.734 1.80261 3.74805 0
M  V30 2408 H 234.311 -0.0287509 3.72889 0
M  V30 2409 N 236.496 -1.42363 0.676048 0
M  V30 2410 C 237.406 -2.346 -0.00153389 0
M  V30 2411 C 238.422 -1.5516 -0.787485 0
M  V30 2412 O 239.598 -1.87723 -0.729521 0
M  V30 2413 C 236.663 -3.33705 -0.940298 0
M  V30 2414 C 235.724 -4.29042 -0.148739 0
M  V30 2415 C 234.957 -5.23413 -1.04279 0
M  V30 2416 O 235.18 -5.22749 -2.28232 0
M  V30 2417 O 234.114 -5.99795 -0.502925 0
M  V30 2418 H 237.94 -2.94082 0.758268 0
M  V30 2419 H 235.525 -1.42888 0.436289 0
M  V30 2420 H 237.407 -3.94586 -1.47917 0
M  V30 2421 H 236.082 -2.76695 -1.67993 0
M  V30 2422 H 234.989 -3.71571 0.43427 0
M  V30 2423 H 236.322 -4.89097 0.551805 0
M  V30 2424 N 237.974 -0.419461 -1.51915 0
M  V30 2425 C 239.202 0.152136 -2.0634 0
M  V30 2426 C 239.617 1.37988 -1.28859 0
M  V30 2427 O 238.974 1.79243 -0.343232 0
M  V30 2428 C 239.025 0.492266 -3.58133 0
M  V30 2429 O 238.746 -0.686736 -4.32684 0
M  V30 2430 C 240.247 1.11648 -4.2901 0
M  V30 2431 H 237.467 0.0158325 -0.670813 0
M  V30 2432 H 240.011 -0.593394 -1.95702 0
M  V30 2433 H 238.166 1.18769 -3.68745 0
M  V30 2434 H 238.58 -0.400341 -5.2297 0
M  V30 2435 H 240.054 1.3046 -5.36362 0
M  V30 2436 H 240.531 2.09251 -3.86148 0
M  V30 2437 H 241.137 0.460958 -4.22795 0
M  V30 2438 N 239.452 1.56882 -0.150215 0
M  V30 2439 C 240.4 2.18214 0.805313 0
M  V30 2440 C 241.394 1.14006 1.25296 0
M  V30 2441 O 242.6 1.3225 1.22107 0
M  V30 2442 H 238.975 0.698762 0.277913 0
M  V30 2443 H 240.946 2.97231 0.263862 0
M  V30 2444 C 239.695 2.82065 2.03309 0
M  V30 2445 H 239.018 3.61968 1.69763 0
M  V30 2446 H 240.458 3.28477 2.68103 0
M  V30 2447 C 238.917 1.80739 2.84315 0
M  V30 2448 O 239.447 1.27983 3.80767 0
M  V30 2449 N 237.653 1.4997 2.48913 0
M  V30 2450 H 237.2 1.93062 1.70542 0
M  V30 2451 H 237.158 0.824217 3.03404 0
M  V30 2452 N 240.93 -0.123565 1.57115 0
M  V30 2453 C 242.341 -0.681198 1.73829 0
M  V30 2454 C 242.692 -1.80535 0.768214 0
M  V30 2455 O 241.817 -2.16317 -0.0599103 0
M  V30 2456 C 242.412 -1.24246 3.15196 0
M  V30 2457 C 240.971 -1.74643 3.33432 0
M  V30 2458 C 240.118 -0.644284 2.69711 0
M  V30 2459 H 243.069 0.102315 1.5837 0
M  V30 2460 H 243.09 -2.11216 3.16493 0
M  V30 2461 H 242.602 -0.424062 3.85776 0
M  V30 2462 H 240.703 -2.58974 2.67886 0
M  V30 2463 H 240.816 -1.85902 4.41562 0
M  V30 2464 H 239.18 -1.07676 2.3082 0
M  V30 2465 H 239.963 0.163058 3.42913 0
M  V30 2466 N 242.408 -1.52605 -0.393616 0
M  V30 2467 C 243.655 -1.67424 -1.1391 0
M  V30 2468 C 243.983 -0.411859 -1.90089 0
M  V30 2469 O 243.238 0.605626 -1.86093 0
M  V30 2470 C 243.537 -2.85721 -2.14705 0
M  V30 2471 C 243.203 -4.23342 -1.55218 0
M  V30 2472 C 241.865 -4.60771 -1.3872 0
M  V30 2473 C 244.217 -5.09041 -1.11924 0
M  V30 2474 C 241.545 -5.81563 -0.774689 0
M  V30 2475 C 243.897 -6.30452 -0.520853 0
M  V30 2476 C 242.561 -6.66617 -0.343134 0
M  V30 2477 H 241.831 -0.612648 -0.416826 0
M  V30 2478 H 244.478 -1.8674 -0.424315 0
M  V30 2479 H 242.783 -2.60803 -2.92385 0
M  V30 2480 H 244.48 -2.94382 -2.72288 0
M  V30 2481 H 241.07 -3.93855 -1.69045 0
M  V30 2482 H 245.254 -4.80695 -1.23473 0
M  V30 2483 H 240.51 -6.08196 -0.625154 0
M  V30 2484 H 244.684 -6.96175 -0.177065 0
M  V30 2485 H 242.311 -7.60083 0.133571 0
M  V30 2486 N 243.887 0.651787 -1.4349 0
M  V30 2487 C 244.819 1.77725 -1.44729 0
M  V30 2488 C 245.832 1.59141 -0.343231 0
M  V30 2489 O 247.021 1.67835 -0.607751 0
M  V30 2490 C 244.121 3.15172 -1.24579 0
M  V30 2491 C 243.294 3.60402 -2.47849 0
M  V30 2492 C 242.353 4.76656 -2.22902 0
M  V30 2493 O 241.379 4.86022 -2.96263 0
M  V30 2494 N 242.581 5.66958 -1.24656 0
M  V30 2495 H 245.346 1.77141 -2.41746 0
M  V30 2496 H 242.907 0.835678 -1.38665 0
M  V30 2497 H 244.899 3.90634 -1.0577 0
M  V30 2498 H 243.469 3.1052 -0.360015 0
M  V30 2499 H 242.689 2.75369 -2.82073 0
M  V30 2500 H 243.977 3.87368 -3.29884 0
M  V30 2501 H 243.375 5.62065 -0.640265 0
M  V30 2502 H 241.932 6.42135 -1.1183 0
M  V30 2503 N 245.365 1.30045 0.890287 0
M  V30 2504 C 246.642 1.09227 1.62262 0
M  V30 2505 C 247.022 -0.360305 2.08002 0
M  V30 2506 O 246.37 -1.35084 1.84295 0
M  V30 2507 C 246.58 2.08835 2.79623 0
M  V30 2508 C 247.928 2.40266 3.50082 0
M  V30 2509 O 248.952 2.07104 2.89804 0
M  V30 2510 O 247.811 2.96967 4.58773 0
M  V30 2511 H 244.905 0.419132 0.712922 0
M  V30 2512 H 247.451 1.41451 0.937529 0
M  V30 2513 H 246.223 3.06633 2.43089 0
M  V30 2514 H 245.846 1.77397 3.55832 0
M  V30 2515 N 246.843 -1.10192 1.12674 0
M  V30 2516 C 247.791 -2.18694 0.792196 0
M  V30 2517 C 248.785 -1.67938 -0.222058 0
M  V30 2518 O 249.991 -1.79822 -0.0800074 0
M  V30 2519 H 246.366 -0.713223 0.238364 0
M  V30 2520 H 248.337 -2.44149 1.71564 0
M  V30 2521 C 247.086 -3.46682 0.265859 0
M  V30 2522 H 246.409 -3.86101 1.03761 0
M  V30 2523 H 247.849 -4.23942 0.0701128 0
M  V30 2524 C 246.308 -3.21506 -1.00675 0
M  V30 2525 O 246.838 -3.43408 -2.08408 0
M  V30 2526 N 245.044 -2.75158 -0.934692 0
M  V30 2527 H 244.591 -2.57535 -0.0578604 0
M  V30 2528 H 244.549 -2.58691 -1.7868 0
M  V30 2529 N 248.321 -0.919034 -1.28029 0
M  V30 2530 C 249.269 -0.401753 -2.29104 0
M  V30 2531 C 250.263 0.509354 -1.61561 0
M  V30 2532 O 251.469 0.390014 -1.75724 0
M  V30 2533 H 247.844 -0.111331 -0.743713 0
M  V30 2534 H 249.815 -1.2672 -2.70156 0
M  V30 2535 C 248.564 0.338148 -3.46052 0
M  V30 2536 H 247.887 -0.353732 -3.98232 0
M  V30 2537 H 249.327 0.664653 -4.18758 0
M  V30 2538 C 247.786 1.54798 -2.99231 0
M  V30 2539 O 248.316 2.64696 -3.02157 0
M  V30 2540 N 246.522 1.3968 -2.54829 0
M  V30 2541 H 246.069 0.502698 -2.52647 0
M  V30 2542 H 246.027 2.20755 -2.23863 0
M  V30 2543 N 249.799 1.42003 -0.683588 0
M  V30 2544 C 251.024 2.06265 -0.216647 0
M  V30 2545 C 251.449 1.51059 1.12083 0
M  V30 2546 O 250.807 0.632638 1.69904 0
M  V30 2547 C 250.855 3.60191 -0.171759 0
M  V30 2548 O 249.959 4.03396 0.857069 0
M  V30 2549 H 249.3 0.65502 -0.108834 0
M  V30 2550 H 251.83 1.81982 -0.935077 0
M  V30 2551 H 251.84 4.08 0.0014303 0
M  V30 2552 H 250.515 3.99743 -1.14796 0
M  V30 2553 H 249.092 3.67117 0.654208 0
M  V30 2554 N 251.277 0.427512 1.51691 0
M  V30 2555 C 252.227 -0.406604 2.24345 0
M  V30 2556 C 253.211 -0.998276 1.26187 0
M  V30 2557 O 254.403 -0.918045 1.51331 0
M  V30 2558 C 251.532 -1.51266 3.08177 0
M  V30 2559 C 250.618 -0.930868 4.13758 0
M  V30 2560 N 251.009 -0.0773552 5.05741 0
M  V30 2561 C 249.307 -1.19948 4.29568 0
M  V30 2562 C 250.008 0.248344 5.8117 0
M  V30 2563 N 248.984 -0.365535 5.4237 0
M  V30 2564 H 252.786 0.251581 2.92821 0
M  V30 2565 H 250.3 0.239003 1.60632 0
M  V30 2566 H 252.297 -2.123 3.58796 0
M  V30 2567 H 250.957 -2.17328 2.41244 0
M  V30 2568 H 251.968 0.288351 5.17097 0
M  V30 2569 H 248.645 -1.85832 3.73862 0
M  V30 2570 H 250.035 0.942286 6.6526 0
M  V30 2571 N 252.755 -1.56801 0.158532 0
M  V30 2572 C 254.003 -1.96102 -0.488712 0
M  V30 2573 C 254.324 -1.04498 -1.64636 0
M  V30 2574 O 253.594 -0.108783 -1.95598 0
M  V30 2575 H 252.174 -0.724102 -0.183535 0
M  V30 2576 H 254.836 -1.93457 0.236728 0
M  V30 2577 H 253.932 -3.00097 -0.857219 0
M  V30 2578 N 254.233 0.115231 -1.57178 0
M  V30 2579 C 255.461 0.836437 -1.89239 0
M  V30 2580 C 255.876 1.73256 -0.750175 0
M  V30 2581 O 255.233 1.80357 0.278832 0
M  V30 2582 C 255.284 1.66671 -3.20785 0
M  V30 2583 O 255.005 0.806652 -4.3061 0
M  V30 2584 C 256.506 2.49274 -3.66575 0
M  V30 2585 H 253.726 0.240253 -0.626514 0
M  V30 2586 H 256.27 0.0984932 -2.04263 0
M  V30 2587 H 254.425 2.35737 -3.0742 0
M  V30 2588 H 254.839 1.37969 -5.06028 0
M  V30 2589 H 256.313 3.03055 -4.6137 0
M  V30 2590 H 256.79 3.26807 -2.93417 0
M  V30 2591 H 257.396 1.85443 -3.82741 0
M  V30 2592 N 255.711 1.52812 0.385517 0
M  V30 2593 C 256.661 1.74219 1.47078 0
M  V30 2594 C 257.645 0.59632 1.49442 0
M  V30 2595 O 258.837 0.85428 1.5502 0
M  V30 2596 C 255.966 1.9176 2.84751 0
M  V30 2597 C 255.052 3.12289 2.86943 0
M  V30 2598 N 255.443 4.34575 2.58802 0
M  V30 2599 C 253.741 3.12605 3.1811 0
M  V30 2600 C 254.442 5.162 2.68166 0
M  V30 2601 N 253.418 4.51964 3.02043 0
M  V30 2602 H 257.22 2.6639 1.24152 0
M  V30 2603 H 254.734 1.51166 0.593504 0
M  V30 2604 H 256.731 2.05218 3.62893 0
M  V30 2605 H 255.391 1.00805 3.08656 0
M  V30 2606 H 256.402 4.62649 2.32759 0
M  V30 2607 H 253.079 2.31472 3.47458 0
M  V30 2608 H 254.469 6.23689 2.49923 0
M  V30 2609 N 257.189 -0.644168 1.43834 0
M  V30 2610 C 258.435 -1.40603 1.46146 0
M  V30 2611 C 258.768 -1.93997 0.0887717 0
M  V30 2612 O 258.043 -1.72854 -0.891724 0
M  V30 2613 C 258.326 -2.58086 2.51124 0
M  V30 2614 C 258.179 -2.10126 3.97702 0
M  V30 2615 C 259.498 -3.60291 2.52742 0
M  V30 2616 H 256.617 -0.509905 0.532134 0
M  V30 2617 H 259.259 -0.729502 1.75437 0
M  V30 2618 H 257.409 -3.15801 2.26278 0
M  V30 2619 H 259.081 -1.57342 4.33637 0
M  V30 2620 H 257.324 -1.41419 4.10101 0
M  V30 2621 H 257.995 -2.94649 4.66783 0
M  V30 2622 H 260.471 -3.12352 2.7491 0
M  V30 2623 H 259.347 -4.40032 3.28121 0
M  V30 2624 H 259.608 -4.1349 1.56455 0
M  V30 2625 N 258.668 -1.30515 -0.883378 0
M  V30 2626 C 259.631 -1.1701 -1.97082 0
M  V30 2627 C 260.631 -0.10089 -1.60483 0
M  V30 2628 O 261.821 -0.349127 -1.70666 0
M  V30 2629 C 258.953 -0.793045 -3.31547 0
M  V30 2630 H 260.146 -2.13622 -2.10489 0
M  V30 2631 H 257.699 -1.13935 -1.06998 0
M  V30 2632 H 258.434 0.172499 -3.23841 0
M  V30 2633 H 258.219 -1.56576 -3.5948 0
M  V30 2634 H 259.709 -0.722073 -4.1131 0
M  V30 2635 N 260.146 1.09593 -1.13257 0
M  V30 2636 C 261.394 1.81375 -0.891492 0
M  V30 2637 C 261.715 1.86049 0.584009 0
M  V30 2638 O 260.985 1.34481 1.42449 0
M  V30 2639 H 259.565 0.671708 -0.326828 0
M  V30 2640 H 262.227 1.3256 -1.42877 0
M  V30 2641 H 261.323 2.84612 -1.28071 0
M  V30 2642 N 261.624 0.925811 1.2754 0
M  V30 2643 C 262.852 0.581509 1.9856 0
M  V30 2644 C 263.267 -0.840041 1.69082 0
M  V30 2645 O 262.624 -1.55805 0.950312 0
M  V30 2646 C 262.675 0.795589 3.52637 0
M  V30 2647 O 262.396 2.16121 3.81082 0
M  V30 2648 C 263.897 0.459744 4.4091 0
M  V30 2649 H 261.117 0.220538 0.633722 0
M  V30 2650 H 263.661 1.24232 1.6244 0
M  V30 2651 H 261.816 0.18161 3.86974 0
M  V30 2652 H 262.23 2.2098 4.75676 0
M  V30 2653 H 263.704 0.660244 5.48037 0
M  V30 2654 H 264.181 -0.604625 4.35018 0
M  V30 2655 H 264.787 1.05178 4.12089 0
M  V30 2656 N 263.102 -1.41638 0.69111 0
M  V30 2657 C 264.348 -2.01598 0.220519 0
M  V30 2658 C 264.681 -1.54594 -1.17535 0
M  V30 2659 O 263.956 -0.755177 -1.79241 0
M  V30 2660 C 264.239 -3.59062 0.273243 0
M  V30 2661 C 264.092 -4.16203 1.70573 0
M  V30 2662 C 265.411 -4.38546 -0.369457 0
M  V30 2663 H 262.53 -0.732468 0.0816045 0
M  V30 2664 H 265.172 -1.68445 0.878986 0
M  V30 2665 H 263.322 -3.87435 -0.287411 0
M  V30 2666 H 264.994 -3.98722 2.31989 0
M  V30 2667 H 263.237 -3.71414 2.2413 0
M  V30 2668 H 263.908 -5.25358 1.69419 0
M  V30 2669 H 266.384 -4.1596 0.107977 0
M  V30 2670 H 265.26 -5.48069 -0.302002 0
M  V30 2671 H 265.521 -4.17662 -1.44951 0
M  V30 2672 N 264.58 -0.43555 -1.51462 0
M  V30 2673 C 265.543 0.365137 -2.26273 0
M  V30 2674 C 266.543 0.951227 -1.29647 0
M  V30 2675 O 267.733 0.825958 -1.53374 0
M  V30 2676 C 264.865 1.51645 -3.05314 0
M  V30 2677 H 266.058 -0.290474 -2.9849 0
M  V30 2678 H 263.611 -0.188676 -1.55157 0
M  V30 2679 H 264.346 2.20816 -2.3751 0
M  V30 2680 H 264.131 1.10238 -3.76284 0
M  V30 2681 H 265.621 2.08218 -3.61987 0
M  V30 2682 N 266.058 1.56714 -0.166846 0
M  V30 2683 C 267.021 2.16539 0.751232 0
M  V30 2684 C 268.021 1.11228 1.16125 0
M  V30 2685 O 269.211 1.36765 1.07894 0
M  V30 2686 C 266.343 2.74462 2.02196 0
M  V30 2687 H 267.536 2.99013 0.230499 0
M  V30 2688 H 265.089 1.56081 0.0826982 0
M  V30 2689 H 265.824 1.95709 2.58589 0
M  V30 2690 H 265.609 3.51527 1.73698 0
M  V30 2691 H 267.099 3.20489 2.67725 0
M  V30 2692 N 267.536 -0.106894 1.57237 0
M  V30 2693 C 268.466 -1.13148 2.04254 0
M  V30 2694 C 269.447 -1.42476 0.929224 0
M  V30 2695 O 270.632 -1.52709 1.19973 0
M  V30 2696 C 267.762 -2.4545 2.45706 0
M  V30 2697 C 266.716 -2.30558 3.60592 0
M  V30 2698 C 266.042 -3.67931 3.87983 0
M  V30 2699 C 267.342 -1.75597 4.91897 0
M  V30 2700 H 269.036 -0.740374 2.90101 0
M  V30 2701 H 266.582 -0.354696 1.39563 0
M  V30 2702 H 268.535 -3.17389 2.77205 0
M  V30 2703 H 267.259 -2.86475 1.56843 0
M  V30 2704 H 265.918 -1.61067 3.29322 0
M  V30 2705 H 265.566 -4.06462 2.96306 0
M  V30 2706 H 265.266 -3.58817 4.65322 0
M  V30 2707 H 266.79 -4.41356 4.21945 0
M  V30 2708 H 268.204 -2.37364 5.21854 0
M  V30 2709 H 266.601 -1.77272 5.73319 0
M  V30 2710 H 267.671 -0.714451 4.79608 0
M  V30 2711 N 269.014 -1.53014 -0.377408 0
M  V30 2712 C 269.962 -1.7927 -1.48206 0
M  V30 2713 C 270.956 -0.661195 -1.55963 0
M  V30 2714 O 272.162 -0.843908 -1.58991 0
M  V30 2715 H 268.537 -0.567425 -0.493491 0
M  V30 2716 H 270.508 -2.71753 -1.2326 0
M  V30 2717 C 269.257 -1.98894 -2.85196 0
M  V30 2718 H 268.58 -2.85395 -2.79981 0
M  V30 2719 H 270.02 -2.21249 -3.61698 0
M  V30 2720 C 268.479 -0.764691 -3.28107 0
M  V30 2721 O 269.009 0.0523226 -4.01666 0
M  V30 2722 N 267.215 -0.591493 -2.84517 0
M  V30 2723 H 266.762 -1.25749 -2.24822 0
M  V30 2724 H 266.72 0.226253 -3.13585 0
M  V30 2725 N 270.492 0.636531 -1.44174 0
M  V30 2726 C 271.44 1.76995 -1.50915 0
M  V30 2727 C 272.434 1.65053 -0.381295 0
M  V30 2728 O 273.64 1.71197 -0.55601 0
M  V30 2729 H 270.015 0.584247 -0.473455 0
M  V30 2730 H 271.986 1.68432 -2.4632 0
M  V30 2731 C 270.735 3.15314 -1.46534 0
M  V30 2732 H 270.058 3.25149 -2.32633 0
M  V30 2733 H 271.498 3.9453 -1.55312 0
M  V30 2734 C 269.957 3.3639 -0.185305 0
M  V30 2735 O 270.487 3.94699 0.746688 0
M  V30 2736 N 268.693 2.9046 -0.0901606 0
M  V30 2737 H 268.24 2.43193 -0.849416 0
M  V30 2738 H 268.198 3.04937 0.765553 0
M  V30 2739 N 271.97 1.30982 0.876444 0
M  V30 2740 C 273.195 1.23373 1.66715 0
M  V30 2741 C 273.62 -0.19885 1.87046 0
M  V30 2742 O 272.978 -1.1427 1.40756 0
M  V30 2743 C 273.026 1.97644 3.01611 0
M  V30 2744 O 272.13 1.30935 3.91062 0
M  V30 2745 H 271.471 0.426279 0.509099 0
M  V30 2746 H 274.001 1.72944 1.09323 0
M  V30 2747 H 274.011 2.06992 3.51594 0
M  V30 2748 H 272.686 3.01829 2.86133 0
M  V30 2749 H 271.263 1.29996 3.49507 0
M  V30 2750 N 273.449 -1.08991 1.13837 0
M  V30 2751 C 274.698 -1.80631 0.897509 0
M  V30 2752 C 275.011 -1.86872 -0.57777 0
M  V30 2753 O 276.217 -2.54866 -0.935701 0
M  V30 2754 C 274.673 -3.24517 1.55618 0
M  V30 2755 C 274.281 -3.26529 3.0673 0
M  V30 2756 C 276.025 -4.00882 1.3962 0
M  V30 2757 C 273.932 -4.64965 3.65461 0
M  V30 2758 H 272.862 -0.67691 0.332129 0
M  V30 2759 H 275.513 -1.2246 1.3666 0
M  V30 2760 H 273.895 -3.82778 1.01476 0
M  V30 2761 H 275.069 -2.78008 3.67489 0
M  V30 2762 H 273.384 -2.63656 3.22296 0
M  V30 2763 H 275.981 -5.03167 1.80906 0
M  V30 2764 H 276.324 -4.14896 0.341578 0
M  V30 2765 H 276.857 -3.49075 1.90766 0
M  V30 2766 H 273.596 -4.56153 4.70749 0
M  V30 2767 H 273.116 -5.13792 3.09481 0
M  V30 2768 H 274.795 -5.3394 3.654 0
M  V30 2769 N 274.927 -0.932562 -1.27047 0
M  V30 2770 C 276.175 -0.574422 -1.93765 0
M  V30 2771 C 276.496 0.887993 -1.73608 0
M  V30 2772 O 275.766 1.62999 -1.08665 0
M  V30 2773 H 274.346 -0.209451 -0.717035 0
M  V30 2774 H 277.008 -1.18601 -1.5466 0
M  V30 2775 H 276.104 -0.784841 -3.02071 0
M  V30 2776 N 276.405 1.4127 -0.698611 0
M  V30 2777 C 277.651 2.01478 -0.231207 0
M  V30 2778 C 277.984 1.55215 1.16713 0
M  V30 2779 O 277.259 0.764672 1.78838 0
M  V30 2780 C 277.542 3.58912 -0.292281 0
M  V30 2781 C 277.395 4.15293 -1.72778 0
M  V30 2782 C 278.714 4.38736 0.346194 0
M  V30 2783 H 275.833 0.732025 -0.0854878 0
M  V30 2784 H 278.475 1.67977 -0.887906 0
M  V30 2785 H 276.625 3.87582 0.26686 0
M  V30 2786 H 278.297 3.97486 -2.341 0
M  V30 2787 H 276.54 3.7022 -2.26096 0
M  V30 2788 H 277.211 5.24452 -1.72202 0
M  V30 2789 H 279.687 4.15897 -0.130035 0
M  V30 2790 H 278.563 5.48221 0.272932 0
M  V30 2791 H 278.824 4.18425 1.42734 0
M  V30 2792 N 277.883 0.443576 1.51229 0
M  V30 2793 C 278.813 -0.355142 2.30783 0
M  V30 2794 C 279.794 -1.0154 1.36468 0
M  V30 2795 O 280.979 -1.01785 1.65389 0
M  V30 2796 C 278.109 -1.45312 3.15439 0
M  V30 2797 C 277.063 -0.916002 4.18083 0
M  V30 2798 C 276.389 -2.1102 4.91299 0
M  V30 2799 C 277.689 0.0538602 5.22272 0
M  V30 2800 H 279.383 0.308767 2.97804 0
M  V30 2801 H 276.929 0.149937 1.43217 0
M  V30 2802 H 278.882 -2.01914 3.69876 0
M  V30 2803 H 277.606 -2.14541 2.46252 0
M  V30 2804 H 276.265 -0.372145 3.64706 0
M  V30 2805 H 275.913 -2.78882 4.18609 0
M  V30 2806 H 275.613 -1.75717 5.60712 0
M  V30 2807 H 277.137 -2.68164 5.48562 0
M  V30 2808 H 278.551 -0.422069 5.71744 0
M  V30 2809 H 276.948 0.319776 5.99247 0
M  V30 2810 H 278.018 0.98858 4.74716 0
M  V30 2811 N 279.361 -1.56624 0.175154 0
M  V30 2812 C 280.609 -1.96609 -0.467885 0
M  V30 2813 C 280.93 -1.06238 -1.63519 0
M  V30 2814 O 280.2 -0.129523 -1.95471 0
M  V30 2815 H 278.78 -0.726008 -0.175845 0
M  V30 2816 H 281.442 -1.93195 0.257234 0
M  V30 2817 H 280.538 -3.00989 -0.825342 0
M  V30 2818 N 280.839 0.0985539 -1.57292 0
M  V30 2819 C 282.085 0.803867 -1.86188 0
M  V30 2820 C 282.418 1.78549 -0.763794 0
M  V30 2821 O 281.693 1.93153 0.22855 0
M  V30 2822 C 281.976 1.53568 -3.25713 0
M  V30 2823 C 281.829 0.572277 -4.46145 0
M  V30 2824 C 283.148 2.48708 -3.63087 0
M  V30 2825 H 280.267 0.290781 -0.677211 0
M  V30 2826 H 282.909 0.0675783 -1.8988 0
M  V30 2827 H 281.059 2.16332 -3.22696 0
M  V30 2828 H 282.731 -0.0480894 -4.61275 0
M  V30 2829 H 280.974 -0.114618 -4.33649 0
M  V30 2830 H 281.645 1.12139 -5.40489 0
M  V30 2831 H 284.121 1.96039 -3.67026 0
M  V30 2832 H 282.997 2.96932 -4.61652 0
M  V30 2833 H 283.258 3.32309 -2.91588 0
M  V30 2834 N 282.317 1.53212 0.369288 0
M  V30 2835 C 283.28 1.7872 1.43498 0
M  V30 2836 C 284.28 0.657554 1.46741 0
M  V30 2837 O 285.47 0.925736 1.47566 0
M  V30 2838 C 282.602 1.90591 2.82645 0
M  V30 2839 H 283.795 2.73894 1.22156 0
M  V30 2840 H 281.348 1.44233 0.602203 0
M  V30 2841 H 282.083 0.974709 3.09306 0
M  V30 2842 H 281.868 2.72751 2.8169 0
M  V30 2843 H 283.358 2.11931 3.59826 0
M  V30 2844 N 283.795 -0.628877 1.44509 0
M  V30 2845 C 285.206 -1.21054 1.42137 0
M  V30 2846 C 285.557 -1.95715 0.137881 0
M  V30 2847 O 284.682 -2.02554 -0.761645 0
M  V30 2848 C 285.277 -2.20189 2.57493 0
M  V30 2849 C 283.836 -2.73777 2.58308 0
M  V30 2850 C 282.983 -1.48813 2.33987 0
M  V30 2851 H 285.934 -0.41942 1.53057 0
M  V30 2852 H 285.955 -3.02833 2.30375 0
M  V30 2853 H 285.467 -1.6582 3.50892 0
M  V30 2854 H 283.568 -3.32142 1.68856 0
M  V30 2855 H 283.681 -3.19662 3.56865 0
M  V30 2856 H 282.045 -1.77024 1.83124 0
M  V30 2857 H 282.828 -0.963442 3.29504 0
M  V30 2858 N 285.273 -1.31445 -0.869486 0
M  V30 2859 C 286.498 -1.24256 -1.66058 0
M  V30 2860 C 286.923 0.188928 -1.87149 0
M  V30 2861 O 286.281 1.13522 -1.4136 0
M  V30 2862 C 286.329 -1.9924 -3.00559 0
M  V30 2863 O 285.433 -1.33007 -3.90362 0
M  V30 2864 H 284.774 -0.428973 -0.506831 0
M  V30 2865 H 287.304 -1.73521 -1.08404 0
M  V30 2866 H 287.314 -2.08854 -3.50491 0
M  V30 2867 H 285.989 -3.03342 -2.84528 0
M  V30 2868 H 284.566 -1.31848 -3.48813 0
M  V30 2869 N 286.751 1.08385 -1.14413 0
M  V30 2870 C 287.714 2.13486 -0.834048 0
M  V30 2871 C 288.714 1.59988 0.161418 0
M  V30 2872 O 289.904 1.74071 -0.0669575 0
M  V30 2873 C 287.036 3.4003 -0.243354 0
M  V30 2874 H 288.229 2.42425 -1.7655 0
M  V30 2875 H 285.782 1.24101 -0.950189 0
M  V30 2876 H 286.517 3.16726 0.696807 0
M  V30 2877 H 286.302 3.80157 -0.960367 0
M  V30 2878 H 287.792 4.17577 -0.0436242 0
M  V30 2879 N 288.23 0.939286 1.26551 0
M  V30 2880 C 289.455 0.602008 1.98471 0
M  V30 2881 C 289.88 -0.815624 1.69497 0
M  V30 2882 O 289.238 -1.54912 0.941905 0
M  V30 2883 C 289.286 0.848407 3.50477 0
M  V30 2884 O 288.39 -0.0804009 4.12322 0
M  V30 2885 H 287.731 0.23049 0.622712 0
M  V30 2886 H 290.261 1.2617 1.61066 0
M  V30 2887 H 290.271 0.768553 4.00696 0
M  V30 2888 H 288.946 1.88171 3.70897 0
M  V30 2889 H 287.523 0.0503508 3.72866 0
M  V30 2890 N 289.708 -1.40897 0.706093 0
M  V30 2891 C 290.638 -2.33418 0.0620085 0
M  V30 2892 C 291.619 -1.52385 -0.755827 0
M  V30 2893 O 292.804 -1.80886 -0.706674 0
M  V30 2894 C 289.934 -3.36293 -0.867445 0
M  V30 2895 C 288.888 -4.27716 -0.155932 0
M  V30 2896 C 288.214 -5.2105 -1.20046 0
M  V30 2897 C 289.514 -5.12944 0.984149 0
M  V30 2898 H 291.208 -2.87527 0.83477 0
M  V30 2899 H 288.754 -1.38249 0.402875 0
M  V30 2900 H 290.707 -3.99949 -1.32735 0
M  V30 2901 H 289.431 -2.80556 -1.67199 0
M  V30 2902 H 288.09 -3.65498 0.284047 0
M  V30 2903 H 287.738 -4.61624 -1.99781 0
M  V30 2904 H 287.438 -5.83056 -0.729328 0
M  V30 2905 H 288.962 -5.87584 -1.66066 0
M  V30 2906 H 290.376 -5.70109 0.604048 0
M  V30 2907 H 288.773 -5.83945 1.38304 0
M  V30 2908 H 289.843 -4.49485 1.81911 0
M  V30 2909 N 291.186 -0.45159 -1.50991 0
M  V30 2910 C 292.416 0.108177 -2.06317 0
M  V30 2911 C 292.824 1.35774 -1.31765 0
M  V30 2912 O 292.167 1.79838 -0.374694 0
M  V30 2913 C 292.229 0.481659 -3.56259 0
M  V30 2914 C 291.893 -0.663114 -4.52163 0
M  V30 2915 C 292.89 -1.53947 -4.96585 0
M  V30 2916 C 290.575 -0.8479 -4.95092 0
M  V30 2917 C 292.569 -2.58518 -5.82621 0
M  V30 2918 C 290.256 -1.89686 -5.80915 0
M  V30 2919 C 291.254 -2.76388 -6.24579 0
M  V30 2920 O 290.942 -3.79482 -7.08695 0
M  V30 2921 H 290.674 0.00499183 -0.675982 0
M  V30 2922 H 293.228 -0.633659 -1.95381 0
M  V30 2923 H 291.458 1.27641 -3.65027 0
M  V30 2924 H 293.147 0.974233 -3.94035 0
M  V30 2925 H 293.913 -1.4083 -4.64103 0
M  V30 2926 H 289.792 -0.18258 -4.60638 0
M  V30 2927 H 293.336 -3.26224 -6.16623 0
M  V30 2928 H 289.233 -2.02817 -6.12809 0
M  V30 2929 H 290.001 -3.76234 -7.26905 0
M  V30 2930 N 292.664 1.56529 -0.183458 0
M  V30 2931 C 293.627 2.17324 0.728223 0
M  V30 2932 C 294.627 1.12453 1.14939 0
M  V30 2933 O 295.817 1.37902 1.06437 0
M  V30 2934 C 292.949 2.76591 1.99274 0
M  V30 2935 H 294.142 2.99241 0.198772 0
M  V30 2936 H 291.695 1.5616 0.0661391 0
M  V30 2937 H 292.43 1.98441 2.56499 0
M  V30 2938 H 292.215 3.5335 1.69959 0
M  V30 2939 H 293.705 3.23311 2.6431 0
M  V30 2940 N 294.142 -0.090211 1.57342 0
M  V30 2941 C 295.388 -0.793982 1.86611 0
M  V30 2942 C 295.721 -1.78142 0.773252 0
M  V30 2943 O 294.996 -1.93271 -0.218304 0
M  V30 2944 C 295.279 -1.51839 3.26523 0
M  V30 2945 C 295.132 -0.548609 4.46442 0
M  V30 2946 C 296.451 -2.46779 3.64401 0
M  V30 2947 H 293.57 -0.287186 0.678744 0
M  V30 2948 H 296.212 -0.0575076 1.89913 0
M  V30 2949 H 294.362 -2.14617 3.23839 0
M  V30 2950 H 296.034 0.0725513 4.61243 0
M  V30 2951 H 294.277 0.137614 4.33582 0
M  V30 2952 H 294.948 -1.09271 5.41076 0
M  V30 2953 H 297.424 -1.94089 3.68061 0
M  V30 2954 H 296.3 -2.94479 4.63221 0
M  V30 2955 H 296.561 -3.30758 2.93346 0
M  V30 2956 N 295.62 -1.53406 -0.361157 0
M  V30 2957 C 296.567 -1.80156 -1.44265 0
M  V30 2958 C 297.537 -0.646183 -1.53015 0
M  V30 2959 O 298.722 -0.888818 -1.68833 0
M  V30 2960 C 295.862 -2.00116 -2.81154 0
M  V30 2961 C 294.975 -3.27833 -2.81335 0
M  V30 2962 C 294.11 -3.37957 -4.09828 0
M  V30 2963 C 293.149 -4.59689 -4.04168 0
M  V30 2964 N 292.286 -4.66942 -5.24318 0
M  V30 2965 H 297.126 -2.72438 -1.20754 0
M  V30 2966 H 294.663 -1.34954 -0.585296 0
M  V30 2967 H 296.621 -2.09677 -3.60682 0
M  V30 2968 H 295.251 -1.11167 -3.03054 0
M  V30 2969 H 294.303 -3.27204 -1.94014 0
M  V30 2970 H 295.615 -4.17442 -2.73027 0
M  V30 2971 H 294.769 -3.46853 -4.97773 0
M  V30 2972 H 293.508 -2.46372 -4.20894 0
M  V30 2973 H 292.513 -4.50889 -3.14609 0
M  V30 2974 H 293.738 -5.5262 -3.947 0
M  V30 2975 H 291.684 -3.7826 -5.35962 0
M  V30 2976 H 291.601 -5.50462 -5.18197 0
M  V30 2977 H 292.869 -4.80127 -6.14084 0
M  V30 2978 N 297.098 0.621204 -1.44841 0
M  V30 2979 C 298.344 1.3826 -1.48365 0
M  V30 2980 C 298.677 1.93831 -0.119624 0
M  V30 2981 O 297.952 1.74251 0.864111 0
M  V30 2982 C 298.235 2.54058 -2.55199 0
M  V30 2983 C 298.088 2.03772 -4.00995 0
M  V30 2984 C 299.407 3.56225 -2.58442 0
M  V30 2985 H 296.526 0.501374 -0.540179 0
M  V30 2986 H 299.168 0.7015 -1.76576 0
M  V30 2987 H 297.318 3.12162 -2.31274 0
M  V30 2988 H 298.99 1.50423 -4.36086 0
M  V30 2989 H 297.233 1.34876 -4.12299 0
M  V30 2990 H 297.904 2.87185 -4.71411 0
M  V30 2991 H 300.38 3.07939 -2.79844 0
M  V30 2992 H 299.256 4.34756 -3.3508 0
M  V30 2993 H 299.517 4.10949 -1.63013 0
M  V30 2994 N 298.576 1.31904 0.862503 0
M  V30 2995 C 299.506 1.22782 1.98612 0
M  V30 2996 C 300.487 0.113362 1.69722 0
M  V30 2997 O 301.672 0.299218 1.91881 0
M  V30 2998 C 298.802 0.942058 3.34279 0
M  V30 2999 C 297.756 2.0169 3.77499 0
M  V30 3000 C 297.082 1.58369 5.10709 0
M  V30 3001 C 298.382 3.43096 3.93805 0
M  V30 3002 H 300.076 2.16788 2.06502 0
M  V30 3003 H 297.622 1.04366 0.992154 0
M  V30 3004 H 299.575 0.864818 4.1243 0
M  V30 3005 H 298.299 -0.0336603 3.26583 0
M  V30 3006 H 296.958 2.08416 3.01593 0
M  V30 3007 H 296.606 0.595628 4.99461 0
M  V30 3008 H 296.306 2.30279 5.40597 0
M  V30 3009 H 297.83 1.52067 5.91361 0
M  V30 3010 H 299.244 3.39003 4.62331 0
M  V30 3011 H 297.641 4.13288 4.35101 0
M  V30 3012 H 298.711 3.83334 2.96957 0
M  V30 3013 N 300.054 -1.07777 1.14986 0
M  V30 3014 C 301.302 -1.79934 0.920235 0
M  V30 3015 C 301.623 -1.86955 -0.554336 0
M  V30 3016 O 300.893 -1.36731 -1.40291 0
M  V30 3017 H 299.473 -0.666424 0.337473 0
M  V30 3018 H 302.135 -1.3027 1.44968 0
M  V30 3019 H 301.231 -2.82539 1.32583 0
M  V30 3020 N 301.532 -0.945985 -1.26051 0
M  V30 3021 C 302.495 -0.463897 -2.24456 0
M  V30 3022 C 303.495 0.427655 -1.55009 0
M  V30 3023 O 304.685 0.226157 -1.72726 0
M  V30 3024 C 301.817 0.330812 -3.39291 0
M  V30 3025 H 303.01 -1.33357 -2.68619 0
M  V30 3026 H 300.563 -0.728416 -1.38289 0
M  V30 3027 H 301.298 1.21852 -3.00537 0
M  V30 3028 H 301.083 -0.308679 -3.90883 0
M  V30 3029 H 302.573 0.657865 -4.12386 0
M  V30 3030 N 303.011 1.40521 -0.713556 0
M  V30 3031 C 304.288 1.94775 -0.17943 0
M  V30 3032 C 304.668 1.65184 1.31444 0
M  V30 3033 O 304.016 0.968429 2.06963 0
M  V30 3034 C 304.226 3.45543 -0.489986 0
M  V30 3035 C 305.574 4.22442 -0.427536 0
M  V30 3036 O 306.598 3.53644 -0.425929 0
M  V30 3037 O 305.457 5.4501 -0.403292 0
M  V30 3038 H 302.551 0.826606 -0.0255192 0
M  V30 3039 H 305.097 1.5014 -0.790949 0
M  V30 3040 H 303.869 3.60432 -1.5233 0
M  V30 3041 H 303.492 3.97311 0.151598 0
M  V30 3042 N 304.489 0.459591 1.5075 0
M  V30 3043 C 305.737 -0.0991532 2.01857 0
M  V30 3044 C 306.058 -1.41247 1.34441 0
M  V30 3045 O 305.328 -1.89775 0.486022 0
M  V30 3046 H 303.908 -0.039633 0.745948 0
M  V30 3047 H 306.57 0.607387 1.85194 0
M  V30 3048 H 305.666 -0.258998 3.11023 0
M  V30 3049 N 305.967 -1.56429 0.191757 0
M  V30 3050 C 307.192 -2.02309 -0.456706 0
M  V30 3051 C 307.617 -1.07103 -1.5463 0
M  V30 3052 O 306.975 -0.0539677 -1.8122 0
M  V30 3053 C 307.023 -3.46654 -0.993159 0
M  V30 3054 O 306.127 -3.54559 -2.10622 0
M  V30 3055 H 305.468 -0.655303 -0.107114 0
M  V30 3056 H 307.998 -2.02364 0.301653 0
M  V30 3057 H 308.008 -3.86377 -1.31061 0
M  V30 3058 H 306.683 -4.1544 -0.195504 0
M  V30 3059 H 305.26 -3.26708 -1.79767 0
M  V30 3060 N 307.445 0.0818655 -1.57387 0
M  V30 3061 C 308.693 0.781368 -1.86384 0
M  V30 3062 C 309.014 1.78618 -0.782342 0
M  V30 3063 O 308.284 1.94976 0.190061 0
M  V30 3064 H 306.864 0.291562 -0.687751 0
M  V30 3065 H 309.526 0.060348 -1.94807 0
M  V30 3066 H 308.622 1.3038 -2.83562 0
M  V30 3067 N 308.923 1.53595 0.353017 0
M  V30 3068 C 309.855 1.77219 1.45348 0
M  V30 3069 C 310.868 0.65324 1.49119 0
M  V30 3070 O 312.057 0.929775 1.52373 0
M  V30 3071 C 309.157 1.84841 2.84055 0
M  V30 3072 C 308.33 3.14649 3.03833 0
M  V30 3073 C 307.389 3.13351 4.22727 0
M  V30 3074 O 306.415 3.87107 4.17297 0
M  V30 3075 N 307.617 2.35052 5.30783 0
M  V30 3076 H 310.382 2.72178 1.25457 0
M  V30 3077 H 307.943 1.52528 0.542833 0
M  V30 3078 H 309.935 1.81435 3.61751 0
M  V30 3079 H 308.505 0.971114 2.97133 0
M  V30 3080 H 307.725 3.31256 2.13689 0
M  V30 3081 H 309.013 4.00411 3.13925 0
M  V30 3082 H 308.411 1.74663 5.38061 0
M  V30 3083 H 306.968 2.37453 6.07009 0
M  V30 3084 N 310.401 -0.613514 1.45168 0
M  V30 3085 C 311.631 -1.39743 1.52169 0
M  V30 3086 C 312.039 -1.88596 0.151086 0
M  V30 3087 O 311.382 -1.6251 -0.856521 0
M  V30 3088 C 311.444 -2.64035 2.43979 0
M  V30 3089 C 311.108 -2.36861 3.90827 0
M  V30 3090 C 312.105 -1.97591 4.80889 0
M  V30 3091 C 309.79 -2.49956 4.35692 0
M  V30 3092 C 311.784 -1.71768 6.1382 0
M  V30 3093 C 309.471 -2.23747 5.68665 0
M  V30 3094 C 310.469 -1.84714 6.57548 0
M  V30 3095 O 310.157 -1.58809 7.88058 0
M  V30 3096 H 309.889 -0.434382 0.517966 0
M  V30 3097 H 312.443 -0.75587 1.90986 0
M  V30 3098 H 310.673 -3.3089 2.00122 0
M  V30 3099 H 312.362 -3.26069 2.41731 0
M  V30 3100 H 313.128 -1.87015 4.47493 0
M  V30 3101 H 309.007 -2.79305 3.66756 0
M  V30 3102 H 312.551 -1.41227 6.83155 0
M  V30 3103 H 308.448 -2.33938 6.01617 0
M  V30 3104 H 309.216 -1.7291 8.00028 0
M  V30 3105 N 311.879 -1.3236 -0.855495 0
M  V30 3106 C 313.104 -1.2601 -1.64731 0
M  V30 3107 C 313.529 0.169068 -1.87339 0
M  V30 3108 O 312.887 1.12016 -1.42556 0
M  V30 3109 C 312.935 -2.02417 -2.98429 0
M  V30 3110 O 312.039 -1.3714 -3.8893 0
M  V30 3111 H 311.38 -0.434325 -0.502253 0
M  V30 3112 H 313.91 -1.74661 -1.06558 0
M  V30 3113 H 313.92 -2.12559 -3.48257 0
M  V30 3114 H 312.595 -3.06343 -2.81295 0
M  V30 3115 H 311.172 -1.3554 -3.47395 0
M  V30 3116 N 313.357 1.07166 -1.15556 0
M  V30 3117 C 314.603 1.80222 -0.942961 0
M  V30 3118 C 314.958 1.85121 0.524209 0
M  V30 3119 O 314.251 1.32531 1.38369 0
M  V30 3120 C 314.445 3.24707 -1.49332 0
M  V30 3121 C 314.274 3.33887 -3.01247 0
M  V30 3122 C 313.044 3.44337 -3.69811 0
M  V30 3123 C 315.242 3.24484 -3.99017 0
M  V30 3124 N 313.224 3.42439 -5.09518 0
M  V30 3125 C 314.595 3.29726 -5.25053 0
M  V30 3126 C 316.65 3.08307 -3.90962 0
M  V30 3127 C 315.353 3.20455 -6.43973 0
M  V30 3128 C 317.379 3.00371 -5.09442 0
M  V30 3129 C 316.741 3.06227 -6.34354 0
M  V30 3130 H 312.84 0.672709 -0.398731 0
M  V30 3131 H 315.424 1.27905 -1.46794 0
M  V30 3132 H 313.595 3.7544 -0.994946 0
M  V30 3133 H 315.327 3.85894 -1.21935 0
M  V30 3134 H 312.082 3.48762 -3.20409 0
M  V30 3135 H 312.506 3.45013 -5.8249 0
M  V30 3136 H 317.148 3.02633 -2.95251 0
M  V30 3137 H 314.866 3.24888 -7.39914 0
M  V30 3138 H 318.452 2.88955 -5.04971 0
M  V30 3139 H 317.332 3.00132 -7.24493 0
M  V30 3140 N 314.835 0.952656 1.25548 0
M  V30 3141 C 316.084 0.602053 1.92505 0
M  V30 3142 C 316.397 -0.864663 1.75451 0
M  V30 3143 O 317.603 -1.32514 2.36965 0
M  V30 3144 C 316.059 1.02607 3.44963 0
M  V30 3145 C 315.667 2.51519 3.70732 0
M  V30 3146 C 317.411 0.747905 4.1786 0
M  V30 3147 C 315.318 2.87732 5.16686 0
M  V30 3148 H 314.248 0.22146 0.720744 0
M  V30 3149 H 316.899 1.15684 1.42441 0
M  V30 3150 H 315.281 0.399712 3.93978 0
M  V30 3151 H 316.455 3.19157 3.32378 0
M  V30 3152 H 314.77 2.76786 3.11092 0
M  V30 3153 H 317.367 0.994647 5.25367 0
M  V30 3154 H 317.71 -0.315629 4.15102 0
M  V30 3155 H 318.243 1.33452 3.74747 0
M  V30 3156 H 314.982 3.93095 5.24554 0
M  V30 3157 H 314.502 2.24765 5.56094 0
M  V30 3158 H 316.181 2.76817 5.84792 0
M  V30 3159 N 316.313 -1.40141 0.720998 0
M  V30 3160 C 317.562 -2.0002 0.259804 0
M  V30 3161 C 317.875 -1.57839 -1.15526 0
M  V30 3162 O 319.081 -2.10455 -1.71525 0
M  V30 3163 C 317.537 -3.57516 0.413566 0
M  V30 3164 C 317.145 -4.08667 1.83562 0
M  V30 3165 C 318.889 -4.24498 0.0134387 0
M  V30 3166 C 316.796 -5.58686 1.93968 0
M  V30 3167 H 315.726 -0.748195 0.0933806 0
M  V30 3168 H 318.377 -1.60313 0.892866 0
M  V30 3169 H 316.759 -3.9495 -0.288169 0
M  V30 3170 H 317.933 -3.82598 2.56817 0
M  V30 3171 H 316.248 -3.543 2.1877 0
M  V30 3172 H 318.845 -5.34654 0.0703954 0
M  V30 3173 H 319.188 -4.03375 -1.02927 0
M  V30 3174 H 319.721 -3.92188 0.665815 0
M  V30 3175 H 316.46 -5.8467 2.96379 0
M  V30 3176 H 315.98 -5.86602 1.25131 0
M  V30 3177 H 317.659 -6.23875 1.71431 0
M  V30 3178 N 317.792 -0.46758 -1.50504 0
M  V30 3179 C 318.74 0.342482 -2.30065 0
M  V30 3180 C 319.734 0.993596 -1.37201 0
M  V30 3181 O 320.94 0.925102 -1.54408 0
M  V30 3182 H 317.315 0.129283 -0.740803 0
M  V30 3183 H 319.286 -0.34899 -2.96352 0
M  V30 3184 C 318.035 1.4139 -3.17654 0
M  V30 3185 H 317.358 0.922264 -3.89017 0
M  V30 3186 H 318.798 1.95335 -3.76325 0
M  V30 3187 C 317.257 2.4139 -2.35016 0
M  V30 3188 O 317.787 3.46586 -2.03079 0
M  V30 3189 N 315.993 2.13021 -1.97662 0
M  V30 3190 H 315.54 1.27499 -2.23834 0
M  V30 3191 H 315.498 2.80164 -1.42673 0
M  V30 3192 N 319.27 1.56325 -0.20005 0
M  V30 3193 C 320.518 1.97329 0.436547 0
M  V30 3194 C 320.839 1.08826 1.61808 0
M  V30 3195 O 320.109 0.160604 1.95241 0
M  V30 3196 H 318.689 0.728714 0.164272 0
M  V30 3197 H 321.351 1.92761 -0.287937 0
M  V30 3198 H 320.447 3.02264 0.777353 0
M  V30 3199 N 320.748 -0.0735177 1.57428 0
M  V30 3200 C 321.997 -0.771809 1.86349 0
M  V30 3201 C 322.31 -1.78828 0.792452 0
M  V30 3202 O 323.516 -2.53602 0.96945 0
M  V30 3203 C 321.972 -1.42358 3.30548 0
M  V30 3204 C 321.58 -0.445761 4.45777 0
M  V30 3205 C 323.324 -2.10434 3.6867 0
M  V30 3206 C 321.231 -1.10335 5.81016 0
M  V30 3207 H 320.161 -0.291999 0.695164 0
M  V30 3208 H 322.812 -0.0250749 1.83483 0
M  V30 3209 H 321.194 -2.21852 3.28021 0
M  V30 3210 H 322.368 0.319239 4.59693 0
M  V30 3211 H 320.683 0.130457 4.16196 0
M  V30 3212 H 323.28 -2.60405 4.67004 0
M  V30 3213 H 323.623 -2.90298 2.98383 0
M  V30 3214 H 324.156 -1.37773 3.7318 0
M  V30 3215 H 320.895 -0.345061 6.54591 0
M  V30 3216 H 320.415 -1.83925 5.70904 0
M  V30 3217 H 322.094 -1.62367 6.26295 0
M  V30 3218 N 322.226 -1.5378 -0.344866 0
M  V30 3219 C 323.136 -1.84667 -1.4469 0
M  V30 3220 C 324.152 -0.736704 -1.57635 0
M  V30 3221 O 325.328 -1.02888 -1.73136 0
M  V30 3222 C 322.393 -2.04869 -2.79696 0
M  V30 3223 C 321.454 -3.28731 -2.76106 0
M  V30 3224 C 320.687 -3.4796 -4.04673 0
M  V30 3225 O 320.91 -2.71052 -5.01883 0
M  V30 3226 O 319.844 -4.41383 -4.09224 0
M  V30 3227 H 323.67 -2.78334 -1.21506 0
M  V30 3228 H 321.255 -1.39418 -0.536921 0
M  V30 3229 H 323.137 -2.19609 -3.59652 0
M  V30 3230 H 321.812 -1.14391 -3.02814 0
M  V30 3231 H 320.719 -3.19396 -1.94774 0
M  V30 3232 H 322.052 -4.19198 -2.57941 0
M  V30 3233 N 323.704 0.605807 -1.45491 0
M  V30 3234 C 324.95 1.36481 -1.50813 0
M  V30 3235 C 325.305 1.91826 -0.148469 0
M  V30 3236 O 324.598 1.72211 0.839869 0
M  V30 3237 C 324.792 2.53012 -2.52428 0
M  V30 3238 C 324.621 2.09078 -3.98141 0
M  V30 3239 C 323.391 1.95167 -4.66088 0
M  V30 3240 C 325.589 1.66438 -4.86624 0
M  V30 3241 N 323.571 1.45062 -5.96515 0
M  V30 3242 C 324.942 1.27761 -6.06694 0
M  V30 3243 C 326.997 1.54046 -4.7347 0
M  V30 3244 C 325.7 0.779286 -7.15066 0
M  V30 3245 C 327.726 1.05618 -5.81892 0
M  V30 3246 C 327.088 0.67906 -7.01119 0
M  V30 3247 H 323.187 0.493267 -0.606805 0
M  V30 3248 H 325.771 0.692347 -1.81974 0
M  V30 3249 H 323.942 3.17851 -2.23215 0
M  V30 3250 H 325.674 3.19897 -2.47887 0
M  V30 3251 H 322.429 2.16407 -4.21266 0
M  V30 3252 H 322.853 1.22237 -6.65873 0
M  V30 3253 H 327.495 1.81827 -3.81705 0
M  V30 3254 H 325.213 0.489026 -8.06619 0
M  V30 3255 H 328.799 0.964529 -5.73749 0
M  V30 3256 H 327.679 0.310091 -7.83587 0
M  V30 3257 N 325.182 1.32811 0.848464 0
M  V30 3258 C 326.145 1.22194 1.9391 0
M  V30 3259 C 327.145 0.143404 1.60159 0
M  V30 3260 O 328.335 0.394253 1.6968 0
M  V30 3261 C 325.467 0.88067 3.29328 0
M  V30 3262 H 326.66 2.19127 2.04752 0
M  V30 3263 H 324.213 1.16731 1.0394 0
M  V30 3264 H 324.948 -0.0865776 3.24184 0
M  V30 3265 H 324.733 1.66052 3.55203 0
M  V30 3266 H 326.223 0.830871 4.09251 0
M  V30 3267 N 326.66 -1.06551 1.16123 0
M  V30 3268 C 327.909 -1.78687 0.935622 0
M  V30 3269 C 328.222 -1.88056 -0.538001 0
M  V30 3270 O 329.428 -2.56794 -0.88143 0
M  V30 3271 C 327.884 -3.21143 1.62466 0
M  V30 3272 C 327.492 -3.19949 3.13587 0
M  V30 3273 C 329.236 -3.9783 1.48092 0
M  V30 3274 C 327.143 -4.57108 3.75241 0
M  V30 3275 H 326.073 -0.669712 0.346412 0
M  V30 3276 H 328.724 -1.19534 1.39226 0
M  V30 3277 H 327.106 -3.80539 1.09572 0
M  V30 3278 H 328.28 -2.70151 3.73303 0
M  V30 3279 H 326.595 -2.5676 3.27816 0
M  V30 3280 H 329.192 -4.99217 1.91538 0
M  V30 3281 H 329.535 -4.14078 0.429507 0
M  V30 3282 H 330.068 -3.4495 1.98127 0
M  V30 3283 H 326.807 -4.46065 4.80319 0
M  V30 3284 H 326.327 -5.07111 3.20309 0
M  V30 3285 H 328.006 -5.26069 3.76644 0
M  V30 3286 N 328.138 -0.959301 -1.25041 0
M  V30 3287 C 329.101 -0.487677 -2.23952 0
M  V30 3288 C 330.101 0.41119 -1.55454 0
M  V30 3289 O 331.291 0.207825 -1.72956 0
M  V30 3290 C 328.423 0.294807 -3.39623 0
M  V30 3291 H 329.616 -1.36198 -2.67189 0
M  V30 3292 H 327.169 -0.743042 -1.37508 0
M  V30 3293 H 327.904 1.18658 -3.01813 0
M  V30 3294 H 327.689 -0.35012 -3.90534 0
M  V30 3295 H 329.179 0.614089 -4.1306 0
M  V30 3296 N 329.616 1.39756 -0.72842 0
M  V30 3297 C 330.564 2.32485 -0.0731849 0
M  V30 3298 C 331.558 1.52717 0.733063 0
M  V30 3299 O 332.764 1.68428 0.634988 0
M  V30 3300 H 329.139 0.751984 -0.00486469 0
M  V30 3301 H 331.11 2.85382 -0.871761 0
M  V30 3302 C 329.859 3.37773 0.824908 0
M  V30 3303 H 329.182 3.99227 0.213915 0
M  V30 3304 H 330.622 4.05121 1.25111 0
M  V30 3305 C 329.081 2.74287 1.95622 0
M  V30 3306 O 329.611 2.61618 3.04826 0
M  V30 3307 N 327.817 2.32475 1.74367 0
M  V30 3308 H 327.364 2.4298 0.855494 0
M  V30 3309 H 327.322 1.90337 2.50238 0
M  V30 3310 N 331.094 0.475555 1.50254 0
M  V30 3311 C 332.042 -0.330276 2.30243 0
M  V30 3312 C 333.036 -0.986306 1.37726 0
M  V30 3313 O 334.242 -0.9169 1.54897 0
M  V30 3314 H 330.617 -0.125353 0.741479 0
M  V30 3315 H 332.588 0.364702 2.96163 0
M  V30 3316 C 331.337 -1.39704 3.18399 0
M  V30 3317 H 330.66 -0.901621 3.89501 0
M  V30 3318 H 332.1 -1.93336 3.77355 0
M  V30 3319 C 330.559 -2.4014 2.36293 0
M  V30 3320 O 331.089 -3.45504 2.04914 0
M  V30 3321 N 329.295 -2.1197 1.98789 0
M  V30 3322 H 328.842 -1.2631 2.24507 0
M  V30 3323 H 328.8 -2.79403 1.44157 0
M  V30 3324 N 332.573 -1.56217 0.208337 0
M  V30 3325 C 333.506 -2.15633 -0.746842 0
M  V30 3326 C 334.484 -1.09685 -1.20034 0
M  V30 3327 O 335.668 -1.3787 -1.28547 0
M  V30 3328 C 332.795 -2.72594 -2.01023 0
M  V30 3329 C 331.841 -3.91251 -1.69779 0
M  V30 3330 S 332.674 -5.28962 -0.834209 0
M  V30 3331 C 333.83 -5.89353 -2.10745 0
M  V30 3332 H 334.063 -2.96315 -0.241789 0
M  V30 3333 H 331.596 -1.54398 -0.00682183 0
M  V30 3334 H 333.554 -3.06053 -2.73572 0
M  V30 3335 H 332.215 -1.91929 -2.48641 0
M  V30 3336 H 331.408 -4.29562 -2.63614 0
M  V30 3337 H 331.01 -3.58869 -1.05303 0
M  V30 3338 H 333.302 -6.04522 -3.05875 0
M  V30 3339 H 334.245 -6.85661 -1.76845 0
M  V30 3340 H 334.653 -5.1807 -2.24196 0
M  V30 3341 N 334.051 0.0651679 -1.57465 0
M  V30 3342 C 335.328 0.79644 -1.78651 0
M  V30 3343 C 335.708 1.95454 -0.797566 0
M  V30 3344 O 335.056 2.27882 0.167946 0
M  V30 3345 C 335.266 1.26322 -3.25337 0
M  V30 3346 C 336.614 1.6939 -3.89348 0
M  V30 3347 O 337.638 1.35872 -3.29268 0
M  V30 3348 O 336.497 2.31471 -4.95059 0
M  V30 3349 H 333.591 0.382157 -0.733407 0
M  V30 3350 H 336.137 0.0447311 -1.69641 0
M  V30 3351 H 334.909 0.434859 -3.88876 0
M  V30 3352 H 334.532 2.07604 -3.39096 0
M  V30 3353 N 335.529 1.53961 0.336706 0
M  V30 3354 C 336.775 1.7179 1.07777 0
M  V30 3355 C 337.108 0.483263 1.88091 0
M  V30 3356 O 336.383 -0.519747 1.87427 0
M  V30 3357 C 336.666 2.98558 2.01334 0
M  V30 3358 C 336.519 4.32245 1.24437 0
M  V30 3359 C 337.838 3.21023 3.01052 0
M  V30 3360 H 334.957 0.625089 0.390426 0
M  V30 3361 H 337.599 1.86641 0.35567 0
M  V30 3362 H 335.749 2.86028 2.62908 0
M  V30 3363 H 337.421 4.56637 0.654243 0
M  V30 3364 H 335.664 4.30344 0.546458 0
M  V30 3365 H 336.335 5.17137 1.93063 0
M  V30 3366 H 338.811 3.32929 2.49595 0
M  V30 3367 H 337.687 4.11104 3.6371 0
M  V30 3368 H 337.948 2.37637 3.72802 0
M  V30 3369 N 337.007 -0.598083 1.45811 0
M  V30 3370 C 338.256 -1.35295 1.49594 0
M  V30 3371 C 338.569 -1.95057 0.145679 0
M  V30 3372 O 339.775 -2.71431 0.0612099 0
M  V30 3373 C 338.231 -2.45124 2.63519 0
M  V30 3374 C 337.839 -1.91732 4.04899 0
M  V30 3375 C 339.583 -3.2205 2.76558 0
M  V30 3376 C 337.49 -2.991 5.1019 0
M  V30 3377 H 336.42 -0.508552 0.556679 0
M  V30 3378 H 339.071 -0.639977 1.71978 0
M  V30 3379 H 337.453 -3.19149 2.34435 0
M  V30 3380 H 338.627 -1.24352 4.43704 0
M  V30 3381 H 336.942 -1.27522 3.96393 0
M  V30 3382 H 339.539 -4.0215 3.52391 0
M  V30 3383 H 339.882 -3.73663 1.83526 0
M  V30 3384 H 340.415 -2.55127 3.05213 0
M  V30 3385 H 337.154 -2.52393 6.04961 0
M  V30 3386 H 336.674 -3.65017 4.75944 0
M  V30 3387 H 338.353 -3.63318 5.35359 0
M  V30 3388 N 338.485 -1.33259 -0.841409 0
M  V30 3389 C 339.433 -1.23279 -1.97244 0
M  V30 3390 C 340.427 -0.134706 -1.68864 0
M  V30 3391 O 341.633 -0.298501 -1.77508 0
M  V30 3392 H 338.008 -0.382497 -0.647457 0
M  V30 3393 H 339.979 -2.18906 -2.02787 0
M  V30 3394 C 338.728 -0.986268 -3.33419 0
M  V30 3395 H 338.051 -1.82347 -3.55794 0
M  V30 3396 H 339.491 -0.956728 -4.13065 0
M  V30 3397 C 337.95 0.310842 -3.35463 0
M  V30 3398 O 338.48 1.31838 -3.79449 0
M  V30 3399 N 336.686 0.337485 -2.88634 0
M  V30 3400 H 336.233 -0.482967 -2.53032 0
M  V30 3401 H 336.191 1.20518 -2.90384 0
M  V30 3402 N 339.963 1.05934 -1.16686 0
M  V30 3403 C 340.896 2.1295 -0.820225 0
M  V30 3404 C 341.874 1.61242 0.209722 0
M  V30 3405 O 343.058 1.88271 0.0929688 0
M  V30 3406 C 340.185 3.3797 -0.22223 0
M  V30 3407 C 339.231 4.08488 -1.22637 0
M  V30 3408 S 340.064 4.58015 -2.77457 0
M  V30 3409 C 341.22 5.86292 -2.19117 0
M  V30 3410 H 341.453 2.42025 -1.72659 0
M  V30 3411 H 338.986 1.18423 -0.990722 0
M  V30 3412 H 340.944 4.10335 0.116322 0
M  V30 3413 H 339.605 3.07045 0.66196 0
M  V30 3414 H 338.798 4.98291 -0.756455 0
M  V30 3415 H 338.4 3.42154 -1.51019 0
M  V30 3416 H 340.692 6.59246 -1.56209 0
M  V30 3417 H 341.635 6.38019 -3.07144 0
M  V30 3418 H 342.043 5.40497 -1.62858 0
M  V30 3419 N 341.441 0.965919 1.2453 0
M  V30 3420 C 342.666 0.643971 1.97149 0
M  V30 3421 C 343.091 -0.779487 1.71189 0
M  V30 3422 O 342.449 -1.5288 0.974553 0
M  V30 3423 C 342.497 0.922557 3.48599 0
M  V30 3424 O 341.601 0.00707672 4.12399 0
M  V30 3425 H 340.942 0.243647 0.617683 0
M  V30 3426 H 343.472 1.29558 1.58353 0
M  V30 3427 H 343.482 0.853373 3.98976 0
M  V30 3428 H 342.157 1.95996 3.66822 0
M  V30 3429 H 340.734 0.12943 3.72675 0
M  V30 3430 N 342.919 -1.39368 0.735821 0
M  V30 3431 C 343.849 -2.33234 0.111506 0
M  V30 3432 C 344.83 -1.53954 -0.723334 0
M  V30 3433 O 346.015 -1.82344 -0.668147 0
M  V30 3434 C 343.145 -3.38057 -0.795917 0
M  V30 3435 C 342.099 -4.2795 -0.065172 0
M  V30 3436 C 341.425 -5.23479 -1.08967 0
M  V30 3437 C 342.725 -5.10741 1.09273 0
M  V30 3438 H 344.419 -2.85692 0.895571 0
M  V30 3439 H 341.965 -1.37364 0.432109 0
M  V30 3440 H 343.918 -4.02675 -1.24221 0
M  V30 3441 H 342.642 -2.8404 -1.61211 0
M  V30 3442 H 341.301 -3.64813 0.361511 0
M  V30 3443 H 340.949 -4.65758 -1.89944 0
M  V30 3444 H 340.649 -5.84472 -0.605489 0
M  V30 3445 H 342.173 -5.90974 -1.53565 0
M  V30 3446 H 343.587 -5.68699 0.724841 0
M  V30 3447 H 341.984 -5.8088 1.50659 0
M  V30 3448 H 343.054 -4.45525 1.91404 0
M  V30 3449 N 344.397 -0.483516 -1.5 0
M  V30 3450 C 345.645 0.067027 -2.01989 0
M  V30 3451 C 345.966 1.3909 -1.36671 0
M  V30 3452 O 345.236 1.88978 -0.516152 0
M  V30 3453 H 343.816 0.0277606 -0.746484 0
M  V30 3454 H 346.478 -0.636773 -1.84204 0
M  V30 3455 H 345.574 0.209484 -3.11396 0
M  V30 3456 N 345.875 1.56104 -0.216619 0
M  V30 3457 C 347.123 1.97781 0.415593 0
M  V30 3458 C 347.444 1.10536 1.60645 0
M  V30 3459 O 346.714 0.181303 1.95059 0
M  V30 3460 H 345.294 0.730415 0.156534 0
M  V30 3461 H 347.956 1.92445 -0.308366 0
M  V30 3462 H 347.052 3.03072 0.74525 0
M  V30 3463 N 347.353 -0.0568162 1.57498 0
M  V30 3464 C 348.764 -0.606858 1.76562 0
M  V30 3465 C 349.115 -1.77114 0.844094 0
M  V30 3466 O 348.24 -2.16376 0.0318911 0
M  V30 3467 C 348.835 -1.10766 3.20182 0
M  V30 3468 C 347.394 -1.60344 3.40539 0
M  V30 3469 C 346.541 -0.529311 2.72201 0
M  V30 3470 H 349.492 0.169393 1.57793 0
M  V30 3471 H 349.513 -1.97602 3.25167 0
M  V30 3472 H 349.025 -0.26006 3.87228 0
M  V30 3473 H 347.126 -2.47379 2.78629 0
M  V30 3474 H 347.239 -1.67006 4.4905 0
M  V30 3475 H 345.603 -0.977893 2.35179 0
M  V30 3476 H 346.386 0.308352 3.41912 0
M  V30 3477 N 348.832 -1.54138 -0.328536 0
M  V30 3478 C 350.057 -1.76378 -1.09112 0
M  V30 3479 C 350.482 -0.508596 -1.81094 0
M  V30 3480 O 349.84 0.539598 -1.73084 0
M  V30 3481 C 349.888 -2.95358 -2.06872 0
M  V30 3482 O 348.992 -2.66556 -3.14677 0
M  V30 3483 H 348.333 -0.584614 -0.314838 0
M  V30 3484 H 350.863 -2.01146 -0.374348 0
M  V30 3485 H 350.873 -3.22566 -2.4983 0
M  V30 3486 H 349.548 -3.86385 -1.5388 0
M  V30 3487 H 348.125 -2.50282 -2.7643 0
M  V30 3488 N 350.31 0.590341 -1.46126 0
M  V30 3489 C 351.558 1.34616 -1.50742 0
M  V30 3490 C 351.879 1.94363 -0.157486 0
M  V30 3491 O 351.149 1.78136 0.815136 0
M  V30 3492 H 349.729 0.499789 -0.555175 0
M  V30 3493 H 352.391 0.691953 -1.82203 0
M  V30 3494 H 351.487 2.15678 -2.25587 0
M  V30 3495 N 351.788 1.33704 0.83433 0
M  V30 3496 C 353.013 1.28615 1.62705 0
M  V30 3497 C 353.438 -0.139242 1.87584 0
M  V30 3498 O 352.796 -1.09734 1.4432 0
M  V30 3499 C 352.844 2.07139 2.95171 0
M  V30 3500 O 351.948 1.4331 3.86699 0
M  V30 3501 H 351.289 0.44226 0.49528 0
M  V30 3502 H 353.819 1.76335 1.03766 0
M  V30 3503 H 353.829 2.18073 3.44831 0
M  V30 3504 H 352.504 3.10779 2.76386 0
M  V30 3505 H 351.081 1.4105 3.45195 0
M  V30 3506 N 353.266 -1.05314 1.17247 0
M  V30 3507 C 354.229 -2.112 0.890357 0
M  V30 3508 C 355.229 -1.60359 -0.118943 0
M  V30 3509 O 356.419 -1.73833 0.113086 0
M  V30 3510 C 353.551 -3.39266 0.333422 0
M  V30 3511 H 354.744 -2.37659 1.82916 0
M  V30 3512 H 352.297 -1.21538 0.982758 0
M  V30 3513 H 353.032 -3.18462 -0.612587 0
M  V30 3514 H 352.817 -3.77477 1.06082 0
M  V30 3515 H 354.307 -4.17315 0.154322 0
M  V30 3516 N 354.744 -0.972509 -1.24016 0
M  V30 3517 C 355.707 -0.511403 -2.23422 0
M  V30 3518 C 356.707 0.394679 -1.55881 0
M  V30 3519 O 357.897 0.189469 -1.73167 0
M  V30 3520 C 355.029 0.258769 -3.39916 0
M  V30 3521 H 356.222 -1.39024 -2.6573 0
M  V30 3522 H 353.775 -0.757585 -1.36713 0
M  V30 3523 H 354.51 1.1545 -3.03054 0
M  V30 3524 H 354.295 -0.391522 -3.9014 0
M  V30 3525 H 355.785 0.570244 -4.13688 0
M  V30 3526 N 356.222 1.38976 -0.743202 0
M  V30 3527 C 357.152 2.33171 -0.123873 0
M  V30 3528 C 358.133 1.54336 0.71516 0
M  V30 3529 O 359.318 1.82696 0.658467 0
M  V30 3530 C 356.448 3.38474 0.777978 0
M  V30 3531 C 355.402 4.27979 0.0424758 0
M  V30 3532 C 354.728 5.2405 1.06189 0
M  V30 3533 C 356.028 5.10155 -1.1198 0
M  V30 3534 H 357.722 2.85213 -0.910709 0
M  V30 3535 H 355.268 1.37133 -0.439388 0
M  V30 3536 H 357.221 4.03328 1.22084 0
M  V30 3537 H 355.945 2.84891 1.59702 0
M  V30 3538 H 354.604 3.64616 -0.380853 0
M  V30 3539 H 354.252 4.66758 1.87472 0
M  V30 3540 H 353.952 5.84785 0.574485 0
M  V30 3541 H 355.476 5.9178 1.50428 0
M  V30 3542 H 356.89 5.68307 -0.75499 0
M  V30 3543 H 355.287 5.80073 -1.53738 0
M  V30 3544 H 356.357 4.44504 -1.93764 0
M  V30 3545 N 357.7 0.491464 1.49741 0
M  V30 3546 C 358.647 -0.292027 2.28945 0
M  V30 3547 C 359.617 -0.968973 1.34908 0
M  V30 3548 O 360.802 -0.97748 1.6386 0
M  V30 3549 C 357.942 -1.35617 3.17336 0
M  V30 3550 C 357.055 -0.691957 4.26422 0
M  V30 3551 C 356.19 -1.73572 5.02042 0
M  V30 3552 C 355.229 -1.05286 6.02977 0
M  V30 3553 N 354.366 -2.0404 6.71798 0
M  V30 3554 H 359.206 0.389654 2.95442 0
M  V30 3555 H 356.743 0.204003 1.45679 0
M  V30 3556 H 358.701 -1.98502 3.66951 0
M  V30 3557 H 357.331 -2.00674 2.52844 0
M  V30 3558 H 356.383 0.0499523 3.80367 0
M  V30 3559 H 357.695 -0.153946 4.98562 0
M  V30 3560 H 356.849 -2.43987 5.55478 0
M  V30 3561 H 355.588 -2.30757 4.29654 0
M  V30 3562 H 354.593 -0.334446 5.48782 0
M  V30 3563 H 355.818 -0.487636 6.77347 0
M  V30 3564 H 353.764 -2.60205 6.02187 0
M  V30 3565 H 353.681 -1.55279 7.39881 0
M  V30 3566 H 354.949 -2.73772 7.29842 0
M  V30 3567 N 359.178 -1.55987 0.224894 0
M  V30 3568 C 360.141 -2.19178 -0.670348 0
M  V30 3569 C 361.141 -1.15461 -1.11917 0
M  V30 3570 O 362.331 -1.40675 -1.02743 0
M  V30 3571 C 359.463 -2.81777 -1.9187 0
M  V30 3572 H 360.656 -2.99662 -0.119364 0
M  V30 3573 H 358.209 -1.5628 -0.0247128 0
M  V30 3574 H 358.944 -2.05172 -2.51147 0
M  V30 3575 H 358.729 -3.57732 -1.60531 0
M  V30 3576 H 360.219 -3.30205 -2.55645 0
M  V30 3577 N 360.656 0.0484629 -1.57525 0
M  V30 3578 C 361.619 1.03956 -2.04269 0
M  V30 3579 C 362.619 1.30211 -0.943496 0
M  V30 3580 O 363.809 1.25539 -1.20771 0
M  V30 3581 C 360.941 2.37742 -2.44319 0
M  V30 3582 H 362.134 0.636182 -2.93075 0
M  V30 3583 H 359.687 0.294811 -1.53494 0
M  V30 3584 H 360.422 2.82866 -1.5861 0
M  V30 3585 H 360.207 2.20021 -3.24551 0
M  V30 3586 H 361.697 3.08936 -2.80978 0
M  V30 3587 N 362.134 1.5431 0.320358 0
M  V30 3588 C 363.38 1.72924 1.05949 0
M  V30 3589 C 363.713 0.503185 1.87568 0
M  V30 3590 O 362.988 -0.499839 1.87968 0
M  V30 3591 C 363.271 3.00676 1.98156 0
M  V30 3592 C 363.124 4.3354 1.19845 0
M  V30 3593 C 364.443 3.24198 2.9763 0
M  V30 3594 H 361.562 0.629195 0.383774 0
M  V30 3595 H 364.204 1.87008 0.335854 0
M  V30 3596 H 362.354 2.888 2.59859 0
M  V30 3597 H 364.026 4.57305 0.605773 0
M  V30 3598 H 362.269 4.309 0.500784 0
M  V30 3599 H 362.94 5.19156 1.87567 0
M  V30 3600 H 365.416 3.35557 2.4605 0
M  V30 3601 H 364.292 4.14938 3.59329 0
M  V30 3602 H 364.553 2.41577 3.7026 0
M  V30 3603 N 363.613 -0.582584 1.46437 0
M  V30 3604 C 364.89 -1.34276 1.4223 0
M  V30 3605 C 365.27 -2.10835 0.10583 0
M  V30 3606 O 364.618 -2.09485 -0.912596 0
M  V30 3607 C 364.828 -2.26865 2.65204 0
M  V30 3608 C 366.176 -2.88691 3.11356 0
M  V30 3609 O 367.2 -2.37178 2.65753 0
M  V30 3610 O 366.059 -3.82255 3.90568 0
M  V30 3611 H 363.153 -0.603326 0.565621 0
M  V30 3612 H 365.699 -0.603591 1.58603 0
M  V30 3613 H 364.471 -1.69724 3.52576 0
M  V30 3614 H 364.094 -3.08122 2.5129 0
M  V30 3615 N 365.091 -1.34144 -0.827227 0
M  V30 3616 C 366.038 -1.25364 -1.93785 0
M  V30 3617 C 367.008 -0.129774 -1.65592 0
M  V30 3618 O 368.193 -0.310024 -1.88264 0
M  V30 3619 C 365.333 -1.01064 -3.2997 0
M  V30 3620 C 364.446 -2.22185 -3.70484 0
M  V30 3621 C 363.581 -1.91203 -4.95595 0
M  V30 3622 C 362.62 -3.08491 -5.28677 0
M  V30 3623 N 361.757 -2.77421 -6.44967 0
M  V30 3624 H 366.597 -2.20347 -2.00627 0
M  V30 3625 H 364.134 -1.09558 -0.981608 0
M  V30 3626 H 366.092 -0.850139 -4.08446 0
M  V30 3627 H 364.722 -0.0975026 -3.22653 0
M  V30 3628 H 363.774 -2.4917 -2.87434 0
M  V30 3629 H 365.086 -3.0983 -3.90905 0
M  V30 3630 H 364.24 -1.71864 -5.81848 0
M  V30 3631 H 362.979 -1.00812 -4.77167 0
M  V30 3632 H 361.984 -3.28431 -4.40923 0
M  V30 3633 H 363.209 -3.99655 -5.49047 0
M  V30 3634 H 361.155 -1.89601 -6.28003 0
M  V30 3635 H 361.072 -3.58598 -6.6554 0
M  V30 3636 H 362.34 -2.61577 -7.34301 0
M  V30 3637 N 366.569 1.04691 -1.17803 0
M  V30 3638 C 367.532 2.10724 -0.901545 0
M  V30 3639 C 368.532 1.6042 0.110437 0
M  V30 3640 O 369.722 1.7377 -0.122303 0
M  V30 3641 C 366.854 3.39084 -0.351409 0
M  V30 3642 H 368.047 2.36686 -1.84174 0
M  V30 3643 H 365.6 1.21015 -0.98919 0
M  V30 3644 H 366.335 3.18782 0.59569 0
M  V30 3645 H 366.12 3.76909 -1.08083 0
M  V30 3646 H 367.61 4.17227 -0.176451 0
M  V30 3647 N 368.047 0.979072 1.23499 0
M  V30 3648 C 369.293 0.648178 1.92163 0
M  V30 3649 C 369.626 -0.816049 1.76222 0
M  V30 3650 O 368.901 -1.58849 1.12237 0
M  V30 3651 C 369.184 1.03773 3.44824 0
M  V30 3652 C 369.037 2.55948 3.69879 0
M  V30 3653 C 370.356 0.580653 4.36253 0
M  V30 3654 H 367.475 0.236952 0.69787 0
M  V30 3655 H 370.117 1.22012 1.45647 0
M  V30 3656 H 368.267 0.551058 3.84572 0
M  V30 3657 H 369.939 3.12179 3.3962 0
M  V30 3658 H 368.182 2.98641 3.14636 0
M  V30 3659 H 368.853 2.78255 4.76737 0
M  V30 3660 H 371.329 0.998465 4.03943 0
M  V30 3661 H 370.205 0.881663 5.41773 0
M  V30 3662 H 370.466 -0.519052 4.39042 0
M  V30 3663 N 369.525 -1.3858 0.750561 0
M  V30 3664 C 370.488 -2.28836 0.129152 0
M  V30 3665 C 371.488 -1.47045 -0.650714 0
M  V30 3666 O 372.678 -1.6753 -0.477428 0
M  V30 3667 C 369.81 -3.30751 -0.825622 0
M  V30 3668 H 371.003 -2.85294 0.924516 0
M  V30 3669 H 368.556 -1.47489 0.517376 0
M  V30 3670 H 369.291 -2.79378 -1.64677 0
M  V30 3671 H 369.076 -3.91177 -0.268852 0
M  V30 3672 H 370.566 -3.98249 -1.2565 0
M  V30 3673 N 371.003 -0.499398 -1.49478 0
M  V30 3674 C 372.228 0.044722 -2.07352 0
M  V30 3675 C 372.653 1.30207 -1.35749 0
M  V30 3676 O 372.011 1.76516 -0.413732 0
M  V30 3677 C 372.059 0.283013 -3.59488 0
M  V30 3678 O 371.163 1.35804 -3.89398 0
M  V30 3679 H 370.504 -0.0255147 -0.66351 0
M  V30 3680 H 373.034 -0.698561 -1.92305 0
M  V30 3681 H 373.044 0.515007 -4.04737 0
M  V30 3682 H 371.719 -0.635636 -4.11014 0
M  V30 3683 H 370.296 1.11113 -3.55961 0
M  V30 3684 N 372.481 1.55866 -0.233164 0
M  V30 3685 C 373.729 1.9821 0.394593 0
M  V30 3686 C 374.05 1.12234 1.59463 0
M  V30 3687 O 373.32 0.201981 1.94856 0
M  V30 3688 H 371.9 0.732034 0.148778 0
M  V30 3689 H 374.562 1.92107 -0.32876 0
M  V30 3690 H 373.658 3.03845 0.713063 0
M  V30 3691 N 373.959 -0.0401083 1.57549 0
M  V30 3692 C 375.205 -0.734211 1.89043 0
M  V30 3693 C 375.538 -1.75591 0.829535 0
M  V30 3694 O 374.813 -1.93868 -0.156706 0
M  V30 3695 C 375.096 -1.41374 3.31188 0
M  V30 3696 C 374.949 -0.406299 4.47961 0
M  V30 3697 C 376.268 -2.35061 3.72068 0
M  V30 3698 H 373.387 -0.265447 0.687537 0
M  V30 3699 H 376.029 0.00294087 1.9 0
M  V30 3700 H 374.179 -2.04206 3.30503 0
M  V30 3701 H 375.851 0.219255 4.60779 0
M  V30 3702 H 374.094 0.275485 4.32924 0
M  V30 3703 H 374.765 -0.920022 5.44279 0
M  V30 3704 H 377.241 -1.82282 3.74049 0
M  V30 3705 H 376.117 -2.79593 4.72355 0
M  V30 3706 H 376.378 -3.21258 3.0372 0
M  V30 3707 N 375.437 -1.54477 -0.31217 0
M  V30 3708 C 376.683 -1.73483 -1.0503 0
M  V30 3709 C 377.016 -0.513125 -1.87298 0
M  V30 3710 O 376.291 0.489864 -1.8823 0
M  V30 3711 C 376.574 -3.01723 -1.96558 0
M  V30 3712 C 376.427 -4.3417 -1.17545 0
M  V30 3713 C 377.746 -3.25772 -2.95907 0
M  V30 3714 H 374.865 -0.631222 -0.380432 0
M  V30 3715 H 377.507 -1.87184 -0.325932 0
M  V30 3716 H 375.657 -2.90174 -2.58324 0
M  V30 3717 H 377.329 -4.5762 -0.581513 0
M  V30 3718 H 375.572 -4.31159 -0.477925 0
M  V30 3719 H 376.243 -5.20143 -1.84811 0
M  V30 3720 H 378.719 -3.36857 -2.44267 0
M  V30 3721 H 377.595 -4.16838 -3.57123 0
M  V30 3722 H 377.856 -2.43537 -3.68974 0
M  V30 3723 N 376.915 0.57481 -1.46744 0
M  V30 3724 C 378.161 1.3347 -1.52688 0
M  V30 3725 C 378.494 1.93353 -0.181229 0
M  V30 3726 O 377.769 1.76912 0.808237 0
M  V30 3727 C 378.052 2.45811 -2.63152 0
M  V30 3728 C 377.905 1.90912 -4.07275 0
M  V30 3729 C 379.224 3.47822 -2.69644 0
M  V30 3730 H 376.343 0.483935 -0.555856 0
M  V30 3731 H 378.985 0.644968 -1.78718 0
M  V30 3732 H 377.135 3.04646 -2.41088 0
M  V30 3733 H 378.807 1.36473 -4.4065 0
M  V30 3734 H 377.05 1.21691 -4.16382 0
M  V30 3735 H 377.721 2.72042 -4.80309 0
M  V30 3736 H 380.197 2.9888 -2.895 0
M  V30 3737 H 379.073 4.23876 -3.48742 0
M  V30 3738 H 379.334 4.05555 -1.76005 0
M  V30 3739 N 378.394 1.34581 0.820102 0
M  V30 3740 C 379.64 1.27285 1.57881 0
M  V30 3741 C 379.973 -0.156137 1.93571 0
M  V30 3742 O 379.248 -1.10222 1.60254 0
M  V30 3743 C 379.531 2.16639 2.87645 0
M  V30 3744 C 379.384 3.68088 2.58517 0
M  V30 3745 C 380.703 2.05378 3.8924 0
M  V30 3746 H 377.822 0.463714 0.572833 0
M  V30 3747 H 380.464 1.64859 0.944539 0
M  V30 3748 H 378.614 1.84725 3.41773 0
M  V30 3749 H 380.286 4.10382 2.10676 0
M  V30 3750 H 378.529 3.89038 1.91917 0
M  V30 3751 H 379.2 4.2598 3.51063 0
M  V30 3752 H 381.676 2.33404 3.44473 0
M  V30 3753 H 380.552 2.7012 4.77835 0
M  V30 3754 H 380.813 1.0316 4.29896 0
M  V30 3755 N 379.872 -1.04064 1.18357 0
M  V30 3756 C 380.835 -2.10243 0.912707 0
M  V30 3757 C 381.835 -1.60477 -0.101928 0
M  V30 3758 O 383.025 -1.73703 0.131517 0
M  V30 3759 C 380.157 -3.38893 0.369387 0
M  V30 3760 H 381.35 -2.35706 1.85426 0
M  V30 3761 H 378.903 -1.20489 0.995594 0
M  V30 3762 H 379.638 -3.19094 -0.578776 0
M  V30 3763 H 379.423 -3.76331 1.1008 0
M  V30 3764 H 380.913 -4.17128 0.198575 0
M  V30 3765 N 381.35 -0.985608 -1.22978 0
M  V30 3766 C 382.313 -0.535071 -2.22867 0
M  V30 3767 C 383.313 0.378123 -1.56291 0
M  V30 3768 O 384.503 0.171092 -1.73358 0
M  V30 3769 C 381.635 0.222702 -3.40172 0
M  V30 3770 H 382.828 -1.41835 -2.6424 0
M  V30 3771 H 380.381 -0.772042 -1.35901 0
M  V30 3772 H 381.116 1.12229 -3.04262 0
M  V30 3773 H 380.901 -0.43288 -3.89703 0
M  V30 3774 H 382.391 0.526335 -4.1427 0
M  V30 3775 N 382.828 1.3818 -0.7579 0
M  V30 3776 C 383.791 2.28764 -0.141286 0
M  V30 3777 C 384.791 1.47388 0.642907 0
M  V30 3778 O 385.981 1.67781 0.468536 0
M  V30 3779 C 383.113 3.31184 0.808069 0
M  V30 3780 H 384.306 2.848 -0.939633 0
M  V30 3781 H 381.859 1.47212 -0.525191 0
M  V30 3782 H 382.594 2.80247 1.63193 0
M  V30 3783 H 382.379 3.91314 0.248104 0
M  V30 3784 H 383.869 3.98909 1.23536 0
M  V30 3785 N 384.306 0.507319 1.49211 0
M  V30 3786 C 385.554 -0.0348839 2.0207 0
M  V30 3787 C 385.875 -1.36898 1.38866 0
M  V30 3788 O 385.145 -1.88133 0.546151 0
M  V30 3789 H 383.725 -0.0158812 0.746831 0
M  V30 3790 H 386.387 0.665998 1.83168 0
M  V30 3791 H 385.483 -0.159917 3.1169 0
M  V30 3792 N 385.784 -1.5574 0.241426 0
M  V30 3793 C 386.732 -2.22538 -0.676718 0
M  V30 3794 C 387.726 -1.21117 -1.18436 0
M  V30 3795 O 388.932 -1.39144 -1.14188 0
M  V30 3796 H 385.307 -0.713776 -0.236701 0
M  V30 3797 H 387.278 -2.98264 -0.0901187 0
M  V30 3798 C 386.027 -2.93439 -1.86518 0
M  V30 3799 H 385.35 -3.7125 -1.4837 0
M  V30 3800 H 386.79 -3.43549 -2.48495 0
M  V30 3801 C 385.249 -1.97008 -2.73294 0
M  V30 3802 O 385.779 -1.49965 -3.72657 0
M  V30 3803 N 383.985 -1.64227 -2.39745 0
M  V30 3804 H 383.532 -2.02677 -1.58996 0
M  V30 3805 H 383.49 -0.999708 -2.98083 0
M  V30 3806 N 387.262 0.0317525 -1.57568 0
M  V30 3807 C 388.172 1.05021 -2.0978 0
M  V30 3808 C 389.188 1.39809 -1.03583 0
M  V30 3809 O 390.364 1.49182 -1.35302 0
M  V30 3810 C 387.429 2.33301 -2.56459 0
M  V30 3811 C 386.49 2.0512 -3.77127 0
M  V30 3812 C 385.723 3.27283 -4.2157 0
M  V30 3813 O 385.946 4.37861 -3.65559 0
M  V30 3814 O 384.88 3.13141 -5.14029 0
M  V30 3815 H 388.706 0.636505 -2.96955 0
M  V30 3816 H 386.291 0.248559 -1.47318 0
M  V30 3817 H 388.173 3.08722 -2.86825 0
M  V30 3818 H 386.848 2.73973 -1.72397 0
M  V30 3819 H 385.755 1.27276 -3.51784 0
M  V30 3820 H 387.088 1.69305 -4.62165 0
M  V30 3821 N 388.74 1.54641 0.303973 0
M  V30 3822 C 389.988 1.73437 1.0375 0
M  V30 3823 C 390.309 0.521449 1.87899 0
M  V30 3824 O 389.579 -0.46432 1.90318 0
M  V30 3825 H 388.159 0.639518 0.386039 0
M  V30 3826 H 390.821 1.91988 0.335675 0
M  V30 3827 H 389.917 2.62235 1.69231 0
M  V30 3828 N 390.218 -0.567019 1.47046 0
M  V30 3829 C 391.446 -1.35027 1.56765 0
M  V30 3830 C 391.861 -1.8758 0.214316 0
M  V30 3831 O 391.218 -1.64471 -0.790919 0
M  V30 3832 C 391.269 -2.52698 2.58507 0
M  V30 3833 O 390.99 -2.0232 3.88585 0
M  V30 3834 C 392.491 -3.45043 2.78316 0
M  V30 3835 H 389.711 -0.41195 0.529658 0
M  V30 3836 H 392.255 -0.687832 1.92585 0
M  V30 3837 H 390.41 -3.149 2.25648 0
M  V30 3838 H 390.824 -2.79068 4.44096 0
M  V30 3839 H 392.298 -4.2405 3.53391 0
M  V30 3840 H 392.775 -3.97971 1.85784 0
M  V30 3841 H 393.381 -2.88665 3.12334 0
M  V30 3842 N 391.696 -1.35014 -0.812953 0
M  V30 3843 C 392.921 -1.31187 -1.60639 0
M  V30 3844 C 393.346 0.109382 -1.87782 0
M  V30 3845 O 392.704 1.07424 -1.46047 0
M  V30 3846 C 392.752 -2.11809 -2.91838 0
M  V30 3847 O 391.856 -1.49444 -3.8437 0
M  V30 3848 H 391.197 -0.450084 -0.488181 0
M  V30 3849 H 393.727 -1.77963 -1.00947 0
M  V30 3850 H 393.737 -2.23531 -3.41318 0
M  V30 3851 H 392.412 -3.15137 -2.71407 0
M  V30 3852 H 390.989 -1.46524 -3.42907 0
M  V30 3853 N 393.175 1.03435 -1.18907 0
M  V30 3854 C 394.423 1.76394 -0.986382 0
M  V30 3855 C 394.744 1.88883 0.484567 0
M  V30 3856 O 394.014 1.41843 1.3512 0
M  V30 3857 H 392.594 0.65344 -0.361975 0
M  V30 3858 H 395.256 1.248 -1.49703 0
M  V30 3859 H 394.352 2.77424 -1.42978 0
M  V30 3860 N 394.653 0.992116 1.22453 0
M  V30 3861 C 395.878 0.685644 1.95739 0
M  V30 3862 C 396.303 -0.743 1.72804 0
M  V30 3863 O 395.661 -1.50778 1.00676 0
M  V30 3864 C 395.709 0.996293 3.46564 0
M  V30 3865 O 394.813 0.0945512 4.12292 0
M  V30 3866 H 394.154 0.256694 0.612376 0
M  V30 3867 H 396.684 1.32888 1.5557 0
M  V30 3868 H 396.694 0.93781 3.97076 0
M  V30 3869 H 395.369 2.03733 3.62582 0
M  V30 3870 H 393.946 0.208451 3.72317 0
M  V30 3871 N 396.131 -1.37776 0.765217 0
M  V30 3872 C 397.356 -2.04651 0.336537 0
M  V30 3873 C 397.781 -1.57337 -1.03086 0
M  V30 3874 O 397.139 -0.730621 -1.65927 0
M  V30 3875 C 397.187 -3.58577 0.381468 0
M  V30 3876 O 396.291 -4.07706 -0.62042 0
M  V30 3877 H 395.632 -0.64756 0.146838 0
M  V30 3878 H 398.162 -1.76221 1.03959 0
M  V30 3879 H 398.172 -4.07314 0.236448 0
M  V30 3880 H 396.847 -3.9237 1.37907 0
M  V30 3881 H 395.424 -3.70306 -0.439056 0
M  V30 3882 N 397.609 -0.515225 -1.4894 0
M  V30 3883 C 398.834 0.022727 -2.07388 0
M  V30 3884 C 399.259 1.2876 -1.37122 0
M  V30 3885 O 398.617 1.76067 -0.432431 0
M  V30 3886 C 398.665 0.244869 -3.59768 0
M  V30 3887 O 397.769 1.31667 -3.90817 0
M  V30 3888 H 397.11 -0.0325506 -0.663202 0
M  V30 3889 H 399.64 -0.718918 -1.91553 0
M  V30 3890 H 399.65 0.47205 -4.0526 0
M  V30 3891 H 398.325 -0.679194 -4.10317 0
M  V30 3892 H 396.902 1.07331 -3.5712 0
M  V30 3893 N 399.087 1.5561 -0.249682 0
M  V30 3894 C 400.315 2.03411 0.378352 0
M  V30 3895 C 400.73 1.12886 1.51335 0
M  V30 3896 O 400.087 0.143833 1.81932 0
M  V30 3897 C 400.138 3.50537 0.88351 0
M  V30 3898 O 399.859 4.37614 -0.20626 0
M  V30 3899 C 401.36 4.14113 1.58195 0
M  V30 3900 H 398.58 0.664994 0.08958 0
M  V30 3901 H 401.124 2.01044 -0.374357 0
M  V30 3902 H 399.279 3.5343 1.58639 0
M  V30 3903 H 399.693 5.24199 0.177782 0
M  V30 3904 H 401.167 5.18741 1.8871 0
M  V30 3905 H 401.644 3.60767 2.50487 0
M  V30 3906 H 402.25 4.15151 0.923573 0
M  V30 3907 N 400.565 -0.0233959 1.57583 0
M  V30 3908 C 401.811 -0.714119 1.89811 0
M  V30 3909 C 402.144 -1.74702 0.848113 0
M  V30 3910 O 401.419 -1.94023 -0.136135 0
M  V30 3911 C 401.702 -1.37853 3.32669 0
M  V30 3912 C 401.555 -0.358764 4.48367 0
M  V30 3913 C 402.874 -2.31101 3.7454 0
M  V30 3914 H 399.993 -0.25814 0.690314 0
M  V30 3915 H 402.635 0.0230927 1.89986 0
M  V30 3916 H 400.785 -2.00689 3.3265 0
M  V30 3917 H 402.457 0.268115 4.6052 0
M  V30 3918 H 400.7 0.321387 4.32608 0
M  V30 3919 H 401.371 -0.862242 5.45224 0
M  V30 3920 H 403.847 -1.78304 3.75961 0
M  V30 3921 H 402.723 -2.74567 4.75294 0
M  V30 3922 H 402.984 -3.18018 3.0711 0
M  V30 3923 N 402.043 -1.548 -0.295768 0
M  V30 3924 C 403.291 -1.73985 -1.02828 0
M  V30 3925 C 403.612 -0.531406 -1.87619 0
M  V30 3926 O 402.882 0.454221 -1.90561 0
M  V30 3927 H 401.462 -0.641556 -0.382642 0
M  V30 3928 H 404.124 -1.92163 -0.325489 0
M  V30 3929 H 403.22 -2.63129 -1.67838 0
M  V30 3930 N 403.521 0.559213 -1.47345 0
M  V30 3931 C 404.751 1.33999 -1.57251 0
M  V30 3932 C 405.159 1.87905 -0.220978 0
M  V30 3933 O 404.502 1.65577 0.795617 0
M  V30 3934 C 404.564 2.54798 -2.53611 0
M  V30 3935 C 404.228 2.22192 -3.99349 0
M  V30 3936 C 405.225 1.79607 -4.87891 0
M  V30 3937 C 402.91 2.33613 -4.44669 0
M  V30 3938 C 404.904 1.48868 -6.19772 0
M  V30 3939 C 402.591 2.02487 -5.76578 0
M  V30 3940 C 403.589 1.60183 -6.63951 0
M  V30 3941 O 403.277 1.29451 -7.93409 0
M  V30 3942 H 403.009 0.414858 -0.533731 0
M  V30 3943 H 405.563 0.684465 -1.9366 0
M  V30 3944 H 403.793 3.23235 -2.12265 0
M  V30 3945 H 405.482 3.16873 -2.53666 0
M  V30 3946 H 406.248 1.70278 -4.54126 0
M  V30 3947 H 402.127 2.65501 -3.76869 0
M  V30 3948 H 405.671 1.15775 -6.87926 0
M  V30 3949 H 401.568 2.11448 -6.09885 0
M  V30 3950 H 402.336 1.43098 -8.05894 0
M  V30 3951 N 404.999 1.35443 0.805782 0
M  V30 3952 C 406.41 1.25768 1.37983 0
M  V30 3953 C 406.761 -0.10958 1.95894 0
M  V30 3954 O 405.886 -1.01056 1.91355 0
M  V30 3955 C 406.481 2.27727 2.5085 0
M  V30 3956 C 405.04 2.2179 3.04115 0
M  V30 3957 C 404.187 2.13393 1.77084 0
M  V30 3958 H 407.138 1.4656 0.608752 0
M  V30 3959 H 407.159 1.90422 3.29424 0
M  V30 3960 H 406.671 3.27227 2.08671 0
M  V30 3961 H 404.772 1.25703 3.50756 0
M  V30 3962 H 404.885 3.13788 3.62042 0
M  V30 3963 H 403.249 1.59384 1.98668 0
M  V30 3964 H 404.032 3.14755 1.37056 0
M  V30 3965 N 406.477 -1.02803 1.19454 0
M  V30 3966 C 407.725 -1.75869 0.995722 0
M  V30 3967 C 408.046 -1.89138 -0.474543 0
M  V30 3968 O 407.316 -1.42558 -1.34366 0
M  V30 3969 H 405.896 -0.651511 0.365435 0
M  V30 3970 H 408.558 -1.24004 1.50363 0
M  V30 3971 H 407.654 -2.76661 1.44447 0
M  V30 3972 N 407.956 -0.998596 -1.21925 0
M  V30 3973 C 408.903 -0.553621 -2.24062 0
M  V30 3974 C 409.873 0.416999 -1.6078 0
M  V30 3975 O 411.058 0.320482 -1.88089 0
M  V30 3976 C 408.198 0.119959 -3.44891 0
M  V30 3977 C 407.311 -0.893077 -4.22668 0
M  V30 3978 C 406.446 -0.192424 -5.30851 0
M  V30 3979 C 405.485 -1.19344 -6.00353 0
M  V30 3980 N 404.622 -0.520707 -7.00166 0
M  V30 3981 H 409.462 -1.4293 -2.61486 0
M  V30 3982 H 406.999 -0.715838 -1.28507 0
M  V30 3983 H 408.957 0.527459 -4.13852 0
M  V30 3984 H 407.587 0.959389 -3.08214 0
M  V30 3985 H 406.639 -1.41886 -3.52948 0
M  V30 3986 H 407.951 -1.65512 -4.70539 0
M  V30 3987 H 407.105 0.271515 -6.06092 0
M  V30 3988 H 405.844 0.602075 -4.83969 0
M  V30 3989 H 404.849 -1.66795 -5.23889 0
M  V30 3990 H 406.074 -1.98891 -6.49322 0
M  V30 3991 H 404.02 0.254252 -6.55507 0
M  V30 3992 H 403.937 -1.2211 -7.46073 0
M  V30 3993 H 405.205 -0.0797596 -7.79459 0
M  V30 3994 N 409.434 1.37368 -0.772513 0
M  V30 3995 C 410.664 2.03647 -0.348082 0
M  V30 3996 C 411.072 1.58392 1.03482 0
M  V30 3997 O 410.415 0.760921 1.672 0
M  V30 3998 C 410.477 3.58131 -0.313404 0
M  V30 3999 C 410.141 4.2652 -1.64102 0
M  V30 4000 C 411.138 4.50587 -2.5936 0
M  V30 4001 C 408.823 4.64335 -1.91567 0
M  V30 4002 C 410.817 5.11526 -3.80289 0
M  V30 4003 C 408.504 5.24996 -3.12766 0
M  V30 4004 C 409.502 5.48529 -4.06946 0
M  V30 4005 O 409.19 6.07921 -5.26011 0
M  V30 4006 H 408.922 0.660538 -0.143753 0
M  V30 4007 H 411.476 1.76669 -1.04772 0
M  V30 4008 H 409.706 3.84159 0.442617 0
M  V30 4009 H 411.395 4.05813 0.0840613 0
M  V30 4010 H 412.161 4.21784 -2.39423 0
M  V30 4011 H 408.04 4.45353 -1.19088 0
M  V30 4012 H 411.584 5.29811 -4.53813 0
M  V30 4013 H 407.481 5.53223 -3.32588 0
M  V30 4014 H 408.249 6.26398 -5.26847 0
M  V30 4015 N 410.912 0.523116 1.48665 0
M  V30 4016 C 412.323 0.0808997 1.86525 0
M  V30 4017 C 412.674 -1.33975 1.43336 0
M  V30 4018 O 411.799 -2.00221 0.821009 0
M  V30 4019 C 412.394 0.140037 3.3851 0
M  V30 4020 C 410.953 -0.246948 3.75589 0
M  V30 4021 C 410.1 0.502845 2.72703 0
M  V30 4022 H 413.051 0.734736 1.40667 0
M  V30 4023 H 413.072 -0.649945 3.74908 0
M  V30 4024 H 412.584 1.17412 3.69914 0
M  V30 4025 H 410.685 -1.28343 3.49798 0
M  V30 4026 H 410.798 0.0878859 4.79019 0
M  V30 4027 H 409.162 -0.0500581 2.54651 0
M  V30 4028 H 409.945 1.53743 3.0695 0
M  V30 4029 N 412.39 -1.55475 0.257931 0
M  V30 4030 C 413.615 -2.04064 -0.370488 0
M  V30 4031 C 414.04 -1.13565 -1.49948 0
M  V30 4032 O 413.398 -0.130781 -1.80828 0
M  V30 4033 C 413.446 -3.50554 -0.845237 0
M  V30 4034 O 412.55 -3.63173 -1.95394 0
M  V30 4035 H 411.891 -0.659257 -0.0792243 0
M  V30 4036 H 414.421 -2.00903 0.387212 0
M  V30 4037 H 414.431 -3.91588 -1.14555 0
M  V30 4038 H 413.106 -4.15896 -0.0191259 0
M  V30 4039 H 411.683 -3.34039 -1.65748 0
M  V30 4040 N 413.868 0.0150385 -1.57593 0
M  V30 4041 C 415.114 0.704043 -1.90187 0
M  V30 4042 C 415.447 1.74249 -0.857366 0
M  V30 4043 O 414.722 1.94092 0.125843 0
M  V30 4044 C 415.005 1.36087 -3.33395 0
M  V30 4045 C 414.858 0.334981 -4.48551 0
M  V30 4046 C 416.177 2.29112 -3.7576 0
M  V30 4047 H 413.296 0.254475 -0.691673 0
M  V30 4048 H 415.938 -0.0331678 -1.89971 0
M  V30 4049 H 414.088 1.98922 -3.3371 0
M  V30 4050 H 415.76 -0.292534 -4.60372 0
M  V30 4051 H 414.003 -0.344325 -4.32431 0
M  V30 4052 H 414.674 0.833316 -5.45674 0
M  V30 4053 H 417.15 1.76308 -3.76902 0
M  V30 4054 H 416.026 2.72043 -4.76743 0
M  V30 4055 H 416.287 3.16385 -3.08793 0
M  V30 4056 N 415.346 1.54954 0.287554 0
M  V30 4057 C 416.595 1.74081 1.01877 0
M  V30 4058 C 416.908 0.541135 1.87966 0
M  V30 4059 O 418.114 0.614491 2.64455 0
M  V30 4060 C 416.57 3.08042 1.86113 0
M  V30 4061 C 416.178 4.35531 1.04961 0
M  V30 4062 C 417.922 3.36523 2.58752 0
M  V30 4063 C 415.829 5.60538 1.88551 0
M  V30 4064 H 414.759 0.64884 0.384087 0
M  V30 4065 H 417.41 1.81426 0.275101 0
M  V30 4066 H 415.792 2.94696 2.64519 0
M  V30 4067 H 416.966 4.59751 0.31074 0
M  V30 4068 H 415.281 4.14085 0.43843 0
M  V30 4069 H 417.878 4.27122 3.21668 0
M  V30 4070 H 418.221 2.56 3.28283 0
M  V30 4071 H 418.754 3.50901 1.87386 0
M  V30 4072 H 415.493 6.43767 1.23466 0
M  V30 4073 H 415.013 5.40483 2.60074 0
M  V30 4074 H 416.692 5.98297 2.46273 0
M  V30 4075 N 416.824 -0.551391 1.4764 0
M  V30 4076 C 417.787 -1.64007 1.60107 0
M  V30 4077 C 418.787 -1.53601 0.47576 0
M  V30 4078 O 419.977 -1.57655 0.740988 0
M  V30 4079 C 417.109 -3.03569 1.55108 0
M  V30 4080 H 418.302 -1.543 2.57161 0
M  V30 4081 H 415.855 -0.771776 1.35917 0
M  V30 4082 H 416.59 -3.18804 0.594519 0
M  V30 4083 H 416.375 -3.12532 2.36783 0
M  V30 4084 H 417.865 -3.82762 1.66982 0
M  V30 4085 N 418.302 -1.35869 -0.798587 0
M  V30 4086 C 419.548 -1.2978 -1.55836 0
M  V30 4087 C 419.881 0.125322 -1.93795 0
M  V30 4088 O 419.156 1.07658 -1.61987 0
M  V30 4089 C 419.439 -2.21188 -2.84162 0
M  V30 4090 C 419.292 -3.72155 -2.52628 0
M  V30 4091 C 420.611 -2.11545 -3.85923 0
M  V30 4092 H 417.73 -0.472769 -0.565383 0
M  V30 4093 H 420.372 -1.66341 -0.918192 0
M  V30 4094 H 418.522 -1.90139 -3.38791 0
M  V30 4095 H 420.194 -4.13682 -2.04121 0
M  V30 4096 H 418.437 -3.92042 -1.85704 0
M  V30 4097 H 419.108 -4.31511 -3.44242 0
M  V30 4098 H 421.584 -2.38855 -3.40716 0
M  V30 4099 H 420.46 -2.77688 -4.73477 0
M  V30 4100 H 420.721 -1.09987 -4.282 0
M  V30 4101 N 419.78 1.02168 -1.19998 0
M  V30 4102 C 421.028 1.75338 -1.00504 0
M  V30 4103 C 421.349 1.89387 0.464506 0
M  V30 4104 O 420.619 1.43268 1.33608 0
M  V30 4105 H 419.199 0.649564 -0.368885 0
M  V30 4106 H 421.861 1.23205 -1.51018 0
M  V30 4107 H 420.957 2.75892 -1.45912 0
M  V30 4108 N 421.258 1.00505 1.21394 0
M  V30 4109 C 422.221 0.570459 2.21987 0
M  V30 4110 C 423.221 -0.353211 1.56873 0
M  V30 4111 O 424.411 -0.14349 1.73608 0
M  V30 4112 C 421.543 -0.168555 3.40483 0
M  V30 4113 H 422.736 1.46021 2.6195 0
M  V30 4114 H 420.289 0.793565 1.34656 0
M  V30 4115 H 421.024 -1.07374 3.06009 0
M  V30 4116 H 420.809 0.494823 3.88965 0
M  V30 4117 H 422.299 -0.460362 4.15055 0
M  V30 4118 N 422.737 -1.36956 0.779787 0
M  V30 4119 C 423.983 -1.99787 0.348281 0
M  V30 4120 C 424.316 -1.61756 -1.07465 0
M  V30 4121 O 423.591 -0.867639 -1.74075 0
M  V30 4122 C 423.874 -3.56597 0.50104 0
M  V30 4123 C 423.727 -4.04513 1.96697 0
M  V30 4124 C 425.046 -4.40008 -0.0898097 0
M  V30 4125 H 422.165 -0.725796 0.128022 0
M  V30 4126 H 424.807 -1.62514 0.984331 0
M  V30 4127 H 422.957 -3.88479 -0.0404347 0
M  V30 4128 H 424.629 -3.83161 2.56876 0
M  V30 4129 H 422.872 -3.56408 2.47297 0
M  V30 4130 H 423.543 -5.1352 2.02486 0
M  V30 4131 H 426.019 -4.14431 0.372293 0
M  V30 4132 H 424.895 -5.4888 0.0471605 0
M  V30 4133 H 425.156 -4.26035 -1.18096 0
M  V30 4134 N 424.215 -0.530993 -1.48385 0
M  V30 4135 C 425.492 0.0671788 -1.95485 0
M  V30 4136 C 425.872 1.51191 -1.47324 0
M  V30 4137 O 425.22 2.17507 -0.700202 0
M  V30 4138 C 425.43 -0.0511206 -3.48963 0
M  V30 4139 C 426.778 0.107632 -4.24464 0
M  V30 4140 O 427.802 0.0226248 -3.56193 0
M  V30 4141 O 426.661 0.285972 -5.45751 0
M  V30 4142 H 423.755 0.0787365 -0.823243 0
M  V30 4143 H 426.301 -0.595662 -1.58902 0
M  V30 4144 H 425.073 -1.05747 -3.7674 0
M  V30 4145 H 424.696 0.650525 -3.92242 0
M  V30 4146 N 425.693 1.55336 -0.266172 0
M  V30 4147 C 426.918 2.04258 0.359661 0
M  V30 4148 C 427.343 1.14359 1.49344 0
M  V30 4149 O 426.701 0.140369 1.80756 0
M  V30 4150 C 426.749 3.50997 0.826635 0
M  V30 4151 O 425.853 3.64204 1.93466 0
M  V30 4152 H 425.194 0.659668 0.075727 0
M  V30 4153 H 427.724 2.00694 -0.39786 0
M  V30 4154 H 427.734 3.9219 1.12477 0
M  V30 4155 H 426.409 4.159 -0.00293032 0
M  V30 4156 H 424.986 3.34913 1.63974 0
M  V30 4157 N 427.171 -0.0066808 1.57599 0
M  V30 4158 C 428.396 -0.707738 1.94951 0
M  V30 4159 C 428.821 -1.66882 0.867868 0
M  V30 4160 O 428.179 -1.80457 -0.17458 0
M  V30 4161 C 428.227 -1.42162 3.31394 0
M  V30 4162 O 427.331 -2.53578 3.25226 0
M  V30 4163 H 426.672 -0.188752 0.636607 0
M  V30 4164 H 429.202 0.0445193 2.04552 0
M  V30 4165 H 429.212 -1.78655 3.66806 0
M  V30 4166 H 427.887 -0.716903 4.09675 0
M  V30 4167 H 426.464 -2.19463 3.01481 0
M  V30 4168 N 428.649 -1.55105 -0.279332 0
M  V30 4169 C 429.597 -1.88333 -1.36505 0
M  V30 4170 C 430.591 -0.759043 -1.51443 0
M  V30 4171 O 431.797 -0.943312 -1.53302 0
M  V30 4172 H 428.172 -0.59766 -0.456406 0
M  V30 4173 H 430.143 -2.79041 -1.05728 0
M  V30 4174 C 428.892 -2.16628 -2.7197 0
M  V30 4175 H 428.215 -3.02624 -2.61264 0
M  V30 4176 H 429.655 -2.43803 -3.46895 0
M  V30 4177 C 428.114 -0.971807 -3.22579 0
M  V30 4178 O 428.644 -0.203228 -4.01186 0
M  V30 4179 N 426.85 -0.771238 -2.80179 0
M  V30 4180 H 426.397 -1.39792 -2.1637 0
M  V30 4181 H 426.355 0.0263667 -3.14389 0
M  V30 4182 N 430.127 0.543554 -1.4793 0
M  V30 4183 C 431.059 1.665 -1.57513 0
M  V30 4184 C 432.072 1.56156 -0.460333 0
M  V30 4185 O 433.261 1.62865 -0.730573 0
M  V30 4186 C 430.361 3.05063 -1.47614 0
M  V30 4187 C 429.534 3.41024 -2.739 0
M  V30 4188 C 428.593 4.58809 -2.57645 0
M  V30 4189 O 427.619 4.62707 -3.31498 0
M  V30 4190 N 428.821 5.56149 -1.66368 0
M  V30 4191 H 431.586 1.5872 -2.5422 0
M  V30 4192 H 429.147 0.730517 -1.44482 0
M  V30 4193 H 431.139 3.81712 -1.34455 0
M  V30 4194 H 429.709 3.06994 -0.589359 0
M  V30 4195 H 428.929 2.53687 -3.01723 0
M  V30 4196 H 430.217 3.61831 -3.57709 0
M  V30 4197 H 429.615 5.55767 -1.05543 0
M  V30 4198 H 428.172 6.32071 -1.59154 0
M  V30 4199 N 431.605 1.3629 0.791371 0
M  V30 4200 C 433.021 1.16661 1.08914 0
M  V30 4201 C 433.221 -0.0106266 2.01497 0
M  V30 4202 O 432.277 -0.676596 2.43266 0
M  V30 4203 C 433.59 2.47656 1.70549 0
M  V30 4204 C 435.138 2.54002 1.82899 0
M  V30 4205 C 435.613 3.85078 2.47949 0
M  V30 4206 N 437.104 3.86413 2.5542 0
M  V30 4207 C 437.839 4.84572 3.06557 0
M  V30 4208 N 437.335 5.93124 3.58016 0
M  V30 4209 N 439.128 4.71994 3.05251 0
M  V30 4210 H 431.279 2.11668 0.176238 0
M  V30 4211 H 433.542 0.937486 0.140796 0
M  V30 4212 H 433.248 3.34059 1.09989 0
M  V30 4213 H 433.122 2.63319 2.70079 0
M  V30 4214 H 435.509 1.68018 2.42598 0
M  V30 4215 H 435.59 2.42239 0.821808 0
M  V30 4216 H 435.234 4.71467 1.88895 0
M  V30 4217 H 435.164 3.94135 3.49235 0
M  V30 4218 H 437.655 3.07988 2.18979 0
M  V30 4219 H 437.968 6.63999 3.95381 0
M  V30 4220 H 436.313 5.96796 3.56173 0
M  V30 4221 H 439.504 3.86321 2.64336 0
M  V30 4222 H 439.677 5.48653 3.44796 0
M  V30 4223 N 433.083 -1.0153 1.20538 0
M  V30 4224 C 434.046 -2.0826 0.957098 0
M  V30 4225 C 435.046 -1.60657 -0.0678655 0
M  V30 4226 O 436.236 -1.73385 0.168332 0
M  V30 4227 C 433.368 -3.38033 0.441188 0
M  V30 4228 H 434.561 -2.31719 1.90384 0
M  V30 4229 H 432.114 -1.1835 1.02093 0
M  V30 4230 H 432.849 -3.20249 -0.510961 0
M  V30 4231 H 432.634 -3.73911 1.18038 0
M  V30 4232 H 434.124 -4.16613 0.287009 0
M  V30 4233 N 434.561 -1.01147 -1.20859 0
M  V30 4234 C 435.786 -0.716698 -1.94623 0
M  V30 4235 C 436.211 0.715415 -1.73964 0
M  V30 4236 O 435.569 1.49157 -1.03062 0
M  V30 4237 C 435.617 -1.0513 -3.44935 0
M  V30 4238 O 434.721 -0.160131 -4.12089 0
M  V30 4239 H 434.062 -0.266404 -0.608214 0
M  V30 4240 H 436.592 -1.35346 -1.53436 0
M  V30 4241 H 436.602 -1.00086 -3.95533 0
M  V30 4242 H 435.277 -2.09475 -3.59295 0
M  V30 4243 H 433.854 -0.267657 -3.71938 0
M  V30 4244 N 436.039 1.36541 -0.78704 0
M  V30 4245 C 437.286 1.99304 -0.358341 0
M  V30 4246 C 437.614 1.62467 1.06933 0
M  V30 4247 O 436.869 0.870019 1.75297 0
M  V30 4248 C 437.168 3.54343 -0.466485 0
M  V30 4249 C 436.834 4.10993 -1.85461 0
M  V30 4250 C 435.496 4.26177 -2.23443 0
M  V30 4251 C 437.848 4.41895 -2.76366 0
M  V30 4252 C 435.176 4.69573 -3.51736 0
M  V30 4253 C 437.528 4.86722 -4.04084 0
M  V30 4254 C 436.192 5.00112 -4.42091 0
M  V30 4255 H 435.462 0.729306 -0.131126 0
M  V30 4256 H 438.109 1.63068 -1.00404 0
M  V30 4257 H 436.414 3.90918 0.262719 0
M  V30 4258 H 438.111 4.00833 -0.115854 0
M  V30 4259 H 434.701 3.99612 -1.54946 0
M  V30 4260 H 438.885 4.29735 -2.48277 0
M  V30 4261 H 434.141 4.78127 -3.81057 0
M  V30 4262 H 438.315 5.09598 -4.7464 0
M  V30 4263 H 435.942 5.33498 -5.41557 0
M  V30 4264 N 437.518 0.538854 1.48102 0
M  V30 4265 C 438.743 0.0102694 2.07397 0
M  V30 4266 C 439.168 -1.26562 1.39153 0
M  V30 4267 O 438.526 -1.75357 0.460387 0
M  V30 4268 C 438.574 -0.187602 3.60112 0
M  V30 4269 O 437.678 -1.25432 3.92862 0
M  V30 4270 H 437.019 0.0430975 0.6626 0
M  V30 4271 H 439.549 0.749301 1.90385 0
M  V30 4272 H 439.559 -0.407517 4.0596 0
M  V30 4273 H 438.234 0.744386 4.09184 0
M  V30 4274 H 436.811 -1.01636 3.58782 0
M  V30 4275 N 438.996 -1.55193 0.274407 0
M  V30 4276 C 440.221 -2.04446 -0.348824 0
M  V30 4277 C 440.646 -1.15149 -1.48735 0
M  V30 4278 O 440.004 -0.149952 -1.80679 0
M  V30 4279 C 440.052 -3.51431 -0.808009 0
M  V30 4280 O 439.156 -3.65225 -1.91531 0
M  V30 4281 H 438.497 -0.66006 -0.0722276 0
M  V30 4282 H 441.027 -2.00481 0.408498 0
M  V30 4283 H 441.037 -3.92781 -1.10395 0
M  V30 4284 H 439.712 -4.15892 0.0249865 0
M  V30 4285 H 438.289 -3.35778 -1.62196 0
M  V30 4286 N 440.474 -0.00167713 -1.576 0
M  V30 4287 C 441.72 0.683832 -1.90923 0
M  V30 4288 C 442.053 1.7333 -0.875799 0
M  V30 4289 O 441.328 1.94215 0.10525 0
M  V30 4290 C 441.611 1.32543 -3.3482 0
M  V30 4291 C 441.464 0.287387 -4.48881 0
M  V30 4292 C 442.783 2.25114 -3.78169 0
M  V30 4293 H 439.902 0.247125 -0.694333 0
M  V30 4294 H 442.544 -0.0533149 -1.89925 0
M  V30 4295 H 440.694 1.95372 -3.35801 0
M  V30 4296 H 442.366 -0.341346 -4.60035 0
M  V30 4297 H 440.609 -0.39017 -4.32042 0
M  V30 4298 H 441.28 0.775393 -5.46527 0
M  V30 4299 H 443.756 1.723 -3.7875 0
M  V30 4300 H 442.632 2.66971 -4.79602 0
M  V30 4301 H 442.893 3.13092 -3.12131 0
M  V30 4302 N 441.952 1.55251 0.271103 0
M  V30 4303 C 443.2 1.75599 1.00047 0
M  V30 4304 C 443.521 0.561188 1.8675 0
M  V30 4305 O 442.791 -0.423846 1.9126 0
M  V30 4306 H 441.371 0.647562 0.372387 0
M  V30 4307 H 444.033 1.92656 0.294876 0
M  V30 4308 H 443.129 2.65766 1.6363 0
M  V30 4309 N 443.43 -0.535701 1.48216 0
M  V30 4310 C 444.841 -1.11769 1.49548 0
M  V30 4311 C 445.192 -1.94442 0.26207 0
M  V30 4312 O 444.317 -2.06987 -0.631287 0
M  V30 4313 C 444.912 -2.03367 2.70975 0
M  V30 4314 C 443.471 -2.56795 2.75196 0
M  V30 4315 C 442.618 -1.33631 2.42977 0
M  V30 4316 H 445.569 -0.321232 1.55415 0
M  V30 4317 H 445.59 -2.87569 2.49167 0
M  V30 4318 H 445.102 -1.43169 3.60727 0
M  V30 4319 H 443.203 -3.20731 1.89638 0
M  V30 4320 H 443.316 -2.9632 3.76472 0
M  V30 4321 H 441.68 -1.6502 1.94012 0
M  V30 4322 H 442.463 -0.75194 3.34964 0
M  V30 4323 N 444.908 -1.36708 -0.784132 0
M  V30 4324 C 445.818 -1.3363 -1.92822 0
M  V30 4325 C 446.834 -0.237686 -1.72369 0
M  V30 4326 O 448.01 -0.470962 -1.95816 0
M  V30 4327 C 445.075 -1.13011 -3.27764 0
M  V30 4328 C 444.136 -2.32397 -3.60957 0
M  V30 4329 C 443.369 -2.12752 -4.89461 0
M  V30 4330 O 443.592 -1.10541 -5.59586 0
M  V30 4331 O 442.526 -3.00653 -5.21432 0
M  V30 4332 H 446.352 -2.29964 -1.98369 0
M  V30 4333 H 443.937 -1.1731 -0.925136 0
M  V30 4334 H 445.819 -1.03451 -4.08504 0
M  V30 4335 H 444.494 -0.19743 -3.23097 0
M  V30 4336 H 443.401 -2.47527 -2.80502 0
M  V30 4337 H 444.734 -3.2419 -3.70354 0
M  V30 4338 N 446.386 1.0089 -1.21074 0
M  V30 4339 C 447.316 2.1145 -0.990523 0
M  V30 4340 C 448.297 1.69897 0.0831699 0
M  V30 4341 O 449.482 1.94052 -0.0758853 0
M  V30 4342 C 446.612 3.42914 -0.550177 0
M  V30 4343 C 445.566 3.98244 -1.56799 0
M  V30 4344 C 444.892 5.25568 -0.984013 0
M  V30 4345 C 446.192 4.30752 -2.95381 0
M  V30 4346 H 447.886 2.3013 -1.91521 0
M  V30 4347 H 445.432 1.10592 -0.92225 0
M  V30 4348 H 447.385 4.19653 -0.383305 0
M  V30 4349 H 446.109 3.24014 0.41015 0
M  V30 4350 H 444.768 3.23621 -1.72236 0
M  V30 4351 H 444.416 5.02998 -0.0155216 0
M  V30 4352 H 444.116 5.63551 -1.66384 0
M  V30 4353 H 445.64 6.04955 -0.828378 0
M  V30 4354 H 447.054 4.98349 -2.8341 0
M  V30 4355 H 445.451 4.79869 -3.60341 0
M  V30 4356 H 446.521 3.39192 -3.46521 0
M  V30 4357 N 447.864 1.01787 1.20321 0
M  V30 4358 C 449.141 0.622978 1.85414 0
M  V30 4359 C 449.521 -0.898887 1.91006 0
M  V30 4360 O 448.869 -1.79112 1.41884 0
M  V30 4361 C 449.079 1.27226 3.24984 0
M  V30 4362 C 450.427 1.3885 4.01255 0
M  V30 4363 O 451.451 1.22857 3.34342 0
M  V30 4364 O 450.31 1.64705 5.2109 0
M  V30 4365 H 447.404 0.215116 0.798533 0
M  V30 4366 H 449.95 1.11533 1.27901 0
M  V30 4367 H 448.722 2.31209 3.15687 0
M  V30 4368 H 448.345 0.767069 3.90131 0
M  V30 4369 N 449.342 -1.36122 0.79427 0
M  V30 4370 C 450.588 -1.99406 0.369452 0
M  V30 4371 C 450.921 -1.62886 -1.05743 0
M  V30 4372 O 450.196 -0.886053 -1.73145 0
M  V30 4373 C 450.479 -3.56046 0.538833 0
M  V30 4374 C 450.332 -4.02404 2.00976 0
M  V30 4375 C 451.651 -4.40079 -0.0431359 0
M  V30 4376 H 448.77 -0.724397 0.135712 0
M  V30 4377 H 451.412 -1.61461 1.00151 0
M  V30 4378 H 449.562 -3.885 0.000771004 0
M  V30 4379 H 451.234 -3.80415 2.60926 0
M  V30 4380 H 449.477 -3.53765 2.51063 0
M  V30 4381 H 450.148 -5.11344 2.07922 0
M  V30 4382 H 452.624 -4.14013 0.416228 0
M  V30 4383 H 451.5 -5.48799 0.105374 0
M  V30 4384 H 451.761 -4.27264 -1.13571 0
M  V30 4385 N 450.82 -0.546701 -1.47814 0
M  V30 4386 C 451.753 0.254472 -2.26777 0
M  V30 4387 C 452.731 0.929809 -1.33392 0
M  V30 4388 O 453.915 0.950889 -1.62759 0
M  V30 4389 C 451.042 1.36171 -3.10121 0
M  V30 4390 C 450.088 0.796038 -4.19005 0
M  V30 4391 S 450.921 -0.349191 -5.3436 0
M  V30 4392 C 452.077 0.760122 -6.21267 0
M  V30 4393 H 452.31 -0.415612 -2.94381 0
M  V30 4394 H 449.843 -0.332809 -1.5077 0
M  V30 4395 H 451.801 1.99588 -3.58713 0
M  V30 4396 H 450.462 2.00359 -2.41899 0
M  V30 4397 H 449.655 1.62719 -4.7701 0
M  V30 4398 H 449.257 0.238246 -3.7324 0
M  V30 4399 H 451.549 1.65479 -6.5698 0
M  V30 4400 H 452.492 0.217673 -7.07765 0
M  V30 4401 H 452.9 1.04806 -5.54685 0
M  V30 4402 N 452.299 1.55045 -0.282633 0
M  V30 4403 C 453.262 2.21515 0.588539 0
M  V30 4404 C 454.262 1.19535 1.07554 0
M  V30 4405 O 455.452 1.44391 0.974514 0
M  V30 4406 C 452.584 2.88704 1.8128 0
M  V30 4407 H 453.777 2.99899 0.00806397 0
M  V30 4408 H 451.33 1.56265 -0.0333067 0
M  V30 4409 H 452.065 2.14352 2.43359 0
M  V30 4410 H 451.85 3.63443 1.47144 0
M  V30 4411 H 453.34 3.39465 2.43214 0
M  V30 4412 N 453.777 0.010035 1.57597 0
M  V30 4413 C 455.188 -0.531426 1.78977 0
M  V30 4414 C 455.539 -1.73375 0.918454 0
M  V30 4415 O 454.664 -2.16047 0.123635 0
M  V30 4416 C 455.259 -0.97086 3.24592 0
M  V30 4417 C 453.818 -1.45756 3.47033 0
M  V30 4418 C 452.965 -0.413384 2.74201 0
M  V30 4419 H 455.916 0.236166 1.56933 0
M  V30 4420 H 455.937 -1.83633 3.33255 0
M  V30 4421 H 455.449 -0.0955893 3.87982 0
M  V30 4422 H 453.55 -2.35339 2.88871 0
M  V30 4423 H 453.663 -1.4781 4.55729 0
M  V30 4424 H 452.027 -0.877266 2.39115 0
M  V30 4425 H 452.81 0.453092 3.40297 0
M  V30 4426 N 455.255 -1.55392 -0.262866 0
M  V30 4427 C 456.503 -1.76127 -0.991147 0
M  V30 4428 C 456.824 -0.571083 -1.8645 0
M  V30 4429 O 456.094 0.413698 -1.91482 0
M  V30 4430 H 454.674 -0.649528 -0.368948 0
M  V30 4431 H 457.336 -1.9281 -0.284655 0
M  V30 4432 H 456.432 -2.6663 -1.62219 0
M  V30 4433 N 456.733 0.527833 -1.48498 0
M  V30 4434 C 457.979 1.28545 -1.56857 0
M  V30 4435 C 458.312 1.92678 -0.242651 0
M  V30 4436 O 457.587 1.79394 0.751545 0
M  V30 4437 C 457.87 2.37314 -2.70839 0
M  V30 4438 C 457.723 1.77858 -4.13142 0
M  V30 4439 C 459.042 3.39068 -2.80573 0
M  V30 4440 H 456.161 0.466006 -0.570971 0
M  V30 4441 H 458.803 0.587784 -1.8068 0
M  V30 4442 H 456.953 2.96821 -2.50658 0
M  V30 4443 H 458.625 1.22385 -4.44769 0
M  V30 4444 H 456.868 1.08383 -4.20042 0
M  V30 4445 H 457.539 2.56624 -4.88721 0
M  V30 4446 H 460.015 2.89518 -2.98862 0
M  V30 4447 H 458.891 4.12566 -3.6205 0
M  V30 4448 H 459.152 3.9975 -1.88818 0
M  V30 4449 N 458.211 1.37122 0.776871 0
M  V30 4450 C 459.436 1.354 1.57104 0
M  V30 4451 C 459.861 -0.0595562 1.88006 0
M  V30 4452 O 459.219 -1.03514 1.48844 0
M  V30 4453 C 459.267 2.19472 2.8612 0
M  V30 4454 O 458.371 1.59582 3.80273 0
M  V30 4455 H 457.712 0.462869 0.476076 0
M  V30 4456 H 460.242 1.80577 0.961932 0
M  V30 4457 H 460.252 2.32502 3.35271 0
M  V30 4458 H 458.927 3.22222 2.62956 0
M  V30 4459 H 457.504 1.55564 3.38902 0
M  V30 4460 N 459.689 -1.00246 1.21608 0
M  V30 4461 C 460.938 -1.73476 1.02902 0
M  V30 4462 C 461.251 -1.90643 -0.437561 0
M  V30 4463 O 462.457 -2.61105 -0.74407 0
M  V30 4464 C 460.913 -3.12079 1.79261 0
M  V30 4465 C 460.521 -3.02877 3.30106 0
M  V30 4466 C 462.265 -3.89421 1.68972 0
M  V30 4467 C 460.172 -4.36575 3.98944 0
M  V30 4468 H 459.102 -0.650408 0.381425 0
M  V30 4469 H 461.753 -1.11985 1.45367 0
M  V30 4470 H 460.135 -3.74196 1.2959 0
M  V30 4471 H 461.309 -2.49983 3.87098 0
M  V30 4472 H 459.624 -2.39022 3.40965 0
M  V30 4473 H 462.221 -4.88362 2.17731 0
M  V30 4474 H 462.564 -4.1122 0.648397 0
M  V30 4475 H 463.097 -3.33963 2.16133 0
M  V30 4476 H 459.836 -4.19978 5.03288 0
M  V30 4477 H 459.356 -4.8942 3.4674 0
M  V30 4478 H 461.035 -5.05364 4.04 0
M  V30 4479 N 461.167 -1.02423 -1.1978 0
M  V30 4480 C 462.099 -0.559152 -2.22275 0
M  V30 4481 C 463.112 0.36251 -1.58713 0
M  V30 4482 O 464.301 0.159641 -1.77785 0
M  V30 4483 C 461.401 0.205094 -3.38279 0
M  V30 4484 C 460.574 -0.720361 -4.31427 0
M  V30 4485 C 459.633 -0.00234368 -5.262 0
M  V30 4486 O 458.659 -0.627378 -5.65732 0
M  V30 4487 N 459.861 1.26996 -5.66438 0
M  V30 4488 H 462.626 -1.44064 -2.62804 0
M  V30 4489 H 460.187 -0.902692 -1.34399 0
M  V30 4490 H 462.179 0.694868 -3.9869 0
M  V30 4491 H 460.749 0.987947 -2.96578 0
M  V30 4492 H 459.969 -1.39031 -3.68869 0
M  V30 4493 H 461.257 -1.3495 -4.90577 0
M  V30 4494 H 460.655 1.79858 -5.36347 0
M  V30 4495 H 459.212 1.70432 -6.29123 0
M  V30 4496 N 462.645 1.35699 -0.801477 0
M  V30 4497 C 463.87 2.03687 -0.390678 0
M  V30 4498 C 464.295 1.60015 0.988778 0
M  V30 4499 O 463.653 0.774357 1.63931 0
M  V30 4500 C 463.701 3.57439 -0.476404 0
M  V30 4501 O 462.805 4.09208 0.512106 0
M  V30 4502 H 462.146 0.64344 -0.163956 0
M  V30 4503 H 464.676 1.73403 -1.08594 0
M  V30 4504 H 464.686 4.06544 -0.344357 0
M  V30 4505 H 463.361 3.88576 -1.48262 0
M  V30 4506 H 461.938 3.7134 0.340721 0
M  V30 4507 N 464.123 0.554532 1.47522 0
M  V30 4508 C 465.351 0.034257 2.06872 0
M  V30 4509 C 465.766 -1.25826 1.40759 0
M  V30 4510 O 465.123 -1.75425 0.503217 0
M  V30 4511 C 465.174 -0.167827 3.6111 0
M  V30 4512 O 464.895 1.07351 4.24744 0
M  V30 4513 C 466.396 -0.72569 4.3732 0
M  V30 4514 H 463.616 0.0446275 0.669514 0
M  V30 4515 H 466.16 0.767181 1.89564 0
M  V30 4516 H 464.315 -0.850872 3.7794 0
M  V30 4517 H 464.729 0.869563 5.17242 0
M  V30 4518 H 466.203 -0.816394 5.45929 0
M  V30 4519 H 466.68 -1.73635 4.0342 0
M  V30 4520 H 467.286 -0.0784292 4.25228 0
M  V30 4521 N 465.601 -1.54893 0.290851 0
M  V30 4522 C 466.531 -2.26103 -0.583084 0
M  V30 4523 C 467.512 -1.25684 -1.14619 0
M  V30 4524 O 468.697 -1.54436 -1.17741 0
M  V30 4525 C 465.827 -2.99409 -1.75987 0
M  V30 4526 C 464.781 -4.0689 -1.32758 0
M  V30 4527 C 464.107 -4.67856 -2.58872 0
M  V30 4528 C 465.407 -5.20215 -0.46624 0
M  V30 4529 H 467.101 -2.99398 0.0108214 0
M  V30 4530 H 464.647 -1.43998 0.00664468 0
M  V30 4531 H 466.6 -3.47943 -2.37727 0
M  V30 4532 H 465.324 -2.23675 -2.37985 0
M  V30 4533 H 463.983 -3.59191 -0.733299 0
M  V30 4534 H 463.631 -3.88772 -3.19163 0
M  V30 4535 H 463.331 -5.40438 -2.30653 0
M  V30 4536 H 464.855 -5.19147 -3.21433 0
M  V30 4537 H 466.269 -5.64704 -0.989047 0
M  V30 4538 H 464.666 -5.99455 -0.27826 0
M  V30 4539 H 465.736 -4.82198 0.511173 0
M  V30 4540 N 467.08 -0.0183926 -1.57589 0
M  V30 4541 C 468.491 0.521927 -1.79256 0
M  V30 4542 C 468.842 1.72885 -0.927636 0
M  V30 4543 O 467.967 2.15978 -0.135091 0
M  V30 4544 C 468.562 0.953632 -3.25102 0
M  V30 4545 C 467.121 1.43913 -3.47801 0
M  V30 4546 C 466.268 0.398837 -2.74417 0
M  V30 4547 H 469.219 -0.244485 -1.56805 0
M  V30 4548 H 469.24 1.81863 -3.34224 0
M  V30 4549 H 468.752 0.0750123 -3.88028 0
M  V30 4550 H 466.853 2.33804 -2.90115 0
M  V30 4551 H 466.966 1.45391 -4.56507 0
M  V30 4552 H 465.33 0.864572 -2.39577 0
M  V30 4553 H 466.113 -0.471132 -3.40052 0
M  V30 4554 N 468.558 1.5553 0.254621 0
M  V30 4555 C 469.806 1.7665 0.981793 0
M  V30 4556 C 470.127 0.580963 1.86145 0
M  V30 4557 O 469.397 -0.403537 1.91699 0
M  V30 4558 H 467.977 0.651475 0.365498 0
M  V30 4559 H 470.639 1.92958 0.274426 0
M  V30 4560 H 469.735 2.67486 1.60802 0
M  V30 4561 N 470.036 -0.519951 1.48776 0
M  V30 4562 C 470.984 -1.64443 1.64503 0
M  V30 4563 C 471.978 -1.61501 0.511248 0
M  V30 4564 O 473.184 -1.66238 0.690294 0
M  V30 4565 H 469.559 -0.544776 0.518385 0
M  V30 4566 H 471.53 -1.48325 2.58925 0
M  V30 4567 C 470.279 -3.02673 1.71127 0
M  V30 4568 H 469.602 -3.05635 2.57735 0
M  V30 4569 H 471.042 -3.80941 1.86172 0
M  V30 4570 C 469.501 -3.33854 0.452032 0
M  V30 4571 O 470.031 -3.99385 -0.430678 0
M  V30 4572 N 468.237 -2.88825 0.32069 0
M  V30 4573 H 467.784 -2.35674 1.03998 0
M  V30 4574 H 467.742 -3.10056 -0.520814 0
M  V30 4575 N 471.514 -1.37532 -0.769588 0
M  V30 4576 C 472.461 -1.3347 -1.88293 0
M  V30 4577 C 473.431 -0.199891 -1.64893 0
M  V30 4578 O 474.616 -0.389594 -1.8678 0
M  V30 4579 C 471.756 -1.14968 -3.25387 0
M  V30 4580 C 470.869 -2.37698 -3.60727 0
M  V30 4581 C 470.004 -2.12051 -4.8704 0
M  V30 4582 C 469.043 -3.30636 -5.15117 0
M  V30 4583 N 468.18 -3.04527 -6.3262 0
M  V30 4584 H 473.02 -2.28658 -1.911 0
M  V30 4585 H 470.557 -1.13622 -0.934257 0
M  V30 4586 H 472.515 -1.02261 -4.04473 0
M  V30 4587 H 471.145 -0.234263 -3.21949 0
M  V30 4588 H 470.197 -2.61137 -2.76608 0
M  V30 4589 H 471.509 -3.26131 -3.77413 0
M  V30 4590 H 470.663 -1.96388 -5.74035 0
M  V30 4591 H 469.402 -1.20959 -4.72462 0
M  V30 4592 H 468.407 -3.46836 -4.26597 0
M  V30 4593 H 469.632 -4.22582 -5.31603 0
M  V30 4594 H 467.578 -2.16067 -6.19396 0
M  V30 4595 H 467.495 -3.86503 -6.49732 0
M  V30 4596 H 468.763 -2.92485 -7.22546 0
M  V30 4597 N 472.992 0.995999 -1.22138 0
M  V30 4598 C 474.222 1.76809 -1.06874 0
M  V30 4599 C 474.63 1.85265 0.383866 0
M  V30 4600 O 473.973 1.31969 1.27789 0
M  V30 4601 C 474.035 3.2186 -1.60144 0
M  V30 4602 C 473.699 3.36958 -3.0872 0
M  V30 4603 C 474.696 3.2452 -4.0618 0
M  V30 4604 C 472.381 3.62109 -3.48112 0
M  V30 4605 C 474.375 3.37013 -5.41019 0
M  V30 4606 C 472.062 3.74243 -4.831 0
M  V30 4607 C 473.06 3.61702 -5.79362 0
M  V30 4608 O 472.748 3.73436 -7.119 0
M  V30 4609 H 472.48 0.562207 -0.375365 0
M  V30 4610 H 475.034 1.26113 -1.62125 0
M  V30 4611 H 473.264 3.73734 -0.992981 0
M  V30 4612 H 474.953 3.80775 -1.40589 0
M  V30 4613 H 475.719 3.05004 -3.77091 0
M  V30 4614 H 471.598 3.70949 -2.73712 0
M  V30 4615 H 475.142 3.27141 -6.16137 0
M  V30 4616 H 471.039 3.93266 -5.11872 0
M  V30 4617 H 471.807 3.90328 -7.19435 0
M  V30 4618 N 474.47 1.03057 1.19235 0
M  V30 4619 C 475.718 0.726581 1.88587 0
M  V30 4620 C 476.039 -0.747227 1.80115 0
M  V30 4621 O 475.309 -1.53849 1.21274 0
M  V30 4622 H 473.889 0.265768 0.698124 0
M  V30 4623 H 476.551 1.30516 1.44746 0
M  V30 4624 H 475.647 1.0224 2.94879 0
M  V30 4625 N 475.948 -1.35272 0.808662 0
M  V30 4626 C 476.911 -2.28082 0.226093 0
M  V30 4627 C 477.911 -1.49673 -0.587762 0
M  V30 4628 O 479.101 -1.69404 -0.405943 0
M  V30 4629 C 476.233 -3.33955 -0.684596 0
M  V30 4630 H 477.426 -2.81116 1.04469 0
M  V30 4631 H 474.979 -1.45162 0.579466 0
M  V30 4632 H 475.714 -2.86111 -1.5268 0
M  V30 4633 H 475.499 -3.91965 -0.102699 0
M  V30 4634 H 476.989 -4.03219 -1.08646 0
M  V30 4635 N 477.426 -0.562348 -1.47226 0
M  V30 4636 C 478.656 -0.0451619 -2.06551 0
M  V30 4637 C 479.064 1.25626 -1.41473 0
M  V30 4638 O 478.407 1.76563 -0.507061 0
M  V30 4639 C 478.469 0.216068 -3.5885 0
M  V30 4640 C 478.133 -0.996691 -4.45999 0
M  V30 4641 C 479.13 -1.90358 -4.83797 0
M  V30 4642 C 476.815 -1.21281 -4.87438 0
M  V30 4643 C 478.809 -3.01023 -5.6184 0
M  V30 4644 C 476.496 -2.32255 -5.65244 0
M  V30 4645 C 477.494 -3.21956 -6.02356 0
M  V30 4646 O 477.182 -4.31005 -6.78594 0
M  V30 4647 H 476.914 -0.0451646 -0.67449 0
M  V30 4648 H 479.468 -0.776842 -1.90143 0
M  V30 4649 H 477.698 1.00212 -3.7349 0
M  V30 4650 H 479.387 0.679264 -4.00176 0
M  V30 4651 H 480.153 -1.74868 -4.52378 0
M  V30 4652 H 476.032 -0.523767 -4.58015 0
M  V30 4653 H 479.576 -3.71064 -5.90726 0
M  V30 4654 H 475.473 -2.47715 -5.96077 0
M  V30 4655 H 476.241 -4.29118 -6.96994 0
M  V30 4656 N 478.904 1.54736 -0.299062 0
M  V30 4657 C 479.852 2.24897 0.593658 0
M  V30 4658 C 480.846 1.25429 1.13859 0
M  V30 4659 O 482.052 1.43286 1.08945 0
M  V30 4660 H 478.427 0.72207 0.210046 0
M  V30 4661 H 480.398 2.98393 -0.0206421 0
M  V30 4662 C 479.147 3.00159 1.75499 0
M  V30 4663 H 478.47 3.76501 1.34489 0
M  V30 4664 H 479.91 3.52535 2.35574 0
M  V30 4665 C 478.369 2.07015 2.65794 0
M  V30 4666 O 478.899 1.63692 3.66835 0
M  V30 4667 N 477.105 1.73012 2.33485 0
M  V30 4668 H 476.652 2.08439 1.51364 0
M  V30 4669 H 476.61 1.10965 2.94167 0
M  V30 4670 N 480.382 0.0267497 1.57577 0
M  V30 4671 C 481.63 -0.651116 1.91324 0
M  V30 4672 C 481.951 -1.72804 0.90353 0
M  V30 4673 O 481.221 -1.95822 -0.0552946 0
M  V30 4674 H 479.801 -0.243491 0.706202 0
M  V30 4675 H 482.463 0.0739935 1.94759 0
M  V30 4676 H 481.559 -1.10536 2.9187 0
M  V30 4677 N 481.861 -1.55662 -0.24637 0
M  V30 4678 C 483.089 -1.81575 -0.991876 0
M  V30 4679 C 483.504 -0.602545 -1.78927 0
M  V30 4680 O 482.861 0.428795 -1.77391 0
M  V30 4681 C 482.912 -3.05711 -1.92933 0
M  V30 4682 O 482.633 -4.22348 -1.1642 0
M  V30 4683 C 484.134 -3.44428 -2.79078 0
M  V30 4684 H 481.354 -0.604209 -0.291844 0
M  V30 4685 H 483.898 -2.02722 -0.269095 0
M  V30 4686 H 482.053 -2.86612 -2.60638 0
M  V30 4687 H 482.467 -4.92706 -1.79835 0
M  V30 4688 H 483.941 -4.34388 -3.40603 0
M  V30 4689 H 484.418 -2.65037 -3.50217 0
M  V30 4690 H 485.024 -3.65879 -2.16824 0
M  V30 4691 N 483.339 0.512053 -1.4905 0
M  V30 4692 C 484.564 1.2959 -1.6193 0
M  V30 4693 C 484.989 1.85906 -0.286454 0
M  V30 4694 O 484.347 1.65312 0.744426 0
M  V30 4695 C 484.395 2.40987 -2.68249 0
M  V30 4696 O 483.499 3.44531 -2.26654 0
M  V30 4697 H 482.84 0.383053 -0.542371 0
M  V30 4698 H 485.37 0.614231 -1.95162 0
M  V30 4699 H 485.38 2.86913 -2.90078 0
M  V30 4700 H 484.055 1.99361 -3.65004 0
M  V30 4701 H 482.632 3.046 -2.15112 0
M  V30 4702 N 484.817 1.37938 0.762283 0
M  V30 4703 C 485.75 1.2884 1.88349 0
M  V30 4704 C 486.728 0.167084 1.61739 0
M  V30 4705 O 487.912 0.34292 1.85355 0
M  V30 4706 C 485.039 0.994257 3.23778 0
M  V30 4707 C 484.085 2.13376 3.69287 0
M  V30 4708 S 484.918 3.75439 3.81845 0
M  V30 4709 C 486.074 3.48195 5.20107 0
M  V30 4710 H 486.307 2.23736 1.95779 0
M  V30 4711 H 483.84 1.23672 0.924368 0
M  V30 4712 H 485.798 0.83138 4.01993 0
M  V30 4713 H 484.459 0.0626251 3.14038 0
M  V30 4714 H 483.652 1.88319 4.67495 0
M  V30 4715 H 483.254 2.25726 2.98201 0
M  V30 4716 H 485.546 3.0377 6.05583 0
M  V30 4717 H 486.489 4.45765 5.50181 0
M  V30 4718 H 486.897 2.82905 4.88493 0
M  V30 4719 N 486.295 -0.989507 1.22664 0
M  V30 4720 C 487.258 -2.06183 1.00106 0
M  V30 4721 C 488.258 -1.60765 -0.0337726 0
M  V30 4722 O 489.448 -1.72989 0.205072 0
M  V30 4723 C 486.58 -3.37021 0.51279 0
M  V30 4724 H 487.773 -2.27629 1.95256 0
M  V30 4725 H 485.326 -1.16158 1.0458 0
M  V30 4726 H 486.061 -3.21261 -0.442917 0
M  V30 4727 H 485.846 -3.71323 1.25942 0
M  V30 4728 H 487.336 -4.1591 0.375315 0
M  V30 4729 N 487.773 -1.03688 -1.18687 0
M  V30 4730 C 488.998 -0.757819 -1.93059 0
M  V30 4731 C 489.423 0.678353 -1.75442 0
M  V30 4732 O 488.781 1.46938 -1.06203 0
M  V30 4733 C 488.829 -1.12423 -3.42627 0
M  V30 4734 O 487.933 -0.247505 -4.11657 0
M  V30 4735 H 487.274 -0.279245 -0.602427 0
M  V30 4736 H 489.804 -1.3857 -1.5053 0
M  V30 4737 H 489.814 -1.08454 -3.93322 0
M  V30 4738 H 488.489 -2.17049 -3.54771 0
M  V30 4739 H 487.066 -0.34649 -3.71287 0
M  V30 4740 N 489.251 1.34841 -0.815825 0
M  V30 4741 C 490.662 1.80937 -0.46029 0
M  V30 4742 C 491.013 1.67685 1.01863 0
M  V30 4743 O 490.138 1.21277 1.79223 0
M  V30 4744 C 490.733 3.28509 -0.828708 0
M  V30 4745 C 489.292 3.72712 -0.525644 0
M  V30 4746 C 488.439 2.56676 -1.04941 0
M  V30 4747 H 491.39 1.22688 -1.00664 0
M  V30 4748 H 491.411 3.80279 -0.129757 0
M  V30 4749 H 490.923 3.38122 -1.90513 0
M  V30 4750 H 489.024 3.68642 0.541666 0
M  V30 4751 H 489.137 4.67119 -1.06474 0
M  V30 4752 H 487.501 2.50302 -0.471286 0
M  V30 4753 H 488.284 2.69063 -2.13214 0
M  V30 4754 N 490.729 0.570148 1.46925 0
M  V30 4755 C 491.679 -0.190921 2.27199 0
M  V30 4756 C 492.663 -0.873457 1.35128 0
M  V30 4757 O 493.855 -0.769627 1.59392 0
M  V30 4758 C 490.984 -1.21204 3.21192 0
M  V30 4759 C 490.07 -0.532261 4.20747 0
M  V30 4760 N 490.461 0.405038 5.04176 0
M  V30 4761 C 488.759 -0.784582 4.39045 0
M  V30 4762 C 489.46 0.801149 5.76157 0
M  V30 4763 N 488.436 0.153082 5.43384 0
M  V30 4764 H 492.238 0.529535 2.8909 0
M  V30 4765 H 489.752 0.391019 1.57622 0
M  V30 4766 H 491.749 -1.77135 3.77398 0
M  V30 4767 H 490.409 -1.93345 2.6086 0
M  V30 4768 H 491.42 0.779903 5.11994 0
M  V30 4769 H 488.097 -1.49352 3.89872 0
M  V30 4770 H 489.487 1.57208 6.5325 0
M  V30 4771 N 492.207 -1.54576 0.307264 0
M  V30 4772 C 493.453 -2.0056 -0.300612 0
M  V30 4773 C 493.786 -1.1953 -1.53057 0
M  V30 4774 O 493.061 -0.27337 -1.92569 0
M  V30 4775 C 493.344 -3.54167 -0.650987 0
M  V30 4776 C 493.197 -4.45933 0.588539 0
M  V30 4777 C 494.516 -4.14645 -1.47506 0
M  V30 4778 H 491.635 -0.729075 -0.107788 0
M  V30 4779 H 494.277 -1.85286 0.420606 0
M  V30 4780 H 492.427 -3.67313 -1.26544 0
M  V30 4781 H 494.099 -4.44683 1.22697 0
M  V30 4782 H 492.342 -4.16274 1.22058 0
M  V30 4783 H 493.013 -5.51189 0.299153 0
M  V30 4784 H 495.489 -4.04973 -0.955821 0
M  V30 4785 H 494.365 -5.22269 -1.68899 0
M  V30 4786 H 494.626 -3.66921 -2.4662 0
M  V30 4787 N 493.685 -0.035106 -1.57561 0
M  V30 4788 C 494.648 0.929819 -2.09492 0
M  V30 4789 C 495.648 1.25026 -1.01119 0
M  V30 4790 O 496.838 1.18961 -1.27255 0
M  V30 4791 C 493.97 2.24457 -2.56577 0
M  V30 4792 H 495.163 0.479935 -2.96035 0
M  V30 4793 H 492.716 0.213033 -1.54841 0
M  V30 4794 H 493.451 2.74061 -1.73382 0
M  V30 4795 H 493.236 2.02508 -3.35757 0
M  V30 4796 H 494.726 2.93607 -2.96959 0
M  V30 4797 N 495.163 1.55791 0.238111 0
M  V30 4798 C 496.411 1.77681 0.963001 0
M  V30 4799 C 496.732 0.600674 1.85518 0
M  V30 4800 O 496.002 -0.383182 1.92116 0
M  V30 4801 H 494.582 0.655315 0.358568 0
M  V30 4802 H 497.244 1.93239 0.253945 0
M  V30 4803 H 496.34 2.69177 1.57956 0
M  V30 4804 N 496.642 -0.504142 1.49319 0
M  V30 4805 C 497.605 -1.5883 1.65244 0
M  V30 4806 C 498.605 -1.52009 0.524386 0
M  V30 4807 O 499.795 -1.55218 0.79077 0
M  V30 4808 C 496.927 -2.98481 1.64687 0
M  V30 4809 H 498.12 -1.4604 2.61939 0
M  V30 4810 H 495.673 -0.728144 1.38303 0
M  V30 4811 H 496.408 -3.16751 0.695644 0
M  V30 4812 H 496.193 -3.0484 2.46607 0
M  V30 4813 H 497.683 -3.77256 1.79075 0
M  V30 4814 N 498.12 -1.38341 -0.754957 0
M  V30 4815 C 499.083 -1.35262 -1.85032 0
M  V30 4816 C 500.083 -0.253393 -1.58791 0
M  V30 4817 O 501.273 -0.510205 -1.66561 0
M  V30 4818 C 498.405 -1.10544 -3.22479 0
M  V30 4819 H 499.598 -2.32712 -1.8917 0
M  V30 4820 H 497.151 -1.23614 -0.956515 0
M  V30 4821 H 497.886 -0.136952 -3.24011 0
M  V30 4822 H 497.671 -1.90127 -3.4292 0
M  V30 4823 H 499.161 -1.11082 -4.02555 0
M  V30 4824 N 499.598 0.982988 -1.23187 0
M  V30 4825 C 500.561 2.05649 -1.01198 0
M  V30 4826 C 501.561 1.6078 0.0252464 0
M  V30 4827 O 502.751 1.72878 -0.214243 0
M  V30 4828 C 499.883 3.36744 -0.530656 0
M  V30 4829 H 501.076 2.2659 -1.96461 0
M  V30 4830 H 498.629 1.15602 -1.05195 0
M  V30 4831 H 499.364 3.21492 0.425873 0
M  V30 4832 H 499.149 3.7065 -1.2791 0
M  V30 4833 H 500.639 4.15705 -0.397366 0
M  V30 4834 N 501.076 1.04316 1.18135 0
M  V30 4835 C 502.006 0.657299 2.24058 0
M  V30 4836 C 502.987 -0.340678 1.66654 0
M  V30 4837 O 504.172 -0.220223 1.92947 0
M  V30 4838 C 501.302 0.0220715 3.47293 0
M  V30 4839 C 500.256 0.943857 4.17463 0
M  V30 4840 C 499.582 0.172973 5.3442 0
M  V30 4841 C 500.882 2.26409 4.70677 0
M  V30 4842 H 502.576 1.5428 2.56589 0
M  V30 4843 H 500.122 0.743263 1.23335 0
M  V30 4844 H 502.075 -0.259607 4.206 0
M  V30 4845 H 500.799 -0.898323 3.14003 0
M  V30 4846 H 499.458 1.20996 3.46057 0
M  V30 4847 H 499.106 -0.749907 4.97379 0
M  V30 4848 H 498.806 0.787098 5.82304 0
M  V30 4849 H 500.33 -0.101628 6.10515 0
M  V30 4850 H 501.744 2.04294 5.35665 0
M  V30 4851 H 500.141 2.8314 5.29105 0
M  V30 4852 H 501.211 2.90883 3.87962 0
M  V30 4853 N 502.554 -1.34406 0.822964 0
M  V30 4854 C 503.803 -1.97542 0.407458 0
M  V30 4855 C 504.116 -1.65973 -1.035 0
M  V30 4856 O 505.322 -2.22598 -1.55442 0
M  V30 4857 C 503.778 -3.53463 0.677623 0
M  V30 4858 C 503.386 -3.93925 2.1337 0
M  V30 4859 C 505.13 -4.23229 0.328284 0
M  V30 4860 C 503.037 -5.42759 2.34876 0
M  V30 4861 H 501.967 -0.739207 0.148623 0
M  V30 4862 H 504.618 -1.53248 1.00932 0
M  V30 4863 H 503 -3.96 0.00558965 0
M  V30 4864 H 504.174 -3.62494 2.8449 0
M  V30 4865 H 502.489 -3.37097 2.44448 0
M  V30 4866 H 505.086 -5.32659 0.466794 0
M  V30 4867 H 505.429 -4.09899 -0.727224 0
M  V30 4868 H 505.962 -3.86169 0.954896 0
M  V30 4869 H 502.701 -5.61075 3.38932 0
M  V30 4870 H 502.221 -5.75704 1.68299 0
M  V30 4871 H 503.9 -6.0944 2.17236 0
M  V30 4872 N 504.032 -0.577932 -1.46621 0
M  V30 4873 C 504.962 0.145917 -2.33044 0
M  V30 4874 C 505.943 0.888412 -1.45056 0
M  V30 4875 O 507.128 0.864812 -1.73881 0
M  V30 4876 C 504.258 1.16322 -3.27241 0
M  V30 4877 C 503.212 0.535868 -4.24632 0
M  V30 4878 C 502.538 1.65929 -5.08303 0
M  V30 4879 C 503.838 -0.523861 -5.19666 0
M  V30 4880 H 505.532 -0.575636 -2.93814 0
M  V30 4881 H 503.078 -0.278272 -1.41286 0
M  V30 4882 H 505.031 1.67793 -3.86553 0
M  V30 4883 H 503.755 1.91498 -2.64567 0
M  V30 4884 H 502.414 0.0422759 -3.66576 0
M  V30 4885 H 502.062 2.40061 -4.42018 0
M  V30 4886 H 501.762 1.2452 -5.74255 0
M  V30 4887 H 503.286 2.17686 -5.70478 0
M  V30 4888 H 504.7 -0.0944059 -5.73222 0
M  V30 4889 H 503.097 -0.858 -5.93935 0
M  V30 4890 H 504.167 -1.41197 -4.63887 0
M  V30 4891 N 505.51 1.54411 -0.315457 0
M  V30 4892 C 506.735 2.05299 0.294496 0
M  V30 4893 C 507.16 1.19052 1.4563 0
M  V30 4894 O 506.518 0.197804 1.80218 0
M  V30 4895 C 506.566 3.5345 0.714549 0
M  V30 4896 O 505.67 3.70175 1.81781 0
M  V30 4897 H 505.011 0.661743 0.0547019 0
M  V30 4898 H 507.541 1.99327 -0.461508 0
M  V30 4899 H 507.551 3.9557 0.999426 0
M  V30 4900 H 506.226 4.1568 -0.135244 0
M  V30 4901 H 504.803 3.3996 1.53236 0
M  V30 4902 N 506.988 0.0434614 1.5754 0
M  V30 4903 C 507.935 -0.93356 2.11077 0
M  V30 4904 C 508.905 -1.31383 1.01626 0
M  V30 4905 O 510.09 -1.40465 1.29129 0
M  V30 4906 C 507.23 -2.20578 2.65404 0
M  V30 4907 C 506.343 -1.88068 3.88914 0
M  V30 4908 C 505.478 -3.09691 4.31584 0
M  V30 4909 C 504.517 -2.73067 5.47815 0
M  V30 4910 N 503.654 -3.87359 5.85574 0
M  V30 4911 H 508.494 -0.470118 2.94268 0
M  V30 4912 H 506.031 -0.220434 1.45439 0
M  V30 4913 H 507.989 -2.95011 2.94999 0
M  V30 4914 H 506.619 -2.64513 1.85021 0
M  V30 4915 H 505.671 -1.03816 3.6596 0
M  V30 4916 H 506.983 -1.57104 4.73413 0
M  V30 4917 H 506.137 -3.92431 4.62691 0
M  V30 4918 H 504.876 -3.43827 3.45882 0
M  V30 4919 H 503.881 -1.88742 5.16388 0
M  V30 4920 H 505.106 -2.40131 6.35227 0
M  V30 4921 H 503.052 -4.21311 5.02825 0
M  V30 4922 H 502.969 -3.60068 6.64746 0
M  V30 4923 H 504.237 -4.70761 6.21292 0
M  V30 4924 N 508.466 -1.55915 -0.229846 0
M  V30 4925 C 509.416 -1.8813 -1.28807 0
M  V30 4926 C 510.4 -0.743621 -1.42685 0
M  V30 4927 O 511.592 -1.00588 -1.4564 0
M  V30 4928 C 508.721 -2.19431 -2.64017 0
M  V30 4929 C 507.807 -3.39569 -2.54074 0
M  V30 4930 N 508.198 -4.58404 -2.13774 0
M  V30 4931 C 506.496 -3.43019 -2.85051 0
M  V30 4932 C 507.197 -5.40557 -2.1488 0
M  V30 4933 N 506.173 -4.80054 -2.55047 0
M  V30 4934 H 509.975 -2.77527 -0.967261 0
M  V30 4935 H 507.489 -1.5637 -0.438433 0
M  V30 4936 H 509.486 -2.40681 -3.40409 0
M  V30 4937 H 508.146 -1.31341 -2.9695 0
M  V30 4938 H 509.157 -4.83716 -1.8504 0
M  V30 4939 H 505.834 -2.65249 -3.22411 0
M  V30 4940 H 507.224 -6.45666 -1.85918 0
M  V30 4941 N 509.944 0.496216 -1.49584 0
M  V30 4942 C 511.355 1.07765 -1.52459 0
M  V30 4943 C 511.706 1.93679 -0.31353 0
M  V30 4944 O 510.831 2.08588 0.576186 0
M  V30 4945 C 511.426 1.96111 -2.76271 0
M  V30 4946 C 509.985 2.49409 -2.81908 0
M  V30 4947 C 509.132 1.27142 -2.46435 0
M  V30 4948 H 512.083 0.279914 -1.56212 0
M  V30 4949 H 512.104 2.80862 -2.56704 0
M  V30 4950 H 511.616 1.33555 -3.64396 0
M  V30 4951 H 509.717 3.1559 -1.98074 0
M  V30 4952 H 509.83 2.86234 -3.84196 0
M  V30 4953 H 508.194 1.59818 -1.98319 0
M  V30 4954 H 508.977 0.662866 -3.3684 0
M  V30 4955 N 511.423 1.38739 0.74761 0
M  V30 4956 C 512.371 1.36573 1.88283 0
M  V30 4957 C 513.365 0.250712 1.67534 0
M  V30 4958 O 514.571 0.420073 1.7503 0
M  V30 4959 H 510.946 0.42619 0.619569 0
M  V30 4960 H 512.917 2.32356 1.87226 0
M  V30 4961 C 511.666 1.21361 3.25832 0
M  V30 4962 H 510.989 2.06424 3.42388 0
M  V30 4963 H 512.429 1.23901 4.05493 0
M  V30 4964 C 510.888 -0.0790099 3.36807 0
M  V30 4965 O 511.418 -1.05385 3.8763 0
M  V30 4966 N 509.624 -0.13785 2.90273 0
M  V30 4967 H 509.171 0.656128 2.49104 0
M  V30 4968 H 509.129 -1.00228 2.97996 0
M  V30 4969 N 512.901 -0.976442 1.23707 0
M  V30 4970 C 514.147 -1.72158 1.08319 0
M  V30 4971 C 514.502 -1.88701 -0.375445 0
M  V30 4972 O 513.795 -1.43107 -1.274 0
M  V30 4973 C 513.989 -3.11814 1.74662 0
M  V30 4974 C 513.818 -3.08892 3.26827 0
M  V30 4975 C 512.588 -3.13861 3.96004 0
M  V30 4976 C 514.786 -2.9175 4.2354 0
M  V30 4977 N 512.768 -3.00867 5.35119 0
M  V30 4978 C 514.139 -2.8696 5.49595 0
M  V30 4979 C 516.194 -2.76265 4.14225 0
M  V30 4980 C 514.897 -2.68268 6.67401 0
M  V30 4981 C 516.923 -2.58938 5.317 0
M  V30 4982 C 516.285 -2.54849 6.56682 0
M  V30 4983 H 512.384 -0.638896 0.450927 0
M  V30 4984 H 514.968 -1.15835 1.56494 0
M  V30 4985 H 513.139 -3.66347 1.29014 0
M  V30 4986 H 514.871 -3.74984 1.52215 0
M  V30 4987 H 511.626 -3.22198 3.4711 0
M  V30 4988 H 512.05 -2.97634 6.08065 0
M  V30 4989 H 516.692 -2.78213 3.18366 0
M  V30 4990 H 514.41 -2.65063 7.63392 0
M  V30 4991 H 517.996 -2.47914 5.26336 0
M  V30 4992 H 516.876 -2.41611 7.46052 0
M  V30 4993 N 514.379 -1.04941 -1.1758 0
M  V30 4994 C 515.607 -0.778294 -1.91703 0
M  V30 4995 C 516.022 0.665697 -1.76675 0
M  V30 4996 O 515.379 1.45456 -1.10222 0
M  V30 4997 C 515.43 -1.14628 -3.42845 0
M  V30 4998 O 515.151 -2.53359 -3.57409 0
M  V30 4999 C 516.652 -0.900931 -4.34049 0
M  V30 5000 H 513.872 -0.283167 -0.608323 0
M  V30 5001 H 516.416 -1.39942 -1.49119 0
M  V30 5002 H 514.571 -0.569953 -3.83184 0
M  V30 5003 H 514.985 -2.67709 -4.51035 0
M  V30 5004 H 516.459 -1.20817 -5.38616 0
M  V30 5005 H 516.936 0.163966 -4.38894 0
M  V30 5006 H 517.542 -1.46097 -3.99419 0
M  V30 5007 N 515.857 1.33968 -0.830081 0
M  V30 5008 C 516.805 2.31301 -0.245435 0
M  V30 5009 C 517.799 1.57734 0.617762 0
M  V30 5010 O 519.005 1.72674 0.508303 0
M  V30 5011 H 515.38 0.749552 -0.0606316 0
M  V30 5012 H 517.351 2.78129 -1.08105 0
M  V30 5013 C 516.1 3.42961 0.572084 0
M  V30 5014 H 515.423 3.99714 -0.0828118 0
M  V30 5015 H 516.863 4.13286 0.94715 0
M  V30 5016 C 515.322 2.88043 1.74737 0
M  V30 5017 O 515.852 2.83508 2.8458 0
M  V30 5018 N 514.058 2.44768 1.56642 0
M  V30 5019 H 513.605 2.48656 0.672901 0
M  V30 5020 H 513.563 2.08375 2.3543 0
M  V30 5021 N 517.335 0.585699 1.46312 0
M  V30 5022 C 518.563 0.0781299 2.06752 0
M  V30 5023 C 518.978 -1.22812 1.43396 0
M  V30 5024 O 518.335 -1.74318 0.540314 0
M  V30 5025 C 518.386 -0.0911927 3.61385 0
M  V30 5026 O 518.107 1.16336 4.22371 0
M  V30 5027 C 519.608 -0.632765 4.38761 0
M  V30 5028 H 516.828 0.0588188 0.668417 0
M  V30 5029 H 519.372 0.807218 1.87894 0
M  V30 5030 H 517.527 -0.770514 3.7966 0
M  V30 5031 H 517.941 0.979082 5.15281 0
M  V30 5032 H 519.415 -0.70041 5.47538 0
M  V30 5033 H 519.892 -1.65039 4.07012 0
M  V30 5034 H 520.498 0.0117856 4.25298 0
M  V30 5035 N 518.813 -1.54241 0.323641 0
M  V30 5036 C 519.745 -2.21836 -0.576311 0
M  V30 5037 C 520.758 -1.21837 -1.07979 0
M  V30 5038 O 521.947 -1.48306 -0.99336 0
M  V30 5039 C 519.047 -2.86923 -1.80356 0
M  V30 5040 C 518.22 -4.1306 -1.43875 0
M  V30 5041 C 517.279 -4.6174 -2.52353 0
M  V30 5042 O 516.305 -5.26421 -2.16494 0
M  V30 5043 N 517.507 -4.35974 -3.83284 0
M  V30 5044 H 520.272 -2.997 0.00247987 0
M  V30 5045 H 517.833 -1.61233 0.146848 0
M  V30 5046 H 519.825 -3.16414 -2.52318 0
M  V30 5047 H 518.395 -2.12765 -2.29019 0
M  V30 5048 H 517.615 -3.90334 -0.550752 0
M  V30 5049 H 518.903 -4.95148 -1.17071 0
M  V30 5050 H 518.301 -3.84203 -4.15216 0
M  V30 5051 H 516.858 -4.70119 -4.51477 0
M  V30 5052 N 520.291 -0.0518155 -1.57515 0
M  V30 5053 C 521.537 0.622745 -1.93002 0
M  V30 5054 C 521.87 1.70456 -0.930499 0
M  V30 5055 O 521.145 1.94452 0.0434086 0
M  V30 5056 C 521.428 1.21824 -3.38867 0
M  V30 5057 C 521.281 0.144434 -4.49568 0
M  V30 5058 C 522.6 2.12968 -3.8514 0
M  V30 5059 H 519.719 0.22491 -0.701844 0
M  V30 5060 H 522.361 -0.113711 -1.89659 0
M  V30 5061 H 520.511 1.8459 -3.41846 0
M  V30 5062 H 522.183 -0.48753 -4.58717 0
M  V30 5063 H 520.426 -0.527424 -4.30582 0
M  V30 5064 H 521.097 0.601127 -5.48717 0
M  V30 5065 H 523.573 1.60163 -3.8404 0
M  V30 5066 H 522.449 2.51578 -4.87852 0
M  V30 5067 H 522.71 3.03004 -3.21934 0
M  V30 5068 N 521.769 1.56035 0.221574 0
M  V30 5069 C 523.185 1.49026 0.571271 0
M  V30 5070 C 523.385 0.746912 1.87146 0
M  V30 5071 O 522.441 0.286566 2.50869 0
M  V30 5072 C 523.754 2.93579 0.650522 0
M  V30 5073 C 525.302 3.04099 0.741151 0
M  V30 5074 C 525.777 4.5001 0.851747 0
M  V30 5075 N 527.268 4.54053 0.915968 0
M  V30 5076 C 528.003 5.64232 1.02125 0
M  V30 5077 N 527.499 6.84164 1.09049 0
M  V30 5078 N 529.292 5.52084 1.05639 0
M  V30 5079 H 521.443 2.02791 -0.63162 0
M  V30 5080 H 523.706 0.921736 -0.221602 0
M  V30 5081 H 523.412 3.50912 -0.235253 0
M  V30 5082 H 523.286 3.45476 1.51413 0
M  V30 5083 H 525.673 2.4683 1.61737 0
M  V30 5084 H 525.754 2.55371 -0.148128 0
M  V30 5085 H 525.398 5.07896 -0.0200117 0
M  V30 5086 H 525.328 4.96444 1.75644 0
M  V30 5087 H 527.819 3.67683 0.872782 0
M  V30 5088 H 528.132 7.63883 1.1706 0
M  V30 5089 H 526.477 6.86875 1.05962 0
M  V30 5090 H 529.668 4.57317 0.998953 0
M  V30 5091 H 529.841 6.37983 1.13498 0
M  V30 5092 N 523.247 -0.488276 1.49845 0
M  V30 5093 C 524.472 -1.26997 1.63971 0
M  V30 5094 C 524.897 -1.85427 0.315994 0
M  V30 5095 O 524.255 -1.66475 -0.718032 0
M  V30 5096 C 524.303 -2.36689 2.72049 0
M  V30 5097 O 523.407 -3.40882 2.32107 0
M  V30 5098 H 522.748 -0.374376 0.548396 0
M  V30 5099 H 525.278 -0.583104 1.96115 0
M  V30 5100 H 525.288 -2.82262 2.94605 0
M  V30 5101 H 523.963 -1.93529 3.68129 0
M  V30 5102 H 522.54 -3.01139 2.19931 0
M  V30 5103 N 524.725 -1.39134 -0.740242 0
M  V30 5104 C 525.95 -1.39518 -1.53459 0
M  V30 5105 C 526.375 0.00968883 -1.88098 0
M  V30 5106 O 525.733 0.995312 -1.51536 0
M  V30 5107 C 525.781 -2.26981 -2.802 0
M  V30 5108 O 524.885 -1.69609 -3.75908 0
M  V30 5109 H 524.226 -0.475328 -0.463637 0
M  V30 5110 H 526.756 -1.83064 -0.913717 0
M  V30 5111 H 526.766 -2.41309 -3.28989 0
M  V30 5112 H 525.441 -3.29081 -2.5432 0
M  V30 5113 H 524.018 -1.64495 -3.34658 0
M  V30 5114 N 526.204 0.969867 -1.24223 0
M  V30 5115 C 527.134 2.08191 -1.05729 0
M  V30 5116 C 528.115 1.70075 0.0290765 0
M  V30 5117 O 529.3 1.93712 -0.137583 0
M  V30 5118 C 526.43 3.40991 -0.658995 0
M  V30 5119 C 525.384 3.93054 -1.69389 0
M  V30 5120 C 524.71 5.22171 -1.15072 0
M  V30 5121 C 526.01 4.21137 -3.08935 0
M  V30 5122 H 527.704 2.23921 -1.98746 0
M  V30 5123 H 525.25 1.07602 -0.956967 0
M  V30 5124 H 527.203 4.18221 -0.51662 0
M  V30 5125 H 525.927 3.25155 0.30686 0
M  V30 5126 H 524.586 3.17977 -1.82444 0
M  V30 5127 H 524.234 5.02694 -0.175539 0
M  V30 5128 H 523.934 5.57973 -1.84229 0
M  V30 5129 H 525.458 6.02013 -1.02042 0
M  V30 5130 H 526.872 4.8908 -2.99121 0
M  V30 5131 H 525.269 4.68163 -3.75425 0
M  V30 5132 H 526.339 3.27996 -3.57137 0
M  V30 5133 N 527.682 1.05563 1.17022 0
M  V30 5134 C 528.592 0.670758 2.24807 0
M  V30 5135 C 529.608 -0.309865 1.71219 0
M  V30 5136 O 530.784 -0.161025 2.00755 0
M  V30 5137 C 527.849 0.055337 3.46656 0
M  V30 5138 C 526.91 1.08688 4.15314 0
M  V30 5139 C 526.143 0.500736 5.31346 0
M  V30 5140 O 526.366 -0.688718 5.66227 0
M  V30 5141 O 525.3 1.23683 5.89055 0
M  V30 5142 H 529.126 1.56914 2.60023 0
M  V30 5143 H 526.711 0.827428 1.24395 0
M  V30 5144 H 528.593 -0.286492 4.20425 0
M  V30 5145 H 527.268 -0.816638 3.13229 0
M  V30 5146 H 526.175 1.48077 3.43546 0
M  V30 5147 H 527.508 1.93014 4.52777 0
M  V30 5148 N 529.16 -1.33526 0.837174 0
M  V30 5149 C 530.108 -2.31168 0.257698 0
M  V30 5150 C 531.102 -1.5806 -0.609388 0
M  V30 5151 O 532.308 -1.72941 -0.499139 0
M  V30 5152 H 528.683 -0.74922 0.0646058 0
M  V30 5153 H 530.654 -2.77552 1.09578 0
M  V30 5154 C 529.403 -3.4326 -0.553887 0
M  V30 5155 H 528.726 -3.99665 0.104008 0
M  V30 5156 H 530.166 -4.13782 -0.925219 0
M  V30 5157 C 528.625 -2.88965 -1.73207 0
M  V30 5158 O 529.155 -2.85013 -2.83073 0
M  V30 5159 N 527.361 -2.45596 -1.55342 0
M  V30 5160 H 526.908 -2.49009 -0.659705 0
M  V30 5161 H 526.866 -2.0962 -2.34322 0
M  V30 5162 N 530.638 -0.59345 -1.46 0
M  V30 5163 C 531.866 -0.0890934 -2.06708 0
M  V30 5164 C 532.281 1.2205 -1.44046 0
M  V30 5165 O 531.638 1.74029 -0.549551 0
M  V30 5166 C 531.689 0.0720263 -3.61428 0
M  V30 5167 O 531.41 -1.18574 -4.21748 0
M  V30 5168 C 532.911 0.609487 -4.3909 0
M  V30 5169 H 530.131 -0.0623628 -0.668096 0
M  V30 5170 H 532.675 -0.817171 -1.87464 0
M  V30 5171 H 530.83 0.750369 -3.80063 0
M  V30 5172 H 531.244 -1.0064 -5.14754 0
M  V30 5173 H 532.718 0.671363 -5.47902 0
M  V30 5174 H 533.195 1.62878 -4.07882 0
M  V30 5175 H 533.801 -0.03434 -4.25286 0
M  V30 5176 N 532.116 1.54067 -0.331816 0
M  V30 5177 C 533.344 2.05131 0.269996 0
M  V30 5178 C 533.759 1.20749 1.45138 0
M  V30 5179 O 533.116 0.240069 1.80914 0
M  V30 5180 C 533.167 3.54728 0.696456 0
M  V30 5181 O 532.888 4.35906 -0.43794 0
M  V30 5182 C 534.389 4.21916 1.36021 0
M  V30 5183 H 531.609 0.668807 0.0542042 0
M  V30 5184 H 534.153 1.98777 -0.4804 0
M  V30 5185 H 532.308 3.61342 1.39681 0
M  V30 5186 H 532.722 5.24404 -0.100334 0
M  V30 5187 H 534.196 5.28015 1.60947 0
M  V30 5188 H 534.673 3.73538 2.31011 0
M  V30 5189 H 535.279 4.19463 0.702212 0
M  V30 5190 N 533.594 0.0601682 1.57485 0
M  V30 5191 C 534.822 -0.620937 1.97363 0
M  V30 5192 C 535.237 -1.63846 0.938082 0
M  V30 5193 O 534.594 -1.82339 -0.0766578 0
M  V30 5194 C 534.645 -1.29987 3.37321 0
M  V30 5195 O 534.366 -0.323081 4.36907 0
M  V30 5196 C 535.867 -2.06989 3.92008 0
M  V30 5197 H 533.087 -0.169135 0.649334 0
M  V30 5198 H 535.631 0.129132 2.04092 0
M  V30 5199 H 533.786 -2.0011 3.31715 0
M  V30 5200 H 534.2 -0.808754 5.18227 0
M  V30 5201 H 535.674 -2.49901 4.92192 0
M  V30 5202 H 536.151 -2.92173 3.2792 0
M  V30 5203 H 536.757 -1.41757 4.0098 0
M  V30 5204 N 535.072 -1.5615 -0.213296 0
M  V30 5205 C 536.019 -1.93086 -1.26437 0
M  V30 5206 C 536.989 -0.789086 -1.4616 0
M  V30 5207 O 538.174 -1.04569 -1.59593 0
M  V30 5208 C 535.314 -2.26003 -2.608 0
M  V30 5209 C 534.427 -3.53156 -2.48807 0
M  V30 5210 C 533.562 -3.7548 -3.7575 0
M  V30 5211 C 532.601 -4.96119 -3.58514 0
M  V30 5212 N 531.738 -5.14791 -4.77425 0
M  V30 5213 H 536.578 -2.82707 -0.942376 0
M  V30 5214 H 534.115 -1.39919 -0.454001 0
M  V30 5215 H 536.073 -2.431 -3.39055 0
M  V30 5216 H 534.703 -1.39546 -2.91079 0
M  V30 5217 H 533.755 -3.44207 -1.61944 0
M  V30 5218 H 535.067 -4.41565 -2.31996 0
M  V30 5219 H 534.221 -3.92718 -4.62447 0
M  V30 5220 H 532.96 -2.85368 -3.95495 0
M  V30 5221 H 531.965 -4.78823 -2.70201 0
M  V30 5222 H 533.19 -5.87724 -3.40231 0
M  V30 5223 H 531.136 -4.27623 -4.97468 0
M  V30 5224 H 531.053 -5.97347 -4.63371 0
M  V30 5225 H 532.321 -5.36471 -5.65525 0
M  V30 5226 N 536.55 0.480323 -1.50102 0
M  V30 5227 C 537.48 1.58769 -1.71215 0
M  V30 5228 C 538.461 1.60583 -0.560997 0
M  V30 5229 O 539.646 1.76996 -0.799127 0
M  V30 5230 C 536.776 2.97148 -1.79778 0
M  V30 5231 C 535.73 3.10201 -2.94888 0
M  V30 5232 C 535.056 4.50137 -2.88584 0
M  V30 5233 C 536.356 2.88283 -4.35534 0
M  V30 5234 H 538.05 1.41354 -2.6393 0
M  V30 5235 H 535.596 0.678591 -1.27008 0
M  V30 5236 H 537.549 3.74536 -1.93133 0
M  V30 5237 H 536.273 3.15699 -0.836772 0
M  V30 5238 H 534.932 2.35244 -2.81169 0
M  V30 5239 H 534.58 4.65593 -1.90349 0
M  V30 5240 H 534.28 4.59808 -3.65856 0
M  V30 5241 H 535.804 5.29558 -3.03976 0
M  V30 5242 H 537.218 3.55427 -4.49827 0
M  V30 5243 H 535.615 3.09408 -5.14186 0
M  V30 5244 H 536.685 1.84219 -4.48544 0
M  V30 5245 N 538.028 1.39524 0.732853 0
M  V30 5246 C 539.276 1.36594 1.48951 0
M  V30 5247 C 539.597 -0.0367507 1.94965 0
M  V30 5248 O 538.867 -0.988391 1.69138 0
M  V30 5249 H 537.447 0.502673 0.552566 0
M  V30 5250 H 540.109 1.74411 0.869869 0
M  V30 5251 H 539.205 2.03 2.3706 0
M  V30 5252 N 539.506 -0.963266 1.24736 0
M  V30 5253 C 540.783 -1.68248 0.9976 0
M  V30 5254 C 541.163 -2.05599 -0.478776 0
M  V30 5255 O 540.511 -1.7626 -1.45412 0
M  V30 5256 C 540.721 -2.91118 1.92487 0
M  V30 5257 C 542.069 -3.63261 2.19833 0
M  V30 5258 O 543.093 -3.01184 1.90176 0
M  V30 5259 O 541.952 -4.75019 2.7022 0
M  V30 5260 H 539.046 -0.735744 0.377637 0
M  V30 5261 H 541.592 -1.01696 1.35853 0
M  V30 5262 H 540.364 -2.60242 2.92215 0
M  V30 5263 H 539.987 -3.65402 1.56738 0
M  V30 5264 N 540.985 -1.06182 -1.16461 0
M  V30 5265 C 542.21 -0.798599 -1.91408 0
M  V30 5266 C 542.635 0.640987 -1.76842 0
M  V30 5267 O 541.993 1.44652 -1.09296 0
M  V30 5268 C 542.041 -1.19665 -3.40165 0
M  V30 5269 O 541.145 -0.334768 -4.11039 0
M  V30 5270 H 540.486 -0.291961 -0.596368 0
M  V30 5271 H 543.016 -1.41732 -1.47557 0
M  V30 5272 H 543.026 -1.16772 -3.90933 0
M  V30 5273 H 541.701 -2.24526 -3.50087 0
M  V30 5274 H 540.278 -0.425168 -3.70468 0
M  V30 5275 N 542.463 1.3308 -0.844243 0
M  V30 5276 C 543.71 1.97605 -0.44255 0
M  V30 5277 C 544.038 1.66856 0.999458 0
M  V30 5278 O 543.293 0.943586 1.7145 0
M  V30 5279 C 543.592 3.52045 -0.616354 0
M  V30 5280 C 543.258 4.02757 -2.02726 0
M  V30 5281 C 541.92 4.16316 -2.41317 0
M  V30 5282 C 544.272 4.29776 -2.9486 0
M  V30 5283 C 541.6 4.54232 -3.71335 0
M  V30 5284 C 543.952 4.69146 -4.24364 0
M  V30 5285 C 542.616 4.80911 -4.62904 0
M  V30 5286 H 541.886 0.723088 -0.161941 0
M  V30 5287 H 544.533 1.58663 -1.0723 0
M  V30 5288 H 542.838 3.91681 0.0966812 0
M  V30 5289 H 544.535 3.99981 -0.285756 0
M  V30 5290 H 541.125 3.9268 -1.71756 0
M  V30 5291 H 545.309 4.18818 -2.6628 0
M  V30 5292 H 540.565 4.61535 -4.00993 0
M  V30 5293 H 544.739 4.89008 -4.95827 0
M  V30 5294 H 542.366 5.10048 -5.63698 0
M  V30 5295 N 543.941 0.601185 1.45683 0
M  V30 5296 C 545.171 0.0999093 2.06358 0
M  V30 5297 C 545.579 -1.21831 1.44754 0
M  V30 5298 O 544.922 -1.75157 0.553695 0
M  V30 5299 C 544.984 -0.12085 3.59297 0
M  V30 5300 C 544.648 1.11459 4.432 0
M  V30 5301 C 545.645 2.03118 4.7858 0
M  V30 5302 C 543.33 1.34162 4.84051 0
M  V30 5303 C 545.324 3.15814 5.53661 0
M  V30 5304 C 543.011 2.4716 5.58888 0
M  V30 5305 C 544.009 3.37814 5.93608 0
M  V30 5306 O 543.697 4.48846 6.66928 0
M  V30 5307 H 543.429 0.0630316 0.673055 0
M  V30 5308 H 545.983 0.826982 1.88016 0
M  V30 5309 H 544.213 -0.902744 3.76015 0
M  V30 5310 H 545.902 -0.572925 4.01836 0
M  V30 5311 H 546.668 1.86801 4.47583 0
M  V30 5312 H 542.547 0.645018 4.56465 0
M  V30 5313 H 546.091 3.86596 5.8068 0
M  V30 5314 H 541.988 2.63432 5.89299 0
M  V30 5315 H 542.756 4.47446 6.85371 0
M  V30 5316 N 545.419 -1.53889 0.339982 0
M  V30 5317 C 546.649 -2.04973 -0.258738 0
M  V30 5318 C 547.057 -1.21485 -1.45045 0
M  V30 5319 O 546.4 -0.2422 -1.82096 0
M  V30 5320 C 546.462 -3.51783 -0.740853 0
M  V30 5321 C 546.126 -4.55802 0.330734 0
M  V30 5322 C 547.123 -5.06512 1.17226 0
M  V30 5323 C 544.808 -4.99966 0.483637 0
M  V30 5324 C 546.802 -5.99963 2.15227 0
M  V30 5325 C 544.489 -5.93229 1.46704 0
M  V30 5326 C 545.487 -6.43115 2.29981 0
M  V30 5327 O 545.175 -7.34545 3.26649 0
M  V30 5328 H 544.907 -0.673807 -0.0544037 0
M  V30 5329 H 547.461 -1.99492 0.489107 0
M  V30 5330 H 545.691 -3.54717 -1.53988 0
M  V30 5331 H 547.38 -3.85857 -1.25973 0
M  V30 5332 H 548.146 -4.73158 1.0652 0
M  V30 5333 H 544.025 -4.6074 -0.15471 0
M  V30 5334 H 547.569 -6.38825 2.80265 0
M  V30 5335 H 543.466 -6.25998 1.57468 0
M  V30 5336 H 544.234 -7.52468 3.22078 0
M  V30 5337 N 546.897 -0.0685191 -1.57451 0
M  V30 5338 C 548.145 0.60016 -1.92983 0
M  V30 5339 C 548.466 1.70348 -0.949028 0
M  V30 5340 O 547.736 1.959 0.00335647 0
M  V30 5341 H 546.316 0.224682 -0.712409 0
M  V30 5342 H 548.978 -0.125605 -1.94495 0
M  V30 5343 H 548.074 1.02759 -2.94698 0
M  V30 5344 N 548.375 1.56261 0.205012 0
M  V30 5345 C 549.322 1.93754 1.25411 0
M  V30 5346 C 550.292 0.796826 1.45739 0
M  V30 5347 O 551.477 1.05414 1.59036 0
M  V30 5348 C 548.617 2.27383 2.59598 0
M  V30 5349 C 547.73 3.5447 2.46931 0
M  V30 5350 C 546.865 3.77468 3.73753 0
M  V30 5351 C 545.904 4.98014 3.55877 0
M  V30 5352 N 545.041 5.17316 4.74688 0
M  V30 5353 H 549.881 2.83203 0.92737 0
M  V30 5354 H 547.418 1.40158 0.446574 0
M  V30 5355 H 549.376 2.44895 3.37761 0
M  V30 5356 H 548.006 1.41088 2.90335 0
M  V30 5357 H 547.058 3.45061 1.60116 0
M  V30 5358 H 548.37 4.42789 2.29651 0
M  V30 5359 H 547.524 3.95165 4.60358 0
M  V30 5360 H 546.263 2.87461 3.93976 0
M  V30 5361 H 545.268 4.80249 2.67657 0
M  V30 5362 H 546.493 5.8952 3.37109 0
M  V30 5363 H 544.439 4.30255 4.95194 0
M  V30 5364 H 544.356 5.99796 4.60197 0
M  V30 5365 H 545.624 5.39463 5.62672 0
M  V30 5366 N 549.853 -0.472356 1.50355 0
M  V30 5367 C 551.101 -1.22211 1.60962 0
M  V30 5368 C 551.422 -1.92497 0.311439 0
M  V30 5369 O 550.692 -1.8405 -0.671002 0
M  V30 5370 H 549.272 -0.454092 0.593135 0
M  V30 5371 H 551.934 -0.544977 1.87126 0
M  V30 5372 H 551.03 -1.9707 2.42012 0
M  V30 5373 N 551.331 -1.39911 -0.725443 0
M  V30 5374 C 552.261 -1.42138 -1.85254 0
M  V30 5375 C 553.242 -0.283513 -1.67721 0
M  V30 5376 O 554.427 -0.490717 -1.87898 0
M  V30 5377 C 551.557 -1.27354 -3.23107 0
M  V30 5378 C 550.511 -2.3864 -3.55296 0
M  V30 5379 C 549.837 -2.08939 -4.92188 0
M  V30 5380 C 551.137 -3.8097 -3.57295 0
M  V30 5381 H 552.831 -2.36461 -1.83648 0
M  V30 5382 H 550.377 -1.13817 -0.882138 0
M  V30 5383 H 552.33 -1.2753 -4.01639 0
M  V30 5384 H 551.054 -0.295025 -3.25265 0
M  V30 5385 H 549.713 -2.37696 -2.79099 0
M  V30 5386 H 549.361 -1.09502 -4.90936 0
M  V30 5387 H 549.061 -2.83491 -5.14691 0
M  V30 5388 H 550.585 -2.10781 -5.73065 0
M  V30 5389 H 551.999 -3.8379 -4.25885 0
M  V30 5390 H 550.396 -4.5496 -3.9132 0
M  V30 5391 H 551.466 -4.11261 -2.5689 0
M  V30 5392 N 552.809 0.956637 -1.25245 0
M  V30 5393 C 554.058 1.69537 -1.0927 0
M  V30 5394 C 554.371 1.92136 0.366503 0
M  V30 5395 O 555.577 2.63687 0.64665 0
M  V30 5396 C 554.033 3.05211 -1.9072 0
M  V30 5397 C 553.641 2.90416 -3.41119 0
M  V30 5398 C 555.385 3.82882 -1.83308 0
M  V30 5399 C 553.292 4.21468 -4.14872 0
M  V30 5400 H 552.222 0.635804 -0.405302 0
M  V30 5401 H 554.873 1.06513 -1.49423 0
M  V30 5402 H 553.255 3.69128 -1.43389 0
M  V30 5403 H 554.429 2.35444 -3.9611 0
M  V30 5404 H 552.744 2.26203 -3.49602 0
M  V30 5405 H 555.341 4.79944 -2.35706 0
M  V30 5406 H 555.684 4.0853 -0.800572 0
M  V30 5407 H 556.217 3.25711 -2.28379 0
M  V30 5408 H 552.956 4.01009 -5.18529 0
M  V30 5409 H 552.476 4.76213 -3.64665 0
M  V30 5410 H 554.155 4.90022 -4.22478 0
M  V30 5411 N 554.287 1.06798 1.15896 0
M  V30 5412 C 555.235 0.677525 2.22514 0
M  V30 5413 C 556.229 -0.308994 1.66558 0
M  V30 5414 O 557.435 -0.173308 1.79164 0
M  V30 5415 H 553.81 0.200994 0.724642 0
M  V30 5416 H 555.781 1.5865 2.52731 0
M  V30 5417 C 554.53 0.0854153 3.47595 0
M  V30 5418 H 553.853 0.835645 3.90969 0
M  V30 5419 H 555.293 -0.150199 4.23734 0
M  V30 5420 C 553.752 -1.1724 3.15843 0
M  V30 5421 O 554.282 -2.25965 3.32119 0
M  V30 5422 N 552.488 -1.07636 2.69931 0
M  V30 5423 H 552.035 -0.191559 2.56887 0
M  V30 5424 H 551.993 -1.91876 2.4906 0
M  V30 5425 N 555.766 -1.3263 0.851289 0
M  V30 5426 C 557.012 -1.9766 0.453694 0
M  V30 5427 C 557.345 -1.67225 -0.987396 0
M  V30 5428 O 556.62 -0.958693 -1.69232 0
M  V30 5429 C 556.903 -3.5344 0.68936 0
M  V30 5430 C 556.756 -3.93517 2.17862 0
M  V30 5431 C 558.075 -4.39866 0.143555 0
M  V30 5432 H 555.194 -0.717989 0.166314 0
M  V30 5433 H 557.836 -1.57068 1.06909 0
M  V30 5434 H 555.986 -3.88147 0.165546 0
M  V30 5435 H 557.658 -3.69006 2.76826 0
M  V30 5436 H 555.901 -3.42798 2.65841 0
M  V30 5437 H 556.572 -5.02065 2.29422 0
M  V30 5438 H 559.048 -4.11875 0.591451 0
M  V30 5439 H 557.924 -5.47858 0.338043 0
M  V30 5440 H 558.185 -4.31696 -0.953466 0
M  V30 5441 N 557.244 -0.608902 -1.45362 0
M  V30 5442 C 558.176 0.147318 -2.28726 0
M  V30 5443 C 559.189 0.830468 -1.40025 0
M  V30 5444 O 560.378 0.695636 -1.64387 0
M  V30 5445 C 557.478 1.22968 -3.15804 0
M  V30 5446 C 556.651 0.633391 -4.3279 0
M  V30 5447 C 555.71 1.60682 -5.01067 0
M  V30 5448 O 554.736 1.13261 -5.57818 0
M  V30 5449 N 555.938 2.94123 -5.00472 0
M  V30 5450 H 558.703 -0.568014 -2.94268 0
M  V30 5451 H 556.264 -0.448479 -1.55564 0
M  V30 5452 H 558.256 1.88072 -3.58345 0
M  V30 5453 H 556.826 1.84752 -2.52162 0
M  V30 5454 H 556.046 -0.195762 -3.93714 0
M  V30 5455 H 557.334 0.215255 -5.08344 0
M  V30 5456 H 556.732 3.3525 -4.55657 0
M  V30 5457 H 555.289 3.54646 -5.46872 0
M  V30 5458 N 558.722 1.53707 -0.348139 0
M  V30 5459 C 559.685 2.23812 0.494058 0
M  V30 5460 C 560.685 1.23989 1.02388 0
M  V30 5461 O 561.875 1.48395 0.912396 0
M  V30 5462 C 559.007 2.96133 1.68872 0
M  V30 5463 H 560.2 2.99663 -0.119141 0
M  V30 5464 H 557.753 1.55983 -0.0995539 0
M  V30 5465 H 558.488 2.24481 2.34049 0
M  V30 5466 H 558.273 3.69357 1.31596 0
M  V30 5467 H 559.763 3.49475 2.28597 0
M  V30 5468 N 560.2 0.0768682 1.57412 0
M  V30 5469 C 561.163 -0.873949 2.11884 0
M  V30 5470 C 562.163 -1.22301 1.04398 0
M  V30 5471 O 563.353 -1.15545 1.30365 0
M  V30 5472 C 560.485 -2.17575 2.62438 0
M  V30 5473 H 561.678 -0.401278 2.97203 0
M  V30 5474 H 559.231 -0.171904 1.55352 0
M  V30 5475 H 559.966 -2.69368 1.80587 0
M  V30 5476 H 559.751 -1.93534 3.41009 0
M  V30 5477 H 561.241 -2.85631 3.04639 0
M  V30 5478 N 561.678 -1.56367 -0.196722 0
M  V30 5479 C 562.641 -1.93561 -1.22746 0
M  V30 5480 C 563.641 -0.816566 -1.38524 0
M  V30 5481 O 564.831 -1.084 -1.36363 0
M  V30 5482 C 561.963 -2.20823 -2.59712 0
M  V30 5483 H 563.156 -2.85774 -0.909586 0
M  V30 5484 H 560.709 -1.50032 -0.438174 0
M  V30 5485 H 561.444 -1.31243 -2.96557 0
M  V30 5486 H 561.229 -3.02368 -2.49632 0
M  V30 5487 H 562.719 -2.50608 -3.34044 0
M  V30 5488 N 563.156 0.464375 -1.50603 0
M  V30 5489 C 564.088 1.57916 -1.66118 0
M  V30 5490 C 565.101 1.53497 -0.54246 0
M  V30 5491 O 566.29 1.58763 -0.815877 0
M  V30 5492 C 563.39 2.96809 -1.63577 0
M  V30 5493 C 562.563 3.26026 -2.91592 0
M  V30 5494 C 561.622 4.44506 -2.81604 0
M  V30 5495 O 560.648 4.44484 -3.55559 0
M  V30 5496 N 561.85 5.46549 -1.95614 0
M  V30 5497 H 564.615 1.45022 -2.62276 0
M  V30 5498 H 562.176 0.652903 -1.48151 0
M  V30 5499 H 564.168 3.74048 -1.54499 0
M  V30 5500 H 562.738 3.03438 -0.751262 0
M  V30 5501 H 561.958 2.37337 -3.14746 0
M  V30 5502 H 563.246 3.42361 -3.76386 0
M  V30 5503 H 562.644 5.49391 -1.34854 0
M  V30 5504 H 561.201 6.22746 -1.92435 0
M  V30 5505 O 564.673 1.49538 0.609965 0
M  V30 5506 H 565.364 1.46731 1.26451 0
M  V30 END ATOM
M  V30 BEGIN BOND
M  V30 END BOND
M  V30 END CTAB
M  END
$$$$
