drugbank_target|Q6NSD4 Glutathione peroxidase (DB00143)
 OpenBabel12092120083D

  0  0  0     0  0            999 V3000
M  V30 BEGIN CTAB
M  V30 COUNTS 2259 2288 0 0 0
M  V30 BEGIN ATOM
M  V30 1 H -0.908 1.98254 -0.117106 0
M  V30 2 N 0 1.576 0 0
M  V30 3 C 0.933 2.03868 1.02534 0
M  V30 4 C 1.911 0.928543 1.3348 0
M  V30 5 O 3.095 1.19667 1.45644 0
M  V30 6 C 0.222 2.43627 2.35294 0
M  V30 7 C -0.732 3.65373 2.2001 0
M  V30 8 S 0.101 5.13292 1.52614 0
M  V30 9 C 1.257 5.56322 2.86805 0
M  V30 10 H 1.49 2.90518 0.631377 0
M  V30 11 H -0.977 1.52953 0.210867 0
M  V30 12 H 0.981 2.67203 3.11629 0
M  V30 13 H -0.358 1.57376 2.7183 0
M  V30 14 H -1.165 3.90944 3.18086 0
M  V30 15 H -1.563 3.418 1.51819 0
M  V30 16 H 0.729 5.58782 3.83104 0
M  V30 17 H 1.672 6.56266 2.65933 0
M  V30 18 H 2.08 4.83886 2.90714 0
M  V30 19 N 1.4781 -0.272755 1.55222 0
M  V30 20 C 2.4261 -1.35705 1.88909 0
M  V30 21 C 3.4201 -1.5112 0.765456 0
M  V30 22 O 4.6261 -1.52901 0.949802 0
M  V30 23 H 1.0011 -0.453868 0.59959 0
M  V30 24 H 2.9721 -1.04544 2.79487 0
M  V30 25 C 1.7211 -2.71049 2.17779 0
M  V30 26 H 1.0441 -2.59979 3.03728 0
M  V30 27 H 2.4841 -3.45858 2.45272 0
M  V30 28 C 0.9431 -3.22165 0.985473 0
M  V30 29 O 1.4731 -4.01096 0.220233 0
M  V30 30 N -0.3209 -2.7985 0.783108 0
M  V30 31 H -0.7739 -2.15775 1.40708 0
M  V30 32 H -0.8159 -3.14397 -0.0130392 0
M  V30 33 N 2.9562 -1.48159 -0.537278 0
M  V30 34 C 3.8662 -1.64807 -1.6696 0
M  V30 35 C 4.8822 -0.530651 -1.65711 0
M  V30 36 O 6.0582 -0.800784 -1.84796 0
M  V30 37 C 3.1232 -1.67708 -3.03438 0
M  V30 38 C 2.1842 -2.91025 -3.156 0
M  V30 39 C 1.4172 -2.93778 -4.45567 0
M  V30 40 O 1.6402 -2.05153 -5.3223 0
M  V30 41 O 0.5742 -3.85868 -4.61941 0
M  V30 42 H 4.4002 -2.6066 -1.55853 0
M  V30 43 H 1.9852 -1.31475 -0.709549 0
M  V30 44 H 3.8672 -1.7218 -3.84619 0
M  V30 45 H 2.5422 -0.750278 -3.14885 0
M  V30 46 H 1.4492 -2.92089 -2.33741 0
M  V30 47 H 2.7822 -3.83065 -3.09066 0
M  V30 48 N 4.4343 0.785586 -1.36625 0
M  V30 49 C 5.3643 1.91259 -1.33949 0
M  V30 50 C 6.3453 1.68795 -0.210325 0
M  V30 51 O 7.5303 1.89854 -0.408561 0
M  V30 52 C 4.6603 3.28339 -1.13186 0
M  V30 53 C 3.6143 3.65335 -2.22967 0
M  V30 54 C 2.9403 5.00806 -1.87342 0
M  V30 55 C 4.2403 3.7352 -3.65075 0
M  V30 56 H 5.9343 1.93755 -2.28253 0
M  V30 57 H 3.4803 0.930788 -1.09874 0
M  V30 58 H 5.4333 4.06804 -1.09948 0
M  V30 59 H 4.1573 3.2624 -0.153332 0
M  V30 60 H 2.8163 2.89169 -2.25337 0
M  V30 61 H 2.4643 4.95233 -0.880545 0
M  V30 62 H 2.1643 5.26529 -2.60846 0
M  V30 63 H 3.6883 5.81687 -1.85667 0
M  V30 64 H 5.1023 4.42168 -3.64911 0
M  V30 65 H 3.4993 4.10731 -4.37516 0
M  V30 66 H 4.5693 2.74527 -3.99703 0
M  V30 67 N 5.9124 1.20967 1.01018 0
M  V30 68 C 6.8444 0.922059 2.09835 0
M  V30 69 C 7.8574 -0.0927106 1.62536 0
M  V30 70 O 9.0464 0.139127 1.77957 0
M  V30 71 C 6.1464 0.362004 3.36961 0
M  V30 72 C 5.3194 1.42986 4.13369 0
M  V30 73 C 4.3784 0.879976 5.1879 0
M  V30 74 O 3.4044 1.56219 5.47343 0
M  V30 75 N 4.6064 -0.307396 5.79686 0
M  V30 76 H 7.3714 1.8588 2.35093 0
M  V30 77 H 4.9324 1.11422 1.1746 0
M  V30 78 H 6.9244 -0.0201474 4.04695 0
M  V30 79 H 5.4944 -0.479437 3.08902 0
M  V30 80 H 4.7144 1.98608 3.40512 0
M  V30 81 H 6.0024 2.14885 4.61196 0
M  V30 82 H 5.4004 -0.878796 5.58832 0
M  V30 83 H 3.9574 -0.631115 6.48737 0
M  V30 84 N 7.3905 -1.2043 1.01659 0
M  V30 85 C 8.8065 -1.41852 0.731442 0
M  V30 86 C 9.0065 -1.89358 -0.688898 0
M  V30 87 O 8.0625 -2.06247 -1.45666 0
M  V30 88 C 9.3755 -2.44019 1.75714 0
M  V30 89 C 10.9235 -2.57785 1.77527 0
M  V30 90 C 11.3985 -3.63194 2.79023 0
M  V30 91 N 12.8895 -3.70678 2.77763 0
M  V30 92 C 13.6245 -4.51897 3.52954 0
M  V30 93 N 13.1205 -5.36921 4.37821 0
M  V30 94 N 14.9135 -4.4643 3.41551 0
M  V30 95 H 7.0645 -0.879093 1.93354 0
M  V30 96 H 9.3275 -0.448425 0.835236 0
M  V30 97 H 9.0335 -2.1611 2.77469 0
M  V30 98 H 8.9075 -3.43007 1.56927 0
M  V30 99 H 11.2945 -2.85023 0.764569 0
M  V30 100 H 11.3755 -1.58992 2.00387 0
M  V30 101 H 11.0195 -3.36699 3.80258 0
M  V30 102 H 10.9495 -4.61609 2.53425 0
M  V30 103 H 13.4405 -3.09944 2.16201 0
M  V30 104 H 13.7535 -5.95981 4.91962 0
M  V30 105 H 12.0985 -5.36424 4.41899 0
M  V30 106 H 15.2895 -3.79042 2.74672 0
M  V30 107 H 15.4625 -5.09491 4.00404 0
M  V30 108 N 8.8686 -0.792821 -1.36206 0
M  V30 109 C 10.2846 -0.474903 -1.52371 0
M  V30 110 C 10.4846 1.00622 -1.74578 0
M  V30 111 O 9.5406 1.79162 -1.77924 0
M  V30 112 C 10.8536 -1.3083 -2.70747 0
M  V30 113 C 12.4016 -1.30234 -2.84619 0
M  V30 114 C 12.8766 -2.11956 -4.06004 0
M  V30 115 N 14.3676 -2.09419 -4.13156 0
M  V30 116 C 15.1026 -2.69419 -5.06163 0
M  V30 117 N 14.5986 -3.3829 -6.04592 0
M  V30 118 N 16.3916 -2.59134 -4.98804 0
M  V30 119 H 8.5426 -1.75222 -1.20046 0
M  V30 120 H 10.8056 -0.745024 -0.586211 0
M  V30 121 H 10.5116 -2.35881 -2.6087 0
M  V30 122 H 10.3856 -0.95196 -3.6499 0
M  V30 123 H 12.7726 -0.259748 -2.93955 0
M  V30 124 H 12.8536 -1.69847 -1.91274 0
M  V30 125 H 12.4976 -3.16248 -3.97429 0
M  V30 126 H 12.4276 -1.69711 -4.98503 0
M  V30 127 H 14.9186 -1.59297 -3.42685 0
M  V30 128 H 15.2316 -3.81394 -6.7213 0
M  V30 129 H 13.5766 -3.42393 -6.04807 0
M  V30 130 H 16.7676 -2.04927 -4.20859 0
M  V30 131 H 16.9406 -3.06185 -5.711 0
M  V30 132 N 10.3467 1.47872 -0.545128 0
M  V30 133 C 11.2767 2.32661 0.197793 0
M  V30 134 C 12.2577 1.43041 0.920504 0
M  V30 135 O 13.4427 1.71912 0.90333 0
M  V30 136 C 10.5727 3.24569 1.23582 0
M  V30 137 C 9.5267 4.23333 0.630323 0
M  V30 138 C 8.8527 5.0448 1.77211 0
M  V30 139 C 10.1527 5.20704 -0.407974 0
M  V30 140 H 11.8467 2.95024 -0.510045 0
M  V30 141 H 9.3927 1.4187 -0.246731 0
M  V30 142 H 11.3457 3.8272 1.76362 0
M  V30 143 H 10.0697 2.60236 1.97344 0
M  V30 144 H 8.7287 3.6639 0.123922 0
M  V30 145 H 8.3767 4.36561 2.49847 0
M  V30 146 H 8.0767 5.71339 1.37281 0
M  V30 147 H 9.6007 5.65487 2.3034 0
M  V30 148 H 11.0147 5.7329 0.033305 0
M  V30 149 H 9.4117 5.95699 -0.725486 0
M  V30 150 H 10.4817 4.66917 -1.30828 0
M  V30 151 N 11.8248 0.280983 1.55075 0
M  V30 152 C 13.0728 -0.333455 1.9933 0
M  V30 153 C 13.3938 -1.55937 1.17085 0
M  V30 154 O 12.6638 -1.94143 0.261805 0
M  V30 155 H 11.2438 -0.126197 0.736263 0
M  V30 156 H 13.9058 0.387678 1.91005 0
M  V30 157 H 13.0018 -0.619292 3.05894 0
M  V30 158 N 13.3029 -1.57598 0.00835791 0
M  V30 159 C 14.7139 -1.7892 -0.53333 0
M  V30 160 C 15.0649 -0.916609 -1.73473 0
M  V30 161 O 14.1899 -0.121336 -2.1606 0
M  V30 162 C 14.7849 -3.24488 -0.974313 0
M  V30 163 C 13.3439 -3.46878 -1.46125 0
M  V30 164 C 12.4909 -2.74157 -0.416302 0
M  V30 165 H 15.4419 -1.56958 0.234495 0
M  V30 166 H 15.4629 -3.3306 -1.83988 0
M  V30 167 H 14.9749 -3.87972 -0.099718 0
M  V30 168 H 13.0759 -2.8862 -2.35646 0
M  V30 169 H 13.1889 -4.55572 -1.48295 0
M  V30 170 H 11.5529 -2.39022 -0.87981 0
M  V30 171 H 12.3359 -3.40345 0.44947 0
M  V30 172 N 14.781 0.264519 -1.55364 0
M  V30 173 C 16.197 0.61215 -1.47394 0
M  V30 174 C 16.397 1.89134 -0.695018 0
M  V30 175 O 15.453 2.51563 -0.217275 0
M  V30 176 C 16.766 0.731235 -2.91674 0
M  V30 177 C 18.314 0.82473 -3.01939 0
M  V30 178 C 18.789 0.975522 -4.4749 0
M  V30 179 N 20.28 1.04083 -4.51354 0
M  V30 180 C 21.015 1.17646 -5.61201 0
M  V30 181 N 20.511 1.27874 -6.80896 0
M  V30 182 N 22.304 1.20823 -5.48961 0
M  V30 183 H 14.455 -0.575456 -2.04456 0
M  V30 184 H 16.718 -0.196099 -0.927496 0
M  V30 185 H 16.424 -0.138392 -3.51428 0
M  V30 186 H 16.298 1.60883 -3.41169 0
M  V30 187 H 18.685 1.68482 -2.42276 0
M  V30 188 H 18.766 -0.0776479 -2.55682 0
M  V30 189 H 18.41 0.120058 -5.07758 0
M  V30 190 H 18.34 1.89268 -4.91412 0
M  V30 191 H 20.831 0.973846 -3.65136 0
M  V30 192 H 21.144 1.38081 -7.60364 0
M  V30 193 H 19.489 1.24863 -6.83692 0
M  V30 194 H 22.68 1.12469 -4.54388 0
M  V30 195 H 22.853 1.31049 -6.3461 0
M  V30 196 N 16.2591 1.48442 0.529413 0
M  V30 197 C 17.5071 1.56179 1.28267 0
M  V30 198 C 17.8281 0.237721 1.93546 0
M  V30 199 O 17.0981 -0.740779 1.81354 0
M  V30 200 H 15.6781 0.575367 0.476405 0
M  V30 201 H 18.3401 1.84909 0.61602 0
M  V30 202 H 17.4361 2.34312 2.06165 0
M  V30 203 N 17.7372 -0.778329 1.37039 0
M  V30 204 C 18.6672 -1.90546 1.34962 0
M  V30 205 C 19.6482 -1.68681 0.219274 0
M  V30 206 O 20.8332 -1.89634 0.418624 0
M  V30 207 C 17.9632 -3.27734 1.14925 0
M  V30 208 C 16.9172 -3.64147 2.24902 0
M  V30 209 C 16.2432 -4.99806 1.89996 0
M  V30 210 C 17.5432 -3.71579 3.67051 0
M  V30 211 H 19.2372 -1.92541 2.29277 0
M  V30 212 H 16.7832 -0.924948 1.10366 0
M  V30 213 H 18.7362 -4.06215 1.12104 0
M  V30 214 H 17.4602 -3.26154 0.170631 0
M  V30 215 H 16.1192 -2.8797 2.26868 0
M  V30 216 H 15.7672 -4.94759 0.906796 0
M  V30 217 H 15.4672 -5.25139 2.63634 0
M  V30 218 H 16.9912 -5.80694 1.88749 0
M  V30 219 H 18.4052 -4.40227 3.67251 0
M  V30 220 H 16.8022 -4.08405 4.39688 0
M  V30 221 H 17.8722 -2.72404 4.01154 0
M  V30 222 N 19.2153 -1.21501 -1.00376 0
M  V30 223 C 20.4613 -1.03452 -1.74429 0
M  V30 224 C 20.7943 0.430764 -1.89362 0
M  V30 225 O 20.0693 1.31962 -1.42886 0
M  V30 226 C 20.3523 -1.73375 -3.15615 0
M  V30 227 C 20.2053 -3.27431 -3.08397 0
M  V30 228 C 21.5243 -1.47732 -4.14564 0
M  V30 229 H 18.6433 -0.377226 -0.633143 0
M  V30 230 H 21.2853 -1.49693 -1.17013 0
M  V30 231 H 19.4353 -1.34064 -3.64636 0
M  V30 232 H 21.1073 -3.76119 -2.67081 0
M  V30 233 H 19.3503 -3.5767 -2.45468 0
M  V30 234 H 20.0213 -3.71524 -4.08258 0
M  V30 235 H 22.4973 -1.8186 -3.74254 0
M  V30 236 H 21.3733 -1.99169 -5.11491 0
M  V30 237 H 21.6343 -0.407589 -4.40217 0
M  V30 238 N 20.6934 1.19889 -1.02296 0
M  V30 239 C 21.9394 1.89701 -0.717033 0
M  V30 240 C 22.2724 1.7905 0.751989 0
M  V30 241 O 21.5474 1.17891 1.547 0
M  V30 242 C 21.8304 3.40858 -1.16136 0
M  V30 243 C 21.6834 3.60411 -2.69117 0
M  V30 244 C 23.0024 4.33876 -0.737549 0
M  V30 245 H 20.1214 0.688874 -0.261957 0
M  V30 246 H 22.7634 1.41154 -1.27183 0
M  V30 247 H 20.9134 3.82335 -0.689342 0
M  V30 248 H 22.5854 3.28145 -3.2422 0
M  V30 249 H 20.8284 3.03665 -3.0979 0
M  V30 250 H 21.4994 4.66396 -2.95261 0
M  V30 251 H 23.9754 4.00081 -1.14344 0
M  V30 252 H 22.8514 5.38242 -1.0764 0
M  V30 253 H 23.1124 4.40628 0.360436 0
M  V30 254 N 22.1715 0.800033 1.35784 0
M  V30 255 C 23.1015 0.220184 2.3246 0
M  V30 256 C 24.0825 -0.65073 1.57161 0
M  V30 257 O 25.2675 -0.582359 1.85263 0
M  V30 258 C 22.3975 -0.637353 3.41402 0
M  V30 259 C 21.3515 0.134531 4.27789 0
M  V30 260 C 20.6775 -0.844285 5.27992 0
M  V30 261 C 21.9775 1.32979 5.05088 0
M  V30 262 H 23.6715 1.02787 2.81203 0
M  V30 263 H 21.2175 0.495717 1.35199 0
M  V30 264 H 23.1705 -1.05302 4.08031 0
M  V30 265 H 21.8945 -1.47785 2.91251 0
M  V30 266 H 20.5535 0.531296 3.6273 0
M  V30 267 H 20.2015 -1.68011 4.74111 0
M  V30 268 H 19.9015 -0.332184 5.8666 0
M  V30 269 H 21.4255 -1.2583 5.97494 0
M  V30 270 H 22.8395 0.98934 5.64699 0
M  V30 271 H 21.2365 1.77593 5.7322 0
M  V30 272 H 22.3065 2.11978 4.36111 0
M  V30 273 N 23.6496 -1.47581 0.552962 0
M  V30 274 C 24.8976 -2.02082 0.0272703 0
M  V30 275 C 25.2186 -1.4301 -1.32563 0
M  V30 276 O 24.4886 -0.603745 -1.86365 0
M  V30 277 H 23.0686 -0.746966 0.00709182 0
M  V30 278 H 25.7306 -1.81033 0.722008 0
M  V30 279 H 24.8266 -3.12034 -0.0639951 0
M  V30 280 N 25.1277 -0.289203 -1.54924 0
M  V30 281 C 26.3747 0.323519 -1.99899 0
M  V30 282 C 26.7027 1.54797 -1.17762 0
M  V30 283 O 25.9577 1.94237 -0.238835 0
M  V30 284 C 26.2567 0.736119 -3.49737 0
M  V30 285 C 25.9227 -0.385276 -4.49251 0
M  V30 286 C 24.5847 -0.693156 -4.76181 0
M  V30 287 C 26.9367 -1.14021 -5.08575 0
M  V30 288 C 24.2647 -1.7593 -5.59701 0
M  V30 289 C 26.6167 -2.19619 -5.93254 0
M  V30 290 C 25.2807 -2.51026 -6.185 0
M  V30 291 H 24.5507 0.118384 -0.731482 0
M  V30 292 H 27.1977 -0.405847 -1.8715 0
M  V30 293 H 25.5027 1.54539 -3.60035 0
M  V30 294 H 27.1997 1.22118 -3.81953 0
M  V30 295 H 23.7897 -0.135202 -4.28387 0
M  V30 296 H 27.9737 -0.915611 -4.87781 0
M  V30 297 H 23.2297 -2.0075 -5.77503 0
M  V30 298 H 27.4037 -2.78581 -6.38252 0
M  V30 299 H 25.0307 -3.33772 -6.83008 0
M  V30 300 N 26.6058 1.57591 -0.0167156 0
M  V30 301 C 28.0168 1.79201 0.523834 0
M  V30 302 C 28.3678 0.925796 1.72984 0
M  V30 303 O 27.4928 0.132792 2.15992 0
M  V30 304 C 28.0878 3.25 0.957091 0
M  V30 305 C 26.6468 3.47648 1.44283 0
M  V30 306 C 25.7938 2.74374 0.401757 0
M  V30 307 H 28.7448 1.56831 -0.242816 0
M  V30 308 H 28.7658 3.34031 1.82219 0
M  V30 309 H 28.2778 3.88019 0.0791415 0
M  V30 310 H 26.3788 2.89866 2.34113 0
M  V30 311 H 26.4918 4.56352 1.45877 0
M  V30 312 H 24.8558 2.39485 0.867121 0
M  V30 313 H 25.6388 3.40102 -0.467513 0
M  V30 314 N 28.0839 -0.256276 1.55502 0
M  V30 315 C 29.3239 -0.993081 1.78654 0
M  V30 316 C 29.6879 -1.8288 0.584724 0
M  V30 317 O 30.8889 -2.59665 0.694822 0
M  V30 318 C 29.1599 -1.83856 3.06483 0
M  V30 319 S 30.7189 -2.63573 3.5082 0
M  V30 320 H 27.5369 -0.334199 0.62756 0
M  V30 321 H 30.1389 -0.26184 1.93739 0
M  V30 322 H 28.8429 -1.21414 3.92029 0
M  V30 323 H 28.3739 -2.61271 2.94111 0
M  V30 324 H 30.3889 -3.86312 3.11412 0
M  V30 325 N 29.562 -1.4872 -0.521534 0
M  V30 326 C 30.51 -1.64328 -1.64618 0
M  V30 327 C 31.504 -0.50953 -1.61555 0
M  V30 328 O 32.71 -0.688525 -1.66311 0
M  V30 329 H 29.085 -0.517805 -0.545328 0
M  V30 330 H 31.056 -2.58767 -1.48601 0
M  V30 331 C 29.805 -1.70805 -3.02855 0
M  V30 332 H 29.128 -2.5741 -3.05909 0
M  V30 333 H 30.568 -1.85766 -3.81139 0
M  V30 334 C 29.027 -0.448479 -3.33902 0
M  V30 335 O 29.557 0.434928 -3.99339 0
M  V30 336 N 27.763 -0.317616 -2.88859 0
M  V30 337 H 27.31 -1.03748 -2.35784 0
M  V30 338 H 27.268 0.524113 -3.10001 0
M  V30 339 N 31.0401 0.771051 -1.3745 0
M  V30 340 C 31.9721 1.89352 -1.29146 0
M  V30 341 C 32.9851 1.61477 -0.207124 0
M  V30 342 O 34.1741 1.72382 -0.463324 0
M  V30 343 C 31.2741 3.24596 -0.974195 0
M  V30 344 C 30.4471 3.80111 -2.16413 0
M  V30 345 C 29.5061 4.93832 -1.81703 0
M  V30 346 O 28.5321 5.09382 -2.54006 0
M  V30 347 N 29.7341 5.75483 -0.761573 0
M  V30 348 H 32.4991 1.96991 -2.25864 0
M  V30 349 H 30.0601 0.950191 -1.31084 0
M  V30 350 H 32.0521 3.98193 -0.722828 0
M  V30 351 H 30.6221 3.12454 -0.0955527 0
M  V30 352 H 29.8421 2.98284 -2.57721 0
M  V30 353 H 31.1301 4.13932 -2.95867 0
M  V30 354 H 30.5281 5.65469 -0.161609 0
M  V30 355 H 29.0851 6.49302 -0.570064 0
M  V30 356 N 32.5182 1.22032 0.997298 0
M  V30 357 C 33.7652 1.04222 1.73621 0
M  V30 358 C 34.0932 -0.423264 1.89839 0
M  V30 359 O 33.3482 -1.3302 1.43542 0
M  V30 360 C 33.6472 1.69345 3.14733 0
M  V30 361 C 33.3132 3.19226 3.18442 0
M  V30 362 C 31.9752 3.60124 3.19161 0
M  V30 363 C 34.3272 4.15181 3.15078 0
M  V30 364 C 31.6552 4.95467 3.14212 0
M  V30 365 C 34.0072 5.50495 3.1167 0
M  V30 366 C 32.6712 5.90779 3.10703 0
M  V30 367 H 31.9412 0.381374 0.635323 0
M  V30 368 H 34.5882 1.51732 1.16831 0
M  V30 369 H 32.8932 1.14147 3.74803 0
M  V30 370 H 34.5902 1.53059 3.7064 0
M  V30 371 H 31.1802 2.86659 3.18629 0
M  V30 372 H 35.3642 3.84605 3.13676 0
M  V30 373 H 30.6202 5.25916 3.11805 0
M  V30 374 H 34.7942 6.24576 3.08022 0
M  V30 375 H 32.4212 6.9562 3.06622 0
M  V30 376 N 33.9963 -1.19345 1.0293 0
M  V30 377 C 35.2443 -1.88665 0.724574 0
M  V30 378 C 35.5653 -1.80036 -0.749144 0
M  V30 379 O 34.8353 -1.2111 -1.53978 0
M  V30 380 H 33.4153 -0.698406 0.265025 0
M  V30 381 H 36.0773 -1.44885 1.30362 0
M  V30 382 H 35.1733 -2.94987 1.01926 0
M  V30 383 N 35.4744 -0.807222 -1.35358 0
M  V30 384 C 36.4244 -0.190706 -2.27201 0
M  V30 385 C 37.4084 0.635838 -1.47804 0
M  V30 386 O 38.6004 0.492991 -1.69996 0
M  V30 387 C 35.7294 0.659337 -3.36909 0
M  V30 388 C 34.8154 -0.176971 -4.23731 0
M  V30 389 N 35.2064 -1.24029 -4.90357 0
M  V30 390 C 33.5044 0.0412953 -4.45981 0
M  V30 391 C 34.2054 -1.75092 -5.54723 0
M  V30 392 N 33.1814 -1.05727 -5.33219 0
M  V30 393 H 36.9834 -1.0043 -2.76208 0
M  V30 394 H 34.4974 -0.648445 -1.48892 0
M  V30 395 H 36.4944 1.11706 -4.01656 0
M  V30 396 H 35.1544 1.47127 -2.89454 0
M  V30 397 H 36.1654 -1.62295 -4.91814 0
M  V30 398 H 32.8424 0.82232 -4.09322 0
M  V30 399 H 34.2324 -2.63963 -6.17878 0
M  V30 400 N 36.9525 1.47285 -0.560781 0
M  V30 401 C 37.8845 2.28118 0.222438 0
M  V30 402 C 38.8975 1.37219 0.876056 0
M  V30 403 O 40.0865 1.62011 0.749307 0
M  V30 404 C 37.1865 3.1159 1.33285 0
M  V30 405 C 36.3595 4.30473 0.77534 0
M  V30 406 C 35.4185 4.95513 1.77069 0
M  V30 407 O 34.4445 5.53792 1.31539 0
M  V30 408 N 35.6465 4.90531 3.10418 0
M  V30 409 H 38.4115 2.95976 -0.470958 0
M  V30 410 H 35.9725 1.56955 -0.39709 0
M  V30 411 H 37.9645 3.51967 1.99752 0
M  V30 412 H 36.5345 2.45951 1.92943 0
M  V30 413 H 35.7545 3.94144 -0.0662113 0
M  V30 414 H 37.0425 5.07362 0.382272 0
M  V30 415 H 36.4405 4.44389 3.5005 0
M  V30 416 H 34.9975 5.34917 3.72434 0
M  V30 417 N 38.4306 0.297415 1.54768 0
M  V30 418 C 39.3406 -0.58983 2.27064 0
M  V30 419 C 40.3566 -1.15144 1.30453 0
M  V30 420 O 41.5326 -1.17699 1.63428 0
M  V30 421 C 38.5976 -1.74714 2.9946 0
M  V30 422 C 37.6586 -1.21997 4.11601 0
M  V30 423 C 36.8916 -2.32212 4.80535 0
M  V30 424 O 37.1146 -3.52036 4.48806 0
M  V30 425 O 36.0486 -1.99106 5.68014 0
M  V30 426 H 39.8746 -0.00348199 3.037 0
M  V30 427 H 37.4596 0.0640035 1.49263 0
M  V30 428 H 39.3416 -2.42147 3.44881 0
M  V30 429 H 38.0166 -2.32016 2.25722 0
M  V30 430 H 36.9236 -0.511458 3.70587 0
M  V30 431 H 38.2566 -0.692419 4.87305 0
M  V30 432 N 39.9087 -1.5758 0.0250728 0
M  V30 433 C 40.8567 -2.11125 -0.97617 0
M  V30 434 C 41.8507 -1.03689 -1.33959 0
M  V30 435 O 43.0567 -1.22128 -1.3223 0
M  V30 436 H 39.4317 -0.674468 -0.332561 0
M  V30 437 H 41.4027 -2.94194 -0.499223 0
M  V30 438 C 40.1517 -2.65017 -2.2508 0
M  V30 439 H 39.4747 -3.47333 -1.9799 0
M  V30 440 H 40.9147 -3.06133 -2.93357 0
M  V30 441 C 39.3737 -1.57574 -2.97779 0
M  V30 442 O 39.9037 -0.973203 -3.89733 0
M  V30 443 N 38.1097 -1.29716 -2.60043 0
M  V30 444 H 37.6567 -1.789 -1.85345 0
M  V30 445 H 37.6147 -0.58051 -3.08994 0
M  V30 446 N 41.3868 0.248026 -1.55636 0
M  V30 447 C 42.3498 1.29044 -1.89421 0
M  V30 448 C 43.3498 1.41134 -0.770581 0
M  V30 449 O 44.5398 1.39854 -1.03858 0
M  V30 450 C 41.6718 2.66831 -2.12165 0
M  V30 451 H 42.8648 1.00305 -2.82629 0
M  V30 452 H 40.4178 0.487265 -1.48511 0
M  V30 453 H 41.1528 3.00711 -1.21422 0
M  V30 454 H 40.9378 2.59438 -2.93997 0
M  V30 455 H 42.4278 3.42103 -2.3949 0
M  V30 456 N 42.8649 1.48995 0.513639 0
M  V30 457 C 43.8119 1.6473 1.61656 0
M  V30 458 C 44.7819 0.488984 1.58739 0
M  V30 459 O 45.9669 0.714478 1.76918 0
M  V30 460 C 43.1069 1.7082 2.99858 0
M  V30 461 C 42.2199 2.9787 3.12885 0
M  V30 462 C 41.3549 2.95017 4.41744 0
M  V30 463 C 40.3939 4.16702 4.48359 0
M  V30 464 N 39.5309 4.11832 5.68629 0
M  V30 465 H 44.3709 2.58909 1.47547 0
M  V30 466 H 41.9079 1.28382 0.71808 0
M  V30 467 H 43.8659 1.72331 3.79944 0
M  V30 468 H 42.4959 0.801181 3.12699 0
M  V30 469 H 41.5479 3.06029 2.25944 0
M  V30 470 H 42.8599 3.8786 3.13633 0
M  V30 471 H 42.0139 2.95021 5.30139 0
M  V30 472 H 40.7529 2.02784 4.43542 0
M  V30 473 H 39.7579 4.16955 3.58369 0
M  V30 474 H 40.9829 5.10113 4.48287 0
M  V30 475 H 38.9289 3.22428 5.71293 0
M  V30 476 H 38.8459 4.95543 5.7094 0
M  V30 477 H 40.1139 4.1592 6.59266 0
M  V30 478 N 44.343 -0.763751 1.37857 0
M  V30 479 C 45.291 -1.89864 1.34367 0
M  V30 480 C 46.285 -1.67816 0.231143 0
M  V30 481 O 47.491 -1.75508 0.399617 0
M  V30 482 H 43.866 -0.624501 0.41893 0
M  V30 483 H 45.837 -1.89925 2.30155 0
M  V30 484 C 44.586 -3.27227 1.1755 0
M  V30 485 H 43.909 -3.44773 2.02414 0
M  V30 486 H 45.349 -4.06911 1.1916 0
M  V30 487 C 43.808 -3.36692 -0.118311 0
M  V30 488 O 44.338 -3.86374 -1.09902 0
M  V30 489 N 42.544 -2.90092 -0.171717 0
M  V30 490 H 42.091 -2.49853 0.627012 0
M  V30 491 H 42.049 -2.96806 -1.03699 0
M  V30 492 N 45.8211 -1.22559 -0.990812 0
M  V30 493 C 46.7311 -1.01394 -2.11557 0
M  V30 494 C 47.7471 0.0383962 -1.73958 0
M  V30 495 O 48.9231 -0.154787 -2.00804 0
M  V30 496 C 45.9881 -0.596569 -3.41529 0
M  V30 497 C 45.0491 -1.72276 -3.93217 0
M  V30 498 C 44.2821 -1.32521 -5.16985 0
M  V30 499 O 44.5051 -0.204909 -5.70032 0
M  V30 500 O 43.4391 -2.14247 -5.62478 0
M  V30 501 H 47.2651 -1.95633 -2.32296 0
M  V30 502 H 44.8501 -1.01172 -1.0993 0
M  V30 503 H 46.7321 -0.374263 -4.19735 0
M  V30 504 H 45.4071 0.316939 -3.22145 0
M  V30 505 H 44.3141 -1.99961 -3.16174 0
M  V30 506 H 45.6471 -2.61421 -4.17037 0
M  V30 507 N 47.2992 1.18797 -1.03562 0
M  V30 508 C 48.2092 2.25913 -0.632505 0
M  V30 509 C 49.2252 1.70668 0.338882 0
M  V30 510 O 50.4012 2.00453 0.195076 0
M  V30 511 C 47.4662 3.467 0.00350942 0
M  V30 512 C 46.5272 4.17098 -1.01624 0
M  V30 513 C 45.7602 5.32119 -0.410478 0
M  V30 514 O 45.9832 5.64976 0.784725 0
M  V30 515 O 44.9172 5.9107 -1.13667 0
M  V30 516 H 48.7432 2.62648 -1.52478 0
M  V30 517 H 46.3282 1.25781 -0.806195 0
M  V30 518 H 48.2102 4.19878 0.35781 0
M  V30 519 H 46.8852 3.11798 0.869686 0
M  V30 520 H 45.7922 3.4601 -1.42224 0
M  V30 521 H 47.1252 4.55987 -1.85301 0
M  V30 522 N 48.7773 0.814389 1.34928 0
M  V30 523 C 50.0263 0.394871 1.97797 0
M  V30 524 C 50.3393 -1.04555 1.65311 0
M  V30 525 O 51.5453 -1.56856 2.21604 0
M  V30 526 C 50.0013 0.655103 3.53888 0
M  V30 527 C 49.6093 2.10858 3.95276 0
M  V30 528 C 51.3533 0.301329 4.23429 0
M  V30 529 C 49.2603 2.31415 5.44244 0
M  V30 530 H 48.1903 0.143913 0.740139 0
M  V30 531 H 50.8413 0.999544 1.53888 0
M  V30 532 H 49.2233 -0.0196253 3.95995 0
M  V30 533 H 50.3973 2.82176 3.64298 0
M  V30 534 H 48.7123 2.42297 3.38646 0
M  V30 535 H 51.3093 0.432869 5.32945 0
M  V30 536 H 51.6523 -0.75331 4.09428 0
M  V30 537 H 52.1853 0.930288 3.86769 0
M  V30 538 H 48.9243 3.35353 5.63222 0
M  V30 539 H 48.4443 1.6463 5.76764 0
M  V30 540 H 50.1233 2.13352 6.10811 0
M  V30 541 N 50.2554 -1.46986 0.568584 0
M  V30 542 C 51.1854 -2.32946 -0.160753 0
M  V30 543 C 52.1664 -1.44487 -0.897631 0
M  V30 544 O 53.3514 -1.73327 -0.875867 0
M  V30 545 C 50.4814 -3.26494 -1.18403 0
M  V30 546 C 49.4354 -4.24282 -0.562895 0
M  V30 547 C 48.7614 -5.07236 -1.69163 0
M  V30 548 C 50.0614 -5.19989 0.490761 0
M  V30 549 H 51.7554 -2.94175 0.556916 0
M  V30 550 H 49.3014 -1.4146 0.26927 0
M  V30 551 H 51.2544 -3.85477 -1.70251 0
M  V30 552 H 49.9784 -2.63343 -1.93179 0
M  V30 553 H 48.6374 -3.66541 -0.0656164 0
M  V30 554 H 48.2854 -4.4048 -2.42871 0
M  V30 555 H 47.9854 -5.7345 -1.28174 0
M  V30 556 H 49.5094 -5.6908 -2.21314 0
M  V30 557 H 50.9234 -5.73271 0.0579047 0
M  V30 558 H 49.3204 -5.94469 0.820165 0
M  V30 559 H 50.3904 -4.64777 1.3824 0
M  V30 560 N 51.7335 -0.305618 -1.54608 0
M  V30 561 C 52.6815 0.584119 -2.25146 0
M  V30 562 C 53.6755 1.13326 -1.25911 0
M  V30 563 O 54.8815 1.08337 -1.43747 0
M  V30 564 H 51.2565 0.206983 -0.722954 0
M  V30 565 H 53.2275 -0.033291 -2.98381 0
M  V30 566 C 51.9765 1.74225 -3.009 0
M  V30 567 H 51.2995 1.32892 -3.77067 0
M  V30 568 H 52.7395 2.34077 -3.53531 0
M  V30 569 C 51.1985 2.64914 -2.0814 0
M  V30 570 O 51.7285 3.66137 -1.65246 0
M  V30 571 N 49.9345 2.3275 -1.74 0
M  V30 572 H 49.4815 1.50479 -2.09078 0
M  V30 573 H 49.4395 2.93694 -1.12211 0
M  V30 574 N 53.2116 1.57565 -0.0334293 0
M  V30 575 C 54.4366 1.96689 0.657895 0
M  V30 576 C 54.8616 0.910057 1.64619 0
M  V30 577 O 54.2196 -0.128598 1.80843 0
M  V30 578 C 54.2676 3.34905 1.33683 0
M  V30 579 O 53.3716 3.31574 2.45219 0
M  V30 580 H 52.7126 0.641205 0.172489 0
M  V30 581 H 55.2426 2.04372 -0.0965621 0
M  V30 582 H 55.2526 3.71234 1.69262 0
M  V30 583 H 53.9276 4.11366 0.612411 0
M  V30 584 H 52.5046 3.06968 2.11719 0
M  V30 585 N 54.6897 -0.239769 1.55765 0
M  V30 586 C 55.6197 -1.30052 1.9393 0
M  V30 587 C 56.6007 -1.49839 0.805132 0
M  V30 588 O 57.7857 -1.62328 1.06599 0
M  V30 589 C 54.9157 -2.65391 2.2402 0
M  V30 590 C 53.8697 -2.60289 3.39755 0
M  V30 591 C 53.1957 -3.99489 3.55405 0
M  V30 592 C 54.4957 -2.16654 4.75246 0
M  V30 593 H 56.1897 -0.983573 2.82783 0
M  V30 594 H 53.7357 -0.471701 1.36055 0
M  V30 595 H 55.6887 -3.3974 2.49308 0
M  V30 596 H 54.4127 -2.98736 1.32 0
M  V30 597 H 53.0717 -1.88398 3.14487 0
M  V30 598 H 52.7197 -4.30112 2.60793 0
M  V30 599 H 52.4197 -3.96962 4.33238 0
M  V30 600 H 53.9437 -4.75528 3.83022 0
M  V30 601 H 55.3577 -2.80737 4.99859 0
M  V30 602 H 53.7547 -2.25223 5.56232 0
M  V30 603 H 54.8247 -1.11835 4.71827 0
M  V30 604 N 56.1678 -1.49265 -0.50573 0
M  V30 605 C 57.1148 -1.65585 -1.6078 0
M  V30 606 C 58.0848 -0.497396 -1.58478 0
M  V30 607 O 59.2698 -0.72385 -1.76536 0
M  V30 608 C 56.4098 -1.72408 -2.98948 0
M  V30 609 C 55.5228 -2.99525 -3.11301 0
M  V30 610 C 54.6578 -2.97356 -4.40174 0
M  V30 611 C 53.6968 -4.19074 -4.46143 0
M  V30 612 N 52.8338 -4.14841 -5.66437 0
M  V30 613 H 57.6738 -2.59688 -1.46172 0
M  V30 614 H 55.2108 -1.28761 -0.711261 0
M  V30 615 H 57.1688 -1.74344 -3.79025 0
M  V30 616 H 55.7988 -0.817753 -3.1227 0
M  V30 617 H 54.8508 -3.07222 -2.24318 0
M  V30 618 H 56.1628 -3.89518 -3.11572 0
M  V30 619 H 55.3168 -2.97829 -5.28567 0
M  V30 620 H 54.0558 -2.05133 -4.42461 0
M  V30 621 H 53.0608 -4.1885 -3.56153 0
M  V30 622 H 54.2858 -5.12483 -4.45575 0
M  V30 623 H 52.2318 -3.25453 -5.69575 0
M  V30 624 H 52.1488 -4.98564 -5.68304 0
M  V30 625 H 53.4168 -4.1941 -6.57051 0
M  V30 626 N 57.6459 0.756429 -1.3826 0
M  V30 627 C 58.8759 1.54341 -1.3734 0
M  V30 628 C 59.2839 1.89159 0.0393917 0
M  V30 629 O 58.6269 1.5307 1.01565 0
M  V30 630 C 58.6889 2.87238 -2.16182 0
M  V30 631 C 58.3529 2.74973 -3.65019 0
M  V30 632 C 59.3499 2.44962 -4.58574 0
M  V30 633 C 57.0349 2.92515 -4.08338 0
M  V30 634 C 59.0289 2.32642 -5.93428 0
M  V30 635 C 56.7159 2.79815 -5.43274 0
M  V30 636 C 57.7139 2.49921 -6.35632 0
M  V30 637 O 57.4019 2.37275 -7.68086 0
M  V30 638 H 57.1339 0.484281 -0.471643 0
M  V30 639 H 59.6879 0.944152 -1.82414 0
M  V30 640 H 57.9179 3.49342 -1.65822 0
M  V30 641 H 59.6069 3.48731 -2.07705 0
M  V30 642 H 60.3729 2.31081 -4.26412 0
M  V30 643 H 56.2519 3.14781 -3.368 0
M  V30 644 H 59.7959 2.0923 -6.65484 0
M  V30 645 H 55.6929 2.93269 -5.75034 0
M  V30 646 H 56.4609 2.52509 -7.78577 0
M  V30 647 N 59.124 1.23083 0.984299 0
M  V30 648 C 60.37 1.06214 1.72761 0
M  V30 649 C 60.703 -0.400584 1.90024 0
M  V30 650 O 59.978 -1.29672 1.44967 0
M  V30 651 C 60.261 1.78375 3.12817 0
M  V30 652 C 60.114 3.32296 3.03149 0
M  V30 653 C 61.433 1.54309 4.12161 0
M  V30 654 H 58.552 0.387251 0.627061 0
M  V30 655 H 61.194 1.51536 1.14616 0
M  V30 656 H 59.344 1.39848 3.62457 0
M  V30 657 H 61.016 3.8032 2.61064 0
M  V30 658 H 59.259 3.6153 2.39747 0
M  V30 659 H 59.93 3.77972 4.02295 0
M  V30 660 H 62.406 1.87791 3.71314 0
M  V30 661 H 61.282 2.07281 5.08258 0
M  V30 662 H 61.543 0.477572 4.39513 0
M  V30 663 N 60.6021 -1.18246 1.0419 0
M  V30 664 C 62.0181 -1.40269 0.761366 0
M  V30 665 C 62.2181 -1.90777 -0.648578 0
M  V30 666 O 61.2741 -2.0929 -1.41258 0
M  V30 667 C 62.5871 -2.40237 1.8085 0
M  V30 668 C 64.1351 -2.53961 1.82955 0
M  V30 669 C 64.6101 -3.57194 2.86664 0
M  V30 670 N 66.1011 -3.64702 2.85563 0
M  V30 671 C 66.8361 -4.44309 3.6246 0
M  V30 672 N 66.3321 -5.27514 4.49111 0
M  V30 673 N 68.1251 -4.39084 3.50944 0
M  V30 674 H 60.2761 -0.837882 1.95175 0
M  V30 675 H 62.5391 -0.430608 0.84456 0
M  V30 676 H 62.2451 -2.10176 2.81991 0
M  V30 677 H 62.1191 -3.39601 1.64168 0
M  V30 678 H 64.5061 -2.83338 0.824855 0
M  V30 679 H 64.5871 -1.54706 2.03715 0
M  V30 680 H 64.2311 -3.28558 3.87314 0
M  V30 681 H 64.1611 -4.5613 2.6316 0
M  V30 682 H 66.6521 -3.05289 2.22727 0
M  V30 683 H 66.9651 -5.85411 5.04493 0
M  V30 684 H 65.3101 -5.2693 4.53178 0
M  V30 685 H 68.5011 -3.7313 2.82651 0
M  V30 686 H 68.6741 -5.00883 4.11121 0
M  V30 687 N 62.0802 -0.821533 -1.34494 0
M  V30 688 C 63.4912 -0.467956 -1.8074 0
M  V30 689 C 63.8422 1.01151 -1.68116 0
M  V30 690 O 62.9672 1.78707 -1.22036 0
M  V30 691 C 63.5622 -0.842627 -3.28154 0
M  V30 692 C 62.1212 -0.541439 -3.72485 0
M  V30 693 C 61.2682 -1.06028 -2.56229 0
M  V30 694 H 64.2192 -1.01183 -1.22261 0
M  V30 695 H 64.2402 -0.145876 -3.8022 0
M  V30 696 H 63.7522 -1.91945 -3.37311 0
M  V30 697 H 61.8532 0.526034 -3.68868 0
M  V30 698 H 61.9662 -1.08453 -4.66663 0
M  V30 699 H 60.3302 -0.481892 -2.501 0
M  V30 700 H 61.1132 -2.14352 -2.68157 0
M  V30 701 N 63.5583 1.46682 -0.576371 0
M  V30 702 C 64.8063 2.02013 -0.0594163 0
M  V30 703 C 65.1273 1.45101 1.30271 0
M  V30 704 O 64.3973 0.633317 1.8538 0
M  V30 705 H 62.9773 0.746759 -0.0189745 0
M  V30 706 H 65.6393 1.79862 -0.750717 0
M  V30 707 H 64.7353 3.12097 0.014345 0
M  V30 708 N 65.0364 0.313813 1.54444 0
M  V30 709 C 66.2844 -0.291099 1.99993 0
M  V30 710 C 66.6054 -1.53418 1.20366 0
M  V30 711 O 65.8754 -1.93544 0.302927 0
M  V30 712 H 64.4554 -0.110552 0.738774 0
M  V30 713 H 67.1174 0.428106 1.9014 0
M  V30 714 H 66.2134 -0.554268 3.07139 0
M  V30 715 N 66.5145 -1.57545 0.0417849 0
M  V30 716 C 67.7625 -1.91937 -0.632829 0
M  V30 717 C 68.0835 -0.919978 -1.71934 0
M  V30 718 O 67.3535 0.0366064 -1.95866 0
M  V30 719 H 65.9335 -0.708493 -0.236742 0
M  V30 720 H 68.5955 -1.9468 0.0925745 0
M  V30 721 H 67.6915 -2.92912 -1.07746 0
M  V30 722 N 67.9926 0.231505 -1.5589 0
M  V30 723 C 69.2396 0.957352 -1.78441 0
M  V30 724 C 69.5676 1.84726 -0.60882 0
M  V30 725 O 68.8226 1.91416 0.40725 0
M  V30 726 C 69.1216 1.83577 -3.0665 0
M  V30 727 C 68.7876 1.09993 -4.37278 0
M  V30 728 C 67.4496 0.896629 -4.72773 0
M  V30 729 C 69.8016 0.579558 -5.17968 0
M  V30 730 C 67.1296 0.160896 -5.86479 0
M  V30 731 C 69.4816 -0.142783 -6.32439 0
M  V30 732 C 68.1456 -0.357427 -6.66542 0
M  V30 733 H 67.4156 0.35032 -0.65296 0
M  V30 734 H 70.0626 0.226259 -1.90159 0
M  V30 735 H 68.3676 2.63441 -2.90011 0
M  V30 736 H 70.0646 2.39934 -3.21298 0
M  V30 737 H 66.6546 1.26835 -4.09403 0
M  V30 738 H 70.8386 0.724125 -4.90989 0
M  V30 739 H 66.0946 -0.0157293 -6.11398 0
M  V30 740 H 70.2686 -0.553559 -6.94196 0
M  V30 741 H 67.8956 -0.929466 -7.54497 0
M  V30 742 N 69.4707 1.49531 0.497807 0
M  V30 743 C 70.3807 1.69176 1.62532 0
M  V30 744 C 71.3967 0.5744 1.64246 0
M  V30 745 O 72.5727 0.849497 1.82608 0
M  V30 746 C 69.6377 1.75695 2.98885 0
M  V30 747 C 68.6987 2.9929 3.07773 0
M  V30 748 C 67.9317 3.05488 4.37622 0
M  V30 749 O 68.1547 2.19192 5.26603 0
M  V30 750 O 67.0887 3.9798 4.51548 0
M  V30 751 H 70.9147 2.647 1.48887 0
M  V30 752 H 68.4997 1.3331 0.674441 0
M  V30 753 H 70.3817 1.82317 3.79919 0
M  V30 754 H 69.0567 0.8335 3.12785 0
M  V30 755 H 67.9637 2.98183 2.25915 0
M  V30 756 H 69.2967 3.91125 2.98801 0
M  V30 757 N 70.9488 -0.749086 1.3866 0
M  V30 758 C 72.3598 -1.32664 1.31366 0
M  V30 759 C 72.7108 -1.96179 -0.028484 0
M  V30 760 O 71.8358 -1.9537 -0.93057 0
M  V30 761 C 72.4308 -2.41219 2.37905 0
M  V30 762 C 70.9898 -2.94684 2.34176 0
M  V30 763 C 70.1368 -1.68108 2.20533 0
M  V30 764 H 73.0878 -0.547628 1.48952 0
M  V30 765 H 73.1088 -3.21268 2.0388 0
M  V30 766 H 72.6208 -1.94962 3.35576 0
M  V30 767 H 70.7218 -3.45258 1.401 0
M  V30 768 H 70.8348 -3.48757 3.2849 0
M  V30 769 H 69.1988 -1.91907 1.67463 0
M  V30 770 H 69.9818 -1.23923 3.20153 0
M  V30 771 N 72.4269 -1.23603 -0.977757 0
M  V30 772 C 73.3749 -1.01704 -2.09187 0
M  V30 773 C 74.3689 0.0448214 -1.69341 0
M  V30 774 O 75.5749 -0.108902 -1.7967 0
M  V30 775 H 71.9499 -0.311803 -0.684312 0
M  V30 776 H 73.9209 -1.96207 -2.24823 0
M  V30 777 C 72.6699 -0.627746 -3.41986 0
M  V30 778 H 71.9929 -1.43656 -3.73099 0
M  V30 779 H 73.4329 -0.514053 -4.20872 0
M  V30 780 C 71.8919 0.664238 -3.30287 0
M  V30 781 O 72.4219 1.71268 -3.6336 0
M  V30 782 N 70.6279 0.641156 -2.83439 0
M  V30 783 H 70.1749 -0.212376 -2.56723 0
M  V30 784 H 70.1329 1.50583 -2.75993 0
M  V30 785 N 73.905 1.17692 -1.04816 0
M  V30 786 C 75.152 1.87859 -0.75599 0
M  V30 787 C 75.48 1.80812 0.716752 0
M  V30 788 O 74.735 1.20819 1.53952 0
M  V30 789 C 75.034 3.37462 -1.17703 0
M  V30 790 C 74.7 3.64713 -2.65133 0
M  V30 791 C 73.362 3.71859 -3.05408 0
M  V30 792 C 75.714 3.76492 -3.60421 0
M  V30 793 C 73.042 3.88271 -4.39843 0
M  V30 794 C 75.394 3.94421 -4.94585 0
M  V30 795 C 74.058 3.99806 -5.3452 0
M  V30 796 H 73.328 0.687425 -0.276636 0
M  V30 797 H 75.975 1.39255 -1.31455 0
M  V30 798 H 74.28 3.88097 -0.537395 0
M  V30 799 H 75.977 3.90109 -0.928218 0
M  V30 800 H 72.567 3.59772 -2.32942 0
M  V30 801 H 76.751 3.70295 -3.30447 0
M  V30 802 H 72.007 3.90687 -4.70291 0
M  V30 803 H 76.181 4.02477 -5.68318 0
M  V30 804 H 73.808 4.12276 -6.38696 0
M  V30 805 N 75.3831 0.828654 1.34056 0
M  V30 806 C 76.3161 0.199763 2.27324 0
M  V30 807 C 77.2941 -0.647168 1.49166 0
M  V30 808 O 78.4781 -0.609661 1.78369 0
M  V30 809 C 75.6051 -0.720455 3.30949 0
M  V30 810 C 74.6511 0.0496888 4.26471 0
M  V30 811 S 75.4841 1.40072 5.16856 0
M  V30 812 C 76.6401 0.485527 6.24014 0
M  V30 813 H 76.8731 0.990478 2.80316 0
M  V30 814 H 74.4061 0.624857 1.41191 0
M  V30 815 H 76.3641 -1.24581 3.91139 0
M  V30 816 H 75.0251 -1.48474 2.76793 0
M  V30 817 H 74.2181 -0.650104 4.9979 0
M  V30 818 H 73.8201 0.505779 3.70564 0
M  V30 819 H 76.1121 -0.320672 6.76741 0
M  V30 820 H 77.0551 1.18856 6.98054 0
M  V30 821 H 77.4631 0.0714109 5.64455 0
M  V30 822 N 76.8612 -1.46375 0.584142 0
M  V30 823 C 77.7912 -2.33103 -0.136037 0
M  V30 824 C 78.7722 -1.45431 -0.882255 0
M  V30 825 O 79.9572 -1.74246 -0.857434 0
M  V30 826 C 77.0872 -3.27731 -1.14933 0
M  V30 827 C 76.0412 -4.24855 -0.517862 0
M  V30 828 C 75.3672 -5.09001 -1.63773 0
M  V30 829 C 76.6672 -5.19439 0.545886 0
M  V30 830 H 78.3612 -2.93568 0.588086 0
M  V30 831 H 75.9072 -1.41166 0.284259 0
M  V30 832 H 77.8602 -3.87261 -1.66153 0
M  V30 833 H 76.5842 -2.65377 -1.90375 0
M  V30 834 H 75.2432 -3.6659 -0.0267361 0
M  V30 835 H 74.8912 -4.43031 -2.38185 0
M  V30 836 H 74.5912 -5.74777 -1.22085 0
M  V30 837 H 76.1152 -5.71396 -2.15266 0
M  V30 838 H 77.5292 -5.73177 0.118704 0
M  V30 839 H 75.9262 -5.93566 0.88317 0
M  V30 840 H 76.9962 -4.63285 1.43162 0
M  V30 841 N 78.3393 -0.321999 -1.54275 0
M  V30 842 C 79.5863 0.281044 -2.0054 0
M  V30 843 C 79.9143 1.52265 -1.21019 0
M  V30 844 O 79.1693 1.93687 -0.279982 0
M  V30 845 C 79.4683 0.661769 -3.5122 0
M  V30 846 C 79.1343 -0.480482 -4.48333 0
M  V30 847 C 77.7963 -0.794005 -4.74604 0
M  V30 848 C 80.1483 -1.24783 -5.06042 0
M  V30 849 C 77.4763 -1.87763 -5.55844 0
M  V30 850 C 79.8283 -2.32153 -5.88462 0
M  V30 851 C 78.4923 -2.64089 -6.13036 0
M  V30 852 H 77.7623 0.102841 -0.733829 0
M  V30 853 H 80.4093 -0.445453 -1.86247 0
M  V30 854 H 78.7143 1.46867 -3.63232 0
M  V30 855 H 80.4113 1.13989 -3.84457 0
M  V30 856 H 77.0013 -0.226039 -4.28004 0
M  V30 857 H 81.1853 -1.01887 -4.85729 0
M  V30 858 H 76.4413 -2.12954 -5.73115 0
M  V30 859 H 80.6153 -2.92057 -6.32199 0
M  V30 860 H 78.2423 -3.48185 -6.75775 0
M  V30 861 N 79.8174 1.5752 -0.0501392 0
M  V30 862 C 80.7274 2.14952 0.939827 0
M  V30 863 C 81.7434 1.10706 1.34239 0
M  V30 864 O 82.9194 1.42869 1.41952 0
M  V30 865 C 79.9844 2.68232 2.19665 0
M  V30 866 C 79.0454 3.87272 1.85253 0
M  V30 867 C 78.2784 4.38002 3.04943 0
M  V30 868 O 78.5014 3.87811 4.18281 0
M  V30 869 O 77.4354 5.29602 2.86017 0
M  V30 870 H 81.2614 2.9986 0.481392 0
M  V30 871 H 78.8464 1.4841 0.171699 0
M  V30 872 H 80.7284 3.02475 2.93406 0
M  V30 873 H 79.4034 1.86395 2.64648 0
M  V30 874 H 78.3104 3.5792 1.0883 0
M  V30 875 H 79.6434 4.70336 1.4507 0
M  V30 876 N 81.2955 -0.223234 1.56011 0
M  V30 877 C 82.2425 -1.27664 1.92277 0
M  V30 878 C 83.2125 -1.46659 0.779763 0
M  V30 879 O 84.3975 -1.60256 1.03551 0
M  V30 880 C 81.5375 -2.62234 2.24338 0
M  V30 881 C 80.6505 -2.51051 3.51564 0
M  V30 882 C 79.7855 -3.78133 3.7308 0
M  V30 883 C 78.8245 -3.61665 4.93827 0
M  V30 884 N 77.9615 -4.80693 5.11741 0
M  V30 885 H 82.8015 -0.960358 2.82101 0
M  V30 886 H 80.3385 -0.462901 1.39627 0
M  V30 887 H 82.2965 -3.40596 2.40936 0
M  V30 888 H 80.9265 -2.91961 1.3769 0
M  V30 889 H 79.9785 -1.64132 3.43169 0
M  V30 890 H 81.2905 -2.34803 4.40079 0
M  V30 891 H 80.4445 -4.64938 3.89766 0
M  V30 892 H 79.1835 -3.97304 2.82844 0
M  V30 893 H 78.1885 -2.73244 4.77093 0
M  V30 894 H 79.4135 -3.43966 5.85546 0
M  V30 895 H 77.3595 -5.00181 4.24446 0
M  V30 896 H 77.2765 -4.67165 5.94384 0
M  V30 897 H 78.5445 -5.6893 5.3286 0
M  V30 898 N 82.7736 -1.49793 -0.48987 0
M  V30 899 C 84.0136 -1.61466 -1.25332 0
M  V30 900 C 84.3776 -0.299688 -1.89647 0
M  V30 901 O 85.5786 -0.291687 -2.67213 0
M  V30 902 C 83.8496 -2.74944 -2.28343 0
M  V30 903 S 85.4086 -3.06637 -3.13878 0
M  V30 904 H 82.2266 -0.569411 -0.425784 0
M  V30 905 H 84.8286 -1.875 -0.553541 0
M  V30 906 H 83.5326 -3.68994 -1.79643 0
M  V30 907 H 83.0636 -2.50938 -3.02975 0
M  V30 908 H 85.0786 -2.49015 -4.29192 0
M  V30 909 N 84.2517 0.741722 -1.39055 0
M  V30 910 C 85.1617 1.88621 -1.39496 0
M  V30 911 C 86.1777 1.71557 -0.290578 0
M  V30 912 O 87.3537 1.94275 -0.530954 0
M  V30 913 C 84.4187 3.24134 -1.23037 0
M  V30 914 C 83.4797 3.5364 -2.43387 0
M  V30 915 C 82.7127 4.82687 -2.27703 0
M  V30 916 O 82.9357 5.55922 -1.27696 0
M  V30 917 O 81.8697 5.1194 -3.16545 0
M  V30 918 H 85.6957 1.91203 -2.35956 0
M  V30 919 H 83.2807 0.888625 -1.20099 0
M  V30 920 H 85.1627 4.0513 -1.15964 0
M  V30 921 H 83.8377 3.22337 -0.296691 0
M  V30 922 H 82.7447 2.72758 -2.56035 0
M  V30 923 H 84.0777 3.60209 -3.35425 0
M  V30 924 N 85.7298 1.2412 0.971189 0
M  V30 925 C 86.9758 1.08041 1.71625 0
M  V30 926 C 87.3088 -0.380407 1.90438 0
M  V30 927 O 86.5838 -1.28127 1.46334 0
M  V30 928 C 86.8668 1.81682 3.10908 0
M  V30 929 C 86.7198 3.35493 2.99608 0
M  V30 930 C 88.0388 1.58671 4.10501 0
M  V30 931 H 85.1578 0.39388 0.622919 0
M  V30 932 H 87.7998 1.52743 1.13003 0
M  V30 933 H 85.9498 1.43684 3.60953 0
M  V30 934 H 87.6218 3.83068 2.57015 0
M  V30 935 H 85.8648 3.64052 2.35899 0
M  V30 936 H 86.5358 3.82217 3.98264 0
M  V30 937 H 89.0118 1.91719 3.69301 0
M  V30 938 H 87.8878 2.1266 5.06031 0
M  V30 939 H 88.1488 0.524161 4.38982 0
M  V30 940 N 87.2079 -1.17134 1.05439 0
M  V30 941 C 88.4329 -1.91913 0.786396 0
M  V30 942 C 88.8579 -1.7643 -0.652234 0
M  V30 943 O 88.2159 -1.08372 -1.45345 0
M  V30 944 C 88.2639 -3.40921 1.17497 0
M  V30 945 O 87.3679 -4.11244 0.308589 0
M  V30 946 H 86.7089 -0.598215 0.288158 0
M  V30 947 H 89.2389 -1.48457 1.4079 0
M  V30 948 H 89.2489 -3.91668 1.14281 0
M  V30 949 H 87.9239 -3.5151 2.22292 0
M  V30 950 H 86.5009 -3.70731 0.40157 0
M  V30 951 N 88.686 -0.835752 -1.33615 0
M  V30 952 C 89.934 -0.429109 -1.97492 0
M  V30 953 C 90.255 1.01433 -1.66543 0
M  V30 954 O 89.525 1.70611 -0.962744 0
M  V30 955 H 88.105 -0.155686 -0.730596 0
M  V30 956 H 90.767 -1.06802 -1.63031 0
M  V30 957 H 89.863 -0.55861 -3.0706 0
M  V30 958 N 90.1641 1.46063 -0.591896 0
M  V30 959 C 91.1271 2.28854 0.125973 0
M  V30 960 C 92.1271 1.38903 0.810107 0
M  V30 961 O 93.3171 1.61186 0.66066 0
M  V30 962 C 90.4491 3.19526 1.1881 0
M  V30 963 H 91.6421 2.93802 -0.601717 0
M  V30 964 H 89.1951 1.52325 -0.350254 0
M  V30 965 H 89.9301 2.59345 1.94707 0
M  V30 966 H 89.7151 3.85766 0.701936 0
M  V30 967 H 91.2051 3.81817 1.69132 0
M  V30 968 N 91.6422 0.330177 1.54103 0
M  V30 969 C 92.8902 -0.269871 2.0029 0
M  V30 970 C 93.2112 -1.52133 1.21986 0
M  V30 971 O 92.4812 -1.93212 0.323438 0
M  V30 972 H 91.0612 -0.10271 0.739905 0
M  V30 973 H 93.7232 0.448249 1.89675 0
M  V30 974 H 92.8192 -0.52166 3.07709 0
M  V30 975 N 93.1203 -1.57491 0.0584922 0
M  V30 976 C 94.0833 -2.1085 -0.898617 0
M  V30 977 C 95.0833 -1.02964 -1.23511 0
M  V30 978 O 96.2733 -1.29007 -1.17059 0
M  V30 979 C 93.4053 -2.59881 -2.20623 0
M  V30 980 H 94.5983 -2.96715 -0.435936 0
M  V30 981 H 92.1513 -1.55141 -0.190023 0
M  V30 982 H 92.8863 -1.77431 -2.71457 0
M  V30 983 H 92.6713 -3.38727 -1.97501 0
M  V30 984 H 94.1613 -3.01285 -2.89166 0
M  V30 985 N 94.5984 0.214957 -1.56127 0
M  V30 986 C 95.5484 1.27006 -1.8935 0
M  V30 987 C 96.5324 1.41969 -0.757202 0
M  V30 988 O 97.7244 1.44673 -1.01973 0
M  V30 989 C 94.8534 2.61911 -2.2194 0
M  V30 990 C 93.9394 2.50822 -3.41978 0
M  V30 991 N 94.3304 2.09391 -4.60423 0
M  V30 992 C 92.6284 2.81765 -3.45723 0
M  V30 993 C 93.3294 2.09712 -5.42582 0
M  V30 994 N 92.3054 2.50454 -4.82466 0
M  V30 995 H 96.1074 0.940734 -2.78437 0
M  V30 996 H 93.6214 0.423492 -1.56781 0
M  V30 997 H 95.6184 3.38096 -2.43919 0
M  V30 998 H 94.2784 2.95684 -1.34169 0
M  V30 999 H 95.2894 1.80416 -4.85459 0
M  V30 1000 H 91.9664 3.19865 -2.68314 0
M  V30 1001 H 93.3564 1.79748 -6.4741 0
M  V30 1002 N 96.0765 1.50051 0.48192 0
M  V30 1003 C 97.4875 1.5348 1.06305 0
M  V30 1004 C 97.8385 0.331997 1.93371 0
M  V30 1005 O 96.9635 -0.556256 2.09129 0
M  V30 1006 C 97.5585 2.7813 1.93466 0
M  V30 1007 C 96.1175 2.84275 2.46707 0
M  V30 1008 C 95.2645 2.47637 1.24785 0
M  V30 1009 H 98.2155 1.56472 0.264995 0
M  V30 1010 H 98.2365 2.59372 2.78399 0
M  V30 1011 H 97.7485 3.65654 1.30072 0
M  V30 1012 H 95.8495 2.01077 3.13686 0
M  V30 1013 H 95.9625 3.8691 2.82555 0
M  V30 1014 H 94.3265 1.99835 1.57918 0
M  V30 1015 H 95.1095 3.37457 0.630694 0
M  V30 1016 N 97.5546 -0.734337 1.39446 0
M  V30 1017 C 98.4846 -1.86155 1.40955 0
M  V30 1018 C 99.4656 -1.67898 0.272827 0
M  V30 1019 O 100.651 -1.88207 0.478743 0
M  V30 1020 C 97.7806 -3.23912 1.25294 0
M  V30 1021 C 96.7346 -3.56808 2.36373 0
M  V30 1022 C 96.0606 -4.93508 2.058 0
M  V30 1023 C 97.3606 -3.59713 3.78687 0
M  V30 1024 H 99.0546 -1.8515 2.35287 0
M  V30 1025 H 96.6006 -0.889367 1.13253 0
M  V30 1026 H 98.5536 -4.02443 1.2497 0
M  V30 1027 H 97.2776 -3.25446 0.274308 0
M  V30 1028 H 95.9366 -2.80606 2.35914 0
M  V30 1029 H 95.5846 -4.91623 1.06374 0
M  V30 1030 H 95.2846 -5.16486 2.80208 0
M  V30 1031 H 96.8086 -5.74396 2.07128 0
M  V30 1032 H 98.2226 -4.2832 3.81071 0
M  V30 1033 H 96.6196 -3.94209 4.52459 0
M  V30 1034 H 97.6896 -2.59504 4.09617 0
M  V30 1035 N 99.0327 -1.24633 -0.964593 0
M  V30 1036 C 100.28 -1.08788 -1.70796 0
M  V30 1037 C 100.608 0.372783 -1.90894 0
M  V30 1038 O 99.8627 1.29167 -1.47018 0
M  V30 1039 C 100.162 -1.7763 -3.10133 0
M  V30 1040 C 99.8277 -3.27557 -3.09866 0
M  V30 1041 C 98.4897 -3.6846 -3.09501 0
M  V30 1042 C 100.842 -4.23389 -3.03959 0
M  V30 1043 C 98.1697 -5.03624 -3.00965 0
M  V30 1044 C 100.522 -5.58565 -2.96965 0
M  V30 1045 C 99.1857 -5.98809 -2.9493 0
M  V30 1046 H 98.4557 -0.398084 -0.624988 0
M  V30 1047 H 101.103 -1.54777 -1.12767 0
M  V30 1048 H 99.4077 -1.24044 -3.71645 0
M  V30 1049 H 101.105 -1.62832 -3.66451 0
M  V30 1050 H 97.6947 -2.95006 -3.10917 0
M  V30 1051 H 101.879 -3.92787 -3.03368 0
M  V30 1052 H 97.1347 -5.33998 -2.97752 0
M  V30 1053 H 101.309 -6.32523 -2.91354 0
M  V30 1054 H 98.9357 -7.03505 -2.88071 0
M  V30 1055 N 100.511 1.16574 -1.06058 0
M  V30 1056 C 101.474 2.19085 -0.673392 0
M  V30 1057 C 102.474 1.5835 0.279648 0
M  V30 1058 O 103.664 1.74088 0.0623488 0
M  V30 1059 C 100.796 3.40899 0.00954234 0
M  V30 1060 H 101.989 2.54853 -1.58081 0
M  V30 1061 H 99.5418 1.30808 -0.855516 0
M  V30 1062 H 100.277 3.10684 0.929826 0
M  V30 1063 H 100.062 3.86233 -0.67573 0
M  V30 1064 H 101.552 4.1675 0.266245 0
M  V30 1065 N 101.989 0.842826 1.3317 0
M  V30 1066 C 103.236 0.440447 1.97652 0
M  V30 1067 C 103.564 -1.00123 1.6675 0
M  V30 1068 O 102.819 -1.7155 0.941761 0
M  V30 1069 C 103.118 0.612607 3.52111 0
M  V30 1070 C 102.784 2.02297 4.02972 0
M  V30 1071 C 101.446 2.40874 4.16573 0
M  V30 1072 C 103.798 2.94402 4.30089 0
M  V30 1073 C 101.126 3.70852 4.54627 0
M  V30 1074 C 103.478 4.23865 4.69597 0
M  V30 1075 C 102.142 4.62392 4.81404 0
M  V30 1076 H 101.412 0.161171 0.72326 0
M  V30 1077 H 104.059 1.07061 1.58777 0
M  V30 1078 H 102.364 -0.100849 3.9167 0
M  V30 1079 H 104.061 0.2815 4.00011 0
M  V30 1080 H 100.651 1.71338 3.92863 0
M  V30 1081 H 104.835 2.65835 4.19101 0
M  V30 1082 H 100.091 4.00501 4.61962 0
M  V30 1083 H 104.265 4.95306 4.89536 0
M  V30 1084 H 101.892 5.63154 5.10648 0
M  V30 1085 N 103.467 -1.45747 0.599634 0
M  V30 1086 C 104.397 -2.33235 -0.111306 0
M  V30 1087 C 105.378 -1.46359 -0.866781 0
M  V30 1088 O 106.563 -1.75146 -0.838904 0
M  V30 1089 C 103.693 -3.28932 -1.11451 0
M  V30 1090 C 102.647 -4.25381 -0.472772 0
M  V30 1091 C 101.973 -5.1071 -1.58365 0
M  V30 1092 C 103.273 -5.18831 0.600948 0
M  V30 1093 H 104.967 -2.92927 0.61919 0
M  V30 1094 H 102.513 -1.40857 0.299215 0
M  V30 1095 H 104.466 -3.89002 -1.62036 0
M  V30 1096 H 103.19 -2.67381 -1.8755 0
M  V30 1097 H 101.849 -3.66598 0.0121472 0
M  V30 1098 H 101.497 -4.45533 -2.33473 0
M  V30 1099 H 101.197 -5.7604 -1.15982 0
M  V30 1100 H 102.721 -5.73647 -2.09194 0
M  V30 1101 H 104.135 -5.73019 0.179491 0
M  V30 1102 H 102.532 -5.92595 0.946076 0
M  V30 1103 H 103.602 -4.6174 1.48068 0
M  V30 1104 N 104.945 -0.338344 -1.53925 0
M  V30 1105 C 106.361 0.0137736 -1.59594 0
M  V30 1106 C 106.561 1.49186 -1.35447 0
M  V30 1107 O 105.617 2.24987 -1.14616 0
M  V30 1108 C 106.93 -0.41773 -2.97784 0
M  V30 1109 C 108.478 -0.369633 -3.1081 0
M  V30 1110 C 108.953 -0.776524 -4.51369 0
M  V30 1111 N 110.444 -0.730506 -4.57403 0
M  V30 1112 C 111.179 -1.01736 -5.64303 0
M  V30 1113 N 110.675 -1.3721 -6.79077 0
M  V30 1114 N 112.468 -0.941942 -5.54151 0
M  V30 1115 H 104.619 -1.3012 -1.67876 0
M  V30 1116 H 106.882 -0.530082 -0.78595 0
M  V30 1117 H 106.588 -1.44811 -3.20504 0
M  V30 1118 H 106.462 0.209729 -3.76616 0
M  V30 1119 H 108.849 0.651568 -2.87817 0
M  V30 1120 H 108.93 -1.03223 -2.34049 0
M  V30 1121 H 108.574 -1.79571 -4.75096 0
M  V30 1122 H 108.504 -0.0914649 -5.26521 0
M  V30 1123 H 110.995 -0.468783 -3.74981 0
M  V30 1124 H 111.308 -1.57597 -7.5656 0
M  V30 1125 H 109.653 -1.4105 -6.80536 0
M  V30 1126 H 112.844 -0.664184 -4.63364 0
M  V30 1127 H 113.017 -1.16884 -6.37371 0
M  V30 1128 N 106.423 1.57458 -0.0668435 0
M  V30 1129 C 107.333 2.15937 0.916975 0
M  V30 1130 C 108.349 1.12123 1.33058 0
M  V30 1131 O 109.525 1.44366 1.40429 0
M  V30 1132 C 106.59 2.70547 2.16807 0
M  V30 1133 C 105.651 3.89215 1.81135 0
M  V30 1134 C 104.884 4.41211 3.0028 0
M  V30 1135 O 105.107 3.92225 4.14144 0
M  V30 1136 O 104.041 5.32605 2.80384 0
M  V30 1137 H 107.867 3.00354 0.449561 0
M  V30 1138 H 105.452 1.48584 0.155949 0
M  V30 1139 H 107.334 3.0557 2.90181 0
M  V30 1140 H 106.009 1.89192 2.62656 0
M  V30 1141 H 104.916 3.59054 1.05028 0
M  V30 1142 H 106.249 4.71848 1.40073 0
M  V30 1143 N 107.901 -0.206675 1.56239 0
M  V30 1144 C 108.864 -1.23976 1.92776 0
M  V30 1145 C 109.864 -1.39041 0.807729 0
M  V30 1146 O 111.054 -1.37051 1.0753 0
M  V30 1147 C 108.186 -2.61112 2.19165 0
M  V30 1148 H 109.379 -0.927764 2.85189 0
M  V30 1149 H 106.932 -0.447718 1.4975 0
M  V30 1150 H 107.667 -2.97386 1.29352 0
M  V30 1151 H 107.452 -2.51552 3.00772 0
M  V30 1152 H 108.942 -3.35633 2.48476 0
M  V30 1153 N 109.379 -1.50304 -0.473955 0
M  V30 1154 C 110.309 -1.71886 -1.58042 0
M  V30 1155 C 111.29 -0.567799 -1.60344 0
M  V30 1156 O 112.475 -0.806623 -1.76656 0
M  V30 1157 C 109.605 -1.81036 -2.96384 0
M  V30 1158 C 108.559 -2.962 -3.08949 0
M  V30 1159 C 107.885 -2.9049 -4.48909 0
M  V30 1160 C 109.185 -4.36752 -2.86434 0
M  V30 1161 H 110.879 -2.64527 -1.40234 0
M  V30 1162 H 108.425 -1.27295 -0.673201 0
M  V30 1163 H 110.378 -1.94719 -3.73714 0
M  V30 1164 H 109.102 -0.850147 -3.15341 0
M  V30 1165 H 107.761 -2.82164 -2.3405 0
M  V30 1166 H 107.409 -1.92321 -4.64781 0
M  V30 1167 H 107.109 -3.67802 -4.58253 0
M  V30 1168 H 108.633 -3.06218 -5.28264 0
M  V30 1169 H 110.047 -4.5133 -3.53517 0
M  V30 1170 H 108.444 -5.15493 -3.07225 0
M  V30 1171 H 109.514 -4.49321 -1.82316 0
M  V30 1172 N 110.857 0.726932 -1.39834 0
M  V30 1173 C 112.268 1.30558 -1.3346 0
M  V30 1174 C 112.619 1.962 -0.00273003 0
M  V30 1175 O 111.744 1.96826 0.899371 0
M  V30 1176 C 112.339 2.37404 -2.41713 0
M  V30 1177 C 110.898 2.90921 -2.38835 0
M  V30 1178 C 110.045 1.64578 -2.2318 0
M  V30 1179 H 112.996 0.523862 -1.49804 0
M  V30 1180 H 113.017 3.17984 -2.08966 0
M  V30 1181 H 112.529 1.89599 -3.38635 0
M  V30 1182 H 110.63 3.42985 -1.45575 0
M  V30 1183 H 110.743 3.43487 -3.33997 0
M  V30 1184 H 109.107 1.89219 -1.70494 0
M  V30 1185 H 109.89 1.18814 -3.22084 0
M  V30 1186 N 112.336 1.25143 0.95797 0
M  V30 1187 C 113.299 1.05321 2.03569 0
M  V30 1188 C 114.299 0.007152 1.60798 0
M  V30 1189 O 115.489 0.24903 1.72411 0
M  V30 1190 C 112.621 0.598394 3.35607 0
M  V30 1191 H 113.814 2.00986 2.22586 0
M  V30 1192 H 111.367 1.07502 1.13459 0
M  V30 1193 H 112.102 -0.361014 3.22284 0
M  V30 1194 H 111.887 1.35351 3.67998 0
M  V30 1195 H 113.377 0.48104 4.1482 0
M  V30 1196 N 113.814 -1.1601 1.06675 0
M  V30 1197 C 115.225 -1.68235 0.809565 0
M  V30 1198 C 115.576 -1.8454 -0.666303 0
M  V30 1199 O 114.701 -1.54374 -1.5165 0
M  V30 1200 C 115.296 -3.05585 1.46299 0
M  V30 1201 C 113.855 -3.54915 1.25349 0
M  V30 1202 C 113.002 -2.30804 1.53703 0
M  V30 1203 H 115.953 -1.00318 1.22971 0
M  V30 1204 H 115.974 -3.70174 0.880431 0
M  V30 1205 H 115.486 -2.93686 2.53713 0
M  V30 1206 H 113.587 -3.72067 0.199261 0
M  V30 1207 H 113.7 -4.36774 1.9689 0
M  V30 1208 H 112.064 -2.36007 0.957739 0
M  V30 1209 H 112.847 -2.21499 2.62284 0
M  V30 1210 N 115.292 -0.849877 -1.32721 0
M  V30 1211 C 116.517 -0.463856 -2.02146 0
M  V30 1212 C 116.942 0.930449 -1.63476 0
M  V30 1213 O 116.3 1.61033 -0.832952 0
M  V30 1214 C 116.348 -0.604955 -3.55489 0
M  V30 1215 O 115.452 0.36425 -4.10788 0
M  V30 1216 H 114.793 -0.187046 -0.637111 0
M  V30 1217 H 117.323 -1.14775 -1.69375 0
M  V30 1218 H 117.333 -0.490696 -4.05038 0
M  V30 1219 H 116.008 -1.62174 -3.82978 0
M  V30 1220 H 114.585 0.206628 -3.72327 0
M  V30 1221 N 116.77 1.45427 -0.607355 0
M  V30 1222 C 118.047 1.9557 -0.0344566 0
M  V30 1223 C 118.427 1.54979 1.43334 0
M  V30 1224 O 117.775 0.812241 2.13576 0
M  V30 1225 C 117.985 3.48226 -0.232321 0
M  V30 1226 C 119.333 4.2445 -0.113001 0
M  V30 1227 O 120.357 3.55829 -0.162431 0
M  V30 1228 O 119.216 5.465 0.00209442 0
M  V30 1229 H 116.31 0.826222 0.0358667 0
M  V30 1230 H 118.856 1.55594 -0.6774 0
M  V30 1231 H 117.628 3.70739 -1.25174 0
M  V30 1232 H 117.251 3.95092 0.445896 0
M  V30 1233 N 118.248 0.346503 1.53744 0
M  V30 1234 C 119.525 -0.304532 1.93215 0
M  V30 1235 C 119.905 -1.67993 1.27834 0
M  V30 1236 O 119.253 -2.24411 0.430352 0
M  V30 1237 C 119.463 -0.373852 3.46992 0
M  V30 1238 C 120.811 -0.62329 4.2 0
M  V30 1239 O 121.835 -0.455847 3.53271 0
M  V30 1240 O 120.694 -0.947879 5.38217 0
M  V30 1241 H 117.788 -0.178318 0.807547 0
M  V30 1242 H 120.334 0.397895 1.64969 0
M  V30 1243 H 119.106 0.591224 3.86808 0
M  V30 1244 H 118.729 -1.12294 3.81413 0
M  V30 1245 N 119.726 -1.57421 0.075193 0
M  V30 1246 C 120.689 -2.11791 -0.876203 0
M  V30 1247 C 121.689 -1.04268 -1.22412 0
M  V30 1248 O 122.879 -1.30242 -1.15684 0
M  V30 1249 C 120.011 -2.62207 -2.17854 0
M  V30 1250 H 121.204 -2.9716 -0.40444 0
M  V30 1251 H 118.757 -1.55333 -0.173557 0
M  V30 1252 H 119.492 -1.803 -2.6956 0
M  V30 1253 H 119.277 -3.40802 -1.93897 0
M  V30 1254 H 120.767 -3.04335 -2.85955 0
M  V30 1255 N 121.204 0.198386 -1.56346 0
M  V30 1256 C 122.432 0.935572 -1.84539 0
M  V30 1257 C 122.847 1.76989 -0.657281 0
M  V30 1258 O 122.204 1.78626 0.374043 0
M  V30 1259 C 122.255 1.8344 -3.11499 0
M  V30 1260 O 121.976 1.03377 -4.25728 0
M  V30 1261 C 123.477 2.68355 -3.52846 0
M  V30 1262 H 120.697 0.273126 -0.612897 0
M  V30 1263 H 123.241 0.20663 -2.03453 0
M  V30 1264 H 121.396 2.51701 -2.94492 0
M  V30 1265 H 121.81 1.64599 -4.98003 0
M  V30 1266 H 123.284 3.27085 -4.44657 0
M  V30 1267 H 123.761 3.41901 -2.75681 0
M  V30 1268 H 124.367 2.05471 -3.72373 0
M  V30 1269 N 122.682 1.50554 0.465978 0
M  V30 1270 C 123.645 1.69233 1.54574 0
M  V30 1271 C 124.645 0.562901 1.50626 0
M  V30 1272 O 125.835 0.830016 1.53155 0
M  V30 1273 C 122.967 1.7223 2.94193 0
M  V30 1274 H 124.16 2.65571 1.39327 0
M  V30 1275 H 121.713 1.40111 0.692711 0
M  V30 1276 H 122.448 0.77603 3.14878 0
M  V30 1277 H 122.233 2.54285 2.98466 0
M  V30 1278 H 123.723 1.88618 3.72576 0
M  V30 1279 N 124.16 -0.719506 1.40217 0
M  V30 1280 C 125.09 -1.8465 1.42922 0
M  V30 1281 C 126.071 -1.67599 0.29062 0
M  V30 1282 O 127.256 -1.87688 0.498677 0
M  V30 1283 C 124.386 -3.22565 1.28722 0
M  V30 1284 C 123.34 -3.54281 2.40144 0
M  V30 1285 C 122.666 -4.91298 2.11023 0
M  V30 1286 C 123.966 -3.55676 3.82481 0
M  V30 1287 H 125.66 -1.82644 2.37237 0
M  V30 1288 H 123.206 -0.877305 1.1419 0
M  V30 1289 H 125.159 -4.01095 1.29232 0
M  V30 1290 H 123.883 -3.25137 0.308811 0
M  V30 1291 H 122.542 -2.78088 2.38877 0
M  V30 1292 H 122.19 -4.90468 1.11582 0
M  V30 1293 H 121.89 -5.13485 2.8567 0
M  V30 1294 H 123.414 -5.72166 2.13209 0
M  V30 1295 H 124.828 -4.24254 3.85592 0
M  V30 1296 H 123.225 -3.89388 4.56614 0
M  V30 1297 H 124.295 -2.55144 4.12346 0
M  V30 1298 N 125.638 -1.25649 -0.95132 0
M  V30 1299 C 126.571 -1.00644 -2.04807 0
M  V30 1300 C 127.549 0.0654271 -1.62468 0
M  V30 1301 O 128.733 -0.074911 -1.88351 0
M  V30 1302 C 125.86 -0.522052 -3.34653 0
M  V30 1303 C 124.906 -1.58495 -3.95957 0
M  V30 1304 S 125.739 -3.17108 -4.31512 0
M  V30 1305 C 126.895 -2.70412 -5.64471 0
M  V30 1306 H 127.128 -1.93508 -2.25703 0
M  V30 1307 H 124.661 -1.09216 -1.09139 0
M  V30 1308 H 126.619 -0.24923 -4.09743 0
M  V30 1309 H 125.28 0.386146 -3.11717 0
M  V30 1310 H 124.473 -1.1968 -4.89584 0
M  V30 1311 H 124.075 -1.80862 -3.2736 0
M  V30 1312 H 126.367 -2.14245 -6.42733 0
M  V30 1313 H 127.31 -3.62693 -6.08161 0
M  V30 1314 H 127.718 -2.10302 -5.23864 0
M  V30 1315 N 127.117 1.15442 -1.07289 0
M  V30 1316 C 128.345 1.90096 -0.81676 0
M  V30 1317 C 128.76 1.7798 0.629966 0
M  V30 1318 O 128.117 1.1313 1.43206 0
M  V30 1319 C 128.168 3.40466 -1.21512 0
M  V30 1320 O 127.889 3.52232 -2.60508 0
M  V30 1321 C 129.39 4.32145 -0.988198 0
M  V30 1322 H 126.61 0.602495 -0.295366 0
M  V30 1323 H 129.154 1.4627 -1.42918 0
M  V30 1324 H 127.309 3.81958 -0.647039 0
M  V30 1325 H 127.723 4.45549 -2.76742 0
M  V30 1326 H 129.197 5.36072 -1.31645 0
M  V30 1327 H 129.674 4.39135 0.0755063 0
M  V30 1328 H 130.28 3.96395 -1.54115 0
M  V30 1329 N 128.595 0.856903 1.32268 0
M  V30 1330 C 129.872 0.382583 1.91822 0
M  V30 1331 C 130.252 -1.13407 1.78051 0
M  V30 1332 O 129.6 -1.95673 1.18001 0
M  V30 1333 C 129.81 0.849446 3.38505 0
M  V30 1334 C 131.158 0.867936 4.15634 0
M  V30 1335 O 132.182 0.794232 3.47232 0
M  V30 1336 O 131.041 0.972286 5.37781 0
M  V30 1337 H 128.135 0.112014 0.819379 0
M  V30 1338 H 130.681 0.943952 1.41024 0
M  V30 1339 H 129.453 1.89267 3.42482 0
M  V30 1340 H 129.076 0.265652 3.96712 0
M  V30 1341 N 130.073 -1.45103 0.615059 0
M  V30 1342 C 131.484 -1.85654 0.197383 0
M  V30 1343 C 131.835 -1.51433 -1.24749 0
M  V30 1344 O 130.96 -0.944608 -1.94695 0
M  V30 1345 C 131.555 -3.36972 0.351448 0
M  V30 1346 C 130.114 -3.76398 -0.011593 0
M  V30 1347 C 129.261 -2.69024 0.672394 0
M  V30 1348 H 132.212 -1.35797 0.821263 0
M  V30 1349 H 132.233 -3.78239 -0.414227 0
M  V30 1350 H 131.745 -3.61847 1.40314 0
M  V30 1351 H 129.846 -3.5714 -1.06217 0
M  V30 1352 H 129.959 -4.77532 0.387265 0
M  V30 1353 H 128.323 -2.54465 0.109284 0
M  V30 1354 H 129.106 -2.96735 1.72636 0
M  V30 1355 N 131.551 -0.354651 -1.53558 0
M  V30 1356 C 132.498 0.496968 -2.25386 0
M  V30 1357 C 133.468 1.0865 -1.25636 0
M  V30 1358 O 134.653 1.12104 -1.54394 0
M  V30 1359 C 131.793 1.63637 -3.03837 0
M  V30 1360 C 130.906 1.07307 -4.18461 0
M  V30 1361 C 130.041 2.18068 -4.84376 0
M  V30 1362 C 129.08 1.59147 -5.91049 0
M  V30 1363 N 128.217 2.63695 -6.50699 0
M  V30 1364 H 133.057 -0.122075 -2.9775 0
M  V30 1365 H 130.594 -0.0720154 -1.46924 0
M  V30 1366 H 132.552 2.30734 -3.47589 0
M  V30 1367 H 131.182 2.22623 -2.33749 0
M  V30 1368 H 130.234 0.292708 -3.79272 0
M  V30 1369 H 131.546 0.602193 -4.95152 0
M  V30 1370 H 130.7 2.93007 -5.31255 0
M  V30 1371 H 129.439 2.68504 -4.07133 0
M  V30 1372 H 128.444 0.827175 -5.43542 0
M  V30 1373 H 129.669 1.09549 -6.70206 0
M  V30 1374 H 127.615 3.13365 -5.76315 0
M  V30 1375 H 127.532 2.21263 -7.22896 0
M  V30 1376 H 128.8 3.3837 -7.02229 0
M  V30 1377 N 133.029 1.57378 -0.0835403 0
M  V30 1378 C 133.959 2.1641 0.87686 0
M  V30 1379 C 134.94 1.09429 1.30228 0
M  V30 1380 O 136.125 1.37516 1.37124 0
M  V30 1381 C 133.255 2.73517 2.14022 0
M  V30 1382 C 132.209 3.85769 1.85381 0
M  V30 1383 C 131.535 4.29529 3.18448 0
M  V30 1384 C 132.835 5.09486 1.14984 0
M  V30 1385 H 134.529 2.96914 0.385059 0
M  V30 1386 H 132.075 1.42823 0.18377 0
M  V30 1387 H 134.028 3.13463 2.81636 0
M  V30 1388 H 132.752 1.90252 2.65465 0
M  V30 1389 H 131.411 3.46345 1.20169 0
M  V30 1390 H 131.059 3.43169 3.67755 0
M  V30 1391 H 130.759 5.05204 3.00071 0
M  V30 1392 H 132.283 4.72099 3.8724 0
M  V30 1393 H 133.697 5.46674 1.72687 0
M  V30 1394 H 132.094 5.90515 1.06826 0
M  V30 1395 H 133.164 4.84724 0.130749 0
M  V30 1396 N 134.507 -0.190092 1.56449 0
M  V30 1397 C 135.756 -0.907912 1.80111 0
M  V30 1398 C 136.069 -1.84214 0.657619 0
M  V30 1399 O 137.275 -2.60094 0.778663 0
M  V30 1400 C 135.731 -1.66485 3.19078 0
M  V30 1401 C 135.339 -0.7752 4.41242 0
M  V30 1402 C 137.083 -2.37201 3.52045 0
M  V30 1403 C 134.99 -1.53129 5.71231 0
M  V30 1404 H 133.92 -0.34276 0.671589 0
M  V30 1405 H 136.571 -0.161109 1.82791 0
M  V30 1406 H 134.953 -2.45572 3.10661 0
M  V30 1407 H 136.127 -0.0226298 4.60794 0
M  V30 1408 H 134.442 -0.178627 4.16017 0
M  V30 1409 H 137.039 -2.94329 4.46402 0
M  V30 1410 H 137.382 -3.11632 2.76028 0
M  V30 1411 H 137.915 -1.65075 3.61932 0
M  V30 1412 H 134.654 -0.82967 6.50228 0
M  V30 1413 H 134.174 -2.25767 5.55688 0
M  V30 1414 H 135.853 -2.08377 6.12526 0
M  V30 1415 N 135.985 -1.50799 -0.457987 0
M  V30 1416 C 137.213 -1.66218 -1.23203 0
M  V30 1417 C 137.628 -0.350894 -1.85511 0
M  V30 1418 O 136.985 0.668546 -1.69814 0
M  V30 1419 C 137.036 -2.76291 -2.33121 0
M  V30 1420 O 136.757 -4.02338 -1.73366 0
M  V30 1421 C 138.258 -3.028 -3.2377 0
M  V30 1422 H 135.478 -0.558361 -0.372121 0
M  V30 1423 H 138.022 -1.97099 -0.545179 0
M  V30 1424 H 136.177 -2.48068 -2.97558 0
M  V30 1425 H 136.591 -4.63312 -2.4585 0
M  V30 1426 H 138.065 -3.8345 -3.97077 0
M  V30 1427 H 138.542 -2.14385 -3.83322 0
M  V30 1428 H 139.148 -3.32604 -2.65056 0
M  V30 1429 N 137.463 0.71206 -1.40597 0
M  V30 1430 C 138.709 1.47292 -1.40274 0
M  V30 1431 C 139.064 1.92399 -0.00576812 0
M  V30 1432 O 138.357 1.65507 0.965297 0
M  V30 1433 C 138.551 2.71039 -2.32965 0
M  V30 1434 C 138.38 2.38035 -3.81536 0
M  V30 1435 C 137.15 2.29203 -4.50327 0
M  V30 1436 C 139.348 2.02076 -4.72938 0
M  V30 1437 N 137.33 1.88911 -5.84111 0
M  V30 1438 C 138.701 1.72412 -5.95545 0
M  V30 1439 C 140.756 1.88742 -4.60739 0
M  V30 1440 C 139.459 1.30756 -7.07316 0
M  V30 1441 C 141.485 1.4849 -5.72455 0
M  V30 1442 C 140.847 1.19726 -6.94151 0
M  V30 1443 H 136.946 0.536919 -0.568544 0
M  V30 1444 H 139.53 0.825424 -1.76337 0
M  V30 1445 H 137.701 3.33533 -1.99023 0
M  V30 1446 H 139.433 3.37404 -2.23474 0
M  V30 1447 H 136.188 2.47059 -4.04053 0
M  V30 1448 H 136.612 1.71293 -6.54972 0
M  V30 1449 H 141.254 2.0964 -3.67166 0
M  V30 1450 H 138.972 1.08601 -8.00769 0
M  V30 1451 H 142.558 1.38747 -5.65014 0
M  V30 1452 H 141.438 0.890482 -7.79128 0
M  V30 1453 N 138.941 1.26152 0.944643 0
M  V30 1454 C 140.166 1.14363 1.7302 0
M  V30 1455 C 140.591 -0.29772 1.85729 0
M  V30 1456 O 139.949 -1.2157 1.34501 0
M  V30 1457 C 139.997 1.81378 3.11664 0
M  V30 1458 O 139.101 1.10022 3.97453 0
M  V30 1459 H 138.442 0.398694 0.53098 0
M  V30 1460 H 140.972 1.66906 1.18337 0
M  V30 1461 H 140.982 1.88064 3.62072 0
M  V30 1462 H 139.657 2.86237 3.0173 0
M  V30 1463 H 138.234 1.11287 3.55907 0
M  V30 1464 N 140.419 -1.14872 1.07899 0
M  V30 1465 C 141.83 -1.67367 0.827363 0
M  V30 1466 C 142.181 -1.85236 -0.646693 0
M  V30 1467 O 141.306 -1.55974 -1.50004 0
M  V30 1468 C 141.901 -3.04016 1.49532 0
M  V30 1469 C 140.46 -3.53566 1.29106 0
M  V30 1470 C 139.607 -2.29161 1.56143 0
M  V30 1471 H 142.558 -0.990083 1.24028 0
M  V30 1472 H 142.579 -3.69219 0.919643 0
M  V30 1473 H 142.091 -2.90978 2.56814 0
M  V30 1474 H 140.192 -3.71835 0.238713 0
M  V30 1475 H 140.305 -4.34661 2.01511 0
M  V30 1476 H 138.669 -2.34978 0.982717 0
M  V30 1477 H 139.452 -2.18705 2.64619 0
M  V30 1478 N 141.898 -0.863906 -1.31812 0
M  V30 1479 C 143.144 -0.472535 -1.97218 0
M  V30 1480 C 143.477 0.971394 -1.68159 0
M  V30 1481 O 142.752 1.68309 -0.974798 0
M  V30 1482 C 143.035 -0.723054 -3.52766 0
M  V30 1483 C 142.888 -2.21608 -3.91421 0
M  V30 1484 C 144.207 -0.185522 -4.39709 0
M  V30 1485 H 141.326 -0.173158 -0.71637 0
M  V30 1486 H 143.968 -1.08403 -1.56041 0
M  V30 1487 H 142.118 -0.202577 -3.87971 0
M  V30 1488 H 143.79 -2.80334 -3.66347 0
M  V30 1489 H 142.033 -2.691 -3.40246 0
M  V30 1490 H 142.704 -2.34203 -4.99853 0
M  V30 1491 H 145.18 -0.630726 -4.11292 0
M  V30 1492 H 144.056 -0.390306 -5.47511 0
M  V30 1493 H 144.317 0.912229 -4.32586 0
M  V30 1494 N 143.376 1.44774 -0.622745 0
M  V30 1495 C 144.616 2.04004 -0.127102 0
M  V30 1496 C 144.98 1.47862 1.22478 0
M  V30 1497 O 146.181 1.98541 1.81204 0
M  V30 1498 C 144.452 3.57247 -0.104429 0
M  V30 1499 S 146.011 4.37574 0.327814 0
M  V30 1500 H 142.829 0.708713 -0.0569776 0
M  V30 1501 H 145.431 1.77275 -0.824253 0
M  V30 1502 H 144.135 3.95616 -1.09159 0
M  V30 1503 H 143.666 3.88575 0.614236 0
M  V30 1504 H 145.681 4.70575 1.57395 0
M  V30 1505 N 144.854 0.36279 1.53368 0
M  V30 1506 C 146.27 0.0116182 1.59596 0
M  V30 1507 C 146.47 -1.47012 1.37803 0
M  V30 1508 O 145.526 -2.23136 1.18181 0
M  V30 1509 C 146.839 0.465052 2.97082 0
M  V30 1510 C 148.387 0.419033 3.10182 0
M  V30 1511 C 148.862 0.848235 4.50077 0
M  V30 1512 N 150.353 0.803183 4.56183 0
M  V30 1513 C 151.088 1.107 5.62613 0
M  V30 1514 N 150.584 1.47996 6.76808 0
M  V30 1515 N 152.377 1.02998 5.52583 0
M  V30 1516 H 144.528 1.32775 1.65785 0
M  V30 1517 H 146.791 0.542518 0.777417 0
M  V30 1518 H 146.497 1.49892 3.18159 0
M  V30 1519 H 146.371 -0.149786 3.76902 0
M  V30 1520 H 148.758 -0.605696 2.88817 0
M  V30 1521 H 148.839 1.06933 2.32377 0
M  V30 1522 H 148.483 1.87107 4.7218 0
M  V30 1523 H 148.413 0.175218 5.26308 0
M  V30 1524 H 150.904 0.52838 3.74188 0
M  V30 1525 H 151.217 1.69613 7.53957 0
M  V30 1526 H 149.562 1.51859 6.78206 0
M  V30 1527 H 152.753 0.737817 4.62249 0
M  V30 1528 H 152.926 1.2701 6.35431 0
M  V30 1529 N 146.332 -1.57332 0.0918853 0
M  V30 1530 C 147.28 -2.15075 -0.885747 0
M  V30 1531 C 148.274 -1.09277 -1.29441 0
M  V30 1532 O 149.48 -1.27627 -1.26931 0
M  V30 1533 H 145.855 -0.687966 -0.303656 0
M  V30 1534 H 147.826 -2.96047 -0.373995 0
M  V30 1535 C 146.575 -2.74325 -2.13638 0
M  V30 1536 H 145.898 -3.55418 -1.8308 0
M  V30 1537 H 147.338 -3.183 -2.80109 0
M  V30 1538 C 145.797 -1.70062 -2.90827 0
M  V30 1539 O 146.327 -1.13763 -3.85254 0
M  V30 1540 N 144.533 -1.40628 -2.54307 0
M  V30 1541 H 144.08 -1.866 -1.7759 0
M  V30 1542 H 144.038 -0.711043 -3.06254 0
M  V30 1543 N 147.81 0.181792 -1.56548 0
M  V30 1544 C 149.087 0.926765 -1.72251 0
M  V30 1545 C 149.467 2.00831 -0.650386 0
M  V30 1546 O 148.815 2.26008 0.336521 0
M  V30 1547 C 149.025 1.50106 -3.1507 0
M  V30 1548 C 150.373 1.97805 -3.75711 0
M  V30 1549 O 151.397 1.59922 -3.18282 0
M  V30 1550 O 150.256 2.67555 -4.76525 0
M  V30 1551 H 147.35 0.435506 -0.703039 0
M  V30 1552 H 149.896 0.170443 -1.68842 0
M  V30 1553 H 148.668 0.72212 -3.84579 0
M  V30 1554 H 148.291 2.32186 -3.22763 0
M  V30 1555 N 149.288 1.51039 0.449983 0
M  V30 1556 C 150.534 1.63322 1.20223 0
M  V30 1557 C 150.867 0.34241 1.91158 0
M  V30 1558 O 150.142 -0.657344 1.83055 0
M  V30 1559 C 150.425 2.82801 2.22925 0
M  V30 1560 C 150.278 4.21823 1.56157 0
M  V30 1561 C 151.597 2.97807 3.24035 0
M  V30 1562 H 148.716 0.594407 0.435718 0
M  V30 1563 H 151.358 1.83489 0.493136 0
M  V30 1564 H 149.508 2.65738 2.834 0
M  V30 1565 H 151.18 4.50526 0.991162 0
M  V30 1566 H 149.423 4.25105 0.864172 0
M  V30 1567 H 150.094 5.01391 2.30891 0
M  V30 1568 H 152.57 3.13497 2.73603 0
M  V30 1569 H 151.446 3.82992 3.93202 0
M  V30 1570 H 151.707 2.09328 3.89402 0
M  V30 1571 N 150.766 -0.704594 1.40972 0
M  V30 1572 C 151.729 -1.80035 1.41845 0
M  V30 1573 C 152.729 -1.57774 0.310474 0
M  V30 1574 O 153.919 -1.64613 0.56992 0
M  V30 1575 C 151.051 -3.18284 1.22098 0
M  V30 1576 H 152.244 -1.80658 2.3938 0
M  V30 1577 H 149.797 -0.911329 1.26982 0
M  V30 1578 H 150.532 -3.23306 0.253672 0
M  V30 1579 H 150.317 -3.35843 2.02366 0
M  V30 1580 H 151.807 -3.98289 1.25522 0
M  V30 1581 N 152.244 -1.26651 -0.937939 0
M  V30 1582 C 153.49 -1.13562 -1.68746 0
M  V30 1583 C 153.845 0.317241 -1.89767 0
M  V30 1584 O 153.138 1.22939 -1.46957 0
M  V30 1585 C 153.332 -1.84168 -3.06295 0
M  V30 1586 C 153.161 -3.36171 -2.98696 0
M  V30 1587 C 151.931 -4.05468 -3.01535 0
M  V30 1588 C 154.129 -4.32312 -2.78588 0
M  V30 1589 N 152.111 -5.44118 -2.84269 0
M  V30 1590 C 153.482 -5.58159 -2.69924 0
M  V30 1591 C 155.537 -4.22524 -2.63396 0
M  V30 1592 C 154.24 -6.75335 -2.47618 0
M  V30 1593 C 156.266 -5.39411 -2.42466 0
M  V30 1594 C 155.628 -6.64208 -2.34536 0
M  V30 1595 H 151.727 -0.470361 -0.624728 0
M  V30 1596 H 154.311 -1.59982 -1.10968 0
M  V30 1597 H 152.482 -1.40219 -3.62206 0
M  V30 1598 H 154.214 -1.63674 -3.70126 0
M  V30 1599 H 150.969 -3.56854 -3.11372 0
M  V30 1600 H 151.393 -6.1693 -2.78795 0
M  V30 1601 H 156.035 -3.26771 -2.68292 0
M  V30 1602 H 153.753 -7.71182 -2.41463 0
M  V30 1603 H 157.339 -5.33711 -2.31611 0
M  V30 1604 H 156.219 -7.53129 -2.18555 0
M  V30 1605 N 153.722 1.14298 -1.08507 0
M  V30 1606 C 154.67 2.21483 -0.710483 0
M  V30 1607 C 155.664 1.66998 0.284234 0
M  V30 1608 O 156.87 1.79401 0.146692 0
M  V30 1609 H 153.245 0.721578 -0.211729 0
M  V30 1610 H 155.216 2.50348 -1.62384 0
M  V30 1611 C 153.965 3.4743 -0.137007 0
M  V30 1612 H 153.288 3.89686 -0.893592 0
M  V30 1613 H 154.728 4.2391 0.0872789 0
M  V30 1614 C 153.187 3.17548 1.12538 0
M  V30 1615 O 153.717 3.35437 2.21009 0
M  V30 1616 N 151.923 2.71499 1.03617 0
M  V30 1617 H 151.47 2.57143 0.153403 0
M  V30 1618 H 151.428 2.51881 1.88158 0
M  V30 1619 N 155.201 0.870884 1.31352 0
M  V30 1620 C 156.448 0.482273 1.96673 0
M  V30 1621 C 156.776 -0.965638 1.68836 0
M  V30 1622 O 156.031 -1.69514 0.977937 0
M  V30 1623 C 156.33 0.687157 3.50732 0
M  V30 1624 C 155.996 2.108 3.9859 0
M  V30 1625 C 154.658 2.49656 4.1137 0
M  V30 1626 C 157.01 3.03459 4.23748 0
M  V30 1627 C 154.338 3.80412 4.46659 0
M  V30 1628 C 156.69 4.3373 4.60501 0
M  V30 1629 C 155.354 4.725 4.71487 0
M  V30 1630 H 154.624 0.176476 0.719679 0
M  V30 1631 H 157.271 1.10405 1.56471 0
M  V30 1632 H 155.576 -0.0177476 3.91796 0
M  V30 1633 H 157.273 0.366284 3.99324 0
M  V30 1634 H 153.863 1.79633 3.8914 0
M  V30 1635 H 158.047 2.74665 4.13368 0
M  V30 1636 H 153.303 4.1021 4.53362 0
M  V30 1637 H 157.477 5.05578 4.78919 0
M  V30 1638 H 155.104 5.73859 4.98588 0
M  V30 1639 N 156.679 -1.44442 0.630414 0
M  V30 1640 C 157.589 -2.34476 -0.0761693 0
M  V30 1641 C 158.605 -1.52576 -0.836449 0
M  V30 1642 O 159.781 -1.85307 -0.788874 0
M  V30 1643 C 156.846 -3.30545 -1.04599 0
M  V30 1644 C 155.907 -4.28352 -0.28516 0
M  V30 1645 C 155.14 -5.19831 -1.20878 0
M  V30 1646 O 155.363 -5.15223 -2.44747 0
M  V30 1647 O 154.297 -5.97892 -0.693491 0
M  V30 1648 H 158.123 -2.96345 0.664324 0
M  V30 1649 H 155.708 -1.44203 0.39061 0
M  V30 1650 H 157.59 -3.89681 -1.60396 0
M  V30 1651 H 156.265 -2.7121 -1.76711 0
M  V30 1652 H 155.172 -3.72764 0.315837 0
M  V30 1653 H 156.505 -4.90605 0.395924 0
M  V30 1654 N 158.157 -0.370918 -1.53173 0
M  V30 1655 C 159.104 0.473035 -2.259 0
M  V30 1656 C 160.074 1.07311 -1.26781 0
M  V30 1657 O 161.259 1.1046 -1.55574 0
M  V30 1658 C 158.399 1.60405 -3.05556 0
M  V30 1659 C 157.512 1.02863 -4.19575 0
M  V30 1660 C 156.647 2.12918 -4.86661 0
M  V30 1661 C 155.686 1.52869 -5.92704 0
M  V30 1662 N 154.823 2.56779 -6.53459 0
M  V30 1663 H 159.663 -0.153649 -2.97604 0
M  V30 1664 H 157.2 -0.0875946 -1.46839 0
M  V30 1665 H 159.158 2.27034 -3.50016 0
M  V30 1666 H 157.788 2.20131 -2.36097 0
M  V30 1667 H 156.84 0.252465 -3.79561 0
M  V30 1668 H 158.152 0.549642 -4.95762 0
M  V30 1669 H 157.306 2.87356 -5.34333 0
M  V30 1670 H 156.045 2.6417 -4.09958 0
M  V30 1671 H 155.05 0.769479 -5.44389 0
M  V30 1672 H 156.275 1.02435 -6.7133 0
M  V30 1673 H 154.221 3.07235 -5.79606 0
M  V30 1674 H 154.138 2.13583 -7.25202 0
M  V30 1675 H 155.406 3.30903 -7.05779 0
M  V30 1676 N 159.635 1.57281 -0.100228 0
M  V30 1677 C 160.882 1.94537 0.562268 0
M  V30 1678 C 161.21 0.982315 1.67871 0
M  V30 1679 O 160.465 0.00280936 1.957 0
M  V30 1680 C 160.764 3.38305 1.15259 0
M  V30 1681 C 160.43 4.50618 0.159409 0
M  V30 1682 C 159.092 4.81066 -0.113741 0
M  V30 1683 C 161.444 5.18615 -0.518461 0
M  V30 1684 C 158.772 5.76835 -1.07137 0
M  V30 1685 C 161.124 6.15412 -1.46459 0
M  V30 1686 C 159.788 6.44262 -1.74592 0
M  V30 1687 H 159.058 0.711863 0.205748 0
M  V30 1688 H 161.705 1.90679 -0.17715 0
M  V30 1689 H 160.01 3.38766 1.96836 0
M  V30 1690 H 161.707 3.64435 1.67297 0
M  V30 1691 H 158.297 4.2689 0.382491 0
M  V30 1692 H 162.481 4.95264 -0.320581 0
M  V30 1693 H 157.737 5.975 -1.29628 0
M  V30 1694 H 161.911 6.67194 -1.99564 0
M  V30 1695 H 159.538 7.1828 -2.48953 0
M  V30 1696 N 161.113 -0.173488 1.56642 0
M  V30 1697 C 162.043 -1.2171 1.99271 0
M  V30 1698 C 163.024 -1.46289 0.867959 0
M  V30 1699 O 164.209 -1.5766 1.13388 0
M  V30 1700 C 161.339 -2.55651 2.35074 0
M  V30 1701 C 160.293 -2.45645 3.50489 0
M  V30 1702 C 159.619 -3.84056 3.72028 0
M  V30 1703 C 160.919 -1.96302 4.84007 0
M  V30 1704 H 162.613 -0.86275 2.867 0
M  V30 1705 H 160.159 -0.413571 1.37933 0
M  V30 1706 H 162.112 -3.2886 2.63494 0
M  V30 1707 H 160.836 -2.92869 1.44552 0
M  V30 1708 H 159.495 -1.7489 3.22194 0
M  V30 1709 H 159.143 -4.18664 2.788 0
M  V30 1710 H 158.843 -3.7823 4.49684 0
M  V30 1711 H 160.367 -4.58854 4.02846 0
M  V30 1712 H 161.781 -2.59284 5.11317 0
M  V30 1713 H 160.178 -2.01429 5.65284 0
M  V30 1714 H 161.248 -0.917226 4.76146 0
M  V30 1715 N 162.591 -1.51276 -0.441967 0
M  V30 1716 C 163.837 -1.63958 -1.19355 0
M  V30 1717 C 164.17 -0.352543 -1.90973 0
M  V30 1718 O 163.445 0.647627 -1.83401 0
M  V30 1719 C 163.728 -2.83979 -2.21422 0
M  V30 1720 C 163.581 -4.22646 -1.53918 0
M  V30 1721 C 164.9 -2.99521 -3.22451 0
M  V30 1722 H 162.019 -0.596709 -0.432559 0
M  V30 1723 H 164.661 -1.83748 -0.483398 0
M  V30 1724 H 162.811 -2.67237 -2.81987 0
M  V30 1725 H 164.483 -4.51045 -0.967256 0
M  V30 1726 H 162.726 -4.25558 -0.841615 0
M  V30 1727 H 163.397 -5.02609 -2.28229 0
M  V30 1728 H 165.873 -3.14944 -2.71937 0
M  V30 1729 H 164.749 -3.85072 -3.91166 0
M  V30 1730 H 165.01 -2.11391 -3.88287 0
M  V30 1731 N 164.069 0.697108 -1.41344 0
M  V30 1732 C 165.317 1.45426 -1.40341 0
M  V30 1733 C 165.638 1.94996 -0.0128787 0
M  V30 1734 O 164.908 1.71599 0.945027 0
M  V30 1735 H 163.488 0.539594 -0.516573 0
M  V30 1736 H 166.15 0.825201 -1.76569 0
M  V30 1737 H 165.246 2.31817 -2.08967 0
M  V30 1738 N 165.547 1.27147 0.931209 0
M  V30 1739 C 166.958 1.12044 1.49342 0
M  V30 1740 C 167.309 -0.295795 1.93957 0
M  V30 1741 O 166.434 -1.18835 1.80852 0
M  V30 1742 C 167.029 2.02781 2.71414 0
M  V30 1743 C 165.588 1.91794 3.2387 0
M  V30 1744 C 164.735 1.95543 1.96617 0
M  V30 1745 H 167.686 1.40091 0.745672 0
M  V30 1746 H 167.707 1.58156 3.46074 0
M  V30 1747 H 167.219 3.05848 2.38911 0
M  V30 1748 H 165.32 0.916992 3.6114 0
M  V30 1749 H 165.433 2.77852 3.90302 0
M  V30 1750 H 163.797 1.39722 2.12955 0
M  V30 1751 H 164.58 3.00259 1.66432 0
M  V30 1752 N 167.025 -1.13721 1.09112 0
M  V30 1753 C 168.302 -1.81155 0.737706 0
M  V30 1754 C 168.682 -1.96253 -0.777683 0
M  V30 1755 O 168.03 -1.52807 -1.69889 0
M  V30 1756 C 168.24 -3.16392 1.47299 0
M  V30 1757 C 169.588 -3.91787 1.63671 0
M  V30 1758 O 170.612 -3.26005 1.43524 0
M  V30 1759 O 169.471 -5.0977 1.96969 0
M  V30 1760 H 166.565 -0.783518 0.26463 0
M  V30 1761 H 169.111 -1.20676 1.19312 0
M  V30 1762 H 167.883 -3.0061 2.50498 0
M  V30 1763 H 167.506 -3.8457 1.00953 0
M  V30 1764 N 168.503 -0.877838 -1.30888 0
M  V30 1765 C 169.751 -0.491723 -1.96027 0
M  V30 1766 C 170.072 0.960827 -1.69685 0
M  V30 1767 O 169.342 1.67462 -1.01654 0
M  V30 1768 H 167.922 -0.17885 -0.725273 0
M  V30 1769 H 170.584 -1.11935 -1.59551 0
M  V30 1770 H 169.68 -0.656016 -3.05128 0
M  V30 1771 N 169.982 1.44106 -0.638065 0
M  V30 1772 C 171.228 2.02277 -0.145546 0
M  V30 1773 C 171.561 1.50125 1.23191 0
M  V30 1774 O 170.836 0.688133 1.8192 0
M  V30 1775 C 171.119 3.59829 -0.139791 0
M  V30 1776 C 170.972 4.22247 -1.55008 0
M  V30 1777 C 172.291 4.36873 0.531966 0
M  V30 1778 H 169.41 0.734992 -0.0543632 0
M  V30 1779 H 172.052 1.71592 -0.815863 0
M  V30 1780 H 170.202 3.86102 0.431007 0
M  V30 1781 H 171.874 4.07057 -2.1703 0
M  V30 1782 H 170.117 3.79476 -2.10191 0
M  V30 1783 H 170.788 5.31284 -1.49804 0
M  V30 1784 H 173.264 4.16074 0.0464781 0
M  V30 1785 H 172.14 5.4657 0.505206 0
M  V30 1786 H 172.401 4.11995 1.60352 0
M  V30 1787 N 171.46 0.379036 1.52974 0
M  V30 1788 C 172.871 -0.0972525 1.86447 0
M  V30 1789 C 173.222 -1.47027 1.29914 0
M  V30 1790 O 172.347 -2.07135 0.626433 0
M  V30 1791 C 172.942 -0.183248 3.38304 0
M  V30 1792 C 171.501 -0.603812 3.71525 0
M  V30 1793 C 170.648 0.240632 2.76254 0
M  V30 1794 H 173.599 0.597316 1.4703 0
M  V30 1795 H 173.62 -1.00432 3.67006 0
M  V30 1796 H 173.132 0.816191 3.79421 0
M  V30 1797 H 171.233 -1.61099 3.35973 0
M  V30 1798 H 171.346 -0.369086 4.77676 0
M  V30 1799 H 169.71 -0.292548 2.53014 0
M  V30 1800 H 170.493 1.23786 3.20206 0
M  V30 1801 N 172.938 -1.57226 0.108567 0
M  V30 1802 C 173.868 -2.17778 -0.84232 0
M  V30 1803 C 174.849 -1.11487 -1.2847 0
M  V30 1804 O 176.034 -1.39681 -1.34918 0
M  V30 1805 C 173.164 -2.76888 -2.09644 0
M  V30 1806 C 172.118 -3.88669 -1.79221 0
M  V30 1807 C 171.444 -4.34541 -3.11574 0
M  V30 1808 C 172.744 -5.11251 -1.06864 0
M  V30 1809 H 174.438 -2.97489 -0.337774 0
M  V30 1810 H 171.984 -1.43097 -0.161025 0
M  V30 1811 H 173.937 -3.17904 -2.76614 0
M  V30 1812 H 172.661 -1.94451 -2.62405 0
M  V30 1813 H 171.32 -3.48213 -1.14644 0
M  V30 1814 H 170.968 -3.48977 -3.62249 0
M  V30 1815 H 170.668 -5.09914 -2.91996 0
M  V30 1816 H 172.192 -4.782 -3.7968 0
M  V30 1817 H 173.606 -5.49352 -1.63968 0
M  V30 1818 H 172.003 -5.9214 -0.974178 0
M  V30 1819 H 173.073 -4.8487 -0.0536168 0
M  V30 1820 N 174.416 0.165178 -1.56732 0
M  V30 1821 C 175.832 0.517174 -1.50988 0
M  V30 1822 C 176.032 1.84331 -0.813894 0
M  V30 1823 O 175.088 2.49672 -0.37682 0
M  V30 1824 C 176.401 0.544261 -2.95733 0
M  V30 1825 C 177.949 0.631039 -3.06573 0
M  V30 1826 C 178.424 0.68896 -4.52788 0
M  V30 1827 N 179.915 0.751683 -4.5706 0
M  V30 1828 C 180.65 0.817177 -5.67547 0
M  V30 1829 N 180.146 0.843129 -6.8765 0
M  V30 1830 N 181.939 0.856668 -5.55534 0
M  V30 1831 H 174.09 -0.704318 -2.00382 0
M  V30 1832 H 176.353 -0.254687 -0.913148 0
M  V30 1833 H 176.059 -0.361607 -3.49836 0
M  V30 1834 H 175.933 1.3886 -3.5071 0
M  V30 1835 H 178.32 1.52733 -2.52501 0
M  V30 1836 H 178.401 -0.240095 -2.54671 0
M  V30 1837 H 178.045 -0.2031 -5.07494 0
M  V30 1838 H 177.975 1.57633 -5.02454 0
M  V30 1839 H 180.466 0.739661 -3.70591 0
M  V30 1840 H 180.779 0.894448 -7.67606 0
M  V30 1841 H 179.124 0.811304 -6.90248 0
M  V30 1842 H 182.315 0.833437 -4.60621 0
M  V30 1843 H 182.488 0.904247 -6.4166 0
M  V30 1844 N 175.894 1.51508 0.433938 0
M  V30 1845 C 177.31 1.39759 0.770682 0
M  V30 1846 C 177.51 0.482594 1.95636 0
M  V30 1847 O 176.566 -0.0609691 2.52426 0
M  V30 1848 C 177.879 2.81851 1.04787 0
M  V30 1849 C 179.427 2.91025 1.1521 0
M  V30 1850 C 179.902 4.34032 1.46219 0
M  V30 1851 N 181.393 4.37154 1.53136 0
M  V30 1852 C 182.128 5.4484 1.78709 0
M  V30 1853 N 181.624 6.62682 2.02051 0
M  V30 1854 N 183.417 5.32324 1.80519 0
M  V30 1855 H 175.568 2.09548 -0.346892 0
M  V30 1856 H 177.831 0.943446 -0.0928074 0
M  V30 1857 H 177.537 3.50815 0.249304 0
M  V30 1858 H 177.411 3.21386 1.97461 0
M  V30 1859 H 179.798 2.22257 1.94128 0
M  V30 1860 H 179.879 2.54983 0.204281 0
M  V30 1861 H 179.523 5.03351 0.678274 0
M  V30 1862 H 179.453 4.6759 2.42212 0
M  V30 1863 H 181.944 3.52197 1.36987 0
M  V30 1864 H 182.257 7.40543 2.20943 0
M  V30 1865 H 180.602 6.65791 1.99366 0
M  V30 1866 H 183.793 4.39246 1.61805 0
M  V30 1867 H 183.966 6.16328 2.00111 0
M  V30 1868 N 177.372 -0.689602 1.41712 0
M  V30 1869 C 178.602 -1.47613 1.44548 0
M  V30 1870 C 179.01 -1.89132 0.0509034 0
M  V30 1871 O 178.353 -1.57741 -0.94146 0
M  V30 1872 C 178.415 -2.76596 2.2964 0
M  V30 1873 C 178.079 -2.57245 3.77722 0
M  V30 1874 C 179.076 -2.22804 4.69739 0
M  V30 1875 C 176.761 -2.727 4.2183 0
M  V30 1876 C 178.755 -2.04064 6.03851 0
M  V30 1877 C 176.442 -2.53576 5.56006 0
M  V30 1878 C 177.44 -2.1931 6.46832 0
M  V30 1879 O 177.128 -2.00359 7.78532 0
M  V30 1880 H 176.86 -0.461227 0.494212 0
M  V30 1881 H 179.414 -0.856045 1.86711 0
M  V30 1882 H 177.644 -3.41033 1.82301 0
M  V30 1883 H 179.333 -3.38424 2.24107 0
M  V30 1884 H 180.099 -2.10473 4.36951 0
M  V30 1885 H 175.978 -2.98353 3.51435 0
M  V30 1886 H 179.522 -1.77241 6.74708 0
M  V30 1887 H 175.419 -2.65499 5.88371 0
M  V30 1888 H 176.187 -2.15075 7.89737 0
M  V30 1889 N 178.85 -1.27639 -0.924453 0
M  V30 1890 C 180.075 -1.17101 -1.71179 0
M  V30 1891 C 180.5 0.268134 -1.86179 0
M  V30 1892 O 179.858 1.19415 -1.36418 0
M  V30 1893 C 179.906 -1.86313 -3.08739 0
M  V30 1894 O 179.01 -1.16331 -3.95652 0
M  V30 1895 H 178.351 -0.407091 -0.524569 0
M  V30 1896 H 180.881 -1.68767 -1.15666 0
M  V30 1897 H 180.891 -1.938 -3.59034 0
M  V30 1898 H 179.566 -2.91001 -2.97138 0
M  V30 1899 H 178.143 -1.16935 -3.54091 0
M  V30 1900 N 180.328 1.1314 -1.09713 0
M  V30 1901 C 181.744 1.36477 -0.827423 0
M  V30 1902 C 181.944 1.93654 0.556817 0
M  V30 1903 O 181 2.15791 1.31112 0
M  V30 1904 C 182.313 2.31334 -1.92106 0
M  V30 1905 C 183.861 2.44943 -1.94864 0
M  V30 1906 C 184.336 3.4311 -3.0338 0
M  V30 1907 N 185.827 3.50662 -3.02639 0
M  V30 1908 C 186.562 4.2651 -3.83246 0
M  V30 1909 N 186.058 5.05485 -4.73768 0
M  V30 1910 N 187.851 4.2184 -3.71493 0
M  V30 1911 H 180.002 0.743807 -1.9895 0
M  V30 1912 H 182.265 0.389823 -0.864143 0
M  V30 1913 H 181.971 1.96483 -2.91698 0
M  V30 1914 H 181.845 3.31381 -1.80184 0
M  V30 1915 H 184.232 2.79079 -0.959099 0
M  V30 1916 H 184.313 1.4481 -2.10864 0
M  V30 1917 H 183.957 3.09704 -4.02549 0
M  V30 1918 H 183.887 4.43055 -2.84622 0
M  V30 1919 H 186.378 2.94315 -2.37039 0
M  V30 1920 H 186.691 5.60675 -5.3185 0
M  V30 1921 H 185.036 5.04708 -4.77802 0
M  V30 1922 H 188.227 3.5922 -3.00131 0
M  V30 1923 H 188.4 4.80697 -4.3455 0
M  V30 1924 N 181.806 0.884767 1.30421 0
M  V30 1925 C 183.222 0.57874 1.48737 0
M  V30 1926 C 183.422 -0.883567 1.81095 0
M  V30 1927 O 182.478 -1.6648 1.89844 0
M  V30 1928 C 183.791 1.49171 2.61091 0
M  V30 1929 C 185.339 1.49532 2.74971 0
M  V30 1930 C 185.814 2.39421 3.90438 0
M  V30 1931 N 187.305 2.37383 3.97748 0
M  V30 1932 C 188.04 3.03647 4.86401 0
M  V30 1933 N 187.536 3.79136 5.79852 0
M  V30 1934 N 189.329 2.9288 4.79768 0
M  V30 1935 H 181.48 1.83075 1.0769 0
M  V30 1936 H 183.743 0.783637 0.533495 0
M  V30 1937 H 183.449 2.53291 2.44001 0
M  V30 1938 H 183.323 1.20113 3.57565 0
M  V30 1939 H 185.71 0.46163 2.91467 0
M  V30 1940 H 185.791 1.8262 1.79119 0
M  V30 1941 H 185.435 3.42874 3.74699 0
M  V30 1942 H 185.365 2.03649 4.85628 0
M  V30 1943 H 187.856 1.82525 3.30897 0
M  V30 1944 H 188.169 4.26789 6.4426 0
M  V30 1945 H 186.514 3.83243 5.79784 0
M  V30 1946 H 189.705 2.33433 4.05742 0
M  V30 1947 H 189.878 3.448 5.4865 0
M  V30 1948 N 183.284 -1.43765 0.645699 0
M  V30 1949 C 184.531 -2.01898 0.15604 0
M  V30 1950 C 184.859 -1.50887 -1.22733 0
M  V30 1951 O 184.114 -0.689271 -1.8316 0
M  V30 1952 C 184.413 -3.57238 0.107679 0
M  V30 1953 C 184.079 -4.27564 1.43178 0
M  V30 1954 C 182.741 -4.46492 1.7944 0
M  V30 1955 C 185.093 -4.67454 2.30513 0
M  V30 1956 C 182.421 -5.02573 3.02716 0
M  V30 1957 C 184.773 -5.24901 3.53074 0
M  V30 1958 C 183.437 -5.42046 3.89541 0
M  V30 1959 H 182.707 -0.738797 0.057099 0
M  V30 1960 H 185.354 -1.72341 0.834912 0
M  V30 1961 H 183.659 -3.86293 -0.654618 0
M  V30 1962 H 185.356 -3.99965 -0.287938 0
M  V30 1963 H 181.946 -4.13171 1.13963 0
M  V30 1964 H 186.13 -4.5253 2.0379 0
M  V30 1965 H 181.386 -5.14033 3.31028 0
M  V30 1966 H 185.56 -5.54758 4.20971 0
M  V30 1967 H 183.187 -5.85268 4.85145 0
M  V30 1968 N 184.763 -0.387143 -1.52771 0
M  V30 1969 C 185.695 0.484089 -2.2403 0
M  V30 1970 C 186.708 1.02849 -1.26198 0
M  V30 1971 O 187.897 0.931186 -1.52286 0
M  V30 1972 C 184.997 1.68337 -2.94136 0
M  V30 1973 C 184.17 1.26672 -4.18656 0
M  V30 1974 C 183.229 2.33045 -4.7178 0
M  V30 1975 O 182.255 1.94541 -5.34923 0
M  V30 1976 N 183.457 3.64929 -4.5145 0
M  V30 1977 H 186.222 -0.126404 -2.99433 0
M  V30 1978 H 183.783 -0.213392 -1.60488 0
M  V30 1979 H 185.775 2.39019 -3.26577 0
M  V30 1980 H 184.345 2.20025 -2.22053 0
M  V30 1981 H 183.565 0.388878 -3.92277 0
M  V30 1982 H 184.853 0.964964 -4.99566 0
M  V30 1983 H 184.251 3.98974 -4.01044 0
M  V30 1984 H 182.808 4.31651 -4.88386 0
M  V30 1985 N 186.241 1.57166 -0.116904 0
M  V30 1986 C 187.469 1.99473 0.549383 0
M  V30 1987 C 187.884 0.996541 1.60357 0
M  V30 1988 O 187.241 -0.0108731 1.82497 0
M  V30 1989 C 187.292 3.41788 1.17741 0
M  V30 1990 O 187.013 4.37788 0.165362 0
M  V30 1991 C 188.514 3.99216 1.92722 0
M  V30 1992 H 185.734 0.655009 0.145616 0
M  V30 1993 H 188.278 2.03494 -0.202625 0
M  V30 1994 H 186.433 3.38713 1.88021 0
M  V30 1995 H 186.847 5.20806 0.621403 0
M  V30 1996 H 188.321 5.00882 2.31995 0
M  V30 1997 H 188.798 3.3824 2.80161 0
M  V30 1998 H 189.404 4.0583 1.27209 0
M  V30 1999 N 187.719 -0.156864 1.56817 0
M  V30 2000 C 188.968 -0.869504 1.81996 0
M  V30 2001 C 189.281 -1.82777 0.696545 0
M  V30 2002 O 190.487 -2.58384 0.833658 0
M  V30 2003 C 188.943 -1.59679 3.22538 0
M  V30 2004 C 188.551 -0.681431 4.42787 0
M  V30 2005 C 190.295 -2.2968 3.56997 0
M  V30 2006 C 188.202 -1.40978 5.74351 0
M  V30 2007 H 187.132 -0.328438 0.678708 0
M  V30 2008 H 189.783 -0.1223 1.83092 0
M  V30 2009 H 188.165 -2.38927 3.158 0
M  V30 2010 H 189.339 0.0751166 4.60739 0
M  V30 2011 H 187.654 -0.0903431 4.16302 0
M  V30 2012 H 190.251 -2.84794 4.52544 0
M  V30 2013 H 190.594 -3.05707 2.82576 0
M  V30 2014 H 191.127 -1.57361 3.65352 0
M  V30 2015 H 187.866 -0.691561 6.51842 0
M  V30 2016 H 187.386 -2.13929 5.60352 0
M  V30 2017 H 189.065 -1.95337 6.16808 0
M  V30 2018 N 189.197 -1.51736 -0.425897 0
M  V30 2019 C 190.474 -1.55519 -1.1863 0
M  V30 2020 C 190.854 -0.326219 -2.08564 0
M  V30 2021 O 190.202 0.688012 -2.17896 0
M  V30 2022 C 190.412 -2.87521 -1.9782 0
M  V30 2023 C 191.76 -3.39899 -2.54468 0
M  V30 2024 O 192.784 -2.89148 -2.08019 0
M  V30 2025 O 191.643 -4.2848 -3.39215 0
M  V30 2026 H 188.737 -0.625739 -0.540721 0
M  V30 2027 H 191.283 -1.64055 -0.434038 0
M  V30 2028 H 190.055 -3.68422 -1.31836 0
M  V30 2029 H 189.678 -2.822 -2.80088 0
M  V30 2030 N 190.675 0.682077 -1.42076 0
M  V30 2031 C 191.924 1.43786 -1.41451 0
M  V30 2032 C 192.237 1.95574 -0.0317074 0
M  V30 2033 O 193.443 2.71326 0.0971462 0
M  V30 2034 C 191.899 2.60071 -2.48779 0
M  V30 2035 C 191.507 2.15013 -3.93031 0
M  V30 2036 C 193.251 3.37626 -2.57311 0
M  V30 2037 C 191.158 3.28336 -4.91883 0
M  V30 2038 H 190.088 0.540143 -0.526082 0
M  V30 2039 H 192.739 0.739157 -1.67955 0
M  V30 2040 H 191.121 3.32275 -2.15429 0
M  V30 2041 H 192.295 1.5001 -4.35699 0
M  V30 2042 H 190.61 1.50416 -3.88284 0
M  V30 2043 H 193.207 4.22012 -3.28345 0
M  V30 2044 H 193.55 3.83727 -1.61429 0
M  V30 2045 H 194.083 2.72488 -2.89819 0
M  V30 2046 H 190.822 2.87234 -5.89217 0
M  V30 2047 H 190.342 3.92145 -4.53853 0
M  V30 2048 H 192.021 3.93913 -5.13265 0
M  V30 2049 N 192.153 1.28127 0.917671 0
M  V30 2050 C 193.063 1.13556 2.05286 0
M  V30 2051 C 194.079 0.0630914 1.73886 0
M  V30 2052 O 195.255 0.271598 1.9956 0
M  V30 2053 C 192.32 0.794676 3.3747 0
M  V30 2054 C 191.381 1.94909 3.82504 0
M  V30 2055 C 190.614 1.62437 5.0838 0
M  V30 2056 O 190.837 0.536905 5.67867 0
M  V30 2057 O 189.771 2.46677 5.4903 0
M  V30 2058 H 193.597 2.08844 2.20495 0
M  V30 2059 H 191.182 1.07409 1.03845 0
M  V30 2060 H 193.064 0.618344 4.16839 0
M  V30 2061 H 191.739 -0.128581 3.23445 0
M  V30 2062 H 190.646 2.18055 3.03978 0
M  V30 2063 H 191.979 2.85291 4.01086 0
M  V30 2064 N 193.631 -1.12557 1.10312 0
M  V30 2065 C 195.042 -1.65574 0.862678 0
M  V30 2066 C 195.393 -1.86566 -0.607256 0
M  V30 2067 O 194.518 -1.59121 -1.46662 0
M  V30 2068 C 195.113 -3.00776 1.55947 0
M  V30 2069 C 193.672 -3.50748 1.36576 0
M  V30 2070 C 192.819 -2.25797 1.60968 0
M  V30 2071 H 195.77 -0.963552 1.26101 0
M  V30 2072 H 195.791 -3.67185 0.997753 0
M  V30 2073 H 195.303 -2.85465 2.62928 0
M  V30 2074 H 193.404 -3.71245 0.317531 0
M  V30 2075 H 193.517 -4.30289 2.10686 0
M  V30 2076 H 191.881 -2.32841 1.03234 0
M  V30 2077 H 192.664 -2.13043 2.69198 0
M  V30 2078 N 195.109 -0.891671 -1.2995 0
M  V30 2079 C 196.386 -0.433307 -1.9074 0
M  V30 2080 C 196.766 1.08646 -1.80995 0
M  V30 2081 O 196.114 1.92476 -1.23147 0
M  V30 2082 C 196.324 -0.938895 -3.36134 0
M  V30 2083 C 197.672 -0.977829 -4.13187 0
M  V30 2084 O 198.696 -0.886015 -3.45005 0
M  V30 2085 O 197.555 -1.11453 -5.35015 0
M  V30 2086 H 194.649 -0.133699 -0.816121 0
M  V30 2087 H 197.195 -0.981011 -1.38471 0
M  V30 2088 H 195.967 -1.98281 -3.37343 0
M  V30 2089 H 195.59 -0.37074 -3.95868 0
M  V30 2090 N 196.587 1.43421 -0.653314 0
M  V30 2091 C 197.836 2.01032 -0.164076 0
M  V30 2092 C 198.149 1.52147 1.22926 0
M  V30 2093 O 199.355 2.02031 1.81371 0
M  V30 2094 C 197.811 3.59082 -0.24252 0
M  V30 2095 C 197.419 4.1696 -1.63855 0
M  V30 2096 C 199.163 4.24079 0.18911 0
M  V30 2097 C 197.07 5.67304 -1.67092 0
M  V30 2098 H 196 0.751798 -0.0575769 0
M  V30 2099 H 198.651 1.6439 -0.815362 0
M  V30 2100 H 197.033 3.93125 0.476276 0
M  V30 2101 H 198.207 3.94416 -2.38271 0
M  V30 2102 H 196.522 3.64335 -2.01616 0
M  V30 2103 H 199.119 5.34381 0.184775 0
M  V30 2104 H 199.462 3.98005 1.22056 0
M  V30 2105 H 199.995 3.94918 -0.477938 0
M  V30 2106 H 196.734 5.98145 -2.68146 0
M  V30 2107 H 196.254 5.91904 -0.970014 0
M  V30 2108 H 197.933 6.31344 -1.4147 0
M  V30 2109 N 198.065 0.39524 1.52563 0
M  V30 2110 C 198.975 -0.444232 2.30356 0
M  V30 2111 C 199.991 -1.06615 1.37511 0
M  V30 2112 O 201.167 -1.07067 1.70583 0
M  V30 2113 C 198.232 -1.55315 3.09964 0
M  V30 2114 C 197.293 -0.955734 4.18526 0
M  V30 2115 C 196.526 -2.01181 4.9433 0
M  V30 2116 O 196.749 -3.22781 4.70285 0
M  V30 2117 O 195.683 -1.62579 5.79527 0
M  V30 2118 H 199.509 0.189667 3.03107 0
M  V30 2119 H 197.094 0.1588 1.48554 0
M  V30 2120 H 198.976 -2.19724 3.59582 0
M  V30 2121 H 197.651 -2.17191 2.4002 0
M  V30 2122 H 196.558 -0.274743 3.7309 0
M  V30 2123 H 197.891 -0.381109 4.90722 0
M  V30 2124 N 199.544 -1.57102 0.125237 0
M  V30 2125 C 200.507 -2.14471 -0.80838 0
M  V30 2126 C 201.507 -1.0811 -1.19033 0
M  V30 2127 O 202.697 -1.33856 -1.11482 0
M  V30 2128 C 199.829 -2.69005 -2.09402 0
M  V30 2129 H 201.022 -2.98297 -0.309696 0
M  V30 2130 H 198.575 -1.55807 -0.124051 0
M  V30 2131 H 199.31 -1.88785 -2.63687 0
M  V30 2132 H 199.095 -3.46799 -1.82957 0
M  V30 2133 H 200.585 -3.13278 -2.76128 0
M  V30 2134 N 201.022 0.148545 -1.56898 0
M  V30 2135 C 201.952 1.18524 -2.01182 0
M  V30 2136 C 202.933 1.4489 -0.891123 0
M  V30 2137 O 204.118 1.55836 -1.15882 0
M  V30 2138 C 201.248 2.51879 -2.39112 0
M  V30 2139 C 200.202 2.40038 -3.54353 0
M  V30 2140 C 199.528 3.78089 -3.78091 0
M  V30 2141 C 200.828 1.88577 -4.87069 0
M  V30 2142 H 202.522 0.817029 -2.88036 0
M  V30 2143 H 200.068 0.391575 -1.38574 0
M  V30 2144 H 202.021 3.24627 -2.68692 0
M  V30 2145 H 200.745 2.90532 -1.49193 0
M  V30 2146 H 199.404 1.69742 -3.24936 0
M  V30 2147 H 199.052 4.14175 -2.85426 0
M  V30 2148 H 198.752 3.71028 -4.55645 0
M  V30 2149 H 200.276 4.52387 -4.10095 0
M  V30 2150 H 201.69 2.51117 -5.15377 0
M  V30 2151 H 200.087 1.9241 -5.68417 0
M  V30 2152 H 201.157 0.84136 -4.77545 0
M  V30 2153 N 202.5 1.5196 0.417844 0
M  V30 2154 C 203.43 1.77634 1.51554 0
M  V30 2155 C 204.411 0.626918 1.58126 0
M  V30 2156 O 205.596 0.871632 1.7354 0
M  V30 2157 C 202.726 1.91911 2.8946 0
M  V30 2158 C 201.68 3.07463 2.97743 0
M  V30 2159 C 201.006 3.06951 4.37819 0
M  V30 2160 C 202.306 4.47082 2.70027 0
M  V30 2161 H 204 2.6955 1.3032 0
M  V30 2162 H 201.546 1.29706 0.625492 0
M  V30 2163 H 203.499 2.08455 3.6623 0
M  V30 2164 H 202.223 0.966598 3.11969 0
M  V30 2165 H 200.882 2.90656 2.23416 0
M  V30 2166 H 200.53 2.09438 4.57323 0
M  V30 2167 H 200.23 3.84556 4.44286 0
M  V30 2168 H 201.754 3.25613 5.16535 0
M  V30 2169 H 203.168 4.6414 3.36522 0
M  V30 2170 H 201.565 5.2654 2.87881 0
M  V30 2171 H 202.635 4.55777 1.65514 0
M  V30 2172 N 203.978 -0.674533 1.42435 0
M  V30 2173 C 205.203 -1.46784 1.46524 0
M  V30 2174 C 205.628 -1.87938 0.078066 0
M  V30 2175 O 204.986 -1.56014 -0.92354 0
M  V30 2176 C 205.034 -2.69307 2.39805 0
M  V30 2177 O 204.138 -3.67587 1.86959 0
M  V30 2178 H 203.479 -0.440959 0.496439 0
M  V30 2179 H 206.009 -0.827326 1.87127 0
M  V30 2180 H 206.019 -3.17374 2.56393 0
M  V30 2181 H 204.694 -2.38692 3.40586 0
M  V30 2182 H 203.271 -3.2662 1.79927 0
M  V30 2183 N 205.456 -1.28612 -0.910864 0
M  V30 2184 C 206.388 -1.08589 -2.01844 0
M  V30 2185 C 207.401 -0.0367419 -1.62759 0
M  V30 2186 O 208.59 -0.280101 -1.76289 0
M  V30 2187 C 205.69 -0.628626 -3.33019 0
M  V30 2188 C 204.863 -1.75382 -4.00699 0
M  V30 2189 C 203.922 -1.28945 -5.10156 0
M  V30 2190 O 202.948 -1.9922 -5.33198 0
M  V30 2191 N 204.15 -0.154224 -5.80295 0
M  V30 2192 H 206.915 -2.03973 -2.19579 0
M  V30 2193 H 204.476 -1.20403 -1.08234 0
M  V30 2194 H 206.468 -0.301508 -4.03575 0
M  V30 2195 H 205.038 0.232451 -3.11735 0
M  V30 2196 H 204.258 -2.25039 -3.23653 0
M  V30 2197 H 205.546 -2.50854 -4.42662 0
M  V30 2198 H 204.944 0.43194 -5.64049 0
M  V30 2199 H 203.501 0.113599 -6.51701 0
M  V30 2200 N 206.934 1.1197 -1.10907 0
M  V30 2201 C 208.182 1.83225 -0.852819 0
M  V30 2202 C 208.503 1.84769 0.623341 0
M  V30 2203 O 207.773 1.3143 1.45269 0
M  V30 2204 H 206.353 0.67849 -0.312507 0
M  V30 2205 H 209.015 1.3556 -1.40033 0
M  V30 2206 H 208.111 2.87265 -1.22005 0
M  V30 2207 N 208.412 0.89855 1.29475 0
M  V30 2208 C 209.342 0.39201 2.30186 0
M  V30 2209 C 210.323 -0.532359 1.61555 0
M  V30 2210 O 211.508 -0.443331 1.89072 0
M  V30 2211 C 208.638 -0.382353 3.45189 0
M  V30 2212 C 207.592 0.451483 4.25612 0
M  V30 2213 C 206.918 -0.450307 5.328 0
M  V30 2214 C 208.218 1.70079 4.93832 0
M  V30 2215 H 209.912 1.23362 2.72804 0
M  V30 2216 H 207.458 0.594638 1.31149 0
M  V30 2217 H 209.411 -0.747451 4.14718 0
M  V30 2218 H 208.135 -1.25774 3.01411 0
M  V30 2219 H 206.794 0.798897 3.57789 0
M  V30 2220 H 206.442 -1.32379 4.85268 0
M  V30 2221 H 206.142 0.103902 5.87508 0
M  V30 2222 H 207.666 -0.811623 6.05182 0
M  V30 2223 H 209.08 1.40549 5.55805 0
M  V30 2224 H 207.477 2.19623 5.58467 0
M  V30 2225 H 208.547 2.43744 4.19186 0
M  V30 2226 N 209.89 -1.43072 0.660911 0
M  V30 2227 C 211.115 -2.06584 0.183805 0
M  V30 2228 C 211.54 -1.49257 -1.14472 0
M  V30 2229 O 210.898 -0.605528 -1.70889 0
M  V30 2230 C 210.946 -3.60418 0.114434 0
M  V30 2231 O 210.05 -4.01981 -0.921137 0
M  V30 2232 H 209.391 -0.656669 0.0983994 0
M  V30 2233 H 211.921 -1.83447 0.906006 0
M  V30 2234 H 211.931 -4.07946 -0.0663394 0
M  V30 2235 H 210.606 -4.01519 1.08422 0
M  V30 2236 H 209.183 -3.66029 -0.71253 0
M  V30 2237 N 211.368 -0.403325 -1.52352 0
M  V30 2238 C 212.608 0.173946 -2.03659 0
M  V30 2239 C 212.972 1.42869 -1.28267 0
M  V30 2240 O 214.173 2.08403 -1.69769 0
M  V30 2241 C 212.444 0.421478 -3.54906 0
M  V30 2242 S 214.003 0.967027 -4.28012 0
M  V30 2243 H 210.821 0.0477461 -0.709395 0
M  V30 2244 H 213.423 -0.554906 -1.87459 0
M  V30 2245 H 212.127 -0.498616 -4.0736 0
M  V30 2246 H 211.658 1.17837 -3.75337 0
M  V30 2247 H 213.673 2.24812 -4.4235 0
M  V30 2248 N 212.846 1.57033 -0.133567 0
M  V30 2249 C 213.809 2.14897 0.796995 0
M  V30 2250 C 214.809 1.0874 1.18458 0
M  V30 2251 O 215.999 1.34446 1.1077 0
M  V30 2252 C 213.131 2.70112 2.07973 0
M  V30 2253 H 214.324 2.98457 0.293873 0
M  V30 2254 H 211.877 1.55871 0.115787 0
M  V30 2255 H 212.612 1.9018 2.62682 0
M  V30 2256 H 212.397 3.47764 1.81115 0
M  V30 2257 H 213.887 3.14738 2.74462 0
M  V30 2258 O 214.363 -0.00541248 1.61499 0
M  V30 2259 H 215.054 -0.622816 1.83414 0
M  V30 END ATOM
M  V30 BEGIN BOND
M  V30 END BOND
M  V30 END CTAB
M  END
$$$$
