drugbank_target|O75251 NADH dehydrogenase [ubiquinone] iron-sulfur protein 7, mitochondrial (DB00157)
 OpenBabel12092119283D

  0  0  0     0  0            999 V3000
M  V30 BEGIN CTAB
M  V30 COUNTS 3334 3374 0 0 0
M  V30 BEGIN ATOM
M  V30 1 H -0.908 1.98254 -0.117106 0
M  V30 2 N 0 1.576 0 0
M  V30 3 C 0.933 2.03868 1.02534 0
M  V30 4 C 1.911 0.928543 1.3348 0
M  V30 5 O 3.095 1.19667 1.45644 0
M  V30 6 C 0.222 2.43627 2.35294 0
M  V30 7 C -0.732 3.65373 2.2001 0
M  V30 8 S 0.101 5.13292 1.52614 0
M  V30 9 C 1.257 5.56322 2.86805 0
M  V30 10 H 1.49 2.90518 0.631377 0
M  V30 11 H -0.977 1.52953 0.210867 0
M  V30 12 H 0.981 2.67203 3.11629 0
M  V30 13 H -0.358 1.57376 2.7183 0
M  V30 14 H -1.165 3.90944 3.18086 0
M  V30 15 H -1.563 3.418 1.51819 0
M  V30 16 H 0.729 5.58782 3.83104 0
M  V30 17 H 1.672 6.56266 2.65933 0
M  V30 18 H 2.08 4.83886 2.90714 0
M  V30 19 N 1.4781 -0.272755 1.55222 0
M  V30 20 C 2.4411 -1.32041 1.87344 0
M  V30 21 C 3.4411 -1.42342 0.74803 0
M  V30 22 O 4.6311 -1.41488 1.0162 0
M  V30 23 C 1.7631 -2.70173 2.07893 0
M  V30 24 H 2.9561 -1.04789 2.80997 0
M  V30 25 H 0.5091 -0.51083 1.47717 0
M  V30 26 H 1.2441 -3.02605 1.16622 0
M  V30 27 H 1.0291 -2.64082 2.89833 0
M  V30 28 H 2.5191 -3.45869 2.34017 0
M  V30 29 N 2.9562 -1.48159 -0.537278 0
M  V30 30 C 4.2022 -1.56035 -1.29541 0
M  V30 31 C 4.5352 -0.230377 -1.92829 0
M  V30 32 O 3.8102 0.762952 -1.78911 0
M  V30 33 C 4.0932 -2.69323 -2.39034 0
M  V30 34 C 3.9462 -4.12002 -1.80485 0
M  V30 35 C 5.2652 -2.78408 -3.40847 0
M  V30 36 H 2.3842 -0.567992 -0.469632 0
M  V30 37 H 5.0262 -1.80302 -0.599277 0
M  V30 38 H 3.1762 -2.48763 -2.98412 0
M  V30 39 H 4.8482 -4.43981 -1.25215 0
M  V30 40 H 3.0912 -4.19344 -1.11055 0
M  V30 41 H 3.7622 -4.87077 -2.59731 0
M  V30 42 H 6.2382 -2.97012 -2.91416 0
M  V30 43 H 5.1142 -3.59416 -4.14863 0
M  V30 44 H 5.3752 -1.86269 -4.00944 0
M  V30 45 N 4.4343 0.785586 -1.36625 0
M  V30 46 C 5.3643 1.91259 -1.33949 0
M  V30 47 C 6.3453 1.68795 -0.210325 0
M  V30 48 O 7.5303 1.89854 -0.408561 0
M  V30 49 C 4.6603 3.28339 -1.13186 0
M  V30 50 C 3.6143 3.65335 -2.22967 0
M  V30 51 C 2.9403 5.00806 -1.87342 0
M  V30 52 C 4.2403 3.7352 -3.65075 0
M  V30 53 H 5.9343 1.93755 -2.28253 0
M  V30 54 H 3.4803 0.930788 -1.09874 0
M  V30 55 H 5.4333 4.06804 -1.09948 0
M  V30 56 H 4.1573 3.2624 -0.153332 0
M  V30 57 H 2.8163 2.89169 -2.25337 0
M  V30 58 H 2.4643 4.95233 -0.880545 0
M  V30 59 H 2.1643 5.26529 -2.60846 0
M  V30 60 H 3.6883 5.81687 -1.85667 0
M  V30 61 H 5.1023 4.42168 -3.64911 0
M  V30 62 H 3.4993 4.10731 -4.37516 0
M  V30 63 H 4.5693 2.74527 -3.99703 0
M  V30 64 N 5.9124 1.20967 1.01018 0
M  V30 65 C 7.1374 1.0503 1.78839 0
M  V30 66 C 7.5624 -0.395752 1.8389 0
M  V30 67 O 6.9204 -1.28529 1.27867 0
M  V30 68 C 6.9684 1.64602 3.2084 0
M  V30 69 O 6.0724 0.887988 4.02726 0
M  V30 70 H 5.4134 0.369987 0.551367 0
M  V30 71 H 7.9434 1.60399 1.27018 0
M  V30 72 H 7.9534 1.68607 3.71532 0
M  V30 73 H 6.6284 2.69841 3.16479 0
M  V30 74 H 5.2054 0.922648 3.61305 0
M  V30 75 N 7.3905 -1.2043 1.01659 0
M  V30 76 C 8.3535 -2.21433 0.591616 0
M  V30 77 C 9.3535 -1.57203 -0.338226 0
M  V30 78 O 10.5435 -1.73737 -0.126918 0
M  V30 79 C 7.6755 -3.40628 -0.136058 0
M  V30 80 H 8.8685 -2.60545 1.48514 0
M  V30 81 H 6.4215 -1.33893 0.806379 0
M  V30 82 H 7.1565 -3.07019 -1.04449 0
M  V30 83 H 6.9415 -3.88475 0.531917 0
M  V30 84 H 8.4315 -4.15475 -0.420735 0
M  V30 85 N 8.8686 -0.792821 -1.36206 0
M  V30 86 C 10.2796 -0.429513 -1.81692 0
M  V30 87 C 10.6306 1.04695 -1.65932 0
M  V30 88 O 9.7556 1.81256 -1.18218 0
M  V30 89 C 10.3506 -0.772831 -3.29868 0
M  V30 90 C 8.9096 -0.462307 -3.7355 0
M  V30 91 C 8.0566 -1.00569 -2.5842 0
M  V30 92 H 11.0076 -0.985672 -1.24379 0
M  V30 93 H 11.0286 -0.0651928 -3.80444 0
M  V30 94 H 10.5406 -1.84747 -3.41307 0
M  V30 95 H 8.6416 0.604158 -3.67669 0
M  V30 96 H 8.7546 -0.985299 -4.68859 0
M  V30 97 H 7.1186 -0.428734 -2.51066 0
M  V30 98 H 7.9016 -2.08616 -2.72643 0
M  V30 99 N 10.3467 1.47872 -0.545128 0
M  V30 100 C 11.5947 2.02093 -0.016553 0
M  V30 101 C 11.9157 1.42305 1.3332 0
M  V30 102 O 11.1857 0.593853 1.86682 0
M  V30 103 H 9.7657 0.746993 -0.00313038 0
M  V30 104 H 12.4277 1.81414 -0.712397 0
M  V30 105 H 11.5237 3.11996 0.0805422 0
M  V30 106 N 11.8248 0.280983 1.55075 0
M  V30 107 C 12.7548 -0.597469 2.25727 0
M  V30 108 C 13.7358 -1.15417 1.24952 0
M  V30 109 O 14.9208 -1.18722 1.53684 0
M  V30 110 C 12.0508 -1.7789 2.98283 0
M  V30 111 C 11.0048 -1.35347 4.06036 0
M  V30 112 C 10.3308 -2.61846 4.66198 0
M  V30 113 C 11.6308 -0.499354 5.19907 0
M  V30 114 H 13.3248 -0.00824265 2.99399 0
M  V30 115 H 10.8708 -0.0025244 1.44 0
M  V30 116 H 12.8238 -2.39937 3.46422 0
M  V30 117 H 11.5478 -2.39405 2.22155 0
M  V30 118 H 10.2068 -0.756156 3.58717 0
M  V30 119 H 9.8548 -3.21632 3.86732 0
M  V30 120 H 9.5548 -2.3409 5.38958 0
M  V30 121 H 11.0788 -3.24732 5.1709 0
M  V30 122 H 12.4928 -1.02498 5.64063 0
M  V30 123 H 10.8898 -0.316424 5.99265 0
M  V30 124 H 11.9598 0.480459 4.82514 0
M  V30 125 N 13.3029 -1.57598 0.00835791 0
M  V30 126 C 14.7189 -1.55764 -0.347822 0
M  V30 127 C 14.9189 -1.01186 -1.74252 0
M  V30 128 O 13.9749 -0.649371 -2.44007 0
M  V30 129 C 15.2879 -2.99927 -0.215407 0
M  V30 130 C 16.8359 -3.11656 -0.289725 0
M  V30 131 C 17.3109 -4.57621 -0.18634 0
M  V30 132 N 18.8019 -4.62557 -0.243978 0
M  V30 133 C 19.5369 -5.73094 -0.18745 0
M  V30 134 N 19.0329 -6.92753 -0.0810331 0
M  V30 135 N 20.8259 -5.61588 -0.239925 0
M  V30 136 H 12.9769 -1.91411 0.92062 0
M  V30 137 H 15.2399 -0.879562 0.353659 0
M  V30 138 H 14.9459 -3.43729 0.744512 0
M  V30 139 H 14.8199 -3.63865 -0.994097 0
M  V30 140 H 17.2069 -2.67779 -1.24009 0
M  V30 141 H 17.2879 -2.5048 0.51898 0
M  V30 142 H 16.9319 -5.02174 0.760519 0
M  V30 143 H 16.8619 -5.16752 -1.01364 0
M  V30 144 H 19.3529 -3.76481 -0.327217 0
M  V30 145 H 19.6659 -7.72787 -0.0440241 0
M  V30 146 H 18.0109 -6.94984 -0.0465419 0
M  V30 147 H 21.2019 -4.66996 -0.321317 0
M  V30 148 H 21.3749 -6.47714 -0.192407 0
M  V30 149 N 14.781 0.264519 -1.55364 0
M  V30 150 C 16.029 0.993021 -1.76021 0
M  V30 151 C 16.35 1.86511 -0.569099 0
M  V30 152 O 15.62 1.91438 0.415735 0
M  V30 153 H 14.2 0.369639 -0.649135 0
M  V30 154 H 16.862 0.286707 -1.9278 0
M  V30 155 H 15.958 1.62502 -2.66457 0
M  V30 156 N 16.2591 1.48442 0.529413 0
M  V30 157 C 17.5061 1.56488 1.28521 0
M  V30 158 C 17.8341 0.239042 1.93025 0
M  V30 159 O 17.0891 -0.770713 1.79885 0
M  V30 160 C 17.3881 2.6523 2.39558 0
M  V30 161 C 17.0541 4.07648 1.92702 0
M  V30 162 C 15.7161 4.46411 1.79641 0
M  V30 163 C 18.0681 4.96896 1.573 0
M  V30 164 C 15.3961 5.72226 1.29514 0
M  V30 165 C 17.7481 6.23202 1.08636 0
M  V30 166 C 16.4121 6.60821 0.941919 0
M  V30 167 H 15.6821 0.572631 0.470292 0
M  V30 168 H 18.3291 1.82161 0.59072 0
M  V30 169 H 16.6341 2.33419 3.14679 0
M  V30 170 H 18.3311 2.68671 2.97686 0
M  V30 171 H 14.9211 3.77036 2.03819 0
M  V30 172 H 19.1051 4.67626 1.66251 0
M  V30 173 H 14.3611 6.00097 1.17019 0
M  V30 174 H 18.5351 6.91753 0.803136 0
M  V30 175 H 16.1621 7.58198 0.5513 0
M  V30 176 N 17.7372 -0.778329 1.37039 0
M  V30 177 C 19.1532 -1.07796 1.17695 0
M  V30 178 C 19.3532 -2.01498 0.00860115 0
M  V30 179 O 18.4092 -2.43901 -0.653352 0
M  V30 180 C 19.7222 -1.68178 2.49272 0
M  V30 181 C 21.2702 -1.80467 2.55735 0
M  V30 182 C 21.7452 -2.44263 3.87427 0
M  V30 183 N 23.2362 -2.51721 3.88833 0
M  V30 184 C 23.9712 -3.01919 4.87476 0
M  V30 185 N 23.4672 -3.5234 5.96513 0
M  V30 186 N 25.2602 -3.00733 4.74885 0
M  V30 187 H 17.4112 -0.156032 2.11826 0
M  V30 188 H 19.6742 -0.131844 0.938787 0
M  V30 189 H 19.3802 -1.06796 3.35093 0
M  V30 190 H 19.2542 -2.67554 2.65885 0
M  V30 191 H 21.6412 -2.40984 1.70325 0
M  V30 192 H 21.7222 -0.798656 2.43013 0
M  V30 193 H 21.3662 -1.84388 4.73248 0
M  V30 194 H 21.2962 -3.45458 3.9745 0
M  V30 195 H 23.7872 -2.1603 3.10063 0
M  V30 196 H 24.1002 -3.89027 6.67741 0
M  V30 197 H 22.4452 -3.50462 6.00168 0
M  V30 198 H 25.6362 -2.60638 3.88826 0
M  V30 199 H 25.8092 -3.39545 5.51918 0
M  V30 200 N 19.2153 -1.21501 -1.00376 0
M  V30 201 C 20.4643 -1.02718 -1.73586 0
M  V30 202 C 20.7773 0.439589 -1.90596 0
M  V30 203 O 21.9833 0.746848 -2.61026 0
M  V30 204 C 20.4393 -1.78929 -3.1227 0
M  V30 205 C 20.0473 -3.29783 -3.03228 0
M  V30 206 C 21.7913 -1.68557 -3.89601 0
M  V30 207 C 19.6983 -3.98479 -4.36999 0
M  V30 208 H 18.6283 -0.380733 -0.650814 0
M  V30 209 H 21.2793 -1.45248 -1.1214 0
M  V30 210 H 19.6613 -1.29192 -3.74333 0
M  V30 211 H 20.8353 -3.86832 -2.50395 0
M  V30 212 H 19.1503 -3.40711 -2.39385 0
M  V30 213 H 21.7473 -2.17211 -4.88593 0
M  V30 214 H 22.0903 -0.644021 -4.11288 0
M  V30 215 H 22.6233 -2.15778 -3.34193 0
M  V30 216 H 19.3623 -5.02841 -4.20513 0
M  V30 217 H 18.8823 -3.46219 -4.89788 0
M  V30 218 H 20.5613 -4.03462 -5.05794 0
M  V30 219 N 20.6934 1.19889 -1.02296 0
M  V30 220 C 21.6234 2.25141 -0.619174 0
M  V30 221 C 22.6044 1.66051 0.368915 0
M  V30 222 O 23.7894 1.92546 0.252941 0
M  V30 223 C 20.9194 3.4728 0.0368783 0
M  V30 224 C 19.8734 4.19005 -0.872865 0
M  V30 225 C 19.1994 5.34637 -0.0822402 0
M  V30 226 C 20.4994 4.74452 -2.18387 0
M  V30 227 H 22.1934 2.59171 -1.49903 0
M  V30 228 H 19.7394 1.24579 -0.722222 0
M  V30 229 H 21.6924 4.20098 0.330958 0
M  V30 230 H 20.4164 3.12433 0.95149 0
M  V30 231 H 19.0754 3.48061 -1.15105 0
M  V30 232 H 18.7234 4.96034 0.83422 0
M  V30 233 H 18.4234 5.83557 -0.688149 0
M  V30 234 H 19.9474 6.10255 0.205238 0
M  V30 235 H 21.3614 5.39055 -1.95172 0
M  V30 236 H 19.7584 5.33834 -2.74119 0
M  V30 237 H 20.8284 3.92844 -2.84257 0
M  V30 238 N 22.1715 0.800033 1.35784 0
M  V30 239 C 23.4195 0.376597 1.9856 0
M  V30 240 C 23.7405 -1.05812 1.63795 0
M  V30 241 O 23.0105 -1.73103 0.917171 0
M  V30 242 H 21.5905 0.136261 0.734467 0
M  V30 243 H 24.2525 1.02442 1.65806 0
M  V30 244 H 23.3485 0.477002 3.08433 0
M  V30 245 N 23.6496 -1.47581 0.552962 0
M  V30 246 C 24.5796 -2.32762 -0.185451 0
M  V30 247 C 25.5606 -1.43527 -0.912905 0
M  V30 248 O 26.7456 -1.72388 -0.894201 0
M  V30 249 C 23.8756 -3.25219 -1.21859 0
M  V30 250 C 22.8296 -4.23661 -0.607864 0
M  V30 251 C 22.1556 -5.05413 -1.74533 0
M  V30 252 C 23.4556 -5.20481 0.435582 0
M  V30 253 H 25.1496 -2.94749 0.525684 0
M  V30 254 H 22.6956 -1.41738 0.254251 0
M  V30 255 H 24.6486 -3.8365 -1.7433 0
M  V30 256 H 23.3726 -2.61279 -1.95961 0
M  V30 257 H 22.0316 -3.66451 -0.104489 0
M  V30 258 H 21.6796 -4.3788 -2.47529 0
M  V30 259 H 21.3796 -5.72059 -1.34249 0
M  V30 260 H 22.9036 -5.66701 -2.27338 0
M  V30 261 H 24.3176 -5.733 -0.00290157 0
M  V30 262 H 22.7146 -5.95305 0.757067 0
M  V30 263 H 23.7846 -4.66217 1.33303 0
M  V30 264 N 25.1277 -0.289203 -1.54924 0
M  V30 265 C 26.5437 0.0645403 -1.59469 0
M  V30 266 C 26.7437 1.53419 -1.30632 0
M  V30 267 O 25.7997 2.2852 -1.074 0
M  V30 268 C 27.1127 -0.32278 -2.98963 0
M  V30 269 C 28.6607 -0.270564 -3.11828 0
M  V30 270 C 29.1357 -0.632532 -4.53611 0
M  V30 271 N 30.6267 -0.584617 -4.59496 0
M  V30 272 C 31.3617 -0.837314 -5.67254 0
M  V30 273 N 30.8577 -1.15536 -6.83098 0
M  V30 274 N 32.6507 -0.765166 -5.56868 0
M  V30 275 H 24.8017 -1.24714 -1.71931 0
M  V30 276 H 27.0647 -0.504809 -0.802416 0
M  V30 277 H 26.7707 -1.34541 -3.24948 0
M  V30 278 H 26.6447 0.32944 -3.75759 0
M  V30 279 H 29.0317 0.742805 -2.85598 0
M  V30 280 H 29.1127 -0.957242 -2.37214 0
M  V30 281 H 28.7567 -1.64365 -4.80569 0
M  V30 282 H 28.6867 0.07609 -5.26545 0
M  V30 283 H 31.1777 -0.349248 -3.76283 0
M  V30 284 H 31.4907 -1.33447 -7.61191 0
M  V30 285 H 29.8357 -1.19328 -6.84679 0
M  V30 286 H 33.0267 -0.516432 -4.65243 0
M  V30 287 H 33.1997 -0.965477 -6.40767 0
M  V30 288 N 26.6058 1.57591 -0.0167156 0
M  V30 289 C 27.8308 1.9598 0.67872 0
M  V30 290 C 28.2558 0.892546 1.65575 0
M  V30 291 O 27.6138 -0.147772 1.80697 0
M  V30 292 C 27.6618 3.33468 1.37227 0
M  V30 293 O 26.7658 3.28954 2.48722 0
M  V30 294 H 26.1068 0.639339 0.17928 0
M  V30 295 H 28.6368 2.04463 -0.0748802 0
M  V30 296 H 28.6468 3.69417 1.7319 0
M  V30 297 H 27.3218 4.10694 0.656007 0
M  V30 298 H 25.8988 3.04705 2.14963 0
M  V30 299 N 28.0839 -0.256276 1.55502 0
M  V30 300 C 29.3089 -1.00766 1.81276 0
M  V30 301 C 29.7339 -1.78524 0.59252 0
M  V30 302 O 29.0919 -1.75413 -0.45827 0
M  V30 303 C 29.1399 -1.92869 3.04687 0
M  V30 304 O 28.2439 -3.019 2.80945 0
M  V30 305 H 27.5849 -0.287224 0.598664 0
M  V30 306 H 30.1149 -0.280109 2.02674 0
M  V30 307 H 30.1249 -2.34511 3.33869 0
M  V30 308 H 28.7999 -1.35689 3.93143 0
M  V30 309 H 27.3769 -2.64454 2.62904 0
M  V30 310 N 29.562 -1.4872 -0.521534 0
M  V30 311 C 30.808 -1.574 -1.27879 0
M  V30 312 C 31.141 -0.250817 -1.92573 0
M  V30 313 O 30.416 0.743934 -1.79711 0
M  V30 314 C 30.699 -2.71843 -2.36164 0
M  V30 315 C 30.552 -4.13893 -1.76105 0
M  V30 316 C 31.871 -2.82008 -3.37875 0
M  V30 317 H 28.99 -0.572941 -0.463581 0
M  V30 318 H 31.632 -1.80927 -0.580119 0
M  V30 319 H 29.782 -2.51914 -2.95756 0
M  V30 320 H 31.454 -4.45284 -1.20499 0
M  V30 321 H 29.697 -4.20498 -1.06601 0
M  V30 322 H 30.368 -4.89804 -2.5455 0
M  V30 323 H 32.844 -3.00086 -2.88249 0
M  V30 324 H 31.72 -3.63796 -4.11028 0
M  V30 325 H 31.981 -1.90511 -3.98946 0
M  V30 326 N 31.0401 0.771051 -1.3745 0
M  V30 327 C 32.2881 1.52661 -1.32435 0
M  V30 328 C 32.6091 1.9479 0.0905024 0
M  V30 329 O 31.8791 1.66348 1.03466 0
M  V30 330 H 30.4591 0.566218 -0.487244 0
M  V30 331 H 33.1211 0.917636 -1.71946 0
M  V30 332 H 32.2171 2.42568 -1.96385 0
M  V30 333 N 32.5182 1.22032 0.997298 0
M  V30 334 C 33.9292 1.0397 1.55071 0
M  V30 335 C 34.2802 -0.398192 1.92117 0
M  V30 336 O 33.4052 -1.28254 1.74298 0
M  V30 337 C 34.0002 1.88109 2.81781 0
M  V30 338 C 32.5592 1.74357 3.33581 0
M  V30 339 C 31.7062 1.84846 2.06706 0
M  V30 340 H 34.6572 1.35941 0.818883 0
M  V30 341 H 34.6782 1.39589 3.53971 0
M  V30 342 H 34.1902 2.92754 2.54787 0
M  V30 343 H 32.2912 0.72427 3.65493 0
M  V30 344 H 32.4042 2.56772 4.04481 0
M  V30 345 H 30.7682 1.28238 2.20062 0
M  V30 346 H 31.5512 2.91014 1.82114 0
M  V30 347 N 33.9963 -1.19345 1.0293 0
M  V30 348 C 34.9593 -2.20793 0.615069 0
M  V30 349 C 35.9593 -1.57553 -0.321533 0
M  V30 350 O 37.1493 -1.73862 -0.108483 0
M  V30 351 C 34.2813 -3.40754 -0.0999222 0
M  V30 352 H 35.4743 -2.58955 1.51269 0
M  V30 353 H 33.0273 -1.3303 0.820534 0
M  V30 354 H 33.7623 -3.0811 -1.01187 0
M  V30 355 H 33.5473 -3.87889 0.57309 0
M  V30 356 H 35.0373 -4.15898 -0.376645 0
M  V30 357 N 35.4744 -0.807222 -1.35358 0
M  V30 358 C 36.7204 -0.388463 -1.99045 0
M  V30 359 C 37.0534 1.04184 -1.63888 0
M  V30 360 O 36.3284 1.72292 -0.902535 0
M  V30 361 C 36.6114 -0.572783 -3.55515 0
M  V30 362 C 36.4644 -2.04807 -4.00468 0
M  V30 363 C 37.7834 0.00114064 -4.401 0
M  V30 364 H 34.9024 -0.142619 -0.723069 0
M  V30 365 H 37.5444 -1.01687 -1.60498 0
M  V30 366 H 35.6944 -0.0378425 -3.88482 0
M  V30 367 H 37.3664 -2.64544 -3.77908 0
M  V30 368 H 35.6094 -2.54427 -3.51353 0
M  V30 369 H 36.2804 -2.12792 -5.09337 0
M  V30 370 H 38.7564 -0.455716 -4.13597 0
M  V30 371 H 37.6324 -0.157737 -5.48673 0
M  V30 372 H 37.8934 1.09488 -4.28328 0
M  V30 373 N 36.9525 1.47285 -0.560781 0
M  V30 374 C 37.8845 2.28118 0.222438 0
M  V30 375 C 38.8975 1.37219 0.876056 0
M  V30 376 O 40.0865 1.62011 0.749307 0
M  V30 377 C 37.1865 3.1159 1.33285 0
M  V30 378 C 36.3595 4.30473 0.77534 0
M  V30 379 C 35.4185 4.95513 1.77069 0
M  V30 380 O 34.4445 5.53792 1.31539 0
M  V30 381 N 35.6465 4.90531 3.10418 0
M  V30 382 H 38.4115 2.95976 -0.470958 0
M  V30 383 H 35.9725 1.56955 -0.39709 0
M  V30 384 H 37.9645 3.51967 1.99752 0
M  V30 385 H 36.5345 2.45951 1.92943 0
M  V30 386 H 35.7545 3.94144 -0.0662113 0
M  V30 387 H 37.0425 5.07362 0.382272 0
M  V30 388 H 36.4405 4.44389 3.5005 0
M  V30 389 H 34.9975 5.34917 3.72434 0
M  V30 390 N 38.4306 0.297415 1.54768 0
M  V30 391 C 39.3936 -0.567375 2.22066 0
M  V30 392 C 40.3936 -1.06409 1.20556 0
M  V30 393 O 41.5836 -0.960691 1.45315 0
M  V30 394 C 38.7156 -1.78517 2.90421 0
M  V30 395 H 39.9086 0.0205534 2.99893 0
M  V30 396 H 37.4616 0.0482163 1.56226 0
M  V30 397 H 38.1966 -2.41303 2.16664 0
M  V30 398 H 37.9816 -1.43669 3.64831 0
M  V30 399 H 39.4716 -2.39964 3.41771 0
M  V30 400 N 39.9087 -1.5758 0.0250728 0
M  V30 401 C 41.3247 -1.56124 -0.331282 0
M  V30 402 C 41.5247 -1.03029 -1.73169 0
M  V30 403 O 40.5807 -0.675215 -2.43305 0
M  V30 404 C 41.8937 -3.00139 -0.183584 0
M  V30 405 C 43.4417 -3.11946 -0.256654 0
M  V30 406 C 43.9167 -4.57793 -0.137792 0
M  V30 407 N 45.4077 -4.6279 -0.194904 0
M  V30 408 C 46.1427 -5.7326 -0.126655 0
M  V30 409 N 45.6387 -6.928 -0.00755288 0
M  V30 410 N 47.4317 -5.61811 -0.180348 0
M  V30 411 H 39.5827 -1.90424 0.94087 0
M  V30 412 H 41.8457 -0.875761 0.362968 0
M  V30 413 H 41.5517 -3.4292 0.780927 0
M  V30 414 H 41.4257 -3.64899 -0.955448 0
M  V30 415 H 43.8127 -2.69079 -1.21162 0
M  V30 416 H 43.8937 -2.49915 0.545517 0
M  V30 417 H 43.5377 -5.01339 0.813739 0
M  V30 418 H 43.4677 -5.17798 -0.958775 0
M  V30 419 H 45.9587 -3.76807 -0.287267 0
M  V30 420 H 46.2717 -7.72791 0.0379428 0
M  V30 421 H 44.6167 -6.94995 0.0271731 0
M  V30 422 H 47.8077 -4.6731 -0.271767 0
M  V30 423 H 47.9807 -6.47882 -0.123697 0
M  V30 424 N 41.3868 0.248026 -1.55636 0
M  V30 425 C 42.6348 0.974295 -1.77065 0
M  V30 426 C 42.9558 1.85897 -0.588849 0
M  V30 427 O 42.2258 1.91868 0.395407 0
M  V30 428 H 40.8058 0.362733 -0.653019 0
M  V30 429 H 43.4678 0.266244 -1.93073 0
M  V30 430 H 42.5638 1.59667 -2.68166 0
M  V30 431 N 42.8649 1.48995 0.513639 0
M  V30 432 C 44.1109 1.58076 1.27042 0
M  V30 433 C 44.4439 0.261026 1.92438 0
M  V30 434 O 43.7189 -0.734393 1.80103 0
M  V30 435 C 44.0019 2.73091 2.34719 0
M  V30 436 C 43.8549 4.14821 1.73907 0
M  V30 437 C 45.1739 2.83796 3.36375 0
M  V30 438 H 42.2929 0.575391 0.460536 0
M  V30 439 H 44.9349 1.81232 0.570516 0
M  V30 440 H 43.0849 2.53479 2.94416 0
M  V30 441 H 44.7569 4.45917 1.18135 0
M  V30 442 H 42.9999 4.21058 1.0437 0
M  V30 443 H 43.6709 4.91147 2.51949 0
M  V30 444 H 46.1469 3.01611 2.86653 0
M  V30 445 H 45.0229 3.65971 4.09093 0
M  V30 446 H 45.2839 1.92624 3.9793 0
M  V30 447 N 44.343 -0.763751 1.37857 0
M  V30 448 C 45.293 -1.86765 1.30777 0
M  V30 449 C 46.277 -1.59726 0.194015 0
M  V30 450 O 47.469 -1.7172 0.42911 0
M  V30 451 C 44.598 -3.24343 1.12502 0
M  V30 452 C 43.684 -3.57307 2.28456 0
M  V30 453 N 44.075 -3.61398 3.53871 0
M  V30 454 C 42.373 -3.87517 2.20786 0
M  V30 455 C 43.074 -3.91339 4.30382 0
M  V30 456 N 42.05 -4.07649 3.59615 0
M  V30 457 H 45.852 -1.88191 2.25746 0
M  V30 458 H 43.366 -0.9606 1.30944 0
M  V30 459 H 45.363 -4.03327 1.05514 0
M  V30 460 H 44.023 -3.24175 0.184574 0
M  V30 461 H 45.034 -3.43407 3.87675 0
M  V30 462 H 41.711 -3.95125 1.34844 0
M  V30 463 H 43.101 -4.01213 5.3896 0
M  V30 464 N 45.8211 -1.22559 -0.990812 0
M  V30 465 C 46.7531 -0.955325 -2.08342 0
M  V30 466 C 47.7661 0.0668408 -1.62663 0
M  V30 467 O 48.9551 -0.167421 -1.77713 0
M  V30 468 C 46.0551 -0.415566 -3.36342 0
M  V30 469 C 45.2281 -1.49544 -4.11042 0
M  V30 470 C 44.2871 -0.962399 -5.17324 0
M  V30 471 O 43.3131 -1.64907 -5.44788 0
M  V30 472 N 44.5151 0.215134 -5.80101 0
M  V30 473 H 47.2801 -1.89596 -2.32106 0
M  V30 474 H 44.8411 -1.13276 -1.15673 0
M  V30 475 H 46.8331 -0.0442386 -4.04676 0
M  V30 476 H 45.4031 0.430232 -3.09625 0
M  V30 477 H 44.6231 -2.04 -3.37309 0
M  V30 478 H 45.9111 -2.22195 -4.57719 0
M  V30 479 H 45.3091 0.789779 -5.6016 0
M  V30 480 H 43.8661 0.527826 -6.49659 0
M  V30 481 N 47.2992 1.18797 -1.03562 0
M  V30 482 C 48.5242 1.9314 -0.755764 0
M  V30 483 C 48.9492 1.7537 0.68022 0
M  V30 484 O 48.3072 1.06046 1.47051 0
M  V30 485 C 48.3552 3.42747 -1.12058 0
M  V30 486 O 47.4592 4.11683 -0.243124 0
M  V30 487 H 46.8002 0.602724 -0.278604 0
M  V30 488 H 49.3302 1.50678 -1.3841 0
M  V30 489 H 49.3402 3.93437 -1.08035 0
M  V30 490 H 48.0152 3.55002 -2.16672 0
M  V30 491 H 46.5922 3.71323 -0.342539 0
M  V30 492 N 48.7773 0.814389 1.34928 0
M  V30 493 C 50.0233 0.399013 1.98836 0
M  V30 494 C 50.3563 -1.03314 1.64438 0
M  V30 495 O 49.6313 -1.71811 0.911659 0
M  V30 496 C 49.9143 0.591629 3.55207 0
M  V30 497 C 49.7673 2.06928 3.99376 0
M  V30 498 C 51.0863 0.022199 4.40094 0
M  V30 499 H 48.2053 0.146451 0.722303 0
M  V30 500 H 50.8473 1.02537 1.59957 0
M  V30 501 H 48.9973 0.0584441 3.88456 0
M  V30 502 H 50.6693 2.66544 3.76499 0
M  V30 503 H 48.9123 2.56287 3.49999 0
M  V30 504 H 49.5833 2.1549 5.08201 0
M  V30 505 H 52.0593 0.477643 4.13349 0
M  V30 506 H 50.9353 0.186832 5.48582 0
M  V30 507 H 51.1963 -1.07215 4.28902 0
M  V30 508 N 50.2554 -1.46986 0.568584 0
M  V30 509 C 51.2184 -2.28624 -0.162366 0
M  V30 510 C 52.2184 -1.37596 -0.832103 0
M  V30 511 O 53.4084 -1.60115 -0.68622 0
M  V30 512 C 50.5404 -3.17596 -1.23878 0
M  V30 513 H 51.7334 -2.94722 0.554899 0
M  V30 514 H 49.2864 -1.52863 0.325976 0
M  V30 515 H 50.0214 -2.56214 -1.98808 0
M  V30 516 H 49.8064 -3.846 -0.763219 0
M  V30 517 H 51.2964 -3.79078 -1.75185 0
M  V30 518 N 51.7335 -0.305618 -1.54608 0
M  V30 519 C 52.9615 0.304775 -2.04643 0
M  V30 520 C 53.3765 1.47167 -1.18268 0
M  V30 521 O 52.7335 1.81296 -0.209328 0
M  V30 522 C 52.7845 0.756564 -3.53495 0
M  V30 523 O 52.5055 -0.36389 -4.36586 0
M  V30 524 C 54.0065 1.43163 -4.19546 0
M  V30 525 H 51.2265 0.0655481 -0.667791 0
M  V30 526 H 53.7705 -0.446592 -1.99564 0
M  V30 527 H 51.9255 1.45794 -3.58919 0
M  V30 528 H 52.3395 -0.0113121 -5.24499 0
M  V30 529 H 53.8135 1.69886 -5.25207 0
M  V30 530 H 54.2905 2.37318 -3.69563 0
M  V30 531 H 54.8965 0.773307 -4.18211 0
M  V30 532 N 53.2116 1.57565 -0.0334293 0
M  V30 533 C 54.4886 1.83282 0.683163 0
M  V30 534 C 54.8686 0.91823 1.90084 0
M  V30 535 O 54.2166 -0.025113 2.28486 0
M  V30 536 C 54.4266 3.32599 1.0573 0
M  V30 537 C 55.7746 3.99179 1.44711 0
M  V30 538 O 56.7986 3.3712 1.15015 0
M  V30 539 O 55.6576 5.08565 2.0006 0
M  V30 540 H 52.7516 0.755869 0.335546 0
M  V30 541 H 55.2976 1.69589 -0.0614402 0
M  V30 542 H 54.0696 3.90834 0.190828 0
M  V30 543 H 53.6926 3.51415 1.85993 0
M  V30 544 N 54.6897 -0.239769 1.55765 0
M  V30 545 C 55.9377 -0.964892 1.77579 0
M  V30 546 C 56.2587 -1.85582 0.598699 0
M  V30 547 O 55.5287 -1.92075 -0.385226 0
M  V30 548 H 54.1087 -0.359265 0.654933 0
M  V30 549 H 56.7707 -0.256001 1.93211 0
M  V30 550 H 55.8667 -1.58243 2.69009 0
M  V30 551 N 56.1678 -1.49265 -0.50573 0
M  V30 552 C 57.5788 -1.51769 -1.08734 0
M  V30 553 C 57.9298 -0.301192 -1.93874 0
M  V30 554 O 57.0548 0.589456 -2.08217 0
M  V30 555 C 57.6498 -2.75017 -1.97867 0
M  V30 556 C 56.2088 -2.80314 -2.51199 0
M  V30 557 C 55.3558 -2.4562 -1.28709 0
M  V30 558 H 58.3068 -1.56031 -0.289855 0
M  V30 559 H 58.3278 -2.5491 -2.82491 0
M  V30 560 H 57.8398 -3.63539 -1.35873 0
M  V30 561 H 55.9408 -1.96061 -3.16845 0
M  V30 562 H 56.0538 -3.82366 -2.88675 0
M  V30 563 H 54.4178 -1.97297 -1.61078 0
M  V30 564 H 55.2008 -3.36411 -0.6843 0
M  V30 565 N 57.6459 0.756429 -1.3826 0
M  V30 566 C 58.8709 1.55077 -1.37717 0
M  V30 567 C 59.2959 1.88073 0.03164 0
M  V30 568 O 58.6539 1.50364 1.01293 0
M  V30 569 C 58.7019 2.8283 -2.23695 0
M  V30 570 O 57.8059 3.77862 -1.6521 0
M  V30 571 H 57.1469 0.469152 -0.469885 0
M  V30 572 H 59.6769 0.935019 -1.81985 0
M  V30 573 H 59.6869 3.31783 -2.37453 0
M  V30 574 H 58.3619 2.58144 -3.2609 0
M  V30 575 H 56.9389 3.36555 -1.60578 0
M  V30 576 N 59.124 1.23083 0.984299 0
M  V30 577 C 60.349 1.088 1.76571 0
M  V30 578 C 60.774 -0.356657 1.84688 0
M  V30 579 O 60.132 -1.25788 1.30565 0
M  V30 580 C 60.18 1.71371 3.17277 0
M  V30 581 O 59.284 0.973213 4.00752 0
M  V30 582 H 58.625 0.381599 0.543395 0
M  V30 583 H 61.155 1.63057 1.23587 0
M  V30 584 H 61.165 1.76449 3.67872 0
M  V30 585 H 59.84 2.76493 3.10684 0
M  V30 586 H 58.417 0.999078 3.59267 0
M  V30 587 N 60.6021 -1.18246 1.0419 0
M  V30 588 C 61.8301 -1.92195 0.766072 0
M  V30 589 C 62.2451 -1.76247 -0.676933 0
M  V30 590 O 61.6021 -1.09293 -1.46155 0
M  V30 591 C 61.6531 -3.43568 1.12442 0
M  V30 592 O 61.3741 -3.59015 2.51078 0
M  V30 593 C 62.8751 -4.34613 0.873275 0
M  V30 594 H 60.0951 -0.610114 0.279288 0
M  V30 595 H 62.6391 -1.50007 1.38989 0
M  V30 596 H 60.7941 -3.8354 0.545542 0
M  V30 597 H 61.2081 -4.5273 2.64831 0
M  V30 598 H 62.6821 -5.39374 1.17385 0
M  V30 599 H 63.1591 -4.38781 -0.191909 0
M  V30 600 H 63.7651 -4.00341 1.43551 0
M  V30 601 N 62.0802 -0.821533 -1.34494 0
M  V30 602 C 63.0122 -0.199946 -2.28326 0
M  V30 603 C 64.0252 0.609377 -1.50965 0
M  V30 604 O 65.2142 0.439285 -1.7301 0
M  V30 605 C 62.3142 0.738431 -3.30757 0
M  V30 606 C 61.4872 -0.0277632 -4.37391 0
M  V30 607 C 60.5462 0.831332 -5.19591 0
M  V30 608 O 59.5722 0.276822 -5.68526 0
M  V30 609 N 60.7742 2.15132 -5.39165 0
M  V30 610 H 63.5392 -1.00609 -2.82308 0
M  V30 611 H 61.1002 -0.678366 -1.47003 0
M  V30 612 H 63.0922 1.31773 -3.82646 0
M  V30 613 H 61.6622 1.44533 -2.7718 0
M  V30 614 H 60.8822 -0.788359 -3.86236 0
M  V30 615 H 62.1702 -0.555251 -5.05761 0
M  V30 616 H 61.5682 2.62559 -5.01078 0
M  V30 617 H 60.1252 2.6795 -5.94177 0
M  V30 618 N 63.5583 1.46682 -0.576371 0
M  V30 619 C 64.9693 1.86112 -0.148091 0
M  V30 620 C 65.3203 1.48073 1.2872 0
M  V30 621 O 64.4453 0.892656 1.97131 0
M  V30 622 C 65.0403 3.37786 -0.261982 0
M  V30 623 C 63.5993 3.76235 0.111384 0
M  V30 624 C 62.7463 2.70713 -0.60083 0
M  V30 625 H 65.6973 1.37927 -0.78497 0
M  V30 626 H 65.7183 3.77007 0.514364 0
M  V30 627 H 65.2303 3.6544 -1.30671 0
M  V30 628 H 63.3313 3.54198 1.15649 0
M  V30 629 H 63.4443 4.78391 -0.26052 0
M  V30 630 H 61.8083 2.54666 -0.0417783 0
M  V30 631 H 62.5913 3.01208 -1.64708 0
M  V30 632 N 65.0364 0.313813 1.54444 0
M  V30 633 C 65.9994 -0.54379 2.22656 0
M  V30 634 C 66.9994 -1.05124 1.21678 0
M  V30 635 O 68.1894 -0.945225 1.46325 0
M  V30 636 C 65.3214 -1.75427 2.92298 0
M  V30 637 H 66.5144 0.0523599 2.99854 0
M  V30 638 H 64.0674 0.0647834 1.56166 0
M  V30 639 H 64.8024 -2.38991 2.19211 0
M  V30 640 H 64.5874 -1.39791 3.66334 0
M  V30 641 H 66.0774 -2.36325 3.44297 0
M  V30 642 N 66.5145 -1.57545 0.0417849 0
M  V30 643 C 67.4445 -2.14009 -0.933929 0
M  V30 644 C 68.4255 -1.05938 -1.33083 0
M  V30 645 O 69.6105 -1.33833 -1.40721 0
M  V30 646 C 66.7405 -2.67747 -2.21199 0
M  V30 647 C 65.6945 -3.80718 -1.95544 0
M  V30 648 C 65.0205 -4.20935 -3.29724 0
M  V30 649 C 66.3205 -5.06258 -1.28452 0
M  V30 650 H 68.0145 -2.95788 -0.463645 0
M  V30 651 H 65.5605 -1.42285 -0.221573 0
M  V30 652 H 67.5135 -3.05886 -2.89848 0
M  V30 653 H 66.2375 -1.83147 -2.70416 0
M  V30 654 H 64.8965 -3.43037 -1.2931 0
M  V30 655 H 64.5445 -3.33298 -3.76724 0
M  V30 656 H 64.2445 -4.9707 -3.13361 0
M  V30 657 H 65.7685 -4.61666 -3.9962 0
M  V30 658 H 67.1825 -5.41903 -1.8712 0
M  V30 659 H 65.5795 -5.87475 -1.22445 0
M  V30 660 H 66.6495 -4.84207 -0.259219 0
M  V30 661 N 67.9926 0.231505 -1.5589 0
M  V30 662 C 69.4036 0.799327 -1.68724 0
M  V30 663 C 69.7546 1.85398 -0.642022 0
M  V30 664 O 68.8796 2.1539 0.208784 0
M  V30 665 C 69.4746 1.45664 -3.05888 0
M  V30 666 C 68.0336 1.97197 -3.20609 0
M  V30 667 C 67.1806 0.828552 -2.64632 0
M  V30 668 H 70.1316 0.00702616 -1.58698 0
M  V30 669 H 70.1526 2.32517 -3.01191 0
M  V30 670 H 69.6646 0.688808 -3.81939 0
M  V30 671 H 67.7656 2.76813 -2.4941 0
M  V30 672 H 67.8786 2.15878 -4.27707 0
M  V30 673 H 66.2426 1.23321 -2.22854 0
M  V30 674 H 67.0256 0.0735544 -3.43221 0
M  V30 675 N 69.4707 1.49531 0.497807 0
M  V30 676 C 70.4177 1.66436 1.59899 0
M  V30 677 C 71.3877 0.505793 1.58212 0
M  V30 678 O 72.5727 0.733202 1.7615 0
M  V30 679 C 69.7127 1.7399 2.98029 0
M  V30 680 C 68.8257 3.01172 3.09708 0
M  V30 681 C 67.9607 2.99686 4.38591 0
M  V30 682 C 66.9997 4.21434 4.43914 0
M  V30 683 N 66.1367 4.1784 5.64229 0
M  V30 684 H 70.9767 2.60459 1.44793 0
M  V30 685 H 68.5137 1.29137 0.704423 0
M  V30 686 H 70.4717 1.76352 3.78095 0
M  V30 687 H 69.1017 0.834301 3.11832 0
M  V30 688 H 68.1537 3.08408 2.22685 0
M  V30 689 H 69.4657 3.91165 3.09502 0
M  V30 690 H 68.6197 3.00628 5.2698 0
M  V30 691 H 67.3587 2.07477 4.41367 0
M  V30 692 H 66.3637 4.20733 3.53926 0
M  V30 693 H 67.5887 5.14839 4.42851 0
M  V30 694 H 65.5347 3.28469 5.67841 0
M  V30 695 H 65.4517 5.01571 5.65652 0
M  V30 696 H 66.7197 4.22889 6.54817 0
M  V30 697 N 70.9488 -0.749086 1.3866 0
M  V30 698 C 71.9118 -1.84457 1.36045 0
M  V30 699 C 72.9118 -1.58682 0.260122 0
M  V30 700 O 74.1018 -1.66343 0.517261 0
M  V30 701 C 71.2338 -3.22008 1.11911 0
M  V30 702 H 72.4268 -1.88182 2.33512 0
M  V30 703 H 69.9798 -0.951266 1.24019 0
M  V30 704 H 70.7148 -3.2395 0.150686 0
M  V30 705 H 70.4998 -3.42111 1.91579 0
M  V30 706 H 71.9898 -4.0208 1.12788 0
M  V30 707 N 72.4269 -1.23603 -0.977757 0
M  V30 708 C 73.8429 -0.999251 -1.24447 0
M  V30 709 C 74.0429 0.298053 -1.99283 0
M  V30 710 O 73.0989 1.01681 -2.31122 0
M  V30 711 C 74.4119 -2.20784 -2.04144 0
M  V30 712 C 75.9599 -2.25303 -2.17273 0
M  V30 713 C 76.4349 -3.45755 -3.00362 0
M  V30 714 N 77.9259 -3.4601 -3.07947 0
M  V30 715 C 78.6609 -4.35868 -3.72568 0
M  V30 716 N 78.1569 -5.35966 -4.38991 0
M  V30 717 N 79.9499 -4.23605 -3.6948 0
M  V30 718 H 72.1009 -2.06986 -0.476483 0
M  V30 719 H 74.3639 -0.907801 -0.273134 0
M  V30 720 H 74.0699 -3.14945 -1.56533 0
M  V30 721 H 73.9439 -2.22085 -3.04891 0
M  V30 722 H 76.3309 -1.3168 -2.64092 0
M  V30 723 H 76.4119 -2.28033 -1.15907 0
M  V30 724 H 76.0559 -4.39687 -2.5424 0
M  V30 725 H 75.9859 -3.40266 -4.01904 0
M  V30 726 H 78.4769 -2.73588 -2.60688 0
M  V30 727 H 78.7899 -6.00783 -4.86086 0
M  V30 728 H 77.1349 -5.39863 -4.37691 0
M  V30 729 H 80.3259 -3.44647 -3.16759 0
M  V30 730 H 80.4989 -4.93836 -4.1956 0
M  V30 731 N 73.905 1.17692 -1.04816 0
M  V30 732 C 74.868 2.19787 -0.650117 0
M  V30 733 C 75.868 1.58044 0.296427 0
M  V30 734 O 77.058 1.74012 0.0808097 0
M  V30 735 C 74.19 3.40869 0.0456987 0
M  V30 736 H 75.383 2.56516 -1.5537 0
M  V30 737 H 72.936 1.31708 -0.841594 0
M  V30 738 H 73.671 3.09681 0.962726 0
M  V30 739 H 73.456 3.86928 -0.634727 0
M  V30 740 H 74.946 4.16445 0.310432 0
M  V30 741 N 75.3831 0.828654 1.34056 0
M  V30 742 C 76.6291 0.42008 1.98402 0
M  V30 743 C 76.9621 -1.01564 1.65525 0
M  V30 744 O 76.2371 -1.70834 0.929831 0
M  V30 745 C 76.5201 0.62927 3.54559 0
M  V30 746 C 76.3731 2.11152 3.97159 0
M  V30 747 C 77.6921 0.0688756 4.40046 0
M  V30 748 H 74.8111 0.154104 0.720709 0
M  V30 749 H 77.4531 1.04228 1.5886 0
M  V30 750 H 75.6031 0.0996418 3.88372 0
M  V30 751 H 77.2751 2.70522 3.73651 0
M  V30 752 H 75.5181 2.59985 3.47261 0
M  V30 753 H 76.1891 2.20868 5.05887 0
M  V30 754 H 78.6651 0.521458 4.1282 0
M  V30 755 H 77.5411 0.245006 5.48353 0
M  V30 756 H 77.8021 -1.0266 4.30015 0
M  V30 757 N 76.8612 -1.46375 0.584142 0
M  V30 758 C 77.8242 -2.28784 -0.138108 0
M  V30 759 C 78.8242 -1.38471 -0.817462 0
M  V30 760 O 80.0142 -1.60833 -0.669199 0
M  V30 761 C 77.1462 -3.18892 -1.20503 0
M  V30 762 H 78.3392 -2.94117 0.586127 0
M  V30 763 H 75.8922 -1.52509 0.342171 0
M  V30 764 H 76.6272 -2.58309 -1.96079 0
M  V30 765 H 76.4122 -3.85388 -0.722384 0
M  V30 766 H 77.9022 -3.80914 -1.71155 0
M  V30 767 N 78.3393 -0.321999 -1.54275 0
M  V30 768 C 79.7503 0.166384 -1.85957 0
M  V30 769 C 80.1013 1.51747 -1.24367 0
M  V30 770 O 79.2263 2.09317 -0.549124 0
M  V30 771 C 79.8213 0.308681 -3.37391 0
M  V30 772 C 78.3803 0.741286 -3.69028 0
M  V30 773 C 77.5273 -0.137937 -2.76957 0
M  V30 774 H 80.4783 -0.542335 -1.49146 0
M  V30 775 H 80.4993 1.13984 -3.63026 0
M  V30 776 H 80.0113 -0.674809 -3.82188 0
M  V30 777 H 78.1123 1.73458 -3.29762 0
M  V30 778 H 78.2253 0.546118 -4.75977 0
M  V30 779 H 76.5893 0.386251 -2.51754 0
M  V30 780 H 77.3723 -1.11816 -3.2458 0
M  V30 781 N 79.8174 1.5752 -0.0501392 0
M  V30 782 C 80.7644 2.1147 0.924603 0
M  V30 783 C 81.7344 1.02182 1.30951 0
M  V30 784 O 82.9194 1.29723 1.39916 0
M  V30 785 C 80.0594 2.66337 2.19451 0
M  V30 786 C 79.1724 3.89708 1.86418 0
M  V30 787 C 78.3074 4.32893 3.07859 0
M  V30 788 C 77.3464 5.48967 2.70742 0
M  V30 789 N 76.4834 5.87211 3.84874 0
M  V30 790 H 81.3234 2.94465 0.457639 0
M  V30 791 H 78.8604 1.45531 0.214266 0
M  V30 792 H 80.8184 2.96247 2.93758 0
M  V30 793 H 79.4484 1.86141 2.63726 0
M  V30 794 H 78.5004 3.66396 1.02264 0
M  V30 795 H 79.8124 4.74074 1.55096 0
M  V30 796 H 78.9664 4.6435 3.90466 0
M  V30 797 H 77.7054 3.47336 3.42358 0
M  V30 798 H 76.7104 5.17183 1.86551 0
M  V30 799 H 77.9354 6.3624 2.37436 0
M  V30 800 H 75.8814 5.04607 4.19175 0
M  V30 801 H 75.7984 6.66266 3.57247 0
M  V30 802 H 77.0664 6.23282 4.68123 0
M  V30 803 N 81.2955 -0.223234 1.56011 0
M  V30 804 C 82.7065 -0.790368 1.69145 0
M  V30 805 C 83.0575 -1.85055 0.651845 0
M  V30 806 O 82.1825 -2.15498 -0.197359 0
M  V30 807 C 82.7775 -1.4404 3.06656 0
M  V30 808 C 81.3365 -1.95494 3.2165 0
M  V30 809 C 80.4835 -0.814506 2.65068 0
M  V30 810 H 83.4345 0.00139011 1.587 0
M  V30 811 H 83.4555 -2.30916 3.0242 0
M  V30 812 H 82.9675 -0.668543 3.82298 0
M  V30 813 H 81.0685 -2.75487 2.50874 0
M  V30 814 H 81.1815 -2.13607 4.28846 0
M  V30 815 H 79.5455 -1.22137 2.23505 0
M  V30 816 H 80.3285 -0.0553515 3.43255 0
M  V30 817 N 82.7736 -1.49793 -0.48987 0
M  V30 818 C 83.9986 -1.63836 -1.27172 0
M  V30 819 C 84.4236 -0.31402 -1.8546 0
M  V30 820 O 83.7816 0.719803 -1.66399 0
M  V30 821 C 83.8296 -2.71797 -2.36978 0
M  V30 822 O 82.9336 -2.31744 -3.41128 0
M  V30 823 H 82.2746 -0.547997 -0.37496 0
M  V30 824 H 84.8046 -1.96053 -0.585191 0
M  V30 825 H 84.8146 -2.94305 -2.82575 0
M  V30 826 H 83.4896 -3.67923 -1.93921 0
M  V30 827 H 82.0666 -2.1961 -3.01373 0
M  V30 828 N 84.2517 0.741722 -1.39055 0
M  V30 829 C 85.4767 1.53607 -1.39354 0
M  V30 830 C 85.9017 1.88096 0.0116905 0
M  V30 831 O 85.2597 1.5143 0.996924 0
M  V30 832 C 85.3077 2.80441 -2.26682 0
M  V30 833 O 84.4117 3.76088 -1.69208 0
M  V30 834 H 83.7527 0.464142 -0.474835 0
M  V30 835 H 86.2827 0.915665 -1.82967 0
M  V30 836 H 86.2927 3.29246 -2.40959 0
M  V30 837 H 84.9677 2.5467 -3.2881 0
M  V30 838 H 83.5447 3.34833 -1.64138 0
M  V30 839 N 85.7298 1.2412 0.971189 0
M  V30 840 C 87.1458 1.00584 1.23916 0
M  V30 841 C 87.3458 -0.287481 1.99439 0
M  V30 842 O 86.4018 -1.00454 2.31658 0
M  V30 843 C 87.7148 2.21864 2.0297 0
M  V30 844 C 89.2628 2.26452 2.16076 0
M  V30 845 C 89.7378 3.47343 2.98524 0
M  V30 846 N 91.2288 3.47639 3.06107 0
M  V30 847 C 91.9638 4.37837 3.70251 0
M  V30 848 N 91.4598 5.38286 4.36142 0
M  V30 849 N 93.2528 4.25558 3.67228 0
M  V30 850 H 85.4038 2.07236 0.465499 0
M  V30 851 H 87.6668 0.909236 0.268315 0
M  V30 852 H 87.3728 3.15771 1.54861 0
M  V30 853 H 87.2468 2.23698 3.03709 0
M  V30 854 H 89.6338 1.33078 2.6339 0
M  V30 855 H 89.7148 2.28645 1.14696 0
M  V30 856 H 89.3588 4.41029 2.51905 0
M  V30 857 H 89.2888 3.42393 4.00093 0
M  V30 858 H 91.7798 2.74966 2.59233 0
M  V30 859 H 92.0928 6.03352 4.82894 0
M  V30 860 H 90.4378 5.42176 4.34822 0
M  V30 861 H 93.6288 3.46322 3.14927 0
M  V30 862 H 93.8018 4.96054 4.16935 0
M  V30 863 N 87.2079 -1.17134 1.05439 0
M  V30 864 C 88.4559 -1.87085 0.764429 0
M  V30 865 C 88.7769 -1.81584 -0.710787 0
M  V30 866 O 88.0469 -1.24349 -1.51374 0
M  V30 867 H 86.6269 -0.692627 0.279779 0
M  V30 868 H 89.2889 -1.42087 1.33406 0
M  V30 869 H 88.3849 -2.92759 1.0816 0
M  V30 870 N 88.686 -0.835752 -1.33615 0
M  V30 871 C 89.596 -0.269088 -2.33052 0
M  V30 872 C 90.612 0.603251 -1.63208 0
M  V30 873 O 91.788 0.508112 -1.94885 0
M  V30 874 C 88.853 0.549091 -3.42324 0
M  V30 875 C 87.914 -0.347156 -4.27894 0
M  V30 876 C 87.147 0.43207 -5.31948 0
M  V30 877 O 87.37 1.66409 -5.45586 0
M  V30 878 O 86.304 -0.192298 -6.01593 0
M  V30 879 H 90.13 -1.09243 -2.83372 0
M  V30 880 H 87.715 -0.598198 -1.36901 0
M  V30 881 H 89.597 1.01414 -4.09015 0
M  V30 882 H 88.272 1.34955 -2.94226 0
M  V30 883 H 87.179 -0.859979 -3.64081 0
M  V30 884 H 88.512 -1.1123 -4.79467 0
M  V30 885 N 90.1641 1.46063 -0.591896 0
M  V30 886 C 91.3941 2.06418 -0.0867676 0
M  V30 887 C 91.8021 1.43975 1.22751 0
M  V30 888 O 91.1451 0.542531 1.75506 0
M  V30 889 C 91.2071 3.59213 0.143725 0
M  V30 890 C 90.8711 4.439 -1.08635 0
M  V30 891 C 91.8681 4.79864 -2.00067 0
M  V30 892 C 89.5531 4.84896 -1.31077 0
M  V30 893 C 91.5471 5.55661 -3.12282 0
M  V30 894 C 89.2341 5.6045 -2.43596 0
M  V30 895 C 90.2321 5.95747 -3.34027 0
M  V30 896 O 89.9201 6.69772 -4.4459 0
M  V30 897 H 89.6521 0.673443 -0.0587447 0
M  V30 898 H 92.2061 1.88539 -0.814994 0
M  V30 899 H 90.4361 3.75433 0.926668 0
M  V30 900 H 92.1251 4.01463 0.5985 0
M  V30 901 H 92.8911 4.48763 -1.83947 0
M  V30 902 H 88.7701 4.56867 -0.61594 0
M  V30 903 H 92.3141 5.8313 -3.82891 0
M  V30 904 H 88.2111 5.90965 -2.59674 0
M  V30 905 H 88.9791 6.88207 -4.43073 0
M  V30 906 N 91.6422 0.330177 1.54103 0
M  V30 907 C 92.8882 -0.270806 2.00984 0
M  V30 908 C 93.2212 -1.51265 1.21789 0
M  V30 909 O 92.4962 -1.92142 0.301927 0
M  V30 910 C 92.7792 -0.598339 3.55094 0
M  V30 911 C 92.6322 0.654674 4.4501 0
M  V30 912 C 93.9512 -1.41334 4.16789 0
M  V30 913 H 91.0702 -0.0969531 0.730595 0
M  V30 914 H 93.7122 0.448066 1.84641 0
M  V30 915 H 91.8622 -1.21078 3.69151 0
M  V30 916 H 93.5342 1.29285 4.42813 0
M  V30 917 H 91.7772 1.28224 4.14416 0
M  V30 918 H 92.4482 0.380944 5.50684 0
M  V30 919 H 94.9242 -0.895597 4.06347 0
M  V30 920 H 93.8002 -1.61127 5.24718 0
M  V30 921 H 94.0612 -2.41146 3.70541 0
M  V30 922 N 93.1203 -1.57491 0.0584922 0
M  V30 923 C 94.3663 -1.93264 -0.614558 0
M  V30 924 C 94.6993 -0.937717 -1.7006 0
M  V30 925 O 93.9743 0.0351652 -1.94468 0
M  V30 926 C 94.2573 -3.3938 -1.20386 0
M  V30 927 C 94.1103 -4.49625 -0.125375 0
M  V30 928 C 95.4293 -3.86039 -2.11334 0
M  V30 929 H 92.5483 -0.702791 -0.221933 0
M  V30 930 H 95.1903 -1.8961 0.12175 0
M  V30 931 H 93.3403 -3.42626 -1.83139 0
M  V30 932 H 95.0123 -4.58506 0.506971 0
M  V30 933 H 93.2553 -4.30354 0.545672 0
M  V30 934 H 93.9263 -5.48967 -0.577861 0
M  V30 935 H 96.4023 -3.84716 -1.58534 0
M  V30 936 H 95.2783 -4.88914 -2.49507 0
M  V30 937 H 95.5393 -3.23215 -3.01636 0
M  V30 938 N 94.5984 0.214957 -1.56127 0
M  V30 939 C 95.5614 1.24997 -1.92116 0
M  V30 940 C 96.5614 1.39467 -0.800344 0
M  V30 941 O 97.7514 1.37619 -1.06802 0
M  V30 942 C 94.8834 2.62271 -2.17777 0
M  V30 943 H 96.0764 0.942875 -2.84693 0
M  V30 944 H 93.6294 0.455654 -1.49511 0
M  V30 945 H 94.3644 2.98068 -1.27773 0
M  V30 946 H 94.1494 2.53143 -2.99434 0
M  V30 947 H 95.6394 3.36946 -2.46693 0
M  V30 948 N 96.0765 1.50051 0.48192 0
M  V30 949 C 97.0235 1.68122 1.58125 0
M  V30 950 C 97.9935 0.522545 1.57666 0
M  V30 951 O 99.1785 0.751844 1.75362 0
M  V30 952 C 96.3185 1.77142 2.96167 0
M  V30 953 C 95.4315 3.0444 3.06497 0
M  V30 954 C 94.5665 3.04321 4.35387 0
M  V30 955 C 93.6055 4.26118 4.3942 0
M  V30 956 N 92.7425 4.238 5.59766 0
M  V30 957 H 97.5825 2.6198 1.42022 0
M  V30 958 H 95.1195 1.29877 0.690687 0
M  V30 959 H 97.0775 1.80352 3.76203 0
M  V30 960 H 95.7075 0.867329 3.1093 0
M  V30 961 H 94.7595 3.10752 2.19402 0
M  V30 962 H 96.0715 3.94426 3.05336 0
M  V30 963 H 95.2255 3.062 5.23762 0
M  V30 964 H 93.9645 2.12147 4.39141 0
M  V30 965 H 92.9695 4.24463 3.49444 0
M  V30 966 H 94.1945 5.19507 4.37366 0
M  V30 967 H 92.1405 3.34474 5.64326 0
M  V30 968 H 92.0575 5.07542 5.60301 0
M  V30 969 H 93.3255 4.2981 6.50295 0
M  V30 970 N 97.5546 -0.734337 1.39446 0
M  V30 971 C 98.4846 -1.86155 1.40955 0
M  V30 972 C 99.4656 -1.67898 0.272827 0
M  V30 973 O 100.651 -1.88207 0.478743 0
M  V30 974 C 97.7806 -3.23912 1.25294 0
M  V30 975 C 96.7346 -3.56808 2.36373 0
M  V30 976 C 96.0606 -4.93508 2.058 0
M  V30 977 C 97.3606 -3.59713 3.78687 0
M  V30 978 H 99.0546 -1.8515 2.35287 0
M  V30 979 H 96.6006 -0.889367 1.13253 0
M  V30 980 H 98.5536 -4.02443 1.2497 0
M  V30 981 H 97.2776 -3.25446 0.274308 0
M  V30 982 H 95.9366 -2.80606 2.35914 0
M  V30 983 H 95.5846 -4.91623 1.06374 0
M  V30 984 H 95.2846 -5.16486 2.80208 0
M  V30 985 H 96.8086 -5.74396 2.07128 0
M  V30 986 H 98.2226 -4.2832 3.81071 0
M  V30 987 H 96.6196 -3.94209 4.52459 0
M  V30 988 H 97.6896 -2.59504 4.09617 0
M  V30 989 N 99.0327 -1.24633 -0.964593 0
M  V30 990 C 100.31 -0.995809 -1.68354 0
M  V30 991 C 100.69 0.480964 -2.05548 0
M  V30 992 O 100.038 1.45599 -1.76105 0
M  V30 993 C 100.248 -1.92177 -2.91323 0
M  V30 994 C 101.596 -2.19446 -3.63495 0
M  V30 995 O 102.62 -1.89855 -3.01386 0
M  V30 996 O 101.479 -2.69714 -4.75307 0
M  V30 997 H 98.5727 -0.376854 -0.736146 0
M  V30 998 H 101.119 -1.35745 -1.0184 0
M  V30 999 H 99.8907 -2.91938 -2.60553 0
M  V30 1000 H 99.5137 -1.56349 -3.65569 0
M  V30 1001 N 100.511 1.16574 -1.06058 0
M  V30 1002 C 101.788 1.83048 -0.689416 0
M  V30 1003 C 102.168 1.94122 0.829443 0
M  V30 1004 O 101.516 1.48249 1.7388 0
M  V30 1005 C 101.726 3.20186 -1.38859 0
M  V30 1006 C 103.074 3.95989 -1.53226 0
M  V30 1007 O 104.098 3.29696 -1.3483 0
M  V30 1008 O 102.957 5.14813 -1.83384 0
M  V30 1009 H 100.051 0.790258 -0.243764 0
M  V30 1010 H 102.597 1.23797 -1.16071 0
M  V30 1011 H 101.369 3.07146 -2.4244 0
M  V30 1012 H 100.992 3.87112 -0.907216 0
M  V30 1013 N 101.989 0.842826 1.3317 0
M  V30 1014 C 102.919 0.294028 2.31641 0
M  V30 1015 C 103.9 -0.600401 1.59151 0
M  V30 1016 O 105.085 -0.523124 1.87022 0
M  V30 1017 C 102.215 -0.528416 3.43257 0
M  V30 1018 C 101.169 0.27056 4.27144 0
M  V30 1019 C 100.495 -0.675881 5.30411 0
M  V30 1020 C 101.795 1.48981 5.00602 0
M  V30 1021 H 103.489 1.11681 2.77791 0
M  V30 1022 H 101.035 0.538478 1.33553 0
M  V30 1023 H 102.988 -0.922674 4.11175 0
M  V30 1024 H 101.712 -1.38445 2.95805 0
M  V30 1025 H 100.371 0.646427 3.60856 0
M  V30 1026 H 100.019 -1.52842 4.79216 0
M  V30 1027 H 99.7189 -0.145374 5.8742 0
M  V30 1028 H 101.243 -1.06757 6.01195 0
M  V30 1029 H 102.657 1.16849 5.61266 0
M  V30 1030 H 101.054 1.95739 5.6728 0
M  V30 1031 H 102.124 2.25746 4.29147 0
M  V30 1032 N 103.467 -1.45747 0.599634 0
M  V30 1033 C 104.713 -2.02592 0.0918643 0
M  V30 1034 C 105.046 -1.46806 -1.27128 0
M  V30 1035 O 104.321 -0.639658 -1.83681 0
M  V30 1036 C 104.604 -3.60073 0.0443398 0
M  V30 1037 C 104.457 -4.26208 1.43759 0
M  V30 1038 C 105.776 -4.35309 -0.647608 0
M  V30 1039 H 102.895 -0.736175 0.034857 0
M  V30 1040 H 105.537 -1.73694 0.770081 0
M  V30 1041 H 103.687 -3.84823 -0.533224 0
M  V30 1042 H 105.359 -4.12668 2.06162 0
M  V30 1043 H 103.602 -3.84916 2.00056 0
M  V30 1044 H 104.273 -5.35069 1.35665 0
M  V30 1045 H 106.749 -4.15805 -0.156776 0
M  V30 1046 H 105.625 -5.45038 -0.649942 0
M  V30 1047 H 105.886 -4.07598 -1.71219 0
M  V30 1048 N 104.945 -0.338344 -1.53925 0
M  V30 1049 C 105.893 0.536231 -2.26335 0
M  V30 1050 C 106.887 1.1063 -1.28286 0
M  V30 1051 O 108.093 1.05264 -1.46012 0
M  V30 1052 H 104.468 0.191602 -0.727181 0
M  V30 1053 H 106.439 -0.0965747 -2.98244 0
M  V30 1054 C 105.188 1.67803 -3.04528 0
M  V30 1055 H 104.511 1.24864 -3.79801 0
M  V30 1056 H 105.951 2.26526 -3.58416 0
M  V30 1057 C 104.41 2.60439 -2.13712 0
M  V30 1058 O 104.94 3.6255 -1.72975 0
M  V30 1059 N 103.146 2.29006 -1.78898 0
M  V30 1060 H 102.693 1.46011 -2.12223 0
M  V30 1061 H 102.651 2.91248 -1.18416 0
M  V30 1062 N 106.423 1.57458 -0.0668435 0
M  V30 1063 C 107.669 1.94401 0.598316 0
M  V30 1064 C 108.024 0.946335 1.67518 0
M  V30 1065 O 107.317 -0.0321442 1.91573 0
M  V30 1066 C 107.511 3.35784 1.22409 0
M  V30 1067 C 107.34 4.49212 0.209367 0
M  V30 1068 C 106.11 5.04887 -0.204218 0
M  V30 1069 C 108.308 5.11335 -0.551431 0
M  V30 1070 N 106.29 6.01854 -1.21016 0
M  V30 1071 C 107.661 6.03754 -1.41 0
M  V30 1072 C 109.716 4.94173 -0.608038 0
M  V30 1073 C 108.419 6.80854 -2.32013 0
M  V30 1074 C 110.445 5.71912 -1.50566 0
M  V30 1075 C 109.807 6.63976 -2.35191 0
M  V30 1076 H 105.906 0.758538 0.190114 0
M  V30 1077 H 108.49 1.94175 -0.142832 0
M  V30 1078 H 106.661 3.36757 1.93518 0
M  V30 1079 H 108.393 3.59976 1.84931 0
M  V30 1080 H 105.148 4.73266 0.177908 0
M  V30 1081 H 105.572 6.55035 -1.71049 0
M  V30 1082 H 110.214 4.22788 0.032022 0
M  V30 1083 H 107.932 7.5152 -2.97057 0
M  V30 1084 H 111.518 5.60656 -1.55423 0
M  V30 1085 H 110.398 7.2308 -3.03522 0
M  V30 1086 N 107.901 -0.206675 1.56239 0
M  V30 1087 C 108.864 -1.23976 1.92776 0
M  V30 1088 C 109.864 -1.39041 0.807729 0
M  V30 1089 O 111.054 -1.37051 1.0753 0
M  V30 1090 C 108.186 -2.61112 2.19165 0
M  V30 1091 H 109.379 -0.927764 2.85189 0
M  V30 1092 H 106.932 -0.447718 1.4975 0
M  V30 1093 H 107.667 -2.97386 1.29352 0
M  V30 1094 H 107.452 -2.51552 3.00772 0
M  V30 1095 H 108.942 -3.35633 2.48476 0
M  V30 1096 N 109.379 -1.50304 -0.473955 0
M  V30 1097 C 110.795 -1.37667 -0.807466 0
M  V30 1098 C 110.995 -0.430555 -1.96846 0
M  V30 1099 O 110.051 0.127874 -2.52176 0
M  V30 1100 C 111.364 -2.78974 -1.12223 0
M  V30 1101 C 112.912 -2.87868 -1.22885 0
M  V30 1102 C 113.387 -4.30003 -1.57676 0
M  V30 1103 N 114.878 -4.3294 -1.64673 0
M  V30 1104 C 115.613 -5.3991 -1.93091 0
M  V30 1105 N 115.109 -6.57092 -2.1955 0
M  V30 1106 N 116.902 -5.27351 -1.94569 0
M  V30 1107 H 109.053 -2.10394 0.291212 0
M  V30 1108 H 111.316 -0.945575 0.0677609 0
M  V30 1109 H 111.022 -3.50031 -0.342229 0
M  V30 1110 H 110.896 -3.16038 -2.05913 0
M  V30 1111 H 113.283 -2.17032 -1.99953 0
M  V30 1112 H 113.364 -2.54352 -0.271814 0
M  V30 1113 H 113.008 -5.01375 -0.81149 0
M  V30 1114 H 112.938 -4.61004 -2.54525 0
M  V30 1115 H 115.429 -3.48441 -1.46277 0
M  V30 1116 H 115.742 -7.34425 -2.405 0
M  V30 1117 H 114.087 -6.60272 -2.16948 0
M  V30 1118 H 117.278 -4.34801 -1.73394 0
M  V30 1119 H 117.451 -6.10805 -2.16381 0
M  V30 1120 N 110.857 0.726932 -1.39834 0
M  V30 1121 C 112.273 1.03354 -1.21615 0
M  V30 1122 C 112.473 2.01327 -0.08338 0
M  V30 1123 O 111.529 2.46158 0.56238 0
M  V30 1124 C 112.842 1.58811 -2.55342 0
M  V30 1125 C 114.39 1.70851 -2.62257 0
M  V30 1126 C 114.865 2.29716 -3.96225 0
M  V30 1127 N 116.356 2.37116 -3.97907 0
M  V30 1128 C 117.091 2.83619 -4.98345 0
M  V30 1129 N 116.587 3.29958 -6.09179 0
M  V30 1130 N 118.38 2.82901 -4.8572 0
M  V30 1131 H 110.531 0.0773069 -2.12259 0
M  V30 1132 H 112.794 0.0969102 -0.943034 0
M  V30 1133 H 112.5 0.942855 -3.38826 0
M  V30 1134 H 112.374 2.57502 -2.75632 0
M  V30 1135 H 114.761 2.34497 -1.79152 0
M  V30 1136 H 114.842 0.707913 -2.45809 0
M  V30 1137 H 114.486 1.66696 -4.79765 0
M  V30 1138 H 114.416 3.30469 -4.09997 0
M  V30 1139 H 116.907 2.04374 -3.17868 0
M  V30 1140 H 117.22 3.63976 -6.8172 0
M  V30 1141 H 115.565 3.27946 -6.12761 0
M  V30 1142 H 118.756 2.46027 -3.98231 0
M  V30 1143 H 118.929 3.18827 -5.6414 0
M  V30 1144 N 112.336 1.25143 0.95797 0
M  V30 1145 C 113.561 1.12521 1.74223 0
M  V30 1146 C 113.986 -0.317402 1.85403 0
M  V30 1147 O 113.344 -1.2299 1.33204 0
M  V30 1148 C 113.392 1.78062 3.1357 0
M  V30 1149 O 112.496 1.058 3.98598 0
M  V30 1150 H 111.837 0.39304 0.535178 0
M  V30 1151 H 114.367 1.65641 1.201 0
M  V30 1152 H 114.377 1.84213 3.64046 0
M  V30 1153 H 113.052 2.83021 3.04749 0
M  V30 1154 H 111.629 1.07506 3.57067 0
M  V30 1155 N 113.814 -1.1601 1.06675 0
M  V30 1156 C 115.039 -1.91068 0.806706 0
M  V30 1157 C 115.464 -1.77112 -0.633485 0
M  V30 1158 O 114.822 -1.09908 -1.44187 0
M  V30 1159 C 114.87 -3.39655 1.21106 0
M  V30 1160 O 113.974 -4.10893 0.352189 0
M  V30 1161 H 113.315 -0.595125 0.294486 0
M  V30 1162 H 115.845 -1.46955 1.42356 0
M  V30 1163 H 115.855 -3.90434 1.18428 0
M  V30 1164 H 114.53 -3.49132 2.26008 0
M  V30 1165 H 113.107 -3.70285 0.440868 0
M  V30 1166 N 115.292 -0.849877 -1.32721 0
M  V30 1167 C 116.222 -0.306308 -2.31482 0
M  V30 1168 C 117.203 0.591952 -1.59468 0
M  V30 1169 O 118.388 0.513199 -1.87296 0
M  V30 1170 C 115.518 0.510204 -3.43532 0
M  V30 1171 C 114.472 -0.293209 -4.26994 0
M  V30 1172 C 113.798 0.647743 -5.30762 0
M  V30 1173 C 115.098 -1.51634 -4.99804 0
M  V30 1174 H 116.792 -1.13153 -2.77195 0
M  V30 1175 H 114.338 -0.545553 -1.33266 0
M  V30 1176 H 116.291 0.900856 -4.11658 0
M  V30 1177 H 115.015 1.36874 -2.96535 0
M  V30 1178 H 113.674 -0.665555 -3.60508 0
M  V30 1179 H 113.322 1.50299 -4.8002 0
M  V30 1180 H 113.022 0.11422 -5.87489 0
M  V30 1181 H 114.546 1.03567 -6.01753 0
M  V30 1182 H 115.96 -1.19824 -5.60638 0
M  V30 1183 H 114.357 -1.98745 -5.66234 0
M  V30 1184 H 115.427 -2.28018 -4.27943 0
M  V30 1185 N 116.77 1.45427 -0.607355 0
M  V30 1186 C 118.016 2.03097 -0.111035 0
M  V30 1187 C 118.371 1.46735 1.24445 0
M  V30 1188 O 117.664 0.632478 1.8086 0
M  V30 1189 C 117.858 3.57398 -0.0129263 0
M  V30 1190 C 117.687 4.28726 -1.35735 0
M  V30 1191 C 116.457 4.66659 -1.93798 0
M  V30 1192 C 118.655 4.60699 -2.28607 0
M  V30 1193 N 116.637 5.22845 -3.21723 0
M  V30 1194 C 118.008 5.17716 -3.41131 0
M  V30 1195 C 120.063 4.42638 -2.27982 0
M  V30 1196 C 118.766 5.58576 -4.53194 0
M  V30 1197 C 120.792 4.84531 -3.39093 0
M  V30 1198 C 120.154 5.4164 -4.50339 0
M  V30 1199 H 116.253 0.777476 -0.083994 0
M  V30 1200 H 118.837 1.77249 -0.805655 0
M  V30 1201 H 117.008 3.82907 0.650914 0
M  V30 1202 H 118.74 4.01722 0.490033 0
M  V30 1203 H 115.495 4.50207 -1.47007 0
M  V30 1204 H 115.919 5.55438 -3.87063 0
M  V30 1205 H 120.561 3.97798 -1.43235 0
M  V30 1206 H 118.279 6.02382 -5.38667 0
M  V30 1207 H 121.865 4.72289 -3.39757 0
M  V30 1208 H 120.745 5.73461 -5.34895 0
M  V30 1209 N 118.248 0.346503 1.53744 0
M  V30 1210 C 119.659 -0.136779 1.86198 0
M  V30 1211 C 120.01 -1.49749 1.26766 0
M  V30 1212 O 119.135 -2.08417 0.582355 0
M  V30 1213 C 119.73 -0.254966 3.37839 0
M  V30 1214 C 118.289 -0.682482 3.70161 0
M  V30 1215 C 117.436 0.181981 2.76702 0
M  V30 1216 H 120.387 0.565994 1.48264 0
M  V30 1217 H 120.408 -1.08195 3.64793 0
M  V30 1218 H 119.92 0.735526 3.81066 0
M  V30 1219 H 118.021 -1.68189 3.3248 0
M  V30 1220 H 118.134 -0.470326 4.76786 0
M  V30 1221 H 116.498 -0.34615 2.52337 0
M  V30 1222 H 117.281 1.16966 3.2276 0
M  V30 1223 N 119.726 -1.57421 0.075193 0
M  V30 1224 C 120.659 -2.08528 -0.926904 0
M  V30 1225 C 121.637 -0.991171 -1.28898 0
M  V30 1226 O 122.821 -1.26479 -1.39769 0
M  V30 1227 C 119.948 -2.54576 -2.23402 0
M  V30 1228 C 118.994 -3.75454 -2.02327 0
M  V30 1229 S 119.827 -5.19989 -1.27951 0
M  V30 1230 C 120.983 -5.69372 -2.59935 0
M  V30 1231 H 121.216 -2.932 -0.492048 0
M  V30 1232 H 118.749 -1.53785 -0.137651 0
M  V30 1233 H 120.707 -2.81767 -2.98526 0
M  V30 1234 H 119.368 -1.70166 -2.64012 0
M  V30 1235 H 118.561 -4.05675 -2.99071 0
M  V30 1236 H 118.163 -3.48654 -1.35339 0
M  V30 1237 H 120.455 -5.76424 -3.56008 0
M  V30 1238 H 121.398 -6.68207 -2.34319 0
M  V30 1239 H 121.806 -4.97205 -2.67296 0
M  V30 1240 N 121.204 0.198386 -1.56346 0
M  V30 1241 C 122.432 0.935572 -1.84539 0
M  V30 1242 C 122.847 1.76989 -0.657281 0
M  V30 1243 O 122.204 1.78626 0.374043 0
M  V30 1244 C 122.255 1.8344 -3.11499 0
M  V30 1245 O 121.976 1.03377 -4.25728 0
M  V30 1246 C 123.477 2.68355 -3.52846 0
M  V30 1247 H 120.697 0.273126 -0.612897 0
M  V30 1248 H 123.241 0.20663 -2.03453 0
M  V30 1249 H 121.396 2.51701 -2.94492 0
M  V30 1250 H 121.81 1.64599 -4.98003 0
M  V30 1251 H 123.284 3.27085 -4.44657 0
M  V30 1252 H 123.761 3.41901 -2.75681 0
M  V30 1253 H 124.367 2.05471 -3.72373 0
M  V30 1254 N 122.682 1.50554 0.465978 0
M  V30 1255 C 123.929 1.61798 1.21768 0
M  V30 1256 C 124.257 0.320696 1.91838 0
M  V30 1257 O 123.512 -0.693724 1.82992 0
M  V30 1258 C 123.811 2.75152 2.28093 0
M  V30 1259 C 123.477 4.15454 1.75239 0
M  V30 1260 C 122.139 4.53628 1.60546 0
M  V30 1261 C 124.491 5.03121 1.36083 0
M  V30 1262 C 121.819 5.77204 1.05128 0
M  V30 1263 C 124.171 6.27249 0.821056 0
M  V30 1264 C 122.835 6.64221 0.660795 0
M  V30 1265 H 122.105 0.592063 0.445582 0
M  V30 1266 H 124.752 1.84503 0.512927 0
M  V30 1267 H 123.057 2.46556 3.04496 0
M  V30 1268 H 124.754 2.81055 2.86023 0
M  V30 1269 H 121.344 3.85341 1.87644 0
M  V30 1270 H 125.528 4.74257 1.46267 0
M  V30 1271 H 120.784 6.0452 0.91462 0
M  V30 1272 H 124.958 6.94537 0.509018 0
M  V30 1273 H 122.585 7.59854 0.229226 0
M  V30 1274 N 124.16 -0.719506 1.40217 0
M  V30 1275 C 125.408 -1.47641 1.3801 0
M  V30 1276 C 125.729 -1.94992 -0.018145 0
M  V30 1277 O 124.999 -1.70073 -0.972207 0
M  V30 1278 H 123.579 -0.547744 0.507923 0
M  V30 1279 H 126.241 -0.853187 1.75233 0
M  V30 1280 H 125.337 -2.35112 2.05253 0
M  V30 1281 N 125.638 -1.25649 -0.95132 0
M  V30 1282 C 126.568 -1.08808 -2.06599 0
M  V30 1283 C 127.549 0.00382547 -1.701 0
M  V30 1284 O 128.734 -0.166325 -1.93486 0
M  V30 1285 C 125.864 -0.709542 -3.39975 0
M  V30 1286 C 124.818 -1.75206 -3.90496 0
M  V30 1287 C 124.144 -1.22811 -5.20405 0
M  V30 1288 C 125.444 -3.15153 -4.16504 0
M  V30 1289 H 127.138 -2.02048 -2.20946 0
M  V30 1290 H 124.684 -0.972835 -1.06169 0
M  V30 1291 H 126.637 -0.578649 -4.17408 0
M  V30 1292 H 125.361 0.258556 -3.25575 0
M  V30 1293 H 124.02 -1.87145 -3.15234 0
M  V30 1294 H 123.668 -0.250145 -5.02378 0
M  V30 1295 H 123.368 -1.92492 -5.55176 0
M  V30 1296 H 124.892 -1.10968 -6.00432 0
M  V30 1297 H 126.306 -3.06349 -4.84586 0
M  V30 1298 H 124.703 -3.82333 -4.62538 0
M  V30 1299 H 125.773 -3.61966 -3.22658 0
M  V30 1300 N 127.117 1.15442 -1.07289 0
M  V30 1301 C 128.08 2.18358 -0.696591 0
M  V30 1302 C 129.08 1.58637 0.262837 0
M  V30 1303 O 130.27 1.74145 0.0438809 0
M  V30 1304 C 127.402 3.4089 -0.0266151 0
M  V30 1305 H 128.595 2.53162 -1.60776 0
M  V30 1306 H 126.148 1.29893 -0.869342 0
M  V30 1307 H 126.883 3.11653 0.896822 0
M  V30 1308 H 126.668 3.85495 -0.716657 0
M  V30 1309 H 128.158 4.17009 0.222028 0
M  V30 1310 N 128.595 0.856903 1.32268 0
M  V30 1311 C 129.835 0.467705 1.98977 0
M  V30 1312 C 130.199 -0.959231 1.66321 0
M  V30 1313 O 131.4 -1.4531 2.26138 0
M  V30 1314 C 129.671 0.70256 3.50427 0
M  V30 1315 S 131.23 0.411269 4.36868 0
M  V30 1316 H 128.048 0.175121 0.689096 0
M  V30 1317 H 130.65 1.1101 1.60925 0
M  V30 1318 H 129.354 1.74012 3.71683 0
M  V30 1319 H 128.885 0.0466707 3.93372 0
M  V30 1320 H 130.9 -0.761799 4.90317 0
M  V30 1321 N 130.073 -1.45103 0.615059 0
M  V30 1322 C 131.313 -2.04069 0.116282 0
M  V30 1323 C 131.677 -1.4721 -1.2326 0
M  V30 1324 O 132.878 -1.97577 -1.82255 0
M  V30 1325 C 131.149 -3.57298 0.085482 0
M  V30 1326 S 132.708 -4.37394 -0.351015 0
M  V30 1327 H 129.526 -0.709006 0.0532183 0
M  V30 1328 H 132.128 -1.77709 0.81484 0
M  V30 1329 H 130.832 -3.9619 1.0706 0
M  V30 1330 H 130.363 -3.88244 -0.634835 0
M  V30 1331 H 132.378 -4.69734 -1.59889 0
M  V30 1332 N 131.551 -0.354651 -1.53558 0
M  V30 1333 C 132.514 0.484566 -2.24019 0
M  V30 1334 C 133.514 1.01861 -1.24422 0
M  V30 1335 O 134.704 0.906097 -1.4878 0
M  V30 1336 C 131.836 1.67615 -2.96847 0
M  V30 1337 H 133.029 -0.131843 -2.9961 0
M  V30 1338 H 130.582 -0.106165 -1.55939 0
M  V30 1339 H 131.317 2.33095 -2.25471 0
M  V30 1340 H 131.102 1.30029 -3.69912 0
M  V30 1341 H 132.592 2.27114 -3.50441 0
M  V30 1342 N 133.029 1.57378 -0.0835403 0
M  V30 1343 C 134.275 1.94217 0.583733 0
M  V30 1344 C 134.608 0.964653 1.68547 0
M  V30 1345 O 133.883 -0.00422258 1.945 0
M  V30 1346 C 134.166 3.41253 1.14972 0
M  V30 1347 C 134.019 4.49768 0.0538277 0
M  V30 1348 C 135.338 3.89352 2.05166 0
M  V30 1349 H 132.457 0.706233 0.210724 0
M  V30 1350 H 135.099 1.89392 -0.1519 0
M  V30 1351 H 133.249 3.45496 1.77665 0
M  V30 1352 H 134.921 4.57641 -0.579851 0
M  V30 1353 H 133.164 4.29432 -0.614068 0
M  V30 1354 H 133.835 5.49817 0.490452 0
M  V30 1355 H 136.311 3.87189 1.52393 0
M  V30 1356 H 135.187 4.92822 2.41698 0
M  V30 1357 H 135.448 3.27973 2.96456 0
M  V30 1358 N 134.507 -0.190092 1.56449 0
M  V30 1359 C 135.417 -1.25591 1.98152 0
M  V30 1360 C 136.433 -1.49519 0.889944 0
M  V30 1361 O 137.609 -1.62036 1.19609 0
M  V30 1362 C 134.674 -2.57916 2.3169 0
M  V30 1363 C 133.735 -2.42015 3.5458 0
M  V30 1364 C 132.968 -3.6803 3.8651 0
M  V30 1365 O 133.191 -4.72413 3.1966 0
M  V30 1366 O 132.125 -3.6326 4.79923 0
M  V30 1367 H 135.951 -0.931988 2.89046 0
M  V30 1368 H 133.536 -0.395488 1.4407 0
M  V30 1369 H 135.418 -3.36008 2.54316 0
M  V30 1370 H 134.093 -2.89925 1.43963 0
M  V30 1371 H 133 -1.62017 3.37196 0
M  V30 1372 H 134.333 -2.14937 4.4279 0
M  V30 1373 N 135.985 -1.50799 -0.457987 0
M  V30 1374 C 136.918 -1.65273 -1.57353 0
M  V30 1375 C 137.896 -0.500578 -1.54703 0
M  V30 1376 O 139.08 -0.721781 -1.74134 0
M  V30 1377 C 136.207 -1.64737 -2.95938 0
M  V30 1378 C 135.253 -2.8567 -3.16693 0
M  V30 1379 S 136.086 -4.46791 -2.95191 0
M  V30 1380 C 137.242 -4.48968 -4.36095 0
M  V30 1381 H 137.475 -2.59633 -1.44838 0
M  V30 1382 H 135.008 -1.40225 -0.64625 0
M  V30 1383 H 136.966 -1.65112 -3.7583 0
M  V30 1384 H 135.627 -0.715899 -3.05833 0
M  V30 1385 H 134.82 -2.81637 -4.17967 0
M  V30 1386 H 134.422 -2.8293 -2.44594 0
M  V30 1387 H 136.714 -4.23337 -5.28954 0
M  V30 1388 H 137.657 -5.50664 -4.45168 0
M  V30 1389 H 138.065 -3.78522 -4.18786 0
M  V30 1390 N 137.463 0.71206 -1.40597 0
M  V30 1391 C 138.396 1.83582 -1.35546 0
M  V30 1392 C 139.374 1.61032 -0.225284 0
M  V30 1393 O 140.558 1.83998 -0.409519 0
M  V30 1394 C 137.685 3.19983 -1.11034 0
M  V30 1395 C 136.731 3.61355 -2.2655 0
M  V30 1396 S 137.564 3.68062 -3.88961 0
M  V30 1397 C 138.72 5.07216 -3.66719 0
M  V30 1398 H 138.953 1.87586 -2.30648 0
M  V30 1399 H 136.486 0.879182 -1.26924 0
M  V30 1400 H 138.444 3.98734 -0.975761 0
M  V30 1401 H 137.105 3.13608 -0.175798 0
M  V30 1402 H 136.298 4.60403 -2.0505 0
M  V30 1403 H 135.9 2.8987 -2.36329 0
M  V30 1404 H 138.192 5.94238 -3.25404 0
M  V30 1405 H 139.135 5.33753 -4.6531 0
M  V30 1406 H 139.543 4.77976 -3.00332 0
M  V30 1407 N 138.941 1.26152 0.944643 0
M  V30 1408 C 139.891 1.04081 2.02857 0
M  V30 1409 C 140.875 -0.0256555 1.6088 0
M  V30 1410 O 142.067 0.190884 1.75968 0
M  V30 1411 C 139.196 0.672118 3.36656 0
M  V30 1412 C 138.282 1.77586 3.85128 0
M  V30 1413 N 138.673 3.01272 4.06287 0
M  V30 1414 C 136.971 1.65867 4.1401 0
M  V30 1415 C 137.672 3.72983 4.46384 0
M  V30 1416 N 136.648 3.00653 4.52889 0
M  V30 1417 H 140.45 1.97968 2.17223 0
M  V30 1418 H 137.964 1.16618 1.13022 0
M  V30 1419 H 139.961 0.495166 4.13949 0
M  V30 1420 H 138.621 -0.259307 3.23663 0
M  V30 1421 H 139.632 3.37213 3.93075 0
M  V30 1422 H 136.309 0.796907 4.09824 0
M  V30 1423 H 137.699 4.792 4.70975 0
M  V30 1424 N 140.419 -1.14872 1.07899 0
M  V30 1425 C 141.352 -2.18794 0.64841 0
M  V30 1426 C 142.33 -1.59065 -0.337189 0
M  V30 1427 O 143.514 -1.86936 -0.242284 0
M  V30 1428 C 140.641 -3.38667 -0.0470417 0
M  V30 1429 C 139.687 -4.16942 0.897884 0
M  V30 1430 S 140.52 -4.78615 2.40183 0
M  V30 1431 C 141.676 -6.0185 1.71834 0
M  V30 1432 H 141.909 -2.5498 1.52881 0
M  V30 1433 H 139.442 -1.25922 0.893484 0
M  V30 1434 H 141.4 -4.08113 -0.442027 0
M  V30 1435 H 140.061 -3.00814 -0.903861 0
M  V30 1436 H 139.254 -5.02726 0.358096 0
M  V30 1437 H 138.856 -3.53073 1.23352 0
M  V30 1438 H 141.148 -6.69574 1.03328 0
M  V30 1439 H 142.091 -6.60408 2.55473 0
M  V30 1440 H 142.499 -5.5173 1.19392 0
M  V30 1441 N 141.898 -0.863906 -1.31812 0
M  V30 1442 C 142.861 -0.320212 -2.26952 0
M  V30 1443 C 143.861 0.525369 -1.51975 0
M  V30 1444 O 145.051 0.335547 -1.70938 0
M  V30 1445 C 142.183 0.545919 -3.365 0
M  V30 1446 H 143.376 -1.16004 -2.76556 0
M  V30 1447 H 140.929 -0.638995 -1.42641 0
M  V30 1448 H 141.664 1.40718 -2.92179 0
M  V30 1449 H 141.449 -0.0594674 -3.92055 0
M  V30 1450 H 142.939 0.918796 -4.07367 0
M  V30 1451 N 143.376 1.44774 -0.622745 0
M  V30 1452 C 144.339 2.29069 0.0774015 0
M  V30 1453 C 145.339 1.4059 0.780461 0
M  V30 1454 O 146.529 1.62551 0.626322 0
M  V30 1455 C 143.661 3.21974 1.12006 0
M  V30 1456 H 144.854 2.92459 -0.663901 0
M  V30 1457 H 142.407 1.51548 -0.382486 0
M  V30 1458 H 143.142 2.63417 1.89162 0
M  V30 1459 H 142.927 3.87168 0.619951 0
M  V30 1460 H 144.417 3.85318 1.60995 0
M  V30 1461 N 144.854 0.36279 1.53368 0
M  V30 1462 C 146.265 -0.117022 1.86333 0
M  V30 1463 C 146.616 -1.48397 1.28347 0
M  V30 1464 O 145.741 -2.07787 0.604428 0
M  V30 1465 C 146.336 -0.21912 3.38091 0
M  V30 1466 C 144.895 -0.643184 3.70864 0
M  V30 1467 C 144.042 0.211318 2.76494 0
M  V30 1468 H 146.993 0.581687 1.47655 0
M  V30 1469 H 147.014 -1.04319 3.6592 0
M  V30 1470 H 146.526 0.775902 3.80265 0
M  V30 1471 H 144.627 -1.64654 3.34245 0
M  V30 1472 H 144.74 -0.41973 4.77258 0
M  V30 1473 H 143.104 -0.319367 2.5269 0
M  V30 1474 H 143.887 1.20383 3.21501 0
M  V30 1475 N 146.332 -1.57332 0.0918853 0
M  V30 1476 C 147.748 -1.57389 -0.264766 0
M  V30 1477 C 147.948 -1.10281 -1.68643 0
M  V30 1478 O 147.004 -0.777801 -2.40222 0
M  V30 1479 C 148.317 -3.00648 -0.0561195 0
M  V30 1480 C 149.865 -3.12754 -0.124116 0
M  V30 1481 C 150.34 -4.57965 0.0564972 0
M  V30 1482 N 151.831 -4.632 0.00155611 0
M  V30 1483 C 152.566 -5.73281 0.116598 0
M  V30 1484 N 152.062 -6.92208 0.286294 0
M  V30 1485 N 153.855 -5.6207 0.0580973 0
M  V30 1486 H 146.006 -1.86262 1.02079 0
M  V30 1487 H 148.269 -0.859579 0.399786 0
M  V30 1488 H 147.975 -3.393 0.925669 0
M  V30 1489 H 147.849 -3.68623 -0.799823 0
M  V30 1490 H 150.236 -2.73976 -1.09641 0
M  V30 1491 H 150.317 -2.47377 0.651024 0
M  V30 1492 H 149.961 -4.97436 1.02564 0
M  V30 1493 H 149.891 -5.21399 -0.738297 0
M  V30 1494 H 152.382 -3.77686 -0.127192 0
M  V30 1495 H 152.695 -7.71934 0.365676 0
M  V30 1496 H 151.04 -6.94254 0.32192 0
M  V30 1497 H 154.231 -4.68043 -0.0733204 0
M  V30 1498 H 154.404 -6.47824 0.151203 0
M  V30 1499 N 147.81 0.181792 -1.56548 0
M  V30 1500 C 149.04 0.914618 -1.85252 0
M  V30 1501 C 149.448 1.76791 -0.673914 0
M  V30 1502 O 148.791 1.80009 0.366416 0
M  V30 1503 C 148.853 1.85019 -3.08234 0
M  V30 1504 C 148.517 1.17754 -4.41569 0
M  V30 1505 C 149.514 0.548035 -5.17003 0
M  V30 1506 C 147.199 1.17742 -4.88305 0
M  V30 1507 C 149.193 -0.0726128 -6.37359 0
M  V30 1508 C 146.88 0.552946 -6.08593 0
M  V30 1509 C 147.878 -0.070978 -6.82963 0
M  V30 1510 O 147.566 -0.685635 -8.00971 0
M  V30 1511 H 147.298 0.271695 -0.618998 0
M  V30 1512 H 149.852 0.189944 -2.0452 0
M  V30 1513 H 148.082 2.61491 -2.84885 0
M  V30 1514 H 149.771 2.45195 -3.23472 0
M  V30 1515 H 150.537 0.540174 -4.81982 0
M  V30 1516 H 146.416 1.65246 -4.30366 0
M  V30 1517 H 149.96 -0.560213 -6.95347 0
M  V30 1518 H 145.857 0.558354 -6.43081 0
M  V30 1519 H 146.625 -0.58385 -8.16415 0
M  V30 1520 N 149.288 1.51039 0.449983 0
M  V30 1521 C 150.565 1.53612 1.21089 0
M  V30 1522 C 150.945 0.292997 2.09057 0
M  V30 1523 O 150.293 -0.72259 2.16774 0
M  V30 1524 C 150.503 2.84337 2.0237 0
M  V30 1525 C 151.851 3.35807 2.59843 0
M  V30 1526 O 152.875 2.85802 2.12593 0
M  V30 1527 O 151.734 4.23029 3.45989 0
M  V30 1528 H 148.828 0.617057 0.550608 0
M  V30 1529 H 151.374 1.63344 0.460082 0
M  V30 1530 H 150.146 3.66278 1.37681 0
M  V30 1531 H 149.769 2.77708 2.84542 0
M  V30 1532 N 150.766 -0.704594 1.40972 0
M  V30 1533 C 151.699 -1.82861 1.36518 0
M  V30 1534 C 152.677 -1.6091 0.23382 0
M  V30 1535 O 153.861 -1.83778 0.419271 0
M  V30 1536 C 150.988 -3.1939 1.12729 0
M  V30 1537 C 150.034 -3.60148 2.28463 0
M  V30 1538 S 150.867 -3.65994 3.90907 0
M  V30 1539 C 152.023 -5.05264 3.69403 0
M  V30 1540 H 152.256 -1.86361 2.3164 0
M  V30 1541 H 149.789 -0.872439 1.27389 0
M  V30 1542 H 151.747 -3.98211 0.996893 0
M  V30 1543 H 150.408 -3.1351 0.192427 0
M  V30 1544 H 149.601 -4.59309 2.07489 0
M  V30 1545 H 149.203 -2.88612 2.37863 0
M  V30 1546 H 151.495 -5.92504 3.28551 0
M  V30 1547 H 152.438 -5.31278 4.68134 0
M  V30 1548 H 152.846 -4.76377 3.02862 0
M  V30 1549 N 152.244 -1.26651 -0.937939 0
M  V30 1550 C 153.521 -1.0313 -1.66204 0
M  V30 1551 C 153.901 0.437256 -2.06522 0
M  V30 1552 O 153.249 1.41831 -1.79154 0
M  V30 1553 C 153.459 -1.98314 -2.87181 0
M  V30 1554 C 154.807 -2.27107 -3.58758 0
M  V30 1555 O 155.831 -1.96205 -2.97291 0
M  V30 1556 O 154.69 -2.79736 -4.69479 0
M  V30 1557 H 151.784 -0.392384 -0.727986 0
M  V30 1558 H 154.33 -1.37874 -0.989382 0
M  V30 1559 H 153.102 -2.97399 -2.54302 0
M  V30 1560 H 152.725 -1.64068 -3.6217 0
M  V30 1561 N 153.722 1.14298 -1.08507 0
M  V30 1562 C 155.138 1.37347 -0.812901 0
M  V30 1563 C 155.338 1.93052 0.577325 0
M  V30 1564 O 154.394 2.14389 1.33393 0
M  V30 1565 C 155.707 2.33359 -1.89642 0
M  V30 1566 C 157.255 2.46996 -1.92255 0
M  V30 1567 C 157.73 3.46309 -2.99724 0
M  V30 1568 N 159.221 3.53853 -2.98902 0
M  V30 1569 C 159.956 4.3055 -3.787 0
M  V30 1570 N 159.452 5.10482 -4.6838 0
M  V30 1571 N 161.245 4.25757 -3.66998 0
M  V30 1572 H 153.396 0.764867 -1.9815 0
M  V30 1573 H 155.659 0.398966 -0.859959 0
M  V30 1574 H 155.365 1.99565 -2.89597 0
M  V30 1575 H 155.239 3.33274 -1.76659 0
M  V30 1576 H 157.626 2.80081 -0.929445 0
M  V30 1577 H 157.707 1.47039 -2.09316 0
M  V30 1578 H 157.351 3.13957 -3.99241 0
M  V30 1579 H 157.281 4.46049 -2.79907 0
M  V30 1580 H 159.772 2.96812 -2.33904 0
M  V30 1581 H 160.085 5.66284 -5.25873 0
M  V30 1582 H 158.43 5.09747 -4.72422 0
M  V30 1583 H 161.621 3.62383 -2.96304 0
M  V30 1584 H 161.794 4.85279 -4.29427 0
M  V30 1585 N 155.201 0.870884 1.31352 0
M  V30 1586 C 156.448 0.482273 1.96673 0
M  V30 1587 C 156.776 -0.965638 1.68836 0
M  V30 1588 O 156.031 -1.69514 0.977937 0
M  V30 1589 C 156.33 0.687157 3.50732 0
M  V30 1590 C 155.996 2.108 3.9859 0
M  V30 1591 C 154.658 2.49656 4.1137 0
M  V30 1592 C 157.01 3.03459 4.23748 0
M  V30 1593 C 154.338 3.80412 4.46659 0
M  V30 1594 C 156.69 4.3373 4.60501 0
M  V30 1595 C 155.354 4.725 4.71487 0
M  V30 1596 H 154.624 0.176476 0.719679 0
M  V30 1597 H 157.271 1.10405 1.56471 0
M  V30 1598 H 155.576 -0.0177476 3.91796 0
M  V30 1599 H 157.273 0.366284 3.99324 0
M  V30 1600 H 153.863 1.79633 3.8914 0
M  V30 1601 H 158.047 2.74665 4.13368 0
M  V30 1602 H 153.303 4.1021 4.53362 0
M  V30 1603 H 157.477 5.05578 4.78919 0
M  V30 1604 H 155.104 5.73859 4.98588 0
M  V30 1605 N 156.679 -1.44442 0.630414 0
M  V30 1606 C 157.927 -2.01653 0.134351 0
M  V30 1607 C 158.248 -1.49836 -1.24796 0
M  V30 1608 O 157.518 -0.701684 -1.82902 0
M  V30 1609 H 156.098 -0.74554 0.0466769 0
M  V30 1610 H 158.76 -1.76952 0.816955 0
M  V30 1611 H 157.856 -3.11935 0.101498 0
M  V30 1612 N 158.157 -0.370918 -1.53173 0
M  V30 1613 C 159.403 0.217423 -2.01631 0
M  V30 1614 C 159.736 1.47983 -1.25756 0
M  V30 1615 O 159.011 1.91274 -0.352764 0
M  V30 1616 C 159.294 0.503982 -3.56556 0
M  V30 1617 C 159.147 -0.77243 -4.43118 0
M  V30 1618 C 160.466 1.30234 -4.20389 0
M  V30 1619 H 157.585 0.0775486 -0.732909 0
M  V30 1620 H 160.227 -0.496863 -1.83388 0
M  V30 1621 H 158.377 1.11248 -3.72231 0
M  V30 1622 H 160.049 -1.4098 -4.39229 0
M  V30 1623 H 158.292 -1.39167 -4.10871 0
M  V30 1624 H 158.963 -0.526815 -5.4948 0
M  V30 1625 H 161.439 0.787546 -4.08579 0
M  V30 1626 H 160.315 1.47158 -5.28806 0
M  V30 1627 H 160.576 2.31237 -3.76805 0
M  V30 1628 N 159.635 1.57281 -0.100228 0
M  V30 1629 C 160.881 1.94826 0.563101 0
M  V30 1630 C 161.214 0.982475 1.67514 0
M  V30 1631 O 160.489 0.0164069 1.94493 0
M  V30 1632 C 160.772 3.42453 1.11346 0
M  V30 1633 C 160.625 4.498 0.00612081 0
M  V30 1634 C 161.944 3.91506 2.01024 0
M  V30 1635 H 159.063 0.708428 0.203221 0
M  V30 1636 H 161.705 1.8922 -0.171979 0
M  V30 1637 H 159.855 3.47361 1.7399 0
M  V30 1638 H 161.527 4.57 -0.628357 0
M  V30 1639 H 159.77 4.28756 -0.659581 0
M  V30 1640 H 160.441 5.50306 0.432109 0
M  V30 1641 H 162.917 3.88784 1.48278 0
M  V30 1642 H 161.793 4.95358 2.36457 0
M  V30 1643 H 162.054 3.31099 2.92961 0
M  V30 1644 N 161.113 -0.173488 1.56642 0
M  V30 1645 C 162.36 -0.890465 1.81871 0
M  V30 1646 C 162.688 -1.82339 0.67696 0
M  V30 1647 O 161.943 -1.92795 -0.335926 0
M  V30 1648 C 162.242 -1.72069 3.13252 0
M  V30 1649 C 161.908 -0.936878 4.41059 0
M  V30 1650 C 160.57 -0.720545 4.75775 0
M  V30 1651 C 162.922 -0.386919 5.19762 0
M  V30 1652 C 160.25 0.0568829 5.86672 0
M  V30 1653 C 162.602 0.37741 6.31473 0
M  V30 1654 C 161.266 0.604563 6.64757 0
M  V30 1655 H 160.536 -0.325844 0.665512 0
M  V30 1656 H 163.183 -0.155527 1.90867 0
M  V30 1657 H 161.488 -2.52496 2.99588 0
M  V30 1658 H 163.185 -2.27844 3.29982 0
M  V30 1659 H 159.775 -1.11553 4.13828 0
M  V30 1660 H 163.959 -0.541398 4.93338 0
M  V30 1661 H 159.215 0.242635 6.10918 0
M  V30 1662 H 163.389 0.810825 6.91664 0
M  V30 1663 H 161.016 1.20885 7.50527 0
M  V30 1664 N 162.591 -1.51276 -0.441967 0
M  V30 1665 C 164.007 -1.39349 -0.778083 0
M  V30 1666 C 164.207 -0.472212 -1.95889 0
M  V30 1667 O 163.263 0.0743551 -2.5239 0
M  V30 1668 C 164.576 -2.81292 -1.0628 0
M  V30 1669 C 166.124 -2.9041 -1.16751 0
M  V30 1670 C 166.599 -4.33251 -1.48519 0
M  V30 1671 N 168.09 -4.36336 -1.55453 0
M  V30 1672 C 168.825 -5.43885 -1.81596 0
M  V30 1673 N 168.321 -6.61601 -2.05562 0
M  V30 1674 N 170.114 -5.3136 -1.8334 0
M  V30 1675 H 162.265 -2.09729 0.335774 0
M  V30 1676 H 164.528 -0.943925 0.0878028 0
M  V30 1677 H 164.234 -3.50678 -0.267905 0
M  V30 1678 H 164.108 -3.20334 -1.99163 0
M  V30 1679 H 166.495 -2.21225 -1.95304 0
M  V30 1680 H 166.576 -2.54871 -0.217801 0
M  V30 1681 H 166.22 -5.02984 -0.704958 0
M  V30 1682 H 166.15 -4.66299 -2.44689 0
M  V30 1683 H 168.641 -3.51466 -1.38853 0
M  V30 1684 H 168.954 -7.39361 -2.24867 0
M  V30 1685 H 167.299 -6.64725 -2.02894 0
M  V30 1686 H 170.49 -4.38382 -1.64132 0
M  V30 1687 H 170.663 -6.15258 -2.03377 0
M  V30 1688 N 164.069 0.697108 -1.41344 0
M  V30 1689 C 165.032 1.79281 -1.42797 0
M  V30 1690 C 166.032 1.57607 -0.318837 0
M  V30 1691 O 167.222 1.64309 -0.578642 0
M  V30 1692 C 164.354 3.17632 -1.23785 0
M  V30 1693 H 165.547 1.79385 -2.40335 0
M  V30 1694 H 163.1 0.904582 -1.27464 0
M  V30 1695 H 163.835 3.23167 -0.270814 0
M  V30 1696 H 163.62 3.34765 -2.04144 0
M  V30 1697 H 165.11 3.97617 -1.27633 0
M  V30 1698 N 165.547 1.27147 0.931209 0
M  V30 1699 C 166.772 1.16191 1.71797 0
M  V30 1700 C 167.197 -0.278004 1.86034 0
M  V30 1701 O 166.555 -1.20137 1.35782 0
M  V30 1702 C 166.603 1.84673 3.09723 0
M  V30 1703 O 165.707 1.14231 3.96264 0
M  V30 1704 H 165.048 0.404303 0.526721 0
M  V30 1705 H 167.578 1.68152 1.1656 0
M  V30 1706 H 167.588 1.91893 3.60057 0
M  V30 1707 H 166.263 2.89421 2.98677 0
M  V30 1708 H 164.84 1.15056 3.54706 0
M  V30 1709 N 167.025 -1.13721 1.09112 0
M  V30 1710 C 168.436 -1.6648 0.845068 0
M  V30 1711 C 168.787 -1.85911 -0.62701 0
M  V30 1712 O 167.912 -1.57556 -1.48341 0
M  V30 1713 C 168.507 -3.02413 1.52748 0
M  V30 1714 C 167.066 -3.52176 1.32849 0
M  V30 1715 C 166.213 -2.27492 1.58564 0
M  V30 1716 H 169.164 -0.976872 1.25072 0
M  V30 1717 H 169.185 -3.68223 0.958752 0
M  V30 1718 H 168.697 -2.88238 2.59885 0
M  V30 1719 H 166.798 -3.7156 0.278137 0
M  V30 1720 H 166.911 -4.32499 2.0611 0
M  V30 1721 H 165.275 -2.33923 1.00758 0
M  V30 1722 H 166.058 -2.15886 2.66924 0
M  V30 1723 N 168.503 -0.877838 -1.30888 0
M  V30 1724 C 169.919 -0.570844 -1.49042 0
M  V30 1725 C 170.119 0.893159 -1.80624 0
M  V30 1726 O 169.175 1.67485 -1.88958 0
M  V30 1727 C 170.488 -1.47784 -2.61878 0
M  V30 1728 C 172.036 -1.48071 -2.75761 0
M  V30 1729 C 172.511 -2.37347 -3.91702 0
M  V30 1730 N 174.002 -2.35271 -3.99001 0
M  V30 1731 C 174.737 -3.01063 -4.88004 0
M  V30 1732 N 174.233 -3.76055 -5.81854 0
M  V30 1733 N 176.026 -2.90332 -4.81315 0
M  V30 1734 H 168.177 -1.82502 -1.0866 0
M  V30 1735 H 170.44 -0.780797 -0.537644 0
M  V30 1736 H 170.146 -2.51993 -2.45341 0
M  V30 1737 H 170.02 -1.18215 -3.58197 0
M  V30 1738 H 172.407 -0.446166 -2.91708 0
M  V30 1739 H 172.488 -1.81668 -1.80085 0
M  V30 1740 H 172.132 -3.40883 -3.76512 0
M  V30 1741 H 172.062 -2.01071 -4.86701 0
M  V30 1742 H 174.553 -1.80768 -3.3186 0
M  V30 1743 H 174.866 -4.23366 -6.46514 0
M  V30 1744 H 173.211 -3.80163 -5.81808 0
M  V30 1745 H 176.402 -2.31278 -4.06974 0
M  V30 1746 H 176.575 -3.41885 -5.50471 0
M  V30 1747 N 169.982 1.44106 -0.638065 0
M  V30 1748 C 170.914 2.28976 0.101205 0
M  V30 1749 C 171.927 1.4167 0.802088 0
M  V30 1750 O 173.116 1.65755 0.662375 0
M  V30 1751 C 170.216 3.18217 1.16581 0
M  V30 1752 C 169.389 4.33978 0.546066 0
M  V30 1753 C 168.448 5.04202 1.50554 0
M  V30 1754 O 167.474 5.59986 1.01999 0
M  V30 1755 N 168.676 5.06296 2.8398 0
M  V30 1756 H 171.441 2.93064 -0.627186 0
M  V30 1757 H 169.002 1.54629 -0.479731 0
M  V30 1758 H 170.994 3.62061 1.80815 0
M  V30 1759 H 169.564 2.55833 1.79634 0
M  V30 1760 H 168.784 3.93239 -0.275046 0
M  V30 1761 H 170.072 5.08675 0.112793 0
M  V30 1762 H 169.47 4.62319 3.26002 0
M  V30 1763 H 168.027 5.53907 3.43556 0
M  V30 1764 N 171.46 0.379036 1.52974 0
M  V30 1765 C 172.685 -0.209353 2.06341 0
M  V30 1766 C 173.11 -1.40583 1.24972 0
M  V30 1767 O 172.468 -1.79246 0.272155 0
M  V30 1768 C 172.516 -0.567786 3.56102 0
M  V30 1769 O 171.62 -1.66318 3.77375 0
M  V30 1770 H 170.961 -0.0272919 0.663439 0
M  V30 1771 H 173.491 0.543536 1.97248 0
M  V30 1772 H 173.501 -0.835003 3.99364 0
M  V30 1773 H 172.176 0.307013 4.14765 0
M  V30 1774 H 170.753 -1.39048 3.46006 0
M  V30 1775 N 172.938 -1.57226 0.108567 0
M  V30 1776 C 174.215 -1.86333 -0.594939 0
M  V30 1777 C 174.595 -1.00788 -1.85486 0
M  V30 1778 O 173.943 -0.0839293 -2.28346 0
M  V30 1779 C 174.153 -3.37265 -0.897405 0
M  V30 1780 C 175.501 -4.05629 -1.25501 0
M  V30 1781 O 176.525 -3.42224 -0.987998 0
M  V30 1782 O 175.384 -5.17531 -1.75567 0
M  V30 1783 H 172.478 -0.771018 -0.2991 0
M  V30 1784 H 175.024 -1.69102 0.142283 0
M  V30 1785 H 173.796 -3.913 -0.00413806 0
M  V30 1786 H 173.419 -3.59889 -1.69014 0
M  V30 1787 N 174.416 0.165178 -1.56732 0
M  V30 1788 C 175.662 0.882112 -1.82611 0
M  V30 1789 C 175.995 1.81628 -0.687378 0
M  V30 1790 O 175.27 1.92009 0.310267 0
M  V30 1791 C 175.553 1.67245 -3.18906 0
M  V30 1792 C 175.406 0.760987 -4.43316 0
M  V30 1793 C 176.725 2.63884 -3.52212 0
M  V30 1794 H 173.844 0.319242 -0.664269 0
M  V30 1795 H 176.486 0.148052 -1.89422 0
M  V30 1796 H 174.636 2.29824 -3.1323 0
M  V30 1797 H 176.308 0.147596 -4.61064 0
M  V30 1798 H 174.551 0.0694102 -4.33744 0
M  V30 1799 H 175.222 1.34962 -5.35247 0
M  V30 1800 H 177.698 2.11429 -3.58381 0
M  V30 1801 H 176.574 3.16245 -4.48643 0
M  V30 1802 H 176.835 3.44377 -2.77231 0
M  V30 1803 N 175.894 1.51508 0.433938 0
M  V30 1804 C 176.827 1.67756 1.54704 0
M  V30 1805 C 177.805 0.525127 1.53887 0
M  V30 1806 O 178.989 0.749393 1.72963 0
M  V30 1807 C 176.116 1.69424 2.9328 0
M  V30 1808 C 175.162 2.90673 3.12108 0
M  V30 1809 S 175.995 4.51431 2.88046 0
M  V30 1810 C 177.151 4.55849 4.28897 0
M  V30 1811 H 177.384 2.61904 1.40689 0
M  V30 1812 H 174.917 1.41235 0.62386 0
M  V30 1813 H 176.875 1.7107 3.73156 0
M  V30 1814 H 175.536 0.764464 3.04655 0
M  V30 1815 H 174.729 2.88251 4.13434 0
M  V30 1816 H 174.331 2.86786 2.40062 0
M  V30 1817 H 176.623 4.31699 5.22152 0
M  V30 1818 H 177.566 5.57676 4.36351 0
M  V30 1819 H 177.974 3.85137 4.12711 0
M  V30 1820 N 177.372 -0.689602 1.41712 0
M  V30 1821 C 178.621 -1.44534 1.40686 0
M  V30 1822 C 178.934 -1.95588 0.0213352 0
M  V30 1823 O 180.14 -2.71271 -0.111534 0
M  V30 1824 C 178.596 -2.61387 2.47396 0
M  V30 1825 C 178.204 -2.17094 3.91885 0
M  V30 1826 C 179.948 -3.38986 2.55517 0
M  V30 1827 C 177.855 -3.3094 4.90135 0
M  V30 1828 H 176.785 -0.542925 0.52321 0
M  V30 1829 H 179.436 -0.748054 1.6756 0
M  V30 1830 H 177.818 -3.33412 2.13664 0
M  V30 1831 H 178.992 -1.52318 4.34897 0
M  V30 1832 H 177.307 -1.52473 3.8748 0
M  V30 1833 H 179.904 -4.23747 3.26102 0
M  V30 1834 H 180.247 -3.84578 1.59391 0
M  V30 1835 H 180.78 -2.74021 2.8837 0
M  V30 1836 H 177.519 -2.90355 5.87685 0
M  V30 1837 H 177.039 -3.94546 4.51767 0
M  V30 1838 H 178.718 -3.9663 5.11169 0
M  V30 1839 N 178.85 -1.27639 -0.924453 0
M  V30 1840 C 180.096 -1.14336 -1.67497 0
M  V30 1841 C 180.429 0.309465 -1.91718 0
M  V30 1842 O 179.704 1.22608 -1.50989 0
M  V30 1843 C 179.987 -1.93096 -3.0395 0
M  V30 1844 C 179.84 -3.46381 -2.8695 0
M  V30 1845 C 181.159 -1.73798 -4.0433 0
M  V30 1846 H 178.278 -0.416728 -0.607871 0
M  V30 1847 H 180.92 -1.56832 -1.07256 0
M  V30 1848 H 179.07 -1.56982 -3.55372 0
M  V30 1849 H 180.742 -3.92343 -2.42621 0
M  V30 1850 H 178.985 -3.72557 -2.22225 0
M  V30 1851 H 179.656 -3.96735 -3.83804 0
M  V30 1852 H 182.132 -2.05293 -3.61931 0
M  V30 1853 H 181.008 -2.31294 -4.97789 0
M  V30 1854 H 181.269 -0.686725 -4.36734 0
M  V30 1855 N 180.328 1.1314 -1.09713 0
M  V30 1856 C 181.291 2.16831 -0.742751 0
M  V30 1857 C 182.291 1.59159 0.229129 0
M  V30 1858 O 183.481 1.74199 0.00693237 0
M  V30 1859 C 180.613 3.40756 -0.0989168 0
M  V30 1860 H 181.806 2.49695 -1.66109 0
M  V30 1861 H 179.359 1.2802 -0.896699 0
M  V30 1862 H 180.094 3.13485 0.830514 0
M  V30 1863 H 179.879 3.83888 -0.798265 0
M  V30 1864 H 181.369 4.17386 0.133524 0
M  V30 1865 N 181.806 0.884767 1.30421 0
M  V30 1866 C 183.054 0.502112 1.95763 0
M  V30 1867 C 183.375 -0.951815 1.70192 0
M  V30 1868 O 182.645 -1.6692 1.0254 0
M  V30 1869 H 181.225 0.182694 0.724315 0
M  V30 1870 H 183.887 1.1278 1.58955 0
M  V30 1871 H 182.983 0.672188 3.04775 0
M  V30 1872 N 183.284 -1.43765 0.645699 0
M  V30 1873 C 184.512 -2.06253 0.163556 0
M  V30 1874 C 184.927 -1.48352 -1.16778 0
M  V30 1875 O 184.284 -0.611932 -1.71935 0
M  V30 1876 C 184.335 -3.61453 0.0583186 0
M  V30 1877 O 184.056 -4.172 1.33702 0
M  V30 1878 C 185.557 -4.41002 -0.450795 0
M  V30 1879 H 182.777 -0.665413 0.0864077 0
M  V30 1880 H 185.321 -1.84396 0.884222 0
M  V30 1881 H 183.476 -3.82522 -0.612865 0
M  V30 1882 H 183.89 -5.10791 1.19131 0
M  V30 1883 H 185.364 -5.49966 -0.473403 0
M  V30 1884 H 185.841 -4.13488 -1.48068 0
M  V30 1885 H 186.447 -4.24886 0.187637 0
M  V30 1886 N 184.763 -0.387143 -1.52771 0
M  V30 1887 C 185.693 0.440551 -2.29306 0
M  V30 1888 C 186.674 1.06535 -1.32606 0
M  V30 1889 O 187.859 1.07853 -1.61497 0
M  V30 1890 C 184.989 1.56919 -3.09829 0
M  V30 1891 C 183.943 1.07054 -4.14395 0
M  V30 1892 C 183.269 2.29109 -4.83129 0
M  V30 1893 C 184.569 0.140015 -5.22112 0
M  V30 1894 H 186.263 -0.198026 -2.98744 0
M  V30 1895 H 183.809 -0.09668 -1.43675 0
M  V30 1896 H 185.762 2.15503 -3.62128 0
M  V30 1897 H 184.486 2.23532 -2.3812 0
M  V30 1898 H 183.145 0.507247 -3.63074 0
M  V30 1899 H 182.793 2.94227 -4.0797 0
M  V30 1900 H 182.493 1.96406 -5.53804 0
M  V30 1901 H 184.017 2.88339 -5.38231 0
M  V30 1902 H 185.431 0.633978 -5.69784 0
M  V30 1903 H 183.828 -0.0971485 -6.00021 0
M  V30 1904 H 184.898 -0.811711 -4.78058 0
M  V30 1905 N 186.241 1.57166 -0.116904 0
M  V30 1906 C 187.469 1.99473 0.549383 0
M  V30 1907 C 187.884 0.996541 1.60357 0
M  V30 1908 O 187.241 -0.0108731 1.82497 0
M  V30 1909 C 187.292 3.41788 1.17741 0
M  V30 1910 O 187.013 4.37788 0.165362 0
M  V30 1911 C 188.514 3.99216 1.92722 0
M  V30 1912 H 185.734 0.655009 0.145616 0
M  V30 1913 H 188.278 2.03494 -0.202625 0
M  V30 1914 H 186.433 3.38713 1.88021 0
M  V30 1915 H 186.847 5.20806 0.621403 0
M  V30 1916 H 188.321 5.00882 2.31995 0
M  V30 1917 H 188.798 3.3824 2.80161 0
M  V30 1918 H 189.404 4.0583 1.27209 0
M  V30 1919 N 187.719 -0.156864 1.56817 0
M  V30 1920 C 188.667 -1.21319 1.98455 0
M  V30 1921 C 189.661 -1.45025 0.875444 0
M  V30 1922 O 190.867 -1.45435 1.0606 0
M  V30 1923 H 187.242 -0.408142 0.631605 0
M  V30 1924 H 189.213 -0.835244 2.86472 0
M  V30 1925 C 187.962 -2.54148 2.37285 0
M  V30 1926 H 187.285 -2.36733 3.22176 0
M  V30 1927 H 188.725 -3.26712 2.70251 0
M  V30 1928 C 187.184 -3.13967 1.22173 0
M  V30 1929 O 187.714 -3.98357 0.517149 0
M  V30 1930 N 185.92 -2.7327 0.988536 0
M  V30 1931 H 185.467 -2.04744 1.56326 0
M  V30 1932 H 185.425 -3.13628 0.220209 0
M  V30 1933 N 189.197 -1.51736 -0.425897 0
M  V30 1934 C 190.144 -1.73875 -1.51776 0
M  V30 1935 C 191.114 -0.580702 -1.55618 0
M  V30 1936 O 192.299 -0.81641 -1.72451 0
M  V30 1937 C 189.439 -1.88012 -2.89388 0
M  V30 1938 C 188.552 -3.15606 -2.94986 0
M  V30 1939 C 187.687 -3.20271 -4.23793 0
M  V30 1940 C 186.726 -4.42134 -4.23302 0
M  V30 1941 N 185.863 -4.44284 -5.43651 0
M  V30 1942 H 190.703 -2.67071 -1.32201 0
M  V30 1943 H 188.24 -1.32351 -0.642008 0
M  V30 1944 H 190.198 -1.9419 -3.69251 0
M  V30 1945 H 188.828 -0.98213 -3.07496 0
M  V30 1946 H 187.88 -3.18681 -2.07717 0
M  V30 1947 H 189.192 -4.05486 -2.90486 0
M  V30 1948 H 188.346 -3.25428 -5.12036 0
M  V30 1949 H 187.085 -2.28299 -4.30965 0
M  V30 1950 H 186.09 -4.3714 -3.3345 0
M  V30 1951 H 187.315 -5.35382 -4.17783 0
M  V30 1952 H 185.261 -3.55188 -5.51523 0
M  V30 1953 H 185.178 -5.27988 -5.41078 0
M  V30 1954 H 186.446 -4.53649 -6.33895 0
M  V30 1955 N 190.675 0.682077 -1.42076 0
M  V30 1956 C 191.608 1.80666 -1.3941 0
M  V30 1957 C 192.586 1.60518 -0.25939 0
M  V30 1958 O 193.77 1.83088 -0.448456 0
M  V30 1959 C 190.897 3.17556 -1.17796 0
M  V30 1960 C 189.943 3.56468 -2.34164 0
M  V30 1961 S 190.776 3.59729 -3.96681 0
M  V30 1962 C 191.932 4.99323 -3.77395 0
M  V30 1963 H 192.165 1.82652 -2.34575 0
M  V30 1964 H 189.698 0.852062 -1.2876 0
M  V30 1965 H 191.656 3.96575 -1.06012 0
M  V30 1966 H 190.317 3.13164 -0.242279 0
M  V30 1967 H 189.51 4.5595 -2.1477 0
M  V30 1968 H 189.112 2.84792 -2.42425 0
M  V30 1969 H 191.404 5.87202 -3.37935 0
M  V30 1970 H 192.347 5.23763 -4.76527 0
M  V30 1971 H 192.755 4.71498 -3.10403 0
M  V30 1972 N 192.153 1.28127 0.917671 0
M  V30 1973 C 193.116 1.11744 2.00115 0
M  V30 1974 C 194.116 0.0583052 1.60694 0
M  V30 1975 O 195.306 0.303755 1.71531 0
M  V30 1976 C 192.438 0.704862 3.33533 0
M  V30 1977 H 193.631 2.07966 2.16079 0
M  V30 1978 H 191.184 1.11058 1.09981 0
M  V30 1979 H 191.919 -0.258299 3.2327 0
M  V30 1980 H 191.704 1.4699 3.63505 0
M  V30 1981 H 193.194 0.612768 4.1308 0
M  V30 1982 N 193.631 -1.12557 1.10312 0
M  V30 1983 C 195.042 -1.65574 0.862678 0
M  V30 1984 C 195.393 -1.86566 -0.607256 0
M  V30 1985 O 194.518 -1.59121 -1.46662 0
M  V30 1986 C 195.113 -3.00776 1.55947 0
M  V30 1987 C 193.672 -3.50748 1.36576 0
M  V30 1988 C 192.819 -2.25797 1.60968 0
M  V30 1989 H 195.77 -0.963552 1.26101 0
M  V30 1990 H 195.791 -3.67185 0.997753 0
M  V30 1991 H 195.303 -2.85465 2.62928 0
M  V30 1992 H 193.404 -3.71245 0.317531 0
M  V30 1993 H 193.517 -4.30289 2.10686 0
M  V30 1994 H 191.881 -2.32841 1.03234 0
M  V30 1995 H 192.664 -2.13043 2.69198 0
M  V30 1996 N 195.109 -0.891671 -1.2995 0
M  V30 1997 C 196.072 -0.36828 -2.26222 0
M  V30 1998 C 197.072 0.493014 -1.53056 0
M  V30 1999 O 198.262 0.299213 -1.71611 0
M  V30 2000 C 195.394 0.47442 -3.37583 0
M  V30 2001 H 196.587 -1.21844 -2.74033 0
M  V30 2002 H 194.14 -0.669107 -1.41254 0
M  V30 2003 H 194.875 1.34489 -2.95099 0
M  V30 2004 H 194.66 -0.142615 -3.91841 0
M  V30 2005 H 196.15 0.83218 -4.09224 0
M  V30 2006 N 196.587 1.43421 -0.653314 0
M  V30 2007 C 197.517 2.33487 0.0246656 0
M  V30 2008 C 198.498 1.49475 0.811863 0
M  V30 2009 O 199.683 1.78139 0.773322 0
M  V30 2010 C 196.813 3.32841 0.99166 0
M  V30 2011 C 195.767 4.26842 0.314568 0
M  V30 2012 C 195.093 5.16236 1.39302 0
M  V30 2013 C 196.393 5.16243 -0.793095 0
M  V30 2014 H 198.087 2.90427 -0.727481 0
M  V30 2015 H 195.633 1.39649 -0.351287 0
M  V30 2016 H 197.586 3.94747 1.47487 0
M  V30 2017 H 196.31 2.74158 1.77497 0
M  V30 2018 H 194.969 3.663 -0.148199 0
M  V30 2019 H 194.617 4.53891 2.16776 0
M  V30 2020 H 194.317 5.79948 0.945223 0
M  V30 2021 H 195.841 5.81015 1.87759 0
M  V30 2022 H 197.255 5.71958 -0.392039 0
M  V30 2023 H 195.652 5.88676 -1.16536 0
M  V30 2024 H 196.722 4.55927 -1.65103 0
M  V30 2025 N 198.065 0.39524 1.52563 0
M  V30 2026 C 199.481 0.0454682 1.59535 0
M  V30 2027 C 199.681 -1.44056 1.4089 0
M  V30 2028 O 198.737 -2.20579 1.22888 0
M  V30 2029 C 200.05 0.527963 2.96029 0
M  V30 2030 C 201.598 0.484733 3.09224 0
M  V30 2031 C 202.073 0.943512 4.48176 0
M  V30 2032 N 203.564 0.899765 4.54377 0
M  V30 2033 C 204.299 1.22609 5.60138 0
M  V30 2034 N 203.795 1.62319 6.73516 0
M  V30 2035 N 205.588 1.14696 5.50274 0
M  V30 2036 H 197.739 1.36261 1.62931 0
M  V30 2037 H 200.002 0.558887 0.765735 0
M  V30 2038 H 199.708 1.56607 3.14908 0
M  V30 2039 H 199.582 -0.0698056 3.77135 0
M  V30 2040 H 201.969 -0.544298 2.90037 0
M  V30 2041 H 202.05 1.11838 2.30056 0
M  V30 2042 H 201.694 1.9708 4.68104 0
M  V30 2043 H 201.624 0.286817 5.25818 0
M  V30 2044 H 204.115 0.607632 3.72983 0
M  V30 2045 H 204.428 1.85567 7.5019 0
M  V30 2046 H 202.773 1.66211 6.74833 0
M  V30 2047 H 205.964 0.835701 4.6058 0
M  V30 2048 H 206.137 1.40459 6.32594 0
M  V30 2049 N 199.544 -1.57102 0.125237 0
M  V30 2050 C 200.491 -2.15641 -0.822655 0
M  V30 2051 C 201.461 -1.08313 -1.25927 0
M  V30 2052 O 202.646 -1.36251 -1.33567 0
M  V30 2053 C 199.786 -2.76504 -2.06494 0
M  V30 2054 C 198.899 -3.98158 -1.67612 0
M  V30 2055 C 198.034 -4.47088 -2.86854 0
M  V30 2056 C 197.073 -5.6126 -2.44242 0
M  V30 2057 N 196.21 -6.04905 -3.56419 0
M  V30 2058 H 201.05 -2.96313 -0.316625 0
M  V30 2059 H 198.587 -1.46388 -0.144588 0
M  V30 2060 H 200.545 -3.09925 -2.79289 0
M  V30 2061 H 199.175 -1.98512 -2.54545 0
M  V30 2062 H 198.227 -3.70858 -0.846661 0
M  V30 2063 H 199.539 -4.80934 -1.32301 0
M  V30 2064 H 198.693 -4.82451 -3.67867 0
M  V30 2065 H 197.432 -3.63275 -3.25396 0
M  V30 2066 H 196.437 -5.25495 -1.61663 0
M  V30 2067 H 197.662 -6.46843 -2.0681 0
M  V30 2068 H 195.608 -5.24032 -3.94623 0
M  V30 2069 H 195.525 -6.82552 -3.25051 0
M  V30 2070 H 196.793 -6.44907 -4.37853 0
M  V30 2071 N 201.022 0.148545 -1.56898 0
M  V30 2072 C 202.268 0.862694 -1.83536 0
M  V30 2073 C 202.601 1.80889 -0.706604 0
M  V30 2074 O 201.876 1.92328 0.289885 0
M  V30 2075 C 202.159 1.63853 -3.20662 0
M  V30 2076 C 202.012 0.713925 -4.44098 0
M  V30 2077 C 203.331 2.60133 -3.54991 0
M  V30 2078 H 200.45 0.312179 -0.667618 0
M  V30 2079 H 203.092 0.127953 -1.89569 0
M  V30 2080 H 201.242 2.26489 -3.1565 0
M  V30 2081 H 202.914 0.098686 -4.61194 0
M  V30 2082 H 201.157 0.0234019 -4.33794 0
M  V30 2083 H 201.828 1.29278 -5.36648 0
M  V30 2084 H 204.304 2.07616 -3.60603 0
M  V30 2085 H 203.18 3.11468 -4.51972 0
M  V30 2086 H 203.441 3.41417 -2.80868 0
M  V30 2087 N 202.5 1.5196 0.417844 0
M  V30 2088 C 203.73 1.69181 1.18581 0
M  V30 2089 C 204.138 0.397104 1.84986 0
M  V30 2090 O 203.481 -0.636011 1.72339 0
M  V30 2091 C 203.543 2.76497 2.29759 0
M  V30 2092 C 203.207 4.18514 1.83563 0
M  V30 2093 C 204.204 5.02648 1.32821 0
M  V30 2094 C 201.889 4.64708 1.90661 0
M  V30 2095 C 203.883 6.31044 0.897894 0
M  V30 2096 C 201.57 5.93096 1.47241 0
M  V30 2097 C 202.568 6.76093 0.968891 0
M  V30 2098 O 202.256 8.02078 0.540924 0
M  V30 2099 H 201.988 0.570457 0.362705 0
M  V30 2100 H 204.542 1.99249 0.498885 0
M  V30 2101 H 202.772 2.41786 3.01789 0
M  V30 2102 H 204.461 2.82403 2.91553 0
M  V30 2103 H 205.227 4.68154 1.26716 0
M  V30 2104 H 201.106 4.00216 2.28797 0
M  V30 2105 H 204.65 6.95776 0.504192 0
M  V30 2106 H 200.547 6.271 1.53022 0
M  V30 2107 H 201.315 8.15794 0.66502 0
M  V30 2108 N 203.978 -0.674533 1.42435 0
M  V30 2109 C 205.255 -1.4305 1.33402 0
M  V30 2110 C 205.635 -2.11081 -0.0284674 0
M  V30 2111 O 204.983 -2.03257 -1.04397 0
M  V30 2112 C 205.193 -2.43272 2.50239 0
M  V30 2113 C 206.541 -3.07907 2.92367 0
M  V30 2114 O 207.565 -2.53599 2.50132 0
M  V30 2115 O 206.424 -4.0632 3.65467 0
M  V30 2116 H 203.518 -0.638076 0.526106 0
M  V30 2117 H 206.064 -0.703235 1.54443 0
M  V30 2118 H 204.836 -1.91803 3.41068 0
M  V30 2119 H 204.459 -3.23479 2.31186 0
M  V30 2120 N 205.456 -1.28612 -0.910864 0
M  V30 2121 C 206.388 -1.08589 -2.01844 0
M  V30 2122 C 207.401 -0.0367419 -1.62759 0
M  V30 2123 O 208.59 -0.280101 -1.76289 0
M  V30 2124 C 205.69 -0.628626 -3.33019 0
M  V30 2125 C 204.863 -1.75382 -4.00699 0
M  V30 2126 C 203.922 -1.28945 -5.10156 0
M  V30 2127 O 202.948 -1.9922 -5.33198 0
M  V30 2128 N 204.15 -0.154224 -5.80295 0
M  V30 2129 H 206.915 -2.03973 -2.19579 0
M  V30 2130 H 204.476 -1.20403 -1.08234 0
M  V30 2131 H 206.468 -0.301508 -4.03575 0
M  V30 2132 H 205.038 0.232451 -3.11735 0
M  V30 2133 H 204.258 -2.25039 -3.23653 0
M  V30 2134 H 205.546 -2.50854 -4.42662 0
M  V30 2135 H 204.944 0.43194 -5.64049 0
M  V30 2136 H 203.501 0.113599 -6.51701 0
M  V30 2137 N 206.934 1.1197 -1.10907 0
M  V30 2138 C 207.867 2.16998 -0.706192 0
M  V30 2139 C 208.845 1.59903 0.294897 0
M  V30 2140 O 210.029 1.87513 0.192636 0
M  V30 2141 C 207.156 3.38673 -0.0427664 0
M  V30 2142 C 206.202 4.14414 -1.00811 0
M  V30 2143 S 207.035 4.72079 -2.52789 0
M  V30 2144 C 208.191 5.97083 -1.87731 0
M  V30 2145 H 208.424 2.50837 -1.59587 0
M  V30 2146 H 205.957 1.23508 -0.926555 0
M  V30 2147 H 207.915 4.09142 0.333668 0
M  V30 2148 H 206.576 3.03105 0.823788 0
M  V30 2149 H 205.769 5.016 -0.491259 0
M  V30 2150 H 205.371 3.49678 -1.3267 0
M  V30 2151 H 207.663 6.66599 -1.21044 0
M  V30 2152 H 208.606 6.53403 -2.72892 0
M  V30 2153 H 209.014 5.4837 -1.33979 0
M  V30 2154 N 208.412 0.89855 1.29475 0
M  V30 2155 C 209.823 0.572537 1.77705 0
M  V30 2156 C 210.174 -0.911778 1.73727 0
M  V30 2157 O 209.299 -1.71288 1.32247 0
M  V30 2158 C 209.894 1.03252 3.22683 0
M  V30 2159 C 208.453 0.757687 3.68695 0
M  V30 2160 C 207.6 1.20787 2.49612 0
M  V30 2161 H 210.551 1.08139 1.16153 0
M  V30 2162 H 210.572 0.367307 3.78723 0
M  V30 2163 H 210.084 2.11285 3.25546 0
M  V30 2164 H 208.185 -0.310079 3.71308 0
M  V30 2165 H 208.298 1.35476 4.59547 0
M  V30 2166 H 206.662 0.626888 2.46865 0
M  V30 2167 H 207.445 2.29622 2.55203 0
M  V30 2168 N 209.89 -1.43072 0.660911 0
M  V30 2169 C 210.8 -2.34585 -0.0264163 0
M  V30 2170 C 211.816 -1.54316 -0.803898 0
M  V30 2171 O 212.992 -1.86939 -0.749391 0
M  V30 2172 C 210.057 -3.32689 -0.975639 0
M  V30 2173 C 209.118 -4.2886 -0.194236 0
M  V30 2174 C 208.351 -5.22278 -1.09825 0
M  V30 2175 O 208.574 -5.20299 -2.33763 0
M  V30 2176 O 207.508 -5.99228 -0.566513 0
M  V30 2177 H 211.334 -2.94869 0.727034 0
M  V30 2178 H 208.919 -1.43342 0.42111 0
M  V30 2179 H 210.801 -3.92995 -1.52094 0
M  V30 2180 H 209.476 -2.74898 -1.70918 0
M  V30 2181 H 208.383 -3.72011 0.394835 0
M  V30 2182 H 209.716 -4.89655 0.499899 0
M  V30 2183 N 211.368 -0.403325 -1.52352 0
M  V30 2184 C 212.779 0.0675782 -1.86578 0
M  V30 2185 C 213.13 1.44941 -1.32236 0
M  V30 2186 O 212.255 2.06112 -0.659307 0
M  V30 2187 C 212.85 0.129404 -3.38553 0
M  V30 2188 C 211.409 0.544629 -3.72439 0
M  V30 2189 C 210.556 -0.284551 -2.75836 0
M  V30 2190 H 213.507 -0.620631 -1.46061 0
M  V30 2191 H 213.528 0.94581 -3.68558 0
M  V30 2192 H 213.04 -0.87645 -3.78074 0
M  V30 2193 H 211.141 1.55734 -3.38493 0
M  V30 2194 H 211.254 0.293046 -4.78203 0
M  V30 2195 H 209.618 0.252258 -2.53448 0
M  V30 2196 H 210.401 -1.28865 -3.18196 0
M  V30 2197 N 212.846 1.57033 -0.133567 0
M  V30 2198 C 214.262 1.58035 0.222944 0
M  V30 2199 C 214.462 1.14713 1.6566 0
M  V30 2200 O 213.518 0.841218 2.38075 0
M  V30 2201 C 214.831 3.00691 -0.0236116 0
M  V30 2202 C 216.379 3.12973 0.0411512 0
M  V30 2203 C 216.854 4.57654 -0.177899 0
M  V30 2204 N 218.345 4.63033 -0.124365 0
M  V30 2205 C 219.08 5.72771 -0.268553 0
M  V30 2206 N 218.576 6.91206 -0.46972 0
M  V30 2207 N 220.369 5.61718 -0.2071 0
M  V30 2208 H 212.52 1.8349 -1.06981 0
M  V30 2209 H 214.783 0.848677 -0.422436 0
M  V30 2210 H 214.489 3.36726 -1.0153 0
M  V30 2211 H 214.363 3.70614 0.701808 0
M  V30 2212 H 216.75 2.76787 1.02338 0
M  V30 2213 H 216.831 2.45564 -0.716383 0
M  V30 2214 H 216.475 4.94542 -1.15717 0
M  V30 2215 H 216.405 5.23173 0.599797 0
M  V30 2216 H 218.896 3.7789 0.027011 0
M  V30 2217 H 219.209 7.70693 -0.570212 0
M  V30 2218 H 217.554 6.93156 -0.505876 0
M  V30 2219 H 220.745 4.68072 -0.0507986 0
M  V30 2220 H 220.918 6.47195 -0.322909 0
M  V30 2221 N 214.325 -0.140222 1.56975 0
M  V30 2222 C 215.555 -0.865181 1.87612 0
M  V30 2223 C 215.963 -1.74942 0.72055 0
M  V30 2224 O 215.306 -1.80917 -0.318561 0
M  V30 2225 C 215.368 -1.76782 3.13031 0
M  V30 2226 C 215.032 -1.06005 4.44536 0
M  V30 2227 C 216.029 -0.410768 5.18275 0
M  V30 2228 C 213.714 -1.04754 4.91255 0
M  V30 2229 C 215.708 0.241572 6.36942 0
M  V30 2230 C 213.395 -0.391394 6.09845 0
M  V30 2231 C 214.393 0.252029 6.82535 0
M  V30 2232 O 214.081 0.897757 7.98871 0
M  V30 2233 H 213.813 -0.255188 0.625983 0
M  V30 2234 H 216.367 -0.135653 2.04952 0
M  V30 2235 H 214.597 -2.53846 2.91718 0
M  V30 2236 H 216.286 -2.36533 3.29859 0
M  V30 2237 H 217.052 -0.412195 4.83245 0
M  V30 2238 H 212.931 -1.53777 4.34596 0
M  V30 2239 H 216.475 0.744375 6.93617 0
M  V30 2240 H 212.372 -0.387656 6.44335 0
M  V30 2241 H 213.14 0.800102 8.1458 0
M  V30 2242 N 215.803 -1.52179 -0.40978 0
M  V30 2243 C 217.049 -1.66453 -1.15851 0
M  V30 2244 C 217.382 -0.392972 -1.90182 0
M  V30 2245 O 216.657 0.608579 -1.84734 0
M  V30 2246 C 216.94 -2.88612 -2.15349 0
M  V30 2247 C 216.793 -4.25815 -1.44918 0
M  V30 2248 C 218.112 -3.06294 -3.16026 0
M  V30 2249 H 215.231 -0.60575 -0.419805 0
M  V30 2250 H 217.873 -1.84732 -0.444314 0
M  V30 2251 H 216.023 -2.73158 -2.76255 0
M  V30 2252 H 217.695 -4.52995 -0.871365 0
M  V30 2253 H 215.938 -4.27247 -0.751159 0
M  V30 2254 H 216.609 -5.07337 -2.17516 0
M  V30 2255 H 219.085 -3.20641 -2.65195 0
M  V30 2256 H 217.961 -3.93283 -3.8291 0
M  V30 2257 H 218.222 -2.19579 -3.83715 0
M  V30 2258 N 217.281 0.66697 -1.42791 0
M  V30 2259 C 218.527 1.4291 -1.43891 0
M  V30 2260 C 218.86 1.94114 -0.0578972 0
M  V30 2261 O 218.135 1.71414 0.91911 0
M  V30 2262 C 218.418 2.62049 -2.46987 0
M  V30 2263 C 218.271 2.16426 -3.94309 0
M  V30 2264 C 219.59 3.64266 -2.46978 0
M  V30 2265 H 216.709 0.518306 -0.523954 0
M  V30 2266 H 219.351 0.757321 -1.74255 0
M  V30 2267 H 217.501 3.19361 -2.21225 0
M  V30 2268 H 219.173 1.64221 -4.31079 0
M  V30 2269 H 217.416 1.47925 -4.078 0
M  V30 2270 H 218.087 3.02038 -4.62036 0
M  V30 2271 H 220.563 3.16686 -2.69906 0
M  V30 2272 H 219.439 4.45196 -3.21079 0
M  V30 2273 H 219.7 4.15927 -1.49857 0
M  V30 2274 N 218.759 1.29093 0.90403 0
M  V30 2275 C 219.984 1.19809 1.69294 0
M  V30 2276 C 220.409 -0.238481 1.86582 0
M  V30 2277 O 219.767 -1.1723 1.383 0
M  V30 2278 C 219.815 1.91202 3.05736 0
M  V30 2279 O 218.919 1.22611 3.93752 0
M  V30 2280 H 218.26 0.415385 0.518027 0
M  V30 2281 H 220.79 1.70586 1.12967 0
M  V30 2282 H 220.8 1.99487 3.55906 0
M  V30 2283 H 219.475 2.95692 2.92471 0
M  V30 2284 H 218.052 1.22554 3.52186 0
M  V30 2285 N 220.237 -1.11381 1.11499 0
M  V30 2286 C 221.17 -2.16621 0.71769 0
M  V30 2287 C 222.148 -1.60058 -0.286413 0
M  V30 2288 O 223.332 -1.87613 -0.182689 0
M  V30 2289 C 220.459 -3.38646 0.0607265 0
M  V30 2290 C 219.505 -4.13874 1.03008 0
M  V30 2291 S 220.338 -4.70731 2.55289 0
M  V30 2292 C 221.494 -5.96079 1.90895 0
M  V30 2293 H 221.727 -2.49987 1.60915 0
M  V30 2294 H 219.26 -1.23015 0.933092 0
M  V30 2295 H 221.218 -4.09313 -0.311965 0
M  V30 2296 H 219.879 -3.03537 -0.807702 0
M  V30 2297 H 219.072 -5.01333 0.517853 0
M  V30 2298 H 218.674 -3.4897 1.34522 0
M  V30 2299 H 220.966 -6.65948 1.24577 0
M  V30 2300 H 221.909 -6.51946 2.76354 0
M  V30 2301 H 222.317 -5.47652 1.36885 0
M  V30 2302 N 221.715 -0.905404 -1.28997 0
M  V30 2303 C 222.963 -0.533192 -1.9494 0
M  V30 2304 C 223.284 0.924618 -1.71685 0
M  V30 2305 O 222.554 1.65268 -1.05183 0
M  V30 2306 H 221.134 -0.194194 -0.721317 0
M  V30 2307 H 223.796 -1.15294 -1.57141 0
M  V30 2308 H 222.892 -0.72059 -3.03667 0
M  V30 2309 N 223.193 1.4272 -0.668489 0
M  V30 2310 C 224.418 2.06484 -0.194758 0
M  V30 2311 C 224.843 1.49862 1.13679 0
M  V30 2312 O 224.201 0.614582 1.70565 0
M  V30 2313 C 224.249 3.60353 -0.133546 0
M  V30 2314 O 223.353 4.02464 0.899806 0
M  V30 2315 H 222.694 0.656137 -0.10188 0
M  V30 2316 H 225.224 1.82964 -0.915722 0
M  V30 2317 H 225.234 4.07976 0.0447041 0
M  V30 2318 H 223.909 4.00938 -1.1055 0
M  V30 2319 H 222.486 3.66402 0.693109 0
M  V30 2320 N 224.671 0.411399 1.52136 0
M  V30 2321 C 225.911 -0.163143 2.03748 0
M  V30 2322 C 226.275 -1.42187 1.29022 0
M  V30 2323 O 227.476 -2.075 1.70872 0
M  V30 2324 C 225.747 -0.402651 3.55125 0
M  V30 2325 S 227.306 -0.944315 4.28519 0
M  V30 2326 H 224.124 -0.0439833 0.709638 0
M  V30 2327 H 226.726 0.56484 1.87163 0
M  V30 2328 H 225.43 0.520212 4.0709 0
M  V30 2329 H 224.961 -1.15844 3.75957 0
M  V30 2330 H 226.976 -2.22463 4.43536 0
M  V30 2331 N 226.149 -1.5696 0.141893 0
M  V30 2332 C 227.112 -2.15316 -0.785587 0
M  V30 2333 C 228.112 -1.09366 -1.1788 0
M  V30 2334 O 229.302 -1.35031 -1.10056 0
M  V30 2335 C 226.434 -2.71211 -2.06537 0
M  V30 2336 H 227.627 -2.98608 -0.278041 0
M  V30 2337 H 225.18 -1.5593 -0.107519 0
M  V30 2338 H 225.915 -1.91571 -2.6167 0
M  V30 2339 H 225.7 -3.4872 -1.79268 0
M  V30 2340 H 227.19 -3.16189 -2.72789 0
M  V30 2341 N 227.627 0.131896 -1.57047 0
M  V30 2342 C 228.575 1.18146 -2.0036 0
M  V30 2343 C 229.569 1.43614 -0.898406 0
M  V30 2344 O 230.775 1.43729 -1.08361 0
M  V30 2345 H 227.15 0.398042 -0.638018 0
M  V30 2346 H 229.121 0.789564 -2.87765 0
M  V30 2347 C 227.87 2.50341 -2.41298 0
M  V30 2348 H 227.193 2.31578 -3.25902 0
M  V30 2349 H 228.633 3.22371 -2.75414 0
M  V30 2350 C 227.092 3.11984 -1.27153 0
M  V30 2351 O 227.622 3.97484 -0.580459 0
M  V30 2352 N 225.828 2.71662 -1.03189 0
M  V30 2353 H 225.375 2.02231 -1.59564 0
M  V30 2354 H 225.333 3.13238 -0.270077 0
M  V30 2355 N 229.106 1.52395 0.401703 0
M  V30 2356 C 230.354 1.66488 1.14569 0
M  V30 2357 C 230.675 0.400897 1.90835 0
M  V30 2358 O 229.945 -0.584415 1.8698 0
M  V30 2359 H 228.525 0.613672 0.425929 0
M  V30 2360 H 231.187 1.89464 0.457093 0
M  V30 2361 H 230.283 2.50942 1.85566 0
M  V30 2362 N 230.584 -0.659388 1.43143 0
M  V30 2363 C 231.832 -1.41654 1.44147 0
M  V30 2364 C 232.153 -1.94893 0.0645739 0
M  V30 2365 O 231.423 -1.74044 -0.899198 0
M  V30 2366 H 230.003 -0.525708 0.530697 0
M  V30 2367 H 232.665 -0.778097 1.78694 0
M  V30 2368 H 231.761 -2.26195 2.1504 0
M  V30 2369 N 232.062 -1.29571 -0.897171 0
M  V30 2370 C 233.31 -1.17456 -1.64464 0
M  V30 2371 C 233.631 0.273698 -1.9307 0
M  V30 2372 O 232.901 1.18684 -1.55855 0
M  V30 2373 H 231.481 -0.431706 -0.609622 0
M  V30 2374 H 234.143 -1.62531 -1.07562 0
M  V30 2375 H 233.239 -1.72648 -2.59998 0
M  V30 2376 N 233.54 1.10788 -1.12088 0
M  V30 2377 C 234.77 1.86191 -0.895351 0
M  V30 2378 C 235.178 1.80763 0.558702 0
M  V30 2379 O 234.521 1.19188 1.39785 0
M  V30 2380 C 234.583 3.35659 -1.28737 0
M  V30 2381 C 234.247 3.64849 -2.75198 0
M  V30 2382 C 235.244 3.61757 -3.734 0
M  V30 2383 C 232.929 3.93641 -3.12013 0
M  V30 2384 C 234.923 3.87045 -5.06434 0
M  V30 2385 C 232.61 4.18585 -4.4523 0
M  V30 2386 C 233.608 4.15277 -5.42249 0
M  V30 2387 O 233.296 4.3959 -6.73065 0
M  V30 2388 H 233.028 0.595425 -0.32007 0
M  V30 2389 H 235.582 1.40992 -1.49367 0
M  V30 2390 H 233.812 3.81497 -0.63224 0
M  V30 2391 H 235.501 3.92441 -1.03656 0
M  V30 2392 H 236.267 3.39557 -3.46303 0
M  V30 2393 H 232.146 3.95348 -2.37109 0
M  V30 2394 H 235.69 3.84378 -5.82151 0
M  V30 2395 H 231.587 4.40264 -4.72057 0
M  V30 2396 H 232.355 4.57123 -6.78956 0
M  V30 2397 N 235.018 0.912232 1.28515 0
M  V30 2398 C 236.248 0.559604 1.98877 0
M  V30 2399 C 236.656 -0.863113 1.68366 0
M  V30 2400 O 235.999 -1.58304 0.931969 0
M  V30 2401 C 236.061 0.68703 3.52874 0
M  V30 2402 C 235.725 2.07901 4.06972 0
M  V30 2403 C 236.722 3.05157 4.20922 0
M  V30 2404 C 234.407 2.39178 4.417 0
M  V30 2405 C 236.401 4.31806 4.68852 0
M  V30 2406 C 234.088 3.66068 4.89324 0
M  V30 2407 C 235.086 4.62195 5.02856 0
M  V30 2408 O 234.774 5.86829 5.49442 0
M  V30 2409 H 234.506 0.212191 0.641834 0
M  V30 2410 H 237.06 1.22712 1.64715 0
M  V30 2411 H 235.29 -0.0375486 3.86682 0
M  V30 2412 H 236.979 0.341727 4.04459 0
M  V30 2413 H 237.745 2.82311 3.94367 0
M  V30 2414 H 233.624 1.65109 4.30418 0
M  V30 2415 H 237.168 5.06842 4.79329 0
M  V30 2416 H 233.065 3.88739 5.15318 0
M  V30 2417 H 233.833 5.89597 5.6773 0
M  V30 2418 N 236.496 -1.42363 0.676048 0
M  V30 2419 C 237.446 -2.27987 -0.0242903 0
M  V30 2420 C 238.43 -1.41153 -0.772319 0
M  V30 2421 O 239.622 -1.64592 -0.651025 0
M  V30 2422 C 236.751 -3.29195 -0.973953 0
M  V30 2423 C 235.837 -4.23512 -0.223202 0
M  V30 2424 N 236.228 -4.99865 0.772589 0
M  V30 2425 C 234.526 -4.43606 -0.461469 0
M  V30 2426 C 235.227 -5.68757 1.22027 0
M  V30 2427 N 234.203 -5.40811 0.549975 0
M  V30 2428 H 238.005 -2.84445 0.73949 0
M  V30 2429 H 235.519 -1.54341 0.50522 0
M  V30 2430 H 237.516 -3.89339 -1.49067 0
M  V30 2431 H 236.176 -2.74298 -1.73755 0
M  V30 2432 H 237.187 -5.04921 1.15217 0
M  V30 2433 H 233.864 -3.99749 -1.20446 0
M  V30 2434 H 235.254 -6.40007 2.0455 0
M  V30 2435 N 237.974 -0.419461 -1.51915 0
M  V30 2436 C 239.204 0.151915 -2.06041 0
M  V30 2437 C 239.612 1.38539 -1.28855 0
M  V30 2438 O 238.955 1.80592 -0.336463 0
M  V30 2439 C 239.017 0.557119 -3.55157 0
M  V30 2440 C 238.681 -0.567054 -4.53468 0
M  V30 2441 C 239.678 -1.43379 -4.99738 0
M  V30 2442 C 237.363 -0.742693 -4.96779 0
M  V30 2443 C 239.357 -2.46102 -5.87973 0
M  V30 2444 C 237.044 -1.77322 -5.84808 0
M  V30 2445 C 238.042 -2.63078 -6.30301 0
M  V30 2446 O 237.73 -3.64364 -7.16585 0
M  V30 2447 H 237.462 0.0193293 -0.675724 0
M  V30 2448 H 240.016 -0.592073 -1.96682 0
M  V30 2449 H 238.246 1.35355 -3.62238 0
M  V30 2450 H 239.935 1.05759 -3.9188 0
M  V30 2451 H 240.701 -1.30954 -4.66986 0
M  V30 2452 H 236.58 -0.0848307 -4.60922 0
M  V30 2453 H 240.124 -3.13071 -6.23404 0
M  V30 2454 H 236.021 -1.89773 -6.16974 0
M  V30 2455 H 236.789 -3.60731 -7.34721 0
M  V30 2456 N 239.452 1.56882 -0.150215 0
M  V30 2457 C 240.677 2.01027 0.510184 0
M  V30 2458 C 241.102 1.02966 1.57415 0
M  V30 2459 O 240.46 0.00590158 1.81299 0
M  V30 2460 C 240.508 3.43899 1.08472 0
M  V30 2461 O 239.612 3.4885 2.19948 0
M  V30 2462 H 238.953 0.652233 0.124451 0
M  V30 2463 H 241.483 2.03093 -0.247894 0
M  V30 2464 H 241.493 3.82766 1.41259 0
M  V30 2465 H 240.168 4.14776 0.305582 0
M  V30 2466 H 238.745 3.21827 1.88366 0
M  V30 2467 N 240.93 -0.123565 1.57115 0
M  V30 2468 C 242.16 -0.845233 1.88519 0
M  V30 2469 C 242.568 -1.74168 0.739064 0
M  V30 2470 O 241.911 -1.81244 -0.299355 0
M  V30 2471 C 241.973 -1.73452 3.14888 0
M  V30 2472 C 241.637 -1.01285 4.45635 0
M  V30 2473 C 242.634 -0.355774 5.18681 0
M  V30 2474 C 240.319 -0.99538 4.92339 0
M  V30 2475 C 242.313 0.309114 6.3665 0
M  V30 2476 C 240 -0.32669 6.10226 0
M  V30 2477 C 240.998 0.324406 6.82229 0
M  V30 2478 O 240.686 0.982437 7.97874 0
M  V30 2479 H 240.418 -0.248534 0.628655 0
M  V30 2480 H 242.972 -0.113907 2.05084 0
M  V30 2481 H 241.202 -2.50737 2.94394 0
M  V30 2482 H 242.891 -2.33021 3.32349 0
M  V30 2483 H 243.657 -0.360918 4.83655 0
M  V30 2484 H 239.536 -1.49159 4.36202 0
M  V30 2485 H 243.08 0.8179 6.92789 0
M  V30 2486 H 238.977 -0.319294 6.4471 0
M  V30 2487 H 239.745 0.886454 8.13686 0
M  V30 2488 N 242.408 -1.52605 -0.393616 0
M  V30 2489 C 243.633 -1.71592 -1.16495 0
M  V30 2490 C 244.058 -0.43133 -1.83088 0
M  V30 2491 O 243.416 0.612523 -1.7064 0
M  V30 2492 C 243.464 -2.86318 -2.19213 0
M  V30 2493 O 242.568 -2.52969 -3.257 0
M  V30 2494 H 241.909 -0.570734 -0.33935 0
M  V30 2495 H 244.439 -1.99377 -0.459324 0
M  V30 2496 H 244.449 -3.1168 -2.63286 0
M  V30 2497 H 243.124 -3.79511 -1.7013 0
M  V30 2498 H 241.701 -2.38332 -2.86797 0
M  V30 2499 N 243.887 0.651787 -1.4349 0
M  V30 2500 C 245.133 1.41376 -1.45398 0
M  V30 2501 C 245.466 1.94041 -0.0784823 0
M  V30 2502 O 244.741 1.72379 0.900878 0
M  V30 2503 C 245.024 2.59414 -2.49752 0
M  V30 2504 C 244.877 2.12232 -3.96582 0
M  V30 2505 C 246.196 3.61626 -2.50827 0
M  V30 2506 H 243.315 0.512719 -0.529422 0
M  V30 2507 H 245.957 0.738796 -1.75048 0
M  V30 2508 H 244.107 3.16997 -2.246 0
M  V30 2509 H 245.779 1.59639 -4.32797 0
M  V30 2510 H 244.022 1.43592 -4.09346 0
M  V30 2511 H 244.693 2.9712 -4.65214 0
M  V30 2512 H 247.169 3.13805 -2.7325 0
M  V30 2513 H 246.045 4.41766 -3.25783 0
M  V30 2514 H 246.306 4.14314 -1.5426 0
M  V30 2515 N 245.365 1.30045 0.890287 0
M  V30 2516 C 246.611 1.18737 1.64406 0
M  V30 2517 C 246.944 -0.258525 1.92472 0
M  V30 2518 O 246.219 -1.18562 1.54186 0
M  V30 2519 C 246.502 2.01087 2.98724 0
M  V30 2520 C 246.355 3.53867 2.77665 0
M  V30 2521 C 247.674 1.84457 3.9958 0
M  V30 2522 H 244.793 0.432698 0.596608 0
M  V30 2523 H 247.435 1.5962 1.0306 0
M  V30 2524 H 245.585 1.66349 3.51084 0
M  V30 2525 H 247.257 3.98637 2.32133 0
M  V30 2526 H 245.5 3.78318 2.12269 0
M  V30 2527 H 246.171 4.06772 3.7315 0
M  V30 2528 H 248.647 2.14817 3.56361 0
M  V30 2529 H 247.523 2.44411 4.91482 0
M  V30 2530 H 247.784 0.802276 4.3476 0
M  V30 2531 N 246.843 -1.10192 1.12674 0
M  V30 2532 C 248.259 -1.34235 0.863317 0
M  V30 2533 C 248.459 -1.95062 -0.505277 0
M  V30 2534 O 247.515 -2.19192 -1.25345 0
M  V30 2535 C 248.828 -2.2616 1.98172 0
M  V30 2536 C 250.376 -2.3969 2.0129 0
M  V30 2537 C 250.851 -3.34946 3.1237 0
M  V30 2538 N 252.342 -3.42515 3.11829 0
M  V30 2539 C 253.077 -4.16199 3.94419 0
M  V30 2540 N 252.573 -4.92747 4.87004 0
M  V30 2541 N 254.366 -4.11843 3.82547 0
M  V30 2542 H 246.517 -0.690798 2.00853 0
M  V30 2543 H 248.78 -0.366774 0.874174 0
M  V30 2544 H 248.486 -1.8868 2.96804 0
M  V30 2545 H 248.36 -3.26488 1.88906 0
M  V30 2546 H 250.747 -2.76438 1.03276 0
M  V30 2547 H 250.828 -1.39169 2.14629 0
M  V30 2548 H 250.472 -2.98923 4.10619 0
M  V30 2549 H 250.402 -4.35353 2.96269 0
M  V30 2550 H 252.893 -2.87926 2.44759 0
M  V30 2551 H 253.206 -5.46376 5.46528 0
M  V30 2552 H 251.551 -4.91862 4.91016 0
M  V30 2553 H 254.742 -3.51136 3.0955 0
M  V30 2554 H 254.915 -4.69007 4.47142 0
M  V30 2555 N 248.321 -0.919034 -1.28029 0
M  V30 2556 C 249.569 -0.553838 -1.94363 0
M  V30 2557 C 249.89 0.906357 -1.72656 0
M  V30 2558 O 249.16 1.64143 -1.0693 0
M  V30 2559 H 247.74 -0.201834 -0.719216 0
M  V30 2560 H 250.402 -1.16954 -1.55909 0
M  V30 2561 H 249.498 -0.752758 -3.02886 0
M  V30 2562 N 249.799 1.42003 -0.683588 0
M  V30 2563 C 251.039 2.03282 -0.213513 0
M  V30 2564 C 251.403 1.52924 1.16097 0
M  V30 2565 O 252.604 2.06048 1.7262 0
M  V30 2566 C 250.875 3.56483 -0.255856 0
M  V30 2567 S 252.434 4.3857 0.14193 0
M  V30 2568 H 249.252 0.705659 -0.0869853 0
M  V30 2569 H 251.854 1.73619 -0.8987 0
M  V30 2570 H 250.558 3.90631 -1.25841 0
M  V30 2571 H 250.089 3.90831 0.448875 0
M  V30 2572 H 252.104 4.76828 1.37295 0
M  V30 2573 N 251.277 0.427512 1.51691 0
M  V30 2574 C 252.554 -0.201684 1.94557 0
M  V30 2575 C 252.934 -1.60981 1.36559 0
M  V30 2576 O 252.282 -2.21814 0.548702 0
M  V30 2577 C 252.492 -0.189394 3.48486 0
M  V30 2578 C 253.84 -0.39978 4.22714 0
M  V30 2579 O 254.864 -0.267945 3.55191 0
M  V30 2580 O 253.723 -0.661249 5.42485 0
M  V30 2581 H 250.817 -0.135261 0.815864 0
M  V30 2582 H 253.363 0.484782 1.62628 0
M  V30 2583 H 252.135 0.795431 3.8313 0
M  V30 2584 H 251.758 -0.919187 3.86829 0
M  V30 2585 N 252.755 -1.56801 0.158532 0
M  V30 2586 C 254.171 -1.5837 -0.197774 0
M  V30 2587 C 254.371 -1.17334 -1.63814 0
M  V30 2588 O 253.427 -0.878988 -2.36707 0
M  V30 2589 C 254.74 -3.00615 0.0714459 0
M  V30 2590 C 256.288 -3.12999 0.00864533 0
M  V30 2591 C 256.763 -4.57313 0.250685 0
M  V30 2592 N 258.254 -4.62777 0.198014 0
M  V30 2593 C 258.989 -5.72271 0.359642 0
M  V30 2594 N 258.485 -6.90371 0.579625 0
M  V30 2595 N 260.278 -5.61318 0.296438 0
M  V30 2596 H 252.429 -1.81765 1.09887 0
M  V30 2597 H 254.692 -0.841849 0.435884 0
M  V30 2598 H 254.398 -3.35068 1.06874 0
M  V30 2599 H 254.272 -3.71683 -0.642757 0
M  V30 2600 H 256.659 -2.7838 -0.979217 0
M  V30 2601 H 256.74 -2.44393 0.755359 0
M  V30 2602 H 256.384 -4.92639 1.2357 0
M  V30 2603 H 256.314 -5.24061 -0.516489 0
M  V30 2604 H 258.805 -3.77885 0.0331115 0
M  V30 2605 H 259.118 -7.69689 0.69275 0
M  V30 2606 H 257.463 -6.92264 0.616087 0
M  V30 2607 H 260.654 -4.67932 0.125258 0
M  V30 2608 H 260.827 -6.46599 0.425831 0
M  V30 2609 N 254.233 0.115231 -1.57178 0
M  V30 2610 C 255.482 0.820945 -1.84237 0
M  V30 2611 C 255.795 1.80866 -0.744761 0
M  V30 2612 O 257.001 2.56083 -0.901871 0
M  V30 2613 C 255.457 1.51072 -3.26658 0
M  V30 2614 C 255.065 0.563795 -4.44438 0
M  V30 2615 C 256.809 2.20134 -3.62962 0
M  V30 2616 C 254.716 1.25701 -5.77887 0
M  V30 2617 H 253.646 0.310328 -0.687177 0
M  V30 2618 H 256.297 0.0737134 -1.83352 0
M  V30 2619 H 254.679 2.30471 -3.22024 0
M  V30 2620 H 255.853 -0.197247 -4.60378 0
M  V30 2621 H 254.168 -0.0200638 -4.16395 0
M  V30 2622 H 256.765 2.72696 -4.59936 0
M  V30 2623 H 257.108 2.98107 -2.90582 0
M  V30 2624 H 257.641 1.47619 -3.69396 0
M  V30 2625 H 254.38 0.518493 -6.53446 0
M  V30 2626 H 253.9 1.98997 -5.65827 0
M  V30 2627 H 255.579 1.78915 -6.2177 0
M  V30 2628 N 255.711 1.52812 0.385517 0
M  V30 2629 C 256.957 1.68275 1.13188 0
M  V30 2630 C 257.29 0.423179 1.89533 0
M  V30 2631 O 256.565 -0.579113 1.85679 0
M  V30 2632 C 256.848 2.92001 2.1073 0
M  V30 2633 C 256.701 4.28067 1.38125 0
M  V30 2634 C 258.02 3.11283 3.11113 0
M  V30 2635 H 255.139 0.612352 0.410115 0
M  V30 2636 H 257.781 1.85415 0.414869 0
M  V30 2637 H 255.931 2.77519 2.71874 0
M  V30 2638 H 257.603 4.54324 0.799187 0
M  V30 2639 H 255.846 4.28388 0.683092 0
M  V30 2640 H 256.517 5.10733 2.09417 0
M  V30 2641 H 258.993 3.2482 2.6006 0
M  V30 2642 H 257.869 3.99325 3.76605 0
M  V30 2643 H 258.13 2.25656 3.80173 0
M  V30 2644 N 257.189 -0.644168 1.43834 0
M  V30 2645 C 258.6 -1.22554 1.40845 0
M  V30 2646 C 258.951 -1.9585 0.117115 0
M  V30 2647 O 258.076 -2.01734 -0.783086 0
M  V30 2648 C 258.671 -2.22907 2.55143 0
M  V30 2649 C 257.23 -2.76501 2.5539 0
M  V30 2650 C 256.377 -1.51287 2.32396 0
M  V30 2651 H 259.328 -0.43563 1.52604 0
M  V30 2652 H 259.349 -3.05259 2.2715 0
M  V30 2653 H 258.861 -1.69533 3.49114 0
M  V30 2654 H 256.962 -3.33914 1.65324 0
M  V30 2655 H 257.075 -3.23429 3.53455 0
M  V30 2656 H 255.439 -1.78957 1.81236 0
M  V30 2657 H 256.222 -0.998336 3.28463 0
M  V30 2658 N 258.668 -1.30515 -0.883378 0
M  V30 2659 C 259.914 -1.19607 -1.63774 0
M  V30 2660 C 260.247 0.248314 -1.92606 0
M  V30 2661 O 259.522 1.17742 -1.54813 0
M  V30 2662 C 259.805 -2.02669 -2.97653 0
M  V30 2663 C 259.658 -3.55335 -2.75784 0
M  V30 2664 C 260.977 -1.86573 -3.98596 0
M  V30 2665 H 258.096 -0.435856 -0.594305 0
M  V30 2666 H 260.738 -1.60165 -1.02212 0
M  V30 2667 H 258.888 -1.68208 -3.50197 0
M  V30 2668 H 260.56 -3.99863 -2.30016 0
M  V30 2669 H 258.803 -3.79438 -2.1026 0
M  V30 2670 H 259.474 -4.08745 -3.70988 0
M  V30 2671 H 261.95 -2.16703 -3.55217 0
M  V30 2672 H 260.826 -2.47014 -4.90179 0
M  V30 2673 H 261.087 -0.825321 -4.34328 0
M  V30 2674 N 260.146 1.09593 -1.13257 0
M  V30 2675 C 261.423 1.78293 -0.804432 0
M  V30 2676 C 261.803 1.99004 0.70431 0
M  V30 2677 O 261.151 1.59007 1.641 0
M  V30 2678 C 261.361 3.10707 -1.5894 0
M  V30 2679 C 262.709 3.85443 -1.78099 0
M  V30 2680 O 263.733 3.20454 -1.55525 0
M  V30 2681 O 262.592 5.02108 -2.15753 0
M  V30 2682 H 259.686 0.773156 -0.293528 0
M  V30 2683 H 262.232 1.16164 -1.23709 0
M  V30 2684 H 261.004 2.91106 -2.61482 0
M  V30 2685 H 260.627 3.80558 -1.15157 0
M  V30 2686 N 261.624 0.925811 1.2754 0
M  V30 2687 C 262.873 0.561084 1.93739 0
M  V30 2688 C 263.186 -0.901685 1.73577 0
M  V30 2689 O 264.392 -1.37511 2.34101 0
M  V30 2690 C 262.848 0.952668 3.47062 0
M  V30 2691 C 262.456 2.43599 3.75983 0
M  V30 2692 C 264.2 0.659103 4.19352 0
M  V30 2693 C 262.107 2.76707 5.22673 0
M  V30 2694 H 261.037 0.206122 0.725279 0
M  V30 2695 H 263.688 1.12637 1.44863 0
M  V30 2696 H 262.07 0.316053 3.94737 0
M  V30 2697 H 263.244 3.12035 3.39073 0
M  V30 2698 H 261.559 2.70125 3.16893 0
M  V30 2699 H 264.156 0.882985 5.27359 0
M  V30 2700 H 264.499 -0.403607 4.14339 0
M  V30 2701 H 265.032 1.25473 3.77494 0
M  V30 2702 H 261.771 3.8188 5.32774 0
M  V30 2703 H 261.291 2.12919 5.60737 0
M  V30 2704 H 262.97 2.6435 5.90532 0
M  V30 2705 N 263.102 -1.41638 0.69111 0
M  V30 2706 C 264.332 -2.0533 0.228758 0
M  V30 2707 C 264.74 -1.52089 -1.12541 0
M  V30 2708 O 264.083 -0.662145 -1.71351 0
M  V30 2709 C 264.145 -3.59349 0.10407 0
M  V30 2710 C 263.809 -4.35362 1.38956 0
M  V30 2711 C 264.806 -4.64942 2.32648 0
M  V30 2712 C 262.491 -4.74714 1.64169 0
M  V30 2713 C 264.485 -5.32828 3.49818 0
M  V30 2714 C 262.172 -5.42338 2.81625 0
M  V30 2715 C 263.17 -5.71322 3.74273 0
M  V30 2716 O 262.858 -6.37554 4.89673 0
M  V30 2717 H 262.59 -0.667796 0.104997 0
M  V30 2718 H 265.144 -1.82477 0.942938 0
M  V30 2719 H 263.374 -3.80924 -0.665839 0
M  V30 2720 H 265.063 -4.04633 -0.320519 0
M  V30 2721 H 265.829 -4.35025 2.14425 0
M  V30 2722 H 261.708 -4.51538 0.929202 0
M  V30 2723 H 265.252 -5.55368 4.22152 0
M  V30 2724 H 261.149 -5.71673 2.99768 0
M  V30 2725 H 261.917 -6.56049 4.8943 0
M  V30 2726 N 264.58 -0.43555 -1.51462 0
M  V30 2727 C 265.829 0.133007 -2.01261 0
M  V30 2728 C 266.142 1.43942 -1.32439 0
M  V30 2729 O 267.348 2.09081 -1.73198 0
M  V30 2730 C 265.804 0.287581 -3.58749 0
M  V30 2731 C 265.412 -1.00829 -4.36506 0
M  V30 2732 C 267.156 0.810004 -4.167 0
M  V30 2733 C 265.063 -0.819454 -5.85695 0
M  V30 2734 H 263.993 0.0534822 -0.752101 0
M  V30 2735 H 266.644 -0.565038 -1.74584 0
M  V30 2736 H 265.026 1.04859 -3.81865 0
M  V30 2737 H 266.2 -1.77749 -4.25138 0
M  V30 2738 H 264.515 -1.45911 -3.89999 0
M  V30 2739 H 267.112 0.967743 -5.2587 0
M  V30 2740 H 267.455 1.79196 -3.75758 0
M  V30 2741 H 267.988 0.107357 -3.97655 0
M  V30 2742 H 264.727 -1.77374 -6.31046 0
M  V30 2743 H 264.247 -0.0900208 -5.99732 0
M  V30 2744 H 265.926 -0.471949 -6.45276 0
M  V30 2745 N 266.058 1.56714 -0.166846 0
M  V30 2746 C 267.469 1.83378 0.350646 0
M  V30 2747 C 267.82 1.08646 1.63372 0
M  V30 2748 O 266.945 0.338058 2.13743 0
M  V30 2749 C 267.54 3.32643 0.642963 0
M  V30 2750 C 266.099 3.59818 1.10491 0
M  V30 2751 C 265.246 2.76954 0.138411 0
M  V30 2752 H 268.197 1.53803 -0.391193 0
M  V30 2753 H 268.218 3.49878 1.49551 0
M  V30 2754 H 267.73 3.87007 -0.291055 0
M  V30 2755 H 265.831 3.1086 2.05418 0
M  V30 2756 H 265.944 4.68178 1.01716 0
M  V30 2757 H 264.308 2.4666 0.634911 0
M  V30 2758 H 265.091 3.34097 -0.789549 0
M  V30 2759 N 267.536 -0.106894 1.57237 0
M  V30 2760 C 268.784 -0.810921 1.85117 0
M  V30 2761 C 269.105 -1.7984 0.753827 0
M  V30 2762 O 268.375 -1.94649 -0.221056 0
M  V30 2763 H 266.955 -0.302466 0.683025 0
M  V30 2764 H 269.617 -0.0913324 1.94686 0
M  V30 2765 H 268.713 -1.34875 2.81452 0
M  V30 2766 N 269.014 -1.53014 -0.377408 0
M  V30 2767 C 270.254 -1.70318 -1.1301 0
M  V30 2768 C 270.618 -0.439538 -1.86901 0
M  V30 2769 O 271.819 -0.489095 -2.64313 0
M  V30 2770 C 270.09 -2.91125 -2.07319 0
M  V30 2771 S 271.649 -3.29075 -2.90268 0
M  V30 2772 H 268.467 -0.599426 -0.382374 0
M  V30 2773 H 271.069 -1.91089 -0.412933 0
M  V30 2774 H 269.773 -3.81303 -1.51777 0
M  V30 2775 H 269.304 -2.7272 -2.83526 0
M  V30 2776 H 271.319 -2.80165 -4.09539 0
M  V30 2777 N 270.492 0.636531 -1.44174 0
M  V30 2778 C 271.903 1.21806 -1.41493 0
M  V30 2779 C 272.254 1.95785 -0.1275 0
M  V30 2780 O 271.379 2.02147 0.772376 0
M  V30 2781 C 271.974 2.21551 -2.56321 0
M  V30 2782 C 270.533 2.75143 -2.56853 0
M  V30 2783 C 269.68 1.50052 -2.33195 0
M  V30 2784 H 272.631 0.427531 -1.52833 0
M  V30 2785 H 272.652 3.0405 -2.28765 0
M  V30 2786 H 272.164 1.67679 -3.50008 0
M  V30 2787 H 270.265 3.33033 -1.67093 0
M  V30 2788 H 270.378 3.2155 -3.55165 0
M  V30 2789 H 268.742 1.77993 -1.82183 0
M  V30 2790 H 269.525 0.980903 -3.28988 0
M  V30 2791 N 271.97 1.30982 0.876444 0
M  V30 2792 C 273.381 1.18277 1.44456 0
M  V30 2793 C 273.732 -0.213265 1.95037 0
M  V30 2794 O 272.857 -1.11057 1.85729 0
M  V30 2795 C 273.452 2.1411 2.62569 0
M  V30 2796 C 272.011 2.05358 3.15444 0
M  V30 2797 C 271.158 2.03706 1.88146 0
M  V30 2798 H 274.109 1.43127 0.685584 0
M  V30 2799 H 274.13 1.72692 3.39054 0
M  V30 2800 H 273.642 3.15706 2.25724 0
M  V30 2801 H 271.743 1.06934 3.56926 0
M  V30 2802 H 271.856 2.94156 3.78166 0
M  V30 2803 H 270.22 1.48629 2.06837 0
M  V30 2804 H 271.003 3.07047 1.53547 0
M  V30 2805 N 273.449 -1.08991 1.13837 0
M  V30 2806 C 274.677 -1.85011 0.926202 0
M  V30 2807 C 275.092 -1.8135 -0.525127 0
M  V30 2808 O 274.449 -1.21287 -1.36366 0
M  V30 2809 C 274.5 -3.32802 1.41155 0
M  V30 2810 O 274.221 -3.36444 2.80601 0
M  V30 2811 C 275.722 -4.25649 1.23847 0
M  V30 2812 H 272.942 -0.584249 0.32999 0
M  V30 2813 H 275.486 -1.37688 1.51202 0
M  V30 2814 H 273.641 -3.77536 0.868631 0
M  V30 2815 H 274.055 -4.28657 3.02248 0
M  V30 2816 H 275.529 -5.27485 1.62675 0
M  V30 2817 H 276.006 -4.38828 0.18065 0
M  V30 2818 H 276.612 -3.86735 1.76964 0
M  V30 2819 N 274.927 -0.932562 -1.27047 0
M  V30 2820 C 275.89 -0.440064 -2.24936 0
M  V30 2821 C 276.89 0.444071 -1.54547 0
M  V30 2822 O 278.08 0.244465 -1.72476 0
M  V30 2823 C 275.212 0.36678 -3.38921 0
M  V30 2824 H 276.405 -1.305 -2.70018 0
M  V30 2825 H 273.958 -0.713707 -1.39054 0
M  V30 2826 H 274.693 1.25033 -2.99228 0
M  V30 2827 H 274.478 -0.267204 -3.91188 0
M  V30 2828 H 275.968 0.701567 -4.11665 0
M  V30 2829 N 276.405 1.4127 -0.698611 0
M  V30 2830 C 277.315 2.34573 -0.0357891 0
M  V30 2831 C 278.331 1.56393 0.762701 0
M  V30 2832 O 279.507 1.8886 0.699564 0
M  V30 2833 C 276.572 3.35159 0.887089 0
M  V30 2834 C 275.633 4.29225 0.0804634 0
M  V30 2835 C 274.866 5.25006 0.959387 0
M  V30 2836 O 275.089 5.26314 2.19886 0
M  V30 2837 O 274.023 6.00519 0.407439 0
M  V30 2838 H 277.849 2.92838 -0.804957 0
M  V30 2839 H 275.434 1.42175 -0.458966 0
M  V30 2840 H 277.316 3.9689 1.41621 0
M  V30 2841 H 275.991 2.79333 1.6357 0
M  V30 2842 H 274.898 3.70833 -0.493328 0
M  V30 2843 H 276.231 4.88157 -0.629547 0
M  V30 2844 N 277.883 0.443576 1.51229 0
M  V30 2845 C 278.846 -0.353132 2.26463 0
M  V30 2846 C 279.846 -0.944338 1.3015 0
M  V30 2847 O 281.036 -0.817813 1.5381 0
M  V30 2848 C 278.168 -1.50023 3.06114 0
M  V30 2849 H 279.361 0.3063 2.98332 0
M  V30 2850 H 276.914 0.196902 1.55055 0
M  V30 2851 H 277.649 -2.19553 2.38677 0
M  V30 2852 H 277.434 -1.08241 3.76864 0
M  V30 2853 H 278.924 -2.06296 3.63087 0
M  V30 2854 N 279.361 -1.56624 0.175154 0
M  V30 2855 C 280.291 -2.21155 -0.749195 0
M  V30 2856 C 281.272 -1.16836 -1.23626 0
M  V30 2857 O 282.457 -1.45277 -1.28873 0
M  V30 2858 C 279.587 -2.8553 -1.97711 0
M  V30 2859 C 278.541 -3.95921 -1.62575 0
M  V30 2860 C 277.867 -4.47365 -2.92864 0
M  V30 2861 C 279.167 -5.15323 -0.850838 0
M  V30 2862 H 280.861 -2.98653 -0.211295 0
M  V30 2863 H 278.407 -1.43651 -0.100188 0
M  V30 2864 H 280.36 -3.2935 -2.62881 0
M  V30 2865 H 279.084 -2.05406 -2.53921 0
M  V30 2866 H 277.743 -3.52762 -0.997719 0
M  V30 2867 H 277.391 -3.64027 -3.47122 0
M  V30 2868 H 277.091 -5.21839 -2.70106 0
M  V30 2869 H 278.615 -4.93873 -3.59056 0
M  V30 2870 H 280.029 -5.55812 -1.40521 0
M  V30 2871 H 278.426 -5.95739 -0.722154 0
M  V30 2872 H 279.496 -4.84661 0.152082 0
M  V30 2873 N 280.839 0.0985539 -1.57292 0
M  V30 2874 C 281.769 1.12064 -2.04851 0
M  V30 2875 C 282.75 1.41981 -0.936767 0
M  V30 2876 O 283.935 1.52071 -1.20781 0
M  V30 2877 C 281.065 2.44144 -2.47004 0
M  V30 2878 C 280.019 2.28643 -3.6181 0
M  V30 2879 C 279.345 3.65869 -3.89929 0
M  V30 2880 C 280.645 1.72986 -4.92822 0
M  V30 2881 H 282.339 0.724979 -2.9049 0
M  V30 2882 H 279.885 0.34729 -1.39749 0
M  V30 2883 H 281.838 3.15914 -2.78884 0
M  V30 2884 H 280.562 2.85639 -1.5836 0
M  V30 2885 H 279.221 1.59318 -3.30172 0
M  V30 2886 H 278.869 4.04885 -2.98458 0
M  V30 2887 H 278.569 3.56344 -4.67218 0
M  V30 2888 H 280.093 4.39112 -4.2428 0
M  V30 2889 H 281.507 2.34593 -5.23105 0
M  V30 2890 H 279.904 1.74229 -5.74251 0
M  V30 2891 H 280.974 0.689007 -4.7998 0
M  V30 2892 N 282.317 1.53212 0.369288 0
M  V30 2893 C 283.547 1.72868 1.13139 0
M  V30 2894 C 283.955 0.455754 1.83629 0
M  V30 2895 O 283.298 -0.580861 1.74275 0
M  V30 2896 C 283.36 2.83667 2.20847 0
M  V30 2897 C 283.024 4.24142 1.70155 0
M  V30 2898 C 284.021 5.06619 1.16763 0
M  V30 2899 C 281.706 4.70539 1.7578 0
M  V30 2900 C 283.7 6.33581 0.696678 0
M  V30 2901 C 281.387 5.97481 1.28297 0
M  V30 2902 C 282.385 6.78833 0.753307 0
M  V30 2903 O 282.073 8.03393 0.285475 0
M  V30 2904 H 281.805 0.581707 0.344373 0
M  V30 2905 H 284.359 2.00736 0.435243 0
M  V30 2906 H 282.589 2.51265 2.93944 0
M  V30 2907 H 284.278 2.91536 2.82421 0
M  V30 2908 H 285.044 4.71948 1.11758 0
M  V30 2909 H 280.923 4.07293 2.15949 0
M  V30 2910 H 284.467 6.97027 0.282581 0
M  V30 2911 H 280.364 6.31651 1.32994 0
M  V30 2912 H 281.132 8.17497 0.405145 0
M  V30 2913 N 283.795 -0.628877 1.44509 0
M  V30 2914 C 285.043 -1.38565 1.4712 0
M  V30 2915 C 285.364 -1.94712 0.105899 0
M  V30 2916 O 284.634 -1.75912 -0.862079 0
M  V30 2917 H 283.214 -0.514333 0.541729 0
M  V30 2918 H 285.876 -0.740018 1.80305 0
M  V30 2919 H 284.972 -2.21583 2.19789 0
M  V30 2920 N 285.273 -1.31445 -0.869486 0
M  V30 2921 C 286.522 -1.20517 -1.61736 0
M  V30 2922 C 286.835 0.235341 -1.94179 0
M  V30 2923 O 288.041 0.466312 -2.67465 0
M  V30 2924 C 286.497 -2.10982 -2.91573 0
M  V30 2925 C 286.105 -3.60032 -2.66611 0
M  V30 2926 C 287.849 -2.08856 -3.69567 0
M  V30 2927 C 285.756 -4.42503 -3.92358 0
M  V30 2928 H 284.686 -0.447493 -0.606849 0
M  V30 2929 H 287.337 -1.56303 -0.96133 0
M  V30 2930 H 285.719 -1.68095 -3.58553 0
M  V30 2931 H 286.893 -4.11167 -2.08035 0
M  V30 2932 H 285.208 -3.64139 -2.0197 0
M  V30 2933 H 287.805 -2.67716 -4.62852 0
M  V30 2934 H 288.148 -1.07582 -4.02159 0
M  V30 2935 H 288.681 -2.49945 -3.09471 0
M  V30 2936 H 285.42 -5.44533 -3.64916 0
M  V30 2937 H 284.94 -3.96125 -4.50383 0
M  V30 2938 H 286.619 -4.54741 -4.60238 0
M  V30 2939 N 286.751 1.08385 -1.14413 0
M  V30 2940 C 287.681 2.17321 -0.854044 0
M  V30 2941 C 288.662 1.69024 0.191049 0
M  V30 2942 O 289.847 1.94141 0.0476779 0
M  V30 2943 C 286.977 3.45719 -0.330983 0
M  V30 2944 C 285.931 4.07409 -1.31155 0
M  V30 2945 C 285.257 5.30762 -0.64778 0
M  V30 2946 C 286.557 4.48665 -2.67388 0
M  V30 2947 H 288.251 2.41845 -1.76498 0
M  V30 2948 H 285.797 1.16233 -0.850051 0
M  V30 2949 H 287.75 4.21241 -0.115645 0
M  V30 2950 H 286.474 3.2075 0.615381 0
M  V30 2951 H 285.133 3.33919 -1.51306 0
M  V30 2952 H 284.781 5.02078 0.304398 0
M  V30 2953 H 284.481 5.72992 -1.30207 0
M  V30 2954 H 286.005 6.08998 -0.441972 0
M  V30 2955 H 287.419 5.15364 -2.51143 0
M  V30 2956 H 285.816 5.01814 -3.29093 0
M  V30 2957 H 286.886 3.60543 -3.24248 0
M  V30 2958 N 288.23 0.939286 1.26551 0
M  V30 2959 C 289.162 0.404704 2.25599 0
M  V30 2960 C 290.175 -0.470983 1.55838 0
M  V30 2961 O 291.364 -0.281734 1.76263 0
M  V30 2962 C 288.464 -0.43764 3.36062 0
M  V30 2963 C 287.637 0.421449 4.35365 0
M  V30 2964 C 286.696 -0.36015 5.24966 0
M  V30 2965 O 285.722 0.236167 5.6871 0
M  V30 2966 N 286.924 -1.65715 5.56344 0
M  V30 2967 H 289.689 1.25618 2.72103 0
M  V30 2968 H 287.25 0.807963 1.40298 0
M  V30 2969 H 289.242 -0.967866 3.92956 0
M  V30 2970 H 287.812 -1.18991 2.89067 0
M  V30 2971 H 287.032 1.1329 3.7757 0
M  V30 2972 H 288.32 1.00835 4.98708 0
M  V30 2973 H 287.718 -2.16378 5.22682 0
M  V30 2974 H 286.275 -2.13366 6.15888 0
M  V30 2975 N 289.708 -1.40897 0.706093 0
M  V30 2976 C 290.638 -2.33418 0.0620085 0
M  V30 2977 C 291.619 -1.52385 -0.755827 0
M  V30 2978 O 292.804 -1.80886 -0.706674 0
M  V30 2979 C 289.934 -3.36293 -0.867445 0
M  V30 2980 C 288.888 -4.27716 -0.155932 0
M  V30 2981 C 288.214 -5.2105 -1.20046 0
M  V30 2982 C 289.514 -5.12944 0.984149 0
M  V30 2983 H 291.208 -2.87527 0.83477 0
M  V30 2984 H 288.754 -1.38249 0.402875 0
M  V30 2985 H 290.707 -3.99949 -1.32735 0
M  V30 2986 H 289.431 -2.80556 -1.67199 0
M  V30 2987 H 288.09 -3.65498 0.284047 0
M  V30 2988 H 287.738 -4.61624 -1.99781 0
M  V30 2989 H 287.438 -5.83056 -0.729328 0
M  V30 2990 H 288.962 -5.87584 -1.66066 0
M  V30 2991 H 290.376 -5.70109 0.604048 0
M  V30 2992 H 288.773 -5.83945 1.38304 0
M  V30 2993 H 289.843 -4.49485 1.81911 0
M  V30 2994 N 291.186 -0.45159 -1.50991 0
M  V30 2995 C 292.118 0.388634 -2.25881 0
M  V30 2996 C 293.131 0.974041 -1.30446 0
M  V30 2997 O 294.32 0.865758 -1.56099 0
M  V30 2998 C 291.42 1.5571 -3.01011 0
M  V30 2999 C 290.593 1.08801 -4.23652 0
M  V30 3000 C 289.652 2.12825 -4.8124 0
M  V30 3001 O 288.678 1.71678 -5.42693 0
M  V30 3002 N 289.88 3.45453 -4.66522 0
M  V30 3003 H 292.645 -0.25329 -2.98628 0
M  V30 3004 H 290.206 -0.281268 -1.59438 0
M  V30 3005 H 292.198 2.24952 -3.3642 0
M  V30 3006 H 290.768 2.10409 -2.31186 0
M  V30 3007 H 289.988 0.22215 -3.93574 0
M  V30 3008 H 291.276 0.752213 -5.03209 0
M  V30 3009 H 290.674 3.81605 -4.17605 0
M  V30 3010 H 289.231 4.10549 -5.06254 0
M  V30 3011 N 292.664 1.56529 -0.183458 0
M  V30 3012 C 294.08 1.58664 0.172554 0
M  V30 3013 C 294.28 1.19925 1.61926 0
M  V30 3014 O 293.336 0.916534 2.35278 0
M  V30 3015 C 294.649 3.00463 -0.119262 0
M  V30 3016 C 296.197 3.12945 -0.0584396 0
M  V30 3017 C 296.672 4.56857 -0.323408 0
M  V30 3018 N 298.163 4.62403 -0.271612 0
M  V30 3019 C 298.898 5.71626 -0.450639 0
M  V30 3020 N 298.394 6.89362 -0.689384 0
M  V30 3021 N 300.187 5.60775 -0.385701 0
M  V30 3022 H 292.338 1.79994 -1.12765 0
M  V30 3023 H 294.601 0.834808 -0.449222 0
M  V30 3024 H 294.307 3.33326 -1.12192 0
M  V30 3025 H 294.181 3.72659 0.583544 0
M  V30 3026 H 296.568 2.79902 0.934805 0
M  V30 3027 H 296.649 2.4316 -0.794144 0
M  V30 3028 H 296.293 4.9061 -1.31392 0
M  V30 3029 H 296.223 5.24816 0.43305 0
M  V30 3030 H 298.714 3.77785 -0.0932256 0
M  V30 3031 H 299.027 7.68489 -0.815113 0
M  V30 3032 H 297.372 6.91196 -0.726142 0
M  V30 3033 H 300.563 4.67674 -0.199687 0
M  V30 3034 H 300.736 6.4584 -0.528646 0
M  V30 3035 N 294.142 -0.090211 1.57342 0
M  V30 3036 C 295.089 -1.10909 2.02405 0
M  V30 3037 C 296.059 -1.39523 0.901252 0
M  V30 3038 O 297.244 -1.50903 1.1676 0
M  V30 3039 C 294.384 -2.42277 2.45755 0
M  V30 3040 C 293.497 -2.20352 3.71576 0
M  V30 3041 C 292.632 -3.45154 4.03785 0
M  V30 3042 C 291.671 -3.18512 5.22701 0
M  V30 3043 N 290.808 -4.35593 5.50639 0
M  V30 3044 H 295.648 -0.71782 2.89225 0
M  V30 3045 H 293.185 -0.342901 1.43048 0
M  V30 3046 H 295.143 -3.18951 2.68935 0
M  V30 3047 H 293.773 -2.79242 1.61938 0
M  V30 3048 H 292.825 -1.34458 3.55844 0
M  V30 3049 H 294.137 -1.96661 4.58395 0
M  V30 3050 H 293.291 -4.30233 4.27767 0
M  V30 3051 H 292.03 -3.71904 3.15498 0
M  V30 3052 H 291.035 -2.31827 4.98534 0
M  V30 3053 H 292.26 -2.93103 6.12591 0
M  V30 3054 H 290.206 -4.6241 4.6531 0
M  V30 3055 H 290.123 -4.1511 6.31838 0
M  V30 3056 H 291.391 -5.21723 5.7916 0
M  V30 3057 N 295.62 -1.53406 -0.361157 0
M  V30 3058 C 296.869 -1.69022 -1.10066 0
M  V30 3059 C 297.182 -0.450838 -1.90333 0
M  V30 3060 O 298.388 -0.487617 -2.67085 0
M  V30 3061 C 296.844 -2.98812 -2.00598 0
M  V30 3062 C 296.452 -4.30027 -1.25621 0
M  V30 3063 C 298.196 -3.23795 -2.74513 0
M  V30 3064 C 296.103 -5.50903 -2.1508 0
M  V30 3065 H 295.033 -0.629776 -0.414606 0
M  V30 3066 H 297.684 -1.79907 -0.361348 0
M  V30 3067 H 296.066 -2.8174 -2.78278 0
M  V30 3068 H 297.24 -4.57745 -0.529739 0
M  V30 3069 H 295.555 -4.11522 -0.635496 0
M  V30 3070 H 298.152 -4.11289 -3.41681 0
M  V30 3071 H 298.495 -2.40045 -3.40123 0
M  V30 3072 H 299.028 -3.41561 -2.03914 0
M  V30 3073 H 295.767 -6.37143 -1.54041 0
M  V30 3074 H 295.287 -5.27459 -2.85565 0
M  V30 3075 H 296.966 -5.85865 -2.74538 0
M  V30 3076 N 297.098 0.621204 -1.44841 0
M  V30 3077 C 298.045 1.73267 -1.5247 0
M  V30 3078 C 299.015 1.6189 -0.371611 0
M  V30 3079 O 300.2 1.81668 -0.58321 0
M  V30 3080 C 297.34 3.11545 -1.48438 0
M  V30 3081 C 296.453 3.33827 -2.74196 0
M  V30 3082 C 295.588 4.62133 -2.61929 0
M  V30 3083 C 294.627 4.77627 -3.82804 0
M  V30 3084 N 293.764 5.97219 -3.69153 0
M  V30 3085 H 298.604 1.66082 -2.47428 0
M  V30 3086 H 296.141 0.810026 -1.22788 0
M  V30 3087 H 298.099 3.91528 -1.4409 0
M  V30 3088 H 296.729 3.1772 -0.570402 0
M  V30 3089 H 295.781 2.47715 -2.88689 0
M  V30 3090 H 297.093 3.41153 -3.6389 0
M  V30 3091 H 296.247 5.50291 -2.5547 0
M  V30 3092 H 294.986 4.57182 -1.69811 0
M  V30 3093 H 293.991 3.87896 -3.89637 0
M  V30 3094 H 295.216 4.84385 -4.75971 0
M  V30 3095 H 293.162 5.93339 -2.79794 0
M  V30 3096 H 293.079 6.05644 -4.52472 0
M  V30 3097 H 294.347 6.87912 -3.66603 0
M  V30 3098 N 298.576 1.31904 0.862503 0
M  V30 3099 C 299.992 1.10724 1.14945 0
M  V30 3100 C 300.192 -0.117421 2.01158 0
M  V30 3101 O 299.248 -0.804595 2.39338 0
M  V30 3102 C 300.561 2.38267 1.83437 0
M  V30 3103 C 302.109 2.43949 1.96106 0
M  V30 3104 C 302.584 3.71394 2.68013 0
M  V30 3105 N 304.075 3.72331 2.75543 0
M  V30 3106 C 304.81 4.67641 3.31812 0
M  V30 3107 N 304.306 5.73313 3.88953 0
M  V30 3108 N 306.099 4.5515 3.29841 0
M  V30 3109 H 298.25 2.10436 0.288191 0
M  V30 3110 H 300.513 0.928705 0.190292 0
M  V30 3111 H 300.219 3.27759 1.27542 0
M  V30 3112 H 300.093 2.48633 2.83657 0
M  V30 3113 H 302.48 1.54922 2.51164 0
M  V30 3114 H 302.561 2.37543 0.949059 0
M  V30 3115 H 302.205 4.60791 2.13621 0
M  V30 3116 H 302.135 3.75069 3.69636 0
M  V30 3117 H 304.626 2.95947 2.34997 0
M  V30 3118 H 304.939 6.42107 4.30022 0
M  V30 3119 H 303.284 5.77077 3.87308 0
M  V30 3120 H 306.475 3.71766 2.84443 0
M  V30 3121 H 306.648 5.29604 3.73394 0
M  V30 3122 N 300.054 -1.07777 1.14986 0
M  V30 3123 C 300.964 -2.18404 0.856546 0
M  V30 3124 C 301.98 -1.73211 -0.165485 0
M  V30 3125 O 303.156 -2.01399 0.00755219 0
M  V30 3126 C 300.221 -3.44977 0.34526 0
M  V30 3127 C 299.282 -4.0476 1.43065 0
M  V30 3128 C 298.515 -5.25291 0.943663 0
M  V30 3129 O 298.738 -5.70004 -0.212426 0
M  V30 3130 O 297.672 -5.76638 1.72547 0
M  V30 3131 H 301.498 -2.45978 1.78125 0
M  V30 3132 H 299.083 -1.17033 0.928631 0
M  V30 3133 H 300.965 -4.21348 0.0663671 0
M  V30 3134 H 299.64 -3.18965 -0.551631 0
M  V30 3135 H 298.547 -3.29949 1.76309 0
M  V30 3136 H 299.88 -4.35035 2.30229 0
M  V30 3137 N 301.532 -0.945985 -1.26051 0
M  V30 3138 C 302.948 -0.649045 -1.45807 0
M  V30 3139 C 303.148 0.796158 -1.85104 0
M  V30 3140 O 302.204 1.57233 -1.97571 0
M  V30 3141 C 303.517 -1.61458 -2.53677 0
M  V30 3142 C 305.065 -1.62481 -2.67524 0
M  V30 3143 C 305.54 -2.57776 -3.7857 0
M  V30 3144 N 307.031 -2.5609 -3.85969 0
M  V30 3145 C 307.766 -3.26508 -4.7136 0
M  V30 3146 N 307.262 -4.0637 -5.61102 0
M  V30 3147 N 309.055 -3.15437 -4.65248 0
M  V30 3148 H 301.206 -1.88005 -0.988328 0
M  V30 3149 H 303.469 -0.808198 -0.4955 0
M  V30 3150 H 303.175 -2.64644 -2.31638 0
M  V30 3151 H 303.049 -1.37036 -3.51427 0
M  V30 3152 H 305.436 -0.600167 -2.88933 0
M  V30 3153 H 305.517 -1.90958 -1.70202 0
M  V30 3154 H 305.161 -3.60361 -3.57913 0
M  V30 3155 H 305.091 -2.26587 -4.75359 0
M  V30 3156 H 307.582 -1.98105 -3.21812 0
M  V30 3157 H 307.895 -4.57042 -6.23164 0
M  V30 3158 H 306.24 -4.10469 -5.60839 0
M  V30 3159 H 309.431 -2.52525 -3.94143 0
M  V30 3160 H 309.604 -3.70584 -5.31575 0
M  V30 3161 N 303.011 1.40521 -0.713556 0
M  V30 3162 C 304.427 1.54839 -0.386907 0
M  V30 3163 C 304.627 1.68532 1.1045 0
M  V30 3164 O 303.683 1.67377 1.89053 0
M  V30 3165 C 304.996 2.77792 -1.15118 0
M  V30 3166 C 306.544 2.91607 -1.13729 0
M  V30 3167 C 307.019 4.1747 -1.88368 0
M  V30 3168 N 308.51 4.24466 -1.85427 0
M  V30 3169 C 309.245 5.20755 -2.40004 0
M  V30 3170 N 308.741 6.22965 -3.03129 0
M  V30 3171 N 310.534 5.1282 -2.30158 0
M  V30 3172 H 302.685 1.29879 -1.68063 0
M  V30 3173 H 304.948 0.627896 -0.710247 0
M  V30 3174 H 304.654 2.73944 -2.20561 0
M  V30 3175 H 304.528 3.6984 -0.741477 0
M  V30 3176 H 306.915 2.94959 -0.0910608 0
M  V30 3177 H 306.996 2.00682 -1.5862 0
M  V30 3178 H 306.64 4.1488 -2.9298 0
M  V30 3179 H 306.57 5.074 -1.40898 0
M  V30 3180 H 309.061 3.51241 -1.3942 0
M  V30 3181 H 309.374 6.92859 -3.42295 0
M  V30 3182 H 307.719 6.23415 -3.07212 0
M  V30 3183 H 310.91 4.31899 -1.80501 0
M  V30 3184 H 311.083 5.87689 -2.72993 0
M  V30 3185 N 304.489 0.459591 1.5075 0
M  V30 3186 C 305.419 -0.330644 2.31147 0
M  V30 3187 C 306.4 -1.00087 1.37538 0
M  V30 3188 O 307.585 -1.00025 1.66459 0
M  V30 3189 C 304.715 -1.41958 3.16962 0
M  V30 3190 C 303.669 -0.871608 4.19031 0
M  V30 3191 C 302.995 -2.05797 4.9351 0
M  V30 3192 C 304.295 0.109251 5.22186 0
M  V30 3193 H 305.989 0.340336 2.97459 0
M  V30 3194 H 303.535 0.165119 1.4305 0
M  V30 3195 H 305.488 -1.9798 3.71997 0
M  V30 3196 H 304.212 -2.11917 2.48513 0
M  V30 3197 H 302.871 -0.333442 3.6508 0
M  V30 3198 H 302.519 -2.74427 4.21544 0
M  V30 3199 H 302.219 -1.6976 5.62544 0
M  V30 3200 H 303.743 -2.62331 5.51375 0
M  V30 3201 H 305.157 -0.361405 5.7216 0
M  V30 3202 H 303.554 0.383316 5.98875 0
M  V30 3203 H 304.624 1.03887 4.73641 0
M  V30 3204 N 305.967 -1.56429 0.191757 0
M  V30 3205 C 306.899 -2.16154 -0.762245 0
M  V30 3206 C 307.912 -1.12247 -1.17917 0
M  V30 3207 O 309.101 -1.39353 -1.11548 0
M  V30 3208 C 306.201 -2.70606 -2.04024 0
M  V30 3209 C 305.374 -3.99381 -1.78364 0
M  V30 3210 C 304.433 -4.38692 -2.90578 0
M  V30 3211 O 303.459 -5.06179 -2.6033 0
M  V30 3212 N 304.661 -4.01922 -4.18854 0
M  V30 3213 H 307.426 -2.98643 -0.251526 0
M  V30 3214 H 304.987 -1.61897 0.00967373 0
M  V30 3215 H 306.979 -2.93891 -2.78227 0
M  V30 3216 H 305.549 -1.9259 -2.46227 0
M  V30 3217 H 304.769 -3.84262 -0.879581 0
M  V30 3218 H 306.057 -4.83445 -1.58614 0
M  V30 3219 H 305.455 -3.47631 -4.46283 0
M  V30 3220 H 304.012 -4.30165 -4.89695 0
M  V30 3221 N 307.445 0.0818655 -1.57387 0
M  V30 3222 C 308.694 0.781681 -1.85937 0
M  V30 3223 C 309.007 1.79246 -0.782957 0
M  V30 3224 O 310.213 2.54112 -0.955987 0
M  V30 3225 C 308.669 1.44109 -3.29789 0
M  V30 3226 C 308.277 0.469396 -4.45534 0
M  V30 3227 C 310.021 2.12386 -3.67549 0
M  V30 3228 C 307.928 1.13415 -5.80423 0
M  V30 3229 H 306.858 0.295682 -0.693605 0
M  V30 3230 H 309.509 0.0348051 -1.83467 0
M  V30 3231 H 307.891 2.23588 -3.2684 0
M  V30 3232 H 309.065 -0.294856 -4.59856 0
M  V30 3233 H 307.38 -0.108383 -4.16259 0
M  V30 3234 H 309.977 2.62878 -4.65617 0
M  V30 3235 H 310.32 2.91877 -2.96839 0
M  V30 3236 H 310.853 1.39751 -3.72444 0
M  V30 3237 H 307.592 0.379771 -6.54399 0
M  V30 3238 H 307.112 1.8695 -5.69921 0
M  V30 3239 H 308.791 1.65686 -6.25426 0
M  V30 3240 N 308.923 1.53595 0.353017 0
M  V30 3241 C 310.169 1.71581 1.09232 0
M  V30 3242 C 310.524 0.468328 1.86613 0
M  V30 3243 O 309.817 -0.538911 1.83865 0
M  V30 3244 C 310.011 2.91313 2.07054 0
M  V30 3245 C 309.84 4.27585 1.39287 0
M  V30 3246 C 308.61 4.92233 1.1417 0
M  V30 3247 C 310.808 5.07656 0.824005 0
M  V30 3248 N 308.79 6.124 0.428841 0
M  V30 3249 C 310.161 6.19531 0.241195 0
M  V30 3250 C 312.216 4.92609 0.723922 0
M  V30 3251 C 310.919 7.18002 -0.431952 0
M  V30 3252 C 312.945 5.91365 0.0645334 0
M  V30 3253 C 312.307 7.02571 -0.507347 0
M  V30 3254 H 308.406 0.680987 0.384422 0
M  V30 3255 H 310.99 1.91013 0.377096 0
M  V30 3256 H 309.161 2.73398 2.75877 0
M  V30 3257 H 310.893 2.98062 2.73753 0
M  V30 3258 H 307.648 4.51612 1.42631 0
M  V30 3259 H 308.072 6.76944 0.0874131 0
M  V30 3260 H 312.714 4.06808 1.15181 0
M  V30 3261 H 310.432 8.03384 -0.871758 0
M  V30 3262 H 314.018 5.81799 -0.0121469 0
M  V30 3263 H 312.898 7.77675 -1.0095 0
M  V30 3264 N 310.401 -0.613514 1.45168 0
M  V30 3265 C 311.631 -1.39743 1.52169 0
M  V30 3266 C 312.039 -1.88596 0.151086 0
M  V30 3267 O 311.382 -1.6251 -0.856521 0
M  V30 3268 C 311.444 -2.64035 2.43979 0
M  V30 3269 C 311.108 -2.36861 3.90827 0
M  V30 3270 C 312.105 -1.97591 4.80889 0
M  V30 3271 C 309.79 -2.49956 4.35692 0
M  V30 3272 C 311.784 -1.71768 6.1382 0
M  V30 3273 C 309.471 -2.23747 5.68665 0
M  V30 3274 C 310.469 -1.84714 6.57548 0
M  V30 3275 O 310.157 -1.58809 7.88058 0
M  V30 3276 H 309.889 -0.434382 0.517966 0
M  V30 3277 H 312.443 -0.75587 1.90986 0
M  V30 3278 H 310.673 -3.3089 2.00122 0
M  V30 3279 H 312.362 -3.26069 2.41731 0
M  V30 3280 H 313.128 -1.87015 4.47493 0
M  V30 3281 H 309.007 -2.79305 3.66756 0
M  V30 3282 H 312.551 -1.41227 6.83155 0
M  V30 3283 H 308.448 -2.33938 6.01617 0
M  V30 3284 H 309.216 -1.7291 8.00028 0
M  V30 3285 N 311.879 -1.3236 -0.855495 0
M  V30 3286 C 313.295 -1.11332 -1.14356 0
M  V30 3287 C 313.495 0.106751 -2.01217 0
M  V30 3288 O 312.551 0.791891 -2.39761 0
M  V30 3289 C 313.864 -2.39237 -1.82171 0
M  V30 3290 C 315.412 -2.44986 -1.9481 0
M  V30 3291 C 315.887 -3.7281 -2.66039 0
M  V30 3292 N 317.378 -3.73787 -2.73565 0
M  V30 3293 C 318.113 -4.69394 -3.29327 0
M  V30 3294 N 317.609 -5.75367 -3.85907 0
M  V30 3295 N 319.402 -4.56893 -3.27423 0
M  V30 3296 H 311.553 -2.10586 -0.277027 0
M  V30 3297 H 313.816 -0.929701 -0.185364 0
M  V30 3298 H 313.522 -3.28431 -1.25802 0
M  V30 3299 H 313.396 -2.50134 -2.82335 0
M  V30 3300 H 315.783 -1.56252 -2.50338 0
M  V30 3301 H 315.864 -2.38043 -0.936448 0
M  V30 3302 H 315.508 -4.61918 -2.11174 0
M  V30 3303 H 315.438 -3.77024 -3.67642 0
M  V30 3304 H 317.929 -2.97189 -2.33424 0
M  V30 3305 H 318.242 -6.44378 -4.26611 0
M  V30 3306 H 316.587 -5.79123 -3.84242 0
M  V30 3307 H 319.778 -3.73269 -2.82467 0
M  V30 3308 H 319.951 -5.31577 -3.7058 0
M  V30 3309 N 313.357 1.07166 -1.15556 0
M  V30 3310 C 314.773 1.31899 -0.898603 0
M  V30 3311 C 314.973 1.96333 0.453383 0
M  V30 3312 O 314.029 2.22438 1.19489 0
M  V30 3313 C 315.342 2.20826 -2.04099 0
M  V30 3314 C 316.89 2.34269 -2.07574 0
M  V30 3315 C 317.365 3.26546 -3.21141 0
M  V30 3316 N 318.856 3.34127 -3.20801 0
M  V30 3317 C 319.591 4.05595 -4.05315 0
M  V30 3318 N 319.087 4.79661 -4.99897 0
M  V30 3319 N 320.88 4.01555 -3.93332 0
M  V30 3320 H 313.031 0.637302 -2.02613 0
M  V30 3321 H 315.294 0.343468 -0.883591 0
M  V30 3322 H 315 1.80744 -3.01703 0
M  V30 3323 H 314.874 3.21364 -1.97496 0
M  V30 3324 H 317.261 2.73603 -1.10568 0
M  V30 3325 H 317.342 1.33429 -2.18244 0
M  V30 3326 H 316.986 2.87931 -4.184 0
M  V30 3327 H 316.916 4.27345 -3.07708 0
M  V30 3328 H 319.407 2.81336 -2.52306 0
M  V30 3329 H 319.72 5.31694 -5.60822 0
M  V30 3330 H 318.065 4.78671 -5.03884 0
M  V30 3331 H 321.256 3.42806 -3.18751 0
M  V30 3332 H 321.429 4.56987 -4.5942 0
M  V30 3333 O 314.874 1.08282 1.19822 0
M  V30 3334 H 315.565 0.773615 1.77581 0
M  V30 END ATOM
M  V30 BEGIN BOND
M  V30 END BOND
M  V30 END CTAB
M  END
$$$$
