drugbank_target|O75874 Isocitrate dehydrogenase [NADP] cytoplasmic (DB01727; DB03461; DB14568)
 OpenBabel12092119503D

  0  0  0     0  0            999 V3000
M  V30 BEGIN CTAB
M  V30 COUNTS 6537 6605 0 0 0
M  V30 BEGIN ATOM
M  V30 1 H -0.908 1.98254 -0.117106 0
M  V30 2 N 0 1.576 0 0
M  V30 3 C 0.933 2.03868 1.02534 0
M  V30 4 C 1.911 0.928543 1.3348 0
M  V30 5 O 3.095 1.19667 1.45644 0
M  V30 6 C 0.222 2.43627 2.35294 0
M  V30 7 C -0.732 3.65373 2.2001 0
M  V30 8 S 0.101 5.13292 1.52614 0
M  V30 9 C 1.257 5.56322 2.86805 0
M  V30 10 H 1.49 2.90518 0.631377 0
M  V30 11 H -0.977 1.52953 0.210867 0
M  V30 12 H 0.981 2.67203 3.11629 0
M  V30 13 H -0.358 1.57376 2.7183 0
M  V30 14 H -1.165 3.90944 3.18086 0
M  V30 15 H -1.563 3.418 1.51819 0
M  V30 16 H 0.729 5.58782 3.83104 0
M  V30 17 H 1.672 6.56266 2.65933 0
M  V30 18 H 2.08 4.83886 2.90714 0
M  V30 19 N 1.4781 -0.272755 1.55222 0
M  V30 20 C 2.7031 -1.02683 1.80197 0
M  V30 21 C 3.1281 -1.79142 0.573551 0
M  V30 22 O 2.4861 -1.74917 -0.476849 0
M  V30 23 C 2.5341 -1.9609 3.02624 0
M  V30 24 O 1.6381 -3.04863 2.77727 0
M  V30 25 H 0.9791 -0.293557 0.595584 0
M  V30 26 H 3.5091 -0.30159 2.02365 0
M  V30 27 H 3.5191 -2.38039 3.31363 0
M  V30 28 H 2.1941 -1.39851 3.91682 0
M  V30 29 H 0.7711 -2.67228 2.60084 0
M  V30 30 N 2.9562 -1.48159 -0.537278 0
M  V30 31 C 3.9032 -1.62138 -1.64256 0
M  V30 32 C 4.8732 -0.463668 -1.59497 0
M  V30 33 O 6.0582 -0.686241 -1.78032 0
M  V30 34 C 3.1982 -1.66028 -3.02537 0
M  V30 35 C 2.3112 -2.92855 -3.17585 0
M  V30 36 C 1.4462 -2.87952 -4.46382 0
M  V30 37 C 0.4852 -4.09516 -4.54932 0
M  V30 38 N -0.3778 -4.02733 -5.75109 0
M  V30 39 H 4.4622 -2.56529 -1.51647 0
M  V30 40 H 1.9992 -1.27224 -0.738414 0
M  V30 41 H 3.9572 -1.66265 -3.82638 0
M  V30 42 H 2.5872 -0.751331 -3.13934 0
M  V30 43 H 1.6392 -3.02395 -2.30784 0
M  V30 44 H 2.9512 -3.82822 -3.19764 0
M  V30 45 H 2.1052 -2.8655 -5.34765 0
M  V30 46 H 0.8442 -1.95702 -4.46712 0
M  V30 47 H -0.1508 -4.11201 -3.64957 0
M  V30 48 H 1.0742 -5.02917 -4.56346 0
M  V30 49 H -0.9798 -3.13299 -5.76351 0
M  V30 50 H -1.0628 -4.86397 -5.78752 0
M  V30 51 H 0.2052 -4.05379 -6.65799 0
M  V30 52 N 4.4343 0.785586 -1.36625 0
M  V30 53 C 5.3813 1.89838 -1.31264 0
M  V30 54 C 6.3513 1.65115 -0.180633 0
M  V30 55 O 7.5363 1.87222 -0.36777 0
M  V30 56 C 4.6763 3.26706 -1.11163 0
M  V30 57 C 3.7893 3.63476 -2.33472 0
M  V30 58 C 2.9243 4.89481 -2.06353 0
M  V30 59 C 1.9633 5.18941 -3.24602 0
M  V30 60 N 1.1003 6.36131 -2.97123 0
M  V30 61 H 5.9403 1.93756 -2.26413 0
M  V30 62 H 3.4773 0.947454 -1.12524 0
M  V30 63 H 5.4353 4.05639 -0.975337 0
M  V30 64 H 4.0653 3.222 -0.196674 0
M  V30 65 H 3.1173 2.79636 -2.57891 0
M  V30 66 H 4.4293 3.81193 -3.21704 0
M  V30 67 H 3.5833 5.76288 -1.89675 0
M  V30 68 H 2.3223 4.73841 -1.15437 0
M  V30 69 H 1.3273 4.30615 -3.41834 0
M  V30 70 H 2.5523 5.36498 -4.16349 0
M  V30 71 H 0.4983 6.21875 -2.08823 0
M  V30 72 H 0.4153 6.54198 -3.78894 0
M  V30 73 H 1.6833 7.2591 -2.84033 0
M  V30 74 N 5.9124 1.20967 1.01018 0
M  V30 75 C 7.1614 1.01796 1.74128 0
M  V30 76 C 7.4744 -0.449691 1.90361 0
M  V30 77 O 8.6804 -0.76068 2.60626 0
M  V30 78 C 7.1364 1.7727 3.13215 0
M  V30 79 C 6.7444 3.28171 3.04972 0
M  V30 80 C 8.4884 1.66489 3.90489 0
M  V30 81 C 6.3954 3.96156 4.39107 0
M  V30 82 H 5.3254 0.377276 0.652824 0
M  V30 83 H 7.9764 1.44651 1.12909 0
M  V30 84 H 6.3584 1.27205 3.75013 0
M  V30 85 H 7.5324 3.85499 2.52443 0
M  V30 86 H 5.8474 3.39437 2.41188 0
M  V30 87 H 8.4444 2.14617 4.89738 0
M  V30 88 H 8.7874 0.6222 4.11624 0
M  V30 89 H 9.3204 2.14003 3.35332 0
M  V30 90 H 6.0594 5.00604 4.23174 0
M  V30 91 H 5.5794 3.43617 4.91617 0
M  V30 92 H 7.2584 4.00774 5.07926 0
M  V30 93 N 7.3905 -1.2043 1.01659 0
M  V30 94 C 8.6155 -1.94318 0.724942 0
M  V30 95 C 9.0405 -1.74266 -0.708034 0
M  V30 96 O 8.3985 -1.03694 -1.48719 0
M  V30 97 C 8.4465 -3.44486 1.06591 0
M  V30 98 O 7.5505 -4.12017 0.177599 0
M  V30 99 H 6.8915 -0.60708 0.26898 0
M  V30 100 H 9.4215 -1.52861 1.35995 0
M  V30 101 H 9.4315 -3.95106 1.01762 0
M  V30 102 H 8.1065 -3.58404 2.10997 0
M  V30 103 H 6.6835 -3.71821 0.283421 0
M  V30 104 N 8.8686 -0.792821 -1.36206 0
M  V30 105 C 10.1166 -0.366062 -1.98757 0
M  V30 106 C 10.4376 1.0668 -1.63231 0
M  V30 107 O 9.7076 1.73587 -0.907978 0
M  V30 108 H 8.2876 -0.132364 -0.735179 0
M  V30 109 H 10.9496 -1.01562 -1.66347 0
M  V30 110 H 10.0456 -0.460638 -3.08682 0
M  V30 111 N 10.3467 1.47872 -0.545128 0
M  V30 112 C 11.5947 2.02093 -0.016553 0
M  V30 113 C 11.9157 1.42305 1.3332 0
M  V30 114 O 11.1857 0.593853 1.86682 0
M  V30 115 H 9.7657 0.746993 -0.00313038 0
M  V30 116 H 12.4277 1.81414 -0.712397 0
M  V30 117 H 11.5237 3.11996 0.0805422 0
M  V30 118 N 11.8248 0.280983 1.55075 0
M  V30 119 C 13.0498 -0.340154 2.04592 0
M  V30 120 C 13.4748 -1.48246 1.15779 0
M  V30 121 O 12.8328 -1.80614 0.15761 0
M  V30 122 C 12.8808 -0.793104 3.5177 0
M  V30 123 O 11.9848 -1.89981 3.66034 0
M  V30 124 H 11.3258 -0.0694289 0.66036 0
M  V30 125 H 13.8558 0.416993 2.00306 0
M  V30 126 H 13.8658 -1.08729 3.93245 0
M  V30 127 H 12.5408 0.0426163 4.15878 0
M  V30 128 H 11.1178 -1.60771 3.36463 0
M  V30 129 N 13.3029 -1.57598 0.00835791 0
M  V30 130 C 14.5489 -1.91211 -0.675732 0
M  V30 131 C 14.8819 -0.883139 -1.72958 0
M  V30 132 O 14.1569 0.097016 -1.94258 0
M  V30 133 C 14.4399 -3.35379 -1.31123 0
M  V30 134 C 14.2929 -4.48999 -0.268356 0
M  V30 135 C 15.6119 -3.7912 -2.23508 0
M  V30 136 H 12.7309 -0.695374 -0.244179 0
M  V30 137 H 15.3729 -1.89901 0.0613655 0
M  V30 138 H 13.5229 -3.36626 -1.93946 0
M  V30 139 H 15.1949 -4.59887 0.360844 0
M  V30 140 H 13.4379 -4.31873 0.408482 0
M  V30 141 H 14.1089 -5.46851 -0.752218 0
M  V30 142 H 16.5849 -3.79477 -1.70693 0
M  V30 143 H 15.4609 -4.80729 -2.64936 0
M  V30 144 H 15.7219 -3.13455 -3.11766 0
M  V30 145 N 14.781 0.264519 -1.55364 0
M  V30 146 C 16.027 0.99646 -1.76631 0
M  V30 147 C 16.36 1.85632 -0.570478 0
M  V30 148 O 15.635 1.89647 0.43175 0
M  V30 149 C 15.918 1.87187 -3.07625 0
M  V30 150 C 15.771 1.04138 -4.37579 0
M  V30 151 C 17.09 2.85749 -3.34717 0
M  V30 152 H 14.209 0.360841 -0.642622 0
M  V30 153 H 16.851 0.268218 -1.88097 0
M  V30 154 H 15.001 2.49279 -2.9798 0
M  V30 155 H 16.673 0.440517 -4.59192 0
M  V30 156 H 14.916 0.345115 -4.32425 0
M  V30 157 H 15.587 1.68729 -5.2558 0
M  V30 158 H 18.063 2.33793 -3.4421 0
M  V30 159 H 16.939 3.44136 -4.27623 0
M  V30 160 H 17.2 3.61311 -2.54768 0
M  V30 161 N 16.2591 1.48442 0.529413 0
M  V30 162 C 17.1691 1.6569 1.66084 0
M  V30 163 C 18.1851 0.539432 1.65427 0
M  V30 164 O 19.3611 0.810572 1.84368 0
M  V30 165 C 16.4261 1.69315 3.02545 0
M  V30 166 C 15.4871 2.92694 3.14052 0
M  V30 167 C 14.7201 2.96137 4.44003 0
M  V30 168 O 14.9431 2.07973 5.31134 0
M  V30 169 O 13.8771 3.88312 4.59888 0
M  V30 170 H 17.7031 2.61483 1.54469 0
M  V30 171 H 15.2881 1.3185 0.702567 0
M  V30 172 H 17.1701 1.74217 3.83701 0
M  V30 173 H 15.8451 0.766966 3.14483 0
M  V30 174 H 14.7521 2.93324 2.32189 0
M  V30 175 H 16.0851 3.84699 3.0703 0
M  V30 176 N 17.7372 -0.778329 1.37039 0
M  V30 177 C 18.6702 -1.8984 1.26633 0
M  V30 178 C 19.6482 -1.61923 0.148197 0
M  V30 179 O 20.8322 -1.85742 0.321265 0
M  V30 180 C 17.9592 -3.24916 0.956403 0
M  V30 181 C 17.0052 -3.71752 2.09051 0
M  V30 182 S 17.8382 -3.86201 3.70957 0
M  V30 183 C 18.9942 -5.24135 3.42101 0
M  V30 184 H 19.2272 -1.98377 2.21436 0
M  V30 185 H 16.7602 -0.938738 1.22585 0
M  V30 186 H 18.7182 -4.02936 0.784409 0
M  V30 187 H 17.3792 -3.14089 0.0259713 0
M  V30 188 H 16.5722 -4.69661 1.8285 0
M  V30 189 H 16.1742 -3.00815 2.2223 0
M  V30 190 H 18.4662 -6.09086 2.96682 0
M  V30 191 H 19.4092 -5.55346 4.39314 0
M  V30 192 H 19.8172 -4.91761 2.77185 0
M  V30 193 N 19.2153 -1.21501 -1.00376 0
M  V30 194 C 20.1473 -0.933174 -2.09343 0
M  V30 195 C 21.1603 0.0840896 -1.62583 0
M  V30 196 O 22.3493 -0.148563 -1.77881 0
M  V30 197 C 19.4493 -0.379869 -3.36764 0
M  V30 198 C 18.6223 -1.45176 -4.12605 0
M  V30 199 C 17.6813 -0.907476 -5.18316 0
M  V30 200 O 16.7073 -1.5912 -5.46507 0
M  V30 201 N 17.9093 0.276649 -5.7984 0
M  V30 202 H 20.6743 -1.87124 -2.34104 0
M  V30 203 H 18.2353 -1.12043 -1.16867 0
M  V30 204 H 20.2273 -0.00131488 -4.047 0
M  V30 205 H 18.7973 0.463048 -3.09151 0
M  V30 206 H 18.0173 -2.00411 -3.39454 0
M  V30 207 H 19.3053 -2.17328 -4.6005 0
M  V30 208 H 18.7033 0.849147 -5.59291 0
M  V30 209 H 17.2603 0.596702 -6.49063 0
M  V30 210 N 20.6934 1.19889 -1.02296 0
M  V30 211 C 21.9414 1.89046 -0.714558 0
M  V30 212 C 22.2624 1.79636 0.758681 0
M  V30 213 O 21.5324 1.20292 1.54618 0
M  V30 214 H 20.1124 0.699802 -0.261317 0
M  V30 215 H 22.7744 1.45574 -1.29592 0
M  V30 216 H 21.8704 2.95524 -1.0036 0
M  V30 217 N 22.1715 0.800033 1.35784 0
M  V30 218 C 23.4485 0.30088 1.93272 0
M  V30 219 C 23.8285 -1.20857 1.73081 0
M  V30 220 O 23.1765 -2.00502 1.09596 0
M  V30 221 C 23.3865 0.70511 3.41803 0
M  V30 222 C 24.7345 0.690871 4.18942 0
M  V30 223 O 25.7585 0.646244 3.50289 0
M  V30 224 O 24.6175 0.74332 5.41421 0
M  V30 225 H 21.7115 0.0771605 0.823393 0
M  V30 226 H 24.2575 0.88329 1.449 0
M  V30 227 H 23.0295 1.74571 3.50201 0
M  V30 228 H 22.6525 0.0971541 3.97481 0
M  V30 229 N 23.6496 -1.47581 0.552962 0
M  V30 230 C 24.5596 -2.33743 -0.200353 0
M  V30 231 C 25.5756 -1.47928 -0.916151 0
M  V30 232 O 26.7516 -1.80865 -0.885993 0
M  V30 233 C 23.8166 -3.24536 -1.21973 0
M  V30 234 C 22.8776 -4.26238 -0.511819 0
M  V30 235 C 22.1106 -5.12693 -1.48263 0
M  V30 236 O 22.3336 -5.01525 -2.71714 0
M  V30 237 O 21.2676 -5.93375 -1.00945 0
M  V30 238 H 25.0936 -2.9945 0.506304 0
M  V30 239 H 22.6786 -1.46071 0.313622 0
M  V30 240 H 24.5606 -3.80631 -1.80827 0
M  V30 241 H 23.2356 -2.61462 -1.90839 0
M  V30 242 H 22.1426 -3.73914 0.117799 0
M  V30 243 H 23.4756 -4.92014 0.135308 0
M  V30 244 N 25.1277 -0.289203 -1.54924 0
M  V30 245 C 26.0607 0.633823 -2.19221 0
M  V30 246 C 27.0387 1.14174 -1.15772 0
M  V30 247 O 28.2227 1.21211 -1.44361 0
M  V30 248 C 25.3497 1.86592 -2.82668 0
M  V30 249 C 24.3957 1.49227 -3.99542 0
M  V30 250 S 25.2287 0.558312 -5.32582 0
M  V30 251 C 26.3847 1.79847 -5.99505 0
M  V30 252 H 26.6177 0.0875416 -2.97171 0
M  V30 253 H 24.1507 -0.0733899 -1.54225 0
M  V30 254 H 26.1087 2.57305 -3.19851 0
M  V30 255 H 24.7697 2.38335 -2.04585 0
M  V30 256 H 23.9627 2.40945 -4.42676 0
M  V30 257 H 23.5647 0.865193 -3.63855 0
M  V30 258 H 25.8567 2.7406 -6.19595 0
M  V30 259 H 26.7997 1.4099 -6.93922 0
M  V30 260 H 27.2077 1.96982 -5.29016 0
M  V30 261 N 26.6058 1.57591 -0.0167156 0
M  V30 262 C 27.8338 1.95575 0.675128 0
M  V30 263 C 28.2488 0.892542 1.6637 0
M  V30 264 O 27.6058 -0.126912 1.82058 0
M  V30 265 C 27.6568 3.33608 1.39239 0
M  V30 266 O 27.3778 4.3585 0.443444 0
M  V30 267 C 28.8788 3.86151 2.17721 0
M  V30 268 H 26.0988 0.644423 0.186978 0
M  V30 269 H 28.6428 2.0437 -0.0728 0
M  V30 270 H 26.7978 3.2607 2.09182 0
M  V30 271 H 27.2118 5.158 0.951358 0
M  V30 272 H 28.6858 4.85114 2.63379 0
M  V30 273 H 29.1628 3.19738 3.01105 0
M  V30 274 H 29.7688 3.96918 1.52761 0
M  V30 275 N 28.0839 -0.256276 1.55502 0
M  V30 276 C 29.4999 -0.604325 1.47716 0
M  V30 277 C 29.6999 -1.88763 0.705039 0
M  V30 278 O 28.7559 -2.51445 0.230613 0
M  V30 279 C 30.0689 -0.715756 2.92057 0
M  V30 280 C 31.6169 -0.808706 3.02372 0
M  V30 281 C 32.0919 -0.951777 4.48001 0
M  V30 282 N 33.5829 -1.01688 4.519 0
M  V30 283 C 34.3179 -1.14668 5.61817 0
M  V30 284 N 33.8139 -1.24261 6.81565 0
M  V30 285 N 35.6069 -1.1791 5.49594 0
M  V30 286 H 27.7579 0.586291 2.04148 0
M  V30 287 H 30.0209 0.201015 0.926443 0
M  V30 288 H 29.7269 0.157027 3.51349 0
M  V30 289 H 29.6009 -1.59071 3.42018 0
M  V30 290 H 31.9879 -1.67195 2.43166 0
M  V30 291 H 32.0689 0.0912063 2.55637 0
M  V30 292 H 31.7129 -0.0931291 5.07815 0
M  V30 293 H 31.6429 -1.86659 4.92408 0
M  V30 294 H 34.1339 -0.954468 3.65648 0
M  V30 295 H 34.4469 -1.34046 7.61086 0
M  V30 296 H 32.7919 -1.21236 6.84344 0
M  V30 297 H 35.9829 -1.10057 4.54978 0
M  V30 298 H 36.1559 -1.27681 6.35296 0
M  V30 299 N 29.562 -1.4872 -0.521534 0
M  V30 300 C 30.811 -1.56419 -1.27341 0
M  V30 301 C 31.124 -0.246805 -1.94037 0
M  V30 302 O 32.33 -0.202122 -2.70747 0
M  V30 303 C 30.786 -2.75896 -2.31105 0
M  V30 304 C 30.394 -4.14311 -1.70441 0
M  V30 305 C 32.138 -2.92913 -3.07249 0
M  V30 306 C 30.045 -5.25038 -2.72194 0
M  V30 307 H 28.975 -0.582344 -0.478949 0
M  V30 308 H 31.626 -1.75071 -0.549779 0
M  V30 309 H 30.008 -2.50697 -3.06541 0
M  V30 310 H 31.182 -4.49564 -1.01136 0
M  V30 311 H 29.497 -4.02482 -1.06759 0
M  V30 312 H 32.094 -3.72805 -3.83302 0
M  V30 313 H 32.437 -2.02689 -3.63625 0
M  V30 314 H 32.97 -3.18054 -2.38928 0
M  V30 315 H 29.709 -6.17255 -2.20627 0
M  V30 316 H 29.229 -4.94263 -3.39801 0
M  V30 317 H 30.908 -5.53508 -3.35019 0
M  V30 318 N 31.0401 0.771051 -1.3745 0
M  V30 319 C 32.2891 1.52491 -1.3202 0
M  V30 320 C 32.6021 1.9538 0.0927347 0
M  V30 321 O 33.8081 2.70159 0.269503 0
M  V30 322 C 32.2641 2.75366 -2.31736 0
M  V30 323 C 31.8721 2.39573 -3.78562 0
M  V30 324 C 33.6161 3.53307 -2.35318 0
M  V30 325 C 31.5231 3.58954 -4.70007 0
M  V30 326 H 30.4531 0.572506 -0.490666 0
M  V30 327 H 33.1041 0.844474 -1.62914 0
M  V30 328 H 31.4861 3.45303 -1.93861 0
M  V30 329 H 32.6601 1.77415 -4.25277 0
M  V30 330 H 30.9751 1.74805 -3.77932 0
M  V30 331 H 33.5721 4.42039 -3.00842 0
M  V30 332 H 33.9151 3.93217 -1.36698 0
M  V30 333 H 34.4481 2.90367 -2.71904 0
M  V30 334 H 31.1871 3.24125 -5.69757 0
M  V30 335 H 30.7071 4.20214 -4.27996 0
M  V30 336 H 32.3861 4.25758 -4.87175 0
M  V30 337 N 32.5182 1.22032 0.997298 0
M  V30 338 C 33.7642 1.05382 1.73972 0
M  V30 339 C 34.1192 -0.407419 1.88037 0
M  V30 340 O 33.4122 -1.29811 1.40924 0
M  V30 341 C 33.6062 1.69345 3.14733 0
M  V30 342 C 33.4352 3.21537 3.14395 0
M  V30 343 C 32.2052 3.9062 3.20537 0
M  V30 344 C 34.4032 4.18527 2.98897 0
M  V30 345 N 32.3852 5.29935 3.09906 0
M  V30 346 C 33.7562 5.44645 2.96247 0
M  V30 347 C 35.8112 4.09476 2.83255 0
M  V30 348 C 34.5142 6.62752 2.79557 0
M  V30 349 C 36.5402 5.27228 2.67926 0
M  V30 350 C 35.9022 6.52262 2.65959 0
M  V30 351 H 32.0012 0.440018 0.646458 0
M  V30 352 H 34.5852 1.54505 1.18475 0
M  V30 353 H 32.7562 1.22778 3.68484 0
M  V30 354 H 34.4882 1.45828 3.77513 0
M  V30 355 H 31.2432 3.41592 3.28043 0
M  V30 356 H 31.6672 6.02926 3.07912 0
M  V30 357 H 36.3092 3.13598 2.83577 0
M  V30 358 H 34.0272 7.58783 2.77982 0
M  V30 359 H 37.6132 5.22053 2.56812 0
M  V30 360 H 36.4932 7.41844 2.54239 0
M  V30 361 N 33.9963 -1.19345 1.0293 0
M  V30 362 C 34.9063 -2.26245 0.620515 0
M  V30 363 C 35.9223 -1.70486 -0.347928 0
M  V30 364 O 37.0983 -2.00347 -0.205704 0
M  V30 365 C 34.1633 -3.46693 -0.0218957 0
M  V30 366 C 33.2243 -4.17632 0.994102 0
M  V30 367 C 32.4573 -5.32329 0.382253 0
M  V30 368 O 32.6803 -5.64552 -0.814676 0
M  V30 369 O 31.6143 -5.91664 1.10531 0
M  V30 370 H 35.4403 -2.63453 1.51083 0
M  V30 371 H 33.0253 -1.26207 0.799513 0
M  V30 372 H 34.9073 -4.19683 -0.380072 0
M  V30 373 H 33.5823 -3.11333 -0.886209 0
M  V30 374 H 32.4893 -3.4676 1.40387 0
M  V30 375 H 33.8223 -4.56964 1.8288 0
M  V30 376 N 35.4744 -0.807222 -1.35358 0
M  V30 377 C 36.4044 -0.232509 -2.3234 0
M  V30 378 C 37.3854 0.642386 -1.57504 0
M  V30 379 O 38.5704 0.572526 -1.85569 0
M  V30 380 C 35.7004 0.619238 -3.41735 0
M  V30 381 C 34.6544 -0.157215 -4.27711 0
M  V30 382 C 33.9804 0.816273 -5.28433 0
M  V30 383 C 35.2804 -1.35656 -5.04376 0
M  V30 384 H 36.9744 -1.04276 -2.80654 0
M  V30 385 H 34.5204 -0.50288 -1.34934 0
M  V30 386 H 36.4734 1.03137 -4.08584 0
M  V30 387 H 35.1974 1.46239 -2.92031 0
M  V30 388 H 33.8564 -0.550525 -3.62443 0
M  V30 389 H 33.5044 1.65494 -4.74996 0
M  V30 390 H 33.2044 0.301067 -5.86828 0
M  V30 391 H 34.7284 1.22659 -5.98153 0
M  V30 392 H 36.1424 -1.01927 -5.64166 0
M  V30 393 H 34.5394 -1.8063 -5.7227 0
M  V30 394 H 35.6094 -2.14288 -4.34981 0
M  V30 395 N 36.9525 1.47285 -0.560781 0
M  V30 396 C 38.2015 2.01668 -0.035895 0
M  V30 397 C 38.5145 1.44021 1.32353 0
M  V30 398 O 39.7205 1.90088 1.93853 0
M  V30 399 C 38.1765 3.59897 -0.0136659 0
M  V30 400 C 37.7845 4.26536 -1.37006 0
M  V30 401 C 39.5285 4.22017 0.458425 0
M  V30 402 C 37.4355 5.76782 -1.30675 0
M  V30 403 H 36.3655 0.753938 -0.00964879 0
M  V30 404 H 39.0165 1.69243 -0.709166 0
M  V30 405 H 37.3985 3.89301 0.725325 0
M  V30 406 H 38.5725 4.0877 -2.12705 0
M  V30 407 H 36.8875 3.76419 -1.78038 0
M  V30 408 H 39.4845 5.32124 0.524247 0
M  V30 409 H 39.8275 3.89437 1.4712 0
M  V30 410 H 40.3605 3.97159 -0.225818 0
M  V30 411 H 37.0995 6.13988 -2.29564 0
M  V30 412 H 36.6195 5.96875 -0.591622 0
M  V30 413 H 38.2985 6.39063 -1.01033 0
M  V30 414 N 38.4306 0.297415 1.54768 0
M  V30 415 C 39.3776 -0.580276 2.23386 0
M  V30 416 C 40.3476 -1.13238 1.21517 0
M  V30 417 O 41.5326 -1.17757 1.50126 0
M  V30 418 C 38.6726 -1.74801 2.97555 0
M  V30 419 C 37.7856 -1.22764 4.1419 0
M  V30 420 C 36.9206 -2.35895 4.75949 0
M  V30 421 C 35.9596 -1.80974 5.84735 0
M  V30 422 N 35.0966 -2.87664 6.40464 0
M  V30 423 H 39.9366 0.0114833 2.97998 0
M  V30 424 H 37.4736 0.0174361 1.4709 0
M  V30 425 H 39.4316 -2.43475 3.38786 0
M  V30 426 H 38.0616 -2.31145 2.25326 0
M  V30 427 H 37.1136 -0.433271 3.77924 0
M  V30 428 H 38.4256 -0.785551 4.92575 0
M  V30 429 H 37.5796 -3.12523 5.20014 0
M  V30 430 H 36.3186 -2.83429 3.96887 0
M  V30 431 H 35.3236 -1.02834 5.40097 0
M  V30 432 H 36.5486 -1.34348 6.65678 0
M  V30 433 H 34.4946 -3.34538 5.64287 0
M  V30 434 H 34.4116 -2.4794 7.14186 0
M  V30 435 H 35.6796 -3.642 6.89187 0
M  V30 436 N 39.9087 -1.5758 0.0250728 0
M  V30 437 C 40.8187 -2.1343 -0.973905 0
M  V30 438 C 41.8347 -1.08556 -1.35984 0
M  V30 439 O 43.0107 -1.40592 -1.44207 0
M  V30 440 C 40.0757 -2.64703 -2.23904 0
M  V30 441 C 39.1367 -3.84276 -1.91391 0
M  V30 442 C 38.3697 -4.33095 -3.11873 0
M  V30 443 O 38.5927 -3.81107 -4.24398 0
M  V30 444 O 37.5267 -5.24984 -2.94406 0
M  V30 445 H 41.3527 -2.99057 -0.529036 0
M  V30 446 H 38.9377 -1.48118 -0.195288 0
M  V30 447 H 40.8197 -2.97769 -2.98181 0
M  V30 448 H 39.4947 -1.82161 -2.6758 0
M  V30 449 H 38.4017 -3.56143 -1.14511 0
M  V30 450 H 39.7347 -4.67968 -1.52534 0
M  V30 451 N 41.3868 0.248026 -1.55636 0
M  V30 452 C 42.3338 1.30707 -1.90222 0
M  V30 453 C 43.3038 1.47881 -0.756332 0
M  V30 454 O 44.4888 1.61883 -1.00988 0
M  V30 455 C 41.6288 2.65769 -2.20138 0
M  V30 456 C 40.7418 2.56612 -3.47526 0
M  V30 457 C 39.8768 3.8402 -3.67017 0
M  V30 458 C 38.9158 3.69476 -4.8801 0
M  V30 459 N 38.0528 4.88774 -5.04029 0
M  V30 460 H 42.8928 1.00512 -2.80538 0
M  V30 461 H 40.4298 0.485055 -1.38873 0
M  V30 462 H 42.3878 3.44386 -2.35487 0
M  V30 463 H 41.0178 2.94115 -1.33027 0
M  V30 464 H 40.0698 1.69571 -3.40514 0
M  V30 465 H 41.3818 2.41774 -4.36287 0
M  V30 466 H 40.5358 4.7108 -3.8232 0
M  V30 467 H 39.2748 4.01754 -2.76487 0
M  V30 468 H 38.2798 2.80799 -4.72686 0
M  V30 469 H 39.5048 3.53238 -5.8 0
M  V30 470 H 37.4508 5.0687 -4.16435 0
M  V30 471 H 37.3678 4.76562 -5.86877 0
M  V30 472 H 38.6358 5.77335 -5.23741 0
M  V30 473 N 42.8649 1.48995 0.513639 0
M  V30 474 C 43.7949 1.67636 1.62544 0
M  V30 475 C 44.7759 0.525087 1.61793 0
M  V30 476 O 45.9609 0.759502 1.78732 0
M  V30 477 C 43.0909 1.73114 3.01079 0
M  V30 478 C 42.0449 2.87905 3.16693 0
M  V30 479 C 41.3709 2.78486 4.56453 0
M  V30 480 C 42.6709 4.29005 2.97913 0
M  V30 481 H 44.3649 2.60716 1.47198 0
M  V30 482 H 41.9109 1.25465 0.706714 0
M  V30 483 H 43.8639 1.84742 3.78746 0
M  V30 484 H 42.5879 0.766241 3.17484 0
M  V30 485 H 41.2469 2.75859 2.41448 0
M  V30 486 H 40.8949 1.7993 4.69717 0
M  V30 487 H 40.5949 3.55523 4.67843 0
M  V30 488 H 42.1189 2.92104 5.36197 0
M  V30 489 H 43.5329 4.41798 3.65359 0
M  V30 490 H 41.9299 5.07166 3.20785 0
M  V30 491 H 42.9999 4.44329 1.94165 0
M  V30 492 N 44.343 -0.763751 1.37857 0
M  V30 493 C 45.592 -1.51789 1.32827 0
M  V30 494 C 45.905 -1.95426 -0.0823719 0
M  V30 495 O 47.111 -2.70298 -0.255172 0
M  V30 496 C 45.567 -2.74133 2.33193 0
M  V30 497 C 45.175 -2.37562 3.79827 0
M  V30 498 C 46.919 -3.52054 2.37188 0
M  V30 499 C 44.826 -3.56456 4.71904 0
M  V30 500 H 43.756 -0.569896 0.493695 0
M  V30 501 H 46.407 -0.835822 1.63359 0
M  V30 502 H 44.789 -3.4427 1.9569 0
M  V30 503 H 45.963 -1.75157 4.26212 0
M  V30 504 H 44.278 -1.72798 3.78853 0
M  V30 505 H 46.875 -4.40437 3.03182 0
M  V30 506 H 47.218 -3.92486 1.38782 0
M  V30 507 H 47.751 -2.88921 2.7344 0
M  V30 508 H 44.49 -3.21099 5.71468 0
M  V30 509 H 44.01 -4.17938 4.30218 0
M  V30 510 H 45.689 -4.23168 4.89426 0
M  V30 511 N 45.8211 -1.22559 -0.990812 0
M  V30 512 C 47.0681 -1.05141 -1.73065 0
M  V30 513 C 47.3961 0.413191 -1.9006 0
M  V30 514 O 46.6511 1.32257 -1.44245 0
M  V30 515 C 46.9501 -1.71011 -3.13831 0
M  V30 516 C 46.6161 -3.20911 -3.16745 0
M  V30 517 C 45.2781 -3.61812 -3.17247 0
M  V30 518 C 47.6301 -4.16846 -3.12872 0
M  V30 519 C 44.9581 -4.97127 -3.1158 0
M  V30 520 C 47.3101 -5.5214 -3.08746 0
M  V30 521 C 45.9741 -5.92419 -3.07565 0
M  V30 522 H 45.2441 -0.384738 -0.633291 0
M  V30 523 H 47.8911 -1.5235 -1.16025 0
M  V30 524 H 46.1961 -1.16133 -3.74193 0
M  V30 525 H 47.8931 -1.55023 -3.69823 0
M  V30 526 H 44.4831 -2.88344 -3.17105 0
M  V30 527 H 48.6671 -3.86263 -3.11632 0
M  V30 528 H 43.9231 -5.27562 -3.09012 0
M  V30 529 H 48.0971 -6.26201 -3.04705 0
M  V30 530 H 45.7241 -6.97236 -3.02929 0
M  V30 531 N 47.2992 1.18797 -1.03562 0
M  V30 532 C 48.7102 1.70322 -0.764676 0
M  V30 533 C 49.0612 1.82708 0.714996 0
M  V30 534 O 48.1862 1.50299 1.55689 0
M  V30 535 C 48.7812 3.09356 -1.38145 0
M  V30 536 C 47.3402 3.58114 -1.15895 0
M  V30 537 C 46.4872 2.34798 -1.4753 0
M  V30 538 H 49.4382 1.03543 -1.20268 0
M  V30 539 H 49.4592 3.72378 -0.781977 0
M  V30 540 H 48.9712 3.00309 -2.45837 0
M  V30 541 H 47.0722 3.72464 -0.100544 0
M  V30 542 H 47.1852 4.4184 -1.8524 0
M  V30 543 H 45.5492 2.38464 -0.894829 0
M  V30 544 H 46.3322 2.28375 -2.56319 0
M  V30 545 N 48.7773 0.814389 1.34928 0
M  V30 546 C 50.0073 0.41054 2.0248 0
M  V30 547 C 50.4153 -0.985625 1.61499 0
M  V30 548 O 49.7583 -1.64781 0.811976 0
M  V30 549 C 49.8203 0.423384 3.56998 0
M  V30 550 C 49.4843 1.77141 4.21272 0
M  V30 551 C 50.4813 2.73093 4.42398 0
M  V30 552 C 48.1663 2.05755 4.58225 0
M  V30 553 C 50.1603 3.95838 4.9959 0
M  V30 554 C 47.8473 3.28762 5.1513 0
M  V30 555 C 48.8453 4.23621 5.35755 0
M  V30 556 O 48.5333 5.44456 5.91458 0
M  V30 557 H 48.2653 0.163997 0.655806 0
M  V30 558 H 50.8193 1.10155 1.73364 0
M  V30 559 H 49.0493 -0.324276 3.85338 0
M  V30 560 H 50.7383 0.0407683 4.0588 0
M  V30 561 H 51.5043 2.5228 4.14222 0
M  V30 562 H 47.3833 1.32727 4.4148 0
M  V30 563 H 50.9273 4.69891 5.15605 0
M  V30 564 H 46.8243 3.49443 5.42734 0
M  V30 565 H 47.5923 5.4586 6.09901 0
M  V30 566 N 50.2554 -1.46986 0.568584 0
M  V30 567 C 51.5014 -2.02741 0.0488709 0
M  V30 568 C 51.8344 -1.44077 -1.30214 0
M  V30 569 O 51.1094 -0.600552 -1.84996 0
M  V30 570 C 51.3924 -3.60086 -0.032047 0
M  V30 571 C 51.2454 -4.29162 1.34686 0
M  V30 572 C 52.5644 -4.33838 -0.739798 0
M  V30 573 H 49.6834 -0.736749 0.0192338 0
M  V30 574 H 52.3254 -1.75289 0.733065 0
M  V30 575 H 50.4754 -3.83606 -0.61473 0
M  V30 576 H 52.1474 -4.16948 1.97362 0
M  V30 577 H 50.3904 -3.89073 1.91846 0
M  V30 578 H 51.0614 -5.37826 1.24285 0
M  V30 579 H 53.5374 -4.15378 -0.244939 0
M  V30 580 H 52.4134 -5.43537 -0.765406 0
M  V30 581 H 52.6744 -4.03875 -1.79827 0
M  V30 582 N 51.7335 -0.305618 -1.54608 0
M  V30 583 C 52.6435 0.57778 -2.27374 0
M  V30 584 C 53.6595 1.14451 -1.31061 0
M  V30 585 O 54.8355 1.16831 -1.6405 0
M  V30 586 C 51.9005 1.73123 -3.00382 0
M  V30 587 C 50.9615 1.19812 -4.12242 0
M  V30 588 C 50.1945 2.2966 -4.81759 0
M  V30 589 O 50.4175 3.49651 -4.50666 0
M  V30 590 O 49.3515 1.96091 -5.69062 0
M  V30 591 H 53.1775 -0.012624 -3.03697 0
M  V30 592 H 50.7625 -0.0719184 -1.49227 0
M  V30 593 H 52.6445 2.40315 -3.4616 0
M  V30 594 H 51.3195 2.30815 -2.26949 0
M  V30 595 H 50.2265 0.491798 -3.70853 0
M  V30 596 H 51.5595 0.666566 -4.87666 0
M  V30 597 N 53.2116 1.57565 -0.0334293 0
M  V30 598 C 54.1416 2.13511 0.945265 0
M  V30 599 C 55.1226 1.05231 1.33643 0
M  V30 600 O 56.3076 1.33084 1.41429 0
M  V30 601 C 53.4376 2.6657 2.22616 0
M  V30 602 C 52.3916 3.79676 1.97561 0
M  V30 603 C 51.7176 4.1918 3.31952 0
M  V30 604 C 53.0176 5.0557 1.31135 0
M  V30 605 H 54.7116 2.95538 0.479325 0
M  V30 606 H 52.2576 1.42166 0.229115 0
M  V30 607 H 54.2106 3.04344 2.91466 0
M  V30 608 H 52.9346 1.8171 2.71384 0
M  V30 609 H 51.5936 3.42347 1.31127 0
M  V30 610 H 51.2416 3.31296 3.78487 0
M  V30 611 H 50.9416 4.95402 3.15992 0
M  V30 612 H 52.4656 4.59541 4.02063 0
M  V30 613 H 53.8796 5.40903 1.89992 0
M  V30 614 H 52.2766 5.86818 1.25559 0
M  V30 615 H 53.3466 4.84062 0.284894 0
M  V30 616 N 54.6897 -0.239769 1.55765 0
M  V30 617 C 55.9667 -0.990056 1.68693 0
M  V30 618 C 56.3467 -2.03107 0.5754 0
M  V30 619 O 55.6947 -2.24604 -0.42017 0
M  V30 620 C 55.9047 -1.61696 3.09282 0
M  V30 621 C 57.2527 -2.11613 3.6811 0
M  V30 622 O 58.2767 -1.71624 3.12127 0
M  V30 623 O 57.1357 -2.85057 4.66267 0
M  V30 624 H 54.2297 -0.461299 0.686391 0
M  V30 625 H 56.7757 -0.232991 1.68093 0
M  V30 626 H 55.5477 -0.864357 3.81634 0
M  V30 627 H 55.1707 -2.44005 3.13923 0
M  V30 628 N 56.1678 -1.49265 -0.50573 0
M  V30 629 C 57.0978 -1.68495 -1.61653 0
M  V30 630 C 58.0788 -0.53366 -1.61512 0
M  V30 631 O 59.2638 -0.76897 -1.78327 0
M  V30 632 C 56.3938 -1.74709 -3.00157 0
M  V30 633 C 55.3478 -2.89581 -3.15162 0
M  V30 634 C 54.6738 -2.80903 -4.5497 0
M  V30 635 C 55.9738 -4.30578 -2.95634 0
M  V30 636 H 57.6678 -2.61493 -1.45814 0
M  V30 637 H 55.2138 -1.25838 -0.70005 0
M  V30 638 H 57.1668 -1.86748 -3.77761 0
M  V30 639 H 55.8908 -0.783067 -3.17074 0
M  V30 640 H 54.5498 -2.77136 -2.39982 0
M  V30 641 H 54.1978 -1.82419 -4.68756 0
M  V30 642 H 53.8978 -3.57999 -4.65951 0
M  V30 643 H 55.4218 -2.94944 -5.34641 0
M  V30 644 H 56.8358 -4.4373 -3.63011 0
M  V30 645 H 55.2328 -5.0886 -3.18091 0
M  V30 646 H 56.3028 -4.45352 -1.91806 0
M  V30 647 N 57.6459 0.756429 -1.3826 0
M  V30 648 C 58.5959 1.86069 -1.31766 0
M  V30 649 C 59.5799 1.59621 -0.202483 0
M  V30 650 O 60.7719 1.7149 -0.438211 0
M  V30 651 C 57.9009 3.23742 -1.1422 0
M  V30 652 C 56.9869 3.56091 -2.30348 0
M  V30 653 N 57.3779 3.59517 -3.55783 0
M  V30 654 C 55.6759 3.86341 -2.22838 0
M  V30 655 C 56.3769 3.89052 -4.32451 0
M  V30 656 N 55.3529 4.05736 -3.61772 0
M  V30 657 H 59.1549 1.86992 -2.26741 0
M  V30 658 H 56.6689 0.953643 -1.31451 0
M  V30 659 H 58.6659 4.02761 -1.07652 0
M  V30 660 H 57.3259 3.24073 -0.201763 0
M  V30 661 H 58.3369 3.41347 -3.89491 0
M  V30 662 H 55.0139 3.94404 -1.36937 0
M  V30 663 H 56.4039 3.98349 -5.4108 0
M  V30 664 N 59.124 1.23083 0.984299 0
M  V30 665 C 60.349 1.088 1.76571 0
M  V30 666 C 60.774 -0.356657 1.84688 0
M  V30 667 O 60.132 -1.25788 1.30565 0
M  V30 668 C 60.18 1.71371 3.17277 0
M  V30 669 O 59.284 0.973213 4.00752 0
M  V30 670 H 58.625 0.381599 0.543395 0
M  V30 671 H 61.155 1.63057 1.23587 0
M  V30 672 H 61.165 1.76449 3.67872 0
M  V30 673 H 59.84 2.76493 3.10684 0
M  V30 674 H 58.417 0.999078 3.59267 0
M  V30 675 N 60.6021 -1.18246 1.0419 0
M  V30 676 C 61.8321 -1.91916 0.764961 0
M  V30 677 C 62.2401 -1.76485 -0.681898 0
M  V30 678 O 61.5831 -1.09275 -1.47664 0
M  V30 679 C 61.6451 -3.4373 1.05309 0
M  V30 680 C 61.3091 -3.8294 2.4941 0
M  V30 681 C 62.3061 -3.86621 3.47592 0
M  V30 682 C 59.9911 -4.142 2.84155 0
M  V30 683 C 61.9851 -4.21013 4.78568 0
M  V30 684 C 59.6721 -4.48262 4.15337 0
M  V30 685 C 60.6701 -4.51645 5.12353 0
M  V30 686 O 60.3581 -4.84911 6.41183 0
M  V30 687 H 60.0901 -0.61606 0.278292 0
M  V30 688 H 62.6441 -1.50947 1.39299 0
M  V30 689 H 60.8741 -3.84946 0.367933 0
M  V30 690 H 62.5631 -3.9865 0.763752 0
M  V30 691 H 63.3291 -3.62607 3.22089 0
M  V30 692 H 59.2081 -4.10743 2.09311 0
M  V30 693 H 62.7521 -4.23568 5.54289 0
M  V30 694 H 58.6491 -4.71737 4.40607 0
M  V30 695 H 59.4171 -5.02809 6.45852 0
M  V30 696 N 62.0802 -0.821533 -1.34494 0
M  V30 697 C 63.3572 -0.33159 -1.92769 0
M  V30 698 C 63.7372 1.18088 -1.74981 0
M  V30 699 O 63.0852 1.98733 -1.12772 0
M  V30 700 C 63.2952 -0.759398 -3.40638 0
M  V30 701 C 64.6432 -0.757433 -4.1779 0
M  V30 702 O 65.6672 -0.70189 -3.49216 0
M  V30 703 O 64.5262 -0.829361 -5.4017 0
M  V30 704 H 61.6202 -0.0902502 -0.822061 0
M  V30 705 H 64.1662 -0.906231 -1.43477 0
M  V30 706 H 62.9382 -1.8012 -3.47379 0
M  V30 707 H 62.5612 -0.160378 -3.97276 0
M  V30 708 N 63.5583 1.46682 -0.576371 0
M  V30 709 C 64.4883 2.33028 0.148397 0
M  V30 710 C 65.4693 1.44961 0.889956 0
M  V30 711 O 66.6543 1.73789 0.866662 0
M  V30 712 C 63.7843 3.27117 1.1667 0
M  V30 713 C 62.7383 4.24575 0.540386 0
M  V30 714 C 62.0643 5.08126 1.6647 0
M  V30 715 C 63.3643 5.19722 -0.518331 0
M  V30 716 H 65.0583 2.93875 -0.572509 0
M  V30 717 H 62.6043 1.41315 -0.276768 0
M  V30 718 H 64.5573 3.86374 1.68204 0
M  V30 719 H 63.2813 2.64364 1.9178 0
M  V30 720 H 61.9403 3.66571 0.0461769 0
M  V30 721 H 61.5883 4.41762 2.40531 0
M  V30 722 H 61.2883 5.74122 1.25131 0
M  V30 723 H 62.8123 5.70246 2.18293 0
M  V30 724 H 64.2263 5.73232 -0.0883058 0
M  V30 725 H 62.6233 5.94026 -0.851679 0
M  V30 726 H 63.6933 4.64037 -1.40703 0
M  V30 727 N 65.0364 0.313813 1.54444 0
M  V30 728 C 66.2844 -0.291099 1.99993 0
M  V30 729 C 66.6054 -1.53418 1.20366 0
M  V30 730 O 65.8754 -1.93544 0.302927 0
M  V30 731 H 64.4554 -0.110552 0.738774 0
M  V30 732 H 67.1174 0.428106 1.9014 0
M  V30 733 H 66.2134 -0.554268 3.07139 0
M  V30 734 N 66.5145 -1.57545 0.0417849 0
M  V30 735 C 67.7635 -1.91494 -0.633492 0
M  V30 736 C 68.0765 -0.921084 -1.72556 0
M  V30 737 O 69.2825 -1.15228 -2.45835 0
M  V30 738 C 67.7385 -3.40072 -1.17808 0
M  V30 739 C 67.3465 -4.47843 -0.118633 0
M  V30 740 C 69.0905 -3.8307 -1.82915 0
M  V30 741 C 66.9975 -5.87529 -0.675578 0
M  V30 742 H 65.9275 -0.714653 -0.24039 0
M  V30 743 H 68.5785 -1.83175 0.109148 0
M  V30 744 H 66.9605 -3.43364 -1.97274 0
M  V30 745 H 68.1345 -4.56128 0.654494 0
M  V30 746 H 66.4495 -4.14128 0.434414 0
M  V30 747 H 69.0465 -4.84794 -2.25563 0
M  V30 748 H 69.3895 -3.1881 -2.67705 0
M  V30 749 H 69.9225 -3.82255 -1.10119 0
M  V30 750 H 66.6615 -6.55362 0.134475 0
M  V30 751 H 66.1815 -5.82824 -1.4169 0
M  V30 752 H 67.8605 -6.36491 -1.1614 0
M  V30 753 N 67.9926 0.231505 -1.5589 0
M  V30 754 C 68.9026 1.308 -1.94752 0
M  V30 755 C 69.9186 1.51826 -0.849989 0
M  V30 756 O 71.0946 1.6515 -1.15271 0
M  V30 757 C 68.1596 2.63968 -2.24771 0
M  V30 758 C 67.2206 2.51331 -3.48039 0
M  V30 759 C 66.4536 3.78148 -3.76616 0
M  V30 760 O 66.6766 4.80722 -3.07022 0
M  V30 761 O 65.6106 3.75857 -4.70123 0
M  V30 762 H 69.4366 1.0083 -2.86474 0
M  V30 763 H 67.0216 0.433547 -1.42971 0
M  V30 764 H 68.9036 3.42633 -2.45318 0
M  V30 765 H 67.5786 2.9364 -1.36225 0
M  V30 766 H 66.4856 1.709 -3.32782 0
M  V30 767 H 67.8186 2.26601 -4.36936 0
M  V30 768 N 69.4707 1.49531 0.497807 0
M  V30 769 C 70.4187 1.66926 1.61983 0
M  V30 770 C 71.4127 0.535167 1.60724 0
M  V30 771 O 72.6187 0.714896 1.65195 0
M  V30 772 H 68.9937 0.526415 0.537021 0
M  V30 773 H 70.9647 2.61098 1.44465 0
M  V30 774 C 69.7137 1.75602 3.00099 0
M  V30 775 H 69.0367 2.62244 3.01775 0
M  V30 776 H 70.4767 1.91807 3.78135 0
M  V30 777 C 68.9357 0.501543 3.33146 0
M  V30 778 O 69.4657 -0.371342 3.9998 0
M  V30 779 N 67.6717 0.363531 2.88317 0
M  V30 780 H 67.2187 1.07485 2.34104 0
M  V30 781 H 67.1767 -0.474728 3.10795 0
M  V30 782 N 70.9488 -0.749086 1.3866 0
M  V30 783 C 72.3648 -1.05276 1.19955 0
M  V30 784 C 72.5648 -2.01435 0.05134 0
M  V30 785 O 71.6208 -2.45232 -0.60147 0
M  V30 786 C 72.9338 -1.62853 2.52783 0
M  V30 787 C 74.4818 -1.75002 2.59506 0
M  V30 788 C 74.9568 -2.35991 3.92521 0
M  V30 789 N 76.4478 -2.43416 3.94085 0
M  V30 790 C 77.1828 -2.91511 4.9377 0
M  V30 791 N 76.6788 -3.39608 6.03853 0
M  V30 792 N 78.4718 -2.90592 4.81157 0
M  V30 793 H 70.6228 -0.111066 2.12109 0
M  V30 794 H 72.8858 -0.111901 0.941373 0
M  V30 795 H 72.5918 -0.99664 3.37283 0
M  V30 796 H 72.4658 -2.61854 2.715 0
M  V30 797 H 74.8528 -2.37317 1.75398 0
M  V30 798 H 74.9338 -0.74693 2.44652 0
M  V30 799 H 74.5778 -1.74308 4.77053 0
M  V30 800 H 74.5078 -3.3695 4.04688 0
M  V30 801 H 76.9988 -2.09405 3.14576 0
M  V30 802 H 77.3118 -3.74775 6.75843 0
M  V30 803 H 75.6568 -3.37653 6.07466 0
M  V30 804 H 78.8478 -2.52332 3.94267 0
M  V30 805 H 79.0208 -3.27762 5.58996 0
M  V30 806 N 72.4269 -1.23603 -0.977757 0
M  V30 807 C 73.7039 -0.977897 -1.69401 0
M  V30 808 C 74.0839 0.502738 -2.05026 0
M  V30 809 O 73.4319 1.47459 -1.74551 0
M  V30 810 C 73.6419 -1.89077 -2.93345 0
M  V30 811 C 74.9899 -2.15579 -3.65802 0
M  V30 812 O 76.0139 -1.86648 -3.03383 0
M  V30 813 O 74.8729 -2.64658 -4.78141 0
M  V30 814 H 71.9669 -0.369025 -0.740101 0
M  V30 815 H 74.5129 -1.34657 -1.03274 0
M  V30 816 H 73.2849 -2.89158 -2.63634 0
M  V30 817 H 72.9079 -1.52463 -3.67207 0
M  V30 818 N 73.905 1.17692 -1.04816 0
M  V30 819 C 74.868 2.19787 -0.650117 0
M  V30 820 C 75.868 1.58044 0.296427 0
M  V30 821 O 77.058 1.74012 0.0808097 0
M  V30 822 C 74.19 3.40869 0.0456987 0
M  V30 823 H 75.383 2.56516 -1.5537 0
M  V30 824 H 72.936 1.31708 -0.841594 0
M  V30 825 H 73.671 3.09681 0.962726 0
M  V30 826 H 73.456 3.86928 -0.634727 0
M  V30 827 H 74.946 4.16445 0.310432 0
M  V30 828 N 75.3831 0.828654 1.34056 0
M  V30 829 C 76.6111 0.43262 2.02326 0
M  V30 830 C 77.0261 -0.963147 1.62385 0
M  V30 831 O 76.3831 -1.62425 0.832121 0
M  V30 832 C 76.4341 0.53182 3.57567 0
M  V30 833 O 76.1551 1.87258 3.96063 0
M  V30 834 C 77.6561 0.131422 4.43105 0
M  V30 835 H 74.8761 0.172923 0.648335 0
M  V30 836 H 77.4201 1.1184 1.71208 0
M  V30 837 H 75.5751 -0.105938 3.87255 0
M  V30 838 H 75.9891 1.85087 4.90758 0
M  V30 839 H 77.4631 0.251904 5.51425 0
M  V30 840 H 77.9401 -0.925645 4.29335 0
M  V30 841 H 78.5461 0.743207 4.18756 0
M  V30 842 N 76.8612 -1.46375 0.584142 0
M  V30 843 C 77.8092 -2.32042 -0.161047 0
M  V30 844 C 78.8032 -1.44569 -0.882966 0
M  V30 845 O 80.0092 -1.61186 -0.801191 0
M  V30 846 H 76.3842 -0.748659 -0.0708033 0
M  V30 847 H 78.3552 -2.92704 0.580269 0
M  V30 848 C 77.1042 -3.27762 -1.1605 0
M  V30 849 H 76.4272 -3.95051 -0.614419 0
M  V30 850 H 77.8672 -3.90481 -1.65228 0
M  V30 851 C 76.3262 -2.53218 -2.22221 0
M  V30 852 O 76.8562 -2.29628 -3.29597 0
M  V30 853 N 75.0622 -2.13756 -1.96868 0
M  V30 854 H 74.6092 -2.33142 -1.09557 0
M  V30 855 H 74.5672 -1.642 -2.68115 0
M  V30 856 N 78.3393 -0.321999 -1.54275 0
M  V30 857 C 79.6163 0.335232 -1.92706 0
M  V30 858 C 79.9963 1.70006 -1.25145 0
M  V30 859 O 79.3443 2.25067 -0.394596 0
M  V30 860 C 79.5543 0.429008 -3.46353 0
M  V30 861 C 80.9023 0.690029 -4.18956 0
M  V30 862 O 81.9263 0.511992 -3.52501 0
M  V30 863 O 80.7853 1.03338 -5.36641 0
M  V30 864 H 77.8793 0.191143 -0.804608 0
M  V30 865 H 80.4253 -0.3716 -1.65581 0
M  V30 866 H 79.1973 -0.529611 -3.87699 0
M  V30 867 H 78.8203 1.18348 -3.79578 0
M  V30 868 N 79.8174 1.5752 -0.0501392 0
M  V30 869 C 80.7494 2.08413 0.95376 0
M  V30 870 C 81.7624 1.01175 1.27544 0
M  V30 871 O 82.9514 1.28744 1.23641 0
M  V30 872 C 80.0514 2.51138 2.27559 0
M  V30 873 C 79.2244 3.817 2.13598 0
M  V30 874 C 78.2834 4.10749 3.28895 0
M  V30 875 O 77.3094 4.80685 3.04845 0
M  V30 876 N 78.5114 3.62579 4.5334 0
M  V30 877 H 81.2764 2.95165 0.519383 0
M  V30 878 H 78.8374 1.61327 0.136127 0
M  V30 879 H 80.8294 2.67648 3.03557 0
M  V30 880 H 79.3994 1.6964 2.62567 0
M  V30 881 H 78.6194 3.74782 1.22197 0
M  V30 882 H 79.9074 4.67201 2.01496 0
M  V30 883 H 79.3054 3.06039 4.75769 0
M  V30 884 H 77.8624 3.84329 5.26436 0
M  V30 885 N 81.2955 -0.223234 1.56011 0
M  V30 886 C 82.5415 -0.949279 1.79211 0
M  V30 887 C 82.8745 -1.84054 0.619494 0
M  V30 888 O 82.1495 -1.90726 -0.381317 0
M  V30 889 C 82.4325 -1.78965 3.12479 0
M  V30 890 C 82.2855 -0.924997 4.40186 0
M  V30 891 C 83.6045 -2.76774 3.42175 0
M  V30 892 H 80.7235 -0.343676 0.651963 0
M  V30 893 H 83.3655 -0.218253 1.88742 0
M  V30 894 H 81.5155 -2.41291 3.04485 0
M  V30 895 H 83.1875 -0.318615 4.60198 0
M  V30 896 H 81.4305 -0.230344 4.33188 0
M  V30 897 H 82.1015 -1.54735 5.29869 0
M  V30 898 H 84.5775 -2.24584 3.50287 0
M  V30 899 H 83.4535 -3.32678 4.36597 0
M  V30 900 H 83.7145 -3.54429 2.64258 0
M  V30 901 N 82.7736 -1.49793 -0.48987 0
M  V30 902 C 84.0016 -1.63568 -1.26701 0
M  V30 903 C 84.4166 -0.311465 -1.86213 0
M  V30 904 O 83.7736 0.704416 -1.68357 0
M  V30 905 C 83.8246 -2.71284 -2.38929 0
M  V30 906 O 83.5456 -3.9857 -1.81861 0
M  V30 907 C 85.0466 -2.95864 -3.3012 0
M  V30 908 H 82.2666 -0.550342 -0.383881 0
M  V30 909 H 84.8106 -1.95898 -0.586864 0
M  V30 910 H 82.9656 -2.417 -3.02753 0
M  V30 911 H 83.3796 -4.57993 -2.55622 0
M  V30 912 H 84.8536 -3.74941 -4.05121 0
M  V30 913 H 85.3306 -2.06206 -3.87783 0
M  V30 914 H 85.9366 -3.26907 -2.72051 0
M  V30 915 N 84.2517 0.741722 -1.39055 0
M  V30 916 C 85.1987 1.85566 -1.37237 0
M  V30 917 C 86.1687 1.64457 -0.233072 0
M  V30 918 O 87.3537 1.85957 -0.427147 0
M  V30 919 C 84.4937 3.23004 -1.215 0
M  V30 920 C 83.6067 3.55864 -2.44918 0
M  V30 921 C 82.7417 4.82669 -2.21821 0
M  V30 922 C 81.7807 5.08351 -3.40948 0
M  V30 923 N 80.9177 6.26356 -3.17211 0
M  V30 924 H 85.7577 1.86455 -2.32462 0
M  V30 925 H 83.2947 0.911176 -1.15482 0
M  V30 926 H 85.2527 4.02331 -1.10389 0
M  V30 927 H 83.8827 3.21411 -0.29908 0
M  V30 928 H 82.9347 2.7129 -2.66657 0
M  V30 929 H 84.2467 3.70765 -3.33668 0
M  V30 930 H 83.4007 5.69962 -2.07914 0
M  V30 931 H 82.1397 4.69929 -1.30454 0
M  V30 932 H 81.1447 4.19522 -3.55361 0
M  V30 933 H 82.3697 5.22981 -4.33207 0
M  V30 934 H 80.3157 6.14917 -2.28502 0
M  V30 935 H 80.2327 6.41813 -3.99515 0
M  V30 936 H 81.5007 7.16506 -3.06984 0
M  V30 937 N 85.7298 1.2412 0.971189 0
M  V30 938 C 87.0068 0.986867 1.6888 0
M  V30 939 C 87.3868 -0.491857 2.0529 0
M  V30 940 O 86.7348 -1.46531 1.75331 0
M  V30 941 C 86.9448 1.9063 2.92338 0
M  V30 942 C 88.2928 2.17515 3.64654 0
M  V30 943 O 89.3168 1.88254 3.02388 0
M  V30 944 O 88.1758 2.6719 4.7673 0
M  V30 945 H 85.2698 0.372944 0.738134 0
M  V30 946 H 87.8158 1.35203 1.02559 0
M  V30 947 H 86.5878 2.90552 2.62097 0
M  V30 948 H 86.2108 1.54408 3.66393 0
M  V30 949 N 87.2079 -1.17134 1.05439 0
M  V30 950 C 88.1709 -2.19439 0.661764 0
M  V30 951 C 89.1709 -1.58199 -0.288042 0
M  V30 952 O 90.3609 -1.74053 -0.0715803 0
M  V30 953 C 87.4929 -3.40889 -0.0276209 0
M  V30 954 H 88.6859 -2.55688 1.56728 0
M  V30 955 H 86.2389 -1.31259 0.848567 0
M  V30 956 H 86.9739 -3.10187 -0.94629 0
M  V30 957 H 86.7589 -3.86586 0.655238 0
M  V30 958 H 88.2489 -4.16603 -0.288342 0
M  V30 959 N 88.686 -0.835752 -1.33615 0
M  V30 960 C 89.649 -0.272 -2.2758 0
M  V30 961 C 90.649 0.557487 -1.50827 0
M  V30 962 O 91.839 0.37173 -1.70188 0
M  V30 963 C 88.971 0.617173 -3.35267 0
M  V30 964 H 90.164 -1.10111 -2.78954 0
M  V30 965 H 87.717 -0.608594 -1.43965 0
M  V30 966 H 88.452 1.46884 -2.89129 0
M  V30 967 H 88.237 0.0237066 -3.92093 0
M  V30 968 H 89.727 1.005 -4.05326 0
M  V30 969 N 90.1641 1.46063 -0.591896 0
M  V30 970 C 91.0741 2.34192 0.13831 0
M  V30 971 C 92.0901 1.50305 0.876608 0
M  V30 972 O 93.2661 1.8315 0.837728 0
M  V30 973 C 90.3311 3.27656 1.13326 0
M  V30 974 C 89.3921 4.27445 0.39863 0
M  V30 975 C 88.6251 5.16443 1.34618 0
M  V30 976 O 88.8481 5.08553 2.58321 0
M  V30 977 O 87.7821 5.95843 0.851768 0
M  V30 978 H 91.6081 2.98002 -0.58552 0
M  V30 979 H 89.1931 1.45188 -0.352239 0
M  V30 980 H 91.0751 3.85291 1.70671 0
M  V30 981 H 89.7501 2.6643 1.83839 0
M  V30 982 H 88.6571 3.73471 -0.216895 0
M  V30 983 H 89.9901 4.91482 -0.265709 0
M  V30 984 N 91.6422 0.330177 1.54103 0
M  V30 985 C 92.6052 -0.520144 2.2322 0
M  V30 986 C 93.6052 -1.03828 1.22786 0
M  V30 987 O 94.7952 -0.929652 1.4732 0
M  V30 988 C 91.9272 -1.72317 2.94142 0
M  V30 989 H 93.1202 0.0841605 2.99782 0
M  V30 990 H 90.6732 0.0813433 1.56088 0
M  V30 991 H 91.4082 -2.36653 2.21734 0
M  V30 992 H 91.1932 -1.35898 3.67796 0
M  V30 993 H 92.6832 -2.3266 3.46784 0
M  V30 994 N 93.1203 -1.57491 0.0584922 0
M  V30 995 C 94.3693 -1.92155 -0.613146 0
M  V30 996 C 94.6823 -0.939334 -1.71569 0
M  V30 997 O 95.8883 -1.17829 -2.44599 0
M  V30 998 C 94.3443 -3.41303 -1.14195 0
M  V30 999 C 93.9523 -4.47944 -0.0711265 0
M  V30 1000 C 95.6963 -3.84988 -1.78841 0
M  V30 1001 C 93.6033 -5.88212 -0.613225 0
M  V30 1002 H 92.5333 -0.717162 -0.232796 0
M  V30 1003 H 95.1843 -1.83049 0.12857 0
M  V30 1004 H 93.5663 -3.45437 -1.93621 0
M  V30 1005 H 94.7403 -4.55408 0.702836 0
M  V30 1006 H 93.0553 -4.13644 0.478313 0
M  V30 1007 H 95.6523 -4.87159 -2.20408 0
M  V30 1008 H 95.9953 -3.21632 -2.64308 0
M  V30 1009 H 96.5283 -3.83401 -1.06059 0
M  V30 1010 H 93.2673 -6.55183 0.203978 0
M  V30 1011 H 92.7873 -5.84294 -1.35501 0
M  V30 1012 H 94.4663 -6.37687 -1.09383 0
M  V30 1013 N 94.5984 0.214957 -1.56127 0
M  V30 1014 C 95.5454 1.26642 -1.92952 0
M  V30 1015 C 96.5154 1.46244 -0.78753 0
M  V30 1016 O 97.7004 1.59704 -1.04399 0
M  V30 1017 C 94.8404 2.6104 -2.25726 0
M  V30 1018 C 93.9534 2.49183 -3.52891 0
M  V30 1019 C 93.0884 3.76149 -3.7508 0
M  V30 1020 C 92.1274 3.59041 -4.95738 0
M  V30 1021 N 91.2644 4.77972 -5.14283 0
M  V30 1022 H 96.1044 0.945384 -2.82607 0
M  V30 1023 H 93.6414 0.455489 -1.3987 0
M  V30 1024 H 95.5994 3.39313 -2.42739 0
M  V30 1025 H 94.2294 2.91227 -1.39236 0
M  V30 1026 H 93.2814 1.6231 -3.44034 0
M  V30 1027 H 94.5934 2.32466 -4.41318 0
M  V30 1028 H 93.7474 4.62865 -3.92226 0
M  V30 1029 H 92.4864 3.95799 -2.84947 0
M  V30 1030 H 91.4914 2.7071 -4.78535 0
M  V30 1031 H 92.7164 3.40856 -5.87362 0
M  V30 1032 H 90.6624 4.97923 -4.27093 0
M  V30 1033 H 90.5794 4.64006 -5.96853 0
M  V30 1034 H 91.8474 5.66096 -5.35869 0
M  V30 1035 N 96.0765 1.50051 0.48192 0
M  V30 1036 C 97.0235 1.68122 1.58125 0
M  V30 1037 C 97.9935 0.522545 1.57666 0
M  V30 1038 O 99.1785 0.751844 1.75362 0
M  V30 1039 C 96.3185 1.77142 2.96167 0
M  V30 1040 C 95.4315 3.0444 3.06497 0
M  V30 1041 C 94.5665 3.04321 4.35387 0
M  V30 1042 C 93.6055 4.26118 4.3942 0
M  V30 1043 N 92.7425 4.238 5.59766 0
M  V30 1044 H 97.5825 2.6198 1.42022 0
M  V30 1045 H 95.1195 1.29877 0.690687 0
M  V30 1046 H 97.0775 1.80352 3.76203 0
M  V30 1047 H 95.7075 0.867329 3.1093 0
M  V30 1048 H 94.7595 3.10752 2.19402 0
M  V30 1049 H 96.0715 3.94426 3.05336 0
M  V30 1050 H 95.2255 3.062 5.23762 0
M  V30 1051 H 93.9645 2.12147 4.39141 0
M  V30 1052 H 92.9695 4.24463 3.49444 0
M  V30 1053 H 94.1945 5.19507 4.37366 0
M  V30 1054 H 92.1405 3.34474 5.64326 0
M  V30 1055 H 92.0575 5.07542 5.60301 0
M  V30 1056 H 93.3255 4.2981 6.50295 0
M  V30 1057 N 97.5546 -0.734337 1.39446 0
M  V30 1058 C 98.5046 -1.83949 1.34709 0
M  V30 1059 C 99.4886 -1.59279 0.227851 0
M  V30 1060 O 100.681 -1.70771 0.465438 0
M  V30 1061 C 97.8096 -3.21884 1.19356 0
M  V30 1062 C 96.8956 -3.52381 2.35984 0
M  V30 1063 N 97.2866 -3.53811 3.61457 0
M  V30 1064 C 95.5846 -3.82747 2.28956 0
M  V30 1065 C 96.2856 -3.82122 4.38586 0
M  V30 1066 N 95.2616 -3.9993 3.68181 0
M  V30 1067 H 99.0636 -1.83361 2.29687 0
M  V30 1068 H 96.5776 -0.932609 1.32952 0
M  V30 1069 H 98.5746 -4.00998 1.14046 0
M  V30 1070 H 97.2346 -3.23711 0.253295 0
M  V30 1071 H 98.2456 -3.35107 3.94872 0
M  V30 1072 H 94.9226 -3.92175 1.43194 0
M  V30 1073 H 96.3126 -3.89691 5.47349 0
M  V30 1074 N 99.0327 -1.24633 -0.964593 0
M  V30 1075 C 99.9807 -1.03917 -2.08096 0
M  V30 1076 C 100.975 0.0268581 -1.69379 0
M  V30 1077 O 102.181 -0.127952 -1.79545 0
M  V30 1078 H 98.5557 -0.319044 -0.680966 0
M  V30 1079 H 100.527 -1.98581 -2.22729 0
M  V30 1080 C 99.2757 -0.663983 -3.41301 0
M  V30 1081 H 98.5987 -1.47605 -3.71555 0
M  V30 1082 H 100.039 -0.558663 -4.20303 0
M  V30 1083 C 98.4977 0.629169 -3.30973 0
M  V30 1084 O 99.0277 1.67404 -3.65156 0
M  V30 1085 N 97.2337 0.611057 -2.84103 0
M  V30 1086 H 96.7807 -0.239593 -2.56483 0
M  V30 1087 H 96.7387 1.47647 -2.77575 0
M  V30 1088 N 100.511 1.16574 -1.06058 0
M  V30 1089 C 101.757 1.87324 -0.777022 0
M  V30 1090 C 102.09 1.81351 0.694645 0
M  V30 1091 O 101.365 1.22753 1.50871 0
M  V30 1092 C 101.648 3.36991 -1.26922 0
M  V30 1093 C 101.501 3.51667 -2.80447 0
M  V30 1094 C 102.82 4.3131 -0.87521 0
M  V30 1095 H 99.9388 0.680191 -0.28374 0
M  V30 1096 H 102.581 1.37036 -1.3161 0
M  V30 1097 H 100.731 3.79949 -0.81063 0
M  V30 1098 H 102.403 3.17664 -3.34495 0
M  V30 1099 H 100.646 2.93656 -3.19294 0
M  V30 1100 H 101.317 4.56766 -3.0995 0
M  V30 1101 H 103.793 3.9624 -1.27014 0
M  V30 1102 H 102.669 5.34545 -1.2471 0
M  V30 1103 H 102.93 4.41552 0.220071 0
M  V30 1104 N 101.989 0.842826 1.3317 0
M  V30 1105 C 103.237 0.439577 1.97262 0
M  V30 1106 C 103.558 -1.00548 1.67078 0
M  V30 1107 O 102.828 -1.70098 0.971779 0
M  V30 1108 H 101.408 0.159558 0.72976 0
M  V30 1109 H 104.07 1.07665 1.62463 0
M  V30 1110 H 103.166 0.574886 3.0676 0
M  V30 1111 N 103.467 -1.45747 0.599634 0
M  V30 1112 C 104.713 -2.02592 0.0918643 0
M  V30 1113 C 105.046 -1.46806 -1.27128 0
M  V30 1114 O 104.321 -0.639658 -1.83681 0
M  V30 1115 C 104.604 -3.60073 0.0443398 0
M  V30 1116 C 104.457 -4.26208 1.43759 0
M  V30 1117 C 105.776 -4.35309 -0.647608 0
M  V30 1118 H 102.895 -0.736175 0.034857 0
M  V30 1119 H 105.537 -1.73694 0.770081 0
M  V30 1120 H 103.687 -3.84823 -0.533224 0
M  V30 1121 H 105.359 -4.12668 2.06162 0
M  V30 1122 H 103.602 -3.84916 2.00056 0
M  V30 1123 H 104.273 -5.35069 1.35665 0
M  V30 1124 H 106.749 -4.15805 -0.156776 0
M  V30 1125 H 105.625 -5.45038 -0.649942 0
M  V30 1126 H 105.886 -4.07598 -1.71219 0
M  V30 1127 N 104.945 -0.338344 -1.53925 0
M  V30 1128 C 105.892 0.520845 -2.24846 0
M  V30 1129 C 106.862 1.09976 -1.24477 0
M  V30 1130 O 108.047 1.13735 -1.53196 0
M  V30 1131 C 105.187 1.6685 -3.02084 0
M  V30 1132 C 104.3 1.11739 -4.17299 0
M  V30 1133 C 103.435 2.23193 -4.82036 0
M  V30 1134 C 102.474 1.65407 -5.89328 0
M  V30 1135 N 101.611 2.70582 -6.47866 0
M  V30 1136 H 106.451 -0.0904881 -2.97863 0
M  V30 1137 H 103.988 -0.0564282 -1.46992 0
M  V30 1138 H 105.946 2.34407 -3.45122 0
M  V30 1139 H 104.576 2.2509 -2.31375 0
M  V30 1140 H 103.628 0.332919 -3.7894 0
M  V30 1141 H 104.94 0.654677 -4.94485 0
M  V30 1142 H 104.094 2.98626 -5.28117 0
M  V30 1143 H 102.833 2.72807 -4.04262 0
M  V30 1144 H 101.838 0.884779 -5.42634 0
M  V30 1145 H 103.063 1.16652 -6.69006 0
M  V30 1146 H 101.009 3.1946 -5.72959 0
M  V30 1147 H 100.926 2.28917 -7.20509 0
M  V30 1148 H 102.194 3.45799 -6.98601 0
M  V30 1149 N 106.423 1.57458 -0.0668435 0
M  V30 1150 C 107.663 1.95175 0.607116 0
M  V30 1151 C 108.027 0.946039 1.67075 0
M  V30 1152 O 109.228 1.2107 2.39991 0
M  V30 1153 C 107.499 3.37582 1.17358 0
M  V30 1154 S 109.058 3.97271 1.86336 0
M  V30 1155 H 105.876 0.682604 0.19893 0
M  V30 1156 H 108.478 1.95002 -0.139519 0
M  V30 1157 H 107.182 4.08566 0.387553 0
M  V30 1158 H 106.713 3.41288 1.95669 0
M  V30 1159 H 108.728 3.83772 3.14537 0
M  V30 1160 N 107.901 -0.206675 1.56239 0
M  V30 1161 C 108.864 -1.23976 1.92776 0
M  V30 1162 C 109.864 -1.39041 0.807729 0
M  V30 1163 O 111.054 -1.37051 1.0753 0
M  V30 1164 C 108.186 -2.61112 2.19165 0
M  V30 1165 H 109.379 -0.927764 2.85189 0
M  V30 1166 H 106.932 -0.447718 1.4975 0
M  V30 1167 H 107.667 -2.97386 1.29352 0
M  V30 1168 H 107.452 -2.51552 3.00772 0
M  V30 1169 H 108.942 -3.35633 2.48476 0
M  V30 1170 N 109.379 -1.50304 -0.473955 0
M  V30 1171 C 110.607 -1.64902 -1.24959 0
M  V30 1172 C 111.022 -0.331198 -1.85872 0
M  V30 1173 O 110.379 0.68652 -1.69095 0
M  V30 1174 C 110.43 -2.73803 -2.36038 0
M  V30 1175 O 110.151 -4.00477 -1.77624 0
M  V30 1176 C 111.652 -2.99349 -3.26964 0
M  V30 1177 H 108.872 -0.554383 -0.378022 0
M  V30 1178 H 111.416 -1.9651 -0.566054 0
M  V30 1179 H 109.571 -2.44898 -3.00173 0
M  V30 1180 H 109.985 -4.60678 -2.5075 0
M  V30 1181 H 111.459 -3.79217 -4.01121 0
M  V30 1182 H 111.936 -2.10307 -3.85574 0
M  V30 1183 H 112.542 -3.29774 -2.68569 0
M  V30 1184 N 110.857 0.726932 -1.39834 0
M  V30 1185 C 112.106 1.48214 -1.36805 0
M  V30 1186 C 112.419 1.95576 0.0305291 0
M  V30 1187 O 113.625 2.7088 0.183417 0
M  V30 1188 C 112.081 2.67854 -2.40379 0
M  V30 1189 C 111.689 2.27408 -3.85992 0
M  V30 1190 C 113.433 3.45641 -2.46439 0
M  V30 1191 C 111.34 3.43819 -4.81189 0
M  V30 1192 H 110.27 0.556606 -0.508631 0
M  V30 1193 H 112.921 0.792216 -1.65518 0
M  V30 1194 H 111.303 3.3896 -2.04749 0
M  V30 1195 H 112.477 1.63795 -4.30706 0
M  V30 1196 H 110.792 1.62692 -3.83302 0
M  V30 1197 H 113.389 4.32244 -3.14753 0
M  V30 1198 H 113.732 3.88669 -1.49139 0
M  V30 1199 H 114.265 2.8157 -2.81004 0
M  V30 1200 H 111.004 3.05834 -5.79781 0
M  V30 1201 H 110.524 4.06385 -4.41148 0
M  V30 1202 H 112.203 4.10043 -5.00474 0
M  V30 1203 N 112.336 1.25143 0.95797 0
M  V30 1204 C 113.564 1.12424 1.73691 0
M  V30 1205 C 113.979 -0.322304 1.86029 0
M  V30 1206 O 113.336 -1.22186 1.35561 0
M  V30 1207 C 113.387 1.76933 3.15241 0
M  V30 1208 O 113.108 3.15932 3.03511 0
M  V30 1209 C 114.609 1.6995 4.09429 0
M  V30 1210 H 111.829 0.3923 0.544373 0
M  V30 1211 H 114.373 1.6544 1.20207 0
M  V30 1212 H 112.528 1.27895 3.6568 0
M  V30 1213 H 112.942 3.47598 3.9278 0
M  V30 1214 H 114.416 2.19753 5.06372 0
M  V30 1215 H 114.893 0.662619 4.34173 0
M  V30 1216 H 115.499 2.18461 3.64904 0
M  V30 1217 N 113.814 -1.1601 1.06675 0
M  V30 1218 C 115.225 -1.68235 0.809565 0
M  V30 1219 C 115.576 -1.8454 -0.666303 0
M  V30 1220 O 114.701 -1.54374 -1.5165 0
M  V30 1221 C 115.296 -3.05585 1.46299 0
M  V30 1222 C 113.855 -3.54915 1.25349 0
M  V30 1223 C 113.002 -2.30804 1.53703 0
M  V30 1224 H 115.953 -1.00318 1.22971 0
M  V30 1225 H 115.974 -3.70174 0.880431 0
M  V30 1226 H 115.486 -2.93686 2.53713 0
M  V30 1227 H 113.587 -3.72067 0.199261 0
M  V30 1228 H 113.7 -4.36774 1.9689 0
M  V30 1229 H 112.064 -2.36007 0.957739 0
M  V30 1230 H 112.847 -2.21499 2.62284 0
M  V30 1231 N 115.292 -0.849877 -1.32721 0
M  V30 1232 C 116.569 -0.372405 -1.92022 0
M  V30 1233 C 116.949 1.1435 -1.77447 0
M  V30 1234 O 116.297 1.96296 -1.16962 0
M  V30 1235 C 116.507 -0.831482 -3.3895 0
M  V30 1236 C 117.855 -0.845882 -4.16089 0
M  V30 1237 O 118.879 -0.775806 -3.47649 0
M  V30 1238 O 117.738 -0.943753 -5.38289 0
M  V30 1239 H 114.832 -0.107667 -0.819961 0
M  V30 1240 H 117.378 -0.93646 -1.41522 0
M  V30 1241 H 116.15 -1.87448 -3.4348 0
M  V30 1242 H 115.773 -0.24461 -3.96847 0
M  V30 1243 N 116.77 1.45427 -0.607355 0
M  V30 1244 C 117.68 2.34325 0.113463 0
M  V30 1245 C 118.696 1.51226 0.860617 0
M  V30 1246 O 119.872 1.84029 0.818255 0
M  V30 1247 C 116.937 3.28839 1.09844 0
M  V30 1248 C 115.998 4.27844 0.353271 0
M  V30 1249 C 115.231 5.17842 1.29133 0
M  V30 1250 O 115.454 5.11264 2.52913 0
M  V30 1251 O 114.388 5.96713 0.788523 0
M  V30 1252 H 118.214 2.97364 -0.617094 0
M  V30 1253 H 115.799 1.44807 -0.367619 0
M  V30 1254 H 117.681 3.8708 1.66575 0
M  V30 1255 H 116.356 2.68365 1.81003 0
M  V30 1256 H 115.263 3.7322 -0.256494 0
M  V30 1257 H 116.596 4.91173 -0.317822 0
M  V30 1258 N 118.248 0.346503 1.53744 0
M  V30 1259 C 119.195 -0.508914 2.25119 0
M  V30 1260 C 120.165 -1.09315 1.25058 0
M  V30 1261 O 121.35 -1.12921 1.53797 0
M  V30 1262 C 118.49 -1.65246 3.02965 0
M  V30 1263 C 117.603 -1.09525 4.17886 0
M  V30 1264 C 116.738 -2.20634 4.83212 0
M  V30 1265 C 115.777 -1.62279 5.90196 0
M  V30 1266 N 114.914 -2.67143 6.49291 0
M  V30 1267 H 119.754 0.106283 2.9781 0
M  V30 1268 H 117.291 0.0642227 1.4696 0
M  V30 1269 H 119.249 -2.32574 3.4636 0
M  V30 1270 H 117.879 -2.2386 2.32565 0
M  V30 1271 H 116.931 -0.312818 3.79112 0
M  V30 1272 H 118.243 -0.628444 4.94825 0
M  V30 1273 H 117.397 -2.95821 5.29693 0
M  V30 1274 H 116.136 -2.70659 4.05703 0
M  V30 1275 H 115.141 -0.855989 5.43096 0
M  V30 1276 H 116.366 -1.13102 6.69615 0
M  V30 1277 H 114.312 -3.16417 5.74645 0
M  V30 1278 H 114.229 -2.25093 7.21713 0
M  V30 1279 H 115.497 -3.4209 7.00425 0
M  V30 1280 N 119.726 -1.57421 0.075193 0
M  V30 1281 C 121.142 -1.57099 -0.281444 0
M  V30 1282 C 121.342 -1.08486 -1.69803 0
M  V30 1283 O 120.398 -0.752279 -2.41033 0
M  V30 1284 C 121.711 -3.00571 -0.0880041 0
M  V30 1285 C 123.259 -3.12605 -0.157281 0
M  V30 1286 C 123.734 -4.57999 0.0079207 0
M  V30 1287 N 125.225 -4.63176 -0.0475725 0
M  V30 1288 C 125.96 -5.73373 0.0557876 0
M  V30 1289 N 125.456 -6.92473 0.21286 0
M  V30 1290 N 127.249 -5.621 -0.00152098 0
M  V30 1291 H 119.4 -1.87335 1.00098 0
M  V30 1292 H 121.663 -0.86377 0.390646 0
M  V30 1293 H 121.369 -3.40262 0.889629 0
M  V30 1294 H 121.243 -3.67754 -0.838875 0
M  V30 1295 H 123.63 -2.72798 -1.1254 0
M  V30 1296 H 123.711 -2.48053 0.62475 0
M  V30 1297 H 123.355 -4.98496 0.972824 0
M  V30 1298 H 123.285 -5.20586 -0.793556 0
M  V30 1299 H 125.776 -3.7753 -0.167244 0
M  V30 1300 H 126.089 -7.72279 0.283781 0
M  V30 1301 H 124.434 -6.94556 0.248267 0
M  V30 1302 H 127.625 -4.67938 -0.122958 0
M  V30 1303 H 127.798 -6.47948 0.0824844 0
M  V30 1304 N 121.204 0.198386 -1.56346 0
M  V30 1305 C 122.45 0.920648 -1.80698 0
M  V30 1306 C 122.783 1.83045 -0.648697 0
M  V30 1307 O 122.058 1.91308 0.350925 0
M  V30 1308 C 122.341 1.73971 -3.15287 0
M  V30 1309 C 122.194 0.85485 -4.41602 0
M  V30 1310 C 123.513 2.71296 -3.46535 0
M  V30 1311 H 120.632 0.333261 -0.657348 0
M  V30 1312 H 123.274 0.188198 -1.89066 0
M  V30 1313 H 121.424 2.36416 -3.08285 0
M  V30 1314 H 123.096 0.245362 -4.60647 0
M  V30 1315 H 121.339 0.161398 -4.335 0
M  V30 1316 H 122.01 1.46286 -5.32264 0
M  V30 1317 H 124.486 2.18983 -3.53816 0
M  V30 1318 H 123.362 3.2569 -4.41834 0
M  V30 1319 H 123.623 3.5018 -2.69864 0
M  V30 1320 N 122.682 1.50554 0.465978 0
M  V30 1321 C 123.592 1.72585 1.58907 0
M  V30 1322 C 124.608 0.60911 1.6299 0
M  V30 1323 O 125.784 0.88804 1.80765 0
M  V30 1324 C 122.849 1.81995 2.95091 0
M  V30 1325 C 121.91 3.05751 3.01355 0
M  V30 1326 C 121.143 3.14702 4.31043 0
M  V30 1327 O 121.366 2.30313 5.21835 0
M  V30 1328 O 120.3 4.07468 4.43005 0
M  V30 1329 H 124.126 2.67799 1.43239 0
M  V30 1330 H 121.711 1.34711 0.646013 0
M  V30 1331 H 123.593 1.90335 3.75966 0
M  V30 1332 H 122.268 0.899659 3.10947 0
M  V30 1333 H 121.175 3.02908 2.19539 0
M  V30 1334 H 122.508 3.97375 2.90437 0
M  V30 1335 N 124.16 -0.719506 1.40217 0
M  V30 1336 C 125.07 -1.86378 1.42479 0
M  V30 1337 C 126.086 -1.71073 0.317834 0
M  V30 1338 O 127.262 -1.93406 0.561794 0
M  V30 1339 C 124.327 -3.22136 1.28178 0
M  V30 1340 C 123.388 -3.49723 2.48982 0
M  V30 1341 C 122.621 -4.79004 2.35353 0
M  V30 1342 O 122.844 -5.53821 1.36524 0
M  V30 1343 O 121.778 -5.06839 3.2465 0
M  V30 1344 H 125.604 -1.87425 2.38968 0
M  V30 1345 H 123.189 -0.869405 1.21498 0
M  V30 1346 H 125.071 -4.03234 1.22395 0
M  V30 1347 H 123.746 -3.21825 0.347934 0
M  V30 1348 H 122.653 -2.6865 2.60342 0
M  V30 1349 H 123.986 -3.54828 3.41113 0
M  V30 1350 N 125.638 -1.25649 -0.95132 0
M  V30 1351 C 126.885 -1.10594 -1.69633 0
M  V30 1352 C 127.213 0.352515 -1.91279 0
M  V30 1353 O 126.468 1.27601 -1.4838 0
M  V30 1354 C 126.767 -1.80909 -3.08231 0
M  V30 1355 C 126.433 -3.30825 -3.06375 0
M  V30 1356 C 125.095 -3.71722 -3.05576 0
M  V30 1357 C 127.447 -4.26589 -2.99452 0
M  V30 1358 C 124.775 -5.06788 -2.95606 0
M  V30 1359 C 127.127 -5.61683 -2.91024 0
M  V30 1360 C 125.791 -6.01904 -2.88562 0
M  V30 1361 H 125.061 -0.404691 -0.620731 0
M  V30 1362 H 127.708 -1.55964 -1.11119 0
M  V30 1363 H 126.013 -1.27979 -3.70309 0
M  V30 1364 H 127.71 -1.6671 -3.64704 0
M  V30 1365 H 124.3 -2.98287 -3.07771 0
M  V30 1366 H 128.484 -3.95982 -2.99185 0
M  V30 1367 H 123.74 -5.37126 -2.92071 0
M  V30 1368 H 127.914 -6.35578 -2.84629 0
M  V30 1369 H 125.541 -7.06521 -2.80593 0
M  V30 1370 N 127.117 1.15442 -1.07289 0
M  V30 1371 C 128.064 2.20161 -0.692653 0
M  V30 1372 C 129.034 1.63073 0.31564 0
M  V30 1373 O 130.219 1.89725 0.202235 0
M  V30 1374 C 127.359 3.44967 -0.0959509 0
M  V30 1375 C 126.472 4.16256 -1.15564 0
M  V30 1376 C 125.607 5.28609 -0.524011 0
M  V30 1377 C 124.646 5.91715 -1.56653 0
M  V30 1378 N 123.783 6.9554 -0.957531 0
M  V30 1379 H 128.623 2.52037 -1.59002 0
M  V30 1380 H 126.16 1.2378 -0.794798 0
M  V30 1381 H 128.118 4.16341 0.267628 0
M  V30 1382 H 126.748 3.1361 0.764772 0
M  V30 1383 H 125.8 3.43385 -1.6368 0
M  V30 1384 H 127.112 4.59268 -1.94613 0
M  V30 1385 H 126.266 6.06604 -0.108032 0
M  V30 1386 H 125.005 4.86787 0.29825 0
M  V30 1387 H 124.01 5.12433 -1.9923 0
M  V30 1388 H 125.235 6.35614 -2.39107 0
M  V30 1389 H 123.181 6.55814 -0.156162 0
M  V30 1390 H 123.098 7.36977 -1.68526 0
M  V30 1391 H 124.366 7.77435 -0.567032 0
M  V30 1392 N 128.595 0.856903 1.32268 0
M  V30 1393 C 129.525 0.31858 2.31316 0
M  V30 1394 C 130.506 -0.583487 1.59779 0
M  V30 1395 O 131.691 -0.503259 1.87566 0
M  V30 1396 C 128.821 -0.491979 3.43798 0
M  V30 1397 C 127.775 0.315849 4.26833 0
M  V30 1398 C 127.101 -0.619586 5.31098 0
M  V30 1399 C 128.401 1.54282 4.98993 0
M  V30 1400 H 130.095 1.14621 2.76591 0
M  V30 1401 H 127.641 0.552613 1.32974 0
M  V30 1402 H 129.594 -0.879012 4.1213 0
M  V30 1403 H 128.318 -1.35299 2.97257 0
M  V30 1404 H 126.977 0.684664 3.6015 0
M  V30 1405 H 126.625 -1.47751 4.8081 0
M  V30 1406 H 126.325 -0.0830621 5.87541 0
M  V30 1407 H 127.849 -1.00375 6.02293 0
M  V30 1408 H 129.263 1.22796 5.59995 0
M  V30 1409 H 127.66 2.01745 5.65172 0
M  V30 1410 H 128.73 2.30285 4.26728 0
M  V30 1411 N 130.073 -1.45103 0.615059 0
M  V30 1412 C 131.02 -2.30586 -0.0993978 0
M  V30 1413 C 131.99 -1.42544 -0.852669 0
M  V30 1414 O 133.175 -1.71465 -0.836917 0
M  V30 1415 C 130.315 -3.27572 -1.08583 0
M  V30 1416 C 129.428 -4.30717 -0.332656 0
M  V30 1417 C 128.563 -5.14807 -1.30947 0
M  V30 1418 C 127.602 -6.09673 -0.544538 0
M  V30 1419 N 126.739 -6.86517 -1.47101 0
M  V30 1420 H 131.579 -2.91144 0.635542 0
M  V30 1421 H 129.116 -1.4346 0.325206 0
M  V30 1422 H 131.074 -3.82276 -1.67095 0
M  V30 1423 H 129.704 -2.68751 -1.78809 0
M  V30 1424 H 128.756 -3.78615 0.368107 0
M  V30 1425 H 130.068 -4.98102 0.263842 0
M  V30 1426 H 129.222 -5.73948 -1.96643 0
M  V30 1427 H 127.961 -4.47458 -1.9399 0
M  V30 1428 H 126.966 -5.49656 0.126003 0
M  V30 1429 H 128.191 -6.79052 0.080947 0
M  V30 1430 H 126.137 -6.21851 -2.08895 0
M  V30 1431 H 126.054 -7.50281 -0.928137 0
M  V30 1432 H 127.322 -7.50194 -2.11731 0
M  V30 1433 N 131.551 -0.354651 -1.53558 0
M  V30 1434 C 132.483 0.5315 -2.22952 0
M  V30 1435 C 133.496 1.05503 -1.23988 0
M  V30 1436 O 134.685 0.963279 -1.50277 0
M  V30 1437 C 131.785 1.74538 -2.90499 0
M  V30 1438 C 130.958 1.35524 -4.15875 0
M  V30 1439 C 130.017 2.42999 -4.66731 0
M  V30 1440 O 129.043 2.05844 -5.30676 0
M  V30 1441 N 130.245 3.74423 -4.43608 0
M  V30 1442 H 133.01 -0.0628615 -2.99634 0
M  V30 1443 H 130.571 -0.179302 -1.60904 0
M  V30 1444 H 132.563 2.45892 -3.21433 0
M  V30 1445 H 131.133 2.24686 -2.17336 0
M  V30 1446 H 130.353 0.471998 -3.91364 0
M  V30 1447 H 131.641 1.07071 -4.97406 0
M  V30 1448 H 131.039 4.07391 -3.92491 0
M  V30 1449 H 129.596 4.41913 -4.7912 0
M  V30 1450 N 133.029 1.57378 -0.0835403 0
M  V30 1451 C 133.962 2.09016 0.915833 0
M  V30 1452 C 134.94 0.997993 1.2837 0
M  V30 1453 O 136.124 1.27219 1.39096 0
M  V30 1454 C 133.251 2.55757 2.22049 0
M  V30 1455 C 132.297 3.76522 2.00333 0
M  V30 1456 S 133.13 5.20661 1.25191 0
M  V30 1457 C 134.286 5.70743 2.56912 0
M  V30 1458 H 134.519 2.93457 0.476492 0
M  V30 1459 H 132.052 1.53856 0.129493 0
M  V30 1460 H 134.01 2.83346 2.97027 0
M  V30 1461 H 132.671 1.71564 2.63106 0
M  V30 1462 H 131.864 4.07256 2.96916 0
M  V30 1463 H 131.466 3.49367 1.33488 0
M  V30 1464 H 133.758 5.78304 3.52946 0
M  V30 1465 H 134.701 6.6944 2.30772 0
M  V30 1466 H 135.109 4.98616 2.64655 0
M  V30 1467 N 134.507 -0.190092 1.56449 0
M  V30 1468 C 135.753 -0.906472 1.82084 0
M  V30 1469 C 136.108 -1.80677 0.661335 0
M  V30 1470 O 135.401 -1.88501 -0.343237 0
M  V30 1471 C 135.595 -1.75382 3.1141 0
M  V30 1472 C 135.424 -0.937053 4.39829 0
M  V30 1473 C 134.194 -0.619507 5.01488 0
M  V30 1474 C 136.392 -0.2874 5.13496 0
M  V30 1475 N 134.374 0.215367 6.13522 0
M  V30 1476 C 135.745 0.409454 6.18646 0
M  V30 1477 C 137.8 -0.203639 4.97483 0
M  V30 1478 C 136.503 1.1821 7.0952 0
M  V30 1479 C 138.529 0.555622 5.88784 0
M  V30 1480 C 137.891 1.24091 6.93384 0
M  V30 1481 H 133.99 -0.310931 0.717528 0
M  V30 1482 H 136.574 -0.174821 1.93914 0
M  V30 1483 H 134.745 -2.45703 3.00806 0
M  V30 1484 H 136.477 -2.41006 3.25112 0
M  V30 1485 H 133.232 -0.945126 4.64074 0
M  V30 1486 H 133.656 0.622562 6.74131 0
M  V30 1487 H 138.298 -0.719099 4.1664 0
M  V30 1488 H 136.016 1.70897 7.89823 0
M  V30 1489 H 139.602 0.621854 5.78467 0
M  V30 1490 H 138.482 1.81901 7.62812 0
M  V30 1491 N 135.985 -1.50799 -0.457987 0
M  V30 1492 C 136.932 -1.70617 -1.5543 0
M  V30 1493 C 137.902 -0.547562 -1.56815 0
M  V30 1494 O 139.087 -0.779647 -1.74144 0
M  V30 1495 C 136.227 -1.81831 -2.93311 0
M  V30 1496 C 135.34 -3.09278 -3.01615 0
M  V30 1497 C 134.475 -3.11209 -4.30491 0
M  V30 1498 C 133.514 -4.33055 -4.32585 0
M  V30 1499 N 132.651 -4.32652 -5.52952 0
M  V30 1500 H 137.491 -2.64207 -1.37836 0
M  V30 1501 H 135.028 -1.30959 -0.669937 0
M  V30 1502 H 136.986 -1.86314 -3.73287 0
M  V30 1503 H 135.616 -0.916685 -3.0951 0
M  V30 1504 H 134.668 -3.14203 -2.1443 0
M  V30 1505 H 135.98 -3.99233 -2.99022 0
M  V30 1506 H 135.134 -3.14494 -5.18824 0
M  V30 1507 H 133.873 -2.19106 -4.35711 0
M  V30 1508 H 132.878 -4.29969 -3.42647 0
M  V30 1509 H 134.103 -5.264 -4.29046 0
M  V30 1510 H 132.049 -3.43409 -5.58933 0
M  V30 1511 H 131.966 -5.16392 -5.52155 0
M  V30 1512 H 133.234 -4.40101 -6.43375 0
M  V30 1513 N 137.463 0.71206 -1.40597 0
M  V30 1514 C 138.688 1.50617 -1.42581 0
M  V30 1515 C 139.113 1.88079 -0.0282102 0
M  V30 1516 O 138.471 1.53511 0.964579 0
M  V30 1517 C 138.519 2.7557 -2.3258 0
M  V30 1518 O 137.623 3.72414 -1.77148 0
M  V30 1519 H 136.964 0.453966 -0.484573 0
M  V30 1520 H 139.494 0.876649 -1.84868 0
M  V30 1521 H 139.504 3.2406 -2.47889 0
M  V30 1522 H 138.179 2.47639 -3.34138 0
M  V30 1523 H 136.756 3.31276 -1.71204 0
M  V30 1524 N 138.941 1.26152 0.944643 0
M  V30 1525 C 140.352 1.10454 1.50522 0
M  V30 1526 C 140.703 -0.31635 1.93633 0
M  V30 1527 O 139.828 -1.20746 1.79581 0
M  V30 1528 C 140.423 1.99891 2.73549 0
M  V30 1529 C 138.982 1.88348 3.25886 0
M  V30 1530 C 138.129 1.93447 1.9868 0
M  V30 1531 H 141.08 1.39292 0.760489 0
M  V30 1532 H 141.101 1.54477 3.47732 0
M  V30 1533 H 140.613 3.03297 2.42141 0
M  V30 1534 H 138.714 0.878636 3.62092 0
M  V30 1535 H 138.827 2.73696 3.93227 0
M  V30 1536 H 137.191 1.37456 2.14425 0
M  V30 1537 H 137.974 2.98476 1.69607 0
M  V30 1538 N 140.419 -1.14872 1.07899 0
M  V30 1539 C 141.367 -2.21857 0.698727 0
M  V30 1540 C 142.361 -1.66845 -0.293086 0
M  V30 1541 O 143.567 -1.79321 -0.156204 0
M  V30 1542 H 139.942 -0.722691 0.207899 0
M  V30 1543 H 141.913 -2.51205 1.61054 0
M  V30 1544 C 140.662 -3.47498 0.11858 0
M  V30 1545 H 139.985 -3.90154 0.872914 0
M  V30 1546 H 141.425 -4.23858 -0.109759 0
M  V30 1547 C 139.884 -3.16947 -1.1422 0
M  V30 1548 O 140.414 -3.3426 -2.22785 0
M  V30 1549 N 138.62 -2.70946 -1.05055 0
M  V30 1550 H 138.167 -2.57058 -0.167038 0
M  V30 1551 H 138.125 -2.50879 -1.89491 0
M  V30 1552 N 141.898 -0.863906 -1.31812 0
M  V30 1553 C 143.146 -0.470904 -1.96537 0
M  V30 1554 C 143.467 0.978771 -1.68657 0
M  V30 1555 O 142.737 1.6853 -0.998717 0
M  V30 1556 H 141.317 -0.171148 -0.72713 0
M  V30 1557 H 143.979 -1.10236 -1.60729 0
M  V30 1558 H 143.075 -0.623616 -3.05806 0
M  V30 1559 N 143.376 1.44774 -0.622745 0
M  V30 1560 C 144.604 2.06487 -0.130722 0
M  V30 1561 C 145.019 1.46476 1.19123 0
M  V30 1562 O 144.376 0.584502 1.72887 0
M  V30 1563 C 144.427 3.615 -0.000807207 0
M  V30 1564 O 144.148 4.19274 -1.27048 0
M  V30 1565 C 145.649 4.40229 0.520898 0
M  V30 1566 H 142.869 0.666704 -0.0758106 0
M  V30 1567 H 145.413 1.85779 -0.854774 0
M  V30 1568 H 143.568 3.81498 0.673643 0
M  V30 1569 H 143.982 5.12622 -1.1099 0
M  V30 1570 H 145.456 5.49144 0.560838 0
M  V30 1571 H 145.933 4.1108 1.54627 0
M  V30 1572 H 146.539 4.25131 -0.120018 0
M  V30 1573 N 144.854 0.36279 1.53368 0
M  V30 1574 C 146.103 -0.22888 2.00397 0
M  V30 1575 C 146.416 -1.50096 1.25421 0
M  V30 1576 O 147.622 -2.17106 1.63025 0
M  V30 1577 C 146.078 -0.458417 3.56969 0
M  V30 1578 C 145.686 0.798877 4.4082 0
M  V30 1579 C 147.43 -1.00789 4.12361 0
M  V30 1580 C 145.337 0.539078 5.88938 0
M  V30 1581 H 144.267 -0.089305 0.748693 0
M  V30 1582 H 146.918 0.481099 1.77081 0
M  V30 1583 H 145.3 -1.22959 3.76427 0
M  V30 1584 H 146.474 1.57262 4.33134 0
M  V30 1585 H 144.789 1.27137 3.96516 0
M  V30 1586 H 147.386 -1.21754 5.20653 0
M  V30 1587 H 147.729 -1.9692 3.66781 0
M  V30 1588 H 148.262 -0.296961 3.9669 0
M  V30 1589 H 145.001 1.47064 6.3879 0
M  V30 1590 H 144.521 -0.196222 5.99479 0
M  V30 1591 H 146.2 0.163542 6.46793 0
M  V30 1592 N 146.332 -1.57332 0.0918853 0
M  V30 1593 C 147.748 -1.57389 -0.264766 0
M  V30 1594 C 147.948 -1.10281 -1.68643 0
M  V30 1595 O 147.004 -0.777801 -2.40222 0
M  V30 1596 C 148.317 -3.00648 -0.0561195 0
M  V30 1597 C 149.865 -3.12754 -0.124116 0
M  V30 1598 C 150.34 -4.57965 0.0564972 0
M  V30 1599 N 151.831 -4.632 0.00155611 0
M  V30 1600 C 152.566 -5.73281 0.116598 0
M  V30 1601 N 152.062 -6.92208 0.286294 0
M  V30 1602 N 153.855 -5.6207 0.0580973 0
M  V30 1603 H 146.006 -1.86262 1.02079 0
M  V30 1604 H 148.269 -0.859579 0.399786 0
M  V30 1605 H 147.975 -3.393 0.925669 0
M  V30 1606 H 147.849 -3.68623 -0.799823 0
M  V30 1607 H 150.236 -2.73976 -1.09641 0
M  V30 1608 H 150.317 -2.47377 0.651024 0
M  V30 1609 H 149.961 -4.97436 1.02564 0
M  V30 1610 H 149.891 -5.21399 -0.738297 0
M  V30 1611 H 152.382 -3.77686 -0.127192 0
M  V30 1612 H 152.695 -7.71934 0.365676 0
M  V30 1613 H 151.04 -6.94254 0.32192 0
M  V30 1614 H 154.231 -4.68043 -0.0733204 0
M  V30 1615 H 154.404 -6.47824 0.151203 0
M  V30 1616 N 147.81 0.181792 -1.56548 0
M  V30 1617 C 148.758 1.24461 -1.965 0
M  V30 1618 C 149.752 1.464 -0.852261 0
M  V30 1619 O 150.958 1.47103 -1.03733 0
M  V30 1620 H 147.333 0.418138 -0.625031 0
M  V30 1621 H 149.304 0.880714 -2.85107 0
M  V30 1622 C 148.053 2.57891 -2.33212 0
M  V30 1623 H 147.376 2.41829 -3.18369 0
M  V30 1624 H 148.816 3.3097 -2.65019 0
M  V30 1625 C 147.275 3.15871 -1.17163 0
M  V30 1626 O 147.805 3.9913 -0.453708 0
M  V30 1627 N 146.011 2.74808 -0.944936 0
M  V30 1628 H 145.558 2.07205 -1.53049 0
M  V30 1629 H 145.516 3.13939 -0.170286 0
M  V30 1630 N 149.288 1.51039 0.449983 0
M  V30 1631 C 150.537 1.62317 1.19733 0
M  V30 1632 C 150.85 0.339101 1.92638 0
M  V30 1633 O 152.056 0.331069 2.69474 0
M  V30 1634 C 150.512 2.86608 2.17678 0
M  V30 1635 C 150.12 4.21972 1.50479 0
M  V30 1636 C 151.864 3.07239 2.92924 0
M  V30 1637 C 149.771 5.37426 2.46834 0
M  V30 1638 H 148.701 0.604532 0.450619 0
M  V30 1639 H 151.352 1.77494 0.465625 0
M  V30 1640 H 149.734 2.65037 2.94231 0
M  V30 1641 H 150.908 4.53878 0.795716 0
M  V30 1642 H 149.223 4.07117 0.874344 0
M  V30 1643 H 151.82 3.90668 3.65079 0
M  V30 1644 H 152.163 2.19807 3.5354 0
M  V30 1645 H 152.696 3.29091 2.23481 0
M  V30 1646 H 149.435 6.27079 1.90926 0
M  V30 1647 H 148.955 5.09912 3.15832 0
M  V30 1648 H 150.634 5.68862 3.08228 0
M  V30 1649 N 150.766 -0.704594 1.40972 0
M  V30 1650 C 151.696 -1.83124 1.44872 0
M  V30 1651 C 152.677 -1.67281 0.30838 0
M  V30 1652 O 153.862 -1.87149 0.518556 0
M  V30 1653 C 150.992 -3.21181 1.32136 0
M  V30 1654 C 149.946 -3.51714 2.43888 0
M  V30 1655 C 149.272 -4.89032 2.16222 0
M  V30 1656 C 150.572 -3.516 3.86232 0
M  V30 1657 H 152.266 -1.80117 2.39161 0
M  V30 1658 H 149.812 -0.865145 1.15114 0
M  V30 1659 H 151.765 -3.99702 1.33479 0
M  V30 1660 H 150.489 -3.24791 0.343279 0
M  V30 1661 H 149.148 -2.75539 2.41813 0
M  V30 1662 H 148.796 -4.89256 1.16778 0
M  V30 1663 H 148.496 -5.10426 2.911 0
M  V30 1664 H 150.02 -5.69873 2.19265 0
M  V30 1665 H 151.434 -4.2014 3.9007 0
M  V30 1666 H 149.831 -3.84523 4.60719 0
M  V30 1667 H 150.901 -2.50757 4.15029 0
M  V30 1668 N 152.244 -1.26651 -0.937939 0
M  V30 1669 C 153.492 -1.12165 -1.68118 0
M  V30 1670 C 153.813 0.334983 -1.92101 0
M  V30 1671 O 153.083 1.23583 -1.52 0
M  V30 1672 H 151.663 -0.412093 -0.623048 0
M  V30 1673 H 154.325 -1.59027 -1.12678 0
M  V30 1674 H 153.421 -1.64289 -2.6536 0
M  V30 1675 N 153.722 1.14298 -1.08507 0
M  V30 1676 C 154.97 1.84993 -0.813763 0
M  V30 1677 C 155.291 1.83405 0.662393 0
M  V30 1678 O 154.561 1.28319 1.48024 0
M  V30 1679 H 153.141 0.684966 -0.298045 0
M  V30 1680 H 155.803 1.385 -1.37126 0
M  V30 1681 H 154.899 2.89788 -1.15884 0
M  V30 1682 N 155.201 0.870884 1.31352 0
M  V30 1683 C 156.429 0.49677 2.00848 0
M  V30 1684 C 156.844 -0.910998 1.65367 0
M  V30 1685 O 156.201 -1.59696 0.883374 0
M  V30 1686 C 156.252 0.645308 3.55694 0
M  V30 1687 O 155.973 1.99764 3.89905 0
M  V30 1688 C 157.474 0.272326 4.42463 0
M  V30 1689 H 154.694 0.193462 0.642506 0
M  V30 1690 H 157.238 1.1723 1.67563 0
M  V30 1691 H 155.393 0.0173176 3.87396 0
M  V30 1692 H 155.807 2.00607 4.84621 0
M  V30 1693 H 157.281 0.427208 5.50344 0
M  V30 1694 H 157.758 -0.788587 4.32062 0
M  V30 1695 H 158.364 0.876054 4.1618 0
M  V30 1696 N 156.679 -1.44442 0.630414 0
M  V30 1697 C 157.925 -2.02351 0.134816 0
M  V30 1698 C 158.258 -1.4947 -1.23986 0
M  V30 1699 O 157.533 -0.678475 -1.82283 0
M  V30 1700 C 157.816 -3.59898 0.120707 0
M  V30 1701 C 157.669 -4.23063 1.52767 0
M  V30 1702 C 158.988 -4.36585 -0.555127 0
M  V30 1703 H 156.107 -0.73527 0.0504646 0
M  V30 1704 H 158.749 -1.72022 0.806751 0
M  V30 1705 H 156.899 -3.85868 -0.451477 0
M  V30 1706 H 158.571 -4.08202 2.14869 0
M  V30 1707 H 156.814 -3.80586 2.08175 0
M  V30 1708 H 157.485 -5.32071 1.46984 0
M  V30 1709 H 159.961 -4.16044 -0.0685429 0
M  V30 1710 H 158.837 -5.46294 -0.534185 0
M  V30 1711 H 159.098 -4.11138 -1.62535 0
M  V30 1712 N 158.157 -0.370918 -1.53173 0
M  V30 1713 C 159.404 0.217102 -2.01333 0
M  V30 1714 C 159.732 1.48338 -1.25802 0
M  V30 1715 O 158.987 1.92698 -0.34146 0
M  V30 1716 C 159.286 0.549696 -3.53147 0
M  V30 1717 C 158.952 -0.622872 -4.46577 0
M  V30 1718 C 157.614 -0.944595 -4.71838 0
M  V30 1719 C 159.966 -1.40819 -5.01816 0
M  V30 1720 C 157.294 -2.05351 -5.49589 0
M  V30 1721 C 159.646 -2.50757 -5.80778 0
M  V30 1722 C 158.31 -2.83458 -6.04324 0
M  V30 1723 H 157.58 0.0794431 -0.736729 0
M  V30 1724 H 160.227 -0.504481 -1.84736 0
M  V30 1725 H 158.532 1.35237 -3.6772 0
M  V30 1726 H 160.229 1.017 -3.87889 0
M  V30 1727 H 156.819 -0.36209 -4.27068 0
M  V30 1728 H 161.003 -1.17289 -4.82242 0
M  V30 1729 H 156.259 -2.3108 -5.6605 0
M  V30 1730 H 160.433 -3.12022 -6.22588 0
M  V30 1731 H 158.06 -3.69508 -6.64355 0
M  V30 1732 N 159.635 1.57281 -0.100228 0
M  V30 1733 C 161.051 1.57527 0.256416 0
M  V30 1734 C 161.251 1.11173 1.68056 0
M  V30 1735 O 160.307 0.79053 2.39806 0
M  V30 1736 C 161.62 3.00673 0.0401747 0
M  V30 1737 C 163.168 3.12815 0.107528 0
M  V30 1738 C 163.643 4.57929 -0.0807834 0
M  V30 1739 N 165.134 4.63193 -0.0261207 0
M  V30 1740 C 165.869 5.73212 -0.146999 0
M  V30 1741 N 165.365 6.92047 -0.322999 0
M  V30 1742 N 167.158 5.62031 -0.0879044 0
M  V30 1743 H 159.309 1.85718 -1.03065 0
M  V30 1744 H 161.572 0.857446 -0.404339 0
M  V30 1745 H 161.278 3.38804 -0.943649 0
M  V30 1746 H 161.152 3.69042 0.780262 0
M  V30 1747 H 163.539 2.74554 1.08186 0
M  V30 1748 H 163.62 2.47028 -0.664134 0
M  V30 1749 H 163.264 4.96886 -1.05201 0
M  V30 1750 H 163.194 5.21783 0.710635 0
M  V30 1751 H 165.685 3.77748 0.107161 0
M  V30 1752 H 165.998 7.7173 -0.406608 0
M  V30 1753 H 164.343 6.94074 -0.358733 0
M  V30 1754 H 167.534 4.68075 0.048498 0
M  V30 1755 H 167.707 6.47734 -0.185557 0
M  V30 1756 N 161.113 -0.173488 1.56642 0
M  V30 1757 C 162.023 -1.23482 1.99473 0
M  V30 1758 C 163.039 -1.48567 0.905752 0
M  V30 1759 O 164.215 -1.60758 1.21321 0
M  V30 1760 C 161.28 -2.55444 2.34413 0
M  V30 1761 C 160.341 -2.38241 3.57127 0
M  V30 1762 C 159.574 -3.63909 3.90392 0
M  V30 1763 O 159.797 -4.68996 3.24653 0
M  V30 1764 O 158.731 -3.58149 4.83749 0
M  V30 1765 H 162.557 -0.901279 2.90018 0
M  V30 1766 H 160.142 -0.380185 1.44482 0
M  V30 1767 H 162.024 -3.33292 2.57865 0
M  V30 1768 H 160.699 -2.88382 1.4703 0
M  V30 1769 H 159.606 -1.58431 3.38896 0
M  V30 1770 H 160.939 -2.10228 4.45045 0
M  V30 1771 N 162.591 -1.51276 -0.441967 0
M  V30 1772 C 163.554 -1.7167 -1.51862 0
M  V30 1773 C 164.554 -0.586793 -1.49711 0
M  V30 1774 O 165.744 -0.854276 -1.51815 0
M  V30 1775 C 162.876 -1.76889 -2.91416 0
M  V30 1776 H 164.069 -2.67754 -1.35084 0
M  V30 1777 H 161.622 -1.41196 -0.670333 0
M  V30 1778 H 162.357 -0.826026 -3.13604 0
M  V30 1779 H 162.142 -2.59001 -2.94382 0
M  V30 1780 H 163.632 -1.94522 -3.69528 0
M  V30 1781 N 164.069 0.697108 -1.41344 0
M  V30 1782 C 165.318 1.45279 -1.39918 0
M  V30 1783 C 165.631 1.95597 -0.0109624 0
M  V30 1784 O 166.837 2.71208 0.125919 0
M  V30 1785 C 165.293 2.62695 -2.46007 0
M  V30 1786 C 164.901 2.19169 -3.90729 0
M  V30 1787 C 166.645 3.40336 -2.53715 0
M  V30 1788 C 164.552 3.33535 -4.88373 0
M  V30 1789 H 163.482 0.545692 -0.520323 0
M  V30 1790 H 166.133 0.756929 -1.67161 0
M  V30 1791 H 164.515 3.34541 -2.11892 0
M  V30 1792 H 165.689 1.54623 -4.34083 0
M  V30 1793 H 164.004 1.54525 -3.86666 0
M  V30 1794 H 166.601 4.2547 -3.2385 0
M  V30 1795 H 166.944 3.85418 -1.5735 0
M  V30 1796 H 167.477 2.75546 -2.86913 0
M  V30 1797 H 164.216 2.93468 -5.86137 0
M  V30 1798 H 163.736 3.96936 -4.49668 0
M  V30 1799 H 165.415 3.99335 -5.09059 0
M  V30 1800 N 165.547 1.27147 0.931209 0
M  V30 1801 C 166.796 1.12664 1.67302 0
M  V30 1802 C 167.109 -0.327718 1.92835 0
M  V30 1803 O 168.315 -0.593392 2.64936 0
M  V30 1804 C 166.771 1.9683 3.01307 0
M  V30 1805 C 166.379 3.46901 2.83485 0
M  V30 1806 C 168.123 1.90985 3.79111 0
M  V30 1807 C 166.03 4.23279 4.13024 0
M  V30 1808 H 164.96 0.41803 0.627509 0
M  V30 1809 H 167.611 1.51539 1.03481 0
M  V30 1810 H 165.993 1.50797 3.66164 0
M  V30 1811 H 167.167 4.00773 2.27415 0
M  V30 1812 H 165.482 3.54088 2.19113 0
M  V30 1813 H 168.079 2.45328 4.75098 0
M  V30 1814 H 168.422 0.882718 4.06834 0
M  V30 1815 H 168.955 2.34895 3.21044 0
M  V30 1816 H 165.694 5.26503 3.90481 0
M  V30 1817 H 165.214 3.74186 4.6877 0
M  V30 1818 H 166.893 4.32265 4.81411 0
M  V30 1819 N 167.025 -1.13721 1.09112 0
M  V30 1820 C 168.265 -1.86576 0.834801 0
M  V30 1821 C 168.629 -1.81435 -0.628122 0
M  V30 1822 O 169.83 -2.49497 -1.00024 0
M  V30 1823 C 168.101 -3.30872 1.35124 0
M  V30 1824 S 169.66 -4.21257 1.22832 0
M  V30 1825 H 166.478 -0.643666 0.302017 0
M  V30 1826 H 169.08 -1.37085 1.39385 0
M  V30 1827 H 167.784 -3.32166 2.41027 0
M  V30 1828 H 167.315 -3.85423 0.788185 0
M  V30 1829 H 169.33 -4.95884 0.177191 0
M  V30 1830 N 168.503 -0.877838 -1.30888 0
M  V30 1831 C 169.45 -0.337538 -2.28318 0
M  V30 1832 C 170.42 0.568346 -1.56074 0
M  V30 1833 O 171.605 0.498298 -1.84178 0
M  V30 1834 C 168.745 0.448142 -3.42178 0
M  V30 1835 C 167.858 -0.48615 -4.29256 0
M  V30 1836 C 166.993 0.314427 -5.30269 0
M  V30 1837 C 166.032 -0.615791 -6.08995 0
M  V30 1838 N 165.169 0.14902 -7.01942 0
M  V30 1839 H 170.009 -1.17356 -2.73919 0
M  V30 1840 H 167.546 -0.590094 -1.34745 0
M  V30 1841 H 169.504 0.919517 -4.06941 0
M  V30 1842 H 168.134 1.24879 -2.97666 0
M  V30 1843 H 167.186 -1.076 -3.64865 0
M  V30 1844 H 168.498 -1.19909 -4.84173 0
M  V30 1845 H 167.652 0.847969 -6.00745 0
M  V30 1846 H 166.391 1.06062 -4.76027 0
M  V30 1847 H 165.396 -1.16102 -5.37401 0
M  V30 1848 H 166.621 -1.36097 -6.65323 0
M  V30 1849 H 164.567 0.877884 -6.50099 0
M  V30 1850 H 164.484 -0.504433 -7.54315 0
M  V30 1851 H 165.752 0.663537 -7.76671 0
M  V30 1852 N 169.982 1.44106 -0.638065 0
M  V30 1853 C 170.93 2.3248 0.0748149 0
M  V30 1854 C 171.924 1.47746 0.828702 0
M  V30 1855 O 173.13 1.64049 0.740816 0
M  V30 1856 H 169.505 0.750771 0.0429686 0
M  V30 1857 H 171.476 2.90348 -0.688504 0
M  V30 1858 C 170.225 3.31843 1.03805 0
M  V30 1859 H 169.548 3.97059 0.467375 0
M  V30 1860 H 170.988 3.96345 1.50622 0
M  V30 1861 C 169.447 2.61291 2.1267 0
M  V30 1862 O 169.977 2.41702 3.20847 0
M  V30 1863 N 168.183 2.20915 1.88798 0
M  V30 1864 H 167.73 2.37047 1.00829 0
M  V30 1865 H 167.688 1.74038 2.61836 0
M  V30 1866 N 171.46 0.379036 1.52974 0
M  V30 1867 C 172.709 -0.207612 2.00629 0
M  V30 1868 C 173.022 -1.48758 1.27006 0
M  V30 1869 O 174.228 -2.15365 1.65318 0
M  V30 1870 C 172.684 -0.42053 3.57435 0
M  V30 1871 C 172.292 0.845587 4.39948 0
M  V30 1872 C 174.036 -0.964102 4.13407 0
M  V30 1873 C 171.943 0.601513 5.88333 0
M  V30 1874 H 170.873 -0.0813591 0.749598 0
M  V30 1875 H 173.524 0.499853 1.76561 0
M  V30 1876 H 171.906 -1.18959 3.7771 0
M  V30 1877 H 173.08 1.61848 4.31442 0
M  V30 1878 H 171.395 1.31336 3.95145 0
M  V30 1879 H 173.992 -1.16225 5.21916 0
M  V30 1880 H 174.335 -1.93019 3.68849 0
M  V30 1881 H 174.868 -0.25487 3.96983 0
M  V30 1882 H 171.607 1.53831 6.37194 0
M  V30 1883 H 171.127 -0.132628 5.99653 0
M  V30 1884 H 172.806 0.232134 6.46583 0
M  V30 1885 N 172.938 -1.57226 0.108567 0
M  V30 1886 C 174.349 -1.8195 -0.418464 0
M  V30 1887 C 174.7 -1.02508 -1.67292 0
M  V30 1888 O 173.825 -0.258496 -2.14851 0
M  V30 1889 C 174.42 -3.30028 -0.765979 0
M  V30 1890 C 172.979 -3.55469 -1.23769 0
M  V30 1891 C 172.126 -2.7625 -0.241106 0
M  V30 1892 H 175.077 -1.55149 0.33384 0
M  V30 1893 H 175.098 -3.44086 -1.62434 0
M  V30 1894 H 174.61 -3.87821 0.147219 0
M  V30 1895 H 172.711 -3.03022 -2.16814 0
M  V30 1896 H 172.824 -4.6408 -1.19022 0
M  V30 1897 H 171.188 -2.44133 -0.72602 0
M  V30 1898 H 171.971 -3.36797 0.665007 0
M  V30 1899 N 174.416 0.165178 -1.56732 0
M  V30 1900 C 175.832 0.517174 -1.50988 0
M  V30 1901 C 176.032 1.84331 -0.813894 0
M  V30 1902 O 175.088 2.49672 -0.37682 0
M  V30 1903 C 176.401 0.544261 -2.95733 0
M  V30 1904 C 177.949 0.631039 -3.06573 0
M  V30 1905 C 178.424 0.68896 -4.52788 0
M  V30 1906 N 179.915 0.751683 -4.5706 0
M  V30 1907 C 180.65 0.817177 -5.67547 0
M  V30 1908 N 180.146 0.843129 -6.8765 0
M  V30 1909 N 181.939 0.856668 -5.55534 0
M  V30 1910 H 174.09 -0.704318 -2.00382 0
M  V30 1911 H 176.353 -0.254687 -0.913148 0
M  V30 1912 H 176.059 -0.361607 -3.49836 0
M  V30 1913 H 175.933 1.3886 -3.5071 0
M  V30 1914 H 178.32 1.52733 -2.52501 0
M  V30 1915 H 178.401 -0.240095 -2.54671 0
M  V30 1916 H 178.045 -0.2031 -5.07494 0
M  V30 1917 H 177.975 1.57633 -5.02454 0
M  V30 1918 H 180.466 0.739661 -3.70591 0
M  V30 1919 H 180.779 0.894448 -7.67606 0
M  V30 1920 H 179.124 0.811304 -6.90248 0
M  V30 1921 H 182.315 0.833437 -4.60621 0
M  V30 1922 H 182.488 0.904247 -6.4166 0
M  V30 1923 N 175.894 1.51508 0.433938 0
M  V30 1924 C 176.824 1.76016 1.53429 0
M  V30 1925 C 177.805 0.610112 1.58782 0
M  V30 1926 O 178.99 0.853177 1.74455 0
M  V30 1927 C 176.12 1.88831 2.9148 0
M  V30 1928 C 175.074 3.04288 3.00987 0
M  V30 1929 C 174.4 3.0229 4.4105 0
M  V30 1930 C 175.7 4.44193 2.74754 0
M  V30 1931 H 177.394 2.68152 1.33171 0
M  V30 1932 H 174.94 1.29035 0.639214 0
M  V30 1933 H 176.893 2.04559 3.6842 0
M  V30 1934 H 175.617 0.933455 3.12976 0
M  V30 1935 H 174.276 2.8827 2.26486 0
M  V30 1936 H 173.924 2.04576 4.59519 0
M  V30 1937 H 173.624 3.79822 4.4834 0
M  V30 1938 H 175.148 3.20116 5.1996 0
M  V30 1939 H 176.562 4.60544 3.41426 0
M  V30 1940 H 174.959 5.23457 2.9345 0
M  V30 1941 H 176.029 4.53996 1.70339 0
M  V30 1942 N 177.372 -0.689602 1.41712 0
M  V30 1943 C 178.618 -1.45181 1.41599 0
M  V30 1944 C 178.951 -1.94181 0.0270081 0
M  V30 1945 O 178.226 -1.6993 -0.946265 0
M  V30 1946 C 178.509 -2.65945 2.42787 0
M  V30 1947 C 178.362 -2.22672 3.90816 0
M  V30 1948 C 179.681 -3.68149 2.41151 0
M  V30 1949 H 176.8 -0.526576 0.515642 0
M  V30 1950 H 179.442 -0.784947 1.73028 0
M  V30 1951 H 177.592 -3.2284 2.16116 0
M  V30 1952 H 179.264 -1.71058 4.28412 0
M  V30 1953 H 177.507 -1.54394 4.05395 0
M  V30 1954 H 178.178 -3.0935 4.57172 0
M  V30 1955 H 180.654 -3.2094 2.64834 0
M  V30 1956 H 179.53 -4.50248 3.13955 0
M  V30 1957 H 179.791 -4.18259 1.43221 0
M  V30 1958 N 178.85 -1.27639 -0.924453 0
M  V30 1959 C 180.075 -1.17101 -1.71179 0
M  V30 1960 C 180.5 0.268134 -1.86179 0
M  V30 1961 O 179.858 1.19415 -1.36418 0
M  V30 1962 C 179.906 -1.86313 -3.08739 0
M  V30 1963 O 179.01 -1.16331 -3.95652 0
M  V30 1964 H 178.351 -0.407091 -0.524569 0
M  V30 1965 H 180.881 -1.68767 -1.15666 0
M  V30 1966 H 180.891 -1.938 -3.59034 0
M  V30 1967 H 179.566 -2.91001 -2.97138 0
M  V30 1968 H 178.143 -1.16935 -3.54091 0
M  V30 1969 N 180.328 1.1314 -1.09713 0
M  V30 1970 C 181.576 1.84119 -0.833338 0
M  V30 1971 C 181.897 1.84097 0.642904 0
M  V30 1972 O 181.167 1.29881 1.46655 0
M  V30 1973 H 179.747 0.681766 -0.305293 0
M  V30 1974 H 182.409 1.37038 -1.38588 0
M  V30 1975 H 181.505 2.88543 -1.18951 0
M  V30 1976 N 181.806 0.884767 1.30421 0
M  V30 1977 C 183.052 0.513218 1.96819 0
M  V30 1978 C 183.407 -0.927347 1.68577 0
M  V30 1979 O 182.7 -1.64644 0.979941 0
M  V30 1980 C 182.894 0.724318 3.49983 0
M  V30 1981 C 182.723 2.18385 3.93113 0
M  V30 1982 C 181.493 2.82839 4.18725 0
M  V30 1983 C 183.691 3.15763 4.05953 0
M  V30 1984 N 181.673 4.1939 4.48314 0
M  V30 1985 C 183.044 4.37387 4.39423 0
M  V30 1986 C 185.099 3.11555 3.88379 0
M  V30 1987 C 183.802 5.55343 4.5715 0
M  V30 1988 C 185.828 4.28782 4.07308 0
M  V30 1989 C 185.19 5.49172 4.41123 0
M  V30 1990 H 181.289 0.237123 0.745182 0
M  V30 1991 H 183.873 1.14246 1.57658 0
M  V30 1992 H 182.044 0.124565 3.882 0
M  V30 1993 H 183.776 0.31969 4.03435 0
M  V30 1994 H 180.531 2.33708 4.11919 0
M  V30 1995 H 180.955 4.89911 4.67243 0
M  V30 1996 H 185.597 2.19576 3.61312 0
M  V30 1997 H 183.315 6.47826 4.8306 0
M  V30 1998 H 186.901 4.26995 3.95179 0
M  V30 1999 H 185.781 6.38371 4.55469 0
M  V30 2000 N 183.284 -1.43765 0.645699 0
M  V30 2001 C 184.53 -2.02197 0.156271 0
M  V30 2002 C 184.863 -1.50776 -1.22393 0
M  V30 2003 O 184.138 -0.697771 -1.81553 0
M  V30 2004 C 184.421 -3.59749 0.158872 0
M  V30 2005 C 184.274 -4.21419 1.57245 0
M  V30 2006 C 185.593 -4.37149 -0.50879 0
M  V30 2007 H 182.712 -0.734694 0.0582602 0
M  V30 2008 H 185.354 -1.71157 0.824951 0
M  V30 2009 H 183.504 -3.86325 -0.410525 0
M  V30 2010 H 185.176 -4.059 2.19186 0
M  V30 2011 H 183.419 -3.78356 2.122 0
M  V30 2012 H 184.09 -5.30482 1.52619 0
M  V30 2013 H 186.566 -4.16093 -0.024412 0
M  V30 2014 H 185.442 -5.4683 -0.476213 0
M  V30 2015 H 185.703 -4.12839 -1.58165 0
M  V30 2016 N 184.763 -0.387143 -1.52771 0
M  V30 2017 C 185.71 0.449048 -2.26389 0
M  V30 2018 C 186.68 1.05961 -1.27912 0
M  V30 2019 O 187.865 1.08804 -1.56737 0
M  V30 2020 C 185.005 1.57155 -3.0724 0
M  V30 2021 C 184.118 0.984066 -4.20643 0
M  V30 2022 C 183.253 2.07745 -4.88892 0
M  V30 2023 C 182.292 1.46574 -5.94292 0
M  V30 2024 N 181.429 2.49834 -6.56146 0
M  V30 2025 H 186.269 -0.185205 -2.97424 0
M  V30 2026 H 183.806 -0.103164 -1.46738 0
M  V30 2027 H 185.764 2.23309 -3.52405 0
M  V30 2028 H 184.394 2.17615 -2.38419 0
M  V30 2029 H 183.446 0.212193 -3.79808 0
M  V30 2030 H 184.758 0.497029 -4.96318 0
M  V30 2031 H 183.912 2.81673 -5.3735 0
M  V30 2032 H 182.651 2.59807 -4.12737 0
M  V30 2033 H 181.656 0.711696 -5.45174 0
M  V30 2034 H 182.881 0.953088 -6.72379 0
M  V30 2035 H 180.827 3.0107 -5.82832 0
M  V30 2036 H 180.744 2.05879 -7.27427 0
M  V30 2037 H 182.012 3.23399 -7.09249 0
M  V30 2038 N 186.241 1.57166 -0.116904 0
M  V30 2039 C 187.652 1.82169 0.408809 0
M  V30 2040 C 188.003 1.03393 1.66746 0
M  V30 2041 O 187.128 0.269886 2.1471 0
M  V30 2042 C 187.723 3.30429 0.748466 0
M  V30 2043 C 186.282 3.5612 1.21882 0
M  V30 2044 C 185.429 2.76374 0.226452 0
M  V30 2045 H 188.38 1.5497 -0.342063 0
M  V30 2046 H 188.401 3.44943 1.60607 0
M  V30 2047 H 187.913 3.87737 -0.167784 0
M  V30 2048 H 186.014 3.04168 2.15204 0
M  V30 2049 H 186.127 4.64705 1.16559 0
M  V30 2050 H 184.491 2.44515 0.713063 0
M  V30 2051 H 185.274 3.3644 -0.682859 0
M  V30 2052 N 187.719 -0.156864 1.56817 0
M  V30 2053 C 188.968 -0.869504 1.81996 0
M  V30 2054 C 189.281 -1.82777 0.696545 0
M  V30 2055 O 190.487 -2.58384 0.833658 0
M  V30 2056 C 188.943 -1.59679 3.22538 0
M  V30 2057 C 188.551 -0.681431 4.42787 0
M  V30 2058 C 190.295 -2.2968 3.56997 0
M  V30 2059 C 188.202 -1.40978 5.74351 0
M  V30 2060 H 187.132 -0.328438 0.678708 0
M  V30 2061 H 189.783 -0.1223 1.83092 0
M  V30 2062 H 188.165 -2.38927 3.158 0
M  V30 2063 H 189.339 0.0751166 4.60739 0
M  V30 2064 H 187.654 -0.0903431 4.16302 0
M  V30 2065 H 190.251 -2.84794 4.52544 0
M  V30 2066 H 190.594 -3.05707 2.82576 0
M  V30 2067 H 191.127 -1.57361 3.65352 0
M  V30 2068 H 187.866 -0.691561 6.51842 0
M  V30 2069 H 187.386 -2.13929 5.60352 0
M  V30 2070 H 189.065 -1.95337 6.16808 0
M  V30 2071 N 189.197 -1.51736 -0.425897 0
M  V30 2072 C 190.446 -1.64201 -1.17136 0
M  V30 2073 C 190.759 -0.369705 -1.92074 0
M  V30 2074 O 191.965 -0.373898 -2.68913 0
M  V30 2075 C 190.421 -2.90035 -2.13091 0
M  V30 2076 C 190.029 -4.24312 -1.43747 0
M  V30 2077 C 191.773 -3.1186 -2.87999 0
M  V30 2078 C 189.68 -5.41285 -2.38253 0
M  V30 2079 H 188.61 -0.611624 -0.440944 0
M  V30 2080 H 191.261 -1.78212 -0.437328 0
M  V30 2081 H 189.643 -2.69684 -2.89977 0
M  V30 2082 H 190.817 -4.55086 -0.723408 0
M  V30 2083 H 189.132 -4.08456 -0.809465 0
M  V30 2084 H 191.729 -3.96427 -3.58817 0
M  V30 2085 H 192.072 -2.25403 -3.49999 0
M  V30 2086 H 192.605 -3.32605 -2.18217 0
M  V30 2087 H 189.344 -6.30037 -1.80925 0
M  V30 2088 H 188.864 -5.14872 -3.0768 0
M  V30 2089 H 190.543 -5.73694 -2.99139 0
M  V30 2090 N 190.675 0.682077 -1.42076 0
M  V30 2091 C 191.924 1.43786 -1.41451 0
M  V30 2092 C 192.237 1.95574 -0.0317074 0
M  V30 2093 O 193.443 2.71326 0.0971462 0
M  V30 2094 C 191.899 2.60071 -2.48779 0
M  V30 2095 C 191.507 2.15013 -3.93031 0
M  V30 2096 C 193.251 3.37626 -2.57311 0
M  V30 2097 C 191.158 3.28336 -4.91883 0
M  V30 2098 H 190.088 0.540143 -0.526082 0
M  V30 2099 H 192.739 0.739157 -1.67955 0
M  V30 2100 H 191.121 3.32275 -2.15429 0
M  V30 2101 H 192.295 1.5001 -4.35699 0
M  V30 2102 H 190.61 1.50416 -3.88284 0
M  V30 2103 H 193.207 4.22012 -3.28345 0
M  V30 2104 H 193.55 3.83727 -1.61429 0
M  V30 2105 H 194.083 2.72488 -2.89819 0
M  V30 2106 H 190.822 2.87234 -5.89217 0
M  V30 2107 H 190.342 3.92145 -4.53853 0
M  V30 2108 H 192.021 3.93913 -5.13265 0
M  V30 2109 N 192.153 1.28127 0.917671 0
M  V30 2110 C 193.401 1.14825 1.66312 0
M  V30 2111 C 193.722 -0.304379 1.9261 0
M  V30 2112 O 192.992 -1.21149 1.53947 0
M  V30 2113 H 191.572 0.421953 0.616413 0
M  V30 2114 H 194.234 1.608 1.10134 0
M  V30 2115 H 193.33 1.68489 2.62712 0
M  V30 2116 N 193.631 -1.12557 1.10312 0
M  V30 2117 C 195.047 -1.36036 0.834649 0
M  V30 2118 C 195.247 -1.93946 -0.546539 0
M  V30 2119 O 194.303 -2.16484 -1.29966 0
M  V30 2120 C 195.616 -2.30312 1.9333 0
M  V30 2121 C 197.164 -2.43906 1.9616 0
M  V30 2122 C 197.639 -3.41496 3.05195 0
M  V30 2123 N 199.13 -3.49053 3.04494 0
M  V30 2124 C 199.865 -4.24471 3.85502 0
M  V30 2125 N 199.361 -5.02966 4.76442 0
M  V30 2126 N 201.154 -4.19864 3.73725 0
M  V30 2127 H 193.305 -0.733246 1.99342 0
M  V30 2128 H 195.568 -0.385234 0.866198 0
M  V30 2129 H 195.274 -1.94933 2.92735 0
M  V30 2130 H 195.148 -3.30421 1.81939 0
M  V30 2131 H 197.535 -2.78567 0.973886 0
M  V30 2132 H 197.616 -1.4369 2.11629 0
M  V30 2133 H 197.26 -3.07565 4.04186 0
M  V30 2134 H 197.19 -4.41539 2.86968 0
M  V30 2135 H 199.681 -2.93053 2.38596 0
M  V30 2136 H 199.994 -5.57846 5.34815 0
M  V30 2137 H 198.339 -5.02167 4.80472 0
M  V30 2138 H 201.53 -3.57623 3.02032 0
M  V30 2139 H 201.703 -4.78386 4.37093 0
M  V30 2140 N 195.109 -0.891671 -1.2995 0
M  V30 2141 C 196.059 -0.334811 -2.25528 0
M  V30 2142 C 197.043 0.540553 -1.51548 0
M  V30 2143 O 198.235 0.383882 -1.72787 0
M  V30 2144 C 195.364 0.44374 -3.4042 0
M  V30 2145 C 194.45 -0.44609 -4.21747 0
M  V30 2146 N 194.841 -1.54963 -4.81477 0
M  V30 2147 C 193.139 -0.242415 -4.45341 0
M  V30 2148 C 193.84 -2.10015 -5.42465 0
M  V30 2149 N 192.816 -1.39423 -5.25416 0
M  V30 2150 H 196.618 -1.17792 -2.69262 0
M  V30 2151 H 194.132 -0.741822 -1.44467 0
M  V30 2152 H 196.129 0.859362 -4.07947 0
M  V30 2153 H 194.789 1.28421 -2.98225 0
M  V30 2154 H 195.8 -1.93244 -4.80497 0
M  V30 2155 H 192.477 0.560342 -4.13723 0
M  V30 2156 H 193.867 -3.02724 -5.9984 0
M  V30 2157 N 196.587 1.43421 -0.653314 0
M  V30 2158 C 197.55 2.29182 0.0287951 0
M  V30 2159 C 198.55 1.42213 0.750465 0
M  V30 2160 O 199.74 1.63843 0.591701 0
M  V30 2161 C 196.872 3.24278 1.05151 0
M  V30 2162 H 198.065 2.90985 -0.725786 0
M  V30 2163 H 195.618 1.50702 -0.414545 0
M  V30 2164 H 196.353 2.6737 1.83532 0
M  V30 2165 H 196.138 3.88396 0.537687 0
M  V30 2166 H 197.628 3.88647 1.52786 0
M  V30 2167 N 198.065 0.39524 1.52563 0
M  V30 2168 C 199.295 -0.184675 2.05773 0
M  V30 2169 C 199.703 -1.40571 1.26635 0
M  V30 2170 O 199.046 -1.81105 0.30769 0
M  V30 2171 C 199.108 -0.613551 3.54226 0
M  V30 2172 C 198.772 0.49484 4.54313 0
M  V30 2173 C 199.769 1.3541 5.01956 0
M  V30 2174 C 197.454 0.663565 4.97898 0
M  V30 2175 C 199.448 2.36716 5.91814 0
M  V30 2176 C 197.135 1.67996 5.87555 0
M  V30 2177 C 198.133 2.53017 6.34406 0
M  V30 2178 O 197.821 3.52917 7.22291 0
M  V30 2179 H 197.553 -0.030077 0.675331 0
M  V30 2180 H 200.107 0.560708 1.97599 0
M  V30 2181 H 198.337 -1.411 3.60038 0
M  V30 2182 H 200.026 -1.11981 3.90148 0
M  V30 2183 H 200.792 1.23509 4.6901 0
M  V30 2184 H 196.671 0.0114913 4.60999 0
M  V30 2185 H 200.215 3.03113 6.28306 0
M  V30 2186 H 196.112 1.79933 6.19915 0
M  V30 2187 H 196.88 3.48996 7.40367 0
M  V30 2188 N 199.544 -1.57102 0.125237 0
M  V30 2189 C 200.792 -1.95021 -0.530198 0
M  V30 2190 C 201.113 -1.00982 -1.66816 0
M  V30 2191 O 200.383 -0.0672693 -1.95784 0
M  V30 2192 H 198.963 -0.720046 -0.198853 0
M  V30 2193 H 201.625 -1.93916 0.19564 0
M  V30 2194 H 200.721 -2.98211 -0.920681 0
M  V30 2195 N 201.022 0.148545 -1.56898 0
M  V30 2196 C 202.299 0.890019 -1.74178 0
M  V30 2197 C 202.679 1.99407 -0.692839 0
M  V30 2198 O 202.027 2.26671 0.288505 0
M  V30 2199 C 202.237 1.43389 -3.18183 0
M  V30 2200 C 203.585 1.89791 -3.79822 0
M  V30 2201 O 204.609 1.53134 -3.21603 0
M  V30 2202 O 203.468 2.57387 -4.82093 0
M  V30 2203 H 200.562 0.420496 -0.712118 0
M  V30 2204 H 203.108 0.134591 -1.69165 0
M  V30 2205 H 201.88 0.640383 -3.86024 0
M  V30 2206 H 201.503 2.25287 -3.27615 0
M  V30 2207 N 202.5 1.5196 0.417844 0
M  V30 2208 C 203.432 1.70895 1.52733 0
M  V30 2209 C 204.445 0.589405 1.51756 0
M  V30 2210 O 205.634 0.864312 1.56179 0
M  V30 2211 C 202.734 1.72627 2.91639 0
M  V30 2212 C 201.907 3.01479 3.16905 0
M  V30 2213 C 200.966 2.95139 4.35637 0
M  V30 2214 O 199.992 3.69059 4.3334 0
M  V30 2215 N 201.194 2.12328 5.40275 0
M  V30 2216 H 203.959 2.66612 1.36888 0
M  V30 2217 H 201.52 1.50089 0.607037 0
M  V30 2218 H 203.512 1.65928 3.6912 0
M  V30 2219 H 202.082 0.844216 3.00985 0
M  V30 2220 H 201.302 3.21895 2.27546 0
M  V30 2221 H 202.59 3.86736 3.30625 0
M  V30 2222 H 201.988 1.51685 5.44985 0
M  V30 2223 H 200.545 2.11494 6.16534 0
M  V30 2224 N 203.978 -0.674533 1.42435 0
M  V30 2225 C 205.208 -1.46071 1.46105 0
M  V30 2226 C 205.616 -1.89067 0.0709605 0
M  V30 2227 O 204.959 -1.58731 -0.924677 0
M  V30 2228 C 205.021 -2.74145 2.32561 0
M  V30 2229 C 204.685 -2.53224 3.8043 0
M  V30 2230 C 205.682 -2.17809 4.72075 0
M  V30 2231 C 203.367 -2.6821 4.24698 0
M  V30 2232 C 205.361 -1.97648 6.05982 0
M  V30 2233 C 203.048 -2.47665 5.58664 0
M  V30 2234 C 204.046 -2.12437 6.49122 0
M  V30 2235 O 203.734 -1.9209 7.80613 0
M  V30 2236 H 203.466 -0.455959 0.499076 0
M  V30 2237 H 206.02 -0.836193 1.87609 0
M  V30 2238 H 204.25 -3.3908 1.85908 0
M  V30 2239 H 205.939 -3.36028 2.27683 0
M  V30 2240 H 206.705 -2.05826 4.39159 0
M  V30 2241 H 202.584 -2.94609 3.54579 0
M  V30 2242 H 206.128 -1.70075 6.7655 0
M  V30 2243 H 202.025 -2.59244 5.91154 0
M  V30 2244 H 202.793 -2.06686 7.91974 0
M  V30 2245 N 205.456 -1.28612 -0.910864 0
M  V30 2246 C 206.872 -1.06381 -1.18976 0
M  V30 2247 C 207.072 0.191998 -2.00583 0
M  V30 2248 O 206.128 0.892869 -2.36187 0
M  V30 2249 C 207.441 -2.31295 -1.92154 0
M  V30 2250 C 208.989 -2.36503 -2.05025 0
M  V30 2251 C 209.464 -3.61191 -2.81612 0
M  V30 2252 N 210.955 -3.61847 -2.89172 0
M  V30 2253 C 211.69 -4.55004 -3.4894 0
M  V30 2254 N 211.186 -5.58482 -4.09963 0
M  V30 2255 N 212.979 -4.42594 -3.46506 0
M  V30 2256 H 205.13 -2.09221 -0.366094 0
M  V30 2257 H 207.393 -0.921003 -0.224629 0
M  V30 2258 H 207.099 -3.228 -1.39618 0
M  V30 2259 H 206.973 -2.37934 -2.9269 0
M  V30 2260 H 209.36 -1.45494 -2.5674 0
M  V30 2261 H 209.441 -2.33857 -1.03657 0
M  V30 2262 H 209.085 -4.52545 -2.30576 0
M  V30 2263 H 209.015 -3.61092 -3.83302 0
M  V30 2264 H 211.506 -2.87022 -2.45819 0
M  V30 2265 H 211.819 -6.25704 -4.53557 0
M  V30 2266 H 210.164 -5.62305 -4.08459 0
M  V30 2267 H 213.355 -3.60953 -2.98045 0
M  V30 2268 H 213.528 -5.15381 -3.92793 0
M  V30 2269 N 206.934 1.1197 -1.10907 0
M  V30 2270 C 207.897 2.16031 -0.765707 0
M  V30 2271 C 208.897 1.59393 0.212235 0
M  V30 2272 O 210.087 1.74196 -0.0115441 0
M  V30 2273 C 207.219 3.40632 -0.135053 0
M  V30 2274 H 208.412 2.47919 -1.68748 0
M  V30 2275 H 205.965 1.27061 -0.910226 0
M  V30 2276 H 206.7 3.14348 0.797218 0
M  V30 2277 H 206.485 3.8302 -0.838937 0
M  V30 2278 H 207.975 4.17505 0.0892469 0
M  V30 2279 N 208.412 0.89855 1.29475 0
M  V30 2280 C 209.64 0.539261 1.99749 0
M  V30 2281 C 210.055 -0.875716 1.67262 0
M  V30 2282 O 209.412 -1.57786 0.917049 0
M  V30 2283 C 209.463 0.72061 3.54245 0
M  V30 2284 O 209.184 2.07989 3.8558 0
M  V30 2285 C 210.685 0.366118 4.41786 0
M  V30 2286 H 207.905 0.207047 0.638258 0
M  V30 2287 H 210.449 1.20758 1.65039 0
M  V30 2288 H 208.604 0.0994862 3.87272 0
M  V30 2289 H 209.018 2.10841 4.80257 0
M  V30 2290 H 210.492 0.543848 5.49314 0
M  V30 2291 H 210.969 -0.696763 4.33638 0
M  V30 2292 H 211.575 0.964135 4.14228 0
M  V30 2293 N 209.89 -1.43072 0.660911 0
M  V30 2294 C 211.167 -1.95307 0.107017 0
M  V30 2295 C 211.547 -1.60192 -1.37484 0
M  V30 2296 O 210.895 -0.890949 -2.10415 0
M  V30 2297 C 211.105 -3.47124 0.361402 0
M  V30 2298 C 212.453 -4.23738 0.270455 0
M  V30 2299 O 213.477 -3.54981 0.294382 0
M  V30 2300 O 212.336 -5.46131 0.200737 0
M  V30 2301 H 209.43 -0.826984 -0.00517729 0
M  V30 2302 H 211.976 -1.52972 0.734681 0
M  V30 2303 H 210.748 -3.65837 1.38848 0
M  V30 2304 H 210.371 -3.96475 -0.298953 0
M  V30 2305 N 211.368 -0.403325 -1.52352 0
M  V30 2306 C 212.615 0.174347 -2.01748 0
M  V30 2307 C 212.943 1.45636 -1.2892 0
M  V30 2308 O 212.198 1.9193 -0.382258 0
M  V30 2309 C 212.497 0.474665 -3.54234 0
M  V30 2310 C 212.163 -0.717458 -4.45155 0
M  V30 2311 C 210.825 -1.04447 -4.69728 0
M  V30 2312 C 213.177 -1.51432 -4.98716 0
M  V30 2313 C 210.505 -2.16963 -5.45109 0
M  V30 2314 C 212.857 -2.6302 -5.75329 0
M  V30 2315 C 211.521 -2.96213 -5.98175 0
M  V30 2316 H 210.791 0.0637981 -0.738248 0
M  V30 2317 H 213.438 -0.543553 -1.83624 0
M  V30 2318 H 211.743 1.27406 -3.70506 0
M  V30 2319 H 213.44 0.934496 -3.89959 0
M  V30 2320 H 210.03 -0.452596 -4.26204 0
M  V30 2321 H 214.214 -1.27491 -4.79645 0
M  V30 2322 H 209.47 -2.43034 -5.61021 0
M  V30 2323 H 213.644 -3.25158 -6.15829 0
M  V30 2324 H 211.271 -3.83516 -6.56368 0
M  V30 2325 N 212.846 1.57033 -0.133567 0
M  V30 2326 C 214.092 1.95976 0.521649 0
M  V30 2327 C 214.425 1.01779 1.65393 0
M  V30 2328 O 213.7 0.0576581 1.94415 0
M  V30 2329 C 213.983 3.44738 1.04057 0
M  V30 2330 C 213.836 4.49711 -0.0892897 0
M  V30 2331 C 215.155 3.95682 1.92675 0
M  V30 2332 H 212.274 0.712579 0.188149 0
M  V30 2333 H 214.916 1.88813 -0.212076 0
M  V30 2334 H 213.066 3.50973 1.66583 0
M  V30 2335 H 214.738 4.55565 -0.725152 0
M  V30 2336 H 212.981 4.27261 -0.750378 0
M  V30 2337 H 213.652 5.51099 0.315284 0
M  V30 2338 H 216.128 3.91841 1.39998 0
M  V30 2339 H 215.004 5.00262 2.25897 0
M  V30 2340 H 215.265 3.37239 2.85872 0
M  V30 2341 N 214.325 -0.140222 1.56975 0
M  V30 2342 C 215.571 -0.852949 1.83991 0
M  V30 2343 C 215.904 -1.80512 0.716187 0
M  V30 2344 O 215.179 -1.92479 -0.279681 0
M  V30 2345 C 215.462 -1.6215 3.21527 0
M  V30 2346 C 215.315 -0.690363 4.4447 0
M  V30 2347 C 216.634 -2.58247 3.56366 0
M  V30 2348 H 213.753 -0.308634 0.669264 0
M  V30 2349 H 216.395 -0.117898 1.89634 0
M  V30 2350 H 214.545 -2.24812 3.16847 0
M  V30 2351 H 216.217 -0.0742264 4.6124 0
M  V30 2352 H 214.46 -0.000396433 4.338 0
M  V30 2353 H 215.131 -1.2643 5.37326 0
M  V30 2354 H 217.607 -2.05701 3.61699 0
M  V30 2355 H 216.483 -3.09067 4.53617 0
M  V30 2356 H 216.744 -3.39923 2.82674 0
M  V30 2357 N 215.803 -1.52179 -0.40978 0
M  V30 2358 C 217.214 -1.58377 -0.988615 0
M  V30 2359 C 217.565 -0.423879 -1.91566 0
M  V30 2360 O 216.69 0.455844 -2.11544 0
M  V30 2361 C 217.285 -2.87044 -1.79976 0
M  V30 2362 C 215.844 -2.95722 -2.32863 0
M  V30 2363 C 214.991 -2.53309 -1.12828 0
M  V30 2364 H 217.942 -1.57558 -0.190039 0
M  V30 2365 H 217.963 -2.7236 -2.65707 0
M  V30 2366 H 217.475 -3.71444 -1.12478 0
M  V30 2367 H 215.576 -2.15814 -3.03735 0
M  V30 2368 H 215.689 -3.99951 -2.63773 0
M  V30 2369 H 214.053 -2.07142 -1.48204 0
M  V30 2370 H 214.836 -3.40082 -0.46897 0
M  V30 2371 N 217.281 0.66697 -1.42791 0
M  V30 2372 C 218.529 1.42417 -1.43394 0
M  V30 2373 C 218.85 1.94925 -0.0542373 0
M  V30 2374 O 218.12 1.73564 0.908415 0
M  V30 2375 H 216.7 0.528515 -0.527902 0
M  V30 2376 H 219.362 0.787562 -1.78279 0
M  V30 2377 H 218.458 2.27333 -2.13837 0
M  V30 2378 N 218.759 1.29093 0.90403 0
M  V30 2379 C 220.17 1.15186 1.46932 0
M  V30 2380 C 220.521 -0.254587 1.94541 0
M  V30 2381 O 219.646 -1.14972 1.83332 0
M  V30 2382 C 220.241 2.08492 2.67051 0
M  V30 2383 C 218.8 1.98621 3.19729 0
M  V30 2384 C 217.947 1.9967 1.92425 0
M  V30 2385 H 220.898 1.41641 0.715789 0
M  V30 2386 H 220.919 1.65461 3.42641 0
M  V30 2387 H 220.431 3.10847 2.3237 0
M  V30 2388 H 218.532 0.993389 3.59114 0
M  V30 2389 H 218.645 2.86068 3.8432 0
M  V30 2390 H 217.009 1.44208 2.09943 0
M  V30 2391 H 217.792 3.03721 1.60026 0
M  V30 2392 N 220.237 -1.11381 1.11499 0
M  V30 2393 C 221.485 -1.8277 0.862524 0
M  V30 2394 C 221.806 -1.85097 -0.613534 0
M  V30 2395 O 221.076 -1.32198 -1.4457 0
M  V30 2396 H 219.656 -0.676823 0.316101 0
M  V30 2397 H 222.318 -1.34816 1.4075 0
M  V30 2398 H 221.414 -2.86614 1.23527 0
M  V30 2399 N 221.715 -0.905404 -1.28997 0
M  V30 2400 C 222.662 -0.385892 -2.27551 0
M  V30 2401 C 223.632 0.535113 -1.57244 0
M  V30 2402 O 224.817 0.459119 -1.85194 0
M  V30 2403 C 221.957 0.375461 -3.43051 0
M  V30 2404 C 221.07 -0.577092 -4.28128 0
M  V30 2405 C 220.205 0.201879 -5.30816 0
M  V30 2406 C 219.244 -0.744829 -6.07551 0
M  V30 2407 N 218.381 9.42587e-05 -7.021 0
M  V30 2408 H 223.221 -1.23139 -2.71368 0
M  V30 2409 H 220.758 -0.618542 -1.33463 0
M  V30 2410 H 222.716 0.832992 -4.088 0
M  V30 2411 H 221.346 1.18537 -3.00248 0
M  V30 2412 H 220.398 -1.15315 -3.62501 0
M  V30 2413 H 221.71 -1.30152 -4.8152 0
M  V30 2414 H 220.864 0.720351 -6.02408 0
M  V30 2415 H 219.603 0.959413 -4.7817 0
M  V30 2416 H 218.608 -1.27475 -5.34818 0
M  V30 2417 H 219.833 -1.50178 -6.62286 0
M  V30 2418 H 217.779 0.739791 -6.51815 0
M  V30 2419 H 217.696 -0.664321 -7.53076 0
M  V30 2420 H 218.964 0.498644 -7.77903 0
M  V30 2421 N 223.193 1.4272 -0.668489 0
M  V30 2422 C 224.439 2.01923 -0.188419 0
M  V30 2423 C 224.772 1.52704 1.19979 0
M  V30 2424 O 224.047 0.726566 1.8042 0
M  V30 2425 C 224.33 3.59451 -0.216085 0
M  V30 2426 C 224.183 4.18864 -1.6393 0
M  V30 2427 C 225.502 4.37903 0.439179 0
M  V30 2428 H 222.621 0.733674 -0.0699412 0
M  V30 2429 H 225.263 1.69822 -0.852076 0
M  V30 2430 H 223.413 3.86929 0.349012 0
M  V30 2431 H 225.085 4.02362 -2.25616 0
M  V30 2432 H 223.328 3.74933 -2.18193 0
M  V30 2433 H 223.999 5.27987 -1.61039 0
M  V30 2434 H 226.475 4.16079 -0.0417878 0
M  V30 2435 H 225.351 5.47519 0.389157 0
M  V30 2436 H 225.612 4.15303 1.51577 0
M  V30 2437 N 224.671 0.411399 1.52136 0
M  V30 2438 C 225.581 -0.419774 2.30814 0
M  V30 2439 C 226.597 -1.0515 1.38634 0
M  V30 2440 O 227.773 -1.05252 1.71709 0
M  V30 2441 C 224.838 -1.52019 3.11594 0
M  V30 2442 C 223.899 -0.91129 4.19516 0
M  V30 2443 C 223.132 -1.95927 4.96436 0
M  V30 2444 O 223.355 -3.17775 4.73683 0
M  V30 2445 O 222.289 -1.56423 5.81219 0
M  V30 2446 H 226.115 0.221805 3.02889 0
M  V30 2447 H 223.7 0.174547 1.48377 0
M  V30 2448 H 225.582 -2.15898 3.61892 0
M  V30 2449 H 224.257 -2.14633 2.42311 0
M  V30 2450 H 223.164 -0.235157 3.7336 0
M  V30 2451 H 224.497 -0.32904 4.91099 0
M  V30 2452 N 226.149 -1.5696 0.141893 0
M  V30 2453 C 227.398 -1.95135 -0.510427 0
M  V30 2454 C 227.711 -1.02896 -1.66348 0
M  V30 2455 O 228.917 -1.30629 -2.38009 0
M  V30 2456 C 227.373 -3.46876 -0.959427 0
M  V30 2457 C 226.981 -4.47691 0.166419 0
M  V30 2458 C 228.725 -3.93927 -1.58183 0
M  V30 2459 C 226.632 -5.90636 -0.300565 0
M  V30 2460 H 225.562 -0.728494 -0.194454 0
M  V30 2461 H 228.213 -1.8211 0.22542 0
M  V30 2462 H 226.595 -3.55215 -1.75038 0
M  V30 2463 H 227.769 -4.51043 0.94325 0
M  V30 2464 H 226.084 -4.10527 0.696905 0
M  V30 2465 H 228.681 -4.98158 -1.94275 0
M  V30 2466 H 229.024 -3.3519 -2.46888 0
M  V30 2467 H 229.557 -3.88484 -0.855863 0
M  V30 2468 H 226.296 -6.5318 0.550989 0
M  V30 2469 H 225.816 -5.90655 -1.04338 0
M  V30 2470 H 227.495 -6.42588 -0.754265 0
M  V30 2471 N 227.627 0.131896 -1.57047 0
M  V30 2472 C 228.855 0.856461 -1.88341 0
M  V30 2473 C 229.27 1.74042 -0.731757 0
M  V30 2474 O 228.627 1.80051 0.297945 0
M  V30 2475 C 228.678 1.70064 -3.18999 0
M  V30 2476 O 228.399 0.852278 -4.2973 0
M  V30 2477 C 229.9 2.53148 -3.63911 0
M  V30 2478 H 227.12 0.246885 -0.62393 0
M  V30 2479 H 229.664 0.120152 -2.04147 0
M  V30 2480 H 227.819 2.38984 -3.04902 0
M  V30 2481 H 228.233 1.43329 -5.04537 0
M  V30 2482 H 229.707 3.07931 -4.58129 0
M  V30 2483 H 230.184 3.29901 -2.89935 0
M  V30 2484 H 230.79 1.89492 -3.80753 0
M  V30 2485 N 229.106 1.52395 0.401703 0
M  V30 2486 C 230.336 1.70429 1.1678 0
M  V30 2487 C 230.744 0.416702 1.84554 0
M  V30 2488 O 230.087 -0.617697 1.73003 0
M  V30 2489 C 230.149 2.78919 2.26814 0
M  V30 2490 C 229.813 4.20437 1.79113 0
M  V30 2491 C 230.81 5.04028 1.27482 0
M  V30 2492 C 228.495 4.66704 1.85722 0
M  V30 2493 C 230.489 6.31961 0.830913 0
M  V30 2494 C 228.176 5.94625 1.40942 0
M  V30 2495 C 229.174 6.77082 0.897128 0
M  V30 2496 O 228.862 8.02607 0.455822 0
M  V30 2497 H 228.594 0.574272 0.356634 0
M  V30 2498 H 231.148 1.99767 0.477724 0
M  V30 2499 H 229.378 2.44973 2.99207 0
M  V30 2500 H 231.067 2.8548 2.88541 0
M  V30 2501 H 231.833 4.69471 1.21744 0
M  V30 2502 H 227.712 4.0262 2.24539 0
M  V30 2503 H 231.256 6.96271 0.430368 0
M  V30 2504 H 227.153 6.28688 1.46362 0
M  V30 2505 H 227.921 8.16453 0.578457 0
M  V30 2506 N 230.584 -0.659388 1.43143 0
M  V30 2507 C 231.812 -1.44723 1.47861 0
M  V30 2508 C 232.227 -1.88563 0.0945886 0
M  V30 2509 O 231.584 -1.59108 -0.893915 0
M  V30 2510 C 231.635 -2.68627 2.41913 0
M  V30 2511 O 231.356 -2.26623 3.74932 0
M  V30 2512 C 232.857 -3.62045 2.55809 0
M  V30 2513 H 230.077 -0.444801 0.502387 0
M  V30 2514 H 232.621 -0.808916 1.87821 0
M  V30 2515 H 230.776 -3.28613 2.05164 0
M  V30 2516 H 231.19 -3.06745 4.2545 0
M  V30 2517 H 232.664 -4.45666 3.25708 0
M  V30 2518 H 233.141 -4.08981 1.60099 0
M  V30 2519 H 233.747 -3.07944 2.93344 0
M  V30 2520 N 232.062 -1.29571 -0.897171 0
M  V30 2521 C 233.473 -1.15964 -1.46319 0
M  V30 2522 C 233.824 0.244267 -1.94674 0
M  V30 2523 O 232.949 1.13998 -1.83939 0
M  V30 2524 C 233.544 -2.09906 -2.65942 0
M  V30 2525 C 232.103 -2.00314 -3.18671 0
M  V30 2526 C 231.25 -2.00687 -1.91363 0
M  V30 2527 H 234.201 -1.42019 -0.708268 0
M  V30 2528 H 234.222 -1.67276 -3.41759 0
M  V30 2529 H 233.734 -3.12075 -2.30718 0
M  V30 2530 H 231.835 -1.01242 -3.58582 0
M  V30 2531 H 231.948 -2.88102 -3.82798 0
M  V30 2532 H 230.312 -1.45319 -2.09175 0
M  V30 2533 H 231.095 -3.04566 -1.58413 0
M  V30 2534 N 233.54 1.10788 -1.12088 0
M  V30 2535 C 234.765 1.87002 -0.896949 0
M  V30 2536 C 235.19 1.79933 0.548261 0
M  V30 2537 O 234.548 1.16662 1.38779 0
M  V30 2538 C 234.596 3.3349 -1.37174 0
M  V30 2539 O 233.7 4.08745 -0.547831 0
M  V30 2540 H 233.041 0.580397 -0.322545 0
M  V30 2541 H 235.571 1.39996 -1.49206 0
M  V30 2542 H 235.581 3.84339 -1.36922 0
M  V30 2543 H 234.256 3.37951 -2.42408 0
M  V30 2544 H 232.833 3.6776 -0.617034 0
M  V30 2545 N 235.018 0.912232 1.28515 0
M  V30 2546 C 236.295 0.463597 1.90027 0
M  V30 2547 C 236.675 -1.05753 1.82701 0
M  V30 2548 O 236.023 -1.90492 1.26194 0
M  V30 2549 C 236.233 0.992253 3.34597 0
M  V30 2550 C 237.581 1.04344 4.11579 0
M  V30 2551 O 238.605 0.94079 3.43551 0
M  V30 2552 O 237.464 1.1995 5.33174 0
M  V30 2553 H 234.558 0.146666 0.813891 0
M  V30 2554 H 237.104 1.00292 1.36893 0
M  V30 2555 H 235.876 2.03623 3.34146 0
M  V30 2556 H 235.499 0.433672 3.95228 0
M  V30 2557 N 236.496 -1.42363 0.676048 0
M  V30 2558 C 237.744 -2.01123 0.198437 0
M  V30 2559 C 238.065 -1.53731 -1.19966 0
M  V30 2560 O 237.335 -0.759518 -1.80577 0
M  V30 2561 H 235.915 -0.743678 0.0703721 0
M  V30 2562 H 238.577 -1.74263 0.872837 0
M  V30 2563 H 237.673 -3.11454 0.200686 0
M  V30 2564 N 237.974 -0.419461 -1.51915 0
M  V30 2565 C 239.202 0.152136 -2.0634 0
M  V30 2566 C 239.617 1.37988 -1.28859 0
M  V30 2567 O 238.974 1.79243 -0.343232 0
M  V30 2568 C 239.025 0.492266 -3.58133 0
M  V30 2569 O 238.746 -0.686736 -4.32684 0
M  V30 2570 C 240.247 1.11648 -4.2901 0
M  V30 2571 H 237.467 0.0158325 -0.670813 0
M  V30 2572 H 240.011 -0.593394 -1.95702 0
M  V30 2573 H 238.166 1.18769 -3.68745 0
M  V30 2574 H 238.58 -0.400341 -5.2297 0
M  V30 2575 H 240.054 1.3046 -5.36362 0
M  V30 2576 H 240.531 2.09251 -3.86148 0
M  V30 2577 H 241.137 0.460958 -4.22795 0
M  V30 2578 N 239.452 1.56882 -0.150215 0
M  V30 2579 C 240.384 2.14057 0.819286 0
M  V30 2580 C 241.397 1.09082 1.20851 0
M  V30 2581 O 242.586 1.36347 1.15203 0
M  V30 2582 C 239.686 2.65102 2.11127 0
M  V30 2583 C 238.859 3.94511 1.88891 0
M  V30 2584 C 237.918 4.30834 3.02107 0
M  V30 2585 O 236.944 4.99099 2.73659 0
M  V30 2586 N 238.146 3.90676 4.29363 0
M  V30 2587 H 240.911 2.97871 0.330618 0
M  V30 2588 H 238.472 1.61866 0.0332538 0
M  V30 2589 H 240.464 2.86411 2.85921 0
M  V30 2590 H 239.034 1.85994 2.51247 0
M  V30 2591 H 238.254 3.81795 0.981152 0
M  V30 2592 H 239.542 4.7907 1.71376 0
M  V30 2593 H 238.94 3.35677 4.55343 0
M  V30 2594 H 237.497 4.1703 5.00928 0
M  V30 2595 N 240.93 -0.123565 1.57115 0
M  V30 2596 C 241.877 -1.15177 2.00007 0
M  V30 2597 C 242.847 -1.41403 0.871454 0
M  V30 2598 O 244.032 -1.53346 1.13533 0
M  V30 2599 C 241.172 -2.47436 2.40561 0
M  V30 2600 C 240.285 -2.28184 3.66819 0
M  V30 2601 C 239.42 -3.53641 3.96373 0
M  V30 2602 C 238.459 -3.29528 5.15827 0
M  V30 2603 N 237.596 -4.47175 5.41275 0
M  V30 2604 H 242.436 -0.779008 2.87638 0
M  V30 2605 H 239.973 -0.373166 1.42288 0
M  V30 2606 H 241.931 -3.24584 2.62109 0
M  V30 2607 H 240.561 -2.82614 1.55978 0
M  V30 2608 H 239.613 -1.41976 3.52912 0
M  V30 2609 H 240.925 -2.0634 4.5412 0
M  V30 2610 H 240.079 -4.39209 4.18545 0
M  V30 2611 H 238.818 -3.78512 3.07538 0
M  V30 2612 H 237.823 -2.42349 4.93505 0
M  V30 2613 H 239.048 -3.06031 6.06236 0
M  V30 2614 H 236.994 -4.72175 4.55397 0
M  V30 2615 H 236.911 -4.28419 6.22891 0
M  V30 2616 H 238.179 -5.3389 5.67963 0
M  V30 2617 N 242.408 -1.52605 -0.393616 0
M  V30 2618 C 243.654 -1.67672 -1.14079 0
M  V30 2619 C 243.987 -0.413121 -1.89755 0
M  V30 2620 O 243.262 0.588952 -1.85369 0
M  V30 2621 C 243.545 -2.9088 -2.12276 0
M  V30 2622 C 243.398 -4.27329 -1.40394 0
M  V30 2623 C 244.717 -3.09628 -3.12759 0
M  V30 2624 H 241.836 -0.610168 -0.413356 0
M  V30 2625 H 244.478 -1.85193 -0.424696 0
M  V30 2626 H 242.628 -2.76073 -2.73342 0
M  V30 2627 H 244.3 -4.53894 -0.82327 0
M  V30 2628 H 242.543 -4.2802 -0.705801 0
M  V30 2629 H 243.214 -5.09615 -2.12123 0
M  V30 2630 H 245.69 -3.23436 -2.61779 0
M  V30 2631 H 244.566 -3.97322 -3.78717 0
M  V30 2632 H 244.827 -2.23637 -3.81365 0
M  V30 2633 N 243.887 0.651787 -1.4349 0
M  V30 2634 C 245.115 1.43937 -1.48626 0
M  V30 2635 C 245.53 1.8851 -0.104587 0
M  V30 2636 O 244.887 1.5958 0.885464 0
M  V30 2637 C 244.938 2.6734 -2.43334 0
M  V30 2638 O 244.659 2.24631 -3.76128 0
M  V30 2639 C 246.16 3.60683 -2.57726 0
M  V30 2640 H 243.38 0.44213 -0.504739 0
M  V30 2641 H 245.924 0.798944 -1.88248 0
M  V30 2642 H 244.079 3.2752 -2.06904 0
M  V30 2643 H 244.493 3.04485 -4.2707 0
M  V30 2644 H 245.967 4.43933 -3.28067 0
M  V30 2645 H 246.444 4.08126 -1.62265 0
M  V30 2646 H 247.05 3.06384 -2.94973 0
M  V30 2647 N 245.365 1.30045 0.890287 0
M  V30 2648 C 246.595 1.21296 1.67245 0
M  V30 2649 C 247.003 -0.227471 1.87828 0
M  V30 2650 O 246.346 -1.16296 1.422 0
M  V30 2651 C 246.408 1.86519 3.07329 0
M  V30 2652 C 246.072 3.35837 3.09939 0
M  V30 2653 C 247.069 4.31915 2.89389 0
M  V30 2654 C 244.754 3.77196 3.31706 0
M  V30 2655 C 246.748 5.67325 2.90552 0
M  V30 2656 C 244.435 5.12725 3.32499 0
M  V30 2657 C 245.433 6.076 3.11947 0
M  V30 2658 O 245.121 7.40655 3.12547 0
M  V30 2659 H 244.853 0.4211 0.528821 0
M  V30 2660 H 247.407 1.72111 1.12103 0
M  V30 2661 H 245.637 1.30228 3.64112 0
M  V30 2662 H 247.326 1.71963 3.67673 0
M  V30 2663 H 248.092 4.01294 2.72375 0
M  V30 2664 H 243.971 3.03796 3.4674 0
M  V30 2665 H 247.515 6.41354 2.74429 0
M  V30 2666 H 243.412 5.42988 3.49047 0
M  V30 2667 H 244.18 7.49577 3.28749 0
M  V30 2668 N 246.843 -1.10192 1.12674 0
M  V30 2669 C 247.773 -2.18652 0.819362 0
M  V30 2670 C 248.754 -1.68698 -0.217915 0
M  V30 2671 O 249.939 -1.94041 -0.0785581 0
M  V30 2672 C 247.069 -3.46202 0.27594 0
M  V30 2673 C 246.023 -4.09444 1.24656 0
M  V30 2674 C 245.349 -5.31725 0.563258 0
M  V30 2675 C 246.649 -4.52863 2.60217 0
M  V30 2676 H 248.343 -2.44622 1.72628 0
M  V30 2677 H 245.889 -1.17571 0.831451 0
M  V30 2678 H 247.842 -4.21372 0.0486149 0
M  V30 2679 H 246.566 -3.1973 -0.666331 0
M  V30 2680 H 245.225 -3.36284 1.45974 0
M  V30 2681 H 244.873 -5.0153 -0.384235 0
M  V30 2682 H 244.573 -5.74991 1.21075 0
M  V30 2683 H 246.097 -6.09624 0.34503 0
M  V30 2684 H 247.511 -5.19294 2.42913 0
M  V30 2685 H 245.908 -5.06986 3.21068 0
M  V30 2686 H 246.978 -3.65656 3.18471 0
M  V30 2687 N 248.321 -0.919034 -1.28029 0
M  V30 2688 C 249.567 -0.555757 -1.95036 0
M  V30 2689 C 249.9 0.899198 -1.72128 0
M  V30 2690 O 249.175 1.64023 -1.04531 0
M  V30 2691 C 249.458 -0.872024 -3.49382 0
M  V30 2692 C 249.311 -2.3801 -3.81669 0
M  V30 2693 C 250.63 -0.37185 -4.38526 0
M  V30 2694 H 247.749 -0.203386 -0.708381 0
M  V30 2695 H 250.391 -1.14924 -1.51303 0
M  V30 2696 H 248.541 -0.366946 -3.86763 0
M  V30 2697 H 250.213 -2.9562 -3.54128 0
M  V30 2698 H 248.456 -2.83289 -3.28526 0
M  V30 2699 H 249.127 -2.55192 -4.8947 0
M  V30 2700 H 251.603 -0.804602 -4.08247 0
M  V30 2701 H 250.479 -0.622173 -5.45362 0
M  V30 2702 H 250.74 0.727934 -4.36066 0
M  V30 2703 N 249.799 1.42003 -0.683588 0
M  V30 2704 C 250.749 2.27997 0.0121992 0
M  V30 2705 C 251.733 1.4156 0.764822 0
M  V30 2706 O 252.925 1.64935 0.642287 0
M  V30 2707 C 250.054 3.29706 0.956482 0
M  V30 2708 C 249.14 4.23625 0.200739 0
M  V30 2709 N 249.531 4.99448 -0.799087 0
M  V30 2710 C 247.829 4.43845 0.437937 0
M  V30 2711 C 248.53 5.68102 -1.25041 0
M  V30 2712 N 247.506 5.40511 -0.578648 0
M  V30 2713 H 251.308 2.84048 -0.754564 0
M  V30 2714 H 248.822 1.54071 -0.513398 0
M  V30 2715 H 250.819 3.90124 1.47 0
M  V30 2716 H 249.479 2.75216 1.72297 0
M  V30 2717 H 250.49 5.04303 -1.17893 0
M  V30 2718 H 247.167 4.00382 1.18325 0
M  V30 2719 H 248.557 6.38913 -2.07942 0
M  V30 2720 N 251.277 0.427512 1.51691 0
M  V30 2721 C 252.225 -0.403359 2.29076 0
M  V30 2722 C 253.219 -1.02962 1.34518 0
M  V30 2723 O 254.425 -0.965715 1.51901 0
M  V30 2724 H 250.8 -0.148879 0.737115 0
M  V30 2725 H 252.771 0.270295 2.97173 0
M  V30 2726 C 251.52 -1.49763 3.13794 0
M  V30 2727 H 250.843 -1.02508 3.86435 0
M  V30 2728 H 252.283 -2.05244 3.71014 0
M  V30 2729 C 250.742 -2.47536 2.28533 0
M  V30 2730 O 251.272 -3.51848 1.93819 0
M  V30 2731 N 249.478 -2.18187 1.91945 0
M  V30 2732 H 249.025 -1.33389 2.20375 0
M  V30 2733 H 248.983 -2.83848 1.35195 0
M  V30 2734 N 252.755 -1.56801 0.158532 0
M  V30 2735 C 254.002 -1.9649 -0.489679 0
M  V30 2736 C 254.33 -1.04394 -1.6411 0
M  V30 2737 O 253.585 -0.0754401 -1.95555 0
M  V30 2738 C 253.884 -3.4235 -1.02623 0
M  V30 2739 C 253.55 -4.50899 0.00794526 0
M  V30 2740 C 252.212 -4.80312 0.292207 0
M  V30 2741 C 254.564 -5.16333 0.710584 0
M  V30 2742 C 251.892 -5.72461 1.28472 0
M  V30 2743 C 254.244 -6.09553 1.69199 0
M  V30 2744 C 252.908 -6.37339 1.98383 0
M  V30 2745 H 252.178 -0.719009 -0.179186 0
M  V30 2746 H 254.825 -1.8989 0.247798 0
M  V30 2747 H 253.13 -3.45838 -1.84128 0
M  V30 2748 H 254.827 -3.70393 -1.53656 0
M  V30 2749 H 251.417 -4.28015 -0.22379 0
M  V30 2750 H 255.601 -4.93732 0.504174 0
M  V30 2751 H 250.857 -5.92278 1.51714 0
M  V30 2752 H 255.031 -6.59327 2.24189 0
M  V30 2753 H 252.658 -7.08546 2.7544 0
M  V30 2754 N 254.233 0.115231 -1.57178 0
M  V30 2755 C 255.143 1.15994 -2.03918 0
M  V30 2756 C 256.159 1.45103 -0.960268 0
M  V30 2757 O 257.335 1.56144 -1.27204 0
M  V30 2758 C 254.4 2.46568 -2.43732 0
M  V30 2759 C 253.461 2.24822 -3.65723 0
M  V30 2760 C 252.694 3.4917 -4.03629 0
M  V30 2761 O 252.917 4.56623 -3.41835 0
M  V30 2762 O 251.851 3.39949 -4.96708 0
M  V30 2763 H 255.677 0.793019 -2.93164 0
M  V30 2764 H 253.262 0.3263 -1.45793 0
M  V30 2765 H 255.144 3.23492 -2.70057 0
M  V30 2766 H 253.819 2.82726 -1.57631 0
M  V30 2767 H 252.726 1.45744 -3.44542 0
M  V30 2768 H 254.059 1.93566 -4.52541 0
M  V30 2769 N 255.711 1.52812 0.385517 0
M  V30 2770 C 256.621 1.80766 1.49535 0
M  V30 2771 C 257.637 0.694651 1.59532 0
M  V30 2772 O 258.813 0.982611 1.75803 0
M  V30 2773 C 255.878 1.97381 2.85029 0
M  V30 2774 C 254.939 3.21295 2.84724 0
M  V30 2775 C 254.172 3.37108 4.13756 0
M  V30 2776 O 254.395 2.5765 5.08893 0
M  V30 2777 O 253.329 4.30378 4.20783 0
M  V30 2778 H 257.155 2.75015 1.28842 0
M  V30 2779 H 254.74 1.37946 0.573697 0
M  V30 2780 H 256.622 2.09996 3.65349 0
M  V30 2781 H 255.297 1.06322 3.05741 0
M  V30 2782 H 254.204 3.1412 2.03174 0
M  V30 2783 H 255.537 4.12212 2.68965 0
M  V30 2784 N 257.189 -0.644168 1.43834 0
M  V30 2785 C 258.437 -1.40117 1.45642 0
M  V30 2786 C 258.758 -1.94814 0.0852413 0
M  V30 2787 O 258.028 -1.74988 -0.880688 0
M  V30 2788 H 256.608 -0.52005 0.536243 0
M  V30 2789 H 259.27 -0.7591 1.7951 0
M  V30 2790 H 258.366 -2.23902 2.17427 0
M  V30 2791 N 258.668 -1.30515 -0.883378 0
M  V30 2792 C 259.916 -1.19194 -1.63209 0
M  V30 2793 C 260.237 0.253205 -1.93349 0
M  V30 2794 O 259.507 1.17025 -1.57105 0
M  V30 2795 H 258.087 -0.438148 -0.605009 0
M  V30 2796 H 260.749 -1.63663 -1.05832 0
M  V30 2797 H 259.845 -1.75396 -2.58153 0
M  V30 2798 N 260.146 1.09593 -1.13257 0
M  V30 2799 C 261.394 1.81375 -0.891492 0
M  V30 2800 C 261.715 1.86049 0.584009 0
M  V30 2801 O 260.985 1.34481 1.42449 0
M  V30 2802 H 259.565 0.671708 -0.326828 0
M  V30 2803 H 262.227 1.3256 -1.42877 0
M  V30 2804 H 261.323 2.84612 -1.28071 0
M  V30 2805 N 261.624 0.925811 1.2754 0
M  V30 2806 C 262.87 0.566092 1.94739 0
M  V30 2807 C 263.203 -0.890057 1.72603 0
M  V30 2808 O 262.478 -1.63467 1.05399 0
M  V30 2809 C 262.761 0.89054 3.48915 0
M  V30 2810 C 262.614 2.4003 3.80402 0
M  V30 2811 C 263.933 0.395101 4.38323 0
M  V30 2812 H 261.052 0.20714 0.707292 0
M  V30 2813 H 263.694 1.15725 1.50691 0
M  V30 2814 H 261.844 0.387452 3.86563 0
M  V30 2815 H 263.516 2.97494 3.52555 0
M  V30 2816 H 261.759 2.85028 3.2702 0
M  V30 2817 H 262.43 2.57785 4.8811 0
M  V30 2818 H 264.906 0.826241 4.07814 0
M  V30 2819 H 263.782 0.651086 5.45025 0
M  V30 2820 H 264.043 -0.704798 4.36446 0
M  V30 2821 N 263.102 -1.41638 0.69111 0
M  V30 2822 C 264.065 -2.29178 0.0319786 0
M  V30 2823 C 265.065 -1.44153 -0.712496 0
M  V30 2824 O 266.255 -1.65354 -0.548053 0
M  V30 2825 C 263.387 -3.26952 -0.965161 0
M  V30 2826 H 264.58 -2.88959 0.802681 0
M  V30 2827 H 262.133 -1.4955 0.454356 0
M  V30 2828 H 262.868 -2.72142 -1.76378 0
M  V30 2829 H 262.653 -3.89685 -0.434522 0
M  V30 2830 H 264.143 -3.92561 -1.42428 0
M  V30 2831 N 264.58 -0.43555 -1.51462 0
M  V30 2832 C 265.513 0.421989 -2.24264 0
M  V30 2833 C 266.491 1.02619 -1.26127 0
M  V30 2834 O 267.675 1.069 -1.55257 0
M  V30 2835 C 264.802 1.588 -2.99166 0
M  V30 2836 C 263.848 1.10465 -4.11946 0
M  V30 2837 S 264.681 0.048146 -5.35478 0
M  V30 2838 C 265.837 1.21887 -6.13917 0
M  V30 2839 H 266.07 -0.196102 -2.96653 0
M  V30 2840 H 263.603 -0.220054 -1.52824 0
M  V30 2841 H 265.561 2.25647 -3.42919 0
M  V30 2842 H 264.222 2.1775 -2.26371 0
M  V30 2843 H 263.415 1.97654 -4.63626 0
M  V30 2844 H 263.017 0.51445 -3.70445 0
M  V30 2845 H 265.309 2.13756 -6.42895 0
M  V30 2846 H 266.252 0.742076 -7.04201 0
M  V30 2847 H 266.66 1.45663 -5.45383 0
M  V30 2848 N 266.058 1.56714 -0.166846 0
M  V30 2849 C 267.306 1.96358 0.478305 0
M  V30 2850 C 267.627 1.0537 1.6408 0
M  V30 2851 O 266.897 0.119154 1.95537 0
M  V30 2852 H 265.477 0.725065 0.179692 0
M  V30 2853 H 268.139 1.93329 -0.246985 0
M  V30 2854 H 267.235 3.00547 0.841292 0
M  V30 2855 N 267.536 -0.106894 1.57237 0
M  V30 2856 C 268.469 -1.16125 1.96444 0
M  V30 2857 C 269.447 -1.3947 0.835871 0
M  V30 2858 O 270.631 -1.53425 1.09513 0
M  V30 2859 C 267.758 -2.51277 2.27107 0
M  V30 2860 C 266.804 -2.44285 3.4961 0
M  V30 2861 S 267.637 -1.87077 5.01759 0
M  V30 2862 C 268.793 -3.23877 5.35588 0
M  V30 2863 H 269.026 -0.826971 2.85567 0
M  V30 2864 H 266.559 -0.314124 1.51171 0
M  V30 2865 H 268.517 -3.29035 2.45451 0
M  V30 2866 H 267.178 -2.81879 1.38576 0
M  V30 2867 H 266.371 -3.4387 3.68469 0
M  V30 2868 H 265.973 -1.74652 3.30715 0
M  V30 2869 H 268.265 -4.20122 5.31511 0
M  V30 2870 H 269.208 -3.09833 6.36717 0
M  V30 2871 H 269.616 -3.22864 4.63054 0
M  V30 2872 N 269.014 -1.53014 -0.377408 0
M  V30 2873 C 270.244 -1.72265 -1.14054 0
M  V30 2874 C 270.652 -0.44601 -1.83868 0
M  V30 2875 O 269.995 0.590095 -1.73964 0
M  V30 2876 C 270.057 -2.82492 -2.22348 0
M  V30 2877 C 269.721 -4.23233 -1.72402 0
M  V30 2878 C 270.718 -5.05992 -1.19448 0
M  V30 2879 C 268.403 -4.696 -1.78273 0
M  V30 2880 C 270.397 -6.33203 -0.730268 0
M  V30 2881 C 268.084 -5.96792 -1.31464 0
M  V30 2882 C 269.082 -6.78424 -0.789297 0
M  V30 2883 O 268.77 -8.0323 -0.328077 0
M  V30 2884 H 268.502 -0.579873 -0.347453 0
M  V30 2885 H 271.056 -2.00502 -0.445882 0
M  V30 2886 H 269.286 -2.49702 -2.95272 0
M  V30 2887 H 270.975 -2.90034 -2.83963 0
M  V30 2888 H 271.741 -4.71349 -1.14259 0
M  V30 2889 H 267.62 -4.06142 -2.18106 0
M  V30 2890 H 271.164 -6.96868 -0.319542 0
M  V30 2891 H 267.061 -6.30937 -1.36342 0
M  V30 2892 H 267.829 -8.1727 -0.448493 0
M  V30 2893 N 270.492 0.636531 -1.44174 0
M  V30 2894 C 271.44 1.76995 -1.50915 0
M  V30 2895 C 272.434 1.65053 -0.381295 0
M  V30 2896 O 273.64 1.71197 -0.55601 0
M  V30 2897 H 270.015 0.584247 -0.473455 0
M  V30 2898 H 271.986 1.68432 -2.4632 0
M  V30 2899 C 270.735 3.15314 -1.46534 0
M  V30 2900 H 270.058 3.25149 -2.32633 0
M  V30 2901 H 271.498 3.9453 -1.55312 0
M  V30 2902 C 269.957 3.3639 -0.185305 0
M  V30 2903 O 270.487 3.94699 0.746688 0
M  V30 2904 N 268.693 2.9046 -0.0901606 0
M  V30 2905 H 268.24 2.43193 -0.849416 0
M  V30 2906 H 268.198 3.04937 0.765553 0
M  V30 2907 N 271.97 1.30982 0.876444 0
M  V30 2908 C 272.902 1.13902 1.98894 0
M  V30 2909 C 273.915 0.0798815 1.62604 0
M  V30 2910 O 275.104 0.326743 1.75484 0
M  V30 2911 C 272.204 0.716699 3.31235 0
M  V30 2912 C 271.377 1.85945 3.95908 0
M  V30 2913 C 270.436 1.42426 5.06558 0
M  V30 2914 O 269.462 2.13287 5.27729 0
M  V30 2915 N 270.664 0.308025 5.79682 0
M  V30 2916 H 273.429 2.09724 2.14094 0
M  V30 2917 H 270.99 1.2323 1.05004 0
M  V30 2918 H 272.982 0.408403 4.02634 0
M  V30 2919 H 271.552 -0.149719 3.12241 0
M  V30 2920 H 270.772 2.33541 3.17573 0
M  V30 2921 H 272.06 2.62503 4.35855 0
M  V30 2922 H 271.458 -0.282241 5.64995 0
M  V30 2923 H 270.015 0.0592282 6.51773 0
M  V30 2924 N 273.449 -1.08991 1.13837 0
M  V30 2925 C 274.726 -1.77863 0.813876 0
M  V30 2926 C 275.106 -1.99375 -0.693746 0
M  V30 2927 O 274.454 -1.59875 -1.63255 0
M  V30 2928 C 274.664 -3.0986 1.60586 0
M  V30 2929 C 276.012 -3.84493 1.8014 0
M  V30 2930 O 277.036 -3.19624 1.57222 0
M  V30 2931 O 275.895 -5.00957 2.18413 0
M  V30 2932 H 272.989 -0.771589 0.297624 0
M  V30 2933 H 275.535 -1.15507 1.24323 0
M  V30 2934 H 274.307 -2.89715 2.63022 0
M  V30 2935 H 273.93 -3.79942 1.17173 0
M  V30 2936 N 274.927 -0.932562 -1.27047 0
M  V30 2937 C 275.874 -0.434072 -2.26681 0
M  V30 2938 C 276.844 0.501639 -1.58344 0
M  V30 2939 O 278.029 0.419734 -1.86126 0
M  V30 2940 C 275.169 0.30261 -3.43771 0
M  V30 2941 C 274.282 -0.667774 -4.26808 0
M  V30 2942 C 273.417 0.0892393 -5.31125 0
M  V30 2943 C 272.456 -0.873532 -6.05835 0
M  V30 2944 N 271.593 -0.148832 -7.01942 0
M  V30 2945 H 276.433 -1.28868 -2.68695 0
M  V30 2946 H 273.97 -0.646713 -1.32121 0
M  V30 2947 H 275.928 0.746092 -4.10474 0
M  V30 2948 H 274.558 1.12142 -3.02695 0
M  V30 2949 H 273.61 -1.22978 -3.59973 0
M  V30 2950 H 274.922 -1.40337 -4.78651 0
M  V30 2951 H 274.076 0.592409 -6.03801 0
M  V30 2952 H 272.815 0.85777 -4.80097 0
M  V30 2953 H 271.82 -1.38791 -5.31994 0
M  V30 2954 H 273.045 -1.64193 -6.58952 0
M  V30 2955 H 270.991 0.601365 -6.53238 0
M  V30 2956 H 270.908 -0.82391 -7.51497 0
M  V30 2957 H 272.176 0.333527 -7.78786 0
M  V30 2958 N 276.405 1.4127 -0.698611 0
M  V30 2959 C 277.63 2.06024 -0.238512 0
M  V30 2960 C 278.055 1.5224 1.10475 0
M  V30 2961 O 277.413 0.650623 1.69223 0
M  V30 2962 C 277.461 3.59988 -0.209952 0
M  V30 2963 O 276.565 4.04282 0.814235 0
M  V30 2964 H 275.906 0.653829 -0.115775 0
M  V30 2965 H 278.436 1.8098 -0.954326 0
M  V30 2966 H 278.446 4.07979 -0.0418436 0
M  V30 2967 H 277.121 3.98503 -1.1903 0
M  V30 2968 H 275.698 3.6779 0.615234 0
M  V30 2969 N 277.883 0.443576 1.51229 0
M  V30 2970 C 279.132 -0.122332 2.01329 0
M  V30 2971 C 279.445 -1.43237 1.33201 0
M  V30 2972 O 280.651 -2.0816 1.74304 0
M  V30 2973 C 279.107 -0.268551 3.58897 0
M  V30 2974 C 278.715 1.03142 4.35965 0
M  V30 2975 C 280.459 -0.787894 4.17124 0
M  V30 2976 C 278.366 0.850504 5.85252 0
M  V30 2977 H 277.296 -0.0494929 0.752374 0
M  V30 2978 H 279.947 0.574289 1.74282 0
M  V30 2979 H 278.329 -1.02832 3.82415 0
M  V30 2980 H 279.503 1.80001 4.24189 0
M  V30 2981 H 277.818 1.47977 3.89219 0
M  V30 2982 H 280.415 -0.939841 5.26375 0
M  V30 2983 H 280.758 -1.77201 3.76703 0
M  V30 2984 H 281.291 -0.0862669 3.97706 0
M  V30 2985 H 278.03 1.80718 6.30096 0
M  V30 2986 H 277.55 0.121825 5.99676 0
M  V30 2987 H 279.229 0.506163 6.45017 0
M  V30 2988 N 279.361 -1.56624 0.175154 0
M  V30 2989 C 280.271 -2.21741 -0.766042 0
M  V30 2990 C 281.287 -1.21023 -1.25018 0
M  V30 2991 O 282.463 -1.53697 -1.3015 0
M  V30 2992 C 279.528 -2.84839 -1.97655 0
M  V30 2993 C 278.589 -4.00769 -1.53892 0
M  V30 2994 C 277.822 -4.60849 -2.69173 0
M  V30 2995 O 278.045 -4.19823 -3.86141 0
M  V30 2996 O 276.979 -5.50655 -2.43028 0
M  V30 2997 H 280.805 -3.02738 -0.241585 0
M  V30 2998 H 278.39 -1.49305 -0.053222 0
M  V30 2999 H 280.272 -3.24834 -2.68442 0
M  V30 3000 H 278.947 -2.06836 -2.48999 0
M  V30 3001 H 277.854 -3.65436 -0.80044 0
M  V30 3002 H 279.187 -4.80376 -1.07236 0
M  V30 3003 N 280.839 0.0985539 -1.57292 0
M  V30 3004 C 282.116 0.834155 -1.76921 0
M  V30 3005 C 282.496 1.97101 -0.755928 0
M  V30 3006 O 281.844 2.27474 0.216245 0
M  V30 3007 C 282.054 1.33194 -3.22584 0
M  V30 3008 C 283.402 1.77611 -3.85668 0
M  V30 3009 O 284.426 1.42825 -3.26312 0
M  V30 3010 O 283.285 2.4192 -4.90038 0
M  V30 3011 H 280.379 0.397628 -0.725135 0
M  V30 3012 H 282.925 0.0807044 -1.69508 0
M  V30 3013 H 281.697 0.517248 -3.87866 0
M  V30 3014 H 281.32 2.1475 -3.34616 0
M  V30 3015 N 282.317 1.53212 0.369288 0
M  V30 3016 C 283.564 1.69215 1.11232 0
M  V30 3017 C 283.892 0.442048 1.8941 0
M  V30 3018 O 283.147 -0.575944 1.87033 0
M  V30 3019 C 283.446 2.89101 2.10132 0
M  V30 3020 C 283.112 4.25758 1.48463 0
M  V30 3021 C 281.774 4.6292 1.31372 0
M  V30 3022 C 284.126 5.10757 1.03811 0
M  V30 3023 C 281.454 5.82722 0.68207 0
M  V30 3024 C 283.806 6.31201 0.420487 0
M  V30 3025 C 282.47 6.67079 0.237038 0
M  V30 3026 H 281.74 0.619201 0.407027 0
M  V30 3027 H 284.387 1.87391 0.394552 0
M  V30 3028 H 282.692 2.65421 2.88199 0
M  V30 3029 H 284.389 2.98676 2.6757 0
M  V30 3030 H 280.979 3.96494 1.62758 0
M  V30 3031 H 285.163 4.82599 1.1581 0
M  V30 3032 H 280.419 6.09113 0.528316 0
M  V30 3033 H 284.593 6.96368 0.0662874 0
M  V30 3034 H 282.22 7.59774 -0.254477 0
M  V30 3035 N 283.795 -0.628877 1.44509 0
M  V30 3036 C 284.758 -1.72263 1.51188 0
M  V30 3037 C 285.758 -1.55907 0.39367 0
M  V30 3038 O 286.948 -1.61361 0.656377 0
M  V30 3039 C 284.08 -3.11365 1.38798 0
M  V30 3040 H 285.273 -1.67714 2.4862 0
M  V30 3041 H 282.826 -0.842737 1.31634 0
M  V30 3042 H 283.561 -3.21507 0.424693 0
M  V30 3043 H 283.346 -3.24644 2.19884 0
M  V30 3044 H 284.836 -3.91075 1.46458 0
M  V30 3045 N 285.273 -1.31445 -0.869486 0
M  V30 3046 C 286.223 -1.15731 -1.96444 0
M  V30 3047 C 287.207 -0.0681855 -1.60755 0
M  V30 3048 O 288.399 -0.293154 -1.74555 0
M  V30 3049 C 285.528 -0.867255 -3.32165 0
M  V30 3050 C 284.614 -1.99738 -3.74119 0
M  V30 3051 N 285.005 -3.24447 -3.88031 0
M  V30 3052 C 283.303 -1.89723 -4.03635 0
M  V30 3053 C 284.004 -3.98374 -4.23879 0
M  V30 3054 N 282.98 -3.26547 -4.3459 0
M  V30 3055 H 286.782 -2.10296 -2.05312 0
M  V30 3056 H 284.296 -1.23009 -1.06031 0
M  V30 3057 H 286.293 -0.735668 -4.10358 0
M  V30 3058 H 284.953 0.0701614 -3.24624 0
M  V30 3059 H 285.964 -3.59557 -3.72746 0
M  V30 3060 H 282.641 -1.03449 -4.04481 0
M  V30 3061 H 284.031 -5.05844 -4.42235 0
M  V30 3062 N 286.751 1.08385 -1.14413 0
M  V30 3063 C 287.976 1.85057 -0.936413 0
M  V30 3064 C 288.401 1.81055 0.509971 0
M  V30 3065 O 287.759 1.1958 1.36273 0
M  V30 3066 C 287.807 3.30505 -1.44217 0
M  V30 3067 O 286.911 4.07491 -0.634409 0
M  V30 3068 H 286.252 0.573425 -0.334784 0
M  V30 3069 H 288.782 1.36799 -1.52142 0
M  V30 3070 H 288.792 3.81348 -1.45043 0
M  V30 3071 H 287.467 3.32734 -2.49522 0
M  V30 3072 H 286.044 3.66368 -0.694902 0
M  V30 3073 N 288.23 0.939286 1.26551 0
M  V30 3074 C 289.455 0.602008 1.98471 0
M  V30 3075 C 289.88 -0.815624 1.69497 0
M  V30 3076 O 289.238 -1.54912 0.941905 0
M  V30 3077 C 289.286 0.848407 3.50477 0
M  V30 3078 O 288.39 -0.0804009 4.12322 0
M  V30 3079 H 287.731 0.23049 0.622712 0
M  V30 3080 H 290.261 1.2617 1.61066 0
M  V30 3081 H 290.271 0.768553 4.00696 0
M  V30 3082 H 288.946 1.88171 3.70897 0
M  V30 3083 H 287.523 0.0503508 3.72866 0
M  V30 3084 N 289.708 -1.40897 0.706093 0
M  V30 3085 C 290.955 -2.01054 0.241531 0
M  V30 3086 C 291.283 -1.55956 -1.16223 0
M  V30 3087 O 290.538 -0.766336 -1.80072 0
M  V30 3088 C 290.837 -3.5646 0.259099 0
M  V30 3089 C 290.503 -4.21106 1.61184 0
M  V30 3090 C 289.165 -4.38479 1.98216 0
M  V30 3091 C 291.517 -4.57256 2.50132 0
M  V30 3092 C 288.845 -4.89282 3.2376 0
M  V30 3093 C 291.197 -5.09454 3.7502 0
M  V30 3094 C 289.861 -5.25037 4.12181 0
M  V30 3095 H 289.131 -0.73571 0.0883825 0
M  V30 3096 H 291.778 -1.68645 0.907257 0
M  V30 3097 H 290.083 -3.88721 -0.490189 0
M  V30 3098 H 291.78 -4.00826 -0.11804 0
M  V30 3099 H 288.37 -4.07966 1.31384 0
M  V30 3100 H 292.554 -4.43479 2.228 0
M  V30 3101 H 287.81 -4.99531 3.52532 0
M  V30 3102 H 291.984 -5.36404 4.44121 0
M  V30 3103 H 289.611 -5.64164 5.09532 0
M  V30 3104 N 291.186 -0.45159 -1.50991 0
M  V30 3105 C 292.118 0.388634 -2.25881 0
M  V30 3106 C 293.131 0.974041 -1.30446 0
M  V30 3107 O 294.32 0.865758 -1.56099 0
M  V30 3108 C 291.42 1.5571 -3.01011 0
M  V30 3109 C 290.593 1.08801 -4.23652 0
M  V30 3110 C 289.652 2.12825 -4.8124 0
M  V30 3111 O 288.678 1.71678 -5.42693 0
M  V30 3112 N 289.88 3.45453 -4.66522 0
M  V30 3113 H 292.645 -0.25329 -2.98628 0
M  V30 3114 H 290.206 -0.281268 -1.59438 0
M  V30 3115 H 292.198 2.24952 -3.3642 0
M  V30 3116 H 290.768 2.10409 -2.31186 0
M  V30 3117 H 289.988 0.22215 -3.93574 0
M  V30 3118 H 291.276 0.752213 -5.03209 0
M  V30 3119 H 290.674 3.81605 -4.17605 0
M  V30 3120 H 289.231 4.10549 -5.06254 0
M  V30 3121 N 292.664 1.56529 -0.183458 0
M  V30 3122 C 293.597 2.14417 0.781052 0
M  V30 3123 C 294.575 1.07761 1.21763 0
M  V30 3124 O 295.759 1.35807 1.30724 0
M  V30 3125 C 292.886 2.69361 2.05335 0
M  V30 3126 C 291.932 3.885 1.75982 0
M  V30 3127 S 292.765 5.27568 0.918256 0
M  V30 3128 C 293.921 5.85926 2.20095 0
M  V30 3129 H 294.154 2.95893 0.2889 0
M  V30 3130 H 291.687 1.54368 0.0313844 0
M  V30 3131 H 293.645 3.01662 2.78406 0
M  V30 3132 H 292.306 1.87949 2.51663 0
M  V30 3133 H 291.499 4.25314 2.70415 0
M  V30 3134 H 291.101 3.57149 1.10999 0
M  V30 3135 H 293.393 5.99579 3.15453 0
M  V30 3136 H 294.336 6.82761 1.87731 0
M  V30 3137 H 294.744 5.14438 2.32409 0
M  V30 3138 N 294.142 -0.090211 1.57342 0
M  V30 3139 C 295.105 -1.09335 2.01441 0
M  V30 3140 C 296.105 -1.32666 0.908641 0
M  V30 3141 O 297.295 -1.28697 1.174 0
M  V30 3142 C 294.427 -2.44136 2.3793 0
M  V30 3143 H 295.62 -0.713662 2.91285 0
M  V30 3144 H 293.173 -0.335404 1.52659 0
M  V30 3145 H 293.908 -2.86972 1.51055 0
M  V30 3146 H 293.693 -2.28548 3.18603 0
M  V30 3147 H 295.183 -3.16277 2.72688 0
M  V30 3148 N 295.62 -1.53406 -0.361157 0
M  V30 3149 C 296.55 -1.83136 -1.44857 0
M  V30 3150 C 297.531 -0.685174 -1.5569 0
M  V30 3151 O 298.716 -0.93544 -1.70186 0
M  V30 3152 C 295.846 -2.02522 -2.82138 0
M  V30 3153 C 294.8 -3.18302 -2.86126 0
M  V30 3154 C 294.126 -3.22989 -4.26125 0
M  V30 3155 C 295.426 -4.56796 -2.53248 0
M  V30 3156 H 297.12 -2.74201 -1.20226 0
M  V30 3157 H 294.666 -1.31938 -0.576922 0
M  V30 3158 H 296.619 -2.21904 -3.58241 0
M  V30 3159 H 295.343 -1.08172 -3.08166 0
M  V30 3160 H 294.002 -2.98747 -2.12475 0
M  V30 3161 H 293.65 -2.26267 -4.49235 0
M  V30 3162 H 293.35 -4.00781 -4.29708 0
M  V30 3163 H 294.874 -3.44559 -5.04094 0
M  V30 3164 H 296.288 -4.7631 -3.19064 0
M  V30 3165 H 294.685 -5.36862 -2.68141 0
M  V30 3166 H 295.755 -4.61606 -1.48484 0
M  V30 3167 N 297.098 0.621204 -1.44841 0
M  V30 3168 C 298.323 1.41244 -1.51871 0
M  V30 3169 C 298.748 1.87519 -0.147764 0
M  V30 3170 O 298.106 1.59334 0.865 0
M  V30 3171 C 298.154 2.60221 -2.49634 0
M  V30 3172 O 297.258 3.60395 -2.00473 0
M  V30 3173 H 296.599 0.42223 -0.512463 0
M  V30 3174 H 299.129 0.757305 -1.90069 0
M  V30 3175 H 299.139 3.0764 -2.67996 0
M  V30 3176 H 297.814 2.25887 -3.4921 0
M  V30 3177 H 296.391 3.19717 -1.91925 0
M  V30 3178 N 298.576 1.31904 0.862503 0
M  V30 3179 C 299.523 1.20182 1.9704 0
M  V30 3180 C 300.493 0.0858247 1.65878 0
M  V30 3181 O 301.678 0.26 1.8902 0
M  V30 3182 C 298.818 0.922797 3.32533 0
M  V30 3183 C 297.931 2.12284 3.76244 0
M  V30 3184 C 297.066 1.77996 5.00491 0
M  V30 3185 C 296.105 2.94366 5.36671 0
M  V30 3186 N 295.242 2.60223 6.52095 0
M  V30 3187 H 300.082 2.14951 2.06398 0
M  V30 3188 H 297.619 1.06917 1.01031 0
M  V30 3189 H 299.577 0.741548 4.10557 0
M  V30 3190 H 298.207 0.0119227 3.22798 0
M  V30 3191 H 297.259 2.41461 2.9394 0
M  V30 3192 H 298.571 2.99357 3.98982 0
M  V30 3193 H 297.725 1.56377 5.862 0
M  V30 3194 H 296.464 0.881252 4.79672 0
M  V30 3195 H 295.469 3.16625 4.49476 0
M  V30 3196 H 296.694 3.84957 5.59451 0
M  V30 3197 H 294.64 1.72884 6.32809 0
M  V30 3198 H 294.557 3.40827 6.74814 0
M  V30 3199 H 295.825 2.42016 7.40978 0
M  V30 3200 N 300.054 -1.07777 1.14986 0
M  V30 3201 C 301.302 -1.79934 0.920235 0
M  V30 3202 C 301.623 -1.86955 -0.554336 0
M  V30 3203 O 300.893 -1.36731 -1.40291 0
M  V30 3204 H 299.473 -0.666424 0.337473 0
M  V30 3205 H 302.135 -1.3027 1.44968 0
M  V30 3206 H 301.231 -2.82539 1.32583 0
M  V30 3207 N 301.532 -0.945985 -1.26051 0
M  V30 3208 C 302.778 -0.606539 -1.94146 0
M  V30 3209 C 303.133 0.84586 -1.72809 0
M  V30 3210 O 302.426 1.59781 -1.05738 0
M  V30 3211 C 302.62 -0.890475 -3.46129 0
M  V30 3212 C 302.449 -2.36892 -3.82246 0
M  V30 3213 C 301.219 -3.02494 -4.04753 0
M  V30 3214 C 303.417 -3.34772 -3.90425 0
M  V30 3215 N 301.399 -4.40302 -4.27794 0
M  V30 3216 C 302.77 -4.57855 -4.18054 0
M  V30 3217 C 304.825 -3.2973 -3.73072 0
M  V30 3218 C 303.528 -5.76522 -4.30134 0
M  V30 3219 C 305.554 -4.47727 -3.86386 0
M  V30 3220 C 304.916 -5.69593 -4.14419 0
M  V30 3221 H 301.015 -0.272407 -0.73302 0
M  V30 3222 H 303.599 -1.21638 -1.52027 0
M  V30 3223 H 301.77 -0.309638 -3.87164 0
M  V30 3224 H 303.502 -0.51181 -4.01451 0
M  V30 3225 H 300.257 -2.53095 -4.003 0
M  V30 3226 H 300.681 -5.11646 -4.43337 0
M  V30 3227 H 305.323 -2.36565 -3.50424 0
M  V30 3228 H 303.041 -6.70136 -4.51601 0
M  V30 3229 H 306.627 -4.45363 -3.74356 0
M  V30 3230 H 305.507 -6.59375 -4.24493 0
M  V30 3231 N 303.011 1.40521 -0.713556 0
M  V30 3232 C 304.422 1.83853 -0.324807 0
M  V30 3233 C 304.773 1.59667 1.14021 0
M  V30 3234 O 303.898 1.07649 1.87725 0
M  V30 3235 C 304.493 3.33751 -0.582746 0
M  V30 3236 C 303.052 3.75584 -0.247727 0
M  V30 3237 C 302.199 2.63753 -0.856121 0
M  V30 3238 H 305.15 1.29817 -0.91286 0
M  V30 3239 H 305.171 3.80194 0.152682 0
M  V30 3240 H 304.683 3.51322 -1.64908 0
M  V30 3241 H 302.784 3.63608 0.813624 0
M  V30 3242 H 302.897 4.7373 -0.715307 0
M  V30 3243 H 301.261 2.53108 -0.28432 0
M  V30 3244 H 302.044 2.84137 -1.92668 0
M  V30 3245 N 304.489 0.459591 1.5075 0
M  V30 3246 C 305.419 -0.330644 2.31147 0
M  V30 3247 C 306.4 -1.00087 1.37538 0
M  V30 3248 O 307.585 -1.00025 1.66459 0
M  V30 3249 C 304.715 -1.41958 3.16962 0
M  V30 3250 C 303.669 -0.871608 4.19031 0
M  V30 3251 C 302.995 -2.05797 4.9351 0
M  V30 3252 C 304.295 0.109251 5.22186 0
M  V30 3253 H 305.989 0.340336 2.97459 0
M  V30 3254 H 303.535 0.165119 1.4305 0
M  V30 3255 H 305.488 -1.9798 3.71997 0
M  V30 3256 H 304.212 -2.11917 2.48513 0
M  V30 3257 H 302.871 -0.333442 3.6508 0
M  V30 3258 H 302.519 -2.74427 4.21544 0
M  V30 3259 H 302.219 -1.6976 5.62544 0
M  V30 3260 H 303.743 -2.62331 5.51375 0
M  V30 3261 H 305.157 -0.361405 5.7216 0
M  V30 3262 H 303.554 0.383316 5.98875 0
M  V30 3263 H 304.624 1.03887 4.73641 0
M  V30 3264 N 305.967 -1.56429 0.191757 0
M  V30 3265 C 307.197 -2.01574 -0.452928 0
M  V30 3266 C 307.605 -1.07107 -1.55964 0
M  V30 3267 O 306.948 -0.067534 -1.83576 0
M  V30 3268 C 307.01 -3.43121 -1.07278 0
M  V30 3269 C 306.674 -4.56879 -0.105214 0
M  V30 3270 C 307.671 -5.15379 0.684149 0
M  V30 3271 C 305.356 -5.023 0.00489824 0
M  V30 3272 C 307.35 -6.17746 1.57062 0
M  V30 3273 C 305.037 -6.04511 0.894935 0
M  V30 3274 C 306.035 -6.62108 1.67637 0
M  V30 3275 O 305.723 -7.62335 2.55149 0
M  V30 3276 H 305.455 -0.665554 -0.118379 0
M  V30 3277 H 308.009 -2.03245 0.296737 0
M  V30 3278 H 306.239 -3.38425 -1.87097 0
M  V30 3279 H 307.928 -3.72093 -1.62177 0
M  V30 3280 H 308.694 -4.81157 0.609365 0
M  V30 3281 H 304.573 -4.57168 -0.593156 0
M  V30 3282 H 308.117 -6.6263 2.181 0
M  V30 3283 H 304.014 -6.38157 0.970847 0
M  V30 3284 H 304.782 -7.79741 2.48892 0
M  V30 3285 N 307.445 0.0818655 -1.57387 0
M  V30 3286 C 308.375 1.09885 -2.06028 0
M  V30 3287 C 309.356 1.4098 -0.951774 0
M  V30 3288 O 310.541 1.50781 -1.22387 0
M  V30 3289 C 307.671 2.4151 -2.4958 0
M  V30 3290 C 306.625 2.24792 -3.64215 0
M  V30 3291 C 305.951 3.61712 -3.93787 0
M  V30 3292 C 307.251 1.67749 -4.94629 0
M  V30 3293 H 308.945 0.694128 -2.91243 0
M  V30 3294 H 306.491 0.332448 -1.4011 0
M  V30 3295 H 308.444 3.12939 -2.82219 0
M  V30 3296 H 307.168 2.83943 -1.61381 0
M  V30 3297 H 305.827 1.55807 -3.31843 0
M  V30 3298 H 305.475 4.01697 -3.02735 0
M  V30 3299 H 305.175 3.51368 -4.70971 0
M  V30 3300 H 306.699 4.34587 -4.28913 0
M  V30 3301 H 308.113 2.29032 -5.25564 0
M  V30 3302 H 306.51 1.68128 -5.76067 0
M  V30 3303 H 307.58 0.638059 -4.80684 0
M  V30 3304 N 308.923 1.53595 0.353017 0
M  V30 3305 C 310.148 1.7462 1.11904 0
M  V30 3306 C 310.573 0.479721 1.8188 0
M  V30 3307 O 309.931 -0.567066 1.72204 0
M  V30 3308 C 309.979 2.92029 2.11545 0
M  V30 3309 O 309.083 2.61516 3.18878 0
M  V30 3310 H 308.424 0.579531 0.324099 0
M  V30 3311 H 310.954 2.00525 0.406301 0
M  V30 3312 H 310.964 3.18551 2.5493 0
M  V30 3313 H 309.639 3.83888 1.60008 0
M  V30 3314 H 308.216 2.45852 2.80377 0
M  V30 3315 N 310.401 -0.613514 1.45168 0
M  V30 3316 C 311.629 -1.39946 1.5239 0
M  V30 3317 C 312.044 -1.88167 0.154531 0
M  V30 3318 O 311.401 -1.61872 -0.842843 0
M  V30 3319 C 311.452 -2.60795 2.50337 0
M  V30 3320 O 311.173 -2.1458 3.81952 0
M  V30 3321 C 312.674 -3.53723 2.67198 0
M  V30 3322 H 309.894 -0.428593 0.516284 0
M  V30 3323 H 312.438 -0.748753 1.903 0
M  V30 3324 H 310.593 -3.21919 2.15515 0
M  V30 3325 H 311.007 -2.93055 4.34993 0
M  V30 3326 H 312.481 -4.35079 3.39721 0
M  V30 3327 H 312.958 -4.0368 1.73029 0
M  V30 3328 H 313.564 -2.98456 3.02992 0
M  V30 3329 N 311.879 -1.3236 -0.855495 0
M  V30 3330 C 312.826 -1.21225 -1.964 0
M  V30 3331 C 313.796 -0.0946204 -1.6583 0
M  V30 3332 O 314.981 -0.27002 -1.8888 0
M  V30 3333 C 312.121 -0.940419 -3.32039 0
M  V30 3334 C 311.234 -2.14276 -3.75113 0
M  V30 3335 C 310.369 -1.80648 -4.9954 0
M  V30 3336 C 309.408 -2.97208 -5.35102 0
M  V30 3337 N 308.545 -2.63678 -6.50706 0
M  V30 3338 H 313.385 -2.16042 -2.05255 0
M  V30 3339 H 310.922 -1.07451 -1.00463 0
M  V30 3340 H 312.88 -0.763311 -4.10158 0
M  V30 3341 H 311.51 -0.0290413 -3.22787 0
M  V30 3342 H 310.562 -2.43017 -2.92655 0
M  V30 3343 H 311.874 -3.01468 -3.97389 0
M  V30 3344 H 311.028 -1.59484 -5.85363 0
M  V30 3345 H 309.767 -0.906678 -4.79198 0
M  V30 3346 H 308.772 -3.19004 -4.47791 0
M  V30 3347 H 309.997 -3.87918 -5.57401 0
M  V30 3348 H 307.943 -1.76238 -6.31883 0
M  V30 3349 H 307.86 -3.444 -6.72997 0
M  V30 3350 H 309.128 -2.45942 -7.39684 0
M  V30 3351 N 313.357 1.07166 -1.15556 0
M  V30 3352 C 314.305 2.16517 -0.8499 0
M  V30 3353 C 315.299 1.68468 0.177454 0
M  V30 3354 O 316.505 1.79971 0.0323026 0
M  V30 3355 H 312.88 0.706652 -0.25719 0
M  V30 3356 H 314.851 2.39514 -1.77976 0
M  V30 3357 C 313.6 3.45855 -0.357682 0
M  V30 3358 H 312.923 3.83214 -1.13961 0
M  V30 3359 H 314.363 4.23607 -0.182489 0
M  V30 3360 C 312.822 3.24062 0.921152 0
M  V30 3361 O 313.352 3.48813 1.9923 0
M  V30 3362 N 311.558 2.77539 0.86141 0
M  V30 3363 H 311.105 2.57598 -0.0104408 0
M  V30 3364 H 311.063 2.63337 1.71758 0
M  V30 3365 N 314.835 0.952656 1.25548 0
M  V30 3366 C 316.063 0.623496 1.97282 0
M  V30 3367 C 316.478 -0.803987 1.70826 0
M  V30 3368 O 315.835 -1.53755 0.983147 0
M  V30 3369 C 315.886 0.870209 3.5087 0
M  V30 3370 O 315.607 2.24156 3.76412 0
M  V30 3371 C 317.108 0.553164 4.39835 0
M  V30 3372 H 314.328 0.233931 0.628902 0
M  V30 3373 H 316.872 1.27649 1.59768 0
M  V30 3374 H 315.027 0.263652 3.86502 0
M  V30 3375 H 315.441 2.31021 4.70882 0
M  V30 3376 H 316.915 0.776342 5.46513 0
M  V30 3377 H 317.392 -0.512215 4.36203 0
M  V30 3378 H 317.998 1.13896 4.09766 0
M  V30 3379 N 316.313 -1.40141 0.720998 0
M  V30 3380 C 317.562 -2.0002 0.259804 0
M  V30 3381 C 317.875 -1.57839 -1.15526 0
M  V30 3382 O 319.081 -2.10455 -1.71525 0
M  V30 3383 C 317.537 -3.57516 0.413566 0
M  V30 3384 C 317.145 -4.08667 1.83562 0
M  V30 3385 C 318.889 -4.24498 0.0134387 0
M  V30 3386 C 316.796 -5.58686 1.93968 0
M  V30 3387 H 315.726 -0.748195 0.0933806 0
M  V30 3388 H 318.377 -1.60313 0.892866 0
M  V30 3389 H 316.759 -3.9495 -0.288169 0
M  V30 3390 H 317.933 -3.82598 2.56817 0
M  V30 3391 H 316.248 -3.543 2.1877 0
M  V30 3392 H 318.845 -5.34654 0.0703954 0
M  V30 3393 H 319.188 -4.03375 -1.02927 0
M  V30 3394 H 319.721 -3.92188 0.665815 0
M  V30 3395 H 316.46 -5.8467 2.96379 0
M  V30 3396 H 315.98 -5.86602 1.25131 0
M  V30 3397 H 317.659 -6.23875 1.71431 0
M  V30 3398 N 317.792 -0.46758 -1.50504 0
M  V30 3399 C 318.722 0.318381 -2.31319 0
M  V30 3400 C 319.703 0.993564 -1.38066 0
M  V30 3401 O 320.888 0.991411 -1.66987 0
M  V30 3402 C 318.018 1.40275 -3.17711 0
M  V30 3403 C 316.972 0.849373 -4.19487 0
M  V30 3404 C 316.298 2.03177 -4.94594 0
M  V30 3405 C 317.598 -0.136942 -5.2212 0
M  V30 3406 H 319.292 -0.356106 -2.97275 0
M  V30 3407 H 316.838 -0.172703 -1.42961 0
M  V30 3408 H 318.791 1.96004 -3.73042 0
M  V30 3409 H 317.515 2.10596 -2.49634 0
M  V30 3410 H 316.174 0.314076 -3.65252 0
M  V30 3411 H 315.822 2.72187 -4.22993 0
M  V30 3412 H 315.522 1.66774 -5.63436 0
M  V30 3413 H 317.046 2.59403 -5.52759 0
M  V30 3414 H 318.46 0.331056 -5.72343 0
M  V30 3415 H 316.857 -0.41507 -5.98663 0
M  V30 3416 H 317.927 -1.06398 -4.73083 0
M  V30 3417 N 319.27 1.56325 -0.20005 0
M  V30 3418 C 320.217 2.1932 0.718833 0
M  V30 3419 C 321.187 1.14198 1.20615 0
M  V30 3420 O 322.372 1.42469 1.26914 0
M  V30 3421 C 319.512 2.86041 1.93066 0
M  V30 3422 C 318.625 4.05702 1.48425 0
M  V30 3423 C 317.76 4.60266 2.65196 0
M  V30 3424 C 316.799 5.72273 2.17185 0
M  V30 3425 N 315.936 6.21221 3.27152 0
M  V30 3426 H 320.776 2.97486 0.17489 0
M  V30 3427 H 318.313 1.46911 0.0745794 0
M  V30 3428 H 320.271 3.22897 2.64184 0
M  V30 3429 H 318.901 2.1043 2.44783 0
M  V30 3430 H 317.953 3.74475 0.668755 0
M  V30 3431 H 319.265 4.86699 1.09204 0
M  V30 3432 H 318.419 4.99453 3.4443 0
M  V30 3433 H 317.158 3.78386 3.07693 0
M  V30 3434 H 316.163 5.3261 1.36407 0
M  V30 3435 H 317.388 6.55974 1.75713 0
M  V30 3436 H 315.334 5.42263 3.69171 0
M  V30 3437 H 315.251 6.97284 2.92116 0
M  V30 3438 H 316.519 6.65063 4.06585 0
M  V30 3439 N 320.748 -0.0735177 1.57428 0
M  V30 3440 C 321.695 -1.08756 2.0357 0
M  V30 3441 C 322.665 -1.38559 0.916 0
M  V30 3442 O 323.85 -1.49656 1.18354 0
M  V30 3443 C 320.99 -2.39657 2.48311 0
M  V30 3444 C 320.103 -2.16399 3.73892 0
M  V30 3445 C 319.238 -3.40852 4.07423 0
M  V30 3446 C 318.277 -3.1295 5.2605 0
M  V30 3447 N 317.414 -4.29729 5.55228 0
M  V30 3448 H 322.254 -0.687104 2.8997 0
M  V30 3449 H 319.791 -0.327709 1.43403 0
M  V30 3450 H 321.749 -3.16081 2.72303 0
M  V30 3451 H 320.379 -2.77508 1.64891 0
M  V30 3452 H 319.431 -1.30676 3.57251 0
M  V30 3453 H 320.743 -1.91788 4.60455 0
M  V30 3454 H 319.897 -4.25671 4.32306 0
M  V30 3455 H 318.636 -3.68537 3.19425 0
M  V30 3456 H 317.641 -2.26526 5.00965 0
M  V30 3457 H 318.866 -2.86589 6.15665 0
M  V30 3458 H 316.812 -4.57448 4.70188 0
M  V30 3459 H 316.729 -4.08385 6.36206 0
M  V30 3460 H 317.997 -5.1555 5.84661 0
M  V30 3461 N 322.226 -1.5378 -0.344866 0
M  V30 3462 C 323.456 -1.74646 -1.10374 0
M  V30 3463 C 323.864 -0.48491 -1.8288 0
M  V30 3464 O 323.207 0.553062 -1.75177 0
M  V30 3465 C 323.269 -2.87145 -2.16306 0
M  V30 3466 C 322.933 -4.26795 -1.63386 0
M  V30 3467 C 323.93 -5.08412 -1.08688 0
M  V30 3468 C 321.615 -4.73276 -1.68272 0
M  V30 3469 C 323.609 -6.34609 -0.595792 0
M  V30 3470 C 321.296 -5.99446 -1.18776 0
M  V30 3471 C 322.294 -6.79946 -0.645215 0
M  V30 3472 O 321.982 -8.03745 -0.157626 0
M  V30 3473 H 321.714 -0.587112 -0.335075 0
M  V30 3474 H 324.268 -2.01403 -0.403252 0
M  V30 3475 H 322.498 -2.55909 -2.89909 0
M  V30 3476 H 324.187 -2.95992 -2.77747 0
M  V30 3477 H 324.953 -4.73666 -1.04236 0
M  V30 3478 H 320.832 -4.10677 -2.09442 0
M  V30 3479 H 324.376 -6.97389 -0.171654 0
M  V30 3480 H 320.273 -6.33687 -1.22928 0
M  V30 3481 H 321.041 -8.18038 -0.275037 0
M  V30 3482 N 323.704 0.605807 -1.45491 0
M  V30 3483 C 324.981 1.36522 -1.40075 0
M  V30 3484 C 325.361 2.10976 -0.0722744 0
M  V30 3485 O 324.709 2.08007 0.945808 0
M  V30 3486 C 324.919 2.31056 -2.61561 0
M  V30 3487 C 326.267 2.93608 -3.06724 0
M  V30 3488 O 327.291 2.41376 -2.61946 0
M  V30 3489 O 326.15 3.88421 -3.84437 0
M  V30 3490 H 323.244 0.612248 -0.555951 0
M  V30 3491 H 325.79 0.628747 -1.57623 0
M  V30 3492 H 324.562 1.75311 -3.49831 0
M  V30 3493 H 324.185 3.12081 -2.46356 0
M  V30 3494 N 325.182 1.32811 0.848464 0
M  V30 3495 C 326.43 1.23479 1.59991 0
M  V30 3496 C 326.751 -0.201853 1.93952 0
M  V30 3497 O 326.021 -1.12818 1.60153 0
M  V30 3498 H 324.601 0.454034 0.593179 0
M  V30 3499 H 327.263 1.66412 1.01455 0
M  V30 3500 H 326.359 1.82178 2.53412 0
M  V30 3501 N 326.66 -1.06551 1.16123 0
M  V30 3502 C 328.076 -1.3142 0.905585 0
M  V30 3503 C 328.276 -1.96571 -0.442964 0
M  V30 3504 O 327.332 -2.23068 -1.18308 0
M  V30 3505 C 328.645 -2.19741 2.05267 0
M  V30 3506 C 330.193 -2.33165 2.08813 0
M  V30 3507 C 330.668 -3.24838 3.22868 0
M  V30 3508 N 332.159 -3.32421 3.22568 0
M  V30 3509 C 332.894 -4.0344 4.0746 0
M  V30 3510 N 332.39 -4.77003 5.02434 0
M  V30 3511 N 334.183 -3.99464 3.95456 0
M  V30 3512 H 326.334 -0.626548 2.02949 0
M  V30 3513 H 328.597 -0.338777 0.8854 0
M  V30 3514 H 328.303 -1.79142 3.02657 0
M  V30 3515 H 328.177 -3.20313 1.99198 0
M  V30 3516 H 330.564 -2.73013 1.12018 0
M  V30 3517 H 330.645 -1.3227 2.18948 0
M  V30 3518 H 330.289 -2.85708 4.19921 0
M  V30 3519 H 330.219 -4.25707 3.0997 0
M  V30 3520 H 332.71 -2.79994 2.53795 0
M  V30 3521 H 333.023 -5.28712 5.63634 0
M  V30 3522 H 331.368 -4.75992 5.06415 0
M  V30 3523 H 334.559 -3.4111 3.20564 0
M  V30 3524 H 334.732 -4.54544 4.61837 0
M  V30 3525 N 328.138 -0.959301 -1.25041 0
M  V30 3526 C 329.385 -0.616611 -1.92884 0
M  V30 3527 C 329.713 0.847036 -1.75087 0
M  V30 3528 O 328.968 1.62374 -1.09239 0
M  V30 3529 C 329.267 -0.927136 -3.45165 0
M  V30 3530 C 328.933 -2.37757 -3.83122 0
M  V30 3531 C 327.595 -2.77402 -3.93194 0
M  V30 3532 C 329.947 -3.31929 -4.01836 0
M  V30 3533 C 327.275 -4.10277 -4.19392 0
M  V30 3534 C 329.627 -4.64423 -4.29528 0
M  V30 3535 C 328.291 -5.03857 -4.37818 0
M  V30 3536 H 327.561 -0.225634 -0.705812 0
M  V30 3537 H 330.208 -1.20921 -1.48493 0
M  V30 3538 H 328.513 -0.252195 -3.90987 0
M  V30 3539 H 330.21 -0.6405 -3.95852 0
M  V30 3540 H 326.8 -2.06013 -3.75841 0
M  V30 3541 H 330.984 -3.02488 -3.93465 0
M  V30 3542 H 326.24 -4.40467 -4.24027 0
M  V30 3543 H 330.414 -5.37369 -4.42953 0
M  V30 3544 H 328.041 -6.06843 -4.57871 0
M  V30 3545 N 329.616 1.39756 -0.72842 0
M  V30 3546 C 330.563 2.30647 -0.0841519 0
M  V30 3547 C 331.533 1.48869 0.7367 0
M  V30 3548 O 332.718 1.77574 0.698015 0
M  V30 3549 C 329.858 3.35165 0.822091 0
M  V30 3550 C 328.971 4.31999 -0.0106663 0
M  V30 3551 C 328.106 5.23585 0.896241 0
M  V30 3552 C 327.145 6.12072 0.0583381 0
M  V30 3553 N 326.282 6.96035 0.920818 0
M  V30 3554 H 331.122 2.85173 -0.864891 0
M  V30 3555 H 328.659 1.40422 -0.438179 0
M  V30 3556 H 330.617 3.94345 1.36189 0
M  V30 3557 H 329.247 2.8211 1.56888 0
M  V30 3558 H 328.299 3.74492 -0.66781 0
M  V30 3559 H 329.611 4.9443 -0.658825 0
M  V30 3560 H 328.765 5.87759 1.50412 0
M  V30 3561 H 327.504 4.61459 1.57819 0
M  V30 3562 H 326.509 5.46916 -0.562389 0
M  V30 3563 H 327.734 6.76261 -0.6203 0
M  V30 3564 H 325.68 6.36485 1.58818 0
M  V30 3565 H 325.597 7.55284 0.32899 0
M  V30 3566 H 326.865 7.64646 1.51447 0
M  V30 3567 N 331.094 0.475555 1.50254 0
M  V30 3568 C 332.371 -0.139685 1.95101 0
M  V30 3569 C 332.751 -1.56555 1.41611 0
M  V30 3570 O 332.099 -2.19956 0.618993 0
M  V30 3571 C 332.309 -0.0784298 3.48912 0
M  V30 3572 C 333.657 -0.265095 4.23772 0
M  V30 3573 O 334.681 -0.154808 3.55863 0
M  V30 3574 O 333.54 -0.488327 5.44314 0
M  V30 3575 H 330.634 -0.109236 0.819754 0
M  V30 3576 H 333.18 0.536276 1.61004 0
M  V30 3577 H 331.952 0.916918 3.80405 0
M  V30 3578 H 331.575 -0.795655 3.89558 0
M  V30 3579 N 332.573 -1.56217 0.208337 0
M  V30 3580 C 333.822 -1.97124 -0.427204 0
M  V30 3581 C 334.135 -1.09859 -1.61835 0
M  V30 3582 O 335.341 -1.40606 -2.32255 0
M  V30 3583 C 333.797 -3.50633 -0.811442 0
M  V30 3584 C 333.405 -4.46582 0.35615 0
M  V30 3585 C 335.149 -4.00282 -1.41332 0
M  V30 3586 C 333.056 -5.91379 -0.0497852 0
M  V30 3587 H 331.986 -0.736086 -0.163381 0
M  V30 3588 H 334.637 -1.8099 0.302456 0
M  V30 3589 H 333.019 -3.62319 -1.59815 0
M  V30 3590 H 334.193 -4.46636 1.1337 0
M  V30 3591 H 332.508 -4.07202 0.870396 0
M  V30 3592 H 335.105 -5.0595 -1.72972 0
M  V30 3593 H 335.448 -3.45359 -2.32449 0
M  V30 3594 H 335.981 -3.91764 -0.690323 0
M  V30 3595 H 332.72 -6.50255 0.827529 0
M  V30 3596 H 332.24 -5.94549 -0.791926 0
M  V30 3597 H 333.919 -6.45209 -0.481042 0
M  V30 3598 N 334.051 0.0651679 -1.57465 0
M  V30 3599 C 335.298 0.763063 -1.87573 0
M  V30 3600 C 335.626 1.77242 -0.800961 0
M  V30 3601 O 334.881 1.94651 0.202316 0
M  V30 3602 C 335.18 1.50081 -3.24362 0
M  V30 3603 C 334.846 0.630816 -4.46466 0
M  V30 3604 C 333.508 0.391082 -4.79608 0
M  V30 3605 C 335.86 0.0279465 -5.21193 0
M  V30 3606 C 333.188 -0.460894 -5.84887 0
M  V30 3607 C 335.54 -0.811522 -6.27373 0
M  V30 3608 C 334.204 -1.06106 -6.59013 0
M  V30 3609 H 333.474 0.279224 -0.686378 0
M  V30 3610 H 336.121 0.0236726 -1.91485 0
M  V30 3611 H 334.426 2.31258 -3.16271 0
M  V30 3612 H 336.123 2.04571 -3.44894 0
M  V30 3613 H 332.713 0.8278 -4.2053 0
M  V30 3614 H 336.897 0.200262 -4.95896 0
M  V30 3615 H 332.153 -0.662907 -6.07796 0
M  V30 3616 H 336.327 -1.28537 -6.84435 0
M  V30 3617 H 333.954 -1.723 -7.40417 0
M  V30 3618 N 335.529 1.53961 0.336706 0
M  V30 3619 C 336.461 1.78751 1.4346 0
M  V30 3620 C 337.474 0.669019 1.48418 0
M  V30 3621 O 338.663 0.945884 1.51378 0
M  V30 3622 C 335.763 1.87844 2.82078 0
M  V30 3623 C 334.936 3.17854 3.00479 0
M  V30 3624 C 333.995 3.17816 4.19379 0
M  V30 3625 O 333.021 3.91511 4.13168 0
M  V30 3626 N 334.223 2.40669 5.2826 0
M  V30 3627 H 336.988 2.73493 1.22563 0
M  V30 3628 H 334.549 1.53096 0.526625 0
M  V30 3629 H 336.541 1.85261 3.59806 0
M  V30 3630 H 335.111 1.00257 2.96086 0
M  V30 3631 H 334.331 3.33504 2.10163 0
M  V30 3632 H 335.619 4.03718 3.0966 0
M  V30 3633 H 335.017 1.8036 5.36178 0
M  V30 3634 H 333.574 2.43877 6.04456 0
M  V30 3635 N 337.007 -0.598083 1.45811 0
M  V30 3636 C 337.917 -1.73632 1.57763 0
M  V30 3637 C 338.933 -1.67763 0.461676 0
M  V30 3638 O 340.109 -1.87949 0.723685 0
M  V30 3639 C 337.174 -3.10114 1.55018 0
M  V30 3640 C 336.235 -3.27364 2.77726 0
M  V30 3641 C 335.468 -4.57334 2.75102 0
M  V30 3642 O 335.691 -5.40258 1.8297 0
M  V30 3643 O 334.625 -4.77502 3.66437 0
M  V30 3644 H 338.451 -1.66498 2.53992 0
M  V30 3645 H 336.036 -0.763308 1.28429 0
M  V30 3646 H 337.918 -3.9141 1.56129 0
M  V30 3647 H 336.593 -3.17718 0.619431 0
M  V30 3648 H 335.5 -2.45619 2.82174 0
M  V30 3649 H 336.833 -3.24641 3.69958 0
M  V30 3650 N 338.485 -1.33259 -0.841409 0
M  V30 3651 C 339.734 -1.23921 -1.59143 0
M  V30 3652 C 340.047 0.1941 -1.94635 0
M  V30 3653 O 341.253 0.409474 -2.68394 0
M  V30 3654 C 339.709 -2.17119 -2.87032 0
M  V30 3655 C 339.317 -3.65606 -2.58914 0
M  V30 3656 C 341.061 -2.16648 -3.65053 0
M  V30 3657 C 338.968 -4.50726 -3.82884 0
M  V30 3658 H 337.898 -0.460264 -0.597221 0
M  V30 3659 H 340.549 -1.58307 -0.927959 0
M  V30 3660 H 338.931 -1.75663 -3.54906 0
M  V30 3661 H 340.105 -4.15487 -1.99267 0
M  V30 3662 H 338.42 -3.68341 -1.942 0
M  V30 3663 H 341.017 -2.77474 -4.57069 0
M  V30 3664 H 341.36 -1.16088 -3.99787 0
M  V30 3665 H 341.893 -2.56453 -3.041 0
M  V30 3666 H 338.632 -5.52151 -3.53283 0
M  V30 3667 H 338.152 -4.0559 -4.41879 0
M  V30 3668 H 339.831 -4.64401 -4.50489 0
M  V30 3669 N 339.963 1.05934 -1.16686 0
M  V30 3670 C 341.193 1.82226 -0.973515 0
M  V30 3671 C 341.601 1.8297 0.481532 0
M  V30 3672 O 340.944 1.25009 1.34604 0
M  V30 3673 C 341.006 3.29897 -1.42858 0
M  V30 3674 C 340.67 3.52849 -2.90425 0
M  V30 3675 C 341.667 3.45595 -3.88407 0
M  V30 3676 C 339.352 3.80053 -3.28428 0
M  V30 3677 C 341.346 3.65217 -5.22394 0
M  V30 3678 C 339.033 3.99325 -4.62583 0
M  V30 3679 C 340.031 3.91905 -5.59374 0
M  V30 3680 O 339.719 4.10647 -6.91104 0
M  V30 3681 H 339.451 0.581314 -0.345036 0
M  V30 3682 H 342.005 1.3453 -1.55212 0
M  V30 3683 H 340.235 3.78472 -0.793477 0
M  V30 3684 H 341.924 3.87692 -1.20207 0
M  V30 3685 H 342.69 3.24564 -3.60393 0
M  V30 3686 H 338.569 3.84936 -2.53664 0
M  V30 3687 H 342.113 3.59341 -5.9793 0
M  V30 3688 H 338.01 4.19846 -4.90306 0
M  V30 3689 H 338.778 4.27915 -6.97733 0
M  V30 3690 N 341.441 0.965919 1.2453 0
M  V30 3691 C 342.718 0.543777 1.87889 0
M  V30 3692 C 343.098 -0.97909 1.87021 0
M  V30 3693 O 342.446 -1.84969 1.3416 0
M  V30 3694 C 342.656 1.13327 3.30088 0
M  V30 3695 C 344.004 1.21707 4.06783 0
M  V30 3696 O 345.028 1.08566 3.39252 0
M  V30 3697 O 343.887 1.42456 5.27606 0
M  V30 3698 H 340.981 0.181054 0.806938 0
M  V30 3699 H 343.527 1.06007 1.32516 0
M  V30 3700 H 342.299 2.17612 3.25209 0
M  V30 3701 H 341.922 0.600911 3.93033 0
M  V30 3702 N 342.919 -1.39368 0.735821 0
M  V30 3703 C 343.866 -2.30599 0.0963825 0
M  V30 3704 C 344.836 -1.49257 -0.728794 0
M  V30 3705 O 346.021 -1.77941 -0.688588 0
M  V30 3706 C 343.161 -3.35596 -0.804305 0
M  V30 3707 C 342.274 -4.31987 0.0335761 0
M  V30 3708 C 341.409 -5.24053 -0.868461 0
M  V30 3709 C 340.448 -6.12095 -0.0258776 0
M  V30 3710 N 339.585 -6.96514 -0.883893 0
M  V30 3711 H 344.425 -2.8471 0.880002 0
M  V30 3712 H 341.962 -1.40188 0.445619 0
M  V30 3713 H 343.92 -3.95062 -1.34096 0
M  V30 3714 H 342.55 -2.82938 -1.55389 0
M  V30 3715 H 341.602 -3.74133 0.68766 0
M  V30 3716 H 342.914 -4.94074 0.685036 0
M  V30 3717 H 342.068 -5.88549 -1.47293 0
M  V30 3718 H 340.807 -4.62289 -1.5537 0
M  V30 3719 H 339.812 -5.4661 0.591386 0
M  V30 3720 H 341.037 -6.75923 0.656156 0
M  V30 3721 H 338.983 -6.37318 -1.55441 0
M  V30 3722 H 338.9 -7.55448 -0.288931 0
M  V30 3723 H 340.168 -7.65439 -1.4739 0
M  V30 3724 N 344.397 -0.483516 -1.5 0
M  V30 3725 C 345.329 0.340634 -2.26655 0
M  V30 3726 C 346.342 0.946152 -1.32483 0
M  V30 3727 O 347.531 0.832453 -1.579 0
M  V30 3728 C 344.631 1.4929 -3.04246 0
M  V30 3729 C 343.804 0.997903 -4.25865 0
M  V30 3730 C 342.863 2.02569 -4.85646 0
M  V30 3731 O 341.889 1.60128 -5.46212 0
M  V30 3732 N 343.091 3.3548 -4.73744 0
M  V30 3733 H 345.856 -0.316577 -2.98023 0
M  V30 3734 H 343.417 -0.315024 -1.58806 0
M  V30 3735 H 345.409 2.17766 -3.41116 0
M  V30 3736 H 343.979 2.05458 -2.35597 0
M  V30 3737 H 343.199 0.138617 -3.93956 0
M  V30 3738 H 344.487 0.645305 -5.04691 0
M  V30 3739 H 343.885 3.72661 -4.25605 0
M  V30 3740 H 342.442 3.99718 -5.14848 0
M  V30 3741 N 345.875 1.56104 -0.216619 0
M  V30 3742 C 347.105 2.02269 0.420802 0
M  V30 3743 C 347.513 1.09575 1.5424 0
M  V30 3744 O 346.856 0.0967308 1.83445 0
M  V30 3745 C 346.918 3.44784 1.01806 0
M  V30 3746 C 346.582 4.56988 0.0325154 0
M  V30 3747 C 347.579 5.14225 -0.766055 0
M  V30 3748 C 345.264 5.02228 -0.0848092 0
M  V30 3749 C 347.258 6.15169 -1.6687 0
M  V30 3750 C 344.945 6.03011 -0.990994 0
M  V30 3751 C 345.943 6.59357 -1.78149 0
M  V30 3752 O 345.631 7.58179 -2.67245 0
M  V30 3753 H 345.363 0.667353 0.107776 0
M  V30 3754 H 347.917 2.02747 -0.329034 0
M  V30 3755 H 346.147 3.41359 1.81689 0
M  V30 3756 H 347.836 3.74626 1.56237 0
M  V30 3757 H 348.602 4.80126 -0.685836 0
M  V30 3758 H 344.481 4.58054 0.520349 0
M  V30 3759 H 348.025 6.59076 -2.28615 0
M  V30 3760 H 343.922 6.36532 -1.07225 0
M  V30 3761 H 344.69 7.75682 -2.61265 0
M  V30 3762 N 347.353 -0.0568162 1.57498 0
M  V30 3763 C 348.3 -1.06591 2.04712 0
M  V30 3764 C 349.27 -1.3758 0.930644 0
M  V30 3765 O 350.455 -1.48392 1.19935 0
M  V30 3766 C 347.595 -2.3701 2.50839 0
M  V30 3767 C 346.708 -2.12421 3.76167 0
M  V30 3768 C 345.843 -3.36511 4.11015 0
M  V30 3769 C 344.882 -3.07353 5.2934 0
M  V30 3770 N 344.019 -4.23816 5.59754 0
M  V30 3771 H 348.859 -0.65631 2.90683 0
M  V30 3772 H 346.396 -0.312481 1.43743 0
M  V30 3773 H 348.354 -3.13175 2.7564 0
M  V30 3774 H 346.984 -2.75744 1.67825 0
M  V30 3775 H 346.036 -1.2688 3.58616 0
M  V30 3776 H 347.348 -1.86894 4.62463 0
M  V30 3777 H 346.502 -4.21062 4.36797 0
M  V30 3778 H 345.241 -3.65128 3.23315 0
M  V30 3779 H 344.246 -2.212 5.03339 0
M  V30 3780 H 345.471 -2.80043 6.1867 0
M  V30 3781 H 343.417 -4.52436 4.75014 0
M  V30 3782 H 343.334 -4.01614 6.40501 0
M  V30 3783 H 344.602 -5.0932 5.90096 0
M  V30 3784 N 348.832 -1.54138 -0.328536 0
M  V30 3785 C 350.057 -1.76378 -1.09112 0
M  V30 3786 C 350.482 -0.508596 -1.81094 0
M  V30 3787 O 349.84 0.539598 -1.73084 0
M  V30 3788 C 349.888 -2.95358 -2.06872 0
M  V30 3789 O 348.992 -2.66556 -3.14677 0
M  V30 3790 H 348.333 -0.584614 -0.314838 0
M  V30 3791 H 350.863 -2.01146 -0.374348 0
M  V30 3792 H 350.873 -3.22566 -2.4983 0
M  V30 3793 H 349.548 -3.86385 -1.5388 0
M  V30 3794 H 348.125 -2.50282 -2.7643 0
M  V30 3795 N 350.31 0.590341 -1.46126 0
M  V30 3796 C 351.242 1.71427 -1.52136 0
M  V30 3797 C 352.255 1.57542 -0.41042 0
M  V30 3798 O 353.444 1.65106 -0.678389 0
M  V30 3799 C 350.544 3.09605 -1.37834 0
M  V30 3800 C 349.717 3.49566 -2.62912 0
M  V30 3801 C 348.776 4.66773 -2.42918 0
M  V30 3802 O 347.802 4.73019 -3.1661 0
M  V30 3803 N 349.004 5.61161 -1.4859 0
M  V30 3804 H 351.769 1.66728 -2.49042 0
M  V30 3805 H 349.33 0.776113 -1.42085 0
M  V30 3806 H 351.322 3.85796 -1.22243 0
M  V30 3807 H 349.892 3.08714 -0.491393 0
M  V30 3808 H 349.112 2.63158 -2.93499 0
M  V30 3809 H 350.4 3.73028 -3.46017 0
M  V30 3810 H 349.798 5.58844 -0.87808 0
M  V30 3811 H 348.355 6.36814 -1.38965 0
M  V30 3812 N 351.788 1.33704 0.83433 0
M  V30 3813 C 353.035 1.25417 1.58987 0
M  V30 3814 C 353.363 -0.178869 1.93676 0
M  V30 3815 O 352.618 -1.13723 1.59265 0
M  V30 3816 C 352.917 2.07926 2.90692 0
M  V30 3817 C 352.583 3.57066 2.75345 0
M  V30 3818 C 351.245 3.97724 2.70867 0
M  V30 3819 C 353.597 4.51817 2.59828 0
M  V30 3820 C 350.925 5.31344 2.48778 0
M  V30 3821 C 353.277 5.85604 2.39272 0
M  V30 3822 C 351.941 6.25439 2.33199 0
M  V30 3823 H 351.211 0.458934 0.581774 0
M  V30 3824 H 353.858 1.65335 0.966261 0
M  V30 3825 H 352.163 1.608 3.57282 0
M  V30 3826 H 353.86 1.98868 3.48213 0
M  V30 3827 H 350.45 3.24785 2.79665 0
M  V30 3828 H 354.634 4.21311 2.62319 0
M  V30 3829 H 349.89 5.61241 2.42526 0
M  V30 3830 H 354.064 6.58623 2.2625 0
M  V30 3831 H 351.691 7.28914 2.15843 0
M  V30 3832 N 353.266 -1.05314 1.17247 0
M  V30 3833 C 354.176 -2.16538 0.90268 0
M  V30 3834 C 355.192 -1.73523 -0.128707 0
M  V30 3835 O 356.368 -2.01337 0.0502701 0
M  V30 3836 C 353.433 -3.44167 0.418356 0
M  V30 3837 C 352.494 -4.01635 1.51618 0
M  V30 3838 C 351.727 -5.23171 1.05487 0
M  V30 3839 O 351.95 -5.70327 -0.0914715 0
M  V30 3840 O 350.884 -5.72848 1.8474 0
M  V30 3841 H 354.71 -2.42145 1.83302 0
M  V30 3842 H 352.295 -1.15037 0.953246 0
M  V30 3843 H 354.177 -4.21112 0.155726 0
M  V30 3844 H 352.852 -3.20063 -0.48385 0
M  V30 3845 H 351.759 -3.26135 1.83268 0
M  V30 3846 H 353.092 -4.30053 2.39405 0
M  V30 3847 N 354.744 -0.972509 -1.24016 0
M  V30 3848 C 355.707 -0.511403 -2.23422 0
M  V30 3849 C 356.707 0.394679 -1.55881 0
M  V30 3850 O 357.897 0.189469 -1.73167 0
M  V30 3851 C 355.029 0.258769 -3.39916 0
M  V30 3852 H 356.222 -1.39024 -2.6573 0
M  V30 3853 H 353.775 -0.757585 -1.36713 0
M  V30 3854 H 354.51 1.1545 -3.03054 0
M  V30 3855 H 354.295 -0.391522 -3.9014 0
M  V30 3856 H 355.785 0.570244 -4.13688 0
M  V30 3857 N 356.222 1.38976 -0.743202 0
M  V30 3858 C 357.154 2.29096 -0.0689228 0
M  V30 3859 C 358.167 1.47229 0.694791 0
M  V30 3860 O 359.356 1.70212 0.537597 0
M  V30 3861 C 356.456 3.25988 0.926548 0
M  V30 3862 C 355.629 4.36833 0.222647 0
M  V30 3863 C 354.688 5.13981 1.12739 0
M  V30 3864 O 353.714 5.6601 0.601795 0
M  V30 3865 N 354.916 5.25966 2.45641 0
M  V30 3866 H 357.681 2.87604 -0.842846 0
M  V30 3867 H 355.242 1.50645 -0.593109 0
M  V30 3868 H 357.234 3.74476 1.5346 0
M  V30 3869 H 355.804 2.68453 1.60162 0
M  V30 3870 H 355.024 3.90116 -0.565983 0
M  V30 3871 H 356.312 5.0811 -0.264841 0
M  V30 3872 H 355.71 4.85228 2.9081 0
M  V30 3873 H 354.267 5.77865 3.01522 0
M  V30 3874 N 357.7 0.491464 1.49741 0
M  V30 3875 C 358.647 -0.292027 2.28945 0
M  V30 3876 C 359.617 -0.968973 1.34908 0
M  V30 3877 O 360.802 -0.97748 1.6386 0
M  V30 3878 C 357.942 -1.35617 3.17336 0
M  V30 3879 C 357.055 -0.691957 4.26422 0
M  V30 3880 C 356.19 -1.73572 5.02042 0
M  V30 3881 C 355.229 -1.05286 6.02977 0
M  V30 3882 N 354.366 -2.0404 6.71798 0
M  V30 3883 H 359.206 0.389654 2.95442 0
M  V30 3884 H 356.743 0.204003 1.45679 0
M  V30 3885 H 358.701 -1.98502 3.66951 0
M  V30 3886 H 357.331 -2.00674 2.52844 0
M  V30 3887 H 356.383 0.0499523 3.80367 0
M  V30 3888 H 357.695 -0.153946 4.98562 0
M  V30 3889 H 356.849 -2.43987 5.55478 0
M  V30 3890 H 355.588 -2.30757 4.29654 0
M  V30 3891 H 354.593 -0.334446 5.48782 0
M  V30 3892 H 355.818 -0.487636 6.77347 0
M  V30 3893 H 353.764 -2.60205 6.02187 0
M  V30 3894 H 353.681 -1.55279 7.39881 0
M  V30 3895 H 354.949 -2.73772 7.29842 0
M  V30 3896 N 359.178 -1.55987 0.224894 0
M  V30 3897 C 360.427 -1.97566 -0.406273 0
M  V30 3898 C 360.74 -1.11569 -1.6066 0
M  V30 3899 O 361.946 -1.43062 -2.3075 0
M  V30 3900 C 360.402 -3.51474 -0.774207 0
M  V30 3901 C 360.01 -4.46179 0.403496 0
M  V30 3902 C 361.754 -4.01758 -1.37079 0
M  V30 3903 C 359.661 -5.91399 0.0129412 0
M  V30 3904 H 358.591 -0.737777 -0.155565 0
M  V30 3905 H 361.242 -1.80659 0.321635 0
M  V30 3906 H 359.624 -3.63994 -1.55963 0
M  V30 3907 H 360.798 -4.45409 1.18101 0
M  V30 3908 H 359.113 -4.06255 0.913536 0
M  V30 3909 H 361.71 -5.07756 -1.67596 0
M  V30 3910 H 362.053 -3.47805 -2.28773 0
M  V30 3911 H 362.586 -3.92475 -0.648733 0
M  V30 3912 H 359.325 -6.49341 0.896451 0
M  V30 3913 H 358.845 -5.95356 -0.728821 0
M  V30 3914 H 360.524 -6.45683 -0.412582 0
M  V30 3915 N 360.656 0.0484629 -1.57525 0
M  V30 3916 C 361.902 0.738854 -1.89506 0
M  V30 3917 C 362.257 1.73989 -0.821319 0
M  V30 3918 O 361.55 1.90825 0.172129 0
M  V30 3919 C 361.744 1.46632 -3.25935 0
M  V30 3920 C 361.573 0.537254 -4.46479 0
M  V30 3921 C 360.343 0.165484 -5.05029 0
M  V30 3922 C 362.541 -0.176085 -5.13998 0
M  V30 3923 N 360.523 -0.766868 -6.09091 0
M  V30 3924 C 361.894 -0.96478 -6.12448 0
M  V30 3925 C 363.949 -0.24509 -4.97296 0
M  V30 3926 C 362.652 -1.8161 -6.95996 0
M  V30 3927 C 364.678 -1.08347 -5.81391 0
M  V30 3928 C 364.04 -1.86014 -6.79395 0
M  V30 3929 H 360.139 0.245067 -0.742608 0
M  V30 3930 H 362.723 -0.000476161 -1.947 0
M  V30 3931 H 360.894 2.17623 -3.21706 0
M  V30 3932 H 362.626 2.10757 -3.45491 0
M  V30 3933 H 359.381 0.523466 -4.70698 0
M  V30 3934 H 359.805 -1.22698 -6.65788 0
M  V30 3935 H 364.447 0.341063 -4.21422 0
M  V30 3936 H 362.165 -2.41313 -7.71229 0
M  V30 3937 H 365.751 -1.14014 -5.70519 0
M  V30 3938 H 364.631 -2.4984 -7.43337 0
M  V30 3939 N 362.134 1.5431 0.320358 0
M  V30 3940 C 363.364 1.7638 1.07582 0
M  V30 3941 C 363.772 0.513944 1.82086 0
M  V30 3942 O 363.115 -0.525123 1.76035 0
M  V30 3943 C 363.177 2.9055 2.1171 0
M  V30 3944 C 362.841 4.2934 1.56575 0
M  V30 3945 C 363.838 5.10077 1.00586 0
M  V30 3946 C 361.523 4.75893 1.60722 0
M  V30 3947 C 363.517 6.35477 0.494756 0
M  V30 3948 C 361.204 6.0126 1.09224 0
M  V30 3949 C 362.202 6.80886 0.53696 0
M  V30 3950 O 361.89 8.03894 0.0297371 0
M  V30 3951 H 361.622 0.592369 0.325692 0
M  V30 3952 H 364.176 2.02019 0.37116 0
M  V30 3953 H 362.406 2.60489 2.85801 0
M  V30 3954 H 364.095 3.00373 2.73003 0
M  V30 3955 H 364.861 4.75265 0.966869 0
M  V30 3956 H 360.74 4.13957 2.02882 0
M  V30 3957 H 364.284 6.97574 0.0606842 0
M  V30 3958 H 360.181 6.35562 1.12831 0
M  V30 3959 H 360.949 8.18372 0.14486 0
M  V30 3960 N 363.613 -0.582584 1.46437 0
M  V30 3961 C 364.523 -1.71949 1.59595 0
M  V30 3962 C 365.539 -1.67264 0.479443 0
M  V30 3963 O 366.715 -1.87171 0.743579 0
M  V30 3964 C 363.78 -3.08452 1.58298 0
M  V30 3965 C 362.841 -3.244 2.81182 0
M  V30 3966 C 362.074 -4.54391 2.79937 0
M  V30 3967 O 362.297 -5.38287 1.8869 0
M  V30 3968 O 361.231 -4.73588 3.71481 0
M  V30 3969 H 365.057 -1.63795 2.55744 0
M  V30 3970 H 362.642 -0.749643 1.29231 0
M  V30 3971 H 364.524 -3.89732 1.60271 0
M  V30 3972 H 363.199 -3.17043 0.653094 0
M  V30 3973 H 362.106 -2.42613 2.84763 0
M  V30 3974 H 363.439 -3.20699 3.7338 0
M  V30 3975 N 365.091 -1.34144 -0.827227 0
M  V30 3976 C 366.041 -1.21923 -1.92663 0
M  V30 3977 C 367.025 -0.119294 -1.60457 0
M  V30 3978 O 368.217 -0.348539 -1.73534 0
M  V30 3979 C 365.346 -0.972492 -3.29238 0
M  V30 3980 C 364.432 -2.1154 -3.67576 0
M  V30 3981 N 364.823 -3.36627 -3.77512 0
M  V30 3982 C 363.121 -2.02468 -3.97395 0
M  V30 3983 C 363.822 -4.11658 -4.1099 0
M  V30 3984 N 362.798 -3.40207 -4.23981 0
M  V30 3985 H 366.6 -2.16721 -1.98517 0
M  V30 3986 H 364.114 -1.2632 -1.02064 0
M  V30 3987 H 366.111 -0.865847 -4.0781 0
M  V30 3988 H 364.771 -0.0331509 -3.24683 0
M  V30 3989 H 365.782 -3.71234 -3.61118 0
M  V30 3990 H 362.459 -1.16265 -4.00985 0
M  V30 3991 H 363.849 -5.19657 -4.25918 0
M  V30 3992 N 366.569 1.04691 -1.17803 0
M  V30 3993 C 367.985 1.29963 -0.926379 0
M  V30 3994 C 368.185 1.97251 0.411635 0
M  V30 3995 O 367.241 2.24922 1.14744 0
M  V30 3996 C 368.554 2.16447 -2.08737 0
M  V30 3997 C 370.102 2.29814 -2.12496 0
M  V30 3998 C 370.577 3.19661 -3.27995 0
M  V30 3999 N 372.068 3.27247 -3.27816 0
M  V30 4000 C 372.803 3.96906 -4.13827 0
M  V30 4001 N 372.299 4.6895 -5.09959 0
M  V30 4002 N 374.092 3.93122 -4.01761 0
M  V30 4003 H 366.243 0.594182 -2.0392 0
M  V30 4004 H 368.506 0.324649 -0.890678 0
M  V30 4005 H 368.212 1.74304 -3.05469 0
M  V30 4006 H 368.086 3.17103 -2.04268 0
M  V30 4007 H 370.473 2.71196 -1.16347 0
M  V30 4008 H 370.554 1.2877 -2.21025 0
M  V30 4009 H 370.198 2.78991 -4.24413 0
M  V30 4010 H 370.128 4.20722 -3.16703 0
M  V30 4011 H 372.619 2.75921 -2.58217 0
M  V30 4012 H 372.932 5.19679 -5.71974 0
M  V30 4013 H 371.277 4.67875 -5.13924 0
M  V30 4014 H 374.468 3.35967 -3.2595 0
M  V30 4015 H 374.641 4.47139 -4.6901 0
M  V30 4016 N 368.047 0.979072 1.23499 0
M  V30 4017 C 368.977 0.537606 2.27227 0
M  V30 4018 C 369.958 -0.428539 1.64613 0
M  V30 4019 O 371.143 -0.322191 1.91509 0
M  V30 4020 C 368.273 -0.162052 3.46922 0
M  V30 4021 C 367.227 0.721242 4.21879 0
M  V30 4022 C 366.553 -0.110555 5.34586 0
M  V30 4023 C 367.853 2.01141 4.82016 0
M  V30 4024 H 369.547 1.40462 2.64406 0
M  V30 4025 H 367.093 0.67684 1.27102 0
M  V30 4026 H 369.046 -0.482192 4.18632 0
M  V30 4027 H 367.77 -1.06351 3.08799 0
M  V30 4028 H 366.429 1.02482 3.51984 0
M  V30 4029 H 366.077 -1.0125 4.92704 0
M  V30 4030 H 365.777 0.477325 5.85658 0
M  V30 4031 H 367.301 -0.425107 6.09118 0
M  V30 4032 H 368.715 1.75612 5.45741 0
M  V30 4033 H 367.112 2.54695 5.43369 0
M  V30 4034 H 368.182 2.69909 4.02836 0
M  V30 4035 N 369.525 -1.3858 0.750561 0
M  V30 4036 C 370.774 -1.99424 0.302172 0
M  V30 4037 C 371.087 -1.60254 -1.12152 0
M  V30 4038 O 372.293 -2.14046 -1.67023 0
M  V30 4039 C 370.749 -3.56558 0.489307 0
M  V30 4040 C 370.357 -4.04682 1.92189 0
M  V30 4041 C 372.101 -4.24374 0.103478 0
M  V30 4042 C 370.008 -5.54446 2.05775 0
M  V30 4043 H 368.938 -0.746046 0.10923 0
M  V30 4044 H 371.589 -1.58383 0.92667 0
M  V30 4045 H 369.971 -3.95472 -0.204329 0
M  V30 4046 H 371.145 -3.77065 2.64875 0
M  V30 4047 H 369.46 -3.4958 2.26236 0
M  V30 4048 H 372.057 -5.34384 0.183787 0
M  V30 4049 H 372.4 -4.05468 -0.943481 0
M  V30 4050 H 372.933 -3.90688 0.748854 0
M  V30 4051 H 369.672 -5.78252 3.08714 0
M  V30 4052 H 369.192 -5.83816 1.37546 0
M  V30 4053 H 370.871 -6.20099 1.84626 0
M  V30 4054 N 371.003 -0.499398 -1.49478 0
M  V30 4055 C 372.28 0.108629 -1.95298 0
M  V30 4056 C 372.66 1.54282 -1.44084 0
M  V30 4057 O 372.008 2.18944 -0.653908 0
M  V30 4058 C 372.218 0.0229111 -3.48992 0
M  V30 4059 C 373.566 0.197643 -4.2414 0
M  V30 4060 O 374.59 0.0981735 -3.56065 0
M  V30 4061 O 373.449 0.401669 -5.45022 0
M  V30 4062 H 370.543 0.096181 -0.821388 0
M  V30 4063 H 373.089 -0.561822 -1.6013 0
M  V30 4064 H 371.861 -0.977321 -3.78899 0
M  V30 4065 H 371.484 0.733579 -3.90774 0
M  V30 4066 N 372.481 1.55866 -0.233164 0
M  V30 4067 C 373.758 1.90471 0.444988 0
M  V30 4068 C 374.138 1.15209 1.7689 0
M  V30 4069 O 373.486 0.265119 2.26957 0
M  V30 4070 C 373.696 3.4333 0.626559 0
M  V30 4071 C 375.044 4.14319 0.92871 0
M  V30 4072 O 376.068 3.48993 0.712926 0
M  V30 4073 O 374.927 5.29846 1.33887 0
M  V30 4074 H 372.021 0.792347 0.236885 0
M  V30 4075 H 374.567 1.67437 -0.276211 0
M  V30 4076 H 373.339 3.90095 -0.306822 0
M  V30 4077 H 372.962 3.72181 1.39881 0
M  V30 4078 N 373.959 -0.0401083 1.57549 0
M  V30 4079 C 374.892 -1.07689 2.01192 0
M  V30 4080 C 375.87 -1.358 0.894273 0
M  V30 4081 O 377.054 -1.48642 1.15921 0
M  V30 4082 C 374.181 -2.41418 2.3756 0
M  V30 4083 C 373.227 -2.29237 3.59656 0
M  V30 4084 S 374.06 -1.65628 5.09242 0
M  V30 4085 C 375.216 -3.0087 5.48843 0
M  V30 4086 H 375.449 -0.705108 2.88817 0
M  V30 4087 H 372.982 -0.249724 1.52367 0
M  V30 4088 H 374.94 -3.18329 2.59186 0
M  V30 4089 H 373.601 -2.75747 1.50407 0
M  V30 4090 H 372.794 -3.27932 3.82722 0
M  V30 4091 H 372.396 -1.60469 3.37825 0
M  V30 4092 H 374.688 -3.97201 5.48851 0
M  V30 4093 H 375.631 -2.82549 6.49286 0
M  V30 4094 H 376.039 -3.02934 4.76331 0
M  V30 4095 N 375.437 -1.54477 -0.31217 0
M  V30 4096 C 376.683 -1.73483 -1.0503 0
M  V30 4097 C 377.016 -0.513125 -1.87298 0
M  V30 4098 O 376.291 0.489864 -1.8823 0
M  V30 4099 C 376.574 -3.01723 -1.96558 0
M  V30 4100 C 376.427 -4.3417 -1.17545 0
M  V30 4101 C 377.746 -3.25772 -2.95907 0
M  V30 4102 H 374.865 -0.631222 -0.380432 0
M  V30 4103 H 377.507 -1.87184 -0.325932 0
M  V30 4104 H 375.657 -2.90174 -2.58324 0
M  V30 4105 H 377.329 -4.5762 -0.581513 0
M  V30 4106 H 375.572 -4.31159 -0.477925 0
M  V30 4107 H 376.243 -5.20143 -1.84811 0
M  V30 4108 H 378.719 -3.36857 -2.44267 0
M  V30 4109 H 377.595 -4.16838 -3.57123 0
M  V30 4110 H 377.856 -2.43537 -3.68974 0
M  V30 4111 N 376.915 0.57481 -1.46744 0
M  V30 4112 C 377.878 1.66533 -1.57478 0
M  V30 4113 C 378.878 1.54338 -0.451263 0
M  V30 4114 O 380.068 1.58814 -0.715813 0
M  V30 4115 C 377.2 3.05999 -1.50259 0
M  V30 4116 H 378.393 1.58372 -2.54673 0
M  V30 4117 H 375.946 0.793301 -1.34672 0
M  V30 4118 H 376.681 3.19709 -0.543725 0
M  V30 4119 H 376.466 3.16259 -2.31781 0
M  V30 4120 H 377.956 3.8537 -1.60872 0
M  V30 4121 N 378.394 1.34581 0.820102 0
M  V30 4122 C 379.326 1.22236 1.93884 0
M  V30 4123 C 380.339 0.148776 1.62119 0
M  V30 4124 O 381.528 0.400877 1.7394 0
M  V30 4125 C 378.628 0.856542 3.27897 0
M  V30 4126 C 377.801 2.02569 3.87666 0
M  V30 4127 C 376.86 1.63782 5.00062 0
M  V30 4128 O 375.886 2.35477 5.18208 0
M  V30 4129 N 377.088 0.553611 5.77854 0
M  V30 4130 H 379.853 2.18615 2.05006 0
M  V30 4131 H 377.414 1.27573 0.99683 0
M  V30 4132 H 379.406 0.578806 4.0054 0
M  V30 4133 H 377.976 -0.0171518 3.12595 0
M  V30 4134 H 377.196 2.468 3.07382 0
M  V30 4135 H 378.484 2.80752 4.24329 0
M  V30 4136 H 377.882 -0.0423528 5.65684 0
M  V30 4137 H 376.439 0.335614 6.50935 0
M  V30 4138 N 379.872 -1.04064 1.18357 0
M  V30 4139 C 380.835 -2.10243 0.912707 0
M  V30 4140 C 381.835 -1.60477 -0.101928 0
M  V30 4141 O 383.025 -1.73703 0.131517 0
M  V30 4142 C 380.157 -3.38893 0.369387 0
M  V30 4143 H 381.35 -2.35706 1.85426 0
M  V30 4144 H 378.903 -1.20489 0.995594 0
M  V30 4145 H 379.638 -3.19094 -0.578776 0
M  V30 4146 H 379.423 -3.76331 1.1008 0
M  V30 4147 H 380.913 -4.17128 0.198575 0
M  V30 4148 N 381.35 -0.985608 -1.22978 0
M  V30 4149 C 382.283 -0.47487 -2.23204 0
M  V30 4150 C 383.261 0.460865 -1.55932 0
M  V30 4151 O 384.445 0.388105 -1.84461 0
M  V30 4152 C 381.572 0.312427 -3.37256 0
M  V30 4153 C 380.618 -0.568219 -4.22698 0
M  V30 4154 S 381.451 -2.01919 -4.95973 0
M  V30 4155 C 382.607 -1.24118 -6.1347 0
M  V30 4156 H 382.84 -1.32419 -2.66181 0
M  V30 4157 H 380.373 -0.792005 -1.32539 0
M  V30 4158 H 382.331 0.760645 -4.03391 0
M  V30 4159 H 380.992 1.13693 -2.92801 0
M  V30 4160 H 380.185 0.0371657 -5.03986 0
M  V30 4161 H 379.787 -0.952897 -3.61657 0
M  V30 4162 H 382.079 -0.505121 -6.75614 0
M  V30 4163 H 383.022 -2.02907 -6.78406 0
M  V30 4164 H 383.43 -0.757669 -5.59392 0
M  V30 4165 N 382.828 1.3818 -0.7579 0
M  V30 4166 C 383.775 2.30416 -0.133057 0
M  V30 4167 C 384.745 1.50398 0.704957 0
M  V30 4168 O 385.93 1.79014 0.660192 0
M  V30 4169 C 383.07 3.36834 0.750813 0
M  V30 4170 C 382.183 4.31879 -0.102297 0
M  V30 4171 C 381.318 5.25368 0.784979 0
M  V30 4172 C 380.357 6.12058 -0.0715046 0
M  V30 4173 N 379.494 6.97832 0.772972 0
M  V30 4174 H 384.334 2.83274 -0.925186 0
M  V30 4175 H 381.871 1.39461 -0.467866 0
M  V30 4176 H 383.829 3.97145 1.27794 0
M  V30 4177 H 382.459 2.85374 1.50868 0
M  V30 4178 H 381.511 3.72991 -0.747095 0
M  V30 4179 H 382.823 4.92921 -0.763552 0
M  V30 4180 H 381.977 5.90818 1.37911 0
M  V30 4181 H 380.716 4.64703 1.47996 0
M  V30 4182 H 379.721 5.456 -0.678272 0
M  V30 4183 H 380.946 6.74793 -0.763606 0
M  V30 4184 H 378.892 6.3971 1.45282 0
M  V30 4185 H 378.809 7.55812 0.168709 0
M  V30 4186 H 380.077 7.67687 1.35194 0
M  V30 4187 N 384.306 0.507319 1.49211 0
M  V30 4188 C 385.531 -0.033725 2.07373 0
M  V30 4189 C 385.956 -1.29485 1.36437 0
M  V30 4190 O 385.314 -1.76294 0.423087 0
M  V30 4191 C 385.362 -0.263945 3.59633 0
M  V30 4192 O 384.466 -1.33737 3.90113 0
M  V30 4193 H 383.807 0.0290331 0.663365 0
M  V30 4194 H 386.337 0.708749 1.91932 0
M  V30 4195 H 386.347 -0.493536 4.05004 0
M  V30 4196 H 385.022 0.657424 4.10671 0
M  V30 4197 H 383.599 -1.09224 3.56545 0
M  V30 4198 N 385.784 -1.5574 0.241426 0
M  V30 4199 C 386.694 -2.2479 -0.671305 0
M  V30 4200 C 387.71 -1.26217 -1.19772 0
M  V30 4201 O 388.886 -1.59079 -1.23514 0
M  V30 4202 C 385.951 -2.92966 -1.85396 0
M  V30 4203 C 385.012 -4.06935 -1.36756 0
M  V30 4204 C 384.245 -4.71851 -2.49384 0
M  V30 4205 O 384.468 -4.35823 -3.67987 0
M  V30 4206 O 383.402 -5.60467 -2.19454 0
M  V30 4207 H 387.228 -3.0349 -0.112966 0
M  V30 4208 H 384.813 -1.49397 0.0101513 0
M  V30 4209 H 386.695 -3.35927 -2.54423 0
M  V30 4210 H 385.37 -2.17211 -2.40002 0
M  V30 4211 H 384.277 -3.68503 -0.644726 0
M  V30 4212 H 385.61 -4.84492 -0.867647 0
M  V30 4213 N 387.262 0.0317525 -1.57568 0
M  V30 4214 C 388.51 0.721676 -1.88776 0
M  V30 4215 C 388.831 1.76039 -0.838772 0
M  V30 4216 O 388.101 1.95482 0.127935 0
M  V30 4217 H 386.681 0.269534 -0.696678 0
M  V30 4218 H 389.343 -0.00165879 -1.949 0
M  V30 4219 H 388.439 1.21293 -2.87566 0
M  V30 4220 N 388.74 1.54641 0.303973 0
M  V30 4221 C 389.988 1.73437 1.0375 0
M  V30 4222 C 390.309 0.521449 1.87899 0
M  V30 4223 O 389.579 -0.46432 1.90318 0
M  V30 4224 H 388.159 0.639518 0.386039 0
M  V30 4225 H 390.821 1.91988 0.335675 0
M  V30 4226 H 389.917 2.62235 1.69231 0
M  V30 4227 N 390.218 -0.567019 1.47046 0
M  V30 4228 C 391.465 -1.32462 1.53167 0
M  V30 4229 C 391.793 -1.93571 0.189841 0
M  V30 4230 O 391.048 -1.77865 -0.816243 0
M  V30 4231 C 391.347 -2.4623 2.59047 0
M  V30 4232 C 391.013 -2.03014 4.02612 0
M  V30 4233 C 389.675 -1.90944 4.41694 0
M  V30 4234 C 392.027 -1.69895 4.92732 0
M  V30 4235 C 389.355 -1.44035 5.68745 0
M  V30 4236 C 391.707 -1.2446 6.20236 0
M  V30 4237 C 390.371 -1.10979 6.5821 0
M  V30 4238 H 389.641 -0.484713 0.560477 0
M  V30 4239 H 392.288 -0.636888 1.80599 0
M  V30 4240 H 390.593 -3.20517 2.25335 0
M  V30 4241 H 392.29 -3.04427 2.61008 0
M  V30 4242 H 388.88 -2.13348 3.71726 0
M  V30 4243 H 393.064 -1.78098 4.63244 0
M  V30 4244 H 388.32 -1.32254 5.96925 0
M  V30 4245 H 392.494 -0.978924 6.89485 0
M  V30 4246 H 390.121 -0.744078 7.5655 0
M  V30 4247 N 391.696 -1.35014 -0.812953 0
M  V30 4248 C 392.945 -1.27269 -1.56479 0
M  V30 4249 C 393.258 0.152771 -1.95002 0
M  V30 4250 O 394.464 0.352451 -2.69203 0
M  V30 4251 C 392.92 -2.23159 -2.82362 0
M  V30 4252 C 392.528 -3.71016 -2.511 0
M  V30 4253 C 394.272 -2.24342 -3.60376 0
M  V30 4254 C 392.179 -4.58746 -3.73237 0
M  V30 4255 H 391.109 -0.472829 -0.587324 0
M  V30 4256 H 393.76 -1.6024 -0.894171 0
M  V30 4257 H 392.142 -1.83151 -3.51101 0
M  V30 4258 H 393.316 -4.1962 -1.90409 0
M  V30 4259 H 391.631 -3.72378 -1.86343 0
M  V30 4260 H 394.228 -2.87107 -4.51081 0
M  V30 4261 H 394.571 -1.24542 -3.97234 0
M  V30 4262 H 395.104 -2.62846 -2.98591 0
M  V30 4263 H 391.843 -5.59521 -3.41492 0
M  V30 4264 H 391.363 -4.14871 -4.33176 0
M  V30 4265 H 393.042 -4.73852 -4.40537 0
M  V30 4266 N 393.175 1.03435 -1.18907 0
M  V30 4267 C 394.421 1.7713 -0.99982 0
M  V30 4268 C 394.776 1.86695 0.465049 0
M  V30 4269 O 394.069 1.36866 1.34083 0
M  V30 4270 C 394.263 3.19792 -1.59586 0
M  V30 4271 C 394.092 3.24134 -3.11717 0
M  V30 4272 C 392.862 3.32398 -3.80578 0
M  V30 4273 C 395.06 3.11625 -4.09138 0
M  V30 4274 N 393.042 3.26055 -5.20155 0
M  V30 4275 C 394.413 3.12855 -5.35277 0
M  V30 4276 C 396.468 2.95713 -4.00572 0
M  V30 4277 C 395.171 2.99805 -6.53842 0
M  V30 4278 C 397.197 2.84011 -5.1874 0
M  V30 4279 C 396.559 2.8589 -6.43775 0
M  V30 4280 H 392.658 0.659683 -0.419931 0
M  V30 4281 H 395.242 1.2317 -1.50789 0
M  V30 4282 H 393.413 3.72085 -1.11389 0
M  V30 4283 H 395.145 3.81819 -1.3415 0
M  V30 4284 H 391.9 3.38392 -3.31342 0
M  V30 4285 H 392.324 3.26307 -5.93172 0
M  V30 4286 H 396.966 2.93086 -3.0473 0
M  V30 4287 H 394.684 3.01184 -7.49876 0
M  V30 4288 H 398.27 2.72744 -5.13909 0
M  V30 4289 H 397.15 2.76931 -7.33675 0
M  V30 4290 N 394.653 0.992116 1.22453 0
M  V30 4291 C 395.616 0.546883 2.2258 0
M  V30 4292 C 396.616 -0.369829 1.56489 0
M  V30 4293 O 397.806 -0.161896 1.73446 0
M  V30 4294 C 394.938 -0.204659 3.40285 0
M  V30 4295 H 396.131 1.43234 2.63484 0
M  V30 4296 H 393.684 0.779239 1.3549 0
M  V30 4297 H 394.419 -1.10614 3.04853 0
M  V30 4298 H 394.204 0.45354 3.89468 0
M  V30 4299 H 395.694 -0.504358 4.14543 0
M  V30 4300 N 396.131 -1.37776 0.765217 0
M  V30 4301 C 397.371 -2.01691 0.331669 0
M  V30 4302 C 397.735 -1.59432 -1.06983 0
M  V30 4303 O 398.936 -2.15761 -1.60314 0
M  V30 4304 C 397.207 -3.54385 0.463261 0
M  V30 4305 S 398.766 -4.38652 0.114011 0
M  V30 4306 H 395.584 -0.699387 0.127979 0
M  V30 4307 H 398.186 -1.68084 0.998396 0
M  V30 4308 H 396.89 -3.82629 1.48401 0
M  V30 4309 H 396.421 -3.92783 -0.220246 0
M  V30 4310 H 398.436 -4.84021 -1.09261 0
M  V30 4311 N 397.609 -0.515225 -1.4894 0
M  V30 4312 C 398.556 0.255567 -2.29381 0
M  V30 4313 C 399.526 0.947387 -1.36432 0
M  V30 4314 O 400.711 0.951288 -1.65394 0
M  V30 4315 C 397.851 1.30551 -3.19453 0
M  V30 4316 C 396.964 0.624029 -4.27469 0
M  V30 4317 C 396.099 1.65563 -5.0474 0
M  V30 4318 C 395.138 0.956802 -6.04576 0
M  V30 4319 N 394.275 1.93326 -6.74959 0
M  V30 4320 H 399.115 -0.436607 -2.94784 0
M  V30 4321 H 396.652 -0.227154 -1.45336 0
M  V30 4322 H 398.61 1.92639 -3.70062 0
M  V30 4323 H 397.24 1.96626 -2.56004 0
M  V30 4324 H 396.292 -0.110459 -3.8024 0
M  V30 4325 H 397.604 0.0746092 -4.98744 0
M  V30 4326 H 396.758 2.35119 -5.59289 0
M  V30 4327 H 395.497 2.23893 -4.3327 0
M  V30 4328 H 394.502 0.247097 -5.49244 0
M  V30 4329 H 395.727 0.379814 -6.78037 0
M  V30 4330 H 393.673 2.50591 -6.06251 0
M  V30 4331 H 393.59 1.43489 -7.42258 0
M  V30 4332 H 394.858 2.62126 -7.34105 0
M  V30 4333 N 399.087 1.5561 -0.249682 0
M  V30 4334 C 400.035 2.22894 0.664906 0
M  V30 4335 C 401.029 1.21743 1.17792 0
M  V30 4336 O 402.235 1.39748 1.13449 0
M  V30 4337 H 398.61 0.715022 0.232912 0
M  V30 4338 H 400.581 2.98307 0.0742998 0
M  V30 4339 C 399.33 2.94424 1.84959 0
M  V30 4340 H 398.653 3.72031 1.46399 0
M  V30 4341 H 400.093 3.44862 2.4667 0
M  V30 4342 C 398.552 1.98454 2.72245 0
M  V30 4343 O 399.082 1.51939 3.71857 0
M  V30 4344 N 397.288 1.65496 2.38871 0
M  V30 4345 H 396.835 2.03517 1.57919 0
M  V30 4346 H 396.793 1.0155 2.97548 0
M  V30 4347 N 400.565 -0.0233959 1.57583 0
M  V30 4348 C 401.795 -0.723631 1.93513 0
M  V30 4349 C 402.203 -1.69115 0.848333 0
M  V30 4350 O 401.546 -1.82781 -0.183484 0
M  V30 4351 C 401.608 -1.53075 3.25282 0
M  V30 4352 C 401.272 -0.727388 4.51174 0
M  V30 4353 C 402.269 -0.0251924 5.19894 0
M  V30 4354 C 399.954 -0.680256 4.97672 0
M  V30 4355 C 401.948 0.713374 6.33395 0
M  V30 4356 C 399.635 0.0620523 6.11068 0
M  V30 4357 C 400.633 0.757622 6.78785 0
M  V30 4358 O 400.321 1.48787 7.90011 0
M  V30 4359 H 400.053 -0.208051 0.643188 0
M  V30 4360 H 402.607 0.0167489 2.05393 0
M  V30 4361 H 400.837 -2.31508 3.09744 0
M  V30 4362 H 402.526 -2.11413 3.46496 0
M  V30 4363 H 403.292 -0.0526003 4.84971 0
M  V30 4364 H 399.171 -1.21116 4.44805 0
M  V30 4365 H 402.715 1.25683 6.86185 0
M  V30 4366 H 398.612 0.0913634 6.45435 0
M  V30 4367 H 399.38 1.40213 8.06401 0
M  V30 4368 N 402.043 -1.548 -0.295768 0
M  V30 4369 C 403.32 -1.65014 -1.05023 0
M  V30 4370 C 403.7 -0.501805 -2.05049 0
M  V30 4371 O 403.048 0.500869 -2.22943 0
M  V30 4372 C 403.258 -3.03252 -1.72741 0
M  V30 4373 C 404.606 -3.60242 -2.24746 0
M  V30 4374 O 405.63 -3.05737 -1.82765 0
M  V30 4375 O 404.489 -4.55687 -3.01681 0
M  V30 4376 H 401.583 -0.669314 -0.485744 0
M  V30 4377 H 404.129 -1.67144 -0.293438 0
M  V30 4378 H 402.901 -3.7827 -1.00138 0
M  V30 4379 H 402.524 -3.04922 -2.55163 0
M  V30 4380 N 403.521 0.559213 -1.47345 0
M  V30 4381 C 404.769 1.31388 -1.53563 0
M  V30 4382 C 405.09 1.93985 -0.198678 0
M  V30 4383 O 404.36 1.79825 0.777167 0
M  V30 4384 H 402.94 0.487901 -0.565652 0
M  V30 4385 H 405.602 0.65315 -1.8363 0
M  V30 4386 H 404.698 2.10844 -2.30111 0
M  V30 4387 N 404.999 1.35443 0.805782 0
M  V30 4388 C 406.276 1.19325 1.54987 0
M  V30 4389 C 406.656 -0.227294 2.09873 0
M  V30 4390 O 406.004 -1.2309 1.92512 0
M  V30 4391 C 406.214 2.26196 2.65775 0
M  V30 4392 C 407.562 2.62043 3.34094 0
M  V30 4393 O 408.586 2.25115 2.76046 0
M  V30 4394 O 407.445 3.25542 4.38958 0
M  V30 4395 H 404.539 0.463623 0.684823 0
M  V30 4396 H 407.085 1.47127 0.845674 0
M  V30 4397 H 405.857 3.21471 2.23096 0
M  V30 4398 H 405.48 1.99667 3.43829 0
M  V30 4399 N 406.477 -1.02803 1.19454 0
M  V30 4400 C 407.723 -1.76478 0.999171 0
M  V30 4401 C 408.056 -1.88456 -0.468828 0
M  V30 4402 O 407.331 -1.40198 -1.34814 0
M  V30 4403 C 407.614 -3.19044 1.66981 0
M  V30 4404 C 407.467 -3.14932 3.21151 0
M  V30 4405 C 408.786 -4.17456 1.39349 0
M  V30 4406 H 405.905 -0.640614 0.364393 0
M  V30 4407 H 408.547 -1.20005 1.47305 0
M  V30 4408 H 406.697 -3.67263 1.2669 0
M  V30 4409 H 408.369 -2.74605 3.70661 0
M  V30 4410 H 406.612 -2.52625 3.52652 0
M  V30 4411 H 407.283 -4.1566 3.63223 0
M  V30 4412 H 409.759 -3.77842 1.74283 0
M  V30 4413 H 408.635 -5.154 1.88823 0
M  V30 4414 H 408.896 -4.40949 0.318813 0
M  V30 4415 N 407.956 -0.998596 -1.21925 0
M  V30 4416 C 408.888 -0.511879 -2.23411 0
M  V30 4417 C 409.901 0.396094 -1.57908 0
M  V30 4418 O 411.09 0.197316 -1.77406 0
M  V30 4419 C 408.19 0.276802 -3.37768 0
M  V30 4420 C 407.363 -0.628687 -4.32858 0
M  V30 4421 C 406.422 0.109272 -5.26087 0
M  V30 4422 O 405.448 -0.507237 -5.66935 0
M  V30 4423 N 406.65 1.38983 -5.63617 0
M  V30 4424 H 409.415 -1.38457 -2.658 0
M  V30 4425 H 406.976 -0.873981 -1.36283 0
M  V30 4426 H 408.968 0.77928 -3.97126 0
M  V30 4427 H 407.538 1.05063 -2.94415 0
M  V30 4428 H 406.758 -1.31175 -3.71735 0
M  V30 4429 H 408.046 -1.24514 -4.93329 0
M  V30 4430 H 407.444 1.91194 -5.32411 0
M  V30 4431 H 406.001 1.83739 -6.25367 0
M  V30 4432 N 409.434 1.37368 -0.772513 0
M  V30 4433 C 410.659 2.0447 -0.347386 0
M  V30 4434 C 411.084 1.57882 1.0225 0
M  V30 4435 O 410.442 0.73941 1.65537 0
M  V30 4436 C 410.49 3.58369 -0.400479 0
M  V30 4437 O 409.594 4.0803 0.598789 0
M  V30 4438 H 408.935 0.646773 -0.15027 0
M  V30 4439 H 411.465 1.75667 -1.04892 0
M  V30 4440 H 411.475 4.07183 -0.258045 0
M  V30 4441 H 410.15 3.91633 -1.39986 0
M  V30 4442 H 408.727 3.70534 0.419411 0
M  V30 4443 N 410.912 0.523116 1.48665 0
M  V30 4444 C 412.189 -0.0775449 1.95446 0
M  V30 4445 C 412.569 -1.5197 1.4652 0
M  V30 4446 O 411.917 -2.17876 0.688657 0
M  V30 4447 C 412.127 0.0326135 3.48985 0
M  V30 4448 C 413.475 -0.130141 4.24401 0
M  V30 4449 O 414.499 -0.0415142 3.56176 0
M  V30 4450 O 413.358 -0.31491 5.45592 0
M  V30 4451 H 410.452 -0.0831012 0.822814 0
M  V30 4452 H 412.998 0.587227 1.59216 0
M  V30 4453 H 411.77 1.03748 3.77296 0
M  V30 4454 H 411.393 -0.671317 3.91892 0
M  V30 4455 N 412.39 -1.55475 0.257931 0
M  V30 4456 C 413.615 -2.04064 -0.370488 0
M  V30 4457 C 414.04 -1.13565 -1.49948 0
M  V30 4458 O 413.398 -0.130781 -1.80828 0
M  V30 4459 C 413.446 -3.50554 -0.845237 0
M  V30 4460 O 412.55 -3.63173 -1.95394 0
M  V30 4461 H 411.891 -0.659257 -0.0792243 0
M  V30 4462 H 414.421 -2.00903 0.387212 0
M  V30 4463 H 414.431 -3.91588 -1.14555 0
M  V30 4464 H 413.106 -4.15896 -0.0191259 0
M  V30 4465 H 411.683 -3.34039 -1.65748 0
M  V30 4466 N 413.868 0.0150385 -1.57593 0
M  V30 4467 C 415.114 0.704043 -1.90187 0
M  V30 4468 C 415.447 1.74249 -0.857366 0
M  V30 4469 O 414.722 1.94092 0.125843 0
M  V30 4470 C 415.005 1.36087 -3.33395 0
M  V30 4471 C 414.858 0.334981 -4.48551 0
M  V30 4472 C 416.177 2.29112 -3.7576 0
M  V30 4473 H 413.296 0.254475 -0.691673 0
M  V30 4474 H 415.938 -0.0331678 -1.89971 0
M  V30 4475 H 414.088 1.98922 -3.3371 0
M  V30 4476 H 415.76 -0.292534 -4.60372 0
M  V30 4477 H 414.003 -0.344325 -4.32431 0
M  V30 4478 H 414.674 0.833316 -5.45674 0
M  V30 4479 H 417.15 1.76308 -3.76902 0
M  V30 4480 H 416.026 2.72043 -4.76743 0
M  V30 4481 H 416.287 3.16385 -3.08793 0
M  V30 4482 N 415.346 1.54954 0.287554 0
M  V30 4483 C 416.309 1.86076 1.33823 0
M  V30 4484 C 417.309 0.734414 1.43049 0
M  V30 4485 O 418.499 1.00266 1.42452 0
M  V30 4486 C 415.631 2.05305 2.72144 0
M  V30 4487 H 416.824 2.79984 1.07465 0
M  V30 4488 H 414.377 1.47223 0.524902 0
M  V30 4489 H 415.112 1.1373 3.03704 0
M  V30 4490 H 414.897 2.873 2.66836 0
M  V30 4491 H 416.387 2.30706 3.48087 0
M  V30 4492 N 416.824 -0.551391 1.4764 0
M  V30 4493 C 417.756 -1.67333 1.56628 0
M  V30 4494 C 418.769 -1.56398 0.452045 0
M  V30 4495 O 419.958 -1.6325 0.721926 0
M  V30 4496 C 417.058 -3.05841 1.45994 0
M  V30 4497 C 416.231 -3.42472 2.72088 0
M  V30 4498 C 415.29 -4.60168 2.55209 0
M  V30 4499 O 414.316 -4.64458 3.2904 0
M  V30 4500 N 415.518 -5.57024 1.63416 0
M  V30 4501 H 418.283 -1.60066 2.53375 0
M  V30 4502 H 415.844 -0.738169 1.44093 0
M  V30 4503 H 417.836 -3.8242 1.32428 0
M  V30 4504 H 416.406 -3.07302 0.573071 0
M  V30 4505 H 415.626 -2.55284 3.00373 0
M  V30 4506 H 416.914 -3.63723 3.55785 0
M  V30 4507 H 416.312 -5.56319 1.02594 0
M  V30 4508 H 414.869 -6.32906 1.558 0
M  V30 4509 N 418.302 -1.35869 -0.798587 0
M  V30 4510 C 419.55 -1.29332 -1.55298 0
M  V30 4511 C 419.871 0.129729 -1.94568 0
M  V30 4512 O 419.141 1.06796 -1.6423 0
M  V30 4513 H 417.721 -0.475737 -0.57592 0
M  V30 4514 H 420.383 -1.70062 -0.952093 0
M  V30 4515 H 419.479 -1.91458 -2.46476 0
M  V30 4516 N 419.78 1.02168 -1.19998 0
M  V30 4517 C 421.01 1.79036 -1.031 0
M  V30 4518 C 421.418 1.84409 0.423078 0
M  V30 4519 O 420.761 1.29228 1.30559 0
M  V30 4520 C 420.823 3.25185 -1.53281 0
M  V30 4521 C 420.487 3.43431 -3.01503 0
M  V30 4522 C 421.484 3.33063 -3.99206 0
M  V30 4523 C 419.169 3.69412 -3.40353 0
M  V30 4524 C 421.163 3.48413 -5.33748 0
M  V30 4525 C 418.85 3.84406 -4.75053 0
M  V30 4526 C 419.848 3.7391 -5.71559 0
M  V30 4527 O 419.536 3.88452 -7.03818 0
M  V30 4528 H 419.268 0.570043 -0.363355 0
M  V30 4529 H 421.822 1.29524 -1.59414 0
M  V30 4530 H 420.052 3.75756 -0.913483 0
M  V30 4531 H 421.741 3.83671 -1.32481 0
M  V30 4532 H 422.507 3.12934 -3.70537 0
M  V30 4533 H 418.386 3.76671 -2.65782 0
M  V30 4534 H 421.93 3.40137 -6.09059 0
M  V30 4535 H 417.827 4.04035 -5.03415 0
M  V30 4536 H 418.595 4.055 -7.10993 0
M  V30 4537 N 421.258 1.00505 1.21394 0
M  V30 4538 C 422.506 0.686415 1.90086 0
M  V30 4539 C 422.827 -0.785264 1.7849 0
M  V30 4540 O 422.097 -1.56387 1.17983 0
M  V30 4541 H 420.677 0.2509 0.703604 0
M  V30 4542 H 423.339 1.27417 1.47482 0
M  V30 4543 H 422.435 0.959621 2.96981 0
M  V30 4544 N 422.737 -1.36956 0.779787 0
M  V30 4545 C 423.962 -2.04283 0.358224 0
M  V30 4546 C 424.387 -1.58422 -1.01411 0
M  V30 4547 O 423.745 -0.748179 -1.65142 0
M  V30 4548 C 423.793 -3.58152 0.419479 0
M  V30 4549 O 422.897 -4.08342 -0.577142 0
M  V30 4550 H 422.238 -0.645967 0.153698 0
M  V30 4551 H 424.768 -1.75108 1.05822 0
M  V30 4552 H 424.778 -4.07041 0.279636 0
M  V30 4553 H 423.453 -3.90886 1.42061 0
M  V30 4554 H 422.03 -3.70751 -0.399755 0
M  V30 4555 N 424.215 -0.530993 -1.48385 0
M  V30 4556 C 425.145 0.219985 -2.32461 0
M  V30 4557 C 426.126 0.934111 -1.42156 0
M  V30 4558 O 427.311 0.919694 -1.71042 0
M  V30 4559 C 424.441 1.26674 -3.23375 0
M  V30 4560 C 423.395 0.67069 -4.22712 0
M  V30 4561 C 422.721 1.82017 -5.02766 0
M  V30 4562 C 424.021 -0.358268 -5.2107 0
M  V30 4563 H 425.715 -0.48187 -2.95497 0
M  V30 4564 H 423.261 -0.233182 -1.42099 0
M  V30 4565 H 425.214 1.80006 -3.81019 0
M  V30 4566 H 423.938 1.99818 -2.58341 0
M  V30 4567 H 422.597 0.158878 -3.66256 0
M  V30 4568 H 422.245 2.54002 -4.34157 0
M  V30 4569 H 421.945 1.42727 -5.70003 0
M  V30 4570 H 423.469 2.35725 -5.63264 0
M  V30 4571 H 424.883 0.0880081 -5.73232 0
M  V30 4572 H 423.28 -0.66861 -5.96364 0
M  V30 4573 H 424.35 -1.26367 -4.68145 0
M  V30 4574 N 425.693 1.55336 -0.266172 0
M  V30 4575 C 426.941 1.99003 0.35246 0
M  V30 4576 C 427.262 1.15591 1.57047 0
M  V30 4577 O 426.532 0.243268 1.94384 0
M  V30 4578 H 425.112 0.735025 0.133217 0
M  V30 4579 H 427.774 1.91367 -0.369434 0
M  V30 4580 H 426.87 3.05289 0.648453 0
M  V30 4581 N 427.171 -0.0066808 1.57599 0
M  V30 4582 C 428.104 -1.03397 2.03431 0
M  V30 4583 C 429.082 -1.33872 0.922877 0
M  V30 4584 O 430.266 -1.4615 1.19048 0
M  V30 4585 C 427.393 -2.36325 2.42628 0
M  V30 4586 C 426.439 -2.21557 3.64438 0
M  V30 4587 S 427.272 -1.54789 5.12641 0
M  V30 4588 C 428.428 -2.8916 5.55101 0
M  V30 4589 H 428.661 -0.643687 2.90248 0
M  V30 4590 H 426.194 -0.217349 1.52863 0
M  V30 4591 H 428.152 -3.12759 2.65879 0
M  V30 4592 H 426.813 -2.72495 1.56222 0
M  V30 4593 H 426.006 -3.1974 3.89592 0
M  V30 4594 H 425.608 -1.53267 3.41153 0
M  V30 4595 H 427.9 -3.8547 5.57153 0
M  V30 4596 H 428.843 -2.68713 6.55133 0
M  V30 4597 H 429.251 -2.92762 4.82649 0
M  V30 4598 N 428.649 -1.55105 -0.279332 0
M  V30 4599 C 429.582 -1.82467 -1.37044 0
M  V30 4600 C 430.56 -0.677261 -1.47824 0
M  V30 4601 O 431.744 -0.919578 -1.64548 0
M  V30 4602 C 428.871 -1.98066 -2.7475 0
M  V30 4603 C 427.917 -3.20594 -2.81286 0
M  V30 4604 S 428.75 -4.78116 -2.41175 0
M  V30 4605 C 429.906 -4.9668 -3.80867 0
M  V30 4606 H 430.139 -2.74728 -1.1363 0
M  V30 4607 H 427.672 -1.46794 -0.478625 0
M  V30 4608 H 429.63 -2.07739 -3.54055 0
M  V30 4609 H 428.291 -1.06704 -2.9542 0
M  V30 4610 H 427.484 -3.28376 -3.82341 0
M  V30 4611 H 427.086 -3.09479 -2.09996 0
M  V30 4612 H 429.378 -4.82033 -4.76078 0
M  V30 4613 H 430.321 -5.98741 -3.78041 0
M  V30 4614 H 430.729 -4.24698 -3.71876 0
M  V30 4615 N 430.127 0.543554 -1.4793 0
M  V30 4616 C 431.355 1.32516 -1.58894 0
M  V30 4617 C 431.77 1.87215 -0.244131 0
M  V30 4618 O 431.127 1.65709 0.764652 0
M  V30 4619 C 431.178 2.48554 -2.62494 0
M  V30 4620 O 430.899 1.96112 -3.91755 0
M  V30 4621 C 432.4 3.40572 -2.8377 0
M  V30 4622 H 429.62 0.403472 -0.536145 0
M  V30 4623 H 432.164 0.657106 -1.93655 0
M  V30 4624 H 430.319 3.1127 -2.30629 0
M  V30 4625 H 430.733 2.71967 -4.4848 0
M  V30 4626 H 432.207 4.18375 -3.60093 0
M  V30 4627 H 432.684 3.94965 -1.92092 0
M  V30 4628 H 433.29 2.8366 -3.16887 0
M  V30 4629 N 431.605 1.3629 0.791371 0
M  V30 4630 C 432.83 1.33726 1.58531 0
M  V30 4631 C 433.255 -0.0794933 1.87932 0
M  V30 4632 O 432.613 -1.05087 1.47738 0
M  V30 4633 C 432.661 2.16425 2.88431 0
M  V30 4634 O 431.765 1.5554 3.81944 0
M  V30 4635 H 431.106 0.457793 0.480959 0
M  V30 4636 H 433.636 1.79547 0.981031 0
M  V30 4637 H 433.646 2.28933 3.37718 0
M  V30 4638 H 432.321 3.19415 2.66359 0
M  V30 4639 H 430.898 1.51961 3.40532 0
M  V30 4640 N 433.083 -1.0153 1.20538 0
M  V30 4641 C 434.329 -1.75408 1.01783 0
M  V30 4642 C 434.662 -1.88943 -0.448814 0
M  V30 4643 O 433.937 -1.4162 -1.33319 0
M  V30 4644 C 434.22 -3.17255 1.70356 0
M  V30 4645 C 434.073 -3.11508 3.24473 0
M  V30 4646 C 435.392 -4.15955 1.43769 0
M  V30 4647 H 432.511 -0.636713 0.371167 0
M  V30 4648 H 435.153 -1.18436 1.4857 0
M  V30 4649 H 433.303 -3.65898 1.30578 0
M  V30 4650 H 434.975 -2.70658 3.73553 0
M  V30 4651 H 433.218 -2.4887 3.55311 0
M  V30 4652 H 433.889 -4.11784 3.67611 0
M  V30 4653 H 436.365 -3.75973 1.7828 0
M  V30 4654 H 435.241 -5.13368 1.94279 0
M  V30 4655 H 435.502 -4.40586 0.365564 0
M  V30 4656 N 434.561 -1.01147 -1.20859 0
M  V30 4657 C 435.491 -0.597663 -2.25722 0
M  V30 4658 C 436.472 0.384744 -1.65692 0
M  V30 4659 O 437.657 0.271303 -1.92296 0
M  V30 4660 C 434.787 0.0700149 -3.47229 0
M  V30 4661 C 433.741 -0.832843 -4.19819 0
M  V30 4662 C 433.067 -0.0312202 -5.34691 0
M  V30 4663 C 434.367 -2.1385 -4.76514 0
M  V30 4664 H 436.061 -1.47423 -2.60589 0
M  V30 4665 H 433.607 -0.710301 -1.25263 0
M  V30 4666 H 435.56 0.37103 -4.19763 0
M  V30 4667 H 434.284 0.981259 -3.11511 0
M  V30 4668 H 432.943 -1.11778 -3.49144 0
M  V30 4669 H 432.591 0.881515 -4.95215 0
M  V30 4670 H 432.291 -0.632434 -5.84187 0
M  V30 4671 H 433.815 0.26346 -6.10031 0
M  V30 4672 H 435.229 -1.9002 -5.40893 0
M  V30 4673 H 433.626 -2.69012 -5.36426 0
M  V30 4674 H 434.696 -2.80495 -3.95538 0
M  V30 4675 N 436.039 1.36541 -0.78704 0
M  V30 4676 C 437.285 1.99599 -0.358872 0
M  V30 4677 C 437.618 1.62323 1.06606 0
M  V30 4678 O 436.893 0.876858 1.73613 0
M  V30 4679 C 437.176 3.56327 -0.519944 0
M  V30 4680 C 437.029 4.03464 -1.98839 0
M  V30 4681 C 438.348 4.4005 0.0664737 0
M  V30 4682 H 435.467 0.725107 -0.131869 0
M  V30 4683 H 438.109 1.6199 -0.992936 0
M  V30 4684 H 436.259 3.88495 0.0198321 0
M  V30 4685 H 437.931 3.81793 -2.58905 0
M  V30 4686 H 436.174 3.55092 -2.49183 0
M  V30 4687 H 436.845 5.12439 -2.05207 0
M  V30 4688 H 439.321 4.14228 -0.394267 0
M  V30 4689 H 438.197 5.48847 -0.0762682 0
M  V30 4690 H 438.458 4.26655 1.15835 0
M  V30 4691 N 437.518 0.538854 1.48102 0
M  V30 4692 C 438.758 0.0101209 2.04397 0
M  V30 4693 C 439.122 -1.30741 1.40609 0
M  V30 4694 O 440.323 -1.92272 1.87843 0
M  V30 4695 C 438.594 -0.100232 3.57259 0
M  V30 4696 S 440.153 -0.577746 4.3498 0
M  V30 4697 H 436.971 0.0163171 0.710813 0
M  V30 4698 H 439.573 0.721429 1.81702 0
M  V30 4699 H 438.277 0.863351 4.01216 0
M  V30 4700 H 437.808 -0.835651 3.84422 0
M  V30 4701 H 439.823 -1.84073 4.60794 0
M  V30 4702 N 438.996 -1.55193 0.274407 0
M  V30 4703 C 440.407 -1.85358 -0.223488 0
M  V30 4704 C 440.758 -1.19642 -1.555 0
M  V30 4705 O 439.883 -0.484498 -2.10907 0
M  V30 4706 C 440.478 -3.36282 -0.412285 0
M  V30 4707 C 439.037 -3.66574 -0.854413 0
M  V30 4708 C 438.184 -2.7725 0.0527056 0
M  V30 4709 H 441.135 -1.50743 0.496215 0
M  V30 4710 H 441.156 -3.59349 -1.25094 0
M  V30 4711 H 440.668 -3.84083 0.556965 0
M  V30 4712 H 438.769 -3.24273 -1.83516 0
M  V30 4713 H 438.882 -4.74073 -0.692226 0
M  V30 4714 H 437.246 -2.50447 -0.463484 0
M  V30 4715 H 438.029 -3.27865 1.01783 0
M  V30 4716 N 440.474 -0.00167713 -1.576 0
M  V30 4717 C 441.751 0.719951 -1.81868 0
M  V30 4718 C 442.131 1.91895 -0.879747 0
M  V30 4719 O 441.479 2.28389 0.0711423 0
M  V30 4720 C 441.689 1.12409 -3.30402 0
M  V30 4721 C 443.037 1.52724 -3.96182 0
M  V30 4722 O 444.061 1.21784 -3.34734 0
M  V30 4723 O 442.92 2.10265 -5.04431 0
M  V30 4724 H 440.014 0.350707 -0.748955 0
M  V30 4725 H 442.56 -0.0272597 -1.69678 0
M  V30 4726 H 441.332 0.269532 -3.90371 0
M  V30 4727 H 440.955 1.93035 -3.47596 0
M  V30 4728 N 441.952 1.55251 0.271103 0
M  V30 4729 C 443.2 1.75599 1.00047 0
M  V30 4730 C 443.521 0.561188 1.8675 0
M  V30 4731 O 442.791 -0.423846 1.9126 0
M  V30 4732 H 441.371 0.647562 0.372387 0
M  V30 4733 H 444.033 1.92656 0.294876 0
M  V30 4734 H 443.129 2.65766 1.6363 0
M  V30 4735 N 443.43 -0.535701 1.48216 0
M  V30 4736 C 444.377 -1.64083 1.62312 0
M  V30 4737 C 445.347 -1.59448 0.465365 0
M  V30 4738 O 446.532 -1.77959 0.688135 0
M  V30 4739 C 443.672 -3.0236 1.66349 0
M  V30 4740 C 442.785 -3.17273 2.93193 0
M  V30 4741 C 441.92 -4.46075 2.88427 0
M  V30 4742 C 440.959 -4.54496 4.1 0
M  V30 4743 N 440.096 -5.7468 4.03345 0
M  V30 4744 H 444.936 -1.51374 2.5669 0
M  V30 4745 H 442.473 -0.737059 1.27302 0
M  V30 4746 H 444.431 -3.82461 1.66672 0
M  V30 4747 H 443.061 -3.13854 0.754672 0
M  V30 4748 H 442.113 -2.30462 3.02641 0
M  V30 4749 H 443.425 -3.19357 3.83162 0
M  V30 4750 H 442.579 -5.3446 2.87119 0
M  V30 4751 H 441.318 -4.46504 1.96177 0
M  V30 4752 H 440.323 -3.64519 4.11589 0
M  V30 4753 H 441.548 -4.5581 5.03402 0
M  V30 4754 H 439.494 -5.76017 3.13912 0
M  V30 4755 H 439.411 -5.78234 4.87013 0
M  V30 4756 H 440.679 -6.65367 4.06087 0
M  V30 4757 N 444.908 -1.36708 -0.784132 0
M  V30 4758 C 446.136 -1.34398 -1.57305 0
M  V30 4759 C 446.551 0.0735577 -1.88657 0
M  V30 4760 O 445.908 1.03193 -1.50524 0
M  V30 4761 C 445.959 -2.17053 -2.89085 0
M  V30 4762 O 445.68 -3.53281 -2.59083 0
M  V30 4763 C 447.181 -2.22583 -3.83369 0
M  V30 4764 H 444.401 -0.460819 -0.487736 0
M  V30 4765 H 446.945 -1.79879 -0.972819 0
M  V30 4766 H 445.1 -1.75113 -3.45564 0
M  V30 4767 H 445.514 -3.9647 -3.43383 0
M  V30 4768 H 446.988 -2.84763 -4.72878 0
M  V30 4769 H 447.465 -1.23075 -4.21603 0
M  V30 4770 H 448.071 -2.64781 -3.32823 0
M  V30 4771 N 446.386 1.0089 -1.21074 0
M  V30 4772 C 447.632 1.74866 -1.02712 0
M  V30 4773 C 447.965 1.89178 0.438787 0
M  V30 4774 O 447.24 1.42325 1.32567 0
M  V30 4775 C 447.523 3.16347 -1.72036 0
M  V30 4776 C 447.376 3.09782 -3.26121 0
M  V30 4777 C 448.695 4.15187 -1.45973 0
M  V30 4778 H 445.814 0.634736 -0.374539 0
M  V30 4779 H 448.456 1.17646 -1.49196 0
M  V30 4780 H 446.606 3.65201 -1.32517 0
M  V30 4781 H 448.278 2.68673 -3.74983 0
M  V30 4782 H 446.521 2.46982 -3.56626 0
M  V30 4783 H 447.192 4.09829 -3.6979 0
M  V30 4784 H 449.668 3.75022 -1.80272 0
M  V30 4785 H 448.544 5.12331 -1.96999 0
M  V30 4786 H 448.805 4.40386 -0.388924 0
M  V30 4787 N 447.864 1.01787 1.20321 0
M  V30 4788 C 448.774 0.598898 2.26827 0
M  V30 4789 C 449.79 -0.36418 1.70146 0
M  V30 4790 O 450.966 -0.224812 2.00141 0
M  V30 4791 C 448.031 -0.0549769 3.46656 0
M  V30 4792 C 447.092 0.954205 4.18561 0
M  V30 4793 C 446.325 0.331439 5.3267 0
M  V30 4794 O 446.548 -0.86851 5.63749 0
M  V30 4795 O 445.482 1.0488 5.92692 0
M  V30 4796 H 449.308 1.48562 2.64883 0
M  V30 4797 H 446.893 0.787434 1.26964 0
M  V30 4798 H 448.775 -0.420102 4.19301 0
M  V30 4799 H 447.45 -0.915876 3.10473 0
M  V30 4800 H 446.357 1.37072 3.48083 0
M  V30 4801 H 447.69 1.78511 4.58688 0
M  V30 4802 N 449.342 -1.36122 0.79427 0
M  V30 4803 C 450.305 -2.28309 0.201889 0
M  V30 4804 C 451.305 -1.49041 -0.603603 0
M  V30 4805 O 452.495 -1.68964 -0.423888 0
M  V30 4806 C 449.627 -3.3321 -0.719978 0
M  V30 4807 H 450.82 -2.82208 1.01481 0
M  V30 4808 H 448.373 -1.45768 0.564037 0
M  V30 4809 H 449.108 -2.84475 -1.55706 0
M  V30 4810 H 448.893 -3.91835 -0.144266 0
M  V30 4811 H 450.383 -4.02044 -1.12916 0
M  V30 4812 N 450.82 -0.546701 -1.47814 0
M  V30 4813 C 451.73 0.21026 -2.33656 0
M  V30 4814 C 452.746 0.922413 -1.47538 0
M  V30 4815 O 453.922 0.893652 -1.80488 0
M  V30 4816 C 450.987 1.23348 -3.24016 0
M  V30 4817 C 450.048 0.529883 -4.26017 0
M  V30 4818 C 449.281 1.50435 -5.12059 0
M  V30 4819 O 449.504 2.73837 -5.00369 0
M  V30 4820 O 448.438 1.03459 -5.92942 0
M  V30 4821 H 452.264 -0.493605 -2.99662 0
M  V30 4822 H 449.849 -0.307427 -1.46203 0
M  V30 4823 H 451.731 1.82438 -3.79861 0
M  V30 4824 H 450.406 1.91945 -2.60651 0
M  V30 4825 H 449.313 -0.101948 -3.73961 0
M  V30 4826 H 450.646 -0.11445 -4.92067 0
M  V30 4827 N 452.299 1.55045 -0.282633 0
M  V30 4828 C 453.262 2.21515 0.588539 0
M  V30 4829 C 454.262 1.19535 1.07554 0
M  V30 4830 O 455.452 1.44391 0.974514 0
M  V30 4831 C 452.584 2.88704 1.8128 0
M  V30 4832 H 453.777 2.99899 0.00806397 0
M  V30 4833 H 451.33 1.56265 -0.0333067 0
M  V30 4834 H 452.065 2.14352 2.43359 0
M  V30 4835 H 451.85 3.63443 1.47144 0
M  V30 4836 H 453.34 3.39465 2.43214 0
M  V30 4837 N 453.777 0.010035 1.57597 0
M  V30 4838 C 454.74 -0.963029 2.07986 0
M  V30 4839 C 455.74 -1.26619 0.991173 0
M  V30 4840 O 456.93 -1.2097 1.25347 0
M  V30 4841 C 454.062 -2.2851 2.52974 0
M  V30 4842 H 455.255 -0.526971 2.95234 0
M  V30 4843 H 452.808 -0.237639 1.54483 0
M  V30 4844 H 453.543 -2.76784 1.69 0
M  V30 4845 H 453.328 -2.07824 3.32493 0
M  V30 4846 H 454.818 -2.98294 2.9225 0
M  V30 4847 N 455.255 -1.55392 -0.262866 0
M  V30 4848 C 456.205 -1.85355 -1.32768 0
M  V30 4849 C 457.189 -0.713188 -1.44231 0
M  V30 4850 O 458.381 -0.974765 -1.47741 0
M  V30 4851 C 455.51 -2.13781 -2.68612 0
M  V30 4852 C 454.596 -3.34104 -2.61219 0
M  V30 4853 N 454.987 -4.53766 -2.2345 0
M  V30 4854 C 453.285 -3.36895 -2.92263 0
M  V30 4855 C 453.986 -5.35877 -2.26298 0
M  V30 4856 N 452.962 -4.74536 -2.65172 0
M  V30 4857 H 456.764 -2.75413 -1.02591 0
M  V30 4858 H 454.278 -1.55405 -0.471503 0
M  V30 4859 H 456.275 -2.33407 -3.45437 0
M  V30 4860 H 454.935 -1.25013 -2.99669 0
M  V30 4861 H 455.946 -4.79682 -1.95258 0
M  V30 4862 H 452.623 -2.58351 -3.27965 0
M  V30 4863 H 454.013 -6.41577 -1.99572 0
M  V30 4864 N 456.733 0.527833 -1.48498 0
M  V30 4865 C 457.981 1.28101 -1.56316 0
M  V30 4866 C 458.302 1.9352 -0.239781 0
M  V30 4867 O 457.572 1.81433 0.738849 0
M  V30 4868 H 456.152 0.475793 -0.575873 0
M  V30 4869 H 458.814 0.614052 -1.84974 0
M  V30 4870 H 457.91 2.05916 -2.34532 0
M  V30 4871 N 458.211 1.37122 0.776871 0
M  V30 4872 C 459.439 1.3523 1.5659 0
M  V30 4873 C 459.854 -0.0635518 1.88693 0
M  V30 4874 O 459.211 -1.02394 1.51069 0
M  V30 4875 C 459.262 2.18583 2.8793 0
M  V30 4876 O 458.983 3.5465 2.57206 0
M  V30 4877 C 460.484 2.24612 3.82183 0
M  V30 4878 H 457.704 0.4634 0.485285 0
M  V30 4879 H 460.248 1.80392 0.963266 0
M  V30 4880 H 458.403 1.76943 3.4463 0
M  V30 4881 H 458.817 3.98286 3.41275 0
M  V30 4882 H 460.291 2.87267 4.71361 0
M  V30 4883 H 460.768 1.25309 4.20944 0
M  V30 4884 H 461.374 2.66543 3.31414 0
M  V30 4885 N 459.689 -1.00246 1.21608 0
M  V30 4886 C 460.935 -1.74319 1.03638 0
M  V30 4887 C 461.268 -1.89408 -0.428749 0
M  V30 4888 O 460.543 -1.43026 -1.3181 0
M  V30 4889 C 460.826 -3.15431 1.73711 0
M  V30 4890 C 460.679 -3.08049 3.27759 0
M  V30 4891 C 461.998 -4.14407 1.48173 0
M  V30 4892 H 459.117 -0.632741 0.377899 0
M  V30 4893 H 461.759 -1.16853 1.49818 0
M  V30 4894 H 459.909 -3.64493 1.34452 0
M  V30 4895 H 461.581 -2.66681 3.76403 0
M  V30 4896 H 459.824 -2.45088 3.57931 0
M  V30 4897 H 460.495 -4.07862 3.71958 0
M  V30 4898 H 462.971 -3.74061 1.82258 0
M  V30 4899 H 461.847 -5.11279 1.99713 0
M  V30 4900 H 462.108 -4.40174 0.412273 0
M  V30 4901 N 461.167 -1.02423 -1.1978 0
M  V30 4902 C 462.395 -0.737456 -1.93311 0
M  V30 4903 C 462.81 0.703023 -1.75223 0
M  V30 4904 O 462.167 1.47761 -1.07112 0
M  V30 4905 C 462.218 -1.0733 -3.45199 0
M  V30 4906 O 461.939 -2.4572 -3.62702 0
M  V30 4907 C 463.44 -0.80866 -4.35862 0
M  V30 4908 H 460.66 -0.2702 -0.614193 0
M  V30 4909 H 463.204 -1.36747 -1.52054 0
M  V30 4910 H 461.359 -0.488545 -3.84307 0
M  V30 4911 H 461.773 -2.58081 -4.56612 0
M  V30 4912 H 463.247 -1.09365 -5.41057 0
M  V30 4913 H 463.724 0.257025 -4.38447 0
M  V30 4914 H 464.33 -1.37592 -4.02428 0
M  V30 4915 N 462.645 1.35699 -0.801477 0
M  V30 4916 C 464.061 1.52065 -0.484596 0
M  V30 4917 C 464.261 1.75215 0.995084 0
M  V30 4918 O 463.317 1.79061 1.78026 0
M  V30 4919 C 464.63 2.69908 -1.32552 0
M  V30 4920 C 466.178 2.83784 -1.32044 0
M  V30 4921 C 466.653 4.04646 -2.14536 0
M  V30 4922 N 468.144 4.11814 -2.12046 0
M  V30 4923 C 468.879 5.04437 -2.72636 0
M  V30 4924 N 468.375 6.02426 -3.42133 0
M  V30 4925 N 470.168 4.97144 -2.62305 0
M  V30 4926 H 462.319 1.18928 -1.75983 0
M  V30 4927 H 464.582 0.581455 -0.748741 0
M  V30 4928 H 464.288 2.59363 -2.37537 0
M  V30 4929 H 464.162 3.64376 -0.975181 0
M  V30 4930 H 466.549 2.93783 -0.27846 0
M  V30 4931 H 466.63 1.90188 -1.71062 0
M  V30 4932 H 466.274 3.95407 -3.18772 0
M  V30 4933 H 466.204 4.97413 -1.72882 0
M  V30 4934 H 468.695 3.41664 -1.61476 0
M  V30 4935 H 469.008 6.69688 -3.85666 0
M  V30 4936 H 467.353 6.02615 -3.46237 0
M  V30 4937 H 470.544 4.19546 -2.07603 0
M  V30 4938 H 470.717 5.69138 -3.09815 0
M  V30 4939 N 464.123 0.554532 1.47522 0
M  V30 4940 C 465.073 -0.215008 2.26984 0
M  V30 4941 C 466.057 -0.88774 1.34194 0
M  V30 4942 O 467.249 -0.786489 1.58567 0
M  V30 4943 C 464.378 -1.24604 3.19889 0
M  V30 4944 C 463.464 -0.576857 4.20159 0
M  V30 4945 N 463.855 0.351541 5.04577 0
M  V30 4946 C 462.153 -0.831104 4.38188 0
M  V30 4947 C 462.854 0.739995 5.76974 0
M  V30 4948 N 461.83 0.0954407 5.43516 0
M  V30 4949 H 465.632 0.498843 2.89636 0
M  V30 4950 H 463.146 0.374279 1.58028 0
M  V30 4951 H 465.143 -1.81128 3.75498 0
M  V30 4952 H 463.803 -1.96101 2.58794 0
M  V30 4953 H 464.814 0.725556 5.12792 0
M  V30 4954 H 461.491 -1.53479 3.88266 0
M  V30 4955 H 462.881 1.50271 6.5488 0
M  V30 4956 N 465.601 -1.54893 0.290851 0
M  V30 4957 C 466.831 -2.04047 -0.323818 0
M  V30 4958 C 467.239 -1.16809 -1.48837 0
M  V30 4959 O 466.582 -0.184145 -1.82775 0
M  V30 4960 C 466.644 -3.49248 -0.852395 0
M  V30 4961 C 466.308 -4.56623 0.185557 0
M  V30 4962 C 467.305 -5.09985 1.01053 0
M  V30 4963 C 464.99 -5.01252 0.324332 0
M  V30 4964 C 466.984 -6.06507 1.96031 0
M  V30 4965 C 464.671 -5.97596 1.27757 0
M  V30 4966 C 465.669 -6.50107 2.09405 0
M  V30 4967 O 465.357 -7.44565 3.03114 0
M  V30 4968 H 465.089 -0.671735 -0.0758129 0
M  V30 4969 H 467.643 -2.00947 0.425393 0
M  V30 4970 H 465.873 -3.49639 -1.65195 0
M  V30 4971 H 467.562 -3.81654 -1.38185 0
M  V30 4972 H 468.328 -4.76307 0.914129 0
M  V30 4973 H 464.207 -4.60015 -0.301213 0
M  V30 4974 H 467.751 -6.47418 2.598 0
M  V30 4975 H 463.648 -6.30691 1.37473 0
M  V30 4976 H 464.416 -7.62334 2.97976 0
M  V30 4977 N 467.08 -0.0183926 -1.57589 0
M  V30 4978 C 468.496 0.337897 -1.55982 0
M  V30 4979 C 468.696 1.73604 -1.02294 0
M  V30 4980 O 467.752 2.43589 -0.664895 0
M  V30 4981 C 469.065 0.196305 -3.00059 0
M  V30 4982 C 470.613 0.269875 -3.11834 0
M  V30 4983 C 471.088 0.157197 -4.5773 0
M  V30 4984 N 472.579 0.214521 -4.62703 0
M  V30 4985 C 473.314 0.150955 -5.73201 0
M  V30 4986 N 472.81 0.0369212 -6.9279 0
M  V30 4987 N 474.603 0.204162 -5.61729 0
M  V30 4988 H 466.754 -0.93279 -1.90821 0
M  V30 4989 H 469.017 -0.359253 -0.877292 0
M  V30 4990 H 468.723 -0.766383 -3.43248 0
M  V30 4991 H 468.597 0.970908 -3.6449 0
M  V30 4992 H 470.984 1.22302 -2.68563 0
M  V30 4993 H 471.065 -0.534918 -2.50144 0
M  V30 4994 H 470.709 -0.792479 -5.01679 0
M  V30 4995 H 470.639 0.980717 -5.17387 0
M  V30 4996 H 473.13 0.303238 -3.76681 0
M  V30 4997 H 473.443 -0.00518321 -7.728 0
M  V30 4998 H 471.788 0.0022886 -6.95 0
M  V30 4999 H 474.979 0.291575 -4.67191 0
M  V30 5000 H 475.152 0.15116 -6.47824 0
M  V30 5001 N 468.558 1.5553 0.254621 0
M  V30 5002 C 469.491 1.84624 1.34124 0
M  V30 5003 C 470.469 0.700693 1.46728 0
M  V30 5004 O 471.653 0.94564 1.63064 0
M  V30 5005 C 468.78 2.02412 2.71564 0
M  V30 5006 C 467.826 3.25028 2.7615 0
M  V30 5007 S 468.659 4.81893 2.33538 0
M  V30 5008 C 469.815 5.02677 3.72917 0
M  V30 5009 H 470.048 2.76501 1.09245 0
M  V30 5010 H 467.581 1.47537 0.455211 0
M  V30 5011 H 469.539 2.13345 3.50705 0
M  V30 5012 H 468.2 1.11391 2.93685 0
M  V30 5013 H 467.393 3.34418 3.77069 0
M  V30 5014 H 466.995 3.12781 2.05046 0
M  V30 5015 H 469.287 4.89546 4.68349 0
M  V30 5016 H 470.23 6.0468 3.68467 0
M  V30 5017 H 470.638 4.30561 3.65072 0
M  V30 5018 N 470.036 -0.519951 1.48776 0
M  V30 5019 C 471.266 -1.29783 1.60748 0
M  V30 5020 C 471.674 -1.87253 0.27072 0
M  V30 5021 O 471.017 -1.67628 -0.751438 0
M  V30 5022 C 471.079 -2.47984 2.60277 0
M  V30 5023 C 470.743 -2.11526 4.051 0
M  V30 5024 C 471.74 -1.66608 4.92481 0
M  V30 5025 C 469.425 -2.21742 4.50706 0
M  V30 5026 C 471.419 -1.32384 6.23501 0
M  V30 5027 C 469.106 -1.87129 5.81744 0
M  V30 5028 C 470.104 -1.42523 6.67964 0
M  V30 5029 O 469.792 -1.0837 7.96562 0
M  V30 5030 H 469.524 -0.400562 0.544542 0
M  V30 5031 H 472.078 -0.632879 1.95407 0
M  V30 5032 H 470.308 -3.17493 2.2076 0
M  V30 5033 H 471.997 -3.10036 2.61978 0
M  V30 5034 H 472.763 -1.58178 4.58481 0
M  V30 5035 H 468.642 -2.55415 3.83776 0
M  V30 5036 H 472.186 -0.974949 6.90754 0
M  V30 5037 H 468.083 -1.95204 6.15277 0
M  V30 5038 H 468.851 -1.21681 8.09405 0
M  V30 5039 N 471.514 -1.37532 -0.769588 0
M  V30 5040 C 472.446 -1.29347 -1.89214 0
M  V30 5041 C 473.459 -0.208842 -1.61455 0
M  V30 5042 O 474.648 -0.465158 -1.72333 0
M  V30 5043 C 471.748 -0.977649 -3.24492 0
M  V30 5044 C 470.921 -2.16817 -3.7988 0
M  V30 5045 C 469.98 -1.82229 -4.93639 0
M  V30 5046 O 469.006 -2.54548 -5.09111 0
M  V30 5047 N 470.208 -0.767696 -5.75401 0
M  V30 5048 H 472.973 -2.26073 -1.96751 0
M  V30 5049 H 470.534 -1.31185 -0.948795 0
M  V30 5050 H 472.526 -0.727065 -3.98115 0
M  V30 5051 H 471.096 -0.0988777 -3.12444 0
M  V30 5052 H 470.316 -2.58038 -2.9801 0
M  V30 5053 H 471.604 -2.96308 -4.13617 0
M  V30 5054 H 471.002 -0.167626 -5.65452 0
M  V30 5055 H 469.559 -0.576973 -6.49241 0
M  V30 5056 N 472.992 0.995999 -1.22138 0
M  V30 5057 C 473.939 2.08551 -0.988687 0
M  V30 5058 C 474.909 1.65864 0.0885021 0
M  V30 5059 O 476.094 1.90704 -0.0604589 0
M  V30 5060 C 473.234 3.40374 -0.569191 0
M  V30 5061 C 472.347 3.96421 -1.71681 0
M  V30 5062 C 471.482 5.1639 -1.2456 0
M  V30 5063 C 470.521 5.64567 -2.36497 0
M  V30 5064 N 469.658 6.75777 -1.90445 0
M  V30 5065 H 474.498 2.2779 -1.92135 0
M  V30 5066 H 472.035 1.1168 -0.957388 0
M  V30 5067 H 473.993 4.16068 -0.307166 0
M  V30 5068 H 472.623 3.21145 0.326462 0
M  V30 5069 H 471.675 3.17628 -2.09324 0
M  V30 5070 H 472.987 4.2816 -2.55891 0
M  V30 5071 H 472.141 5.99362 -0.940774 0
M  V30 5072 H 470.88 4.86266 -0.373662 0
M  V30 5073 H 469.885 4.80185 -2.67772 0
M  V30 5074 H 471.11 5.96716 -3.24202 0
M  V30 5075 H 469.056 6.47443 -1.05609 0
M  V30 5076 H 468.973 7.06818 -2.68223 0
M  V30 5077 H 470.241 7.62262 -1.63022 0
M  V30 5078 N 474.47 1.03057 1.19235 0
M  V30 5079 C 475.718 0.726581 1.88587 0
M  V30 5080 C 476.039 -0.747227 1.80115 0
M  V30 5081 O 475.309 -1.53849 1.21274 0
M  V30 5082 H 473.889 0.265768 0.698124 0
M  V30 5083 H 476.551 1.30516 1.44746 0
M  V30 5084 H 475.647 1.0224 2.94879 0
M  V30 5085 N 475.948 -1.35272 0.808662 0
M  V30 5086 C 476.88 -2.28507 0.178149 0
M  V30 5087 C 477.893 -1.50377 -0.623754 0
M  V30 5088 O 479.082 -1.72583 -0.455774 0
M  V30 5089 C 476.182 -3.30038 -0.769959 0
M  V30 5090 C 475.355 -4.37398 -0.0139749 0
M  V30 5091 C 474.414 -5.18775 -0.880875 0
M  V30 5092 O 473.44 -5.68236 -0.331059 0
M  V30 5093 N 474.642 -5.37087 -2.20267 0
M  V30 5094 H 477.407 -2.83255 0.979106 0
M  V30 5095 H 474.968 -1.47643 0.664308 0
M  V30 5096 H 476.96 -3.81371 -1.35418 0
M  V30 5097 H 475.53 -2.75789 -1.47171 0
M  V30 5098 H 474.75 -3.86971 0.751468 0
M  V30 5099 H 476.038 -5.06268 0.506965 0
M  V30 5100 H 475.436 -4.9855 -2.67328 0
M  V30 5101 H 473.993 -5.91593 -2.73608 0
M  V30 5102 N 477.426 -0.562348 -1.47226 0
M  V30 5103 C 478.336 0.185466 -2.33866 0
M  V30 5104 C 479.352 0.906713 -1.48508 0
M  V30 5105 O 480.528 0.874458 -1.81425 0
M  V30 5106 C 477.593 1.19904 -3.25306 0
M  V30 5107 C 476.654 0.484669 -4.26555 0
M  V30 5108 C 475.887 1.44996 -5.13626 0
M  V30 5109 O 476.11 2.68515 -5.03245 0
M  V30 5110 O 475.044 0.971642 -5.94006 0
M  V30 5111 H 478.87 -0.525361 -2.99121 0
M  V30 5112 H 476.455 -0.322916 -1.45868 0
M  V30 5113 H 478.337 1.78399 -3.81774 0
M  V30 5114 H 477.012 1.8917 -2.62672 0
M  V30 5115 H 475.919 -0.141605 -3.73832 0
M  V30 5116 H 477.252 -0.166634 -4.91918 0
M  V30 5117 N 478.904 1.54736 -0.299062 0
M  V30 5118 C 480.132 2.04512 0.313447 0
M  V30 5119 C 480.547 1.17643 1.47667 0
M  V30 5120 O 479.904 0.20164 1.81383 0
M  V30 5121 C 479.955 3.53171 0.771542 0
M  V30 5122 O 479.676 4.36736 -0.345379 0
M  V30 5123 C 481.177 4.18936 1.4494 0
M  V30 5124 H 478.397 0.667507 0.0683784 0
M  V30 5125 H 480.941 1.99752 -0.438129 0
M  V30 5126 H 479.096 3.58298 1.47314 0
M  V30 5127 H 479.51 5.24499 0.0109219 0
M  V30 5128 H 480.984 5.24482 1.72111 0
M  V30 5129 H 481.461 3.68554 2.38883 0
M  V30 5130 H 482.067 4.17879 0.791028 0
M  V30 5131 N 480.382 0.0267497 1.57577 0
M  V30 5132 C 481.607 -0.666227 1.96408 0
M  V30 5133 C 482.032 -1.65004 0.903071 0
M  V30 5134 O 481.39 -1.80787 -0.136263 0
M  V30 5135 C 481.438 -1.35101 3.34335 0
M  V30 5136 O 480.542 -2.46623 3.30531 0
M  V30 5137 H 479.883 -0.175206 0.640468 0
M  V30 5138 H 482.413 0.0878977 2.04411 0
M  V30 5139 H 482.423 -1.70834 3.70513 0
M  V30 5140 H 481.098 -0.629844 4.11103 0
M  V30 5141 H 479.675 -2.13019 3.06068 0
M  V30 5142 N 481.861 -1.55662 -0.24637 0
M  V30 5143 C 483.089 -1.81575 -0.991876 0
M  V30 5144 C 483.504 -0.602545 -1.78927 0
M  V30 5145 O 482.861 0.428795 -1.77391 0
M  V30 5146 C 482.912 -3.05711 -1.92933 0
M  V30 5147 O 482.633 -4.22348 -1.1642 0
M  V30 5148 C 484.134 -3.44428 -2.79078 0
M  V30 5149 H 481.354 -0.604209 -0.291844 0
M  V30 5150 H 483.898 -2.02722 -0.269095 0
M  V30 5151 H 482.053 -2.86612 -2.60638 0
M  V30 5152 H 482.467 -4.92706 -1.79835 0
M  V30 5153 H 483.941 -4.34388 -3.40603 0
M  V30 5154 H 484.418 -2.65037 -3.50217 0
M  V30 5155 H 485.024 -3.65879 -2.16824 0
M  V30 5156 N 483.339 0.512053 -1.4905 0
M  V30 5157 C 484.287 1.63568 -1.65373 0
M  V30 5158 C 485.281 1.61228 -0.519806 0
M  V30 5159 O 486.487 1.65869 -0.699101 0
M  V30 5160 H 482.862 0.542019 -0.521267 0
M  V30 5161 H 484.833 1.4695 -2.59708 0
M  V30 5162 C 483.582 3.01761 -1.7273 0
M  V30 5163 H 482.905 3.04263 -2.59353 0
M  V30 5164 H 484.345 3.79948 -1.8819 0
M  V30 5165 C 482.804 3.33609 -0.46973 0
M  V30 5166 O 483.334 3.99607 0.409492 0
M  V30 5167 N 481.54 2.88651 -0.336003 0
M  V30 5168 H 481.087 2.35119 -1.05247 0
M  V30 5169 H 481.045 3.10328 0.504363 0
M  V30 5170 N 484.817 1.37938 0.762283 0
M  V30 5171 C 486.228 1.30094 1.33912 0
M  V30 5172 C 486.579 -0.0472026 1.96143 0
M  V30 5173 O 485.704 -0.94917 1.94473 0
M  V30 5174 C 486.299 2.35592 2.43478 0
M  V30 5175 C 484.858 2.31353 2.96905 0
M  V30 5176 C 484.005 2.18919 1.70205 0
M  V30 5177 H 486.956 1.48423 0.561816 0
M  V30 5178 H 486.977 2.00806 3.23199 0
M  V30 5179 H 486.489 3.33701 1.98155 0
M  V30 5180 H 484.59 1.36799 3.46579 0
M  V30 5181 H 484.703 3.25147 3.51875 0
M  V30 5182 H 483.067 1.65624 1.93496 0
M  V30 5183 H 483.85 3.18956 1.26973 0
M  V30 5184 N 486.295 -0.989507 1.22664 0
M  V30 5185 C 487.544 -1.72375 1.04737 0
M  V30 5186 C 487.857 -1.91096 -0.417316 0
M  V30 5187 O 489.063 -2.6188 -0.716334 0
M  V30 5188 C 487.519 -3.10161 1.82561 0
M  V30 5189 C 487.127 -2.99358 3.333 0
M  V30 5190 C 488.871 -3.87607 1.73093 0
M  V30 5191 C 486.778 -4.32319 4.03552 0
M  V30 5192 H 485.708 -0.646326 0.388302 0
M  V30 5193 H 488.359 -1.10437 1.46546 0
M  V30 5194 H 486.741 -3.728 1.33552 0
M  V30 5195 H 487.915 -2.45863 3.89728 0
M  V30 5196 H 486.23 -2.35392 3.43481 0
M  V30 5197 H 488.827 -4.86025 2.22899 0
M  V30 5198 H 489.17 -4.10509 0.691976 0
M  V30 5199 H 489.703 -3.31652 2.19663 0
M  V30 5200 H 486.442 -4.14616 5.07714 0
M  V30 5201 H 485.962 -4.85714 3.51911 0
M  V30 5202 H 487.641 -5.01051 4.09337 0
M  V30 5203 N 487.773 -1.03688 -1.18687 0
M  V30 5204 C 488.736 -0.629115 -2.20397 0
M  V30 5205 C 489.736 0.311495 -1.57754 0
M  V30 5206 O 490.926 0.0974107 -1.73927 0
M  V30 5207 C 488.058 0.0782231 -3.4081 0
M  V30 5208 H 489.251 -1.52915 -2.57987 0
M  V30 5209 H 486.804 -0.828988 -1.32505 0
M  V30 5210 H 487.539 0.992233 -3.08748 0
M  V30 5211 H 487.324 -0.597776 -3.87517 0
M  V30 5212 H 488.814 0.350156 -4.16129 0
M  V30 5213 N 489.251 1.34841 -0.815825 0
M  V30 5214 C 490.476 2.03261 -0.41226 0
M  V30 5215 C 490.901 1.61055 0.971751 0
M  V30 5216 O 490.259 0.7917 1.63101 0
M  V30 5217 C 490.307 3.56914 -0.514289 0
M  V30 5218 O 489.411 4.09728 0.468675 0
M  V30 5219 H 488.752 0.641664 -0.170771 0
M  V30 5220 H 491.282 1.72241 -1.10427 0
M  V30 5221 H 491.292 4.06156 -0.387457 0
M  V30 5222 H 489.967 3.86982 -1.52375 0
M  V30 5223 H 488.544 3.71681 0.301316 0
M  V30 5224 N 490.729 0.570148 1.46925 0
M  V30 5225 C 491.978 0.0487352 2.01641 0
M  V30 5226 C 492.291 -1.31433 1.44861 0
M  V30 5227 O 493.497 -1.92638 1.91318 0
M  V30 5228 C 491.953 0.0365817 3.59881 0
M  V30 5229 C 491.561 1.39719 4.25655 0
M  V30 5230 C 493.305 -0.431545 4.22301 0
M  V30 5231 C 491.212 1.34345 5.75939 0
M  V30 5232 H 490.142 0.0144492 0.753862 0
M  V30 5233 H 492.793 0.719928 1.68788 0
M  V30 5234 H 491.175 -0.700522 3.89755 0
M  V30 5235 H 492.349 2.15303 4.07408 0
M  V30 5236 H 490.664 1.80431 3.75278 0
M  V30 5237 H 493.261 -0.490354 5.32447 0
M  V30 5238 H 493.604 -1.44638 3.90366 0
M  V30 5239 H 494.137 0.251102 3.97007 0
M  V30 5240 H 490.876 2.33469 6.12513 0
M  V30 5241 H 490.396 0.629615 5.96486 0
M  V30 5242 H 492.075 1.051 6.38407 0
M  V30 5243 N 492.207 -1.54576 0.307264 0
M  V30 5244 C 493.454 -2.00263 -0.300167 0
M  V30 5245 C 493.782 -1.19561 -1.53413 0
M  V30 5246 O 493.037 -0.261487 -1.93945 0
M  V30 5247 C 493.336 -3.50572 -0.695253 0
M  V30 5248 C 493.002 -4.48771 0.437679 0
M  V30 5249 C 491.664 -4.7534 0.748681 0
M  V30 5250 C 494.016 -5.0721 1.19949 0
M  V30 5251 C 491.344 -5.5761 1.8245 0
M  V30 5252 C 493.696 -5.90651 2.26527 0
M  V30 5253 C 492.36 -6.15528 2.58227 0
M  V30 5254 H 491.63 -0.732814 -0.109839 0
M  V30 5255 H 494.277 -1.86664 0.427661 0
M  V30 5256 H 492.582 -3.61814 -1.50326 0
M  V30 5257 H 494.279 -3.83352 -1.17653 0
M  V30 5258 H 490.869 -4.282 0.185187 0
M  V30 5259 H 495.053 -4.86679 0.972474 0
M  V30 5260 H 490.309 -5.75121 2.07476 0
M  V30 5261 H 494.483 -6.34957 2.86011 0
M  V30 5262 H 492.11 -6.79066 3.4172 0
M  V30 5263 N 493.685 -0.035106 -1.57561 0
M  V30 5264 C 494.648 0.929819 -2.09492 0
M  V30 5265 C 495.648 1.25026 -1.01119 0
M  V30 5266 O 496.838 1.18961 -1.27255 0
M  V30 5267 C 493.97 2.24457 -2.56577 0
M  V30 5268 H 495.163 0.479935 -2.96035 0
M  V30 5269 H 492.716 0.213033 -1.54841 0
M  V30 5270 H 493.451 2.74061 -1.73382 0
M  V30 5271 H 493.236 2.02508 -3.35757 0
M  V30 5272 H 494.726 2.93607 -2.96959 0
M  V30 5273 N 495.163 1.55791 0.238111 0
M  V30 5274 C 496.409 1.79211 0.962035 0
M  V30 5275 C 496.764 0.605463 1.82625 0
M  V30 5276 O 496.057 -0.40104 1.87356 0
M  V30 5277 C 496.251 3.05869 1.84875 0
M  V30 5278 C 496.08 4.36739 1.07186 0
M  V30 5279 C 494.85 4.99346 0.773424 0
M  V30 5280 C 497.048 5.1237 0.445168 0
M  V30 5281 N 495.03 6.13894 -0.0266037 0
M  V30 5282 C 496.401 6.19613 -0.219023 0
M  V30 5283 C 498.456 4.96622 0.356522 0
M  V30 5284 C 497.159 7.1282 -0.963358 0
M  V30 5285 C 499.185 5.90214 -0.374304 0
M  V30 5286 C 498.547 6.96872 -1.0271 0
M  V30 5287 H 494.646 0.707627 0.332849 0
M  V30 5288 H 497.23 1.93284 0.234368 0
M  V30 5289 H 495.401 2.93108 2.54837 0
M  V30 5290 H 497.133 3.17547 2.5089 0
M  V30 5291 H 493.888 4.60948 1.08738 0
M  V30 5292 H 494.312 6.75727 -0.414968 0
M  V30 5293 H 498.954 4.14232 0.846878 0
M  V30 5294 H 496.672 7.94704 -1.46529 0
M  V30 5295 H 500.258 5.80106 -0.443678 0
M  V30 5296 H 499.138 7.68045 -1.58358 0
M  V30 5297 N 496.642 -0.504142 1.49319 0
M  V30 5298 C 497.87 -1.28256 1.62351 0
M  V30 5299 C 498.285 -1.86502 0.293682 0
M  V30 5300 O 497.642 -1.67678 -0.720449 0
M  V30 5301 C 497.693 -2.41507 2.68992 0
M  V30 5302 O 497.414 -1.85656 3.96817 0
M  V30 5303 C 498.915 -3.32929 2.927 0
M  V30 5304 H 496.135 -0.389115 0.546654 0
M  V30 5305 H 498.679 -0.605531 1.95329 0
M  V30 5306 H 496.834 -3.05046 2.38801 0
M  V30 5307 H 497.248 -2.59981 4.55533 0
M  V30 5308 H 498.722 -4.0868 3.71058 0
M  V30 5309 H 499.199 -3.89733 2.02496 0
M  V30 5310 H 499.805 -2.75158 3.24296 0
M  V30 5311 N 498.12 -1.38341 -0.754957 0
M  V30 5312 C 499.536 -1.19508 -1.05783 0
M  V30 5313 C 499.736 -0.0428005 -2.01455 0
M  V30 5314 O 498.792 0.611861 -2.44975 0
M  V30 5315 C 500.105 -2.52091 -1.63923 0
M  V30 5316 C 501.653 -2.58762 -1.76101 0
M  V30 5317 C 502.128 -3.91517 -2.37652 0
M  V30 5318 N 503.619 -3.93049 -2.45085 0
M  V30 5319 C 504.354 -4.9253 -2.93602 0
M  V30 5320 N 503.85 -6.02408 -3.42165 0
M  V30 5321 N 505.643 -4.79921 -2.92629 0
M  V30 5322 H 497.794 -2.1206 -0.120056 0
M  V30 5323 H 500.057 -0.94089 -0.11589 0
M  V30 5324 H 499.763 -3.36858 -1.01093 0
M  V30 5325 H 499.637 -2.70388 -2.63003 0
M  V30 5326 H 502.024 -1.74391 -2.38058 0
M  V30 5327 H 502.105 -2.44333 -0.757294 0
M  V30 5328 H 501.749 -4.76309 -1.76329 0
M  V30 5329 H 501.679 -4.03256 -3.38662 0
M  V30 5330 H 504.17 -3.13685 -2.10736 0
M  V30 5331 H 504.483 -6.74248 -3.77637 0
M  V30 5332 H 502.828 -6.0603 -3.40225 0
M  V30 5333 H 506.019 -3.93194 -2.54001 0
M  V30 5334 H 506.192 -5.57601 -3.30128 0
M  V30 5335 N 499.598 0.982988 -1.23187 0
M  V30 5336 C 500.846 1.72052 -1.06031 0
M  V30 5337 C 501.167 1.90769 0.404019 0
M  V30 5338 O 500.437 1.47446 1.28982 0
M  V30 5339 H 499.017 0.637499 -0.389363 0
M  V30 5340 H 501.679 1.18338 -1.54862 0
M  V30 5341 H 500.775 2.7111 -1.54615 0
M  V30 5342 N 501.076 1.04316 1.18135 0
M  V30 5343 C 502.006 0.657299 2.24058 0
M  V30 5344 C 502.987 -0.340678 1.66654 0
M  V30 5345 O 504.172 -0.220223 1.92947 0
M  V30 5346 C 501.302 0.0220715 3.47293 0
M  V30 5347 C 500.256 0.943857 4.17463 0
M  V30 5348 C 499.582 0.172973 5.3442 0
M  V30 5349 C 500.882 2.26409 4.70677 0
M  V30 5350 H 502.576 1.5428 2.56589 0
M  V30 5351 H 500.122 0.743263 1.23335 0
M  V30 5352 H 502.075 -0.259607 4.206 0
M  V30 5353 H 500.799 -0.898323 3.14003 0
M  V30 5354 H 499.458 1.20996 3.46057 0
M  V30 5355 H 499.106 -0.749907 4.97379 0
M  V30 5356 H 498.806 0.787098 5.82304 0
M  V30 5357 H 500.33 -0.101628 6.10515 0
M  V30 5358 H 501.744 2.04294 5.35665 0
M  V30 5359 H 500.141 2.8314 5.29105 0
M  V30 5360 H 501.211 2.90883 3.87962 0
M  V30 5361 N 502.554 -1.34406 0.822964 0
M  V30 5362 C 503.517 -2.2783 0.250271 0
M  V30 5363 C 504.517 -1.50288 -0.571854 0
M  V30 5364 O 505.707 -1.69825 -0.387952 0
M  V30 5365 C 502.839 -3.34663 -0.649137 0
M  V30 5366 H 504.032 -2.79992 1.07444 0
M  V30 5367 H 501.585 -1.44539 0.594829 0
M  V30 5368 H 502.32 -2.87714 -1.49637 0
M  V30 5369 H 502.105 -3.92052 -0.0611199 0
M  V30 5370 H 503.595 -4.04349 -1.04363 0
M  V30 5371 N 504.032 -0.577932 -1.46621 0
M  V30 5372 C 504.982 0.178869 -2.27297 0
M  V30 5373 C 505.966 0.866279 -1.35589 0
M  V30 5374 O 507.158 0.761163 -1.59798 0
M  V30 5375 C 504.287 1.19499 -3.2183 0
M  V30 5376 C 503.373 0.50994 -4.21023 0
M  V30 5377 N 503.764 -0.43177 -5.03954 0
M  V30 5378 C 502.062 0.761287 -4.39455 0
M  V30 5379 C 502.763 -0.831693 -5.75724 0
M  V30 5380 N 501.739 -0.181897 -5.43296 0
M  V30 5381 H 505.541 -0.544859 -2.88805 0
M  V30 5382 H 503.055 -0.399373 -1.57413 0
M  V30 5383 H 505.052 1.75131 -3.78332 0
M  V30 5384 H 503.712 1.91959 -2.61881 0
M  V30 5385 H 504.723 -0.807045 -5.11573 0
M  V30 5386 H 501.4 1.47282 -3.90659 0
M  V30 5387 H 502.79 -1.6067 -6.52407 0
M  V30 5388 N 505.51 1.54411 -0.315457 0
M  V30 5389 C 506.926 1.59556 0.037464 0
M  V30 5390 C 507.126 1.33217 1.5118 0
M  V30 5391 O 506.182 1.11264 2.26664 0
M  V30 5392 C 507.495 2.98372 -0.373477 0
M  V30 5393 C 509.043 3.11324 -0.323452 0
M  V30 5394 C 509.518 4.52472 -0.709433 0
M  V30 5395 N 511.009 4.58437 -0.662524 0
M  V30 5396 C 511.744 5.65751 -0.933474 0
M  V30 5397 N 511.24 6.81039 -1.27114 0
M  V30 5398 N 513.033 5.55489 -0.859573 0
M  V30 5399 H 505.184 1.6979 -1.27614 0
M  V30 5400 H 507.447 0.793732 -0.518356 0
M  V30 5401 H 507.153 3.22618 -1.40037 0
M  V30 5402 H 507.027 3.76264 0.265615 0
M  V30 5403 H 509.414 2.86818 0.694223 0
M  V30 5404 H 509.495 2.35555 -0.997367 0
M  V30 5405 H 509.139 4.7771 -1.72498 0
M  V30 5406 H 509.069 5.26598 -0.0132923 0
M  V30 5407 H 511.56 3.75636 -0.413065 0
M  V30 5408 H 511.873 7.58816 -1.46348 0
M  V30 5409 H 510.218 6.82555 -1.30932 0
M  V30 5410 H 513.409 4.64299 -0.595324 0
M  V30 5411 H 513.582 6.39036 -1.0741 0
M  V30 5412 N 506.988 0.0434614 1.5754 0
M  V30 5413 C 507.951 -0.918696 2.09982 0
M  V30 5414 C 508.951 -1.24488 1.01781 0
M  V30 5415 O 510.141 -1.18284 1.27885 0
M  V30 5416 C 507.273 -2.23093 2.57764 0
M  V30 5417 H 508.466 -0.464229 2.96285 0
M  V30 5418 H 506.019 -0.204818 1.54952 0
M  V30 5419 H 506.754 -2.73137 1.74832 0
M  V30 5420 H 506.539 -2.00724 3.36827 0
M  V30 5421 H 508.029 -2.92028 2.98512 0
M  V30 5422 N 508.466 -1.55915 -0.229846 0
M  V30 5423 C 509.413 -1.91734 -1.28478 0
M  V30 5424 C 510.383 -0.773539 -1.46988 0
M  V30 5425 O 511.568 -1.02871 -1.60693 0
M  V30 5426 C 508.708 -2.23224 -2.63182 0
M  V30 5427 C 507.821 -3.50497 -2.52539 0
M  V30 5428 C 506.956 -3.71474 -3.79711 0
M  V30 5429 C 505.995 -4.92289 -3.63755 0
M  V30 5430 N 505.132 -5.09698 -4.82858 0
M  V30 5431 H 509.972 -2.81692 -0.972308 0
M  V30 5432 H 507.509 -1.39429 -0.468815 0
M  V30 5433 H 509.467 -2.3949 -3.41614 0
M  V30 5434 H 508.097 -1.36451 -2.92542 0
M  V30 5435 H 507.149 -3.4247 -1.65585 0
M  V30 5436 H 508.461 -4.39079 -2.36666 0
M  V30 5437 H 507.615 -3.87791 -4.66586 0
M  V30 5438 H 506.354 -2.81157 -3.985 0
M  V30 5439 H 505.359 -4.7593 -2.75264 0
M  V30 5440 H 506.584 -5.84083 -3.46445 0
M  V30 5441 H 504.53 -4.22322 -5.01976 0
M  V30 5442 H 504.447 -5.92399 -4.69681 0
M  V30 5443 H 505.715 -5.30443 -5.71183 0
M  V30 5444 N 509.944 0.496216 -1.49584 0
M  V30 5445 C 510.874 1.60576 -1.69521 0
M  V30 5446 C 511.855 1.61169 -0.543933 0
M  V30 5447 O 513.04 1.77834 -0.78031 0
M  V30 5448 C 510.17 2.99038 -1.76616 0
M  V30 5449 C 509.124 3.13312 -2.91581 0
M  V30 5450 C 508.45 4.53172 -2.83794 0
M  V30 5451 C 509.75 2.92886 -4.32452 0
M  V30 5452 H 511.444 1.44146 -2.62416 0
M  V30 5453 H 508.99 0.692024 -1.26282 0
M  V30 5454 H 510.943 3.76564 -1.8915 0
M  V30 5455 H 509.667 3.16568 -0.80324 0
M  V30 5456 H 508.326 2.38213 -2.78658 0
M  V30 5457 H 507.974 4.67585 -1.854 0
M  V30 5458 H 507.674 4.63662 -3.60958 0
M  V30 5459 H 509.198 5.32752 -2.98342 0
M  V30 5460 H 510.612 3.60178 -4.46032 0
M  V30 5461 H 509.009 3.14844 -5.10875 0
M  V30 5462 H 510.079 1.88966 -4.46565 0
M  V30 5463 N 511.423 1.38739 0.74761 0
M  V30 5464 C 512.7 1.25791 1.49786 0
M  V30 5465 C 513.08 -0.138075 2.10648 0
M  V30 5466 O 512.428 -1.14815 1.9756 0
M  V30 5467 C 512.638 2.37265 2.55942 0
M  V30 5468 C 513.986 2.75978 3.22679 0
M  V30 5469 O 515.01 2.36621 2.6625 0
M  V30 5470 O 513.869 3.43867 4.24756 0
M  V30 5471 H 510.963 0.492251 0.664543 0
M  V30 5472 H 513.509 1.50582 0.782511 0
M  V30 5473 H 512.281 3.30644 2.0926 0
M  V30 5474 H 511.904 2.14071 3.35051 0
M  V30 5475 N 512.901 -0.976442 1.23707 0
M  V30 5476 C 513.849 -2.09078 1.01927 0
M  V30 5477 C 514.843 -1.69345 -0.0430193 0
M  V30 5478 O 516.049 -1.79659 0.110814 0
M  V30 5479 H 512.424 -0.68398 0.312531 0
M  V30 5480 H 514.395 -2.24614 1.96447 0
M  V30 5481 C 513.144 -3.41919 0.631385 0
M  V30 5482 H 512.467 -3.72946 1.44053 0
M  V30 5483 H 513.907 -4.20817 0.518532 0
M  V30 5484 C 512.366 -3.30357 -0.660723 0
M  V30 5485 O 512.896 -3.63542 -1.70881 0
M  V30 5486 N 511.102 -2.83507 -0.638139 0
M  V30 5487 H 510.649 -2.567 0.215108 0
M  V30 5488 H 510.607 -2.76153 -1.50289 0
M  V30 5489 N 514.379 -1.04941 -1.1758 0
M  V30 5490 C 515.327 -0.64204 -2.23563 0
M  V30 5491 C 516.321 0.335453 -1.66045 0
M  V30 5492 O 517.527 0.20179 -1.78865 0
M  V30 5493 H 513.902 -0.18944 -0.727748 0
M  V30 5494 H 515.873 -1.54609 -2.55223 0
M  V30 5495 C 514.622 -0.0301051 -3.47687 0
M  V30 5496 H 513.945 -0.773339 -3.92249 0
M  V30 5497 H 515.385 0.217592 -4.23441 0
M  V30 5498 C 513.844 1.2225 -3.13937 0
M  V30 5499 O 514.374 2.3122 -3.28482 0
M  V30 5500 N 512.58 1.11917 -2.68185 0
M  V30 5501 H 512.127 0.232403 -2.5655 0
M  V30 5502 H 512.085 1.95814 -2.45976 0
M  V30 5503 N 515.857 1.33968 -0.830081 0
M  V30 5504 C 516.804 2.29387 -0.255008 0
M  V30 5505 C 517.774 1.53923 0.624243 0
M  V30 5506 O 518.959 1.82262 0.564372 0
M  V30 5507 C 516.099 3.4034 0.571209 0
M  V30 5508 C 515.212 4.30729 -0.331083 0
M  V30 5509 C 514.347 5.2879 0.505389 0
M  V30 5510 C 513.386 6.10819 -0.395843 0
M  V30 5511 N 512.523 7.00948 0.401979 0
M  V30 5512 H 517.363 2.77972 -1.07404 0
M  V30 5513 H 514.9 1.36785 -0.541133 0
M  V30 5514 H 516.858 4.03361 1.06562 0
M  V30 5515 H 515.488 2.9297 1.35529 0
M  V30 5516 H 514.54 3.68507 -0.943759 0
M  V30 5517 H 515.852 4.88181 -1.02377 0
M  V30 5518 H 515.006 5.97297 1.06399 0
M  V30 5519 H 513.745 4.71894 1.23155 0
M  V30 5520 H 512.75 5.41238 -0.966529 0
M  V30 5521 H 513.975 6.69797 -1.12023 0
M  V30 5522 H 511.921 6.46512 1.11168 0
M  V30 5523 H 511.838 7.55643 -0.232167 0
M  V30 5524 H 513.106 7.73774 0.943102 0
M  V30 5525 N 517.335 0.585699 1.46312 0
M  V30 5526 C 518.245 -0.148236 2.34131 0
M  V30 5527 C 519.261 -0.882972 1.49932 0
M  V30 5528 O 520.437 -0.845484 1.82794 0
M  V30 5529 C 517.502 -1.14714 3.27172 0
M  V30 5530 C 516.563 -0.416746 4.27272 0
M  V30 5531 C 515.796 -1.36806 5.15868 0
M  V30 5532 O 516.019 -2.60475 5.07454 0
M  V30 5533 O 514.953 -0.877018 5.95476 0
M  V30 5534 H 518.779 0.572882 2.98248 0
M  V30 5535 H 516.364 0.346082 1.45336 0
M  V30 5536 H 518.246 -1.72303 3.84564 0
M  V30 5537 H 516.921 -1.84967 2.65648 0
M  V30 5538 H 515.828 0.201061 3.73559 0
M  V30 5539 H 517.161 0.244872 4.9159 0
M  V30 5540 N 518.813 -1.54241 0.323641 0
M  V30 5541 C 519.743 -2.27289 -0.534993 0
M  V30 5542 C 520.724 -1.28087 -1.11927 0
M  V30 5543 O 521.909 -1.56899 -1.14439 0
M  V30 5544 C 519.039 -3.03075 -1.69596 0
M  V30 5545 C 517.993 -4.09614 -1.24098 0
M  V30 5546 C 517.319 -4.73242 -2.4889 0
M  V30 5547 C 518.619 -5.21087 -0.355789 0
M  V30 5548 H 520.313 -2.99308 0.0743257 0
M  V30 5549 H 517.859 -1.43952 0.0371874 0
M  V30 5550 H 519.812 -3.52907 -2.30293 0
M  V30 5551 H 518.536 -2.28673 -2.33187 0
M  V30 5552 H 517.195 -3.60666 -0.656945 0
M  V30 5553 H 516.843 -3.95455 -3.10845 0
M  V30 5554 H 516.543 -5.45209 -2.19138 0
M  V30 5555 H 518.067 -5.25848 -3.10348 0
M  V30 5556 H 519.481 -5.66675 -0.869042 0
M  V30 5557 H 517.878 -5.9991 -0.151045 0
M  V30 5558 H 518.948 -4.81005 0.613339 0
M  V30 5559 N 520.291 -0.0518155 -1.57515 0
M  V30 5560 C 521.254 0.907547 -2.10467 0
M  V30 5561 C 522.254 1.23947 -1.02439 0
M  V30 5562 O 523.444 1.17604 -1.2851 0
M  V30 5563 C 520.576 2.21723 -2.58944 0
M  V30 5564 H 521.769 0.44851 -2.96527 0
M  V30 5565 H 519.322 0.196598 -1.55059 0
M  V30 5566 H 520.057 2.72206 -1.76279 0
M  V30 5567 H 519.842 1.98935 -3.37886 0
M  V30 5568 H 521.332 2.90441 -3.00056 0
M  V30 5569 N 521.769 1.56035 0.221574 0
M  V30 5570 C 523.016 1.79047 0.94597 0
M  V30 5571 C 523.344 0.62057 1.84334 0
M  V30 5572 O 522.599 -0.395053 1.91671 0
M  V30 5573 C 522.898 3.07813 1.8162 0
M  V30 5574 C 522.564 4.3797 1.07206 0
M  V30 5575 C 521.226 4.73334 0.866508 0
M  V30 5576 C 523.578 5.18326 0.546565 0
M  V30 5577 C 520.906 5.8657 0.123549 0
M  V30 5578 C 523.258 6.32335 -0.18305 0
M  V30 5579 C 521.922 6.66301 -0.399861 0
M  V30 5580 H 521.192 0.655178 0.346155 0
M  V30 5581 H 523.839 1.90299 0.214146 0
M  V30 5582 H 522.144 2.91682 2.61589 0
M  V30 5583 H 523.841 3.2282 2.37884 0
M  V30 5584 H 520.431 4.10202 1.24226 0
M  V30 5585 H 524.615 4.9144 0.692847 0
M  V30 5586 H 519.871 6.11376 -0.0546591 0
M  V30 5587 H 524.045 6.9383 -0.59775 0
M  V30 5588 H 521.672 7.53889 -0.977489 0
M  V30 5589 N 523.247 -0.488276 1.49845 0
M  V30 5590 C 524.494 -1.24157 1.59973 0
M  V30 5591 C 524.822 -1.92293 0.292182 0
M  V30 5592 O 524.077 -1.81942 -0.720813 0
M  V30 5593 C 524.376 -2.32152 2.71735 0
M  V30 5594 C 524.042 -1.81387 4.12807 0
M  V30 5595 C 522.704 -1.67262 4.51195 0
M  V30 5596 C 525.056 -1.43537 5.01045 0
M  V30 5597 C 522.384 -1.13685 5.7558 0
M  V30 5598 C 524.736 -0.914081 6.25961 0
M  V30 5599 C 523.4 -0.759327 6.63167 0
M  V30 5600 H 522.67 -0.454322 0.585383 0
M  V30 5601 H 525.317 -0.540261 1.83721 0
M  V30 5602 H 523.622 -3.08122 2.42008 0
M  V30 5603 H 525.319 -2.90164 2.76778 0
M  V30 5604 H 521.909 -1.93344 3.82513 0
M  V30 5605 H 526.093 -1.53292 4.72033 0
M  V30 5606 H 521.349 -1.00426 6.03096 0
M  V30 5607 H 525.523 -0.612066 6.93705 0
M  V30 5608 H 523.15 -0.342002 7.5943 0
M  V30 5609 N 524.725 -1.39134 -0.740242 0
M  V30 5610 C 525.688 -1.37217 -1.83587 0
M  V30 5611 C 526.688 -0.270221 -1.58513 0
M  V30 5612 O 527.878 -0.527843 -1.6601 0
M  V30 5613 C 525.01 -1.13959 -3.21288 0
M  V30 5614 H 526.203 -2.34705 -1.86691 0
M  V30 5615 H 523.756 -1.24622 -0.94335 0
M  V30 5616 H 524.491 -0.17131 -3.23847 0
M  V30 5617 H 524.276 -1.93754 -3.40884 0
M  V30 5618 H 525.766 -1.15346 -4.01354 0
M  V30 5619 N 526.204 0.969867 -1.24223 0
M  V30 5620 C 527.152 2.08535 -1.03034 0
M  V30 5621 C 528.146 1.69366 0.0340379 0
M  V30 5622 O 529.352 1.79597 -0.12034 0
M  V30 5623 H 525.727 0.682313 -0.316154 0
M  V30 5624 H 527.698 2.23569 -1.97635 0
M  V30 5625 C 526.447 3.4158 -0.649509 0
M  V30 5626 H 525.77 3.72177 -1.46028 0
M  V30 5627 H 527.21 4.20536 -0.540841 0
M  V30 5628 C 525.669 3.30703 0.643194 0
M  V30 5629 O 526.199 3.64443 1.68951 0
M  V30 5630 N 524.405 2.83841 0.623095 0
M  V30 5631 H 523.952 2.56583 -0.228719 0
M  V30 5632 H 523.91 2.76946 1.48823 0
M  V30 5633 N 527.682 1.05563 1.17022 0
M  V30 5634 C 528.645 0.664098 2.19368 0
M  V30 5635 C 529.645 -0.286358 1.5823 0
M  V30 5636 O 530.835 -0.069728 1.7406 0
M  V30 5637 C 527.967 -0.0239932 3.40892 0
M  V30 5638 H 529.16 1.57 2.55521 0
M  V30 5639 H 526.713 0.849964 1.31169 0
M  V30 5640 H 527.448 -0.942988 3.10287 0
M  V30 5641 H 527.233 0.659351 3.86516 0
M  V30 5642 H 528.723 -0.283909 4.16634 0
M  V30 5643 N 529.16 -1.33526 0.837174 0
M  V30 5644 C 530.09 -2.31764 0.284206 0
M  V30 5645 C 531.071 -1.58896 -0.607142 0
M  V30 5646 O 532.256 -1.86798 -0.531047 0
M  V30 5647 C 529.386 -3.43029 -0.542962 0
M  V30 5648 C 528.34 -4.27255 0.252451 0
M  V30 5649 C 527.666 -5.3012 -0.69836 0
M  V30 5650 C 528.966 -5.01229 1.46858 0
M  V30 5651 H 530.66 -2.78262 1.10502 0
M  V30 5652 H 528.206 -1.3378 0.532812 0
M  V30 5653 H 530.159 -4.1078 -0.940096 0
M  V30 5654 H 528.883 -2.95216 -1.39697 0
M  V30 5655 H 527.542 -3.61127 0.631124 0
M  V30 5656 H 527.19 -4.78564 -1.54872 0
M  V30 5657 H 526.89 -5.87353 -0.170274 0
M  V30 5658 H 528.414 -6.00737 -1.09305 0
M  V30 5659 H 529.828 -5.61756 1.14469 0
M  V30 5660 H 528.225 -5.68104 1.93333 0
M  V30 5661 H 529.295 -4.301 2.23924 0
M  V30 5662 N 530.638 -0.59345 -1.46 0
M  V30 5663 C 531.548 0.135817 -2.34207 0
M  V30 5664 C 532.564 0.875008 -1.50398 0
M  V30 5665 O 533.74 0.835778 -1.83239 0
M  V30 5666 C 530.805 1.12977 -3.27776 0
M  V30 5667 C 529.866 0.394081 -4.27487 0
M  V30 5668 C 529.099 1.34068 -5.16586 0
M  V30 5669 O 529.322 2.5778 -5.08828 0
M  V30 5670 O 528.256 0.845426 -5.95933 0
M  V30 5671 H 532.082 -0.588691 -2.9794 0
M  V30 5672 H 529.667 -0.353784 -1.45151 0
M  V30 5673 H 531.549 1.70261 -3.85473 0
M  V30 5674 H 530.224 1.83556 -2.66625 0
M  V30 5675 H 529.131 -0.220869 -3.73447 0
M  V30 5676 H 530.464 -0.270939 -4.91454 0
M  V30 5677 N 532.116 1.54067 -0.331816 0
M  V30 5678 C 533.026 2.28322 0.539104 0
M  V30 5679 C 534.042 1.32985 1.1221 0
M  V30 5680 O 535.218 1.6601 1.1403 0
M  V30 5681 C 532.283 3.03277 1.68 0
M  V30 5682 C 531.344 4.14216 1.12798 0
M  V30 5683 C 530.577 4.85588 2.2145 0
M  V30 5684 O 530.8 4.56536 3.41952 0
M  V30 5685 O 529.734 5.72309 1.86404 0
M  V30 5686 H 533.56 3.03632 -0.0641692 0
M  V30 5687 H 531.145 1.49083 -0.0972365 0
M  V30 5688 H 533.027 3.50189 2.34405 0
M  V30 5689 H 531.702 2.30834 2.2693 0
M  V30 5690 H 530.609 3.71635 0.428782 0
M  V30 5691 H 531.942 4.88727 0.583698 0
M  V30 5692 N 533.594 0.0601682 1.57485 0
M  V30 5693 C 534.84 -0.612501 1.93329 0
M  V30 5694 C 535.173 -1.6996 0.939526 0
M  V30 5695 O 534.448 -1.94472 -0.0330957 0
M  V30 5696 C 534.731 -1.20025 3.39508 0
M  V30 5697 C 534.584 -0.12059 4.49638 0
M  V30 5698 C 535.903 -2.10923 3.86264 0
M  V30 5699 H 533.022 -0.221185 0.703027 0
M  V30 5700 H 535.664 0.123768 1.89596 0
M  V30 5701 H 533.814 -1.82774 3.42821 0
M  V30 5702 H 535.486 0.51185 4.58452 0
M  V30 5703 H 533.729 0.550251 4.30296 0
M  V30 5704 H 534.4 -0.572019 5.49028 0
M  V30 5705 H 536.876 -1.58124 3.84884 0
M  V30 5706 H 535.752 -2.48987 4.8918 0
M  V30 5707 H 536.013 -3.01292 3.23536 0
M  V30 5708 N 535.072 -1.5615 -0.213296 0
M  V30 5709 C 536.297 -1.83986 -0.957282 0
M  V30 5710 C 536.722 -0.641526 -1.76822 0
M  V30 5711 O 536.08 0.409722 -1.7661 0
M  V30 5712 C 536.128 -3.09889 -1.84393 0
M  V30 5713 O 535.232 -2.89163 -2.94038 0
M  V30 5714 H 534.573 -0.606357 -0.270605 0
M  V30 5715 H 537.103 -2.03369 -0.224111 0
M  V30 5716 H 537.113 -3.40209 -2.25215 0
M  V30 5717 H 535.788 -3.96735 -1.24795 0
M  V30 5718 H 534.365 -2.70097 -2.57103 0
M  V30 5719 N 536.55 0.480323 -1.50102 0
M  V30 5720 C 537.799 1.22979 -1.59872 0
M  V30 5721 C 538.112 1.93282 -0.30022 0
M  V30 5722 O 539.318 2.70086 -0.276709 0
M  V30 5723 C 537.774 2.23408 -2.82164 0
M  V30 5724 C 537.382 1.5895 -4.18854 0
M  V30 5725 C 539.126 2.99055 -3.01275 0
M  V30 5726 C 537.033 2.57611 -5.32344 0
M  V30 5727 H 535.963 0.462707 -0.59533 0
M  V30 5728 H 538.614 0.501291 -1.7652 0
M  V30 5729 H 536.996 2.99511 -2.59055 0
M  V30 5730 H 538.17 0.887 -4.52182 0
M  V30 5731 H 536.485 0.956191 -4.05273 0
M  V30 5732 H 539.082 3.72876 -3.83233 0
M  V30 5733 H 539.425 3.57897 -2.12639 0
M  V30 5734 H 539.958 2.30066 -3.24522 0
M  V30 5735 H 536.697 2.03521 -6.23105 0
M  V30 5736 H 536.217 3.26041 -5.03445 0
M  V30 5737 H 537.896 3.19627 -5.62537 0
M  V30 5738 N 538.028 1.39524 0.732853 0
M  V30 5739 C 538.938 1.40695 1.87729 0
M  V30 5740 C 539.954 0.301496 1.71368 0
M  V30 5741 O 541.13 0.543313 1.93933 0
M  V30 5742 C 538.195 1.25098 3.23344 0
M  V30 5743 C 537.256 2.45634 3.52083 0
M  V30 5744 C 536.489 2.30772 4.81228 0
M  V30 5745 O 536.712 1.31233 5.55098 0
M  V30 5746 O 535.646 3.19799 5.09914 0
M  V30 5747 H 539.472 2.37168 1.89697 0
M  V30 5748 H 537.057 1.20663 0.880959 0
M  V30 5749 H 538.939 1.18541 4.04383 0
M  V30 5750 H 537.614 0.317209 3.22142 0
M  V30 5751 H 536.521 2.57767 2.71122 0
M  V30 5752 H 537.854 3.37712 3.58066 0
M  V30 5753 N 539.506 -0.963266 1.24736 0
M  V30 5754 C 540.734 -1.74166 1.11686 0
M  V30 5755 C 541.149 -1.8589 -0.330187 0
M  V30 5756 O 540.506 -1.35042 -1.2276 0
M  V30 5757 C 540.557 -3.15989 1.75595 0
M  V30 5758 O 540.278 -3.04847 3.14642 0
M  V30 5759 C 541.779 -4.10145 1.68213 0
M  V30 5760 H 538.999 -0.546031 0.389989 0
M  V30 5761 H 541.543 -1.20907 1.64929 0
M  V30 5762 H 539.698 -3.66219 1.26343 0
M  V30 5763 H 540.112 -3.9425 3.4593 0
M  V30 5764 H 541.586 -5.07299 2.17604 0
M  V30 5765 H 542.063 -4.3445 0.644208 0
M  V30 5766 H 542.669 -3.65827 2.16912 0
M  V30 5767 N 540.985 -1.06182 -1.16461 0
M  V30 5768 C 542.234 -0.772927 -1.86303 0
M  V30 5769 C 542.547 0.703187 -1.82523 0
M  V30 5770 O 543.753 1.10641 -2.47933 0
M  V30 5771 C 542.209 -1.33249 -3.34324 0
M  V30 5772 C 541.817 -2.83876 -3.46581 0
M  V30 5773 C 543.561 -1.12108 -4.09429 0
M  V30 5774 C 541.468 -3.33082 -4.88682 0
M  V30 5775 H 540.398 -0.285452 -0.697878 0
M  V30 5776 H 543.049 -1.28039 -1.31447 0
M  V30 5777 H 541.431 -0.7528 -3.88779 0
M  V30 5778 H 542.605 -3.47786 -3.02293 0
M  V30 5779 H 540.92 -3.03671 -2.84909 0
M  V30 5780 H 543.517 -1.46361 -5.14279 0
M  V30 5781 H 543.86 -0.0593832 -4.16258 0
M  V30 5782 H 544.393 -1.6665 -3.6121 0
M  V30 5783 H 541.132 -4.38726 -4.87032 0
M  V30 5784 H 540.652 -2.73919 -5.33599 0
M  V30 5785 H 542.331 -3.28344 -5.57494 0
M  V30 5786 N 542.463 1.3308 -0.844243 0
M  V30 5787 C 543.373 2.32876 -0.283922 0
M  V30 5788 C 544.389 1.63589 0.592846 0
M  V30 5789 O 545.565 1.95205 0.495693 0
M  V30 5790 C 542.63 3.42667 0.527283 0
M  V30 5791 C 541.691 4.27664 -0.374394 0
M  V30 5792 C 540.924 5.32212 0.39819 0
M  V30 5793 O 541.147 5.46635 1.62932 0
M  V30 5794 O 540.081 6.01458 -0.2306 0
M  V30 5795 H 543.907 2.82671 -1.11045 0
M  V30 5796 H 541.492 1.36518 -0.606903 0
M  V30 5797 H 543.374 4.09652 0.988078 0
M  V30 5798 H 542.049 2.95079 1.33078 0
M  V30 5799 H 540.956 3.63526 -0.883144 0
M  V30 5800 H 542.289 4.78749 -1.1428 0
M  V30 5801 N 543.941 0.601185 1.45683 0
M  V30 5802 C 544.904 -0.111398 2.28929 0
M  V30 5803 C 545.904 -0.801246 1.39416 0
M  V30 5804 O 547.094 -0.650383 1.61603 0
M  V30 5805 C 544.226 -1.16773 3.20276 0
M  V30 5806 H 545.419 0.620412 2.93413 0
M  V30 5807 H 542.972 0.359946 1.52099 0
M  V30 5808 H 543.707 -1.93051 2.60579 0
M  V30 5809 H 543.492 -0.677358 3.86205 0
M  V30 5810 H 544.982 -1.66698 3.82886 0
M  V30 5811 N 545.419 -1.53889 0.339982 0
M  V30 5812 C 546.667 -2.00458 -0.257112 0
M  V30 5813 C 546.988 -1.22953 -1.51353 0
M  V30 5814 O 546.258 -0.335734 -1.93002 0
M  V30 5815 H 544.838 -0.740544 -0.0979965 0
M  V30 5816 H 547.5 -1.89386 0.460317 0
M  V30 5817 H 546.596 -3.08035 -0.502057 0
M  V30 5818 N 546.897 -0.0685191 -1.57451 0
M  V30 5819 C 548.144 0.601348 -1.93365 0
M  V30 5820 C 548.472 1.69816 -0.948294 0
M  V30 5821 O 547.727 1.95666 0.0366199 0
M  V30 5822 C 548.026 1.22051 -3.35914 0
M  V30 5823 C 547.692 0.250165 -4.50205 0
M  V30 5824 C 546.354 -0.0167954 -4.81197 0
M  V30 5825 C 548.706 -0.413867 -5.19554 0
M  V30 5826 C 546.034 -0.95493 -5.78876 0
M  V30 5827 C 548.386 -1.3403 -6.18238 0
M  V30 5828 C 547.05 -1.61576 -6.47649 0
M  V30 5829 H 546.32 0.220049 -0.707573 0
M  V30 5830 H 548.967 -0.138697 -1.90997 0
M  V30 5831 H 547.272 2.03622 -3.34732 0
M  V30 5832 H 548.969 1.74605 -3.6099 0
M  V30 5833 H 545.559 0.468421 -4.26033 0
M  V30 5834 H 549.743 -0.220733 -4.95809 0
M  V30 5835 H 544.999 -1.17563 -5.99991 0
M  V30 5836 H 549.173 -1.86081 -6.71079 0
M  V30 5837 H 546.8 -2.34431 -7.2315 0
M  V30 5838 N 548.375 1.56261 0.205012 0
M  V30 5839 C 549.308 1.88797 1.28183 0
M  V30 5840 C 550.286 0.747018 1.44424 0
M  V30 5841 O 551.47 0.997039 1.59973 0
M  V30 5842 C 548.597 2.10949 2.64987 0
M  V30 5843 C 547.643 3.33649 2.6567 0
M  V30 5844 S 548.476 4.89078 2.18088 0
M  V30 5845 C 549.632 5.14286 3.56736 0
M  V30 5846 H 549.865 2.79837 1.00393 0
M  V30 5847 H 547.398 1.48911 0.408042 0
M  V30 5848 H 549.356 2.24395 3.4374 0
M  V30 5849 H 548.017 1.20678 2.89993 0
M  V30 5850 H 547.21 3.46245 3.66239 0
M  V30 5851 H 546.812 3.19146 1.94992 0
M  V30 5852 H 549.104 5.04198 4.52537 0
M  V30 5853 H 550.047 6.16096 3.49043 0
M  V30 5854 H 550.455 4.41957 3.51189 0
M  V30 5855 N 549.853 -0.472356 1.50355 0
M  V30 5856 C 551.081 -1.24784 1.65035 0
M  V30 5857 C 551.496 -1.85837 0.333176 0
M  V30 5858 O 550.853 -1.69168 -0.68472 0
M  V30 5859 C 550.904 -2.35747 2.74054 0
M  V30 5860 O 550.625 -1.77197 4.00665 0
M  V30 5861 C 552.126 -3.26645 2.99696 0
M  V30 5862 H 549.346 -0.377432 0.554785 0
M  V30 5863 H 551.89 -0.563962 1.9657 0
M  V30 5864 H 550.045 -2.99912 2.45217 0
M  V30 5865 H 550.459 -2.5026 4.60945 0
M  V30 5866 H 551.933 -4.00718 3.79644 0
M  V30 5867 H 552.41 -3.8535 2.10718 0
M  V30 5868 H 553.016 -2.68218 3.3006 0
M  V30 5869 N 551.331 -1.39911 -0.725443 0
M  V30 5870 C 552.278 -1.39393 -1.83952 0
M  V30 5871 C 553.248 -0.252249 -1.64173 0
M  V30 5872 O 554.433 -0.44882 -1.85446 0
M  V30 5873 C 551.573 -1.25262 -3.21564 0
M  V30 5874 C 550.686 -2.49054 -3.52982 0
M  V30 5875 C 549.821 -2.27439 -4.80047 0
M  V30 5876 C 548.86 -3.46857 -5.04338 0
M  V30 5877 N 547.997 -3.24499 -6.22611 0
M  V30 5878 H 552.837 -2.34622 -1.83729 0
M  V30 5879 H 550.374 -1.16537 -0.897636 0
M  V30 5880 H 552.332 -1.15077 -4.01015 0
M  V30 5881 H 550.962 -0.33657 -3.21041 0
M  V30 5882 H 550.014 -2.69805 -2.6816 0
M  V30 5883 H 551.326 -3.37973 -3.66846 0
M  V30 5884 H 550.48 -2.14551 -5.67497 0
M  V30 5885 H 549.219 -1.35929 -4.68374 0
M  V30 5886 H 548.224 -3.60232 -4.15346 0
M  V30 5887 H 549.449 -4.3928 -5.17889 0
M  V30 5888 H 547.395 -2.35663 -6.12208 0
M  V30 5889 H 547.312 -4.06978 -6.37106 0
M  V30 5890 H 548.58 -3.15325 -7.12875 0
M  V30 5891 N 552.809 0.956637 -1.25245 0
M  V30 5892 C 554.086 1.67716 -1.00651 0
M  V30 5893 C 554.466 2.0585 0.467866 0
M  V30 5894 O 553.814 1.77029 1.44475 0
M  V30 5895 C 554.024 2.90093 -1.94028 0
M  V30 5896 C 555.372 3.6209 -2.21756 0
M  V30 5897 O 556.396 3.00171 -1.9177 0
M  V30 5898 O 555.255 4.7358 -2.72735 0
M  V30 5899 H 552.349 0.733731 -0.381533 0
M  V30 5900 H 554.895 1.00974 -1.3639 0
M  V30 5901 H 553.667 2.58689 -2.93591 0
M  V30 5902 H 553.29 3.64566 -1.58674 0
M  V30 5903 N 554.287 1.06798 1.15896 0
M  V30 5904 C 555.217 0.704677 2.22613 0
M  V30 5905 C 556.198 -0.305252 1.67339 0
M  V30 5906 O 557.383 -0.179247 1.93371 0
M  V30 5907 C 554.513 0.0957325 3.47168 0
M  V30 5908 C 553.467 1.0322 4.15367 0
M  V30 5909 C 552.793 0.286293 5.33933 0
M  V30 5910 C 554.093 2.36341 4.65768 0
M  V30 5911 H 555.787 1.59688 2.53259 0
M  V30 5912 H 553.333 0.769257 1.21731 0
M  V30 5913 H 555.286 -0.170333 4.21056 0
M  V30 5914 H 554.01 -0.831516 3.15838 0
M  V30 5915 H 552.669 1.28309 3.43413 0
M  V30 5916 H 552.317 -0.644237 4.98857 0
M  V30 5917 H 552.017 0.910436 5.80504 0
M  V30 5918 H 553.541 0.0278938 6.10594 0
M  V30 5919 H 554.955 2.1561 5.31211 0
M  V30 5920 H 553.352 2.94299 5.2298 0
M  V30 5921 H 554.422 2.99047 3.81705 0
M  V30 5922 N 555.766 -1.3263 0.851289 0
M  V30 5923 C 556.729 -2.27247 0.298541 0
M  V30 5924 C 557.729 -1.51467 -0.539847 0
M  V30 5925 O 558.919 -1.7061 -0.351843 0
M  V30 5926 C 556.051 -3.35964 -0.578004 0
M  V30 5927 H 557.244 -2.7765 1.13359 0
M  V30 5928 H 554.797 -1.43245 0.625354 0
M  V30 5929 H 555.532 -2.90823 -1.435 0
M  V30 5930 H 555.317 -3.92094 0.0220539 0
M  V30 5931 H 556.807 -4.06472 -0.957626 0
M  V30 5932 N 557.244 -0.608902 -1.45362 0
M  V30 5933 C 558.207 0.0992563 -2.28985 0
M  V30 5934 C 559.207 0.793841 -1.39838 0
M  V30 5935 O 560.397 0.641804 -1.61946 0
M  V30 5936 C 557.529 1.15073 -3.20891 0
M  V30 5937 H 558.722 -0.635964 -2.93079 0
M  V30 5938 H 556.275 -0.368007 -1.51906 0
M  V30 5939 H 557.01 1.91667 -2.616 0
M  V30 5940 H 556.795 0.656867 -3.86559 0
M  V30 5941 H 558.285 1.64665 -3.83765 0
M  V30 5942 N 558.722 1.53707 -0.348139 0
M  V30 5943 C 559.962 2.02899 0.247254 0
M  V30 5944 C 560.326 1.23033 1.47401 0
M  V30 5945 O 561.527 1.62146 2.14388 0
M  V30 5946 C 559.798 3.53156 0.549151 0
M  V30 5947 S 561.357 4.24247 1.1207 0
M  V30 5948 H 558.175 0.707213 0.0732894 0
M  V30 5949 H 560.777 1.89338 -0.486965 0
M  V30 5950 H 559.481 4.08893 -0.351435 0
M  V30 5951 H 559.012 3.70845 1.31291 0
M  V30 5952 H 561.027 4.33958 2.40613 0
M  V30 5953 N 560.2 0.0768682 1.57412 0
M  V30 5954 C 561.449 -0.590679 1.92857 0
M  V30 5955 C 561.762 -1.70461 0.959293 0
M  V30 5956 O 562.968 -2.43207 1.20675 0
M  V30 5957 C 561.424 -1.10204 3.42612 0
M  V30 5958 C 561.032 -0.0188447 4.47996 0
M  V30 5959 C 562.776 -1.74336 3.87049 0
M  V30 5960 C 560.683 -0.544536 5.88888 0
M  V30 5961 H 559.613 -0.224411 0.71983 0
M  V30 5962 H 562.264 0.149924 1.82887 0
M  V30 5963 H 560.646 -1.89577 3.47673 0
M  V30 5964 H 561.82 0.755936 4.54557 0
M  V30 5965 H 560.135 0.526555 4.13057 0
M  V30 5966 H 562.732 -2.14708 4.89699 0
M  V30 5967 H 563.075 -2.60537 3.24694 0
M  V30 5968 H 563.608 -1.01577 3.84613 0
M  V30 5969 H 560.347 0.280426 6.549 0
M  V30 5970 H 559.867 -1.28673 5.85836 0
M  V30 5971 H 561.546 -1.01933 6.3892 0
M  V30 5972 N 561.678 -1.56367 -0.196722 0
M  V30 5973 C 562.625 -1.94417 -1.24382 0
M  V30 5974 C 563.595 -0.804543 -1.45315 0
M  V30 5975 O 564.78 -1.06256 -1.58475 0
M  V30 5976 C 561.92 -2.28757 -2.58388 0
M  V30 5977 C 561.033 -3.55775 -2.45047 0
M  V30 5978 C 560.168 -3.79445 -3.71746 0
M  V30 5979 C 559.207 -4.99894 -3.53231 0
M  V30 5980 N 558.344 -5.19826 -4.71938 0
M  V30 5981 H 563.184 -2.83691 -0.912338 0
M  V30 5982 H 560.721 -1.40392 -0.439135 0
M  V30 5983 H 562.679 -2.46682 -3.36457 0
M  V30 5984 H 561.309 -1.42625 -2.89582 0
M  V30 5985 H 560.361 -3.45905 -1.58284 0
M  V30 5986 H 561.673 -4.44 -2.27299 0
M  V30 5987 H 560.827 -3.97601 -4.58256 0
M  V30 5988 H 559.566 -2.89546 -3.92446 0
M  V30 5989 H 558.571 -4.81662 -2.65107 0
M  V30 5990 H 559.796 -5.913 -3.33978 0
M  V30 5991 H 557.742 -4.32875 -4.92905 0
M  V30 5992 H 557.659 -6.02228 -4.57009 0
M  V30 5993 H 558.927 -5.42439 -5.59803 0
M  V30 5994 N 563.156 0.464375 -1.50603 0
M  V30 5995 C 564.404 1.21356 -1.61608 0
M  V30 5996 C 564.725 1.92329 -0.321643 0
M  V30 5997 O 563.995 1.84403 0.661232 0
M  V30 5998 H 562.575 0.45094 -0.595535 0
M  V30 5999 H 565.237 0.535046 -1.87412 0
M  V30 6000 H 564.333 1.95783 -2.43054 0
M  V30 6001 N 564.634 1.40294 0.718013 0
M  V30 6002 C 565.564 1.43118 1.84498 0
M  V30 6003 C 566.545 0.292403 1.67568 0
M  V30 6004 O 567.73 0.500675 1.87635 0
M  V30 6005 C 564.86 1.29065 3.22427 0
M  V30 6006 C 563.814 2.40521 3.54025 0
M  V30 6007 C 563.14 2.11546 4.91073 0
M  V30 6008 C 564.44 3.82859 3.55269 0
M  V30 6009 H 566.134 2.37432 1.82391 0
M  V30 6010 H 563.68 1.14283 0.87609 0
M  V30 6011 H 565.633 1.29658 4.00957 0
M  V30 6012 H 564.357 0.312271 3.25104 0
M  V30 6013 H 563.016 2.39173 2.77834 0
M  V30 6014 H 562.664 1.12104 4.90348 0
M  V30 6015 H 562.364 2.86216 5.1318 0
M  V30 6016 H 563.888 2.13817 5.71939 0
M  V30 6017 H 565.302 3.86044 4.23843 0
M  V30 6018 H 563.699 4.57029 3.88902 0
M  V30 6019 H 564.769 4.12617 2.54706 0
M  V30 6020 N 566.112 -0.949982 1.2575 0
M  V30 6021 C 567.523 -1.50989 1.09815 0
M  V30 6022 C 567.874 -1.93497 -0.324556 0
M  V30 6023 O 566.999 -1.79068 -1.21506 0
M  V30 6024 C 567.594 -2.74394 1.98729 0
M  V30 6025 C 566.153 -3.26682 1.86965 0
M  V30 6026 C 565.3 -1.99498 1.92603 0
M  V30 6027 H 568.251 -0.766387 1.38968 0
M  V30 6028 H 568.272 -3.48383 1.53001 0
M  V30 6029 H 567.784 -2.43425 3.02268 0
M  V30 6030 H 565.885 -3.62461 0.863279 0
M  V30 6031 H 565.998 -3.94383 2.72027 0
M  V30 6032 H 564.362 -2.15005 1.36546 0
M  V30 6033 H 565.145 -1.70871 2.97755 0
M  V30 6034 N 567.59 -1.07411 -1.15328 0
M  V30 6035 C 568.538 -0.689316 -2.22151 0
M  V30 6036 C 569.532 0.300156 -1.6672 0
M  V30 6037 O 570.738 0.163804 -1.79253 0
M  V30 6038 H 567.113 -0.204834 -0.723566 0
M  V30 6039 H 569.084 -1.59988 -2.51886 0
M  V30 6040 C 567.833 -0.103848 -3.47545 0
M  V30 6041 H 567.156 -0.856367 -3.90521 0
M  V30 6042 H 568.596 0.127725 -4.23808 0
M  V30 6043 C 567.055 1.15563 -3.1646 0
M  V30 6044 O 567.585 2.242 -3.33312 0
M  V30 6045 N 565.791 1.06203 -2.70498 0
M  V30 6046 H 565.338 0.177933 -2.56985 0
M  V30 6047 H 565.296 1.90553 -2.50074 0
M  V30 6048 N 569.068 1.32177 -0.85831 0
M  V30 6049 C 570.314 1.97417 -0.46417 0
M  V30 6050 C 570.647 1.67746 0.978514 0
M  V30 6051 O 569.922 0.967654 1.68721 0
M  V30 6052 C 570.205 3.53069 -0.708094 0
M  V30 6053 C 570.058 3.92357 -2.19946 0
M  V30 6054 C 571.377 4.39783 -0.166881 0
M  V30 6055 H 568.496 0.717097 -0.17012 0
M  V30 6056 H 571.138 1.56499 -1.07741 0
M  V30 6057 H 569.288 3.88054 -0.186128 0
M  V30 6058 H 570.96 3.67533 -2.78779 0
M  V30 6059 H 569.203 3.41384 -2.67656 0
M  V30 6060 H 569.874 5.00841 -2.32082 0
M  V30 6061 H 572.35 4.11556 -0.613285 0
M  V30 6062 H 571.226 5.47671 -0.367093 0
M  V30 6063 H 571.487 4.32196 0.930559 0
M  V30 6064 N 570.547 0.616602 1.45037 0
M  V30 6065 C 571.479 -0.135186 2.28801 0
M  V30 6066 C 572.492 -0.82303 1.40464 0
M  V30 6067 O 573.681 -0.686909 1.64754 0
M  V30 6068 C 570.781 -1.21292 3.16451 0
M  V30 6069 C 569.954 -0.61043 4.3312 0
M  V30 6070 C 569.013 -1.58022 5.01912 0
M  V30 6071 O 568.039 -1.10301 5.58411 0
M  V30 6072 N 569.241 -2.91464 5.02025 0
M  V30 6073 H 572.006 0.583612 2.93963 0
M  V30 6074 H 569.567 0.456723 1.55324 0
M  V30 6075 H 571.559 -1.86169 3.59337 0
M  V30 6076 H 570.129 -1.83412 2.53138 0
M  V30 6077 H 569.349 0.216638 3.93604 0
M  V30 6078 H 570.637 -0.188293 5.08451 0
M  V30 6079 H 570.035 -3.32829 4.57429 0
M  V30 6080 H 568.592 -3.51741 5.48745 0
M  V30 6081 N 572.025 -1.5352 0.356285 0
M  V30 6082 C 573.441 -1.59599 0.00485267 0
M  V30 6083 C 573.641 -1.37179 -1.47595 0
M  V30 6084 O 572.697 -1.17234 -2.23635 0
M  V30 6085 C 574.01 -2.97277 0.452454 0
M  V30 6086 C 575.558 -3.10357 0.405881 0
M  V30 6087 C 576.033 -4.50432 0.829148 0
M  V30 6088 N 577.524 -4.5652 0.783838 0
M  V30 6089 C 578.259 -5.63077 1.08315 0
M  V30 6090 N 577.755 -6.77429 1.45126 0
M  V30 6091 N 579.548 -5.53014 1.00655 0
M  V30 6092 H 571.699 -1.66346 1.32071 0
M  V30 6093 H 573.962 -0.77971 0.539218 0
M  V30 6094 H 573.668 -3.18792 1.48542 0
M  V30 6095 H 573.542 -3.76836 -0.165762 0
M  V30 6096 H 575.929 -2.88558 -0.617934 0
M  V30 6097 H 576.01 -2.32828 1.05947 0
M  V30 6098 H 575.654 -4.72968 1.85103 0
M  V30 6099 H 575.584 -5.26378 0.152906 0
M  V30 6100 H 578.075 -3.74408 0.512513 0
M  V30 6101 H 578.388 -7.54669 1.66415 0
M  V30 6102 H 576.733 -6.78844 1.48983 0
M  V30 6103 H 579.924 -4.62557 0.718215 0
M  V30 6104 H 580.097 -6.35964 1.24315 0
M  V30 6105 N 573.503 -0.0852151 -1.57369 0
M  V30 6106 C 574.728 0.592872 -1.98746 0
M  V30 6107 C 575.153 1.61538 -0.963689 0
M  V30 6108 O 574.511 1.81168 0.069071 0
M  V30 6109 C 574.559 1.22599 -3.39119 0
M  V30 6110 O 573.663 2.34185 -3.39457 0
M  V30 6111 H 573.004 0.151314 -0.646529 0
M  V30 6112 H 575.534 -0.163703 -2.03944 0
M  V30 6113 H 575.544 1.56965 -3.76598 0
M  V30 6114 H 574.219 0.476831 -4.13158 0
M  V30 6115 H 572.796 2.01512 -3.13763 0
M  V30 6116 N 574.981 1.5647 0.188427 0
M  V30 6117 C 576.258 1.71857 0.934058 0
M  V30 6118 C 576.638 0.641867 2.01105 0
M  V30 6119 O 575.986 -0.346098 2.25864 0
M  V30 6120 C 576.196 3.14431 1.5144 0
M  V30 6121 C 577.544 3.74869 1.99396 0
M  V30 6122 O 578.568 3.17601 1.61269 0
M  V30 6123 O 577.427 4.75387 2.69573 0
M  V30 6124 H 574.521 0.701186 0.438483 0
M  V30 6125 H 577.067 1.68768 0.177599 0
M  V30 6126 H 575.839 3.8427 0.738416 0
M  V30 6127 H 575.462 3.21775 2.33552 0
M  V30 6128 N 576.459 -0.456382 1.50847 0
M  V30 6129 C 577.689 -1.22848 1.66108 0
M  V30 6130 C 578.097 -1.85936 0.349897 0
M  V30 6131 O 577.44 -1.70664 -0.679665 0
M  V30 6132 C 577.502 -2.36722 2.70561 0
M  V30 6133 C 577.166 -1.94154 4.13707 0
M  V30 6134 C 578.163 -1.4557 4.99105 0
M  V30 6135 C 575.848 -2.02426 4.59705 0
M  V30 6136 C 577.842 -1.0582 6.28555 0
M  V30 6137 C 575.529 -1.62287 5.89157 0
M  V30 6138 C 576.527 -1.14064 6.73408 0
M  V30 6139 O 576.215 -0.744873 8.00442 0
M  V30 6140 H 575.947 -0.377105 0.561042 0
M  V30 6141 H 578.501 -0.549431 1.97915 0
M  V30 6142 H 576.731 -3.07844 2.34027 0
M  V30 6143 H 578.42 -2.98646 2.74892 0
M  V30 6144 H 579.186 -1.38589 4.64777 0
M  V30 6145 H 575.065 -2.38908 3.94264 0
M  V30 6146 H 578.609 -0.6811 6.94267 0
M  V30 6147 H 574.506 -1.68932 6.23003 0
M  V30 6148 H 575.274 -0.87242 8.13837 0
M  V30 6149 N 577.937 -1.40673 -0.710563 0
M  V30 6150 C 578.867 -1.44095 -1.83736 0
M  V30 6151 C 579.848 -0.301286 -1.67411 0
M  V30 6152 O 581.033 -0.510618 -1.87367 0
M  V30 6153 C 578.163 -1.30773 -3.21738 0
M  V30 6154 C 577.117 -2.42395 -3.52745 0
M  V30 6155 C 576.443 -2.14147 -4.89944 0
M  V30 6156 C 577.743 -3.84738 -3.53234 0
M  V30 6157 H 579.437 -2.38396 -1.81129 0
M  V30 6158 H 576.983 -1.14746 -0.870017 0
M  V30 6159 H 578.936 -1.31783 -4.00264 0
M  V30 6160 H 577.66 -0.329507 -3.24934 0
M  V30 6161 H 576.319 -2.40643 -2.76562 0
M  V30 6162 H 575.967 -1.14703 -4.89747 0
M  V30 6163 H 575.667 -2.88934 -5.11655 0
M  V30 6164 H 577.191 -2.16848 -5.70797 0
M  V30 6165 H 578.605 -3.88286 -4.2179 0
M  V30 6166 H 577.002 -4.59085 -3.86473 0
M  V30 6167 H 578.072 -4.13962 -2.52514 0
M  V30 6168 N 579.415 0.9433 -1.26252 0
M  V30 6169 C 580.363 2.06302 -1.07434 0
M  V30 6170 C 581.357 1.694 -0.00189471 0
M  V30 6171 O 582.563 1.79302 -0.158408 0
M  V30 6172 H 578.938 0.675453 -0.330556 0
M  V30 6173 H 580.909 2.19326 -2.02333 0
M  V30 6174 C 579.658 3.40125 -0.721817 0
M  V30 6175 H 578.981 3.68996 -1.5389 0
M  V30 6176 H 580.421 4.19295 -0.629922 0
M  V30 6177 C 578.88 3.31993 0.572902 0
M  V30 6178 O 579.41 3.67945 1.61182 0
M  V30 6179 N 577.616 2.85099 0.562748 0
M  V30 6180 H 577.163 2.5604 -0.283092 0
M  V30 6181 H 577.121 2.80041 1.42915 0
M  V30 6182 N 580.893 1.08022 1.14757 0
M  V30 6183 C 582.121 0.828847 1.89572 0
M  V30 6184 C 582.536 -0.618621 1.78377 0
M  V30 6185 O 581.893 -1.42482 1.1404 0
M  V30 6186 C 581.944 1.23677 3.39685 0
M  V30 6187 O 581.665 2.62746 3.50566 0
M  V30 6188 C 583.166 1.01569 4.31507 0
M  V30 6189 H 580.386 0.299196 0.600602 0
M  V30 6190 H 582.93 1.43846 1.45357 0
M  V30 6191 H 581.085 0.671347 3.81539 0
M  V30 6192 H 581.499 2.79573 4.43778 0
M  V30 6193 H 582.973 1.35055 5.35223 0
M  V30 6194 H 583.45 -0.0475433 4.39174 0
M  V30 6195 H 584.056 1.56636 3.95405 0
M  V30 6196 N 582.371 -1.3172 0.865308 0
M  V30 6197 C 583.618 -1.96876 0.473931 0
M  V30 6198 C 583.946 -1.68425 -0.972786 0
M  V30 6199 O 583.201 -0.970742 -1.69927 0
M  V30 6200 C 583.5 -3.5102 0.672283 0
M  V30 6201 C 583.166 -3.9948 2.09108 0
M  V30 6202 C 581.828 -4.12425 2.4791 0
M  V30 6203 C 584.18 -4.2503 3.0166 0
M  V30 6204 C 581.508 -4.48267 3.78515 0
M  V30 6205 C 583.86 -4.62335 4.31774 0
M  V30 6206 C 582.524 -4.73486 4.70497 0
M  V30 6207 H 581.794 -0.72042 0.173424 0
M  V30 6208 H 584.441 -1.56937 1.0974 0
M  V30 6209 H 582.746 -3.91785 -0.034356 0
M  V30 6210 H 584.443 -3.99475 0.349353 0
M  V30 6211 H 581.033 -3.89898 1.77981 0
M  V30 6212 H 585.217 -4.14529 2.7291 0
M  V30 6213 H 580.473 -4.55097 4.08285 0
M  V30 6214 H 584.647 -4.81058 5.03543 0
M  V30 6215 H 582.274 -5.01016 5.71741 0
M  V30 6216 N 583.85 -0.624285 -1.44708 0
M  V30 6217 C 584.76 0.0861083 -2.34442 0
M  V30 6218 C 585.776 0.84291 -1.5222 0
M  V30 6219 O 586.952 0.796723 -1.84971 0
M  V30 6220 C 584.017 1.05999 -3.30099 0
M  V30 6221 C 583.077 0.303316 -4.28227 0
M  V30 6222 C 582.311 1.23081 -5.19314 0
M  V30 6223 O 582.534 2.46929 -5.14181 0
M  V30 6224 O 581.468 0.71883 -5.97592 0
M  V30 6225 H 585.293 -0.651756 -2.96624 0
M  V30 6226 H 582.879 -0.384493 -1.44368 0
M  V30 6227 H 584.76 1.62046 -3.88997 0
M  V30 6228 H 583.436 1.77859 -2.70459 0
M  V30 6229 H 582.343 -0.300033 -3.72895 0
M  V30 6230 H 583.676 -0.375123 -4.90768 0
M  V30 6231 N 585.328 1.53329 -0.364422 0
M  V30 6232 C 586.575 2.01239 0.225634 0
M  V30 6233 C 586.903 1.25172 1.48869 0
M  V30 6234 O 586.158 0.333289 1.92841 0
M  V30 6235 C 586.457 3.52911 0.564661 0
M  V30 6236 C 586.123 4.46837 -0.603936 0
M  V30 6237 C 584.785 4.72234 -0.924585 0
M  V30 6238 C 587.137 5.02409 -1.38691 0
M  V30 6239 C 584.465 5.50454 -2.0302 0
M  V30 6240 C 586.817 5.81836 -2.48293 0
M  V30 6241 C 585.481 6.0552 -2.80894 0
M  V30 6242 H 584.751 0.736386 0.0825654 0
M  V30 6243 H 587.398 1.84948 -0.496645 0
M  V30 6244 H 585.703 3.67144 1.36794 0
M  V30 6245 H 587.4 3.87455 1.03344 0
M  V30 6246 H 583.99 4.27217 -0.343983 0
M  V30 6247 H 588.174 4.82735 -1.15243 0
M  V30 6248 H 583.43 5.67024 -2.28678 0
M  V30 6249 H 587.604 6.23905 -3.0938 0
M  V30 6250 H 585.231 6.65916 -3.66688 0
M  V30 6251 N 586.806 0.0935595 1.57322 0
M  V30 6252 C 587.739 -0.902505 2.09595 0
M  V30 6253 C 588.717 -1.27732 1.00615 0
M  V30 6254 O 589.901 -1.38283 1.28102 0
M  V30 6255 C 587.028 -2.20416 2.57166 0
M  V30 6256 C 586.074 -1.97932 3.7779 0
M  V30 6257 S 586.907 -1.21873 5.21447 0
M  V30 6258 C 588.063 -2.53273 5.72367 0
M  V30 6259 H 588.296 -0.457797 2.93754 0
M  V30 6260 H 585.829 -0.119694 1.53935 0
M  V30 6261 H 587.787 -2.95217 2.85232 0
M  V30 6262 H 586.448 -2.62008 1.73235 0
M  V30 6263 H 585.641 -2.94316 4.09138 0
M  V30 6264 H 585.243 -1.3126 3.5021 0
M  V30 6265 H 587.535 -3.49256 5.8054 0
M  V30 6266 H 588.478 -2.26505 6.70896 0
M  V30 6267 H 588.886 -2.61475 5.00291 0
M  V30 6268 N 588.284 -1.56567 -0.180126 0
M  V30 6269 C 589.561 -1.7235 -0.924931 0
M  V30 6270 C 589.941 -0.652523 -2.00762 0
M  V30 6271 O 589.289 0.334115 -2.26044 0
M  V30 6272 C 589.499 -3.1523 -1.49771 0
M  V30 6273 C 590.847 -3.75921 -1.97405 0
M  V30 6274 O 591.871 -3.18452 -1.59583 0
M  V30 6275 O 590.73 -4.7681 -2.67048 0
M  V30 6276 H 587.824 -0.703502 -0.434758 0
M  V30 6277 H 590.37 -1.6886 -0.168647 0
M  V30 6278 H 589.142 -3.84656 -0.718027 0
M  V30 6279 H 588.765 -3.23009 -2.31842 0
M  V30 6280 N 589.762 0.448376 -1.51087 0
M  V30 6281 C 590.709 1.54341 -1.71603 0
M  V30 6282 C 591.679 1.56463 -0.557536 0
M  V30 6283 O 592.864 1.73644 -0.79072 0
M  V30 6284 C 590.004 2.92148 -1.83695 0
M  V30 6285 C 589.117 2.99639 -3.11192 0
M  V30 6286 C 588.252 4.285 -3.13944 0
M  V30 6287 C 587.291 4.29819 -4.35801 0
M  V30 6288 N 586.428 5.50186 -4.36164 0
M  V30 6289 H 591.268 1.36151 -2.65079 0
M  V30 6290 H 588.805 0.661585 -1.31383 0
M  V30 6291 H 590.763 3.72093 -1.88687 0
M  V30 6292 H 589.393 3.0892 -0.936374 0
M  V30 6293 H 588.445 2.12425 -3.15562 0
M  V30 6294 H 589.757 2.96474 -4.01129 0
M  V30 6295 H 588.911 5.16811 -3.17791 0
M  V30 6296 H 587.65 4.34307 -2.21876 0
M  V30 6297 H 586.655 3.39902 -4.32142 0
M  V30 6298 H 587.88 4.25685 -5.29121 0
M  V30 6299 H 585.826 5.56735 -3.46961 0
M  V30 6300 H 585.743 5.48856 -5.19897 0
M  V30 6301 H 587.011 6.40559 -4.44189 0
M  V30 6302 N 591.24 1.41047 0.703093 0
M  V30 6303 C 592.17 1.45067 1.82969 0
M  V30 6304 C 593.151 0.31016 1.67248 0
M  V30 6305 O 594.336 0.520548 1.87093 0
M  V30 6306 C 591.466 1.32478 3.2104 0
M  V30 6307 C 590.42 2.44262 3.51454 0
M  V30 6308 C 589.746 2.16742 4.88801 0
M  V30 6309 C 591.046 3.86606 3.51189 0
M  V30 6310 H 592.74 2.39353 1.79863 0
M  V30 6311 H 590.286 1.15206 0.863919 0
M  V30 6312 H 592.239 1.33904 3.99559 0
M  V30 6313 H 590.963 0.346735 3.24754 0
M  V30 6314 H 589.622 2.42107 2.75282 0
M  V30 6315 H 589.27 1.17299 4.89132 0
M  V30 6316 H 588.97 2.91643 5.10116 0
M  V30 6317 H 590.494 2.19872 5.69639 0
M  V30 6318 H 591.908 3.90517 4.19725 0
M  V30 6319 H 590.305 4.61128 3.84033 0
M  V30 6320 H 591.375 4.15296 2.50315 0
M  V30 6321 N 592.718 -0.936591 1.26751 0
M  V30 6322 C 593.966 -1.67998 1.12343 0
M  V30 6323 C 594.287 -1.92137 -0.332938 0
M  V30 6324 O 593.557 -1.52132 -1.23421 0
M  V30 6325 H 592.137 -0.622609 0.412756 0
M  V30 6326 H 594.799 -1.12509 1.59147 0
M  V30 6327 H 593.895 -2.65185 1.64571 0
M  V30 6328 N 594.196 -1.08629 -1.14182 0
M  V30 6329 C 595.106 -0.730126 -2.22949 0
M  V30 6330 C 596.122 0.26436 -1.7198 0
M  V30 6331 O 597.298 0.107742 -2.01112 0
M  V30 6332 C 594.363 -0.147227 -3.46387 0
M  V30 6333 C 593.424 -1.19662 -4.12286 0
M  V30 6334 C 592.657 -0.641437 -5.29831 0
M  V30 6335 O 592.88 0.538351 -5.67854 0
M  V30 6336 O 591.814 -1.39257 -5.85569 0
M  V30 6337 H 595.64 -1.63753 -2.55771 0
M  V30 6338 H 593.225 -0.860118 -1.22157 0
M  V30 6339 H 595.107 0.174923 -4.21037 0
M  V30 6340 H 593.782 0.733304 -3.15285 0
M  V30 6341 H 592.689 -1.57133 -3.395 0
M  V30 6342 H 594.022 -2.0495 -4.475 0
M  V30 6343 N 595.674 1.31259 -0.872281 0
M  V30 6344 C 596.622 2.30404 -0.318897 0
M  V30 6345 C 597.616 1.5962 0.567267 0
M  V30 6346 O 598.822 1.74204 0.453111 0
M  V30 6347 H 595.197 0.747243 -0.0844474 0
M  V30 6348 H 597.168 2.74549 -1.16899 0
M  V30 6349 C 595.917 3.44608 0.462683 0
M  V30 6350 H 595.24 3.99248 -0.209936 0
M  V30 6351 H 596.68 4.1609 0.815187 0
M  V30 6352 C 595.139 2.93456 1.65485 0
M  V30 6353 O 595.669 2.92418 2.75417 0
M  V30 6354 N 593.875 2.49628 1.48776 0
M  V30 6355 H 593.422 2.50671 0.593452 0
M  V30 6356 H 593.38 2.15759 2.28682 0
M  V30 6357 N 597.152 0.631951 1.44375 0
M  V30 6358 C 598.082 -0.0593243 2.33425 0
M  V30 6359 C 599.063 -0.833964 1.48253 0
M  V30 6360 O 600.248 -0.799682 1.76971 0
M  V30 6361 C 597.378 -1.04096 3.31333 0
M  V30 6362 C 596.332 -0.377899 4.26328 0
M  V30 6363 C 595.658 -1.4695 5.14111 0
M  V30 6364 C 596.958 0.716371 5.17364 0
M  V30 6365 H 598.652 0.684287 2.91475 0
M  V30 6366 H 596.198 0.330518 1.40156 0
M  V30 6367 H 598.151 -1.53331 3.92514 0
M  V30 6368 H 596.875 -1.81547 2.71493 0
M  V30 6369 H 595.534 0.0938054 3.6648 0
M  V30 6370 H 595.182 -2.2349 4.50623 0
M  V30 6371 H 594.882 -1.03121 5.78481 0
M  V30 6372 H 596.406 -1.96363 5.78164 0
M  V30 6373 H 597.82 0.307089 5.72477 0
M  V30 6374 H 596.217 1.07784 5.90341 0
M  V30 6375 H 597.287 1.58316 4.58327 0
M  V30 6376 N 598.631 -1.53133 0.372548 0
M  V30 6377 C 599.578 -2.25951 -0.470631 0
M  V30 6378 C 600.548 -1.26895 -1.07176 0
M  V30 6379 O 601.733 -1.55691 -1.10294 0
M  V30 6380 C 598.873 -3.05726 -1.6008 0
M  V30 6381 C 597.986 -4.19684 -1.02416 0
M  V30 6382 C 597.121 -4.86888 -2.124 0
M  V30 6383 C 596.16 -5.92866 -1.52238 0
M  V30 6384 N 595.297 -6.53732 -2.56084 0
M  V30 6385 H 600.137 -2.97587 0.156816 0
M  V30 6386 H 597.674 -1.4683 0.0891571 0
M  V30 6387 H 599.632 -3.50258 -2.26661 0
M  V30 6388 H 598.262 -2.36331 -2.1988 0
M  V30 6389 H 597.314 -3.79588 -0.248426 0
M  V30 6390 H 598.626 -4.95821 -0.544366 0
M  V30 6391 H 597.78 -5.34638 -2.86787 0
M  V30 6392 H 596.519 -4.10239 -2.63734 0
M  V30 6393 H 595.524 -5.4447 -0.763685 0
M  V30 6394 H 596.749 -6.71439 -1.0172 0
M  V30 6395 H 594.695 -5.79932 -3.06618 0
M  V30 6396 H 594.612 -7.25429 -2.12811 0
M  V30 6397 H 595.88 -7.0613 -3.30152 0
M  V30 6398 N 600.109 -0.101901 -1.5727 0
M  V30 6399 C 601.358 0.559922 -1.93772 0
M  V30 6400 C 601.671 1.68913 -0.98629 0
M  V30 6401 O 602.877 2.41256 -1.24529 0
M  V30 6402 C 601.333 1.04739 -3.44322 0
M  V30 6403 C 600.941 -0.05243 -4.47969 0
M  V30 6404 C 602.685 1.68157 -3.89774 0
M  V30 6405 C 600.592 0.450781 -5.8968 0
M  V30 6406 H 599.522 0.212931 -0.723309 0
M  V30 6407 H 602.173 -0.179001 -1.82625 0
M  V30 6408 H 600.555 1.84021 -3.50645 0
M  V30 6409 H 601.729 -0.828157 -4.53297 0
M  V30 6410 H 600.044 -0.592202 -4.12167 0
M  V30 6411 H 602.641 2.0689 -4.93052 0
M  V30 6412 H 602.984 2.55338 -3.28798 0
M  V30 6413 H 603.517 0.954453 -3.8618 0
M  V30 6414 H 600.256 -0.38458 -6.54371 0
M  V30 6415 H 599.776 1.19336 -5.87809 0
M  V30 6416 H 601.455 0.917555 -6.40461 0
M  V30 6417 N 601.587 1.56661 0.17182 0
M  V30 6418 C 602.534 1.96371 1.21273 0
M  V30 6419 C 603.504 0.82756 1.44016 0
M  V30 6420 O 604.689 1.08764 1.56764 0
M  V30 6421 C 601.829 2.32838 2.54716 0
M  V30 6422 C 600.942 3.59628 2.39356 0
M  V30 6423 C 600.077 3.85311 3.65662 0
M  V30 6424 C 599.116 5.0545 3.45234 0
M  V30 6425 N 598.253 5.27268 4.63608 0
M  V30 6426 H 603.093 2.85106 0.86709 0
M  V30 6427 H 600.63 1.41073 0.416744 0
M  V30 6428 H 602.588 2.52004 3.3249 0
M  V30 6429 H 601.218 1.47214 2.87277 0
M  V30 6430 H 600.27 3.4838 1.52761 0
M  V30 6431 H 601.582 4.4756 2.20207 0
M  V30 6432 H 600.736 4.04841 4.51872 0
M  V30 6433 H 599.475 2.95753 3.8779 0
M  V30 6434 H 598.48 4.85819 2.5741 0
M  V30 6435 H 599.705 5.96538 3.24529 0
M  V30 6436 H 597.651 4.40662 4.85956 0
M  V30 6437 H 597.568 6.09422 4.4737 0
M  V30 6438 H 598.836 5.51277 5.51103 0
M  V30 6439 N 603.065 -0.440357 1.51323 0
M  V30 6440 C 603.995 -1.54174 1.75364 0
M  V30 6441 C 604.976 -1.59039 0.603375 0
M  V30 6442 O 606.161 -1.74815 0.845774 0
M  V30 6443 C 603.291 -2.92277 1.87593 0
M  V30 6444 C 602.245 -3.02274 3.03009 0
M  V30 6445 C 601.571 -4.42327 3.00418 0
M  V30 6446 C 602.871 -2.76634 4.43024 0
M  V30 6447 H 604.565 -1.34307 2.67585 0
M  V30 6448 H 602.111 -0.644678 1.28763 0
M  V30 6449 H 604.064 -3.69284 2.02995 0
M  V30 6450 H 602.788 -3.13369 0.920179 0
M  V30 6451 H 601.447 -2.27706 2.87307 0
M  V30 6452 H 601.095 -4.60382 2.02626 0
M  V30 6453 H 600.795 -4.49946 3.77918 0
M  V30 6454 H 602.319 -5.21312 3.17909 0
M  V30 6455 H 603.733 -3.43376 4.59093 0
M  V30 6456 H 602.13 -2.95666 5.22208 0
M  V30 6457 H 603.2 -1.72262 4.5327 0
M  V30 6458 N 604.543 -1.41418 -0.695603 0
M  V30 6459 C 605.506 -1.42988 -1.79129 0
M  V30 6460 C 606.506 -0.320514 -1.57573 0
M  V30 6461 O 607.696 -0.58039 -1.64247 0
M  V30 6462 C 604.828 -1.24122 -3.175 0
M  V30 6463 H 606.021 -2.40526 -1.7913 0
M  V30 6464 H 603.574 -1.2756 -0.903225 0
M  V30 6465 H 604.309 -0.274253 -3.23138 0
M  V30 6466 H 604.094 -2.045 -3.34547 0
M  V30 6467 H 605.584 -1.28056 -3.97481 0
M  V30 6468 N 606.021 0.929856 -1.27246 0
M  V30 6469 C 606.953 2.03434 -1.0558 0
M  V30 6470 C 607.966 1.62795 -0.0125762 0
M  V30 6471 O 609.155 1.76685 -0.2539 0
M  V30 6472 C 606.255 3.33915 -0.57912 0
M  V30 6473 C 605.428 4.03259 -1.69415 0
M  V30 6474 C 604.487 5.12014 -1.21357 0
M  V30 6475 O 603.513 5.36097 -1.91282 0
M  V30 6476 N 604.715 5.8046 -0.0680622 0
M  V30 6477 H 607.48 2.22583 -2.00691 0
M  V30 6478 H 605.041 1.1001 -1.18783 0
M  V30 6479 H 607.033 4.03978 -0.241563 0
M  V30 6480 H 605.603 3.11355 0.278703 0
M  V30 6481 H 604.823 3.26958 -2.20209 0
M  V30 6482 H 606.111 4.46337 -2.44255 0
M  V30 6483 H 605.509 5.63345 0.515626 0
M  V30 6484 H 604.066 6.51461 0.210332 0
M  V30 6485 N 607.499 1.09233 1.13605 0
M  V30 6486 C 608.462 0.733553 2.17144 0
M  V30 6487 C 609.462 -0.235873 1.59061 0
M  V30 6488 O 610.652 -0.0143167 1.74194 0
M  V30 6489 C 607.784 0.084471 3.40795 0
M  V30 6490 H 608.977 1.65049 2.50397 0
M  V30 6491 H 606.53 0.891264 1.28399 0
M  V30 6492 H 607.265 -0.843795 3.1313 0
M  V30 6493 H 607.05 0.781985 3.84223 0
M  V30 6494 H 608.54 -0.151216 4.17326 0
M  V30 6495 N 608.977 -1.30795 0.87923 0
M  V30 6496 C 609.924 -2.28282 0.339968 0
M  V30 6497 C 610.894 -1.56134 -0.566685 0
M  V30 6498 O 612.079 -1.84231 -0.496338 0
M  V30 6499 C 609.219 -3.42225 -0.444501 0
M  V30 6500 C 608.332 -4.29204 0.490717 0
M  V30 6501 C 607.467 -5.30302 -0.308784 0
M  V30 6502 C 606.506 -6.08929 0.622272 0
M  V30 6503 N 605.643 -7.01957 -0.14155 0
M  V30 6504 H 610.483 -2.73794 1.17647 0
M  V30 6505 H 608.02 -1.34682 0.591527 0
M  V30 6506 H 609.978 -4.07038 -0.915186 0
M  V30 6507 H 608.608 -2.97799 -1.24562 0
M  V30 6508 H 607.66 -3.6475 1.07988 0
M  V30 6509 H 608.972 -4.84045 1.20425 0
M  V30 6510 H 608.126 -6.00835 -0.841575 0
M  V30 6511 H 606.865 -4.7614 -1.05556 0
M  V30 6512 H 605.87 -5.37278 1.16674 0
M  V30 6513 H 607.095 -6.65178 1.36804 0
M  V30 6514 H 605.041 -6.50192 -0.870966 0
M  V30 6515 H 604.958 -7.54261 0.51246 0
M  V30 6516 H 606.226 -7.76741 -0.655271 0
M  V30 6517 N 610.455 -0.639598 -1.44038 0
M  V30 6518 C 611.385 0.0469443 -2.33453 0
M  V30 6519 C 612.366 0.82609 -1.48694 0
M  V30 6520 O 613.551 0.790285 -1.77393 0
M  V30 6521 C 610.681 1.02338 -3.3188 0
M  V30 6522 C 609.635 0.355284 -4.26523 0
M  V30 6523 C 608.961 1.44221 -5.14883 0
M  V30 6524 C 610.261 -0.743798 -5.16977 0
M  V30 6525 H 611.955 -0.699735 -2.91108 0
M  V30 6526 H 609.501 -0.337946 -1.39978 0
M  V30 6527 H 611.454 1.51247 -3.93322 0
M  V30 6528 H 610.178 1.80105 -2.72451 0
M  V30 6529 H 608.837 -0.113239 -3.66425 0
M  V30 6530 H 608.485 2.21097 -4.51802 0
M  V30 6531 H 608.185 1.00052 -5.79019 0
M  V30 6532 H 609.709 1.93295 -5.79197 0
M  V30 6533 H 611.123 -0.337444 -5.72306 0
M  V30 6534 H 609.52 -1.10914 -5.89761 0
M  V30 6535 H 610.59 -1.60745 -4.57481 0
M  V30 6536 O 611.972 1.52802 -0.522856 0
M  V30 6537 H 612.663 1.93697 -0.0110221 0
M  V30 END ATOM
M  V30 BEGIN BOND
M  V30 END BOND
M  V30 END CTAB
M  END
$$$$
