drugbank_target|P0C0H6 Inosine-5'-monophosphate dehydrogenase (DB04566; DB04862)
 OpenBabel12092120033D

  0  0  0     0  0            999 V3000
M  V30 BEGIN CTAB
M  V30 COUNTS 7444 7504 0 0 0
M  V30 BEGIN ATOM
M  V30 1 H -0.908 1.98254 -0.117106 0
M  V30 2 N 0 1.576 0 0
M  V30 3 C 0.933 2.03868 1.02534 0
M  V30 4 C 1.911 0.928543 1.3348 0
M  V30 5 O 3.095 1.19667 1.45644 0
M  V30 6 C 0.222 2.43627 2.35294 0
M  V30 7 C -0.732 3.65373 2.2001 0
M  V30 8 S 0.101 5.13292 1.52614 0
M  V30 9 C 1.257 5.56322 2.86805 0
M  V30 10 H 1.49 2.90518 0.631377 0
M  V30 11 H -0.977 1.52953 0.210867 0
M  V30 12 H 0.981 2.67203 3.11629 0
M  V30 13 H -0.358 1.57376 2.7183 0
M  V30 14 H -1.165 3.90944 3.18086 0
M  V30 15 H -1.563 3.418 1.51819 0
M  V30 16 H 0.729 5.58782 3.83104 0
M  V30 17 H 1.672 6.56266 2.65933 0
M  V30 18 H 2.08 4.83886 2.90714 0
M  V30 19 N 1.4781 -0.272755 1.55222 0
M  V30 20 C 2.7031 -1.02683 1.80197 0
M  V30 21 C 3.1281 -1.79142 0.573551 0
M  V30 22 O 2.4861 -1.74917 -0.476849 0
M  V30 23 C 2.5341 -1.9609 3.02624 0
M  V30 24 O 1.6381 -3.04863 2.77727 0
M  V30 25 H 0.9791 -0.293557 0.595584 0
M  V30 26 H 3.5091 -0.30159 2.02365 0
M  V30 27 H 3.5191 -2.38039 3.31363 0
M  V30 28 H 2.1941 -1.39851 3.91682 0
M  V30 29 H 0.7711 -2.67228 2.60084 0
M  V30 30 N 2.9562 -1.48159 -0.537278 0
M  V30 31 C 3.9042 -1.62573 -1.66352 0
M  V30 32 C 4.8982 -0.492366 -1.62087 0
M  V30 33 O 6.1042 -0.670847 -1.67032 0
M  V30 34 H 2.4792 -0.511992 -0.550789 0
M  V30 35 H 4.4502 -2.57176 -1.51337 0
M  V30 36 C 3.1992 -1.67583 -3.04649 0
M  V30 37 H 2.5222 -2.54151 -3.08622 0
M  V30 38 H 3.9622 -1.81713 -3.83088 0
M  V30 39 C 2.4212 -0.413039 -3.34358 0
M  V30 40 O 2.9512 0.477259 -3.98855 0
M  V30 41 N 1.1572 -0.286961 -2.8918 0
M  V30 42 H 0.7042 -1.01241 -2.36871 0
M  V30 43 H 0.6622 0.556963 -3.09427 0
M  V30 44 N 4.4343 0.785586 -1.36625 0
M  V30 45 C 5.6803 1.5452 -1.32269 0
M  V30 46 C 6.0353 1.92159 0.0962266 0
M  V30 47 O 5.3283 1.60158 1.05167 0
M  V30 48 C 5.5223 2.83007 -2.1827 0
M  V30 49 C 5.3513 2.57925 -3.68382 0
M  V30 50 C 4.1213 2.52752 -4.37544 0
M  V30 51 C 6.3193 2.26861 -4.61561 0
M  V30 52 N 4.3013 2.19608 -5.73276 0
M  V30 53 C 5.6723 2.03738 -5.85569 0
M  V30 54 C 7.7273 2.129 -4.50087 0
M  V30 55 C 6.4303 1.68065 -6.9939 0
M  V30 56 C 8.4563 1.78626 -5.63779 0
M  V30 57 C 7.8183 1.56353 -6.86828 0
M  V30 58 H 3.9173 0.566301 -0.539283 0
M  V30 59 H 6.5013 0.917736 -1.71714 0
M  V30 60 H 4.6723 3.43614 -1.81063 0
M  V30 61 H 6.4043 3.48775 -2.05275 0
M  V30 62 H 3.1593 2.6813 -3.90389 0
M  V30 63 H 3.5833 2.05771 -6.44971 0
M  V30 64 H 8.2253 2.28808 -3.55537 0
M  V30 65 H 5.9433 1.50895 -7.93887 0
M  V30 66 H 9.5293 1.68502 -5.56865 0
M  V30 67 H 8.4093 1.30223 -7.73312 0
M  V30 68 N 5.9124 1.20967 1.01018 0
M  V30 69 C 7.1894 0.93264 1.71934 0
M  V30 70 C 7.5694 -0.55692 2.03621 0
M  V30 71 O 6.9174 -1.52035 1.7058 0
M  V30 72 C 7.1274 1.81233 2.98254 0
M  V30 73 C 8.4754 2.05804 3.71389 0
M  V30 74 O 9.4994 1.78539 3.08225 0
M  V30 75 O 8.3584 2.51888 4.84989 0
M  V30 76 H 5.4524 0.349272 0.749625 0
M  V30 77 H 7.9984 1.31871 1.06808 0
M  V30 78 H 6.7704 2.82067 2.71208 0
M  V30 79 H 6.3934 1.42674 3.7112 0
M  V30 80 N 7.3905 -1.2043 1.01659 0
M  V30 81 C 8.6185 -1.93777 0.725132 0
M  V30 82 C 9.0335 -1.74772 -0.714166 0
M  V30 83 O 8.3905 -1.06169 -1.4844 0
M  V30 84 C 8.4415 -3.45876 1.05129 0
M  V30 85 O 8.1625 -3.6426 2.43406 0
M  V30 86 C 9.6635 -4.36368 0.780891 0
M  V30 87 H 6.8835 -0.615901 0.266284 0
M  V30 88 H 9.4275 -1.52922 1.35776 0
M  V30 89 H 7.5825 -3.8461 0.464065 0
M  V30 90 H 7.9965 -4.58246 2.55169 0
M  V30 91 H 9.4705 -5.41743 1.05918 0
M  V30 92 H 9.9475 -4.38275 -0.284937 0
M  V30 93 H 10.5535 -4.03296 1.35027 0
M  V30 94 N 8.8686 -0.792821 -1.36206 0
M  V30 95 C 9.8156 -0.191653 -2.30003 0
M  V30 96 C 10.7856 0.666453 -1.52143 0
M  V30 97 O 11.9706 0.61442 -1.80636 0
M  V30 98 C 9.1106 0.664848 -3.38635 0
M  V30 99 C 8.2236 -0.212175 -4.31479 0
M  V30 100 C 7.3586 0.651022 -5.27196 0
M  V30 101 C 6.3976 -0.227247 -6.11678 0
M  V30 102 N 5.5346 0.595127 -6.99573 0
M  V30 103 H 10.3746 -0.996978 -2.80828 0
M  V30 104 H 7.9116 -0.503206 -1.38225 0
M  V30 105 H 9.8696 1.17645 -4.00269 0
M  V30 106 H 8.4996 1.43557 -2.89122 0
M  V30 107 H 7.5516 -0.841777 -3.70969 0
M  V30 108 H 8.8636 -0.888751 -4.90818 0
M  V30 109 H 8.0176 1.2283 -5.94136 0
M  V30 110 H 6.7566 1.36121 -4.68319 0
M  V30 111 H 5.7616 -0.816904 -5.43697 0
M  V30 112 H 6.9866 -0.93509 -6.72631 0
M  V30 113 H 4.9326 1.28955 -6.432 0
M  V30 114 H 4.8496 -0.0236952 -7.55996 0
M  V30 115 H 6.1176 1.15613 -7.70879 0
M  V30 116 N 10.3467 1.47872 -0.545128 0
M  V30 117 C 11.5937 2.02493 -0.0165858 0
M  V30 118 C 11.9217 1.42073 1.32836 0
M  V30 119 O 11.1767 0.561459 1.87473 0
M  V30 120 C 11.4757 3.57131 0.13867 0
M  V30 121 C 11.1417 4.36411 -1.13384 0
M  V30 122 C 9.8037 4.57792 -1.48256 0
M  V30 123 C 12.1557 4.82223 -1.97764 0
M  V30 124 C 9.4837 5.22233 -2.67376 0
M  V30 125 C 11.8357 5.47977 -3.16076 0
M  V30 126 C 10.4997 5.67593 -3.51275 0
M  V30 127 H 9.7697 0.740975 -0.00606918 0
M  V30 128 H 12.4167 1.77683 -0.714207 0
M  V30 129 H 10.7217 3.80865 0.919172 0
M  V30 130 H 12.4187 3.97031 0.562782 0
M  V30 131 H 9.0087 4.2004 -0.852297 0
M  V30 132 H 13.1927 4.65493 -1.72132 0
M  V30 133 H 8.4487 5.35616 -2.94831 0
M  V30 134 H 12.6227 5.8244 -3.81755 0
M  V30 135 H 10.2497 6.17298 -4.43675 0
M  V30 136 N 11.8248 0.280983 1.55075 0
M  V30 137 C 12.7548 -0.597469 2.25727 0
M  V30 138 C 13.7358 -1.15417 1.24952 0
M  V30 139 O 14.9208 -1.18722 1.53684 0
M  V30 140 C 12.0508 -1.7789 2.98283 0
M  V30 141 C 11.0048 -1.35347 4.06036 0
M  V30 142 C 10.3308 -2.61846 4.66198 0
M  V30 143 C 11.6308 -0.499354 5.19907 0
M  V30 144 H 13.3248 -0.00824265 2.99399 0
M  V30 145 H 10.8708 -0.0025244 1.44 0
M  V30 146 H 12.8238 -2.39937 3.46422 0
M  V30 147 H 11.5478 -2.39405 2.22155 0
M  V30 148 H 10.2068 -0.756156 3.58717 0
M  V30 149 H 9.8548 -3.21632 3.86732 0
M  V30 150 H 9.5548 -2.3409 5.38958 0
M  V30 151 H 11.0788 -3.24732 5.1709 0
M  V30 152 H 12.4928 -1.02498 5.64063 0
M  V30 153 H 10.8898 -0.316424 5.99265 0
M  V30 154 H 11.9598 0.480459 4.82514 0
M  V30 155 N 13.3029 -1.57598 0.00835791 0
M  V30 156 C 14.2499 -2.08945 -0.980346 0
M  V30 157 C 15.2199 -0.986738 -1.33614 0
M  V30 158 O 16.4049 -1.25968 -1.43306 0
M  V30 159 C 13.5449 -2.60425 -2.26435 0
M  V30 160 C 12.6579 -3.84628 -1.96685 0
M  V30 161 C 11.7929 -4.24579 -3.19228 0
M  V30 162 C 10.8319 -5.41596 -2.85202 0
M  V30 163 N 9.9689 -5.768 -4.00307 0
M  V30 164 H 14.8089 -2.93148 -0.535551 0
M  V30 165 H 12.3459 -1.44912 -0.252776 0
M  V30 166 H 14.3039 -2.88354 -3.01509 0
M  V30 167 H 12.9339 -1.79083 -2.68568 0
M  V30 168 H 11.9859 -3.63556 -1.11942 0
M  V30 169 H 13.2979 -4.69796 -1.67611 0
M  V30 170 H 12.4519 -4.53834 -4.02641 0
M  V30 171 H 11.1909 -3.38137 -3.51447 0
M  V30 172 H 10.1959 -5.12056 -2.00198 0
M  V30 173 H 11.4209 -6.29721 -2.54222 0
M  V30 174 H 9.3669 -4.93316 -4.32407 0
M  V30 175 H 9.2839 -6.5656 -3.74786 0
M  V30 176 H 10.5519 -6.10652 -4.84484 0
M  V30 177 N 14.781 0.264519 -1.55364 0
M  V30 178 C 15.728 1.32717 -1.88825 0
M  V30 179 C 16.698 1.48675 -0.740605 0
M  V30 180 O 17.883 1.62945 -0.992657 0
M  V30 181 C 15.023 2.68089 -2.17307 0
M  V30 182 C 14.136 2.60284 -3.44785 0
M  V30 183 C 13.271 3.87892 -3.62924 0
M  V30 184 C 12.31 3.74631 -4.84064 0
M  V30 185 N 11.447 4.94092 -4.98816 0
M  V30 186 H 16.287 1.03481 -2.79456 0
M  V30 187 H 13.824 0.499757 -1.3835 0
M  V30 188 H 15.782 3.46864 -2.31821 0
M  V30 189 H 14.412 2.95509 -1.299 0
M  V30 190 H 13.464 1.73173 -3.38697 0
M  V30 191 H 14.776 2.46388 -4.33698 0
M  V30 192 H 13.93 4.75109 -3.77302 0
M  V30 193 H 12.669 4.04664 -2.7221 0
M  V30 194 H 11.674 2.85797 -4.69681 0
M  V30 195 H 12.899 3.5937 -5.76221 0
M  V30 196 H 10.845 5.11259 -4.11036 0
M  V30 197 H 10.762 4.8276 -5.81789 0
M  V30 198 H 12.03 5.82857 -5.17588 0
M  V30 199 N 16.2591 1.48442 0.529413 0
M  V30 200 C 17.5071 1.56179 1.28267 0
M  V30 201 C 17.8281 0.237721 1.93546 0
M  V30 202 O 17.0981 -0.740779 1.81354 0
M  V30 203 H 15.6781 0.575367 0.476405 0
M  V30 204 H 18.3401 1.84909 0.61602 0
M  V30 205 H 17.4361 2.34312 2.06165 0
M  V30 206 N 17.7372 -0.778329 1.37039 0
M  V30 207 C 18.9672 -1.56507 1.34868 0
M  V30 208 C 19.3752 -1.89072 -0.0694802 0
M  V30 209 O 18.7182 -1.51434 -1.03987 0
M  V30 210 C 18.7802 -2.90641 2.11585 0
M  V30 211 C 18.4442 -2.80746 3.60598 0
M  V30 212 C 19.4412 -2.52226 4.54618 0
M  V30 213 C 17.1262 -2.98974 4.03633 0
M  V30 214 C 19.1202 -2.42054 5.89651 0
M  V30 215 C 16.8072 -2.88423 5.38754 0
M  V30 216 C 17.8052 -2.60002 6.31576 0
M  V30 217 O 17.4932 -2.49465 7.64214 0
M  V30 218 H 17.2252 -0.491723 0.463879 0
M  V30 219 H 19.7792 -0.973053 1.80889 0
M  V30 220 H 18.0092 -3.51936 1.60243 0
M  V30 221 H 19.6982 -3.51992 2.0213 0
M  V30 222 H 20.4642 -2.37835 4.22681 0
M  V30 223 H 16.3432 -3.20099 3.31749 0
M  V30 224 H 19.8872 -2.19791 6.62071 0
M  V30 225 H 15.7842 -3.0238 5.70295 0
M  V30 226 H 16.5522 -2.64864 7.74461 0
M  V30 227 N 19.2153 -1.21501 -1.00376 0
M  V30 228 C 20.4433 -1.059 -1.77744 0
M  V30 229 C 20.8583 0.391125 -1.84704 0
M  V30 230 O 20.2153 1.27133 -1.30933 0
M  V30 231 C 20.2663 -1.65111 -3.21591 0
M  V30 232 O 19.9873 -3.0445 -3.15027 0
M  V30 233 C 21.4883 -1.54637 -4.15454 0
M  V30 234 H 18.7083 -0.371825 -0.558558 0
M  V30 235 H 21.2523 -1.60865 -1.26264 0
M  V30 236 H 19.4073 -1.14235 -3.70175 0
M  V30 237 H 19.8213 -3.3278 -4.0541 0
M  V30 238 H 21.2953 -2.00808 -5.14179 0
M  V30 239 H 21.7723 -0.501022 -4.36333 0
M  V30 240 H 22.3783 -2.04767 -3.72761 0
M  V30 241 N 20.6934 1.19889 -1.02296 0
M  V30 242 C 21.9404 1.8942 -0.715972 0
M  V30 243 C 22.2684 1.79251 0.754944 0
M  V30 244 O 21.5234 1.17526 1.56481 0
M  V30 245 C 21.8224 3.39883 -1.10518 0
M  V30 246 C 21.4884 3.70254 -2.57337 0
M  V30 247 C 20.1504 3.78254 -2.97452 0
M  V30 248 C 22.5024 3.84052 -3.52354 0
M  V30 249 C 19.8304 3.97514 -4.31509 0
M  V30 250 C 22.1824 4.04824 -4.86108 0
M  V30 251 C 20.8464 4.11054 -5.25919 0
M  V30 252 H 20.1164 0.693138 -0.261993 0
M  V30 253 H 22.7634 1.42012 -1.28472 0
M  V30 254 H 21.0684 3.8915 -0.454953 0
M  V30 255 H 22.7654 3.9199 -0.845261 0
M  V30 256 H 19.3554 3.64632 -2.25258 0
M  V30 257 H 23.5394 3.77221 -3.22518 0
M  V30 258 H 18.7954 4.00574 -4.61898 0
M  V30 259 H 22.9694 4.14442 -5.59653 0
M  V30 260 H 20.5964 4.2573 -6.29808 0
M  V30 261 N 22.1715 0.800033 1.35784 0
M  V30 262 C 23.4485 0.30088 1.93272 0
M  V30 263 C 23.8285 -1.20857 1.73081 0
M  V30 264 O 23.1765 -2.00502 1.09596 0
M  V30 265 C 23.3865 0.70511 3.41803 0
M  V30 266 C 24.7345 0.690871 4.18942 0
M  V30 267 O 25.7585 0.646244 3.50289 0
M  V30 268 O 24.6175 0.74332 5.41421 0
M  V30 269 H 21.7115 0.0771605 0.823393 0
M  V30 270 H 24.2575 0.88329 1.449 0
M  V30 271 H 23.0295 1.74571 3.50201 0
M  V30 272 H 22.6525 0.0971541 3.97481 0
M  V30 273 N 23.6496 -1.47581 0.552962 0
M  V30 274 C 24.9266 -1.95563 -0.0381515 0
M  V30 275 C 25.3066 -1.49552 -1.48988 0
M  V30 276 O 24.6546 -0.732414 -2.16444 0
M  V30 277 C 24.8646 -3.48848 0.102919 0
M  V30 278 C 26.2126 -4.24577 -0.0446082 0
M  V30 279 O 27.2366 -3.56187 0.0302548 0
M  V30 280 O 26.0956 -5.46116 -0.204923 0
M  V30 281 H 23.1896 -0.824321 -0.0665067 0
M  V30 282 H 25.7356 -1.58001 0.619186 0
M  V30 283 H 24.5076 -3.75129 1.11328 0
M  V30 284 H 24.1306 -3.93165 -0.592224 0
M  V30 285 N 25.1277 -0.289203 -1.54924 0
M  V30 286 C 26.3737 0.323998 -2.00195 0
M  V30 287 C 26.7067 1.54441 -1.17735 0
M  V30 288 O 25.9817 1.92875 -0.250878 0
M  V30 289 C 26.2647 0.692276 -3.53383 0
M  V30 290 C 26.1177 -0.536457 -4.46589 0
M  V30 291 C 27.4367 1.52335 -4.12895 0
M  V30 292 H 24.5557 0.116289 -0.727768 0
M  V30 293 H 27.1977 -0.398954 -1.85764 0
M  V30 294 H 25.3477 1.30822 -3.65811 0
M  V30 295 H 27.0197 -1.17499 -4.46085 0
M  V30 296 H 25.2627 -1.17192 -4.1767 0
M  V30 297 H 25.9337 -0.234806 -5.515 0
M  V30 298 H 28.4097 1.00302 -4.0383 0
M  V30 299 H 27.2857 1.74982 -5.20262 0
M  V30 300 H 27.5467 2.50886 -3.64018 0
M  V30 301 N 26.6058 1.57591 -0.0167156 0
M  V30 302 C 27.5358 2.12496 0.967858 0
M  V30 303 C 28.5168 1.03807 1.34752 0
M  V30 304 O 29.7018 1.31577 1.42833 0
M  V30 305 C 26.8318 2.64194 2.25431 0
M  V30 306 C 25.7858 3.77559 2.01576 0
M  V30 307 C 25.1118 4.15636 3.36379 0
M  V30 308 C 26.4118 5.04151 1.36489 0
M  V30 309 H 28.1058 2.95013 0.510643 0
M  V30 310 H 25.6518 1.41915 0.244181 0
M  V30 311 H 27.6048 3.01236 2.94678 0
M  V30 312 H 26.3288 1.78821 2.73296 0
M  V30 313 H 24.9878 3.40937 1.34751 0
M  V30 314 H 24.6358 3.27263 3.81979 0
M  V30 315 H 24.3358 4.92022 3.21229 0
M  V30 316 H 25.8598 4.5525 4.06915 0
M  V30 317 H 27.2738 5.38857 1.95718 0
M  V30 318 H 25.6708 5.85453 1.31776 0
M  V30 319 H 26.7408 4.83733 0.336219 0
M  V30 320 N 28.0839 -0.256276 1.55502 0
M  V30 321 C 29.0139 -1.32102 1.92539 0
M  V30 322 C 29.9949 -1.50684 0.789194 0
M  V30 323 O 31.1799 -1.63449 1.04872 0
M  V30 324 C 28.3099 -2.67752 2.21192 0
M  V30 325 C 27.2639 -2.63878 3.36975 0
M  V30 326 C 26.5899 -4.03236 3.51147 0
M  V30 327 C 27.8899 -2.21682 4.72921 0
M  V30 328 H 29.5839 -1.01351 2.81724 0
M  V30 329 H 27.1299 -0.486105 1.35547 0
M  V30 330 H 29.0829 -3.42365 2.45691 0
M  V30 331 H 27.8069 -3.0012 1.28824 0
M  V30 332 H 26.4659 -1.91722 3.12471 0
M  V30 333 H 26.1139 -4.32854 2.56216 0
M  V30 334 H 25.8139 -4.01535 4.29003 0
M  V30 335 H 27.3379 -4.79563 3.77957 0
M  V30 336 H 28.7519 -2.86023 4.96854 0
M  V30 337 H 27.1489 -2.3111 5.53812 0
M  V30 338 H 28.2189 -1.16833 4.70615 0
M  V30 339 N 29.562 -1.4872 -0.521534 0
M  V30 340 C 30.811 -1.56419 -1.27341 0
M  V30 341 C 31.124 -0.246805 -1.94037 0
M  V30 342 O 32.33 -0.202122 -2.70747 0
M  V30 343 C 30.786 -2.75896 -2.31105 0
M  V30 344 C 30.394 -4.14311 -1.70441 0
M  V30 345 C 32.138 -2.92913 -3.07249 0
M  V30 346 C 30.045 -5.25038 -2.72194 0
M  V30 347 H 28.975 -0.582344 -0.478949 0
M  V30 348 H 31.626 -1.75071 -0.549779 0
M  V30 349 H 30.008 -2.50697 -3.06541 0
M  V30 350 H 31.182 -4.49564 -1.01136 0
M  V30 351 H 29.497 -4.02482 -1.06759 0
M  V30 352 H 32.094 -3.72805 -3.83302 0
M  V30 353 H 32.437 -2.02689 -3.63625 0
M  V30 354 H 32.97 -3.18054 -2.38928 0
M  V30 355 H 29.709 -6.17255 -2.20627 0
M  V30 356 H 29.229 -4.94263 -3.39801 0
M  V30 357 H 30.908 -5.53508 -3.35019 0
M  V30 358 N 31.0401 0.771051 -1.3745 0
M  V30 359 C 32.4511 1.34737 -1.29239 0
M  V30 360 C 32.8021 1.96109 0.0596908 0
M  V30 361 O 31.9271 1.93865 0.961534 0
M  V30 362 C 32.5221 2.44973 -2.34037 0
M  V30 363 C 31.0811 2.98372 -2.29458 0
M  V30 364 C 30.2281 1.71595 -2.17831 0
M  V30 365 H 33.1791 0.571256 -1.48062 0
M  V30 366 H 33.2001 3.24471 -1.98744 0
M  V30 367 H 32.7121 2.00276 -3.32432 0
M  V30 368 H 30.8131 3.47443 -1.34589 0
M  V30 369 H 30.9261 3.53939 -3.229 0
M  V30 370 H 29.2901 1.94547 -1.64388 0
M  V30 371 H 30.0731 1.29001 -3.18141 0
M  V30 372 N 32.5182 1.22032 0.997298 0
M  V30 373 C 33.4812 0.987909 2.06816 0
M  V30 374 C 34.4812 -0.0440084 1.6074 0
M  V30 375 O 35.6712 0.194053 1.73116 0
M  V30 376 C 32.8032 0.49132 3.37341 0
M  V30 377 H 33.9962 1.93803 2.28868 0
M  V30 378 H 31.5492 1.03838 1.16822 0
M  V30 379 H 32.2842 -0.463364 3.20973 0
M  V30 380 H 32.0692 1.23575 3.72118 0
M  V30 381 H 33.5592 0.348824 4.16141 0
M  V30 382 N 33.9963 -1.19345 1.0293 0
M  V30 383 C 34.9063 -2.26245 0.620515 0
M  V30 384 C 35.9223 -1.70486 -0.347928 0
M  V30 385 O 37.0983 -2.00347 -0.205704 0
M  V30 386 C 34.1633 -3.46693 -0.0218957 0
M  V30 387 C 33.2243 -4.17632 0.994102 0
M  V30 388 C 32.4573 -5.32329 0.382253 0
M  V30 389 O 32.6803 -5.64552 -0.814676 0
M  V30 390 O 31.6143 -5.91664 1.10531 0
M  V30 391 H 35.4403 -2.63453 1.51083 0
M  V30 392 H 33.0253 -1.26207 0.799513 0
M  V30 393 H 34.9073 -4.19683 -0.380072 0
M  V30 394 H 33.5823 -3.11333 -0.886209 0
M  V30 395 H 32.4893 -3.4676 1.40387 0
M  V30 396 H 33.8223 -4.56964 1.8288 0
M  V30 397 N 35.4744 -0.807222 -1.35358 0
M  V30 398 C 36.6994 -0.399309 -2.0352 0
M  V30 399 C 37.1244 0.981986 -1.60433 0
M  V30 400 O 36.4824 1.63601 -0.781299 0
M  V30 401 C 36.5304 -0.491552 -3.57234 0
M  V30 402 O 35.6344 0.494754 -4.09421 0
M  V30 403 H 34.9754 -0.166682 -0.642739 0
M  V30 404 H 37.5054 -1.09328 -1.72941 0
M  V30 405 H 37.5154 -0.361588 -4.06395 0
M  V30 406 H 36.1904 -1.49907 -3.87944 0
M  V30 407 H 34.7674 0.324977 -3.71481 0
M  V30 408 N 36.9525 1.47285 -0.560781 0
M  V30 409 C 37.9025 2.27073 0.205384 0
M  V30 410 C 38.8865 1.34569 0.882044 0
M  V30 411 O 40.0785 1.58899 0.77976 0
M  V30 412 C 37.2075 3.20414 1.23247 0
M  V30 413 C 36.2935 4.20399 0.559041 0
M  V30 414 N 36.6845 5.04423 -0.372927 0
M  V30 415 C 34.9825 4.38536 0.812522 0
M  V30 416 C 35.6835 5.76655 -0.764446 0
M  V30 417 N 34.6595 5.43471 -0.11848 0
M  V30 418 H 38.4615 2.89422 -0.511117 0
M  V30 419 H 35.9755 1.57868 -0.380975 0
M  V30 420 H 37.9725 3.76262 1.79534 0
M  V30 421 H 36.6325 2.59623 1.95002 0
M  V30 422 H 37.6435 5.1248 -0.747287 0
M  V30 423 H 34.3205 3.88913 1.51832 0
M  V30 424 H 35.7105 6.54238 -1.53045 0
M  V30 425 N 38.4306 0.297415 1.54768 0
M  V30 426 C 39.6766 -0.313376 2.00364 0
M  V30 427 C 40.0096 -1.53815 1.18553 0
M  V30 428 O 39.2846 -1.92739 0.261103 0
M  V30 429 C 39.5676 -0.673525 3.53745 0
M  V30 430 C 39.4206 0.560133 4.46299 0
M  V30 431 C 40.7396 -1.50143 4.13697 0
M  V30 432 H 37.8586 -0.112428 0.728374 0
M  V30 433 H 40.5006 0.4088 1.8555 0
M  V30 434 H 38.6506 -1.28881 3.665 0
M  V30 435 H 40.3226 1.19863 4.45455 0
M  V30 436 H 38.5656 1.19405 4.17043 0
M  V30 437 H 39.2366 0.26405 5.51368 0
M  V30 438 H 41.7126 -0.981588 4.04356 0
M  V30 439 H 40.5886 -1.72221 5.21182 0
M  V30 440 H 40.8496 -2.48952 3.65343 0
M  V30 441 N 39.9087 -1.5758 0.0250728 0
M  V30 442 C 40.8387 -2.13007 -0.956575 0
M  V30 443 C 41.8197 -1.0452 -1.342 0
M  V30 444 O 43.0047 -1.32332 -1.42133 0
M  V30 445 C 40.1347 -2.65386 -2.24026 0
M  V30 446 C 39.0887 -3.78623 -1.99571 0
M  V30 447 C 38.4147 -4.17414 -3.3417 0
M  V30 448 C 39.7147 -5.04867 -1.33814 0
M  V30 449 H 41.4087 -2.9528 -0.494991 0
M  V30 450 H 38.9547 -1.42042 -0.236651 0
M  V30 451 H 40.9077 -3.02794 -2.93076 0
M  V30 452 H 39.6317 -1.80268 -2.72343 0
M  V30 453 H 38.2907 -3.41646 -1.32941 0
M  V30 454 H 37.9387 -3.29284 -3.80238 0
M  V30 455 H 37.6387 -4.93719 -3.18615 0
M  V30 456 H 39.1627 -4.57402 -4.04495 0
M  V30 457 H 40.5767 -5.39888 -1.92857 0
M  V30 458 H 38.9737 -5.86144 -1.28669 0
M  V30 459 H 40.0437 -4.83904 -0.310561 0
M  V30 460 N 41.3868 0.248026 -1.55636 0
M  V30 461 C 42.7978 0.817177 -1.67866 0
M  V30 462 C 43.1488 1.86069 -0.622322 0
M  V30 463 O 42.2738 2.15157 0.231618 0
M  V30 464 C 42.8688 1.489 -3.04326 0
M  V30 465 C 41.4278 2.00587 -3.185 0
M  V30 466 C 40.5748 0.856573 -2.63739 0
M  V30 467 H 43.5258 0.0238579 -1.58682 0
M  V30 468 H 43.5468 2.35698 -2.98708 0
M  V30 469 H 43.0588 0.729279 -3.81186 0
M  V30 470 H 41.1598 2.79443 -2.4646 0
M  V30 471 H 41.2728 2.20402 -4.25393 0
M  V30 472 H 39.6368 1.25678 -2.21534 0
M  V30 473 H 40.4198 0.109953 -3.43124 0
M  V30 474 N 42.8649 1.48995 0.513639 0
M  V30 475 C 43.8129 1.65199 1.63744 0
M  V30 476 C 44.8069 0.51809 1.61283 0
M  V30 477 O 46.0129 0.697335 1.65943 0
M  V30 478 H 42.3879 0.52069 0.542574 0
M  V30 479 H 44.3589 2.59552 1.47226 0
M  V30 480 C 43.1079 1.72409 3.01945 0
M  V30 481 H 42.4309 2.59029 3.04539 0
M  V30 482 H 43.8709 1.87785 3.80148 0
M  V30 483 C 42.3299 0.46618 3.33659 0
M  V30 484 O 42.8599 -0.413744 3.99564 0
M  V30 485 N 41.0659 0.332931 2.88687 0
M  V30 486 H 40.6129 1.04996 2.35231 0
M  V30 487 H 40.5709 -0.507665 3.10274 0
M  V30 488 N 44.343 -0.763751 1.37857 0
M  V30 489 C 45.253 -1.90817 1.36478 0
M  V30 490 C 46.269 -1.71997 0.263248 0
M  V30 491 O 47.445 -1.95095 0.499979 0
M  V30 492 C 44.51 -3.2605 1.17864 0
M  V30 493 C 43.571 -3.57467 2.3773 0
M  V30 494 C 42.804 -4.86249 2.19995 0
M  V30 495 O 43.027 -5.57884 1.18836 0
M  V30 496 O 41.961 -5.16911 3.08361 0
M  V30 497 H 45.787 -1.94933 2.32884 0
M  V30 498 H 43.372 -0.907619 1.1867 0
M  V30 499 H 45.254 -4.06924 1.09504 0
M  V30 500 H 43.929 -3.22769 0.245372 0
M  V30 501 H 42.836 -2.76796 2.51664 0
M  V30 502 H 44.169 -3.655 3.29652 0
M  V30 503 N 45.8211 -1.22559 -0.990812 0
M  V30 504 C 47.0671 -1.05297 -1.73322 0
M  V30 505 C 47.4001 0.410655 -1.89808 0
M  V30 506 O 46.6751 1.30439 -1.44277 0
M  V30 507 C 46.9581 -1.76713 -3.13759 0
M  V30 508 C 46.8111 -3.30684 -3.04907 0
M  V30 509 C 48.1301 -1.52121 -4.12974 0
M  V30 510 H 45.2491 -0.38392 -0.629106 0
M  V30 511 H 47.8911 -1.50926 -1.15418 0
M  V30 512 H 46.0411 -1.37924 -3.63193 0
M  V30 513 H 47.7131 -3.7893 -2.63077 0
M  V30 514 H 45.9561 -3.60253 -2.41661 0
M  V30 515 H 46.6271 -3.75833 -4.04294 0
M  V30 516 H 49.1031 -1.85819 -3.72304 0
M  V30 517 H 47.9791 -2.04582 -5.0935 0
M  V30 518 H 48.2401 -0.454257 -4.3976 0
M  V30 519 N 47.2992 1.18797 -1.03562 0
M  V30 520 C 48.5762 1.84469 -0.650434 0
M  V30 521 C 48.9562 1.92319 0.870433 0
M  V30 522 O 48.3042 1.44528 1.76986 0
M  V30 523 C 48.5142 3.2306 -1.32036 0
M  V30 524 C 49.8622 3.9915 -1.44792 0
M  V30 525 O 50.8862 3.32481 -1.27806 0
M  V30 526 O 49.7452 5.18587 -1.72423 0
M  V30 527 H 46.8392 0.795251 -0.226946 0
M  V30 528 H 49.3852 1.26231 -1.13419 0
M  V30 529 H 48.1572 3.1222 -2.3587 0
M  V30 530 H 47.7802 3.88949 -0.8249 0
M  V30 531 N 48.7773 0.814389 1.34928 0
M  V30 532 C 49.7073 0.244827 2.32213 0
M  V30 533 C 50.6883 -0.634024 1.57842 0
M  V30 534 O 51.8733 -0.562676 1.8587 0
M  V30 535 C 49.0033 -0.601106 3.42058 0
M  V30 536 C 47.9573 0.179896 4.27622 0
M  V30 537 C 47.2833 -0.788237 5.28858 0
M  V30 538 C 48.5833 1.38329 5.03649 0
M  V30 539 H 50.2773 1.05763 2.80097 0
M  V30 540 H 47.8233 0.510029 1.34665 0
M  V30 541 H 49.7763 -1.00968 4.09125 0
M  V30 542 H 48.5003 -1.44688 2.92802 0
M  V30 543 H 47.1593 0.569739 3.62146 0
M  V30 544 H 46.8073 -1.62973 4.75866 0
M  V30 545 H 46.5073 -0.269942 5.8698 0
M  V30 546 H 48.0313 -1.19485 5.98795 0
M  V30 547 H 49.4453 1.04918 5.63618 0
M  V30 548 H 47.8423 1.83662 5.71304 0
M  V30 549 H 48.9123 2.16592 4.33839 0
M  V30 550 N 50.2554 -1.46986 0.568584 0
M  V30 551 C 51.2024 -2.30153 -0.172707 0
M  V30 552 C 52.1724 -1.39759 -0.897586 0
M  V30 553 O 53.3574 -1.68716 -0.891044 0
M  V30 554 C 50.4974 -3.23952 -1.1895 0
M  V30 555 C 49.6104 -4.29441 -0.469517 0
M  V30 556 C 48.7454 -5.1038 -1.47259 0
M  V30 557 C 47.7844 -6.07632 -0.738225 0
M  V30 558 N 46.9214 -6.8149 -1.68868 0
M  V30 559 H 51.7614 -2.93019 0.542596 0
M  V30 560 H 49.2984 -1.44422 0.279401 0
M  V30 561 H 51.2564 -3.76767 -1.79173 0
M  V30 562 H 49.8864 -2.62926 -1.87269 0
M  V30 563 H 48.9384 -3.79594 0.247467 0
M  V30 564 H 50.2504 -4.98689 0.105241 0
M  V30 565 H 49.4044 -5.67402 -2.14803 0
M  V30 566 H 48.1434 -4.4106 -2.08128 0
M  V30 567 H 47.1484 -5.49778 -0.0489293 0
M  V30 568 H 48.3734 -6.78966 -0.135129 0
M  V30 569 H 46.3194 -6.14891 -2.28573 0
M  V30 570 H 46.2364 -7.46948 -1.16636 0
M  V30 571 H 47.5044 -7.43078 -2.3549 0
M  V30 572 N 51.7335 -0.305618 -1.54608 0
M  V30 573 C 52.9615 0.304775 -2.04643 0
M  V30 574 C 53.3765 1.47167 -1.18268 0
M  V30 575 O 52.7335 1.81296 -0.209328 0
M  V30 576 C 52.7845 0.756564 -3.53495 0
M  V30 577 O 52.5055 -0.36389 -4.36586 0
M  V30 578 C 54.0065 1.43163 -4.19546 0
M  V30 579 H 51.2265 0.0655481 -0.667791 0
M  V30 580 H 53.7705 -0.446592 -1.99564 0
M  V30 581 H 51.9255 1.45794 -3.58919 0
M  V30 582 H 52.3395 -0.0113121 -5.24499 0
M  V30 583 H 53.8135 1.69886 -5.25207 0
M  V30 584 H 54.2905 2.37318 -3.69563 0
M  V30 585 H 54.8965 0.773307 -4.18211 0
M  V30 586 N 53.2116 1.57565 -0.0334293 0
M  V30 587 C 54.1586 2.10478 0.946981 0
M  V30 588 C 55.1286 1.00787 1.32027 0
M  V30 589 O 56.3136 1.28232 1.41284 0
M  V30 590 C 53.4536 2.63994 2.22263 0
M  V30 591 C 52.5666 3.87709 1.90541 0
M  V30 592 C 51.7016 4.29604 3.12433 0
M  V30 593 C 50.7406 5.46065 2.76549 0
M  V30 594 N 49.8776 5.83096 3.9108 0
M  V30 595 H 54.7176 2.93963 0.488846 0
M  V30 596 H 52.2546 1.45296 0.22969 0
M  V30 597 H 54.2126 2.93114 2.96884 0
M  V30 598 H 52.8426 1.83333 2.65685 0
M  V30 599 H 51.8946 3.65291 1.06144 0
M  V30 600 H 53.2066 4.72403 1.60116 0
M  V30 601 H 52.3606 4.60182 3.9537 0
M  V30 602 H 51.0996 3.43685 3.46023 0
M  V30 603 H 50.1046 5.15176 1.92026 0
M  V30 604 H 51.3296 6.33685 2.44171 0
M  V30 605 H 49.2756 5.00132 4.24504 0
M  V30 606 H 49.1926 6.6244 3.64293 0
M  V30 607 H 50.4606 6.18282 4.74708 0
M  V30 608 N 54.6897 -0.239769 1.55765 0
M  V30 609 C 55.6197 -1.30052 1.9393 0
M  V30 610 C 56.6007 -1.49839 0.805132 0
M  V30 611 O 57.7857 -1.62328 1.06599 0
M  V30 612 C 54.9157 -2.65391 2.2402 0
M  V30 613 C 53.8697 -2.60289 3.39755 0
M  V30 614 C 53.1957 -3.99489 3.55405 0
M  V30 615 C 54.4957 -2.16654 4.75246 0
M  V30 616 H 56.1897 -0.983573 2.82783 0
M  V30 617 H 53.7357 -0.471701 1.36055 0
M  V30 618 H 55.6887 -3.3974 2.49308 0
M  V30 619 H 54.4127 -2.98736 1.32 0
M  V30 620 H 53.0717 -1.88398 3.14487 0
M  V30 621 H 52.7197 -4.30112 2.60793 0
M  V30 622 H 52.4197 -3.96962 4.33238 0
M  V30 623 H 53.9437 -4.75528 3.83022 0
M  V30 624 H 55.3577 -2.80737 4.99859 0
M  V30 625 H 53.7547 -2.25223 5.56232 0
M  V30 626 H 54.8247 -1.11835 4.71827 0
M  V30 627 N 56.1678 -1.49265 -0.50573 0
M  V30 628 C 57.1308 -1.65075 -1.59006 0
M  V30 629 C 58.1308 -0.522768 -1.52065 0
M  V30 630 O 59.3208 -0.789117 -1.55302 0
M  V30 631 C 56.4528 -1.64369 -2.98656 0
M  V30 632 H 57.6458 -2.61784 -1.46319 0
M  V30 633 H 55.1988 -1.38226 -0.729616 0
M  V30 634 H 55.9338 -0.692272 -3.16825 0
M  V30 635 H 55.7188 -2.46282 -3.05103 0
M  V30 636 H 57.2088 -1.78674 -3.77446 0
M  V30 637 N 57.6459 0.756429 -1.3826 0
M  V30 638 C 58.9229 1.50584 -1.24835 0
M  V30 639 C 59.3029 2.10556 0.151485 0
M  V30 640 O 58.6509 1.96825 1.1607 0
M  V30 641 C 58.8609 2.57448 -2.3563 0
M  V30 642 C 60.2089 3.24429 -2.73917 0
M  V30 643 O 61.2329 2.67751 -2.34921 0
M  V30 644 O 60.0919 4.26937 -3.41156 0
M  V30 645 H 57.1859 0.667664 -0.48801 0
M  V30 646 H 59.7319 0.792083 -1.5008 0
M  V30 647 H 58.5039 2.11362 -3.29305 0
M  V30 648 H 58.1269 3.36408 -2.11933 0
M  V30 649 N 59.124 1.23083 0.984299 0
M  V30 650 C 60.072 1.00593 2.09723 0
M  V30 651 C 61.066 -0.0538014 1.69315 0
M  V30 652 O 62.272 0.0993719 1.79725 0
M  V30 653 H 58.647 0.30817 0.685956 0
M  V30 654 H 60.618 1.95012 2.2586 0
M  V30 655 C 59.367 0.609601 3.42314 0
M  V30 656 H 58.69 1.41675 3.73856 0
M  V30 657 H 60.13 0.491726 4.21139 0
M  V30 658 C 58.589 -0.681745 3.2993 0
M  V30 659 O 59.119 -1.73192 3.62446 0
M  V30 660 N 57.325 -0.656178 2.83095 0
M  V30 661 H 56.872 0.198759 2.56832 0
M  V30 662 H 56.83 -1.52044 2.75191 0
M  V30 663 N 60.6021 -1.18246 1.0419 0
M  V30 664 C 61.5321 -2.24127 0.654914 0
M  V30 665 C 62.5131 -1.66617 -0.342451 0
M  V30 666 O 63.6981 -1.92924 -0.222277 0
M  V30 667 C 60.8281 -3.47295 0.0183757 0
M  V30 668 C 59.7821 -4.17563 0.939414 0
M  V30 669 C 59.1081 -5.34438 0.167286 0
M  V30 670 C 60.4081 -4.70917 2.25908 0
M  V30 671 H 62.1021 -2.56753 1.54007 0
M  V30 672 H 59.6481 -1.23414 0.74195 0
M  V30 673 H 61.6011 -4.20572 -0.264082 0
M  V30 674 H 60.3251 -3.13907 -0.901664 0
M  V30 675 H 58.9841 -3.46186 1.20628 0
M  V30 676 H 58.6321 -4.97298 -0.7552 0
M  V30 677 H 58.3321 -5.82388 0.780901 0
M  V30 678 H 59.8561 -6.10504 -0.108125 0
M  V30 679 H 61.2701 -5.35882 2.03724 0
M  V30 680 H 59.6671 -5.29406 2.82577 0
M  V30 681 H 60.7371 -3.88272 2.9047 0
M  V30 682 N 62.0802 -0.821533 -1.34494 0
M  V30 683 C 63.3082 -0.421884 -2.02553 0
M  V30 684 C 63.7232 0.971745 -1.61872 0
M  V30 685 O 63.0802 1.62864 -0.823496 0
M  V30 686 C 63.1312 -0.51285 -3.57844 0
M  V30 687 O 62.8522 -1.85155 -3.97051 0
M  V30 688 C 64.3532 -0.107921 -4.43169 0
M  V30 689 H 61.5732 -0.169482 -0.649243 0
M  V30 690 H 64.1172 -1.1093 -1.71798 0
M  V30 691 H 62.2722 0.126474 -3.87193 0
M  V30 692 H 62.6862 -1.82482 -4.91732 0
M  V30 693 H 64.1602 -0.222657 -5.51551 0
M  V30 694 H 64.6372 0.948401 -4.28838 0
M  V30 695 H 65.2432 -0.720989 -4.19144 0
M  V30 696 N 63.5583 1.46682 -0.576371 0
M  V30 697 C 64.4883 2.33028 0.148397 0
M  V30 698 C 65.4693 1.44961 0.889956 0
M  V30 699 O 66.6543 1.73789 0.866662 0
M  V30 700 C 63.7843 3.27117 1.1667 0
M  V30 701 C 62.7383 4.24575 0.540386 0
M  V30 702 C 62.0643 5.08126 1.6647 0
M  V30 703 C 63.3643 5.19722 -0.518331 0
M  V30 704 H 65.0583 2.93875 -0.572509 0
M  V30 705 H 62.6043 1.41315 -0.276768 0
M  V30 706 H 64.5573 3.86374 1.68204 0
M  V30 707 H 63.2813 2.64364 1.9178 0
M  V30 708 H 61.9403 3.66571 0.0461769 0
M  V30 709 H 61.5883 4.41762 2.40531 0
M  V30 710 H 61.2883 5.74122 1.25131 0
M  V30 711 H 62.8123 5.70246 2.18293 0
M  V30 712 H 64.2263 5.73232 -0.0883058 0
M  V30 713 H 62.6233 5.94026 -0.851679 0
M  V30 714 H 63.6933 4.64037 -1.40703 0
M  V30 715 N 65.0364 0.313813 1.54444 0
M  V30 716 C 65.9844 -0.572171 2.25453 0
M  V30 717 C 66.9784 -1.12657 1.2651 0
M  V30 718 O 68.1844 -1.07573 1.44319 0
M  V30 719 H 64.5594 -0.203146 0.724041 0
M  V30 720 H 66.5304 0.0491145 2.9836 0
M  V30 721 C 65.2794 -1.72626 3.0182 0
M  V30 722 H 64.6024 -1.30891 3.77767 0
M  V30 723 H 66.0424 -2.32199 3.54767 0
M  V30 724 C 64.5014 -2.63806 2.09542 0
M  V30 725 O 65.0314 -3.65256 1.67185 0
M  V30 726 N 63.2374 -2.31824 1.75232 0
M  V30 727 H 62.7844 -1.49368 2.09873 0
M  V30 728 H 62.7424 -2.93095 1.13767 0
M  V30 729 N 66.5145 -1.57545 0.0417849 0
M  V30 730 C 67.7635 -1.91494 -0.633492 0
M  V30 731 C 68.0765 -0.921084 -1.72556 0
M  V30 732 O 69.2825 -1.15228 -2.45835 0
M  V30 733 C 67.7385 -3.40072 -1.17808 0
M  V30 734 C 67.3465 -4.47843 -0.118633 0
M  V30 735 C 69.0905 -3.8307 -1.82915 0
M  V30 736 C 66.9975 -5.87529 -0.675578 0
M  V30 737 H 65.9275 -0.714653 -0.24039 0
M  V30 738 H 68.5785 -1.83175 0.109148 0
M  V30 739 H 66.9605 -3.43364 -1.97274 0
M  V30 740 H 68.1345 -4.56128 0.654494 0
M  V30 741 H 66.4495 -4.14128 0.434414 0
M  V30 742 H 69.0465 -4.84794 -2.25563 0
M  V30 743 H 69.3895 -3.1881 -2.67705 0
M  V30 744 H 69.9225 -3.82255 -1.10119 0
M  V30 745 H 66.6615 -6.55362 0.134475 0
M  V30 746 H 66.1815 -5.82824 -1.4169 0
M  V30 747 H 67.8605 -6.36491 -1.1614 0
M  V30 748 N 67.9926 0.231505 -1.5589 0
M  V30 749 C 69.4036 0.799327 -1.68724 0
M  V30 750 C 69.7546 1.85398 -0.642022 0
M  V30 751 O 68.8796 2.1539 0.208784 0
M  V30 752 C 69.4746 1.45664 -3.05888 0
M  V30 753 C 68.0336 1.97197 -3.20609 0
M  V30 754 C 67.1806 0.828552 -2.64632 0
M  V30 755 H 70.1316 0.00702616 -1.58698 0
M  V30 756 H 70.1526 2.32517 -3.01191 0
M  V30 757 H 69.6646 0.688808 -3.81939 0
M  V30 758 H 67.7656 2.76813 -2.4941 0
M  V30 759 H 67.8786 2.15878 -4.27707 0
M  V30 760 H 66.2426 1.23321 -2.22854 0
M  V30 761 H 67.0256 0.0735544 -3.43221 0
M  V30 762 N 69.4707 1.49531 0.497807 0
M  V30 763 C 70.7197 1.58426 1.24837 0
M  V30 764 C 71.0327 0.277643 1.93619 0
M  V30 765 O 72.2387 0.24517 2.70391 0
M  V30 766 C 70.6947 2.79538 2.26686 0
M  V30 767 C 70.3027 4.16971 1.63828 0
M  V30 768 C 72.0467 2.97764 3.0255 0
M  V30 769 C 69.9537 5.29301 2.63807 0
M  V30 770 H 68.8837 0.58989 0.469623 0
M  V30 771 H 71.5347 1.75923 0.521857 0
M  V30 772 H 69.9167 2.55542 3.02514 0
M  V30 773 H 71.0907 4.51116 0.939711 0
M  V30 774 H 69.4057 4.04129 1.00342 0
M  V30 775 H 72.0027 3.78856 3.77323 0
M  V30 776 H 72.3457 2.08448 3.60354 0
M  V30 777 H 72.8787 3.21815 2.33838 0
M  V30 778 H 69.6177 6.20687 2.10779 0
M  V30 779 H 69.1377 4.99606 3.31894 0
M  V30 780 H 70.8167 5.58768 3.2617 0
M  V30 781 N 70.9488 -0.749086 1.3866 0
M  V30 782 C 72.1978 -1.50371 1.3443 0
M  V30 783 C 72.5108 -1.95503 -0.0616397 0
M  V30 784 O 73.7168 -2.70554 -0.226489 0
M  V30 785 C 72.1728 -2.71644 2.36088 0
M  V30 786 C 71.7808 -2.3352 3.82325 0
M  V30 787 C 73.5248 -3.49518 2.40909 0
M  V30 788 C 71.4318 -3.51431 4.75658 0
M  V30 789 H 70.3618 -0.564628 0.499712 0
M  V30 790 H 73.0128 -0.818449 1.64237 0
M  V30 791 H 71.3948 -3.42175 1.9933 0
M  V30 792 H 72.5688 -1.70627 4.28046 0
M  V30 793 H 70.8838 -1.6877 3.80665 0
M  V30 794 H 73.4808 -4.37197 3.07836 0
M  V30 795 H 73.8238 -3.90992 1.42937 0
M  V30 796 H 74.3568 -2.86005 2.76489 0
M  V30 797 H 71.0958 -3.15019 5.74842 0
M  V30 798 H 70.6158 -4.13352 4.34627 0
M  V30 799 H 72.2948 -4.17953 4.93887 0
M  V30 800 N 72.4269 -1.23603 -0.977757 0
M  V30 801 C 73.6549 -1.09646 -1.75458 0
M  V30 802 C 74.0699 0.351859 -1.85492 0
M  V30 803 O 73.4269 1.24327 -1.336 0
M  V30 804 C 73.4779 -1.71895 -3.18016 0
M  V30 805 O 73.1989 -3.11063 -3.08498 0
M  V30 806 C 74.6999 -1.63415 -4.12081 0
M  V30 807 H 71.9199 -0.38359 -0.550545 0
M  V30 808 H 74.4639 -1.63507 -1.22824 0
M  V30 809 H 72.6189 -1.22061 -3.67668 0
M  V30 810 H 73.0329 -3.41305 -3.9826 0
M  V30 811 H 74.5069 -2.11669 -5.09804 0
M  V30 812 H 74.9839 -0.593462 -4.35172 0
M  V30 813 H 75.5899 -2.12628 -3.68334 0
M  V30 814 N 73.905 1.17692 -1.04816 0
M  V30 815 C 74.868 2.19787 -0.650117 0
M  V30 816 C 75.868 1.58044 0.296427 0
M  V30 817 O 77.058 1.74012 0.0808097 0
M  V30 818 C 74.19 3.40869 0.0456987 0
M  V30 819 H 75.383 2.56516 -1.5537 0
M  V30 820 H 72.936 1.31708 -0.841594 0
M  V30 821 H 73.671 3.09681 0.962726 0
M  V30 822 H 73.456 3.86928 -0.634727 0
M  V30 823 H 74.946 4.16445 0.310432 0
M  V30 824 N 75.3831 0.828654 1.34056 0
M  V30 825 C 76.3461 0.259927 2.27721 0
M  V30 826 C 77.3461 -0.565478 1.50529 0
M  V30 827 O 78.5361 -0.38075 1.69988 0
M  V30 828 C 75.6681 -0.634944 3.34935 0
M  V30 829 H 76.8611 1.0863 2.79534 0
M  V30 830 H 74.4141 0.600951 1.44285 0
M  V30 831 H 75.1491 -1.48416 2.88346 0
M  V30 832 H 74.9341 -0.0444999 3.92075 0
M  V30 833 H 76.4241 -1.02648 4.04788 0
M  V30 834 N 76.8612 -1.46375 0.584142 0
M  V30 835 C 77.7942 -2.27351 -0.196676 0
M  V30 836 C 78.7722 -1.35715 -0.895561 0
M  V30 837 O 79.9562 -1.65126 -0.90916 0
M  V30 838 C 77.0832 -3.13486 -1.28235 0
M  V30 839 C 76.1292 -4.20896 -0.689145 0
M  V30 840 S 76.9622 -5.33299 0.48507 0
M  V30 841 C 78.1182 -6.23 -0.601767 0
M  V30 842 H 78.3512 -2.93228 0.490395 0
M  V30 843 H 75.8842 -1.49875 0.371071 0
M  V30 844 H 77.8422 -3.63676 -1.90395 0
M  V30 845 H 76.5032 -2.4692 -1.94138 0
M  V30 846 H 75.6962 -4.80997 -1.50527 0
M  V30 847 H 75.2982 -3.73726 -0.143181 0
M  V30 848 H 77.5902 -6.60979 -1.48705 0
M  V30 849 H 78.5332 -7.0809 -0.0374799 0
M  V30 850 H 78.9412 -5.57173 -0.906557 0
M  V30 851 N 78.3393 -0.321999 -1.54275 0
M  V30 852 C 79.6163 0.335232 -1.92706 0
M  V30 853 C 79.9963 1.70006 -1.25145 0
M  V30 854 O 79.3443 2.25067 -0.394596 0
M  V30 855 C 79.5543 0.429008 -3.46353 0
M  V30 856 C 80.9023 0.690029 -4.18956 0
M  V30 857 O 81.9263 0.511992 -3.52501 0
M  V30 858 O 80.7853 1.03338 -5.36641 0
M  V30 859 H 77.8793 0.191143 -0.804608 0
M  V30 860 H 80.4253 -0.3716 -1.65581 0
M  V30 861 H 79.1973 -0.529611 -3.87699 0
M  V30 862 H 78.8203 1.18348 -3.79578 0
M  V30 863 N 79.8174 1.5752 -0.0501392 0
M  V30 864 C 81.0454 1.96963 0.633492 0
M  V30 865 C 81.4604 0.927631 1.6444 0
M  V30 866 O 80.8174 -0.0882665 1.82286 0
M  V30 867 C 80.8684 3.36487 1.32132 0
M  V30 868 O 80.5894 4.36693 0.350894 0
M  V30 869 C 82.0904 3.90682 2.09481 0
M  V30 870 H 79.3104 0.648244 0.173266 0
M  V30 871 H 81.8544 2.0417 -0.116134 0
M  V30 872 H 80.0094 3.30434 2.02218 0
M  V30 873 H 80.4234 5.17702 0.841735 0
M  V30 874 H 81.8974 4.90591 2.5303 0
M  V30 875 H 82.3744 3.26053 2.94255 0
M  V30 876 H 82.9804 4.00069 1.44307 0
M  V30 877 N 81.2955 -0.223234 1.56011 0
M  V30 878 C 82.5415 -0.949279 1.79211 0
M  V30 879 C 82.8745 -1.84054 0.619494 0
M  V30 880 O 82.1495 -1.90726 -0.381317 0
M  V30 881 C 82.4325 -1.78965 3.12479 0
M  V30 882 C 82.2855 -0.924997 4.40186 0
M  V30 883 C 83.6045 -2.76774 3.42175 0
M  V30 884 H 80.7235 -0.343676 0.651963 0
M  V30 885 H 83.3655 -0.218253 1.88742 0
M  V30 886 H 81.5155 -2.41291 3.04485 0
M  V30 887 H 83.1875 -0.318615 4.60198 0
M  V30 888 H 81.4305 -0.230344 4.33188 0
M  V30 889 H 82.1015 -1.54735 5.29869 0
M  V30 890 H 84.5775 -2.24584 3.50287 0
M  V30 891 H 83.4535 -3.32678 4.36597 0
M  V30 892 H 83.7145 -3.54429 2.64258 0
M  V30 893 N 82.7736 -1.49793 -0.48987 0
M  V30 894 C 84.0016 -1.63568 -1.26701 0
M  V30 895 C 84.4166 -0.311465 -1.86213 0
M  V30 896 O 83.7736 0.704416 -1.68357 0
M  V30 897 C 83.8246 -2.71284 -2.38929 0
M  V30 898 O 83.5456 -3.9857 -1.81861 0
M  V30 899 C 85.0466 -2.95864 -3.3012 0
M  V30 900 H 82.2666 -0.550342 -0.383881 0
M  V30 901 H 84.8106 -1.95898 -0.586864 0
M  V30 902 H 82.9656 -2.417 -3.02753 0
M  V30 903 H 83.3796 -4.57993 -2.55622 0
M  V30 904 H 84.8536 -3.74941 -4.05121 0
M  V30 905 H 85.3306 -2.06206 -3.87783 0
M  V30 906 H 85.9366 -3.26907 -2.72051 0
M  V30 907 N 84.2517 0.741722 -1.39055 0
M  V30 908 C 85.4997 1.49818 -1.35643 0
M  V30 909 C 85.8207 1.94938 0.0491642 0
M  V30 910 O 85.0907 1.68505 0.999141 0
M  V30 911 H 83.6707 0.555755 -0.499144 0
M  V30 912 H 86.3327 0.880957 -1.73854 0
M  V30 913 H 85.4287 2.38348 -2.01486 0
M  V30 914 N 85.7298 1.2412 0.971189 0
M  V30 915 C 86.9548 1.10667 1.75407 0
M  V30 916 C 87.3798 -0.337048 1.85056 0
M  V30 917 O 86.7378 -1.24396 1.31892 0
M  V30 918 C 86.7858 1.74726 3.15441 0
M  V30 919 O 85.8898 1.01566 3.99697 0
M  V30 920 H 85.2308 0.387341 0.539317 0
M  V30 921 H 87.7608 1.64358 1.2185 0
M  V30 922 H 87.7708 1.80341 3.6598 0
M  V30 923 H 86.4458 2.79773 3.07734 0
M  V30 924 H 85.0228 1.03713 3.58187 0
M  V30 925 N 87.2079 -1.17134 1.05439 0
M  V30 926 C 88.1549 -2.21235 0.657539 0
M  V30 927 C 89.1249 -1.62551 -0.341543 0
M  V30 928 O 90.3099 -1.89379 -0.232393 0
M  V30 929 C 87.4499 -3.45076 0.0410575 0
M  V30 930 C 86.5629 -4.18042 1.08927 0
M  V30 931 C 85.6979 -5.29376 0.439848 0
M  V30 932 C 84.7369 -5.94132 1.4722 0
M  V30 933 N 83.8739 -6.96975 0.846756 0
M  V30 934 H 88.7139 -2.54534 1.54972 0
M  V30 935 H 86.2509 -1.25028 0.775006 0
M  V30 936 H 88.2089 -4.15862 -0.33383 0
M  V30 937 H 86.8389 -3.12353 -0.814568 0
M  V30 938 H 85.8909 -3.45945 1.58196 0
M  V30 939 H 87.2029 -4.62306 1.87282 0
M  V30 940 H 86.3569 -6.06699 0.0115125 0
M  V30 941 H 85.0959 -4.86251 -0.375656 0
M  V30 942 H 84.1009 -5.15538 1.91052 0
M  V30 943 H 85.3259 -6.39337 2.28965 0
M  V30 944 H 83.2719 -6.5598 0.0518075 0
M  V30 945 H 83.1889 -7.39565 1.5678 0
M  V30 946 H 84.4569 -7.78239 0.443277 0
M  V30 947 N 88.686 -0.835752 -1.33615 0
M  V30 948 C 89.619 -0.211815 -2.27215 0
M  V30 949 C 90.597 0.639249 -1.49507 0
M  V30 950 O 91.781 0.600193 -1.78689 0
M  V30 951 C 88.908 0.702893 -3.31326 0
M  V30 952 C 87.954 -0.0723049 -4.26439 0
M  V30 953 S 88.787 -1.42811 -5.16106 0
M  V30 954 C 89.943 -0.518613 -6.23748 0
M  V30 955 H 90.176 -1.00533 -2.79786 0
M  V30 956 H 87.709 -0.632336 -1.40858 0
M  V30 957 H 89.667 1.22505 -3.91794 0
M  V30 958 H 88.328 1.47004 -2.77576 0
M  V30 959 H 87.521 0.62359 -5.00127 0
M  V30 960 H 87.123 -0.525424 -3.70291 0
M  V30 961 H 89.415 0.284778 -6.76901 0
M  V30 962 H 90.358 -1.22556 -6.97413 0
M  V30 963 H 90.766 -0.101344 -5.64409 0
M  V30 964 N 90.1641 1.46063 -0.591896 0
M  V30 965 C 91.1271 2.28854 0.125973 0
M  V30 966 C 92.1271 1.38903 0.810107 0
M  V30 967 O 93.3171 1.61186 0.66066 0
M  V30 968 C 90.4491 3.19526 1.1881 0
M  V30 969 H 91.6421 2.93802 -0.601717 0
M  V30 970 H 89.1951 1.52325 -0.350254 0
M  V30 971 H 89.9301 2.59345 1.94707 0
M  V30 972 H 89.7151 3.85766 0.701936 0
M  V30 973 H 91.2051 3.81817 1.69132 0
M  V30 974 N 91.6422 0.330177 1.54103 0
M  V30 975 C 92.8912 -0.271336 1.99867 0
M  V30 976 C 93.2042 -1.52723 1.22209 0
M  V30 977 O 94.4102 -2.20515 1.58383 0
M  V30 978 C 92.8662 -0.534032 3.55916 0
M  V30 979 C 92.4742 0.705193 4.42415 0
M  V30 980 C 94.2182 -1.09514 4.1013 0
M  V30 981 C 92.1252 0.414035 5.89949 0
M  V30 982 H 91.0552 -0.105166 0.74663 0
M  V30 983 H 93.7062 0.443429 1.78062 0
M  V30 984 H 92.0882 -1.30915 3.73734 0
M  V30 985 H 93.2622 1.4804 4.36372 0
M  V30 986 H 91.5772 1.18698 3.99124 0
M  V30 987 H 94.1742 -1.3277 5.17954 0
M  V30 988 H 94.5172 -2.04656 3.62521 0
M  V30 989 H 95.0502 -0.381038 3.95971 0
M  V30 990 H 91.7892 1.33481 6.41766 0
M  V30 991 H 91.3092 -0.323336 5.98928 0
M  V30 992 H 92.9882 0.0263105 6.46995 0
M  V30 993 N 93.1203 -1.57491 0.0584922 0
M  V30 994 C 94.0833 -2.1085 -0.898617 0
M  V30 995 C 95.0833 -1.02964 -1.23511 0
M  V30 996 O 96.2733 -1.29007 -1.17059 0
M  V30 997 C 93.4053 -2.59881 -2.20623 0
M  V30 998 H 94.5983 -2.96715 -0.435936 0
M  V30 999 H 92.1513 -1.55141 -0.190023 0
M  V30 1000 H 92.8863 -1.77431 -2.71457 0
M  V30 1001 H 92.6713 -3.38727 -1.97501 0
M  V30 1002 H 94.1613 -3.01285 -2.89166 0
M  V30 1003 N 94.5984 0.214957 -1.56127 0
M  V30 1004 C 95.8474 0.936451 -1.78643 0
M  V30 1005 C 96.1604 1.85237 -0.628229 0
M  V30 1006 O 97.3664 2.613 -0.737186 0
M  V30 1007 C 95.8224 1.7154 -3.16389 0
M  V30 1008 C 95.4304 0.845299 -4.39953 0
M  V30 1009 C 97.1744 2.42772 -3.48227 0
M  V30 1010 C 95.0814 1.62198 -5.68723 0
M  V30 1011 H 94.0114 0.353401 -0.666051 0
M  V30 1012 H 96.6624 0.190169 -1.82512 0
M  V30 1013 H 95.0444 2.50484 -3.06715 0
M  V30 1014 H 96.2184 0.0959353 -4.607 0
M  V30 1015 H 94.5334 0.244789 -4.1568 0
M  V30 1016 H 97.1304 3.01394 -4.41663 0
M  V30 1017 H 97.4734 3.15984 -2.71035 0
M  V30 1018 H 98.0064 1.70813 -3.5926 0
M  V30 1019 H 94.7454 0.933011 -6.48826 0
M  V30 1020 H 94.2654 2.34579 -5.52026 0
M  V30 1021 H 95.9444 2.18095 -6.09133 0
M  V30 1022 N 96.0765 1.50051 0.48192 0
M  V30 1023 C 97.0395 1.67584 1.5636 0
M  V30 1024 C 98.0395 0.546894 1.51214 0
M  V30 1025 O 99.2295 0.813725 1.54026 0
M  V30 1026 C 96.3615 1.691 2.96003 0
M  V30 1027 H 97.5545 2.64078 1.42136 0
M  V30 1028 H 95.1075 1.39369 0.707533 0
M  V30 1029 H 95.8425 0.742589 3.15684 0
M  V30 1030 H 95.6275 2.51105 3.01146 0
M  V30 1031 H 97.1175 1.84656 3.74556 0
M  V30 1032 N 97.5546 -0.734337 1.39446 0
M  V30 1033 C 98.9706 -1.03997 1.21065 0
M  V30 1034 C 99.1706 -2.01369 0.0727019 0
M  V30 1035 O 98.2266 -2.45856 -0.575426 0
M  V30 1036 C 99.5396 -1.60163 2.54496 0
M  V30 1037 C 101.088 -1.7224 2.61347 0
M  V30 1038 C 101.563 -2.31814 3.95002 0
M  V30 1039 N 103.054 -2.39223 3.96644 0
M  V30 1040 C 103.789 -2.86258 4.96834 0
M  V30 1041 N 103.285 -3.33184 6.07421 0
M  V30 1042 N 105.078 -2.85473 4.84213 0
M  V30 1043 H 97.2286 -0.0885624 2.12215 0
M  V30 1044 H 99.4916 -0.10191 0.942506 0
M  V30 1045 H 99.1976 -0.960811 3.38321 0
M  V30 1046 H 99.0716 -2.5896 2.74262 0
M  V30 1047 H 101.459 -2.35443 1.77906 0
M  V30 1048 H 101.54 -0.720939 2.4543 0
M  V30 1049 H 101.184 -1.69238 4.78875 0
M  V30 1050 H 101.114 -3.32638 4.08239 0
M  V30 1051 H 103.605 -2.06057 3.16779 0
M  V30 1052 H 103.918 -3.67586 6.7978 0
M  V30 1053 H 102.263 -3.31191 6.11013 0
M  V30 1054 H 105.454 -2.48136 3.96921 0
M  V30 1055 H 105.627 -3.21814 5.62441 0
M  V30 1056 N 99.0327 -1.24633 -0.964593 0
M  V30 1057 C 99.9957 -1.0424 -2.04124 0
M  V30 1058 C 100.996 0.00137563 -1.608 0
M  V30 1059 O 102.186 -0.239883 -1.7254 0
M  V30 1060 C 99.3177 -0.580588 -3.3592 0
M  V30 1061 H 100.511 -1.99803 -2.23649 0
M  V30 1062 H 98.0637 -1.06899 -1.14027 0
M  V30 1063 H 98.7987 0.3781 -3.22088 0
M  V30 1064 H 98.5837 -1.33398 -3.6871 0
M  V30 1065 H 100.074 -0.459034 -4.15069 0
M  V30 1066 N 100.511 1.16574 -1.06058 0
M  V30 1067 C 101.759 1.86677 -0.77434 0
M  V30 1068 C 102.08 1.81959 0.701147 0
M  V30 1069 O 101.35 1.2515 1.50713 0
M  V30 1070 H 99.9298 0.691134 -0.283449 0
M  V30 1071 H 102.592 1.41378 -1.34158 0
M  V30 1072 H 101.688 2.92181 -1.09711 0
M  V30 1073 N 101.989 0.842826 1.3317 0
M  V30 1074 C 103.237 0.439577 1.97262 0
M  V30 1075 C 103.558 -1.00548 1.67078 0
M  V30 1076 O 102.828 -1.70098 0.971779 0
M  V30 1077 H 101.408 0.159558 0.72976 0
M  V30 1078 H 104.07 1.07665 1.62463 0
M  V30 1079 H 103.166 0.574886 3.0676 0
M  V30 1080 N 103.467 -1.45747 0.599634 0
M  V30 1081 C 104.397 -2.33235 -0.111306 0
M  V30 1082 C 105.378 -1.46359 -0.866781 0
M  V30 1083 O 106.563 -1.75146 -0.838904 0
M  V30 1084 C 103.693 -3.28932 -1.11451 0
M  V30 1085 C 102.647 -4.25381 -0.472772 0
M  V30 1086 C 101.973 -5.1071 -1.58365 0
M  V30 1087 C 103.273 -5.18831 0.600948 0
M  V30 1088 H 104.967 -2.92927 0.61919 0
M  V30 1089 H 102.513 -1.40857 0.299215 0
M  V30 1090 H 104.466 -3.89002 -1.62036 0
M  V30 1091 H 103.19 -2.67381 -1.8755 0
M  V30 1092 H 101.849 -3.66598 0.0121472 0
M  V30 1093 H 101.497 -4.45533 -2.33473 0
M  V30 1094 H 101.197 -5.7604 -1.15982 0
M  V30 1095 H 102.721 -5.73647 -2.09194 0
M  V30 1096 H 104.135 -5.73019 0.179491 0
M  V30 1097 H 102.532 -5.92595 0.946076 0
M  V30 1098 H 103.602 -4.6174 1.48068 0
M  V30 1099 N 104.945 -0.338344 -1.53925 0
M  V30 1100 C 106.193 0.259245 -2.0043 0
M  V30 1101 C 106.514 1.51484 -1.22791 0
M  V30 1102 O 105.784 1.93037 -0.33368 0
M  V30 1103 H 104.364 0.0987845 -0.740439 0
M  V30 1104 H 107.026 -0.458302 -1.89435 0
M  V30 1105 H 106.122 0.505334 -3.07982 0
M  V30 1106 N 106.423 1.57458 -0.0668435 0
M  V30 1107 C 107.669 1.93587 0.6043 0
M  V30 1108 C 108.002 0.946722 1.69561 0
M  V30 1109 O 107.277 -0.0248516 1.94484 0
M  V30 1110 C 107.56 3.40014 1.18585 0
M  V30 1111 C 107.413 4.49685 0.101529 0
M  V30 1112 C 108.732 3.87154 2.09284 0
M  V30 1113 H 105.851 0.703958 0.218202 0
M  V30 1114 H 108.493 1.89542 -0.131804 0
M  V30 1115 H 106.643 3.43592 1.81319 0
M  V30 1116 H 108.315 4.5823 -0.531279 0
M  V30 1117 H 106.558 4.30059 -0.568487 0
M  V30 1118 H 107.229 5.49266 0.54874 0
M  V30 1119 H 109.705 3.85551 1.56491 0
M  V30 1120 H 108.581 4.90231 2.46911 0
M  V30 1121 H 108.842 3.2481 2.99918 0
M  V30 1122 N 107.901 -0.206675 1.56239 0
M  V30 1123 C 109.15 -0.926964 1.79138 0
M  V30 1124 C 109.463 -1.84901 0.638043 0
M  V30 1125 O 110.669 -2.60906 0.751033 0
M  V30 1126 C 109.125 -1.6986 3.17294 0
M  V30 1127 C 108.733 -0.821956 4.40395 0
M  V30 1128 C 110.477 -2.40922 3.4951 0
M  V30 1129 C 108.384 -1.59179 5.69575 0
M  V30 1130 H 107.314 -0.349864 0.667915 0
M  V30 1131 H 109.965 -0.180487 1.8261 0
M  V30 1132 H 108.347 -2.48853 3.08039 0
M  V30 1133 H 109.521 -0.0715019 4.60745 0
M  V30 1134 H 107.836 -0.222741 4.15804 0
M  V30 1135 H 110.433 -2.99047 4.43255 0
M  V30 1136 H 110.776 -3.14542 2.72707 0
M  V30 1137 H 111.309 -1.68905 3.60161 0
M  V30 1138 H 108.048 -0.898589 6.49312 0
M  V30 1139 H 107.568 -2.31648 5.53262 0
M  V30 1140 H 109.247 -2.14862 6.10281 0
M  V30 1141 N 109.379 -1.50304 -0.473955 0
M  V30 1142 C 110.329 -1.65347 -1.56985 0
M  V30 1143 C 111.313 -0.508176 -1.52664 0
M  V30 1144 O 112.505 -0.762446 -1.59737 0
M  V30 1145 C 109.634 -1.74832 -2.95447 0
M  V30 1146 C 108.72 -2.95028 -3.04662 0
M  V30 1147 N 109.111 -4.18747 -2.83698 0
M  V30 1148 C 107.409 -2.93527 -3.35795 0
M  V30 1149 C 108.11 -4.99687 -2.97805 0
M  V30 1150 N 107.086 -4.33585 -3.2788 0
M  V30 1151 H 110.888 -2.58698 -1.39472 0
M  V30 1152 H 108.402 -1.47449 -0.680629 0
M  V30 1153 H 110.399 -1.83712 -3.7424 0
M  V30 1154 H 109.059 -0.826376 -3.14008 0
M  V30 1155 H 110.07 -4.48291 -2.59337 0
M  V30 1156 H 106.747 -2.10821 -3.60362 0
M  V30 1157 H 108.137 -6.08057 -2.85861 0
M  V30 1158 N 110.857 0.726932 -1.39834 0
M  V30 1159 C 111.804 1.841 -1.39197 0
M  V30 1160 C 112.774 1.642 -0.250502 0
M  V30 1161 O 113.959 1.85494 -0.446846 0
M  V30 1162 C 111.099 3.21697 -1.24919 0
M  V30 1163 C 110.212 3.53247 -2.48678 0
M  V30 1164 C 109.347 4.80289 -2.26928 0
M  V30 1165 C 108.386 5.04707 -3.4632 0
M  V30 1166 N 107.523 6.22956 -3.23836 0
M  V30 1167 H 112.363 1.83979 -2.34427 0
M  V30 1168 H 109.9 0.898876 -1.16442 0
M  V30 1169 H 111.858 4.01137 -1.1465 0
M  V30 1170 H 110.488 3.21076 -0.333153 0
M  V30 1171 H 109.54 2.68447 -2.69519 0
M  V30 1172 H 110.852 3.67205 -3.37582 0
M  V30 1173 H 110.006 5.67725 -2.13947 0
M  V30 1174 H 108.745 4.68519 -1.35431 0
M  V30 1175 H 107.75 4.1573 -3.5979 0
M  V30 1176 H 108.975 5.18357 -4.38729 0
M  V30 1177 H 106.921 6.12459 -2.35011 0
M  V30 1178 H 106.838 6.37539 -4.063 0
M  V30 1179 H 108.106 7.1321 -3.14566 0
M  V30 1180 N 112.336 1.25143 0.95797 0
M  V30 1181 C 113.284 1.05019 2.07542 0
M  V30 1182 C 114.278 -0.0178751 1.69391 0
M  V30 1183 O 115.484 0.137472 1.79474 0
M  V30 1184 H 111.859 0.32265 0.679265 0
M  V30 1185 H 113.83 1.99759 2.21673 0
M  V30 1186 C 112.579 0.682074 3.40944 0
M  V30 1187 H 111.902 1.49573 3.70767 0
M  V30 1188 H 113.342 0.580945 4.20001 0
M  V30 1189 C 111.801 -0.611608 3.31302 0
M  V30 1190 O 112.331 -1.65465 3.66038 0
M  V30 1191 N 110.537 -0.595982 2.84423 0
M  V30 1192 H 110.084 0.253192 2.56353 0
M  V30 1193 H 110.042 -1.46173 2.78354 0
M  V30 1194 N 113.814 -1.1601 1.06675 0
M  V30 1195 C 114.747 -2.1947 0.625168 0
M  V30 1196 C 115.725 -1.58699 -0.354041 0
M  V30 1197 O 116.909 -1.86669 -0.262098 0
M  V30 1198 C 114.036 -3.38598 -0.0829593 0
M  V30 1199 C 113.082 -4.1787 0.853611 0
M  V30 1200 S 113.915 -4.81135 2.35094 0
M  V30 1201 C 115.071 -6.03639 1.65441 0
M  V30 1202 H 115.304 -2.56587 1.50168 0
M  V30 1203 H 112.837 -1.26862 0.880078 0
M  V30 1204 H 114.795 -4.07621 -0.485288 0
M  V30 1205 H 113.456 -2.99839 -0.935716 0
M  V30 1206 H 112.649 -5.03078 0.304755 0
M  V30 1207 H 112.251 -3.54361 1.196 0
M  V30 1208 H 114.543 -6.70632 0.962201 0
M  V30 1209 H 115.486 -6.63081 2.48454 0
M  V30 1210 H 115.894 -5.52965 1.13534 0
M  V30 1211 N 115.292 -0.849877 -1.32721 0
M  V30 1212 C 116.517 -0.463856 -2.02146 0
M  V30 1213 C 116.942 0.930449 -1.63476 0
M  V30 1214 O 116.3 1.61033 -0.832952 0
M  V30 1215 C 116.348 -0.604955 -3.55489 0
M  V30 1216 O 115.452 0.36425 -4.10788 0
M  V30 1217 H 114.793 -0.187046 -0.637111 0
M  V30 1218 H 117.323 -1.14775 -1.69375 0
M  V30 1219 H 117.333 -0.490696 -4.05038 0
M  V30 1220 H 116.008 -1.62174 -3.82978 0
M  V30 1221 H 114.585 0.206628 -3.72327 0
M  V30 1222 N 116.77 1.45427 -0.607355 0
M  V30 1223 C 118.019 2.01452 -0.100036 0
M  V30 1224 C 118.332 1.48159 1.27704 0
M  V30 1225 O 119.538 1.96159 1.87707 0
M  V30 1226 C 117.994 3.59672 -0.128158 0
M  V30 1227 C 117.602 4.21962 -1.50507 0
M  V30 1228 C 119.346 4.23262 0.323932 0
M  V30 1229 C 117.253 5.72333 -1.48959 0
M  V30 1230 H 116.183 0.75325 -0.0336299 0
M  V30 1231 H 118.834 1.66901 -0.76265 0
M  V30 1232 H 117.216 3.91411 0.601105 0
M  V30 1233 H 118.39 4.01796 -2.25602 0
M  V30 1234 H 116.705 3.70565 -1.89923 0
M  V30 1235 H 119.302 5.33522 0.354691 0
M  V30 1236 H 119.645 3.93921 1.34656 0
M  V30 1237 H 120.178 3.96239 -0.352056 0
M  V30 1238 H 116.917 6.06373 -2.48981 0
M  V30 1239 H 116.437 5.94691 -0.781214 0
M  V30 1240 H 118.116 6.35525 -1.21313 0
M  V30 1241 N 118.248 0.346503 1.53744 0
M  V30 1242 C 119.476 -0.25041 2.05379 0
M  V30 1243 C 119.891 -1.43979 1.22129 0
M  V30 1244 O 119.248 -1.80677 0.257321 0
M  V30 1245 C 119.299 -0.662575 3.55376 0
M  V30 1246 O 119.02 0.479515 4.35468 0
M  V30 1247 C 120.521 -1.31989 4.23195 0
M  V30 1248 H 117.741 -0.0478198 0.669294 0
M  V30 1249 H 120.285 0.499346 1.9831 0
M  V30 1250 H 118.44 -1.36227 3.62658 0
M  V30 1251 H 118.854 0.15037 5.24284 0
M  V30 1252 H 120.328 -1.55902 5.29527 0
M  V30 1253 H 120.805 -2.27436 3.75725 0
M  V30 1254 H 121.411 -0.662154 4.20114 0
M  V30 1255 N 119.726 -1.57421 0.075193 0
M  V30 1256 C 120.636 -2.1642 -0.905511 0
M  V30 1257 C 121.652 -1.12828 -1.32461 0
M  V30 1258 O 122.828 -1.45109 -1.39661 0
M  V30 1259 C 119.893 -2.71693 -2.15369 0
M  V30 1260 C 118.954 -3.90171 -1.79068 0
M  V30 1261 C 118.187 -4.42798 -2.97936 0
M  V30 1262 O 118.41 -3.94416 -4.12058 0
M  V30 1263 O 117.344 -5.34085 -2.77555 0
M  V30 1264 H 121.17 -3.00588 -0.433626 0
M  V30 1265 H 118.755 -1.48664 -0.148067 0
M  V30 1266 H 120.637 -3.07104 -2.88557 0
M  V30 1267 H 119.312 -1.90582 -2.61649 0
M  V30 1268 H 118.219 -3.59606 -1.03122 0
M  V30 1269 H 119.552 -4.72584 -1.37569 0
M  V30 1270 N 121.204 0.198386 -1.56346 0
M  V30 1271 C 122.136 1.26987 -1.90806 0
M  V30 1272 C 123.149 1.41877 -0.798419 0
M  V30 1273 O 124.338 1.42362 -1.07682 0
M  V30 1274 C 121.438 2.64246 -2.12196 0
M  V30 1275 C 120.611 2.71007 -3.43328 0
M  V30 1276 C 119.67 3.89439 -3.5387 0
M  V30 1277 O 118.696 3.76695 -4.26719 0
M  V30 1278 N 119.898 5.04752 -2.86715 0
M  V30 1279 H 122.663 0.977433 -2.83313 0
M  V30 1280 H 120.224 0.388322 -1.57174 0
M  V30 1281 H 122.216 3.41896 -2.1654 0
M  V30 1282 H 120.786 2.85992 -1.26204 0
M  V30 1283 H 120.006 1.79657 -3.50881 0
M  V30 1284 H 121.294 2.72512 -4.29668 0
M  V30 1285 H 120.692 5.18004 -2.2735 0
M  V30 1286 H 119.249 5.8036 -2.96691 0
M  V30 1287 N 122.682 1.50554 0.465978 0
M  V30 1288 C 123.645 1.69233 1.54574 0
M  V30 1289 C 124.645 0.562901 1.50626 0
M  V30 1290 O 125.835 0.830016 1.53155 0
M  V30 1291 C 122.967 1.7223 2.94193 0
M  V30 1292 H 124.16 2.65571 1.39327 0
M  V30 1293 H 121.713 1.40111 0.692711 0
M  V30 1294 H 122.448 0.77603 3.14878 0
M  V30 1295 H 122.233 2.54285 2.98466 0
M  V30 1296 H 123.723 1.88618 3.72576 0
M  V30 1297 N 124.16 -0.719506 1.40217 0
M  V30 1298 C 125.07 -1.86378 1.42479 0
M  V30 1299 C 126.086 -1.71073 0.317834 0
M  V30 1300 O 127.262 -1.93406 0.561794 0
M  V30 1301 C 124.327 -3.22136 1.28178 0
M  V30 1302 C 123.388 -3.49723 2.48982 0
M  V30 1303 C 122.621 -4.79004 2.35353 0
M  V30 1304 O 122.844 -5.53821 1.36524 0
M  V30 1305 O 121.778 -5.06839 3.2465 0
M  V30 1306 H 125.604 -1.87425 2.38968 0
M  V30 1307 H 123.189 -0.869405 1.21498 0
M  V30 1308 H 125.071 -4.03234 1.22395 0
M  V30 1309 H 123.746 -3.21825 0.347934 0
M  V30 1310 H 122.653 -2.6865 2.60342 0
M  V30 1311 H 123.986 -3.54828 3.41113 0
M  V30 1312 N 125.638 -1.25649 -0.95132 0
M  V30 1313 C 126.548 -1.08073 -2.08224 0
M  V30 1314 C 127.564 -0.0169666 -1.73992 0
M  V30 1315 O 128.74 -0.218593 -2.0021 0
M  V30 1316 C 125.805 -0.704922 -3.39458 0
M  V30 1317 C 124.866 -1.84699 -3.87537 0
M  V30 1318 C 124.099 -1.48902 -5.12508 0
M  V30 1319 O 124.322 -0.386156 -5.69091 0
M  V30 1320 O 123.256 -2.32033 -5.55378 0
M  V30 1321 H 127.082 -2.02924 -2.25954 0
M  V30 1322 H 124.667 -1.04618 -1.06656 0
M  V30 1323 H 126.549 -0.507609 -4.18332 0
M  V30 1324 H 125.224 0.214291 -3.2299 0
M  V30 1325 H 124.131 -2.09919 -3.09653 0
M  V30 1326 H 125.464 -2.74557 -4.08509 0
M  V30 1327 N 127.117 1.15442 -1.07289 0
M  V30 1328 C 128.363 1.86489 -0.796846 0
M  V30 1329 C 128.696 1.82078 0.675371 0
M  V30 1330 O 127.971 1.24346 1.4956 0
M  V30 1331 C 128.254 3.35626 -1.30489 0
M  V30 1332 C 128.107 3.48673 -2.84161 0
M  V30 1333 C 129.426 4.30357 -0.920907 0
M  V30 1334 H 126.545 0.677144 -0.290939 0
M  V30 1335 H 129.187 1.35633 -1.33056 0
M  V30 1336 H 127.337 3.79068 -0.850883 0
M  V30 1337 H 129.009 3.14099 -3.37846 0
M  V30 1338 H 127.252 2.90253 -3.22391 0
M  V30 1339 H 127.923 4.53453 -3.14777 0
M  V30 1340 H 130.399 3.94871 -1.3121 0
M  V30 1341 H 129.275 5.33193 -1.30372 0
M  V30 1342 H 129.536 4.4176 0.173226 0
M  V30 1343 N 128.595 0.856903 1.32268 0
M  V30 1344 C 130.011 0.547061 1.49931 0
M  V30 1345 C 130.211 -0.921781 1.7918 0
M  V30 1346 O 129.267 -1.70469 1.8627 0
M  V30 1347 C 130.58 1.43599 2.64196 0
M  V30 1348 C 132.128 1.43665 2.78081 0
M  V30 1349 C 132.603 2.31085 3.95428 0
M  V30 1350 N 134.094 2.28893 4.02694 0
M  V30 1351 C 134.829 2.93262 4.92732 0
M  V30 1352 N 134.325 3.66751 5.87763 0
M  V30 1353 N 136.118 2.82638 4.85873 0
M  V30 1354 H 128.269 1.8075 1.11549 0
M  V30 1355 H 130.532 0.772144 0.549997 0
M  V30 1356 H 130.238 2.48058 2.49319 0
M  V30 1357 H 130.112 1.12502 3.60032 0
M  V30 1358 H 132.499 0.399701 2.92381 0
M  V30 1359 H 132.58 1.7878 1.82952 0
M  V30 1360 H 132.224 3.34849 3.81888 0
M  V30 1361 H 132.154 1.93302 4.89839 0
M  V30 1362 H 134.645 1.75466 3.34694 0
M  V30 1363 H 134.958 4.13027 6.53168 0
M  V30 1364 H 133.303 3.70859 5.87783 0
M  V30 1365 H 136.494 2.24774 4.10602 0
M  V30 1366 H 136.667 3.33084 5.55841 0
M  V30 1367 N 130.073 -1.45103 0.615059 0
M  V30 1368 C 131.02 -2.30586 -0.0993978 0
M  V30 1369 C 131.99 -1.42544 -0.852669 0
M  V30 1370 O 133.175 -1.71465 -0.836917 0
M  V30 1371 C 130.315 -3.27572 -1.08583 0
M  V30 1372 C 129.428 -4.30717 -0.332656 0
M  V30 1373 C 128.563 -5.14807 -1.30947 0
M  V30 1374 C 127.602 -6.09673 -0.544538 0
M  V30 1375 N 126.739 -6.86517 -1.47101 0
M  V30 1376 H 131.579 -2.91144 0.635542 0
M  V30 1377 H 129.116 -1.4346 0.325206 0
M  V30 1378 H 131.074 -3.82276 -1.67095 0
M  V30 1379 H 129.704 -2.68751 -1.78809 0
M  V30 1380 H 128.756 -3.78615 0.368107 0
M  V30 1381 H 130.068 -4.98102 0.263842 0
M  V30 1382 H 129.222 -5.73948 -1.96643 0
M  V30 1383 H 127.961 -4.47458 -1.9399 0
M  V30 1384 H 126.966 -5.49656 0.126003 0
M  V30 1385 H 128.191 -6.79052 0.080947 0
M  V30 1386 H 126.137 -6.21851 -2.08895 0
M  V30 1387 H 126.054 -7.50281 -0.928137 0
M  V30 1388 H 127.322 -7.50194 -2.11731 0
M  V30 1389 N 131.551 -0.354651 -1.53558 0
M  V30 1390 C 132.797 0.238797 -2.01389 0
M  V30 1391 C 133.13 1.49309 -1.2418 0
M  V30 1392 O 132.405 1.91638 -0.332457 0
M  V30 1393 C 132.688 0.541771 -3.56001 0
M  V30 1394 C 132.541 -0.725388 -4.43912 0
M  V30 1395 C 133.86 1.34685 -4.18984 0
M  V30 1396 H 130.979 0.0853177 -0.732045 0
M  V30 1397 H 133.621 -0.477384 -1.83905 0
M  V30 1398 H 131.771 1.15189 -3.71031 0
M  V30 1399 H 133.443 -1.36313 -4.407 0
M  V30 1400 H 131.686 -1.34801 -4.12324 0
M  V30 1401 H 132.357 -0.468505 -5.50008 0
M  V30 1402 H 134.833 0.830837 -4.07721 0
M  V30 1403 H 133.709 1.52759 -5.27215 0
M  V30 1404 H 133.97 2.35221 -3.74331 0
M  V30 1405 N 133.029 1.57378 -0.0835403 0
M  V30 1406 C 133.976 2.13384 0.879539 0
M  V30 1407 C 134.946 1.04936 1.28754 0
M  V30 1408 O 136.131 1.32662 1.37133 0
M  V30 1409 C 133.271 2.70932 2.13752 0
M  V30 1410 C 132.384 3.93575 1.7811 0
M  V30 1411 C 131.519 4.39326 2.98607 0
M  V30 1412 C 130.558 5.54587 2.59037 0
M  V30 1413 N 129.695 5.95243 3.72331 0
M  V30 1414 H 134.535 2.9537 0.395076 0
M  V30 1415 H 132.072 1.45953 0.183349 0
M  V30 1416 H 134.03 3.02411 2.87408 0
M  V30 1417 H 132.66 1.91693 2.59718 0
M  V30 1418 H 131.712 3.68483 0.94469 0
M  V30 1419 H 133.024 4.77258 1.45005 0
M  V30 1420 H 132.178 4.72528 3.80529 0
M  V30 1421 H 130.917 3.5452 3.34913 0
M  V30 1422 H 129.922 5.21024 1.75539 0
M  V30 1423 H 131.147 6.41133 2.23887 0
M  V30 1424 H 129.093 5.13385 4.08378 0
M  V30 1425 H 129.01 6.73694 3.43034 0
M  V30 1426 H 130.278 6.33072 4.54797 0
M  V30 1427 N 134.507 -0.190092 1.56449 0
M  V30 1428 C 135.923 -0.54113 1.50146 0
M  V30 1429 C 136.123 -1.85603 0.784465 0
M  V30 1430 O 135.179 -2.5024 0.337051 0
M  V30 1431 C 136.492 -0.591241 2.9483 0
M  V30 1432 C 138.04 -0.679732 3.0553 0
M  V30 1433 C 138.515 -0.760908 4.51635 0
M  V30 1434 N 140.006 -0.824302 4.55806 0
M  V30 1435 C 140.741 -0.907365 5.66175 0
M  V30 1436 N 140.237 -0.952422 6.86222 0
M  V30 1437 N 142.03 -0.94494 5.541 0
M  V30 1438 H 134.181 0.67235 2.01478 0
M  V30 1439 H 136.444 0.240127 0.917084 0
M  V30 1440 H 136.15 0.305905 3.50367 0
M  V30 1441 H 136.024 -1.44422 3.48457 0
M  V30 1442 H 138.411 -1.56731 2.50039 0
M  V30 1443 H 138.492 0.199549 2.5502 0
M  V30 1444 H 138.136 0.122336 5.07753 0
M  V30 1445 H 138.066 -1.65606 4.99882 0
M  V30 1446 H 140.557 -0.798526 3.69367 0
M  V30 1447 H 140.87 -1.01645 7.66086 0
M  V30 1448 H 139.215 -0.921014 6.8887 0
M  V30 1449 H 142.406 -0.906612 4.59236 0
M  V30 1450 H 142.579 -1.00622 6.4014 0
M  V30 1451 N 135.985 -1.50799 -0.457987 0
M  V30 1452 C 137.21 -1.66496 -1.23668 0
M  V30 1453 C 137.635 -0.353288 -1.84752 0
M  V30 1454 O 136.993 0.684346 -1.67888 0
M  V30 1455 C 137.041 -2.76763 -2.3116 0
M  V30 1456 O 136.145 -2.38928 -3.36136 0
M  V30 1457 H 135.486 -0.555828 -0.363252 0
M  V30 1458 H 138.016 -1.9725 -0.543474 0
M  V30 1459 H 138.026 -3.00232 -2.76269 0
M  V30 1460 H 136.701 -3.71954 -1.86073 0
M  V30 1461 H 135.278 -2.25953 -2.96647 0
M  V30 1462 N 137.463 0.71206 -1.40597 0
M  V30 1463 C 138.373 1.8562 -1.43466 0
M  V30 1464 C 139.389 1.70902 -0.326902 0
M  V30 1465 O 140.565 1.93105 -0.572043 0
M  V30 1466 C 137.63 3.21451 -1.29884 0
M  V30 1467 C 136.691 3.48398 -2.50833 0
M  V30 1468 C 135.924 4.77749 -2.3789 0
M  V30 1469 O 136.147 5.53089 -1.39459 0
M  V30 1470 O 135.081 5.05111 -3.27333 0
M  V30 1471 H 138.907 1.86155 -2.39958 0
M  V30 1472 H 136.492 0.86295 -1.21957 0
M  V30 1473 H 138.374 4.02579 -1.24531 0
M  V30 1474 H 137.049 3.21636 -0.364997 0
M  V30 1475 H 135.956 2.67265 -2.61763 0
M  V30 1476 H 137.289 3.53014 -3.4299 0
M  V30 1477 N 138.941 1.26152 0.944643 0
M  V30 1478 C 139.889 1.07215 2.06417 0
M  V30 1479 C 140.883 9.2007e-05 1.694 0
M  V30 1480 O 142.089 0.1565 1.79318 0
M  V30 1481 H 138.464 0.329837 0.675805 0
M  V30 1482 H 140.435 2.02099 2.19541 0
M  V30 1483 C 139.184 0.718197 3.40202 0
M  V30 1484 H 138.507 1.53497 3.69159 0
M  V30 1485 H 139.947 0.625459 4.19361 0
M  V30 1486 C 138.406 -0.576435 3.31932 0
M  V30 1487 O 138.936 -1.61574 3.67773 0
M  V30 1488 N 137.142 -0.565781 2.85039 0
M  V30 1489 H 136.689 0.280367 2.5607 0
M  V30 1490 H 136.647 -1.43213 2.79888 0
M  V30 1491 N 140.419 -1.14872 1.07899 0
M  V30 1492 C 141.667 -1.85422 0.803941 0
M  V30 1493 C 141.988 -1.83051 -0.67211 0
M  V30 1494 O 141.258 -1.27532 -1.48703 0
M  V30 1495 H 139.838 -0.686537 0.294408 0
M  V30 1496 H 142.5 -1.39226 1.3639 0
M  V30 1497 H 141.596 -2.90399 1.14346 0
M  V30 1498 N 141.898 -0.863906 -1.31812 0
M  V30 1499 C 143.144 -0.472535 -1.97218 0
M  V30 1500 C 143.477 0.971394 -1.68159 0
M  V30 1501 O 142.752 1.68309 -0.974798 0
M  V30 1502 C 143.035 -0.723054 -3.52766 0
M  V30 1503 C 142.888 -2.21608 -3.91421 0
M  V30 1504 C 144.207 -0.185522 -4.39709 0
M  V30 1505 H 141.326 -0.173158 -0.71637 0
M  V30 1506 H 143.968 -1.08403 -1.56041 0
M  V30 1507 H 142.118 -0.202577 -3.87971 0
M  V30 1508 H 143.79 -2.80334 -3.66347 0
M  V30 1509 H 142.033 -2.691 -3.40246 0
M  V30 1510 H 142.704 -2.34203 -4.99853 0
M  V30 1511 H 145.18 -0.630726 -4.11292 0
M  V30 1512 H 144.056 -0.390306 -5.47511 0
M  V30 1513 H 144.317 0.912229 -4.32586 0
M  V30 1514 N 143.376 1.44774 -0.622745 0
M  V30 1515 C 144.625 2.01334 -0.121397 0
M  V30 1516 C 144.938 1.49505 1.26125 0
M  V30 1517 O 146.144 1.98139 1.85616 0
M  V30 1518 C 144.6 3.59516 -0.166298 0
M  V30 1519 C 144.208 4.20342 -1.54974 0
M  V30 1520 C 145.952 4.23582 0.279021 0
M  V30 1521 C 143.859 5.70721 -1.55021 0
M  V30 1522 H 142.789 0.752851 -0.0416172 0
M  V30 1523 H 145.44 1.66083 -0.780309 0
M  V30 1524 H 143.822 3.92027 0.559557 0
M  V30 1525 H 144.996 3.99381 -2.29851 0
M  V30 1526 H 143.311 3.68529 -1.93843 0
M  V30 1527 H 145.908 5.33868 0.298083 0
M  V30 1528 H 146.251 3.95327 1.30471 0
M  V30 1529 H 146.784 3.95843 -0.394063 0
M  V30 1530 H 143.523 6.03698 -2.55399 0
M  V30 1531 H 143.043 5.93829 -0.844245 0
M  V30 1532 H 144.722 6.34203 -1.28047 0
M  V30 1533 N 144.854 0.36279 1.53368 0
M  V30 1534 C 146.103 -0.22888 2.00397 0
M  V30 1535 C 146.416 -1.50096 1.25421 0
M  V30 1536 O 147.622 -2.17106 1.63025 0
M  V30 1537 C 146.078 -0.458417 3.56969 0
M  V30 1538 C 145.686 0.798877 4.4082 0
M  V30 1539 C 147.43 -1.00789 4.12361 0
M  V30 1540 C 145.337 0.539078 5.88938 0
M  V30 1541 H 144.267 -0.089305 0.748693 0
M  V30 1542 H 146.918 0.481099 1.77081 0
M  V30 1543 H 145.3 -1.22959 3.76427 0
M  V30 1544 H 146.474 1.57262 4.33134 0
M  V30 1545 H 144.789 1.27137 3.96516 0
M  V30 1546 H 147.386 -1.21754 5.20653 0
M  V30 1547 H 147.729 -1.9692 3.66781 0
M  V30 1548 H 148.262 -0.296961 3.9669 0
M  V30 1549 H 145.001 1.47064 6.3879 0
M  V30 1550 H 144.521 -0.196222 5.99479 0
M  V30 1551 H 146.2 0.163542 6.46793 0
M  V30 1552 N 146.332 -1.57332 0.0918853 0
M  V30 1553 C 147.609 -1.85691 -0.614668 0
M  V30 1554 C 147.989 -0.988146 -1.86545 0
M  V30 1555 O 147.337 -0.0597055 -2.28422 0
M  V30 1556 C 147.547 -3.36294 -0.933126 0
M  V30 1557 C 148.895 -4.04275 -1.29796 0
M  V30 1558 O 149.919 -3.41157 -1.02424 0
M  V30 1559 O 148.778 -5.1564 -1.81047 0
M  V30 1560 H 145.872 -0.767802 -0.307261 0
M  V30 1561 H 148.418 -1.69244 0.12434 0
M  V30 1562 H 147.19 -3.91273 -0.0456404 0
M  V30 1563 H 146.813 -3.58076 -1.72822 0
M  V30 1564 N 147.81 0.181792 -1.56548 0
M  V30 1565 C 149.221 0.745244 -1.71181 0
M  V30 1566 C 149.572 1.83262 -0.70068 0
M  V30 1567 O 148.697 2.15946 0.140154 0
M  V30 1568 C 149.292 1.35859 -3.10367 0
M  V30 1569 C 147.851 1.86898 -3.2672 0
M  V30 1570 C 146.998 0.743942 -2.67134 0
M  V30 1571 H 149.949 -0.0434661 -1.5864 0
M  V30 1572 H 149.97 2.22817 -3.08436 0
M  V30 1573 H 149.482 0.566948 -3.83937 0
M  V30 1574 H 147.583 2.68738 -2.5809 0
M  V30 1575 H 147.696 2.02162 -4.34359 0
M  V30 1576 H 146.06 1.16169 -2.26665 0
M  V30 1577 H 146.843 -0.035676 -3.43281 0
M  V30 1578 N 149.288 1.51039 0.449983 0
M  V30 1579 C 150.535 1.63081 1.20045 0
M  V30 1580 C 150.863 0.341024 1.91487 0
M  V30 1581 O 150.118 -0.674276 1.83717 0
M  V30 1582 C 150.417 2.77556 2.25161 0
M  V30 1583 C 150.083 4.17289 1.70823 0
M  V30 1584 C 148.745 4.55305 1.55725 0
M  V30 1585 C 151.097 5.04536 1.3074 0
M  V30 1586 C 148.425 5.78287 0.989999 0
M  V30 1587 C 150.777 6.28085 0.754482 0
M  V30 1588 C 149.441 6.64885 0.590308 0
M  V30 1589 H 148.711 0.596755 0.439277 0
M  V30 1590 H 151.358 1.85037 0.49333 0
M  V30 1591 H 149.663 2.49771 3.01863 0
M  V30 1592 H 151.36 2.84073 2.83026 0
M  V30 1593 H 147.95 3.8731 1.83546 0
M  V30 1594 H 152.134 4.75782 1.41229 0
M  V30 1595 H 147.39 6.05456 0.850451 0
M  V30 1596 H 151.564 6.95038 0.435324 0
M  V30 1597 H 149.191 7.60055 0.14862 0
M  V30 1598 N 150.766 -0.704594 1.40972 0
M  V30 1599 C 152.013 -1.46458 1.39844 0
M  V30 1600 C 152.341 -1.94499 0.00447594 0
M  V30 1601 O 151.596 -1.69275 -0.982057 0
M  V30 1602 C 151.895 -2.698 2.34399 0
M  V30 1603 C 151.561 -2.40464 3.81429 0
M  V30 1604 C 150.223 -2.32174 4.21484 0
M  V30 1605 C 152.575 -2.16086 4.74296 0
M  V30 1606 C 149.903 -1.97589 5.52427 0
M  V30 1607 C 152.255 -1.83011 6.05549 0
M  V30 1608 C 150.919 -1.7321 6.44635 0
M  V30 1609 H 150.189 -0.535927 0.511725 0
M  V30 1610 H 152.836 -0.806124 1.73706 0
M  V30 1611 H 151.141 -3.40536 1.93759 0
M  V30 1612 H 152.838 -3.27919 2.30804 0
M  V30 1613 H 149.428 -2.47808 3.49699 0
M  V30 1614 H 153.612 -2.2144 4.4416 0
M  V30 1615 H 148.868 -1.88547 5.81601 0
M  V30 1616 H 153.042 -1.63164 6.77016 0
M  V30 1617 H 150.669 -1.46179 7.46013 0
M  V30 1618 N 152.244 -1.26651 -0.937939 0
M  V30 1619 C 153.174 -1.10993 -2.05433 0
M  V30 1620 C 154.155 -0.0142161 -1.70094 0
M  V30 1621 O 155.34 -0.186837 -1.93299 0
M  V30 1622 C 152.47 -0.745561 -3.39203 0
M  V30 1623 C 151.424 -1.79337 -3.88616 0
M  V30 1624 C 150.75 -1.28324 -5.19073 0
M  V30 1625 C 152.05 -3.19553 -4.13138 0
M  V30 1626 H 153.744 -2.0438 -2.1879 0
M  V30 1627 H 151.29 -0.984041 -1.05131 0
M  V30 1628 H 153.243 -0.622888 -4.16771 0
M  V30 1629 H 151.967 0.22401 -3.25831 0
M  V30 1630 H 150.626 -1.90477 -3.13231 0
M  V30 1631 H 150.274 -0.303414 -5.02084 0
M  V30 1632 H 149.974 -1.98369 -5.53103 0
M  V30 1633 H 151.498 -1.1733 -5.99221 0
M  V30 1634 H 152.912 -3.11471 -4.81309 0
M  V30 1635 H 151.309 -3.87218 -4.58457 0
M  V30 1636 H 152.379 -3.65368 -3.18801 0
M  V30 1637 N 153.722 1.14298 -1.08507 0
M  V30 1638 C 154.95 1.89219 -0.836876 0
M  V30 1639 C 155.365 1.78638 0.611054 0
M  V30 1640 O 154.722 1.14643 1.41998 0
M  V30 1641 C 154.773 3.39158 -1.25116 0
M  V30 1642 O 154.494 3.49449 -2.64229 0
M  V30 1643 C 155.995 4.31073 -1.03398 0
M  V30 1644 H 153.215 0.599328 -0.301739 0
M  V30 1645 H 155.759 1.44746 -1.44461 0
M  V30 1646 H 153.914 3.81251 -0.687514 0
M  V30 1647 H 154.328 4.42589 -2.81452 0
M  V30 1648 H 155.802 5.34646 -1.37323 0
M  V30 1649 H 156.279 4.3919 0.0289259 0
M  V30 1650 H 156.885 3.94738 -1.58311 0
M  V30 1651 N 155.201 0.870884 1.31352 0
M  V30 1652 C 156.612 0.534714 1.78879 0
M  V30 1653 C 156.963 -0.948423 1.71754 0
M  V30 1654 O 156.088 -1.74055 1.28584 0
M  V30 1655 C 156.683 0.963839 3.24801 0
M  V30 1656 C 155.242 0.679311 3.70219 0
M  V30 1657 C 154.389 1.15465 2.52117 0
M  V30 1658 H 157.34 1.05651 1.18421 0
M  V30 1659 H 157.361 0.286892 3.79417 0
M  V30 1660 H 156.873 2.04332 3.29955 0
M  V30 1661 H 154.974 -0.388769 3.70566 0
M  V30 1662 H 155.087 1.25698 4.62317 0
M  V30 1663 H 153.451 0.574383 2.48139 0
M  V30 1664 H 154.234 2.24157 2.60016 0
M  V30 1665 N 156.679 -1.44442 0.630414 0
M  V30 1666 C 157.589 -2.34476 -0.0761693 0
M  V30 1667 C 158.605 -1.52576 -0.836449 0
M  V30 1668 O 159.781 -1.85307 -0.788874 0
M  V30 1669 C 156.846 -3.30545 -1.04599 0
M  V30 1670 C 155.907 -4.28352 -0.28516 0
M  V30 1671 C 155.14 -5.19831 -1.20878 0
M  V30 1672 O 155.363 -5.15223 -2.44747 0
M  V30 1673 O 154.297 -5.97892 -0.693491 0
M  V30 1674 H 158.123 -2.96345 0.664324 0
M  V30 1675 H 155.708 -1.44203 0.39061 0
M  V30 1676 H 157.59 -3.89681 -1.60396 0
M  V30 1677 H 156.265 -2.7121 -1.76711 0
M  V30 1678 H 155.172 -3.72764 0.315837 0
M  V30 1679 H 156.505 -4.90605 0.395924 0
M  V30 1680 N 158.157 -0.370918 -1.53173 0
M  V30 1681 C 159.107 0.489588 -2.22681 0
M  V30 1682 C 160.091 1.04442 -1.22395 0
M  V30 1683 O 161.283 0.973578 -1.47819 0
M  V30 1684 C 158.412 1.626 -3.02351 0
M  V30 1685 C 157.498 1.08379 -4.10018 0
M  V30 1686 N 157.889 0.265004 -5.05105 0
M  V30 1687 C 156.187 1.35809 -4.2482 0
M  V30 1688 C 156.888 -0.0324755 -5.81691 0
M  V30 1689 N 155.864 0.566581 -5.40639 0
M  V30 1690 H 159.666 -0.142729 -2.93553 0
M  V30 1691 H 157.18 -0.179221 -1.61408 0
M  V30 1692 H 159.177 2.2547 -3.50669 0
M  V30 1693 H 157.837 2.26132 -2.33011 0
M  V30 1694 H 158.848 -0.0962352 -5.17811 0
M  V30 1695 H 155.525 1.9958 -3.66707 0
M  V30 1696 H 156.915 -0.69473 -6.68299 0
M  V30 1697 N 159.635 1.57281 -0.100228 0
M  V30 1698 C 160.582 2.14305 0.856858 0
M  V30 1699 C 161.552 1.06296 1.27634 0
M  V30 1700 O 162.737 1.34109 1.35718 0
M  V30 1701 C 159.877 2.73184 2.10866 0
M  V30 1702 C 158.99 3.95442 1.73925 0
M  V30 1703 C 158.125 4.42468 2.93931 0
M  V30 1704 C 157.164 5.57303 2.5314 0
M  V30 1705 N 156.301 5.99158 3.65997 0
M  V30 1706 H 161.141 2.95772 0.363726 0
M  V30 1707 H 158.678 1.46139 0.167858 0
M  V30 1708 H 160.636 3.05442 2.84185 0
M  V30 1709 H 159.266 1.94437 2.57671 0
M  V30 1710 H 158.318 3.69464 0.905554 0
M  V30 1711 H 159.63 4.78769 1.39935 0
M  V30 1712 H 158.784 4.76537 3.75496 0
M  V30 1713 H 157.523 3.58052 3.31134 0
M  V30 1714 H 156.528 5.22857 1.70003 0
M  V30 1715 H 157.753 6.43471 2.17075 0
M  V30 1716 H 155.699 5.17687 4.02909 0
M  V30 1717 H 155.616 6.77295 3.35869 0
M  V30 1718 H 156.884 6.3786 4.48057 0
M  V30 1719 N 161.113 -0.173488 1.56642 0
M  V30 1720 C 162.359 -0.891784 1.8214 0
M  V30 1721 C 162.692 -1.8199 0.677736 0
M  V30 1722 O 161.967 -1.91842 -0.320446 0
M  V30 1723 C 162.25 -1.68933 3.18015 0
M  V30 1724 C 162.103 -0.784487 4.42906 0
M  V30 1725 C 163.422 -2.65748 3.50808 0
M  V30 1726 H 160.541 -0.322761 0.662567 0
M  V30 1727 H 163.183 -0.158095 1.89341 0
M  V30 1728 H 161.333 -2.31482 3.12007 0
M  V30 1729 H 163.005 -0.172046 4.60979 0
M  V30 1730 H 161.248 -0.0924117 4.33702 0
M  V30 1731 H 161.919 -1.37799 5.34524 0
M  V30 1732 H 164.395 -2.13327 3.57255 0
M  V30 1733 H 163.271 -3.18619 4.4696 0
M  V30 1734 H 163.532 -3.45842 2.75401 0
M  V30 1735 N 162.591 -1.51276 -0.441967 0
M  V30 1736 C 163.816 -1.67799 -1.21895 0
M  V30 1737 C 164.241 -0.372864 -1.84367 0
M  V30 1738 O 163.599 0.666501 -1.68604 0
M  V30 1739 C 163.647 -2.79199 -2.28211 0
M  V30 1740 O 162.751 -2.42479 -3.33583 0
M  V30 1741 H 162.092 -0.559649 -0.357336 0
M  V30 1742 H 164.622 -1.97815 -0.522522 0
M  V30 1743 H 164.632 -3.03146 -2.73069 0
M  V30 1744 H 163.307 -3.73906 -1.82118 0
M  V30 1745 H 161.884 -2.29087 -2.94234 0
M  V30 1746 N 164.069 0.697108 -1.41344 0
M  V30 1747 C 164.979 1.84088 -1.45427 0
M  V30 1748 C 165.995 1.70545 -0.34501 0
M  V30 1749 O 167.171 1.92488 -0.592492 0
M  V30 1750 C 164.236 3.20056 -1.33286 0
M  V30 1751 C 163.297 3.45718 -2.54514 0
M  V30 1752 C 162.53 4.75199 -2.42944 0
M  V30 1753 O 162.753 5.51579 -1.45318 0
M  V30 1754 O 161.687 5.0161 -3.32672 0
M  V30 1755 H 165.513 1.836 -2.41919 0
M  V30 1756 H 163.098 0.849966 -1.22866 0
M  V30 1757 H 164.98 4.01236 -1.28794 0
M  V30 1758 H 163.655 3.2123 -0.39909 0
M  V30 1759 H 162.562 2.64474 -2.64583 0
M  V30 1760 H 163.895 3.49356 -3.46715 0
M  V30 1761 N 165.547 1.27147 0.931209 0
M  V30 1762 C 166.51 1.09615 2.01289 0
M  V30 1763 C 167.51 0.0412581 1.60747 0
M  V30 1764 O 168.7 0.285545 1.71844 0
M  V30 1765 C 165.832 0.669447 3.34262 0
M  V30 1766 H 167.025 2.05662 2.18273 0
M  V30 1767 H 164.578 1.09885 1.11153 0
M  V30 1768 H 165.313 -0.292572 3.22978 0
M  V30 1769 H 165.098 1.43127 3.65044 0
M  V30 1770 H 166.588 0.568921 4.13706 0
M  V30 1771 N 167.025 -1.13721 1.09112 0
M  V30 1772 C 167.935 -2.22638 0.73957 0
M  V30 1773 C 168.951 -1.72091 -0.257068 0
M  V30 1774 O 170.127 -2.01155 -0.0992154 0
M  V30 1775 C 167.192 -3.46322 0.16191 0
M  V30 1776 C 166.253 -4.11775 1.21408 0
M  V30 1777 C 165.486 -5.29555 0.663891 0
M  V30 1778 O 165.709 -5.68077 -0.514274 0
M  V30 1779 O 164.643 -5.84973 1.41738 0
M  V30 1780 H 168.469 -2.55074 1.64836 0
M  V30 1781 H 166.054 -1.21791 0.865289 0
M  V30 1782 H 167.936 -4.21107 -0.157073 0
M  V30 1783 H 166.611 -3.15593 -0.719932 0
M  V30 1784 H 165.518 -3.3883 1.58571 0
M  V30 1785 H 166.851 -4.46627 2.06845 0
M  V30 1786 N 168.503 -0.877838 -1.30888 0
M  V30 1787 C 169.413 -0.343096 -2.32078 0
M  V30 1788 C 170.429 0.551022 -1.65045 0
M  V30 1789 O 171.605 0.445854 -1.96403 0
M  V30 1790 C 168.67 0.439905 -3.43898 0
M  V30 1791 C 167.731 -0.483111 -4.26573 0
M  V30 1792 C 166.964 0.262616 -5.33053 0
M  V30 1793 O 167.187 1.48967 -5.50604 0
M  V30 1794 O 166.121 -0.383593 -6.00676 0
M  V30 1795 H 169.947 -1.18203 -2.79753 0
M  V30 1796 H 167.532 -0.64145 -1.34929 0
M  V30 1797 H 169.414 0.883504 -4.12034 0
M  V30 1798 H 168.089 1.25526 -2.98371 0
M  V30 1799 H 166.996 -0.975374 -3.61161 0
M  V30 1800 H 168.329 -1.26427 -4.75686 0
M  V30 1801 N 169.982 1.44106 -0.638065 0
M  V30 1802 C 170.912 2.33448 0.0494287 0
M  V30 1803 C 171.893 1.48606 0.827672 0
M  V30 1804 O 173.078 1.77308 0.792173 0
M  V30 1805 C 170.208 3.31771 1.02691 0
M  V30 1806 C 169.162 4.26485 0.359823 0
M  V30 1807 C 168.488 5.14729 1.44769 0
M  V30 1808 C 169.788 5.17056 -0.738296 0
M  V30 1809 H 171.482 2.91183 -0.696636 0
M  V30 1810 H 169.028 1.40014 -0.336456 0
M  V30 1811 H 170.981 3.93161 1.51666 0
M  V30 1812 H 169.705 2.7226 1.80395 0
M  V30 1813 H 168.364 3.66437 -0.10934 0
M  V30 1814 H 168.012 4.51566 2.21578 0
M  V30 1815 H 167.712 5.78913 1.00668 0
M  V30 1816 H 169.236 5.78991 1.93911 0
M  V30 1817 H 170.65 5.72342 -0.331354 0
M  V30 1818 H 169.047 5.89879 -1.10286 0
M  V30 1819 H 170.117 4.57652 -1.60258 0
M  V30 1820 N 171.46 0.379036 1.52974 0
M  V30 1821 C 172.393 -0.504932 2.22544 0
M  V30 1822 C 173.371 -1.0723 1.22231 0
M  V30 1823 O 174.555 -1.12589 1.51182 0
M  V30 1824 C 171.682 -1.69794 2.93066 0
M  V30 1825 C 170.728 -1.25678 4.07563 0
M  V30 1826 S 171.561 -0.246852 5.34931 0
M  V30 1827 C 172.717 -1.44588 6.08971 0
M  V30 1828 H 172.95 0.0858666 2.97176 0
M  V30 1829 H 170.483 0.163183 1.53535 0
M  V30 1830 H 172.441 -2.38219 3.34308 0
M  V30 1831 H 171.102 -2.26002 2.18133 0
M  V30 1832 H 170.295 -2.14725 4.5597 0
M  V30 1833 H 169.897 -0.651584 3.6828 0
M  V30 1834 H 172.189 -2.37469 6.34519 0
M  V30 1835 H 173.132 -1.00292 7.00962 0
M  V30 1836 H 173.54 -1.65804 5.39601 0
M  V30 1837 N 172.938 -1.57226 0.108567 0
M  V30 1838 C 173.87 -2.11809 -0.875752 0
M  V30 1839 C 174.883 -1.05839 -1.23701 0
M  V30 1840 O 176.072 -1.33245 -1.18778 0
M  V30 1841 C 173.172 -2.59411 -2.18081 0
M  V30 1842 C 172.345 -3.89364 -1.99284 0
M  V30 1843 C 171.404 -4.22672 -3.13424 0
M  V30 1844 O 170.43 -4.91668 -2.86795 0
M  V30 1845 N 171.632 -3.79154 -4.3957 0
M  V30 1846 H 174.397 -2.9689 -0.409477 0
M  V30 1847 H 171.958 -1.61721 -0.076158 0
M  V30 1848 H 173.95 -2.7873 -2.93414 0
M  V30 1849 H 172.52 -1.79268 -2.5609 0
M  V30 1850 H 171.74 -3.79059 -1.08203 0
M  V30 1851 H 173.028 -4.74358 -1.84017 0
M  V30 1852 H 172.426 -3.23486 -4.64083 0
M  V30 1853 H 170.983 -4.03602 -5.11809 0
M  V30 1854 N 174.416 0.165178 -1.56732 0
M  V30 1855 C 175.832 0.517174 -1.50988 0
M  V30 1856 C 176.032 1.84331 -0.813894 0
M  V30 1857 O 175.088 2.49672 -0.37682 0
M  V30 1858 C 176.401 0.544261 -2.95733 0
M  V30 1859 C 177.949 0.631039 -3.06573 0
M  V30 1860 C 178.424 0.68896 -4.52788 0
M  V30 1861 N 179.915 0.751683 -4.5706 0
M  V30 1862 C 180.65 0.817177 -5.67547 0
M  V30 1863 N 180.146 0.843129 -6.8765 0
M  V30 1864 N 181.939 0.856668 -5.55534 0
M  V30 1865 H 174.09 -0.704318 -2.00382 0
M  V30 1866 H 176.353 -0.254687 -0.913148 0
M  V30 1867 H 176.059 -0.361607 -3.49836 0
M  V30 1868 H 175.933 1.3886 -3.5071 0
M  V30 1869 H 178.32 1.52733 -2.52501 0
M  V30 1870 H 178.401 -0.240095 -2.54671 0
M  V30 1871 H 178.045 -0.2031 -5.07494 0
M  V30 1872 H 177.975 1.57633 -5.02454 0
M  V30 1873 H 180.466 0.739661 -3.70591 0
M  V30 1874 H 180.779 0.894448 -7.67606 0
M  V30 1875 H 179.124 0.811304 -6.90248 0
M  V30 1876 H 182.315 0.833437 -4.60621 0
M  V30 1877 H 182.488 0.904247 -6.4166 0
M  V30 1878 N 175.894 1.51508 0.433938 0
M  V30 1879 C 177.124 1.67914 1.20369 0
M  V30 1880 C 177.532 0.377461 1.85397 0
M  V30 1881 O 176.875 -0.654255 1.71654 0
M  V30 1882 C 176.937 2.74045 2.32679 0
M  V30 1883 C 176.601 4.16543 1.87991 0
M  V30 1884 C 177.598 5.01211 1.38145 0
M  V30 1885 C 175.283 4.6266 1.95579 0
M  V30 1886 C 177.277 6.30056 0.964774 0
M  V30 1887 C 174.964 5.91501 1.53523 0
M  V30 1888 C 175.962 6.75027 1.04055 0
M  V30 1889 O 175.65 8.01459 0.625964 0
M  V30 1890 H 175.382 0.566578 0.368735 0
M  V30 1891 H 177.936 1.98709 0.51999 0
M  V30 1892 H 176.166 2.38572 3.04336 0
M  V30 1893 H 177.855 2.79295 2.94532 0
M  V30 1894 H 178.621 4.66783 1.31675 0
M  V30 1895 H 174.5 3.97767 2.33029 0
M  V30 1896 H 178.044 6.95202 0.57796 0
M  V30 1897 H 173.941 6.25442 1.59665 0
M  V30 1898 H 174.709 8.15043 0.751509 0
M  V30 1899 N 177.372 -0.689602 1.41712 0
M  V30 1900 C 178.788 -1.00093 1.24312 0
M  V30 1901 C 178.988 -2.01036 0.136729 0
M  V30 1902 O 178.044 -2.47562 -0.496918 0
M  V30 1903 C 179.357 -1.51985 2.59463 0
M  V30 1904 C 180.905 -1.63838 2.66695 0
M  V30 1905 C 181.38 -2.1913 4.02177 0
M  V30 1906 N 182.871 -2.26483 4.04054 0
M  V30 1907 C 183.606 -2.70306 5.0569 0
M  V30 1908 N 183.102 -3.13691 6.17713 0
M  V30 1909 N 184.895 -2.69923 4.9305 0
M  V30 1910 H 177.046 -0.0210029 2.1239 0
M  V30 1911 H 179.309 -0.0718733 0.945272 0
M  V30 1912 H 179.015 -0.85269 3.41207 0
M  V30 1913 H 178.889 -2.50103 2.82362 0
M  V30 1914 H 181.276 -2.29664 1.85306 0
M  V30 1915 H 181.357 -0.642492 2.476 0
M  V30 1916 H 181.001 -1.53918 4.84016 0
M  V30 1917 H 180.931 -3.19482 4.18615 0
M  V30 1918 H 183.422 -1.95874 3.23174 0
M  V30 1919 H 183.735 -3.45773 6.9113 0
M  V30 1920 H 182.08 -3.11585 6.21241 0
M  V30 1921 H 185.271 -2.35382 4.04614 0
M  V30 1922 H 185.444 -3.03758 5.72394 0
M  V30 1923 N 178.85 -1.27639 -0.924453 0
M  V30 1924 C 180.099 -1.13549 -1.66702 0
M  V30 1925 C 180.412 0.317487 -1.93006 0
M  V30 1926 O 181.618 0.579333 -2.65247 0
M  V30 1927 C 180.074 -1.98426 -3.00259 0
M  V30 1928 C 179.682 -3.484 -2.81641 0
M  V30 1929 C 181.426 -1.92993 -3.78092 0
M  V30 1930 C 179.333 -4.25464 -4.10773 0
M  V30 1931 H 178.263 -0.421351 -0.625283 0
M  V30 1932 H 180.914 -1.52085 -1.02676 0
M  V30 1933 H 179.296 -1.52736 -3.6536 0
M  V30 1934 H 180.47 -4.01973 -2.25287 0
M  V30 1935 H 178.785 -3.55245 -2.17232 0
M  V30 1936 H 181.382 -2.47844 -4.7379 0
M  V30 1937 H 181.725 -0.904281 -4.0636 0
M  V30 1938 H 182.258 -2.36595 -3.19793 0
M  V30 1939 H 178.997 -5.28566 -3.87683 0
M  V30 1940 H 178.517 -3.76667 -4.66779 0
M  V30 1941 H 180.196 -4.34812 -4.79111 0
M  V30 1942 N 180.328 1.1314 -1.09713 0
M  V30 1943 C 181.553 1.88862 -0.857081 0
M  V30 1944 C 181.978 1.78729 0.586304 0
M  V30 1945 O 181.336 1.13692 1.41222 0
M  V30 1946 C 181.384 3.36325 -1.30069 0
M  V30 1947 O 180.488 4.09815 -0.461007 0
M  V30 1948 H 179.829 0.587108 -0.310162 0
M  V30 1949 H 182.359 1.43129 -1.46203 0
M  V30 1950 H 182.369 3.87157 -1.28738 0
M  V30 1951 H 181.044 3.43017 -2.35185 0
M  V30 1952 H 179.621 3.68986 -0.538888 0
M  V30 1953 N 181.806 0.884767 1.30421 0
M  V30 1954 C 183.054 0.502112 1.95763 0
M  V30 1955 C 183.375 -0.951815 1.70192 0
M  V30 1956 O 182.645 -1.6692 1.0254 0
M  V30 1957 H 181.225 0.182694 0.724315 0
M  V30 1958 H 183.887 1.1278 1.58955 0
M  V30 1959 H 182.983 0.672188 3.04775 0
M  V30 1960 N 183.284 -1.43765 0.645699 0
M  V30 1961 C 184.53 -2.02197 0.156271 0
M  V30 1962 C 184.863 -1.50776 -1.22393 0
M  V30 1963 O 184.138 -0.697771 -1.81553 0
M  V30 1964 C 184.421 -3.59749 0.158872 0
M  V30 1965 C 184.274 -4.21419 1.57245 0
M  V30 1966 C 185.593 -4.37149 -0.50879 0
M  V30 1967 H 182.712 -0.734694 0.0582602 0
M  V30 1968 H 185.354 -1.71157 0.824951 0
M  V30 1969 H 183.504 -3.86325 -0.410525 0
M  V30 1970 H 185.176 -4.059 2.19186 0
M  V30 1971 H 183.419 -3.78356 2.122 0
M  V30 1972 H 184.09 -5.30482 1.52619 0
M  V30 1973 H 186.566 -4.16093 -0.024412 0
M  V30 1974 H 185.442 -5.4683 -0.476213 0
M  V30 1975 H 185.703 -4.12839 -1.58165 0
M  V30 1976 N 184.763 -0.387143 -1.52771 0
M  V30 1977 C 186.174 0.0873634 -1.86495 0
M  V30 1978 C 186.525 1.46336 -1.30691 0
M  V30 1979 O 185.65 2.068 -0.637409 0
M  V30 1980 C 186.245 0.165305 -3.38396 0
M  V30 1981 C 184.804 0.584101 -3.7184 0
M  V30 1982 C 183.951 -0.255279 -2.76122 0
M  V30 1983 H 186.902 -0.605104 -1.46711 0
M  V30 1984 H 186.923 0.984848 -3.67534 0
M  V30 1985 H 186.435 -0.836301 -3.78982 0
M  V30 1986 H 184.536 1.59315 -3.36823 0
M  V30 1987 H 184.649 0.343749 -4.77865 0
M  V30 1988 H 183.013 0.279126 -2.53166 0
M  V30 1989 H 183.796 -1.25482 -3.19545 0
M  V30 1990 N 186.241 1.57166 -0.116904 0
M  V30 1991 C 187.49 1.94298 0.541407 0
M  V30 1992 C 187.803 1.00236 1.67964 0
M  V30 1993 O 189.009 1.26826 2.40057 0
M  V30 1994 C 187.465 3.45306 1.01449 0
M  V30 1995 C 187.073 4.47899 -0.0951738 0
M  V30 1996 C 188.817 3.91361 1.6443 0
M  V30 1997 C 186.724 5.90083 0.394491 0
M  V30 1998 H 185.654 0.725308 0.206019 0
M  V30 1999 H 188.305 1.82446 -0.196419 0
M  V30 2000 H 186.687 3.52385 1.80667 0
M  V30 2001 H 187.861 4.52486 -0.871374 0
M  V30 2002 H 186.176 4.11583 -0.631505 0
M  V30 2003 H 188.773 4.95004 2.02176 0
M  V30 2004 H 189.116 3.3122 2.52189 0
M  V30 2005 H 189.649 3.87073 0.917559 0
M  V30 2006 H 186.388 6.53974 -0.447004 0
M  V30 2007 H 185.908 5.88921 1.13722 0
M  V30 2008 H 187.587 6.41307 0.856399 0
M  V30 2009 N 187.719 -0.156864 1.56817 0
M  V30 2010 C 188.965 -0.872416 1.83076 0
M  V30 2011 C 189.298 -1.81261 0.697001 0
M  V30 2012 O 188.573 -1.92171 -0.30008 0
M  V30 2013 C 188.856 -1.65551 3.19789 0
M  V30 2014 C 188.709 -0.737467 4.43713 0
M  V30 2015 C 190.028 -2.62012 3.53606 0
M  V30 2016 H 187.147 -0.315715 0.665953 0
M  V30 2017 H 189.789 -0.138004 1.89498 0
M  V30 2018 H 187.939 -2.28159 3.14445 0
M  V30 2019 H 189.611 -0.123143 4.61136 0
M  V30 2020 H 187.854 -0.0464067 4.33775 0
M  V30 2021 H 188.525 -1.32122 5.35955 0
M  V30 2022 H 191.001 -2.09525 3.59497 0
M  V30 2023 H 189.877 -3.13861 4.50314 0
M  V30 2024 H 190.138 -3.42902 2.79053 0
M  V30 2025 N 189.197 -1.51736 -0.425897 0
M  V30 2026 C 190.107 -1.76738 -1.54275 0
M  V30 2027 C 191.123 -0.65211 -1.61318 0
M  V30 2028 O 192.299 -0.935654 -1.78346 0
M  V30 2029 C 189.364 -1.89755 -2.90162 0
M  V30 2030 C 188.425 -3.13633 -2.93143 0
M  V30 2031 C 187.658 -3.2602 -4.22548 0
M  V30 2032 O 187.881 -2.44067 -5.15546 0
M  V30 2033 O 186.815 -4.19071 -4.32046 0
M  V30 2034 H 190.641 -2.71502 -1.36089 0
M  V30 2035 H 188.226 -1.36376 -0.610069 0
M  V30 2036 H 190.108 -2.00236 -3.70788 0
M  V30 2037 H 188.783 -0.981785 -3.08452 0
M  V30 2038 H 187.69 -3.08622 -2.11431 0
M  V30 2039 H 189.023 -4.04936 -2.798 0
M  V30 2040 N 190.675 0.682077 -1.42076 0
M  V30 2041 C 191.903 1.47057 -1.4554 0
M  V30 2042 C 192.318 1.8869 -0.0645779 0
M  V30 2043 O 191.675 1.57666 0.919115 0
M  V30 2044 C 191.726 2.72442 -2.37609 0
M  V30 2045 O 191.447 2.32559 -3.71279 0
M  V30 2046 C 192.948 3.66069 -2.50017 0
M  V30 2047 H 190.168 0.452737 -0.495248 0
M  V30 2048 H 192.712 0.838695 -1.8651 0
M  V30 2049 H 190.867 3.31835 -1.9991 0
M  V30 2050 H 191.281 3.13475 -4.20516 0
M  V30 2051 H 192.755 4.50792 -3.18576 0
M  V30 2052 H 193.232 4.11476 -1.53572 0
M  V30 2053 H 193.838 3.12572 -2.88407 0
M  V30 2054 N 192.153 1.28127 0.917671 0
M  V30 2055 C 193.083 1.14248 2.03641 0
M  V30 2056 C 194.064 0.0412748 1.7005 0
M  V30 2057 O 195.249 0.217566 1.92977 0
M  V30 2058 C 192.379 0.799431 3.37974 0
M  V30 2059 C 191.333 1.85497 3.85713 0
M  V30 2060 C 190.659 1.36565 5.16966 0
M  V30 2061 C 191.959 3.26085 4.08002 0
M  V30 2062 H 193.653 2.07835 2.15511 0
M  V30 2063 H 191.199 1.00064 1.03553 0
M  V30 2064 H 193.152 0.689114 4.15727 0
M  V30 2065 H 191.876 -0.172145 3.26146 0
M  V30 2066 H 190.535 1.95437 3.10161 0
M  V30 2067 H 190.183 0.383253 5.01538 0
M  V30 2068 H 189.883 2.07143 5.49878 0
M  V30 2069 H 191.407 1.26848 5.97279 0
M  V30 2070 H 192.821 3.19089 4.76293 0
M  V30 2071 H 191.218 3.94462 4.52238 0
M  V30 2072 H 192.288 3.70394 3.12948 0
M  V30 2073 N 193.631 -1.12557 1.10312 0
M  V30 2074 C 194.594 -2.16434 0.75424 0
M  V30 2075 C 195.594 -1.59278 -0.220685 0
M  V30 2076 O 196.784 -1.742 0.00230591 0
M  V30 2077 C 193.916 -3.40699 0.116987 0
M  V30 2078 H 195.109 -2.48811 1.67431 0
M  V30 2079 H 192.662 -1.27542 0.903475 0
M  V30 2080 H 193.397 -3.13921 -0.813877 0
M  V30 2081 H 193.182 -3.83459 0.818613 0
M  V30 2082 H 194.672 -4.17451 -0.111387 0
M  V30 2083 N 195.109 -0.891671 -1.2995 0
M  V30 2084 C 196.057 -0.353066 -2.29905 0
M  V30 2085 C 197.051 0.543509 -1.60444 0
M  V30 2086 O 198.257 0.4272 -1.74857 0
M  V30 2087 H 194.632 -0.095531 -0.745907 0
M  V30 2088 H 196.603 -1.20961 -2.72784 0
M  V30 2089 C 195.352 0.411475 -3.45257 0
M  V30 2090 H 194.675 -0.269182 -3.98893 0
M  V30 2091 H 196.115 0.753328 -4.17254 0
M  V30 2092 C 194.574 1.6111 -2.9588 0
M  V30 2093 O 195.104 2.71045 -2.96475 0
M  V30 2094 N 193.31 1.45054 -2.51809 0
M  V30 2095 H 192.857 0.556175 -2.51524 0
M  V30 2096 H 192.815 2.25453 -2.1913 0
M  V30 2097 N 196.587 1.43421 -0.653314 0
M  V30 2098 C 198.003 1.56341 -0.320886 0
M  V30 2099 C 198.203 1.63696 1.17499 0
M  V30 2100 O 197.259 1.59208 1.95982 0
M  V30 2101 C 198.572 2.82424 -1.03233 0
M  V30 2102 C 200.12 2.96168 -1.01259 0
M  V30 2103 C 200.595 4.25084 -1.70492 0
M  V30 2104 N 202.086 4.31948 -1.67257 0
M  V30 2105 C 202.821 5.30466 -2.17701 0
M  V30 2106 N 202.317 6.35261 -2.76434 0
M  V30 2107 N 204.11 5.2212 -2.082 0
M  V30 2108 H 196.261 1.3689 -1.62403 0
M  V30 2109 H 198.524 0.657455 -0.682977 0
M  V30 2110 H 198.23 2.83053 -2.08744 0
M  V30 2111 H 198.104 3.72653 -0.583948 0
M  V30 2112 H 200.491 2.9508 0.0341235 0
M  V30 2113 H 200.572 2.07229 -1.49966 0
M  V30 2114 H 200.216 4.26932 -2.7512 0
M  V30 2115 H 200.146 5.1292 -1.19251 0
M  V30 2116 H 202.637 3.56838 -1.24398 0
M  V30 2117 H 202.95 7.06754 -3.12601 0
M  V30 2118 H 201.295 6.35884 -2.80495 0
M  V30 2119 H 204.486 4.39166 -1.62021 0
M  V30 2120 H 204.659 5.98739 -2.47822 0
M  V30 2121 N 198.065 0.39524 1.52563 0
M  V30 2122 C 199.012 -0.437036 2.26624 0
M  V30 2123 C 199.982 -1.05281 1.28472 0
M  V30 2124 O 201.167 -1.07971 1.57311 0
M  V30 2125 C 198.307 -1.55524 3.08069 0
M  V30 2126 C 197.42 -0.961745 4.21158 0
M  V30 2127 C 196.555 -2.05149 4.89987 0
M  V30 2128 C 195.594 -1.4342 5.95061 0
M  V30 2129 N 194.731 -2.46351 6.57462 0
M  V30 2130 H 199.571 0.200976 2.97322 0
M  V30 2131 H 197.108 0.110944 1.46681 0
M  V30 2132 H 199.066 -2.21437 3.53584 0
M  V30 2133 H 197.696 -2.16348 2.3957 0
M  V30 2134 H 196.748 -0.192048 3.79915 0
M  V30 2135 H 198.06 -0.470701 4.96574 0
M  V30 2136 H 197.214 -2.78819 5.38837 0
M  V30 2137 H 195.953 -2.57615 4.14109 0
M  V30 2138 H 194.958 -0.682774 5.45544 0
M  V30 2139 H 196.183 -0.917416 6.72875 0
M  V30 2140 H 194.129 -2.97975 5.8442 0
M  V30 2141 H 194.046 -2.02019 7.28508 0
M  V30 2142 H 195.314 -3.19633 7.10954 0
M  V30 2143 N 199.544 -1.57102 0.125237 0
M  V30 2144 C 200.474 -2.18659 -0.819174 0
M  V30 2145 C 201.455 -1.12843 -1.27281 0
M  V30 2146 O 202.64 -1.41104 -1.33429 0
M  V30 2147 C 199.77 -2.79096 -2.06695 0
M  V30 2148 C 198.724 -3.90548 -1.75088 0
M  V30 2149 C 198.05 -4.37821 -3.06948 0
M  V30 2150 C 199.35 -5.12356 -1.01435 0
M  V30 2151 H 201.044 -2.9783 -0.306202 0
M  V30 2152 H 198.59 -1.4326 -0.145839 0
M  V30 2153 H 200.543 -3.2082 -2.73226 0
M  V30 2154 H 199.267 -1.97223 -2.60328 0
M  V30 2155 H 197.926 -3.49409 -1.10944 0
M  V30 2156 H 197.574 -3.52799 -3.58527 0
M  V30 2157 H 197.274 -5.12982 -2.86571 0
M  V30 2158 H 198.798 -4.822 -3.74587 0
M  V30 2159 H 200.212 -5.5106 -1.58132 0
M  V30 2160 H 198.609 -5.9314 -0.911319 0
M  V30 2161 H 199.679 -4.849 -0.00218681 0
M  V30 2162 N 201.022 0.148545 -1.56898 0
M  V30 2163 C 202.268 0.862694 -1.83536 0
M  V30 2164 C 202.601 1.80889 -0.706604 0
M  V30 2165 O 201.876 1.92328 0.289885 0
M  V30 2166 C 202.159 1.63853 -3.20662 0
M  V30 2167 C 202.012 0.713925 -4.44098 0
M  V30 2168 C 203.331 2.60133 -3.54991 0
M  V30 2169 H 200.45 0.312179 -0.667618 0
M  V30 2170 H 203.092 0.127953 -1.89569 0
M  V30 2171 H 201.242 2.26489 -3.1565 0
M  V30 2172 H 202.914 0.098686 -4.61194 0
M  V30 2173 H 201.157 0.0234019 -4.33794 0
M  V30 2174 H 201.828 1.29278 -5.36648 0
M  V30 2175 H 204.304 2.07616 -3.60603 0
M  V30 2176 H 203.18 3.11468 -4.51972 0
M  V30 2177 H 203.441 3.41417 -2.80868 0
M  V30 2178 N 202.5 1.5196 0.417844 0
M  V30 2179 C 203.748 1.65263 1.16329 0
M  V30 2180 C 204.069 0.380634 1.91249 0
M  V30 2181 O 203.339 -0.604214 1.86349 0
M  V30 2182 H 201.919 0.60912 0.432414 0
M  V30 2183 H 204.581 1.88969 0.477162 0
M  V30 2184 H 203.677 2.4896 1.88217 0
M  V30 2185 N 203.978 -0.674533 1.42435 0
M  V30 2186 C 205.227 -1.43034 1.42212 0
M  V30 2187 C 205.54 -1.95555 0.0420788 0
M  V30 2188 O 206.746 -2.71374 -0.0827558 0
M  V30 2189 C 205.202 -2.58748 2.50155 0
M  V30 2190 C 204.81 -2.12925 3.94166 0
M  V30 2191 C 206.554 -3.36257 2.59098 0
M  V30 2192 C 204.461 -3.25723 4.93618 0
M  V30 2193 H 203.391 -0.537345 0.528939 0
M  V30 2194 H 206.042 -0.73024 1.68344 0
M  V30 2195 H 204.424 -3.31128 2.17188 0
M  V30 2196 H 205.598 -1.47697 4.36488 0
M  V30 2197 H 203.913 -1.48354 3.89076 0
M  V30 2198 H 206.51 -4.20264 3.30578 0
M  V30 2199 H 206.853 -3.82866 1.63461 0
M  V30 2200 H 207.386 -2.70947 2.9126 0
M  V30 2201 H 204.125 -2.84105 5.90732 0
M  V30 2202 H 203.645 -3.89732 4.55926 0
M  V30 2203 H 205.324 -3.91186 5.15347 0
M  V30 2204 N 205.456 -1.28612 -0.910864 0
M  V30 2205 C 206.705 -1.15311 -1.65488 0
M  V30 2206 C 207.018 0.296999 -1.93332 0
M  V30 2207 O 208.224 0.551168 -2.65847 0
M  V30 2208 C 206.68 -2.01599 -2.98137 0
M  V30 2209 C 206.288 -3.51367 -2.7793 0
M  V30 2210 C 208.032 -1.96993 -3.76024 0
M  V30 2211 C 205.939 -4.29797 -4.06237 0
M  V30 2212 H 204.869 -0.42796 -0.620779 0
M  V30 2213 H 207.52 -1.53166 -1.01057 0
M  V30 2214 H 205.902 -1.56603 -3.63719 0
M  V30 2215 H 207.076 -4.0434 -2.21011 0
M  V30 2216 H 205.391 -3.57529 -2.13452 0
M  V30 2217 H 207.988 -2.52856 -4.71135 0
M  V30 2218 H 208.331 -0.94733 -4.05378 0
M  V30 2219 H 208.864 -2.39973 -3.17266 0
M  V30 2220 H 205.603 -5.32648 -3.82055 0
M  V30 2221 H 205.123 -3.81596 -4.62757 0
M  V30 2222 H 206.802 -4.39869 -4.74473 0
M  V30 2223 N 206.934 1.1197 -1.10907 0
M  V30 2224 C 208.162 1.87402 -0.876824 0
M  V30 2225 C 208.577 1.79894 0.573025 0
M  V30 2226 O 207.934 1.17629 1.39534 0
M  V30 2227 C 207.985 3.36428 -1.32282 0
M  V30 2228 O 207.706 3.43765 -2.71582 0
M  V30 2229 C 209.207 4.28783 -1.12518 0
M  V30 2230 H 206.427 0.592793 -0.314384 0
M  V30 2231 H 208.971 1.41649 -1.47499 0
M  V30 2232 H 207.126 3.79706 -0.768229 0
M  V30 2233 H 207.54 4.3652 -2.90776 0
M  V30 2234 H 209.014 5.31613 -1.48633 0
M  V30 2235 H 209.491 4.39153 -0.0642394 0
M  V30 2236 H 210.097 3.91291 -1.66648 0
M  V30 2237 N 208.412 0.89855 1.29475 0
M  V30 2238 C 209.36 0.365253 2.29714 0
M  V30 2239 C 210.354 -0.534993 1.6073 0
M  V30 2240 O 211.56 -0.417921 1.75081 0
M  V30 2241 H 207.935 0.0994853 0.74539 0
M  V30 2242 H 209.906 1.22406 2.72138 0
M  V30 2243 C 208.655 -0.393159 3.4547 0
M  V30 2244 H 207.978 0.290332 3.98744 0
M  V30 2245 H 209.418 -0.731189 4.17648 0
M  V30 2246 C 207.877 -1.59539 2.9673 0
M  V30 2247 O 208.407 -2.69469 2.97908 0
M  V30 2248 N 206.613 -1.43716 2.52575 0
M  V30 2249 H 206.16 -0.542828 2.51816 0
M  V30 2250 H 206.118 -2.24288 2.20323 0
M  V30 2251 N 209.89 -1.43072 0.660911 0
M  V30 2252 C 211.306 -1.56169 0.329173 0
M  V30 2253 C 211.506 -1.64317 -1.16629 0
M  V30 2254 O 210.562 -1.60245 -1.95135 0
M  V30 2255 C 211.875 -2.81873 1.04729 0
M  V30 2256 C 213.423 -2.95627 1.02828 0
M  V30 2257 C 213.898 -4.24174 1.72744 0
M  V30 2258 N 215.389 -4.31055 1.69545 0
M  V30 2259 C 216.124 -5.29304 2.20511 0
M  V30 2260 N 215.62 -6.33786 2.79799 0
M  V30 2261 N 217.413 -5.21008 2.10966 0
M  V30 2262 H 209.564 -1.36027 1.63127 0
M  V30 2263 H 211.827 -0.653823 0.686454 0
M  V30 2264 H 211.533 -2.81942 2.10242 0
M  V30 2265 H 211.407 -3.72338 0.603702 0
M  V30 2266 H 213.794 -2.95094 -0.0184742 0
M  V30 2267 H 213.875 -2.06431 1.51063 0
M  V30 2268 H 213.519 -4.25467 2.7738 0
M  V30 2269 H 213.449 -5.1228 1.2197 0
M  V30 2270 H 215.94 -3.56174 1.26288 0
M  V30 2271 H 216.253 -7.05086 3.16344 0
M  V30 2272 H 214.598 -6.34387 2.83863 0
M  V30 2273 H 217.789 -4.38301 1.64347 0
M  V30 2274 H 217.962 -5.97416 2.50993 0
M  V30 2275 N 211.368 -0.403325 -1.52352 0
M  V30 2276 C 212.645 0.232611 -1.94212 0
M  V30 2277 C 213.025 1.63133 -1.33981 0
M  V30 2278 O 212.373 2.22659 -0.513344 0
M  V30 2279 C 212.583 0.244811 -3.4814 0
M  V30 2280 C 213.931 0.46698 -4.22024 0
M  V30 2281 O 214.955 0.324419 -3.5472 0
M  V30 2282 O 213.814 0.74747 -5.41364 0
M  V30 2283 H 210.908 0.148223 -0.813609 0
M  V30 2284 H 213.454 -0.458848 -1.63379 0
M  V30 2285 H 212.226 -0.734378 -3.84347 0
M  V30 2286 H 211.849 0.980611 -3.85318 0
M  V30 2287 N 212.846 1.57033 -0.133567 0
M  V30 2288 C 213.779 2.11824 0.848872 0
M  V30 2289 C 214.757 1.03833 1.2513 0
M  V30 2290 O 215.941 1.31579 1.34978 0
M  V30 2291 C 213.068 2.62692 2.138 0
M  V30 2292 C 212.114 3.82705 1.88253 0
M  V30 2293 S 212.947 5.2438 1.08563 0
M  V30 2294 C 214.103 5.78627 2.38624 0
M  V30 2295 H 214.336 2.94824 0.38289 0
M  V30 2296 H 211.869 1.5419 0.0804796 0
M  V30 2297 H 213.827 2.92652 2.87863 0
M  V30 2298 H 212.488 1.79847 2.57515 0
M  V30 2299 H 211.681 4.16496 2.83809 0
M  V30 2300 H 211.283 3.53437 1.22305 0
M  V30 2301 H 213.575 5.8924 3.34369 0
M  V30 2302 H 214.518 6.76443 2.09358 0
M  V30 2303 H 214.926 5.06783 2.48658 0
M  V30 2304 N 214.325 -0.140222 1.56975 0
M  V30 2305 C 215.741 -0.493088 1.51792 0
M  V30 2306 C 215.941 -1.83013 0.843116 0
M  V30 2307 O 214.997 -2.49041 0.416493 0
M  V30 2308 C 216.31 -0.497144 2.96562 0
M  V30 2309 C 217.858 -0.582186 3.07538 0
M  V30 2310 C 218.333 -0.616838 4.53827 0
M  V30 2311 N 219.824 -0.678873 4.58198 0
M  V30 2312 C 220.559 -0.726782 5.68775 0
M  V30 2313 N 220.055 -0.733623 6.88905 0
M  V30 2314 N 221.848 -0.768179 5.56826 0
M  V30 2315 H 213.999 0.736108 1.99237 0
M  V30 2316 H 216.262 0.269182 0.90898 0
M  V30 2317 H 215.968 0.417217 3.49217 0
M  V30 2318 H 215.842 -1.33263 3.52875 0
M  V30 2319 H 218.229 -1.48697 2.54899 0
M  V30 2320 H 218.31 0.280581 2.54257 0
M  V30 2321 H 217.954 0.283812 5.07106 0
M  V30 2322 H 217.884 -1.49619 5.04898 0
M  V30 2323 H 220.375 -0.68061 3.7172 0
M  V30 2324 H 220.688 -0.772215 7.68932 0
M  V30 2325 H 219.033 -0.701389 6.91452 0
M  V30 2326 H 222.224 -0.760051 4.61888 0
M  V30 2327 H 222.397 -0.80205 6.43017 0
M  V30 2328 N 215.803 -1.52179 -0.40978 0
M  V30 2329 C 217.05 -1.66206 -1.15679 0
M  V30 2330 C 217.378 -0.391674 -1.90516 0
M  V30 2331 O 216.633 0.62533 -1.8544 0
M  V30 2332 C 216.932 -2.83428 -2.17723 0
M  V30 2333 C 216.598 -4.21672 -1.59699 0
M  V30 2334 C 215.26 -4.59274 -1.43599 0
M  V30 2335 C 217.612 -5.07825 -1.17317 0
M  V30 2336 C 214.94 -5.80709 -0.836328 0
M  V30 2337 C 217.292 -6.29864 -0.587691 0
M  V30 2338 C 215.956 -6.66216 -0.413818 0
M  V30 2339 H 215.226 -0.608192 -0.423301 0
M  V30 2340 H 217.873 -1.86279 -0.444097 0
M  V30 2341 H 216.178 -2.57687 -2.95135 0
M  V30 2342 H 217.875 -2.91477 -2.75394 0
M  V30 2343 H 214.465 -3.9204 -1.73213 0
M  V30 2344 H 218.649 -4.79359 -1.28565 0
M  V30 2345 H 213.905 -6.07498 -0.689626 0
M  V30 2346 H 218.079 -6.95948 -0.250894 0
M  V30 2347 H 215.706 -7.60182 0.0529471 0
M  V30 2348 N 217.281 0.66697 -1.42791 0
M  V30 2349 C 218.53 1.42278 -1.42968 0
M  V30 2350 C 218.843 1.9553 -0.0524489 0
M  V30 2351 O 220.049 2.71414 0.068363 0
M  V30 2352 C 218.505 2.57418 -2.51524 0
M  V30 2353 C 218.113 2.10832 -3.9529 0
M  V30 2354 C 219.857 3.34878 -2.60877 0
M  V30 2355 C 217.764 3.23101 -4.95338 0
M  V30 2356 H 216.694 0.534533 -0.531781 0
M  V30 2357 H 219.345 0.721302 -1.68729 0
M  V30 2358 H 217.727 3.29971 -2.18941 0
M  V30 2359 H 218.901 1.4538 -4.37266 0
M  V30 2360 H 217.216 1.46289 -3.89857 0
M  V30 2361 H 219.813 4.18505 -3.32802 0
M  V30 2362 H 220.156 3.81993 -1.6549 0
M  V30 2363 H 220.689 2.69398 -2.92693 0
M  V30 2364 H 217.428 2.80969 -5.9223 0
M  V30 2365 H 216.948 3.87309 -4.57987 0
M  V30 2366 H 218.627 3.88447 -5.17415 0
M  V30 2367 N 218.759 1.29093 0.90403 0
M  V30 2368 C 219.984 1.19809 1.69294 0
M  V30 2369 C 220.409 -0.238481 1.86582 0
M  V30 2370 O 219.767 -1.1723 1.383 0
M  V30 2371 C 219.815 1.91202 3.05736 0
M  V30 2372 O 218.919 1.22611 3.93752 0
M  V30 2373 H 218.26 0.415385 0.518027 0
M  V30 2374 H 220.79 1.70586 1.12967 0
M  V30 2375 H 220.8 1.99487 3.55906 0
M  V30 2376 H 219.475 2.95692 2.92471 0
M  V30 2377 H 218.052 1.22554 3.52186 0
M  V30 2378 N 220.237 -1.11381 1.11499 0
M  V30 2379 C 221.514 -1.7955 0.775965 0
M  V30 2380 C 221.894 -1.97859 -0.73588 0
M  V30 2381 O 221.242 -1.56376 -1.66609 0
M  V30 2382 C 221.452 -3.13196 1.53977 0
M  V30 2383 C 222.8 -3.88227 1.71944 0
M  V30 2384 O 223.824 -3.22887 1.50407 0
M  V30 2385 O 222.683 -5.05477 2.07738 0
M  V30 2386 H 219.777 -0.777728 0.28119 0
M  V30 2387 H 222.323 -1.18118 1.21845 0
M  V30 2388 H 221.095 -2.95229 2.56818 0
M  V30 2389 H 220.718 -3.82342 1.09088 0
M  V30 2390 N 221.715 -0.905404 -1.28997 0
M  V30 2391 C 222.945 -0.549049 -1.99171 0
M  V30 2392 C 223.353 0.87203 -1.67906 0
M  V30 2393 O 222.696 1.58796 -0.923561 0
M  V30 2394 C 222.758 -0.668306 -3.53234 0
M  V30 2395 C 222.422 -2.0574 -4.08069 0
M  V30 2396 C 223.419 -3.0292 -4.22534 0
M  V30 2397 C 221.104 -2.36833 -4.42962 0
M  V30 2398 C 223.098 -4.29314 -4.71135 0
M  V30 2399 C 220.785 -3.63467 -4.91258 0
M  V30 2400 C 221.783 -4.59522 -5.053 0
M  V30 2401 O 221.471 -5.83907 -5.52546 0
M  V30 2402 H 221.203 -0.208784 -0.64295 0
M  V30 2403 H 223.757 -1.21836 -1.65363 0
M  V30 2404 H 221.987 0.0580547 -3.86656 0
M  V30 2405 H 223.676 -0.320273 -4.04634 0
M  V30 2406 H 224.442 -2.80216 -3.95859 0
M  V30 2407 H 220.321 -1.62824 -4.31288 0
M  V30 2408 H 223.865 -5.04293 -4.8201 0
M  V30 2409 H 219.762 -3.86 -5.17372 0
M  V30 2410 H 220.53 -5.86578 -5.70849 0
M  V30 2411 N 223.193 1.4272 -0.668489 0
M  V30 2412 C 224.141 2.32586 0.0254857 0
M  V30 2413 C 225.135 1.49471 0.797176 0
M  V30 2414 O 226.341 1.65583 0.705853 0
M  V30 2415 H 222.716 0.751514 0.0270339 0
M  V30 2416 H 224.687 2.88823 -0.749936 0
M  V30 2417 C 223.436 3.3397 0.967427 0
M  V30 2418 H 222.759 3.97961 0.383048 0
M  V30 2419 H 224.199 3.9945 1.42181 0
M  V30 2420 C 222.658 2.65744 2.0708 0
M  V30 2421 O 223.188 2.48454 3.15648 0
M  V30 2422 N 221.394 2.2487 1.8407 0
M  V30 2423 H 220.941 2.39132 0.95778 0
M  V30 2424 H 220.899 1.79552 2.58086 0
M  V30 2425 N 224.671 0.411399 1.52136 0
M  V30 2426 C 225.634 -0.401089 2.25663 0
M  V30 2427 C 226.634 -0.971732 1.28117 0
M  V30 2428 O 227.824 -0.850254 1.52041 0
M  V30 2429 C 224.956 -1.56483 3.02863 0
M  V30 2430 H 226.149 0.24295 2.98914 0
M  V30 2431 H 223.702 0.163968 1.55438 0
M  V30 2432 H 224.437 -2.24567 2.33967 0
M  V30 2433 H 224.222 -1.16211 3.74483 0
M  V30 2434 H 225.712 -2.13951 3.58629 0
M  V30 2435 N 226.149 -1.5696 0.141893 0
M  V30 2436 C 227.56 -1.82797 -0.379776 0
M  V30 2437 C 227.911 -1.06033 -1.6508 0
M  V30 2438 O 227.036 -0.304011 -2.14254 0
M  V30 2439 C 227.631 -3.31578 -0.695802 0
M  V30 2440 C 226.19 -3.58014 -1.16201 0
M  V30 2441 C 225.337 -2.76699 -0.182455 0
M  V30 2442 H 228.288 -1.54406 0.366675 0
M  V30 2443 H 228.309 -3.47454 -1.55099 0
M  V30 2444 H 227.821 -3.87421 0.229449 0
M  V30 2445 H 225.922 -3.07553 -2.10338 0
M  V30 2446 H 226.035 -4.66501 -1.09151 0
M  V30 2447 H 224.399 -2.45618 -0.674072 0
M  V30 2448 H 225.182 -3.35311 0.736297 0
M  V30 2449 N 227.627 0.131896 -1.57047 0
M  V30 2450 C 228.876 0.84044 -1.83356 0
M  V30 2451 C 229.189 1.81646 -0.725535 0
M  V30 2452 O 230.395 2.57025 -0.874659 0
M  V30 2453 C 228.851 1.54528 -3.25037 0
M  V30 2454 C 228.459 0.610902 -4.43815 0
M  V30 2455 C 230.203 2.23972 -3.60606 0
M  V30 2456 C 228.11 1.31823 -5.76521 0
M  V30 2457 H 227.04 0.317599 -0.683847 0
M  V30 2458 H 229.691 0.0931561 -1.83263 0
M  V30 2459 H 228.073 2.33873 -3.19561 0
M  V30 2460 H 229.247 -0.148407 -4.60561 0
M  V30 2461 H 227.562 0.0241016 -4.16393 0
M  V30 2462 H 230.159 2.77558 -4.57018 0
M  V30 2463 H 230.502 3.01173 -2.87403 0
M  V30 2464 H 231.035 1.51529 -3.6781 0
M  V30 2465 H 227.774 0.587771 -6.52859 0
M  V30 2466 H 227.294 2.04987 -5.63685 0
M  V30 2467 H 228.973 1.855 -6.19838 0
M  V30 2468 N 229.106 1.52395 0.401703 0
M  V30 2469 C 230.331 1.70972 1.17403 0
M  V30 2470 C 230.756 0.421615 1.83314 0
M  V30 2471 O 230.114 -0.621564 1.70312 0
M  V30 2472 C 230.162 2.85151 2.20728 0
M  V30 2473 O 229.266 2.51238 3.27037 0
M  V30 2474 H 228.607 0.568927 0.342372 0
M  V30 2475 H 231.137 1.99131 0.469891 0
M  V30 2476 H 231.147 3.10279 2.64936 0
M  V30 2477 H 229.822 3.78603 1.7214 0
M  V30 2478 H 228.399 2.36808 2.88057 0
M  V30 2479 N 230.584 -0.659388 1.43143 0
M  V30 2480 C 231.494 -1.80167 1.50256 0
M  V30 2481 C 232.51 -1.69571 0.390106 0
M  V30 2482 O 233.686 -1.90849 0.643319 0
M  V30 2483 C 230.751 -3.16409 1.41725 0
M  V30 2484 C 229.812 -3.38848 2.63591 0
M  V30 2485 C 229.045 -4.68591 2.55458 0
M  V30 2486 O 229.268 -5.47532 1.59891 0
M  V30 2487 O 228.202 -4.92614 3.45854 0
M  V30 2488 H 232.028 -1.77121 2.46702 0
M  V30 2489 H 229.613 -0.817092 1.25076 0
M  V30 2490 H 231.495 -3.9768 1.39387 0
M  V30 2491 H 230.17 -3.20059 0.484118 0
M  V30 2492 H 229.077 -2.57366 2.71502 0
M  V30 2493 H 230.41 -3.4004 3.55856 0
M  V30 2494 N 232.062 -1.29571 -0.897171 0
M  V30 2495 C 233.012 -1.11539 -1.98855 0
M  V30 2496 C 233.996 -0.0340716 -1.60864 0
M  V30 2497 O 235.188 -0.256062 -1.75138 0
M  V30 2498 C 232.317 -0.796603 -3.3393 0
M  V30 2499 C 231.403 -1.91758 -3.78272 0
M  V30 2500 N 231.794 -3.16143 -3.94826 0
M  V30 2501 C 230.092 -1.81119 -4.07568 0
M  V30 2502 C 230.793 -3.89293 -4.32233 0
M  V30 2503 N 229.769 -3.17255 -4.41419 0
M  V30 2504 H 233.571 -2.05894 -2.09726 0
M  V30 2505 H 231.085 -1.20732 -1.08616 0
M  V30 2506 H 233.082 -0.648459 -4.11826 0
M  V30 2507 H 231.742 0.139003 -3.24402 0
M  V30 2508 H 232.753 -3.5157 -3.80288 0
M  V30 2509 H 229.43 -0.948461 -4.06584 0
M  V30 2510 H 230.82 -4.9635 -4.52865 0
M  V30 2511 N 233.54 1.10788 -1.12088 0
M  V30 2512 C 234.473 2.16237 -0.729168 0
M  V30 2513 C 235.451 1.60207 0.277921 0
M  V30 2514 O 236.635 1.87707 0.172737 0
M  V30 2515 C 233.762 3.38609 -0.0786848 0
M  V30 2516 C 232.808 4.13322 -1.05201 0
M  V30 2517 S 233.641 4.69371 -2.57781 0
M  V30 2518 C 234.797 5.95058 -1.94053 0
M  V30 2519 H 235.03 2.4913 -1.62239 0
M  V30 2520 H 232.563 1.22519 -0.939603 0
M  V30 2521 H 234.521 4.09473 0.290254 0
M  V30 2522 H 233.182 3.03962 0.791593 0
M  V30 2523 H 232.375 5.01051 -0.544433 0
M  V30 2524 H 231.977 3.48251 -1.36371 0
M  V30 2525 H 234.269 6.65278 -1.28107 0
M  V30 2526 H 235.212 6.50472 -2.79807 0
M  V30 2527 H 235.62 5.46918 -1.39787 0
M  V30 2528 N 235.018 0.912232 1.28515 0
M  V30 2529 C 236.246 0.560416 1.99166 0
M  V30 2530 C 236.661 -0.857927 1.68182 0
M  V30 2531 O 236.018 -1.56805 0.933733 0
M  V30 2532 C 236.069 0.758142 3.53461 0
M  V30 2533 O 235.79 2.12067 3.83352 0
M  V30 2534 C 237.291 0.412954 4.41372 0
M  V30 2535 H 234.511 0.213805 0.636026 0
M  V30 2536 H 237.055 1.22502 1.63749 0
M  V30 2537 H 235.21 0.140556 3.87145 0
M  V30 2538 H 235.624 2.15923 4.77993 0
M  V30 2539 H 237.098 0.60208 5.48707 0
M  V30 2540 H 237.575 -0.65073 4.34353 0
M  V30 2541 H 238.181 1.00802 4.13182 0
M  V30 2542 N 236.496 -1.42363 0.676048 0
M  V30 2543 C 237.721 -2.06377 0.205705 0
M  V30 2544 C 238.146 -1.50463 -1.12883 0
M  V30 2545 O 237.504 -0.623619 -1.70237 0
M  V30 2546 C 237.552 -3.60277 0.152655 0
M  V30 2547 O 236.656 -4.02935 -0.87845 0
M  V30 2548 H 235.997 -0.655588 0.105359 0
M  V30 2549 H 238.527 -1.82475 0.925412 0
M  V30 2550 H 238.537 -4.07993 -0.0230675 0
M  V30 2551 H 237.212 -4.00346 1.12675 0
M  V30 2552 H 235.789 -3.66764 -0.673668 0
M  V30 2553 N 237.974 -0.419461 -1.51915 0
M  V30 2554 C 238.884 0.407528 -2.31033 0
M  V30 2555 C 239.9 1.04413 -1.3919 0
M  V30 2556 O 241.076 1.0434 -1.72265 0
M  V30 2557 C 238.141 1.50365 -3.12396 0
M  V30 2558 C 237.202 0.889029 -4.19994 0
M  V30 2559 C 236.435 1.93291 -4.97468 0
M  V30 2560 O 236.658 3.15259 -4.75361 0
M  V30 2561 O 235.592 1.53339 -5.8204 0
M  V30 2562 H 239.418 -0.237865 -3.02767 0
M  V30 2563 H 237.003 -0.182413 -1.48282 0
M  V30 2564 H 238.885 2.13975 -3.63032 0
M  V30 2565 H 237.56 2.13345 -2.43445 0
M  V30 2566 H 236.467 0.215353 -3.7348 0
M  V30 2567 H 237.8 0.302991 -4.91267 0
M  V30 2568 N 239.452 1.56882 -0.150215 0
M  V30 2569 C 240.402 2.13501 0.800071 0
M  V30 2570 C 241.386 1.06368 1.20726 0
M  V30 2571 O 242.578 1.32538 1.17314 0
M  V30 2572 C 239.707 2.76271 2.03787 0
M  V30 2573 C 238.793 3.90533 1.65364 0
M  V30 2574 N 239.184 4.96259 0.977794 0
M  V30 2575 C 237.482 4.013 1.94613 0
M  V30 2576 C 238.183 5.76286 0.791794 0
M  V30 2577 N 237.159 5.27163 1.32666 0
M  V30 2578 H 240.961 2.92615 0.274517 0
M  V30 2579 H 238.475 1.62319 0.0512144 0
M  V30 2580 H 240.472 3.15197 2.72867 0
M  V30 2581 H 239.132 1.98631 2.56857 0
M  V30 2582 H 240.143 5.13953 0.638193 0
M  V30 2583 H 236.82 3.3474 2.4951 0
M  V30 2584 H 238.21 6.71401 0.258894 0
M  V30 2585 N 240.93 -0.123565 1.57115 0
M  V30 2586 C 241.86 -1.15309 2.03042 0
M  V30 2587 C 242.841 -1.43454 0.914061 0
M  V30 2588 O 244.026 -1.53973 1.18347 0
M  V30 2589 C 241.156 -2.48043 2.43089 0
M  V30 2590 C 240.11 -2.3437 3.58127 0
M  V30 2591 C 239.436 -3.72026 3.84059 0
M  V30 2592 C 240.736 -1.80804 4.90007 0
M  V30 2593 H 242.43 -0.771102 2.893 0
M  V30 2594 H 239.976 -0.369479 1.39179 0
M  V30 2595 H 241.929 -3.20311 2.73823 0
M  V30 2596 H 240.653 -2.88122 1.53796 0
M  V30 2597 H 239.312 -1.64551 3.27595 0
M  V30 2598 H 238.96 -4.09582 2.91979 0
M  V30 2599 H 238.66 -3.63732 4.6149 0
M  V30 2600 H 240.184 -4.45806 4.1724 0
M  V30 2601 H 241.598 -2.42886 5.19307 0
M  V30 2602 H 239.995 -1.83343 5.71407 0
M  V30 2603 H 241.065 -0.76528 4.78823 0
M  V30 2604 N 242.408 -1.52605 -0.393616 0
M  V30 2605 C 243.654 -1.67672 -1.14079 0
M  V30 2606 C 243.987 -0.413121 -1.89755 0
M  V30 2607 O 243.262 0.588952 -1.85369 0
M  V30 2608 C 243.545 -2.9088 -2.12276 0
M  V30 2609 C 243.398 -4.27329 -1.40394 0
M  V30 2610 C 244.717 -3.09628 -3.12759 0
M  V30 2611 H 241.836 -0.610168 -0.413356 0
M  V30 2612 H 244.478 -1.85193 -0.424696 0
M  V30 2613 H 242.628 -2.76073 -2.73342 0
M  V30 2614 H 244.3 -4.53894 -0.82327 0
M  V30 2615 H 242.543 -4.2802 -0.705801 0
M  V30 2616 H 243.214 -5.09615 -2.12123 0
M  V30 2617 H 245.69 -3.23436 -2.61779 0
M  V30 2618 H 244.566 -3.97322 -3.78717 0
M  V30 2619 H 244.827 -2.23637 -3.81365 0
M  V30 2620 N 243.887 0.651787 -1.4349 0
M  V30 2621 C 245.115 1.43937 -1.48626 0
M  V30 2622 C 245.53 1.8851 -0.104587 0
M  V30 2623 O 244.887 1.5958 0.885464 0
M  V30 2624 C 244.938 2.6734 -2.43334 0
M  V30 2625 O 244.659 2.24631 -3.76128 0
M  V30 2626 C 246.16 3.60683 -2.57726 0
M  V30 2627 H 243.38 0.44213 -0.504739 0
M  V30 2628 H 245.924 0.798944 -1.88248 0
M  V30 2629 H 244.079 3.2752 -2.06904 0
M  V30 2630 H 244.493 3.04485 -4.2707 0
M  V30 2631 H 245.967 4.43933 -3.28067 0
M  V30 2632 H 246.444 4.08126 -1.62265 0
M  V30 2633 H 247.05 3.06384 -2.94973 0
M  V30 2634 N 245.365 1.30045 0.890287 0
M  V30 2635 C 246.328 1.15963 1.977 0
M  V30 2636 C 247.328 0.0923777 1.60534 0
M  V30 2637 O 248.518 0.340071 1.70848 0
M  V30 2638 C 245.65 0.775451 3.31963 0
M  V30 2639 H 246.843 2.12502 2.11619 0
M  V30 2640 H 244.396 1.13366 1.07601 0
M  V30 2641 H 245.131 -0.189671 3.23745 0
M  V30 2642 H 244.916 1.54668 3.60306 0
M  V30 2643 H 246.406 0.700251 4.11687 0
M  V30 2644 N 246.843 -1.10192 1.12674 0
M  V30 2645 C 247.806 -2.14786 0.799979 0
M  V30 2646 C 248.806 -1.59711 -0.18685 0
M  V30 2647 O 249.996 -1.74156 0.0392558 0
M  V30 2648 C 247.128 -3.40374 0.189228 0
M  V30 2649 H 248.321 -2.45203 1.72671 0
M  V30 2650 H 245.874 -1.25597 0.930326 0
M  V30 2651 H 246.609 -3.15577 -0.747107 0
M  V30 2652 H 246.394 -3.81637 0.899766 0
M  V30 2653 H 247.884 -4.17594 -0.0228143 0
M  V30 2654 N 248.321 -0.919034 -1.28029 0
M  V30 2655 C 249.567 -0.555757 -1.95036 0
M  V30 2656 C 249.9 0.899198 -1.72128 0
M  V30 2657 O 249.175 1.64023 -1.04531 0
M  V30 2658 C 249.458 -0.872024 -3.49382 0
M  V30 2659 C 249.311 -2.3801 -3.81669 0
M  V30 2660 C 250.63 -0.37185 -4.38526 0
M  V30 2661 H 247.749 -0.203386 -0.708381 0
M  V30 2662 H 250.391 -1.14924 -1.51303 0
M  V30 2663 H 248.541 -0.366946 -3.86763 0
M  V30 2664 H 250.213 -2.9562 -3.54128 0
M  V30 2665 H 248.456 -2.83289 -3.28526 0
M  V30 2666 H 249.127 -2.55192 -4.8947 0
M  V30 2667 H 251.603 -0.804602 -4.08247 0
M  V30 2668 H 250.479 -0.622173 -5.45362 0
M  V30 2669 H 250.74 0.727934 -4.36066 0
M  V30 2670 N 249.799 1.42003 -0.683588 0
M  V30 2671 C 251.047 2.01015 -0.209101 0
M  V30 2672 C 251.368 1.54365 1.19149 0
M  V30 2673 O 250.638 0.769083 1.80172 0
M  V30 2674 H 249.218 0.743294 -0.074315 0
M  V30 2675 H 251.88 1.73798 -0.882066 0
M  V30 2676 H 250.976 3.11343 -0.2172 0
M  V30 2677 N 251.277 0.427512 1.51691 0
M  V30 2678 C 252.505 -0.141191 2.06418 0
M  V30 2679 C 252.92 -1.37303 1.29589 0
M  V30 2680 O 252.277 -1.79059 0.352732 0
M  V30 2681 C 252.328 -0.473266 3.58389 0
M  V30 2682 O 252.049 0.709673 4.32314 0
M  V30 2683 C 253.55 -1.09371 4.29596 0
M  V30 2684 H 250.77 -0.0122747 0.670888 0
M  V30 2685 H 253.314 0.603764 1.95384 0
M  V30 2686 H 251.469 -1.16812 3.69369 0
M  V30 2687 H 251.883 0.42807 5.2275 0
M  V30 2688 H 253.357 -1.27613 5.37046 0
M  V30 2689 H 253.834 -2.072 3.87253 0
M  V30 2690 H 254.44 -0.43853 4.23033 0
M  V30 2691 N 252.755 -1.56801 0.158532 0
M  V30 2692 C 254.032 -1.88131 -0.535357 0
M  V30 2693 C 254.412 -1.06638 -1.82186 0
M  V30 2694 O 253.76 -0.156533 -2.27963 0
M  V30 2695 C 253.97 -3.39949 -0.789653 0
M  V30 2696 C 255.318 -4.09416 -1.12533 0
M  V30 2697 O 256.342 -3.45194 -0.878622 0
M  V30 2698 O 255.201 -5.22855 -1.59014 0
M  V30 2699 H 252.295 -0.780143 -0.27442 0
M  V30 2700 H 254.841 -1.68564 0.19601 0
M  V30 2701 H 253.613 -3.91115 0.120353 0
M  V30 2702 H 253.236 -3.65084 -1.57479 0
M  V30 2703 N 254.233 0.115231 -1.57178 0
M  V30 2704 C 255.163 1.1423 -2.03651 0
M  V30 2705 C 256.144 1.42967 -0.921655 0
M  V30 2706 O 257.329 1.53343 -1.19162 0
M  V30 2707 C 254.459 2.4675 -2.44401 0
M  V30 2708 C 253.413 2.32467 -3.59365 0
M  V30 2709 C 252.739 3.69984 -3.86026 0
M  V30 2710 C 254.039 1.78203 -4.90959 0
M  V30 2711 H 255.733 0.755749 -2.89705 0
M  V30 2712 H 253.279 0.362093 -1.39373 0
M  V30 2713 H 255.232 3.18854 -2.75517 0
M  V30 2714 H 253.956 2.87302 -1.55322 0
M  V30 2715 H 252.615 1.62811 -3.28463 0
M  V30 2716 H 252.263 4.08028 -2.94147 0
M  V30 2717 H 251.963 3.61279 -4.63412 0
M  V30 2718 H 253.487 4.43587 -4.19599 0
M  V30 2719 H 254.901 2.40128 -5.20587 0
M  V30 2720 H 253.298 1.8031 -5.72371 0
M  V30 2721 H 254.368 0.739876 -4.79222 0
M  V30 2722 N 255.711 1.52812 0.385517 0
M  V30 2723 C 256.621 1.80766 1.49535 0
M  V30 2724 C 257.637 0.694651 1.59532 0
M  V30 2725 O 258.813 0.982611 1.75803 0
M  V30 2726 C 255.878 1.97381 2.85029 0
M  V30 2727 C 254.939 3.21295 2.84724 0
M  V30 2728 C 254.172 3.37108 4.13756 0
M  V30 2729 O 254.395 2.5765 5.08893 0
M  V30 2730 O 253.329 4.30378 4.20783 0
M  V30 2731 H 257.155 2.75015 1.28842 0
M  V30 2732 H 254.74 1.37946 0.573697 0
M  V30 2733 H 256.622 2.09996 3.65349 0
M  V30 2734 H 255.297 1.06322 3.05741 0
M  V30 2735 H 254.204 3.1412 2.03174 0
M  V30 2736 H 255.537 4.12212 2.68965 0
M  V30 2737 N 257.189 -0.644168 1.43834 0
M  V30 2738 C 258.417 -1.43147 1.49387 0
M  V30 2739 C 258.832 -1.88452 0.114583 0
M  V30 2740 O 258.189 -1.60047 -0.876989 0
M  V30 2741 C 258.24 -2.66046 2.44748 0
M  V30 2742 O 257.961 -2.22633 3.77314 0
M  V30 2743 C 259.462 -3.59311 2.59635 0
M  V30 2744 H 256.682 -0.439447 0.507077 0
M  V30 2745 H 259.226 -0.78895 1.88669 0
M  V30 2746 H 257.381 -3.26418 2.08638 0
M  V30 2747 H 257.795 -3.02216 4.28679 0
M  V30 2748 H 259.269 -4.42187 3.30416 0
M  V30 2749 H 259.746 -4.07259 1.64427 0
M  V30 2750 H 260.352 -3.04816 2.96593 0
M  V30 2751 N 258.668 -1.30515 -0.883378 0
M  V30 2752 C 259.631 -1.1701 -1.97082 0
M  V30 2753 C 260.631 -0.10089 -1.60483 0
M  V30 2754 O 261.821 -0.349127 -1.70666 0
M  V30 2755 C 258.953 -0.793045 -3.31547 0
M  V30 2756 H 260.146 -2.13622 -2.10489 0
M  V30 2757 H 257.699 -1.13935 -1.06998 0
M  V30 2758 H 258.434 0.172499 -3.23841 0
M  V30 2759 H 258.219 -1.56576 -3.5948 0
M  V30 2760 H 259.709 -0.722073 -4.1131 0
M  V30 2761 N 260.146 1.09593 -1.13257 0
M  V30 2762 C 261.056 2.19739 -0.821691 0
M  V30 2763 C 262.072 1.72926 0.19302 0
M  V30 2764 O 263.248 2.01385 0.0244895 0
M  V30 2765 C 260.313 3.45482 -0.290333 0
M  V30 2766 C 259.374 4.06985 -1.36607 0
M  V30 2767 C 258.607 5.26726 -0.859975 0
M  V30 2768 O 258.83 5.69594 0.303082 0
M  V30 2769 O 257.764 5.7931 -1.63351 0
M  V30 2770 H 261.59 2.48781 -1.74189 0
M  V30 2771 H 259.175 1.18496 -0.909894 0
M  V30 2772 H 261.057 4.214 0.000674022 0
M  V30 2773 H 259.732 3.18047 0.602306 0
M  V30 2774 H 258.639 3.32712 -1.71037 0
M  V30 2775 H 259.972 4.38643 -2.23279 0
M  V30 2776 N 261.624 0.925811 1.2754 0
M  V30 2777 C 263.04 0.625767 1.46821 0
M  V30 2778 C 263.24 -0.825506 1.83814 0
M  V30 2779 O 262.296 -1.60356 1.95044 0
M  V30 2780 C 263.609 1.57402 2.56213 0
M  V30 2781 C 265.157 1.58204 2.70075 0
M  V30 2782 C 265.632 2.51721 3.82623 0
M  V30 2783 N 267.123 2.49917 3.89994 0
M  V30 2784 C 267.858 3.18968 4.76494 0
M  V30 2785 N 267.354 3.97391 5.67496 0
M  V30 2786 N 269.147 3.07996 4.70208 0
M  V30 2787 H 261.298 1.86409 1.01811 0
M  V30 2788 H 263.561 0.800213 0.508295 0
M  V30 2789 H 263.267 2.60925 2.35819 0
M  V30 2790 H 263.141 1.31428 3.53563 0
M  V30 2791 H 265.528 0.554124 2.89851 0
M  V30 2792 H 265.609 1.88226 1.73218 0
M  V30 2793 H 265.253 3.54622 3.63601 0
M  V30 2794 H 265.183 2.18996 4.78903 0
M  V30 2795 H 267.674 1.9296 3.24923 0
M  V30 2796 H 267.987 4.4707 6.30356 0
M  V30 2797 H 266.332 4.01495 5.67298 0
M  V30 2798 H 269.523 2.46223 3.9811 0
M  V30 2799 H 269.696 3.6208 5.37403 0
M  V30 2800 N 263.102 -1.41638 0.69111 0
M  V30 2801 C 264.351 -2.00526 0.217318 0
M  V30 2802 C 264.664 -1.55353 -1.18848 0
M  V30 2803 O 265.87 -2.06769 -1.75951 0
M  V30 2804 C 264.326 -3.58313 0.337639 0
M  V30 2805 C 263.934 -4.12469 1.74852 0
M  V30 2806 C 265.678 -4.24431 -0.0766066 0
M  V30 2807 C 263.585 -5.62675 1.82074 0
M  V30 2808 H 262.515 -0.750008 0.0774893 0
M  V30 2809 H 265.166 -1.6217 0.858661 0
M  V30 2810 H 263.548 -3.9425 -0.371879 0
M  V30 2811 H 264.722 -3.8796 2.48644 0
M  V30 2812 H 263.037 -3.58861 2.11205 0
M  V30 2813 H 265.634 -5.34683 -0.0430284 0
M  V30 2814 H 265.977 -4.01101 -1.1146 0
M  V30 2815 H 266.51 -3.93512 0.582476 0
M  V30 2816 H 263.249 -5.90826 2.83911 0
M  V30 2817 H 262.769 -5.89124 1.12661 0
M  V30 2818 H 264.448 -6.27371 1.58159 0
M  V30 2819 N 264.58 -0.43555 -1.51462 0
M  V30 2820 C 265.51 0.367376 -2.30592 0
M  V30 2821 C 266.491 1.02263 -1.35928 0
M  V30 2822 O 267.676 1.02661 -1.64847 0
M  V30 2823 C 264.806 1.46983 -3.14664 0
M  V30 2824 C 263.76 0.938161 -4.17591 0
M  V30 2825 C 263.086 2.13622 -4.90173 0
M  V30 2826 C 264.386 -0.0261621 -5.22293 0
M  V30 2827 H 266.08 -0.292969 -2.97963 0
M  V30 2828 H 263.626 -0.14234 -1.43295 0
M  V30 2829 H 265.579 2.03873 -3.688 0
M  V30 2830 H 264.303 2.15843 -2.4511 0
M  V30 2831 H 262.962 0.391481 -3.64504 0
M  V30 2832 H 262.61 2.81098 -4.17124 0
M  V30 2833 H 262.31 1.78688 -5.59772 0
M  V30 2834 H 263.834 2.7107 -5.47132 0
M  V30 2835 H 265.248 0.452384 -5.71512 0
M  V30 2836 H 263.645 -0.287992 -5.99409 0
M  V30 2837 H 264.715 -0.963391 -4.75233 0
M  V30 2838 N 266.058 1.56714 -0.166846 0
M  V30 2839 C 267.008 2.14338 0.777382 0
M  V30 2840 C 267.992 1.07642 1.19591 0
M  V30 2841 O 269.184 1.33775 1.15902 0
M  V30 2842 C 266.313 2.78417 2.00846 0
M  V30 2843 C 265.399 3.92264 1.61212 0
M  V30 2844 N 265.79 4.97268 0.925104 0
M  V30 2845 C 264.088 4.03342 1.90346 0
M  V30 2846 C 264.789 5.77093 0.730627 0
M  V30 2847 N 263.765 5.2854 1.27067 0
M  V30 2848 H 267.567 2.9289 0.243466 0
M  V30 2849 H 265.081 1.62364 0.0339954 0
M  V30 2850 H 267.078 3.18073 2.69509 0
M  V30 2851 H 265.738 2.01344 2.54736 0
M  V30 2852 H 266.749 5.14601 0.583646 0
M  V30 2853 H 263.426 3.37368 2.45946 0
M  V30 2854 H 264.816 6.71638 0.187668 0
M  V30 2855 N 267.536 -0.106894 1.57237 0
M  V30 2856 C 268.446 -1.14911 2.0453 0
M  V30 2857 C 269.462 -1.44592 0.96795 0
M  V30 2858 O 270.638 -1.55468 1.2803 0
M  V30 2859 C 267.703 -2.45272 2.45036 0
M  V30 2860 C 266.764 -2.22879 3.66911 0
M  V30 2861 C 265.997 -3.47024 4.05475 0
M  V30 2862 O 266.22 -4.54804 3.44252 0
M  V30 2863 O 265.154 -3.3731 4.98504 0
M  V30 2864 H 268.98 -0.777461 2.9358 0
M  V30 2865 H 266.565 -0.318563 1.45964 0
M  V30 2866 H 268.447 -3.22055 2.71769 0
M  V30 2867 H 267.122 -2.81886 1.59129 0
M  V30 2868 H 266.029 -1.43915 3.45311 0
M  V30 2869 H 267.362 -1.91163 4.53561 0
M  V30 2870 N 269.014 -1.53014 -0.377408 0
M  V30 2871 C 269.964 -1.74996 -1.46152 0
M  V30 2872 C 270.948 -0.604236 -1.49123 0
M  V30 2873 O 272.14 -0.862489 -1.54564 0
M  V30 2874 C 269.269 -1.93267 -2.8373 0
M  V30 2875 C 268.355 -3.13807 -2.85283 0
M  V30 2876 N 268.746 -4.35941 -2.56493 0
M  V30 2877 C 267.044 -3.14288 -3.16448 0
M  V30 2878 C 267.745 -5.17615 -2.65424 0
M  V30 2879 N 266.721 -4.53559 -2.99641 0
M  V30 2880 H 270.523 -2.67044 -1.22738 0
M  V30 2881 H 268.037 -1.51479 -0.585479 0
M  V30 2882 H 270.034 -2.0714 -3.61799 0
M  V30 2883 H 268.694 -1.0244 -3.08117 0
M  V30 2884 H 269.705 -4.63876 -2.30302 0
M  V30 2885 H 266.382 -2.33312 -3.46225 0
M  V30 2886 H 267.772 -6.25006 -2.46612 0
M  V30 2887 N 270.492 0.636531 -1.44174 0
M  V30 2888 C 271.908 0.954104 -1.27941 0
M  V30 2889 C 272.108 2.0039 -0.211248 0
M  V30 2890 O 271.164 2.49236 0.404695 0
M  V30 2891 C 272.477 1.4225 -2.64925 0
M  V30 2892 C 274.025 1.53827 -2.72592 0
M  V30 2893 C 274.5 2.04053 -4.10032 0
M  V30 2894 N 275.991 2.11331 -4.12182 0
M  V30 2895 C 276.726 2.51352 -5.15374 0
M  V30 2896 N 276.222 2.90549 -6.2893 0
M  V30 2897 N 278.015 2.51438 -5.02728 0
M  V30 2898 H 270.166 -0.0578386 -2.12321 0
M  V30 2899 H 272.429 0.0367406 -0.947288 0
M  V30 2900 H 272.135 0.725466 -3.44136 0
M  V30 2901 H 272.009 2.39451 -2.9145 0
M  V30 2902 H 274.396 2.22628 -1.93702 0
M  V30 2903 H 274.477 0.550154 -2.49814 0
M  V30 2904 H 274.121 1.35848 -4.89395 0
M  V30 2905 H 274.051 3.03726 -4.30184 0
M  V30 2906 H 276.542 1.83745 -3.30222 0
M  V30 2907 H 276.855 3.19884 -7.03487 0
M  V30 2908 H 275.2 2.88313 -6.32377 0
M  V30 2909 H 278.391 2.20203 -4.13072 0
M  V30 2910 H 278.564 2.82304 -5.83274 0
M  V30 2911 N 271.97 1.30982 0.876444 0
M  V30 2912 C 273.219 1.19658 1.62373 0
M  V30 2913 C 273.532 -0.245636 1.94052 0
M  V30 2914 O 274.738 -0.48049 2.67214 0
M  V30 2915 C 273.194 2.09433 2.92687 0
M  V30 2916 C 272.802 3.58613 2.68516 0
M  V30 2917 C 274.546 2.06893 3.70669 0
M  V30 2918 C 272.453 4.40416 3.94699 0
M  V30 2919 H 271.383 0.444268 0.609214 0
M  V30 2920 H 274.034 1.55791 0.969605 0
M  V30 2921 H 272.416 1.66191 3.59439 0
M  V30 2922 H 273.59 4.10058 2.10212 0
M  V30 2923 H 271.905 3.63063 2.03898 0
M  V30 2924 H 274.502 2.65258 4.64265 0
M  V30 2925 H 274.845 1.05448 4.02724 0
M  V30 2926 H 275.378 2.48301 3.10792 0
M  V30 2927 H 272.117 5.42591 3.67798 0
M  V30 2928 H 271.637 3.93731 4.52477 0
M  V30 2929 H 273.316 4.52294 4.62644 0
M  V30 2930 N 273.449 -1.08991 1.13837 0
M  V30 2931 C 274.359 -2.19301 0.833333 0
M  V30 2932 C 275.375 -1.73026 -0.183847 0
M  V30 2933 O 276.551 -2.01395 -0.0138092 0
M  V30 2934 C 273.616 -3.45323 0.308651 0
M  V30 2935 C 272.677 -4.06255 1.38764 0
M  V30 2936 C 271.91 -5.26262 0.887896 0
M  V30 2937 O 272.133 -5.69747 -0.27287 0
M  V30 2938 O 271.067 -5.78435 1.66421 0
M  V30 2939 H 274.893 -2.47854 1.75506 0
M  V30 2940 H 272.478 -1.18012 0.916166 0
M  V30 2941 H 274.36 -4.21394 0.0216739 0
M  V30 2942 H 273.035 -3.18362 -0.585431 0
M  V30 2943 H 271.942 -3.318 1.72799 0
M  V30 2944 H 273.275 -4.37452 2.25602 0
M  V30 2945 N 274.927 -0.932562 -1.27047 0
M  V30 2946 C 275.874 -0.434072 -2.26681 0
M  V30 2947 C 276.844 0.501639 -1.58344 0
M  V30 2948 O 278.029 0.419734 -1.86126 0
M  V30 2949 C 275.169 0.30261 -3.43771 0
M  V30 2950 C 274.282 -0.667774 -4.26808 0
M  V30 2951 C 273.417 0.0892393 -5.31125 0
M  V30 2952 C 272.456 -0.873532 -6.05835 0
M  V30 2953 N 271.593 -0.148832 -7.01942 0
M  V30 2954 H 276.433 -1.28868 -2.68695 0
M  V30 2955 H 273.97 -0.646713 -1.32121 0
M  V30 2956 H 275.928 0.746092 -4.10474 0
M  V30 2957 H 274.558 1.12142 -3.02695 0
M  V30 2958 H 273.61 -1.22978 -3.59973 0
M  V30 2959 H 274.922 -1.40337 -4.78651 0
M  V30 2960 H 274.076 0.592409 -6.03801 0
M  V30 2961 H 272.815 0.85777 -4.80097 0
M  V30 2962 H 271.82 -1.38791 -5.31994 0
M  V30 2963 H 273.045 -1.64193 -6.58952 0
M  V30 2964 H 270.991 0.601365 -6.53238 0
M  V30 2965 H 270.908 -0.82391 -7.51497 0
M  V30 2966 H 272.176 0.333527 -7.78786 0
M  V30 2967 N 276.405 1.4127 -0.698611 0
M  V30 2968 C 277.335 2.33447 -0.049629 0
M  V30 2969 C 278.316 1.51982 0.763898 0
M  V30 2970 O 279.501 1.80509 0.716257 0
M  V30 2971 C 276.631 3.35828 0.885267 0
M  V30 2972 C 275.585 4.27627 0.178613 0
M  V30 2973 C 274.911 5.20406 1.22807 0
M  V30 2974 C 276.211 5.13459 -0.956933 0
M  V30 2975 H 277.905 2.87966 -0.81951 0
M  V30 2976 H 275.451 1.38461 -0.395538 0
M  V30 2977 H 277.404 3.9924 1.34854 0
M  V30 2978 H 276.128 2.79666 1.68685 0
M  V30 2979 H 274.787 3.65643 -0.26466 0
M  V30 2980 H 274.435 4.60558 2.02226 0
M  V30 2981 H 274.135 5.82661 0.760239 0
M  V30 2982 H 275.659 5.86695 1.69179 0
M  V30 2983 H 277.073 5.70421 -0.573805 0
M  V30 2984 H 275.47 5.8467 -1.35205 0
M  V30 2985 H 276.54 4.50443 -1.79524 0
M  V30 2986 N 277.883 0.443576 1.51229 0
M  V30 2987 C 279.294 -0.0180867 1.86691 0
M  V30 2988 C 279.645 -1.41384 1.36033 0
M  V30 2989 O 278.77 -2.04291 0.713722 0
M  V30 2990 C 279.365 -0.039597 3.38777 0
M  V30 2991 C 277.924 -0.445692 3.73752 0
M  V30 2992 C 277.071 0.357584 2.74985 0
M  V30 2993 H 280.022 0.659138 1.44364 0
M  V30 2994 H 280.043 -0.847761 3.70936 0
M  V30 2995 H 279.555 0.976382 3.75617 0
M  V30 2996 H 277.656 -1.46704 3.42503 0
M  V30 2997 H 277.769 -0.166155 4.78812 0
M  V30 2998 H 276.133 -0.184973 2.54027 0
M  V30 2999 H 276.916 1.37256 3.14668 0
M  V30 3000 N 279.361 -1.56624 0.175154 0
M  V30 3001 C 280.291 -2.21155 -0.749195 0
M  V30 3002 C 281.272 -1.16836 -1.23626 0
M  V30 3003 O 282.457 -1.45277 -1.28873 0
M  V30 3004 C 279.587 -2.8553 -1.97711 0
M  V30 3005 C 278.541 -3.95921 -1.62575 0
M  V30 3006 C 277.867 -4.47365 -2.92864 0
M  V30 3007 C 279.167 -5.15323 -0.850838 0
M  V30 3008 H 280.861 -2.98653 -0.211295 0
M  V30 3009 H 278.407 -1.43651 -0.100188 0
M  V30 3010 H 280.36 -3.2935 -2.62881 0
M  V30 3011 H 279.084 -2.05406 -2.53921 0
M  V30 3012 H 277.743 -3.52762 -0.997719 0
M  V30 3013 H 277.391 -3.64027 -3.47122 0
M  V30 3014 H 277.091 -5.21839 -2.70106 0
M  V30 3015 H 278.615 -4.93873 -3.59056 0
M  V30 3016 H 280.029 -5.55812 -1.40521 0
M  V30 3017 H 278.426 -5.95739 -0.722154 0
M  V30 3018 H 279.496 -4.84661 0.152082 0
M  V30 3019 N 280.839 0.0985539 -1.57292 0
M  V30 3020 C 282.085 0.803867 -1.86188 0
M  V30 3021 C 282.418 1.78549 -0.763794 0
M  V30 3022 O 281.693 1.93153 0.22855 0
M  V30 3023 C 281.976 1.53568 -3.25713 0
M  V30 3024 C 281.829 0.572277 -4.46145 0
M  V30 3025 C 283.148 2.48708 -3.63087 0
M  V30 3026 H 280.267 0.290781 -0.677211 0
M  V30 3027 H 282.909 0.0675783 -1.8988 0
M  V30 3028 H 281.059 2.16332 -3.22696 0
M  V30 3029 H 282.731 -0.0480894 -4.61275 0
M  V30 3030 H 280.974 -0.114618 -4.33649 0
M  V30 3031 H 281.645 1.12139 -5.40489 0
M  V30 3032 H 284.121 1.96039 -3.67026 0
M  V30 3033 H 282.997 2.96932 -4.61652 0
M  V30 3034 H 283.258 3.32309 -2.91588 0
M  V30 3035 N 282.317 1.53212 0.369288 0
M  V30 3036 C 283.594 1.59815 1.12776 0
M  V30 3037 C 283.974 0.403402 2.0721 0
M  V30 3038 O 283.322 -0.606667 2.20299 0
M  V30 3039 C 283.532 2.94664 1.87013 0
M  V30 3040 C 284.88 3.49109 2.41677 0
M  V30 3041 O 285.904 2.96669 1.97144 0
M  V30 3042 O 284.763 4.40775 3.23079 0
M  V30 3043 H 281.857 0.645376 0.517125 0
M  V30 3044 H 284.403 1.65553 0.37285 0
M  V30 3045 H 283.175 3.73061 1.18071 0
M  V30 3046 H 282.798 2.92401 2.69421 0
M  V30 3047 N 283.795 -0.628877 1.44509 0
M  V30 3048 C 284.743 -1.76193 1.51852 0
M  V30 3049 C 285.737 -1.64849 0.390042 0
M  V30 3050 O 286.943 -1.709 0.565082 0
M  V30 3051 H 283.318 -0.581728 0.476547 0
M  V30 3052 H 285.289 -1.67123 2.47209 0
M  V30 3053 C 284.038 -3.14533 1.48204 0
M  V30 3054 H 283.361 -3.23911 2.34354 0
M  V30 3055 H 284.801 -3.93701 1.57402 0
M  V30 3056 C 283.26 -3.36287 0.203142 0
M  V30 3057 O 283.79 -3.9509 -0.725745 0
M  V30 3058 N 281.996 -2.90408 0.105563 0
M  V30 3059 H 281.543 -2.42739 0.862301 0
M  V30 3060 H 281.501 -3.05339 -0.749371 0
M  V30 3061 N 285.273 -1.31445 -0.869486 0
M  V30 3062 C 286.498 -1.24256 -1.66058 0
M  V30 3063 C 286.923 0.188928 -1.87149 0
M  V30 3064 O 286.281 1.13522 -1.4136 0
M  V30 3065 C 286.329 -1.9924 -3.00559 0
M  V30 3066 O 285.433 -1.33007 -3.90362 0
M  V30 3067 H 284.774 -0.428973 -0.506831 0
M  V30 3068 H 287.304 -1.73521 -1.08404 0
M  V30 3069 H 287.314 -2.08854 -3.50491 0
M  V30 3070 H 285.989 -3.03342 -2.84528 0
M  V30 3071 H 284.566 -1.31848 -3.48813 0
M  V30 3072 N 286.751 1.08385 -1.14413 0
M  V30 3073 C 287.999 1.80419 -0.910679 0
M  V30 3074 C 288.32 1.86658 0.564243 0
M  V30 3075 O 287.59 1.35985 1.41014 0
M  V30 3076 H 286.17 0.668204 -0.333934 0
M  V30 3077 H 288.832 1.31037 -1.44275 0
M  V30 3078 H 287.928 2.83238 -1.31082 0
M  V30 3079 N 288.23 0.939286 1.26551 0
M  V30 3080 C 289.646 0.641304 1.46149 0
M  V30 3081 C 289.846 -0.805964 1.84679 0
M  V30 3082 O 288.902 -1.58278 1.96734 0
M  V30 3083 C 290.215 1.6011 2.54529 0
M  V30 3084 C 291.763 1.6106 2.68382 0
M  V30 3085 C 292.238 2.55765 3.79932 0
M  V30 3086 N 293.729 2.5404 3.87322 0
M  V30 3087 C 294.464 3.24004 4.73085 0
M  V30 3088 N 293.96 4.03388 5.63249 0
M  V30 3089 N 295.753 3.12965 4.66914 0
M  V30 3090 H 287.904 1.87478 0.998285 0
M  V30 3091 H 290.167 0.805559 0.499779 0
M  V30 3092 H 289.873 2.63412 2.33039 0
M  V30 3093 H 289.747 1.35171 3.52149 0
M  V30 3094 H 292.134 0.584835 2.89247 0
M  V30 3095 H 292.215 1.90053 1.71212 0
M  V30 3096 H 291.859 3.58458 3.5982 0
M  V30 3097 H 291.789 2.24063 4.76554 0
M  V30 3098 H 294.28 1.96396 3.22858 0
M  V30 3099 H 294.593 4.5373 6.25579 0
M  V30 3100 H 292.938 4.07489 5.63008 0
M  V30 3101 H 296.129 2.50432 3.95476 0
M  V30 3102 H 296.302 3.67759 5.33533 0
M  V30 3103 N 289.708 -1.40897 0.706093 0
M  V30 3104 C 290.638 -2.33418 0.0620085 0
M  V30 3105 C 291.619 -1.52385 -0.755827 0
M  V30 3106 O 292.804 -1.80886 -0.706674 0
M  V30 3107 C 289.934 -3.36293 -0.867445 0
M  V30 3108 C 288.888 -4.27716 -0.155932 0
M  V30 3109 C 288.214 -5.2105 -1.20046 0
M  V30 3110 C 289.514 -5.12944 0.984149 0
M  V30 3111 H 291.208 -2.87527 0.83477 0
M  V30 3112 H 288.754 -1.38249 0.402875 0
M  V30 3113 H 290.707 -3.99949 -1.32735 0
M  V30 3114 H 289.431 -2.80556 -1.67199 0
M  V30 3115 H 288.09 -3.65498 0.284047 0
M  V30 3116 H 287.738 -4.61624 -1.99781 0
M  V30 3117 H 287.438 -5.83056 -0.729328 0
M  V30 3118 H 288.962 -5.87584 -1.66066 0
M  V30 3119 H 290.376 -5.70109 0.604048 0
M  V30 3120 H 288.773 -5.83945 1.38304 0
M  V30 3121 H 289.843 -4.49485 1.81911 0
M  V30 3122 N 291.186 -0.45159 -1.50991 0
M  V30 3123 C 292.411 0.110667 -2.07105 0
M  V30 3124 C 292.836 1.3446 -1.31538 0
M  V30 3125 O 292.194 1.77743 -0.357365 0
M  V30 3126 C 292.242 0.397238 -3.58405 0
M  V30 3127 O 291.346 1.48124 -3.84881 0
M  V30 3128 H 290.687 -0.00439271 -0.663985 0
M  V30 3129 H 293.217 -0.637026 -1.9443 0
M  V30 3130 H 293.227 0.64351 -4.02893 0
M  V30 3131 H 291.902 -0.504553 -4.12828 0
M  V30 3132 H 290.479 1.22381 -3.52246 0
M  V30 3133 N 292.664 1.56529 -0.183458 0
M  V30 3134 C 293.912 1.96855 0.457452 0
M  V30 3135 C 294.233 1.07104 1.62953 0
M  V30 3136 O 293.503 0.139887 1.954 0
M  V30 3137 H 292.083 0.72693 0.171992 0
M  V30 3138 H 294.745 1.93056 -0.267476 0
M  V30 3139 H 293.841 3.01423 0.809368 0
M  V30 3140 N 294.142 -0.090211 1.57342 0
M  V30 3141 C 295.072 -1.10976 2.05443 0
M  V30 3142 C 296.053 -1.41482 0.944284 0
M  V30 3143 O 297.238 -1.51428 1.21586 0
M  V30 3144 C 294.368 -2.42831 2.48295 0
M  V30 3145 C 293.322 -2.26721 3.63018 0
M  V30 3146 C 292.648 -3.63796 3.91863 0
M  V30 3147 C 293.948 -1.7037 4.93732 0
M  V30 3148 H 295.642 -0.709564 2.9087 0
M  V30 3149 H 293.188 -0.339874 1.39932 0
M  V30 3150 H 295.141 -3.14431 2.80555 0
M  V30 3151 H 293.865 -2.84795 1.59873 0
M  V30 3152 H 292.524 -1.57565 3.31012 0
M  V30 3153 H 292.172 -4.03297 3.00601 0
M  V30 3154 H 291.872 -3.53861 4.69101 0
M  V30 3155 H 293.396 -4.36855 4.26603 0
M  V30 3156 H 294.81 -2.31816 5.24342 0
M  V30 3157 H 293.207 -1.71181 5.75167 0
M  V30 3158 H 294.277 -0.663542 4.80339 0
M  V30 3159 N 295.62 -1.53406 -0.361157 0
M  V30 3160 C 296.869 -1.69022 -1.10066 0
M  V30 3161 C 297.182 -0.450838 -1.90333 0
M  V30 3162 O 298.388 -0.487617 -2.67085 0
M  V30 3163 C 296.844 -2.98812 -2.00598 0
M  V30 3164 C 296.452 -4.30027 -1.25621 0
M  V30 3165 C 298.196 -3.23795 -2.74513 0
M  V30 3166 C 296.103 -5.50903 -2.1508 0
M  V30 3167 H 295.033 -0.629776 -0.414606 0
M  V30 3168 H 297.684 -1.79907 -0.361348 0
M  V30 3169 H 296.066 -2.8174 -2.78278 0
M  V30 3170 H 297.24 -4.57745 -0.529739 0
M  V30 3171 H 295.555 -4.11522 -0.635496 0
M  V30 3172 H 298.152 -4.11289 -3.41681 0
M  V30 3173 H 298.495 -2.40045 -3.40123 0
M  V30 3174 H 299.028 -3.41561 -2.03914 0
M  V30 3175 H 295.767 -6.37143 -1.54041 0
M  V30 3176 H 295.287 -5.27459 -2.85565 0
M  V30 3177 H 296.966 -5.85865 -2.74538 0
M  V30 3178 N 297.098 0.621204 -1.44841 0
M  V30 3179 C 298.326 1.40752 -1.51646 0
M  V30 3180 C 298.741 1.88246 -0.144549 0
M  V30 3181 O 298.098 1.61422 0.851416 0
M  V30 3182 C 298.149 2.62119 -2.4895 0
M  V30 3183 O 297.87 2.16602 -3.80808 0
M  V30 3184 C 299.371 3.55135 -2.65319 0
M  V30 3185 H 296.591 0.431325 -0.514004 0
M  V30 3186 H 299.135 0.758835 -1.899 0
M  V30 3187 H 297.29 3.23058 -2.13805 0
M  V30 3188 H 297.704 2.95358 -4.33433 0
M  V30 3189 H 299.178 4.36874 -3.37409 0
M  V30 3190 H 299.655 4.04592 -1.70886 0
M  V30 3191 H 300.261 3.00058 -3.01405 0
M  V30 3192 N 298.576 1.31904 0.862503 0
M  V30 3193 C 299.825 1.21373 1.61094 0
M  V30 3194 C 300.138 -0.22504 1.94301 0
M  V30 3195 O 301.344 -0.452121 2.67709 0
M  V30 3196 C 299.8 2.12525 2.9045 0
M  V30 3197 C 299.408 3.61441 2.64697 0
M  V30 3198 C 301.152 2.10813 3.68454 0
M  V30 3199 C 299.059 4.44578 3.90006 0
M  V30 3200 H 297.989 0.450705 0.604468 0
M  V30 3201 H 300.64 1.56811 0.953027 0
M  V30 3202 H 299.022 1.69994 3.57656 0
M  V30 3203 H 300.196 4.12264 2.05851 0
M  V30 3204 H 298.511 3.65205 2.00036 0
M  V30 3205 H 301.108 2.70167 4.61426 0
M  V30 3206 H 301.451 1.09713 4.01583 0
M  V30 3207 H 301.984 2.51583 3.08141 0
M  V30 3208 H 298.723 5.46461 3.62023 0
M  V30 3209 H 298.243 3.98508 4.48276 0
M  V30 3210 H 299.922 4.57176 4.5782 0
M  V30 3211 N 300.054 -1.07777 1.14986 0
M  V30 3212 C 301.001 -2.14867 0.842672 0
M  V30 3213 C 301.971 -1.6486 -0.202552 0
M  V30 3214 O 303.156 -1.90668 -0.0710568 0
M  V30 3215 C 300.296 -3.43486 0.333363 0
M  V30 3216 C 299.409 -4.07306 1.43965 0
M  V30 3217 C 298.544 -5.23744 0.886914 0
M  V30 3218 C 297.583 -5.79517 1.97043 0
M  V30 3219 N 296.72 -6.87291 1.4344 0
M  V30 3220 H 301.56 -2.40485 1.75986 0
M  V30 3221 H 299.097 -1.1801 0.878179 0
M  V30 3222 H 301.055 -4.17195 0.0198163 0
M  V30 3223 H 299.685 -3.18133 -0.546916 0
M  V30 3224 H 298.737 -3.31293 1.86946 0
M  V30 3225 H 300.049 -4.44771 2.25788 0
M  V30 3226 H 299.203 -6.04419 0.525651 0
M  V30 3227 H 297.942 -4.87685 0.0377957 0
M  V30 3228 H 296.947 -4.97491 2.34057 0
M  V30 3229 H 298.172 -6.17632 2.82325 0
M  V30 3230 H 296.118 -6.5318 0.607567 0
M  V30 3231 H 296.035 -7.23617 2.18895 0
M  V30 3232 H 297.303 -7.71682 1.10124 0
M  V30 3233 N 301.532 -0.945985 -1.26051 0
M  V30 3234 C 302.809 -0.513816 -1.88731 0
M  V30 3235 C 303.189 1.00872 -1.8544 0
M  V30 3236 O 302.537 1.8708 -1.312 0
M  V30 3237 C 302.747 -1.08062 -3.31849 0
M  V30 3238 C 304.095 -1.1522 -4.08668 0
M  V30 3239 O 305.119 -1.03155 -3.40936 0
M  V30 3240 O 303.978 -1.34044 -5.29806 0
M  V30 3241 H 301.072 -0.168193 -0.809716 0
M  V30 3242 H 303.618 -1.03886 -1.34186 0
M  V30 3243 H 302.39 -2.1241 -3.2863 0
M  V30 3244 H 302.013 -0.538307 -3.93939 0
M  V30 3245 N 303.011 1.40521 -0.713556 0
M  V30 3246 C 304.26 2.00155 -0.249192 0
M  V30 3247 C 304.573 1.57224 1.16362 0
M  V30 3248 O 305.779 2.09542 1.72639 0
M  V30 3249 C 304.235 3.5773 -0.3946 0
M  V30 3250 C 303.843 4.09635 -1.81392 0
M  V30 3251 C 305.587 4.24499 0.00907364 0
M  V30 3252 C 303.494 5.59707 -1.91003 0
M  V30 3253 H 302.424 0.74868 -0.0894114 0
M  V30 3254 H 305.075 1.60784 -0.884352 0
M  V30 3255 H 303.457 3.94792 0.30911 0
M  V30 3256 H 304.631 3.83955 -2.54785 0
M  V30 3257 H 302.946 3.55456 -2.16888 0
M  V30 3258 H 305.543 5.34683 -0.0420404 0
M  V30 3259 H 305.886 4.02824 1.05065 0
M  V30 3260 H 306.419 3.92536 -0.645007 0
M  V30 3261 H 303.158 5.86234 -2.93275 0
M  V30 3262 H 302.678 5.87258 -1.22019 0
M  V30 3263 H 304.357 6.24776 -1.6812 0
M  V30 3264 N 304.489 0.459591 1.5075 0
M  V30 3265 C 305.399 -0.34613 2.32033 0
M  V30 3266 C 306.415 -1.00686 1.41909 0
M  V30 3267 O 307.591 -0.997361 1.7497 0
M  V30 3268 C 304.656 -1.42029 3.16273 0
M  V30 3269 C 303.717 -0.777362 4.22203 0
M  V30 3270 C 302.95 -1.80034 5.02418 0
M  V30 3271 O 303.173 -3.02544 4.83553 0
M  V30 3272 O 302.107 -1.37853 5.85901 0
M  V30 3273 H 305.933 0.318054 3.0203 0
M  V30 3274 H 303.518 0.221663 1.47746 0
M  V30 3275 H 305.4 -2.04275 3.68578 0
M  V30 3276 H 304.075 -2.06815 2.49016 0
M  V30 3277 H 302.982 -0.116256 3.73919 0
M  V30 3278 H 304.315 -0.172634 4.91897 0
M  V30 3279 N 305.967 -1.56429 0.191757 0
M  V30 3280 C 306.914 -2.18936 -0.730454 0
M  V30 3281 C 307.884 -1.13557 -1.21219 0
M  V30 3282 O 309.069 -1.41794 -1.27668 0
M  V30 3283 C 306.209 -2.85013 -1.9458 0
M  V30 3284 C 305.322 -4.04909 -1.50574 0
M  V30 3285 C 304.457 -4.58853 -2.67634 0
M  V30 3286 C 303.496 -5.71114 -2.20217 0
M  V30 3287 N 302.633 -6.19478 -3.30442 0
M  V30 3288 H 307.473 -2.97389 -0.190664 0
M  V30 3289 H 305.01 -1.46869 -0.0823694 0
M  V30 3290 H 306.968 -3.21492 -2.65893 0
M  V30 3291 H 305.598 -2.09129 -2.45896 0
M  V30 3292 H 304.65 -3.74115 -0.688605 0
M  V30 3293 H 305.962 -4.86113 -1.11784 0
M  V30 3294 H 305.116 -4.97619 -3.47074 0
M  V30 3295 H 303.855 -3.76749 -3.09696 0
M  V30 3296 H 302.86 -5.31879 -1.3923 0
M  V30 3297 H 304.085 -6.55033 -1.79189 0
M  V30 3298 H 302.031 -5.40297 -3.72041 0
M  V30 3299 H 301.948 -6.95725 -2.9581 0
M  V30 3300 H 303.216 -6.62898 -4.10106 0
M  V30 3301 N 307.445 0.0818655 -1.57387 0
M  V30 3302 C 308.691 0.784074 -1.8703 0
M  V30 3303 C 309.024 1.77729 -0.782689 0
M  V30 3304 O 308.299 1.93384 0.208051 0
M  V30 3305 C 308.582 1.50105 -3.27323 0
M  V30 3306 C 308.435 0.524925 -4.46727 0
M  V30 3307 C 309.754 2.44843 -3.65705 0
M  V30 3308 H 306.873 0.283582 -0.680257 0
M  V30 3309 H 309.515 0.0474352 -1.89941 0
M  V30 3310 H 307.665 2.12897 -3.24972 0
M  V30 3311 H 309.337 -0.0970111 -4.61198 0
M  V30 3312 H 307.58 -0.160606 -4.33503 0
M  V30 3313 H 308.251 1.064 -5.41648 0
M  V30 3314 H 310.727 1.92135 -3.69085 0
M  V30 3315 H 309.603 2.92018 -4.64776 0
M  V30 3316 H 309.864 3.29197 -2.95096 0
M  V30 3317 N 308.923 1.53595 0.353017 0
M  V30 3318 C 310.172 1.69603 1.09168 0
M  V30 3319 C 310.485 0.460925 1.90092 0
M  V30 3320 O 311.691 0.501774 2.66823 0
M  V30 3321 C 310.147 2.99872 1.9901 0
M  V30 3322 C 309.755 4.30687 1.23339 0
M  V30 3323 C 311.499 3.25246 2.72792 0
M  V30 3324 C 309.406 5.52036 2.12156 0
M  V30 3325 H 308.336 0.631966 0.411261 0
M  V30 3326 H 310.987 1.80096 0.351802 0
M  V30 3327 H 309.369 2.83212 2.7678 0
M  V30 3328 H 310.543 4.58019 0.505456 0
M  V30 3329 H 308.858 4.11853 0.613663 0
M  V30 3330 H 311.455 4.13095 3.39495 0
M  V30 3331 H 311.798 2.41846 3.38846 0
M  V30 3332 H 312.331 3.42638 2.021 0
M  V30 3333 H 309.07 6.37951 1.50659 0
M  V30 3334 H 308.59 5.28966 2.82764 0
M  V30 3335 H 310.269 5.87313 2.71427 0
M  V30 3336 N 310.401 -0.613514 1.45168 0
M  V30 3337 C 311.311 -1.75296 1.55912 0
M  V30 3338 C 312.327 -1.68244 0.443856 0
M  V30 3339 O 313.503 -1.88706 0.70371 0
M  V30 3340 C 310.568 -3.1174 1.5172 0
M  V30 3341 C 309.629 -3.30291 2.74238 0
M  V30 3342 C 308.862 -4.60226 2.70236 0
M  V30 3343 O 309.085 -5.42168 1.77229 0
M  V30 3344 O 308.019 -4.81361 3.61352 0
M  V30 3345 H 311.845 -1.69183 2.52212 0
M  V30 3346 H 309.43 -0.776886 1.27612 0
M  V30 3347 H 311.312 -3.93044 1.51968 0
M  V30 3348 H 309.987 -3.18357 0.585697 0
M  V30 3349 H 308.894 -2.48598 2.79553 0
M  V30 3350 H 310.227 -3.28547 3.66494 0
M  V30 3351 N 311.879 -1.3236 -0.855495 0
M  V30 3352 C 313.126 -1.22872 -1.60962 0
M  V30 3353 C 313.454 0.209658 -1.93367 0
M  V30 3354 O 312.709 1.16243 -1.57436 0
M  V30 3355 C 313.008 -2.03275 -2.93963 0
M  V30 3356 C 312.674 -3.5264 -2.80991 0
M  V30 3357 C 311.336 -3.93364 -2.7716 0
M  V30 3358 C 313.688 -4.47626 -2.66983 0
M  V30 3359 C 311.016 -5.27319 -2.572 0
M  V30 3360 C 313.368 -5.81723 -2.48558 0
M  V30 3361 C 312.032 -6.2165 -2.4312 0
M  V30 3362 H 311.302 -0.44962 -0.589001 0
M  V30 3363 H 313.949 -1.63777 -0.992442 0
M  V30 3364 H 312.254 -1.55095 -3.59795 0
M  V30 3365 H 313.951 -1.93303 -3.51333 0
M  V30 3366 H 310.541 -3.20295 -2.84797 0
M  V30 3367 H 314.725 -4.17084 -2.68988 0
M  V30 3368 H 309.981 -5.57311 -2.51424 0
M  V30 3369 H 314.155 -6.5494 -2.36699 0
M  V30 3370 H 311.782 -7.25388 -2.27412 0
M  V30 3371 N 313.357 1.07166 -1.15556 0
M  V30 3372 C 314.768 1.6127 -0.940693 0
M  V30 3373 C 315.119 1.89251 0.517551 0
M  V30 3374 O 314.244 1.65937 1.38903 0
M  V30 3375 C 314.839 2.92993 -1.7012 0
M  V30 3376 C 313.398 3.43832 -1.53156 0
M  V30 3377 C 312.545 2.1786 -1.71558 0
M  V30 3378 H 315.496 0.90229 -1.30554 0
M  V30 3379 H 315.517 3.62007 -1.17181 0
M  V30 3380 H 315.029 2.72596 -2.76248 0
M  V30 3381 H 313.13 3.69307 -0.494294 0
M  V30 3382 H 313.243 4.19747 -2.30975 0
M  V30 3383 H 311.607 2.2765 -1.14225 0
M  V30 3384 H 312.39 1.99956 -2.79056 0
M  V30 3385 N 314.835 0.952656 1.25548 0
M  V30 3386 C 315.785 0.442033 2.23674 0
M  V30 3387 C 316.769 -0.467632 1.53955 0
M  V30 3388 O 317.961 -0.301006 1.74422 0
M  V30 3389 C 315.09 -0.280816 3.4215 0
M  V30 3390 C 314.176 0.646803 4.19139 0
M  V30 3391 N 314.567 1.77759 4.73535 0
M  V30 3392 C 312.865 0.454617 4.43677 0
M  V30 3393 C 313.566 2.35658 5.31827 0
M  V30 3394 N 312.542 1.64333 5.18166 0
M  V30 3395 H 316.344 1.30505 2.63336 0
M  V30 3396 H 313.858 0.809904 1.40763 0
M  V30 3397 H 315.855 -0.663747 4.11582 0
M  V30 3398 H 314.515 -1.14046 3.04012 0
M  V30 3399 H 315.526 2.15949 4.7073 0
M  V30 3400 H 312.203 -0.362312 4.15925 0
M  V30 3401 H 313.593 3.30998 5.84713 0
M  V30 3402 N 316.313 -1.40141 0.720998 0
M  V30 3403 C 317.276 -2.29058 0.0805834 0
M  V30 3404 C 318.276 -1.45632 -0.681758 0
M  V30 3405 O 319.466 -1.6648 -0.512856 0
M  V30 3406 C 316.598 -3.28925 -0.895593 0
M  V30 3407 H 317.791 -2.87191 0.863793 0
M  V30 3408 H 315.344 -1.48553 0.485975 0
M  V30 3409 H 316.079 -2.75822 -1.70566 0
M  V30 3410 H 315.864 -3.90519 -0.351766 0
M  V30 3411 H 317.354 -3.95494 -1.34069 0
M  V30 3412 N 317.792 -0.46758 -1.50504 0
M  V30 3413 C 318.755 0.317059 -2.26996 0
M  V30 3414 C 319.755 0.923513 -1.31635 0
M  V30 3415 O 320.945 0.793239 -1.55091 0
M  V30 3416 C 318.077 1.45134 -3.08462 0
M  V30 3417 H 319.27 -0.353723 -2.97807 0
M  V30 3418 H 316.823 -0.221545 -1.54722 0
M  V30 3419 H 317.558 2.15728 -2.4214 0
M  V30 3420 H 317.343 1.02232 -3.78538 0
M  V30 3421 H 318.833 2.00493 -3.66323 0
M  V30 3422 N 319.27 1.56325 -0.20005 0
M  V30 3423 C 320.217 2.1932 0.718833 0
M  V30 3424 C 321.187 1.14198 1.20615 0
M  V30 3425 O 322.372 1.42469 1.26914 0
M  V30 3426 C 319.512 2.86041 1.93066 0
M  V30 3427 C 318.625 4.05702 1.48425 0
M  V30 3428 C 317.76 4.60266 2.65196 0
M  V30 3429 C 316.799 5.72273 2.17185 0
M  V30 3430 N 315.936 6.21221 3.27152 0
M  V30 3431 H 320.776 2.97486 0.17489 0
M  V30 3432 H 318.313 1.46911 0.0745794 0
M  V30 3433 H 320.271 3.22897 2.64184 0
M  V30 3434 H 318.901 2.1043 2.44783 0
M  V30 3435 H 317.953 3.74475 0.668755 0
M  V30 3436 H 319.265 4.86699 1.09204 0
M  V30 3437 H 318.419 4.99453 3.4443 0
M  V30 3438 H 317.158 3.78386 3.07693 0
M  V30 3439 H 316.163 5.3261 1.36407 0
M  V30 3440 H 317.388 6.55974 1.75713 0
M  V30 3441 H 315.334 5.42263 3.69171 0
M  V30 3442 H 315.251 6.97284 2.92116 0
M  V30 3443 H 316.519 6.65063 4.06585 0
M  V30 3444 N 320.748 -0.0735177 1.57428 0
M  V30 3445 C 322.025 -0.805903 1.78226 0
M  V30 3446 C 322.405 -1.95874 0.787189 0
M  V30 3447 O 321.753 -2.2779 -0.180029 0
M  V30 3448 C 321.963 -1.28045 3.24662 0
M  V30 3449 C 323.311 -1.71453 3.88444 0
M  V30 3450 O 324.335 -1.37616 3.28543 0
M  V30 3451 O 323.194 -2.34093 4.93825 0
M  V30 3452 H 320.288 -0.386041 0.73137 0
M  V30 3453 H 322.834 -0.0537269 1.69615 0
M  V30 3454 H 321.606 -0.455476 3.8864 0
M  V30 3455 H 321.229 -2.094 3.37991 0
M  V30 3456 N 322.226 -1.5378 -0.344866 0
M  V30 3457 C 323.136 -1.84667 -1.4469 0
M  V30 3458 C 324.152 -0.736704 -1.57635 0
M  V30 3459 O 325.328 -1.02888 -1.73136 0
M  V30 3460 C 322.393 -2.04869 -2.79696 0
M  V30 3461 C 321.454 -3.28731 -2.76106 0
M  V30 3462 C 320.687 -3.4796 -4.04673 0
M  V30 3463 O 320.91 -2.71052 -5.01883 0
M  V30 3464 O 319.844 -4.41383 -4.09224 0
M  V30 3465 H 323.67 -2.78334 -1.21506 0
M  V30 3466 H 321.255 -1.39418 -0.536921 0
M  V30 3467 H 323.137 -2.19609 -3.59652 0
M  V30 3468 H 321.812 -1.14391 -3.02814 0
M  V30 3469 H 320.719 -3.19396 -1.94774 0
M  V30 3470 H 322.052 -4.19198 -2.57941 0
M  V30 3471 N 323.704 0.605807 -1.45491 0
M  V30 3472 C 324.951 1.36476 -1.49601 0
M  V30 3473 C 325.279 1.94007 -0.138452 0
M  V30 3474 O 324.534 1.75638 0.863114 0
M  V30 3475 C 324.833 2.53012 -2.52428 0
M  V30 3476 C 324.499 2.13617 -3.97087 0
M  V30 3477 C 323.161 2.02587 -4.36477 0
M  V30 3478 C 325.513 1.82899 -4.88055 0
M  V30 3479 C 322.841 1.59064 -5.64726 0
M  V30 3480 C 325.193 1.40861 -6.16718 0
M  V30 3481 C 323.857 1.28391 -6.55036 0
M  V30 3482 H 323.127 0.499402 -0.547429 0
M  V30 3483 H 325.774 0.684546 -1.78847 0
M  V30 3484 H 324.079 3.26379 -2.16758 0
M  V30 3485 H 325.776 3.1124 -2.52845 0
M  V30 3486 H 322.366 2.23129 -3.65939 0
M  V30 3487 H 326.55 1.90317 -4.58359 0
M  V30 3488 H 321.806 1.48034 -5.93208 0
M  V30 3489 H 325.98 1.16138 -6.86648 0
M  V30 3490 H 323.607 0.944403 -7.54311 0
M  V30 3491 N 325.182 1.32811 0.848464 0
M  V30 3492 C 326.43 1.23479 1.59991 0
M  V30 3493 C 326.751 -0.201853 1.93952 0
M  V30 3494 O 326.021 -1.12818 1.60153 0
M  V30 3495 H 324.601 0.454034 0.593179 0
M  V30 3496 H 327.263 1.66412 1.01455 0
M  V30 3497 H 326.359 1.82178 2.53412 0
M  V30 3498 N 326.66 -1.06551 1.16123 0
M  V30 3499 C 328.076 -1.3142 0.905585 0
M  V30 3500 C 328.276 -1.96571 -0.442964 0
M  V30 3501 O 327.332 -2.23068 -1.18308 0
M  V30 3502 C 328.645 -2.19741 2.05267 0
M  V30 3503 C 330.193 -2.33165 2.08813 0
M  V30 3504 C 330.668 -3.24838 3.22868 0
M  V30 3505 N 332.159 -3.32421 3.22568 0
M  V30 3506 C 332.894 -4.0344 4.0746 0
M  V30 3507 N 332.39 -4.77003 5.02434 0
M  V30 3508 N 334.183 -3.99464 3.95456 0
M  V30 3509 H 326.334 -0.626548 2.02949 0
M  V30 3510 H 328.597 -0.338777 0.8854 0
M  V30 3511 H 328.303 -1.79142 3.02657 0
M  V30 3512 H 328.177 -3.20313 1.99198 0
M  V30 3513 H 330.564 -2.73013 1.12018 0
M  V30 3514 H 330.645 -1.3227 2.18948 0
M  V30 3515 H 330.289 -2.85708 4.19921 0
M  V30 3516 H 330.219 -4.25707 3.0997 0
M  V30 3517 H 332.71 -2.79994 2.53795 0
M  V30 3518 H 333.023 -5.28712 5.63634 0
M  V30 3519 H 331.368 -4.75992 5.06415 0
M  V30 3520 H 334.559 -3.4111 3.20564 0
M  V30 3521 H 334.732 -4.54544 4.61837 0
M  V30 3522 N 328.138 -0.959301 -1.25041 0
M  V30 3523 C 329.068 -0.501388 -2.28053 0
M  V30 3524 C 330.049 0.454673 -1.63911 0
M  V30 3525 O 331.234 0.352618 -1.90972 0
M  V30 3526 C 328.364 0.217224 -3.4662 0
M  V30 3527 C 327.318 -0.654034 -4.22973 0
M  V30 3528 C 326.644 0.195589 -5.34342 0
M  V30 3529 C 327.944 -1.93447 -4.85155 0
M  V30 3530 H 329.638 -1.36238 -2.66608 0
M  V30 3531 H 327.184 -0.656534 -1.28163 0
M  V30 3532 H 329.137 0.548732 -4.17812 0
M  V30 3533 H 327.861 1.1125 -3.07068 0
M  V30 3534 H 326.52 -0.968693 -3.5357 0
M  V30 3535 H 326.168 1.09076 -4.91031 0
M  V30 3536 H 325.868 -0.384091 -5.86343 0
M  V30 3537 H 327.392 0.521958 -6.08365 0
M  V30 3538 H 328.806 -1.66908 -5.48466 0
M  V30 3539 H 327.203 -2.46018 -5.47353 0
M  V30 3540 H 328.273 -2.63466 -4.07079 0
M  V30 3541 N 329.616 1.39756 -0.72842 0
M  V30 3542 C 330.546 2.33289 -0.0991354 0
M  V30 3543 C 331.527 1.53568 0.731489 0
M  V30 3544 O 332.712 1.81987 0.677807 0
M  V30 3545 C 329.842 3.3763 0.813834 0
M  V30 3546 C 328.796 4.2791 0.0878663 0
M  V30 3547 C 328.122 5.22894 1.11741 0
M  V30 3548 C 329.422 5.11314 -1.06563 0
M  V30 3549 H 331.116 2.86163 -0.880408 0
M  V30 3550 H 328.662 1.37591 -0.424819 0
M  V30 3551 H 330.615 4.0201 1.26355 0
M  V30 3552 H 329.339 2.83181 1.62715 0
M  V30 3553 H 327.998 3.65 -0.342159 0
M  V30 3554 H 327.646 4.64744 1.92412 0
M  V30 3555 H 327.346 5.84143 0.636477 0
M  V30 3556 H 328.87 5.90151 1.56697 0
M  V30 3557 H 330.284 5.69076 -0.694671 0
M  V30 3558 H 328.681 5.81671 -1.47577 0
M  V30 3559 H 329.751 4.46534 -1.89038 0
M  V30 3560 N 331.094 0.475555 1.50254 0
M  V30 3561 C 332.34 -0.0780073 2.0265 0
M  V30 3562 C 332.673 -1.38968 1.35652 0
M  V30 3563 O 331.948 -1.8839 0.483691 0
M  V30 3564 C 332.231 -0.257161 3.59181 0
M  V30 3565 C 332.084 1.07585 4.36744 0
M  V30 3566 C 333.403 -1.00965 4.28362 0
M  V30 3567 H 330.522 -0.0268758 0.73651 0
M  V30 3568 H 333.164 0.622015 1.7953 0
M  V30 3569 H 331.314 -0.853412 3.79011 0
M  V30 3570 H 332.986 1.70902 4.28474 0
M  V30 3571 H 331.229 1.6714 4.00308 0
M  V30 3572 H 331.9 0.904088 5.44546 0
M  V30 3573 H 334.376 -0.504214 4.13034 0
M  V30 3574 H 333.252 -1.10381 5.37687 0
M  V30 3575 H 333.513 -2.04731 3.91839 0
M  V30 3576 N 332.573 -1.56217 0.208337 0
M  V30 3577 C 333.536 -2.18455 -0.693557 0
M  V30 3578 C 334.536 -1.14268 -1.13135 0
M  V30 3579 O 335.726 -1.39577 -1.0423 0
M  V30 3580 C 332.858 -2.79727 -1.94848 0
M  V30 3581 H 334.051 -2.99519 -0.15114 0
M  V30 3582 H 331.604 -1.56245 -0.041287 0
M  V30 3583 H 332.339 -2.02497 -2.53309 0
M  V30 3584 H 332.124 -3.56009 -1.64316 0
M  V30 3585 H 333.614 -3.27475 -2.59133 0
M  V30 3586 N 334.051 0.0651679 -1.57465 0
M  V30 3587 C 335.014 1.06117 -2.03155 0
M  V30 3588 C 336.014 1.31204 -0.929632 0
M  V30 3589 O 337.204 1.26813 -1.19432 0
M  V30 3590 C 334.336 2.4032 -2.41783 0
M  V30 3591 H 335.529 0.667231 -2.92383 0
M  V30 3592 H 333.082 0.311075 -1.53173 0
M  V30 3593 H 333.817 2.84532 -1.55601 0
M  V30 3594 H 333.602 2.23451 -3.22199 0
M  V30 3595 H 335.092 3.11898 -2.77685 0
M  V30 3596 N 335.529 1.53961 0.336706 0
M  V30 3597 C 336.492 1.81724 1.39675 0
M  V30 3598 C 337.492 0.688532 1.45313 0
M  V30 3599 O 338.682 0.956829 1.45569 0
M  V30 3600 C 335.814 1.96543 2.78538 0
M  V30 3601 H 337.007 2.76424 1.16318 0
M  V30 3602 H 334.56 1.45478 0.571474 0
M  V30 3603 H 335.295 1.0401 3.07168 0
M  V30 3604 H 335.08 2.78665 2.75841 0
M  V30 3605 H 336.57 2.19516 3.5525 0
M  V30 3606 N 337.007 -0.598083 1.45811 0
M  V30 3607 C 338.253 -1.35882 1.50545 0
M  V30 3608 C 338.586 -1.93616 0.150445 0
M  V30 3609 O 337.861 -1.75604 -0.83628 0
M  V30 3610 C 338.144 -2.49966 2.59208 0
M  V30 3611 C 337.997 -1.97367 4.04186 0
M  V30 3612 C 339.316 -3.52068 2.64076 0
M  V30 3613 H 336.435 -0.492717 0.548087 0
M  V30 3614 H 339.077 -0.673319 1.77669 0
M  V30 3615 H 337.227 -3.08443 2.3621 0
M  V30 3616 H 338.899 -1.43466 4.38423 0
M  V30 3617 H 337.142 -1.283 4.14393 0
M  V30 3618 H 337.813 -2.79649 4.75921 0
M  V30 3619 H 340.289 -3.03448 2.84708 0
M  V30 3620 H 339.165 -4.2937 3.41954 0
M  V30 3621 H 339.426 -4.08304 1.69531 0
M  V30 3622 N 338.485 -1.33259 -0.841409 0
M  V30 3623 C 339.733 -1.24326 -1.59334 0
M  V30 3624 C 340.054 0.191564 -1.94057 0
M  V30 3625 O 339.324 1.11967 -1.60749 0
M  V30 3626 H 337.904 -0.457174 -0.590763 0
M  V30 3627 H 340.566 -1.66947 -1.00571 0
M  V30 3628 H 339.662 -1.8352 -2.52442 0
M  V30 3629 N 339.963 1.05934 -1.16686 0
M  V30 3630 C 341.209 1.79065 -0.95203 0
M  V30 3631 C 341.542 1.87147 0.518629 0
M  V30 3632 O 340.817 1.36574 1.38484 0
M  V30 3633 C 341.1 3.23359 -1.58464 0
M  V30 3634 C 340.953 3.23336 -3.12689 0
M  V30 3635 C 342.272 4.21004 -1.28232 0
M  V30 3636 H 339.391 0.65005 -0.34728 0
M  V30 3637 H 342.033 1.23868 -1.44072 0
M  V30 3638 H 340.183 3.70493 -1.16908 0
M  V30 3639 H 341.855 2.84336 -3.6325 0
M  V30 3640 H 340.098 2.61886 -3.4583 0
M  V30 3641 H 340.769 4.25144 -3.52075 0
M  V30 3642 H 343.245 3.8233 -1.64203 0
M  V30 3643 H 342.121 5.20225 -1.75092 0
M  V30 3644 H 342.382 4.41639 -0.201791 0
M  V30 3645 N 341.441 0.965919 1.2453 0
M  V30 3646 C 342.669 0.644385 1.96609 0
M  V30 3647 C 343.084 -0.785823 1.71669 0
M  V30 3648 O 342.441 -1.52703 0.999399 0
M  V30 3649 C 342.492 0.907375 3.49927 0
M  V30 3650 O 342.213 2.28136 3.74013 0
M  V30 3651 C 343.714 0.599784 4.39224 0
M  V30 3652 H 340.934 0.240588 0.626385 0
M  V30 3653 H 343.478 1.29337 1.58405 0
M  V30 3654 H 341.633 0.304631 3.862 0
M  V30 3655 H 342.047 2.36002 4.68405 0
M  V30 3656 H 343.521 0.834263 5.45659 0
M  V30 3657 H 343.998 -0.465921 4.36722 0
M  V30 3658 H 344.604 1.18235 4.08535 0
M  V30 3659 N 342.919 -1.39368 0.735821 0
M  V30 3660 C 344.144 -2.05319 0.293052 0
M  V30 3661 C 344.569 -1.55115 -1.064 0
M  V30 3662 O 343.927 -0.695261 -1.67439 0
M  V30 3663 C 343.975 -3.59305 0.305323 0
M  V30 3664 O 343.079 -4.06299 -0.706761 0
M  V30 3665 H 342.42 -0.650529 0.13307 0
M  V30 3666 H 344.95 -1.78386 1.00197 0
M  V30 3667 H 344.96 -4.07724 0.149997 0
M  V30 3668 H 343.635 -3.95207 1.29553 0
M  V30 3669 H 342.212 -3.69292 -0.517504 0
M  V30 3670 N 344.397 -0.483516 -1.5 0
M  V30 3671 C 345.674 0.129337 -1.95172 0
M  V30 3672 C 346.054 1.55802 -1.4244 0
M  V30 3673 O 345.402 2.19625 -0.630649 0
M  V30 3674 C 345.612 0.0599251 -3.48949 0
M  V30 3675 C 346.96 0.242617 -4.23906 0
M  V30 3676 O 347.984 0.135933 -3.55941 0
M  V30 3677 O 346.843 0.459454 -5.44565 0
M  V30 3678 H 343.937 0.104887 -0.820322 0
M  V30 3679 H 346.483 -0.544807 -1.60717 0
M  V30 3680 H 345.255 -0.937079 -3.79914 0
M  V30 3681 H 344.878 0.774984 -3.89974 0
M  V30 3682 N 345.875 1.56104 -0.216619 0
M  V30 3683 C 347.103 2.02563 0.421413 0
M  V30 3684 C 347.518 1.0965 1.53695 0
M  V30 3685 O 346.875 0.10521 1.82196 0
M  V30 3686 C 346.926 3.48584 0.957665 0
M  V30 3687 O 346.647 4.37953 -0.113389 0
M  V30 3688 C 348.148 4.10664 1.66943 0
M  V30 3689 H 345.368 0.662944 0.103665 0
M  V30 3690 H 347.912 2.01793 -0.331629 0
M  V30 3691 H 346.067 3.49985 1.661 0
M  V30 3692 H 346.481 5.23704 0.288932 0
M  V30 3693 H 347.955 5.14622 1.99671 0
M  V30 3694 H 348.432 3.55373 2.58083 0
M  V30 3695 H 349.038 4.13098 1.01142 0
M  V30 3696 N 347.353 -0.0568162 1.57498 0
M  V30 3697 C 348.6 -0.753104 1.87975 0
M  V30 3698 C 348.928 -1.76815 0.81035 0
M  V30 3699 O 348.183 -1.94756 -0.19199 0
M  V30 3700 C 348.482 -1.48359 3.25153 0
M  V30 3701 C 348.148 -0.60713 4.46794 0
M  V30 3702 C 346.81 -0.365642 4.79809 0
M  V30 3703 C 349.162 -0.000305978 5.212 0
M  V30 3704 C 346.49 0.491905 5.84634 0
M  V30 3705 C 348.842 0.844781 6.26934 0
M  V30 3706 C 347.506 1.096 6.58441 0
M  V30 3707 H 346.776 -0.27558 0.687849 0
M  V30 3708 H 349.423 -0.0135173 1.91495 0
M  V30 3709 H 347.728 -2.29577 3.17492 0
M  V30 3710 H 349.425 -2.02739 3.45974 0
M  V30 3711 H 346.015 -0.805487 4.20963 0
M  V30 3712 H 350.199 -0.173961 4.95995 0
M  V30 3713 H 345.455 0.695131 6.07436 0
M  V30 3714 H 349.629 1.32165 6.83744 0
M  V30 3715 H 347.256 1.76224 7.39492 0
M  V30 3716 N 348.832 -1.54138 -0.328536 0
M  V30 3717 C 349.742 -1.86192 -1.42723 0
M  V30 3718 C 350.758 -0.753382 -1.56844 0
M  V30 3719 O 351.934 -1.04718 -1.72035 0
M  V30 3720 C 348.999 -2.07824 -2.77507 0
M  V30 3721 C 348.06 -3.31641 -2.72603 0
M  V30 3722 C 347.293 -3.52232 -4.00959 0
M  V30 3723 O 347.516 -2.7636 -4.9898 0
M  V30 3724 O 346.45 -4.45699 -4.0452 0
M  V30 3725 H 350.276 -2.79608 -1.18547 0
M  V30 3726 H 347.861 -1.3998 -0.522104 0
M  V30 3727 H 349.743 -2.23411 -3.57303 0
M  V30 3728 H 348.418 -1.17596 -3.01584 0
M  V30 3729 H 347.325 -3.21444 -1.91376 0
M  V30 3730 H 348.658 -4.2191 -2.53481 0
M  V30 3731 N 350.31 0.590341 -1.46126 0
M  V30 3732 C 351.726 0.912917 -1.30912 0
M  V30 3733 C 351.926 1.99616 -0.274893 0
M  V30 3734 O 350.982 2.50397 0.325197 0
M  V30 3735 C 352.295 1.3375 -2.69317 0
M  V30 3736 C 353.843 1.45077 -2.77348 0
M  V30 3737 C 354.318 1.90904 -4.16317 0
M  V30 3738 N 355.809 1.9811 -4.18696 0
M  V30 3739 C 356.544 2.34828 -5.23109 0
M  V30 3740 N 356.04 2.70393 -6.37856 0
M  V30 3741 N 357.833 2.35317 -5.10473 0
M  V30 3742 H 349.984 -0.125358 -2.1203 0
M  V30 3743 H 352.247 0.00658481 -0.947977 0
M  V30 3744 H 351.953 0.615614 -3.4627 0
M  V30 3745 H 351.827 2.30058 -2.9892 0
M  V30 3746 H 354.214 2.16353 -2.00687 0
M  V30 3747 H 354.295 0.4704 -2.51438 0
M  V30 3748 H 353.939 1.20209 -4.9347 0
M  V30 3749 H 353.869 2.89886 -4.39629 0
M  V30 3750 H 356.36 1.73146 -3.359 0
M  V30 3751 H 356.673 2.97341 -7.13308 0
M  V30 3752 H 355.018 2.68048 -6.41229 0
M  V30 3753 H 358.209 2.0695 -4.19868 0
M  V30 3754 H 358.382 2.63605 -5.9196 0
M  V30 3755 N 351.788 1.33704 0.83433 0
M  V30 3756 C 352.751 1.24244 1.92603 0
M  V30 3757 C 353.751 0.160383 1.59998 0
M  V30 3758 O 354.941 0.412228 1.69252 0
M  V30 3759 C 352.073 0.91555 3.28376 0
M  V30 3760 H 353.266 2.21287 2.02416 0
M  V30 3761 H 350.819 1.17827 1.02696 0
M  V30 3762 H 351.554 -0.0521886 3.24258 0
M  V30 3763 H 351.339 1.69811 3.53422 0
M  V30 3764 H 352.829 0.874231 4.08347 0
M  V30 3765 N 353.266 -1.05314 1.17247 0
M  V30 3766 C 354.176 -2.16538 0.90268 0
M  V30 3767 C 355.192 -1.73523 -0.128707 0
M  V30 3768 O 356.368 -2.01337 0.0502701 0
M  V30 3769 C 353.433 -3.44167 0.418356 0
M  V30 3770 C 352.494 -4.01635 1.51618 0
M  V30 3771 C 351.727 -5.23171 1.05487 0
M  V30 3772 O 351.95 -5.70327 -0.0914715 0
M  V30 3773 O 350.884 -5.72848 1.8474 0
M  V30 3774 H 354.71 -2.42145 1.83302 0
M  V30 3775 H 352.295 -1.15037 0.953246 0
M  V30 3776 H 354.177 -4.21112 0.155726 0
M  V30 3777 H 352.852 -3.20063 -0.48385 0
M  V30 3778 H 351.759 -3.26135 1.83268 0
M  V30 3779 H 353.092 -4.30053 2.39405 0
M  V30 3780 N 354.744 -0.972509 -1.24016 0
M  V30 3781 C 355.707 -0.511403 -2.23422 0
M  V30 3782 C 356.707 0.394679 -1.55881 0
M  V30 3783 O 357.897 0.189469 -1.73167 0
M  V30 3784 C 355.029 0.258769 -3.39916 0
M  V30 3785 H 356.222 -1.39024 -2.6573 0
M  V30 3786 H 353.775 -0.757585 -1.36713 0
M  V30 3787 H 354.51 1.1545 -3.03054 0
M  V30 3788 H 354.295 -0.391522 -3.9014 0
M  V30 3789 H 355.785 0.570244 -4.13688 0
M  V30 3790 N 356.222 1.38976 -0.743202 0
M  V30 3791 C 357.152 2.33171 -0.123873 0
M  V30 3792 C 358.133 1.54336 0.71516 0
M  V30 3793 O 359.318 1.82696 0.658467 0
M  V30 3794 C 356.448 3.38474 0.777978 0
M  V30 3795 C 355.402 4.27979 0.0424758 0
M  V30 3796 C 354.728 5.2405 1.06189 0
M  V30 3797 C 356.028 5.10155 -1.1198 0
M  V30 3798 H 357.722 2.85213 -0.910709 0
M  V30 3799 H 355.268 1.37133 -0.439388 0
M  V30 3800 H 357.221 4.03328 1.22084 0
M  V30 3801 H 355.945 2.84891 1.59702 0
M  V30 3802 H 354.604 3.64616 -0.380853 0
M  V30 3803 H 354.252 4.66758 1.87472 0
M  V30 3804 H 353.952 5.84785 0.574485 0
M  V30 3805 H 355.476 5.9178 1.50428 0
M  V30 3806 H 356.89 5.68307 -0.75499 0
M  V30 3807 H 355.287 5.80073 -1.53738 0
M  V30 3808 H 356.357 4.44504 -1.93764 0
M  V30 3809 N 357.7 0.491464 1.49741 0
M  V30 3810 C 358.947 -0.0564256 2.02421 0
M  V30 3811 C 359.275 -1.37872 1.37192 0
M  V30 3812 O 358.53 -1.89375 0.493508 0
M  V30 3813 C 358.829 -0.267329 3.56399 0
M  V30 3814 C 358.495 0.975775 4.40215 0
M  V30 3815 C 357.157 1.31655 4.62839 0
M  V30 3816 C 359.509 1.80251 4.89039 0
M  V30 3817 C 356.837 2.48375 5.31532 0
M  V30 3818 C 359.189 2.96116 5.59015 0
M  V30 3819 C 357.853 3.30585 5.79888 0
M  V30 3820 H 357.123 -0.0206476 0.740712 0
M  V30 3821 H 359.77 0.649686 1.80143 0
M  V30 3822 H 358.075 -1.05588 3.77304 0
M  V30 3823 H 359.772 -0.705549 3.94744 0
M  V30 3824 H 356.362 0.700315 4.2284 0
M  V30 3825 H 360.546 1.55239 4.71396 0
M  V30 3826 H 355.802 2.7533 5.45897 0
M  V30 3827 H 359.976 3.60509 5.95824 0
M  V30 3828 H 357.603 4.21132 6.32892 0
M  V30 3829 N 359.178 -1.55987 0.224894 0
M  V30 3830 C 360.088 -2.24066 -0.69511 0
M  V30 3831 C 361.104 -1.24939 -1.21104 0
M  V30 3832 O 362.28 -1.5776 -1.25195 0
M  V30 3833 C 359.345 -2.90983 -1.88493 0
M  V30 3834 C 358.406 -4.05462 -1.41064 0
M  V30 3835 C 357.639 -4.69179 -2.54375 0
M  V30 3836 O 357.862 -4.31895 -3.72589 0
M  V30 3837 O 356.796 -5.58108 -2.25386 0
M  V30 3838 H 360.622 -3.03353 -0.145149 0
M  V30 3839 H 358.207 -1.49399 -0.00569476 0
M  V30 3840 H 360.089 -3.33209 -2.57972 0
M  V30 3841 H 358.764 -2.14653 -2.42293 0
M  V30 3842 H 357.671 -3.67798 -0.683774 0
M  V30 3843 H 359.004 -4.83545 -0.918985 0
M  V30 3844 N 360.656 0.0484629 -1.57525 0
M  V30 3845 C 361.619 1.03956 -2.04269 0
M  V30 3846 C 362.619 1.30211 -0.943496 0
M  V30 3847 O 363.809 1.25539 -1.20771 0
M  V30 3848 C 360.941 2.37742 -2.44319 0
M  V30 3849 H 362.134 0.636182 -2.93075 0
M  V30 3850 H 359.687 0.294811 -1.53494 0
M  V30 3851 H 360.422 2.82866 -1.5861 0
M  V30 3852 H 360.207 2.20021 -3.24551 0
M  V30 3853 H 361.697 3.08936 -2.80978 0
M  V30 3854 N 362.134 1.5431 0.320358 0
M  V30 3855 C 363.382 1.72327 1.05583 0
M  V30 3856 C 363.703 0.50149 1.88441 0
M  V30 3857 O 362.973 -0.48448 1.89815 0
M  V30 3858 H 361.553 0.635387 0.3928 0
M  V30 3859 H 364.215 1.91621 0.356019 0
M  V30 3860 H 363.311 2.60426 1.72003 0
M  V30 3861 N 363.613 -0.582584 1.46437 0
M  V30 3862 C 364.576 -1.67366 1.56592 0
M  V30 3863 C 365.576 -1.54575 0.443072 0
M  V30 3864 O 366.766 -1.59191 0.707381 0
M  V30 3865 C 363.898 -3.06791 1.48634 0
M  V30 3866 H 365.091 -1.5972 2.5383 0
M  V30 3867 H 362.644 -0.800432 1.34249 0
M  V30 3868 H 363.379 -3.19993 0.526763 0
M  V30 3869 H 363.164 -3.17484 2.30101 0
M  V30 3870 H 364.654 -3.86218 1.58826 0
M  V30 3871 N 365.091 -1.34144 -0.827227 0
M  V30 3872 C 366.368 -1.16844 -1.56865 0
M  V30 3873 C 366.748 0.260654 -2.09485 0
M  V30 3874 O 366.096 1.26138 -1.9053 0
M  V30 3875 C 366.306 -2.21939 -2.6934 0
M  V30 3876 C 367.654 -2.56695 -3.3822 0
M  V30 3877 O 368.678 -2.20695 -2.79593 0
M  V30 3878 O 367.537 -3.18518 -4.44082 0
M  V30 3879 H 364.631 -0.452669 -0.692112 0
M  V30 3880 H 367.177 -1.45763 -0.868973 0
M  V30 3881 H 365.949 -3.17882 -2.28182 0
M  V30 3882 H 365.572 -1.94172 -3.46962 0
M  V30 3883 N 366.569 1.04691 -1.17803 0
M  V30 3884 C 367.532 2.10724 -0.901545 0
M  V30 3885 C 368.532 1.6042 0.110437 0
M  V30 3886 O 369.722 1.7377 -0.122303 0
M  V30 3887 C 366.854 3.39084 -0.351409 0
M  V30 3888 H 368.047 2.36686 -1.84174 0
M  V30 3889 H 365.6 1.21015 -0.98919 0
M  V30 3890 H 366.335 3.18782 0.59569 0
M  V30 3891 H 366.12 3.76909 -1.08083 0
M  V30 3892 H 367.61 4.17227 -0.176451 0
M  V30 3893 N 368.047 0.979072 1.23499 0
M  V30 3894 C 369.296 0.642751 1.91185 0
M  V30 3895 C 369.609 -0.827253 1.77245 0
M  V30 3896 O 370.815 -1.27458 2.39722 0
M  V30 3897 C 369.271 1.09901 3.42709 0
M  V30 3898 C 368.879 2.59327 3.65313 0
M  V30 3899 C 370.623 0.836371 4.16179 0
M  V30 3900 C 368.53 2.98627 5.10467 0
M  V30 3901 H 367.46 0.236698 0.715884 0
M  V30 3902 H 370.111 1.1868 1.39955 0
M  V30 3903 H 368.493 0.48319 3.93041 0
M  V30 3904 H 369.667 3.26136 3.25533 0
M  V30 3905 H 367.982 2.83323 3.05151 0
M  V30 3906 H 370.579 1.10586 5.23139 0
M  V30 3907 H 370.922 -0.227509 4.15678 0
M  V30 3908 H 371.455 1.41371 3.71832 0
M  V30 3909 H 368.194 4.04133 5.16098 0
M  V30 3910 H 367.714 2.3651 5.51201 0
M  V30 3911 H 369.393 2.89159 5.78788 0
M  V30 3912 N 369.525 -1.3858 0.750561 0
M  V30 3913 C 370.771 -2.00481 0.305825 0
M  V30 3914 C 371.104 -1.5944 -1.10872 0
M  V30 3915 O 370.379 -0.83052 -1.75877 0
M  V30 3916 C 370.662 -3.5758 0.425287 0
M  V30 3917 C 370.515 -4.08594 1.88072 0
M  V30 3918 C 371.834 -4.39719 -0.183122 0
M  V30 3919 H 368.953 -0.728348 0.112598 0
M  V30 3920 H 371.595 -1.64566 0.949638 0
M  V30 3921 H 369.745 -3.88306 -0.122828 0
M  V30 3922 H 371.417 -3.88523 2.48691 0
M  V30 3923 H 369.66 -3.61574 2.39681 0
M  V30 3924 H 370.331 -5.177 1.91548 0
M  V30 3925 H 372.807 -4.15128 0.284303 0
M  V30 3926 H 371.683 -5.48856 -0.0692757 0
M  V30 3927 H 371.944 -4.23434 -1.27106 0
M  V30 3928 N 371.003 -0.499398 -1.49478 0
M  V30 3929 C 372.252 0.0475259 -2.01644 0
M  V30 3930 C 372.565 1.38195 -1.38425 0
M  V30 3931 O 373.771 2.01547 -1.8191 0
M  V30 3932 C 372.227 0.135164 -3.59646 0
M  V30 3933 C 371.835 -1.19252 -4.31837 0
M  V30 3934 C 373.579 0.632538 -4.19761 0
M  V30 3935 C 371.486 -1.06713 -5.81693 0
M  V30 3936 H 370.416 0.0215349 -0.753692 0
M  V30 3937 H 373.067 -0.638577 -1.7203 0
M  V30 3938 H 371.449 0.885681 -3.85969 0
M  V30 3939 H 372.623 -1.9562 -4.17216 0
M  V30 3940 H 370.938 -1.62321 -3.83459 0
M  V30 3941 H 373.535 0.743833 -5.29501 0
M  V30 3942 H 373.878 1.63098 -3.83021 0
M  V30 3943 H 374.411 -0.0613987 -3.97753 0
M  V30 3944 H 371.15 -2.03979 -6.22955 0
M  V30 3945 H 370.67 -0.344307 -5.98811 0
M  V30 3946 H 372.349 -0.745208 -6.42694 0
M  V30 3947 N 372.481 1.55866 -0.233164 0
M  V30 3948 C 373.758 1.90471 0.444988 0
M  V30 3949 C 374.138 1.15209 1.7689 0
M  V30 3950 O 373.486 0.265119 2.26957 0
M  V30 3951 C 373.696 3.4333 0.626559 0
M  V30 3952 C 375.044 4.14319 0.92871 0
M  V30 3953 O 376.068 3.48993 0.712926 0
M  V30 3954 O 374.927 5.29846 1.33887 0
M  V30 3955 H 372.021 0.792347 0.236885 0
M  V30 3956 H 374.567 1.67437 -0.276211 0
M  V30 3957 H 373.339 3.90095 -0.306822 0
M  V30 3958 H 372.962 3.72181 1.39881 0
M  V30 3959 N 373.959 -0.0401083 1.57549 0
M  V30 3960 C 375.187 -0.745196 1.93014 0
M  V30 3961 C 375.602 -1.6948 0.831984 0
M  V30 3962 O 374.959 -1.81482 -0.192463 0
M  V30 3963 C 375.01 -1.51176 3.28372 0
M  V30 3964 O 374.731 -0.600284 4.33968 0
M  V30 3965 C 376.232 -2.315 3.78051 0
M  V30 3966 H 373.452 -0.210088 0.637263 0
M  V30 3967 H 375.996 -0.000924689 2.045 0
M  V30 3968 H 374.151 -2.20801 3.18317 0
M  V30 3969 H 374.565 -1.13669 5.12035 0
M  V30 3970 H 376.039 -2.80697 4.75303 0
M  V30 3971 H 376.516 -3.12436 3.08675 0
M  V30 3972 H 377.122 -1.66971 3.91153 0
M  V30 3973 N 375.437 -1.54477 -0.31217 0
M  V30 3974 C 376.4 -1.83923 -1.36766 0
M  V30 3975 C 377.4 -0.711563 -1.44199 0
M  V30 3976 O 378.59 -0.979866 -1.44029 0
M  V30 3977 C 375.722 -2.0095 -2.75376 0
M  V30 3978 H 376.915 -2.78239 -1.11906 0
M  V30 3979 H 374.468 -1.46369 -0.548257 0
M  V30 3980 H 375.203 -1.08883 -3.05475 0
M  V30 3981 H 374.988 -2.83018 -2.71373 0
M  V30 3982 H 376.478 -2.2514 -3.51713 0
M  V30 3983 N 376.915 0.57481 -1.46744 0
M  V30 3984 C 377.865 1.67838 -1.54319 0
M  V30 3985 C 378.849 1.55759 -0.40346 0
M  V30 3986 O 380.041 1.6454 -0.652347 0
M  V30 3987 C 377.17 3.06624 -1.5439 0
M  V30 3988 C 376.256 3.23971 -2.73685 0
M  V30 3989 N 376.647 3.11447 -3.9854 0
M  V30 3990 C 374.945 3.5493 -2.70075 0
M  V30 3991 C 375.646 3.31011 -4.78337 0
M  V30 3992 N 374.622 3.56533 -4.10348 0
M  V30 3993 H 378.424 1.56698 -2.48642 0
M  V30 3994 H 375.938 0.779071 -1.42493 0
M  V30 3995 H 377.935 3.85839 -1.57905 0
M  V30 3996 H 376.595 3.1889 -0.611493 0
M  V30 3997 H 377.606 2.89145 -4.29669 0
M  V30 3998 H 374.283 3.73832 -1.85893 0
M  V30 3999 H 375.673 3.26445 -5.87268 0
M  V30 4000 N 378.394 1.34581 0.820102 0
M  V30 4001 C 379.642 1.26845 1.57336 0
M  V30 4002 C 379.963 -0.160667 1.94337 0
M  V30 4003 O 379.233 -1.09396 1.6251 0
M  V30 4004 H 377.813 0.466514 0.583415 0
M  V30 4005 H 380.475 1.68526 0.979027 0
M  V30 4006 H 379.571 1.87513 2.4949 0
M  V30 4007 N 379.872 -1.04064 1.18357 0
M  V30 4008 C 380.822 -2.10393 0.878561 0
M  V30 4009 C 381.806 -1.60183 -0.151713 0
M  V30 4010 O 382.998 -1.76923 0.0523303 0
M  V30 4011 C 380.127 -3.4089 0.406096 0
M  V30 4012 C 379.213 -3.97866 1.46844 0
M  V30 4013 N 379.604 -4.28657 2.68489 0
M  V30 4014 C 377.902 -4.2574 1.32896 0
M  V30 4015 C 378.603 -4.74253 3.36836 0
M  V30 4016 N 377.579 -4.75068 2.64219 0
M  V30 4017 H 381.381 -2.32076 1.80327 0
M  V30 4018 H 378.895 -1.21818 1.07397 0
M  V30 4019 H 380.892 -4.16557 0.169088 0
M  V30 4020 H 379.552 -3.20633 -0.512275 0
M  V30 4021 H 380.563 -4.18304 3.05356 0
M  V30 4022 H 377.24 -4.1481 0.473134 0
M  V30 4023 H 378.63 -5.07096 4.40798 0
M  V30 4024 N 381.35 -0.985608 -1.22978 0
M  V30 4025 C 382.575 -0.675254 -1.961 0
M  V30 4026 C 383 0.752154 -1.72407 0
M  V30 4027 O 382.358 1.5131 -0.998751 0
M  V30 4028 C 382.406 -0.977899 -3.47087 0
M  V30 4029 O 381.51 -0.072685 -4.12336 0
M  V30 4030 H 380.851 -0.253443 -0.613728 0
M  V30 4031 H 383.381 -1.32061 -1.56272 0
M  V30 4032 H 383.391 -0.916739 -3.97567 0
M  V30 4033 H 382.066 -2.01807 -3.63657 0
M  V30 4034 H 380.643 -0.188703 -3.72422 0
M  V30 4035 N 382.828 1.3818 -0.7579 0
M  V30 4036 C 383.791 2.28764 -0.141286 0
M  V30 4037 C 384.791 1.47388 0.642907 0
M  V30 4038 O 385.981 1.67781 0.468536 0
M  V30 4039 C 383.113 3.31184 0.808069 0
M  V30 4040 H 384.306 2.848 -0.939633 0
M  V30 4041 H 381.859 1.47212 -0.525191 0
M  V30 4042 H 382.594 2.80247 1.63193 0
M  V30 4043 H 382.379 3.91314 0.248104 0
M  V30 4044 H 383.869 3.98909 1.23536 0
M  V30 4045 N 384.306 0.507319 1.49211 0
M  V30 4046 C 385.554 -0.0348839 2.0207 0
M  V30 4047 C 385.875 -1.36898 1.38866 0
M  V30 4048 O 385.145 -1.88133 0.546151 0
M  V30 4049 H 383.725 -0.0158812 0.746831 0
M  V30 4050 H 386.387 0.665998 1.83168 0
M  V30 4051 H 385.483 -0.159917 3.1169 0
M  V30 4052 N 385.784 -1.5574 0.241426 0
M  V30 4053 C 387.03 -1.99104 -0.385406 0
M  V30 4054 C 387.363 -1.1293 -1.57988 0
M  V30 4055 O 386.638 -0.191449 -1.93555 0
M  V30 4056 C 386.921 -3.51087 -0.800616 0
M  V30 4057 C 386.774 -4.48028 0.398874 0
M  V30 4058 C 388.093 -4.08015 -1.64959 0
M  V30 4059 H 385.212 -0.723848 -0.138614 0
M  V30 4060 H 387.854 -1.86903 0.341642 0
M  V30 4061 H 386.004 -3.61615 -1.4201 0
M  V30 4062 H 387.676 -4.49487 1.03726 0
M  V30 4063 H 385.919 -4.21077 1.04293 0
M  V30 4064 H 386.59 -5.51962 0.0651056 0
M  V30 4065 H 389.066 -4.00555 -1.12672 0
M  V30 4066 H 387.942 -5.14635 -1.90898 0
M  V30 4067 H 388.203 -3.56131 -2.61961 0
M  V30 4068 N 387.262 0.0317525 -1.57568 0
M  V30 4069 C 388.192 1.03274 -2.0942 0
M  V30 4070 C 389.173 1.3788 -0.996143 0
M  V30 4071 O 390.358 1.46811 -1.27122 0
M  V30 4072 C 387.488 2.33448 -2.57137 0
M  V30 4073 C 386.442 2.13091 -3.71182 0
M  V30 4074 C 385.768 3.49001 -4.05095 0
M  V30 4075 C 387.068 1.51928 -4.99715 0
M  V30 4076 H 388.762 0.60112 -2.93303 0
M  V30 4077 H 386.308 0.287705 -1.41097 0
M  V30 4078 H 388.261 3.03802 -2.92032 0
M  V30 4079 H 386.985 2.78665 -1.70333 0
M  V30 4080 H 385.644 1.45171 -3.36632 0
M  V30 4081 H 385.292 3.91862 -3.15362 0
M  V30 4082 H 384.992 3.36207 -4.81911 0
M  V30 4083 H 386.516 4.20721 -4.42522 0
M  V30 4084 H 387.93 2.12196 -5.32584 0
M  V30 4085 H 386.327 1.49716 -5.81124 0
M  V30 4086 H 387.397 0.484811 -4.8247 0
M  V30 4087 N 388.74 1.54641 0.303973 0
M  V30 4088 C 390.156 1.45788 0.649463 0
M  V30 4089 C 390.356 0.64666 1.90842 0
M  V30 4090 O 389.412 0.153183 2.52035 0
M  V30 4091 C 390.725 2.89718 0.805227 0
M  V30 4092 C 392.273 2.99742 0.901305 0
M  V30 4093 C 392.748 4.44863 1.08909 0
M  V30 4094 N 394.239 4.48559 1.15536 0
M  V30 4095 C 394.974 5.58026 1.3189 0
M  V30 4096 N 394.47 6.77422 1.45161 0
M  V30 4097 N 396.263 5.45708 1.34755 0
M  V30 4098 H 388.414 2.05854 -0.523237 0
M  V30 4099 H 390.677 0.932186 -0.172431 0
M  V30 4100 H 390.383 3.51666 -0.0489108 0
M  V30 4101 H 390.257 3.36964 1.69513 0
M  V30 4102 H 392.644 2.3791 1.74593 0
M  V30 4103 H 392.725 2.55797 -0.0125531 0
M  V30 4104 H 392.369 5.07288 0.249241 0
M  V30 4105 H 392.299 4.86436 2.01713 0
M  V30 4106 H 394.79 3.6254 1.06646 0
M  V30 4107 H 395.103 7.56604 1.57387 0
M  V30 4108 H 393.448 6.80292 1.42223 0
M  V30 4109 H 396.639 4.51378 1.23996 0
M  V30 4110 H 396.812 6.3107 1.47157 0
M  V30 4111 N 390.218 -0.567019 1.47046 0
M  V30 4112 C 391.165 -1.67489 1.58796 0
M  V30 4113 C 392.135 -1.60399 0.43144 0
M  V30 4114 O 393.32 -1.79378 0.650233 0
M  V30 4115 C 390.46 -3.05821 1.59899 0
M  V30 4116 C 389.573 -3.2342 2.86397 0
M  V30 4117 C 388.708 -4.52093 2.789 0
M  V30 4118 C 387.747 -4.6309 4.00267 0
M  V30 4119 N 386.884 -5.83106 3.91064 0
M  V30 4120 H 391.724 -1.56785 2.53422 0
M  V30 4121 H 389.261 -0.763896 1.2571 0
M  V30 4122 H 391.219 -3.8591 1.58522 0
M  V30 4123 H 389.849 -3.15384 0.687929 0
M  V30 4124 H 388.901 -2.3683 2.97684 0
M  V30 4125 H 390.213 -3.27412 3.76301 0
M  V30 4126 H 389.367 -5.4043 2.75718 0
M  V30 4127 H 388.106 -4.50565 1.86662 0
M  V30 4128 H 387.111 -3.73168 4.03765 0
M  V30 4129 H 388.336 -4.66386 4.93621 0
M  V30 4130 H 386.282 -5.82546 3.01623 0
M  V30 4131 H 386.199 -5.88434 4.74638 0
M  V30 4132 H 387.467 -6.73831 3.91882 0
M  V30 4133 N 391.696 -1.35014 -0.812953 0
M  V30 4134 C 392.945 -1.27269 -1.56479 0
M  V30 4135 C 393.258 0.152771 -1.95002 0
M  V30 4136 O 394.464 0.352451 -2.69203 0
M  V30 4137 C 392.92 -2.23159 -2.82362 0
M  V30 4138 C 392.528 -3.71016 -2.511 0
M  V30 4139 C 394.272 -2.24342 -3.60376 0
M  V30 4140 C 392.179 -4.58746 -3.73237 0
M  V30 4141 H 391.109 -0.472829 -0.587324 0
M  V30 4142 H 393.76 -1.6024 -0.894171 0
M  V30 4143 H 392.142 -1.83151 -3.51101 0
M  V30 4144 H 393.316 -4.1962 -1.90409 0
M  V30 4145 H 391.631 -3.72378 -1.86343 0
M  V30 4146 H 394.228 -2.87107 -4.51081 0
M  V30 4147 H 394.571 -1.24542 -3.97234 0
M  V30 4148 H 395.104 -2.62846 -2.98591 0
M  V30 4149 H 391.843 -5.59521 -3.41492 0
M  V30 4150 H 391.363 -4.14871 -4.33176 0
M  V30 4151 H 393.042 -4.73852 -4.40537 0
M  V30 4152 N 393.175 1.03435 -1.18907 0
M  V30 4153 C 394.138 2.09756 -0.923844 0
M  V30 4154 C 395.138 1.60528 0.093416 0
M  V30 4155 O 396.328 1.73631 -0.140727 0
M  V30 4156 C 393.46 3.38692 -0.387354 0
M  V30 4157 H 394.653 2.34719 -1.86674 0
M  V30 4158 H 392.206 1.19959 -1.00197 0
M  V30 4159 H 392.941 3.19396 0.561845 0
M  V30 4160 H 392.726 3.75742 -1.12074 0
M  V30 4161 H 394.216 4.17016 -0.220694 0
M  V30 4162 N 394.653 0.992116 1.22453 0
M  V30 4163 C 395.563 0.55065 2.28046 0
M  V30 4164 C 396.579 -0.400189 1.69335 0
M  V30 4165 O 397.755 -0.267215 1.99619 0
M  V30 4166 C 394.82 -0.128496 3.46462 0
M  V30 4167 C 393.881 0.865208 4.20491 0
M  V30 4168 C 393.114 0.218377 5.33253 0
M  V30 4169 O 393.337 -0.987894 5.6178 0
M  V30 4170 O 392.271 0.922845 5.94783 0
M  V30 4171 H 396.097 1.4291 2.67975 0
M  V30 4172 H 393.682 0.760326 1.28606 0
M  V30 4173 H 395.564 -0.508947 4.18315 0
M  V30 4174 H 394.239 -0.981526 3.0846 0
M  V30 4175 H 393.146 1.29658 3.50913 0
M  V30 4176 H 394.479 1.68741 4.62371 0
M  V30 4177 N 396.131 -1.37776 0.765217 0
M  V30 4178 C 397.38 -1.99092 0.323307 0
M  V30 4179 C 397.693 -1.61434 -1.10446 0
M  V30 4180 O 398.899 -2.15805 -1.64743 0
M  V30 4181 C 397.355 -3.56019 0.527098 0
M  V30 4182 C 396.963 -4.0262 1.96471 0
M  V30 4183 C 398.707 -4.2424 0.148483 0
M  V30 4184 C 396.614 -5.52233 2.11644 0
M  V30 4185 H 395.544 -0.744846 0.117137 0
M  V30 4186 H 398.195 -1.57391 0.943417 0
M  V30 4187 H 396.577 -3.95667 -0.162372 0
M  V30 4188 H 397.751 -3.74234 2.68859 0
M  V30 4189 H 396.066 -3.47161 2.29931 0
M  V30 4190 H 398.663 -5.34159 0.240456 0
M  V30 4191 H 399.006 -4.06446 -0.900422 0
M  V30 4192 H 399.539 -3.89872 0.79025 0
M  V30 4193 H 396.278 -5.74945 3.1483 0
M  V30 4194 H 395.798 -5.82324 1.4373 0
M  V30 4195 H 397.477 -6.18106 1.91193 0
M  V30 4196 N 397.609 -0.515225 -1.4894 0
M  V30 4197 C 399.025 -0.172099 -1.58669 0
M  V30 4198 C 399.225 1.32405 -1.51892 0
M  V30 4199 O 398.281 2.10116 -1.40027 0
M  V30 4200 C 399.594 -0.761533 -2.90897 0
M  V30 4201 C 401.142 -0.728926 -3.04394 0
M  V30 4202 C 401.617 -1.29667 -4.39261 0
M  V30 4203 N 403.108 -1.25799 -4.4579 0
M  V30 4204 C 403.843 -1.66733 -5.48623 0
M  V30 4205 N 403.339 -2.15327 -6.58488 0
M  V30 4206 N 405.132 -1.58061 -5.39419 0
M  V30 4207 H 397.283 -1.48778 -1.51588 0
M  V30 4208 H 399.546 -0.617968 -0.718901 0
M  V30 4209 H 399.252 -1.81136 -3.01468 0
M  V30 4210 H 399.126 -0.230106 -3.76497 0
M  V30 4211 H 401.513 0.312098 -2.93445 0
M  V30 4212 H 401.594 -1.29766 -2.20442 0
M  V30 4213 H 401.238 -2.33655 -4.50963 0
M  V30 4214 H 401.168 -0.703752 -5.21876 0
M  V30 4215 H 403.659 -0.902102 -3.66975 0
M  V30 4216 H 403.972 -2.44594 -7.33071 0
M  V30 4217 H 402.317 -2.19311 -6.59491 0
M  V30 4218 H 405.508 -1.19906 -4.52482 0
M  V30 4219 H 405.681 -1.90284 -6.19432 0
M  V30 4220 N 399.087 1.5561 -0.249682 0
M  V30 4221 C 400.05 2.20217 0.635394 0
M  V30 4222 C 401.05 1.17227 1.10066 0
M  V30 4223 O 402.24 1.42292 1.00492 0
M  V30 4224 C 399.372 2.84794 1.87363 0
M  V30 4225 H 400.565 2.99814 0.0716752 0
M  V30 4226 H 398.118 1.563 -0.000153234 0
M  V30 4227 H 398.853 2.09142 2.47851 0
M  V30 4228 H 398.638 3.60241 1.5482 0
M  V30 4229 H 400.128 3.3423 2.5036 0
M  V30 4230 N 400.565 -0.0233959 1.57583 0
M  V30 4231 C 401.515 -1.03023 2.03397 0
M  V30 4232 C 402.499 -1.31701 0.924315 0
M  V30 4233 O 403.691 -1.31191 1.18819 0
M  V30 4234 C 400.82 -2.32961 2.52159 0
M  V30 4235 C 399.906 -2.07349 3.69956 0
M  V30 4236 N 400.297 -1.51814 4.82479 0
M  V30 4237 C 398.595 -2.37606 3.77438 0
M  V30 4238 C 399.296 -1.42136 5.64068 0
M  V30 4239 N 398.272 -1.89891 5.09355 0
M  V30 4240 H 402.074 -0.594962 2.87815 0
M  V30 4241 H 399.588 -0.229586 1.60769 0
M  V30 4242 H 401.585 -3.05906 2.83244 0
M  V30 4243 H 400.245 -2.77162 1.69149 0
M  V30 4244 H 401.256 -1.20008 5.03804 0
M  V30 4245 H 397.933 -2.84842 3.05239 0
M  V30 4246 H 399.323 -0.996405 6.64471 0
M  V30 4247 N 402.043 -1.548 -0.295768 0
M  V30 4248 C 403.29 -1.74329 -1.03032 0
M  V30 4249 C 403.618 -0.531915 -1.87085 0
M  V30 4250 O 402.873 0.486052 -1.89568 0
M  V30 4251 C 403.172 -2.98797 -1.961 0
M  V30 4252 C 402.838 -4.32356 -1.2798 0
M  V30 4253 C 401.5 -4.68661 -1.09135 0
M  V30 4254 C 403.852 -5.15128 -0.793243 0
M  V30 4255 C 401.18 -5.85312 -0.403269 0
M  V30 4256 C 403.532 -6.32488 -0.118854 0
M  V30 4257 C 402.196 -6.6745 0.0815043 0
M  V30 4258 H 401.466 -0.637916 -0.37702 0
M  V30 4259 H 404.113 -1.8906 -0.304696 0
M  V30 4260 H 402.418 -2.78869 -2.75207 0
M  V30 4261 H 404.115 -3.11102 -2.53015 0
M  V30 4262 H 400.705 -4.03808 -1.43655 0
M  V30 4263 H 404.889 -4.87575 -0.92653 0
M  V30 4264 H 400.145 -6.1094 -0.237098 0
M  V30 4265 H 404.319 -6.95892 0.266035 0
M  V30 4266 H 401.946 -7.57695 0.616685 0
M  V30 4267 N 403.521 0.559213 -1.47345 0
M  V30 4268 C 404.932 1.14134 -1.47751 0
M  V30 4269 C 405.283 1.94834 -0.231103 0
M  V30 4270 O 404.408 2.05957 0.664137 0
M  V30 4271 C 405.003 2.07653 -2.67705 0
M  V30 4272 C 403.562 2.61141 -2.71076 0
M  V30 4273 C 402.709 1.3748 -2.40821 0
M  V30 4274 H 405.66 0.345917 -1.54884 0
M  V30 4275 H 405.681 2.91497 -2.44561 0
M  V30 4276 H 405.193 1.4889 -3.58404 0
M  V30 4277 H 403.294 3.23707 -1.84511 0
M  V30 4278 H 403.407 3.02272 -3.7171 0
M  V30 4279 H 401.771 1.68086 -1.91362 0
M  V30 4280 H 402.554 0.805135 -3.33725 0
M  V30 4281 N 404.999 1.35443 0.805782 0
M  V30 4282 C 405.947 1.28465 1.93906 0
M  V30 4283 C 406.941 0.17943 1.68447 0
M  V30 4284 O 408.147 0.345459 1.76654 0
M  V30 4285 H 404.522 0.399528 0.637088 0
M  V30 4286 H 406.493 2.24206 1.96912 0
M  V30 4287 C 405.242 1.07432 3.30687 0
M  V30 4288 H 404.565 1.91716 3.50835 0
M  V30 4289 H 406.005 1.06591 4.10383 0
M  V30 4290 C 404.464 -0.22179 3.36169 0
M  V30 4291 O 404.994 -1.21731 3.82811 0
M  V30 4292 N 403.2 -0.260841 2.89427 0
M  V30 4293 H 402.747 0.549884 2.51663 0
M  V30 4294 H 402.705 -1.12777 2.93477 0
M  V30 4295 N 406.477 -1.02803 1.19454 0
M  V30 4296 C 407.893 -1.28473 0.946937 0
M  V30 4297 C 408.093 -1.97881 -0.380202 0
M  V30 4298 O 407.149 -2.26719 -1.11151 0
M  V30 4299 C 408.462 -2.13099 2.12154 0
M  V30 4300 C 410.01 -2.26404 2.16126 0
M  V30 4301 C 410.485 -3.14402 3.33039 0
M  V30 4302 N 411.976 -3.21991 3.32981 0
M  V30 4303 C 412.711 -3.90272 4.20089 0
M  V30 4304 N 412.207 -4.60777 5.17355 0
M  V30 4305 N 414 -3.8668 4.07964 0
M  V30 4306 H 406.151 -0.561665 2.04839 0
M  V30 4307 H 408.414 -0.310438 0.89573 0
M  V30 4308 H 408.12 -1.69422 3.08203 0
M  V30 4309 H 407.994 -3.13813 2.09287 0
M  V30 4310 H 410.381 -2.69311 1.20647 0
M  V30 4311 H 410.462 -1.25237 2.23045 0
M  V30 4312 H 410.106 -2.72204 4.28798 0
M  V30 4313 H 410.036 -4.1563 3.23356 0
M  V30 4314 H 412.527 -2.71778 2.62574 0
M  V30 4315 H 412.84 -5.10513 5.80169 0
M  V30 4316 H 411.185 -4.5964 5.21302 0
M  V30 4317 H 414.376 -3.30739 3.31254 0
M  V30 4318 H 414.549 -4.39621 4.76064 0
M  V30 4319 N 407.956 -0.998596 -1.21925 0
M  V30 4320 C 409.184 -0.696286 -1.94832 0
M  V30 4321 C 409.599 0.740032 -1.73692 0
M  V30 4322 O 408.956 1.5 -1.03953 0
M  V30 4323 C 409.007 -0.999833 -3.47398 0
M  V30 4324 O 408.728 -2.37972 -3.67833 0
M  V30 4325 C 410.229 -0.716025 -4.37479 0
M  V30 4326 H 407.449 -0.257111 -0.619786 0
M  V30 4327 H 409.993 -1.33491 -1.54921 0
M  V30 4328 H 408.148 -0.406918 -3.85257 0
M  V30 4329 H 408.562 -2.48338 -4.61983 0
M  V30 4330 H 410.036 -0.978642 -5.43256 0
M  V30 4331 H 410.513 0.349968 -4.37803 0
M  V30 4332 H 411.119 -1.29025 -4.05256 0
M  V30 4333 N 409.434 1.37368 -0.772513 0
M  V30 4334 C 410.364 2.32856 -0.173304 0
M  V30 4335 C 411.345 1.55818 0.682262 0
M  V30 4336 O 412.53 1.84052 0.619566 0
M  V30 4337 C 409.66 3.40048 0.706007 0
M  V30 4338 C 408.614 4.27973 -0.0483144 0
M  V30 4339 C 407.94 5.26184 0.950491 0
M  V30 4340 C 409.24 5.07665 -1.22776 0
M  V30 4341 H 410.934 2.83217 -0.971002 0
M  V30 4342 H 408.48 1.3617 -0.468377 0
M  V30 4343 H 410.433 4.05827 1.13501 0
M  V30 4344 H 409.157 2.88214 1.53623 0
M  V30 4345 H 407.816 3.63726 -0.458107 0
M  V30 4346 H 407.464 4.7063 1.77529 0
M  V30 4347 H 407.164 5.85872 0.450314 0
M  V30 4348 H 408.688 5.94838 1.37842 0
M  V30 4349 H 410.102 5.66578 -0.875366 0
M  V30 4350 H 408.499 5.76681 -1.66007 0
M  V30 4351 H 409.569 4.40294 -2.03149 0
M  V30 4352 N 410.912 0.523116 1.48665 0
M  V30 4353 C 412.161 -0.01544 2.01694 0
M  V30 4354 C 412.474 -1.35975 1.40606 0
M  V30 4355 O 413.68 -1.98627 1.85093 0
M  V30 4356 C 412.136 -0.0779303 3.59816 0
M  V30 4357 C 411.744 1.26107 4.29885 0
M  V30 4358 C 413.488 -0.565678 4.20714 0
M  V30 4359 C 411.395 1.15954 5.79921 0
M  V30 4360 H 410.325 -0.00954163 0.75394 0
M  V30 4361 H 412.976 0.665865 1.70993 0
M  V30 4362 H 411.358 -0.824165 3.87329 0
M  V30 4363 H 412.532 2.02233 4.14051 0
M  V30 4364 H 410.847 1.68401 3.80828 0
M  V30 4365 H 413.444 -0.6595 5.30617 0
M  V30 4366 H 413.787 -1.56984 3.85567 0
M  V30 4367 H 414.32 0.12467 3.97605 0
M  V30 4368 H 411.059 2.13864 6.19631 0
M  V30 4369 H 410.579 0.439529 5.98187 0
M  V30 4370 H 412.258 0.847361 6.41427 0
M  V30 4371 N 412.39 -1.55475 0.257931 0
M  V30 4372 C 413.353 -2.20551 -0.623706 0
M  V30 4373 C 414.353 -1.17809 -1.09443 0
M  V30 4374 O 415.543 -1.42823 -0.997362 0
M  V30 4375 C 412.675 -2.85784 -1.8585 0
M  V30 4376 H 413.868 -2.99848 -0.0557743 0
M  V30 4377 H 411.421 -1.56298 0.0084422 0
M  V30 4378 H 412.156 -2.10453 -2.46739 0
M  V30 4379 H 411.941 -3.61057 -1.52907 0
M  V30 4380 H 413.431 -3.35553 -2.48584 0
M  V30 4381 N 413.868 0.0150385 -1.57593 0
M  V30 4382 C 415.116 0.701613 -1.8953 0
M  V30 4383 C 415.437 1.75139 -0.857396 0
M  V30 4384 O 414.707 1.95607 0.107194 0
M  V30 4385 H 413.287 0.26213 -0.699498 0
M  V30 4386 H 415.949 -0.0223304 -1.94887 0
M  V30 4387 H 415.045 1.18236 -2.88837 0
M  V30 4388 N 415.346 1.54954 0.287554 0
M  V30 4389 C 416.294 1.87606 1.37502 0
M  V30 4390 C 417.288 0.751001 1.51843 0
M  V30 4391 O 418.494 0.935169 1.53801 0
M  V30 4392 H 414.869 0.595231 0.459569 0
M  V30 4393 H 416.84 2.78477 1.07206 0
M  V30 4394 C 415.589 2.15183 2.73115 0
M  V30 4395 H 414.912 3.01234 2.62866 0
M  V30 4396 H 416.352 2.4196 3.48183 0
M  V30 4397 C 414.811 0.954686 3.2309 0
M  V30 4398 O 415.341 0.181949 4.01288 0
M  V30 4399 N 413.547 0.756368 2.80584 0
M  V30 4400 H 413.094 1.38643 2.17108 0
M  V30 4401 H 413.052 -0.0430391 3.14371 0
M  V30 4402 N 416.824 -0.551391 1.4764 0
M  V30 4403 C 418.073 -1.30467 1.53822 0
M  V30 4404 C 418.386 -1.94495 0.207661 0
M  V30 4405 O 419.592 -2.71099 0.147533 0
M  V30 4406 C 418.048 -2.36616 2.71184 0
M  V30 4407 C 417.656 -1.78754 4.10793 0
M  V30 4408 C 419.4 -3.13088 2.86663 0
M  V30 4409 C 417.307 -2.82717 5.19447 0
M  V30 4410 H 416.237 -0.490584 0.572576 0
M  V30 4411 H 418.888 -0.58494 1.73927 0
M  V30 4412 H 417.27 -3.11529 2.4447 0
M  V30 4413 H 418.444 -1.10173 4.47435 0
M  V30 4414 H 416.759 -1.14846 4.00249 0
M  V30 4415 H 419.356 -3.90736 3.65007 0
M  V30 4416 H 419.699 -3.67635 1.95321 0
M  V30 4417 H 420.232 -2.45288 3.13175 0
M  V30 4418 H 416.971 -2.33018 6.12685 0
M  V30 4419 H 416.491 -3.4969 4.87316 0
M  V30 4420 H 418.17 -3.46102 5.46646 0
M  V30 4421 N 418.302 -1.35869 -0.798587 0
M  V30 4422 C 419.265 -1.29307 -1.89242 0
M  V30 4423 C 420.265 -0.202747 -1.59517 0
M  V30 4424 O 421.455 -0.456957 -1.681 0
M  V30 4425 C 418.587 -1.00229 -3.25833 0
M  V30 4426 H 419.78 -2.26576 -1.96478 0
M  V30 4427 H 417.333 -1.20509 -0.995358 0
M  V30 4428 H 418.068 -0.033801 -3.24282 0
M  V30 4429 H 417.853 -1.79121 -3.48795 0
M  V30 4430 H 419.343 -0.98219 -4.05885 0
M  V30 4431 N 419.78 1.02168 -1.19998 0
M  V30 4432 C 421.008 1.79296 -1.03249 0
M  V30 4433 C 421.423 1.84103 0.418502 0
M  V30 4434 O 420.78 1.29031 1.29063 0
M  V30 4435 C 420.831 3.24007 -1.60319 0
M  V30 4436 O 420.552 3.19512 -2.99739 0
M  V30 4437 C 422.053 4.17704 -1.48453 0
M  V30 4438 H 419.273 0.564016 -0.363493 0
M  V30 4439 H 421.817 1.28639 -1.58973 0
M  V30 4440 H 419.972 3.7183 -1.08727 0
M  V30 4441 H 420.386 4.10306 -3.26725 0
M  V30 4442 H 421.86 5.17104 -1.93153 0
M  V30 4443 H 422.337 4.37029 -0.436193 0
M  V30 4444 H 422.943 3.7576 -1.99211 0
M  V30 4445 N 421.258 1.00505 1.21394 0
M  V30 4446 C 422.221 0.570459 2.21987 0
M  V30 4447 C 423.221 -0.353211 1.56873 0
M  V30 4448 O 424.411 -0.14349 1.73608 0
M  V30 4449 C 421.543 -0.168555 3.40483 0
M  V30 4450 H 422.736 1.46021 2.6195 0
M  V30 4451 H 420.289 0.793565 1.34656 0
M  V30 4452 H 421.024 -1.07374 3.06009 0
M  V30 4453 H 420.809 0.494823 3.88965 0
M  V30 4454 H 422.299 -0.460362 4.15055 0
M  V30 4455 N 422.737 -1.36956 0.779787 0
M  V30 4456 C 423.647 -2.33965 0.172491 0
M  V30 4457 C 424.663 -1.60574 -0.670222 0
M  V30 4458 O 425.839 -1.92617 -0.588263 0
M  V30 4459 C 422.904 -3.39761 -0.690173 0
M  V30 4460 C 421.965 -4.28964 0.169924 0
M  V30 4461 C 421.198 -5.29707 -0.651662 0
M  V30 4462 O 421.421 -5.38238 -1.88827 0
M  V30 4463 O 420.355 -6.01873 -0.0566264 0
M  V30 4464 H 424.181 -2.87647 0.974321 0
M  V30 4465 H 421.766 -1.39258 0.541078 0
M  V30 4466 H 423.648 -4.04471 -1.1824 0
M  V30 4467 H 422.323 -2.88394 -1.47006 0
M  V30 4468 H 421.23 -3.67326 0.708696 0
M  V30 4469 H 422.563 -4.83656 0.913085 0
M  V30 4470 N 424.215 -0.530993 -1.48385 0
M  V30 4471 C 425.463 0.00273189 -2.021 0
M  V30 4472 C 425.784 1.34672 -1.41027 0
M  V30 4473 O 425.054 1.8724 -0.576012 0
M  V30 4474 H 423.634 0.00399774 -0.746989 0
M  V30 4475 H 426.296 -0.695054 -1.82085 0
M  V30 4476 H 425.392 0.11031 -3.11905 0
M  V30 4477 N 425.693 1.55336 -0.266172 0
M  V30 4478 C 426.656 2.20878 0.612001 0
M  V30 4479 C 427.656 1.18388 1.08816 0
M  V30 4480 O 428.846 1.4335 0.989774 0
M  V30 4481 C 425.978 2.86765 1.84332 0
M  V30 4482 H 427.171 2.99873 0.0398718 0
M  V30 4483 H 424.724 1.56291 -0.0167309 0
M  V30 4484 H 425.459 2.11759 2.45619 0
M  V30 4485 H 425.244 3.61862 1.5099 0
M  V30 4486 H 426.734 3.36867 2.46801 0
M  V30 4487 N 427.171 -0.0066808 1.57599 0
M  V30 4488 C 428.587 -0.36267 1.55425 0
M  V30 4489 C 428.787 -1.75209 0.995187 0
M  V30 4490 O 427.843 -2.44616 0.626058 0
M  V30 4491 C 429.156 -0.244017 2.99708 0
M  V30 4492 C 430.704 -0.319451 3.11366 0
M  V30 4493 C 431.179 -0.229998 4.57422 0
M  V30 4494 N 432.67 -0.288105 4.62303 0
M  V30 4495 C 433.405 -0.242127 5.72889 0
M  V30 4496 N 432.901 -0.147133 6.92644 0
M  V30 4497 N 434.694 -0.293502 5.61333 0
M  V30 4498 H 426.845 0.902314 1.92281 0
M  V30 4499 H 429.108 0.34525 0.882896 0
M  V30 4500 H 428.814 0.711678 3.44424 0
M  V30 4501 H 428.688 -1.02877 3.629 0
M  V30 4502 H 431.075 -1.26559 2.66584 0
M  V30 4503 H 431.156 0.495055 2.50964 0
M  V30 4504 H 430.8 0.712566 5.02877 0
M  V30 4505 H 430.73 -1.0629 5.15761 0
M  V30 4506 H 433.221 -0.363126 3.76151 0
M  V30 4507 H 433.534 -0.117763 7.7271 0
M  V30 4508 H 431.879 -0.112857 6.94908 0
M  V30 4509 H 435.07 -0.365864 4.66668 0
M  V30 4510 H 435.243 -0.254204 6.47501 0
M  V30 4511 N 428.649 -1.55105 -0.279332 0
M  V30 4512 C 429.612 -1.86783 -1.32834 0
M  V30 4513 C 430.612 -0.74199 -1.42657 0
M  V30 4514 O 431.802 -1.0102 -1.41918 0
M  V30 4515 C 428.934 -2.06746 -2.71052 0
M  V30 4516 H 430.127 -2.8055 -1.05979 0
M  V30 4517 H 427.68 -1.47499 -0.517087 0
M  V30 4518 H 428.415 -1.15339 -3.03097 0
M  V30 4519 H 428.2 -2.88711 -2.65309 0
M  V30 4520 H 429.69 -2.32549 -3.46858 0
M  V30 4521 N 430.127 0.543554 -1.4793 0
M  V30 4522 C 431.057 1.65888 -1.64327 0
M  V30 4523 C 432.038 1.62818 -0.492383 0
M  V30 4524 O 433.223 1.80226 -0.723338 0
M  V30 4525 C 430.353 3.04506 -1.67013 0
M  V30 4526 C 429.307 3.2243 -2.81466 0
M  V30 4527 C 428.633 4.61972 -2.69233 0
M  V30 4528 C 429.933 3.06496 -4.22915 0
M  V30 4529 H 431.627 1.52421 -2.57698 0
M  V30 4530 H 429.173 0.731849 -1.24016 0
M  V30 4531 H 431.126 3.82391 -1.77074 0
M  V30 4532 H 429.85 3.18964 -0.70212 0
M  V30 4533 H 428.509 2.46957 -2.70938 0
M  V30 4534 H 428.157 4.73247 -1.7043 0
M  V30 4535 H 427.857 4.74911 -3.46025 0
M  V30 4536 H 429.381 5.41974 -2.81242 0
M  V30 4537 H 430.795 3.74186 -4.34348 0
M  V30 4538 H 429.192 3.30938 -5.006 0
M  V30 4539 H 430.262 2.03077 -4.40327 0
M  V30 4540 N 431.605 1.3629 0.791371 0
M  V30 4541 C 432.835 1.33368 1.57786 0
M  V30 4542 C 433.243 -0.0875188 1.88997 0
M  V30 4543 O 432.586 -1.05427 1.50435 0
M  V30 4544 C 432.648 2.08802 2.92646 0
M  V30 4545 C 432.312 3.57903 2.84174 0
M  V30 4546 C 433.309 4.52191 2.56553 0
M  V30 4547 C 430.994 4.00762 3.02812 0
M  V30 4548 C 432.988 5.87315 2.47669 0
M  V30 4549 C 430.675 5.35977 2.93551 0
M  V30 4550 C 431.673 6.29066 2.66017 0
M  V30 4551 O 431.361 7.61798 2.56746 0
M  V30 4552 H 431.093 0.459166 0.496128 0
M  V30 4553 H 433.647 1.79952 0.990269 0
M  V30 4554 H 431.877 1.56878 3.53449 0
M  V30 4555 H 433.566 1.98762 3.53904 0
M  V30 4556 H 434.332 4.20393 2.41858 0
M  V30 4557 H 430.211 3.2868 3.2325 0
M  V30 4558 H 433.755 6.59943 2.26099 0
M  V30 4559 H 429.652 5.67384 3.07808 0
M  V30 4560 H 430.42 7.71898 2.72242 0
M  V30 4561 N 433.083 -1.0153 1.20538 0
M  V30 4562 C 434.36 -1.72327 0.925343 0
M  V30 4563 C 434.74 -2.03383 -0.565547 0
M  V30 4564 O 434.088 -1.69934 -1.52757 0
M  V30 4565 C 434.298 -2.9902 1.79967 0
M  V30 4566 C 435.646 -3.72258 2.04228 0
M  V30 4567 O 436.67 -3.08979 1.77231 0
M  V30 4568 O 435.529 -4.86053 2.4983 0
M  V30 4569 H 432.623 -0.751099 0.346092 0
M  V30 4570 H 435.169 -1.07366 1.31417 0
M  V30 4571 H 433.941 -2.72402 2.80915 0
M  V30 4572 H 433.564 -3.71721 1.41099 0
M  V30 4573 N 434.561 -1.01147 -1.20859 0
M  V30 4574 C 435.524 -0.582224 -2.21682 0
M  V30 4575 C 436.524 0.344887 -1.57058 0
M  V30 4576 O 437.714 0.134281 -1.73682 0
M  V30 4577 C 434.846 0.150496 -3.40568 0
M  V30 4578 H 436.039 -1.47408 -2.61172 0
M  V30 4579 H 433.592 -0.800695 -1.34233 0
M  V30 4580 H 434.327 1.0575 -3.06574 0
M  V30 4581 H 434.112 -0.515444 -3.88697 0
M  V30 4582 H 435.602 0.438344 -4.15293 0
M  V30 4583 N 436.039 1.36541 -0.78704 0
M  V30 4584 C 437.287 1.98911 -0.357633 0
M  V30 4585 C 437.608 1.62778 1.07371 0
M  V30 4586 O 436.878 0.900612 1.73971 0
M  V30 4587 H 435.458 0.735734 -0.129246 0
M  V30 4588 H 438.12 1.66776 -1.00855 0
M  V30 4589 H 437.216 3.08874 -0.447549 0
M  V30 4590 N 437.518 0.538854 1.48102 0
M  V30 4591 C 438.764 0.00801365 2.02798 0
M  V30 4592 C 439.097 -1.3309 1.41424 0
M  V30 4593 O 438.372 -1.86169 0.563158 0
M  V30 4594 C 438.655 -0.104589 3.59948 0
M  V30 4595 C 438.508 1.26012 4.31788 0
M  V30 4596 C 439.827 -0.827055 4.32259 0
M  V30 4597 H 436.946 0.00438624 0.736987 0
M  V30 4598 H 439.588 0.6976 1.7673 0
M  V30 4599 H 437.738 -0.691893 3.82289 0
M  V30 4600 H 439.41 1.88922 4.2084 0
M  V30 4601 H 437.653 1.83968 3.92859 0
M  V30 4602 H 438.324 1.13424 5.40221 0
M  V30 4603 H 440.8 -0.328578 4.14801 0
M  V30 4604 H 439.676 -0.87476 5.41885 0
M  V30 4605 H 439.937 -1.87927 4.0017 0
M  V30 4606 N 438.996 -1.55193 0.274407 0
M  V30 4607 C 440.273 -1.91584 -0.394331 0
M  V30 4608 C 440.653 -1.19858 -1.73774 0
M  V30 4609 O 440.001 -0.3252 -2.26174 0
M  V30 4610 C 440.211 -3.4487 -0.535311 0
M  V30 4611 C 441.559 -4.16636 -0.818534 0
M  V30 4612 O 442.583 -3.5076 -0.620146 0
M  V30 4613 O 441.442 -5.33209 -1.19792 0
M  V30 4614 H 438.536 -0.798349 -0.215794 0
M  V30 4615 H 441.082 -1.66646 0.320507 0
M  V30 4616 H 439.854 -3.89145 0.410141 0
M  V30 4617 H 439.477 -3.75759 -1.29964 0
M  V30 4618 N 440.474 -0.00167713 -1.576 0
M  V30 4619 C 441.72 0.683832 -1.90923 0
M  V30 4620 C 442.053 1.7333 -0.875799 0
M  V30 4621 O 441.328 1.94215 0.10525 0
M  V30 4622 C 441.611 1.32543 -3.3482 0
M  V30 4623 C 441.464 0.287387 -4.48881 0
M  V30 4624 C 442.783 2.25114 -3.78169 0
M  V30 4625 H 439.902 0.247125 -0.694333 0
M  V30 4626 H 442.544 -0.0533149 -1.89925 0
M  V30 4627 H 440.694 1.95372 -3.35801 0
M  V30 4628 H 442.366 -0.341346 -4.60035 0
M  V30 4629 H 440.609 -0.39017 -4.32042 0
M  V30 4630 H 441.28 0.775393 -5.46527 0
M  V30 4631 H 443.756 1.723 -3.7875 0
M  V30 4632 H 442.632 2.66971 -4.79602 0
M  V30 4633 H 442.893 3.13092 -3.12131 0
M  V30 4634 N 441.952 1.55251 0.271103 0
M  V30 4635 C 443.198 1.76207 1.00394 0
M  V30 4636 C 443.531 0.562604 1.85872 0
M  V30 4637 O 442.806 -0.439785 1.89463 0
M  V30 4638 C 443.089 3.06828 1.8849 0
M  V30 4639 C 442.942 4.37134 1.05992 0
M  V30 4640 C 444.261 3.33503 2.87165 0
M  V30 4641 H 441.38 0.641086 0.363562 0
M  V30 4642 H 444.022 1.87982 0.276189 0
M  V30 4643 H 442.172 2.96921 2.5054 0
M  V30 4644 H 443.844 4.59001 0.459978 0
M  V30 4645 H 442.087 4.32275 0.363443 0
M  V30 4646 H 442.758 5.2486 1.70955 0
M  V30 4647 H 445.234 3.43215 2.3525 0
M  V30 4648 H 444.11 4.2616 3.45946 0
M  V30 4649 H 444.371 2.53235 3.62387 0
M  V30 4650 N 443.43 -0.535701 1.48216 0
M  V30 4651 C 444.377 -1.64083 1.62312 0
M  V30 4652 C 445.347 -1.59448 0.465365 0
M  V30 4653 O 446.532 -1.77959 0.688135 0
M  V30 4654 C 443.672 -3.0236 1.66349 0
M  V30 4655 C 442.785 -3.17273 2.93193 0
M  V30 4656 C 441.92 -4.46075 2.88427 0
M  V30 4657 C 440.959 -4.54496 4.1 0
M  V30 4658 N 440.096 -5.7468 4.03345 0
M  V30 4659 H 444.936 -1.51374 2.5669 0
M  V30 4660 H 442.473 -0.737059 1.27302 0
M  V30 4661 H 444.431 -3.82461 1.66672 0
M  V30 4662 H 443.061 -3.13854 0.754672 0
M  V30 4663 H 442.113 -2.30462 3.02641 0
M  V30 4664 H 443.425 -3.19357 3.83162 0
M  V30 4665 H 442.579 -5.3446 2.87119 0
M  V30 4666 H 441.318 -4.46504 1.96177 0
M  V30 4667 H 440.323 -3.64519 4.11589 0
M  V30 4668 H 441.548 -4.5581 5.03402 0
M  V30 4669 H 439.494 -5.76017 3.13912 0
M  V30 4670 H 439.411 -5.78234 4.87013 0
M  V30 4671 H 440.679 -6.65367 4.06087 0
M  V30 4672 N 444.908 -1.36708 -0.784132 0
M  V30 4673 C 446.154 -1.31426 -1.54451 0
M  V30 4674 C 446.487 0.10476 -1.93917 0
M  V30 4675 O 445.762 1.05934 -1.6312 0
M  V30 4676 C 446.045 -2.24189 -2.818 0
M  V30 4677 C 445.898 -3.74813 -2.48667 0
M  V30 4678 C 447.217 -2.15626 -3.83658 0
M  V30 4679 H 444.336 -0.478739 -0.560337 0
M  V30 4680 H 446.978 -1.67305 -0.900498 0
M  V30 4681 H 445.128 -1.93722 -3.36755 0
M  V30 4682 H 446.8 -4.15823 -1.99722 0
M  V30 4683 H 445.043 -3.93989 -1.81535 0
M  V30 4684 H 445.714 -4.35138 -3.39646 0
M  V30 4685 H 448.19 -2.42456 -3.38163 0
M  V30 4686 H 447.066 -2.82694 -4.70506 0
M  V30 4687 H 447.327 -1.14522 -4.27009 0
M  V30 4688 N 446.386 1.0089 -1.21074 0
M  V30 4689 C 447.634 1.74262 -1.02358 0
M  V30 4690 C 447.955 1.89869 0.444393 0
M  V30 4691 O 447.225 1.44677 1.32081 0
M  V30 4692 H 445.805 0.645615 -0.375754 0
M  V30 4693 H 448.467 1.21596 -1.52317 0
M  V30 4694 H 447.563 2.74328 -1.4883 0
M  V30 4695 N 447.864 1.01787 1.20321 0
M  V30 4696 C 449.113 0.703249 1.89043 0
M  V30 4697 C 449.426 -0.770445 1.79787 0
M  V30 4698 O 450.632 -1.19767 2.43656 0
M  V30 4699 C 449.088 1.20749 3.3904 0
M  V30 4700 C 448.696 2.70817 3.56878 0
M  V30 4701 C 450.44 0.968352 4.13308 0
M  V30 4702 C 448.347 3.14716 5.00708 0
M  V30 4703 H 447.277 0.259354 0.707991 0
M  V30 4704 H 449.928 1.23072 1.36108 0
M  V30 4705 H 448.31 0.607989 3.91305 0
M  V30 4706 H 449.484 3.36327 3.14993 0
M  V30 4707 H 447.799 2.92888 2.95983 0
M  V30 4708 H 450.396 1.27173 5.19356 0
M  V30 4709 H 450.739 -0.095149 4.16191 0
M  V30 4710 H 451.272 1.53129 3.67146 0
M  V30 4711 H 448.011 4.20347 5.02979 0
M  V30 4712 H 447.531 2.53927 5.43398 0
M  V30 4713 H 449.21 3.07426 5.69296 0
M  V30 4714 N 449.342 -1.36122 0.79427 0
M  V30 4715 C 450.59 -1.98718 0.368177 0
M  V30 4716 C 450.911 -1.63345 -1.06506 0
M  V30 4717 O 450.181 -0.909825 -1.73491 0
M  V30 4718 H 448.761 -0.735038 0.133146 0
M  V30 4719 H 451.423 -1.66239 1.01739 0
M  V30 4720 H 450.519 -3.08633 0.463923 0
M  V30 4721 N 450.82 -0.546701 -1.47814 0
M  V30 4722 C 452.231 -0.110564 -1.86372 0
M  V30 4723 C 452.582 1.31678 -1.45449 0
M  V30 4724 O 451.707 1.98889 -0.852758 0
M  V30 4725 C 452.302 -0.193873 -3.38245 0
M  V30 4726 C 450.861 0.187164 -3.75934 0
M  V30 4727 C 450.008 -0.546166 -2.71868 0
M  V30 4728 H 452.959 -0.757022 -1.39481 0
M  V30 4729 H 452.98 0.590218 -3.75895 0
M  V30 4730 H 452.492 -1.23282 -3.67999 0
M  V30 4731 H 450.593 1.22762 -3.51796 0
M  V30 4732 H 450.706 -0.164083 -4.78819 0
M  V30 4733 H 449.07 0.00953904 -2.54698 0
M  V30 4734 H 449.853 -1.58606 -3.04465 0
M  V30 4735 N 452.299 1.55045 -0.282633 0
M  V30 4736 C 453.547 1.99365 0.331334 0
M  V30 4737 C 453.868 1.1725 1.55812 0
M  V30 4738 O 453.138 0.263871 1.94115 0
M  V30 4739 H 451.718 0.736397 0.125414 0
M  V30 4740 H 454.38 1.90964 -0.389711 0
M  V30 4741 H 453.476 3.0596 0.616036 0
M  V30 4742 N 453.777 0.010035 1.57597 0
M  V30 4743 C 455.002 -0.687021 1.95691 0
M  V30 4744 C 455.427 -1.65952 0.885519 0
M  V30 4745 O 454.785 -1.80633 -0.15543 0
M  V30 4746 C 454.833 -1.3864 3.32884 0
M  V30 4747 O 453.937 -2.50115 3.27897 0
M  V30 4748 H 453.278 -0.181989 0.638573 0
M  V30 4749 H 455.808 0.0662122 2.04493 0
M  V30 4750 H 455.818 -1.74754 3.6868 0
M  V30 4751 H 454.493 -0.673411 4.10412 0
M  V30 4752 H 453.07 -2.16253 3.03791 0
M  V30 4753 N 455.255 -1.55392 -0.262866 0
M  V30 4754 C 456.504 -1.75679 -0.990943 0
M  V30 4755 C 456.817 -0.57097 -1.87081 0
M  V30 4756 O 458.023 -0.656486 -2.63444 0
M  V30 4757 C 456.479 -3.10964 -1.81188 0
M  V30 4758 C 456.087 -4.37146 -0.980188 0
M  V30 4759 C 457.831 -3.40597 -2.53365 0
M  V30 4760 C 455.738 -5.63466 -1.7961 0
M  V30 4761 H 454.668 -0.654868 -0.373716 0
M  V30 4762 H 457.319 -1.81841 -0.246203 0
M  V30 4763 H 455.701 -2.98867 -2.59797 0
M  V30 4764 H 456.875 -4.60187 -0.237558 0
M  V30 4765 H 455.19 -4.14731 -0.372497 0
M  V30 4766 H 457.787 -4.32186 -3.14833 0
M  V30 4767 H 458.13 -2.6119 -3.24169 0
M  V30 4768 H 458.663 -3.53838 -1.81779 0
M  V30 4769 H 455.402 -6.4565 -1.13209 0
M  V30 4770 H 454.922 -5.44552 -2.51443 0
M  V30 4771 H 456.601 -6.02139 -2.36723 0
M  V30 4772 N 456.733 0.527833 -1.48498 0
M  V30 4773 C 457.973 1.29401 -1.58224 0
M  V30 4774 C 458.337 1.90348 -0.251327 0
M  V30 4775 O 459.538 2.67868 -0.223588 0
M  V30 4776 C 457.809 2.35266 -2.69044 0
M  V30 4777 S 459.368 3.2158 -2.98549 0
M  V30 4778 H 456.186 0.440138 -0.558391 0
M  V30 4779 H 458.788 0.601079 -1.8603 0
M  V30 4780 H 457.492 1.88975 -3.64303 0
M  V30 4781 H 457.023 3.09263 -2.43146 0
M  V30 4782 H 459.038 4.35391 -2.38011 0
M  V30 4783 N 458.211 1.37122 0.776871 0
M  V30 4784 C 459.439 1.3523 1.5659 0
M  V30 4785 C 459.854 -0.0635518 1.88693 0
M  V30 4786 O 459.211 -1.02394 1.51069 0
M  V30 4787 C 459.262 2.18583 2.8793 0
M  V30 4788 O 458.983 3.5465 2.57206 0
M  V30 4789 C 460.484 2.24612 3.82183 0
M  V30 4790 H 457.704 0.4634 0.485285 0
M  V30 4791 H 460.248 1.80392 0.963266 0
M  V30 4792 H 458.403 1.76943 3.4463 0
M  V30 4793 H 458.817 3.98286 3.41275 0
M  V30 4794 H 460.291 2.87267 4.71361 0
M  V30 4795 H 460.768 1.25309 4.20944 0
M  V30 4796 H 461.374 2.66543 3.31414 0
M  V30 4797 N 459.689 -1.00246 1.21608 0
M  V30 4798 C 460.917 -1.77631 1.06089 0
M  V30 4799 C 461.332 -1.84746 -0.38916 0
M  V30 4800 O 460.689 -1.31068 -1.26994 0
M  V30 4801 C 460.74 -3.21415 1.65453 0
M  V30 4802 O 460.461 -3.14703 3.04785 0
M  V30 4803 C 461.962 -4.15289 1.55079 0
M  V30 4804 H 459.182 -0.558162 0.37242 0
M  V30 4805 H 461.726 -1.26093 1.60999 0
M  V30 4806 H 459.881 -3.70053 1.14629 0
M  V30 4807 H 460.295 -4.05056 3.33212 0
M  V30 4808 H 461.769 -5.13965 2.01355 0
M  V30 4809 H 462.246 -4.36279 0.505665 0
M  V30 4810 H 462.852 -3.72543 2.05163 0
M  V30 4811 N 461.167 -1.02423 -1.1978 0
M  V30 4812 C 462.583 -0.740459 -1.41384 0
M  V30 4813 C 462.783 0.676827 -1.89793 0
M  V30 4814 O 461.839 1.4435 -2.0717 0
M  V30 4815 C 463.152 -1.77264 -2.42895 0
M  V30 4816 C 464.7 -1.79165 -2.56649 0
M  V30 4817 C 465.175 -2.8133 -3.6141 0
M  V30 4818 N 466.666 -2.80118 -3.68901 0
M  V30 4819 C 467.401 -3.55824 -4.49641 0
M  V30 4820 N 466.897 -4.41231 -5.34123 0
M  V30 4821 N 468.69 -3.44387 -4.44246 0
M  V30 4822 H 460.841 -1.9391 -0.866764 0
M  V30 4823 H 463.104 -0.838074 -0.443098 0
M  V30 4824 H 462.81 -2.7884 -2.14339 0
M  V30 4825 H 462.684 -1.59108 -3.42001 0
M  V30 4826 H 465.071 -0.782702 -2.84531 0
M  V30 4827 H 465.152 -2.01396 -1.57713 0
M  V30 4828 H 464.796 -3.82394 -3.34271 0
M  V30 4829 H 464.726 -2.56359 -4.59986 0
M  V30 4830 H 467.217 -2.1817 -3.08562 0
M  V30 4831 H 467.53 -4.95747 -5.92836 0
M  V30 4832 H 465.875 -4.45306 -5.33599 0
M  V30 4833 H 469.066 -2.7708 -3.77285 0
M  V30 4834 H 469.239 -4.0364 -5.06931 0
M  V30 4835 N 462.645 1.35699 -0.801477 0
M  V30 4836 C 463.891 1.99208 -0.380022 0
M  V30 4837 C 464.224 1.63445 1.04878 0
M  V30 4838 O 463.499 0.895223 1.72673 0
M  V30 4839 C 463.782 3.55755 -0.557708 0
M  V30 4840 C 463.635 4.01332 -2.03107 0
M  V30 4841 C 464.954 4.40096 0.0197968 0
M  V30 4842 H 462.073 0.723667 -0.139552 0
M  V30 4843 H 464.715 1.60928 -1.01006 0
M  V30 4844 H 462.865 3.88494 -0.0213741 0
M  V30 4845 H 464.537 3.79026 -2.62939 0
M  V30 4846 H 462.78 3.52429 -2.52936 0
M  V30 4847 H 463.451 5.10234 -2.1063 0
M  V30 4848 H 465.927 4.13786 -0.438179 0
M  V30 4849 H 464.803 5.48735 -0.134477 0
M  V30 4850 H 465.064 4.2786 1.11303 0
M  V30 4851 N 464.123 0.554532 1.47522 0
M  V30 4852 C 465.369 0.0295227 2.02779 0
M  V30 4853 C 465.702 -1.31582 1.42828 0
M  V30 4854 O 464.977 -1.85561 0.582872 0
M  V30 4855 C 465.26 -0.0664057 3.60039 0
M  V30 4856 C 465.113 1.30585 4.30427 0
M  V30 4857 C 466.432 -0.781162 4.33112 0
M  V30 4858 H 463.551 0.0122027 0.736899 0
M  V30 4859 H 466.193 0.716305 1.7598 0
M  V30 4860 H 464.343 -0.651307 3.83002 0
M  V30 4861 H 466.015 1.93374 4.18813 0
M  V30 4862 H 464.258 1.88125 3.90886 0
M  V30 4863 H 464.929 1.19147 5.38988 0
M  V30 4864 H 467.405 -0.284565 4.15126 0
M  V30 4865 H 466.281 -0.817237 5.42782 0
M  V30 4866 H 466.542 -1.83672 4.0214 0
M  V30 4867 N 465.601 -1.54893 0.290851 0
M  V30 4868 C 466.564 -2.21824 -0.576784 0
M  V30 4869 C 467.564 -1.20104 -1.06919 0
M  V30 4870 O 468.754 -1.44906 -0.966843 0
M  V30 4871 C 465.886 -2.89662 -1.79747 0
M  V30 4872 H 467.079 -2.99899 0.00784051 0
M  V30 4873 H 464.632 -1.56245 0.0415934 0
M  V30 4874 H 465.367 -2.15639 -2.42219 0
M  V30 4875 H 465.152 -3.64219 -1.45214 0
M  V30 4876 H 466.642 -3.4075 -2.4141 0
M  V30 4877 N 467.08 -0.0183926 -1.57589 0
M  V30 4878 C 468.328 0.661253 -1.90976 0
M  V30 4879 C 468.649 1.73281 -0.894353 0
M  V30 4880 O 467.919 1.9579 0.0656788 0
M  V30 4881 H 466.499 0.247233 -0.704901 0
M  V30 4882 H 469.161 -0.0636639 -1.94796 0
M  V30 4883 H 468.257 1.12083 -2.9128 0
M  V30 4884 N 468.558 1.5553 0.254621 0
M  V30 4885 C 469.804 1.77262 0.985193 0
M  V30 4886 C 470.137 0.582286 1.85265 0
M  V30 4887 O 469.412 -0.419666 1.89919 0
M  V30 4888 C 469.695 3.0881 1.85225 0
M  V30 4889 C 469.548 4.38233 1.0135 0
M  V30 4890 C 470.867 3.3653 2.83612 0
M  V30 4891 H 467.986 0.644906 0.356742 0
M  V30 4892 H 470.628 1.88264 0.256236 0
M  V30 4893 H 468.778 2.99562 2.47376 0
M  V30 4894 H 470.45 4.59463 0.411269 0
M  V30 4895 H 468.693 4.32636 0.317574 0
M  V30 4896 H 469.364 5.26644 1.65379 0
M  V30 4897 H 471.84 3.45691 2.31596 0
M  V30 4898 H 470.716 4.29805 3.41407 0
M  V30 4899 H 470.977 2.57064 3.59681 0
M  V30 4900 N 470.036 -0.519951 1.48776 0
M  V30 4901 C 471.284 -1.2727 1.56993 0
M  V30 4902 C 471.605 -1.9339 0.25004 0
M  V30 4903 O 470.875 -1.81822 -0.729216 0
M  V30 4904 H 469.455 -0.472732 0.578389 0
M  V30 4905 H 472.117 -0.604234 1.85297 0
M  V30 4906 H 471.213 -2.04669 2.3562 0
M  V30 4907 N 471.514 -1.37532 -0.769588 0
M  V30 4908 C 472.76 -1.33057 -1.53048 0
M  V30 4909 C 473.093 0.0841865 -1.94017 0
M  V30 4910 O 472.368 1.04198 -1.64235 0
M  V30 4911 C 472.651 -2.27166 -2.79406 0
M  V30 4912 C 472.504 -3.77429 -2.44677 0
M  V30 4913 C 473.823 -2.19683 -3.81349 0
M  V30 4914 H 470.942 -0.484655 -0.555228 0
M  V30 4915 H 473.584 -1.68251 -0.882702 0
M  V30 4916 H 471.734 -1.97283 -3.34682 0
M  V30 4917 H 473.406 -4.17918 -1.953 0
M  V30 4918 H 471.649 -3.95892 -1.77346 0
M  V30 4919 H 472.32 -4.38716 -3.35011 0
M  V30 4920 H 474.796 -2.46029 -3.35573 0
M  V30 4921 H 473.672 -2.87668 -4.67481 0
M  V30 4922 H 473.933 -1.19045 -4.25771 0
M  V30 4923 N 472.992 0.995999 -1.22138 0
M  V30 4924 C 474.403 1.54961 -1.04135 0
M  V30 4925 C 474.754 1.92159 0.396147 0
M  V30 4926 O 473.879 1.74435 1.28069 0
M  V30 4927 C 474.474 2.81581 -1.88408 0
M  V30 4928 C 473.033 3.33396 -1.74712 0
M  V30 4929 C 472.18 2.06509 -1.85066 0
M  V30 4930 H 475.131 0.817436 -1.36028 0
M  V30 4931 H 475.152 3.53822 -1.39966 0
M  V30 4932 H 474.664 2.54476 -2.93025 0
M  V30 4933 H 472.765 3.65416 -0.728159 0
M  V30 4934 H 472.878 4.04208 -2.57202 0
M  V30 4935 H 471.242 2.19925 -1.28472 0
M  V30 4936 H 472.025 1.81804 -2.91208 0
M  V30 4937 N 474.47 1.03057 1.19235 0
M  V30 4938 C 475.402 0.570932 2.21975 0
M  V30 4939 C 476.415 -0.354088 1.58903 0
M  V30 4940 O 477.604 -0.150211 1.77867 0
M  V30 4941 C 474.704 -0.187152 3.38383 0
M  V30 4942 C 473.877 0.743231 4.31039 0
M  V30 4943 C 472.936 0.0302493 5.26191 0
M  V30 4944 O 471.962 0.657371 5.65391 0
M  V30 4945 N 473.164 -1.23991 5.67104 0
M  V30 4946 H 475.929 1.45456 2.62036 0
M  V30 4947 H 473.49 0.909807 1.33918 0
M  V30 4948 H 475.482 -0.673715 3.99053 0
M  V30 4949 H 474.052 -0.972205 2.97098 0
M  V30 4950 H 473.272 1.40985 3.68126 0
M  V30 4951 H 474.56 1.3755 4.89854 0
M  V30 4952 H 473.958 -1.77011 5.37293 0
M  V30 4953 H 472.515 -1.67093 6.30018 0
M  V30 4954 N 475.948 -1.35272 0.808662 0
M  V30 4955 C 477.194 -1.99003 0.390581 0
M  V30 4956 C 477.527 -1.63999 -1.0401 0
M  V30 4957 O 476.802 -0.904368 -1.72196 0
M  V30 4958 C 477.085 -3.55454 0.576566 0
M  V30 4959 C 476.938 -4.00249 2.05233 0
M  V30 4960 C 478.257 -4.401 0.00354277 0
M  V30 4961 H 475.376 -0.722917 0.143388 0
M  V30 4962 H 478.018 -1.6039 1.01858 0
M  V30 4963 H 476.168 -3.88477 0.0419766 0
M  V30 4964 H 477.84 -3.77626 2.64946 0
M  V30 4965 H 476.083 -3.51082 2.54801 0
M  V30 4966 H 476.754 -5.0911 2.13333 0
M  V30 4967 H 479.23 -4.13548 0.460117 0
M  V30 4968 H 478.106 -5.48656 0.163575 0
M  V30 4969 H 478.367 -4.28444 -1.09032 0
M  V30 4970 N 477.426 -0.562348 -1.47226 0
M  V30 4971 C 478.654 -0.0452275 -2.06851 0
M  V30 4972 C 479.069 1.25078 -1.41424 0
M  V30 4973 O 478.426 1.75156 -0.512513 0
M  V30 4974 C 478.477 0.148674 -3.61194 0
M  V30 4975 O 478.198 -1.09602 -4.24169 0
M  V30 4976 C 479.699 0.702488 -4.37699 0
M  V30 4977 H 476.919 -0.0481775 -0.669268 0
M  V30 4978 H 479.463 -0.777223 -1.89155 0
M  V30 4979 H 477.618 0.830817 -3.78386 0
M  V30 4980 H 478.032 -0.896982 -5.16773 0
M  V30 4981 H 479.506 0.78743 -5.46355 0
M  V30 4982 H 479.983 1.71493 -4.04335 0
M  V30 4983 H 480.589 0.0558772 -4.25263 0
M  V30 4984 N 478.904 1.54736 -0.299062 0
M  V30 4985 C 479.867 2.22127 0.565012 0
M  V30 4986 C 480.867 1.20669 1.06281 0
M  V30 4987 O 482.057 1.45417 0.959145 0
M  V30 4988 C 479.189 2.90611 1.78208 0
M  V30 4989 H 480.382 2.99891 -0.0237448 0
M  V30 4990 H 477.935 1.5622 -0.0498788 0
M  V30 4991 H 478.67 2.16921 2.41072 0
M  V30 4992 H 478.455 3.64984 1.43281 0
M  V30 4993 H 479.945 3.42026 2.396 0
M  V30 4994 N 480.382 0.0267497 1.57577 0
M  V30 4995 C 481.631 -0.651736 1.9088 0
M  V30 4996 C 481.944 -1.73427 0.904576 0
M  V30 4997 O 483.15 -2.46923 1.12877 0
M  V30 4998 C 481.606 -1.21048 3.38933 0
M  V30 4999 C 481.214 -0.161362 4.47709 0
M  V30 5000 C 482.958 -1.86562 3.81307 0
M  V30 5001 C 480.865 -0.731611 5.86857 0
M  V30 5002 H 479.795 -0.247198 0.712326 0
M  V30 5003 H 482.446 0.0916641 1.83271 0
M  V30 5004 H 480.828 -2.00542 3.41466 0
M  V30 5005 H 482.002 0.61094 4.56732 0
M  V30 5006 H 480.317 0.394877 4.14523 0
M  V30 5007 H 482.914 -2.30178 4.8262 0
M  V30 5008 H 483.257 -2.70735 3.16241 0
M  V30 5009 H 483.79 -1.13762 3.81186 0
M  V30 5010 H 480.529 0.0719329 6.55461 0
M  V30 5011 H 480.049 -1.47245 5.81445 0
M  V30 5012 H 481.728 -1.22208 6.35354 0
M  V30 5013 N 481.861 -1.55662 -0.24637 0
M  V30 5014 C 483.091 -1.81312 -0.990438 0
M  V30 5015 C 483.499 -0.600234 -1.79426 0
M  V30 5016 O 482.842 0.440537 -1.78339 0
M  V30 5017 C 482.904 -3.0032 -1.97607 0
M  V30 5018 C 482.568 -4.36322 -1.35912 0
M  V30 5019 C 483.565 -5.14295 -0.761348 0
M  V30 5020 C 481.25 -4.83019 -1.37833 0
M  V30 5021 C 483.244 -6.37114 -0.190998 0
M  V30 5022 C 480.931 -6.05786 -0.804128 0
M  V30 5023 C 481.929 -6.82672 -0.211489 0
M  V30 5024 O 481.617 -8.03121 0.353845 0
M  V30 5025 H 481.349 -0.607233 -0.297058 0
M  V30 5026 H 483.903 -2.0356 -0.274351 0
M  V30 5027 H 482.133 -2.73829 -2.73047 0
M  V30 5028 H 483.822 -3.13057 -2.58361 0
M  V30 5029 H 484.588 -4.79337 -0.739013 0
M  V30 5030 H 480.467 -4.23165 -1.829 0
M  V30 5031 H 484.011 -6.97069 0.272206 0
M  V30 5032 H 479.908 -6.40222 -0.823792 0
M  V30 5033 H 480.676 -8.18131 0.245761 0
M  V30 5034 N 483.339 0.512053 -1.4905 0
M  V30 5035 C 484.616 1.27337 -1.48474 0
M  V30 5036 C 484.996 2.1009 -0.206301 0
M  V30 5037 O 484.344 2.136 0.811609 0
M  V30 5038 C 484.554 2.13954 -2.75726 0
M  V30 5039 C 485.902 2.73507 -3.24776 0
M  V30 5040 O 486.926 2.24229 -2.76767 0
M  V30 5041 O 485.785 3.63186 -4.08361 0
M  V30 5042 H 482.879 0.575652 -0.593762 0
M  V30 5043 H 485.425 0.527232 -1.61302 0
M  V30 5044 H 484.197 1.52709 -3.60272 0
M  V30 5045 H 483.82 2.95782 -2.65705 0
M  V30 5046 N 484.817 1.37938 0.762283 0
M  V30 5047 C 485.78 1.34279 1.85747 0
M  V30 5048 C 486.78 0.244969 1.58923 0
M  V30 5049 O 487.97 0.501365 1.66829 0
M  V30 5050 C 485.102 1.08833 3.23061 0
M  V30 5051 H 486.295 2.31705 1.90401 0
M  V30 5052 H 483.848 1.23105 0.963057 0
M  V30 5053 H 484.583 0.119767 3.24079 0
M  V30 5054 H 484.368 1.88306 3.43923 0
M  V30 5055 H 485.858 1.08946 4.03138 0
M  V30 5056 N 486.295 -0.989507 1.22664 0
M  V30 5057 C 487.258 -2.06183 1.00106 0
M  V30 5058 C 488.258 -1.60765 -0.0337726 0
M  V30 5059 O 489.448 -1.72989 0.205072 0
M  V30 5060 C 486.58 -3.37021 0.51279 0
M  V30 5061 H 487.773 -2.27629 1.95256 0
M  V30 5062 H 485.326 -1.16158 1.0458 0
M  V30 5063 H 486.061 -3.21261 -0.442917 0
M  V30 5064 H 485.846 -3.71323 1.25942 0
M  V30 5065 H 487.336 -4.1591 0.375315 0
M  V30 5066 N 487.773 -1.03688 -1.18687 0
M  V30 5067 C 488.736 -0.629115 -2.20397 0
M  V30 5068 C 489.736 0.311495 -1.57754 0
M  V30 5069 O 490.926 0.0974107 -1.73927 0
M  V30 5070 C 488.058 0.0782231 -3.4081 0
M  V30 5071 H 489.251 -1.52915 -2.57987 0
M  V30 5072 H 486.804 -0.828988 -1.32505 0
M  V30 5073 H 487.539 0.992233 -3.08748 0
M  V30 5074 H 487.324 -0.597776 -3.87517 0
M  V30 5075 H 488.814 0.350156 -4.16129 0
M  V30 5076 N 489.251 1.34841 -0.815825 0
M  V30 5077 C 490.497 1.98793 -0.401129 0
M  V30 5078 C 490.83 1.64548 1.03139 0
M  V30 5079 O 490.105 0.913487 1.71714 0
M  V30 5080 C 490.388 3.55143 -0.595409 0
M  V30 5081 C 490.241 3.99155 -2.07352 0
M  V30 5082 C 491.56 4.40092 -0.0268823 0
M  V30 5083 H 488.679 0.722146 -0.14722 0
M  V30 5084 H 491.321 1.59847 -1.02707 0
M  V30 5085 H 489.471 3.8845 -0.0625779 0
M  V30 5086 H 491.143 3.76216 -2.66945 0
M  V30 5087 H 489.386 3.49726 -2.56659 0
M  V30 5088 H 490.057 5.07971 -2.1603 0
M  V30 5089 H 492.533 4.13298 -0.482042 0
M  V30 5090 H 491.409 5.48562 -0.19267 0
M  V30 5091 H 491.67 4.29016 1.06759 0
M  V30 5092 N 490.729 0.570148 1.46925 0
M  V30 5093 C 491.692 -0.159933 2.28641 0
M  V30 5094 C 492.692 -0.830638 1.37685 0
M  V30 5095 O 493.882 -0.684516 1.60187 0
M  V30 5096 C 491.014 -1.2354 3.17727 0
M  V30 5097 H 492.207 0.558035 2.94662 0
M  V30 5098 H 489.76 0.327603 1.52828 0
M  V30 5099 H 490.495 -1.98535 2.56426 0
M  V30 5100 H 490.28 -0.759125 3.84681 0
M  V30 5101 H 491.77 -1.74782 3.79264 0
M  V30 5102 N 492.207 -1.54576 0.307264 0
M  V30 5103 C 493.623 -1.59534 -0.0459251 0
M  V30 5104 C 493.823 -1.32414 -1.51884 0
M  V30 5105 O 492.879 -1.1006 -2.27251 0
M  V30 5106 C 494.192 -2.98566 0.357649 0
M  V30 5107 C 495.74 -3.11491 0.306937 0
M  V30 5108 C 496.215 -4.52842 0.685427 0
M  V30 5109 N 497.706 -4.58782 0.638203 0
M  V30 5110 C 498.441 -5.66238 0.903458 0
M  V30 5111 N 497.937 -6.81703 1.23501 0
M  V30 5112 N 499.73 -5.55937 0.830102 0
M  V30 5113 H 491.881 -1.70464 1.26712 0
M  V30 5114 H 494.144 -0.79647 0.514139 0
M  V30 5115 H 493.85 -3.23356 1.38325 0
M  V30 5116 H 493.724 -3.76117 -0.285565 0
M  V30 5117 H 496.111 -2.86446 -0.709424 0
M  V30 5118 H 496.192 -2.36081 0.984861 0
M  V30 5119 H 495.836 -4.78618 1.69963 0
M  V30 5120 H 495.766 -5.26598 -0.0146346 0
M  V30 5121 H 498.257 -3.75849 0.393138 0
M  V30 5122 H 498.57 -7.59582 1.42322 0
M  V30 5123 H 496.915 -6.8324 1.27311 0
M  V30 5124 H 500.106 -4.64608 0.570693 0
M  V30 5125 H 500.279 -6.39597 1.04019 0
M  V30 5126 N 493.685 -0.035106 -1.57561 0
M  V30 5127 C 494.595 0.960295 -2.14046 0
M  V30 5128 C 495.611 1.3529 -1.0942 0
M  V30 5129 O 496.787 1.43309 -1.41508 0
M  V30 5130 C 493.852 2.22214 -2.66124 0
M  V30 5131 C 492.913 1.8894 -3.85487 0
M  V30 5132 C 492.146 3.09109 -4.35072 0
M  V30 5133 O 492.369 4.21963 -3.83802 0
M  V30 5134 O 491.303 2.91058 -5.26848 0
M  V30 5135 H 495.129 0.509983 -2.99387 0
M  V30 5136 H 492.714 0.185853 -1.48239 0
M  V30 5137 H 494.596 2.96279 -2.99661 0
M  V30 5138 H 493.271 2.66414 -1.83862 0
M  V30 5139 H 492.178 1.12241 -3.56865 0
M  V30 5140 H 493.511 1.49551 -4.6893 0
M  V30 5141 N 495.163 1.55791 0.238111 0
M  V30 5142 C 496.393 1.81834 0.980809 0
M  V30 5143 C 496.801 0.609741 1.79106 0
M  V30 5144 O 496.144 -0.431073 1.78571 0
M  V30 5145 C 496.206 3.01363 1.96011 0
M  V30 5146 C 495.87 4.37037 1.33597 0
M  V30 5147 C 496.867 5.14692 0.734063 0
M  V30 5148 C 494.552 4.83743 1.3527 0
M  V30 5149 C 496.546 6.37206 0.157208 0
M  V30 5150 C 494.233 6.06204 0.77199 0
M  V30 5151 C 495.231 6.82775 0.175282 0
M  V30 5152 O 494.919 8.02922 -0.396432 0
M  V30 5153 H 494.651 0.6088 0.293834 0
M  V30 5154 H 497.205 2.03702 0.263552 0
M  V30 5155 H 495.435 2.75273 2.71591 0
M  V30 5156 H 497.124 3.14422 2.56697 0
M  V30 5157 H 497.89 4.79722 0.713582 0
M  V30 5158 H 493.769 4.24129 1.80653 0
M  V30 5159 H 497.313 6.96915 -0.30917 0
M  V30 5160 H 493.21 6.4065 0.789828 0
M  V30 5161 H 493.978 8.17989 -0.289145 0
M  V30 5162 N 496.642 -0.504142 1.49319 0
M  V30 5163 C 497.89 -1.25598 1.58334 0
M  V30 5164 C 498.211 -1.93114 0.270538 0
M  V30 5165 O 497.481 -1.82585 -0.709891 0
M  V30 5166 H 496.061 -0.466571 0.58337 0
M  V30 5167 H 498.723 -0.584547 1.85928 0
M  V30 5168 H 497.819 -2.02159 2.37778 0
M  V30 5169 N 498.12 -1.38341 -0.754957 0
M  V30 5170 C 499.067 -1.3546 -1.86867 0
M  V30 5171 C 500.037 -0.217369 -1.64672 0
M  V30 5172 O 501.222 -0.409383 -1.86356 0
M  V30 5173 C 498.362 -1.18413 -3.24149 0
M  V30 5174 C 497.475 -2.41511 -3.58185 0
M  V30 5175 C 496.61 -2.17205 -4.84763 0
M  V30 5176 C 495.649 -3.36081 -5.11582 0
M  V30 5177 N 494.786 -3.11219 -6.29354 0
M  V30 5178 H 499.626 -2.30672 -1.88664 0
M  V30 5179 H 497.163 -1.14607 -0.922154 0
M  V30 5180 H 499.121 -1.06545 -4.03366 0
M  V30 5181 H 497.751 -0.268397 -3.21682 0
M  V30 5182 H 496.803 -2.64056 -2.73822 0
M  V30 5183 H 498.115 -3.30115 -3.73932 0
M  V30 5184 H 497.269 -2.02465 -5.7192 0
M  V30 5185 H 496.008 -1.25964 -4.71152 0
M  V30 5186 H 495.013 -3.51341 -4.22894 0
M  V30 5187 H 496.238 -4.28196 -5.27091 0
M  V30 5188 H 494.184 -2.22624 -6.17069 0
M  V30 5189 H 494.101 -3.93373 -6.45596 0
M  V30 5190 H 495.369 -3.00132 -7.19403 0
M  V30 5191 N 499.598 0.982988 -1.23187 0
M  V30 5192 C 500.826 1.75921 -1.08901 0
M  V30 5193 C 501.241 1.85341 0.359719 0
M  V30 5194 O 500.598 1.33072 1.24892 0
M  V30 5195 C 500.649 3.18742 -1.70545 0
M  V30 5196 O 500.37 3.09814 -3.09753 0
M  V30 5197 C 501.871 4.1277 -1.61667 0
M  V30 5198 H 499.091 0.552166 -0.381252 0
M  V30 5199 H 501.635 1.23516 -1.62985 0
M  V30 5200 H 499.79 3.68182 -1.20501 0
M  V30 5201 H 500.204 3.99703 -3.39614 0
M  V30 5202 H 501.678 5.10697 -2.09506 0
M  V30 5203 H 502.155 4.3542 -0.575009 0
M  V30 5204 H 502.761 3.69232 -2.11064 0
M  V30 5205 N 501.076 1.04316 1.18135 0
M  V30 5206 C 502.325 0.74319 1.87509 0
M  V30 5207 C 502.638 -0.732136 1.81381 0
M  V30 5208 O 503.844 -1.14572 2.46141 0
M  V30 5209 C 502.3 1.27913 3.36402 0
M  V30 5210 C 501.908 2.78326 3.51053 0
M  V30 5211 C 503.652 1.0558 4.11161 0
M  V30 5212 C 501.559 3.25266 4.93919 0
M  V30 5213 H 500.489 0.274313 0.702331 0
M  V30 5214 H 503.14 1.25931 1.33467 0
M  V30 5215 H 501.522 0.690853 3.89927 0
M  V30 5216 H 502.696 3.42933 3.07788 0
M  V30 5217 H 501.011 2.991 2.89704 0
M  V30 5218 H 503.608 1.38161 5.16542 0
M  V30 5219 H 503.951 -0.00684729 4.16299 0
M  V30 5220 H 504.484 1.60882 3.63816 0
M  V30 5221 H 501.223 4.30922 4.9395 0
M  V30 5222 H 500.743 2.65396 5.3789 0
M  V30 5223 H 502.422 3.19433 5.62647 0
M  V30 5224 N 502.554 -1.34406 0.822964 0
M  V30 5225 C 503.803 -1.97542 0.407458 0
M  V30 5226 C 504.116 -1.65973 -1.035 0
M  V30 5227 O 505.322 -2.22598 -1.55442 0
M  V30 5228 C 503.778 -3.53463 0.677623 0
M  V30 5229 C 503.386 -3.93925 2.1337 0
M  V30 5230 C 505.13 -4.23229 0.328284 0
M  V30 5231 C 503.037 -5.42759 2.34876 0
M  V30 5232 H 501.967 -0.739207 0.148623 0
M  V30 5233 H 504.618 -1.53248 1.00932 0
M  V30 5234 H 503 -3.96 0.00558965 0
M  V30 5235 H 504.174 -3.62494 2.8449 0
M  V30 5236 H 502.489 -3.37097 2.44448 0
M  V30 5237 H 505.086 -5.32659 0.466794 0
M  V30 5238 H 505.429 -4.09899 -0.727224 0
M  V30 5239 H 505.962 -3.86169 0.954896 0
M  V30 5240 H 502.701 -5.61075 3.38932 0
M  V30 5241 H 502.221 -5.75704 1.68299 0
M  V30 5242 H 503.9 -6.0944 2.17236 0
M  V30 5243 N 504.032 -0.577932 -1.46621 0
M  V30 5244 C 504.995 0.147805 -2.28723 0
M  V30 5245 C 505.995 0.823325 -1.38123 0
M  V30 5246 O 507.185 0.676011 -1.60548 0
M  V30 5247 C 504.317 1.21853 -3.18378 0
M  V30 5248 H 505.51 -0.573654 -2.94362 0
M  V30 5249 H 503.063 -0.335703 -1.52652 0
M  V30 5250 H 503.798 1.97173 -2.57475 0
M  V30 5251 H 503.583 0.738714 -3.85078 0
M  V30 5252 H 505.073 1.72768 -3.80186 0
M  V30 5253 N 505.51 1.54411 -0.315457 0
M  V30 5254 C 506.787 1.92562 0.343398 0
M  V30 5255 C 507.167 1.24423 1.70535 0
M  V30 5256 O 506.515 0.385051 2.25232 0
M  V30 5257 C 506.725 3.46168 0.443687 0
M  V30 5258 C 508.073 4.18659 0.707783 0
M  V30 5259 O 509.097 3.52281 0.52693 0
M  V30 5260 O 507.956 5.36198 1.05612 0
M  V30 5261 H 505.05 0.80379 0.194552 0
M  V30 5262 H 507.596 1.65738 -0.364577 0
M  V30 5263 H 506.368 3.8792 -0.513172 0
M  V30 5264 H 505.991 3.79073 1.19956 0
M  V30 5265 N 506.988 0.0434614 1.5754 0
M  V30 5266 C 508.236 -0.630786 1.92004 0
M  V30 5267 C 508.557 -1.71836 0.921807 0
M  V30 5268 O 507.827 -1.9587 -0.034522 0
M  V30 5269 H 506.407 -0.235988 0.708745 0
M  V30 5270 H 509.069 0.0946462 1.9467 0
M  V30 5271 H 508.165 -1.07434 2.93026 0
M  V30 5272 N 508.466 -1.55915 -0.229846 0
M  V30 5273 C 509.714 -1.7819 -0.953565 0
M  V30 5274 C 510.035 -0.610504 -1.85197 0
M  V30 5275 O 509.305 0.372988 -1.92316 0
M  V30 5276 H 507.885 -0.657208 -0.355087 0
M  V30 5277 H 510.547 -1.9337 -0.243693 0
M  V30 5278 H 509.643 -2.70011 -1.56527 0
M  V30 5279 N 509.944 0.496216 -1.49584 0
M  V30 5280 C 511.193 1.24668 -1.58558 0
M  V30 5281 C 511.506 1.9359 -0.279703 0
M  V30 5282 O 512.712 2.70365 -0.248048 0
M  V30 5283 C 511.168 2.26388 -2.79779 0
M  V30 5284 C 510.776 1.63384 -4.17145 0
M  V30 5285 C 512.52 3.02233 -2.98086 0
M  V30 5286 C 510.427 2.63243 -5.29582 0
M  V30 5287 H 509.357 0.468995 -0.590389 0
M  V30 5288 H 512.008 0.519985 -1.75978 0
M  V30 5289 H 510.39 3.02241 -2.55863 0
M  V30 5290 H 511.564 0.93491 -4.51216 0
M  V30 5291 H 509.879 0.999121 -4.04236 0
M  V30 5292 H 512.476 3.76919 -3.79257 0
M  V30 5293 H 512.819 3.60132 -2.08831 0
M  V30 5294 H 513.352 2.33495 -3.22063 0
M  V30 5295 H 510.091 2.10119 -6.20911 0
M  V30 5296 H 509.611 3.31363 -4.99959 0
M  V30 5297 H 511.29 3.25575 -5.59115 0
M  V30 5298 N 511.423 1.38739 0.74761 0
M  V30 5299 C 512.37 1.36449 1.86146 0
M  V30 5300 C 513.34 0.226098 1.64554 0
M  V30 5301 O 514.525 0.41926 1.86137 0
M  V30 5302 C 511.665 1.2013 3.23516 0
M  V30 5303 C 510.778 2.43407 3.56899 0
M  V30 5304 C 509.913 2.19773 4.83605 0
M  V30 5305 C 508.952 3.3879 5.09792 0
M  V30 5306 N 508.089 3.14553 6.27695 0
M  V30 5307 H 512.929 2.3167 1.87438 0
M  V30 5308 H 510.466 1.15094 0.916063 0
M  V30 5309 H 512.424 1.08683 4.02795 0
M  V30 5310 H 511.054 0.285453 3.21535 0
M  V30 5311 H 510.106 2.65504 2.72418 0
M  V30 5312 H 511.418 3.32094 3.72176 0
M  V30 5313 H 510.572 2.05496 5.70838 0
M  V30 5314 H 509.311 1.28461 4.70478 0
M  V30 5315 H 508.316 3.53579 4.21025 0
M  V30 5316 H 509.541 4.30986 5.24812 0
M  V30 5317 H 507.487 2.25893 6.1588 0
M  V30 5318 H 507.404 3.96791 6.435 0
M  V30 5319 H 508.672 3.03943 7.17801 0
M  V30 5320 N 512.901 -0.976442 1.23707 0
M  V30 5321 C 514.131 -1.75087 1.09673 0
M  V30 5322 C 514.539 -1.85852 -0.354344 0
M  V30 5323 O 513.882 -1.33985 -1.25673 0
M  V30 5324 C 513.944 -3.19272 1.65245 0
M  V30 5325 C 513.608 -3.32004 3.14042 0
M  V30 5326 C 514.605 -3.18017 4.11292 0
M  V30 5327 C 512.29 -3.56525 3.53829 0
M  V30 5328 C 514.284 -3.28363 5.46312 0
M  V30 5329 C 511.971 -3.6651 4.88993 0
M  V30 5330 C 512.969 -3.52439 5.85043 0
M  V30 5331 O 512.657 -3.62063 7.1775 0
M  V30 5332 H 512.389 -0.556164 0.384262 0
M  V30 5333 H 514.943 -1.23518 1.64111 0
M  V30 5334 H 513.173 -3.72107 1.05231 0
M  V30 5335 H 514.862 -3.7849 1.46629 0
M  V30 5336 H 515.628 -2.98966 3.81896 0
M  V30 5337 H 511.507 -3.66547 2.79579 0
M  V30 5338 H 515.051 -3.17297 6.21263 0
M  V30 5339 H 510.948 -3.85072 5.18063 0
M  V30 5340 H 511.716 -3.78833 7.25553 0
M  V30 5341 N 514.379 -1.04941 -1.1758 0
M  V30 5342 C 515.604 -0.778253 -1.92245 0
M  V30 5343 C 516.029 0.659707 -1.76152 0
M  V30 5344 O 515.387 1.45803 -1.07755 0
M  V30 5345 C 515.435 -1.16051 -3.41416 0
M  V30 5346 O 514.539 -0.291153 -4.11371 0
M  V30 5347 H 513.88 -0.285619 -0.599431 0
M  V30 5348 H 516.41 -1.40159 -1.49052 0
M  V30 5349 H 516.42 -1.12619 -3.92149 0
M  V30 5350 H 515.095 -2.208 -3.52449 0
M  V30 5351 H 513.672 -0.385851 -3.70898 0
M  V30 5352 N 515.857 1.33968 -0.830081 0
M  V30 5353 C 517.105 1.97672 -0.420734 0
M  V30 5354 C 517.426 1.66111 1.02138 0
M  V30 5355 O 516.696 0.955503 1.71017 0
M  V30 5356 H 515.276 0.73125 -0.152587 0
M  V30 5357 H 517.938 1.63483 -1.0611 0
M  V30 5358 H 517.034 3.07294 -0.545588 0
M  V30 5359 N 517.335 0.585699 1.46312 0
M  V30 5360 C 518.612 0.00542031 1.95599 0
M  V30 5361 C 518.992 -1.45619 1.52834 0
M  V30 5362 O 518.34 -2.14759 0.780446 0
M  V30 5363 C 518.55 0.180601 3.48532 0
M  V30 5364 C 519.898 0.049979 4.24571 0
M  V30 5365 O 520.922 0.109589 3.56031 0
M  V30 5366 O 519.781 -0.0832226 5.46437 0
M  V30 5367 H 516.875 -0.0481281 0.825598 0
M  V30 5368 H 519.421 0.654227 1.56582 0
M  V30 5369 H 518.193 1.19657 3.72556 0
M  V30 5370 H 517.816 -0.504498 3.94386 0
M  V30 5371 N 518.813 -1.54241 0.323641 0
M  V30 5372 C 520.062 -1.9975 -0.279806 0
M  V30 5373 C 520.375 -1.2156 -1.5324 0
M  V30 5374 O 521.581 -1.57447 -2.21185 0
M  V30 5375 C 520.037 -3.55686 -0.549115 0
M  V30 5376 C 519.645 -4.4271 0.686432 0
M  V30 5377 C 521.389 -4.09663 -1.11251 0
M  V30 5378 C 519.296 -5.90119 0.389022 0
M  V30 5379 H 518.226 -0.746177 -0.10833 0
M  V30 5380 H 520.877 -1.78248 0.435877 0
M  V30 5381 H 519.259 -3.73176 -1.32499 0
M  V30 5382 H 520.433 -4.36996 1.46188 0
M  V30 5383 H 518.748 -3.99623 1.17005 0
M  V30 5384 H 521.345 -5.17386 -1.34965 0
M  V30 5385 H 521.688 -3.61651 -2.06191 0
M  V30 5386 H 522.221 -3.95806 -0.39782 0
M  V30 5387 H 518.96 -6.42326 1.30759 0
M  V30 5388 H 518.48 -5.98785 -0.348722 0
M  V30 5389 H 520.159 -6.47 -0.0011164 0
M  V30 5390 N 520.291 -0.0518155 -1.57515 0
M  V30 5391 C 521.537 0.622745 -1.93002 0
M  V30 5392 C 521.87 1.70456 -0.930499 0
M  V30 5393 O 521.145 1.94452 0.0434086 0
M  V30 5394 C 521.428 1.21824 -3.38867 0
M  V30 5395 C 521.281 0.144434 -4.49568 0
M  V30 5396 C 522.6 2.12968 -3.8514 0
M  V30 5397 H 519.719 0.22491 -0.701844 0
M  V30 5398 H 522.361 -0.113711 -1.89659 0
M  V30 5399 H 520.511 1.8459 -3.41846 0
M  V30 5400 H 522.183 -0.48753 -4.58717 0
M  V30 5401 H 520.426 -0.527424 -4.30582 0
M  V30 5402 H 521.097 0.601127 -5.48717 0
M  V30 5403 H 523.573 1.60163 -3.8404 0
M  V30 5404 H 522.449 2.51578 -4.87852 0
M  V30 5405 H 522.71 3.03004 -3.21934 0
M  V30 5406 N 521.769 1.56035 0.221574 0
M  V30 5407 C 522.716 1.92413 1.27459 0
M  V30 5408 C 523.686 0.781323 1.46576 0
M  V30 5409 O 524.871 1.03721 1.60145 0
M  V30 5410 C 522.011 2.24617 2.61995 0
M  V30 5411 C 521.124 3.51831 2.50677 0
M  V30 5412 C 520.259 3.73482 3.77736 0
M  V30 5413 C 519.298 4.94211 3.6114 0
M  V30 5414 N 518.435 5.12252 4.80148 0
M  V30 5415 H 523.275 2.82203 0.957355 0
M  V30 5416 H 520.812 1.39676 0.461415 0
M  V30 5417 H 522.77 2.41298 3.40339 0
M  V30 5418 H 521.4 1.38 2.91815 0
M  V30 5419 H 520.452 3.43343 1.63767 0
M  V30 5420 H 521.764 4.40328 2.34334 0
M  V30 5421 H 520.918 3.9026 4.64523 0
M  V30 5422 H 519.657 2.83266 3.97003 0
M  V30 5423 H 518.662 4.77384 2.72736 0
M  V30 5424 H 519.887 5.85912 3.43343 0
M  V30 5425 H 517.833 4.24978 4.99729 0
M  V30 5426 H 517.75 5.94881 4.66532 0
M  V30 5427 H 519.018 5.33465 5.68362 0
M  V30 5428 N 523.247 -0.488276 1.49845 0
M  V30 5429 C 524.21 -1.57069 1.66919 0
M  V30 5430 C 525.21 -1.51445 0.540479 0
M  V30 5431 O 526.4 -1.5437 0.807188 0
M  V30 5432 C 523.532 -2.96718 1.67844 0
M  V30 5433 H 524.725 -1.43254 2.63474 0
M  V30 5434 H 522.278 -0.713435 1.39068 0
M  V30 5435 H 523.013 -3.15996 0.7292 0
M  V30 5436 H 522.798 -3.02208 2.49826 0
M  V30 5437 H 524.288 -3.75335 1.83066 0
M  V30 5438 N 524.725 -1.39134 -0.740242 0
M  V30 5439 C 525.655 -1.40165 -1.86751 0
M  V30 5440 C 526.636 -0.265708 -1.68012 0
M  V30 5441 O 527.821 -0.47076 -1.88408 0
M  V30 5442 C 524.951 -1.2392 -3.2444 0
M  V30 5443 C 523.905 -2.34858 -3.57807 0
M  V30 5444 C 523.231 -2.03707 -4.94376 0
M  V30 5445 C 524.531 -3.77159 -3.61315 0
M  V30 5446 H 526.225 -2.345 -1.86145 0
M  V30 5447 H 523.771 -1.12875 -0.89416 0
M  V30 5448 H 525.724 -1.23263 -4.02969 0
M  V30 5449 H 524.448 -0.26051 -3.25559 0
M  V30 5450 H 523.107 -2.34723 -2.81604 0
M  V30 5451 H 522.755 -1.04289 -4.9207 0
M  V30 5452 H 522.455 -2.78016 -5.17669 0
M  V30 5453 H 523.979 -2.04691 -5.75268 0
M  V30 5454 H 525.393 -3.79252 -4.29931 0
M  V30 5455 H 523.79 -4.50784 -3.96124 0
M  V30 5456 H 524.86 -4.08513 -2.61238 0
M  V30 5457 N 526.204 0.969867 -1.24223 0
M  V30 5458 C 527.167 2.04564 -1.03373 0
M  V30 5459 C 528.167 1.60798 0.00819206 0
M  V30 5460 O 529.357 1.72641 -0.232567 0
M  V30 5461 C 526.489 3.36163 -0.566343 0
M  V30 5462 H 527.682 2.24494 -1.98853 0
M  V30 5463 H 525.235 1.1448 -1.06415 0
M  V30 5464 H 525.97 3.21925 0.391751 0
M  V30 5465 H 525.755 3.69273 -1.31834 0
M  V30 5466 H 527.245 4.1526 -0.441435 0
M  V30 5467 N 527.682 1.05563 1.17022 0
M  V30 5468 C 528.645 0.664098 2.19368 0
M  V30 5469 C 529.645 -0.286358 1.5823 0
M  V30 5470 O 530.835 -0.069728 1.7406 0
M  V30 5471 C 527.967 -0.0239932 3.40892 0
M  V30 5472 H 529.16 1.57 2.55521 0
M  V30 5473 H 526.713 0.849964 1.31169 0
M  V30 5474 H 527.448 -0.942988 3.10287 0
M  V30 5475 H 527.233 0.659351 3.86516 0
M  V30 5476 H 528.723 -0.283909 4.16634 0
M  V30 5477 N 529.16 -1.33526 0.837174 0
M  V30 5478 C 530.408 -1.97446 0.431211 0
M  V30 5479 C 530.729 -1.6665 -1.01255 0
M  V30 5480 O 529.999 -0.964559 -1.70508 0
M  V30 5481 H 528.579 -0.73043 0.156463 0
M  V30 5482 H 531.241 -1.62918 1.06976 0
M  V30 5483 H 530.337 -3.07001 0.561877 0
M  V30 5484 N 530.638 -0.59345 -1.46 0
M  V30 5485 C 531.886 -0.082988 -2.0193 0
M  V30 5486 C 532.207 1.28569 -1.46612 0
M  V30 5487 O 531.477 1.84629 -0.654909 0
M  V30 5488 H 530.057 -0.0276882 -0.746487 0
M  V30 5489 H 532.719 -0.771657 -1.78973 0
M  V30 5490 H 531.815 -0.022079 -3.12092 0
M  V30 5491 N 532.116 1.54067 -0.331816 0
M  V30 5492 C 533.064 2.26105 0.54582 0
M  V30 5493 C 534.058 1.27816 1.11173 0
M  V30 5494 O 535.264 1.45565 1.05882 0
M  V30 5495 H 531.639 0.726363 0.194683 0
M  V30 5496 H 533.61 2.98282 -0.083931 0
M  V30 5497 C 532.359 3.03814 1.69092 0
M  V30 5498 H 531.682 3.79269 1.26473 0
M  V30 5499 H 533.122 3.57453 2.28043 0
M  V30 5500 C 531.581 2.12606 2.61343 0
M  V30 5501 O 532.111 1.71437 3.6328 0
M  V30 5502 N 530.317 1.77925 2.29763 0
M  V30 5503 H 529.864 2.11602 1.46909 0
M  V30 5504 H 529.822 1.1718 2.91747 0
M  V30 5505 N 533.594 0.0601682 1.57485 0
M  V30 5506 C 534.557 -0.896373 2.10945 0
M  V30 5507 C 535.557 -1.23402 1.03095 0
M  V30 5508 O 536.747 -1.16921 1.29132 0
M  V30 5509 C 533.879 -2.20346 2.60116 0
M  V30 5510 H 535.072 -0.432778 2.96761 0
M  V30 5511 H 532.625 -0.188372 1.55161 0
M  V30 5512 H 533.36 -2.71268 1.7772 0
M  V30 5513 H 533.145 -1.9714 3.38937 0
M  V30 5514 H 534.635 -2.88846 3.01592 0
M  V30 5515 N 535.072 -1.5615 -0.213296 0
M  V30 5516 C 536.318 -1.79812 -0.937849 0
M  V30 5517 C 536.651 -0.631201 -1.83656 0
M  V30 5518 O 535.926 0.369165 -1.90964 0
M  V30 5519 C 536.209 -3.13613 -1.76972 0
M  V30 5520 C 536.062 -4.40766 -0.89695 0
M  V30 5521 C 537.381 -3.43931 -2.7459 0
M  V30 5522 H 534.5 -0.654138 -0.339518 0
M  V30 5523 H 537.142 -1.88877 -0.20623 0
M  V30 5524 H 535.292 -3.06015 -2.39347 0
M  V30 5525 H 536.964 -4.60392 -0.289306 0
M  V30 5526 H 535.207 -4.33326 -0.202756 0
M  V30 5527 H 535.878 -5.30843 -1.51358 0
M  V30 5528 H 538.354 -3.5171 -2.22349 0
M  V30 5529 H 537.23 -4.38706 -3.29891 0
M  V30 5530 H 537.491 -2.6651 -3.52739 0
M  V30 5531 N 536.55 0.480323 -1.50102 0
M  V30 5532 C 537.483 1.59789 -1.62919 0
M  V30 5533 C 538.461 1.55429 -0.477557 0
M  V30 5534 O 539.645 1.75186 -0.695851 0
M  V30 5535 C 536.772 2.98351 -1.60325 0
M  V30 5536 C 535.818 3.20899 -2.80938 0
M  V30 5537 S 536.651 3.01791 -4.4236 0
M  V30 5538 C 537.807 4.42712 -4.42444 0
M  V30 5539 H 538.04 1.48676 -2.57454 0
M  V30 5540 H 535.573 0.666996 -1.3925 0
M  V30 5541 H 537.531 3.7824 -1.59514 0
M  V30 5542 H 536.192 3.06862 -0.670419 0
M  V30 5543 H 535.385 4.22102 -2.75401 0
M  V30 5544 H 534.987 2.48768 -2.79268 0
M  V30 5545 H 537.279 5.3518 -4.15438 0
M  V30 5546 H 538.222 4.53294 -5.43995 0
M  V30 5547 H 538.63 4.24359 -3.72263 0
M  V30 5548 N 538.028 1.39524 0.732853 0
M  V30 5549 C 538.958 1.41153 1.86005 0
M  V30 5550 C 539.939 0.274614 1.67869 0
M  V30 5551 O 541.124 0.480745 1.88155 0
M  V30 5552 C 538.254 1.25638 3.23778 0
M  V30 5553 C 537.208 2.36752 3.56556 0
M  V30 5554 C 536.534 2.06326 4.93289 0
M  V30 5555 C 537.834 3.79069 3.5931 0
M  V30 5556 H 539.528 2.35484 1.84899 0
M  V30 5557 H 537.074 1.13348 0.888162 0
M  V30 5558 H 539.027 1.25398 4.0231 0
M  V30 5559 H 537.751 0.277772 3.25417 0
M  V30 5560 H 536.41 2.36213 2.80355 0
M  V30 5561 H 536.058 1.06897 4.9151 0
M  V30 5562 H 535.758 2.80757 5.16187 0
M  V30 5563 H 537.282 2.07739 5.74175 0
M  V30 5564 H 538.696 3.81526 4.27914 0
M  V30 5565 H 537.093 4.52878 3.93728 0
M  V30 5566 H 538.163 4.09893 2.59068 0
M  V30 5567 N 539.506 -0.963266 1.24736 0
M  V30 5568 C 540.754 -1.70343 1.08755 0
M  V30 5569 C 541.075 -1.91387 -0.373619 0
M  V30 5570 O 540.345 -1.4948 -1.2662 0
M  V30 5571 H 538.925 -0.631224 0.399456 0
M  V30 5572 H 541.587 -1.15859 1.56725 0
M  V30 5573 H 540.683 -2.68616 1.58909 0
M  V30 5574 N 540.985 -1.06182 -1.16461 0
M  V30 5575 C 542.21 -0.798599 -1.91408 0
M  V30 5576 C 542.635 0.640987 -1.76842 0
M  V30 5577 O 541.993 1.44652 -1.09296 0
M  V30 5578 C 542.041 -1.19665 -3.40165 0
M  V30 5579 O 541.145 -0.334768 -4.11039 0
M  V30 5580 H 540.486 -0.291961 -0.596368 0
M  V30 5581 H 543.016 -1.41732 -1.47557 0
M  V30 5582 H 543.026 -1.16772 -3.90933 0
M  V30 5583 H 541.701 -2.24526 -3.50087 0
M  V30 5584 H 540.278 -0.425168 -3.70468 0
M  V30 5585 N 542.463 1.3308 -0.844243 0
M  V30 5586 C 543.396 2.27075 -0.226279 0
M  V30 5587 C 544.374 1.49911 0.629716 0
M  V30 5588 O 545.558 1.79068 0.588803 0
M  V30 5589 C 542.685 3.31767 0.681782 0
M  V30 5590 C 541.731 4.26384 -0.0994565 0
M  V30 5591 S 542.564 5.15186 -1.46094 0
M  V30 5592 C 543.72 6.23405 -0.558319 0
M  V30 5593 H 543.953 2.79141 -1.02312 0
M  V30 5594 H 541.486 1.40452 -0.641292 0
M  V30 5595 H 543.444 3.92566 1.20008 0
M  V30 5596 H 542.105 2.78507 1.45234 0
M  V30 5597 H 541.298 5.00514 0.591733 0
M  V30 5598 H 540.9 3.69949 -0.548991 0
M  V30 5599 H 543.192 6.77069 0.241672 0
M  V30 5600 H 544.135 6.96619 -1.26995 0
M  V30 5601 H 544.543 5.64333 -0.13728 0
M  V30 5602 N 543.941 0.601185 1.45683 0
M  V30 5603 C 545.188 0.0938811 2.02282 0
M  V30 5604 C 545.516 -1.27315 1.47041 0
M  V30 5605 O 544.771 -1.85193 0.632623 0
M  V30 5606 C 545.07 -0.00222425 3.574 0
M  V30 5607 C 544.736 1.29963 4.31764 0
M  V30 5608 C 543.398 1.65625 4.51798 0
M  V30 5609 C 545.75 2.1603 4.74321 0
M  V30 5610 C 543.078 2.87119 5.11644 0
M  V30 5611 C 545.43 3.36766 5.3551 0
M  V30 5612 C 544.094 3.72689 5.53768 0
M  V30 5613 H 543.364 0.0343535 0.740203 0
M  V30 5614 H 546.011 0.781522 1.74827 0
M  V30 5615 H 544.316 -0.773096 3.84097 0
M  V30 5616 H 546.013 -0.410794 3.9889 0
M  V30 5617 H 542.603 1.01204 4.1648 0
M  V30 5618 H 546.787 1.89778 4.58582 0
M  V30 5619 H 542.043 3.15065 5.2397 0
M  V30 5620 H 546.217 4.03713 5.67441 0
M  V30 5621 H 543.844 4.66918 5.99909 0
M  V30 5622 N 545.419 -1.53889 0.339982 0
M  V30 5623 C 546.382 -2.23547 -0.50592 0
M  V30 5624 C 547.382 -1.23445 -1.03044 0
M  V30 5625 O 548.572 -1.47909 -0.920253 0
M  V30 5626 C 545.704 -2.95234 -1.7044 0
M  V30 5627 H 546.897 -2.99722 0.103247 0
M  V30 5628 H 544.45 -1.56033 0.0912804 0
M  V30 5629 H 545.185 -2.23236 -2.35236 0
M  V30 5630 H 544.97 -3.68654 -1.33553 0
M  V30 5631 H 546.46 -3.48258 -2.30447 0
M  V30 5632 N 546.897 -0.0685191 -1.57451 0
M  V30 5633 C 548.145 0.60016 -1.92983 0
M  V30 5634 C 548.466 1.70348 -0.949028 0
M  V30 5635 O 547.736 1.959 0.00335647 0
M  V30 5636 H 546.316 0.224682 -0.712409 0
M  V30 5637 H 548.978 -0.125605 -1.94495 0
M  V30 5638 H 548.074 1.02759 -2.94698 0
M  V30 5639 N 548.375 1.56261 0.205012 0
M  V30 5640 C 549.603 1.84141 0.943386 0
M  V30 5641 C 550.018 0.649772 1.77266 0
M  V30 5642 O 549.375 -0.381612 1.78466 0
M  V30 5643 C 549.426 3.10719 1.84759 0
M  V30 5644 O 549.147 4.25286 1.05181 0
M  V30 5645 C 550.648 3.51706 2.69848 0
M  V30 5646 H 547.868 0.611734 0.275721 0
M  V30 5647 H 550.412 2.03364 0.215253 0
M  V30 5648 H 548.567 2.93422 2.52947 0
M  V30 5649 H 548.981 4.97301 1.66709 0
M  V30 5650 H 550.455 4.43266 3.28967 0
M  V30 5651 H 550.932 2.7423 3.43067 0
M  V30 5652 H 551.538 3.71499 2.07047 0
M  V30 5653 N 549.853 -0.472356 1.50355 0
M  V30 5654 C 551.13 -1.23356 1.51798 0
M  V30 5655 C 551.51 -2.09469 0.26193 0
M  V30 5656 O 550.858 -2.15677 -0.754691 0
M  V30 5657 C 551.068 -2.06568 2.81302 0
M  V30 5658 C 552.416 -2.648 3.31913 0
M  V30 5659 O 553.44 -2.16812 2.82614 0
M  V30 5660 O 552.299 -3.52231 4.17846 0
M  V30 5661 H 549.393 -0.559707 0.608816 0
M  V30 5662 H 551.939 -0.48428 1.62643 0
M  V30 5663 H 550.711 -1.43103 3.64194 0
M  V30 5664 H 550.334 -2.88633 2.73454 0
M  V30 5665 N 551.331 -1.39911 -0.725443 0
M  V30 5666 C 552.241 -1.41688 -1.8698 0
M  V30 5667 C 553.257 -0.310579 -1.71206 0
M  V30 5668 O 554.433 -0.55359 -1.93642 0
M  V30 5669 C 551.498 -1.26811 -3.22676 0
M  V30 5670 C 550.559 -2.47497 -3.50776 0
M  V30 5671 C 549.792 -2.3332 -4.79997 0
M  V30 5672 O 550.015 -1.34175 -5.54394 0
M  V30 5673 O 548.949 -3.22498 -5.08211 0
M  V30 5674 H 552.775 -2.38171 -1.88436 0
M  V30 5675 H 550.36 -1.21128 -0.874548 0
M  V30 5676 H 552.242 -1.20684 -4.03749 0
M  V30 5677 H 550.917 -0.334289 -3.21969 0
M  V30 5678 H 549.824 -2.59201 -2.69751 0
M  V30 5679 H 551.157 -3.39606 -3.5627 0
M  V30 5680 N 552.809 0.956637 -1.25245 0
M  V30 5681 C 553.772 2.03457 -1.05537 0
M  V30 5682 C 554.772 1.60798 -0.00886317 0
M  V30 5683 O 555.962 1.72384 -0.250865 0
M  V30 5684 C 553.094 3.35543 -0.601965 0
M  V30 5685 H 554.287 2.22372 -2.01223 0
M  V30 5686 H 551.84 1.13344 -1.07623 0
M  V30 5687 H 552.575 3.22323 0.357584 0
M  V30 5688 H 552.36 3.67854 -1.35743 0
M  V30 5689 H 553.85 4.14769 -0.485454 0
M  V30 5690 N 554.287 1.06798 1.15896 0
M  V30 5691 C 555.698 0.811355 1.68149 0
M  V30 5692 C 556.049 -0.664339 1.8461 0
M  V30 5693 O 555.174 -1.51485 1.54535 0
M  V30 5694 C 555.769 1.46624 3.05429 0
M  V30 5695 C 554.328 1.25726 3.54781 0
M  V30 5696 C 553.475 1.53949 2.3064 0
M  V30 5697 H 556.426 1.23078 1.00187 0
M  V30 5698 H 556.447 0.88437 3.7008 0
M  V30 5699 H 555.959 2.54025 2.93416 0
M  V30 5700 H 554.06 0.20322 3.72045 0
M  V30 5701 H 554.173 1.97354 4.36564 0
M  V30 5702 H 552.537 0.96025 2.35905 0
M  V30 5703 H 553.32 2.6252 2.2122 0
M  V30 5704 N 555.766 -1.3263 0.851289 0
M  V30 5705 C 557.014 -1.96978 0.452128 0
M  V30 5706 C 557.335 -1.67715 -0.99482 0
M  V30 5707 O 556.605 -0.98259 -1.69476 0
M  V30 5708 H 555.185 -0.72873 0.164202 0
M  V30 5709 H 557.847 -1.61774 1.08698 0
M  V30 5710 H 556.943 -3.06387 0.594407 0
M  V30 5711 N 557.244 -0.608902 -1.45362 0
M  V30 5712 C 558.154 0.110969 -2.34337 0
M  V30 5713 C 559.17 0.859007 -1.51318 0
M  V30 5714 O 560.346 0.816296 -1.84116 0
M  V30 5715 C 557.411 1.09494 -3.28956 0
M  V30 5716 C 556.472 0.348718 -4.27881 0
M  V30 5717 C 555.705 1.28582 -5.17979 0
M  V30 5718 O 555.928 2.52369 -5.11533 0
M  V30 5719 O 554.862 0.782172 -5.96796 0
M  V30 5720 H 558.688 -0.620258 -2.97299 0
M  V30 5721 H 556.273 -0.36916 -1.44767 0
M  V30 5722 H 558.155 1.66163 -3.87257 0
M  V30 5723 H 556.83 1.80717 -2.68557 0
M  V30 5724 H 555.737 -0.260465 -3.73192 0
M  V30 5725 H 557.07 -0.323049 -4.91139 0
M  V30 5726 N 558.722 1.53707 -0.348139 0
M  V30 5727 C 559.95 2.05406 0.248224 0
M  V30 5728 C 560.365 1.22282 1.43849 0
M  V30 5729 O 559.722 0.259244 1.80649 0
M  V30 5730 C 559.773 3.55446 0.658793 0
M  V30 5731 O 559.494 4.35417 -0.484149 0
M  V30 5732 C 560.995 4.23335 1.31539 0
M  V30 5733 H 558.215 0.669344 0.0471075 0
M  V30 5734 H 560.759 1.98257 -0.501456 0
M  V30 5735 H 558.914 3.62803 1.35841 0
M  V30 5736 H 559.328 5.24268 -0.155949 0
M  V30 5737 H 560.802 5.29692 1.55338 0
M  V30 5738 H 561.279 3.75967 2.27036 0
M  V30 5739 H 561.885 4.20184 0.657683 0
M  V30 5740 N 560.2 0.0768682 1.57412 0
M  V30 5741 C 561.11 -0.903207 2.16516 0
M  V30 5742 C 562.126 -1.32341 1.12968 0
M  V30 5743 O 563.302 -1.39507 1.45258 0
M  V30 5744 C 560.367 -2.1508 2.71922 0
M  V30 5745 C 559.428 -1.78653 3.90361 0
M  V30 5746 C 558.661 -2.97465 4.43114 0
M  V30 5747 O 558.884 -4.11638 3.94854 0
M  V30 5748 O 557.818 -2.76987 5.3438 0
M  V30 5749 H 561.644 -0.430427 3.00634 0
M  V30 5750 H 559.229 -0.146485 1.4868 0
M  V30 5751 H 561.111 -2.8823 3.07411 0
M  V30 5752 H 559.786 -2.61446 1.9086 0
M  V30 5753 H 558.693 -1.0274 3.59716 0
M  V30 5754 H 560.026 -1.37066 4.7273 0
M  V30 5755 N 561.678 -1.56367 -0.196722 0
M  V30 5756 C 562.927 -1.79724 -0.915539 0
M  V30 5757 C 563.24 -0.649804 -1.84491 0
M  V30 5758 O 564.446 -0.767631 -2.60422 0
M  V30 5759 C 562.902 -3.18369 -1.67836 0
M  V30 5760 C 562.51 -4.4091 -0.793897 0
M  V30 5761 C 564.254 -3.51037 -2.38691 0
M  V30 5762 C 562.161 -5.70577 -1.55549 0
M  V30 5763 H 561.091 -0.67013 -0.345604 0
M  V30 5764 H 563.742 -1.82721 -0.168856 0
M  V30 5765 H 562.124 -3.09617 -2.46887 0
M  V30 5766 H 563.298 -4.60781 -0.042163 0
M  V30 5767 H 561.613 -4.15937 -0.19626 0
M  V30 5768 H 564.21 -4.4515 -2.96219 0
M  V30 5769 H 564.553 -2.74704 -3.12799 0
M  V30 5770 H 565.086 -3.61229 -1.66608 0
M  V30 5771 H 561.825 -6.49871 -0.857226 0
M  V30 5772 H 561.345 -5.54726 -2.2812 0
M  V30 5773 H 563.024 -6.11637 -2.10971 0
M  V30 5774 N 563.156 0.464375 -1.50603 0
M  V30 5775 C 564.386 1.23727 -1.65454 0
M  V30 5776 C 564.794 1.86119 -0.340032 0
M  V30 5777 O 564.137 1.70301 0.688706 0
M  V30 5778 C 564.199 2.38153 -2.69301 0
M  V30 5779 C 563.863 1.96345 -4.12671 0
M  V30 5780 C 564.86 1.48215 -4.98326 0
M  V30 5781 C 562.545 2.04861 -4.58625 0
M  V30 5782 C 564.539 1.09152 -6.27985 0
M  V30 5783 C 562.226 1.65409 -5.88288 0
M  V30 5784 C 563.224 1.17634 -6.72794 0
M  V30 5785 O 562.912 0.787312 -8.00035 0
M  V30 5786 H 562.644 0.380075 -0.559034 0
M  V30 5787 H 565.198 0.559919 -1.97621 0
M  V30 5788 H 563.428 3.09081 -2.32392 0
M  V30 5789 H 565.117 3.00099 -2.73304 0
M  V30 5790 H 565.883 1.41052 -4.64036 0
M  V30 5791 H 561.762 2.40996 -3.92991 0
M  V30 5792 H 565.306 0.717909 -6.93896 0
M  V30 5793 H 561.203 1.72233 -6.22098 0
M  V30 5794 H 561.971 0.915567 -8.13363 0
M  V30 5795 N 564.634 1.40294 0.718013 0
M  V30 5796 C 565.566 1.36281 1.84283 0
M  V30 5797 C 566.579 0.268621 1.60569 0
M  V30 5798 O 567.768 0.528798 1.70487 0
M  V30 5799 C 564.868 1.09741 3.2064 0
M  V30 5800 C 564.041 2.30767 3.71571 0
M  V30 5801 C 563.1 2.00424 4.86535 0
M  V30 5802 O 562.126 2.73268 4.99313 0
M  V30 5803 N 563.328 0.980724 5.72156 0
M  V30 5804 H 566.093 2.3322 1.88225 0
M  V30 5805 H 563.654 1.34616 0.899453 0
M  V30 5806 H 565.646 0.874322 3.95143 0
M  V30 5807 H 564.216 0.214771 3.11861 0
M  V30 5808 H 563.436 2.68921 2.88228 0
M  V30 5809 H 564.724 3.11455 4.02335 0
M  V30 5810 H 564.122 0.377375 5.6444 0
M  V30 5811 H 562.679 0.817538 6.46653 0
M  V30 5812 N 566.112 -0.949982 1.2575 0
M  V30 5813 C 567.36 -1.6918 1.10555 0
M  V30 5814 C 567.681 -1.91773 -0.353298 0
M  V30 5815 O 566.951 -1.50814 -1.25027 0
M  V30 5816 H 565.531 -0.626952 0.406129 0
M  V30 5817 H 568.193 -1.1419 1.57945 0
M  V30 5818 H 567.289 -2.66915 1.61749 0
M  V30 5819 N 567.59 -1.07411 -1.15328 0
M  V30 5820 C 569.006 -0.799759 -1.38116 0
M  V30 5821 C 569.206 0.59572 -1.92493 0
M  V30 5822 O 568.262 1.35433 -2.13106 0
M  V30 5823 C 569.575 -1.87407 -2.35158 0
M  V30 5824 C 571.123 -1.89889 -2.48819 0
M  V30 5825 C 571.598 -2.96406 -3.49153 0
M  V30 5826 N 573.089 -2.95512 -3.56689 0
M  V30 5827 C 573.824 -3.74575 -4.34144 0
M  V30 5828 N 573.32 -4.63488 -5.14928 0
M  V30 5829 N 575.113 -3.62919 -4.29239 0
M  V30 5830 H 567.264 -1.97411 -0.78374 0
M  V30 5831 H 569.527 -0.856113 -0.407154 0
M  V30 5832 H 569.233 -2.8768 -2.0232 0
M  V30 5833 H 569.107 -1.73471 -3.34944 0
M  V30 5834 H 571.494 -0.902677 -2.80955 0
M  V30 5835 H 571.575 -2.07904 -1.49029 0
M  V30 5836 H 571.219 -3.96227 -3.17752 0
M  V30 5837 H 571.149 -2.75638 -4.48699 0
M  V30 5838 H 573.64 -2.31061 -2.99031 0
M  V30 5839 H 573.953 -5.20445 -5.71276 0
M  V30 5840 H 572.298 -4.67537 -5.14232 0
M  V30 5841 H 575.489 -2.92833 -3.65194 0
M  V30 5842 H 575.662 -4.24777 -4.89355 0
M  V30 5843 N 569.068 1.32177 -0.85831 0
M  V30 5844 C 570.015 2.28794 -0.303607 0
M  V30 5845 C 570.985 1.55213 0.591453 0
M  V30 5846 O 572.17 1.83418 0.525585 0
M  V30 5847 C 569.31 3.41475 0.49889 0
M  V30 5848 C 568.423 4.2993 -0.422373 0
M  V30 5849 C 567.558 5.29743 0.393111 0
M  V30 5850 C 566.597 6.09842 -0.525317 0
M  V30 5851 N 565.734 7.01643 0.253208 0
M  V30 5852 H 570.574 2.75631 -1.13276 0
M  V30 5853 H 568.111 1.35606 -0.570026 0
M  V30 5854 H 570.069 4.05531 0.979826 0
M  V30 5855 H 568.699 2.95779 1.29284 0
M  V30 5856 H 567.751 3.66422 -1.02171 0
M  V30 5857 H 569.063 4.85899 -1.12709 0
M  V30 5858 H 568.217 5.9942 0.937056 0
M  V30 5859 H 566.956 4.744 1.13117 0
M  V30 5860 H 565.961 5.39066 -1.08112 0
M  V30 5861 H 567.186 6.6727 -1.26205 0
M  V30 5862 H 565.132 6.48725 0.974295 0
M  V30 5863 H 565.049 7.54981 -0.392398 0
M  V30 5864 H 566.317 7.756 0.778761 0
M  V30 5865 N 570.547 0.616602 1.45037 0
M  V30 5866 C 571.794 0.115331 2.02171 0
M  V30 5867 C 572.122 -1.25748 1.48383 0
M  V30 5868 O 571.377 -1.84511 0.652229 0
M  V30 5869 C 571.676 0.0356829 3.57382 0
M  V30 5870 C 571.342 1.34535 4.30362 0
M  V30 5871 C 570.004 1.70408 4.50016 0
M  V30 5872 C 572.356 2.21049 4.72003 0
M  V30 5873 C 569.684 2.92529 5.0857 0
M  V30 5874 C 572.036 3.42427 5.31908 0
M  V30 5875 C 570.7 3.78541 5.49784 0
M  V30 5876 H 569.97 0.0422024 0.739797 0
M  V30 5877 H 572.617 0.80002 1.73988 0
M  V30 5878 H 570.922 -0.732314 3.84895 0
M  V30 5879 H 572.619 -0.368463 3.99304 0
M  V30 5880 H 569.209 1.05615 4.15383 0
M  V30 5881 H 573.393 1.94632 4.56544 0
M  V30 5882 H 568.649 3.20605 5.20598 0
M  V30 5883 H 572.823 4.09709 5.63127 0
M  V30 5884 H 570.45 4.73255 5.94923 0
M  V30 5885 N 572.025 -1.5352 0.356285 0
M  V30 5886 C 572.972 -2.25439 -0.494569 0
M  V30 5887 C 573.942 -1.25752 -1.08516 0
M  V30 5888 O 575.127 -1.54513 -1.1194 0
M  V30 5889 C 572.267 -3.04011 -1.63313 0
M  V30 5890 C 571.38 -4.18574 -1.06862 0
M  V30 5891 C 570.515 -4.84607 -2.17552 0
M  V30 5892 C 569.554 -5.91218 -1.58518 0
M  V30 5893 N 568.691 -6.50979 -2.63003 0
M  V30 5894 H 573.531 -2.97737 0.125244 0
M  V30 5895 H 571.068 -1.46916 0.0735789 0
M  V30 5896 H 573.026 -3.47834 -2.30363 0
M  V30 5897 H 571.656 -2.33986 -2.22374 0
M  V30 5898 H 570.708 -3.79303 -0.288672 0
M  V30 5899 H 572.02 -4.95215 -0.596924 0
M  V30 5900 H 571.174 -5.31566 -2.92442 0
M  V30 5901 H 569.913 -4.07418 -2.6807 0
M  V30 5902 H 568.918 -5.4363 -0.821391 0
M  V30 5903 H 570.143 -6.70322 -1.08836 0
M  V30 5904 H 568.089 -5.76648 -3.12751 0
M  V30 5905 H 568.006 -7.23131 -2.20493 0
M  V30 5906 H 569.274 -7.02589 -3.37623 0
M  V30 5907 N 573.503 -0.0852151 -1.57369 0
M  V30 5908 C 574.731 0.58946 -1.98325 0
M  V30 5909 C 575.146 1.62333 -0.96403 0
M  V30 5910 O 574.503 1.82438 0.0476395 0
M  V30 5911 C 574.554 1.24604 -3.39347 0
M  V30 5912 O 574.275 0.253532 -4.37366 0
M  V30 5913 C 575.776 2.00726 -3.95252 0
M  V30 5914 H 572.996 0.158783 -0.651942 0
M  V30 5915 H 575.54 -0.161584 -2.03861 0
M  V30 5916 H 573.695 1.94808 -3.34856 0
M  V30 5917 H 574.109 0.726207 -5.19448 0
M  V30 5918 H 575.583 2.42039 -4.96106 0
M  V30 5919 H 576.06 2.86919 -3.32527 0
M  V30 5920 H 576.666 1.3536 -4.03185 0
M  V30 5921 N 574.981 1.5647 0.188427 0
M  V30 5922 C 576.211 1.84863 0.922463 0
M  V30 5923 C 576.619 0.666413 1.77075 0
M  V30 5924 O 575.962 -0.374044 1.79852 0
M  V30 5925 C 576.024 3.07447 1.86324 0
M  V30 5926 C 575.688 4.41066 1.19625 0
M  V30 5927 C 576.685 5.16767 0.569946 0
M  V30 5928 C 574.37 4.87802 1.19811 0
M  V30 5929 C 576.364 6.37384 -0.045594 0
M  V30 5930 C 574.051 6.08353 0.57874 0
M  V30 5931 C 575.049 6.82987 -0.0420259 0
M  V30 5932 O 574.737 8.01254 -0.651675 0
M  V30 5933 H 574.469 0.61784 0.274316 0
M  V30 5934 H 577.023 2.04437 0.198613 0
M  V30 5935 H 575.253 2.83774 2.62696 0
M  V30 5936 H 576.942 3.2243 2.46564 0
M  V30 5937 H 577.708 4.81749 0.560601 0
M  V30 5938 H 573.587 4.29662 1.67069 0
M  V30 5939 H 577.131 6.95578 -0.530731 0
M  V30 5940 H 573.028 6.42838 0.58561 0
M  V30 5941 H 573.796 8.16655 -0.549236 0
M  V30 5942 N 576.459 -0.456382 1.50847 0
M  V30 5943 C 577.875 -0.791345 1.386 0
M  V30 5944 C 578.075 -1.9633 0.453498 0
M  V30 5945 O 577.131 -2.52308 -0.0984353 0
M  V30 5946 C 578.444 -1.08959 2.80265 0
M  V30 5947 C 579.992 -1.19517 2.89283 0
M  V30 5948 C 580.467 -1.52647 4.31814 0
M  V30 5949 N 581.958 -1.59609 4.34832 0
M  V30 5950 C 582.693 -1.86777 5.42127 0
M  V30 5951 N 582.189 -2.11866 6.59609 0
M  V30 5952 N 583.982 -1.88402 5.29586 0
M  V30 5953 H 576.133 0.315746 2.1004 0
M  V30 5954 H 578.396 0.0787916 0.94472 0
M  V30 5955 H 578.102 -0.301355 3.50407 0
M  V30 5956 H 577.976 -2.02211 3.18419 0
M  V30 5957 H 580.363 -1.97406 2.19351 0
M  V30 5958 H 580.444 -0.242111 2.54652 0
M  V30 5959 H 580.088 -0.752922 5.02288 0
M  V30 5960 H 580.018 -2.49127 4.63943 0
M  V30 5961 H 582.509 -1.42201 3.50125 0
M  V30 5962 H 582.822 -2.31912 7.37182 0
M  V30 5963 H 581.167 -2.09228 6.62758 0
M  V30 5964 H 584.358 -1.68307 4.36795 0
M  V30 5965 H 584.531 -2.09238 6.13289 0
M  V30 5966 N 577.937 -1.40673 -0.710563 0
M  V30 5967 C 579.185 -1.38947 -1.46759 0
M  V30 5968 C 579.506 0.00572879 -1.94999 0
M  V30 5969 O 578.776 0.961358 -1.70689 0
M  V30 5970 H 577.356 -0.5114 -0.544499 0
M  V30 5971 H 580.018 -1.75773 -0.842012 0
M  V30 5972 H 579.114 -2.06745 -2.33801 0
M  V30 5973 N 579.415 0.9433 -1.26252 0
M  V30 5974 C 580.348 2.04162 -1.01946 0
M  V30 5975 C 581.326 1.62507 0.0550808 0
M  V30 5976 O 582.51 1.883 -0.0869025 0
M  V30 5977 C 579.637 3.34313 -0.54335 0
M  V30 5978 C 578.683 3.94939 -1.61013 0
M  V30 5979 S 579.516 4.29484 -3.19849 0
M  V30 5980 C 580.672 5.62738 -2.74001 0
M  V30 5981 H 580.905 2.24466 -1.94942 0
M  V30 5982 H 578.438 1.08441 -1.09909 0
M  V30 5983 H 580.396 4.09576 -0.275315 0
M  V30 5984 H 579.057 3.11957 0.36629 0
M  V30 5985 H 578.25 4.88812 -1.22795 0
M  V30 5986 H 577.852 3.26202 -1.82943 0
M  V30 5987 H 580.144 6.41356 -2.18333 0
M  V30 5988 H 581.087 6.05839 -3.66558 0
M  V30 5989 H 581.495 5.22514 -2.13634 0
M  V30 5990 N 580.893 1.08022 1.14757 0
M  V30 5991 C 582.141 0.805913 1.85336 0
M  V30 5992 C 582.462 -0.670162 1.83122 0
M  V30 5993 O 581.732 -1.48567 1.2769 0
M  V30 5994 H 580.312 0.295138 0.686223 0
M  V30 5995 H 582.974 1.36538 1.3908 0
M  V30 5996 H 582.07 1.14655 2.90277 0
M  V30 5997 N 582.371 -1.3172 0.865308 0
M  V30 5998 C 583.596 -2.01591 0.487415 0
M  V30 5999 C 584.021 -1.6455 -0.911307 0
M  V30 6000 O 583.379 -0.851689 -1.6005 0
M  V30 6001 C 583.427 -3.54759 0.646401 0
M  V30 6002 O 582.531 -4.11185 -0.316284 0
M  V30 6003 H 581.872 -0.634884 0.194468 0
M  V30 6004 H 584.402 -1.68024 1.16744 0
M  V30 6005 H 584.412 -4.04438 0.537932 0
M  V30 6006 H 583.087 -3.8106 1.66632 0
M  V30 6007 H 581.664 -3.72543 -0.163162 0
M  V30 6008 N 583.85 -0.624285 -1.44708 0
M  V30 6009 C 585.099 -0.123539 -2.01321 0
M  V30 6010 C 585.412 1.25966 -1.49639 0
M  V30 6011 O 586.618 1.85405 -1.98336 0
M  V30 6012 C 585.074 -0.170124 -3.59498 0
M  V30 6013 C 584.682 -1.55421 -4.20176 0
M  V30 6014 C 586.426 0.274513 -4.23611 0
M  V30 6015 C 584.332 -1.55628 -5.70556 0
M  V30 6016 H 583.263 -0.0424183 -0.752806 0
M  V30 6017 H 585.913 -0.782076 -1.65999 0
M  V30 6018 H 584.296 0.555385 -3.92086 0
M  V30 6019 H 585.47 -2.30276 -3.99136 0
M  V30 6020 H 583.784 -1.94235 -3.68323 0
M  V30 6021 H 586.382 0.292402 -5.339 0
M  V30 6022 H 586.725 1.3005 -3.95465 0
M  V30 6023 H 587.258 -0.398275 -3.95801 0
M  V30 6024 H 583.997 -2.56041 -6.03426 0
M  V30 6025 H 583.517 -0.850563 -5.93739 0
M  V30 6026 H 585.196 -1.28721 -6.34066 0
M  V30 6027 N 585.328 1.53329 -0.364422 0
M  V30 6028 C 586.291 2.24323 0.470292 0
M  V30 6029 C 587.291 1.25068 1.01067 0
M  V30 6030 O 588.481 1.49354 0.896605 0
M  V30 6031 C 585.613 2.97908 1.65722 0
M  V30 6032 H 586.806 2.9952 -0.150917 0
M  V30 6033 H 584.359 1.55868 -0.116092 0
M  V30 6034 H 585.094 2.2695 2.31655 0
M  V30 6035 H 584.879 3.70732 1.27671 0
M  V30 6036 H 586.369 3.5188 2.24878 0
M  V30 6037 N 586.806 0.0935595 1.57322 0
M  V30 6038 C 587.769 -0.851426 2.12799 0
M  V30 6039 C 588.769 -1.21187 1.0569 0
M  V30 6040 O 589.959 -1.14156 1.31583 0
M  V30 6041 C 587.091 -2.14779 2.64731 0
M  V30 6042 H 588.284 -0.369733 2.97612 0
M  V30 6043 H 585.837 -0.155417 1.55525 0
M  V30 6044 H 586.572 -2.67437 1.83434 0
M  V30 6045 H 586.357 -1.89907 3.43042 0
M  V30 6046 H 587.847 -2.82383 3.07651 0
M  V30 6047 N 588.284 -1.56567 -0.180126 0
M  V30 6048 C 589.217 -1.90813 -1.25163 0
M  V30 6049 C 590.195 -0.7699 -1.43218 0
M  V30 6050 O 591.379 -1.02236 -1.58367 0
M  V30 6051 C 588.506 -2.15138 -2.61597 0
M  V30 6052 C 587.552 -3.37834 -2.60328 0
M  V30 6053 S 588.385 -4.92486 -2.1028 0
M  V30 6054 C 589.541 -5.19896 -3.48509 0
M  V30 6055 H 589.774 -2.81398 -0.959283 0
M  V30 6056 H 587.307 -1.49541 -0.3843 0
M  V30 6057 H 589.265 -2.29835 -3.40127 0
M  V30 6058 H 587.926 -1.25276 -2.88036 0
M  V30 6059 H 587.119 -3.52027 -3.60684 0
M  V30 6060 H 586.721 -3.22208 -1.8989 0
M  V30 6061 H 589.013 -5.11334 -4.44459 0
M  V30 6062 H 589.956 -6.21571 -3.39198 0
M  V30 6063 H 590.364 -4.47489 -3.44114 0
M  V30 6064 N 589.762 0.448376 -1.51087 0
M  V30 6065 C 590.709 1.54341 -1.71603 0
M  V30 6066 C 591.679 1.56463 -0.557536 0
M  V30 6067 O 592.864 1.73644 -0.79072 0
M  V30 6068 C 590.004 2.92148 -1.83695 0
M  V30 6069 C 589.117 2.99639 -3.11192 0
M  V30 6070 C 588.252 4.285 -3.13944 0
M  V30 6071 C 587.291 4.29819 -4.35801 0
M  V30 6072 N 586.428 5.50186 -4.36164 0
M  V30 6073 H 591.268 1.36151 -2.65079 0
M  V30 6074 H 588.805 0.661585 -1.31383 0
M  V30 6075 H 590.763 3.72093 -1.88687 0
M  V30 6076 H 589.393 3.0892 -0.936374 0
M  V30 6077 H 588.445 2.12425 -3.15562 0
M  V30 6078 H 589.757 2.96474 -4.01129 0
M  V30 6079 H 588.911 5.16811 -3.17791 0
M  V30 6080 H 587.65 4.34307 -2.21876 0
M  V30 6081 H 586.655 3.39902 -4.32142 0
M  V30 6082 H 587.88 4.25685 -5.29121 0
M  V30 6083 H 585.826 5.56735 -3.46961 0
M  V30 6084 H 585.743 5.48856 -5.19897 0
M  V30 6085 H 587.011 6.40559 -4.44189 0
M  V30 6086 N 591.24 1.41047 0.703093 0
M  V30 6087 C 592.187 1.42302 1.81711 0
M  V30 6088 C 593.157 0.278336 1.63751 0
M  V30 6089 O 594.342 0.478266 1.84709 0
M  V30 6090 C 591.482 1.30362 3.19531 0
M  V30 6091 C 590.595 2.54638 3.48975 0
M  V30 6092 C 589.73 2.35047 4.76368 0
M  V30 6093 C 588.769 3.54837 4.98756 0
M  V30 6094 N 587.906 3.34363 6.1737 0
M  V30 6095 H 592.746 2.37516 1.79973 0
M  V30 6096 H 590.283 1.1795 0.878983 0
M  V30 6097 H 592.241 1.21443 3.99134 0
M  V30 6098 H 590.871 0.387602 3.20464 0
M  V30 6099 H 589.923 2.74037 2.63833 0
M  V30 6100 H 591.235 3.43766 3.61423 0
M  V30 6101 H 590.389 2.23552 5.64012 0
M  V30 6102 H 589.128 1.43363 4.66153 0
M  V30 6103 H 588.133 3.66795 4.09563 0
M  V30 6104 H 589.358 4.47464 5.10835 0
M  V30 6105 H 587.304 2.45373 6.08382 0
M  V30 6106 H 587.221 4.17063 6.30551 0
M  V30 6107 H 588.489 3.26626 7.07768 0
M  V30 6108 N 592.718 -0.936591 1.26751 0
M  V30 6109 C 593.966 -1.67998 1.12343 0
M  V30 6110 C 594.287 -1.92137 -0.332938 0
M  V30 6111 O 593.557 -1.52132 -1.23421 0
M  V30 6112 H 592.137 -0.622609 0.412756 0
M  V30 6113 H 594.799 -1.12509 1.59147 0
M  V30 6114 H 593.895 -2.65185 1.64571 0
M  V30 6115 N 594.196 -1.08629 -1.14182 0
M  V30 6116 C 595.421 -0.83902 -1.89671 0
M  V30 6117 C 595.846 0.603332 -1.78161 0
M  V30 6118 O 595.204 1.42301 -1.12339 0
M  V30 6119 C 595.252 -1.26854 -3.37551 0
M  V30 6120 O 594.356 -0.42188 -4.10236 0
M  V30 6121 H 593.697 -0.304545 -0.590041 0
M  V30 6122 H 596.227 -1.4483 -1.44518 0
M  V30 6123 H 596.237 -1.25038 -3.88368 0
M  V30 6124 H 594.912 -2.31901 -3.45246 0
M  V30 6125 H 593.489 -0.503654 -3.69483 0
M  V30 6126 N 595.674 1.31259 -0.872281 0
M  V30 6127 C 596.899 2.0133 -0.498099 0
M  V30 6128 C 597.324 1.65031 0.902568 0
M  V30 6129 O 596.682 0.860164 1.59596 0
M  V30 6130 C 596.73 3.54411 -0.665205 0
M  V30 6131 O 595.834 4.11347 0.294473 0
M  V30 6132 H 595.175 0.633844 -0.197832 0
M  V30 6133 H 597.705 1.67402 -1.17633 0
M  V30 6134 H 597.715 4.04147 -0.559373 0
M  V30 6135 H 596.39 3.80171 -1.68651 0
M  V30 6136 H 594.967 3.72624 0.143403 0
M  V30 6137 N 597.152 0.631951 1.44375 0
M  V30 6138 C 598.429 0.067646 1.95483 0
M  V30 6139 C 598.809 -1.40683 1.57389 0
M  V30 6140 O 598.157 -2.12167 0.848375 0
M  V30 6141 C 598.367 0.291392 3.47781 0
M  V30 6142 C 599.715 0.185028 4.24197 0
M  V30 6143 O 600.739 0.222803 3.55503 0
M  V30 6144 O 599.598 0.0906642 5.46425 0
M  V30 6145 H 596.692 -0.0218379 0.826712 0
M  V30 6146 H 599.238 0.703711 1.54421 0
M  V30 6147 H 598.01 1.31449 3.68561 0
M  V30 6148 H 597.633 -0.378772 3.95792 0
M  V30 6149 N 598.631 -1.53133 0.372548 0
M  V30 6150 C 600.047 -1.59585 0.02178 0
M  V30 6151 C 600.247 -1.38736 -1.46132 0
M  V30 6152 O 599.303 -1.19599 -2.22379 0
M  V30 6153 C 600.616 -2.9678 0.483959 0
M  V30 6154 C 602.164 -3.09909 0.438775 0
M  V30 6155 C 602.639 -4.49527 0.876876 0
M  V30 6156 N 604.13 -4.55663 0.832214 0
M  V30 6157 C 604.865 -5.61896 1.14281 0
M  V30 6158 N 604.361 -6.75852 1.52303 0
M  V30 6159 N 606.154 -5.51916 1.06515 0
M  V30 6160 H 598.305 -1.64936 1.33827 0
M  V30 6161 H 600.568 -0.773947 0.547458 0
M  V30 6162 H 600.274 -3.17198 1.51915 0
M  V30 6163 H 600.148 -3.7699 -0.125784 0
M  V30 6164 H 602.535 -2.89197 -0.587294 0
M  V30 6165 H 602.616 -2.31691 1.0841 0
M  V30 6166 H 602.26 -4.70979 1.90109 0
M  V30 6167 H 602.19 -5.26186 0.208727 0
M  V30 6168 H 604.681 -3.73844 0.552195 0
M  V30 6169 H 604.994 -7.52862 1.7441 0
M  V30 6170 H 603.339 -6.77226 1.56175 0
M  V30 6171 H 606.53 -4.6177 0.767235 0
M  V30 6172 H 606.703 -6.34609 1.31053 0
M  V30 6173 N 600.109 -0.101901 -1.5727 0
M  V30 6174 C 601.339 0.567568 -1.98651 0
M  V30 6175 C 601.747 1.61839 -0.980037 0
M  V30 6176 O 601.09 1.83661 0.0376564 0
M  V30 6177 C 601.152 1.26742 -3.36417 0
M  V30 6178 C 600.816 0.366561 -4.55528 0
M  V30 6179 C 601.813 -0.388022 -5.1845 0
M  V30 6180 C 599.498 0.282629 -5.01504 0
M  V30 6181 C 601.492 -1.21445 -6.25724 0
M  V30 6182 C 599.179 -0.547443 -6.08643 0
M  V30 6183 C 600.177 -1.29462 -6.70618 0
M  V30 6184 O 599.865 -2.11095 -7.7569 0
M  V30 6185 H 599.597 0.156282 -0.657687 0
M  V30 6186 H 602.151 -0.179912 -2.04611 0
M  V30 6187 H 600.381 2.06162 -3.27161 0
M  V30 6188 H 602.07 1.8321 -3.622 0
M  V30 6189 H 602.836 -0.332949 -4.83856 0
M  V30 6190 H 598.715 0.853868 -4.53023 0
M  V30 6191 H 602.259 -1.79814 -6.74027 0
M  V30 6192 H 598.156 -0.603971 -6.42668 0
M  V30 6193 H 598.924 -2.03851 -7.92709 0
M  V30 6194 N 601.587 1.56661 0.17182 0
M  V30 6195 C 602.834 1.81965 0.888529 0
M  V30 6196 C 603.162 0.6789 1.82267 0
M  V30 6197 O 602.417 -0.333875 1.92831 0
M  V30 6198 C 602.716 3.13435 1.71736 0
M  V30 6199 C 602.382 4.41159 0.932184 0
M  V30 6200 C 601.044 4.75851 0.715481 0
M  V30 6201 C 603.396 5.19803 0.381387 0
M  V30 6202 C 600.724 5.86666 -0.063126 0
M  V30 6203 C 603.076 6.31433 -0.384129 0
M  V30 6204 C 601.74 6.64692 -0.611637 0
M  V30 6205 H 601.01 0.665859 0.325136 0
M  V30 6206 H 603.657 1.90884 0.153495 0
M  V30 6207 H 601.962 2.99857 2.52177 0
M  V30 6208 H 603.659 3.30224 2.27493 0
M  V30 6209 H 600.249 4.13947 1.11112 0
M  V30 6210 H 604.433 4.93396 0.536148 0
M  V30 6211 H 599.689 6.10892 -0.249136 0
M  V30 6212 H 603.863 6.91577 -0.818185 0
M  V30 6213 H 601.49 7.50398 -1.21684 0
M  V30 6214 N 603.065 -0.440357 1.51323 0
M  V30 6215 C 603.997 -1.55254 1.68609 0
M  V30 6216 C 605.01 -1.52614 0.566812 0
M  V30 6217 O 606.199 -1.57445 0.841032 0
M  V30 6218 C 603.299 -2.94169 1.68279 0
M  V30 6219 C 602.472 -3.21346 2.96742 0
M  V30 6220 C 601.531 -4.3997 2.8864 0
M  V30 6221 O 600.557 -4.38771 3.62586 0
M  V30 6222 N 601.759 -5.43367 2.04285 0
M  V30 6223 H 604.524 -1.40831 2.6455 0
M  V30 6224 H 602.085 -0.629251 1.49171 0
M  V30 6225 H 604.077 -3.71543 1.60431 0
M  V30 6226 H 602.647 -3.02205 0.799441 0
M  V30 6227 H 601.867 -2.32299 3.18482 0
M  V30 6228 H 603.155 -3.3633 3.81785 0
M  V30 6229 H 602.553 -5.47176 1.43578 0
M  V30 6230 H 601.11 -6.19605 2.02318 0
M  V30 6231 N 604.543 -1.41418 -0.695603 0
M  V30 6232 C 605.791 -1.40496 -1.45277 0
M  V30 6233 C 606.112 -0.0149538 -1.94994 0
M  V30 6234 O 605.382 0.9432 -1.71699 0
M  V30 6235 H 603.962 -0.517147 -0.539044 0
M  V30 6236 H 606.624 -1.76656 -0.823321 0
M  V30 6237 H 605.72 -2.09214 -2.31595 0
M  V30 6238 N 606.021 0.929856 -1.27246 0
M  V30 6239 C 607.246 1.71674 -1.16374 0
M  V30 6240 C 607.671 1.86064 0.276024 0
M  V30 6241 O 607.029 1.3591 1.19992 0
M  V30 6242 C 607.077 3.09526 -1.85003 0
M  V30 6243 O 606.181 3.96142 -1.14653 0
M  V30 6244 H 605.522 0.52629 -0.404863 0
M  V30 6245 H 608.052 1.16381 -1.68276 0
M  V30 6246 H 608.062 3.59852 -1.92276 0
M  V30 6247 H 606.737 2.98369 -2.89739 0
M  V30 6248 H 605.314 3.54584 -1.15433 0
M  V30 6249 N 607.499 1.09233 1.13605 0
M  V30 6250 C 608.745 0.828385 1.8511 0
M  V30 6251 C 609.078 -0.64437 1.83198 0
M  V30 6252 O 608.353 -1.47428 1.26867 0
M  V30 6253 C 608.636 1.36167 3.33363 0
M  V30 6254 C 608.489 2.90038 3.438 0
M  V30 6255 C 609.808 0.993819 4.28732 0
M  V30 6256 H 606.927 0.30239 0.672108 0
M  V30 6257 H 609.569 1.35339 1.33355 0
M  V30 6258 H 607.719 0.9151 3.77569 0
M  V30 6259 H 609.391 3.43128 3.08319 0
M  V30 6260 H 607.634 3.27271 2.84739 0
M  V30 6261 H 608.305 3.22428 4.48045 0
M  V30 6262 H 610.781 1.37893 3.92587 0
M  V30 6263 H 609.657 1.39403 5.30903 0
M  V30 6264 H 609.918 -0.0982206 4.41991 0
M  V30 6265 N 608.977 -1.30795 0.87923 0
M  V30 6266 C 609.925 -2.30231 0.331112 0
M  V30 6267 C 610.919 -1.59918 -0.558794 0
M  V30 6268 O 612.125 -1.74441 -0.443866 0
M  V30 6269 H 608.5 -0.746785 0.088409 0
M  V30 6270 H 610.471 -2.73925 1.18353 0
M  V30 6271 C 609.22 -3.44848 -0.444401 0
M  V30 6272 H 608.543 -3.99131 0.231106 0
M  V30 6273 H 609.983 -4.16516 -0.793109 0
M  V30 6274 C 608.442 -2.94329 -1.63926 0
M  V30 6275 O 608.972 -2.93875 -2.73862 0
M  V30 6276 N 607.178 -2.50413 -1.4745 0
M  V30 6277 H 606.725 -2.50982 -0.58015 0
M  V30 6278 H 606.683 -2.16969 -2.27534 0
M  V30 6279 N 610.455 -0.639598 -1.44038 0
M  V30 6280 C 611.365 0.0612377 -2.3452 0
M  V30 6281 C 612.381 0.826717 -1.53106 0
M  V30 6282 O 613.557 0.777059 -1.85806 0
M  V30 6283 C 610.622 1.02492 -3.31204 0
M  V30 6284 C 609.683 0.25788 -4.28525 0
M  V30 6285 C 608.916 1.17566 -5.2059 0
M  V30 6286 O 609.139 2.41461 -5.16771 0
M  V30 6287 O 608.073 0.655407 -5.98321 0
M  V30 6288 H 611.899 -0.68318 -2.95916 0
M  V30 6289 H 609.484 -0.399784 -1.43952 0
M  V30 6290 H 611.366 1.57911 -3.90694 0
M  V30 6291 H 610.041 1.7498 -2.7233 0
M  V30 6292 H 608.948 -0.339566 -3.72556 0
M  V30 6293 H 610.281 -0.427154 -4.90343 0
M  V30 6294 N 611.933 1.52934 -0.380664 0
M  V30 6295 C 612.896 2.24809 0.446473 0
M  V30 6296 C 613.896 1.26133 0.997347 0
M  V30 6297 O 615.086 1.50297 0.880714 0
M  V30 6298 C 612.218 2.99649 1.62553 0
M  V30 6299 H 613.411 2.99343 -0.182677 0
M  V30 6300 H 610.964 1.55736 -0.132618 0
M  V30 6301 H 611.699 2.29395 2.29235 0
M  V30 6302 H 611.484 3.72066 1.23732 0
M  V30 6303 H 612.974 3.54246 2.21133 0
M  V30 6304 N 613.412 0.11024 1.57214 0
M  V30 6305 C 614.36 -0.860586 2.16094 0
M  V30 6306 C 615.354 -1.28156 1.1078 0
M  V30 6307 O 616.56 -1.25433 1.29099 0
M  V30 6308 H 612.935 -0.295606 0.691463 0
M  V30 6309 H 614.906 -0.33942 2.96463 0
M  V30 6310 C 613.655 -2.10421 2.768 0
M  V30 6311 H 612.978 -1.7892 3.5753 0
M  V30 6312 H 614.418 -2.76375 3.21547 0
M  V30 6313 C 612.877 -2.88823 1.73444 0
M  V30 6314 O 613.407 -3.839 1.18251 0
M  V30 6315 N 611.613 -2.52649 1.43586 0
M  V30 6316 H 611.16 -1.754 1.8866 0
M  V30 6317 H 611.118 -3.05403 0.746735 0
M  V30 6318 N 614.89 -1.56749 -0.16351 0
M  V30 6319 C 615.837 -1.97011 -1.2023 0
M  V30 6320 C 616.807 -0.835186 -1.43575 0
M  V30 6321 O 617.992 -1.09594 -1.56185 0
M  V30 6322 C 615.132 -2.34186 -2.53478 0
M  V30 6323 C 614.245 -3.60893 -2.37446 0
M  V30 6324 C 613.38 -3.87245 -3.63614 0
M  V30 6325 C 612.419 -5.07274 -3.42548 0
M  V30 6326 N 611.556 -5.29719 -4.60806 0
M  V30 6327 H 616.396 -2.85562 -0.851958 0
M  V30 6328 H 613.933 -1.41292 -0.409257 0
M  V30 6329 H 615.891 -2.53764 -3.31149 0
M  V30 6330 H 614.521 -1.48736 -2.86492 0
M  V30 6331 H 613.573 -3.49185 -1.50911 0
M  V30 6332 H 614.885 -4.48722 -2.1783 0
M  V30 6333 H 614.039 -4.07232 -4.49719 0
M  V30 6334 H 612.778 -2.97806 -3.86216 0
M  V30 6335 H 611.783 -4.87177 -2.5483 0
M  V30 6336 H 613.008 -5.98251 -3.2136 0
M  V30 6337 H 610.954 -4.43233 -4.83612 0
M  V30 6338 H 610.871 -6.11786 -4.44132 0
M  V30 6339 H 612.139 -5.54192 -5.48171 0
M  V30 6340 N 616.368 0.432326 -1.51554 0
M  V30 6341 C 617.298 1.53242 -1.76179 0
M  V30 6342 C 618.279 1.58717 -0.611801 0
M  V30 6343 O 619.464 1.74364 -0.855033 0
M  V30 6344 C 616.594 2.91278 -1.89141 0
M  V30 6345 C 615.548 3.00663 -3.04608 0
M  V30 6346 C 614.874 4.40728 -3.02759 0
M  V30 6347 C 616.174 2.74281 -4.44485 0
M  V30 6348 H 617.868 1.32886 -2.68294 0
M  V30 6349 H 615.414 0.637841 -1.29103 0
M  V30 6350 H 617.367 3.68203 -2.04951 0
M  V30 6351 H 616.091 3.12877 -0.936785 0
M  V30 6352 H 614.75 2.26179 -2.88511 0
M  V30 6353 H 614.398 4.59301 -2.05065 0
M  V30 6354 H 614.098 4.47936 -3.80299 0
M  V30 6355 H 615.622 5.19619 -3.20669 0
M  V30 6356 H 617.036 3.40936 -4.60907 0
M  V30 6357 H 615.433 2.92893 -5.23769 0
M  V30 6358 H 616.503 1.69856 -4.54177 0
M  V30 6359 N 617.846 1.41785 0.688094 0
M  V30 6360 C 619.092 1.41753 1.4503 0
M  V30 6361 C 619.425 0.0290745 1.94178 0
M  V30 6362 O 618.7 -0.944456 1.7003 0
M  V30 6363 C 618.983 2.43069 2.65686 0
M  V30 6364 C 618.836 3.91053 2.22256 0
M  V30 6365 C 620.155 2.41543 3.67893 0
M  V30 6366 H 617.274 0.516202 0.526027 0
M  V30 6367 H 619.916 1.73111 0.783105 0
M  V30 6368 H 618.066 2.1646 3.2261 0
M  V30 6369 H 619.738 4.28594 1.70602 0
M  V30 6370 H 617.981 4.05559 1.53963 0
M  V30 6371 H 618.652 4.57501 3.08863 0
M  V30 6372 H 621.128 2.65175 3.20658 0
M  V30 6373 H 620.004 3.14434 4.49914 0
M  V30 6374 H 620.265 1.43666 4.18106 0
M  V30 6375 N 619.324 -0.923095 1.27737 0
M  V30 6376 C 620.735 -1.48626 1.12993 0
M  V30 6377 C 621.086 -1.94142 -0.283439 0
M  V30 6378 O 620.211 -1.81605 -1.17681 0
M  V30 6379 C 620.806 -2.70117 2.04505 0
M  V30 6380 C 619.365 -3.22642 1.93853 0
M  V30 6381 C 618.512 -1.95368 1.96791 0
M  V30 6382 H 621.463 -0.736737 1.40563 0
M  V30 6383 H 621.484 -3.4506 1.60356 0
M  V30 6384 H 620.996 -2.36959 3.07363 0
M  V30 6385 H 619.097 -3.60549 0.939968 0
M  V30 6386 H 619.21 -3.88525 2.80331 0
M  V30 6387 H 617.574 -2.12061 1.41076 0
M  V30 6388 H 618.357 -1.64517 3.01312 0
M  V30 6389 N 620.802 -1.09834 -1.13024 0
M  V30 6390 C 621.712 -0.753731 -2.22162 0
M  V30 6391 C 622.728 0.246105 -1.72251 0
M  V30 6392 O 623.904 0.0864051 -2.01215 0
M  V30 6393 C 620.969 -0.183958 -3.46212 0
M  V30 6394 C 620.03 -1.24028 -4.10993 0
M  V30 6395 C 619.263 -0.697597 -5.29121 0
M  V30 6396 O 619.486 0.478092 -5.68393 0
M  V30 6397 O 618.42 -1.4546 -5.84059 0
M  V30 6398 H 622.246 -1.66456 -2.5402 0
M  V30 6399 H 619.831 -0.873026 -1.21238 0
M  V30 6400 H 621.713 0.130257 -4.21199 0
M  V30 6401 H 620.388 0.699823 -3.16045 0
M  V30 6402 H 619.295 -1.60725 -3.37814 0
M  V30 6403 H 620.628 -2.09685 -4.45301 0
M  V30 6404 N 622.28 1.30327 -0.886154 0
M  V30 6405 C 623.528 1.9571 -0.504195 0
M  V30 6406 C 623.849 1.70294 0.950003 0
M  V30 6407 O 623.119 1.02718 1.66811 0
M  V30 6408 H 621.699 0.72412 -0.183465 0
M  V30 6409 H 624.361 1.58835 -1.12949 0
M  V30 6410 H 623.457 3.04704 -0.675431 0
M  V30 6411 N 623.758 0.647228 1.43697 0
M  V30 6412 C 625.007 0.155552 2.01099 0
M  V30 6413 C 625.32 -1.23569 1.51624 0
M  V30 6414 O 626.526 -1.82226 2.01261 0
M  V30 6415 C 624.982 0.227296 3.59182 0
M  V30 6416 C 624.59 1.62086 4.17651 0
M  V30 6417 C 626.334 -0.207085 4.23995 0
M  V30 6418 C 624.241 1.64685 5.68008 0
M  V30 6419 H 623.171 0.0543895 0.752036 0
M  V30 6420 H 625.822 0.808386 1.64734 0
M  V30 6421 H 624.204 -0.492937 3.9292 0
M  V30 6422 H 625.378 2.36597 3.95422 0
M  V30 6423 H 623.693 2.0007 3.65186 0
M  V30 6424 H 626.29 -0.207426 5.34298 0
M  V30 6425 H 626.633 -1.23742 3.97484 0
M  V30 6426 H 627.166 0.461193 3.95118 0
M  V30 6427 H 623.905 2.65608 5.99277 0
M  V30 6428 H 623.425 0.944914 5.9231 0
M  V30 6429 H 625.104 1.38792 6.31938 0
M  V30 6430 N 625.236 -1.5273 0.388769 0
M  V30 6431 C 626.146 -2.30165 -0.453993 0
M  V30 6432 C 627.162 -1.37058 -1.07197 0
M  V30 6433 O 628.338 -1.70127 -1.0779 0
M  V30 6434 C 625.403 -3.09303 -1.56628 0
M  V30 6435 C 624.464 -4.18117 -0.973467 0
M  V30 6436 C 623.697 -4.93472 -2.03275 0
M  V30 6437 O 623.92 -4.68913 -3.24772 0
M  V30 6438 O 622.854 -5.78833 -1.65034 0
M  V30 6439 H 626.68 -3.03185 0.176816 0
M  V30 6440 H 624.265 -1.4862 0.152501 0
M  V30 6441 H 626.147 -3.58648 -2.21246 0
M  V30 6442 H 624.822 -2.39098 -2.18206 0
M  V30 6443 H 623.729 -3.7297 -0.290556 0
M  V30 6444 H 625.062 -4.90556 -0.401908 0
M  V30 6445 N 626.714 -0.118576 -1.57153 0
M  V30 6446 C 627.962 0.538461 -1.94795 0
M  V30 6447 C 628.283 1.67243 -1.00274 0
M  V30 6448 O 627.553 1.95811 -0.0589692 0
M  V30 6449 H 626.133 0.201904 -0.719197 0
M  V30 6450 H 628.795 -0.187418 -1.93997 0
M  V30 6451 H 627.891 0.933315 -2.97818 0
M  V30 6452 N 628.193 1.56834 0.155195 0
M  V30 6453 C 629.609 1.51315 0.50755 0
M  V30 6454 C 629.809 0.825614 1.83809 0
M  V30 6455 O 628.865 0.39271 2.49427 0
M  V30 6456 C 630.178 2.96074 0.52542 0
M  V30 6457 C 631.726 3.06968 0.611505 0
M  V30 6458 C 632.201 4.53218 0.660115 0
M  V30 6459 N 633.692 4.5753 0.722564 0
M  V30 6460 C 634.427 5.68056 0.781023 0
M  V30 6461 N 633.923 6.88173 0.799327 0
M  V30 6462 N 635.716 5.56068 0.821278 0
M  V30 6463 H 627.867 1.9993 -0.717063 0
M  V30 6464 H 630.13 0.911507 -0.260496 0
M  V30 6465 H 629.836 3.49599 -0.383875 0
M  V30 6466 H 629.71 3.51587 1.36624 0
M  V30 6467 H 632.097 2.53468 1.51122 0
M  V30 6468 H 632.178 2.54513 -0.256306 0
M  V30 6469 H 631.822 5.07354 -0.23541 0
M  V30 6470 H 631.752 5.03447 1.5443 0
M  V30 6471 H 634.243 3.71054 0.716049 0
M  V30 6472 H 634.556 7.6816 0.845553 0
M  V30 6473 H 632.901 6.90751 0.767337 0
M  V30 6474 H 636.092 4.61142 0.804091 0
M  V30 6475 H 636.265 6.42223 0.863372 0
M  V30 6476 N 629.671 -0.424282 1.51781 0
M  V30 6477 C 630.917 -1.17434 1.6534 0
M  V30 6478 C 631.25 -1.90549 0.374806 0
M  V30 6479 O 630.525 -1.84145 -0.626179 0
M  V30 6480 C 630.808 -2.18093 2.86544 0
M  V30 6481 C 630.661 -1.48975 4.24413 0
M  V30 6482 C 631.98 -3.18934 3.03264 0
M  V30 6483 H 629.099 -0.425566 0.601716 0
M  V30 6484 H 631.741 -0.461921 1.84299 0
M  V30 6485 H 629.891 -2.78849 2.7051 0
M  V30 6486 H 631.563 -0.914551 4.52143 0
M  V30 6487 H 629.806 -0.791893 4.26511 0
M  V30 6488 H 630.477 -2.22347 5.05238 0
M  V30 6489 H 632.953 -2.68243 3.18096 0
M  V30 6490 H 631.829 -3.86645 3.89611 0
M  V30 6491 H 632.09 -3.85793 2.15908 0
M  V30 6492 N 631.149 -1.42148 -0.680565 0
M  V30 6493 C 632.112 -1.4488 -1.77602 0
M  V30 6494 C 633.112 -0.337209 -1.57224 0
M  V30 6495 O 634.302 -0.597778 -1.63622 0
M  V30 6496 C 631.434 -1.27483 -3.16166 0
M  V30 6497 H 632.627 -2.42412 -1.76568 0
M  V30 6498 H 630.18 -1.28511 -0.889645 0
M  V30 6499 H 630.915 -0.30851 -3.22829 0
M  V30 6500 H 630.7 -2.08037 -3.3236 0
M  V30 6501 H 632.19 -1.32265 -3.96101 0
M  V30 6502 N 632.627 0.916307 -1.28225 0
M  V30 6503 C 633.857 1.69654 -1.17902 0
M  V30 6504 C 634.265 1.87331 0.265268 0
M  V30 6505 O 633.608 1.39828 1.19137 0
M  V30 6506 C 633.67 3.11024 -1.80289 0
M  V30 6507 C 633.334 3.16643 -3.29525 0
M  V30 6508 C 634.331 2.98032 -4.25997 0
M  V30 6509 C 632.016 3.39238 -3.70436 0
M  V30 6510 C 634.01 3.01924 -5.61356 0
M  V30 6511 C 631.697 3.42762 -5.05922 0
M  V30 6512 C 632.695 3.24125 -6.01192 0
M  V30 6513 O 632.383 3.27406 -7.34208 0
M  V30 6514 H 632.115 0.537197 -0.41036 0
M  V30 6515 H 634.669 1.15547 -1.69817 0
M  V30 6516 H 632.899 3.66662 -1.22865 0
M  V30 6517 H 634.588 3.71063 -1.6452 0
M  V30 6518 H 635.354 2.80405 -3.95725 0
M  V30 6519 H 631.233 3.52791 -2.96749 0
M  V30 6520 H 634.777 2.87295 -6.35694 0
M  V30 6521 H 630.674 3.59916 -5.35846 0
M  V30 6522 H 631.442 3.43784 -7.42802 0
M  V30 6523 N 634.105 1.10431 1.1244 0
M  V30 6524 C 635.052 0.753103 2.18167 0
M  V30 6525 C 636.022 -0.270549 1.63882 0
M  V30 6526 O 637.207 -0.149837 1.90211 0
M  V30 6527 C 634.347 0.191046 3.44571 0
M  V30 6528 C 633.46 1.26999 4.12911 0
M  V30 6529 C 632.595 0.669586 5.26963 0
M  V30 6530 C 631.634 1.72912 5.87169 0
M  V30 6531 N 630.771 1.14898 6.92635 0
M  V30 6532 H 635.611 1.65892 2.47556 0
M  V30 6533 H 633.148 0.828631 1.21541 0
M  V30 6534 H 635.106 -0.152712 4.1692 0
M  V30 6535 H 633.736 -0.677997 3.15599 0
M  V30 6536 H 632.788 1.73087 3.3874 0
M  V30 6537 H 634.1 2.07204 4.53727 0
M  V30 6538 H 633.254 0.275274 6.06075 0
M  V30 6539 H 631.993 -0.163895 4.87425 0
M  V30 6540 H 630.998 2.13286 5.06744 0
M  V30 6541 H 632.223 2.56544 6.28778 0
M  V30 6542 H 630.169 0.336956 6.55134 0
M  V30 6543 H 630.086 1.88786 7.32049 0
M  V30 6544 H 631.354 0.78121 7.75576 0
M  V30 6545 N 635.583 -1.29855 0.893053 0
M  V30 6546 C 636.831 -1.9544 0.514566 0
M  V30 6547 C 637.152 -1.70795 -0.940959 0
M  V30 6548 O 636.422 -1.03601 -1.66264 0
M  V30 6549 H 635.002 -0.723137 0.187302 0
M  V30 6550 H 637.664 -1.58234 1.13789 0
M  V30 6551 H 636.76 -3.04341 0.691581 0
M  V30 6552 N 637.061 -0.65484 -1.43351 0
M  V30 6553 C 638.024 0.0263562 -2.29185 0
M  V30 6554 C 639.024 0.748951 -1.42293 0
M  V30 6555 O 640.214 0.589957 -1.63906 0
M  V30 6556 C 637.346 1.04806 -3.2439 0
M  V30 6557 H 638.539 -0.728883 -2.90908 0
M  V30 6558 H 636.092 -0.416149 -1.50658 0
M  V30 6559 H 636.827 1.83247 -2.67565 0
M  V30 6560 H 636.612 0.533554 -3.88453 0
M  V30 6561 H 638.102 1.52372 -3.88809 0
M  V30 6562 N 638.539 1.52521 -0.396863 0
M  V30 6563 C 639.502 2.2527 0.422604 0
M  V30 6564 C 640.502 1.27184 0.983913 0
M  V30 6565 O 641.692 1.51222 0.864723 0
M  V30 6566 C 638.824 3.01356 1.59365 0
M  V30 6567 H 640.017 2.99133 -0.214416 0
M  V30 6568 H 637.57 1.55587 -0.149128 0
M  V30 6569 H 638.305 2.31813 2.26789 0
M  V30 6570 H 638.09 3.73357 1.19779 0
M  V30 6571 H 639.58 3.56571 2.17363 0
M  V30 6572 N 640.017 0.126909 1.57088 0
M  V30 6573 C 641.242 -0.53997 2.00248 0
M  V30 6574 C 641.667 -1.58927 1.00618 0
M  V30 6575 O 641.025 -1.81288 -0.0210131 0
M  V30 6576 C 641.073 -1.13565 3.4225 0
M  V30 6577 O 640.177 -2.25103 3.45547 0
M  V30 6578 H 639.518 -0.13412 0.650314 0
M  V30 6579 H 642.048 0.217718 2.03438 0
M  V30 6580 H 642.058 -1.46925 3.80627 0
M  V30 6581 H 640.733 -0.367122 4.14277 0
M  V30 6582 H 639.31 -1.93123 3.18995 0
M  V30 6583 N 641.495 -1.56914 -0.146875 0
M  V30 6584 C 642.772 -1.74273 -0.888165 0
M  V30 6585 C 643.152 -0.69496 -1.99333 0
M  V30 6586 O 642.5 0.286093 -2.26702 0
M  V30 6587 C 642.71 -3.18336 -1.43051 0
M  V30 6588 C 644.058 -3.80024 -1.89387 0
M  V30 6589 O 645.082 -3.21765 -1.52792 0
M  V30 6590 O 643.941 -4.82367 -2.56874 0
M  V30 6591 H 641.035 -0.712565 -0.419738 0
M  V30 6592 H 643.581 -1.6918 -0.132791 0
M  V30 6593 H 642.353 -3.86092 -0.636274 0
M  V30 6594 H 641.976 -3.27854 -2.24938 0
M  V30 6595 N 642.974 0.416227 -1.52004 0
M  V30 6596 C 644.223 1.16088 -1.64944 0
M  V30 6597 C 644.536 1.91835 -0.381928 0
M  V30 6598 O 645.742 2.6867 -0.391013 0
M  V30 6599 C 644.198 2.1124 -2.91386 0
M  V30 6600 C 643.806 1.41042 -4.25219 0
M  V30 6601 C 645.55 2.86008 -3.13688 0
M  V30 6602 C 643.457 2.34801 -5.42791 0
M  V30 6603 H 642.387 0.437041 -0.61442 0
M  V30 6604 H 645.038 0.425971 -1.78487 0
M  V30 6605 H 643.42 2.88254 -2.71525 0
M  V30 6606 H 644.594 0.694416 -4.55538 0
M  V30 6607 H 642.909 0.78344 -4.08964 0
M  V30 6608 H 645.506 3.56286 -3.98703 0
M  V30 6609 H 645.849 3.48556 -2.27628 0
M  V30 6610 H 646.382 2.16095 -3.33988 0
M  V30 6611 H 643.121 1.7691 -6.31176 0
M  V30 6612 H 642.641 3.04395 -5.16821 0
M  V30 6613 H 644.32 2.9548 -5.75587 0
M  V30 6614 N 644.452 1.42507 0.673017 0
M  V30 6615 C 645.698 1.43284 1.43519 0
M  V30 6616 C 646.031 0.049668 1.94136 0
M  V30 6617 O 645.306 -0.926369 1.71022 0
M  V30 6618 C 645.589 2.45874 2.63093 0
M  V30 6619 C 645.442 3.93388 2.18096 0
M  V30 6620 C 646.761 2.45431 3.6531 0
M  V30 6621 H 643.88 0.521752 0.520522 0
M  V30 6622 H 646.522 1.73932 0.764701 0
M  V30 6623 H 644.672 2.19869 3.20296 0
M  V30 6624 H 646.344 4.30379 1.66046 0
M  V30 6625 H 644.587 4.07169 1.49652 0
M  V30 6626 H 645.258 4.60752 3.03993 0
M  V30 6627 H 647.734 2.68561 3.17827 0
M  V30 6628 H 646.61 3.19189 4.46553 0
M  V30 6629 H 646.871 1.48092 4.16559 0
M  V30 6630 N 645.93 -0.909495 1.28709 0
M  V30 6631 C 647.177 -1.65905 1.16111 0
M  V30 6632 C 647.505 -1.92334 -0.289436 0
M  V30 6633 O 646.76 -1.52495 -1.22653 0
M  V30 6634 C 647.059 -3.02117 1.90945 0
M  V30 6635 C 646.725 -2.95332 3.40719 0
M  V30 6636 C 645.387 -2.93189 3.81567 0
M  V30 6637 C 647.739 -2.85264 4.36204 0
M  V30 6638 C 645.067 -2.78784 5.16233 0
M  V30 6639 C 647.419 -2.724 5.70948 0
M  V30 6640 C 646.083 -2.68617 6.11066 0
M  V30 6641 H 645.353 -0.60709 0.42488 0
M  V30 6642 H 648 -1.05932 1.59533 0
M  V30 6643 H 646.305 -3.65901 1.40085 0
M  V30 6644 H 648.002 -3.59026 1.7861 0
M  V30 6645 H 644.592 -2.97797 3.08245 0
M  V30 6646 H 648.776 -2.86005 4.05605 0
M  V30 6647 H 644.032 -2.74254 5.46438 0
M  V30 6648 H 648.206 -2.63579 6.44592 0
M  V30 6649 H 645.833 -2.57213 7.15364 0
M  V30 6650 N 647.408 -1.11026 -1.11852 0
M  V30 6651 C 648.34 -0.72249 -2.17515 0
M  V30 6652 C 649.353 0.243782 -1.60964 0
M  V30 6653 O 650.542 0.0273252 -1.78479 0
M  V30 6654 C 647.642 -0.0463979 -3.38868 0
M  V30 6655 C 646.815 -1.0384 -4.24895 0
M  V30 6656 C 645.874 -0.392659 -5.24733 0
M  V30 6657 O 644.9 -1.0453 -5.5952 0
M  V30 6658 N 646.102 0.846296 -5.74298 0
M  V30 6659 H 648.867 -1.63161 -2.51393 0
M  V30 6660 H 646.428 -0.999899 -1.27333 0
M  V30 6661 H 648.42 0.397215 -4.02746 0
M  V30 6662 H 646.99 0.765231 -3.03089 0
M  V30 6663 H 646.21 -1.6601 -3.57539 0
M  V30 6664 H 647.498 -1.70968 -4.79215 0
M  V30 6665 H 646.896 1.39578 -5.4821 0
M  V30 6666 H 645.453 1.23296 -6.40032 0
M  V30 6667 N 648.886 1.2938 -0.899927 0
M  V30 6668 C 649.819 2.25911 -0.322386 0
M  V30 6669 C 650.797 1.52447 0.565567 0
M  V30 6670 O 651.981 1.81404 0.512324 0
M  V30 6671 C 649.108 3.3436 0.540455 0
M  V30 6672 C 648.154 4.25579 -0.280211 0
M  V30 6673 S 648.987 5.08526 -1.67814 0
M  V30 6674 C 650.143 6.20476 -0.822224 0
M  V30 6675 H 650.376 2.7455 -1.1406 0
M  V30 6676 H 647.909 1.37606 -0.700285 0
M  V30 6677 H 649.867 3.97303 1.0325 0
M  V30 6678 H 648.528 2.84416 1.33291 0
M  V30 6679 H 647.721 5.02574 0.378915 0
M  V30 6680 H 647.323 3.67287 -0.705405 0
M  V30 6681 H 649.615 6.77485 -0.0457138 0
M  V30 6682 H 650.558 6.90606 -1.56426 0
M  V30 6683 H 650.966 5.63243 -0.37651 0
M  V30 6684 N 650.364 0.662433 1.43002 0
M  V30 6685 C 651.294 -0.00979809 2.33498 0
M  V30 6686 C 652.275 -0.802329 1.49989 0
M  V30 6687 O 653.46 -0.761964 1.78627 0
M  V30 6688 C 650.59 -0.970446 3.33466 0
M  V30 6689 C 649.544 -0.287383 4.27034 0
M  V30 6690 C 648.87 -1.36012 5.17112 0
M  V30 6691 C 650.17 0.82595 5.15728 0
M  V30 6692 H 651.864 0.745959 2.89958 0
M  V30 6693 H 649.41 0.360172 1.39423 0
M  V30 6694 H 651.363 -1.44971 3.95679 0
M  V30 6695 H 650.087 -1.75748 2.75282 0
M  V30 6696 H 648.746 0.17152 3.66199 0
M  V30 6697 H 648.394 -2.13882 4.55262 0
M  V30 6698 H 648.094 -0.908276 5.80538 0
M  V30 6699 H 649.618 -1.84056 5.82199 0
M  V30 6700 H 651.032 0.42845 5.71697 0
M  V30 6701 H 649.429 1.20282 5.87922 0
M  V30 6702 H 650.499 1.68003 4.54866 0
M  V30 6703 N 651.842 -1.52309 0.404946 0
M  V30 6704 C 653.09 -2.01368 -0.17186 0
M  V30 6705 C 653.411 -1.29261 -1.46002 0
M  V30 6706 O 652.681 -0.41729 -1.91404 0
M  V30 6707 H 651.261 -0.744034 -0.0664993 0
M  V30 6708 H 653.923 -1.87263 0.540228 0
M  V30 6709 H 653.019 -3.09888 -0.370957 0
M  V30 6710 N 653.32 -0.135238 -1.57019 0
M  V30 6711 C 654.568 0.51777 -1.95355 0
M  V30 6712 C 654.889 1.6617 -1.02042 0
M  V30 6713 O 654.159 1.95738 -0.0797343 0
M  V30 6714 H 652.739 0.194264 -0.721298 0
M  V30 6715 H 655.401 -0.207983 -1.93787 0
M  V30 6716 H 654.497 0.901675 -2.98791 0
M  V30 6717 N 654.798 1.5699 0.138552 0
M  V30 6718 C 656.047 1.82998 0.848205 0
M  V30 6719 C 656.36 0.717829 1.81952 0
M  V30 6720 O 657.566 0.863756 2.57394 0
M  V30 6721 C 656.022 3.24379 1.55904 0
M  V30 6722 C 655.63 4.43552 0.62971 0
M  V30 6723 C 657.374 3.59654 2.25498 0
M  V30 6724 C 655.281 5.75957 1.34266 0
M  V30 6725 H 654.211 0.682495 0.320495 0
M  V30 6726 H 656.862 1.83222 0.100924 0
M  V30 6727 H 655.244 3.18567 2.35226 0
M  V30 6728 H 656.418 4.6062 -0.128882 0
M  V30 6729 H 654.733 4.16379 0.0417526 0
M  V30 6730 H 657.33 4.55837 2.79493 0
M  V30 6731 H 657.673 2.86124 3.02388 0
M  V30 6732 H 658.206 3.67164 1.53087 0
M  V30 6733 H 654.945 6.52604 0.615441 0
M  V30 6734 H 654.465 5.62811 2.07375 0
M  V30 6735 H 656.144 6.19046 1.88126 0
M  V30 6736 N 656.276 -0.40816 1.52223 0
M  V30 6737 C 657.692 -0.74685 1.41047 0
M  V30 6738 C 657.892 -1.94788 0.51573 0
M  V30 6739 O 656.948 -2.52494 -0.0181156 0
M  V30 6740 C 658.261 -0.999878 2.83589 0
M  V30 6741 C 659.809 -1.10253 2.92939 0
M  V30 6742 C 660.284 -1.38832 4.36451 0
M  V30 6743 N 661.775 -1.45694 4.3969 0
M  V30 6744 C 662.51 -1.69435 5.47795 0
M  V30 6745 N 662.006 -1.90774 6.66016 0
M  V30 6746 N 663.799 -1.71458 5.35312 0
M  V30 6747 H 655.95 0.382409 2.08929 0
M  V30 6748 H 658.213 0.108807 0.941735 0
M  V30 6749 H 657.919 -0.189723 3.51188 0
M  V30 6750 H 657.793 -1.91978 3.24691 0
M  V30 6751 H 660.18 -1.90328 2.2552 0
M  V30 6752 H 660.261 -0.160973 2.55293 0
M  V30 6753 H 659.905 -0.592741 5.04429 0
M  V30 6754 H 659.835 -2.34241 4.71634 0
M  V30 6755 H 662.326 -1.3099 3.54472 0
M  V30 6756 H 662.639 -2.08342 7.44186 0
M  V30 6757 H 660.984 -1.88037 6.69079 0
M  V30 6758 H 664.175 -1.54326 4.41929 0
M  V30 6759 H 664.348 -1.89621 6.19635 0
M  V30 6760 N 657.755 -1.42862 -0.66545 0
M  V30 6761 C 658.98 -1.47456 -1.45848 0
M  V30 6762 C 659.405 -0.0900312 -1.87884 0
M  V30 6763 O 658.763 0.913587 -1.56599 0
M  V30 6764 C 658.811 -2.41514 -2.67774 0
M  V30 6765 O 657.915 -1.89296 -3.66389 0
M  V30 6766 H 657.256 -0.499236 -0.437789 0
M  V30 6767 H 659.786 -1.8765 -0.815394 0
M  V30 6768 H 659.796 -2.58409 -3.15735 0
M  V30 6769 H 658.471 -3.42099 -2.36519 0
M  V30 6770 H 657.048 -1.82003 -3.25468 0
M  V30 6771 N 659.233 0.902656 -1.29189 0
M  V30 6772 C 660.481 1.6496 -1.16758 0
M  V30 6773 C 660.802 1.92952 0.28188 0
M  V30 6774 O 660.072 1.55351 1.19344 0
M  V30 6775 H 658.652 0.611447 -0.429118 0
M  V30 6776 H 661.314 1.0825 -1.62074 0
M  V30 6777 H 660.41 2.60728 -1.71544 0
M  V30 6778 N 660.711 1.11618 1.11262 0
M  V30 6779 C 661.644 0.719995 2.16544 0
M  V30 6780 C 662.622 -0.28471 1.60088 0
M  V30 6781 O 663.806 -0.180693 1.87632 0
M  V30 6782 C 660.933 0.0643302 3.38639 0
M  V30 6783 C 659.979 1.03448 4.13764 0
M  V30 6784 S 660.812 2.55789 4.70459 0
M  V30 6785 C 661.968 1.91529 5.95875 0
M  V30 6786 H 662.201 1.61181 2.49816 0
M  V30 6787 H 659.734 0.934401 1.22916 0
M  V30 6788 H 661.692 -0.307609 4.09346 0
M  V30 6789 H 660.353 -0.804471 3.03623 0
M  V30 6790 H 659.546 0.523188 5.01277 0
M  V30 6791 H 659.148 1.34893 3.48826 0
M  V30 6792 H 661.44 1.25286 6.65815 0
M  V30 6793 H 662.383 2.77047 6.51652 0
M  V30 6794 H 662.791 1.37468 5.47506 0
M  V30 6795 N 662.189 -1.289 0.906776 0
M  V30 6796 C 663.437 -1.94883 0.535266 0
M  V30 6797 C 663.758 -1.71784 -0.922791 0
M  V30 6798 O 663.028 -1.05359 -1.65156 0
M  V30 6799 H 661.608 -0.721109 0.194962 0
M  V30 6800 H 664.27 -1.57018 1.15461 0
M  V30 6801 H 663.366 -3.03591 0.723821 0
M  V30 6802 N 663.667 -0.670007 -1.42649 0
M  V30 6803 C 664.897 -0.198252 -2.05647 0
M  V30 6804 C 665.305 1.14786 -1.50402 0
M  V30 6805 O 664.648 1.72316 -0.636634 0
M  V30 6806 C 664.71 -0.0507132 -3.59464 0
M  V30 6807 C 664.374 -1.32478 -4.37377 0
M  V30 6808 C 665.371 -2.2572 -4.68344 0
M  V30 6809 C 663.056 -1.57104 -4.77099 0
M  V30 6810 C 665.05 -3.4187 -5.37963 0
M  V30 6811 C 662.737 -2.73543 -5.46459 0
M  V30 6812 C 663.735 -3.65751 -5.76815 0
M  V30 6813 O 663.423 -4.80154 -6.44753 0
M  V30 6814 H 663.155 -0.0950721 -0.669281 0
M  V30 6815 H 665.709 -0.915745 -1.83857 0
M  V30 6816 H 663.939 0.722314 -3.79894 0
M  V30 6817 H 665.628 0.380552 -4.04112 0
M  V30 6818 H 666.394 -2.07943 -4.38161 0
M  V30 6819 H 662.273 -0.862069 -4.52868 0
M  V30 6820 H 665.817 -4.13861 -5.61574 0
M  V30 6821 H 661.714 -2.91248 -5.7606 0
M  V30 6822 H 662.482 -4.79637 -6.63243 0
M  V30 6823 N 665.145 1.52092 -0.413018 0
M  V30 6824 C 666.391 2.02154 0.161737 0
M  V30 6825 C 666.724 1.29789 1.44459 0
M  V30 6826 O 665.999 0.405378 1.90229 0
M  V30 6827 C 666.282 3.5781 0.405463 0
M  V30 6828 C 666.135 4.40819 -0.894335 0
M  V30 6829 C 667.454 4.23821 1.18591 0
M  V30 6830 H 664.573 0.734769 0.0573077 0
M  V30 6831 H 667.215 1.81948 -0.547247 0
M  V30 6832 H 665.365 3.75158 1.0094 0
M  V30 6833 H 667.037 4.35175 -1.53039 0
M  V30 6834 H 665.28 4.06877 -1.50444 0
M  V30 6835 H 665.951 5.47819 -0.678144 0
M  V30 6836 H 668.427 4.10596 0.674573 0
M  V30 6837 H 667.303 5.32663 1.3252 0
M  V30 6838 H 667.564 3.83038 2.20758 0
M  V30 6839 N 666.623 0.143563 1.56945 0
M  V30 6840 C 667.871 -0.507402 1.95627 0
M  V30 6841 C 668.192 -1.65626 1.02922 0
M  V30 6842 O 667.462 -1.95693 0.0901136 0
M  V30 6843 H 666.042 -0.190436 0.722318 0
M  V30 6844 H 668.704 0.218257 1.93674 0
M  V30 6845 H 667.8 -0.885816 2.99265 0
M  V30 6846 N 668.101 -1.57061 -0.130224 0
M  V30 6847 C 669.064 -1.98593 -1.14426 0
M  V30 6848 C 670.064 -0.874584 -1.34936 0
M  V30 6849 O 671.254 -1.14086 -1.31643 0
M  V30 6850 C 668.386 -2.31639 -2.50112 0
M  V30 6851 H 669.579 -2.89374 -0.787561 0
M  V30 6852 H 667.132 -1.51756 -0.374146 0
M  V30 6853 H 667.867 -1.43703 -2.90723 0
M  V30 6854 H 667.652 -3.12684 -2.36583 0
M  V30 6855 H 669.142 -2.64551 -3.23114 0
M  V30 6856 N 669.579 0.400081 -1.52437 0
M  V30 6857 C 670.827 1.14392 -1.6661 0
M  V30 6858 C 671.148 1.90792 -0.402927 0
M  V30 6859 O 670.418 1.87042 0.582425 0
M  V30 6860 H 668.998 0.425275 -0.614125 0
M  V30 6861 H 671.66 0.455076 -1.89513 0
M  V30 6862 H 670.756 1.85298 -2.51139 0
M  V30 6863 N 671.057 1.43213 0.657864 0
M  V30 6864 C 672.334 1.35063 1.41483 0
M  V30 6865 C 672.714 -0.0038314 2.111 0
M  V30 6866 O 672.062 -1.02018 2.04462 0
M  V30 6867 C 672.272 2.53061 2.40335 0
M  V30 6868 C 673.62 2.9594 3.04474 0
M  V30 6869 O 674.644 2.53074 2.50663 0
M  V30 6870 O 673.503 3.70184 4.02027 0
M  V30 6871 H 670.597 0.533517 0.631893 0
M  V30 6872 H 673.143 1.55253 0.685162 0
M  V30 6873 H 671.915 3.43283 1.87809 0
M  V30 6874 H 671.538 2.34945 3.20759 0
M  V30 6875 N 672.536 -0.895792 1.29666 0
M  V30 6876 C 673.785 -1.64131 1.17234 0
M  V30 6877 C 674.098 -1.93665 -0.274416 0
M  V30 6878 O 675.304 -2.66472 -0.520105 0
M  V30 6879 C 673.76 -2.95764 2.05065 0
M  V30 6880 C 673.368 -2.7381 3.54587 0
M  V30 6881 C 675.112 -3.737 2.01367 0
M  V30 6882 C 673.019 -4.01194 4.34508 0
M  V30 6883 H 671.949 -0.615742 0.435175 0
M  V30 6884 H 674.6 -0.992626 1.54335 0
M  V30 6885 H 672.982 -3.61867 1.60837 0
M  V30 6886 H 674.156 -2.16277 4.06892 0
M  V30 6887 H 672.471 -2.09265 3.59996 0
M  V30 6888 H 675.068 -4.68152 2.58337 0
M  V30 6889 H 675.411 -4.04245 0.994575 0
M  V30 6890 H 675.944 -3.14444 2.43659 0
M  V30 6891 H 672.683 -3.75813 5.37071 0
M  V30 6892 H 672.203 -4.58272 3.86971 0
M  V30 6893 H 673.882 -4.69307 4.45376 0
M  V30 6894 N 674.014 -1.12206 -1.10668 0
M  V30 6895 C 674.946 -0.74552 -2.16736 0
M  V30 6896 C 675.959 0.226696 -1.61214 0
M  V30 6897 O 677.148 0.0083936 -1.78498 0
M  V30 6898 C 674.248 -0.0823368 -3.388 0
M  V30 6899 C 673.421 -1.08341 -4.2377 0
M  V30 6900 C 672.48 -0.448292 -5.24287 0
M  V30 6901 O 671.506 -1.10458 -5.58379 0
M  V30 6902 N 672.708 0.785336 -5.75163 0
M  V30 6903 H 675.473 -1.65818 -2.49649 0
M  V30 6904 H 673.034 -1.01335 -1.26265 0
M  V30 6905 H 675.026 0.354476 -4.03145 0
M  V30 6906 H 673.596 0.733041 -3.03884 0
M  V30 6907 H 672.816 -1.69792 -3.55759 0
M  V30 6908 H 674.104 -1.76042 -4.77375 0
M  V30 6909 H 673.502 1.33755 -5.4966 0
M  V30 6910 H 672.059 1.16501 -6.41304 0
M  V30 6911 N 675.492 1.28418 -0.913599 0
M  V30 6912 C 676.402 2.31043 -0.406965 0
M  V30 6913 C 677.418 1.66501 0.505298 0
M  V30 6914 O 678.594 1.97558 0.391522 0
M  V30 6915 C 675.659 3.4498 0.344901 0
M  V30 6916 C 674.72 4.25078 -0.600563 0
M  V30 6917 C 673.953 5.33575 0.115516 0
M  V30 6918 O 674.176 5.54503 1.33727 0
M  V30 6919 O 673.11 5.9939 -0.549095 0
M  V30 6920 H 676.936 2.76387 -1.25873 0
M  V30 6921 H 674.521 1.33109 -0.678415 0
M  V30 6922 H 676.403 4.14314 0.769542 0
M  V30 6923 H 675.078 3.01719 1.1725 0
M  V30 6924 H 673.985 3.58334 -1.0746 0
M  V30 6925 H 675.318 4.72018 -1.39497 0
M  V30 6926 N 676.97 0.677563 1.42291 0
M  V30 6927 C 677.9 0.014968 2.33495 0
M  V30 6928 C 678.881 -0.786376 1.50831 0
M  V30 6929 O 680.066 -0.742975 1.79426 0
M  V30 6930 C 677.196 -0.935023 3.34477 0
M  V30 6931 C 676.15 -0.242074 4.27315 0
M  V30 6932 C 675.476 -1.30519 5.18526 0
M  V30 6933 C 676.776 0.880604 5.14823 0
M  V30 6934 H 678.47 0.776671 2.89151 0
M  V30 6935 H 676.016 0.37494 1.39033 0
M  V30 6936 H 677.969 -1.40766 3.97194 0
M  V30 6937 H 676.693 -1.72818 2.77131 0
M  V30 6938 H 675.352 0.210351 3.65996 0
M  V30 6939 H 675 -2.09041 4.57505 0
M  V30 6940 H 674.7 -0.846652 5.81468 0
M  V30 6941 H 676.224 -1.7787 5.84119 0
M  V30 6942 H 677.638 0.489062 5.7121 0
M  V30 6943 H 676.035 1.26511 5.86613 0
M  V30 6944 H 677.105 1.72818 4.53059 0
M  V30 6945 N 678.448 -1.51871 0.421078 0
M  V30 6946 C 679.398 -2.24171 -0.416111 0
M  V30 6947 C 680.382 -1.25763 -1.00362 0
M  V30 6948 O 681.574 -1.5094 -0.924452 0
M  V30 6949 C 678.703 -3.07533 -1.52571 0
M  V30 6950 C 677.789 -4.1336 -0.948399 0
M  V30 6951 N 678.18 -5.05704 -0.0987933 0
M  V30 6952 C 676.478 -4.29055 -1.21768 0
M  V30 6953 C 677.179 -5.8127 0.223705 0
M  V30 6954 N 676.155 -5.4221 -0.388524 0
M  V30 6955 H 679.957 -2.92925 0.239166 0
M  V30 6956 H 677.471 -1.60732 0.232191 0
M  V30 6957 H 679.468 -3.57893 -2.13819 0
M  V30 6958 H 678.128 -2.4032 -2.18349 0
M  V30 6959 H 679.139 -5.17214 0.266428 0
M  V30 6960 H 675.816 -3.73071 -1.87416 0
M  V30 6961 H 677.206 -6.65653 0.914076 0
M  V30 6962 N 679.926 -0.151884 -1.56866 0
M  V30 6963 C 680.836 0.798876 -2.20579 0
M  V30 6964 C 681.852 1.268 -1.19154 0
M  V30 6965 O 683.028 1.32418 -1.51748 0
M  V30 6966 C 680.093 2.01861 -2.81874 0
M  V30 6967 C 679.154 1.59825 -3.9844 0
M  V30 6968 C 678.387 2.75984 -4.56802 0
M  V30 6969 O 678.61 3.92331 -4.14044 0
M  V30 6970 O 677.544 2.51175 -5.46987 0
M  V30 6971 H 681.37 0.2865 -3.02346 0
M  V30 6972 H 678.955 0.0753806 -1.4921 0
M  V30 6973 H 680.837 2.73235 -3.20813 0
M  V30 6974 H 679.512 2.52042 -2.03117 0
M  V30 6975 H 678.419 0.854601 -3.64208 0
M  V30 6976 H 679.752 1.14355 -4.78731 0
M  V30 6977 N 681.404 1.57128 0.121893 0
M  V30 6978 C 682.352 2.01109 1.16868 0
M  V30 6979 C 683.346 0.907532 1.43039 0
M  V30 6980 O 684.552 1.09274 1.43036 0
M  V30 6981 H 680.927 0.640539 0.393971 0
M  V30 6982 H 682.898 2.88261 0.771224 0
M  V30 6983 C 681.647 2.42887 2.48799 0
M  V30 6984 H 680.97 3.2737 2.29498 0
M  V30 6985 H 682.41 2.77461 3.20611 0
M  V30 6986 C 680.869 1.29137 3.11168 0
M  V30 6987 O 681.399 0.605756 3.97106 0
M  V30 6988 N 679.605 1.04916 2.71 0
M  V30 6989 H 679.152 1.60848 2.01211 0
M  V30 6990 H 679.11 0.290016 3.1306 0
M  V30 6991 N 682.882 -0.391992 1.52647 0
M  V30 6992 C 683.845 -1.46135 1.7657 0
M  V30 6993 C 684.845 -1.47701 0.635698 0
M  V30 6994 O 686.035 -1.48924 0.903728 0
M  V30 6995 C 683.167 -2.85443 1.86374 0
M  V30 6996 H 684.36 -1.26208 2.72051 0
M  V30 6997 H 681.913 -0.623549 1.43323 0
M  V30 6998 H 682.648 -3.10718 0.928685 0
M  V30 6999 H 682.433 -2.85708 2.68539 0
M  V30 7000 H 683.923 -3.62933 2.06566 0
M  V30 7001 N 684.36 -1.4356 -0.65026 0
M  V30 7002 C 685.292 -1.44918 -1.77571 0
M  V30 7003 C 686.305 -0.344925 -1.59104 0
M  V30 7004 O 687.494 -0.609537 -1.6777 0
M  V30 7005 C 684.594 -1.24914 -3.15039 0
M  V30 7006 C 683.767 -2.48232 -3.60138 0
M  V30 7007 C 682.826 -2.23409 -4.76419 0
M  V30 7008 O 681.852 -2.9678 -4.85706 0
M  V30 7009 N 683.054 -1.25259 -5.66825 0
M  V30 7010 H 685.819 -2.41935 -1.76883 0
M  V30 7011 H 683.38 -1.38754 -0.834202 0
M  V30 7012 H 685.372 -1.06185 -3.90521 0
M  V30 7013 H 683.942 -0.363319 -3.10481 0
M  V30 7014 H 683.162 -2.82366 -2.75069 0
M  V30 7015 H 684.45 -3.30296 -3.87017 0
M  V30 7016 H 683.848 -0.646246 -5.61997 0
M  V30 7017 H 682.405 -1.12513 -6.42016 0
M  V30 7018 N 685.838 0.888903 -1.30139 0
M  V30 7019 C 687.085 1.64037 -1.18736 0
M  V30 7020 C 687.413 1.92771 0.258801 0
M  V30 7021 O 686.668 1.54427 1.20212 0
M  V30 7022 C 686.967 2.99041 -1.95728 0
M  V30 7023 C 686.633 2.89874 -3.45375 0
M  V30 7024 C 685.295 2.87082 -3.86183 0
M  V30 7025 C 687.647 2.78289 -4.40687 0
M  V30 7026 C 684.975 2.70536 -5.20603 0
M  V30 7027 C 687.327 2.63282 -5.75209 0
M  V30 7028 C 685.991 2.58861 -6.15262 0
M  V30 7029 H 685.261 0.600253 -0.434485 0
M  V30 7030 H 687.908 1.0338 -1.61198 0
M  V30 7031 H 686.213 3.63626 -1.45888 0
M  V30 7032 H 687.91 3.56139 -1.843 0
M  V30 7033 H 684.5 2.92856 -3.12943 0
M  V30 7034 H 688.684 2.79516 -4.10103 0
M  V30 7035 H 683.94 2.65526 -5.50732 0
M  V30 7036 H 688.114 2.5329 -6.48704 0
M  V30 7037 H 685.741 2.45799 -7.19366 0
M  V30 7038 N 687.317 1.12792 1.10072 0
M  V30 7039 C 688.563 0.886857 1.82381 0
M  V30 7040 C 688.896 -0.58576 1.85155 0
M  V30 7041 O 688.171 -1.43317 1.31493 0
M  V30 7042 C 688.454 1.46703 3.28862 0
M  V30 7043 C 688.307 3.00829 3.34398 0
M  V30 7044 C 689.626 1.12971 4.25353 0
M  V30 7045 H 686.745 0.32362 0.662148 0
M  V30 7046 H 689.387 1.39513 1.28982 0
M  V30 7047 H 687.537 1.03476 3.74466 0
M  V30 7048 H 689.209 3.52764 2.97247 0
M  V30 7049 H 687.452 3.36164 2.74183 0
M  V30 7050 H 688.123 3.36519 4.3756 0
M  V30 7051 H 690.599 1.50313 3.88001 0
M  V30 7052 H 689.475 1.56223 5.26199 0
M  V30 7053 H 689.736 0.0424452 4.4208 0
M  V30 7054 N 688.795 -1.27931 0.920396 0
M  V30 7055 C 689.705 -2.30824 0.419212 0
M  V30 7056 C 690.721 -1.66767 -0.496461 0
M  V30 7057 O 691.897 -1.97763 -0.38104 0
M  V30 7058 C 688.962 -3.45158 -0.326601 0
M  V30 7059 C 688.023 -4.24754 0.623098 0
M  V30 7060 C 687.256 -5.33629 -0.0872172 0
M  V30 7061 O 687.479 -5.55204 -1.30784 0
M  V30 7062 O 686.413 -5.99091 0.580875 0
M  V30 7063 H 690.239 -2.75716 1.27337 0
M  V30 7064 H 687.824 -1.32747 0.685465 0
M  V30 7065 H 689.706 -4.14716 -0.747559 0
M  V30 7066 H 688.381 -3.02336 -1.15648 0
M  V30 7067 H 687.288 -3.57759 1.09359 0
M  V30 7068 H 688.621 -4.71272 1.41998 0
M  V30 7069 N 690.273 -0.685099 -1.4193 0
M  V30 7070 C 691.206 0.0371639 -2.2817 0
M  V30 7071 C 692.184 0.798436 -1.41647 0
M  V30 7072 O 693.368 0.791428 -1.71081 0
M  V30 7073 C 690.495 1.05993 -3.21688 0
M  V30 7074 C 689.541 0.393043 -4.24685 0
M  V30 7075 S 690.374 -0.856921 -5.28599 0
M  V30 7076 C 691.53 0.164508 -6.25684 0
M  V30 7077 H 691.763 -0.694305 -2.89079 0
M  V30 7078 H 689.296 -0.474999 -1.46912 0
M  V30 7079 H 691.254 1.64489 -3.76103 0
M  V30 7080 H 689.915 1.7639 -2.59895 0
M  V30 7081 H 689.108 1.16513 -4.90348 0
M  V30 7082 H 688.71 -0.118589 -3.73812 0
M  V30 7083 H 691.002 1.02106 -6.69762 0
M  V30 7084 H 691.945 -0.457917 -7.06618 0
M  V30 7085 H 692.353 0.514596 -5.6215 0
M  V30 7086 N 691.751 1.51645 -0.429126 0
M  V30 7087 C 692.976 2.06917 0.141399 0
M  V30 7088 C 693.401 1.29527 1.36398 0
M  V30 7089 O 692.759 0.33094 1.78254 0
M  V30 7090 C 692.807 3.57776 0.4504 0
M  V30 7091 O 691.911 3.82639 1.53821 0
M  V30 7092 H 691.252 0.663978 0.0054647 0
M  V30 7093 H 693.782 1.95355 -0.608093 0
M  V30 7094 H 693.792 4.01894 0.703249 0
M  V30 7095 H 692.467 4.13532 -0.443213 0
M  V30 7096 H 691.044 3.5039 1.27597 0
M  V30 7097 N 693.229 0.160201 1.56784 0
M  V30 7098 C 694.477 -0.486625 1.96154 0
M  V30 7099 C 694.798 -1.64525 1.04673 0
M  V30 7100 O 694.068 -1.95586 0.110864 0
M  V30 7101 H 692.648 -0.182764 0.724297 0
M  V30 7102 H 695.31 0.238787 1.93432 0
M  V30 7103 H 694.406 -0.854025 3.00188 0
M  V30 7104 N 694.707 -1.5719 -0.113559 0
M  V30 7105 C 695.67 -1.99796 -1.12314 0
M  V30 7106 C 696.67 -0.888847 -1.34001 0
M  V30 7107 O 697.86 -1.15476 -1.30426 0
M  V30 7108 C 694.992 -2.34279 -2.47641 0
M  V30 7109 H 696.185 -2.90193 -0.756825 0
M  V30 7110 H 693.738 -1.52144 -0.358029 0
M  V30 7111 H 694.473 -1.46778 -2.89183 0
M  V30 7112 H 694.258 -3.15175 -2.33253 0
M  V30 7113 H 695.748 -2.67963 -3.2029 0
M  V30 7114 N 696.185 0.383891 -1.52853 0
M  V30 7115 C 697.433 1.12619 -1.67814 0
M  V30 7116 C 697.754 1.90354 -0.423141 0
M  V30 7117 O 697.024 1.87649 0.562554 0
M  V30 7118 H 695.604 0.418738 -0.618601 0
M  V30 7119 H 698.266 0.43495 -1.89985 0
M  V30 7120 H 697.362 1.82624 -2.5309 0
M  V30 7121 N 697.663 1.43903 0.642637 0
M  V30 7122 C 698.593 1.52697 1.76652 0
M  V30 7123 C 699.574 0.380816 1.65782 0
M  V30 7124 O 700.759 0.599432 1.84717 0
M  V30 7125 C 697.889 1.45975 3.15133 0
M  V30 7126 C 696.843 2.58949 3.40778 0
M  V30 7127 C 696.169 2.37279 4.79169 0
M  V30 7128 C 697.469 4.01153 3.34475 0
M  V30 7129 H 699.163 2.46766 1.69549 0
M  V30 7130 H 696.709 1.18767 0.814279 0
M  V30 7131 H 698.662 1.5073 3.93521 0
M  V30 7132 H 697.386 0.484162 3.22991 0
M  V30 7133 H 696.045 2.53564 2.64765 0
M  V30 7134 H 695.693 1.37939 4.83717 0
M  V30 7135 H 695.393 3.13016 4.97287 0
M  V30 7136 H 696.917 2.43834 5.59801 0
M  V30 7137 H 698.331 4.07968 4.02784 0
M  V30 7138 H 696.728 4.77001 3.64129 0
M  V30 7139 H 697.798 4.25539 2.32475 0
M  V30 7140 N 699.141 -0.881989 1.30609 0
M  V30 7141 C 700.39 -1.62878 1.18969 0
M  V30 7142 C 700.703 -1.93946 -0.253859 0
M  V30 7143 O 701.909 -2.67008 -0.491813 0
M  V30 7144 C 700.365 -2.93573 2.0819 0
M  V30 7145 C 699.973 -2.70034 3.57471 0
M  V30 7146 C 701.717 -3.71543 2.0532 0
M  V30 7147 C 699.624 -3.96563 4.38739 0
M  V30 7148 H 698.554 -0.611092 0.441682 0
M  V30 7149 H 701.205 -0.976201 1.55379 0
M  V30 7150 H 699.587 -3.6014 1.64666 0
M  V30 7151 H 700.761 -2.11949 4.09163 0
M  V30 7152 H 699.076 -2.05435 3.62195 0
M  V30 7153 H 701.673 -4.65386 2.63288 0
M  V30 7154 H 702.016 -4.03167 1.03739 0
M  V30 7155 H 702.549 -3.11842 2.46981 0
M  V30 7156 H 699.288 -3.70095 5.41027 0
M  V30 7157 H 698.808 -4.54142 3.9181 0
M  V30 7158 H 700.487 -4.64557 4.50329 0
M  V30 7159 N 700.619 -1.13374 -1.09472 0
M  V30 7160 C 701.529 -0.824029 -2.19652 0
M  V30 7161 C 702.545 0.19118 -1.72947 0
M  V30 7162 O 703.721 0.0223464 -2.01388 0
M  V30 7163 C 700.786 -0.294009 -3.45451 0
M  V30 7164 C 699.847 -1.3704 -4.0684 0
M  V30 7165 C 699.08 -0.86558 -5.26634 0
M  V30 7166 O 699.303 0.29702 -5.69626 0
M  V30 7167 O 698.237 -1.63968 -5.79136 0
M  V30 7168 H 702.063 -1.74454 -2.48595 0
M  V30 7169 H 699.648 -0.911155 -1.18399 0
M  V30 7170 H 701.53 -0.00381039 -4.214 0
M  V30 7171 H 700.205 0.598921 -3.18111 0
M  V30 7172 H 699.112 -1.71391 -3.3253 0
M  V30 7173 H 700.445 -2.23746 -4.38405 0
M  V30 7174 N 702.098 1.27442 -0.927168 0
M  V30 7175 C 703.323 1.99036 -0.583042 0
M  V30 7176 C 703.748 1.68711 0.83176 0
M  V30 7177 O 703.106 0.927081 1.55804 0
M  V30 7178 C 703.154 3.51271 -0.814925 0
M  V30 7179 O 702.258 4.12226 0.119742 0
M  V30 7180 H 701.599 0.624883 -0.224538 0
M  V30 7181 H 704.129 1.62263 -1.24628 0
M  V30 7182 H 704.139 4.01411 -0.730282 0
M  V30 7183 H 702.814 3.72676 -1.84623 0
M  V30 7184 H 701.391 3.72897 -0.0147688 0
M  V30 7185 N 703.576 0.692616 1.41565 0
M  V30 7186 C 704.526 0.00231847 2.28 0
M  V30 7187 C 705.51 -0.755793 1.42044 0
M  V30 7188 O 706.702 -0.631772 1.65341 0
M  V30 7189 C 703.831 -0.935468 3.30309 0
M  V30 7190 C 702.917 -0.173761 4.23744 0
M  V30 7191 N 703.308 0.830872 4.98929 0
M  V30 7192 C 701.606 -0.409666 4.44115 0
M  V30 7193 C 702.307 1.28656 5.67294 0
M  V30 7194 N 701.283 0.613053 5.40132 0
M  V30 7195 H 705.085 0.772635 2.83562 0
M  V30 7196 H 702.599 0.523198 1.53741 0
M  V30 7197 H 704.596 -1.44513 3.91052 0
M  V30 7198 H 703.256 -1.70542 2.76307 0
M  V30 7199 H 704.267 1.21101 5.03542 0
M  V30 7200 H 700.944 -1.15773 4.01127 0
M  V30 7201 H 702.334 2.12006 6.37576 0
M  V30 7202 N 705.054 -1.51416 0.437162 0
M  V30 7203 C 706.465 -1.86682 -0.0260005 0
M  V30 7204 C 706.816 -1.35432 -1.4196 0
M  V30 7205 O 705.941 -0.705055 -2.04592 0
M  V30 7206 C 706.536 -3.38757 -0.0539577 0
M  V30 7207 C 705.095 -3.7356 -0.461532 0
M  V30 7208 C 704.242 -2.75134 0.345924 0
M  V30 7209 H 707.193 -1.44642 0.653013 0
M  V30 7210 H 707.214 -3.70573 -0.863478 0
M  V30 7211 H 706.726 -3.76028 0.96045 0
M  V30 7212 H 704.827 -3.41878 -1.48155 0
M  V30 7213 H 704.94 -4.78737 -0.186451 0
M  V30 7214 H 703.304 -2.53947 -0.195739 0
M  V30 7215 H 704.087 -3.15247 1.35921 0
M  V30 7216 N 706.532 -0.168513 -1.56696 0
M  V30 7217 C 707.482 0.7751 -2.14421 0
M  V30 7218 C 708.466 1.19476 -1.07769 0
M  V30 7219 O 709.658 1.15759 -1.33898 0
M  V30 7220 C 706.787 2.00549 -2.7863 0
M  V30 7221 C 705.873 1.60795 -3.92436 0
M  V30 7222 N 706.264 0.919812 -4.97366 0
M  V30 7223 C 704.562 1.89917 -4.03544 0
M  V30 7224 C 705.263 0.724485 -5.77171 0
M  V30 7225 N 704.239 1.26505 -5.28675 0
M  V30 7226 H 708.041 0.240349 -2.92916 0
M  V30 7227 H 705.555 0.0322675 -1.62368 0
M  V30 7228 H 707.552 2.6917 -3.1836 0
M  V30 7229 H 706.212 2.54522 -2.01615 0
M  V30 7230 H 707.223 0.578169 -5.14663 0
M  V30 7231 H 703.9 2.45587 -3.37629 0
M  V30 7232 H 705.29 0.180521 -6.71657 0
M  V30 7233 N 708.01 1.57248 0.105221 0
M  V30 7234 C 709.287 1.76566 0.841647 0
M  V30 7235 C 709.667 0.747566 1.9742 0
M  V30 7236 O 709.015 -0.225886 2.27381 0
M  V30 7237 C 709.225 3.22016 1.3456 0
M  V30 7238 C 710.573 3.84911 1.79244 0
M  V30 7239 O 711.597 3.25703 1.44207 0
M  V30 7240 O 710.456 4.89008 2.43995 0
M  V30 7241 H 707.55 0.723443 0.400698 0
M  V30 7242 H 710.096 1.69472 0.0878893 0
M  V30 7243 H 708.868 3.87644 0.533685 0
M  V30 7244 H 708.491 3.33703 2.16167 0
M  V30 7245 N 709.488 -0.375779 1.53054 0
M  V30 7246 C 710.734 -1.12114 1.68992 0
M  V30 7247 C 711.067 -1.8926 0.435238 0
M  V30 7248 O 710.342 -1.86044 -0.567278 0
M  V30 7249 C 710.625 -2.08867 2.93337 0
M  V30 7250 C 710.478 -1.35397 4.28938 0
M  V30 7251 C 711.797 -3.09124 3.13257 0
M  V30 7252 H 708.916 -0.406207 0.614951 0
M  V30 7253 H 711.558 -0.403054 1.85676 0
M  V30 7254 H 709.708 -2.70102 2.79244 0
M  V30 7255 H 711.38 -0.770242 4.54824 0
M  V30 7256 H 709.623 -0.655801 4.28814 0
M  V30 7257 H 710.294 -2.06161 5.12056 0
M  V30 7258 H 712.77 -2.57987 3.26469 0
M  V30 7259 H 711.646 -3.74054 4.01715 0
M  V30 7260 H 711.907 -3.78729 2.28072 0
M  V30 7261 N 710.966 -1.44241 -0.634997 0
M  V30 7262 C 711.898 -1.46793 -1.76024 0
M  V30 7263 C 712.911 -0.361781 -1.58729 0
M  V30 7264 O 714.1 -0.627297 -1.67114 0
M  V30 7265 C 711.2 -1.28248 -3.13697 0
M  V30 7266 C 710.373 -2.52038 -3.57485 0
M  V30 7267 C 709.432 -2.2845 -4.74022 0
M  V30 7268 O 708.458 -3.01915 -4.82531 0
M  V30 7269 N 709.66 -1.31264 -5.65464 0
M  V30 7270 H 712.425 -2.43797 -1.74307 0
M  V30 7271 H 709.986 -1.39631 -0.819438 0
M  V30 7272 H 711.978 -1.10321 -3.89373 0
M  V30 7273 H 710.548 -0.39623 -3.10079 0
M  V30 7274 H 709.768 -2.85268 -2.72059 0
M  V30 7275 H 711.056 -3.34382 -3.83492 0
M  V30 7276 H 710.454 -0.705817 -5.6128 0
M  V30 7277 H 709.011 -1.19316 -6.40786 0
M  V30 7278 N 712.444 0.87505 -1.31075 0
M  V30 7279 C 713.693 1.62245 -1.19831 0
M  V30 7280 C 714.006 1.94078 0.24357 0
M  V30 7281 O 715.212 2.67265 0.477646 0
M  V30 7282 C 713.668 2.92464 -2.09744 0
M  V30 7283 C 713.276 2.68134 -3.58898 0
M  V30 7284 C 715.02 3.70449 -2.07287 0
M  V30 7285 C 712.927 3.9423 -4.40836 0
M  V30 7286 H 711.857 0.608741 -0.444916 0
M  V30 7287 H 714.508 0.967947 -1.55894 0
M  V30 7288 H 712.89 3.59262 -1.66574 0
M  V30 7289 H 714.064 2.09776 -4.10281 0
M  V30 7290 H 712.379 2.03511 -3.6328 0
M  V30 7291 H 714.976 4.63983 -2.65752 0
M  V30 7292 H 715.319 4.02611 -1.05876 0
M  V30 7293 H 715.852 3.10528 -2.48631 0
M  V30 7294 H 712.591 3.67221 -5.42982 0
M  V30 7295 H 712.111 4.52058 -3.94213 0
M  V30 7296 H 713.79 4.62162 -4.52786 0
M  V30 7297 N 713.922 1.13953 1.08869 0
M  V30 7298 C 715.15 0.92817 1.84912 0
M  V30 7299 C 715.565 -0.523197 1.81406 0
M  V30 7300 O 714.922 -1.36237 1.21432 0
M  V30 7301 C 714.973 1.41509 3.32652 0
M  V30 7302 O 714.694 2.80959 3.36145 0
M  V30 7303 C 716.195 1.243 4.25517 0
M  V30 7304 H 713.415 0.330612 0.583898 0
M  V30 7305 H 715.959 1.51349 1.37527 0
M  V30 7306 H 714.114 0.872648 3.77444 0
M  V30 7307 H 714.528 3.02704 4.28335 0
M  V30 7308 H 716.002 1.63237 5.27312 0
M  V30 7309 H 716.479 0.18532 4.38809 0
M  V30 7310 H 717.085 1.77375 3.86546 0
M  V30 7311 N 715.4 -1.26948 0.933913 0
M  V30 7312 C 716.348 -2.2862 0.428463 0
M  V30 7313 C 717.342 -1.62144 -0.490464 0
M  V30 7314 O 718.548 -1.76167 -0.36948 0
M  V30 7315 H 714.923 -0.742363 0.120003 0
M  V30 7316 H 716.894 -2.68659 1.29865 0
M  V30 7317 C 715.643 -3.46423 -0.29774 0
M  V30 7318 H 714.966 -3.97792 0.400183 0
M  V30 7319 H 716.406 -4.19505 -0.615736 0
M  V30 7320 C 714.865 -3.01017 -1.51295 0
M  V30 7321 O 715.395 -3.05226 -2.61151 0
M  V30 7322 N 713.601 -2.56442 -1.36696 0
M  V30 7323 H 713.148 -2.53217 -0.473178 0
M  V30 7324 H 713.106 -2.26424 -2.18127 0
M  V30 7325 N 716.879 -0.700114 -1.41195 0
M  V30 7326 C 717.789 -0.0382854 -2.34569 0
M  V30 7327 C 718.805 0.761036 -1.56474 0
M  V30 7328 O 719.981 0.697553 -1.88934 0
M  V30 7329 C 717.046 0.883522 -3.35253 0
M  V30 7330 C 716.107 0.0758957 -4.29233 0
M  V30 7331 C 715.34 0.9538 -5.25108 0
M  V30 7332 O 715.563 2.19326 -5.26547 0
M  V30 7333 O 714.497 0.401049 -6.00562 0
M  V30 7334 H 718.323 -0.808073 -2.92752 0
M  V30 7335 H 715.908 -0.460479 -1.42127 0
M  V30 7336 H 717.79 1.41199 -3.9704 0
M  V30 7337 H 716.465 1.63272 -2.79506 0
M  V30 7338 H 715.372 -0.497274 -3.7078 0
M  V30 7339 H 716.705 -0.634741 -4.8809 0
M  V30 7340 N 718.357 1.51182 -0.445186 0
M  V30 7341 C 719.32 2.26501 0.350722 0
M  V30 7342 C 720.32 1.3025 0.942952 0
M  V30 7343 O 721.51 1.53897 0.816175 0
M  V30 7344 C 718.642 3.06274 1.49697 0
M  V30 7345 H 719.835 2.98299 -0.309474 0
M  V30 7346 H 717.388 1.55034 -0.198551 0
M  V30 7347 H 718.123 2.38911 2.19299 0
M  V30 7348 H 717.908 3.76979 1.0784 0
M  V30 7349 H 719.398 3.63306 2.05909 0
M  V30 7350 N 719.835 0.176821 1.56605 0
M  V30 7351 C 721.246 -0.338963 1.83597 0
M  V30 7352 C 721.597 -1.62677 1.09684 0
M  V30 7353 O 720.722 -2.13524 0.351661 0
M  V30 7354 C 721.317 -0.62177 3.33046 0
M  V30 7355 C 719.876 -1.08198 3.60514 0
M  V30 7356 C 719.023 -0.120774 2.77037 0
M  V30 7357 H 721.974 0.400978 1.53551 0
M  V30 7358 H 721.995 -1.47321 3.50823 0
M  V30 7359 H 721.507 0.315692 3.86814 0
M  V30 7360 H 719.608 -2.03435 3.12162 0
M  V30 7361 H 719.721 -0.987329 4.68816 0
M  V30 7362 H 718.085 -0.619192 2.47059 0
M  V30 7363 H 718.868 0.810806 3.33588 0
M  V30 7364 N 721.313 -1.57302 -0.09688 0
M  V30 7365 C 722.261 -2.02942 -1.13654 0
M  V30 7366 C 723.255 -0.930173 -1.41577 0
M  V30 7367 O 724.461 -1.11535 -1.41279 0
M  V30 7368 H 720.836 -0.646726 -0.383731 0
M  V30 7369 H 722.807 -2.89452 -0.725267 0
M  V30 7370 C 721.556 -2.46815 -2.44903 0
M  V30 7371 H 720.879 -3.30979 -2.24261 0
M  V30 7372 H 722.319 -2.82527 -3.16156 0
M  V30 7373 C 720.778 -1.34071 -3.09074 0
M  V30 7374 O 721.308 -0.668856 -3.96092 0
M  V30 7375 N 719.514 -1.09214 -2.69296 0
M  V30 7376 H 719.061 -1.64029 -1.98626 0
M  V30 7377 H 719.019 -0.339785 -3.12559 0
M  V30 7378 N 722.791 0.367657 -1.53252 0
M  V30 7379 C 724.021 1.12955 -1.72988 0
M  V30 7380 C 724.429 1.8358 -0.457708 0
M  V30 7381 O 723.772 1.74336 0.579006 0
M  V30 7382 C 723.834 2.20545 -2.83902 0
M  V30 7383 C 723.498 1.69704 -4.24323 0
M  V30 7384 C 724.495 1.16223 -5.06743 0
M  V30 7385 C 722.18 1.7528 -4.70725 0
M  V30 7386 C 724.174 0.689935 -6.33655 0
M  V30 7387 C 721.861 1.27662 -5.97617 0
M  V30 7388 C 722.859 0.746083 -6.78913 0
M  V30 7389 O 722.547 0.276925 -8.03423 0
M  V30 7390 H 722.279 0.343753 -0.582074 0
M  V30 7391 H 724.833 0.433106 -2.00782 0
M  V30 7392 H 723.063 2.93676 -2.51577 0
M  V30 7393 H 724.752 2.82111 -2.91836 0
M  V30 7394 H 725.518 1.11256 -4.72067 0
M  V30 7395 H 721.397 2.15515 -4.07522 0
M  V30 7396 H 724.941 0.275164 -6.97057 0
M  V30 7397 H 720.838 1.32322 -6.31792 0
M  V30 7398 H 721.606 0.396445 -8.17539 0
M  V30 7399 N 724.269 1.44576 0.627338 0
M  V30 7400 C 725.494 1.51271 1.41887 0
M  V30 7401 C 725.919 0.139814 1.8758 0
M  V30 7402 O 725.277 -0.871746 1.58966 0
M  V30 7403 C 725.325 2.48529 2.61277 0
M  V30 7404 O 724.429 1.98944 3.61241 0
M  V30 7405 H 723.77 0.510668 0.424399 0
M  V30 7406 H 726.3 1.89746 0.765356 0
M  V30 7407 H 726.31 2.66689 3.08773 0
M  V30 7408 H 724.985 3.48249 2.27366 0
M  V30 7409 H 723.562 1.90568 3.20528 0
M  V30 7410 N 725.747 -0.868086 1.31537 0
M  V30 7411 C 726.993 -1.62367 1.2151 0
M  V30 7412 C 727.326 -1.92883 -0.225819 0
M  V30 7413 O 726.601 -1.56176 -1.15927 0
M  V30 7414 C 726.884 -2.95268 2.06129 0
M  V30 7415 C 726.737 -2.71619 3.58529 0
M  V30 7416 C 728.056 -3.96391 1.91212 0
M  V30 7417 H 725.175 -0.589178 0.442762 0
M  V30 7418 H 727.817 -1.00336 1.61347 0
M  V30 7419 H 725.967 -3.4821 1.72284 0
M  V30 7420 H 727.639 -2.25334 4.0252 0
M  V30 7421 H 725.882 -2.05817 3.81866 0
M  V30 7422 H 726.553 -3.66192 4.13047 0
M  V30 7423 H 729.029 -3.52663 2.20834 0
M  V30 7424 H 727.905 -4.87263 2.52718 0
M  V30 7425 H 728.166 -4.33335 0.875953 0
M  V30 7426 N 727.225 -1.14528 -1.08264 0
M  V30 7427 C 728.175 -0.802141 -2.13424 0
M  V30 7428 C 729.159 0.209362 -1.59532 0
M  V30 7429 O 730.351 0.0114859 -1.76996 0
M  V30 7430 C 727.48 -0.282938 -3.42132 0
M  V30 7431 C 726.566 -1.32405 -4.02902 0
M  V30 7432 N 726.957 -2.52861 -4.38058 0
M  V30 7433 C 725.255 -1.17462 -4.30254 0
M  V30 7434 C 725.956 -3.1952 -4.86088 0
M  V30 7435 N 724.932 -2.46921 -4.84284 0
M  V30 7436 H 728.734 -1.71843 -2.38426 0
M  V30 7437 H 726.248 -1.02936 -1.2561 0
M  V30 7438 H 728.245 -0.0188053 -4.16896 0
M  V30 7439 H 726.905 0.627533 -3.18578 0
M  V30 7440 H 727.916 -2.90078 -4.2904 0
M  V30 7441 H 724.593 -0.323283 -4.16246 0
M  V30 7442 H 725.983 -4.2223 -5.22658 0
M  V30 7443 O 728.742 1.2085 -1.07133 0
M  V30 7444 H 729.433 1.78311 -0.756635 0
M  V30 END ATOM
M  V30 BEGIN BOND
M  V30 END BOND
M  V30 END CTAB
M  END
$$$$
