drugbank_target|O60674 Tyrosine-protein kinase JAK2 (DB04716; DB05243; DB07161; DB07162; DB08067; DB08877; DB08895; DB11817; DB11986; DB12010; DB12500; DB15035; DB15822)
 OpenBabel12092120143D

  0  0  0     0  0            999 V3000
M  V30 BEGIN CTAB
M  V30 COUNTS 18284 18498 0 0 0
M  V30 BEGIN ATOM
M  V30 1 H -0.908 1.98254 -0.117106 0
M  V30 2 N 0 1.576 0 0
M  V30 3 C 0.933 2.03868 1.02534 0
M  V30 4 C 1.911 0.928543 1.3348 0
M  V30 5 O 3.095 1.19667 1.45644 0
M  V30 6 C 0.222 2.43627 2.35294 0
M  V30 7 C -0.732 3.65373 2.2001 0
M  V30 8 S 0.101 5.13292 1.52614 0
M  V30 9 C 1.257 5.56322 2.86805 0
M  V30 10 H 1.49 2.90518 0.631377 0
M  V30 11 H -0.977 1.52953 0.210867 0
M  V30 12 H 0.981 2.67203 3.11629 0
M  V30 13 H -0.358 1.57376 2.7183 0
M  V30 14 H -1.165 3.90944 3.18086 0
M  V30 15 H -1.563 3.418 1.51819 0
M  V30 16 H 0.729 5.58782 3.83104 0
M  V30 17 H 1.672 6.56266 2.65933 0
M  V30 18 H 2.08 4.83886 2.90714 0
M  V30 19 N 1.4781 -0.272755 1.55222 0
M  V30 20 C 2.7261 -1.00234 1.75492 0
M  V30 21 C 3.0471 -1.8681 0.5592 0
M  V30 22 O 2.3171 -1.91215 -0.425882 0
M  V30 23 H 0.8971 -0.373076 0.647166 0
M  V30 24 H 3.5591 -0.296926 1.92625 0
M  V30 25 H 2.6551 -1.63913 2.65592 0
M  V30 26 N 2.9562 -1.48159 -0.537278 0
M  V30 27 C 3.8892 -1.567 -1.65893 0
M  V30 28 C 4.8672 -0.41787 -1.57139 0
M  V30 29 O 6.0512 -0.628461 -1.77715 0
M  V30 30 C 3.1782 -1.48818 -3.04255 0
M  V30 31 C 2.2242 -2.68482 -3.31391 0
M  V30 32 S 3.0572 -4.30516 -3.1846 0
M  V30 33 C 4.2132 -4.2522 -4.59281 0
M  V30 34 H 4.4462 -2.5159 -1.58397 0
M  V30 35 H 1.9792 -1.36602 -0.719672 0
M  V30 36 H 3.9372 -1.44958 -3.84054 0
M  V30 37 H 2.5982 -0.552777 -3.09198 0
M  V30 38 H 1.7912 -2.59085 -4.32309 0
M  V30 39 H 1.3932 -2.69567 -2.59248 0
M  V30 40 H 3.6852 -3.94703 -5.5065 0
M  V30 41 H 4.6282 -5.26292 -4.73732 0
M  V30 42 H 5.0362 -3.55791 -4.38261 0
M  V30 43 N 4.4343 0.785586 -1.36625 0
M  V30 44 C 5.3973 1.87999 -1.31107 0
M  V30 45 C 6.3973 1.59316 -0.217959 0
M  V30 46 O 7.5873 1.67656 -0.472977 0
M  V30 47 C 4.7193 3.24861 -1.03334 0
M  V30 48 H 5.9123 1.94307 -2.2844 0
M  V30 49 H 3.4653 0.983813 -1.21453 0
M  V30 50 H 4.2003 3.24235 -0.0647432 0
M  V30 51 H 3.9853 3.4707 -1.82441 0
M  V30 52 H 5.4753 4.04929 -1.02088 0
M  V30 53 N 5.9124 1.20967 1.01018 0
M  V30 54 C 7.1524 1.03511 1.76252 0
M  V30 55 C 7.5164 -0.42458 1.87247 0
M  V30 56 O 8.7174 -0.719508 2.58991 0
M  V30 57 C 6.9884 1.70726 3.13986 0
M  V30 58 S 8.5474 1.68458 4.05176 0
M  V30 59 H 5.3654 0.371037 0.606508 0
M  V30 60 H 7.9674 1.53628 1.20908 0
M  V30 61 H 6.6714 2.76128 3.03614 0
M  V30 62 H 6.2024 1.20767 3.74405 0
M  V30 63 H 8.2174 0.721987 4.90919 0
M  V30 64 N 7.3905 -1.2043 1.01659 0
M  V30 65 C 8.3205 -2.25466 0.607226 0
M  V30 66 C 9.3015 -1.65853 -0.377716 0
M  V30 67 O 10.4865 -1.92409 -0.263149 0
M  V30 68 C 7.6165 -3.47256 -0.0552949 0
M  V30 69 C 6.5705 -4.19462 0.850632 0
M  V30 70 C 5.8965 -5.34673 0.0538859 0
M  V30 71 C 7.1965 -4.75603 2.15868 0
M  V30 72 H 8.8905 -2.59962 1.48526 0
M  V30 73 H 6.4365 -1.2496 0.715605 0
M  V30 74 H 8.3895 -4.19917 -0.353233 0
M  V30 75 H 7.1135 -3.11924 -0.968045 0
M  V30 76 H 5.7725 -3.48667 1.13257 0
M  V30 77 H 5.4205 -4.95585 -0.860514 0
M  V30 78 H 5.1205 -5.83913 0.657192 0
M  V30 79 H 6.6445 -6.10138 -0.237598 0
M  V30 80 H 8.0585 -5.40083 1.92311 0
M  V30 81 H 6.4555 -5.3528 2.71284 0
M  V30 82 H 7.5255 -3.94346 2.82169 0
M  V30 83 N 8.8686 -0.792821 -1.36206 0
M  V30 84 C 10.0966 -0.378825 -2.03402 0
M  V30 85 C 10.5116 1.00586 -1.59774 0
M  V30 86 O 9.8686 1.64574 -0.788764 0
M  V30 87 C 9.9196 -0.43683 -3.58851 0
M  V30 88 O 9.6406 -1.76691 -4.00889 0
M  V30 89 C 11.1416 -0.0138943 -4.43298 0
M  V30 90 H 8.3616 -0.155673 -0.652692 0
M  V30 91 H 10.9056 -1.07261 -1.74113 0
M  V30 92 H 9.0606 0.208575 -3.86838 0
M  V30 93 H 9.4746 -1.72011 -4.95492 0
M  V30 94 H 10.9486 -0.105615 -5.51899 0
M  V30 95 H 11.4256 1.03915 -4.2673 0
M  V30 96 H 12.0316 -0.63192 -4.20579 0
M  V30 97 N 10.3467 1.47872 -0.545128 0
M  V30 98 C 11.2797 2.2675 0.256885 0
M  V30 99 C 12.2577 1.33293 0.931228 0
M  V30 100 O 13.4417 1.62657 0.95262 0
M  V30 101 C 10.5687 3.09976 1.36501 0
M  V30 102 C 9.6147 4.1892 0.800496 0
M  V30 103 S 10.4477 5.34397 -0.343505 0
M  V30 104 C 11.6037 6.21186 0.766733 0
M  V30 105 H 11.8367 2.94425 -0.412479 0
M  V30 106 H 9.3697 1.50806 -0.331204 0
M  V30 107 H 11.3277 3.585 1.9997 0
M  V30 108 H 9.9887 2.41686 2.00616 0
M  V30 109 H 9.1817 4.76836 1.63227 0
M  V30 110 H 8.7837 3.73215 0.242217 0
M  V30 111 H 11.0757 6.56804 1.66178 0
M  V30 112 H 12.0187 7.07742 0.225204 0
M  V30 113 H 12.4267 5.54574 1.05396 0
M  V30 114 N 11.8248 0.280983 1.55075 0
M  V30 115 C 13.0528 -0.337293 2.04132 0
M  V30 116 C 13.4678 -1.4903 1.15912 0
M  V30 117 O 12.8248 -1.81606 0.180459 0
M  V30 118 C 12.8758 -0.812706 3.52246 0
M  V30 119 O 12.5968 0.294387 4.3711 0
M  V30 120 C 14.0978 -1.4982 4.17216 0
M  V30 121 H 11.3178 -0.0761638 0.666663 0
M  V30 122 H 13.8618 0.414787 2.00249 0
M  V30 123 H 12.0168 -1.51486 3.56554 0
M  V30 124 H 12.4308 -0.0721325 5.2445 0
M  V30 125 H 13.9048 -1.7822 5.22438 0
M  V30 126 H 14.3818 -2.43168 3.65741 0
M  V30 127 H 14.9878 -0.839742 4.16927 0
M  V30 128 N 13.3029 -1.57598 0.00835791 0
M  V30 129 C 14.2129 -2.12385 -0.996487 0
M  V30 130 C 15.2289 -1.07108 -1.37127 0
M  V30 131 O 16.4049 -1.39055 -1.4569 0
M  V30 132 C 13.4699 -2.62314 -2.26699 0
M  V30 133 C 12.5309 -3.82225 -1.95456 0
M  V30 134 C 11.7639 -4.29763 -3.16449 0
M  V30 135 O 11.9869 -3.76584 -4.28416 0
M  V30 136 O 10.9209 -5.21832 -2.99958 0
M  V30 137 H 14.7469 -2.98479 -0.560725 0
M  V30 138 H 12.3319 -1.47903 -0.210987 0
M  V30 139 H 14.2139 -2.94589 -3.01322 0
M  V30 140 H 12.8889 -1.79313 -2.69497 0
M  V30 141 H 11.7959 -3.54909 -1.18282 0
M  V30 142 H 13.1289 -4.66324 -1.57489 0
M  V30 143 N 14.781 0.264519 -1.55364 0
M  V30 144 C 15.714 1.35297 -1.83766 0
M  V30 145 C 16.692 1.47171 -0.691336 0
M  V30 146 O 17.876 1.63663 -0.935238 0
M  V30 147 C 15.003 2.72847 -2.00679 0
M  V30 148 C 14.049 2.78214 -3.23263 0
M  V30 149 S 14.882 2.36601 -4.80396 0
M  V30 150 C 16.038 3.7611 -5.00292 0
M  V30 151 H 16.271 1.11003 -2.758 0
M  V30 152 H 13.804 0.464596 -1.47244 0
M  V30 153 H 15.762 3.52057 -2.11108 0
M  V30 154 H 14.423 2.94388 -1.09518 0
M  V30 155 H 13.616 3.7919 -3.3201 0
M  V30 156 H 13.218 2.07034 -3.11469 0
M  V30 157 H 15.51 4.71457 -4.86554 0
M  V30 158 H 16.453 3.7231 -6.02321 0
M  V30 159 H 16.861 3.67806 -4.28228 0
M  V30 160 N 16.2591 1.48442 0.529413 0
M  V30 161 C 17.1691 1.6569 1.66084 0
M  V30 162 C 18.1851 0.539432 1.65427 0
M  V30 163 O 19.3611 0.810572 1.84368 0
M  V30 164 C 16.4261 1.69315 3.02545 0
M  V30 165 C 15.4871 2.92694 3.14052 0
M  V30 166 C 14.7201 2.96137 4.44003 0
M  V30 167 O 14.9431 2.07973 5.31134 0
M  V30 168 O 13.8771 3.88312 4.59888 0
M  V30 169 H 17.7031 2.61483 1.54469 0
M  V30 170 H 15.2881 1.3185 0.702567 0
M  V30 171 H 17.1701 1.74217 3.83701 0
M  V30 172 H 15.8451 0.766966 3.14483 0
M  V30 173 H 14.7521 2.93324 2.32189 0
M  V30 174 H 16.0851 3.84699 3.0703 0
M  V30 175 N 17.7372 -0.778329 1.37039 0
M  V30 176 C 18.9852 -1.53361 1.31623 0
M  V30 177 C 19.3062 -1.94739 -0.100831 0
M  V30 178 O 18.5762 -1.65797 -1.04347 0
M  V30 179 H 17.1562 -0.568794 0.484234 0
M  V30 180 H 19.8182 -0.926742 1.71457 0
M  V30 181 H 18.9142 -2.43606 1.95096 0
M  V30 182 N 19.2153 -1.21501 -1.00376 0
M  V30 183 C 20.4433 -1.059 -1.77744 0
M  V30 184 C 20.8583 0.391125 -1.84704 0
M  V30 185 O 20.2153 1.27133 -1.30933 0
M  V30 186 C 20.2663 -1.65111 -3.21591 0
M  V30 187 O 19.9873 -3.0445 -3.15027 0
M  V30 188 C 21.4883 -1.54637 -4.15454 0
M  V30 189 H 18.7083 -0.371825 -0.558558 0
M  V30 190 H 21.2523 -1.60865 -1.26264 0
M  V30 191 H 19.4073 -1.14235 -3.70175 0
M  V30 192 H 19.8213 -3.3278 -4.0541 0
M  V30 193 H 21.2953 -2.00808 -5.14179 0
M  V30 194 H 21.7723 -0.501022 -4.36333 0
M  V30 195 H 22.3783 -2.04767 -3.72761 0
M  V30 196 N 20.6934 1.19889 -1.02296 0
M  V30 197 C 21.9184 1.9393 -0.735237 0
M  V30 198 C 22.3434 1.74639 0.698782 0
M  V30 199 O 21.7014 1.04481 1.48167 0
M  V30 200 C 21.7494 3.43916 -1.08417 0
M  V30 201 O 20.8534 4.11917 -0.199446 0
M  V30 202 H 20.1944 0.605645 -0.272196 0
M  V30 203 H 22.7244 1.52137 -1.36804 0
M  V30 204 H 22.7344 3.9456 -1.03856 0
M  V30 205 H 21.4094 3.5728 -2.12894 0
M  V30 206 H 19.9864 3.71666 -0.303136 0
M  V30 207 N 22.1715 0.800033 1.35784 0
M  V30 208 C 23.3995 0.389606 2.03199 0
M  V30 209 C 23.8145 -0.997375 1.60306 0
M  V30 210 O 23.1715 -1.64154 0.797481 0
M  V30 211 C 23.2225 0.455855 3.58614 0
M  V30 212 O 22.9435 1.78815 3.99946 0
M  V30 213 C 24.4445 0.0374032 4.43284 0
M  V30 214 H 21.6645 0.159132 0.651857 0
M  V30 215 H 24.2085 1.08183 1.73541 0
M  V30 216 H 22.3635 -0.188057 3.86943 0
M  V30 217 H 22.7775 1.74636 4.94573 0
M  V30 218 H 24.2515 0.134882 5.51835 0
M  V30 219 H 24.7285 -1.01651 4.27275 0
M  V30 220 H 25.3345 0.654215 4.20238 0
M  V30 221 N 23.6496 -1.47581 0.552962 0
M  V30 222 C 24.8746 -2.07378 0.0300593 0
M  V30 223 C 25.2996 -1.40355 -1.25229 0
M  V30 224 O 24.6576 -0.477099 -1.7491 0
M  V30 225 C 24.7056 -3.60274 -0.153231 0
M  V30 226 O 23.8096 -3.94041 -1.21678 0
M  V30 227 H 23.1506 -0.662158 0.0494182 0
M  V30 228 H 25.6806 -1.89662 0.767434 0
M  V30 229 H 25.6906 -4.0633 -0.368761 0
M  V30 230 H 24.3656 -4.08455 0.783397 0
M  V30 231 H 22.9426 -3.59735 -0.982079 0
M  V30 232 N 25.1277 -0.289203 -1.54924 0
M  V30 233 C 26.3527 0.329299 -2.04769 0
M  V30 234 C 26.7777 1.4763 -1.16564 0
M  V30 235 O 26.1357 1.80527 -0.167186 0
M  V30 236 C 26.1837 0.774438 -3.52186 0
M  V30 237 O 25.2877 1.88038 -3.67036 0
M  V30 238 H 24.6287 0.0659259 -0.660719 0
M  V30 239 H 27.1587 -0.42761 -2.00082 0
M  V30 240 H 27.1687 1.06642 -3.93816 0
M  V30 241 H 25.8437 -0.0646707 -4.1585 0
M  V30 242 H 24.4207 1.58985 -3.3731 0
M  V30 243 N 26.6058 1.57591 -0.0167156 0
M  V30 244 C 27.8548 1.90461 0.663877 0
M  V30 245 C 28.1678 0.893515 1.73999 0
M  V30 246 O 29.3738 1.11302 2.47637 0
M  V30 247 C 27.8298 3.38155 1.23204 0
M  V30 248 C 27.4378 4.47597 0.189866 0
M  V30 249 C 29.1818 3.80111 1.88986 0
M  V30 250 C 27.0888 5.86379 0.768964 0
M  V30 251 H 26.0188 0.710738 0.251729 0
M  V30 252 H 28.6698 1.83326 -0.0799926 0
M  V30 253 H 27.0518 3.40182 2.02712 0
M  V30 254 H 28.2258 4.57112 -0.581846 0
M  V30 255 H 26.5408 4.14766 -0.368475 0
M  V30 256 H 29.1378 4.81145 2.33247 0
M  V30 257 H 29.4808 3.14511 2.72743 0
M  V30 258 H 30.0138 3.80454 1.16187 0
M  V30 259 H 26.7528 6.55493 -0.0301957 0
M  V30 260 H 26.2728 5.80496 1.50945 0
M  V30 261 H 27.9518 6.34563 1.26251 0
M  V30 262 N 28.0839 -0.256276 1.55502 0
M  V30 263 C 29.3139 -1.00196 1.80677 0
M  V30 264 C 29.7219 -1.79805 0.588797 0
M  V30 265 O 29.0649 -1.78055 -0.451883 0
M  V30 266 C 29.1269 -1.99515 2.99055 0
M  V30 267 C 28.7909 -1.38688 4.35448 0
M  V30 268 C 29.7879 -0.794079 5.138 0
M  V30 269 C 27.4729 -1.40906 4.82132 0
M  V30 270 C 29.4669 -0.231562 6.36979 0
M  V30 271 C 27.1539 -0.842684 6.05262 0
M  V30 272 C 28.1519 -0.254953 6.82524 0
M  V30 273 O 27.8399 0.3027 8.0333 0
M  V30 274 H 27.5719 -0.300919 0.60533 0
M  V30 275 H 30.1259 -0.287307 2.03381 0
M  V30 276 H 28.3559 -2.74785 2.72084 0
M  V30 277 H 30.0449 -2.60349 3.11405 0
M  V30 278 H 30.8109 -0.769519 4.78856 0
M  V30 279 H 26.6899 -1.85591 4.21992 0
M  V30 280 H 30.2339 0.227816 6.97228 0
M  V30 281 H 26.1309 -0.86454 6.39684 0
M  V30 282 H 26.8989 0.193662 8.18271 0
M  V30 283 N 29.562 -1.4872 -0.521534 0
M  V30 284 C 30.494 -1.59968 -1.64143 0
M  V30 285 C 31.507 -0.483463 -1.55456 0
M  V30 286 O 32.696 -0.75467 -1.61762 0
M  V30 287 C 29.796 -1.52127 -3.02838 0
M  V30 288 C 28.969 -2.78932 -3.36921 0
M  V30 289 C 28.028 -2.64428 -4.54933 0
M  V30 290 O 27.054 -3.38331 -4.57735 0
M  V30 291 N 28.256 -1.74606 -5.53618 0
M  V30 292 H 31.021 -2.56548 -1.54929 0
M  V30 293 H 28.582 -1.45551 -0.708988 0
M  V30 294 H 30.574 -1.40106 -3.79674 0
M  V30 295 H 29.144 -0.634868 -3.06085 0
M  V30 296 H 28.364 -3.05455 -2.4918 0
M  V30 297 H 29.652 -3.63041 -3.56481 0
M  V30 298 H 29.05 -1.13782 -5.54139 0
M  V30 299 H 27.607 -1.6852 -6.29638 0
M  V30 300 N 31.0401 0.771051 -1.3745 0
M  V30 301 C 31.9881 1.90574 -1.33358 0
M  V30 302 C 32.9821 1.67936 -0.22224 0
M  V30 303 O 34.1881 1.75717 -0.390304 0
M  V30 304 H 30.5631 0.626714 -0.415612 0
M  V30 305 H 32.5341 1.91142 -2.29144 0
M  V30 306 C 31.2831 3.27845 -1.15813 0
M  V30 307 H 30.6061 3.45842 -2.00583 0
M  V30 308 H 32.0461 4.07538 -1.17 0
M  V30 309 C 30.5051 3.36625 0.136165 0
M  V30 310 O 31.0351 3.85785 1.11949 0
M  V30 311 N 29.2411 2.89997 0.187099 0
M  V30 312 H 28.7881 2.50182 -0.613753 0
M  V30 313 H 28.7461 2.96252 1.05272 0
M  V30 314 N 32.5182 1.22032 0.997298 0
M  V30 315 C 33.7662 1.04016 1.73278 0
M  V30 316 C 34.0872 -0.426255 1.90284 0
M  V30 317 O 33.3572 -1.30694 1.45931 0
M  V30 318 H 31.9372 0.381897 0.642 0
M  V30 319 H 34.5992 1.5347 1.20137 0
M  V30 320 H 33.6952 1.51441 2.72896 0
M  V30 321 N 33.9963 -1.19345 1.0293 0
M  V30 322 C 35.2733 -1.84811 0.640642 0
M  V30 323 C 35.6533 -1.91855 -0.88062 0
M  V30 324 O 35.0013 -1.43587 -1.7775 0
M  V30 325 C 35.2113 -3.23755 1.30321 0
M  V30 326 C 36.5593 -3.99912 1.42673 0
M  V30 327 O 37.5833 -3.33155 1.26041 0
M  V30 328 O 36.4423 -5.19494 1.6967 0
M  V30 329 H 33.5363 -0.796443 0.222726 0
M  V30 330 H 36.0823 -1.26831 1.12748 0
M  V30 331 H 34.8543 -3.13466 2.34211 0
M  V30 332 H 34.4773 -3.89381 0.804261 0
M  V30 333 N 35.4744 -0.807222 -1.35358 0
M  V30 334 C 36.7234 -0.384376 -1.98004 0
M  V30 335 C 37.0364 1.0543 -1.64754 0
M  V30 336 O 38.2424 1.58029 -2.20769 0
M  V30 337 C 36.6984 -0.636326 -3.5423 0
M  V30 338 C 36.3064 -2.08759 -3.96388 0
M  V30 339 C 38.0504 -0.278869 -4.23583 0
M  V30 340 C 35.9574 -2.28525 -5.45463 0
M  V30 341 H 34.8874 -0.139986 -0.740891 0
M  V30 342 H 37.5384 -0.991369 -1.54415 0
M  V30 343 H 35.9204 0.0406256 -3.95979 0
M  V30 344 H 37.0944 -2.8024 -3.6579 0
M  V30 345 H 35.4094 -2.40497 -3.39926 0
M  V30 346 H 38.0064 -0.404599 -5.33167 0
M  V30 347 H 38.3494 0.775012 -4.09022 0
M  V30 348 H 38.8824 -0.909764 -3.87257 0
M  V30 349 H 35.6214 -3.32361 -5.64992 0
M  V30 350 H 35.1414 -1.61569 -5.77629 0
M  V30 351 H 36.8204 -2.10109 -6.11934 0
M  V30 352 N 36.9525 1.47285 -0.560781 0
M  V30 353 C 38.1775 2.07359 -0.0410566 0
M  V30 354 C 38.6025 1.41017 1.24483 0
M  V30 355 O 37.9605 0.486368 1.74654 0
M  V30 356 C 38.0085 3.6035 0.134123 0
M  V30 357 O 37.1125 3.94681 1.19587 0
M  V30 358 H 36.4535 0.661887 -0.0529291 0
M  V30 359 H 38.9835 1.89252 -0.777482 0
M  V30 360 H 38.9935 4.0652 0.347207 0
M  V30 361 H 37.6685 4.08034 -0.805047 0
M  V30 362 H 36.2455 3.60251 0.962987 0
M  V30 363 N 38.4306 0.297415 1.54768 0
M  V30 364 C 39.6786 -0.312295 1.99673 0
M  V30 365 C 39.9996 -1.54686 1.18732 0
M  V30 366 O 39.2696 -1.93854 0.282382 0
M  V30 367 H 37.8496 -0.118381 0.73756 0
M  V30 368 H 40.5116 0.407915 1.90583 0
M  V30 369 H 39.6076 -0.586813 3.06534 0
M  V30 370 N 39.9087 -1.5758 0.0250728 0
M  V30 371 C 40.8567 -2.11125 -0.97617 0
M  V30 372 C 41.8507 -1.03689 -1.33959 0
M  V30 373 O 43.0567 -1.22128 -1.3223 0
M  V30 374 H 39.4317 -0.674468 -0.332561 0
M  V30 375 H 41.4027 -2.94194 -0.499223 0
M  V30 376 C 40.1517 -2.65017 -2.2508 0
M  V30 377 H 39.4747 -3.47333 -1.9799 0
M  V30 378 H 40.9147 -3.06133 -2.93357 0
M  V30 379 C 39.3737 -1.57574 -2.97779 0
M  V30 380 O 39.9037 -0.973203 -3.89733 0
M  V30 381 N 38.1097 -1.29716 -2.60043 0
M  V30 382 H 37.6567 -1.789 -1.85345 0
M  V30 383 H 37.6147 -0.58051 -3.08994 0
M  V30 384 N 41.3868 0.248026 -1.55636 0
M  V30 385 C 42.3498 1.29044 -1.89421 0
M  V30 386 C 43.3498 1.41134 -0.770581 0
M  V30 387 O 44.5398 1.39854 -1.03858 0
M  V30 388 C 41.6718 2.66831 -2.12165 0
M  V30 389 H 42.8648 1.00305 -2.82629 0
M  V30 390 H 40.4178 0.487265 -1.48511 0
M  V30 391 H 41.1528 3.00711 -1.21422 0
M  V30 392 H 40.9378 2.59438 -2.93997 0
M  V30 393 H 42.4278 3.42103 -2.3949 0
M  V30 394 N 42.8649 1.48995 0.513639 0
M  V30 395 C 43.8129 1.65199 1.63744 0
M  V30 396 C 44.8069 0.51809 1.61283 0
M  V30 397 O 46.0129 0.697335 1.65943 0
M  V30 398 H 42.3879 0.52069 0.542574 0
M  V30 399 H 44.3589 2.59552 1.47226 0
M  V30 400 C 43.1079 1.72409 3.01945 0
M  V30 401 H 42.4309 2.59029 3.04539 0
M  V30 402 H 43.8709 1.87785 3.80148 0
M  V30 403 C 42.3299 0.46618 3.33659 0
M  V30 404 O 42.8599 -0.413744 3.99564 0
M  V30 405 N 41.0659 0.332931 2.88687 0
M  V30 406 H 40.6129 1.04996 2.35231 0
M  V30 407 H 40.5709 -0.507665 3.10274 0
M  V30 408 N 44.343 -0.763751 1.37857 0
M  V30 409 C 45.568 -1.55805 1.36893 0
M  V30 410 C 45.993 -1.88054 -0.0416135 0
M  V30 411 O 45.351 -1.49825 -1.02089 0
M  V30 412 C 45.399 -2.84012 2.22192 0
M  V30 413 O 44.503 -3.78732 1.63204 0
M  V30 414 H 43.844 -0.471638 0.46739 0
M  V30 415 H 46.374 -0.944657 1.81487 0
M  V30 416 H 46.384 -3.33037 2.35691 0
M  V30 417 H 45.059 -2.59869 3.24716 0
M  V30 418 H 43.636 -3.37402 1.58791 0
M  V30 419 N 45.8211 -1.22559 -0.990812 0
M  V30 420 C 46.7541 -0.940773 -2.07905 0
M  V30 421 C 47.7321 0.117082 -1.62178 0
M  V30 422 O 48.9161 -0.0149506 -1.88494 0
M  V30 423 C 46.0431 -0.415321 -3.36144 0
M  V30 424 C 45.0891 -1.45818 -4.00799 0
M  V30 425 S 45.9221 -3.03219 -4.41382 0
M  V30 426 C 47.0781 -2.52317 -5.72789 0
M  V30 427 H 47.3111 -1.8623 -2.31745 0
M  V30 428 H 44.8441 -1.05688 -1.12558 0
M  V30 429 H 46.8021 -0.118747 -4.10328 0
M  V30 430 H 45.4631 0.485121 -3.10331 0
M  V30 431 H 44.6561 -1.04044 -4.93144 0
M  V30 432 H 44.2581 -1.70356 -3.32949 0
M  V30 433 H 46.5501 -1.93688 -6.49224 0
M  V30 434 H 47.4931 -3.43161 -6.19392 0
M  V30 435 H 47.9011 -1.93529 -5.30289 0
M  V30 436 N 47.2992 1.18797 -1.03562 0
M  V30 437 C 48.2462 2.22253 -0.622259 0
M  V30 438 C 49.2162 1.61987 0.36736 0
M  V30 439 O 50.4012 1.88986 0.262492 0
M  V30 440 C 47.5412 3.45097 0.0138462 0
M  V30 441 C 46.6542 4.19722 -1.02263 0
M  V30 442 C 45.7892 5.30009 -0.355573 0
M  V30 443 C 44.8282 5.96399 -1.37749 0
M  V30 444 N 43.9652 6.98234 -0.735766 0
M  V30 445 H 48.8052 2.56968 -1.50903 0
M  V30 446 H 46.3422 1.26245 -0.755017 0
M  V30 447 H 48.3002 4.15279 0.399948 0
M  V30 448 H 46.9302 3.11018 0.864158 0
M  V30 449 H 45.9822 3.48418 -1.52673 0
M  V30 450 H 47.2942 4.65227 -1.79903 0
M  V30 451 H 46.4482 6.0664 0.0850095 0
M  V30 452 H 45.1872 4.85592 0.452967 0
M  V30 453 H 44.1922 5.18512 -1.82826 0
M  V30 454 H 45.4172 6.42899 -2.18764 0
M  V30 455 H 43.3632 6.55979 0.0525597 0
M  V30 456 H 43.2802 7.41965 -1.44995 0
M  V30 457 H 44.5482 7.78845 -0.31941 0
M  V30 458 N 48.7773 0.814389 1.34928 0
M  V30 459 C 49.7093 0.187834 2.28429 0
M  V30 460 C 50.7223 -0.617374 1.5064 0
M  V30 461 O 51.9113 -0.448454 1.72775 0
M  V30 462 C 49.0113 -0.755962 3.30361 0
M  V30 463 C 48.1843 0.00456686 4.374 0
M  V30 464 C 47.2433 -0.858876 5.19143 0
M  V30 465 O 46.2693 -0.306968 5.68372 0
M  V30 466 N 47.4713 -2.17988 5.38016 0
M  V30 467 H 50.2363 0.991105 2.82838 0
M  V30 468 H 47.7973 0.670561 1.4736 0
M  V30 469 H 49.7893 -1.338 3.81942 0
M  V30 470 H 48.3593 -1.46001 2.7641 0
M  V30 471 H 47.5793 0.767865 3.86649 0
M  V30 472 H 48.8673 0.528422 5.06049 0
M  V30 473 H 48.2653 -2.65212 4.99679 0
M  V30 474 H 46.8223 -2.71098 5.92747 0
M  V30 475 N 50.2554 -1.46986 0.568584 0
M  V30 476 C 51.5044 -2.01646 0.0465894 0
M  V30 477 C 51.8174 -1.44721 -1.31587 0
M  V30 478 O 53.0234 -1.91113 -1.92842 0
M  V30 479 C 51.4794 -3.59885 0.032752 0
M  V30 480 C 51.0874 -4.25804 1.39266 0
M  V30 481 C 52.8314 -4.22255 -0.436038 0
M  V30 482 C 50.7384 -5.76081 1.33732 0
M  V30 483 H 49.6684 -0.753876 0.013647 0
M  V30 484 H 52.3194 -1.68864 0.718131 0
M  V30 485 H 50.7014 -3.8968 -0.704669 0
M  V30 486 H 51.8754 -4.07637 2.1487 0
M  V30 487 H 50.1904 -3.7547 1.80032 0
M  V30 488 H 52.7874 -5.32394 -0.49602 0
M  V30 489 H 53.1304 -3.90212 -1.45053 0
M  V30 490 H 53.6634 -3.97033 0.246877 0
M  V30 491 H 50.4024 -6.12761 2.32817 0
M  V30 492 H 49.9224 -5.96553 0.623267 0
M  V30 493 H 51.6014 -6.38518 1.0442 0
M  V30 494 N 51.7335 -0.305618 -1.54608 0
M  V30 495 C 53.0105 0.355652 -1.92339 0
M  V30 496 C 53.3905 1.71324 -1.23335 0
M  V30 497 O 52.7385 2.25473 -0.370702 0
M  V30 498 C 52.9485 0.46572 -3.45879 0
M  V30 499 C 54.2965 0.734426 -4.182 0
M  V30 500 O 55.3205 0.54935 -3.51938 0
M  V30 501 O 54.1795 1.09024 -5.35515 0
M  V30 502 H 51.2735 0.199666 -0.802535 0
M  V30 503 H 53.8195 -0.354017 -1.65966 0
M  V30 504 H 52.5915 -0.488461 -3.88239 0
M  V30 505 H 52.2145 1.22367 -3.78301 0
M  V30 506 N 53.2116 1.57565 -0.0334293 0
M  V30 507 C 54.6226 1.79746 0.504798 0
M  V30 508 C 54.9736 0.944091 1.71992 0
M  V30 509 O 54.0986 0.155694 2.15839 0
M  V30 510 C 54.6936 3.25997 0.922567 0
M  V30 511 C 53.2526 3.49159 1.40588 0
M  V30 512 C 52.3996 2.74785 0.372633 0
M  V30 513 H 55.3506 1.56565 -0.259436 0
M  V30 514 H 55.3716 3.35945 1.78666 0
M  V30 515 H 54.8836 3.88081 0.0379825 0
M  V30 516 H 52.9846 2.92332 2.31025 0
M  V30 517 H 53.0976 4.57873 1.41028 0
M  V30 518 H 51.4616 2.40391 0.841672 0
M  V30 519 H 52.2446 3.39587 -0.503559 0
M  V30 520 N 54.6897 -0.239769 1.55765 0
M  V30 521 C 55.9357 -0.968234 1.78194 0
M  V30 522 C 56.2687 -1.84701 0.599938 0
M  V30 523 O 55.5437 -1.9031 -0.401524 0
M  V30 524 C 55.8267 -1.8227 3.10564 0
M  V30 525 C 55.6797 -0.971633 4.3918 0
M  V30 526 C 56.9987 -2.80388 3.39221 0
M  V30 527 H 54.1177 -0.350572 0.648281 0
M  V30 528 H 56.7597 -0.238259 1.885 0
M  V30 529 H 54.9097 -2.44507 3.01908 0
M  V30 530 H 56.5817 -0.367408 4.59835 0
M  V30 531 H 54.8247 -0.276276 4.32919 0
M  V30 532 H 55.4957 -1.60346 5.28198 0
M  V30 533 H 57.9717 -2.28287 3.47885 0
M  V30 534 H 56.8477 -3.3729 4.33044 0
M  V30 535 H 57.1087 -3.57212 2.60484 0
M  V30 536 N 56.1678 -1.49265 -0.50573 0
M  V30 537 C 57.0978 -1.68495 -1.61653 0
M  V30 538 C 58.0788 -0.53366 -1.61512 0
M  V30 539 O 59.2638 -0.76897 -1.78327 0
M  V30 540 C 56.3938 -1.74709 -3.00157 0
M  V30 541 C 55.3478 -2.89581 -3.15162 0
M  V30 542 C 54.6738 -2.80903 -4.5497 0
M  V30 543 C 55.9738 -4.30578 -2.95634 0
M  V30 544 H 57.6678 -2.61493 -1.45814 0
M  V30 545 H 55.2138 -1.25838 -0.70005 0
M  V30 546 H 57.1668 -1.86748 -3.77761 0
M  V30 547 H 55.8908 -0.783067 -3.17074 0
M  V30 548 H 54.5498 -2.77136 -2.39982 0
M  V30 549 H 54.1978 -1.82419 -4.68756 0
M  V30 550 H 53.8978 -3.57999 -4.65951 0
M  V30 551 H 55.4218 -2.94944 -5.34641 0
M  V30 552 H 56.8358 -4.4373 -3.63011 0
M  V30 553 H 55.2328 -5.0886 -3.18091 0
M  V30 554 H 56.3028 -4.45352 -1.91806 0
M  V30 555 N 57.6459 0.756429 -1.3826 0
M  V30 556 C 58.5779 1.87971 -1.31147 0
M  V30 557 C 59.5909 1.61248 -0.224239 0
M  V30 558 O 60.7799 1.71881 -0.481581 0
M  V30 559 C 57.8799 3.23545 -1.00857 0
M  V30 560 C 57.0529 3.77794 -2.20432 0
M  V30 561 C 56.1119 4.91877 -1.86931 0
M  V30 562 O 55.1379 5.06659 -2.59395 0
M  V30 563 N 56.3399 5.74643 -0.822568 0
M  V30 564 H 59.1049 1.94585 -2.2794 0
M  V30 565 H 56.6659 0.936234 -1.32084 0
M  V30 566 H 58.6579 3.97403 -0.765021 0
M  V30 567 H 57.2279 3.12335 -0.128687 0
M  V30 568 H 56.4479 2.95534 -2.6087 0
M  V30 569 H 57.7359 4.10771 -3.00241 0
M  V30 570 H 57.1339 5.65266 -0.221575 0
M  V30 571 H 55.6909 6.48661 -0.638899 0
M  V30 572 N 59.124 1.23083 0.984299 0
M  V30 573 C 60.37 1.06214 1.72761 0
M  V30 574 C 60.703 -0.400584 1.90024 0
M  V30 575 O 59.978 -1.29672 1.44967 0
M  V30 576 C 60.261 1.78375 3.12817 0
M  V30 577 C 60.114 3.32296 3.03149 0
M  V30 578 C 61.433 1.54309 4.12161 0
M  V30 579 H 58.552 0.387251 0.627061 0
M  V30 580 H 61.194 1.51536 1.14616 0
M  V30 581 H 59.344 1.39848 3.62457 0
M  V30 582 H 61.016 3.8032 2.61064 0
M  V30 583 H 59.259 3.6153 2.39747 0
M  V30 584 H 59.93 3.77972 4.02295 0
M  V30 585 H 62.406 1.87791 3.71314 0
M  V30 586 H 61.282 2.07281 5.08258 0
M  V30 587 H 61.543 0.477572 4.39513 0
M  V30 588 N 60.6021 -1.18246 1.0419 0
M  V30 589 C 61.8321 -1.91916 0.764961 0
M  V30 590 C 62.2401 -1.76485 -0.681898 0
M  V30 591 O 61.5831 -1.09275 -1.47664 0
M  V30 592 C 61.6451 -3.4373 1.05309 0
M  V30 593 C 61.3091 -3.8294 2.4941 0
M  V30 594 C 62.3061 -3.86621 3.47592 0
M  V30 595 C 59.9911 -4.142 2.84155 0
M  V30 596 C 61.9851 -4.21013 4.78568 0
M  V30 597 C 59.6721 -4.48262 4.15337 0
M  V30 598 C 60.6701 -4.51645 5.12353 0
M  V30 599 O 60.3581 -4.84911 6.41183 0
M  V30 600 H 60.0901 -0.61606 0.278292 0
M  V30 601 H 62.6441 -1.50947 1.39299 0
M  V30 602 H 60.8741 -3.84946 0.367933 0
M  V30 603 H 62.5631 -3.9865 0.763752 0
M  V30 604 H 63.3291 -3.62607 3.22089 0
M  V30 605 H 59.2081 -4.10743 2.09311 0
M  V30 606 H 62.7521 -4.23568 5.54289 0
M  V30 607 H 58.6491 -4.71737 4.40607 0
M  V30 608 H 59.4171 -5.02809 6.45852 0
M  V30 609 N 62.0802 -0.821533 -1.34494 0
M  V30 610 C 63.0102 -0.257138 -2.3208 0
M  V30 611 C 63.9912 0.625645 -1.58176 0
M  V30 612 O 65.1762 0.552811 -1.86166 0
M  V30 613 C 62.3062 0.582958 -3.42372 0
M  V30 614 C 61.2602 -0.202571 -4.2752 0
M  V30 615 C 60.5862 0.760179 -5.29269 0
M  V30 616 C 61.8862 -1.40998 -5.02908 0
M  V30 617 H 63.5802 -1.07247 -2.79532 0
M  V30 618 H 61.1262 -0.517163 -1.34393 0
M  V30 619 H 63.0792 0.987972 -4.09655 0
M  V30 620 H 61.8032 1.43133 -2.93565 0
M  V30 621 H 60.4622 -0.588936 -3.61838 0
M  V30 622 H 60.1102 1.60447 -4.76724 0
M  V30 623 H 59.8102 0.238809 -5.87115 0
M  V30 624 H 61.3342 1.16308 -5.9942 0
M  V30 625 H 62.7482 -1.07905 -5.63054 0
M  V30 626 H 61.1452 -1.86689 -5.70322 0
M  V30 627 H 62.2152 -2.1889 -4.32684 0
M  V30 628 N 63.5583 1.46682 -0.576371 0
M  V30 629 C 64.7883 2.06498 -0.0648694 0
M  V30 630 C 65.1963 1.42665 1.24271 0
M  V30 631 O 64.5393 0.523886 1.76071 0
M  V30 632 C 64.6013 3.5904 0.181816 0
M  V30 633 C 64.2653 4.45028 -1.0392 0
M  V30 634 C 65.2623 4.81959 -1.94966 0
M  V30 635 C 62.9473 4.86259 -1.25927 0
M  V30 636 C 64.9413 5.58942 -3.06371 0
M  V30 637 C 62.6283 5.63002 -2.37638 0
M  V30 638 C 63.6263 5.99257 -3.2769 0
M  V30 639 O 63.3143 6.7445 -4.37461 0
M  V30 640 H 63.0463 0.674028 -0.0515987 0
M  V30 641 H 65.6003 1.89393 -0.794951 0
M  V30 642 H 63.8303 3.74429 0.966436 0
M  V30 643 H 65.5193 4.00806 0.641047 0
M  V30 644 H 66.2853 4.50689 -1.79177 0
M  V30 645 H 62.1643 4.57494 -0.567448 0
M  V30 646 H 65.7083 5.87158 -3.76684 0
M  V30 647 H 61.6053 5.93686 -2.53392 0
M  V30 648 H 62.3733 6.92867 -4.35749 0
M  V30 649 N 65.0364 0.313813 1.54444 0
M  V30 650 C 65.9864 -0.571898 2.20711 0
M  V30 651 C 66.9704 -1.08913 1.18435 0
M  V30 652 O 68.1624 -1.02777 1.44104 0
M  V30 653 C 65.2914 -1.7371 2.96108 0
M  V30 654 C 64.3774 -1.23522 4.05713 0
M  V30 655 N 64.7684 -0.452288 5.03774 0
M  V30 656 C 63.0664 -1.51482 4.19487 0
M  V30 657 C 63.7674 -0.183438 5.81411 0
M  V30 658 N 62.7434 -0.766845 5.38164 0
M  V30 659 H 66.5454 0.0336802 2.93881 0
M  V30 660 H 64.0594 0.119192 1.61962 0
M  V30 661 H 66.0564 -2.38329 3.4206 0
M  V30 662 H 64.7164 -2.34625 2.24458 0
M  V30 663 H 65.7274 -0.0960131 5.17811 0
M  V30 664 H 62.4044 -2.13053 3.59047 0
M  V30 665 H 63.7944 0.446216 6.70417 0
M  V30 666 N 66.5145 -1.57545 0.0417849 0
M  V30 667 C 67.7395 -1.97035 -0.647455 0
M  V30 668 C 68.1645 -0.918775 -1.64135 0
M  V30 669 O 67.5225 0.119006 -1.80909 0
M  V30 670 C 67.5705 -3.35609 -1.31905 0
M  V30 671 O 66.6745 -3.3287 -2.43457 0
M  V30 672 H 66.0155 -0.64211 -0.169086 0
M  V30 673 H 68.5455 -2.04318 0.107399 0
M  V30 674 H 68.5555 -3.72126 -1.67291 0
M  V30 675 H 67.2305 -4.11685 -0.590586 0
M  V30 676 H 65.8075 -3.08087 -2.10088 0
M  V30 677 N 67.9926 0.231505 -1.5589 0
M  V30 678 C 68.9226 1.29022 -1.94617 0
M  V30 679 C 69.9036 1.4941 -0.813067 0
M  V30 680 O 71.0886 1.6176 -1.07459 0
M  V30 681 C 68.2186 2.64199 -2.25424 0
M  V30 682 C 67.1726 2.58484 -3.41131 0
M  V30 683 C 66.4986 3.97599 -3.57518 0
M  V30 684 C 67.7986 2.1413 -4.76388 0
M  V30 685 H 69.4926 0.968563 -2.83301 0
M  V30 686 H 67.0386 0.464479 -1.36303 0
M  V30 687 H 68.9916 3.38413 -2.51107 0
M  V30 688 H 67.7156 2.98032 -1.33583 0
M  V30 689 H 66.3746 1.86727 -3.15481 0
M  V30 690 H 66.0226 4.28723 -2.6307 0
M  V30 691 H 65.7226 3.94659 -4.35337 0
M  V30 692 H 67.2466 4.7349 -3.85538 0
M  V30 693 H 68.6606 2.78083 -5.01341 0
M  V30 694 H 67.0576 2.2227 -5.57419 0
M  V30 695 H 68.1276 1.09331 -4.72414 0
M  V30 696 N 69.4707 1.49531 0.497807 0
M  V30 697 C 70.7187 1.58865 1.24926 0
M  V30 698 C 71.0397 0.278721 1.92998 0
M  V30 699 O 70.3097 -0.702144 1.82885 0
M  V30 700 H 68.8897 0.585343 0.464094 0
M  V30 701 H 71.5517 1.86174 0.57666 0
M  V30 702 H 70.6477 2.38633 2.01149 0
M  V30 703 N 70.9488 -0.749086 1.3866 0
M  V30 704 C 71.8958 -1.86291 1.36251 0
M  V30 705 C 72.8658 -1.64578 0.224347 0
M  V30 706 O 74.0508 -1.86181 0.417279 0
M  V30 707 C 71.1908 -3.23644 1.19786 0
M  V30 708 C 70.3038 -3.57158 2.43027 0
M  V30 709 C 69.4388 -4.83838 2.19258 0
M  V30 710 C 68.4778 -5.10152 3.38247 0
M  V30 711 N 67.6148 -6.28029 3.13884 0
M  V30 712 H 72.4548 -1.87685 2.3147 0
M  V30 713 H 69.9918 -0.917287 1.14997 0
M  V30 714 H 71.9498 -4.0291 1.08254 0
M  V30 715 H 70.5798 -3.21566 0.282031 0
M  V30 716 H 69.6318 -2.72701 2.65214 0
M  V30 717 H 70.9438 -3.7253 3.31697 0
M  V30 718 H 70.0978 -5.71057 2.04888 0
M  V30 719 H 68.8368 -4.70614 1.2796 0
M  V30 720 H 67.8418 -4.21401 3.53131 0
M  V30 721 H 69.0668 -5.25271 4.30427 0
M  V30 722 H 67.0128 -6.1612 2.25238 0
M  V30 723 H 66.9298 -6.43922 3.96106 0
M  V30 724 H 68.1978 -7.18124 3.03179 0
M  V30 725 N 72.4269 -1.23603 -0.977757 0
M  V30 726 C 73.6519 -1.09735 -1.75991 0
M  V30 727 C 74.0769 0.346858 -1.84874 0
M  V30 728 O 73.4349 1.25093 -1.3123 0
M  V30 729 C 73.4829 -1.73051 -3.16363 0
M  V30 730 O 72.5869 -0.994452 -4.0023 0
M  V30 731 H 71.9279 -0.384476 -0.541364 0
M  V30 732 H 74.4579 -1.6371 -1.2272 0
M  V30 733 H 74.4679 -1.78398 -3.66931 0
M  V30 734 H 73.1429 -2.78137 -3.09213 0
M  V30 735 H 71.7199 -1.01812 -3.58732 0
M  V30 736 N 73.905 1.17692 -1.04816 0
M  V30 737 C 74.815 2.25229 -0.65643 0
M  V30 738 C 75.831 1.71018 0.320761 0
M  V30 739 O 77.007 2.00649 0.173805 0
M  V30 740 C 74.072 3.46684 -0.0332629 0
M  V30 741 C 73.133 4.15997 -1.06042 0
M  V30 742 C 72.366 5.31654 -0.466893 0
M  V30 743 O 72.589 5.65777 0.724758 0
M  V30 744 O 71.523 5.89831 -1.1993 0
M  V30 745 H 75.349 2.61016 -1.55255 0
M  V30 746 H 72.934 1.24919 -0.81949 0
M  V30 747 H 74.816 4.20234 0.313256 0
M  V30 748 H 73.491 3.12703 0.836566 0
M  V30 749 H 72.398 3.44482 -1.45886 0
M  V30 750 H 73.731 4.53996 -1.90127 0
M  V30 751 N 75.3831 0.828654 1.34056 0
M  V30 752 C 76.3461 0.259927 2.27721 0
M  V30 753 C 77.3461 -0.565478 1.50529 0
M  V30 754 O 78.5361 -0.38075 1.69988 0
M  V30 755 C 75.6681 -0.634944 3.34935 0
M  V30 756 H 76.8611 1.0863 2.79534 0
M  V30 757 H 74.4141 0.600951 1.44285 0
M  V30 758 H 75.1491 -1.48416 2.88346 0
M  V30 759 H 74.9341 -0.0444999 3.92075 0
M  V30 760 H 76.4241 -1.02648 4.04788 0
M  V30 761 N 76.8612 -1.46375 0.584142 0
M  V30 762 C 78.1382 -1.956 0.0033388 0
M  V30 763 C 78.5182 -1.52679 -1.45782 0
M  V30 764 O 77.8662 -0.77816 -2.14842 0
M  V30 765 C 78.0762 -3.48551 0.176891 0
M  V30 766 C 79.4242 -4.24576 0.0454609 0
M  V30 767 O 80.4482 -3.56043 0.105801 0
M  V30 768 O 79.3072 -5.46427 -0.0890376 0
M  V30 769 H 76.4012 -0.825547 -0.0490066 0
M  V30 770 H 78.9472 -1.56652 0.65256 0
M  V30 771 H 77.7192 -3.72683 1.1926 0
M  V30 772 H 77.3422 -3.94332 -0.508695 0
M  V30 773 N 78.3393 -0.321999 -1.54275 0
M  V30 774 C 79.5693 0.282642 -2.04658 0
M  V30 775 C 79.9773 1.46453 -1.19784 0
M  V30 776 O 79.3203 1.82367 -0.220932 0
M  V30 777 C 79.3823 0.781857 -3.50895 0
M  V30 778 C 79.0463 -0.277517 -4.56157 0
M  V30 779 C 80.0433 -1.11307 -5.07845 0
M  V30 780 C 77.7283 -0.425256 -5.00497 0
M  V30 781 C 79.7223 -2.08211 -6.02434 0
M  V30 782 C 77.4093 -1.39771 -5.94901 0
M  V30 783 C 78.4073 -2.2246 -6.45756 0
M  V30 784 O 78.0953 -3.18054 -7.38307 0
M  V30 785 H 77.8273 0.0622636 -0.673126 0
M  V30 786 H 80.3813 -0.465792 -2.00049 0
M  V30 787 H 78.6113 1.58118 -3.52896 0
M  V30 788 H 80.3003 1.30467 -3.84361 0
M  V30 789 H 81.0663 -1.00991 -4.74369 0
M  V30 790 H 76.9453 0.20847 -4.60528 0
M  V30 791 H 80.4893 -2.72791 -6.42052 0
M  V30 792 H 76.3863 -1.50152 -6.27794 0
M  V30 793 H 77.1543 -3.13275 -7.56175 0
M  V30 794 N 79.8174 1.5752 -0.0501392 0
M  V30 795 C 80.7474 2.14502 0.922566 0
M  V30 796 C 81.7284 1.06642 1.3252 0
M  V30 797 O 82.9134 1.34577 1.4001 0
M  V30 798 C 80.0434 2.68916 2.19776 0
M  V30 799 C 78.9974 3.8175 1.93523 0
M  V30 800 C 78.3234 4.22677 3.27487 0
M  V30 801 C 79.6234 5.06932 1.25765 0
M  V30 802 H 81.3174 2.9603 0.447952 0
M  V30 803 H 78.8634 1.42401 0.214024 0
M  V30 804 H 80.8164 3.07419 2.88222 0
M  V30 805 H 79.5404 1.84578 2.69441 0
M  V30 806 H 78.1994 3.43718 1.27489 0
M  V30 807 H 77.8474 3.35291 3.74952 0
M  V30 808 H 77.5474 4.98725 3.1072 0
M  V30 809 H 79.0714 4.63779 3.97166 0
M  V30 810 H 80.4854 5.42888 1.84244 0
M  V30 811 H 78.8824 5.88116 1.19328 0
M  V30 812 H 79.9524 4.84337 0.233536 0
M  V30 813 N 81.2955 -0.223234 1.56011 0
M  V30 814 C 82.5235 -0.964812 1.83027 0
M  V30 815 C 82.9385 -1.78013 0.62904 0
M  V30 816 O 82.2955 -1.78008 -0.402414 0
M  V30 817 C 82.3465 -1.88373 3.08542 0
M  V30 818 O 82.0675 -1.10137 4.2403 0
M  V30 819 C 83.5685 -2.73934 3.48533 0
M  V30 820 H 80.7885 -0.282842 0.608475 0
M  V30 821 H 83.3325 -0.238971 2.03099 0
M  V30 822 H 81.4875 -2.56354 2.9045 0
M  V30 823 H 81.9015 -1.72501 4.95322 0
M  V30 824 H 83.3755 -3.34117 4.39397 0
M  V30 825 H 83.8525 -3.46244 2.70207 0
M  V30 826 H 84.4585 -2.11369 3.69057 0
M  V30 827 N 82.7736 -1.49793 -0.48987 0
M  V30 828 C 84.0206 -1.59841 -1.24327 0
M  V30 829 C 84.3486 -0.290135 -1.92324 0
M  V30 830 O 83.6036 0.722749 -1.81865 0
M  V30 831 C 83.9026 -2.71488 -2.32441 0
M  V30 832 C 83.5686 -4.12614 -1.81826 0
M  V30 833 C 82.2306 -4.51017 -1.67742 0
M  V30 834 C 84.5826 -5.00892 -1.4407 0
M  V30 835 C 81.9106 -5.75459 -1.14297 0
M  V30 836 C 84.2626 -6.25863 -0.920742 0
M  V30 837 C 82.9266 -6.63086 -0.766383 0
M  V30 838 H 82.1966 -0.584899 -0.454944 0
M  V30 839 H 84.8436 -1.83663 -0.542215 0
M  V30 840 H 83.1486 -2.4168 -3.0838 0
M  V30 841 H 84.8456 -2.76469 -2.90458 0
M  V30 842 H 81.4356 -3.82307 -1.93751 0
M  V30 843 H 85.6196 -4.7187 -1.53794 0
M  V30 844 H 80.8756 -6.02989 -1.01068 0
M  V30 845 H 85.0496 -6.9364 -0.619448 0
M  V30 846 H 82.6766 -7.59393 -0.350083 0
M  V30 847 N 84.2517 0.741722 -1.39055 0
M  V30 848 C 85.6627 1.31966 -1.32068 0
M  V30 849 C 86.0137 1.96192 0.0180797 0
M  V30 850 O 85.1387 1.95861 0.920196 0
M  V30 851 C 85.7337 2.39954 -2.39181 0
M  V30 852 C 84.2927 2.93438 -2.35735 0
M  V30 853 C 83.4397 1.66936 -2.21422 0
M  V30 854 H 86.3907 0.539721 -1.4924 0
M  V30 855 H 86.4117 3.20182 -2.05581 0
M  V30 856 H 85.9237 1.9318 -3.36605 0
M  V30 857 H 84.0247 3.4451 -1.41929 0
M  V30 858 H 84.1377 3.4701 -3.30335 0
M  V30 859 H 82.5017 1.91016 -1.68478 0
M  V30 860 H 83.2847 1.22224 -3.20806 0
M  V30 861 N 85.7298 1.2412 0.971189 0
M  V30 862 C 86.9548 1.10667 1.75407 0
M  V30 863 C 87.3798 -0.337048 1.85056 0
M  V30 864 O 86.7378 -1.24396 1.31892 0
M  V30 865 C 86.7858 1.74726 3.15441 0
M  V30 866 O 85.8898 1.01566 3.99697 0
M  V30 867 H 85.2308 0.387341 0.539317 0
M  V30 868 H 87.7608 1.64358 1.2185 0
M  V30 869 H 87.7708 1.80341 3.6598 0
M  V30 870 H 86.4458 2.79773 3.07734 0
M  V30 871 H 85.0228 1.03713 3.58187 0
M  V30 872 N 87.2079 -1.17134 1.05439 0
M  V30 873 C 88.4559 -1.87085 0.764429 0
M  V30 874 C 88.7769 -1.81584 -0.710787 0
M  V30 875 O 88.0469 -1.24349 -1.51374 0
M  V30 876 H 86.6269 -0.692627 0.279779 0
M  V30 877 H 89.2889 -1.42087 1.33406 0
M  V30 878 H 88.3849 -2.92759 1.0816 0
M  V30 879 N 88.686 -0.835752 -1.33615 0
M  V30 880 C 89.596 -0.269088 -2.33052 0
M  V30 881 C 90.612 0.603251 -1.63208 0
M  V30 882 O 91.788 0.508112 -1.94885 0
M  V30 883 C 88.853 0.549091 -3.42324 0
M  V30 884 C 87.914 -0.347156 -4.27894 0
M  V30 885 C 87.147 0.43207 -5.31948 0
M  V30 886 O 87.37 1.66409 -5.45586 0
M  V30 887 O 86.304 -0.192298 -6.01593 0
M  V30 888 H 90.13 -1.09243 -2.83372 0
M  V30 889 H 87.715 -0.598198 -1.36901 0
M  V30 890 H 89.597 1.01414 -4.09015 0
M  V30 891 H 88.272 1.34955 -2.94226 0
M  V30 892 H 87.179 -0.859979 -3.64081 0
M  V30 893 H 88.512 -1.1123 -4.79467 0
M  V30 894 N 90.1641 1.46063 -0.591896 0
M  V30 895 C 91.3941 2.06418 -0.0867676 0
M  V30 896 C 91.8021 1.43975 1.22751 0
M  V30 897 O 91.1451 0.542531 1.75506 0
M  V30 898 C 91.2071 3.59213 0.143725 0
M  V30 899 C 90.8711 4.439 -1.08635 0
M  V30 900 C 91.8681 4.79864 -2.00067 0
M  V30 901 C 89.5531 4.84896 -1.31077 0
M  V30 902 C 91.5471 5.55661 -3.12282 0
M  V30 903 C 89.2341 5.6045 -2.43596 0
M  V30 904 C 90.2321 5.95747 -3.34027 0
M  V30 905 O 89.9201 6.69772 -4.4459 0
M  V30 906 H 89.6521 0.673443 -0.0587447 0
M  V30 907 H 92.2061 1.88539 -0.814994 0
M  V30 908 H 90.4361 3.75433 0.926668 0
M  V30 909 H 92.1251 4.01463 0.5985 0
M  V30 910 H 92.8911 4.48763 -1.83947 0
M  V30 911 H 88.7701 4.56867 -0.61594 0
M  V30 912 H 92.3141 5.8313 -3.82891 0
M  V30 913 H 88.2111 5.90965 -2.59674 0
M  V30 914 H 88.9791 6.88207 -4.43073 0
M  V30 915 N 91.6422 0.330177 1.54103 0
M  V30 916 C 92.8882 -0.270806 2.00984 0
M  V30 917 C 93.2212 -1.51265 1.21789 0
M  V30 918 O 92.4962 -1.92142 0.301927 0
M  V30 919 C 92.7792 -0.598339 3.55094 0
M  V30 920 C 92.6322 0.654674 4.4501 0
M  V30 921 C 93.9512 -1.41334 4.16789 0
M  V30 922 H 91.0702 -0.0969531 0.730595 0
M  V30 923 H 93.7122 0.448066 1.84641 0
M  V30 924 H 91.8622 -1.21078 3.69151 0
M  V30 925 H 93.5342 1.29285 4.42813 0
M  V30 926 H 91.7772 1.28224 4.14416 0
M  V30 927 H 92.4482 0.380944 5.50684 0
M  V30 928 H 94.9242 -0.895597 4.06347 0
M  V30 929 H 93.8002 -1.61127 5.24718 0
M  V30 930 H 94.0612 -2.41146 3.70541 0
M  V30 931 N 93.1203 -1.57491 0.0584922 0
M  V30 932 C 94.0833 -2.1085 -0.898617 0
M  V30 933 C 95.0833 -1.02964 -1.23511 0
M  V30 934 O 96.2733 -1.29007 -1.17059 0
M  V30 935 C 93.4053 -2.59881 -2.20623 0
M  V30 936 H 94.5983 -2.96715 -0.435936 0
M  V30 937 H 92.1513 -1.55141 -0.190023 0
M  V30 938 H 92.8863 -1.77431 -2.71457 0
M  V30 939 H 92.6713 -3.38727 -1.97501 0
M  V30 940 H 94.1613 -3.01285 -2.89166 0
M  V30 941 N 94.5984 0.214957 -1.56127 0
M  V30 942 C 95.5084 1.28727 -1.96129 0
M  V30 943 C 96.5244 1.50916 -0.866044 0
M  V30 944 O 97.7004 1.63918 -1.17016 0
M  V30 945 C 94.7654 2.61569 -2.27558 0
M  V30 946 C 93.8264 2.47625 -3.50685 0
M  V30 947 C 93.0594 3.74132 -3.80606 0
M  V30 948 O 93.2824 4.77438 -3.12104 0
M  V30 949 O 92.2164 3.70849 -4.74083 0
M  V30 950 H 96.0424 0.977855 -2.87527 0
M  V30 951 H 93.6274 0.418358 -1.43423 0
M  V30 952 H 95.5094 3.40012 -2.48938 0
M  V30 953 H 94.1844 2.92178 -1.39332 0
M  V30 954 H 93.0914 1.67361 -3.34576 0
M  V30 955 H 94.4244 2.21954 -4.39315 0
M  V30 956 N 96.0765 1.50051 0.48192 0
M  V30 957 C 96.9865 1.7089 1.60728 0
M  V30 958 C 98.0025 0.591788 1.63627 0
M  V30 959 O 99.1785 0.868817 1.81696 0
M  V30 960 C 96.2435 1.78855 2.97005 0
M  V30 961 C 95.3045 3.02537 3.04581 0
M  V30 962 C 94.5375 3.10112 4.34357 0
M  V30 963 O 94.7605 2.24765 5.24249 0
M  V30 964 O 93.6945 4.02747 4.47301 0
M  V30 965 H 97.5205 2.66264 1.46072 0
M  V30 966 H 95.1055 1.34018 0.660264 0
M  V30 967 H 96.9875 1.86336 3.77964 0
M  V30 968 H 95.6625 0.866628 3.11883 0
M  V30 969 H 94.5695 3.00563 2.22739 0
M  V30 970 H 95.9025 3.94272 2.94636 0
M  V30 971 N 97.5546 -0.734337 1.39446 0
M  V30 972 C 98.8036 -1.48937 1.36017 0
M  V30 973 C 99.1166 -1.95557 -0.0409005 0
M  V30 974 O 100.323 -2.70779 -0.19778 0
M  V30 975 C 98.7786 -2.69125 2.38955 0
M  V30 976 C 98.3866 -2.29452 3.8478 0
M  V30 977 C 100.131 -3.46944 2.44603 0
M  V30 978 C 98.0376 -3.46366 4.79358 0
M  V30 979 H 96.9676 -0.559296 0.505672 0
M  V30 980 H 99.6186 -0.800983 1.65095 0
M  V30 981 H 98.0006 -3.40041 2.02948 0
M  V30 982 H 99.1746 -1.66077 4.29831 0
M  V30 983 H 97.4896 -1.64723 3.82433 0
M  V30 984 H 100.087 -4.33907 3.12456 0
M  V30 985 H 100.43 -3.89454 1.47076 0
M  V30 986 H 100.963 -2.83056 2.79507 0
M  V30 987 H 97.7016 -3.08905 5.78151 0
M  V30 988 H 97.2216 -4.08719 4.38986 0
M  V30 989 H 98.9006 -4.12691 4.98292 0
M  V30 990 N 99.0327 -1.24633 -0.964593 0
M  V30 991 C 100.273 -1.09981 -1.72289 0
M  V30 992 C 100.637 0.354792 -1.88693 0
M  V30 993 O 101.838 0.62289 -2.61483 0
M  V30 994 C 100.109 -1.82262 -3.07434 0
M  V30 995 S 101.668 -1.83379 -3.98645 0
M  V30 996 H 98.4857 -0.393292 -0.59232 0
M  V30 997 H 101.088 -1.58009 -1.15123 0
M  V30 998 H 99.7917 -2.87206 -2.93157 0
M  V30 999 H 99.3227 -1.3458 -3.69664 0
M  V30 1000 H 101.338 -0.903691 -4.87901 0
M  V30 1001 N 100.511 1.16574 -1.06058 0
M  V30 1002 C 101.76 1.86385 -0.770944 0
M  V30 1003 C 102.073 1.82448 0.705129 0
M  V30 1004 O 103.279 2.47815 1.10905 0
M  V30 1005 C 101.735 3.34466 -1.32893 0
M  V30 1006 C 101.343 3.46883 -2.83507 0
M  V30 1007 C 103.087 4.09548 -1.11672 0
M  V30 1008 C 100.994 4.89036 -3.32562 0
M  V30 1009 H 99.9238 0.698181 -0.284709 0
M  V30 1010 H 102.575 1.31583 -1.27899 0
M  V30 1011 H 100.957 3.88859 -0.748662 0
M  V30 1012 H 102.131 3.02663 -3.47465 0
M  V30 1013 H 100.446 2.85232 -3.03368 0
M  V30 1014 H 103.043 5.14434 -1.45814 0
M  V30 1015 H 103.386 4.16264 -0.0549535 0
M  V30 1016 H 103.919 3.61387 -1.66265 0
M  V30 1017 H 100.658 4.87499 -4.38207 0
M  V30 1018 H 100.178 5.3389 -2.73351 0
M  V30 1019 H 101.857 5.57843 -3.2775 0
M  V30 1020 N 101.989 0.842826 1.3317 0
M  V30 1021 C 102.952 0.284065 2.27433 0
M  V30 1022 C 103.952 -0.54948 1.5112 0
M  V30 1023 O 105.142 -0.362699 1.70382 0
M  V30 1024 C 102.274 -0.599384 3.35589 0
M  V30 1025 H 103.467 1.11589 2.78366 0
M  V30 1026 H 101.02 0.616221 1.4364 0
M  V30 1027 H 101.755 -1.45349 2.89904 0
M  V30 1028 H 101.54 -0.00291266 3.921 0
M  V30 1029 H 103.03 -0.983488 4.05854 0
M  V30 1030 N 103.467 -1.45747 0.599634 0
M  V30 1031 C 104.43 -2.28917 -0.113835 0
M  V30 1032 C 105.43 -1.3933 -0.802729 0
M  V30 1033 O 106.62 -1.61534 -0.652103 0
M  V30 1034 C 103.752 -3.20152 -1.17114 0
M  V30 1035 H 104.945 -2.93478 0.617289 0
M  V30 1036 H 102.498 -1.52137 0.358327 0
M  V30 1037 H 103.233 -2.60374 -1.93329 0
M  V30 1038 H 103.018 -3.86133 -0.681468 0
M  V30 1039 H 104.508 -3.82708 -1.67105 0
M  V30 1040 N 104.945 -0.338344 -1.53925 0
M  V30 1041 C 106.17 0.263987 -2.05713 0
M  V30 1042 C 106.595 1.43847 -1.21201 0
M  V30 1043 O 105.953 1.79904 -0.224535 0
M  V30 1044 C 106.001 0.662 -3.54471 0
M  V30 1045 O 105.105 1.76265 -3.72833 0
M  V30 1046 H 104.446 0.0448722 -0.662482 0
M  V30 1047 H 106.976 -0.491048 -1.9862 0
M  V30 1048 H 106.986 0.940594 -3.9701 0
M  V30 1049 H 105.661 -0.196937 -4.15433 0
M  V30 1050 H 104.238 1.48173 -3.42198 0
M  V30 1051 N 106.423 1.57458 -0.0668435 0
M  V30 1052 C 107.37 2.12439 0.902122 0
M  V30 1053 C 108.34 1.03565 1.2986 0
M  V30 1054 O 109.525 1.312 1.38532 0
M  V30 1055 C 106.665 2.6865 2.16614 0
M  V30 1056 C 105.778 3.91663 1.82274 0
M  V30 1057 C 104.913 4.36134 3.0325 0
M  V30 1058 C 103.952 5.51808 2.64904 0
M  V30 1059 N 103.089 5.9126 3.78624 0
M  V30 1060 H 107.929 2.94934 0.426382 0
M  V30 1061 H 105.466 1.4575 0.198819 0
M  V30 1062 H 107.424 2.99346 2.90599 0
M  V30 1063 H 106.054 1.88928 2.61737 0
M  V30 1064 H 105.106 3.6746 0.983719 0
M  V30 1065 H 106.418 4.75693 1.50059 0
M  V30 1066 H 105.572 4.68465 3.85519 0
M  V30 1067 H 104.311 3.50948 3.38655 0
M  V30 1068 H 103.316 5.19133 1.81055 0
M  V30 1069 H 104.541 6.38722 2.30675 0
M  V30 1070 H 102.487 5.09024 4.138 0
M  V30 1071 H 102.404 6.70018 3.5016 0
M  V30 1072 H 103.672 6.28212 4.61486 0
M  V30 1073 N 107.901 -0.206675 1.56239 0
M  V30 1074 C 108.864 -1.23976 1.92776 0
M  V30 1075 C 109.864 -1.39041 0.807729 0
M  V30 1076 O 111.054 -1.37051 1.0753 0
M  V30 1077 C 108.186 -2.61112 2.19165 0
M  V30 1078 H 109.379 -0.927764 2.85189 0
M  V30 1079 H 106.932 -0.447718 1.4975 0
M  V30 1080 H 107.667 -2.97386 1.29352 0
M  V30 1081 H 107.452 -2.51552 3.00772 0
M  V30 1082 H 108.942 -3.35633 2.48476 0
M  V30 1083 N 109.379 -1.50304 -0.473955 0
M  V30 1084 C 110.619 -1.62786 -1.23612 0
M  V30 1085 C 110.983 -0.319786 -1.89318 0
M  V30 1086 O 112.184 -0.320012 -2.66888 0
M  V30 1087 C 110.455 -2.77351 -2.25414 0
M  V30 1088 S 112.014 -3.09948 -3.10608 0
M  V30 1089 H 108.832 -0.573895 -0.419721 0
M  V30 1090 H 111.434 -1.88076 -0.533623 0
M  V30 1091 H 110.138 -3.70879 -1.75719 0
M  V30 1092 H 109.669 -2.54137 -3.00296 0
M  V30 1093 H 111.684 -2.53553 -4.26527 0
M  V30 1094 N 110.857 0.726932 -1.39834 0
M  V30 1095 C 112.105 1.4837 -1.37225 0
M  V30 1096 C 112.426 1.94979 0.0284857 0
M  V30 1097 O 111.696 1.69555 0.981213 0
M  V30 1098 H 110.276 0.55043 -0.505011 0
M  V30 1099 H 112.938 0.862468 -1.74778 0
M  V30 1100 H 112.034 2.36198 -2.04003 0
M  V30 1101 N 112.336 1.25143 0.95797 0
M  V30 1102 C 113.585 1.0909 1.69654 0
M  V30 1103 C 113.898 -0.368548 1.92097 0
M  V30 1104 O 115.104 -0.649455 2.63618 0
M  V30 1105 C 113.56 1.90395 3.05414 0
M  V30 1106 C 113.168 3.4081 2.90779 0
M  V30 1107 C 114.912 1.82901 3.83076 0
M  V30 1108 C 112.819 4.14423 4.21909 0
M  V30 1109 H 111.749 0.404625 0.636235 0
M  V30 1110 H 114.4 1.4931 1.06672 0
M  V30 1111 H 112.782 1.42996 3.69281 0
M  V30 1112 H 113.956 3.95859 2.35865 0
M  V30 1113 H 112.271 3.49361 2.26575 0
M  V30 1114 H 114.868 2.35196 4.80195 0
M  V30 1115 H 115.211 0.796224 4.08615 0
M  V30 1116 H 115.744 2.28033 3.25954 0
M  V30 1117 H 112.483 5.18102 4.01561 0
M  V30 1118 H 112.003 3.64159 4.76601 0
M  V30 1119 H 113.682 4.21956 4.90471 0
M  V30 1120 N 113.814 -1.1601 1.06675 0
M  V30 1121 C 115.042 -1.90527 0.806667 0
M  V30 1122 C 115.457 -1.77643 -0.639396 0
M  V30 1123 O 114.814 -1.12369 -1.43803 0
M  V30 1124 C 114.865 -3.41106 1.19705 0
M  V30 1125 O 114.586 -3.53608 2.58636 0
M  V30 1126 C 116.087 -4.32663 0.965266 0
M  V30 1127 H 113.307 -0.604053 0.292166 0
M  V30 1128 H 115.851 -1.47026 1.4214 0
M  V30 1129 H 114.006 -3.82296 0.626774 0
M  V30 1130 H 114.42 -4.47011 2.74375 0
M  V30 1131 H 115.894 -5.36763 1.288 0
M  V30 1132 H 116.371 -4.39089 -0.0987936 0
M  V30 1133 H 116.977 -3.97206 1.52011 0
M  V30 1134 N 115.292 -0.849877 -1.32721 0
M  V30 1135 C 116.703 -0.506188 -1.79707 0
M  V30 1136 C 117.054 0.975627 -1.70223 0
M  V30 1137 O 116.179 1.76078 -1.25799 0
M  V30 1138 C 116.774 -0.912044 -3.26293 0
M  V30 1139 C 115.333 -0.620326 -3.71253 0
M  V30 1140 C 114.48 -1.11439 -2.53922 0
M  V30 1141 H 117.431 -1.03754 -1.20087 0
M  V30 1142 H 117.452 -0.226493 -3.79825 0
M  V30 1143 H 116.964 -1.99057 -3.33164 0
M  V30 1144 H 115.065 0.447674 -3.69901 0
M  V30 1145 H 115.178 -1.18327 -4.64258 0
M  V30 1146 H 113.542 -0.534834 -2.49021 0
M  V30 1147 H 114.325 -2.19992 -2.6355 0
M  V30 1148 N 116.77 1.45427 -0.607355 0
M  V30 1149 C 118.016 2.0254 -0.102607 0
M  V30 1150 C 118.349 1.47478 1.26348 0
M  V30 1151 O 117.624 0.64939 1.83339 0
M  V30 1152 C 117.907 3.60044 -0.0634347 0
M  V30 1153 C 117.76 4.2544 -1.46017 0
M  V30 1154 C 119.079 4.35646 0.624514 0
M  V30 1155 H 116.198 0.73598 -0.0387607 0
M  V30 1156 H 118.84 1.73284 -0.779282 0
M  V30 1157 H 116.99 3.85101 0.512808 0
M  V30 1158 H 118.662 4.11569 -2.08347 0
M  V30 1159 H 116.905 3.83849 -2.02094 0
M  V30 1160 H 117.576 5.34342 -1.385 0
M  V30 1161 H 120.052 4.15882 0.134723 0
M  V30 1162 H 118.928 5.45376 0.621028 0
M  V30 1163 H 119.189 4.08501 1.69055 0
M  V30 1164 N 118.248 0.346503 1.53744 0
M  V30 1165 C 119.478 -0.250047 2.05081 0
M  V30 1166 C 119.886 -1.44529 1.22098 0
M  V30 1167 O 119.229 -1.81992 0.249917 0
M  V30 1168 C 119.291 -0.725934 3.52094 0
M  V30 1169 C 118.955 0.350053 4.55657 0
M  V30 1170 C 119.952 1.19372 5.0601 0
M  V30 1171 C 117.637 0.504827 4.99757 0
M  V30 1172 C 119.631 2.17768 5.99046 0
M  V30 1173 C 117.318 1.49218 5.92602 0
M  V30 1174 C 118.316 2.32706 6.42135 0
M  V30 1175 O 118.004 3.2976 7.33153 0
M  V30 1176 H 117.736 -0.0515469 0.674032 0
M  V30 1177 H 120.29 0.497559 1.99282 0
M  V30 1178 H 118.52 -1.52483 3.55367 0
M  V30 1179 H 120.209 -1.24336 3.86388 0
M  V30 1180 H 120.975 1.08525 4.72702 0
M  V30 1181 H 116.854 -0.135178 4.60802 0
M  V30 1182 H 120.398 2.82971 6.37631 0
M  V30 1183 H 116.295 1.6012 6.25325 0
M  V30 1184 H 117.063 3.25265 7.51096 0
M  V30 1185 N 119.726 -1.57421 0.075193 0
M  V30 1186 C 120.676 -2.09441 -0.901025 0
M  V30 1187 C 121.66 -1.00486 -1.25663 0
M  V30 1188 O 122.852 -1.2679 -1.23504 0
M  V30 1189 C 119.981 -2.66233 -2.16737 0
M  V30 1190 C 119.067 -3.82198 -1.83808 0
M  V30 1191 N 119.458 -4.91028 -1.21345 0
M  V30 1192 C 117.756 -3.91558 -2.13538 0
M  V30 1193 C 118.457 -5.71852 -1.06585 0
M  V30 1194 N 117.433 -5.20233 -1.57667 0
M  V30 1195 H 121.235 -2.90972 -0.413815 0
M  V30 1196 H 118.749 -1.6189 -0.128601 0
M  V30 1197 H 120.746 -3.01819 -2.87595 0
M  V30 1198 H 119.406 -1.8615 -2.66042 0
M  V30 1199 H 120.417 -5.10323 -0.88268 0
M  V30 1200 H 117.094 -3.22454 -2.65197 0
M  V30 1201 H 118.484 -6.69401 -0.578933 0
M  V30 1202 N 121.204 0.198386 -1.56346 0
M  V30 1203 C 122.152 1.26538 -1.95169 0
M  V30 1204 C 123.146 1.47295 -0.836685 0
M  V30 1205 O 124.352 1.48195 -1.02167 0
M  V30 1206 H 120.727 0.424744 -0.620561 0
M  V30 1207 H 122.698 0.910904 -2.84157 0
M  V30 1208 C 121.447 2.6035 -2.30463 0
M  V30 1209 H 120.77 2.45192 -3.15786 0
M  V30 1210 H 122.21 3.33762 -2.61494 0
M  V30 1211 C 120.669 3.17096 -1.13806 0
M  V30 1212 O 121.199 3.99588 -0.41135 0
M  V30 1213 N 119.405 2.75795 -0.915736 0
M  V30 1214 H 118.952 2.08816 -1.50843 0
M  V30 1215 H 118.91 3.14101 -0.136979 0
M  V30 1216 N 122.682 1.50554 0.465978 0
M  V30 1217 C 123.615 1.64436 1.58227 0
M  V30 1218 C 124.593 0.492367 1.54966 0
M  V30 1219 O 125.777 0.712536 1.74514 0
M  V30 1220 C 122.904 1.63165 2.96808 0
M  V30 1221 C 121.95 2.83987 3.18204 0
M  V30 1222 S 122.783 4.45219 2.97557 0
M  V30 1223 C 123.939 4.46649 4.3847 0
M  V30 1224 H 124.172 2.58861 1.46213 0
M  V30 1225 H 121.705 1.3988 0.653678 0
M  V30 1226 H 123.663 1.63116 3.76701 0
M  V30 1227 H 122.324 0.69967 3.06208 0
M  V30 1228 H 121.517 2.79416 4.19455 0
M  V30 1229 H 121.119 2.81629 2.46092 0
M  V30 1230 H 123.411 4.20526 5.31191 0
M  V30 1231 H 124.354 5.48295 4.48082 0
M  V30 1232 H 124.762 3.76296 4.20787 0
M  V30 1233 N 124.16 -0.719506 1.40217 0
M  V30 1234 C 125.407 -1.47933 1.38283 0
M  V30 1235 C 125.735 -1.94493 -0.0161536 0
M  V30 1236 O 124.99 -1.68224 -0.999956 0
M  V30 1237 C 125.289 -2.72271 2.31524 0
M  V30 1238 C 124.955 -2.44496 3.78857 0
M  V30 1239 C 123.617 -2.36631 4.18998 0
M  V30 1240 C 125.969 -2.21104 4.71977 0
M  V30 1241 C 123.297 -2.03437 5.503 0
M  V30 1242 C 125.649 -1.89423 6.03574 0
M  V30 1243 C 124.313 -1.80038 6.42762 0
M  V30 1244 H 123.583 -0.541325 0.506012 0
M  V30 1245 H 126.23 -0.824502 1.72842 0
M  V30 1246 H 124.535 -3.42572 1.90137 0
M  V30 1247 H 126.232 -3.30348 2.27313 0
M  V30 1248 H 122.822 -2.51503 3.47051 0
M  V30 1249 H 127.006 -2.26139 4.41786 0
M  V30 1250 H 122.262 -1.94705 5.79569 0
M  V30 1251 H 126.436 -1.70336 6.75247 0
M  V30 1252 H 124.063 -1.54083 7.44421 0
M  V30 1253 N 125.638 -1.25649 -0.95132 0
M  V30 1254 C 126.601 -1.06399 -2.03007 0
M  V30 1255 C 127.601 -0.0156794 -1.60792 0
M  V30 1256 O 128.791 -0.25817 -1.72276 0
M  V30 1257 C 125.923 -0.616184 -3.35285 0
M  V30 1258 H 127.116 -2.02164 -2.21517 0
M  V30 1259 H 124.669 -1.08103 -1.12887 0
M  V30 1260 H 125.404 0.343917 -3.22471 0
M  V30 1261 H 125.189 -1.37301 -3.67275 0
M  V30 1262 H 126.679 -0.503032 -4.14559 0
M  V30 1263 N 127.117 1.15442 -1.07289 0
M  V30 1264 C 128.047 2.22312 -0.714107 0
M  V30 1265 C 129.028 1.67467 0.298155 0
M  V30 1266 O 130.213 1.93445 0.171048 0
M  V30 1267 C 127.343 3.47124 -0.110448 0
M  V30 1268 C 126.297 4.14926 -1.04979 0
M  V30 1269 C 125.623 5.33807 -0.308924 0
M  V30 1270 C 126.923 4.64762 -2.38314 0
M  V30 1271 H 128.617 2.5258 -1.6076 0
M  V30 1272 H 126.163 1.21404 -0.77441 0
M  V30 1273 H 128.116 4.21124 0.152482 0
M  V30 1274 H 126.84 3.16187 0.81812 0
M  V30 1275 H 125.499 3.42866 -1.29764 0
M  V30 1276 H 125.147 4.99126 0.623084 0
M  V30 1277 H 124.847 5.80113 -0.935036 0
M  V30 1278 H 126.371 6.10576 -0.0537771 0
M  V30 1279 H 127.785 5.30292 -2.1786 0
M  V30 1280 H 126.182 5.21728 -2.96514 0
M  V30 1281 H 127.252 3.80434 -3.00663 0
M  V30 1282 N 128.595 0.856903 1.32268 0
M  V30 1283 C 129.528 0.247937 2.26849 0
M  V30 1284 C 130.506 -0.615382 1.50505 0
M  V30 1285 O 131.69 -0.571689 1.79622 0
M  V30 1286 C 128.817 -0.650093 3.32403 0
M  V30 1287 C 127.863 0.140138 4.2627 0
M  V30 1288 S 128.696 1.51004 5.13769 0
M  V30 1289 C 129.852 0.61778 6.22844 0
M  V30 1290 H 130.085 1.04971 2.78152 0
M  V30 1291 H 127.618 0.654665 1.39834 0
M  V30 1292 H 129.576 -1.16256 3.93694 0
M  V30 1293 H 128.237 -1.4257 2.7988 0
M  V30 1294 H 127.43 -0.543945 5.01056 0
M  V30 1295 H 127.032 0.584267 3.69408 0
M  V30 1296 H 129.324 -0.177053 6.77269 0
M  V30 1297 H 130.267 1.33636 6.95375 0
M  V30 1298 H 130.675 0.191124 5.64176 0
M  V30 1299 N 130.073 -1.45103 0.615059 0
M  V30 1300 C 131.298 -2.07064 0.117988 0
M  V30 1301 C 131.723 -1.4554 -1.19163 0
M  V30 1302 O 131.081 -0.550855 -1.72729 0
M  V30 1303 C 131.129 -3.606 -0.000288387 0
M  V30 1304 O 130.233 -3.98847 -1.04856 0
M  V30 1305 H 129.574 -0.659467 0.0774581 0
M  V30 1306 H 132.104 -1.86236 0.847186 0
M  V30 1307 H 132.114 -4.07529 -0.196091 0
M  V30 1308 H 130.789 -4.04765 0.955932 0
M  V30 1309 H 129.366 -3.63577 -0.828619 0
M  V30 1310 N 131.551 -0.354651 -1.53558 0
M  V30 1311 C 132.461 0.50515 -2.29097 0
M  V30 1312 C 133.477 1.10223 -1.34636 0
M  V30 1313 O 134.653 1.11553 -1.67684 0
M  V30 1314 C 131.718 1.63479 -3.05738 0
M  V30 1315 C 130.779 1.06636 -4.15845 0
M  V30 1316 C 130.012 2.14217 -4.88822 0
M  V30 1317 O 130.235 3.35137 -4.61562 0
M  V30 1318 O 129.169 1.77887 -5.75013 0
M  V30 1319 H 132.995 -0.109237 -3.03503 0
M  V30 1320 H 130.58 -0.119357 -1.48922 0
M  V30 1321 H 132.462 2.2918 -3.5363 0
M  V30 1322 H 131.137 2.23478 -2.34178 0
M  V30 1323 H 130.044 0.373565 -3.7223 0
M  V30 1324 H 131.377 0.511081 -4.89539 0
M  V30 1325 N 133.029 1.57378 -0.0835403 0
M  V30 1326 C 134.257 1.98263 0.59157 0
M  V30 1327 C 134.672 0.962302 1.62435 0
M  V30 1328 O 134.029 -0.049581 1.82433 0
M  V30 1329 C 134.08 3.39214 1.24965 0
M  V30 1330 O 133.801 4.37339 0.258186 0
M  V30 1331 C 135.302 3.95038 2.01147 0
M  V30 1332 H 132.522 0.651773 0.159477 0
M  V30 1333 H 135.066 2.03878 -0.159415 0
M  V30 1334 H 133.221 3.34649 1.95164 0
M  V30 1335 H 133.635 5.19371 0.731734 0
M  V30 1336 H 135.109 4.95848 2.42567 0
M  V30 1337 H 135.586 3.32222 2.87272 0
M  V30 1338 H 136.192 4.0304 1.35789 0
M  V30 1339 N 134.507 -0.190092 1.56449 0
M  V30 1340 C 135.417 -1.25591 1.98152 0
M  V30 1341 C 136.433 -1.49519 0.889944 0
M  V30 1342 O 137.609 -1.62036 1.19609 0
M  V30 1343 C 134.674 -2.57916 2.3169 0
M  V30 1344 C 133.735 -2.42015 3.5458 0
M  V30 1345 C 132.968 -3.6803 3.8651 0
M  V30 1346 O 133.191 -4.72413 3.1966 0
M  V30 1347 O 132.125 -3.6326 4.79923 0
M  V30 1348 H 135.951 -0.931988 2.89046 0
M  V30 1349 H 133.536 -0.395488 1.4407 0
M  V30 1350 H 135.418 -3.36008 2.54316 0
M  V30 1351 H 134.093 -2.89925 1.43963 0
M  V30 1352 H 133 -1.62017 3.37196 0
M  V30 1353 H 134.333 -2.14937 4.4279 0
M  V30 1354 N 135.985 -1.50799 -0.457987 0
M  V30 1355 C 137.401 -1.38515 -0.792819 0
M  V30 1356 C 137.601 -0.451409 -1.96379 0
M  V30 1357 O 136.657 0.10112 -2.52297 0
M  V30 1358 C 137.97 -2.80149 -1.09258 0
M  V30 1359 C 139.518 -2.89156 -1.19825 0
M  V30 1360 C 139.993 -4.31651 -1.53106 0
M  V30 1361 N 141.484 -4.34662 -1.60072 0
M  V30 1362 C 142.219 -5.41928 -1.87354 0
M  V30 1363 N 141.715 -6.59384 -2.12568 0
M  V30 1364 N 143.508 -5.29385 -1.88965 0
M  V30 1365 H 135.659 -2.10073 0.313511 0
M  V30 1366 H 137.922 -0.944803 0.0777862 0
M  V30 1367 H 137.628 -3.50374 -0.305084 0
M  V30 1368 H 137.502 -3.18204 -2.02549 0
M  V30 1369 H 139.889 -2.19141 -1.97639 0
M  V30 1370 H 139.97 -2.54626 -0.244821 0
M  V30 1371 H 139.614 -5.02208 -0.758266 0
M  V30 1372 H 139.544 -4.63678 -2.49621 0
M  V30 1373 H 142.035 -3.49973 -1.42573 0
M  V30 1374 H 142.348 -7.36934 -2.32696 0
M  V30 1375 H 140.693 -6.62535 -2.09933 0
M  V30 1376 H 143.884 -4.36616 -1.68772 0
M  V30 1377 H 144.057 -6.13066 -2.09891 0
M  V30 1378 N 137.463 0.71206 -1.40597 0
M  V30 1379 C 138.712 1.46754 -1.38369 0
M  V30 1380 C 139.025 1.95598 0.0097839 0
M  V30 1381 O 140.231 2.71059 0.154677 0
M  V30 1382 C 138.687 2.65289 -2.43207 0
M  V30 1383 C 138.295 2.23301 -3.88382 0
M  V30 1384 C 140.039 3.43008 -2.50091 0
M  V30 1385 C 137.946 3.38696 -4.84808 0
M  V30 1386 H 136.876 0.55118 -0.514506 0
M  V30 1387 H 139.527 0.774616 -1.66349 0
M  V30 1388 H 137.909 3.36769 -2.08332 0
M  V30 1389 H 139.083 1.59218 -4.32419 0
M  V30 1390 H 137.398 1.58618 -3.85006 0
M  V30 1391 H 139.995 4.28881 -3.1932 0
M  V30 1392 H 140.338 3.87065 -1.53253 0
M  V30 1393 H 140.871 2.78574 -2.83974 0
M  V30 1394 H 137.61 2.99668 -5.82992 0
M  V30 1395 H 137.13 4.01683 -4.45433 0
M  V30 1396 H 138.809 4.04712 -5.04794 0
M  V30 1397 N 138.941 1.26152 0.944643 0
M  V30 1398 C 140.187 1.12665 1.69346 0
M  V30 1399 C 140.542 -0.3273 1.89596 0
M  V30 1400 O 139.835 -1.23717 1.46303 0
M  V30 1401 C 140.029 1.82541 3.07268 0
M  V30 1402 C 139.858 3.34582 3.00475 0
M  V30 1403 C 138.628 4.03863 3.03681 0
M  V30 1404 C 140.826 4.30828 2.80877 0
M  V30 1405 N 138.808 5.42603 2.87151 0
M  V30 1406 C 140.179 5.5672 2.7288 0
M  V30 1407 C 142.234 4.21122 2.65633 0
M  V30 1408 C 140.937 6.74013 2.51196 0
M  V30 1409 C 142.963 5.38118 2.45323 0
M  V30 1410 C 142.325 6.62955 2.38055 0
M  V30 1411 H 138.424 0.467041 0.627214 0
M  V30 1412 H 141.008 1.59391 1.11815 0
M  V30 1413 H 139.179 1.38296 3.62945 0
M  V30 1414 H 140.911 1.61708 3.70989 0
M  V30 1415 H 137.666 3.55198 3.1326 0
M  V30 1416 H 138.09 6.15443 2.82063 0
M  V30 1417 H 142.732 3.25344 2.70021 0
M  V30 1418 H 140.45 7.6989 2.4555 0
M  V30 1419 H 144.036 5.32475 2.34439 0
M  V30 1420 H 142.916 7.51959 2.22546 0
M  V30 1421 N 140.419 -1.14872 1.07899 0
M  V30 1422 C 141.649 -1.89386 0.825631 0
M  V30 1423 C 142.057 -1.78565 -0.625406 0
M  V30 1424 O 141.4 -1.13918 -1.44113 0
M  V30 1425 C 141.462 -3.40206 1.16191 0
M  V30 1426 C 141.126 -3.74812 2.61467 0
M  V30 1427 C 142.123 -3.75367 3.59716 0
M  V30 1428 C 139.808 -4.0495 2.97189 0
M  V30 1429 C 141.802 -4.05574 4.9172 0
M  V30 1430 C 139.489 -4.34821 4.29388 0
M  V30 1431 C 140.487 -4.35116 5.26463 0
M  V30 1432 O 140.175 -4.64267 6.56286 0
M  V30 1433 H 139.907 -0.606894 0.297751 0
M  V30 1434 H 142.461 -1.46438 1.44031 0
M  V30 1435 H 140.691 -3.8358 0.490214 0
M  V30 1436 H 142.38 -3.96018 0.890193 0
M  V30 1437 H 143.146 -3.52176 3.33462 0
M  V30 1438 H 139.025 -4.03876 2.22273 0
M  V30 1439 H 142.569 -4.05719 5.67484 0
M  V30 1440 H 138.466 -4.5748 4.55392 0
M  V30 1441 H 139.234 -4.82007 6.61522 0
M  V30 1442 N 141.898 -0.863906 -1.31812 0
M  V30 1443 C 143.309 -0.52522 -1.7916 0
M  V30 1444 C 143.66 0.957518 -1.71248 0
M  V30 1445 O 142.785 1.74734 -1.27659 0
M  V30 1446 C 143.38 -0.9466 -3.25307 0
M  V30 1447 C 141.939 -0.659668 -3.70574 0
M  V30 1448 C 141.086 -1.14126 -2.52726 0
M  V30 1449 H 144.037 -1.05022 -1.1898 0
M  V30 1450 H 144.058 -0.266766 -3.79564 0
M  V30 1451 H 143.57 -2.02579 -3.31034 0
M  V30 1452 H 141.671 0.408416 -3.70355 0
M  V30 1453 H 141.784 -1.23245 -4.62977 0
M  V30 1454 H 140.148 -0.561216 -2.4844 0
M  V30 1455 H 140.931 -2.22775 -2.61201 0
M  V30 1456 N 143.376 1.44774 -0.622745 0
M  V30 1457 C 144.787 1.85546 -0.207226 0
M  V30 1458 C 145.138 1.52093 1.23944 0
M  V30 1459 O 144.263 0.95492 1.94191 0
M  V30 1460 C 144.858 3.36781 -0.369313 0
M  V30 1461 C 143.417 3.76399 -0.00836847 0
M  V30 1462 C 142.564 2.68664 -0.686651 0
M  V30 1463 H 145.515 1.3536 -0.828454 0
M  V30 1464 H 145.536 3.78453 0.394162 0
M  V30 1465 H 145.048 3.61098 -1.42231 0
M  V30 1466 H 143.149 3.57698 1.04322 0
M  V30 1467 H 143.262 4.7732 -0.412584 0
M  V30 1468 H 141.626 2.54404 -0.122777 0
M  V30 1469 H 142.409 2.95815 -1.74208 0
M  V30 1470 N 144.854 0.36279 1.53368 0
M  V30 1471 C 145.802 -0.500155 2.27159 0
M  V30 1472 C 146.796 -1.08575 1.3003 0
M  V30 1473 O 148.002 -1.02927 1.47668 0
M  V30 1474 H 144.377 -0.180009 0.730138 0
M  V30 1475 H 146.348 0.14401 2.98052 0
M  V30 1476 C 145.097 -1.62937 3.07159 0
M  V30 1477 H 144.42 -1.18806 3.8174 0
M  V30 1478 H 145.86 -2.20795 3.61975 0
M  V30 1479 C 144.319 -2.57007 2.17829 0
M  V30 1480 O 144.849 -3.59752 1.78721 0
M  V30 1481 N 143.055 -2.26131 1.82518 0
M  V30 1482 H 142.602 -1.42616 2.14519 0
M  V30 1483 H 142.56 -2.89327 1.23034 0
M  V30 1484 N 146.332 -1.57332 0.0918853 0
M  V30 1485 C 147.282 -2.10385 -0.87876 0
M  V30 1486 C 148.266 -1.01814 -1.24591 0
M  V30 1487 O 149.458 -1.28093 -1.22152 0
M  V30 1488 C 146.587 -2.68517 -2.13901 0
M  V30 1489 C 145.673 -3.84126 -1.79744 0
M  V30 1490 N 146.064 -4.92288 -1.1613 0
M  V30 1491 C 144.362 -3.93801 -2.09373 0
M  V30 1492 C 145.063 -5.7295 -1.00513 0
M  V30 1493 N 144.039 -5.21876 -1.5214 0
M  V30 1494 H 147.841 -2.91395 -0.38293 0
M  V30 1495 H 145.355 -1.62017 -0.111423 0
M  V30 1496 H 147.352 -3.04852 -2.84378 0
M  V30 1497 H 146.012 -1.88961 -2.64053 0
M  V30 1498 H 147.023 -5.1123 -0.828504 0
M  V30 1499 H 143.7 -3.25249 -2.61762 0
M  V30 1500 H 145.09 -6.69978 -0.507902 0
M  V30 1501 N 147.81 0.181792 -1.56548 0
M  V30 1502 C 149.056 0.901431 -1.81665 0
M  V30 1503 C 149.389 1.82347 -0.668075 0
M  V30 1504 O 148.664 1.91669 0.330615 0
M  V30 1505 C 148.947 1.70618 -3.17115 0
M  V30 1506 C 148.8 0.807964 -4.42484 0
M  V30 1507 C 150.119 2.67605 -3.49393 0
M  V30 1508 H 147.238 0.32627 -0.660846 0
M  V30 1509 H 149.88 0.168134 -1.89255 0
M  V30 1510 H 148.03 2.33133 -3.10775 0
M  V30 1511 H 149.702 0.19649 -4.60881 0
M  V30 1512 H 147.945 0.115411 -4.33646 0
M  V30 1513 H 148.616 1.40632 -5.33785 0
M  V30 1514 H 151.092 2.15218 -3.56118 0
M  V30 1515 H 149.968 3.20985 -4.45264 0
M  V30 1516 H 150.229 3.47298 -2.73563 0
M  V30 1517 N 149.288 1.51039 0.449983 0
M  V30 1518 C 150.535 1.63081 1.20045 0
M  V30 1519 C 150.863 0.341024 1.91487 0
M  V30 1520 O 150.118 -0.674276 1.83717 0
M  V30 1521 C 150.417 2.77556 2.25161 0
M  V30 1522 C 150.083 4.17289 1.70823 0
M  V30 1523 C 148.745 4.55305 1.55725 0
M  V30 1524 C 151.097 5.04536 1.3074 0
M  V30 1525 C 148.425 5.78287 0.989999 0
M  V30 1526 C 150.777 6.28085 0.754482 0
M  V30 1527 C 149.441 6.64885 0.590308 0
M  V30 1528 H 148.711 0.596755 0.439277 0
M  V30 1529 H 151.358 1.85037 0.49333 0
M  V30 1530 H 149.663 2.49771 3.01863 0
M  V30 1531 H 151.36 2.84073 2.83026 0
M  V30 1532 H 147.95 3.8731 1.83546 0
M  V30 1533 H 152.134 4.75782 1.41229 0
M  V30 1534 H 147.39 6.05456 0.850451 0
M  V30 1535 H 151.564 6.95038 0.435324 0
M  V30 1536 H 149.191 7.60055 0.14862 0
M  V30 1537 N 150.766 -0.704594 1.40972 0
M  V30 1538 C 151.716 -1.81051 1.38581 0
M  V30 1539 C 152.7 -1.58759 0.261585 0
M  V30 1540 O 153.892 -1.69745 0.501556 0
M  V30 1541 C 151.021 -3.19279 1.26157 0
M  V30 1542 C 150.107 -3.47296 2.43405 0
M  V30 1543 N 150.498 -3.46064 3.68881 0
M  V30 1544 C 148.796 -3.77804 2.37023 0
M  V30 1545 C 149.497 -3.72733 4.46592 0
M  V30 1546 N 148.473 -3.9203 3.76581 0
M  V30 1547 H 152.275 -1.78448 2.33525 0
M  V30 1548 H 149.789 -0.904198 1.349 0
M  V30 1549 H 151.786 -3.98488 1.22526 0
M  V30 1550 H 150.446 -3.231 0.321902 0
M  V30 1551 H 151.457 -3.26656 4.01891 0
M  V30 1552 H 148.134 -3.8905 1.51481 0
M  V30 1553 H 149.524 -3.77993 5.55492 0
M  V30 1554 N 152.244 -1.26651 -0.937939 0
M  V30 1555 C 153.493 -1.11775 -1.67897 0
M  V30 1556 C 153.806 0.33794 -1.92659 0
M  V30 1557 O 155.012 0.607434 -2.64618 0
M  V30 1558 C 153.468 -1.9523 -3.02346 0
M  V30 1559 C 153.076 -3.45393 -2.8532 0
M  V30 1560 C 154.82 -1.88972 -3.80118 0
M  V30 1561 C 152.727 -4.21083 -4.15263 0
M  V30 1562 H 151.657 -0.414696 -0.629717 0
M  V30 1563 H 154.308 -1.50988 -1.04283 0
M  V30 1564 H 152.69 -1.48853 -3.66959 0
M  V30 1565 H 153.864 -3.99561 -2.29537 0
M  V30 1566 H 152.179 -3.52921 -2.20988 0
M  V30 1567 H 154.776 -2.42805 -4.76392 0
M  V30 1568 H 155.119 -0.86113 -4.07296 0
M  V30 1569 H 155.652 -2.33189 -3.22285 0
M  V30 1570 H 152.391 -5.24425 -3.93267 0
M  V30 1571 H 151.911 -3.71695 -4.70747 0
M  V30 1572 H 153.59 -4.29706 -4.83696 0
M  V30 1573 N 153.722 1.14298 -1.08507 0
M  V30 1574 C 154.999 1.81544 -0.728088 0
M  V30 1575 C 155.379 1.95838 0.78808 0
M  V30 1576 O 154.727 1.51904 1.70697 0
M  V30 1577 C 154.937 3.17169 -1.45619 0
M  V30 1578 C 156.285 3.9265 -1.61591 0
M  V30 1579 O 157.309 3.26762 -1.41793 0
M  V30 1580 O 156.168 5.10807 -1.94263 0
M  V30 1581 H 153.262 0.78491 -0.260471 0
M  V30 1582 H 155.808 1.21307 -1.18671 0
M  V30 1583 H 154.58 3.01934 -2.489 0
M  V30 1584 H 154.203 3.851 -0.989124 0
M  V30 1585 N 155.201 0.870884 1.31352 0
M  V30 1586 C 156.111 0.330783 2.32256 0
M  V30 1587 C 157.127 -0.559767 1.6475 0
M  V30 1588 O 158.303 -0.456263 1.96164 0
M  V30 1589 C 155.368 -0.458137 3.4366 0
M  V30 1590 C 154.429 0.460482 4.26823 0
M  V30 1591 C 153.662 -0.290881 5.32907 0
M  V30 1592 O 153.885 -1.51885 5.49806 0
M  V30 1593 O 152.819 0.351732 6.00871 0
M  V30 1594 H 156.645 1.16718 2.80376 0
M  V30 1595 H 154.23 0.634285 1.35267 0
M  V30 1596 H 156.112 -0.905343 4.1156 0
M  V30 1597 H 154.787 -1.27106 2.97701 0
M  V30 1598 H 153.694 0.956207 3.61673 0
M  V30 1599 H 155.027 1.23903 4.7635 0
M  V30 1600 N 156.679 -1.44442 0.630414 0
M  V30 1601 C 157.904 -2.06927 0.139944 0
M  V30 1602 C 158.329 -1.46795 -1.17613 0
M  V30 1603 O 157.687 -0.569144 -1.72135 0
M  V30 1604 C 157.735 -3.6058 0.0379581 0
M  V30 1605 O 156.839 -3.99937 -1.0062 0
M  V30 1606 H 156.18 -0.658608 0.0844483 0
M  V30 1607 H 158.71 -1.85327 0.866891 0
M  V30 1608 H 158.72 -4.07714 -0.152856 0
M  V30 1609 H 157.395 -4.03728 0.998809 0
M  V30 1610 H 155.972 -3.64436 -0.79001 0
M  V30 1611 N 158.157 -0.370918 -1.53173 0
M  V30 1612 C 159.385 0.217704 -2.05751 0
M  V30 1613 C 159.8 1.42018 -1.24404 0
M  V30 1614 O 159.157 1.80245 -0.286033 0
M  V30 1615 C 159.208 0.605954 -3.56385 0
M  V30 1616 O 158.929 -0.548734 -4.3465 0
M  V30 1617 C 160.43 1.2524 -4.25241 0
M  V30 1618 H 157.65 0.0371659 -0.66997 0
M  V30 1619 H 160.194 -0.530832 -1.9749 0
M  V30 1620 H 158.349 1.3044 -3.6478 0
M  V30 1621 H 158.763 -0.23376 -5.23979 0
M  V30 1622 H 160.237 1.47458 -5.3194 0
M  V30 1623 H 160.714 2.2143 -3.79296 0
M  V30 1624 H 161.32 0.595233 -4.21114 0
M  V30 1625 N 159.635 1.57281 -0.100228 0
M  V30 1626 C 161.051 1.57527 0.256416 0
M  V30 1627 C 161.251 1.11173 1.68056 0
M  V30 1628 O 160.307 0.79053 2.39806 0
M  V30 1629 C 161.62 3.00673 0.0401747 0
M  V30 1630 C 163.168 3.12815 0.107528 0
M  V30 1631 C 163.643 4.57929 -0.0807834 0
M  V30 1632 N 165.134 4.63193 -0.0261207 0
M  V30 1633 C 165.869 5.73212 -0.146999 0
M  V30 1634 N 165.365 6.92047 -0.322999 0
M  V30 1635 N 167.158 5.62031 -0.0879044 0
M  V30 1636 H 159.309 1.85718 -1.03065 0
M  V30 1637 H 161.572 0.857446 -0.404339 0
M  V30 1638 H 161.278 3.38804 -0.943649 0
M  V30 1639 H 161.152 3.69042 0.780262 0
M  V30 1640 H 163.539 2.74554 1.08186 0
M  V30 1641 H 163.62 2.47028 -0.664134 0
M  V30 1642 H 163.264 4.96886 -1.05201 0
M  V30 1643 H 163.194 5.21783 0.710635 0
M  V30 1644 H 165.685 3.77748 0.107161 0
M  V30 1645 H 165.998 7.7173 -0.406608 0
M  V30 1646 H 164.343 6.94074 -0.358733 0
M  V30 1647 H 167.534 4.68075 0.048498 0
M  V30 1648 H 167.707 6.47734 -0.185557 0
M  V30 1649 N 161.113 -0.173488 1.56642 0
M  V30 1650 C 162.063 -1.21941 1.92651 0
M  V30 1651 C 163.047 -1.39912 0.794577 0
M  V30 1652 O 164.239 -1.41919 1.05773 0
M  V30 1653 C 161.368 -2.55935 2.28806 0
M  V30 1654 C 160.454 -2.41667 3.48508 0
M  V30 1655 N 160.845 -1.9711 4.65813 0
M  V30 1656 C 159.143 -2.72499 3.53072 0
M  V30 1657 C 159.844 -1.95253 5.47952 0
M  V30 1658 N 158.82 -2.37575 4.88937 0
M  V30 1659 H 162.622 -0.866581 2.80834 0
M  V30 1660 H 160.136 -0.381776 1.57849 0
M  V30 1661 H 162.133 -3.31511 2.52797 0
M  V30 1662 H 160.793 -2.92022 1.41961 0
M  V30 1663 H 161.804 -1.67481 4.90072 0
M  V30 1664 H 158.481 -3.12639 2.767 0
M  V30 1665 H 159.871 -1.6252 6.51948 0
M  V30 1666 N 162.591 -1.51276 -0.441967 0
M  V30 1667 C 163.539 -1.72823 -1.55676 0
M  V30 1668 C 164.533 -0.59445 -1.58627 0
M  V30 1669 O 165.739 -0.775715 -1.62427 0
M  V30 1670 H 162.114 -0.545983 -0.517113 0
M  V30 1671 H 164.085 -2.6628 -1.34675 0
M  V30 1672 C 162.834 -1.86619 -2.93375 0
M  V30 1673 H 162.157 -2.73264 -2.91834 0
M  V30 1674 H 163.597 -2.05709 -3.70756 0
M  V30 1675 C 162.056 -0.624842 -3.31055 0
M  V30 1676 O 162.586 0.222636 -4.01083 0
M  V30 1677 N 160.792 -0.470288 -2.86769 0
M  V30 1678 H 160.339 -1.161 -2.29953 0
M  V30 1679 H 160.297 0.359051 -3.12343 0
M  V30 1680 N 164.069 0.697108 -1.41344 0
M  V30 1681 C 165.315 1.4593 -1.40827 0
M  V30 1682 C 165.648 1.94193 -0.0167098 0
M  V30 1683 O 164.923 1.69425 0.955263 0
M  V30 1684 C 165.206 2.67229 -2.41373 0
M  V30 1685 C 165.059 2.24741 -3.8963 0
M  V30 1686 C 166.378 3.69423 -2.39196 0
M  V30 1687 H 163.497 0.529303 -0.512842 0
M  V30 1688 H 166.139 0.794112 -1.72609 0
M  V30 1689 H 164.289 3.23982 -2.14401 0
M  V30 1690 H 165.961 1.73327 -4.27499 0
M  V30 1691 H 164.204 1.56542 -4.0457 0
M  V30 1692 H 164.875 3.1177 -4.55525 0
M  V30 1693 H 167.351 3.2234 -2.63128 0
M  V30 1694 H 166.227 4.51907 -3.11563 0
M  V30 1695 H 166.488 4.19012 -1.41001 0
M  V30 1696 N 165.547 1.27147 0.931209 0
M  V30 1697 C 166.477 1.12081 2.04842 0
M  V30 1698 C 167.458 0.0232364 1.70084 0
M  V30 1699 O 168.643 0.197085 1.93197 0
M  V30 1700 C 165.773 0.76354 3.38803 0
M  V30 1701 C 164.727 1.81396 3.87659 0
M  V30 1702 C 164.053 1.31075 5.18385 0
M  V30 1703 C 165.353 3.21739 4.11438 0
M  V30 1704 H 167.047 2.05537 2.17703 0
M  V30 1705 H 164.593 0.989603 1.04608 0
M  V30 1706 H 166.546 0.644982 4.16435 0
M  V30 1707 H 165.27 -0.206727 3.25945 0
M  V30 1708 H 163.929 1.92136 3.12217 0
M  V30 1709 H 163.577 0.330037 5.01916 0
M  V30 1710 H 163.277 2.013 5.52044 0
M  V30 1711 H 164.801 1.20506 5.98591 0
M  V30 1712 H 166.215 3.14019 4.79651 0
M  V30 1713 H 164.612 3.89644 4.56397 0
M  V30 1714 H 165.682 3.67054 3.16859 0
M  V30 1715 N 167.025 -1.13721 1.09112 0
M  V30 1716 C 168.255 -1.88499 0.845671 0
M  V30 1717 C 168.663 -1.79218 -0.606432 0
M  V30 1718 O 168.006 -1.1544 -1.42896 0
M  V30 1719 C 168.068 -3.38954 1.19793 0
M  V30 1720 C 167.732 -3.72018 2.65428 0
M  V30 1721 C 168.729 -3.7153 3.63677 0
M  V30 1722 C 166.414 -4.01775 3.01467 0
M  V30 1723 C 168.408 -4.00336 4.95994 0
M  V30 1724 C 166.095 -4.30243 4.33975 0
M  V30 1725 C 167.093 -4.29508 5.31048 0
M  V30 1726 O 166.781 -4.5728 6.61173 0
M  V30 1727 H 166.513 -0.603702 0.304171 0
M  V30 1728 H 169.067 -1.44903 1.45576 0
M  V30 1729 H 167.297 -3.83039 0.530871 0
M  V30 1730 H 168.986 -3.95052 0.932146 0
M  V30 1731 H 169.752 -3.4862 3.37179 0
M  V30 1732 H 165.631 -4.01496 2.26544 0
M  V30 1733 H 169.175 -3.99678 5.71755 0
M  V30 1734 H 165.072 -4.52625 4.60219 0
M  V30 1735 H 165.84 -4.74964 6.66597 0
M  V30 1736 N 168.503 -0.877838 -1.30888 0
M  V30 1737 C 169.919 -0.570844 -1.49042 0
M  V30 1738 C 170.119 0.893159 -1.80624 0
M  V30 1739 O 169.175 1.67485 -1.88958 0
M  V30 1740 C 170.488 -1.47784 -2.61878 0
M  V30 1741 C 172.036 -1.48071 -2.75761 0
M  V30 1742 C 172.511 -2.37347 -3.91702 0
M  V30 1743 N 174.002 -2.35271 -3.99001 0
M  V30 1744 C 174.737 -3.01063 -4.88004 0
M  V30 1745 N 174.233 -3.76055 -5.81854 0
M  V30 1746 N 176.026 -2.90332 -4.81315 0
M  V30 1747 H 168.177 -1.82502 -1.0866 0
M  V30 1748 H 170.44 -0.780797 -0.537644 0
M  V30 1749 H 170.146 -2.51993 -2.45341 0
M  V30 1750 H 170.02 -1.18215 -3.58197 0
M  V30 1751 H 172.407 -0.446166 -2.91708 0
M  V30 1752 H 172.488 -1.81668 -1.80085 0
M  V30 1753 H 172.132 -3.40883 -3.76512 0
M  V30 1754 H 172.062 -2.01071 -4.86701 0
M  V30 1755 H 174.553 -1.80768 -3.3186 0
M  V30 1756 H 174.866 -4.23366 -6.46514 0
M  V30 1757 H 173.211 -3.80163 -5.81808 0
M  V30 1758 H 176.402 -2.31278 -4.06974 0
M  V30 1759 H 176.575 -3.41885 -5.50471 0
M  V30 1760 N 169.982 1.44106 -0.638065 0
M  V30 1761 C 171.231 2.01194 -0.142744 0
M  V30 1762 C 171.544 1.50835 1.24532 0
M  V30 1763 O 172.75 2.00096 1.83504 0
M  V30 1764 C 171.206 3.59319 -0.20442 0
M  V30 1765 C 170.814 4.18674 -1.59423 0
M  V30 1766 C 172.558 4.23854 0.234079 0
M  V30 1767 C 170.465 5.69045 -1.61065 0
M  V30 1768 H 169.395 0.752367 -0.0495998 0
M  V30 1769 H 172.046 1.65246 -0.797881 0
M  V30 1770 H 170.428 3.92598 0.517946 0
M  V30 1771 H 171.602 3.96921 -2.34074 0
M  V30 1772 H 169.917 3.66453 -1.97741 0
M  V30 1773 H 172.514 5.34155 0.241443 0
M  V30 1774 H 172.857 3.96688 1.2627 0
M  V30 1775 H 173.39 3.95403 -0.436025 0
M  V30 1776 H 170.129 6.00956 -2.61787 0
M  V30 1777 H 169.649 5.929 -0.90718 0
M  V30 1778 H 171.328 6.32809 -1.34766 0
M  V30 1779 N 171.46 0.379036 1.52974 0
M  V30 1780 C 172.876 0.0285448 1.59574 0
M  V30 1781 C 173.076 -1.45542 1.39355 0
M  V30 1782 O 172.132 -2.2187 1.20541 0
M  V30 1783 C 173.445 0.496535 2.96572 0
M  V30 1784 C 174.993 0.451909 3.0972 0
M  V30 1785 C 175.468 0.895924 4.49152 0
M  V30 1786 N 176.959 0.851522 4.55306 0
M  V30 1787 C 177.694 1.16661 5.61407 0
M  V30 1788 N 177.19 1.55166 6.752 0
M  V30 1789 N 178.983 1.08853 5.51459 0
M  V30 1790 H 171.134 1.34525 1.64367 0
M  V30 1791 H 173.397 0.550733 0.771619 0
M  V30 1792 H 173.103 1.53258 3.16552 0
M  V30 1793 H 172.977 -0.109802 3.7704 0
M  V30 1794 H 175.364 -0.575029 2.89443 0
M  V30 1795 H 175.445 1.09392 2.3123 0
M  V30 1796 H 175.089 1.92104 4.70168 0
M  V30 1797 H 175.019 0.23103 5.26093 0
M  V30 1798 H 177.51 0.568038 3.73606 0
M  V30 1799 H 177.823 1.776 7.52116 0
M  V30 1800 H 176.168 1.59044 6.76557 0
M  V30 1801 H 179.359 0.786803 4.6144 0
M  V30 1802 H 179.532 1.33742 6.34048 0
M  V30 1803 N 172.938 -1.57226 0.108567 0
M  V30 1804 C 174.185 -1.94833 -0.551943 0
M  V30 1805 C 174.513 -0.991204 -1.67348 0
M  V30 1806 O 173.768 -0.0131878 -1.95696 0
M  V30 1807 C 174.067 -3.38911 -1.13463 0
M  V30 1808 C 173.733 -4.50696 -0.135509 0
M  V30 1809 C 172.395 -4.80998 0.139252 0
M  V30 1810 C 174.747 -5.18333 0.545957 0
M  V30 1811 C 172.075 -5.76259 1.10194 0
M  V30 1812 C 174.427 -6.14627 1.49721 0
M  V30 1813 C 173.091 -6.43327 1.78006 0
M  V30 1814 H 172.361 -0.712944 -0.20197 0
M  V30 1815 H 175.008 -1.90582 0.18726 0
M  V30 1816 H 173.313 -3.39805 -1.95037 0
M  V30 1817 H 175.01 -3.65317 -1.65362 0
M  V30 1818 H 171.6 -4.27087 -0.359846 0
M  V30 1819 H 175.784 -4.95087 0.346842 0
M  V30 1820 H 171.04 -5.96804 1.32795 0
M  V30 1821 H 175.214 -6.66126 2.03099 0
M  V30 1822 H 172.841 -7.1695 2.52759 0
M  V30 1823 N 174.416 0.165178 -1.56732 0
M  V30 1824 C 175.646 0.894919 -1.86212 0
M  V30 1825 C 176.054 1.76066 -0.692627 0
M  V30 1826 O 175.397 1.80387 0.347303 0
M  V30 1827 C 175.459 1.8174 -3.10179 0
M  V30 1828 C 175.123 1.13064 -4.42793 0
M  V30 1829 C 176.12 0.493169 -5.17556 0
M  V30 1830 C 173.805 1.12556 -4.89527 0
M  V30 1831 C 175.799 -0.140209 -6.37246 0
M  V30 1832 C 173.486 0.488366 -6.09145 0
M  V30 1833 C 174.484 -0.143411 -6.82849 0
M  V30 1834 O 174.172 -0.77055 -8.00199 0
M  V30 1835 H 173.904 0.265114 -0.621844 0
M  V30 1836 H 176.458 0.168242 -2.0471 0
M  V30 1837 H 174.688 2.58455 -2.87642 0
M  V30 1838 H 176.377 2.4175 -3.26055 0
M  V30 1839 H 177.143 0.489023 -4.82528 0
M  V30 1840 H 173.022 1.60672 -4.32094 0
M  V30 1841 H 176.566 -0.633932 -6.94714 0
M  V30 1842 H 172.463 0.490116 -6.43637 0
M  V30 1843 H 173.231 -0.670408 -8.1575 0
M  V30 1844 N 175.894 1.51508 0.433938 0
M  V30 1845 C 177.141 1.64345 1.18309 0
M  V30 1846 C 177.469 0.361315 1.91115 0
M  V30 1847 O 176.724 -0.654753 1.84422 0
M  V30 1848 C 177.023 2.79928 2.22205 0
M  V30 1849 C 176.689 4.19078 1.66387 0
M  V30 1850 C 175.351 4.56932 1.50887 0
M  V30 1851 C 177.703 5.05894 1.25381 0
M  V30 1852 C 175.031 5.79305 0.928608 0
M  V30 1853 C 177.383 6.2885 0.687823 0
M  V30 1854 C 176.047 6.65473 0.519755 0
M  V30 1855 H 175.317 0.601381 0.432923 0
M  V30 1856 H 177.964 1.85549 0.473676 0
M  V30 1857 H 176.269 2.52959 2.99197 0
M  V30 1858 H 177.966 2.87059 2.79997 0
M  V30 1859 H 174.556 3.89234 1.79428 0
M  V30 1860 H 178.74 4.77253 1.36175 0
M  V30 1861 H 173.996 6.06324 0.786186 0
M  V30 1862 H 178.17 6.95461 0.361581 0
M  V30 1863 H 175.797 7.6017 0.0679979 0
M  V30 1864 N 177.372 -0.689602 1.41712 0
M  V30 1865 C 178.783 -1.26973 1.36875 0
M  V30 1866 C 179.134 -1.96124 0.054748 0
M  V30 1867 O 178.259 -1.99141 -0.84687 0
M  V30 1868 C 178.854 -2.30912 2.47922 0
M  V30 1869 C 177.413 -2.84486 2.46464 0
M  V30 1870 C 176.56 -1.58603 2.27465 0
M  V30 1871 H 179.511 -0.48396 1.51141 0
M  V30 1872 H 179.532 -3.12331 2.17323 0
M  V30 1873 H 179.044 -1.80554 3.43543 0
M  V30 1874 H 177.145 -3.39005 1.54617 0
M  V30 1875 H 177.258 -3.34511 3.42986 0
M  V30 1876 H 175.622 -1.84632 1.75451 0
M  V30 1877 H 176.405 -1.10233 3.25121 0
M  V30 1878 N 178.85 -1.27639 -0.924453 0
M  V30 1879 C 180.266 -1.05113 -1.20097 0
M  V30 1880 C 180.466 0.213262 -2.00368 0
M  V30 1881 O 179.522 0.91787 -2.35226 0
M  V30 1882 C 180.835 -2.29244 -1.94596 0
M  V30 1883 C 182.383 -2.34315 -2.07522 0
M  V30 1884 C 182.858 -3.58183 -2.85427 0
M  V30 1885 N 184.349 -3.5876 -2.92994 0
M  V30 1886 C 185.084 -4.51277 -3.53746 0
M  V30 1887 N 184.58 -5.54102 -4.15863 0
M  V30 1888 N 186.373 -4.38894 -3.51181 0
M  V30 1889 H 178.524 -2.08821 -0.388264 0
M  V30 1890 H 180.787 -0.918568 -0.234385 0
M  V30 1891 H 180.493 -3.21301 -1.43034 0
M  V30 1892 H 180.367 -2.34816 -2.95197 0
M  V30 1893 H 182.754 -1.42762 -2.58269 0
M  V30 1894 H 182.835 -2.32744 -1.06131 0
M  V30 1895 H 182.479 -4.50074 -2.35363 0
M  V30 1896 H 182.409 -3.57006 -3.8711 0
M  V30 1897 H 184.9 -2.84398 -2.4885 0
M  V30 1898 H 185.213 -6.20859 -4.60168 0
M  V30 1899 H 183.558 -5.57941 -4.144 0
M  V30 1900 H 186.749 -3.57772 -3.01856 0
M  V30 1901 H 186.922 -5.11186 -3.98237 0
M  V30 1902 N 180.328 1.1314 -1.09713 0
M  V30 1903 C 181.574 1.84967 -0.846104 0
M  V30 1904 C 181.929 1.82082 0.621601 0
M  V30 1905 O 181.222 1.2501 1.452 0
M  V30 1906 C 181.416 3.32167 -1.3191 0
M  V30 1907 C 181.245 3.49386 -2.83125 0
M  V30 1908 C 180.015 3.63456 -3.51038 0
M  V30 1909 C 182.213 3.45179 -3.81256 0
M  V30 1910 N 180.195 3.68966 -4.9065 0
M  V30 1911 C 181.566 3.57094 -5.06837 0
M  V30 1912 C 183.621 3.28598 -3.74069 0
M  V30 1913 C 182.324 3.5414 -6.26081 0
M  V30 1914 C 184.35 3.26953 -4.92804 0
M  V30 1915 C 183.712 3.39422 -6.17229 0
M  V30 1916 H 179.811 0.692899 -0.362512 0
M  V30 1917 H 182.395 1.35506 -1.39808 0
M  V30 1918 H 180.566 3.80186 -0.794535 0
M  V30 1919 H 182.298 3.91815 -1.01308 0
M  V30 1920 H 179.053 3.65256 -3.01471 0
M  V30 1921 H 179.477 3.75404 -5.63383 0
M  V30 1922 H 184.119 3.17858 -2.78794 0
M  V30 1923 H 181.837 3.63653 -7.21653 0
M  V30 1924 H 185.423 3.15316 -4.88945 0
M  V30 1925 H 184.303 3.38114 -7.07565 0
M  V30 1926 N 181.806 0.884767 1.30421 0
M  V30 1927 C 183.036 0.517293 2.00019 0
M  V30 1928 C 183.444 -0.898632 1.66497 0
M  V30 1929 O 182.787 -1.60245 0.898181 0
M  V30 1930 C 182.849 0.612025 3.54252 0
M  V30 1931 C 182.513 1.99222 4.1129 0
M  V30 1932 C 183.51 2.9616 4.273 0
M  V30 1933 C 181.195 2.29755 4.46674 0
M  V30 1934 C 183.189 4.21764 4.77906 0
M  V30 1935 C 180.876 3.55606 4.96979 0
M  V30 1936 C 181.874 4.51425 5.12547 0
M  V30 1937 O 181.562 5.75043 5.61766 0
M  V30 1938 H 181.294 0.198529 0.64619 0
M  V30 1939 H 183.848 1.1919 1.67281 0
M  V30 1940 H 182.078 -0.119561 3.86515 0
M  V30 1941 H 183.767 0.255859 4.05093 0
M  V30 1942 H 184.533 2.73882 4.00267 0
M  V30 1943 H 180.412 1.55942 4.33824 0
M  V30 1944 H 183.956 4.96561 4.89972 0
M  V30 1945 H 179.853 3.7772 5.23448 0
M  V30 1946 H 180.621 5.77422 5.80109 0
M  V30 1947 N 183.284 -1.43765 0.645699 0
M  V30 1948 C 184.524 -2.03776 0.159542 0
M  V30 1949 C 184.888 -1.49792 -1.2011 0
M  V30 1950 O 186.089 -2.01398 -1.78023 0
M  V30 1951 C 184.36 -3.57036 0.161251 0
M  V30 1952 S 185.919 -4.3804 -0.258159 0
M  V30 1953 H 182.737 -0.707717 0.0682454 0
M  V30 1954 H 185.339 -1.75941 0.852352 0
M  V30 1955 H 184.043 -3.9383 1.15439 0
M  V30 1956 H 183.574 -3.89503 -0.552339 0
M  V30 1957 H 185.589 -4.7302 -1.49889 0
M  V30 1958 N 184.763 -0.387143 -1.52771 0
M  V30 1959 C 185.988 0.198407 -2.06449 0
M  V30 1960 C 186.413 1.39918 -1.25716 0
M  V30 1961 O 185.771 1.79099 -0.281657 0
M  V30 1962 C 185.819 0.548893 -3.56398 0
M  V30 1963 O 184.923 1.64315 -3.78252 0
M  V30 1964 H 184.264 0.0237731 -0.663574 0
M  V30 1965 H 186.794 -0.553989 -1.96957 0
M  V30 1966 H 186.804 0.813812 -3.99801 0
M  V30 1967 H 185.479 -0.329005 -4.14597 0
M  V30 1968 H 184.056 1.37211 -3.46738 0
M  V30 1969 N 186.241 1.57166 -0.116904 0
M  V30 1970 C 187.489 1.94737 0.540533 0
M  V30 1971 C 187.81 1.00096 1.67349 0
M  V30 1972 O 187.08 0.0568854 1.95817 0
M  V30 1973 H 185.66 0.718981 0.202669 0
M  V30 1974 H 188.322 1.94017 -0.185353 0
M  V30 1975 H 187.418 2.97719 0.936483 0
M  V30 1976 N 187.719 -0.156864 1.56817 0
M  V30 1977 C 188.944 -0.890331 1.87318 0
M  V30 1978 C 189.369 -1.74394 0.704855 0
M  V30 1979 O 188.727 -1.77972 -0.345786 0
M  V30 1980 C 188.775 -1.73102 3.16336 0
M  V30 1981 O 187.879 -2.83422 2.99576 0
M  V30 1982 H 187.22 -0.24857 0.615718 0
M  V30 1983 H 189.75 -0.150649 2.04045 0
M  V30 1984 H 189.76 -2.12803 3.48107 0
M  V30 1985 H 188.435 -1.10412 4.00976 0
M  V30 1986 H 187.012 -2.47199 2.7919 0
M  V30 1987 N 189.197 -1.51736 -0.425897 0
M  V30 1988 C 190.145 -1.74464 -1.53834 0
M  V30 1989 C 191.139 -0.611241 -1.57988 0
M  V30 1990 O 192.345 -0.792899 -1.61596 0
M  V30 1991 H 188.72 -0.551437 -0.511293 0
M  V30 1992 H 190.691 -2.67694 -1.31843 0
M  V30 1993 C 189.44 -1.8972 -2.91379 0
M  V30 1994 H 188.763 -2.76344 -2.88919 0
M  V30 1995 H 190.203 -2.09629 -3.68553 0
M  V30 1996 C 188.662 -0.65992 -3.30374 0
M  V30 1997 O 189.192 0.180083 -4.01296 0
M  V30 1998 N 187.398 -0.500677 -2.86254 0
M  V30 1999 H 186.945 -1.18532 -2.28709 0
M  V30 2000 H 186.903 0.325903 -3.12706 0
M  V30 2001 N 190.675 0.682077 -1.42076 0
M  V30 2002 C 192.091 0.994324 -1.24841 0
M  V30 2003 C 192.291 2.0096 -0.147389 0
M  V30 2004 O 191.347 2.47822 0.483782 0
M  V30 2005 C 192.66 1.50607 -2.60265 0
M  V30 2006 C 194.208 1.62421 -2.6756 0
M  V30 2007 C 194.683 2.16994 -4.03333 0
M  V30 2008 N 196.174 2.24337 -4.0525 0
M  V30 2009 C 196.909 2.67621 -5.07116 0
M  V30 2010 N 196.405 3.1041 -6.19368 0
M  V30 2011 N 198.198 2.67305 -4.94474 0
M  V30 2012 H 190.349 0.00973908 -2.12398 0
M  V30 2013 H 192.612 0.0668593 -0.945639 0
M  V30 2014 H 192.318 0.834583 -3.41654 0
M  V30 2015 H 192.192 2.48602 -2.83684 0
M  V30 2016 H 194.579 2.28678 -1.86521 0
M  V30 2017 H 194.66 0.629352 -2.47937 0
M  V30 2018 H 194.304 1.51349 -4.84826 0
M  V30 2019 H 194.234 3.17258 -4.20304 0
M  V30 2020 H 196.725 1.94158 -3.24209 0
M  V30 2021 H 197.038 3.42103 -6.92954 0
M  V30 2022 H 195.383 3.08286 -6.22884 0
M  V30 2023 H 198.574 2.33233 -4.05857 0
M  V30 2024 H 198.747 3.00718 -5.73997 0
M  V30 2025 N 192.153 1.28127 0.917671 0
M  V30 2026 C 193.116 1.11744 2.00115 0
M  V30 2027 C 194.116 0.0583052 1.60694 0
M  V30 2028 O 195.306 0.303755 1.71531 0
M  V30 2029 C 192.438 0.704862 3.33533 0
M  V30 2030 H 193.631 2.07966 2.16079 0
M  V30 2031 H 191.184 1.11058 1.09981 0
M  V30 2032 H 191.919 -0.258299 3.2327 0
M  V30 2033 H 191.704 1.4699 3.63505 0
M  V30 2034 H 193.194 0.612768 4.1308 0
M  V30 2035 N 193.631 -1.12557 1.10312 0
M  V30 2036 C 194.861 -1.87592 0.865617 0
M  V30 2037 C 195.269 -1.79851 -0.587389 0
M  V30 2038 O 194.612 -1.16949 -1.41664 0
M  V30 2039 C 194.674 -3.37665 1.23381 0
M  V30 2040 C 194.338 -3.69181 2.69359 0
M  V30 2041 C 195.335 -3.67652 3.67597 0
M  V30 2042 C 193.02 -3.98555 3.05711 0
M  V30 2043 C 195.014 -3.95053 5.00212 0
M  V30 2044 C 192.701 -4.25616 4.38514 0
M  V30 2045 C 193.699 -4.23851 5.35574 0
M  V30 2046 O 193.387 -4.50242 6.65986 0
M  V30 2047 H 193.119 -0.600442 0.310557 0
M  V30 2048 H 195.673 -1.4335 1.47105 0
M  V30 2049 H 193.903 -3.82454 0.571467 0
M  V30 2050 H 195.592 -3.94041 0.973994 0
M  V30 2051 H 196.358 -3.45024 3.40857 0
M  V30 2052 H 192.237 -3.99071 2.30789 0
M  V30 2053 H 195.781 -3.93591 5.75962 0
M  V30 2054 H 191.678 -4.47718 4.64994 0
M  V30 2055 H 192.446 -4.67867 6.71597 0
M  V30 2056 N 195.109 -0.891671 -1.2995 0
M  V30 2057 C 196.525 -0.58662 -1.48428 0
M  V30 2058 C 196.725 0.873951 -1.81561 0
M  V30 2059 O 195.781 1.65471 -1.90724 0
M  V30 2060 C 197.094 -1.50553 -2.60296 0
M  V30 2061 C 198.642 -1.50988 -2.74175 0
M  V30 2062 C 199.117 -2.41488 -3.89163 0
M  V30 2063 N 200.608 -2.39489 -3.96483 0
M  V30 2064 C 201.343 -3.06223 -4.84784 0
M  V30 2065 N 200.839 -3.82206 -5.77833 0
M  V30 2066 N 202.632 -2.95421 -4.78208 0
M  V30 2067 H 194.783 -1.83644 -1.06718 0
M  V30 2068 H 197.046 -0.786455 -0.529332 0
M  V30 2069 H 196.752 -2.54581 -2.42654 0
M  V30 2070 H 196.626 -1.22008 -3.56923 0
M  V30 2071 H 199.013 -0.47708 -2.91218 0
M  V30 2072 H 199.094 -1.83567 -1.78148 0
M  V30 2073 H 198.738 -3.44857 -3.72876 0
M  V30 2074 H 198.668 -2.06222 -4.84541 0
M  V30 2075 H 201.159 -1.84278 -3.29924 0
M  V30 2076 H 201.472 -4.302 -6.41988 0
M  V30 2077 H 199.817 -3.86313 -5.77743 0
M  V30 2078 H 203.008 -2.35581 -4.04499 0
M  V30 2079 H 203.181 -3.47704 -5.46814 0
M  V30 2080 N 196.587 1.43421 -0.653314 0
M  V30 2081 C 197.537 2.2792 0.060558 0
M  V30 2082 C 198.521 1.39906 0.794677 0
M  V30 2083 O 199.713 1.63536 0.677128 0
M  V30 2084 C 196.842 3.27603 1.0262 0
M  V30 2085 C 195.928 4.23104 0.290551 0
M  V30 2086 N 196.319 5.01031 -0.692967 0
M  V30 2087 C 194.617 4.42816 0.531984 0
M  V30 2088 C 195.318 5.70626 -1.12963 0
M  V30 2089 N 194.294 5.41617 -0.463867 0
M  V30 2090 H 198.096 2.85585 -0.694143 0
M  V30 2091 H 195.61 1.55126 -0.480602 0
M  V30 2092 H 197.607 3.86918 1.55242 0
M  V30 2093 H 196.267 2.71499 1.78096 0
M  V30 2094 H 197.278 5.0669 -1.07169 0
M  V30 2095 H 193.955 3.97782 1.26791 0
M  V30 2096 H 195.345 6.4318 -1.94343 0
M  V30 2097 N 198.065 0.39524 1.52563 0
M  V30 2098 C 199.313 -0.184678 2.01254 0
M  V30 2099 C 199.634 -1.46822 1.28329 0
M  V30 2100 O 198.904 -1.91666 0.405094 0
M  V30 2101 H 197.484 -0.0712355 0.743596 0
M  V30 2102 H 200.146 0.528293 1.87603 0
M  V30 2103 H 199.242 -0.390681 3.09645 0
M  V30 2104 N 199.544 -1.57102 0.125237 0
M  V30 2105 C 200.793 -1.94582 -0.531095 0
M  V30 2106 C 201.106 -1.01126 -1.6743 0
M  V30 2107 O 202.312 -1.28097 -2.39381 0
M  V30 2108 C 200.768 -3.45839 -0.996164 0
M  V30 2109 C 200.376 -4.47842 0.118926 0
M  V30 2110 C 202.12 -3.92227 -1.62352 0
M  V30 2111 C 200.027 -5.90284 -0.363192 0
M  V30 2112 H 198.957 -0.726391 -0.20217 0
M  V30 2113 H 201.608 -1.82339 0.206092 0
M  V30 2114 H 199.99 -3.53338 -1.78796 0
M  V30 2115 H 201.164 -4.52018 0.895358 0
M  V30 2116 H 199.479 -4.11243 0.653324 0
M  V30 2117 H 202.076 -4.96069 -1.99548 0
M  V30 2118 H 202.419 -3.32552 -2.50429 0
M  V30 2119 H 202.952 -3.87554 -0.897019 0
M  V30 2120 H 199.691 -6.53728 0.481679 0
M  V30 2121 H 199.211 -5.89515 -1.10597 0
M  V30 2122 H 200.89 -6.41752 -0.822377 0
M  V30 2123 N 201.022 0.148545 -1.56898 0
M  V30 2124 C 202.247 0.880385 -1.87787 0
M  V30 2125 C 202.672 1.74018 -0.714093 0
M  V30 2126 O 202.03 1.78153 0.336343 0
M  V30 2127 C 202.078 1.71422 -3.17249 0
M  V30 2128 O 201.182 2.8183 -3.01074 0
M  V30 2129 H 200.523 0.245301 -0.617028 0
M  V30 2130 H 203.053 0.139826 -2.04122 0
M  V30 2131 H 203.063 2.10954 -3.49231 0
M  V30 2132 H 201.738 1.08284 -4.01556 0
M  V30 2133 H 200.315 2.45715 -2.80497 0
M  V30 2134 N 202.5 1.5196 0.417844 0
M  V30 2135 C 203.916 1.40569 0.755816 0
M  V30 2136 C 204.116 0.503316 1.95113 0
M  V30 2137 O 203.172 -0.0341925 2.52477 0
M  V30 2138 C 204.485 2.82947 1.01791 0
M  V30 2139 C 206.033 2.92231 1.12116 0
M  V30 2140 C 206.508 4.35559 1.41608 0
M  V30 2141 N 207.999 4.38753 1.48491 0
M  V30 2142 C 208.734 5.46705 1.7292 0
M  V30 2143 N 208.23 6.64788 1.95011 0
M  V30 2144 N 210.023 5.34209 1.74863 0
M  V30 2145 H 202.174 2.09168 -0.369098 0
M  V30 2146 H 204.437 0.942409 -0.102809 0
M  V30 2147 H 204.143 3.5106 0.212081 0
M  V30 2148 H 204.017 3.23462 1.94042 0
M  V30 2149 H 206.404 2.24304 1.9176 0
M  V30 2150 H 206.485 2.55185 0.177225 0
M  V30 2151 H 206.129 5.04042 0.624848 0
M  V30 2152 H 206.059 4.70133 2.37239 0
M  V30 2153 H 208.55 3.5363 1.33244 0
M  V30 2154 H 208.863 7.42845 2.13076 0
M  V30 2155 H 207.208 6.67869 1.92293 0
M  V30 2156 H 210.399 4.40937 1.57137 0
M  V30 2157 H 210.572 6.18415 1.93563 0
M  V30 2158 N 203.978 -0.674533 1.42435 0
M  V30 2159 C 205.226 -1.43175 1.42637 0
M  V30 2160 C 205.547 -1.94951 0.0438992 0
M  V30 2161 O 204.817 -1.7308 -0.917607 0
M  V30 2162 H 203.397 -0.531307 0.525092 0
M  V30 2163 H 206.059 -0.797006 1.77859 0
M  V30 2164 H 205.155 -2.28463 2.12629 0
M  V30 2165 N 205.456 -1.28612 -0.910864 0
M  V30 2166 C 206.419 -1.12803 -1.9952 0
M  V30 2167 C 207.419 -0.0668264 -1.60661 0
M  V30 2168 O 208.609 -0.312847 -1.71368 0
M  V30 2169 C 205.741 -0.72254 -3.33155 0
M  V30 2170 H 206.934 -2.09109 -2.14973 0
M  V30 2171 H 204.487 -1.11639 -1.09391 0
M  V30 2172 H 205.222 0.241152 -3.23402 0
M  V30 2173 H 205.007 -1.48916 -3.62721 0
M  V30 2174 H 206.497 -0.634666 -4.12749 0
M  V30 2175 N 206.934 1.1197 -1.10907 0
M  V30 2176 C 207.844 2.21433 -0.774896 0
M  V30 2177 C 208.86 1.72478 0.229657 0
M  V30 2178 O 210.036 2.01288 0.0672008 0
M  V30 2179 C 207.101 3.4602 -0.216986 0
M  V30 2180 C 206.162 4.09791 -1.27944 0
M  V30 2181 C 205.395 5.28431 -0.748055 0
M  V30 2182 O 205.618 5.68823 0.423833 0
M  V30 2183 O 204.552 5.82644 -1.51027 0
M  V30 2184 H 208.378 2.5242 -1.68873 0
M  V30 2185 H 205.963 1.20399 -0.884555 0
M  V30 2186 H 207.845 4.21304 0.090059 0
M  V30 2187 H 206.52 3.16698 0.669633 0
M  V30 2188 H 205.427 3.36265 -1.63941 0
M  V30 2189 H 206.76 4.4328 -2.13925 0
M  V30 2190 N 208.412 0.89855 1.29475 0
M  V30 2191 C 209.375 0.380272 2.26023 0
M  V30 2192 C 210.375 -0.484891 1.53315 0
M  V30 2193 O 211.565 -0.290108 1.71767 0
M  V30 2194 C 208.697 -0.45651 3.3783 0
M  V30 2195 H 209.89 1.23295 2.73383 0
M  V30 2196 H 207.443 0.676589 1.40897 0
M  V30 2197 H 208.178 -1.32922 2.95808 0
M  V30 2198 H 207.963 0.163393 3.91759 0
M  V30 2199 H 209.453 -0.810466 4.0966 0
M  V30 2200 N 209.89 -1.43072 0.660911 0
M  V30 2201 C 211.301 -1.84932 0.256348 0
M  V30 2202 C 211.652 -1.55325 -1.19868 0
M  V30 2203 O 210.777 -1.00607 -1.91591 0
M  V30 2204 C 211.372 -3.35684 0.458475 0
M  V30 2205 C 209.931 -3.76245 0.108161 0
M  V30 2206 C 209.078 -2.66749 0.757641 0
M  V30 2207 H 212.029 -1.33116 0.864051 0
M  V30 2208 H 212.05 -3.79365 -0.293683 0
M  V30 2209 H 211.562 -3.572 1.51755 0
M  V30 2210 H 209.663 -3.60338 -0.948014 0
M  V30 2211 H 209.776 -4.76058 0.538992 0
M  V30 2212 H 208.14 -2.53989 0.190185 0
M  V30 2213 H 208.923 -2.91092 1.81989 0
M  V30 2214 N 211.368 -0.403325 -1.52352 0
M  V30 2215 C 212.298 0.416205 -2.29761 0
M  V30 2216 C 213.279 1.05123 -1.33728 0
M  V30 2217 O 214.464 1.06134 -1.62632 0
M  V30 2218 C 211.594 1.53624 -3.11475 0
M  V30 2219 C 210.548 1.02653 -4.15507 0
M  V30 2220 C 209.874 2.23971 -4.85532 0
M  V30 2221 C 211.174 0.08463 -5.22231 0
M  V30 2222 H 212.868 -0.229701 -2.98518 0
M  V30 2223 H 210.414 -0.111913 -1.43564 0
M  V30 2224 H 212.367 2.1165 -3.64393 0
M  V30 2225 H 211.091 2.20994 -2.40477 0
M  V30 2226 H 209.75 0.46871 -3.63591 0
M  V30 2227 H 209.398 2.89883 -4.11068 0
M  V30 2228 H 209.098 1.90521 -5.55856 0
M  V30 2229 H 210.622 2.82614 -5.41259 0
M  V30 2230 H 212.036 0.573509 -5.70424 0
M  V30 2231 H 210.433 -0.160783 -5.99885 0
M  V30 2232 H 211.503 -0.86237 -4.7717 0
M  V30 2233 N 212.846 1.57033 -0.133567 0
M  V30 2234 C 213.776 2.1909 0.807567 0
M  V30 2235 C 214.757 1.13517 1.26681 0
M  V30 2236 O 215.942 1.41809 1.32679 0
M  V30 2237 C 213.072 2.80188 2.05212 0
M  V30 2238 C 212.026 3.91471 1.73015 0
M  V30 2239 C 211.352 4.39443 3.04622 0
M  V30 2240 C 212.652 5.12886 0.987168 0
M  V30 2241 H 214.346 2.97988 0.290403 0
M  V30 2242 H 211.892 1.43335 0.138239 0
M  V30 2243 H 213.845 3.22264 2.71521 0
M  V30 2244 H 212.569 1.98601 2.59278 0
M  V30 2245 H 211.228 3.49993 1.0909 0
M  V30 2246 H 210.876 3.54695 3.56651 0
M  V30 2247 H 210.576 5.14495 2.83847 0
M  V30 2248 H 212.1 4.8418 3.72024 0
M  V30 2249 H 213.514 5.51891 1.55208 0
M  V30 2250 H 211.911 5.93615 0.87985 0
M  V30 2251 H 212.981 4.84894 -0.0235286 0
M  V30 2252 N 214.325 -0.140222 1.56975 0
M  V30 2253 C 215.602 -0.880769 1.74648 0
M  V30 2254 C 215.982 -1.99036 0.703404 0
M  V30 2255 O 215.33 -2.26821 -0.27648 0
M  V30 2256 C 215.54 -1.417 3.18939 0
M  V30 2257 C 216.888 -1.87774 3.80823 0
M  V30 2258 O 217.912 -1.51427 3.2241 0
M  V30 2259 O 216.771 -2.54827 4.83452 0
M  V30 2260 H 213.865 -0.416713 0.714338 0
M  V30 2261 H 216.411 -0.125618 1.69234 0
M  V30 2262 H 215.183 -0.619902 3.86359 0
M  V30 2263 H 214.806 -2.23546 3.28805 0
M  V30 2264 N 215.803 -1.52179 -0.40978 0
M  V30 2265 C 217.08 -1.56769 -1.16974 0
M  V30 2266 C 217.46 -0.348322 -2.08206 0
M  V30 2267 O 216.808 0.664862 -2.18613 0
M  V30 2268 C 217.018 -2.89603 -1.9476 0
M  V30 2269 C 218.366 -3.42579 -2.50849 0
M  V30 2270 O 219.39 -2.91338 -2.04941 0
M  V30 2271 O 218.249 -4.32054 -3.34652 0
M  V30 2272 H 215.343 -0.631439 -0.534054 0
M  V30 2273 H 217.889 -1.64507 -0.416613 0
M  V30 2274 H 216.661 -3.698 -1.27921 0
M  V30 2275 H 216.284 -2.85155 -2.77079 0
M  V30 2276 N 217.281 0.66697 -1.42791 0
M  V30 2277 C 218.528 1.42699 -1.43678 0
M  V30 2278 C 218.856 1.94419 -0.0560425 0
M  V30 2279 O 218.111 1.7182 0.936831 0
M  V30 2280 C 218.41 2.6349 -2.4147 0
M  V30 2281 C 218.076 2.30267 -3.8767 0
M  V30 2282 C 216.738 2.20918 -4.27491 0
M  V30 2283 C 219.09 2.03435 -4.79858 0
M  V30 2284 C 216.418 1.82873 -5.57471 0
M  V30 2285 C 218.77 1.66892 -6.10188 0
M  V30 2286 C 217.434 1.56058 -6.49001 0
M  V30 2287 H 216.704 0.522171 -0.525755 0
M  V30 2288 H 219.351 0.759785 -1.75783 0
M  V30 2289 H 217.656 3.35279 -2.0272 0
M  V30 2290 H 219.353 3.21684 -2.39417 0
M  V30 2291 H 215.943 2.38449 -3.56146 0
M  V30 2292 H 220.127 2.09586 -4.49875 0
M  V30 2293 H 215.383 1.7306 -5.86396 0
M  V30 2294 H 219.557 1.45157 -6.81104 0
M  V30 2295 H 217.184 1.26348 -7.49627 0
M  V30 2296 N 218.759 1.29093 0.90403 0
M  V30 2297 C 220.005 1.16986 1.65656 0
M  V30 2298 C 220.338 -0.278925 1.92186 0
M  V30 2299 O 219.613 -1.2019 1.5292 0
M  V30 2300 C 219.896 1.97908 3.0084 0
M  V30 2301 C 219.749 3.50903 2.81403 0
M  V30 2302 C 221.068 1.80208 4.01513 0
M  V30 2303 H 218.187 0.426346 0.601164 0
M  V30 2304 H 220.829 1.58518 1.04747 0
M  V30 2305 H 218.979 1.62616 3.52829 0
M  V30 2306 H 220.651 3.96153 2.36348 0
M  V30 2307 H 218.894 3.76045 2.1627 0
M  V30 2308 H 219.565 4.02791 3.77443 0
M  V30 2309 H 222.041 2.11025 3.58619 0
M  V30 2310 H 220.917 2.39184 4.94047 0
M  V30 2311 H 221.178 0.756119 4.35586 0
M  V30 2312 N 220.237 -1.11381 1.11499 0
M  V30 2313 C 221.17 -2.16621 0.71769 0
M  V30 2314 C 222.148 -1.60058 -0.286413 0
M  V30 2315 O 223.332 -1.87613 -0.182689 0
M  V30 2316 C 220.459 -3.38646 0.0607265 0
M  V30 2317 C 219.505 -4.13874 1.03008 0
M  V30 2318 S 220.338 -4.70731 2.55289 0
M  V30 2319 C 221.494 -5.96079 1.90895 0
M  V30 2320 H 221.727 -2.49987 1.60915 0
M  V30 2321 H 219.26 -1.23015 0.933092 0
M  V30 2322 H 221.218 -4.09313 -0.311965 0
M  V30 2323 H 219.879 -3.03537 -0.807702 0
M  V30 2324 H 219.072 -5.01333 0.517853 0
M  V30 2325 H 218.674 -3.4897 1.34522 0
M  V30 2326 H 220.966 -6.65948 1.24577 0
M  V30 2327 H 221.909 -6.51946 2.76354 0
M  V30 2328 H 222.317 -5.47652 1.36885 0
M  V30 2329 N 221.715 -0.905404 -1.28997 0
M  V30 2330 C 222.94 -0.549175 -1.99997 0
M  V30 2331 C 223.365 0.860276 -1.67275 0
M  V30 2332 O 222.723 1.57355 -0.900502 0
M  V30 2333 C 222.771 -0.755185 -3.52604 0
M  V30 2334 O 221.875 0.189692 -4.11964 0
M  V30 2335 H 221.216 -0.213899 -0.628604 0
M  V30 2336 H 223.746 -1.21856 -1.64354 0
M  V30 2337 H 223.756 -0.662045 -4.02593 0
M  V30 2338 H 222.431 -1.78271 -3.75755 0
M  V30 2339 H 221.008 0.0485257 -3.72868 0
M  V30 2340 N 223.193 1.4272 -0.668489 0
M  V30 2341 C 224.423 2.05668 -0.196063 0
M  V30 2342 C 224.831 1.5028 1.14946 0
M  V30 2343 O 224.174 0.6348 1.72383 0
M  V30 2344 C 224.236 3.59469 -0.0468879 0
M  V30 2345 C 223.9 4.37518 -1.32012 0
M  V30 2346 C 224.897 4.68584 -2.25222 0
M  V30 2347 C 222.582 4.77266 -1.56596 0
M  V30 2348 C 224.576 5.38326 -3.41297 0
M  V30 2349 C 222.263 5.4675 -2.72962 0
M  V30 2350 C 223.261 5.77204 -3.65137 0
M  V30 2351 O 222.949 6.45264 -4.79468 0
M  V30 2352 H 222.681 0.669382 -0.0943599 0
M  V30 2353 H 225.235 1.83954 -0.913788 0
M  V30 2354 H 223.465 3.79817 0.726357 0
M  V30 2355 H 225.154 4.04071 0.384852 0
M  V30 2356 H 225.92 4.38382 -2.07477 0
M  V30 2357 H 221.799 4.52959 -0.857249 0
M  V30 2358 H 225.343 5.62014 -4.13263 0
M  V30 2359 H 221.24 5.76369 -2.90635 0
M  V30 2360 H 222.008 6.63753 -4.78931 0
M  V30 2361 N 224.671 0.411399 1.52136 0
M  V30 2362 C 225.601 -0.404015 2.29978 0
M  V30 2363 C 226.582 -1.04412 1.34284 0
M  V30 2364 O 227.767 -1.0527 1.63192 0
M  V30 2365 C 224.897 -1.5197 3.12286 0
M  V30 2366 C 223.851 -1.00448 4.16046 0
M  V30 2367 C 223.177 -2.21393 4.86712 0
M  V30 2368 C 224.477 -0.0569336 5.22269 0
M  V30 2369 H 226.171 0.245529 2.98392 0
M  V30 2370 H 223.717 0.119525 1.43503 0
M  V30 2371 H 225.67 -2.09715 3.6551 0
M  V30 2372 H 224.394 -2.19716 2.41646 0
M  V30 2373 H 223.053 -0.449421 3.63835 0
M  V30 2374 H 222.701 -2.87699 4.12599 0
M  V30 2375 H 222.401 -1.87571 5.56858 0
M  V30 2376 H 223.925 -2.7974 5.4275 0
M  V30 2377 H 225.339 -0.54325 5.7072 0
M  V30 2378 H 223.736 0.192594 5.99791 0
M  V30 2379 H 224.806 0.887663 4.76706 0
M  V30 2380 N 226.149 -1.5696 0.141893 0
M  V30 2381 C 227.396 -1.9596 -0.510492 0
M  V30 2382 C 227.724 -1.02648 -1.65208 0
M  V30 2383 O 226.979 -0.0546947 -1.95624 0
M  V30 2384 C 227.278 -3.41242 -1.06249 0
M  V30 2385 C 226.944 -4.50882 -0.0398791 0
M  V30 2386 C 225.606 -4.80595 0.241247 0
M  V30 2387 C 227.958 -5.17058 0.65578 0
M  V30 2388 C 225.286 -5.73792 1.22393 0
M  V30 2389 C 227.638 -6.11313 1.62724 0
M  V30 2390 C 226.302 -6.39407 1.91612 0
M  V30 2391 H 225.572 -0.717068 -0.186802 0
M  V30 2392 H 228.219 -1.90142 0.227643 0
M  V30 2393 H 226.524 -3.43866 -1.87785 0
M  V30 2394 H 228.221 -3.68742 -1.57576 0
M  V30 2395 H 224.811 -4.27754 -0.269174 0
M  V30 2396 H 228.995 -4.94239 0.451779 0
M  V30 2397 H 224.251 -5.93853 1.45424 0
M  V30 2398 H 228.425 -6.61668 2.17183 0
M  V30 2399 H 226.052 -7.11427 2.6791 0
M  V30 2400 N 227.627 0.131896 -1.57047 0
M  V30 2401 C 228.59 1.14638 -1.98471 0
M  V30 2402 C 229.59 1.35029 -0.873148 0
M  V30 2403 O 230.78 1.31764 -1.13946 0
M  V30 2404 C 227.912 2.50358 -2.31373 0
M  V30 2405 H 229.105 0.79064 -2.8929 0
M  V30 2406 H 226.658 0.375761 -1.51716 0
M  V30 2407 H 227.393 2.90876 -1.43393 0
M  V30 2408 H 227.178 2.36915 -3.12432 0
M  V30 2409 H 228.668 3.23395 -2.64207 0
M  V30 2410 N 229.106 1.52395 0.401703 0
M  V30 2411 C 230.038 1.72505 1.50912 0
M  V30 2412 C 231.051 0.605468 1.51122 0
M  V30 2413 O 232.24 0.880828 1.55254 0
M  V30 2414 C 229.34 1.75711 2.89791 0
M  V30 2415 C 228.513 3.04824 3.1369 0
M  V30 2416 C 227.572 2.99743 4.32482 0
M  V30 2417 O 226.598 3.73635 4.29402 0
M  V30 2418 N 227.8 2.18047 5.37992 0
M  V30 2419 H 230.565 2.68049 1.34052 0
M  V30 2420 H 228.126 1.50724 0.591084 0
M  V30 2421 H 230.118 1.69834 3.6734 0
M  V30 2422 H 228.688 0.876092 3.00072 0
M  V30 2423 H 227.908 3.2429 2.24119 0
M  V30 2424 H 229.196 3.90221 3.26504 0
M  V30 2425 H 228.594 1.57456 5.43345 0
M  V30 2426 H 227.151 2.18021 6.14256 0
M  V30 2427 N 230.584 -0.659388 1.43143 0
M  V30 2428 C 231.83 -1.41984 1.45644 0
M  V30 2429 C 232.185 -1.92245 0.0771718 0
M  V30 2430 O 231.478 -1.68976 -0.903205 0
M  V30 2431 C 231.672 -2.62206 2.42864 0
M  V30 2432 C 231.501 -2.23711 3.90107 0
M  V30 2433 C 230.271 -2.12332 4.58523 0
M  V30 2434 C 232.469 -1.84384 4.80112 0
M  V30 2435 N 230.451 -1.67102 5.9072 0
M  V30 2436 C 231.822 -1.5019 6.01534 0
M  V30 2437 C 233.877 -1.71512 4.67427 0
M  V30 2438 C 232.58 -1.04414 7.11681 0
M  V30 2439 C 234.606 -1.27142 5.77572 0
M  V30 2440 C 233.968 -0.938808 6.98116 0
M  V30 2441 H 230.067 -0.515448 0.588079 0
M  V30 2442 H 232.651 -0.759409 1.79279 0
M  V30 2443 H 230.822 -3.25917 2.11265 0
M  V30 2444 H 232.554 -3.28877 2.35843 0
M  V30 2445 H 229.309 -2.31893 4.12944 0
M  V30 2446 H 229.733 -1.46866 6.60878 0
M  V30 2447 H 234.375 -1.95868 3.74694 0
M  V30 2448 H 232.093 -0.788061 8.04248 0
M  V30 2449 H 235.679 -1.17681 5.69774 0
M  V30 2450 H 234.559 -0.6007 7.81896 0
M  V30 2451 N 232.062 -1.29571 -0.897171 0
M  V30 2452 C 233.478 -1.07637 -1.17841 0
M  V30 2453 C 233.678 0.170713 -2.00776 0
M  V30 2454 O 232.734 0.867768 -2.3712 0
M  V30 2455 C 234.047 -2.3332 -1.8969 0
M  V30 2456 C 235.595 -2.38664 -2.02505 0
M  V30 2457 C 236.07 -3.64157 -2.77765 0
M  V30 2458 N 237.561 -3.64894 -2.85318 0
M  V30 2459 C 238.296 -4.58679 -3.44094 0
M  V30 2460 N 237.792 -5.62799 -4.04017 0
M  V30 2461 N 239.585 -4.46245 -3.41793 0
M  V30 2462 H 231.736 -2.09598 -0.343883 0
M  V30 2463 H 233.999 -0.923333 -0.214848 0
M  V30 2464 H 233.705 -3.24262 -1.36187 0
M  V30 2465 H 233.579 -2.41025 -2.9015 0
M  V30 2466 H 235.966 -1.48208 -2.55183 0
M  V30 2467 H 236.047 -2.34943 -1.01171 0
M  V30 2468 H 235.691 -4.54965 -2.25763 0
M  V30 2469 H 235.621 -3.65137 -3.7945 0
M  V30 2470 H 238.112 -2.89613 -2.42761 0
M  V30 2471 H 238.425 -6.3048 -4.46895 0
M  V30 2472 H 236.77 -5.66605 -4.02472 0
M  V30 2473 H 239.961 -3.64094 -2.94199 0
M  V30 2474 H 240.134 -5.19518 -3.87304 0
M  V30 2475 N 233.54 1.10788 -1.12088 0
M  V30 2476 C 234.49 2.15158 -0.754401 0
M  V30 2477 C 235.474 1.59026 0.244846 0
M  V30 2478 O 236.666 1.76927 0.0509097 0
M  V30 2479 C 233.795 3.42677 -0.206657 0
M  V30 2480 C 232.881 4.05751 -1.23398 0
M  V30 2481 N 233.272 4.43582 -2.43041 0
M  V30 2482 C 231.57 4.32764 -1.07848 0
M  V30 2483 C 232.271 4.93085 -3.08613 0
M  V30 2484 N 231.247 4.89664 -2.36072 0
M  V30 2485 H 235.049 2.42195 -1.6649 0
M  V30 2486 H 232.563 1.27872 -1.00112 0
M  V30 2487 H 234.56 4.16834 0.0740646 0
M  V30 2488 H 233.22 3.17101 0.698342 0
M  V30 2489 H 234.231 4.35395 -2.80449 0
M  V30 2490 H 230.908 4.16863 -0.230483 0
M  V30 2491 H 232.298 5.31933 -4.10483 0
M  V30 2492 N 235.018 0.912232 1.28515 0
M  V30 2493 C 236.295 0.463597 1.90027 0
M  V30 2494 C 236.675 -1.05753 1.82701 0
M  V30 2495 O 236.023 -1.90492 1.26194 0
M  V30 2496 C 236.233 0.992253 3.34597 0
M  V30 2497 C 237.581 1.04344 4.11579 0
M  V30 2498 O 238.605 0.94079 3.43551 0
M  V30 2499 O 237.464 1.1995 5.33174 0
M  V30 2500 H 234.558 0.146666 0.813891 0
M  V30 2501 H 237.104 1.00292 1.36893 0
M  V30 2502 H 235.876 2.03623 3.34146 0
M  V30 2503 H 235.499 0.433672 3.95228 0
M  V30 2504 N 236.496 -1.42363 0.676048 0
M  V30 2505 C 237.743 -2.01522 0.19883 0
M  V30 2506 C 238.071 -1.53456 -1.19505 0
M  V30 2507 O 237.326 -0.727967 -1.81657 0
M  V30 2508 C 237.625 -3.56929 0.183431 0
M  V30 2509 C 237.291 -4.24431 1.52215 0
M  V30 2510 C 235.953 -4.42585 1.8887 0
M  V30 2511 C 238.305 -4.62459 2.40377 0
M  V30 2512 C 235.633 -4.96039 3.13309 0
M  V30 2513 C 237.985 -5.17294 3.64129 0
M  V30 2514 C 236.649 -5.33661 4.00951 0
M  V30 2515 H 235.919 -0.737419 0.0727571 0
M  V30 2516 H 238.566 -1.70531 0.871281 0
M  V30 2517 H 236.871 -3.87594 -0.572532 0
M  V30 2518 H 238.568 -4.00486 -0.203035 0
M  V30 2519 H 235.158 -4.10661 1.22701 0
M  V30 2520 H 239.342 -4.48105 2.13343 0
M  V30 2521 H 234.598 -5.06896 3.41857 0
M  V30 2522 H 238.772 -5.45704 4.32644 0
M  V30 2523 H 236.399 -5.74845 4.9745 0
M  V30 2524 N 237.974 -0.419461 -1.51915 0
M  V30 2525 C 239.22 0.153166 -2.02221 0
M  V30 2526 C 239.553 1.43907 -1.30401 0
M  V30 2527 O 238.828 1.90055 -0.413438 0
M  V30 2528 C 239.111 0.390291 -3.57979 0
M  V30 2529 C 238.964 -0.913014 -4.40436 0
M  V30 2530 C 240.283 1.16794 -4.2432 0
M  V30 2531 H 237.402 0.0541924 -0.735005 0
M  V30 2532 H 240.044 -0.554955 -1.81715 0
M  V30 2533 H 238.194 0.993491 -3.75582 0
M  V30 2534 H 239.866 -1.54882 -4.34522 0
M  V30 2535 H 238.109 -1.52168 -4.06236 0
M  V30 2536 H 238.78 -0.701361 -5.47526 0
M  V30 2537 H 241.256 0.657161 -4.10878 0
M  V30 2538 H 240.132 1.3026 -5.3322 0
M  V30 2539 H 240.393 2.19132 -3.83971 0
M  V30 2540 N 239.452 1.56882 -0.150215 0
M  V30 2541 C 240.402 2.13501 0.800071 0
M  V30 2542 C 241.386 1.06368 1.20726 0
M  V30 2543 O 242.578 1.32538 1.17314 0
M  V30 2544 C 239.707 2.76271 2.03787 0
M  V30 2545 C 238.793 3.90533 1.65364 0
M  V30 2546 N 239.184 4.96259 0.977794 0
M  V30 2547 C 237.482 4.013 1.94613 0
M  V30 2548 C 238.183 5.76286 0.791794 0
M  V30 2549 N 237.159 5.27163 1.32666 0
M  V30 2550 H 240.961 2.92615 0.274517 0
M  V30 2551 H 238.475 1.62319 0.0512144 0
M  V30 2552 H 240.472 3.15197 2.72867 0
M  V30 2553 H 239.132 1.98631 2.56857 0
M  V30 2554 H 240.143 5.13953 0.638193 0
M  V30 2555 H 236.82 3.3474 2.4951 0
M  V30 2556 H 238.21 6.71401 0.258894 0
M  V30 2557 N 240.93 -0.123565 1.57115 0
M  V30 2558 C 242.178 -0.83051 1.84247 0
M  V30 2559 C 242.499 -1.80629 0.73471 0
M  V30 2560 O 241.769 -1.94403 -0.241688 0
M  V30 2561 H 240.349 -0.309694 0.679778 0
M  V30 2562 H 243.011 -0.111976 1.94578 0
M  V30 2563 H 242.107 -1.37852 2.80006 0
M  V30 2564 N 242.408 -1.52605 -0.393616 0
M  V30 2565 C 243.654 -1.68624 -1.13743 0
M  V30 2566 C 244.009 -0.418687 -1.87789 0
M  V30 2567 O 243.302 0.58747 -1.82371 0
M  V30 2568 C 243.496 -2.85721 -2.14705 0
M  V30 2569 C 243.325 -4.23742 -1.50575 0
M  V30 2570 C 242.095 -4.89033 -1.2718 0
M  V30 2571 C 244.293 -5.05293 -0.958311 0
M  V30 2572 N 242.275 -6.11048 -0.591058 0
M  V30 2573 C 243.646 -6.18673 -0.405367 0
M  V30 2574 C 245.701 -4.90517 -0.854274 0
M  V30 2575 C 244.404 -7.18895 0.241434 0
M  V30 2576 C 246.43 -5.90986 -0.221301 0
M  V30 2577 C 245.792 -7.03669 0.320894 0
M  V30 2578 H 241.891 -0.670556 -0.402342 0
M  V30 2579 H 244.475 -1.89946 -0.427607 0
M  V30 2580 H 242.646 -2.65987 -2.83029 0
M  V30 2581 H 244.378 -2.90699 -2.8156 0
M  V30 2582 H 241.133 -4.47672 -1.54554 0
M  V30 2583 H 241.557 -6.76474 -0.266862 0
M  V30 2584 H 246.199 -4.03612 -1.25926 0
M  V30 2585 H 243.917 -8.05413 0.658448 0
M  V30 2586 H 247.503 -5.81626 -0.142111 0
M  V30 2587 H 246.383 -7.80078 0.802956 0
M  V30 2588 N 243.887 0.651787 -1.4349 0
M  V30 2589 C 245.136 1.40754 -1.44469 0
M  V30 2590 C 245.449 1.95463 -0.0731845 0
M  V30 2591 O 246.655 2.71471 0.0395721 0
M  V30 2592 C 245.111 2.54735 -2.5424 0
M  V30 2593 C 244.719 2.06628 -3.97504 0
M  V30 2594 C 246.463 3.32092 -2.64414 0
M  V30 2595 C 244.37 3.17829 -4.98737 0
M  V30 2596 H 243.3 0.528862 -0.53742 0
M  V30 2597 H 245.951 0.703365 -1.69485 0
M  V30 2598 H 244.333 3.2763 -2.22428 0
M  V30 2599 H 245.507 1.40734 -4.38783 0
M  V30 2600 H 243.822 1.42146 -3.91387 0
M  V30 2601 H 246.419 4.14952 -3.37223 0
M  V30 2602 H 246.762 3.80217 -1.69532 0
M  V30 2603 H 247.295 2.66279 -2.95534 0
M  V30 2604 H 244.034 2.74671 -5.95177 0
M  V30 2605 H 243.554 3.82429 -4.62069 0
M  V30 2606 H 245.233 3.82937 -5.21505 0
M  V30 2607 N 245.365 1.30045 0.890287 0
M  V30 2608 C 246.312 1.15976 1.99545 0
M  V30 2609 C 247.282 0.0506202 1.66023 0
M  V30 2610 O 248.467 0.219847 1.89529 0
M  V30 2611 C 245.607 0.852054 3.34416 0
M  V30 2612 C 244.72 2.04255 3.80662 0
M  V30 2613 C 243.855 1.6734 5.04154 0
M  V30 2614 C 242.894 2.82916 5.42794 0
M  V30 2615 N 242.031 2.46333 6.57468 0
M  V30 2616 H 246.871 2.10524 2.10911 0
M  V30 2617 H 244.408 1.04749 1.03276 0
M  V30 2618 H 246.366 0.654296 4.12037 0
M  V30 2619 H 244.996 -0.0565502 3.2275 0
M  V30 2620 H 244.048 2.35172 2.98995 0
M  V30 2621 H 245.36 2.90826 4.05242 0
M  V30 2622 H 244.514 1.43908 5.89386 0
M  V30 2623 H 243.253 0.779308 4.81433 0
M  V30 2624 H 242.258 3.0702 4.56091 0
M  V30 2625 H 243.483 3.73004 5.6749 0
M  V30 2626 H 241.429 1.59423 6.36334 0
M  V30 2627 H 241.346 3.26436 6.81891 0
M  V30 2628 H 242.614 2.26244 7.45945 0
M  V30 2629 N 246.843 -1.10192 1.12674 0
M  V30 2630 C 248.089 -1.82475 0.884915 0
M  V30 2631 C 248.422 -1.85093 -0.58773 0
M  V30 2632 O 247.697 -1.3134 -1.43457 0
M  V30 2633 C 247.98 -3.29018 1.46353 0
M  V30 2634 C 247.833 -3.34718 3.00473 0
M  V30 2635 C 249.152 -4.25473 1.12519 0
M  V30 2636 H 246.271 -0.662492 0.322915 0
M  V30 2637 H 248.913 -1.2913 1.39375 0
M  V30 2638 H 247.063 -3.74576 1.03077 0
M  V30 2639 H 248.735 -2.97622 3.52447 0
M  V30 2640 H 246.978 -2.74541 3.35872 0
M  V30 2641 H 247.649 -4.37918 3.36053 0
M  V30 2642 H 250.125 -3.88161 1.499 0
M  V30 2643 H 249.001 -5.26365 1.55663 0
M  V30 2644 H 249.262 -4.42084 0.0377407 0
M  V30 2645 N 248.321 -0.919034 -1.28029 0
M  V30 2646 C 249.732 -0.600735 -1.76771 0
M  V30 2647 C 250.083 0.884024 -1.75156 0
M  V30 2648 O 249.208 1.69163 -1.34956 0
M  V30 2649 C 249.803 -1.08372 -3.21 0
M  V30 2650 C 248.362 -0.816248 -3.67443 0
M  V30 2651 C 247.509 -1.24742 -2.47658 0
M  V30 2652 H 250.46 -1.09974 -1.14418 0
M  V30 2653 H 250.481 -0.427512 -3.78091 0
M  V30 2654 H 249.993 -2.16437 -3.22144 0
M  V30 2655 H 248.094 0.250968 -3.71754 0
M  V30 2656 H 248.207 -1.4277 -4.57333 0
M  V30 2657 H 246.571 -0.666083 -2.45836 0
M  V30 2658 H 247.354 -2.33653 -2.51518 0
M  V30 2659 N 249.799 1.42003 -0.683588 0
M  V30 2660 C 251.045 2.01712 -0.209825 0
M  V30 2661 C 251.378 1.53968 1.18353 0
M  V30 2662 O 250.653 0.745661 1.79639 0
M  V30 2663 C 250.936 3.59202 -0.254197 0
M  V30 2664 C 250.789 4.17102 -1.68363 0
M  V30 2665 C 252.108 4.38344 0.392709 0
M  V30 2666 H 249.227 0.732891 -0.0777189 0
M  V30 2667 H 251.869 1.68909 -0.87004 0
M  V30 2668 H 250.019 3.87278 0.307954 0
M  V30 2669 H 251.691 3.99946 -2.29871 0
M  V30 2670 H 249.934 3.72597 -2.22157 0
M  V30 2671 H 250.605 5.26249 -1.6663 0
M  V30 2672 H 253.081 4.16011 -0.0859162 0
M  V30 2673 H 251.957 5.47901 0.331063 0
M  V30 2674 H 252.218 4.16887 1.47164 0
M  V30 2675 N 251.277 0.427512 1.51691 0
M  V30 2676 C 252.505 -0.141191 2.06418 0
M  V30 2677 C 252.92 -1.37303 1.29589 0
M  V30 2678 O 252.277 -1.79059 0.352732 0
M  V30 2679 C 252.328 -0.473266 3.58389 0
M  V30 2680 O 252.049 0.709673 4.32314 0
M  V30 2681 C 253.55 -1.09371 4.29596 0
M  V30 2682 H 250.77 -0.0122747 0.670888 0
M  V30 2683 H 253.314 0.603764 1.95384 0
M  V30 2684 H 251.469 -1.16812 3.69369 0
M  V30 2685 H 251.883 0.42807 5.2275 0
M  V30 2686 H 253.357 -1.27613 5.37046 0
M  V30 2687 H 253.834 -2.072 3.87253 0
M  V30 2688 H 254.44 -0.43853 4.23033 0
M  V30 2689 N 252.755 -1.56801 0.158532 0
M  V30 2690 C 253.705 -2.13923 -0.788738 0
M  V30 2691 C 254.689 -1.07006 -1.2016 0
M  V30 2692 O 255.881 -1.33159 -1.1661 0
M  V30 2693 C 253.01 -2.77348 -2.02319 0
M  V30 2694 C 252.096 -3.91404 -1.6329 0
M  V30 2695 N 252.487 -4.9677 -0.951463 0
M  V30 2696 C 250.785 -4.02326 -1.92482 0
M  V30 2697 C 251.486 -5.76698 -0.761221 0
M  V30 2698 N 250.462 -5.27859 -1.29869 0
M  V30 2699 H 254.264 -2.92757 -0.258995 0
M  V30 2700 H 251.778 -1.62344 -0.0426055 0
M  V30 2701 H 253.775 -3.16639 -2.71192 0
M  V30 2702 H 252.435 -1.99991 -2.558 0
M  V30 2703 H 253.446 -5.14284 -0.610928 0
M  V30 2704 H 250.123 -3.36059 -2.47732 0
M  V30 2705 H 251.513 -6.71529 -0.223284 0
M  V30 2706 N 254.233 0.115231 -1.57178 0
M  V30 2707 C 255.143 1.15994 -2.03918 0
M  V30 2708 C 256.159 1.45103 -0.960268 0
M  V30 2709 O 257.335 1.56144 -1.27204 0
M  V30 2710 C 254.4 2.46568 -2.43732 0
M  V30 2711 C 253.461 2.24822 -3.65723 0
M  V30 2712 C 252.694 3.4917 -4.03629 0
M  V30 2713 O 252.917 4.56623 -3.41835 0
M  V30 2714 O 251.851 3.39949 -4.96708 0
M  V30 2715 H 255.677 0.793019 -2.93164 0
M  V30 2716 H 253.262 0.3263 -1.45793 0
M  V30 2717 H 255.144 3.23492 -2.70057 0
M  V30 2718 H 253.819 2.82726 -1.57631 0
M  V30 2719 H 252.726 1.45744 -3.44542 0
M  V30 2720 H 254.059 1.93566 -4.52541 0
M  V30 2721 N 255.711 1.52812 0.385517 0
M  V30 2722 C 256.939 1.71907 1.15133 0
M  V30 2723 C 257.354 0.439004 1.83625 0
M  V30 2724 O 256.711 -0.586765 1.7281 0
M  V30 2725 C 256.762 2.87099 2.19673 0
M  V30 2726 O 256.483 4.10151 1.53973 0
M  V30 2727 C 257.984 3.17902 3.08955 0
M  V30 2728 H 255.204 0.575479 0.345057 0
M  V30 2729 H 257.748 1.99476 0.45052 0
M  V30 2730 H 255.903 2.61982 2.85384 0
M  V30 2731 H 256.317 4.74514 2.23465 0
M  V30 2732 H 257.791 4.01959 3.7833 0
M  V30 2733 H 258.268 2.3243 3.72657 0
M  V30 2734 H 258.874 3.44871 2.48885 0
M  V30 2735 N 257.189 -0.644168 1.43834 0
M  V30 2736 C 258.121 -1.76955 1.45669 0
M  V30 2737 C 259.134 -1.58956 0.351666 0
M  V30 2738 O 260.323 -1.6751 0.616644 0
M  V30 2739 C 257.423 -3.14507 1.26248 0
M  V30 2740 C 256.596 -3.59083 2.49757 0
M  V30 2741 C 255.655 -4.75467 2.25427 0
M  V30 2742 O 254.681 -4.84444 2.98836 0
M  V30 2743 N 255.883 -5.66289 1.27661 0
M  V30 2744 H 258.648 -1.75856 2.42682 0
M  V30 2745 H 256.209 -0.828312 1.39106 0
M  V30 2746 H 258.201 -3.90067 1.0784 0
M  V30 2747 H 256.771 -3.10325 0.376478 0
M  V30 2748 H 255.991 -2.7387 2.8353 0
M  V30 2749 H 257.279 -3.85613 3.31934 0
M  V30 2750 H 256.677 -5.61718 0.670064 0
M  V30 2751 H 255.234 -6.41533 1.15234 0
M  V30 2752 N 258.668 -1.30515 -0.883378 0
M  V30 2753 C 259.578 -1.18959 -2.02203 0
M  V30 2754 C 260.594 -0.109172 -1.73657 0
M  V30 2755 O 261.77 -0.324413 -1.9877 0
M  V30 2756 C 258.835 -0.883871 -3.35244 0
M  V30 2757 C 257.896 -2.04982 -3.77201 0
M  V30 2758 C 257.129 -1.75859 -5.03894 0
M  V30 2759 O 257.352 -0.687276 -5.66244 0
M  V30 2760 O 256.286 -2.61146 -5.42297 0
M  V30 2761 H 260.112 -2.14616 -2.1488 0
M  V30 2762 H 257.697 -1.10124 -1.0096 0
M  V30 2763 H 259.579 -0.728644 -4.15053 0
M  V30 2764 H 258.254 0.0427798 -3.23672 0
M  V30 2765 H 257.161 -2.26038 -2.9809 0
M  V30 2766 H 258.494 -2.95825 -3.93381 0
M  V30 2767 N 260.146 1.09593 -1.13257 0
M  V30 2768 C 261.056 2.19739 -0.821691 0
M  V30 2769 C 262.072 1.72926 0.19302 0
M  V30 2770 O 263.248 2.01385 0.0244895 0
M  V30 2771 C 260.313 3.45482 -0.290333 0
M  V30 2772 C 259.374 4.06985 -1.36607 0
M  V30 2773 C 258.607 5.26726 -0.859975 0
M  V30 2774 O 258.83 5.69594 0.303082 0
M  V30 2775 O 257.764 5.7931 -1.63351 0
M  V30 2776 H 261.59 2.48781 -1.74189 0
M  V30 2777 H 259.175 1.18496 -0.909894 0
M  V30 2778 H 261.057 4.214 0.000674022 0
M  V30 2779 H 259.732 3.18047 0.602306 0
M  V30 2780 H 258.639 3.32712 -1.71037 0
M  V30 2781 H 259.972 4.38643 -2.23279 0
M  V30 2782 N 261.624 0.925811 1.2754 0
M  V30 2783 C 262.864 0.572521 1.96218 0
M  V30 2784 C 263.228 -0.869719 1.71172 0
M  V30 2785 O 264.429 -1.33119 2.33523 0
M  V30 2786 C 262.7 0.887325 3.4621 0
M  V30 2787 S 264.259 0.642266 4.34074 0
M  V30 2788 H 261.077 0.211403 0.678845 0
M  V30 2789 H 263.679 1.19384 1.54815 0
M  V30 2790 H 262.383 1.93469 3.61936 0
M  V30 2791 H 261.914 0.255123 3.92572 0
M  V30 2792 H 263.929 -0.500822 4.93666 0
M  V30 2793 N 263.102 -1.41638 0.69111 0
M  V30 2794 C 264.032 -2.3347 0.037248 0
M  V30 2795 C 265.013 -1.51575 -0.771947 0
M  V30 2796 O 266.198 -1.80126 -0.72582 0
M  V30 2797 C 263.328 -3.35354 -0.903064 0
M  V30 2798 C 262.282 -4.27526 -0.201288 0
M  V30 2799 C 261.608 -5.19747 -1.25565 0
M  V30 2800 C 262.908 -5.13959 0.929689 0
M  V30 2801 H 264.602 -2.88397 0.804227 0
M  V30 2802 H 262.148 -1.38669 0.388189 0
M  V30 2803 H 264.101 -3.98519 -1.36969 0
M  V30 2804 H 262.825 -2.78767 -1.70166 0
M  V30 2805 H 261.484 -3.65779 0.245265 0
M  V30 2806 H 261.132 -4.59479 -2.04666 0
M  V30 2807 H 260.832 -5.8225 -0.791128 0
M  V30 2808 H 262.356 -5.85789 -1.72288 0
M  V30 2809 H 263.77 -5.70718 0.543546 0
M  V30 2810 H 262.167 -5.85379 1.32103 0
M  V30 2811 H 263.237 -4.51389 1.77133 0
M  V30 2812 N 264.58 -0.43555 -1.51462 0
M  V30 2813 C 265.828 0.131254 -2.01673 0
M  V30 2814 C 266.149 1.43368 -1.32177 0
M  V30 2815 O 265.419 1.90524 -0.455769 0
M  V30 2816 H 263.999 0.0514954 -0.745223 0
M  V30 2817 H 266.661 -0.577847 -1.86137 0
M  V30 2818 H 265.757 0.308446 -3.10572 0
M  V30 2819 N 266.058 1.56714 -0.166846 0
M  V30 2820 C 266.991 2.13577 0.80375 0
M  V30 2821 C 267.969 1.06464 1.22899 0
M  V30 2822 O 269.153 1.34413 1.32157 0
M  V30 2823 C 266.28 2.67168 2.0818 0
M  V30 2824 C 265.326 3.86612 1.80093 0
M  V30 2825 S 266.159 5.26565 0.97416 0
M  V30 2826 C 267.315 5.83558 2.26297 0
M  V30 2827 H 267.548 2.9557 0.320267 0
M  V30 2828 H 265.081 1.54326 0.0477555 0
M  V30 2829 H 267.039 2.98692 2.8159 0
M  V30 2830 H 265.7 1.85269 2.53642 0
M  V30 2831 H 264.893 4.22422 2.7491 0
M  V30 2832 H 264.495 3.55951 1.14781 0
M  V30 2833 H 266.787 5.962 3.21795 0
M  V30 2834 H 267.73 6.80731 1.94962 0
M  V30 2835 H 268.138 5.11944 2.37853 0
M  V30 2836 N 267.536 -0.106894 1.57237 0
M  V30 2837 C 268.499 -1.11466 2.0027 0
M  V30 2838 C 269.499 -1.33623 0.894519 0
M  V30 2839 O 270.689 -1.29935 1.16028 0
M  V30 2840 C 267.821 -2.46646 2.35327 0
M  V30 2841 H 269.014 -0.744516 2.90512 0
M  V30 2842 H 266.567 -0.351576 1.52295 0
M  V30 2843 H 267.302 -2.88558 1.48003 0
M  V30 2844 H 267.087 -2.31915 3.16161 0
M  V30 2845 H 268.577 -3.19151 2.69318 0
M  V30 2846 N 269.014 -1.53014 -0.377408 0
M  V30 2847 C 270.26 -1.68872 -1.12294 0
M  V30 2848 C 270.593 -0.433224 -1.89306 0
M  V30 2849 O 269.868 0.569258 -1.85983 0
M  V30 2850 C 270.151 -2.93115 -2.09179 0
M  V30 2851 C 270.004 -4.28794 -1.35853 0
M  V30 2852 C 271.323 -3.12928 -3.09458 0
M  V30 2853 H 268.442 -0.614518 -0.406862 0
M  V30 2854 H 271.084 -1.85633 -0.40503 0
M  V30 2855 H 269.234 -2.78956 -2.70399 0
M  V30 2856 H 270.906 -4.54742 -0.775082 0
M  V30 2857 H 269.149 -4.28744 -0.660364 0
M  V30 2858 H 269.82 -5.11837 -2.06706 0
M  V30 2859 H 272.296 -3.26194 -2.58334 0
M  V30 2860 H 271.172 -4.01316 -3.74482 0
M  V30 2861 H 271.433 -2.27669 -3.78971 0
M  V30 2862 N 270.492 0.636531 -1.44174 0
M  V30 2863 C 271.422 1.76003 -1.53444 0
M  V30 2864 C 272.403 1.65619 -0.387841 0
M  V30 2865 O 273.588 1.84461 -0.607257 0
M  V30 2866 C 270.718 3.14511 -1.4731 0
M  V30 2867 C 269.672 3.39677 -2.60391 0
M  V30 2868 C 268.998 4.78159 -2.39308 0
M  V30 2869 C 270.298 3.32772 -4.02567 0
M  V30 2870 H 271.992 1.68501 -2.47483 0
M  V30 2871 H 269.538 0.809237 -1.19111 0
M  V30 2872 H 271.491 3.92878 -1.52397 0
M  V30 2873 H 270.215 3.22783 -0.49785 0
M  V30 2874 H 268.874 2.63688 -2.54684 0
M  V30 2875 H 268.522 4.83128 -1.39988 0
M  V30 2876 H 268.222 4.95956 -3.15122 0
M  V30 2877 H 269.746 5.58762 -2.46205 0
M  V30 2878 H 271.16 4.01051 -4.09672 0
M  V30 2879 H 269.557 3.62104 -4.7854 0
M  V30 2880 H 270.627 2.30669 -4.2652 0
M  V30 2881 N 271.97 1.30982 0.876444 0
M  V30 2882 C 273.247 1.10942 1.61094 0
M  V30 2883 C 273.627 -0.338223 2.08373 0
M  V30 2884 O 272.975 -1.33122 1.85717 0
M  V30 2885 C 273.185 2.11789 2.77392 0
M  V30 2886 C 274.533 2.43965 3.47514 0
M  V30 2887 O 275.557 2.10166 2.87591 0
M  V30 2888 O 274.416 3.01817 4.55597 0
M  V30 2889 H 271.51 0.42667 0.708436 0
M  V30 2890 H 274.056 1.42438 0.922474 0
M  V30 2891 H 272.828 3.09194 2.39823 0
M  V30 2892 H 272.451 1.81161 3.5393 0
M  V30 2893 N 273.449 -1.08991 1.13837 0
M  V30 2894 C 274.382 -2.15049 0.763477 0
M  V30 2895 C 275.36 -1.60629 -0.252398 0
M  V30 2896 O 276.544 -1.87958 -0.142853 0
M  V30 2897 C 273.671 -3.38441 0.132545 0
M  V30 2898 C 272.717 -4.11596 1.11763 0
M  V30 2899 S 273.55 -4.6521 2.65216 0
M  V30 2900 C 274.706 -5.91896 2.03495 0
M  V30 2901 H 274.939 -2.46518 1.66182 0
M  V30 2902 H 272.472 -1.21008 0.958976 0
M  V30 2903 H 274.43 -4.09883 -0.225074 0
M  V30 2904 H 273.091 -3.05182 -0.743135 0
M  V30 2905 H 272.284 -5.00121 0.624076 0
M  V30 2906 H 271.886 -3.46038 1.41894 0
M  V30 2907 H 274.178 -6.63156 1.38675 0
M  V30 2908 H 275.121 -6.45938 2.9012 0
M  V30 2909 H 275.529 -5.44625 1.48471 0
M  V30 2910 N 274.927 -0.932562 -1.27047 0
M  V30 2911 C 275.86 -0.379774 -2.25018 0
M  V30 2912 C 276.838 0.526587 -1.53837 0
M  V30 2913 O 278.022 0.465992 -1.82649 0
M  V30 2914 C 275.149 0.455187 -3.35627 0
M  V30 2915 C 274.195 -0.388428 -4.24728 0
M  V30 2916 S 275.028 -1.80701 -5.04091 0
M  V30 2917 C 276.184 -0.979865 -6.18182 0
M  V30 2918 H 276.417 -1.2101 -2.71558 0
M  V30 2919 H 273.95 -0.735078 -1.35779 0
M  V30 2920 H 275.908 0.931052 -3.99802 0
M  V30 2921 H 274.569 1.26009 -2.87716 0
M  V30 2922 H 273.762 0.25089 -5.03375 0
M  V30 2923 H 273.364 -0.798649 -3.65373 0
M  V30 2924 H 275.656 -0.218115 -6.77149 0
M  V30 2925 H 276.599 -1.73951 -6.86401 0
M  V30 2926 H 277.007 -0.51973 -5.62102 0
M  V30 2927 N 276.405 1.4127 -0.698611 0
M  V30 2928 C 277.821 1.55241 -0.370462 0
M  V30 2929 C 278.021 1.67351 1.12231 0
M  V30 2930 O 277.077 1.65363 1.90818 0
M  V30 2931 C 278.39 2.78997 -1.12165 0
M  V30 2932 C 279.938 2.92797 -1.1063 0
M  V30 2933 C 280.413 4.19445 -1.8393 0
M  V30 2934 N 281.904 4.26409 -1.80914 0
M  V30 2935 C 282.639 5.23271 -2.34467 0
M  V30 2936 N 282.135 6.26145 -2.96504 0
M  V30 2937 N 283.928 5.15232 -2.24706 0
M  V30 2938 H 276.079 1.31654 -1.66676 0
M  V30 2939 H 278.342 0.635393 -0.703548 0
M  V30 2940 H 278.048 2.76268 -2.17644 0
M  V30 2941 H 277.922 3.70606 -0.702209 0
M  V30 2942 H 280.309 2.95039 -0.0597713 0
M  V30 2943 H 280.39 2.02353 -1.56483 0
M  V30 2944 H 280.034 4.17964 -2.88563 0
M  V30 2945 H 279.964 5.08866 -1.35509 0
M  V30 2946 H 282.455 3.527 -1.35687 0
M  V30 2947 H 282.768 6.96451 -3.34927 0
M  V30 2948 H 281.113 6.26638 -3.00583 0
M  V30 2949 H 284.304 4.33789 -1.7591 0
M  V30 2950 H 284.477 5.90552 -2.66745 0
M  V30 2951 N 277.883 0.443576 1.51229 0
M  V30 2952 C 279.132 -0.122332 2.01329 0
M  V30 2953 C 279.445 -1.43237 1.33201 0
M  V30 2954 O 280.651 -2.0816 1.74304 0
M  V30 2955 C 279.107 -0.268551 3.58897 0
M  V30 2956 C 278.715 1.03142 4.35965 0
M  V30 2957 C 280.459 -0.787894 4.17124 0
M  V30 2958 C 278.366 0.850504 5.85252 0
M  V30 2959 H 277.296 -0.0494929 0.752374 0
M  V30 2960 H 279.947 0.574289 1.74282 0
M  V30 2961 H 278.329 -1.02832 3.82415 0
M  V30 2962 H 279.503 1.80001 4.24189 0
M  V30 2963 H 277.818 1.47977 3.89219 0
M  V30 2964 H 280.415 -0.939841 5.26375 0
M  V30 2965 H 280.758 -1.77201 3.76703 0
M  V30 2966 H 281.291 -0.0862669 3.97706 0
M  V30 2967 H 278.03 1.80718 6.30096 0
M  V30 2968 H 277.55 0.121825 5.99676 0
M  V30 2969 H 279.229 0.506163 6.45017 0
M  V30 2970 N 279.361 -1.56624 0.175154 0
M  V30 2971 C 280.324 -2.16934 -0.739738 0
M  V30 2972 C 281.324 -1.11842 -1.15533 0
M  V30 2973 O 282.514 -1.37335 -1.07167 0
M  V30 2974 C 279.646 -2.75531 -2.00738 0
M  V30 2975 H 280.839 -2.99131 -0.214639 0
M  V30 2976 H 278.392 -1.56123 -0.0744197 0
M  V30 2977 H 279.127 -1.97078 -2.57548 0
M  V30 2978 H 278.912 -3.52444 -1.71831 0
M  V30 2979 H 280.402 -3.21904 -2.66021 0
M  V30 2980 N 280.839 0.0985539 -1.57292 0
M  V30 2981 C 281.786 1.11981 -2.01814 0
M  V30 2982 C 282.756 1.39999 -0.89384 0
M  V30 2983 O 283.941 1.5152 -1.15958 0
M  V30 2984 C 281.081 2.43577 -2.44467 0
M  V30 2985 C 280.194 2.2232 -3.70402 0
M  V30 2986 C 279.329 3.4729 -4.01949 0
M  V30 2987 C 278.368 3.2128 -5.21005 0
M  V30 2988 N 277.505 4.38507 -5.48321 0
M  V30 2989 H 282.345 0.733149 -2.88841 0
M  V30 2990 H 279.882 0.350482 -1.42864 0
M  V30 2991 H 281.84 3.20373 -2.6724 0
M  V30 2992 H 280.47 2.80097 -1.60455 0
M  V30 2993 H 279.522 1.36343 -3.55126 0
M  V30 2994 H 280.834 1.99089 -4.57345 0
M  V30 2995 H 279.988 4.32495 -4.25479 0
M  V30 2996 H 278.727 3.73572 -3.13521 0
M  V30 2997 H 277.732 2.34468 -4.97298 0
M  V30 2998 H 278.957 2.96348 -6.11028 0
M  V30 2999 H 276.903 4.64871 -4.62851 0
M  V30 3000 H 276.82 4.18455 -6.29628 0
M  V30 3001 H 278.088 5.24787 -5.76385 0
M  V30 3002 N 282.317 1.53212 0.369288 0
M  V30 3003 C 283.227 1.82342 1.47609 0
M  V30 3004 C 284.243 0.711532 1.58787 0
M  V30 3005 O 285.419 1.0012 1.74751 0
M  V30 3006 C 282.484 2.00393 2.8292 0
M  V30 3007 C 281.545 3.24297 2.81301 0
M  V30 3008 C 280.778 3.41478 4.10157 0
M  V30 3009 O 281.001 2.63033 5.06132 0
M  V30 3010 O 279.935 4.34817 4.16194 0
M  V30 3011 H 283.761 2.76366 1.25918 0
M  V30 3012 H 281.346 1.38547 0.559034 0
M  V30 3013 H 283.228 2.13859 3.63101 0
M  V30 3014 H 281.903 1.09559 3.04596 0
M  V30 3015 H 280.81 3.16257 1.99831 0
M  V30 3016 H 282.143 4.15041 2.64578 0
M  V30 3017 N 283.795 -0.628877 1.44509 0
M  V30 3018 C 284.743 -1.76193 1.51852 0
M  V30 3019 C 285.737 -1.64849 0.390042 0
M  V30 3020 O 286.943 -1.709 0.565082 0
M  V30 3021 H 283.318 -0.581728 0.476547 0
M  V30 3022 H 285.289 -1.67123 2.47209 0
M  V30 3023 C 284.038 -3.14533 1.48204 0
M  V30 3024 H 283.361 -3.23911 2.34354 0
M  V30 3025 H 284.801 -3.93701 1.57402 0
M  V30 3026 C 283.26 -3.36287 0.203142 0
M  V30 3027 O 283.79 -3.9509 -0.725745 0
M  V30 3028 N 281.996 -2.90408 0.105563 0
M  V30 3029 H 281.543 -2.42739 0.862301 0
M  V30 3030 H 281.501 -3.05339 -0.749371 0
M  V30 3031 N 285.273 -1.31445 -0.869486 0
M  V30 3032 C 286.55 -1.11795 -1.60503 0
M  V30 3033 C 286.93 0.327168 -2.08549 0
M  V30 3034 O 286.278 1.32135 -1.8642 0
M  V30 3035 C 286.488 -2.13258 -2.76265 0
M  V30 3036 C 287.836 -2.45805 -3.46215 0
M  V30 3037 O 288.86 -2.11688 -2.86473 0
M  V30 3038 O 287.719 -3.04228 -4.5399 0
M  V30 3039 H 284.813 -0.430421 -0.706163 0
M  V30 3040 H 287.359 -1.42925 -0.914907 0
M  V30 3041 H 286.131 -3.10461 -2.3818 0
M  V30 3042 H 285.754 -1.83035 -3.52964 0
M  V30 3043 N 286.751 1.08385 -1.14413 0
M  V30 3044 C 287.683 2.1519 -0.789036 0
M  V30 3045 C 288.696 1.61638 0.19417 0
M  V30 3046 O 289.885 1.78479 -0.0275711 0
M  V30 3047 C 286.985 3.38565 -0.15058 0
M  V30 3048 C 286.158 4.21501 -1.16857 0
M  V30 3049 C 285.217 5.23277 -0.553832 0
M  V30 3050 O 284.243 5.56041 -1.21686 0
M  V30 3051 N 285.445 5.76629 0.669296 0
M  V30 3052 H 288.21 2.46257 -1.70814 0
M  V30 3053 H 285.771 1.24198 -1.03858 0
M  V30 3054 H 287.763 4.03777 0.273181 0
M  V30 3055 H 286.333 3.05299 0.671667 0
M  V30 3056 H 285.553 3.52265 -1.76926 0
M  V30 3057 H 286.841 4.73731 -1.85624 0
M  V30 3058 H 286.239 5.52243 1.22654 0
M  V30 3059 H 284.796 6.43521 1.03556 0
M  V30 3060 N 288.23 0.939286 1.26551 0
M  V30 3061 C 289.458 0.602536 1.97932 0
M  V30 3062 C 289.873 -0.82206 1.69964 0
M  V30 3063 O 289.23 -1.54789 0.966784 0
M  V30 3064 C 289.281 0.832946 3.51773 0
M  V30 3065 O 289.002 2.20151 3.78768 0
M  V30 3066 C 290.503 0.506483 4.40397 0
M  V30 3067 H 287.723 0.227248 0.631347 0
M  V30 3068 H 290.267 1.25948 1.61113 0
M  V30 3069 H 288.422 0.222644 3.8676 0
M  V30 3070 H 288.836 2.26013 4.73306 0
M  V30 3071 H 290.31 0.718333 5.47306 0
M  V30 3072 H 290.787 -0.558451 4.35635 0
M  V30 3073 H 291.393 1.09543 4.10951 0
M  V30 3074 N 289.708 -1.40897 0.706093 0
M  V30 3075 C 291.119 -1.84023 0.315052 0
M  V30 3076 C 291.47 -1.5906 -1.14866 0
M  V30 3077 O 290.595 -1.06651 -1.88293 0
M  V30 3078 C 291.19 -3.34055 0.565038 0
M  V30 3079 C 289.749 -3.7571 0.227806 0
M  V30 3080 C 288.896 -2.64204 0.842122 0
M  V30 3081 H 291.847 -1.303 0.905963 0
M  V30 3082 H 291.868 -3.80107 -0.172843 0
M  V30 3083 H 291.38 -3.52192 1.63042 0
M  V30 3084 H 289.481 -3.63172 -0.832895 0
M  V30 3085 H 289.594 -4.74103 0.690174 0
M  V30 3086 H 287.958 -2.53255 0.270893 0
M  V30 3087 H 288.741 -2.85155 1.91158 0
M  V30 3088 N 291.186 -0.45159 -1.50991 0
M  V30 3089 C 292.116 0.342898 -2.30969 0
M  V30 3090 C 293.097 1.00815 -1.37005 0
M  V30 3091 O 294.282 1.00907 -1.65926 0
M  V30 3092 C 291.412 1.43637 -3.16205 0
M  V30 3093 C 290.366 0.893818 -4.18563 0
M  V30 3094 C 289.692 2.08411 -4.92411 0
M  V30 3095 C 290.992 -0.0815568 -5.22236 0
M  V30 3096 H 292.686 -0.324556 -2.97636 0
M  V30 3097 H 290.232 -0.157531 -1.43136 0
M  V30 3098 H 292.185 1.9995 -3.70942 0
M  V30 3099 H 290.909 2.13232 -2.47386 0
M  V30 3100 H 289.568 0.352798 -3.64898 0
M  V30 3101 H 289.216 2.76658 -4.20082 0
M  V30 3102 H 288.916 1.72741 -5.61636 0
M  V30 3103 H 290.44 2.65251 -5.49976 0
M  V30 3104 H 291.854 0.391742 -5.7196 0
M  V30 3105 H 290.251 -0.351551 -5.99069 0
M  V30 3106 H 291.321 -1.01374 -4.74185 0
M  V30 3107 N 292.664 1.56529 -0.183458 0
M  V30 3108 C 293.627 2.17324 0.728223 0
M  V30 3109 C 294.627 1.12453 1.14939 0
M  V30 3110 O 295.817 1.37902 1.06437 0
M  V30 3111 C 292.949 2.76591 1.99274 0
M  V30 3112 H 294.142 2.99241 0.198772 0
M  V30 3113 H 291.695 1.5616 0.0661391 0
M  V30 3114 H 292.43 1.98441 2.56499 0
M  V30 3115 H 292.215 3.5335 1.69959 0
M  V30 3116 H 293.705 3.23311 2.6431 0
M  V30 3117 N 294.142 -0.090211 1.57342 0
M  V30 3118 C 295.391 -0.791531 1.8552 0
M  V30 3119 C 295.704 -1.79659 0.773441 0
M  V30 3120 O 296.91 -2.54616 0.942497 0
M  V30 3121 C 295.366 -1.45856 3.2902 0
M  V30 3122 C 294.974 -0.493017 4.45279 0
M  V30 3123 C 296.718 -2.14332 3.66418 0
M  V30 3124 C 294.625 -1.16491 5.79814 0
M  V30 3125 H 293.555 -0.299356 0.692027 0
M  V30 3126 H 296.206 -0.0445343 1.83446 0
M  V30 3127 H 294.588 -2.25318 3.2565 0
M  V30 3128 H 295.762 0.270464 4.60006 0
M  V30 3129 H 294.077 0.0863061 4.16311 0
M  V30 3130 H 296.674 -2.65344 4.64216 0
M  V30 3131 H 297.017 -2.93447 2.95287 0
M  V30 3132 H 297.55 -1.41724 3.71698 0
M  V30 3133 H 294.289 -0.41447 6.54188 0
M  V30 3134 H 293.809 -1.8997 5.68921 0
M  V30 3135 H 295.488 -1.69001 6.24538 0
M  V30 3136 N 295.62 -1.53406 -0.361157 0
M  V30 3137 C 296.85 -1.73465 -1.1222 0
M  V30 3138 C 297.258 -0.465486 -1.83384 0
M  V30 3139 O 296.601 0.571611 -1.7458 0
M  V30 3140 C 296.663 -2.84834 -2.19339 0
M  V30 3141 C 296.327 -4.25038 -1.67903 0
M  V30 3142 C 297.324 -5.07231 -1.14074 0
M  V30 3143 C 295.009 -4.71464 -1.73282 0
M  V30 3144 C 297.003 -6.33942 -0.663068 0
M  V30 3145 C 294.69 -5.98153 -1.25127 0
M  V30 3146 C 295.688 -6.79223 -0.717296 0
M  V30 3147 O 295.376 -8.03533 -0.242865 0
M  V30 3148 H 295.108 -0.583526 -0.341283 0
M  V30 3149 H 297.662 -2.00964 -0.424591 0
M  V30 3150 H 295.892 -2.5282 -2.92607 0
M  V30 3151 H 297.581 -2.9303 -2.80871 0
M  V30 3152 H 298.347 -4.72534 -1.09254 0
M  V30 3153 H 294.226 -4.08432 -2.13786 0
M  V30 3154 H 297.77 -6.97167 -0.245612 0
M  V30 3155 H 293.667 -6.32347 -1.29642 0
M  V30 3156 H 294.435 -8.177 -0.361786 0
M  V30 3157 N 297.098 0.621204 -1.44841 0
M  V30 3158 C 298.046 1.75385 -1.52784 0
M  V30 3159 C 299.04 1.64639 -0.398779 0
M  V30 3160 O 300.246 1.70598 -0.574137 0
M  V30 3161 H 296.621 0.579193 -0.479625 0
M  V30 3162 H 298.592 1.6581 -2.48092 0
M  V30 3163 C 297.341 3.13742 -1.4987 0
M  V30 3164 H 296.664 3.22663 -2.36069 0
M  V30 3165 H 298.104 3.92861 -1.59487 0
M  V30 3166 C 296.563 3.36175 -0.220973 0
M  V30 3167 O 297.093 3.95469 0.704782 0
M  V30 3168 N 295.299 2.90348 -0.120963 0
M  V30 3169 H 294.846 2.42278 -0.875162 0
M  V30 3170 H 294.804 3.05732 0.733168 0
M  V30 3171 N 298.576 1.31904 0.862503 0
M  V30 3172 C 299.801 1.25135 1.65397 0
M  V30 3173 C 300.226 -0.179 1.87246 0
M  V30 3174 O 299.584 -1.1277 1.4196 0
M  V30 3175 C 299.632 2.00832 2.99498 0
M  V30 3176 O 298.736 1.35075 3.89652 0
M  V30 3177 H 298.077 0.431655 0.504549 0
M  V30 3178 H 300.607 1.74094 1.07483 0
M  V30 3179 H 300.617 2.10709 3.49379 0
M  V30 3180 H 299.292 3.04847 2.82916 0
M  V30 3181 H 297.869 1.33696 3.48109 0
M  V30 3182 N 300.054 -1.07777 1.14986 0
M  V30 3183 C 301.303 -1.79669 0.916617 0
M  V30 3184 C 301.616 -1.87474 -0.557917 0
M  V30 3185 O 302.822 -2.55845 -0.908617 0
M  V30 3186 C 301.278 -3.22848 1.59051 0
M  V30 3187 C 300.886 -3.23257 3.10176 0
M  V30 3188 C 302.63 -3.99379 1.43864 0
M  V30 3189 C 300.537 -4.61063 3.70372 0
M  V30 3190 H 299.467 -0.673349 0.33929 0
M  V30 3191 H 302.118 -1.21003 1.37951 0
M  V30 3192 H 300.5 -3.8168 1.0553 0
M  V30 3193 H 301.674 -2.74095 3.70417 0
M  V30 3194 H 299.989 -2.60222 3.25074 0
M  V30 3195 H 302.586 -5.0122 1.86232 0
M  V30 3196 H 302.929 -4.14511 0.385564 0
M  V30 3197 H 303.462 -3.47032 1.94457 0
M  V30 3198 H 300.201 -4.51135 4.7556 0
M  V30 3199 H 299.721 -5.1048 3.14913 0
M  V30 3200 H 301.4 -5.30034 3.71043 0
M  V30 3201 N 301.532 -0.945985 -1.26051 0
M  V30 3202 C 302.757 -0.612525 -1.98149 0
M  V30 3203 C 303.182 0.806623 -1.69927 0
M  V30 3204 O 302.54 1.54411 -0.950108 0
M  V30 3205 C 302.588 -0.866981 -3.50023 0
M  V30 3206 O 301.692 0.0585333 -4.12358 0
M  V30 3207 H 301.033 -0.23379 -0.621481 0
M  V30 3208 H 303.563 -1.27023 -1.60395 0
M  V30 3209 H 303.573 -0.789792 -4.00283 0
M  V30 3210 H 302.248 -1.90135 -3.69894 0
M  V30 3211 H 300.825 -0.0701241 -3.72834 0
M  V30 3212 N 303.011 1.40521 -0.713556 0
M  V30 3213 C 304.241 2.0494 -0.261395 0
M  V30 3214 C 304.649 1.53861 1.10107 0
M  V30 3215 O 303.992 0.689321 1.70276 0
M  V30 3216 C 304.054 3.59138 -0.161227 0
M  V30 3217 C 303.718 4.33096 -1.45865 0
M  V30 3218 C 304.715 4.61182 -2.40016 0
M  V30 3219 C 302.4 4.72043 -1.71701 0
M  V30 3220 C 304.394 5.27196 -3.58251 0
M  V30 3221 C 302.081 5.37789 -2.90218 0
M  V30 3222 C 303.079 5.65295 -3.83315 0
M  V30 3223 O 302.767 6.29683 -4.99754 0
M  V30 3224 H 302.499 0.666041 -0.115608 0
M  V30 3225 H 305.053 1.80954 -0.971849 0
M  V30 3226 H 303.283 3.81936 0.605153 0
M  V30 3227 H 304.972 4.05091 0.256105 0
M  V30 3228 H 305.738 4.31559 -2.21318 0
M  V30 3229 H 301.617 4.50003 -1.00092 0
M  V30 3230 H 305.161 5.48582 -4.30934 0
M  V30 3231 H 301.058 5.66831 -3.08825 0
M  V30 3232 H 301.826 6.4818 -4.99805 0
M  V30 3233 N 304.489 0.459591 1.5075 0
M  V30 3234 C 305.436 -0.340524 2.28274 0
M  V30 3235 C 306.406 -0.997371 1.32822 0
M  V30 3236 O 307.591 -1.01202 1.61749 0
M  V30 3237 C 304.731 -1.42317 3.14388 0
M  V30 3238 C 303.844 -0.782251 4.24859 0
M  V30 3239 C 302.979 -1.84182 4.98247 0
M  V30 3240 C 302.018 -1.18053 6.00608 0
M  V30 3241 N 301.155 -2.18244 6.67319 0
M  V30 3242 H 305.995 0.326899 2.96202 0
M  V30 3243 H 303.532 0.173057 1.46078 0
M  V30 3244 H 305.49 -2.06241 3.62658 0
M  V30 3245 H 304.12 -2.05992 2.4853 0
M  V30 3246 H 303.172 -0.0307404 3.80388 0
M  V30 3247 H 304.484 -0.259663 4.98124 0
M  V30 3248 H 303.638 -2.55714 5.50177 0
M  V30 3249 H 302.377 -2.39819 4.24662 0
M  V30 3250 H 301.382 -0.450776 5.47949 0
M  V30 3251 H 302.607 -0.631202 6.7616 0
M  V30 3252 H 300.553 -2.72919 5.96533 0
M  V30 3253 H 300.47 -1.70938 7.36421 0
M  V30 3254 H 301.738 -2.89191 7.23871 0
M  V30 3255 N 305.967 -1.56429 0.191757 0
M  V30 3256 C 307.195 -2.01867 -0.453586 0
M  V30 3257 C 307.61 -1.07191 -1.5542 0
M  V30 3258 O 306.967 -0.0762108 -1.82341 0
M  V30 3259 C 307.018 -3.47017 -1.013 0
M  V30 3260 O 306.739 -4.38078 0.0437005 0
M  V30 3261 C 308.24 -4.07956 -1.73456 0
M  V30 3262 H 305.46 -0.661211 -0.114199 0
M  V30 3263 H 308.004 -2.02295 0.299483 0
M  V30 3264 H 306.159 -3.47298 -1.71647 0
M  V30 3265 H 306.573 -5.23178 -0.372212 0
M  V30 3266 H 308.047 -5.1138 -2.07833 0
M  V30 3267 H 308.524 -3.51222 -2.63704 0
M  V30 3268 H 309.13 -4.11437 -1.07702 0
M  V30 3269 N 307.445 0.0818655 -1.57387 0
M  V30 3270 C 308.692 0.782914 -1.86753 0
M  V30 3271 C 309.02 1.78082 -0.782118 0
M  V30 3272 O 308.275 1.94426 0.22295 0
M  V30 3273 C 308.574 1.53513 -3.22752 0
M  V30 3274 C 308.24 0.678134 -4.45771 0
M  V30 3275 C 306.902 0.441929 -4.79166 0
M  V30 3276 C 309.254 0.0832243 -5.21134 0
M  V30 3277 C 306.582 -0.398833 -5.85343 0
M  V30 3278 C 308.934 -0.744935 -6.28199 0
M  V30 3279 C 307.598 -0.991107 -6.60101 0
M  V30 3280 H 306.868 0.286489 -0.683378 0
M  V30 3281 H 309.515 0.0439808 -1.91449 0
M  V30 3282 H 307.82 2.34599 -3.138 0
M  V30 3283 H 309.517 2.08218 -3.42705 0
M  V30 3284 H 306.107 0.872357 -4.19628 0
M  V30 3285 H 310.291 0.252847 -4.95655 0
M  V30 3286 H 305.547 -0.598405 -6.08465 0
M  V30 3287 H 309.721 -1.21271 -6.8576 0
M  V30 3288 H 307.348 -1.64437 -7.42202 0
M  V30 3289 N 308.923 1.53595 0.353017 0
M  V30 3290 C 309.853 1.83902 1.43883 0
M  V30 3291 C 310.834 0.693421 1.55324 0
M  V30 3292 O 312.019 0.944452 1.69687 0
M  V30 3293 C 309.149 2.04016 2.8106 0
M  V30 3294 C 308.103 3.19814 2.84434 0
M  V30 3295 C 307.429 3.25244 4.24406 0
M  V30 3296 C 308.729 4.58133 2.50822 0
M  V30 3297 H 310.423 2.74835 1.1877 0
M  V30 3298 H 307.969 1.32242 0.569917 0
M  V30 3299 H 309.922 2.238 3.57059 0
M  V30 3300 H 308.646 1.09804 3.07588 0
M  V30 3301 H 307.305 2.9987 2.10887 0
M  V30 3302 H 306.953 2.28646 4.48029 0
M  V30 3303 H 306.653 4.03054 4.27576 0
M  V30 3304 H 308.177 3.47228 5.0226 0
M  V30 3305 H 309.591 4.77995 3.16534 0
M  V30 3306 H 307.988 5.38276 2.6529 0
M  V30 3307 H 309.058 4.62387 1.46034 0
M  V30 3308 N 310.401 -0.613514 1.45168 0
M  V30 3309 C 311.812 -1.19539 1.43413 0
M  V30 3310 C 312.163 -1.95558 0.158632 0
M  V30 3311 O 311.288 -2.0335 -0.740119 0
M  V30 3312 C 311.883 -2.17445 2.59813 0
M  V30 3313 C 310.442 -2.71022 2.61197 0
M  V30 3314 C 309.589 -1.46323 2.35552 0
M  V30 3315 H 312.54 -0.403163 1.53494 0
M  V30 3316 H 312.561 -3.00373 2.33574 0
M  V30 3317 H 312.073 -1.62089 3.52631 0
M  V30 3318 H 310.174 -3.30332 1.7237 0
M  V30 3319 H 310.287 -3.15859 3.60236 0
M  V30 3320 H 308.651 -1.75072 1.84992 0
M  V30 3321 H 309.434 -0.92844 3.30507 0
M  V30 3322 N 311.879 -1.3236 -0.855495 0
M  V30 3323 C 312.826 -1.21225 -1.964 0
M  V30 3324 C 313.796 -0.0946204 -1.6583 0
M  V30 3325 O 314.981 -0.27002 -1.8888 0
M  V30 3326 C 312.121 -0.940419 -3.32039 0
M  V30 3327 C 311.234 -2.14276 -3.75113 0
M  V30 3328 C 310.369 -1.80648 -4.9954 0
M  V30 3329 C 309.408 -2.97208 -5.35102 0
M  V30 3330 N 308.545 -2.63678 -6.50706 0
M  V30 3331 H 313.385 -2.16042 -2.05255 0
M  V30 3332 H 310.922 -1.07451 -1.00463 0
M  V30 3333 H 312.88 -0.763311 -4.10158 0
M  V30 3334 H 311.51 -0.0290413 -3.22787 0
M  V30 3335 H 310.562 -2.43017 -2.92655 0
M  V30 3336 H 311.874 -3.01468 -3.97389 0
M  V30 3337 H 311.028 -1.59484 -5.85363 0
M  V30 3338 H 309.767 -0.906678 -4.79198 0
M  V30 3339 H 308.772 -3.19004 -4.47791 0
M  V30 3340 H 309.997 -3.87918 -5.57401 0
M  V30 3341 H 307.943 -1.76238 -6.31883 0
M  V30 3342 H 307.86 -3.444 -6.72997 0
M  V30 3343 H 309.128 -2.45942 -7.39684 0
M  V30 3344 N 313.357 1.07166 -1.15556 0
M  V30 3345 C 314.597 1.81391 -0.94216 0
M  V30 3346 C 314.961 1.84788 0.521272 0
M  V30 3347 O 316.162 2.54904 0.85307 0
M  V30 3348 C 314.433 3.22431 -1.54185 0
M  V30 3349 S 315.992 4.13379 -1.47183 0
M  V30 3350 H 312.81 0.624963 -0.339031 0
M  V30 3351 H 315.412 1.28725 -1.4714 0
M  V30 3352 H 314.116 3.17548 -2.59984 0
M  V30 3353 H 313.647 3.80172 -1.01156 0
M  V30 3354 H 315.662 4.94007 -0.466004 0
M  V30 3355 N 314.835 0.952656 1.25548 0
M  V30 3356 C 316.084 0.602053 1.92505 0
M  V30 3357 C 316.397 -0.864663 1.75451 0
M  V30 3358 O 317.603 -1.32514 2.36965 0
M  V30 3359 C 316.059 1.02607 3.44963 0
M  V30 3360 C 315.667 2.51519 3.70732 0
M  V30 3361 C 317.411 0.747905 4.1786 0
M  V30 3362 C 315.318 2.87732 5.16686 0
M  V30 3363 H 314.248 0.22146 0.720744 0
M  V30 3364 H 316.899 1.15684 1.42441 0
M  V30 3365 H 315.281 0.399712 3.93978 0
M  V30 3366 H 316.455 3.19157 3.32378 0
M  V30 3367 H 314.77 2.76786 3.11092 0
M  V30 3368 H 317.367 0.994647 5.25367 0
M  V30 3369 H 317.71 -0.315629 4.15102 0
M  V30 3370 H 318.243 1.33452 3.74747 0
M  V30 3371 H 314.982 3.93095 5.24554 0
M  V30 3372 H 314.502 2.24765 5.56094 0
M  V30 3373 H 316.181 2.76817 5.84792 0
M  V30 3374 N 316.313 -1.40141 0.720998 0
M  V30 3375 C 317.729 -1.54632 0.395113 0
M  V30 3376 C 317.929 -1.69115 -1.09555 0
M  V30 3377 O 316.985 -1.68377 -1.88163 0
M  V30 3378 C 318.298 -2.77177 1.1659 0
M  V30 3379 C 319.846 -2.91 1.15274 0
M  V30 3380 C 320.321 -4.16465 1.90579 0
M  V30 3381 N 321.812 -4.23476 1.87675 0
M  V30 3382 C 322.547 -5.19475 2.42762 0
M  V30 3383 N 322.043 -6.21348 3.06428 0
M  V30 3384 N 323.836 -5.11592 2.32874 0
M  V30 3385 H 315.987 -1.28986 1.68749 0
M  V30 3386 H 318.25 -0.62412 0.713567 0
M  V30 3387 H 317.956 -2.72771 2.22011 0
M  V30 3388 H 317.83 -3.69442 0.76108 0
M  V30 3389 H 320.217 -2.94907 0.106702 0
M  V30 3390 H 320.298 -1.99838 1.59682 0
M  V30 3391 H 319.942 -4.1332 2.95176 0
M  V30 3392 H 319.872 -5.06646 1.43587 0
M  V30 3393 H 322.363 -3.50497 1.41281 0
M  V30 3394 H 322.676 -6.91034 3.45965 0
M  V30 3395 H 321.021 -6.21777 3.10514 0
M  V30 3396 H 324.212 -4.30936 1.82789 0
M  V30 3397 H 324.385 -5.86233 2.76106 0
M  V30 3398 N 317.792 -0.46758 -1.50504 0
M  V30 3399 C 318.755 0.317059 -2.26996 0
M  V30 3400 C 319.755 0.923513 -1.31635 0
M  V30 3401 O 320.945 0.793239 -1.55091 0
M  V30 3402 C 318.077 1.45134 -3.08462 0
M  V30 3403 H 319.27 -0.353723 -2.97807 0
M  V30 3404 H 316.823 -0.221545 -1.54722 0
M  V30 3405 H 317.558 2.15728 -2.4214 0
M  V30 3406 H 317.343 1.02232 -3.78538 0
M  V30 3407 H 318.833 2.00493 -3.66323 0
M  V30 3408 N 319.27 1.56325 -0.20005 0
M  V30 3409 C 320.217 2.1932 0.718833 0
M  V30 3410 C 321.187 1.14198 1.20615 0
M  V30 3411 O 322.372 1.42469 1.26914 0
M  V30 3412 C 319.512 2.86041 1.93066 0
M  V30 3413 C 318.625 4.05702 1.48425 0
M  V30 3414 C 317.76 4.60266 2.65196 0
M  V30 3415 C 316.799 5.72273 2.17185 0
M  V30 3416 N 315.936 6.21221 3.27152 0
M  V30 3417 H 320.776 2.97486 0.17489 0
M  V30 3418 H 318.313 1.46911 0.0745794 0
M  V30 3419 H 320.271 3.22897 2.64184 0
M  V30 3420 H 318.901 2.1043 2.44783 0
M  V30 3421 H 317.953 3.74475 0.668755 0
M  V30 3422 H 319.265 4.86699 1.09204 0
M  V30 3423 H 318.419 4.99453 3.4443 0
M  V30 3424 H 317.158 3.78386 3.07693 0
M  V30 3425 H 316.163 5.3261 1.36407 0
M  V30 3426 H 317.388 6.55974 1.75713 0
M  V30 3427 H 315.334 5.42263 3.69171 0
M  V30 3428 H 315.251 6.97284 2.92116 0
M  V30 3429 H 316.519 6.65063 4.06585 0
M  V30 3430 N 320.748 -0.0735177 1.57428 0
M  V30 3431 C 321.997 -0.771809 1.86349 0
M  V30 3432 C 322.31 -1.78828 0.792452 0
M  V30 3433 O 323.516 -2.53602 0.96945 0
M  V30 3434 C 321.972 -1.42358 3.30548 0
M  V30 3435 C 321.58 -0.445761 4.45777 0
M  V30 3436 C 323.324 -2.10434 3.6867 0
M  V30 3437 C 321.231 -1.10335 5.81016 0
M  V30 3438 H 320.161 -0.291999 0.695164 0
M  V30 3439 H 322.812 -0.0250749 1.83483 0
M  V30 3440 H 321.194 -2.21852 3.28021 0
M  V30 3441 H 322.368 0.319239 4.59693 0
M  V30 3442 H 320.683 0.130457 4.16196 0
M  V30 3443 H 323.28 -2.60405 4.67004 0
M  V30 3444 H 323.623 -2.90298 2.98383 0
M  V30 3445 H 324.156 -1.37773 3.7318 0
M  V30 3446 H 320.895 -0.345061 6.54591 0
M  V30 3447 H 320.415 -1.83925 5.70904 0
M  V30 3448 H 322.094 -1.62367 6.26295 0
M  V30 3449 N 322.226 -1.5378 -0.344866 0
M  V30 3450 C 323.158 -1.77988 -1.44406 0
M  V30 3451 C 324.171 -0.661138 -1.48771 0
M  V30 3452 O 325.36 -0.937842 -1.51877 0
M  V30 3453 C 322.46 -1.86345 -2.8307 0
M  V30 3454 C 321.633 -3.16256 -3.0216 0
M  V30 3455 C 320.692 -3.15588 -4.21059 0
M  V30 3456 O 319.718 -3.89314 -4.15239 0
M  V30 3457 N 320.92 -2.37864 -5.29529 0
M  V30 3458 H 323.685 -2.72839 -1.24012 0
M  V30 3459 H 321.246 -1.52814 -0.534737 0
M  V30 3460 H 323.238 -1.83351 -3.60783 0
M  V30 3461 H 321.808 -0.986858 -2.96614 0
M  V30 3462 H 321.028 -3.32385 -2.11929 0
M  V30 3463 H 322.316 -4.0207 -3.11797 0
M  V30 3464 H 321.714 -1.77514 -5.37127 0
M  V30 3465 H 320.271 -2.40668 -6.05741 0
M  V30 3466 N 323.704 0.605807 -1.45491 0
M  V30 3467 C 324.981 1.36522 -1.40075 0
M  V30 3468 C 325.361 2.10976 -0.0722744 0
M  V30 3469 O 324.709 2.08007 0.945808 0
M  V30 3470 C 324.919 2.31056 -2.61561 0
M  V30 3471 C 326.267 2.93608 -3.06724 0
M  V30 3472 O 327.291 2.41376 -2.61946 0
M  V30 3473 O 326.15 3.88421 -3.84437 0
M  V30 3474 H 323.244 0.612248 -0.555951 0
M  V30 3475 H 325.79 0.628747 -1.57623 0
M  V30 3476 H 324.562 1.75311 -3.49831 0
M  V30 3477 H 324.185 3.12081 -2.46356 0
M  V30 3478 N 325.182 1.32811 0.848464 0
M  V30 3479 C 326.412 1.26556 1.63301 0
M  V30 3480 C 326.82 -0.1676 1.88456 0
M  V30 3481 O 326.163 -1.11713 1.45828 0
M  V30 3482 C 326.225 1.96202 3.01239 0
M  V30 3483 C 325.889 3.45528 2.99098 0
M  V30 3484 C 326.886 4.40903 2.75501 0
M  V30 3485 C 324.571 3.87558 3.19537 0
M  V30 3486 C 326.565 5.76282 2.72356 0
M  V30 3487 C 324.252 5.23044 3.16019 0
M  V30 3488 C 325.25 6.17217 2.92458 0
M  V30 3489 O 324.938 7.50223 2.88825 0
M  V30 3490 H 324.67 0.43771 0.515156 0
M  V30 3491 H 327.224 1.7559 1.0657 0
M  V30 3492 H 325.454 1.41746 3.59785 0
M  V30 3493 H 327.143 1.83573 3.62016 0
M  V30 3494 H 327.909 4.09756 2.5947 0
M  V30 3495 H 323.788 3.14674 3.369 0
M  V30 3496 H 327.332 6.4976 2.53886 0
M  V30 3497 H 323.229 5.53818 3.31596 0
M  V30 3498 H 323.997 7.59657 3.04735 0
M  V30 3499 N 326.66 -1.06551 1.16123 0
M  V30 3500 C 327.61 -2.12209 0.833736 0
M  V30 3501 C 328.594 -1.59825 -0.185656 0
M  V30 3502 O 329.786 -1.76994 0.0147906 0
M  V30 3503 C 326.915 -3.41674 0.333697 0
M  V30 3504 C 326.001 -4.00892 1.38372 0
M  V30 3505 N 326.392 -4.34256 2.59337 0
M  V30 3506 C 324.69 -4.28463 1.23836 0
M  V30 3507 C 325.391 -4.81291 3.26701 0
M  V30 3508 N 324.367 -4.80565 2.54083 0
M  V30 3509 H 328.169 -2.35849 1.75364 0
M  V30 3510 H 325.683 -1.24068 1.04789 0
M  V30 3511 H 327.68 -4.16822 0.0806918 0
M  V30 3512 H 326.34 -3.19475 -0.58017 0
M  V30 3513 H 327.351 -4.24687 2.96415 0
M  V30 3514 H 324.028 -4.15721 0.38504 0
M  V30 3515 H 325.418 -5.16332 4.29943 0
M  V30 3516 N 328.138 -0.959301 -1.25041 0
M  V30 3517 C 329.387 -0.612254 -1.92183 0
M  V30 3518 C 329.7 0.855347 -1.75907 0
M  V30 3519 O 330.906 1.31256 -2.37664 0
M  V30 3520 C 329.362 -1.04435 -3.44414 0
M  V30 3521 C 328.97 -2.53482 -3.69393 0
M  V30 3522 C 330.714 -0.770055 -4.17457 0
M  V30 3523 C 328.621 -2.90468 -5.15153 0
M  V30 3524 H 327.551 -0.225279 -0.719559 0
M  V30 3525 H 330.202 -1.16438 -1.41825 0
M  V30 3526 H 328.584 -0.4206 -3.9376 0
M  V30 3527 H 329.758 -3.20916 -3.30681 0
M  V30 3528 H 328.073 -2.78432 -3.0962 0
M  V30 3529 H 330.67 -1.02249 -5.24832 0
M  V30 3530 H 331.013 0.293611 -4.15263 0
M  V30 3531 H 331.546 -1.35437 -3.74034 0
M  V30 3532 H 328.285 -3.95871 -5.22462 0
M  V30 3533 H 327.805 -2.27711 -5.54894 0
M  V30 3534 H 329.484 -2.79914 -5.83315 0
M  V30 3535 N 329.616 1.39756 -0.72842 0
M  V30 3536 C 330.546 2.33289 -0.0991354 0
M  V30 3537 C 331.527 1.53568 0.731489 0
M  V30 3538 O 332.712 1.81987 0.677807 0
M  V30 3539 C 329.842 3.3763 0.813834 0
M  V30 3540 C 328.796 4.2791 0.0878663 0
M  V30 3541 C 328.122 5.22894 1.11741 0
M  V30 3542 C 329.422 5.11314 -1.06563 0
M  V30 3543 H 331.116 2.86163 -0.880408 0
M  V30 3544 H 328.662 1.37591 -0.424819 0
M  V30 3545 H 330.615 4.0201 1.26355 0
M  V30 3546 H 329.339 2.83181 1.62715 0
M  V30 3547 H 327.998 3.65 -0.342159 0
M  V30 3548 H 327.646 4.64744 1.92412 0
M  V30 3549 H 327.346 5.84143 0.636477 0
M  V30 3550 H 328.87 5.90151 1.56697 0
M  V30 3551 H 330.284 5.69076 -0.694671 0
M  V30 3552 H 328.681 5.81671 -1.47577 0
M  V30 3553 H 329.751 4.46534 -1.89038 0
M  V30 3554 N 331.094 0.475555 1.50254 0
M  V30 3555 C 332.322 -0.0754493 2.06762 0
M  V30 3556 C 332.737 -1.33111 1.33891 0
M  V30 3557 O 332.094 -1.77846 0.40952 0
M  V30 3558 C 332.145 -0.359008 3.59713 0
M  V30 3559 O 331.866 0.846851 4.29837 0
M  V30 3560 C 333.367 -0.956484 4.32858 0
M  V30 3561 H 330.587 0.00907525 0.670939 0
M  V30 3562 H 333.131 0.665618 1.93364 0
M  V30 3563 H 331.286 -1.05001 3.72899 0
M  V30 3564 H 331.7 0.594162 5.21124 0
M  V30 3565 H 333.174 -1.10463 5.40834 0
M  V30 3566 H 333.651 -1.94775 3.93649 0
M  V30 3567 H 334.257 -0.303723 4.24214 0
M  V30 3568 N 332.573 -1.56217 0.208337 0
M  V30 3569 C 333.989 -1.58919 -0.14729 0
M  V30 3570 C 334.189 -1.22486 -1.59998 0
M  V30 3571 O 333.245 -0.953849 -2.3379 0
M  V30 3572 C 334.558 -3.00236 0.167048 0
M  V30 3573 C 336.106 -3.12813 0.108219 0
M  V30 3574 C 336.581 -4.56284 0.396049 0
M  V30 3575 N 338.072 -4.61912 0.345142 0
M  V30 3576 C 338.807 -5.70837 0.541523 0
M  V30 3577 N 338.303 -6.88178 0.798968 0
M  V30 3578 N 340.096 -5.60091 0.474867 0
M  V30 3579 H 332.247 -1.78177 1.15614 0
M  V30 3580 H 334.51 -0.827555 0.462446 0
M  V30 3581 H 334.216 -3.31499 1.1748 0
M  V30 3582 H 334.09 -3.7354 -0.524184 0
M  V30 3583 H 336.477 -2.81354 -0.890157 0
M  V30 3584 H 336.558 -2.41866 0.832729 0
M  V30 3585 H 336.202 -4.88458 1.3918 0
M  V30 3586 H 336.132 -5.25439 -0.349502 0
M  V30 3587 H 338.623 -3.77589 0.153316 0
M  V30 3588 H 338.936 -7.67095 0.93727 0
M  V30 3589 H 337.281 -6.89953 0.836013 0
M  V30 3590 H 340.472 -4.67297 0.274064 0
M  V30 3591 H 340.645 -6.44917 0.631326 0
M  V30 3592 N 334.051 0.0651679 -1.57465 0
M  V30 3593 C 334.998 1.07675 -2.04144 0
M  V30 3594 C 335.968 1.38071 -0.923335 0
M  V30 3595 O 337.153 1.49026 -1.19146 0
M  V30 3596 C 334.293 2.38337 -2.49579 0
M  V30 3597 C 333.406 2.14413 -3.75035 0
M  V30 3598 C 332.541 3.38686 -4.09225 0
M  V30 3599 C 331.58 3.10156 -5.27702 0
M  V30 3600 N 330.717 4.26778 -5.57499 0
M  V30 3601 H 335.557 0.671716 -2.90331 0
M  V30 3602 H 333.094 0.3201 -1.43575 0
M  V30 3603 H 335.052 3.14632 -2.73975 0
M  V30 3604 H 333.682 2.7663 -1.6636 0
M  V30 3605 H 332.734 1.2878 -3.57939 0
M  V30 3606 H 334.046 1.89344 -4.61466 0
M  V30 3607 H 333.2 4.23373 -4.34558 0
M  V30 3608 H 331.939 3.66837 -3.21374 0
M  V30 3609 H 330.944 2.23866 -5.02159 0
M  V30 3610 H 332.169 2.8332 -6.17176 0
M  V30 3611 H 330.115 4.54948 -4.72608 0
M  V30 3612 H 330.032 4.05005 -6.38362 0
M  V30 3613 H 331.3 5.12443 -5.87386 0
M  V30 3614 N 335.529 1.53961 0.336706 0
M  V30 3615 C 336.945 1.44378 0.680241 0
M  V30 3616 C 337.145 0.606034 1.9217 0
M  V30 3617 O 336.201 0.099688 2.52303 0
M  V30 3618 C 337.514 2.87945 0.8665 0
M  V30 3619 C 339.062 2.97763 0.964682 0
M  V30 3620 C 339.537 4.42453 1.18321 0
M  V30 3621 N 341.028 4.46008 1.25025 0
M  V30 3622 C 341.763 5.55102 1.43697 0
M  V30 3623 N 341.259 6.7419 1.59498 0
M  V30 3624 N 343.052 5.42727 1.463 0
M  V30 3625 H 335.203 2.06918 -0.479455 0
M  V30 3626 H 337.466 0.935634 -0.152619 0
M  V30 3627 H 337.172 3.51691 0.0256937 0
M  V30 3628 H 337.046 3.33293 1.76623 0
M  V30 3629 H 339.433 2.34153 1.796 0
M  V30 3630 H 339.514 2.55766 0.041708 0
M  V30 3631 H 339.158 5.06645 0.356788 0
M  V30 3632 H 339.088 4.82048 2.11985 0
M  V30 3633 H 341.579 3.60196 1.14312 0
M  V30 3634 H 341.892 7.53095 1.734 0
M  V30 3635 H 340.237 6.77123 1.56621 0
M  V30 3636 H 343.428 4.48647 1.33543 0
M  V30 3637 H 343.601 6.27806 1.6051 0
M  V30 3638 N 337.007 -0.598083 1.45811 0
M  V30 3639 C 338.256 -1.35295 1.49594 0
M  V30 3640 C 338.569 -1.95057 0.145679 0
M  V30 3641 O 339.775 -2.71431 0.0612099 0
M  V30 3642 C 338.231 -2.45124 2.63519 0
M  V30 3643 C 337.839 -1.91732 4.04899 0
M  V30 3644 C 339.583 -3.2205 2.76558 0
M  V30 3645 C 337.49 -2.991 5.1019 0
M  V30 3646 H 336.42 -0.508552 0.556679 0
M  V30 3647 H 339.071 -0.639977 1.71978 0
M  V30 3648 H 337.453 -3.19149 2.34435 0
M  V30 3649 H 338.627 -1.24352 4.43704 0
M  V30 3650 H 336.942 -1.27522 3.96393 0
M  V30 3651 H 339.539 -4.0215 3.52391 0
M  V30 3652 H 339.882 -3.73663 1.83526 0
M  V30 3653 H 340.415 -2.55127 3.05213 0
M  V30 3654 H 337.154 -2.52393 6.04961 0
M  V30 3655 H 336.674 -3.65017 4.75944 0
M  V30 3656 H 338.353 -3.63318 5.35359 0
M  V30 3657 N 338.485 -1.33259 -0.841409 0
M  V30 3658 C 339.901 -1.12538 -1.13169 0
M  V30 3659 C 340.101 0.0854037 -2.01319 0
M  V30 3660 O 339.157 0.766417 -2.40587 0
M  V30 3661 C 340.47 -2.41156 -1.79623 0
M  V30 3662 C 342.018 -2.47038 -1.922 0
M  V30 3663 C 342.493 -3.7561 -2.6207 0
M  V30 3664 N 343.984 -3.76667 -2.69585 0
M  V30 3665 C 344.719 -4.72861 -3.2433 0
M  V30 3666 N 344.215 -5.79428 -3.79783 0
M  V30 3667 N 346.008 -4.6034 -3.22558 0
M  V30 3668 H 338.159 -2.10868 -0.254676 0
M  V30 3669 H 340.422 -0.931615 -0.175493 0
M  V30 3670 H 340.128 -3.29747 -1.22311 0
M  V30 3671 H 340.002 -2.53114 -2.79666 0
M  V30 3672 H 342.389 -1.58898 -2.48667 0
M  V30 3673 H 342.47 -2.39022 -0.911148 0
M  V30 3674 H 342.114 -4.64131 -2.06263 0
M  V30 3675 H 342.044 -3.80902 -3.63622 0
M  V30 3676 H 344.535 -2.99648 -2.30259 0
M  V30 3677 H 344.848 -6.48867 -4.19752 0
M  V30 3678 H 343.193 -5.83166 -3.78078 0
M  V30 3679 H 346.384 -3.76244 -2.78492 0
M  V30 3680 H 346.557 -5.35478 -3.64921 0
M  V30 3681 N 339.963 1.05934 -1.16686 0
M  V30 3682 C 341.193 1.82226 -0.973515 0
M  V30 3683 C 341.601 1.8297 0.481532 0
M  V30 3684 O 340.944 1.25009 1.34604 0
M  V30 3685 C 341.006 3.29897 -1.42858 0
M  V30 3686 C 340.67 3.52849 -2.90425 0
M  V30 3687 C 341.667 3.45595 -3.88407 0
M  V30 3688 C 339.352 3.80053 -3.28428 0
M  V30 3689 C 341.346 3.65217 -5.22394 0
M  V30 3690 C 339.033 3.99325 -4.62583 0
M  V30 3691 C 340.031 3.91905 -5.59374 0
M  V30 3692 O 339.719 4.10647 -6.91104 0
M  V30 3693 H 339.451 0.581314 -0.345036 0
M  V30 3694 H 342.005 1.3453 -1.55212 0
M  V30 3695 H 340.235 3.78472 -0.793477 0
M  V30 3696 H 341.924 3.87692 -1.20207 0
M  V30 3697 H 342.69 3.24564 -3.60393 0
M  V30 3698 H 338.569 3.84936 -2.53664 0
M  V30 3699 H 342.113 3.59341 -5.9793 0
M  V30 3700 H 338.01 4.19846 -4.90306 0
M  V30 3701 H 338.778 4.27915 -6.97733 0
M  V30 3702 N 341.441 0.965919 1.2453 0
M  V30 3703 C 342.857 0.67216 1.44756 0
M  V30 3704 C 343.057 -0.766609 1.86347 0
M  V30 3705 O 342.113 -1.5407 2.00047 0
M  V30 3706 C 343.426 1.65473 2.51076 0
M  V30 3707 C 344.974 1.66716 2.64905 0
M  V30 3708 C 345.449 2.63766 3.74421 0
M  V30 3709 N 346.94 2.62198 3.81846 0
M  V30 3710 C 347.675 3.33966 4.66106 0
M  V30 3711 N 347.171 4.15245 5.54566 0
M  V30 3712 N 348.964 3.22799 4.60171 0
M  V30 3713 H 341.115 1.89553 0.958293 0
M  V30 3714 H 343.378 0.815979 0.482579 0
M  V30 3715 H 343.084 2.68296 2.27399 0
M  V30 3716 H 342.958 1.4261 3.49202 0
M  V30 3717 H 345.345 0.646057 2.87941 0
M  V30 3718 H 345.426 1.93642 1.67142 0
M  V30 3719 H 345.07 3.6601 3.52135 0
M  V30 3720 H 345 2.34121 4.71694 0
M  V30 3721 H 347.491 2.032 3.18619 0
M  V30 3722 H 347.804 4.66898 6.15814 0
M  V30 3723 H 346.149 4.1934 5.54237 0
M  V30 3724 H 349.34 2.58764 3.90075 0
M  V30 3725 H 349.513 3.78994 5.25612 0
M  V30 3726 N 342.919 -1.39368 0.735821 0
M  V30 3727 C 344.166 -2.00497 0.284123 0
M  V30 3728 C 344.494 -1.58387 -1.12889 0
M  V30 3729 O 343.749 -0.804359 -1.78406 0
M  V30 3730 C 344.048 -3.5583 0.334651 0
M  V30 3731 C 343.714 -4.17593 1.7008 0
M  V30 3732 C 342.376 -4.34176 2.07472 0
M  V30 3733 C 344.728 -4.51848 2.59775 0
M  V30 3734 C 342.056 -4.82304 3.34065 0
M  V30 3735 C 344.408 -5.01384 3.85741 0
M  V30 3736 C 343.072 -5.16175 4.23225 0
M  V30 3737 H 342.342 -0.73367 0.103968 0
M  V30 3738 H 344.989 -1.66683 0.942825 0
M  V30 3739 H 343.294 -3.89674 -0.407625 0
M  V30 3740 H 344.991 -4.00986 -0.0329927 0
M  V30 3741 H 341.581 -4.05087 1.40008 0
M  V30 3742 H 345.765 -4.38653 2.32157 0
M  V30 3743 H 341.021 -4.91941 3.63049 0
M  V30 3744 H 345.195 -5.26863 4.55399 0
M  V30 3745 H 342.822 -5.5323 5.21384 0
M  V30 3746 N 344.397 -0.483516 -1.5 0
M  V30 3747 C 345.813 -0.138404 -1.58999 0
M  V30 3748 C 346.013 1.35597 -1.4905 0
M  V30 3749 O 345.069 2.13039 -1.35539 0
M  V30 3750 C 346.382 -0.699658 -2.92447 0
M  V30 3751 C 347.93 -0.664195 -3.05872 0
M  V30 3752 C 348.405 -1.20321 -4.41913 0
M  V30 3753 N 349.896 -1.16315 -4.48358 0
M  V30 3754 C 350.631 -1.55058 -5.52037 0
M  V30 3755 N 350.127 -2.01311 -6.62907 0
M  V30 3756 N 351.92 -1.46584 -5.42651 0
M  V30 3757 H 344.071 -1.45529 -1.5471 0
M  V30 3758 H 346.334 -0.60258 -0.731848 0
M  V30 3759 H 346.04 -1.747 -3.05242 0
M  V30 3760 H 345.914 -0.150194 -3.76901 0
M  V30 3761 H 348.301 0.374272 -2.92717 0
M  V30 3762 H 348.382 -1.25061 -2.23144 0
M  V30 3763 H 348.026 -2.24037 -4.55818 0
M  V30 3764 H 347.956 -0.592896 -5.23252 0
M  V30 3765 H 350.447 -0.824058 -3.68806 0
M  V30 3766 H 350.76 -2.2899 -7.38095 0
M  V30 3767 H 349.105 -2.05273 -6.63994 0
M  V30 3768 H 352.296 -1.10281 -4.54924 0
M  V30 3769 H 352.469 -1.77103 -6.23329 0
M  V30 3770 N 345.875 1.56104 -0.216619 0
M  V30 3771 C 347.291 1.58995 0.13886 0
M  V30 3772 C 347.491 1.23333 1.59346 0
M  V30 3773 O 346.547 0.966234 2.33281 0
M  V30 3774 C 347.86 3.00143 -0.182968 0
M  V30 3775 C 349.408 3.12751 -0.124807 0
M  V30 3776 C 349.883 4.56068 -0.420241 0
M  V30 3777 N 351.374 4.61723 -0.369634 0
M  V30 3778 C 352.109 5.70542 -0.571789 0
M  V30 3779 N 351.605 6.87744 -0.835453 0
M  V30 3780 N 353.398 5.59831 -0.504563 0
M  V30 3781 H 345.549 1.77562 -1.16557 0
M  V30 3782 H 347.812 0.825091 -0.466828 0
M  V30 3783 H 347.518 3.30871 -1.19237 0
M  V30 3784 H 347.392 3.73813 0.504367 0
M  V30 3785 H 349.779 2.81822 0.875223 0
M  V30 3786 H 349.86 2.41421 -0.845544 0
M  V30 3787 H 349.504 4.87713 -1.41769 0
M  V30 3788 H 349.434 5.25617 0.321631 0
M  V30 3789 H 351.925 3.77502 -0.173338 0
M  V30 3790 H 352.238 7.66587 -0.977938 0
M  V30 3791 H 350.583 6.895 -0.872592 0
M  V30 3792 H 353.774 4.67145 -0.298842 0
M  V30 3793 H 353.947 6.44573 -0.665519 0
M  V30 3794 N 347.353 -0.0568162 1.57498 0
M  V30 3795 C 348.6 -0.753104 1.87975 0
M  V30 3796 C 348.928 -1.76815 0.81035 0
M  V30 3797 O 348.183 -1.94756 -0.19199 0
M  V30 3798 C 348.482 -1.48359 3.25153 0
M  V30 3799 C 348.148 -0.60713 4.46794 0
M  V30 3800 C 346.81 -0.365642 4.79809 0
M  V30 3801 C 349.162 -0.000305978 5.212 0
M  V30 3802 C 346.49 0.491905 5.84634 0
M  V30 3803 C 348.842 0.844781 6.26934 0
M  V30 3804 C 347.506 1.096 6.58441 0
M  V30 3805 H 346.776 -0.27558 0.687849 0
M  V30 3806 H 349.423 -0.0135173 1.91495 0
M  V30 3807 H 347.728 -2.29577 3.17492 0
M  V30 3808 H 349.425 -2.02739 3.45974 0
M  V30 3809 H 346.015 -0.805487 4.20963 0
M  V30 3810 H 350.199 -0.173961 4.95995 0
M  V30 3811 H 345.455 0.695131 6.07436 0
M  V30 3812 H 349.629 1.32165 6.83744 0
M  V30 3813 H 347.256 1.76224 7.39492 0
M  V30 3814 N 348.832 -1.54138 -0.328536 0
M  V30 3815 C 350.081 -1.71318 -1.06456 0
M  V30 3816 C 350.394 -0.491109 -1.89334 0
M  V30 3817 O 351.6 -0.54416 -2.65991 0
M  V30 3818 C 350.056 -3.03 -1.94214 0
M  V30 3819 C 349.664 -4.32595 -1.16471 0
M  V30 3820 C 351.408 -3.29544 -2.67583 0
M  V30 3821 C 349.315 -5.55341 -2.03347 0
M  V30 3822 H 348.245 -0.638429 -0.401155 0
M  V30 3823 H 350.896 -1.80633 -0.323106 0
M  V30 3824 H 349.278 -2.87579 -2.72239 0
M  V30 3825 H 350.452 -4.58766 -0.432525 0
M  V30 3826 H 348.767 -4.12777 -0.548063 0
M  V30 3827 H 351.364 -4.18444 -3.3288 0
M  V30 3828 H 351.707 -2.47206 -3.34955 0
M  V30 3829 H 352.24 -3.45809 -1.96623 0
M  V30 3830 H 348.979 -6.40268 -1.40491 0
M  V30 3831 H 348.499 -5.33397 -2.74313 0
M  V30 3832 H 350.178 -5.91557 -2.62049 0
M  V30 3833 N 350.31 0.590341 -1.46126 0
M  V30 3834 C 351.242 1.71427 -1.52136 0
M  V30 3835 C 352.255 1.57542 -0.41042 0
M  V30 3836 O 353.444 1.65106 -0.678389 0
M  V30 3837 C 350.544 3.09605 -1.37834 0
M  V30 3838 C 349.717 3.49566 -2.62912 0
M  V30 3839 C 348.776 4.66773 -2.42918 0
M  V30 3840 O 347.802 4.73019 -3.1661 0
M  V30 3841 N 349.004 5.61161 -1.4859 0
M  V30 3842 H 351.769 1.66728 -2.49042 0
M  V30 3843 H 349.33 0.776113 -1.42085 0
M  V30 3844 H 351.322 3.85796 -1.22243 0
M  V30 3845 H 349.892 3.08714 -0.491393 0
M  V30 3846 H 349.112 2.63158 -2.93499 0
M  V30 3847 H 350.4 3.73028 -3.46017 0
M  V30 3848 H 349.798 5.58844 -0.87808 0
M  V30 3849 H 348.355 6.36814 -1.38965 0
M  V30 3850 N 351.788 1.33704 0.83433 0
M  V30 3851 C 352.72 1.20172 1.9517 0
M  V30 3852 C 353.733 0.131572 1.62267 0
M  V30 3853 O 354.922 0.382406 1.74356 0
M  V30 3854 C 352.022 0.821716 3.28787 0
M  V30 3855 C 351.195 1.98446 3.89792 0
M  V30 3856 C 350.254 1.58469 5.01771 0
M  V30 3857 O 349.28 2.29968 5.20676 0
M  V30 3858 N 350.482 0.492291 5.78409 0
M  V30 3859 H 353.247 2.16429 2.07313 0
M  V30 3860 H 350.808 1.26509 1.0103 0
M  V30 3861 H 352.8 0.536291 4.01131 0
M  V30 3862 H 351.37 -0.0503058 3.1256 0
M  V30 3863 H 350.59 2.43526 3.09982 0
M  V30 3864 H 351.878 2.76236 4.27283 0
M  V30 3865 H 351.276 -0.102349 5.65607 0
M  V30 3866 H 349.833 0.266555 6.51255 0
M  V30 3867 N 353.266 -1.05314 1.17247 0
M  V30 3868 C 354.513 -1.78293 0.960091 0
M  V30 3869 C 354.841 -1.87658 -0.51136 0
M  V30 3870 O 354.096 -1.3718 -1.39571 0
M  V30 3871 C 354.395 -3.2229 1.54479 0
M  V30 3872 C 354.061 -3.32987 3.04024 0
M  V30 3873 C 352.723 -3.35613 3.44844 0
M  V30 3874 C 355.075 -3.34102 4.00031 0
M  V30 3875 C 352.403 -3.36982 4.8027 0
M  V30 3876 C 354.755 -3.3701 5.35357 0
M  V30 3877 C 353.419 -3.37923 5.75642 0
M  V30 3878 H 352.689 -0.652422 0.351322 0
M  V30 3879 H 355.336 -1.23782 1.46117 0
M  V30 3880 H 353.641 -3.7972 0.965391 0
M  V30 3881 H 355.338 -3.77376 1.35603 0
M  V30 3882 H 351.928 -3.31655 2.71483 0
M  V30 3883 H 356.112 -3.31276 3.69554 0
M  V30 3884 H 351.368 -3.35999 5.10798 0
M  V30 3885 H 355.542 -3.36822 6.09528 0
M  V30 3886 H 353.169 -3.38738 6.80559 0
M  V30 3887 N 354.744 -0.972509 -1.24016 0
M  V30 3888 C 355.969 -0.654417 -1.96805 0
M  V30 3889 C 356.394 0.770398 -1.716 0
M  V30 3890 O 355.752 1.52361 -0.982647 0
M  V30 3891 C 355.8 -0.941031 -3.48105 0
M  V30 3892 O 354.904 -0.0289472 -4.1239 0
M  V30 3893 H 354.245 -0.24692 -0.616382 0
M  V30 3894 H 356.775 -1.30396 -1.57664 0
M  V30 3895 H 356.785 -0.87452 -3.98517 0
M  V30 3896 H 355.46 -1.97939 -3.65777 0
M  V30 3897 H 354.037 -0.149192 -3.72601 0
M  V30 3898 N 356.222 1.38976 -0.743202 0
M  V30 3899 C 357.154 2.29096 -0.0689228 0
M  V30 3900 C 358.167 1.47229 0.694791 0
M  V30 3901 O 359.356 1.70212 0.537597 0
M  V30 3902 C 356.456 3.25988 0.926548 0
M  V30 3903 C 355.629 4.36833 0.222647 0
M  V30 3904 C 354.688 5.13981 1.12739 0
M  V30 3905 O 353.714 5.6601 0.601795 0
M  V30 3906 N 354.916 5.25966 2.45641 0
M  V30 3907 H 357.681 2.87604 -0.842846 0
M  V30 3908 H 355.242 1.50645 -0.593109 0
M  V30 3909 H 357.234 3.74476 1.5346 0
M  V30 3910 H 355.804 2.68453 1.60162 0
M  V30 3911 H 355.024 3.90116 -0.565983 0
M  V30 3912 H 356.312 5.0811 -0.264841 0
M  V30 3913 H 355.71 4.85228 2.9081 0
M  V30 3914 H 354.267 5.77865 3.01522 0
M  V30 3915 N 357.7 0.491464 1.49741 0
M  V30 3916 C 358.94 -0.0549118 2.04326 0
M  V30 3917 C 359.304 -1.35148 1.36378 0
M  V30 3918 O 360.505 -1.9815 1.81631 0
M  V30 3919 C 358.776 -0.213841 3.5676 0
M  V30 3920 S 360.335 -0.715839 4.32922 0
M  V30 3921 H 357.153 -0.00630513 0.710972 0
M  V30 3922 H 359.755 0.663257 1.83905 0
M  V30 3923 H 358.459 0.73527 4.0376 0
M  V30 3924 H 357.99 -0.957529 3.81569 0
M  V30 3925 H 360.005 -1.9864 4.54705 0
M  V30 3926 N 359.178 -1.55987 0.224894 0
M  V30 3927 C 360.125 -2.20436 -0.68385 0
M  V30 3928 C 361.095 -1.16102 -1.18783 0
M  V30 3929 O 362.28 -1.4447 -1.24632 0
M  V30 3930 C 359.42 -2.89076 -1.88491 0
M  V30 3931 C 358.533 -4.08012 -1.41951 0
M  V30 3932 C 357.668 -4.64426 -2.5784 0
M  V30 3933 C 356.707 -5.75656 -2.08053 0
M  V30 3934 N 355.844 -6.26347 -3.17227 0
M  V30 3935 H 360.684 -2.97727 -0.12754 0
M  V30 3936 H 358.221 -1.47011 -0.0511978 0
M  V30 3937 H 360.179 -3.27059 -2.59014 0
M  V30 3938 H 358.809 -2.14298 -2.41405 0
M  V30 3939 H 357.861 -3.75492 -0.609095 0
M  V30 3940 H 359.173 -4.88375 -1.01447 0
M  V30 3941 H 358.327 -5.04869 -3.3644 0
M  V30 3942 H 357.066 -3.83233 -3.01635 0
M  V30 3943 H 356.071 -5.34712 -1.27916 0
M  V30 3944 H 357.296 -6.58686 -1.65255 0
M  V30 3945 H 355.242 -5.48067 -3.60497 0
M  V30 3946 H 355.159 -7.01843 -2.80986 0
M  V30 3947 H 356.427 -6.71447 -3.95953 0
M  V30 3948 N 360.656 0.0484629 -1.57525 0
M  V30 3949 C 361.619 1.03956 -2.04269 0
M  V30 3950 C 362.619 1.30211 -0.943496 0
M  V30 3951 O 363.809 1.25539 -1.20771 0
M  V30 3952 C 360.941 2.37742 -2.44319 0
M  V30 3953 H 362.134 0.636182 -2.93075 0
M  V30 3954 H 359.687 0.294811 -1.53494 0
M  V30 3955 H 360.422 2.82866 -1.5861 0
M  V30 3956 H 360.207 2.20021 -3.24551 0
M  V30 3957 H 361.697 3.08936 -2.80978 0
M  V30 3958 N 362.134 1.5431 0.320358 0
M  V30 3959 C 363.362 1.76636 1.07738 0
M  V30 3960 C 363.777 0.51649 1.81598 0
M  V30 3961 O 363.134 -0.512942 1.75143 0
M  V30 3962 C 363.185 2.96158 2.07299 0
M  V30 3963 O 362.906 4.16313 1.36438 0
M  V30 3964 C 364.407 3.3072 2.95193 0
M  V30 3965 H 361.627 0.589597 0.320339 0
M  V30 3966 H 364.171 2.01207 0.36551 0
M  V30 3967 H 362.326 2.73851 2.74016 0
M  V30 3968 H 362.74 4.83565 2.03138 0
M  V30 3969 H 364.214 4.17643 3.60941 0
M  V30 3970 H 364.691 2.48026 3.62463 0
M  V30 3971 H 365.297 3.55117 2.34034 0
M  V30 3972 N 363.613 -0.582584 1.46437 0
M  V30 3973 C 364.576 -1.67366 1.56592 0
M  V30 3974 C 365.576 -1.54575 0.443072 0
M  V30 3975 O 366.766 -1.59191 0.707381 0
M  V30 3976 C 363.898 -3.06791 1.48634 0
M  V30 3977 H 365.091 -1.5972 2.5383 0
M  V30 3978 H 362.644 -0.800432 1.34249 0
M  V30 3979 H 363.379 -3.19993 0.526763 0
M  V30 3980 H 363.164 -3.17484 2.30101 0
M  V30 3981 H 364.654 -3.86218 1.58826 0
M  V30 3982 N 365.091 -1.34144 -0.827227 0
M  V30 3983 C 366.507 -1.13732 -1.11969 0
M  V30 3984 C 366.707 0.0640463 -2.01398 0
M  V30 3985 O 365.763 0.740856 -2.41387 0
M  V30 3986 C 367.076 -2.43047 -1.77055 0
M  V30 3987 C 368.624 -2.49063 -1.89569 0
M  V30 3988 C 369.099 -3.78369 -2.58072 0
M  V30 3989 N 370.59 -3.79505 -2.65575 0
M  V30 3990 C 371.325 -4.76274 -3.19297 0
M  V30 3991 N 370.821 -5.83424 -3.73616 0
M  V30 3992 N 372.614 -4.63735 -3.17658 0
M  V30 3993 H 364.765 -2.11126 -0.232296 0
M  V30 3994 H 367.028 -0.933424 -0.165602 0
M  V30 3995 H 366.734 -3.31025 -1.18807 0
M  V30 3996 H 366.608 -2.56066 -2.76966 0
M  V30 3997 H 368.995 -1.61527 -2.46968 0
M  V30 3998 H 369.076 -2.39975 -0.885745 0
M  V30 3999 H 368.72 -4.66293 -2.01329 0
M  V30 4000 H 368.65 -3.84737 -3.59562 0
M  V30 4001 H 371.141 -3.02074 -2.27068 0
M  V30 4002 H 371.454 -6.53282 -4.12846 0
M  V30 4003 H 369.799 -5.87143 -3.71871 0
M  V30 4004 H 372.99 -3.79177 -2.74486 0
M  V30 4005 H 373.163 -5.39318 -3.59221 0
M  V30 4006 N 366.569 1.04691 -1.17803 0
M  V30 4007 C 367.517 2.14665 -0.895635 0
M  V30 4008 C 368.511 1.68806 0.141679 0
M  V30 4009 O 369.717 1.79999 -0.00587914 0
M  V30 4010 H 366.092 0.701038 -0.272121 0
M  V30 4011 H 368.063 2.35685 -1.83017 0
M  V30 4012 C 366.812 3.45019 -0.430962 0
M  V30 4013 H 366.135 3.8071 -1.22064 0
M  V30 4014 H 367.575 4.23125 -0.272301 0
M  V30 4015 C 366.034 3.25943 0.852207 0
M  V30 4016 O 366.564 3.5296 1.91786 0
M  V30 4017 N 364.77 2.79304 0.802346 0
M  V30 4018 H 364.317 2.57518 -0.0650788 0
M  V30 4019 H 364.275 2.66921 1.66134 0
M  V30 4020 N 368.047 0.979072 1.23499 0
M  V30 4021 C 368.977 0.537606 2.27227 0
M  V30 4022 C 369.958 -0.428539 1.64613 0
M  V30 4023 O 371.143 -0.322191 1.91509 0
M  V30 4024 C 368.273 -0.162052 3.46922 0
M  V30 4025 C 367.227 0.721242 4.21879 0
M  V30 4026 C 366.553 -0.110555 5.34586 0
M  V30 4027 C 367.853 2.01141 4.82016 0
M  V30 4028 H 369.547 1.40462 2.64406 0
M  V30 4029 H 367.093 0.67684 1.27102 0
M  V30 4030 H 369.046 -0.482192 4.18632 0
M  V30 4031 H 367.77 -1.06351 3.08799 0
M  V30 4032 H 366.429 1.02482 3.51984 0
M  V30 4033 H 366.077 -1.0125 4.92704 0
M  V30 4034 H 365.777 0.477325 5.85658 0
M  V30 4035 H 367.301 -0.425107 6.09118 0
M  V30 4036 H 368.715 1.75612 5.45741 0
M  V30 4037 H 367.112 2.54695 5.43369 0
M  V30 4038 H 368.182 2.69909 4.02836 0
M  V30 4039 N 369.525 -1.3858 0.750561 0
M  V30 4040 C 370.472 -2.30483 0.120835 0
M  V30 4041 C 371.442 -1.50022 -0.712923 0
M  V30 4042 O 372.627 -1.78662 -0.669676 0
M  V30 4043 C 369.767 -3.36431 -0.768666 0
M  V30 4044 C 368.88 -4.31927 0.0793922 0
M  V30 4045 C 368.015 -5.24944 -0.81283 0
M  V30 4046 C 367.054 -6.12088 0.0390447 0
M  V30 4047 N 366.191 -6.97412 -0.809969 0
M  V30 4048 H 371.031 -2.83761 0.91015 0
M  V30 4049 H 368.568 -1.39707 0.460463 0
M  V30 4050 H 370.526 -3.96462 -1.29898 0
M  V30 4051 H 369.156 -2.8457 -1.5238 0
M  V30 4052 H 368.208 -3.73382 0.727303 0
M  V30 4053 H 369.52 -4.93319 0.737401 0
M  V30 4054 H 368.674 -5.90078 -1.41042 0
M  V30 4055 H 367.413 -4.63911 -1.50458 0
M  V30 4056 H 366.418 -5.45952 0.649328 0
M  V30 4057 H 367.643 -6.75189 0.727809 0
M  V30 4058 H 365.589 -6.38931 -1.48672 0
M  V30 4059 H 365.506 -7.55712 -0.208789 0
M  V30 4060 H 366.774 -7.66959 -1.39263 0
M  V30 4061 N 371.003 -0.499398 -1.49478 0
M  V30 4062 C 371.933 0.269244 -2.31943 0
M  V30 4063 C 372.914 0.964054 -1.40143 0
M  V30 4064 O 374.099 0.955767 -1.69052 0
M  V30 4065 C 371.229 1.33504 -3.20615 0
M  V30 4066 C 370.183 0.760202 -4.21195 0
M  V30 4067 C 369.509 1.9264 -4.98792 0
M  V30 4068 C 370.809 -0.247661 -5.21712 0
M  V30 4069 H 372.503 -0.419082 -2.96452 0
M  V30 4070 H 370.049 -0.202988 -1.42562 0
M  V30 4071 H 372.002 1.88048 -3.77115 0
M  V30 4072 H 370.726 2.05253 -2.54045 0
M  V30 4073 H 369.385 0.23653 -3.65836 0
M  V30 4074 H 369.033 2.63154 -4.28671 0
M  V30 4075 H 368.733 1.54785 -5.66847 0
M  V30 4076 H 370.257 2.4762 -5.58137 0
M  V30 4077 H 371.671 0.209579 -5.72917 0
M  V30 4078 H 370.068 -0.541962 -5.97648 0
M  V30 4079 H 371.138 -1.16409 -4.7072 0
M  V30 4080 N 372.481 1.55866 -0.233164 0
M  V30 4081 C 373.428 2.20796 0.67215 0
M  V30 4082 C 374.398 1.16731 1.18166 0
M  V30 4083 O 375.583 1.45129 1.23864 0
M  V30 4084 C 372.723 2.90072 1.86955 0
M  V30 4085 C 371.836 4.08759 1.39786 0
M  V30 4086 C 370.971 4.65787 2.55374 0
M  V30 4087 C 370.01 5.76752 2.04998 0
M  V30 4088 N 369.147 6.28021 3.13901 0
M  V30 4089 H 373.987 2.9779 0.111749 0
M  V30 4090 H 371.524 1.47036 0.0434007 0
M  V30 4091 H 373.482 3.28428 2.57276 0
M  V30 4092 H 372.112 2.15575 2.40265 0
M  V30 4093 H 371.164 3.7581 0.589173 0
M  V30 4094 H 372.476 4.88906 0.98856 0
M  V30 4095 H 371.63 5.06646 3.33758 0
M  V30 4096 H 370.369 3.84828 2.99598 0
M  V30 4097 H 369.374 5.35383 1.25079 0
M  V30 4098 H 370.599 6.59553 1.61759 0
M  V30 4099 H 368.545 5.49971 3.57586 0
M  V30 4100 H 368.462 7.03323 2.7726 0
M  V30 4101 H 369.73 6.73538 3.92386 0
M  V30 4102 N 373.959 -0.0401083 1.57549 0
M  V30 4103 C 375.189 -0.744115 1.92734 0
M  V30 4104 C 375.597 -1.70005 0.830348 0
M  V30 4105 O 374.94 -1.82576 -0.20286 0
M  V30 4106 C 375.002 -1.56516 3.2364 0
M  V30 4107 C 374.666 -0.7752 4.50377 0
M  V30 4108 C 375.663 -0.0803326 5.19838 0
M  V30 4109 C 373.348 -0.733002 4.96923 0
M  V30 4110 C 375.342 0.646154 6.34116 0
M  V30 4111 C 373.029 -0.00276321 6.111 0
M  V30 4112 C 374.027 0.685585 6.7955 0
M  V30 4113 O 373.715 1.40399 7.91545 0
M  V30 4114 H 373.447 -0.214861 0.640945 0
M  V30 4115 H 376.001 -0.00503675 2.05399 0
M  V30 4116 H 374.231 -2.3478 3.07271 0
M  V30 4117 H 375.92 -2.15076 3.44234 0
M  V30 4118 H 376.686 -0.104035 4.84888 0
M  V30 4119 H 372.565 -1.25827 4.43496 0
M  V30 4120 H 376.109 1.18398 6.87479 0
M  V30 4121 H 372.006 0.0229012 6.45496 0
M  V30 4122 H 372.774 1.31653 8.07843 0
M  V30 4123 N 375.437 -1.54477 -0.31217 0
M  V30 4124 C 376.367 -1.87652 -1.38957 0
M  V30 4125 C 377.348 -0.734358 -1.53431 0
M  V30 4126 O 378.533 -0.98911 -1.67123 0
M  V30 4127 C 375.663 -2.11396 -2.75552 0
M  V30 4128 C 374.617 -3.27243 -2.75855 0
M  V30 4129 C 373.943 -3.36382 -4.15633 0
M  V30 4130 C 375.243 -4.64622 -2.38587 0
M  V30 4131 H 376.937 -2.77887 -1.11442 0
M  V30 4132 H 374.483 -1.33707 -0.534655 0
M  V30 4133 H 376.436 -2.33189 -3.51 0
M  V30 4134 H 375.16 -1.17921 -3.04569 0
M  V30 4135 H 373.819 -3.05356 -2.02863 0
M  V30 4136 H 373.467 -2.40445 -4.41809 0
M  V30 4137 H 373.167 -4.14249 -4.1674 0
M  V30 4138 H 374.691 -3.60422 -4.92877 0
M  V30 4139 H 376.105 -4.86219 -3.03749 0
M  V30 4140 H 374.502 -5.45121 -2.50925 0
M  V30 4141 H 375.572 -4.66097 -1.33723 0
M  V30 4142 N 376.915 0.57481 -1.46744 0
M  V30 4143 C 378.164 1.32898 -1.51727 0
M  V30 4144 C 378.477 1.948 -0.176692 0
M  V30 4145 O 379.683 2.71299 -0.104385 0
M  V30 4146 C 378.139 2.40901 -2.67385 0
M  V30 4147 C 377.747 1.85266 -4.07898 0
M  V30 4148 C 379.491 3.17609 -2.81646 0
M  V30 4149 C 377.398 2.90945 -5.14883 0
M  V30 4150 H 376.328 0.499631 -0.564699 0
M  V30 4151 H 378.979 0.612536 -1.72975 0
M  V30 4152 H 377.361 3.15379 -2.39483 0
M  V30 4153 H 378.535 1.17278 -4.45626 0
M  V30 4154 H 376.85 1.21199 -3.98371 0
M  V30 4155 H 379.447 3.96493 -3.58744 0
M  V30 4156 H 379.79 3.70696 -1.89448 0
M  V30 4157 H 380.323 2.50239 -3.09233 0
M  V30 4158 H 377.062 2.42736 -6.089 0
M  V30 4159 H 376.582 3.57398 -4.81691 0
M  V30 4160 H 378.261 3.54755 -5.41071 0
M  V30 4161 N 378.394 1.34581 0.820102 0
M  V30 4162 C 379.342 1.26401 1.95258 0
M  V30 4163 C 380.336 0.161553 1.68628 0
M  V30 4164 O 381.542 0.326703 1.7701 0
M  V30 4165 H 377.917 0.392749 0.64129 0
M  V30 4166 H 379.888 2.22105 1.99279 0
M  V30 4167 C 378.637 1.03919 3.31807 0
M  V30 4168 H 377.96 1.87984 3.52848 0
M  V30 4169 H 379.4 1.02232 4.11491 0
M  V30 4170 C 377.859 -0.257433 3.35915 0
M  V30 4171 O 378.389 -1.25784 3.81499 0
M  V30 4172 N 376.595 -0.291524 2.89134 0
M  V30 4173 H 376.142 0.523161 2.52232 0
M  V30 4174 H 376.1 -1.15883 2.92264 0
M  V30 4175 N 379.872 -1.04064 1.18357 0
M  V30 4176 C 380.802 -2.14001 0.934113 0
M  V30 4177 C 381.783 -1.69616 -0.128186 0
M  V30 4178 O 382.968 -1.94185 0.0244093 0
M  V30 4179 C 380.098 -3.44253 0.459066 0
M  V30 4180 C 379.052 -4.02261 1.46185 0
M  V30 4181 C 378.378 -5.27992 0.844322 0
M  V30 4182 C 379.678 -4.38432 2.83856 0
M  V30 4183 H 381.372 -2.35127 1.85352 0
M  V30 4184 H 378.918 -1.12998 0.892604 0
M  V30 4185 H 380.871 -4.20522 0.271907 0
M  V30 4186 H 379.595 -3.22813 -0.495912 0
M  V30 4187 H 378.254 -3.28074 1.63595 0
M  V30 4188 H 377.902 -5.02862 -0.117845 0
M  V30 4189 H 377.602 -5.67765 1.51384 0
M  V30 4190 H 379.126 -6.06938 0.667693 0
M  V30 4191 H 380.54 -5.05688 2.70098 0
M  V30 4192 H 378.937 -4.89254 3.47491 0
M  V30 4193 H 380.007 -3.4826 3.37406 0
M  V30 4194 N 381.35 -0.985608 -1.22978 0
M  V30 4195 C 382.26 -0.538548 -2.28335 0
M  V30 4196 C 383.276 0.409163 -1.69121 0
M  V30 4197 O 384.452 0.277797 -1.99475 0
M  V30 4198 C 381.517 0.146867 -3.46389 0
M  V30 4199 C 380.578 -0.842896 -4.20944 0
M  V30 4200 C 379.811 -0.190095 -5.33361 0
M  V30 4201 O 380.034 1.01767 -5.61248 0
M  V30 4202 O 378.968 -0.891289 -5.95264 0
M  V30 4203 H 382.794 -1.41487 -2.68729 0
M  V30 4204 H 380.379 -0.753495 -1.29007 0
M  V30 4205 H 382.261 0.531125 -4.1804 0
M  V30 4206 H 380.936 0.997871 -3.07935 0
M  V30 4207 H 379.843 -1.27795 -3.51595 0
M  V30 4208 H 381.176 -1.66287 -4.6326 0
M  V30 4209 N 382.828 1.3818 -0.7579 0
M  V30 4210 C 384.056 2.04301 -0.326937 0
M  V30 4211 C 384.471 1.57163 1.0462 0
M  V30 4212 O 383.828 0.746626 1.66529 0
M  V30 4213 C 383.879 3.59846 -0.345363 0
M  V30 4214 O 383.6 4.05256 -1.66432 0
M  V30 4215 C 385.101 4.4319 0.098927 0
M  V30 4216 H 382.321 0.656443 -0.139012 0
M  V30 4217 H 384.865 1.76786 -1.02796 0
M  V30 4218 H 383.02 3.86182 0.306955 0
M  V30 4219 H 383.434 4.99709 -1.59345 0
M  V30 4220 H 384.908 5.51989 0.0348745 0
M  V30 4221 H 385.385 4.23947 1.14741 0
M  V30 4222 H 385.991 4.22051 -0.52468 0
M  V30 4223 N 384.306 0.507319 1.49211 0
M  V30 4224 C 385.236 -0.256939 2.32082 0
M  V30 4225 C 386.217 -0.956609 1.40652 0
M  V30 4226 O 387.402 -0.946788 1.69557 0
M  V30 4227 C 384.532 -1.31802 3.21318 0
M  V30 4228 C 383.486 -0.737855 4.21592 0
M  V30 4229 C 382.812 -1.89992 4.99807 0
M  V30 4230 C 384.112 0.275325 5.21574 0
M  V30 4231 H 385.806 0.434798 2.96226 0
M  V30 4232 H 383.352 0.210546 1.42452 0
M  V30 4233 H 385.305 -1.86045 3.78107 0
M  V30 4234 H 384.029 -2.03903 2.5513 0
M  V30 4235 H 382.688 -0.217126 3.65956 0
M  V30 4236 H 382.336 -2.60877 4.30061 0
M  V30 4237 H 382.036 -1.51777 5.6766 0
M  V30 4238 H 383.56 -2.44657 5.59442 0
M  V30 4239 H 384.974 -0.179193 5.7302 0
M  V30 4240 H 383.371 0.573649 5.97352 0
M  V30 4241 H 384.441 1.18903 4.70096 0
M  V30 4242 N 385.784 -1.5574 0.241426 0
M  V30 4243 C 386.716 -2.18469 -0.693091 0
M  V30 4244 C 387.729 -1.15942 -1.14286 0
M  V30 4245 O 388.918 -1.42832 -1.07058 0
M  V30 4246 C 386.018 -2.7696 -1.95311 0
M  V30 4247 C 385.191 -4.04853 -1.65568 0
M  V30 4248 C 384.25 -4.47715 -2.76474 0
M  V30 4249 O 383.276 -5.14205 -2.44094 0
M  V30 4250 N 384.478 -4.15044 -4.05855 0
M  V30 4251 H 387.243 -2.99292 -0.156388 0
M  V30 4252 H 384.804 -1.61784 0.0611752 0
M  V30 4253 H 386.796 -3.02594 -2.68736 0
M  V30 4254 H 385.366 -2.00326 -2.39975 0
M  V30 4255 H 384.586 -3.86865 -0.756886 0
M  V30 4256 H 385.874 -4.88246 -1.43153 0
M  V30 4257 H 385.272 -3.61654 -4.34998 0
M  V30 4258 H 383.829 -4.45526 -4.75762 0
M  V30 4259 N 387.262 0.0317525 -1.57568 0
M  V30 4260 C 388.487 0.738664 -1.938 0
M  V30 4261 C 388.912 1.68242 -0.841208 0
M  V30 4262 O 388.27 1.80157 0.203267 0
M  V30 4263 C 388.318 1.47417 -3.29091 0
M  V30 4264 O 387.422 2.5872 -3.2115 0
M  V30 4265 H 386.763 0.198856 -0.633524 0
M  V30 4266 H 389.293 -0.0119713 -2.04596 0
M  V30 4267 H 389.303 1.84468 -3.63917 0
M  V30 4268 H 387.978 0.781988 -4.08482 0
M  V30 4269 H 386.555 2.24231 -2.97951 0
M  V30 4270 N 388.74 1.54641 0.303973 0
M  V30 4271 C 389.703 1.84646 1.35789 0
M  V30 4272 C 390.703 0.7192 1.4382 0
M  V30 4273 O 391.893 0.987491 1.43507 0
M  V30 4274 C 389.025 2.02407 2.74307 0
M  V30 4275 H 390.218 2.78829 1.10429 0
M  V30 4276 H 387.771 1.46658 0.540487 0
M  V30 4277 H 388.506 1.10502 3.04893 0
M  V30 4278 H 388.291 2.84453 2.69868 0
M  V30 4279 H 389.781 2.27002 3.50514 0
M  V30 4280 N 390.218 -0.567019 1.47046 0
M  V30 4281 C 391.465 -1.32462 1.53167 0
M  V30 4282 C 391.793 -1.93571 0.189841 0
M  V30 4283 O 391.048 -1.77865 -0.816243 0
M  V30 4284 C 391.347 -2.4623 2.59047 0
M  V30 4285 C 391.013 -2.03014 4.02612 0
M  V30 4286 C 389.675 -1.90944 4.41694 0
M  V30 4287 C 392.027 -1.69895 4.92732 0
M  V30 4288 C 389.355 -1.44035 5.68745 0
M  V30 4289 C 391.707 -1.2446 6.20236 0
M  V30 4290 C 390.371 -1.10979 6.5821 0
M  V30 4291 H 389.641 -0.484713 0.560477 0
M  V30 4292 H 392.288 -0.636888 1.80599 0
M  V30 4293 H 390.593 -3.20517 2.25335 0
M  V30 4294 H 392.29 -3.04427 2.61008 0
M  V30 4295 H 388.88 -2.13348 3.71726 0
M  V30 4296 H 393.064 -1.78098 4.63244 0
M  V30 4297 H 388.32 -1.32254 5.96925 0
M  V30 4298 H 392.494 -0.978924 6.89485 0
M  V30 4299 H 390.121 -0.744078 7.5655 0
M  V30 4300 N 391.696 -1.35014 -0.812953 0
M  V30 4301 C 392.926 -1.30841 -1.59888 0
M  V30 4302 C 393.334 0.117576 -1.88834 0
M  V30 4303 O 392.677 1.07807 -1.48739 0
M  V30 4304 C 392.739 -2.0412 -2.95931 0
M  V30 4305 C 392.403 -3.53336 -2.89832 0
M  V30 4306 C 393.4 -4.48052 -2.63714 0
M  V30 4307 C 391.085 -3.95894 -3.0915 0
M  V30 4308 C 393.079 -5.833 -2.56982 0
M  V30 4309 C 390.766 -5.31239 -3.0204 0
M  V30 4310 C 391.764 -6.24754 -2.75991 0
M  V30 4311 O 391.452 -7.57617 -2.68833 0
M  V30 4312 H 391.184 -0.451215 -0.50337 0
M  V30 4313 H 393.738 -1.78354 -1.01877 0
M  V30 4314 H 391.968 -1.51235 -3.559 0
M  V30 4315 H 393.657 -1.93107 -3.57022 0
M  V30 4316 H 394.423 -4.16492 -2.48515 0
M  V30 4317 H 390.302 -3.23495 -3.28438 0
M  V30 4318 H 393.846 -6.56263 -2.36569 0
M  V30 4319 H 389.743 -5.62415 -3.16796 0
M  V30 4320 H 390.511 -7.67469 -2.84487 0
M  V30 4321 N 393.175 1.03435 -1.18907 0
M  V30 4322 C 394.403 1.80381 -1.01342 0
M  V30 4323 C 394.818 1.83649 0.438005 0
M  V30 4324 O 394.175 1.27655 1.30424 0
M  V30 4325 C 394.226 3.25689 -1.56873 0
M  V30 4326 O 393.947 3.22673 -2.96334 0
M  V30 4327 C 395.448 4.19255 -1.44014 0
M  V30 4328 H 392.668 0.56784 -0.35749 0
M  V30 4329 H 395.212 1.30317 -1.576 0
M  V30 4330 H 393.367 3.72962 -1.04777 0
M  V30 4331 H 393.781 4.13748 -3.22355 0
M  V30 4332 H 395.255 5.19123 -1.87657 0
M  V30 4333 H 395.732 4.37467 -0.389815 0
M  V30 4334 H 396.338 3.77851 -1.95214 0
M  V30 4335 N 394.653 0.992116 1.22453 0
M  V30 4336 C 395.563 0.55065 2.28046 0
M  V30 4337 C 396.579 -0.400189 1.69335 0
M  V30 4338 O 397.755 -0.267215 1.99619 0
M  V30 4339 C 394.82 -0.128496 3.46462 0
M  V30 4340 C 393.881 0.865208 4.20491 0
M  V30 4341 C 393.114 0.218377 5.33253 0
M  V30 4342 O 393.337 -0.987894 5.6178 0
M  V30 4343 O 392.271 0.922845 5.94783 0
M  V30 4344 H 396.097 1.4291 2.67975 0
M  V30 4345 H 393.682 0.760326 1.28606 0
M  V30 4346 H 395.564 -0.508947 4.18315 0
M  V30 4347 H 394.239 -0.981526 3.0846 0
M  V30 4348 H 393.146 1.29658 3.50913 0
M  V30 4349 H 394.479 1.68741 4.62371 0
M  V30 4350 N 396.131 -1.37776 0.765217 0
M  V30 4351 C 397.078 -2.30342 0.145274 0
M  V30 4352 C 398.048 -1.5077 -0.696971 0
M  V30 4353 O 399.233 -1.79362 -0.650689 0
M  V30 4354 C 396.373 -3.37227 -0.732939 0
M  V30 4355 C 395.486 -4.31819 0.125199 0
M  V30 4356 C 394.621 -5.25777 -0.757107 0
M  V30 4357 C 393.66 -6.12012 0.103963 0
M  V30 4358 N 392.797 -6.98232 -0.735953 0
M  V30 4359 H 397.637 -2.8278 0.940195 0
M  V30 4360 H 395.174 -1.39211 0.475255 0
M  V30 4361 H 397.132 -3.97818 -1.25686 0
M  V30 4362 H 395.762 -2.86171 -1.49353 0
M  V30 4363 H 394.814 -3.7259 0.766865 0
M  V30 4364 H 396.126 -4.92509 0.789683 0
M  V30 4365 H 395.28 -5.91541 -1.34776 0
M  V30 4366 H 394.019 -4.65481 -1.45529 0
M  V30 4367 H 393.024 -5.45233 0.707197 0
M  V30 4368 H 394.249 -6.74379 0.799381 0
M  V30 4369 H 392.195 -6.40472 -1.41887 0
M  V30 4370 H 392.112 -7.55891 -0.128624 0
M  V30 4371 H 393.38 -7.68393 -1.31121 0
M  V30 4372 N 397.609 -0.515225 -1.4894 0
M  V30 4373 C 398.856 0.024215 -2.02486 0
M  V30 4374 C 399.184 1.35671 -1.39368 0
M  V30 4375 O 398.439 1.88566 -0.523574 0
M  V30 4376 C 398.738 0.210595 -3.56779 0
M  V30 4377 C 398.404 -1.04569 -4.38607 0
M  V30 4378 C 397.066 -1.39002 -4.60686 0
M  V30 4379 C 399.418 -1.88008 -4.86109 0
M  V30 4380 C 396.746 -2.568 -5.27514 0
M  V30 4381 C 399.098 -3.04972 -5.54234 0
M  V30 4382 C 397.762 -3.39768 -5.74555 0
M  V30 4383 H 397.032 0.00886088 -0.740947 0
M  V30 4384 H 399.679 -0.678263 -1.79086 0
M  V30 4385 H 397.984 0.99572 -3.78936 0
M  V30 4386 H 399.681 0.642659 -3.95817 0
M  V30 4387 H 396.271 -0.767497 -4.21672 0
M  V30 4388 H 400.455 -1.62719 -4.68867 0
M  V30 4389 H 395.711 -2.8398 -5.41447 0
M  V30 4390 H 399.885 -3.69943 -5.90013 0
M  V30 4391 H 397.512 -4.31148 -6.26112 0
M  V30 4392 N 399.087 1.5561 -0.249682 0
M  V30 4393 C 399.997 2.25143 0.659375 0
M  V30 4394 C 401.013 1.2685 1.19101 0
M  V30 4395 O 402.189 1.59732 1.22669 0
M  V30 4396 C 399.254 2.93945 1.8384 0
M  V30 4397 C 398.315 4.07655 1.34596 0
M  V30 4398 C 397.548 4.73167 2.46878 0
M  V30 4399 O 397.771 4.37768 3.65671 0
M  V30 4400 O 396.705 5.61623 2.16478 0
M  V30 4401 H 400.531 3.03545 0.0968698 0
M  V30 4402 H 398.116 1.49389 -0.018074 0
M  V30 4403 H 399.998 3.37271 2.52638 0
M  V30 4404 H 398.673 2.18481 2.38847 0
M  V30 4405 H 397.58 3.68839 0.625174 0
M  V30 4406 H 398.913 4.84946 0.841941 0
M  V30 4407 N 400.565 -0.0233959 1.57583 0
M  V30 4408 C 401.811 -0.714119 1.89811 0
M  V30 4409 C 402.144 -1.74702 0.848113 0
M  V30 4410 O 401.419 -1.94023 -0.136135 0
M  V30 4411 C 401.702 -1.37853 3.32669 0
M  V30 4412 C 401.555 -0.358764 4.48367 0
M  V30 4413 C 402.874 -2.31101 3.7454 0
M  V30 4414 H 399.993 -0.25814 0.690314 0
M  V30 4415 H 402.635 0.0230927 1.89986 0
M  V30 4416 H 400.785 -2.00689 3.3265 0
M  V30 4417 H 402.457 0.268115 4.6052 0
M  V30 4418 H 400.7 0.321387 4.32608 0
M  V30 4419 H 401.371 -0.862242 5.45224 0
M  V30 4420 H 403.847 -1.78304 3.75961 0
M  V30 4421 H 402.723 -2.74567 4.75294 0
M  V30 4422 H 402.984 -3.18018 3.0711 0
M  V30 4423 N 402.043 -1.548 -0.295768 0
M  V30 4424 C 402.99 -1.86113 -1.36494 0
M  V30 4425 C 403.96 -0.7105 -1.50137 0
M  V30 4426 O 405.145 -0.959626 -1.64912 0
M  V30 4427 C 402.285 -2.11861 -2.72413 0
M  V30 4428 C 401.398 -3.39471 -2.67177 0
M  V30 4429 C 400.533 -3.55035 -3.95125 0
M  V30 4430 C 399.572 -4.76418 -3.84308 0
M  V30 4431 N 398.709 -4.8876 -5.04042 0
M  V30 4432 H 403.549 -2.77314 -1.09091 0
M  V30 4433 H 401.086 -1.37315 -0.52753 0
M  V30 4434 H 403.044 -2.24786 -3.51464 0
M  V30 4435 H 401.674 -1.2392 -2.98066 0
M  V30 4436 H 400.726 -3.35139 -1.79962 0
M  V30 4437 H 402.038 -4.28646 -2.55076 0
M  V30 4438 H 401.192 -3.67653 -4.82614 0
M  V30 4439 H 399.931 -2.64002 -4.10066 0
M  V30 4440 H 398.936 -4.63827 -2.95202 0
M  V30 4441 H 400.161 -5.68863 -3.70906 0
M  V30 4442 H 398.107 -4.00652 -5.19436 0
M  V30 4443 H 398.024 -5.71945 -4.94384 0
M  V30 4444 H 399.292 -5.0574 -5.93167 0
M  V30 4445 N 403.521 0.559213 -1.47345 0
M  V30 4446 C 404.431 1.69388 -1.62311 0
M  V30 4447 C 405.447 1.6648 -0.505993 0
M  V30 4448 O 406.623 1.85964 -0.773262 0
M  V30 4449 C 403.688 3.05894 -1.63185 0
M  V30 4450 C 402.749 3.19885 -2.86307 0
M  V30 4451 C 401.982 4.49879 -2.87131 0
M  V30 4452 O 402.205 5.35217 -1.97229 0
M  V30 4453 O 401.139 4.67618 -3.78968 0
M  V30 4454 H 404.965 1.59706 -2.58317 0
M  V30 4455 H 402.55 0.728989 -1.30407 0
M  V30 4456 H 404.432 3.87133 -1.66451 0
M  V30 4457 H 403.107 3.15964 -0.70345 0
M  V30 4458 H 402.014 2.38052 -2.88587 0
M  V30 4459 H 403.347 3.14718 -3.78435 0
M  V30 4460 N 404.999 1.35443 0.805782 0
M  V30 4461 C 406.41 1.25768 1.37983 0
M  V30 4462 C 406.761 -0.10958 1.95894 0
M  V30 4463 O 405.886 -1.01056 1.91355 0
M  V30 4464 C 406.481 2.27727 2.5085 0
M  V30 4465 C 405.04 2.2179 3.04115 0
M  V30 4466 C 404.187 2.13393 1.77084 0
M  V30 4467 H 407.138 1.4656 0.608752 0
M  V30 4468 H 407.159 1.90422 3.29424 0
M  V30 4469 H 406.671 3.27227 2.08671 0
M  V30 4470 H 404.772 1.25703 3.50756 0
M  V30 4471 H 404.885 3.13788 3.62042 0
M  V30 4472 H 403.249 1.59384 1.98668 0
M  V30 4473 H 404.032 3.14755 1.37056 0
M  V30 4474 N 406.477 -1.02803 1.19454 0
M  V30 4475 C 407.725 -1.75869 0.995722 0
M  V30 4476 C 408.046 -1.89138 -0.474543 0
M  V30 4477 O 407.316 -1.42558 -1.34366 0
M  V30 4478 H 405.896 -0.651511 0.365435 0
M  V30 4479 H 408.558 -1.24004 1.50363 0
M  V30 4480 H 407.654 -2.76661 1.44447 0
M  V30 4481 N 407.956 -0.998596 -1.21925 0
M  V30 4482 C 409.181 -0.696015 -1.95372 0
M  V30 4483 C 409.606 0.733826 -1.73195 0
M  V30 4484 O 408.964 1.50242 -1.01474 0
M  V30 4485 C 409.012 -1.01466 -3.4603 0
M  V30 4486 O 408.116 -0.116415 -4.12236 0
M  V30 4487 H 407.457 -0.259938 -0.611006 0
M  V30 4488 H 409.987 -1.33711 -1.54863 0
M  V30 4489 H 409.997 -0.958855 -3.96573 0
M  V30 4490 H 408.672 -2.05653 -3.61497 0
M  V30 4491 H 407.249 -0.228193 -3.72201 0
M  V30 4492 N 409.434 1.37368 -0.772513 0
M  V30 4493 C 410.682 1.99279 -0.336516 0
M  V30 4494 C 411.003 1.6163 1.09091 0
M  V30 4495 O 410.273 0.882109 1.74916 0
M  V30 4496 H 408.853 0.737063 -0.121435 0
M  V30 4497 H 411.515 1.67836 -0.990809 0
M  V30 4498 H 410.611 3.09332 -0.414763 0
M  V30 4499 N 410.912 0.523116 1.48665 0
M  V30 4500 C 412.323 0.0808997 1.86525 0
M  V30 4501 C 412.674 -1.33975 1.43336 0
M  V30 4502 O 411.799 -2.00221 0.821009 0
M  V30 4503 C 412.394 0.140037 3.3851 0
M  V30 4504 C 410.953 -0.246948 3.75589 0
M  V30 4505 C 410.1 0.502845 2.72703 0
M  V30 4506 H 413.051 0.734736 1.40667 0
M  V30 4507 H 413.072 -0.649945 3.74908 0
M  V30 4508 H 412.584 1.17412 3.69914 0
M  V30 4509 H 410.685 -1.28343 3.49798 0
M  V30 4510 H 410.798 0.0878859 4.79019 0
M  V30 4511 H 409.162 -0.0500581 2.54651 0
M  V30 4512 H 409.945 1.53743 3.0695 0
M  V30 4513 N 412.39 -1.55475 0.257931 0
M  V30 4514 C 413.615 -2.04064 -0.370488 0
M  V30 4515 C 414.04 -1.13565 -1.49948 0
M  V30 4516 O 413.398 -0.130781 -1.80828 0
M  V30 4517 C 413.446 -3.50554 -0.845237 0
M  V30 4518 O 412.55 -3.63173 -1.95394 0
M  V30 4519 H 411.891 -0.659257 -0.0792243 0
M  V30 4520 H 414.421 -2.00903 0.387212 0
M  V30 4521 H 414.431 -3.91588 -1.14555 0
M  V30 4522 H 413.106 -4.15896 -0.0191259 0
M  V30 4523 H 411.683 -3.34039 -1.65748 0
M  V30 4524 N 413.868 0.0150385 -1.57593 0
M  V30 4525 C 415.116 0.701613 -1.8953 0
M  V30 4526 C 415.437 1.75139 -0.857396 0
M  V30 4527 O 414.707 1.95607 0.107194 0
M  V30 4528 H 413.287 0.26213 -0.699498 0
M  V30 4529 H 415.949 -0.0223304 -1.94887 0
M  V30 4530 H 415.045 1.18236 -2.88837 0
M  V30 4531 N 415.346 1.54954 0.287554 0
M  V30 4532 C 416.256 1.8991 1.37736 0
M  V30 4533 C 417.272 0.794701 1.54792 0
M  V30 4534 O 418.448 1.09243 1.69198 0
M  V30 4535 C 415.513 2.15108 2.71899 0
M  V30 4536 C 414.574 3.38752 2.63715 0
M  V30 4537 C 413.807 3.62739 3.91479 0
M  V30 4538 O 414.03 2.89492 4.91478 0
M  V30 4539 O 412.964 4.56267 3.92561 0
M  V30 4540 H 416.79 2.82652 1.11092 0
M  V30 4541 H 414.375 1.41315 0.484807 0
M  V30 4542 H 416.257 2.32806 3.51254 0
M  V30 4543 H 414.932 1.25551 2.9836 0
M  V30 4544 H 413.839 3.26405 1.82786 0
M  V30 4545 H 415.172 4.28483 2.42205 0
M  V30 4546 N 416.824 -0.551391 1.4764 0
M  V30 4547 C 417.734 -1.68525 1.63207 0
M  V30 4548 C 418.75 -1.6621 0.514815 0
M  V30 4549 O 419.926 -1.85551 0.783113 0
M  V30 4550 C 416.991 -3.05025 1.64805 0
M  V30 4551 C 416.052 -3.18362 2.88 0
M  V30 4552 C 415.285 -4.4835 2.89513 0
M  V30 4553 O 415.508 -5.34163 2.00065 0
M  V30 4554 O 414.442 -4.65602 3.81443 0
M  V30 4555 H 418.268 -1.58333 2.59161 0
M  V30 4556 H 415.853 -0.722063 1.30792 0
M  V30 4557 H 417.735 -3.86245 1.68502 0
M  V30 4558 H 416.41 -3.15587 0.720197 0
M  V30 4559 H 415.317 -2.36518 2.89845 0
M  V30 4560 H 416.65 -3.12707 3.80099 0
M  V30 4561 N 418.302 -1.35869 -0.798587 0
M  V30 4562 C 419.551 -1.28921 -1.5512 0
M  V30 4563 C 419.864 0.13208 -1.95154 0
M  V30 4564 O 421.07 0.323879 -2.69561 0
M  V30 4565 C 419.526 -2.26141 -2.79979 0
M  V30 4566 C 419.134 -3.73658 -2.47151 0
M  V30 4567 C 420.878 -2.28152 -3.57976 0
M  V30 4568 C 418.785 -4.62679 -3.6835 0
M  V30 4569 H 417.715 -0.479031 -0.582276 0
M  V30 4570 H 420.366 -1.61179 -0.877125 0
M  V30 4571 H 418.748 -1.86865 -3.49138 0
M  V30 4572 H 419.922 -4.21616 -1.85947 0
M  V30 4573 H 418.237 -3.74333 -1.82383 0
M  V30 4574 H 420.834 -2.91875 -4.4801 0
M  V30 4575 H 421.177 -1.28748 -3.95891 0
M  V30 4576 H 421.71 -2.65998 -2.95787 0
M  V30 4577 H 418.449 -5.63111 -3.35538 0
M  V30 4578 H 417.969 -4.19442 -4.28752 0
M  V30 4579 H 419.648 -4.78498 -4.35487 0
M  V30 4580 N 419.78 1.02168 -1.19998 0
M  V30 4581 C 421.027 1.75685 -1.00702 0
M  V30 4582 C 421.355 1.88947 0.461426 0
M  V30 4583 O 420.61 1.40832 1.35885 0
M  V30 4584 C 420.909 3.18081 -1.62969 0
M  V30 4585 C 420.575 3.24809 -3.12746 0
M  V30 4586 C 419.237 3.26352 -3.53621 0
M  V30 4587 C 421.589 3.23379 -4.08749 0
M  V30 4588 C 418.917 3.2413 -4.89036 0
M  V30 4589 C 421.269 3.22698 -5.44104 0
M  V30 4590 C 419.933 3.22542 -5.84399 0
M  V30 4591 H 419.203 0.642877 -0.368496 0
M  V30 4592 H 421.85 1.19865 -1.49348 0
M  V30 4593 H 420.155 3.77027 -1.06573 0
M  V30 4594 H 421.852 3.73648 -1.45561 0
M  V30 4595 H 418.442 3.2434 -2.80181 0
M  V30 4596 H 422.626 3.21361 -3.78207 0
M  V30 4597 H 417.882 3.22338 -5.19527 0
M  V30 4598 H 422.056 3.20543 -6.18244 0
M  V30 4599 H 419.683 3.20575 -6.89301 0
M  V30 4600 N 421.258 1.00505 1.21394 0
M  V30 4601 C 422.221 0.570459 2.21987 0
M  V30 4602 C 423.221 -0.353211 1.56873 0
M  V30 4603 O 424.411 -0.14349 1.73608 0
M  V30 4604 C 421.543 -0.168555 3.40483 0
M  V30 4605 H 422.736 1.46021 2.6195 0
M  V30 4606 H 420.289 0.793565 1.34656 0
M  V30 4607 H 421.024 -1.07374 3.06009 0
M  V30 4608 H 420.809 0.494823 3.88965 0
M  V30 4609 H 422.299 -0.460362 4.15055 0
M  V30 4610 N 422.737 -1.36956 0.779787 0
M  V30 4611 C 423.965 -2.03755 0.359398 0
M  V30 4612 C 424.38 -1.58807 -1.02106 0
M  V30 4613 O 423.737 -0.773024 -1.6532 0
M  V30 4614 C 423.788 -3.59251 0.402568 0
M  V30 4615 O 423.509 -4.02557 1.72858 0
M  V30 4616 C 425.01 -4.43291 -0.0284068 0
M  V30 4617 H 422.23 -0.654148 0.149437 0
M  V30 4618 H 424.774 -1.75128 1.05595 0
M  V30 4619 H 422.929 -3.86621 -0.245478 0
M  V30 4620 H 423.343 -4.97111 1.67275 0
M  V30 4621 H 424.817 -5.51975 0.0529466 0
M  V30 4622 H 425.294 -4.25719 -1.07982 0
M  V30 4623 H 425.9 -4.21163 0.591758 0
M  V30 4624 N 424.215 -0.530993 -1.48385 0
M  V30 4625 C 425.464 0.00474348 -2.01699 0
M  V30 4626 C 425.777 1.35227 -1.41325 0
M  V30 4627 O 426.983 1.97643 -1.86144 0
M  V30 4628 C 425.439 0.0588473 -3.59852 0
M  V30 4629 C 425.047 -1.28385 -4.2921 0
M  V30 4630 C 426.791 0.543358 -4.21008 0
M  V30 4631 C 424.698 -1.19028 -5.79298 0
M  V30 4632 H 423.628 0.00554317 -0.75398 0
M  V30 4633 H 426.279 -0.674924 -1.70637 0
M  V30 4634 H 424.661 0.803612 -3.8776 0
M  V30 4635 H 425.835 -2.04426 -4.12973 0
M  V30 4636 H 424.15 -1.70418 -3.7993 0
M  V30 4637 H 426.747 0.631351 -5.3096 0
M  V30 4638 H 427.09 1.54937 -3.86394 0
M  V30 4639 H 427.623 -0.145754 -3.97533 0
M  V30 4640 H 424.362 -2.17147 -6.18488 0
M  V30 4641 H 423.882 -0.471246 -5.97946 0
M  V30 4642 H 425.561 -0.881365 -6.40969 0
M  V30 4643 N 425.693 1.55336 -0.266172 0
M  V30 4644 C 426.942 1.98574 0.353749 0
M  V30 4645 C 427.255 1.15789 1.57646 0
M  V30 4646 O 428.461 1.49129 2.26876 0
M  V30 4647 C 426.917 3.53403 0.680747 0
M  V30 4648 C 426.525 4.44953 -0.52165 0
M  V30 4649 C 428.269 4.05251 1.26379 0
M  V30 4650 C 426.176 5.91156 -0.169736 0
M  V30 4651 H 425.106 0.741643 0.135949 0
M  V30 4652 H 427.757 1.79743 -0.369421 0
M  V30 4653 H 426.139 3.68001 1.46257 0
M  V30 4654 H 427.313 4.42121 -1.29869 0
M  V30 4655 H 425.628 4.03691 -1.02093 0
M  V30 4656 H 428.225 5.12021 1.54074 0
M  V30 4657 H 428.568 3.53749 2.19471 0
M  V30 4658 H 429.101 3.94057 0.544447 0
M  V30 4659 H 425.84 6.46736 -1.0683 0
M  V30 4660 H 425.36 5.97079 0.570717 0
M  V30 4661 H 427.039 6.4655 0.241245 0
M  V30 4662 N 427.171 -0.0066808 1.57599 0
M  V30 4663 C 428.42 -0.692078 1.89455 0
M  V30 4664 C 428.733 -1.75306 0.867586 0
M  V30 4665 O 429.939 -2.49262 1.07614 0
M  V30 4666 C 428.395 -1.2821 3.36289 0
M  V30 4667 C 428.003 -0.256291 4.47266 0
M  V30 4668 C 429.747 -1.94608 3.77264 0
M  V30 4669 C 427.654 -0.855927 5.85173 0
M  V30 4670 H 426.584 -0.262252 0.706923 0
M  V30 4671 H 429.235 0.052769 1.83424 0
M  V30 4672 H 427.617 -2.0774 3.37135 0
M  V30 4673 H 428.791 0.513923 4.57925 0
M  V30 4674 H 427.106 0.306862 4.15268 0
M  V30 4675 H 429.703 -2.40364 4.77629 0
M  V30 4676 H 430.046 -2.77382 3.10427 0
M  V30 4677 H 430.579 -1.21822 3.78688 0
M  V30 4678 H 427.318 -0.0671161 6.55466 0
M  V30 4679 H 426.838 -1.59546 5.78191 0
M  V30 4680 H 428.517 -1.35658 6.32618 0
M  V30 4681 N 428.649 -1.55105 -0.279332 0
M  V30 4682 C 429.877 -1.7943 -1.03017 0
M  V30 4683 C 430.292 -0.564456 -1.80165 0
M  V30 4684 O 429.649 0.466326 -1.76442 0
M  V30 4685 C 429.7 -3.0155 -1.99374 0
M  V30 4686 O 429.421 -4.19784 -1.25352 0
M  V30 4687 C 430.922 -3.3843 -2.86321 0
M  V30 4688 H 428.142 -0.597882 -0.304594 0
M  V30 4689 H 430.686 -2.02105 -0.312035 0
M  V30 4690 H 428.841 -2.81019 -2.66659 0
M  V30 4691 H 429.255 -4.88781 -1.90246 0
M  V30 4692 H 430.729 -4.27066 -3.49741 0
M  V30 4693 H 431.206 -2.57549 -3.5576 0
M  V30 4694 H 431.812 -3.61197 -2.24536 0
M  V30 4695 N 430.127 0.543554 -1.4793 0
M  V30 4696 C 431.375 1.29752 -1.54948 0
M  V30 4697 C 431.696 1.93764 -0.219242 0
M  V30 4698 O 430.966 1.80639 0.75805 0
M  V30 4699 H 429.546 0.481874 -0.570795 0
M  V30 4700 H 432.208 0.633636 -1.84312 0
M  V30 4701 H 431.304 2.08392 -2.32334 0
M  V30 4702 N 431.605 1.3629 0.791371 0
M  V30 4703 C 432.553 1.30514 1.92533 0
M  V30 4704 C 433.547 0.197285 1.68247 0
M  V30 4705 O 434.753 0.364176 1.76278 0
M  V30 4706 H 431.128 0.406263 0.632815 0
M  V30 4707 H 433.099 2.26282 1.94523 0
M  V30 4708 C 431.848 1.10933 3.29529 0
M  V30 4709 H 431.171 1.95427 3.48781 0
M  V30 4710 H 432.611 1.10937 4.0923 0
M  V30 4711 C 431.07 -0.186123 3.36385 0
M  V30 4712 O 431.6 -1.17664 3.84081 0
M  V30 4713 N 429.806 -0.230128 2.89687 0
M  V30 4714 H 429.353 0.576545 2.51065 0
M  V30 4715 H 429.311 -1.09658 2.94657 0
M  V30 4716 N 433.083 -1.0153 1.20538 0
M  V30 4717 C 434.331 -1.74803 1.01432 0
M  V30 4718 C 434.652 -1.8963 -0.454456 0
M  V30 4719 O 433.922 -1.43975 -1.32846 0
M  V30 4720 H 432.502 -0.647598 0.372324 0
M  V30 4721 H 435.164 -1.22402 1.5167 0
M  V30 4722 H 434.26 -2.75114 1.47373 0
M  V30 4723 N 434.561 -1.01147 -1.20859 0
M  V30 4724 C 435.809 -0.696486 -1.89719 0
M  V30 4725 C 436.13 0.775788 -1.78904 0
M  V30 4726 O 435.4 1.55759 -1.18811 0
M  V30 4727 H 433.98 -0.254628 -0.702263 0
M  V30 4728 H 436.642 -1.28197 -1.46804 0
M  V30 4729 H 435.738 -0.975357 -2.96468 0
M  V30 4730 N 436.039 1.36541 -0.78704 0
M  V30 4731 C 437.288 1.98552 -0.35494 0
M  V30 4732 C 437.601 1.63171 1.07864 0
M  V30 4733 O 438.807 2.18399 1.61289 0
M  V30 4734 C 437.263 3.55136 -0.583671 0
M  V30 4735 C 436.871 3.99444 -2.02851 0
M  V30 4736 C 438.615 4.2395 -0.215957 0
M  V30 4737 C 436.522 5.48796 -2.20403 0
M  V30 4738 H 435.452 0.742888 -0.128972 0
M  V30 4739 H 438.103 1.5587 -0.968337 0
M  V30 4740 H 436.485 3.95875 0.0994046 0
M  V30 4741 H 437.659 3.6991 -2.74779 0
M  V30 4742 H 435.974 3.43459 -2.35425 0
M  V30 4743 H 438.571 5.33709 -0.325405 0
M  V30 4744 H 438.914 4.07827 0.835646 0
M  V30 4745 H 439.447 3.88565 -0.852175 0
M  V30 4746 H 436.186 5.69864 -3.23937 0
M  V30 4747 H 435.706 5.79964 -1.52977 0
M  V30 4748 H 437.385 6.14986 -2.01002 0
M  V30 4749 N 437.518 0.538854 1.48102 0
M  V30 4750 C 438.45 -0.256278 2.27763 0
M  V30 4751 C 439.463 -0.89633 1.35904 0
M  V30 4752 O 440.652 -0.773275 1.60881 0
M  V30 4753 C 437.752 -1.37896 3.09577 0
M  V30 4754 C 436.925 -0.839159 4.29275 0
M  V30 4755 C 435.984 -1.84405 4.9283 0
M  V30 4756 O 435.01 -1.39746 5.51779 0
M  V30 4757 N 436.212 -3.17666 4.85869 0
M  V30 4758 H 438.977 0.426968 2.96643 0
M  V30 4759 H 436.538 0.373747 1.57527 0
M  V30 4760 H 438.53 -2.04955 3.48963 0
M  V30 4761 H 437.1 -1.96572 2.4306 0
M  V30 4762 H 436.32 0.00769287 3.94199 0
M  V30 4763 H 437.608 -0.457548 5.06739 0
M  V30 4764 H 437.006 -3.56609 4.39143 0
M  V30 4765 H 435.563 -3.80334 5.29329 0
M  V30 4766 N 438.996 -1.55193 0.274407 0
M  V30 4767 C 440.242 -2.00604 -0.33608 0
M  V30 4768 C 440.597 -1.15948 -1.53538 0
M  V30 4769 O 439.89 -0.221385 -1.90317 0
M  V30 4770 C 440.084 -3.49019 -0.769458 0
M  V30 4771 C 439.913 -4.48038 0.386301 0
M  V30 4772 C 438.683 -4.97757 0.869854 0
M  V30 4773 C 440.881 -4.99558 1.22254 0
M  V30 4774 N 438.863 -5.80575 1.99515 0
M  V30 4775 C 440.234 -5.79816 2.19575 0
M  V30 4776 C 442.289 -4.81799 1.25597 0
M  V30 4777 C 440.992 -6.44208 3.19981 0
M  V30 4778 C 443.018 -5.46989 2.24848 0
M  V30 4779 C 442.38 -6.27058 3.20901 0
M  V30 4780 H 438.479 -0.777013 -0.088172 0
M  V30 4781 H 441.063 -1.90583 0.398266 0
M  V30 4782 H 439.234 -3.59383 -1.47303 0
M  V30 4783 H 440.966 -3.81263 -1.35722 0
M  V30 4784 H 437.721 -4.71464 0.449281 0
M  V30 4785 H 438.145 -6.26675 2.5614 0
M  V30 4786 H 442.787 -4.19501 0.527158 0
M  V30 4787 H 440.505 -7.05656 3.93796 0
M  V30 4788 H 444.091 -5.35189 2.28174 0
M  V30 4789 H 442.971 -6.7661 3.96445 0
M  V30 4790 N 440.474 -0.00167713 -1.576 0
M  V30 4791 C 441.699 0.69739 -1.95323 0
M  V30 4792 C 442.124 1.6642 -0.876706 0
M  V30 4793 O 441.482 1.80548 0.165007 0
M  V30 4794 C 441.53 1.40403 -3.32144 0
M  V30 4795 O 440.634 2.5185 -3.26566 0
M  V30 4796 H 439.975 0.185373 -0.637599 0
M  V30 4797 H 442.505 -0.0553665 -2.04525 0
M  V30 4798 H 442.515 1.76707 -3.67748 0
M  V30 4799 H 441.19 0.695167 -4.10049 0
M  V30 4800 H 439.767 2.17861 -3.0264 0
M  V30 4801 N 441.952 1.55251 0.271103 0
M  V30 4802 C 443.368 1.47133 0.618393 0
M  V30 4803 C 443.568 0.686994 1.89427 0
M  V30 4804 O 442.624 0.206609 2.51653 0
M  V30 4805 C 443.937 2.91361 0.743593 0
M  V30 4806 C 445.485 3.01587 0.837522 0
M  V30 4807 C 445.96 4.47073 0.994483 0
M  V30 4808 N 447.451 4.50909 1.05996 0
M  V30 4809 C 448.186 5.60698 1.20024 0
M  V30 4810 N 447.682 6.80348 1.30759 0
M  V30 4811 N 449.475 5.48444 1.23149 0
M  V30 4812 H 441.626 2.04698 -0.566784 0
M  V30 4813 H 443.889 0.928319 -0.192165 0
M  V30 4814 H 443.595 3.51483 -0.123493 0
M  V30 4815 H 443.469 3.40484 1.62328 0
M  V30 4816 H 445.856 2.4156 1.69507 0
M  V30 4817 H 445.937 2.55713 -0.0668086 0
M  V30 4818 H 445.581 5.07703 0.141582 0
M  V30 4819 H 445.511 4.90605 1.91349 0
M  V30 4820 H 448.002 3.6472 0.989316 0
M  V30 4821 H 448.315 7.59772 1.41303 0
M  V30 4822 H 446.66 6.83156 1.27761 0
M  V30 4823 H 449.851 4.53907 1.14394 0
M  V30 4824 H 450.024 6.34049 1.33738 0
M  V30 4825 N 443.43 -0.535701 1.48216 0
M  V30 4826 C 444.678 -1.28928 1.55634 0
M  V30 4827 C 444.999 -1.93645 0.229514 0
M  V30 4828 O 444.269 -1.81038 -0.74846 0
M  V30 4829 H 442.849 -0.47884 0.573342 0
M  V30 4830 H 445.511 -0.623853 1.84646 0
M  V30 4831 H 444.607 -2.07157 2.33436 0
M  V30 4832 N 444.908 -1.36708 -0.784132 0
M  V30 4833 C 445.855 -1.31466 -1.89698 0
M  V30 4834 C 446.825 -0.18239 -1.65096 0
M  V30 4835 O 448.01 -0.369762 -1.87183 0
M  V30 4836 C 445.15 -1.1151 -3.26588 0
M  V30 4837 C 444.263 -2.33859 -3.63227 0
M  V30 4838 C 443.398 -2.06873 -4.89262 0
M  V30 4839 C 442.437 -3.25154 -5.18595 0
M  V30 4840 N 441.574 -2.978 -6.35814 0
M  V30 4841 H 446.414 -2.26619 -1.93515 0
M  V30 4842 H 443.951 -1.12625 -0.946256 0
M  V30 4843 H 445.909 -0.979653 -4.05535 0
M  V30 4844 H 444.539 -0.200103 -3.22179 0
M  V30 4845 H 443.591 -2.58188 -2.79362 0
M  V30 4846 H 444.903 -3.22109 -3.8085 0
M  V30 4847 H 444.057 -1.90289 -5.76086 0
M  V30 4848 H 442.796 -1.15942 -4.73718 0
M  V30 4849 H 441.801 -3.42292 -4.30251 0
M  V30 4850 H 443.026 -4.1692 -5.36055 0
M  V30 4851 H 440.972 -2.09485 -6.21653 0
M  V30 4852 H 440.889 -3.7959 -6.53794 0
M  V30 4853 H 442.157 -2.84805 -7.25607 0
M  V30 4854 N 446.386 1.0089 -1.21074 0
M  V30 4855 C 447.336 2.0799 -0.934034 0
M  V30 4856 C 448.32 1.60529 0.10919 0
M  V30 4857 O 449.512 1.76722 -0.0992198 0
M  V30 4858 C 446.641 3.39693 -0.496334 0
M  V30 4859 C 445.727 3.93833 -1.57341 0
M  V30 4860 N 446.118 4.21388 -2.7976 0
M  V30 4861 C 444.416 4.22067 -1.44137 0
M  V30 4862 C 445.117 4.65156 -3.49292 0
M  V30 4863 N 444.093 4.67895 -2.76722 0
M  V30 4864 H 447.895 2.27213 -1.86417 0
M  V30 4865 H 445.409 1.18927 -1.10589 0
M  V30 4866 H 447.406 4.15962 -0.279471 0
M  V30 4867 H 446.066 3.21879 0.427084 0
M  V30 4868 H 447.077 4.10061 -3.1634 0
M  V30 4869 H 443.754 4.1341 -0.582947 0
M  V30 4870 H 445.144 4.95231 -4.54088 0
M  V30 4871 N 447.864 1.01787 1.20321 0
M  V30 4872 C 448.811 0.589197 2.23153 0
M  V30 4873 C 449.781 -0.391367 1.61423 0
M  V30 4874 O 450.966 -0.290518 1.88575 0
M  V30 4875 C 448.106 -0.0650747 3.45039 0
M  V30 4876 C 447.219 0.960207 4.21194 0
M  V30 4877 C 446.354 0.276854 5.30478 0
M  V30 4878 C 445.393 1.2888 5.98378 0
M  V30 4879 N 444.53 0.632031 6.99249 0
M  V30 4880 H 449.37 1.47071 2.59179 0
M  V30 4881 H 446.907 0.736192 1.27352 0
M  V30 4882 H 448.865 -0.461552 4.14639 0
M  V30 4883 H 447.495 -0.910233 3.09701 0
M  V30 4884 H 446.547 1.47484 3.50646 0
M  V30 4885 H 447.859 1.72977 4.67847 0
M  V30 4886 H 447.013 -0.175056 6.06447 0
M  V30 4887 H 445.752 -0.525004 4.84866 0
M  V30 4888 H 444.757 1.75109 5.21169 0
M  V30 4889 H 445.982 2.09196 6.46076 0
M  V30 4890 H 443.928 -0.149935 6.55829 0
M  V30 4891 H 443.845 1.33964 7.44036 0
M  V30 4892 H 445.113 0.203755 7.79234 0
M  V30 4893 N 449.342 -1.36122 0.79427 0
M  V30 4894 C 450.252 -2.33769 0.197296 0
M  V30 4895 C 451.268 -1.61276 -0.653153 0
M  V30 4896 O 452.444 -1.9323 -0.5678 0
M  V30 4897 C 449.509 -3.40474 -0.654098 0
M  V30 4898 C 448.57 -4.28759 0.215411 0
M  V30 4899 C 447.803 -5.30368 -0.595443 0
M  V30 4900 O 448.026 -5.40211 -1.83107 0
M  V30 4901 O 446.96 -6.019 0.00721351 0
M  V30 4902 H 450.786 -2.86597 1.00478 0
M  V30 4903 H 448.371 -1.38676 0.555818 0
M  V30 4904 H 450.253 -4.05703 -1.13944 0
M  V30 4905 H 448.928 -2.89937 -1.43938 0
M  V30 4906 H 447.835 -3.66554 0.747615 0
M  V30 4907 H 449.168 -4.82661 0.964332 0
M  V30 4908 N 450.82 -0.546701 -1.47814 0
M  V30 4909 C 452.045 -0.021268 -2.07389 0
M  V30 4910 C 452.47 1.25822 -1.39822 0
M  V30 4911 O 451.828 1.75111 -0.46968 0
M  V30 4912 C 451.876 0.168502 -3.60206 0
M  V30 4913 O 450.98 1.23347 -3.93522 0
M  V30 4914 H 450.321 -0.0466108 -0.662362 0
M  V30 4915 H 452.851 -0.759387 -1.89985 0
M  V30 4916 H 452.861 0.385982 -4.0617 0
M  V30 4917 H 451.536 -0.766075 -4.08784 0
M  V30 4918 H 450.113 0.997319 -3.59316 0
M  V30 4919 N 452.299 1.55045 -0.282633 0
M  V30 4920 C 453.209 2.26491 0.61147 0
M  V30 4921 C 454.225 1.29348 1.16384 0
M  V30 4922 O 455.401 1.62298 1.19253 0
M  V30 4923 C 452.466 2.97779 1.77563 0
M  V30 4924 C 451.527 4.10418 1.25919 0
M  V30 4925 C 450.76 4.78297 2.36786 0
M  V30 4926 O 450.983 4.45426 3.56303 0
M  V30 4927 O 449.917 5.66089 2.04517 0
M  V30 4928 H 453.743 3.03683 0.0324615 0
M  V30 4929 H 451.328 1.49317 -0.0497576 0
M  V30 4930 H 453.21 3.42554 2.45427 0
M  V30 4931 H 451.885 2.23498 2.34159 0
M  V30 4932 H 450.792 3.70082 0.546797 0
M  V30 4933 H 452.125 4.86622 0.738887 0
M  V30 4934 N 453.777 0.010035 1.57597 0
M  V30 4935 C 455.005 -0.683413 1.95287 0
M  V30 4936 C 455.42 -1.66747 0.885481 0
M  V30 4937 O 454.777 -1.82003 -0.134629 0
M  V30 4938 C 454.828 -1.40652 3.33015 0
M  V30 4939 O 454.549 -0.461916 4.35658 0
M  V30 4940 C 456.05 -2.19356 3.85225 0
M  V30 4941 H 453.27 -0.189708 0.643624 0
M  V30 4942 H 455.814 0.0641359 2.04399 0
M  V30 4943 H 453.969 -2.10562 3.2518 0
M  V30 4944 H 454.383 -0.973215 5.15392 0
M  V30 4945 H 455.857 -2.65433 4.83993 0
M  V30 4946 H 456.334 -3.02457 3.18459 0
M  V30 4947 H 456.94 -1.54442 3.96267 0
M  V30 4948 N 455.255 -1.55392 -0.262866 0
M  V30 4949 C 456.185 -1.91978 -1.32917 0
M  V30 4950 C 457.166 -0.7828 -1.51017 0
M  V30 4951 O 458.351 -1.04178 -1.63892 0
M  V30 4952 C 455.481 -2.20055 -2.68687 0
M  V30 4953 C 454.435 -3.35854 -2.65304 0
M  V30 4954 C 453.761 -3.49435 -4.04721 0
M  V30 4955 C 455.061 -4.71977 -2.23685 0
M  V30 4956 H 456.755 -2.81292 -1.02544 0
M  V30 4957 H 454.301 -1.3534 -0.491846 0
M  V30 4958 H 456.254 -2.44237 -3.43404 0
M  V30 4959 H 454.978 -1.27551 -3.00663 0
M  V30 4960 H 453.637 -3.11655 -1.93045 0
M  V30 4961 H 453.285 -2.54379 -4.33936 0
M  V30 4962 H 452.985 -4.27297 -4.0335 0
M  V30 4963 H 454.509 -3.7592 -4.81161 0
M  V30 4964 H 455.923 -4.95637 -2.88127 0
M  V30 4965 H 454.32 -5.52828 -2.33456 0
M  V30 4966 H 455.39 -4.70115 -1.18827 0
M  V30 4967 N 456.733 0.527833 -1.48498 0
M  V30 4968 C 457.961 1.30823 -1.6029 0
M  V30 4969 C 458.376 1.86945 -0.263974 0
M  V30 4970 O 457.733 1.6651 0.747034 0
M  V30 4971 C 457.784 2.45756 -2.65116 0
M  V30 4972 O 457.505 1.91946 -3.93813 0
M  V30 4973 C 459.006 3.37543 -2.87367 0
M  V30 4974 H 456.226 0.397763 -0.540394 0
M  V30 4975 H 458.77 0.636529 -1.94341 0
M  V30 4976 H 456.925 3.08806 -2.33917 0
M  V30 4977 H 457.339 2.67195 -4.51339 0
M  V30 4978 H 458.813 4.14532 -3.6451 0
M  V30 4979 H 459.29 3.92905 -1.9627 0
M  V30 4980 H 459.896 2.80283 -3.19878 0
M  V30 4981 N 458.211 1.37122 0.776871 0
M  V30 4982 C 459.121 1.34651 1.9211 0
M  V30 4983 C 460.137 0.246824 1.7224 0
M  V30 4984 O 461.313 0.48134 1.95563 0
M  V30 4985 C 458.378 1.14748 3.2716 0
M  V30 4986 C 457.439 2.34308 3.5972 0
M  V30 4987 C 456.672 2.15345 4.88326 0
M  V30 4988 O 456.895 1.13507 5.58992 0
M  V30 4989 O 455.829 3.03414 5.1983 0
M  V30 4990 H 459.655 2.31013 1.97146 0
M  V30 4991 H 457.24 1.17799 0.918901 0
M  V30 4992 H 459.122 1.05616 4.0795 0
M  V30 4993 H 457.797 0.214562 3.22988 0
M  V30 4994 H 456.704 2.49011 2.79185 0
M  V30 4995 H 458.037 3.26149 3.68629 0
M  V30 4996 N 459.689 -1.00246 1.21608 0
M  V30 4997 C 460.621 -2.09244 0.935401 0
M  V30 4998 C 461.634 -1.62592 -0.0823594 0
M  V30 4999 O 462.823 -1.77865 0.150456 0
M  V30 5000 C 459.923 -3.36724 0.383453 0
M  V30 5001 C 459.096 -4.1245 1.45615 0
M  V30 5002 C 458.155 -5.18219 0.912991 0
M  V30 5003 O 457.181 -5.46337 1.59701 0
M  V30 5004 N 458.383 -5.7987 -0.270478 0
M  V30 5005 H 461.148 -2.33905 1.87373 0
M  V30 5006 H 458.709 -1.16748 1.12167 0
M  V30 5007 H 460.701 -4.047 0.00562157 0
M  V30 5008 H 459.271 -3.09201 -0.459758 0
M  V30 5009 H 458.491 -3.39241 2.00772 0
M  V30 5010 H 459.779 -4.59819 2.17817 0
M  V30 5011 H 459.177 -5.59381 -0.843195 0
M  V30 5012 H 457.734 -6.49126 -0.589794 0
M  V30 5013 N 461.167 -1.02423 -1.1978 0
M  V30 5014 C 462.444 -0.632802 -1.85081 0
M  V30 5015 C 462.824 0.888745 -1.9148 0
M  V30 5016 O 462.172 1.78357 -1.42832 0
M  V30 5017 C 462.382 -1.28947 -3.24305 0
M  V30 5018 C 463.73 -1.40976 -4.00513 0
M  V30 5019 O 464.754 -1.24628 -3.33686 0
M  V30 5020 O 463.613 -1.67467 -5.20209 0
M  V30 5021 H 460.707 -0.219348 -0.79738 0
M  V30 5022 H 463.253 -1.12209 -1.27307 0
M  V30 5023 H 462.025 -2.3288 -3.14456 0
M  V30 5024 H 461.648 -0.787748 -3.89718 0
M  V30 5025 N 462.645 1.35699 -0.801477 0
M  V30 5026 C 463.575 2.32436 -0.222658 0
M  V30 5027 C 464.556 1.5723 0.649057 0
M  V30 5028 O 465.741 1.85324 0.580387 0
M  V30 5029 C 462.871 3.41469 0.633719 0
M  V30 5030 C 461.825 4.27774 -0.139083 0
M  V30 5031 C 461.151 5.28082 0.838666 0
M  V30 5032 C 462.451 5.04946 -1.33517 0
M  V30 5033 H 464.145 2.81094 -1.03086 0
M  V30 5034 H 461.691 1.35146 -0.497155 0
M  V30 5035 H 463.644 4.08143 1.04868 0
M  V30 5036 H 462.368 2.91408 1.47475 0
M  V30 5037 H 461.027 3.62673 -0.535156 0
M  V30 5038 H 460.675 4.7429 1.67506 0
M  V30 5039 H 460.375 5.86695 0.32594 0
M  V30 5040 H 461.899 5.97628 1.25194 0
M  V30 5041 H 463.313 5.64593 -0.995349 0
M  V30 5042 H 461.71 5.7303 -1.78202 0
M  V30 5043 H 462.78 4.35886 -2.12442 0
M  V30 5044 N 464.123 0.554532 1.47522 0
M  V30 5045 C 465.055 -0.232106 2.28022 0
M  V30 5046 C 466.068 -0.881865 1.36847 0
M  V30 5047 O 467.257 -0.756168 1.61692 0
M  V30 5048 C 464.357 -1.34604 3.11022 0
M  V30 5049 C 463.53 -0.793582 4.30141 0
M  V30 5050 C 462.589 -1.79168 4.94758 0
M  V30 5051 O 461.615 -1.33886 5.5323 0
M  V30 5052 N 462.817 -3.12495 4.89211 0
M  V30 5053 H 465.582 0.458407 2.96173 0
M  V30 5054 H 463.143 0.390433 1.57122 0
M  V30 5055 H 465.135 -2.01243 3.51118 0
M  V30 5056 H 463.705 -1.93983 2.45131 0
M  V30 5057 H 462.925 0.0495025 3.94169 0
M  V30 5058 H 464.213 -0.403776 5.07195 0
M  V30 5059 H 463.611 -3.51931 4.42901 0
M  V30 5060 H 462.168 -3.74698 5.33333 0
M  V30 5061 N 465.601 -1.54893 0.290851 0
M  V30 5062 C 466.531 -2.26103 -0.583084 0
M  V30 5063 C 467.512 -1.25684 -1.14619 0
M  V30 5064 O 468.697 -1.54436 -1.17741 0
M  V30 5065 C 465.827 -2.99409 -1.75987 0
M  V30 5066 C 464.781 -4.0689 -1.32758 0
M  V30 5067 C 464.107 -4.67856 -2.58872 0
M  V30 5068 C 465.407 -5.20215 -0.46624 0
M  V30 5069 H 467.101 -2.99398 0.0108214 0
M  V30 5070 H 464.647 -1.43998 0.00664468 0
M  V30 5071 H 466.6 -3.47943 -2.37727 0
M  V30 5072 H 465.324 -2.23675 -2.37985 0
M  V30 5073 H 463.983 -3.59191 -0.733299 0
M  V30 5074 H 463.631 -3.88772 -3.19163 0
M  V30 5075 H 463.331 -5.40438 -2.30653 0
M  V30 5076 H 464.855 -5.19147 -3.21433 0
M  V30 5077 H 466.269 -5.64704 -0.989047 0
M  V30 5078 H 464.666 -5.99455 -0.27826 0
M  V30 5079 H 465.736 -4.82198 0.511173 0
M  V30 5080 N 467.08 -0.0183926 -1.57589 0
M  V30 5081 C 468.31 0.67207 -1.95363 0
M  V30 5082 C 468.718 1.66807 -0.892872 0
M  V30 5083 O 468.061 1.83204 0.134958 0
M  V30 5084 C 468.123 1.44397 -3.29226 0
M  V30 5085 C 467.787 0.607511 -4.52944 0
M  V30 5086 C 468.784 -0.112657 -5.19778 0
M  V30 5087 C 466.469 0.548068 -4.99301 0
M  V30 5088 C 468.463 -0.881057 -6.31281 0
M  V30 5089 C 466.15 -0.224044 -6.10689 0
M  V30 5090 C 467.148 -0.937323 -6.76538 0
M  V30 5091 O 466.836 -1.6968 -7.85789 0
M  V30 5092 H 466.568 0.190925 -0.648478 0
M  V30 5093 H 469.122 -0.0711994 -2.05277 0
M  V30 5094 H 467.352 2.23214 -3.15773 0
M  V30 5095 H 469.041 2.02152 -3.51979 0
M  V30 5096 H 469.807 -0.0759998 -4.8494 0
M  V30 5097 H 465.686 1.09281 -4.4786 0
M  V30 5098 H 469.23 -1.43832 -6.82611 0
M  V30 5099 H 465.127 -0.262457 -6.44966 0
M  V30 5100 H 465.895 -1.61544 -8.024 0
M  V30 5101 N 468.558 1.5553 0.254621 0
M  V30 5102 C 469.798 1.7876 0.991179 0
M  V30 5103 C 470.162 0.586669 1.82817 0
M  V30 5104 O 471.363 0.697585 2.5959 0
M  V30 5105 C 469.634 3.06679 1.83529 0
M  V30 5106 S 471.193 3.511 2.632 0
M  V30 5107 H 468.011 0.627916 0.333531 0
M  V30 5108 H 470.613 1.93766 0.259778 0
M  V30 5109 H 469.317 3.92158 1.20996 0
M  V30 5110 H 468.848 2.94388 2.60958 0
M  V30 5111 H 470.863 3.11823 3.8598 0
M  V30 5112 N 470.036 -0.519951 1.48776 0
M  V30 5113 C 471.313 -1.28123 1.47797 0
M  V30 5114 C 471.693 -2.10196 0.195157 0
M  V30 5115 O 471.041 -2.13167 -0.822925 0
M  V30 5116 C 471.251 -2.15413 2.74587 0
M  V30 5117 C 472.599 -2.75225 3.23321 0
M  V30 5118 O 473.623 -2.25694 2.75574 0
M  V30 5119 O 472.482 -3.65346 4.06429 0
M  V30 5120 H 469.576 -0.578793 0.590701 0
M  V30 5121 H 472.122 -0.535779 1.6102 0
M  V30 5122 H 470.894 -1.54617 3.59457 0
M  V30 5123 H 470.517 -2.97186 2.64132 0
M  V30 5124 N 471.514 -1.37532 -0.769588 0
M  V30 5125 C 472.761 -1.3286 -1.52822 0
M  V30 5126 C 473.089 0.0862597 -1.94309 0
M  V30 5127 O 472.344 1.05995 -1.6451 0
M  V30 5128 C 472.643 -2.21558 -2.8044 0
M  V30 5129 C 472.309 -3.69796 -2.57996 0
M  V30 5130 C 470.971 -4.10194 -2.51583 0
M  V30 5131 C 473.323 -4.63699 -2.37976 0
M  V30 5132 C 470.651 -5.42608 -2.23144 0
M  V30 5133 C 473.003 -5.96353 -2.1106 0
M  V30 5134 C 471.667 -6.35853 -2.03093 0
M  V30 5135 H 470.937 -0.486168 -0.559215 0
M  V30 5136 H 473.584 -1.69757 -0.886277 0
M  V30 5137 H 471.889 -1.77663 -3.49204 0
M  V30 5138 H 473.586 -2.15256 -3.38328 0
M  V30 5139 H 470.176 -3.37759 -2.63851 0
M  V30 5140 H 474.36 -4.33346 -2.41919 0
M  V30 5141 H 469.616 -5.72173 -2.15472 0
M  V30 5142 H 473.79 -6.68667 -1.94568 0
M  V30 5143 H 471.417 -7.38382 -1.8082 0
M  V30 5144 N 472.992 0.995999 -1.22138 0
M  V30 5145 C 474.403 1.54961 -1.04135 0
M  V30 5146 C 474.754 1.92159 0.396147 0
M  V30 5147 O 473.879 1.74435 1.28069 0
M  V30 5148 C 474.474 2.81581 -1.88408 0
M  V30 5149 C 473.033 3.33396 -1.74712 0
M  V30 5150 C 472.18 2.06509 -1.85066 0
M  V30 5151 H 475.131 0.817436 -1.36028 0
M  V30 5152 H 475.152 3.53822 -1.39966 0
M  V30 5153 H 474.664 2.54476 -2.93025 0
M  V30 5154 H 472.765 3.65416 -0.728159 0
M  V30 5155 H 472.878 4.04208 -2.57202 0
M  V30 5156 H 471.242 2.19925 -1.28472 0
M  V30 5157 H 472.025 1.81804 -2.91208 0
M  V30 5158 N 474.47 1.03057 1.19235 0
M  V30 5159 C 475.418 0.606391 2.24557 0
M  V30 5160 C 476.412 -0.361826 1.65491 0
M  V30 5161 O 477.618 -0.23022 1.78522 0
M  V30 5162 H 473.993 0.177838 0.730669 0
M  V30 5163 H 475.964 1.50529 2.5765 0
M  V30 5164 C 474.713 -0.0252127 3.47691 0
M  V30 5165 H 474.036 0.710838 3.9343 0
M  V30 5166 H 475.476 -0.284931 4.23042 0
M  V30 5167 C 473.935 -1.27229 3.11953 0
M  V30 5168 O 474.465 -2.36416 3.24762 0
M  V30 5169 N 472.671 -1.16169 2.6637 0
M  V30 5170 H 472.218 -0.273189 2.56147 0
M  V30 5171 H 472.176 -1.99703 2.42829 0
M  V30 5172 N 475.948 -1.35272 0.808662 0
M  V30 5173 C 477.197 -1.97963 0.386483 0
M  V30 5174 C 477.51 -1.64866 -1.05255 0
M  V30 5175 O 478.716 -2.20937 -1.57794 0
M  V30 5176 C 477.172 -3.54162 0.640096 0
M  V30 5177 C 476.78 -3.96166 2.0918 0
M  V30 5178 C 478.524 -4.23553 0.283376 0
M  V30 5179 C 476.431 -5.4522 2.29106 0
M  V30 5180 H 475.361 -0.740742 0.140774 0
M  V30 5181 H 478.012 -1.5431 0.993012 0
M  V30 5182 H 476.394 -3.95983 -0.0364117 0
M  V30 5183 H 477.568 -3.65491 2.80629 0
M  V30 5184 H 475.883 -3.3967 2.40859 0
M  V30 5185 H 478.48 -5.33124 0.410273 0
M  V30 5186 H 478.823 -4.09105 -0.770659 0
M  V30 5187 H 479.356 -3.8716 0.913884 0
M  V30 5188 H 476.095 -5.64638 3.32962 0
M  V30 5189 H 475.615 -5.77457 1.62184 0
M  V30 5190 H 477.294 -6.1171 2.1076 0
M  V30 5191 N 477.426 -0.562348 -1.47226 0
M  V30 5192 C 478.675 -0.038041 -2.01664 0
M  V30 5193 C 478.988 1.32199 -1.44162 0
M  V30 5194 O 480.194 1.9365 -1.90294 0
M  V30 5195 C 478.65 -0.0174958 -3.59896 0
M  V30 5196 C 478.258 -1.3746 -4.2639 0
M  V30 5197 C 480.002 0.453934 -4.22066 0
M  V30 5198 C 477.909 -1.31289 -5.76643 0
M  V30 5199 H 476.839 -0.0104511 -0.753928 0
M  V30 5200 H 479.49 -0.710966 -1.69167 0
M  V30 5201 H 477.872 0.721182 -3.89378 0
M  V30 5202 H 479.046 -2.1314 -4.08544 0
M  V30 5203 H 477.361 -1.78438 -3.7623 0
M  V30 5204 H 479.958 0.518584 -5.32179 0
M  V30 5205 H 480.301 1.46706 -3.89594 0
M  V30 5206 H 480.834 -0.230044 -3.97134 0
M  V30 5207 H 477.573 -2.30217 -6.13743 0
M  V30 5208 H 477.093 -0.597973 -5.96812 0
M  V30 5209 H 478.772 -1.01713 -6.38955 0
M  V30 5210 N 478.904 1.54736 -0.299062 0
M  V30 5211 C 480.181 1.92187 0.363802 0
M  V30 5212 C 480.561 1.22607 1.71845 0
M  V30 5213 O 479.909 0.361141 2.25628 0
M  V30 5214 C 480.119 3.45678 0.480377 0
M  V30 5215 C 481.467 4.17885 0.752147 0
M  V30 5216 O 482.491 3.51702 0.564264 0
M  V30 5217 O 481.35 5.35048 1.11294 0
M  V30 5218 H 478.444 0.801681 0.203066 0
M  V30 5219 H 480.99 1.66115 -0.346978 0
M  V30 5220 H 479.762 3.88443 -0.471999 0
M  V30 5221 H 479.385 3.77779 1.2397 0
M  V30 5222 N 480.382 0.0267497 1.57577 0
M  V30 5223 C 481.628 -0.653371 1.91987 0
M  V30 5224 C 481.961 -1.71915 0.903263 0
M  V30 5225 O 481.236 -1.94358 -0.0743387 0
M  V30 5226 C 481.519 -1.272 3.36886 0
M  V30 5227 C 481.372 -0.215938 4.49281 0
M  V30 5228 C 482.691 -2.19069 3.81703 0
M  V30 5229 H 479.81 -0.236047 0.698177 0
M  V30 5230 H 482.452 0.0835236 1.89816 0
M  V30 5231 H 480.602 -1.90005 3.38866 0
M  V30 5232 H 482.274 0.41449 4.59434 0
M  V30 5233 H 480.517 0.458855 4.31366 0
M  V30 5234 H 481.188 -0.688347 5.47691 0
M  V30 5235 H 483.664 -1.66253 3.81444 0
M  V30 5236 H 482.54 -2.59307 4.83788 0
M  V30 5237 H 482.801 -3.08087 3.17072 0
M  V30 5238 N 481.861 -1.55662 -0.24637 0
M  V30 5239 C 483.086 -1.81914 -0.996093 0
M  V30 5240 C 483.511 -0.603875 -1.78143 0
M  V30 5241 O 482.869 0.447091 -1.75701 0
M  V30 5242 C 482.917 -3.05908 -1.90925 0
M  V30 5243 O 482.021 -2.82861 -3.00105 0
M  V30 5244 H 481.362 -0.600481 -0.283406 0
M  V30 5245 H 483.892 -2.02848 -0.267199 0
M  V30 5246 H 483.902 -3.35356 -2.3238 0
M  V30 5247 H 482.577 -3.93999 -1.33183 0
M  V30 5248 H 481.154 -2.64583 -2.62775 0
M  V30 5249 N 483.339 0.512053 -1.4905 0
M  V30 5250 C 484.588 1.26343 -1.57227 0
M  V30 5251 C 484.901 1.93876 -0.259155 0
M  V30 5252 O 486.107 2.70612 -0.219358 0
M  V30 5253 C 484.563 2.29343 -2.77362 0
M  V30 5254 C 484.171 1.67799 -4.15388 0
M  V30 5255 C 485.915 3.05378 -2.94864 0
M  V30 5256 C 483.822 2.68845 -5.2676 0
M  V30 5257 H 482.752 0.475231 -0.585382 0
M  V30 5258 H 485.403 0.53862 -1.75417 0
M  V30 5259 H 483.785 3.04938 -2.52643 0
M  V30 5260 H 484.959 0.982715 -4.50199 0
M  V30 5261 H 483.274 1.04194 -4.03153 0
M  V30 5262 H 485.871 3.80921 -3.75238 0
M  V30 5263 H 486.214 3.62327 -2.05 0
M  V30 5264 H 486.747 2.36898 -3.19569 0
M  V30 5265 H 483.486 2.16692 -6.18647 0
M  V30 5266 H 483.006 3.36647 -4.96416 0
M  V30 5267 H 484.685 3.31487 -5.5563 0
M  V30 5268 N 484.817 1.37938 0.762283 0
M  V30 5269 C 485.764 1.34467 1.87583 0
M  V30 5270 C 486.734 0.208633 1.64785 0
M  V30 5271 O 487.919 0.399494 1.86571 0
M  V30 5272 C 485.059 1.16692 3.24772 0
M  V30 5273 C 484.172 2.39608 3.59461 0
M  V30 5274 C 483.307 2.14631 4.85908 0
M  V30 5275 C 482.346 3.33364 5.13357 0
M  V30 5276 N 481.483 3.07877 6.30996 0
M  V30 5277 H 486.323 2.29669 1.89885 0
M  V30 5278 H 483.86 1.14116 0.928219 0
M  V30 5279 H 485.818 1.04405 4.03925 0
M  V30 5280 H 484.448 0.251333 3.2182 0
M  V30 5281 H 483.5 2.626 2.75219 0
M  V30 5282 H 484.812 3.28128 3.75678 0
M  V30 5283 H 483.966 1.99429 5.72986 0
M  V30 5284 H 482.705 1.23463 4.71814 0
M  V30 5285 H 481.71 3.49094 4.24751 0
M  V30 5286 H 482.935 4.25395 5.29354 0
M  V30 5287 H 480.881 2.19348 6.18241 0
M  V30 5288 H 480.798 3.89944 6.47673 0
M  V30 5289 H 482.066 2.96313 7.20985 0
M  V30 5290 N 486.295 -0.989507 1.22664 0
M  V30 5291 C 487.227 -2.0824 0.957542 0
M  V30 5292 C 488.24 -1.6267 -0.0651098 0
M  V30 5293 O 489.429 -1.77695 0.169312 0
M  V30 5294 C 486.529 -3.36298 0.419145 0
M  V30 5295 C 485.702 -4.10882 1.49982 0
M  V30 5296 C 484.761 -5.17221 0.967904 0
M  V30 5297 O 483.787 -5.44613 1.65487 0
M  V30 5298 N 484.989 -5.80124 -0.20896 0
M  V30 5299 H 487.754 -2.31904 1.89843 0
M  V30 5300 H 485.315 -1.15552 1.13399 0
M  V30 5301 H 487.307 -4.04671 0.0485451 0
M  V30 5302 H 485.877 -3.09671 -0.426937 0
M  V30 5303 H 485.097 -3.37092 2.04359 0
M  V30 5304 H 486.385 -4.57482 2.22682 0
M  V30 5305 H 485.783 -5.60244 -0.783818 0
M  V30 5306 H 484.34 -6.49715 -0.520913 0
M  V30 5307 N 487.773 -1.03688 -1.18687 0
M  V30 5308 C 488.736 -0.629115 -2.20397 0
M  V30 5309 C 489.736 0.311495 -1.57754 0
M  V30 5310 O 490.926 0.0974107 -1.73927 0
M  V30 5311 C 488.058 0.0782231 -3.4081 0
M  V30 5312 H 489.251 -1.52915 -2.57987 0
M  V30 5313 H 486.804 -0.828988 -1.32505 0
M  V30 5314 H 487.539 0.992233 -3.08748 0
M  V30 5315 H 487.324 -0.597776 -3.87517 0
M  V30 5316 H 488.814 0.350156 -4.16129 0
M  V30 5317 N 489.251 1.34841 -0.815825 0
M  V30 5318 C 490.199 2.31549 -0.220888 0
M  V30 5319 C 491.193 1.5707 0.634457 0
M  V30 5320 O 492.399 1.72125 0.526589 0
M  V30 5321 H 488.774 0.750153 -0.0526782 0
M  V30 5322 H 490.745 2.7926 -1.05149 0
M  V30 5323 C 489.494 3.42335 0.608427 0
M  V30 5324 H 488.817 3.9978 -0.0404121 0
M  V30 5325 H 490.257 4.12258 0.990931 0
M  V30 5326 C 488.716 2.86173 1.77782 0
M  V30 5327 O 489.246 2.80474 2.87571 0
M  V30 5328 N 487.452 2.43093 1.59229 0
M  V30 5329 H 486.999 2.47928 0.699237 0
M  V30 5330 H 486.957 2.05866 2.37627 0
M  V30 5331 N 490.729 0.570148 1.46925 0
M  V30 5332 C 491.661 -0.207909 2.28255 0
M  V30 5333 C 492.674 -0.867301 1.37774 0
M  V30 5334 O 493.863 -0.738976 1.62485 0
M  V30 5335 C 490.963 -1.31298 3.12433 0
M  V30 5336 C 490.136 -0.747915 4.30958 0
M  V30 5337 C 489.195 -1.7391 4.9663 0
M  V30 5338 O 488.221 -1.2801 5.54619 0
M  V30 5339 N 489.423 -3.07288 4.92498 0
M  V30 5340 H 492.188 0.489794 2.95671 0
M  V30 5341 H 489.749 0.407076 1.56699 0
M  V30 5342 H 491.741 -1.97507 3.53232 0
M  V30 5343 H 490.311 -1.91373 2.47175 0
M  V30 5344 H 489.531 0.0913066 3.94094 0
M  V30 5345 H 490.819 -0.349958 5.07595 0
M  V30 5346 H 490.217 -3.47213 4.46609 0
M  V30 5347 H 488.774 -3.69021 5.37277 0
M  V30 5348 N 492.207 -1.54576 0.307264 0
M  V30 5349 C 493.117 -2.27435 -0.57536 0
M  V30 5350 C 494.133 -1.31183 -1.14311 0
M  V30 5351 O 495.309 -1.64175 -1.16656 0
M  V30 5352 C 492.374 -3.00566 -1.72803 0
M  V30 5353 C 491.435 -4.12369 -1.19373 0
M  V30 5354 C 490.668 -4.82003 -2.29147 0
M  V30 5355 O 490.891 -4.51038 -3.49171 0
M  V30 5356 O 489.825 -5.69271 -1.95485 0
M  V30 5357 H 493.651 -3.03696 0.0158558 0
M  V30 5358 H 491.236 -1.49219 0.0735064 0
M  V30 5359 H 493.118 -3.46416 -2.39946 0
M  V30 5360 H 491.793 -2.27195 -2.30574 0
M  V30 5361 H 490.7 -3.70905 -0.487851 0
M  V30 5362 H 492.033 -4.87736 -0.661376 0
M  V30 5363 N 493.685 -0.035106 -1.57561 0
M  V30 5364 C 494.933 0.64096 -1.91667 0
M  V30 5365 C 495.254 1.72323 -0.912681 0
M  V30 5366 O 494.524 1.95849 0.0449089 0
M  V30 5367 H 493.104 0.239743 -0.707483 0
M  V30 5368 H 495.766 -0.084321 -1.94718 0
M  V30 5369 H 494.862 1.08987 -2.92452 0
M  V30 5370 N 495.163 1.55791 0.238111 0
M  V30 5371 C 496.388 1.8244 0.986432 0
M  V30 5372 C 496.813 0.613314 1.7782 0
M  V30 5373 O 496.171 -0.437767 1.75935 0
M  V30 5374 C 496.219 3.06917 1.893 0
M  V30 5375 O 495.323 2.84449 2.98601 0
M  V30 5376 H 494.664 0.601975 0.280218 0
M  V30 5377 H 497.194 2.02987 0.256437 0
M  V30 5378 H 497.204 3.36583 2.30598 0
M  V30 5379 H 495.879 3.947 1.31091 0
M  V30 5380 H 494.456 2.65972 2.61368 0
M  V30 5381 N 496.642 -0.504142 1.49319 0
M  V30 5382 C 497.59 -1.62689 1.66238 0
M  V30 5383 C 498.584 -1.6095 0.528349 0
M  V30 5384 O 499.79 -1.65496 0.707887 0
M  V30 5385 H 496.165 -0.539247 0.524134 0
M  V30 5386 H 498.136 -1.45571 2.60484 0
M  V30 5387 C 496.885 -3.00841 1.74328 0
M  V30 5388 H 496.208 -3.02884 2.60963 0
M  V30 5389 H 497.648 -3.78945 1.90202 0
M  V30 5390 C 496.107 -3.33355 0.487416 0
M  V30 5391 O 496.637 -3.99819 -0.388294 0
M  V30 5392 N 494.843 -2.88469 0.351306 0
M  V30 5393 H 494.39 -2.34557 1.06492 0
M  V30 5394 H 494.348 -3.10591 -0.487899 0
M  V30 5395 N 498.12 -1.38341 -0.754957 0
M  V30 5396 C 499.03 -1.3769 -1.89944 0
M  V30 5397 C 500.046 -0.274194 -1.71826 0
M  V30 5398 O 501.222 -0.512391 -1.94773 0
M  V30 5399 C 498.287 -1.19938 -3.25293 0
M  V30 5400 C 497.348 -2.40001 -3.55946 0
M  V30 5401 C 496.581 -2.23087 -4.84838 0
M  V30 5402 O 496.804 -1.22386 -5.57116 0
M  V30 5403 O 495.738 -3.11646 -5.14937 0
M  V30 5404 H 499.564 -2.3412 -1.93446 0
M  V30 5405 H 497.149 -1.19246 -0.900044 0
M  V30 5406 H 499.031 -1.12093 -4.06218 0
M  V30 5407 H 497.706 -0.265919 -3.22606 0
M  V30 5408 H 496.613 -2.53421 -2.75188 0
M  V30 5409 H 497.946 -3.31973 -3.63394 0
M  V30 5410 N 499.598 0.982988 -1.23187 0
M  V30 5411 C 500.823 1.76455 -1.08988 0
M  V30 5412 C 501.248 1.84726 0.354691 0
M  V30 5413 O 500.606 1.30699 1.25649 0
M  V30 5414 C 500.654 3.17094 -1.71708 0
M  V30 5415 O 499.758 4.00648 -0.977477 0
M  V30 5416 H 499.099 0.542988 -0.382177 0
M  V30 5417 H 501.629 1.23413 -1.63188 0
M  V30 5418 H 501.639 3.67684 -1.76841 0
M  V30 5419 H 500.314 3.10389 -2.76823 0
M  V30 5420 H 498.891 3.59161 -1.0029 0
M  V30 5421 N 501.076 1.04316 1.18135 0
M  V30 5422 C 502.492 0.762858 1.40188 0
M  V30 5423 C 502.692 -0.646547 1.90846 0
M  V30 5424 O 501.748 -1.41036 2.0944 0
M  V30 5425 C 503.061 1.81106 2.40044 0
M  V30 5426 C 504.609 1.83226 2.53766 0
M  V30 5427 C 505.084 2.87044 3.56889 0
M  V30 5428 N 506.575 2.85951 3.64398 0
M  V30 5429 C 507.31 3.62932 4.43923 0
M  V30 5430 N 506.806 4.49672 5.27036 0
M  V30 5431 N 508.599 3.51411 4.38711 0
M  V30 5432 H 500.75 1.95264 0.835805 0
M  V30 5433 H 503.013 0.845017 0.429709 0
M  V30 5434 H 502.719 2.82214 2.09876 0
M  V30 5435 H 502.593 1.64529 3.39426 0
M  V30 5436 H 504.98 0.827869 2.8325 0
M  V30 5437 H 505.061 2.03879 1.54489 0
M  V30 5438 H 504.705 3.87663 3.28145 0
M  V30 5439 H 504.635 2.63645 4.5585 0
M  V30 5440 H 507.126 2.23051 3.05052 0
M  V30 5441 H 507.439 5.05116 5.84874 0
M  V30 5442 H 505.784 4.53738 5.26447 0
M  V30 5443 H 508.975 2.83047 3.72829 0
M  V30 5444 H 509.148 4.11654 5.00445 0
M  V30 5445 N 502.554 -1.34406 0.822964 0
M  V30 5446 C 503.8 -1.98578 0.411666 0
M  V30 5447 C 504.133 -1.65093 -1.02264 0
M  V30 5448 O 503.408 -0.92258 -1.71227 0
M  V30 5449 C 503.691 -3.54823 0.614235 0
M  V30 5450 C 503.544 -3.9805 2.09466 0
M  V30 5451 C 504.863 -4.40071 0.050221 0
M  V30 5452 H 501.982 -0.721355 0.151047 0
M  V30 5453 H 504.624 -1.59301 1.03554 0
M  V30 5454 H 502.774 -3.88411 0.0831774 0
M  V30 5455 H 504.446 -3.74795 2.68936 0
M  V30 5456 H 502.689 -3.4836 2.5851 0
M  V30 5457 H 503.36 -5.06819 2.18721 0
M  V30 5458 H 505.836 -4.13037 0.503953 0
M  V30 5459 H 504.712 -5.48452 0.221759 0
M  V30 5460 H 504.973 -4.29576 -1.04482 0
M  V30 5461 N 504.032 -0.577932 -1.46621 0
M  V30 5462 C 505.278 -0.0617793 -2.02706 0
M  V30 5463 C 505.611 1.29294 -1.44903 0
M  V30 5464 O 504.886 1.8461 -0.61232 0
M  V30 5465 C 505.169 0.00911824 -3.60099 0
M  V30 5466 C 505.022 -1.37416 -4.28295 0
M  V30 5467 C 506.341 0.712159 -4.343 0
M  V30 5468 H 503.46 -0.0239246 -0.736612 0
M  V30 5469 H 506.102 -0.744211 -1.74818 0
M  V30 5470 H 504.252 0.590292 -3.83989 0
M  V30 5471 H 505.924 -2.00013 -4.15683 0
M  V30 5472 H 504.167 -1.94319 -3.87843 0
M  V30 5473 H 504.838 -1.27707 -5.37024 0
M  V30 5474 H 507.314 0.218486 -4.15526 0
M  V30 5475 H 506.19 0.730782 -5.44014 0
M  V30 5476 H 506.451 1.77251 -4.05012 0
M  V30 5477 N 505.51 1.54411 -0.315457 0
M  V30 5478 C 506.738 2.04833 0.291738 0
M  V30 5479 C 507.153 1.19203 1.46411 0
M  V30 5480 O 506.51 0.220867 1.81159 0
M  V30 5481 C 506.561 3.53969 0.73404 0
M  V30 5482 O 506.282 4.36346 -0.391682 0
M  V30 5483 C 507.783 4.2045 1.40489 0
M  V30 5484 H 505.003 0.668195 0.0612947 0
M  V30 5485 H 507.547 1.99276 -0.45929 0
M  V30 5486 H 505.702 3.5984 1.43506 0
M  V30 5487 H 506.116 5.24481 -0.0447088 0
M  V30 5488 H 507.59 5.26278 1.66539 0
M  V30 5489 H 508.067 3.71067 2.3496 0
M  V30 5490 H 508.673 4.18694 0.746662 0
M  V30 5491 N 506.988 0.0434614 1.5754 0
M  V30 5492 C 508.237 -0.631454 1.91561 0
M  V30 5493 C 508.55 -1.72457 0.92292 0
M  V30 5494 O 509.756 -2.45712 1.15489 0
M  V30 5495 C 508.212 -1.17447 3.40197 0
M  V30 5496 C 507.82 -0.113867 4.47855 0
M  V30 5497 C 509.564 -1.82507 3.83264 0
M  V30 5498 C 507.471 -0.669326 5.876 0
M  V30 5499 H 506.401 -0.239629 0.714908 0
M  V30 5500 H 509.052 0.111097 1.83163 0
M  V30 5501 H 507.434 -1.96909 3.43574 0
M  V30 5502 H 508.608 0.659348 4.56058 0
M  V30 5503 H 506.923 0.438821 4.14081 0
M  V30 5504 H 509.52 -2.25047 4.85034 0
M  V30 5505 H 509.863 -2.67365 3.19095 0
M  V30 5506 H 510.396 -1.09712 3.82372 0
M  V30 5507 H 507.135 0.141449 6.55347 0
M  V30 5508 H 506.655 -1.4107 5.82974 0
M  V30 5509 H 508.334 -1.15463 6.36614 0
M  V30 5510 N 508.466 -1.55915 -0.229846 0
M  V30 5511 C 509.416 -1.8813 -1.28807 0
M  V30 5512 C 510.4 -0.743621 -1.42685 0
M  V30 5513 O 511.592 -1.00588 -1.4564 0
M  V30 5514 C 508.721 -2.19431 -2.64017 0
M  V30 5515 C 507.807 -3.39569 -2.54074 0
M  V30 5516 N 508.198 -4.58404 -2.13774 0
M  V30 5517 C 506.496 -3.43019 -2.85051 0
M  V30 5518 C 507.197 -5.40557 -2.1488 0
M  V30 5519 N 506.173 -4.80054 -2.55047 0
M  V30 5520 H 509.975 -2.77527 -0.967261 0
M  V30 5521 H 507.489 -1.5637 -0.438433 0
M  V30 5522 H 509.486 -2.40681 -3.40409 0
M  V30 5523 H 508.146 -1.31341 -2.9695 0
M  V30 5524 H 509.157 -4.83716 -1.8504 0
M  V30 5525 H 505.834 -2.65249 -3.22411 0
M  V30 5526 H 507.224 -6.45666 -1.85918 0
M  V30 5527 N 509.944 0.496216 -1.49584 0
M  V30 5528 C 510.891 1.59722 -1.66606 0
M  V30 5529 C 511.861 1.58158 -0.507477 0
M  V30 5530 O 513.046 1.76072 -0.735076 0
M  V30 5531 C 510.186 2.97844 -1.74308 0
M  V30 5532 C 509.299 3.09388 -3.01502 0
M  V30 5533 C 508.434 4.38271 -3.00153 0
M  V30 5534 C 507.473 4.43466 -4.21906 0
M  V30 5535 N 506.61 5.63784 -4.1844 0
M  V30 5536 H 511.45 1.44515 -2.60613 0
M  V30 5537 H 508.987 0.703048 -1.29212 0
M  V30 5538 H 510.945 3.77907 -1.76754 0
M  V30 5539 H 509.575 3.11743 -0.837619 0
M  V30 5540 H 508.627 2.22357 -3.08645 0
M  V30 5541 H 509.939 3.09085 -3.91494 0
M  V30 5542 H 509.093 5.2666 -3.01188 0
M  V30 5543 H 507.832 4.41146 -2.07947 0
M  V30 5544 H 506.837 3.53478 -4.21109 0
M  V30 5545 H 508.062 4.42303 -5.1531 0
M  V30 5546 H 506.008 5.67491 -3.29074 0
M  V30 5547 H 505.925 5.65118 -5.02173 0
M  V30 5548 H 507.193 6.54367 -4.23585 0
M  V30 5549 N 511.423 1.38739 0.74761 0
M  V30 5550 C 512.355 1.32341 1.87132 0
M  V30 5551 C 513.368 0.234502 1.61102 0
M  V30 5552 O 514.557 0.492516 1.71571 0
M  V30 5553 C 511.657 1.02915 3.22896 0
M  V30 5554 C 510.83 2.22834 3.76383 0
M  V30 5555 C 509.889 1.90059 4.90677 0
M  V30 5556 O 508.915 2.62615 5.04997 0
M  V30 5557 N 510.117 0.859141 5.74107 0
M  V30 5558 H 512.882 2.29175 1.93129 0
M  V30 5559 H 510.443 1.32678 0.927805 0
M  V30 5560 H 512.435 0.79031 3.96908 0
M  V30 5561 H 511.005 0.148572 3.12247 0
M  V30 5562 H 510.225 2.62747 2.93867 0
M  V30 5563 H 511.513 3.02851 4.08851 0
M  V30 5564 H 510.911 0.257564 5.65113 0
M  V30 5565 H 509.468 0.680189 6.48241 0
M  V30 5566 N 512.901 -0.976442 1.23707 0
M  V30 5567 C 514.178 -1.69296 0.979699 0
M  V30 5568 C 514.558 -2.0508 -0.500555 0
M  V30 5569 O 513.906 -1.74708 -1.47273 0
M  V30 5570 C 514.116 -2.93143 1.89389 0
M  V30 5571 C 515.464 -3.65572 2.15968 0
M  V30 5572 O 516.488 -3.03184 1.86971 0
M  V30 5573 O 515.347 -4.77859 2.65167 0
M  V30 5574 H 512.441 -0.739708 0.369812 0
M  V30 5575 H 514.987 -1.03131 1.34767 0
M  V30 5576 H 513.759 -2.63327 2.89439 0
M  V30 5577 H 513.382 -3.67044 1.52854 0
M  V30 5578 N 514.379 -1.04941 -1.1758 0
M  V30 5579 C 515.627 -0.756492 -1.87408 0
M  V30 5580 C 515.948 0.718478 -1.81281 0
M  V30 5581 O 515.218 1.519 -1.23706 0
M  V30 5582 H 513.798 -0.276841 -0.693807 0
M  V30 5583 H 516.46 -1.32803 -1.42652 0
M  V30 5584 H 515.556 -1.06918 -2.93215 0
M  V30 5585 N 515.857 1.33968 -0.830081 0
M  V30 5586 C 516.804 2.29387 -0.255008 0
M  V30 5587 C 517.774 1.53923 0.624243 0
M  V30 5588 O 518.959 1.82262 0.564372 0
M  V30 5589 C 516.099 3.4034 0.571209 0
M  V30 5590 C 515.212 4.30729 -0.331083 0
M  V30 5591 C 514.347 5.2879 0.505389 0
M  V30 5592 C 513.386 6.10819 -0.395843 0
M  V30 5593 N 512.523 7.00948 0.401979 0
M  V30 5594 H 517.363 2.77972 -1.07404 0
M  V30 5595 H 514.9 1.36785 -0.541133 0
M  V30 5596 H 516.858 4.03361 1.06562 0
M  V30 5597 H 515.488 2.9297 1.35529 0
M  V30 5598 H 514.54 3.68507 -0.943759 0
M  V30 5599 H 515.852 4.88181 -1.02377 0
M  V30 5600 H 515.006 5.97297 1.06399 0
M  V30 5601 H 513.745 4.71894 1.23155 0
M  V30 5602 H 512.75 5.41238 -0.966529 0
M  V30 5603 H 513.975 6.69797 -1.12023 0
M  V30 5604 H 511.921 6.46512 1.11168 0
M  V30 5605 H 511.838 7.55643 -0.232167 0
M  V30 5606 H 513.106 7.73774 0.943102 0
M  V30 5607 N 517.335 0.585699 1.46312 0
M  V30 5608 C 518.283 -0.158577 2.32059 0
M  V30 5609 C 519.277 -0.881427 1.44662 0
M  V30 5610 O 520.483 -0.799476 1.61271 0
M  V30 5611 H 516.858 -0.0700066 0.748734 0
M  V30 5612 H 518.829 0.583383 2.92642 0
M  V30 5613 C 517.578 -1.15701 3.27885 0
M  V30 5614 H 516.901 -0.610215 3.95116 0
M  V30 5615 H 518.341 -1.64812 3.90657 0
M  V30 5616 C 516.8 -2.21951 2.53455 0
M  V30 5617 O 517.33 -3.29352 2.29978 0
M  V30 5618 N 515.536 -1.9664 2.13965 0
M  V30 5619 H 515.083 -1.09309 2.33258 0
M  V30 5620 H 515.041 -2.6794 1.64485 0
M  V30 5621 N 518.813 -1.54241 0.323641 0
M  V30 5622 C 519.743 -2.27289 -0.534993 0
M  V30 5623 C 520.724 -1.28087 -1.11927 0
M  V30 5624 O 521.909 -1.56899 -1.14439 0
M  V30 5625 C 519.039 -3.03075 -1.69596 0
M  V30 5626 C 517.993 -4.09614 -1.24098 0
M  V30 5627 C 517.319 -4.73242 -2.4889 0
M  V30 5628 C 518.619 -5.21087 -0.355789 0
M  V30 5629 H 520.313 -2.99308 0.0743257 0
M  V30 5630 H 517.859 -1.43952 0.0371874 0
M  V30 5631 H 519.812 -3.52907 -2.30293 0
M  V30 5632 H 518.536 -2.28673 -2.33187 0
M  V30 5633 H 517.195 -3.60666 -0.656945 0
M  V30 5634 H 516.843 -3.95455 -3.10845 0
M  V30 5635 H 516.543 -5.45209 -2.19138 0
M  V30 5636 H 518.067 -5.25848 -3.10348 0
M  V30 5637 H 519.481 -5.66675 -0.869042 0
M  V30 5638 H 517.878 -5.9991 -0.151045 0
M  V30 5639 H 518.948 -4.81005 0.613339 0
M  V30 5640 N 520.291 -0.0518155 -1.57515 0
M  V30 5641 C 521.201 0.937539 -2.15052 0
M  V30 5642 C 522.217 1.34121 -1.10849 0
M  V30 5643 O 523.393 1.418 -1.4302 0
M  V30 5644 C 520.458 2.19379 -2.68466 0
M  V30 5645 C 519.519 1.84841 -3.87469 0
M  V30 5646 C 518.752 3.04477 -4.38326 0
M  V30 5647 O 518.975 4.17868 -3.88256 0
M  V30 5648 O 517.909 2.85453 -5.29906 0
M  V30 5649 H 521.735 0.478201 -2.99912 0
M  V30 5650 H 519.32 0.17012 -1.48428 0
M  V30 5651 H 521.202 2.93084 -3.02787 0
M  V30 5652 H 519.877 2.64449 -1.86677 0
M  V30 5653 H 518.784 1.08449 -3.58036 0
M  V30 5654 H 520.117 1.44569 -4.7049 0
M  V30 5655 N 521.769 1.56035 0.221574 0
M  V30 5656 C 523.018 1.78245 0.944016 0
M  V30 5657 C 523.331 0.620371 1.85501 0
M  V30 5658 O 524.537 0.726103 2.6161 0
M  V30 5659 C 522.993 3.15659 1.7288 0
M  V30 5660 C 522.601 4.39591 0.863942 0
M  V30 5661 C 524.345 3.47195 2.44246 0
M  V30 5662 C 522.252 5.6803 1.64607 0
M  V30 5663 H 521.182 0.664547 0.356222 0
M  V30 5664 H 523.833 1.8243 0.197904 0
M  V30 5665 H 522.215 3.0565 2.51781 0
M  V30 5666 H 523.389 4.60655 0.115464 0
M  V30 5667 H 521.704 4.15572 0.262407 0
M  V30 5668 H 524.301 4.40381 3.03263 0
M  V30 5669 H 524.644 2.69693 3.1713 0
M  V30 5670 H 525.177 3.58533 1.72334 0
M  V30 5671 H 521.916 6.48425 0.960507 0
M  V30 5672 H 521.436 5.51027 2.36917 0
M  V30 5673 H 523.115 6.08203 2.20675 0
M  V30 5674 N 523.247 -0.488276 1.49845 0
M  V30 5675 C 524.157 -1.61451 1.70207 0
M  V30 5676 C 525.173 -1.63877 0.584846 0
M  V30 5677 O 526.349 -1.82063 0.861107 0
M  V30 5678 C 523.414 -2.9776 1.77594 0
M  V30 5679 C 522.475 -3.05861 3.01243 0
M  V30 5680 C 521.708 -4.35668 3.08268 0
M  V30 5681 O 521.931 -5.25197 2.22541 0
M  V30 5682 O 520.865 -4.49005 4.00847 0
M  V30 5683 H 524.691 -1.47199 2.65643 0
M  V30 5684 H 522.276 -0.665939 1.33737 0
M  V30 5685 H 524.158 -3.7875 1.84732 0
M  V30 5686 H 522.833 -3.12248 0.8534 0
M  V30 5687 H 521.74 -2.24012 2.99616 0
M  V30 5688 H 523.073 -2.96304 3.9302 0
M  V30 5689 N 524.725 -1.39134 -0.740242 0
M  V30 5690 C 525.655 -1.40165 -1.86751 0
M  V30 5691 C 526.636 -0.265708 -1.68012 0
M  V30 5692 O 527.821 -0.47076 -1.88408 0
M  V30 5693 C 524.951 -1.2392 -3.2444 0
M  V30 5694 C 523.905 -2.34858 -3.57807 0
M  V30 5695 C 523.231 -2.03707 -4.94376 0
M  V30 5696 C 524.531 -3.77159 -3.61315 0
M  V30 5697 H 526.225 -2.345 -1.86145 0
M  V30 5698 H 523.771 -1.12875 -0.89416 0
M  V30 5699 H 525.724 -1.23263 -4.02969 0
M  V30 5700 H 524.448 -0.26051 -3.25559 0
M  V30 5701 H 523.107 -2.34723 -2.81604 0
M  V30 5702 H 522.755 -1.04289 -4.9207 0
M  V30 5703 H 522.455 -2.78016 -5.17669 0
M  V30 5704 H 523.979 -2.04691 -5.75268 0
M  V30 5705 H 525.393 -3.79252 -4.29931 0
M  V30 5706 H 523.79 -4.50784 -3.96124 0
M  V30 5707 H 524.86 -4.08513 -2.61238 0
M  V30 5708 N 526.204 0.969867 -1.24223 0
M  V30 5709 C 527.429 1.75289 -1.10853 0
M  V30 5710 C 527.854 1.85091 0.335079 0
M  V30 5711 O 527.212 1.32024 1.24255 0
M  V30 5712 C 527.26 3.15255 -1.75062 0
M  V30 5713 O 526.364 3.99589 -1.01992 0
M  V30 5714 H 525.705 0.538904 -0.387915 0
M  V30 5715 H 528.235 1.21675 -1.64488 0
M  V30 5716 H 528.245 3.65787 -1.80731 0
M  V30 5717 H 526.92 3.07436 -2.801 0
M  V30 5718 H 525.497 3.58077 -1.04094 0
M  V30 5719 N 527.682 1.05563 1.17022 0
M  V30 5720 C 528.907 0.788437 1.91829 0
M  V30 5721 C 529.332 -0.650356 1.76499 0
M  V30 5722 O 528.69 -1.45229 1.08527 0
M  V30 5723 C 528.738 1.1786 3.40795 0
M  V30 5724 O 527.842 0.312965 4.11211 0
M  V30 5725 H 527.183 0.288794 0.597908 0
M  V30 5726 H 529.713 1.40948 1.48307 0
M  V30 5727 H 529.723 1.14697 3.91546 0
M  V30 5728 H 528.398 2.22666 3.51273 0
M  V30 5729 H 526.975 0.405515 3.70689 0
M  V30 5730 N 529.16 -1.33526 0.837174 0
M  V30 5731 C 530.09 -2.31764 0.284206 0
M  V30 5732 C 531.071 -1.58896 -0.607142 0
M  V30 5733 O 532.256 -1.86798 -0.531047 0
M  V30 5734 C 529.386 -3.43029 -0.542962 0
M  V30 5735 C 528.34 -4.27255 0.252451 0
M  V30 5736 C 527.666 -5.3012 -0.69836 0
M  V30 5737 C 528.966 -5.01229 1.46858 0
M  V30 5738 H 530.66 -2.78262 1.10502 0
M  V30 5739 H 528.206 -1.3378 0.532812 0
M  V30 5740 H 530.159 -4.1078 -0.940096 0
M  V30 5741 H 528.883 -2.95216 -1.39697 0
M  V30 5742 H 527.542 -3.61127 0.631124 0
M  V30 5743 H 527.19 -4.78564 -1.54872 0
M  V30 5744 H 526.89 -5.87353 -0.170274 0
M  V30 5745 H 528.414 -6.00737 -1.09305 0
M  V30 5746 H 529.828 -5.61756 1.14469 0
M  V30 5747 H 528.225 -5.68104 1.93333 0
M  V30 5748 H 529.295 -4.301 2.23924 0
M  V30 5749 N 530.638 -0.59345 -1.46 0
M  V30 5750 C 532.054 -0.255965 -1.57534 0
M  V30 5751 C 532.254 1.24167 -1.58697 0
M  V30 5752 O 531.31 2.02398 -1.50968 0
M  V30 5753 C 532.623 -0.91466 -2.86451 0
M  V30 5754 C 534.171 -0.889253 -3.00102 0
M  V30 5755 C 534.646 -1.52769 -4.3177 0
M  V30 5756 N 536.137 -1.49253 -4.38495 0
M  V30 5757 C 536.872 -1.9558 -5.39014 0
M  V30 5758 N 536.368 -2.49929 -6.46148 0
M  V30 5759 N 538.161 -1.86432 -5.30282 0
M  V30 5760 H 530.312 -1.56604 -1.43489 0
M  V30 5761 H 532.575 -0.655207 -0.685133 0
M  V30 5762 H 532.281 -1.96861 -2.91442 0
M  V30 5763 H 532.155 -0.429356 -3.74748 0
M  V30 5764 H 534.542 0.156111 -2.94687 0
M  V30 5765 H 534.623 -1.41268 -2.13253 0
M  V30 5766 H 534.267 -2.57231 -4.37944 0
M  V30 5767 H 534.197 -0.979398 -5.17412 0
M  V30 5768 H 536.688 -1.09536 -3.61677 0
M  V30 5769 H 537.001 -2.83109 -7.19075 0
M  V30 5770 H 535.346 -2.53961 -6.46938 0
M  V30 5771 H 538.537 -1.43722 -4.4549 0
M  V30 5772 H 538.71 -2.22852 -6.08474 0
M  V30 5773 N 532.116 1.54067 -0.331816 0
M  V30 5774 C 533.026 2.28322 0.539104 0
M  V30 5775 C 534.042 1.32985 1.1221 0
M  V30 5776 O 535.218 1.6601 1.1403 0
M  V30 5777 C 532.283 3.03277 1.68 0
M  V30 5778 C 531.344 4.14216 1.12798 0
M  V30 5779 C 530.577 4.85588 2.2145 0
M  V30 5780 O 530.8 4.56536 3.41952 0
M  V30 5781 O 529.734 5.72309 1.86404 0
M  V30 5782 H 533.56 3.03632 -0.0641692 0
M  V30 5783 H 531.145 1.49083 -0.0972365 0
M  V30 5784 H 533.027 3.50189 2.34405 0
M  V30 5785 H 531.702 2.30834 2.2693 0
M  V30 5786 H 530.609 3.71635 0.428782 0
M  V30 5787 H 531.942 4.88727 0.583698 0
M  V30 5788 N 533.594 0.0601682 1.57485 0
M  V30 5789 C 534.557 -0.896373 2.10945 0
M  V30 5790 C 535.557 -1.23402 1.03095 0
M  V30 5791 O 536.747 -1.16921 1.29132 0
M  V30 5792 C 533.879 -2.20346 2.60116 0
M  V30 5793 H 535.072 -0.432778 2.96761 0
M  V30 5794 H 532.625 -0.188372 1.55161 0
M  V30 5795 H 533.36 -2.71268 1.7772 0
M  V30 5796 H 533.145 -1.9714 3.38937 0
M  V30 5797 H 534.635 -2.88846 3.01592 0
M  V30 5798 N 535.072 -1.5615 -0.213296 0
M  V30 5799 C 536.002 -1.96109 -1.26742 0
M  V30 5800 C 536.983 -0.830448 -1.48451 0
M  V30 5801 O 538.168 -1.09339 -1.60495 0
M  V30 5802 C 535.298 -2.28492 -2.61551 0
M  V30 5803 C 534.252 -3.44124 -2.54485 0
M  V30 5804 C 533.578 -3.62134 -3.93399 0
M  V30 5805 C 534.878 -4.78855 -2.08556 0
M  V30 5806 H 536.572 -2.84412 -0.935434 0
M  V30 5807 H 534.118 -1.36836 -0.44854 0
M  V30 5808 H 536.071 -2.55039 -3.3546 0
M  V30 5809 H 534.795 -1.37052 -2.96453 0
M  V30 5810 H 533.454 -3.17639 -1.83033 0
M  V30 5811 H 533.102 -2.68055 -4.25623 0
M  V30 5812 H 532.802 -4.39913 -3.89551 0
M  V30 5813 H 534.326 -3.91038 -4.68958 0
M  V30 5814 H 535.74 -5.04552 -2.72213 0
M  V30 5815 H 534.137 -5.59975 -2.1575 0
M  V30 5816 H 535.207 -4.73657 -1.03811 0
M  V30 5817 N 536.55 0.480323 -1.50102 0
M  V30 5818 C 537.775 1.26126 -1.64642 0
M  V30 5819 C 538.2 1.85257 -0.325823 0
M  V30 5820 O 537.558 1.66854 0.709194 0
M  V30 5821 C 537.606 2.35243 -2.73301 0
M  V30 5822 O 536.71 3.39646 -2.33911 0
M  V30 5823 H 536.051 0.371463 -0.550374 0
M  V30 5824 H 538.581 0.572696 -1.96421 0
M  V30 5825 H 538.591 2.80695 -2.96098 0
M  V30 5826 H 537.266 1.91574 -3.6915 0
M  V30 5827 H 535.843 2.99969 -2.21525 0
M  V30 5828 N 538.028 1.39524 0.732853 0
M  V30 5829 C 539.275 1.36865 1.49246 0
M  V30 5830 C 539.603 -0.0347118 1.94469 0
M  V30 5831 O 538.858 -1.01596 1.67262 0
M  V30 5832 C 539.157 2.28916 2.74468 0
M  V30 5833 C 538.823 3.76506 2.481 0
M  V30 5834 C 537.485 4.16721 2.40619 0
M  V30 5835 C 539.837 4.69846 2.25598 0
M  V30 5836 C 537.165 5.48334 2.08679 0
M  V30 5837 C 539.517 6.01739 1.95174 0
M  V30 5838 C 538.181 6.41015 1.86163 0
M  V30 5839 H 537.451 0.500824 0.546129 0
M  V30 5840 H 540.098 1.72047 0.840958 0
M  V30 5841 H 538.403 1.86859 3.4437 0
M  V30 5842 H 540.1 2.2415 3.32502 0
M  V30 5843 H 536.69 3.44635 2.54803 0
M  V30 5844 H 540.874 4.39608 2.30344 0
M  V30 5845 H 536.13 5.77685 2.00226 0
M  V30 5846 H 540.304 6.73591 1.76771 0
M  V30 5847 H 537.931 7.42917 1.61179 0
M  V30 5848 N 539.506 -0.963266 1.24736 0
M  V30 5849 C 540.752 -1.70933 1.09131 0
M  V30 5850 C 541.085 -1.90676 -0.368273 0
M  V30 5851 O 540.36 -1.47147 -1.27193 0
M  V30 5852 C 540.643 -3.09744 1.83658 0
M  V30 5853 C 540.496 -2.97465 3.37394 0
M  V30 5854 C 541.815 -4.09483 1.61282 0
M  V30 5855 H 538.934 -0.620398 0.397838 0
M  V30 5856 H 541.576 -1.12028 1.53459 0
M  V30 5857 H 539.726 -3.60031 1.4598 0
M  V30 5858 H 541.398 -2.54571 3.84696 0
M  V30 5859 H 539.641 -2.33576 3.65547 0
M  V30 5860 H 540.312 -3.95822 3.84745 0
M  V30 5861 H 542.788 -3.68073 1.94066 0
M  V30 5862 H 541.664 -5.04666 2.15878 0
M  V30 5863 H 541.925 -4.38639 0.552102 0
M  V30 5864 N 540.985 -1.06182 -1.16461 0
M  V30 5865 C 542.21 -0.798599 -1.91408 0
M  V30 5866 C 542.635 0.640987 -1.76842 0
M  V30 5867 O 541.993 1.44652 -1.09296 0
M  V30 5868 C 542.041 -1.19665 -3.40165 0
M  V30 5869 O 541.145 -0.334768 -4.11039 0
M  V30 5870 H 540.486 -0.291961 -0.596368 0
M  V30 5871 H 543.016 -1.41732 -1.47557 0
M  V30 5872 H 543.026 -1.16772 -3.90933 0
M  V30 5873 H 541.701 -2.24526 -3.50087 0
M  V30 5874 H 540.278 -0.425168 -3.70468 0
M  V30 5875 N 542.463 1.3308 -0.844243 0
M  V30 5876 C 543.393 2.3161 -0.296493 0
M  V30 5877 C 544.374 1.59215 0.598707 0
M  V30 5878 O 545.559 1.87077 0.521134 0
M  V30 5879 C 542.689 3.43313 0.524762 0
M  V30 5880 C 541.643 4.27115 -0.275106 0
M  V30 5881 C 540.969 5.30483 0.670236 0
M  V30 5882 C 542.269 5.00443 -1.49514 0
M  V30 5883 H 543.963 2.77672 -1.11976 0
M  V30 5884 H 541.509 1.33496 -0.539899 0
M  V30 5885 H 543.462 4.11273 0.918298 0
M  V30 5886 H 542.186 2.95952 1.3813 0
M  V30 5887 H 540.845 3.60787 -0.650267 0
M  V30 5888 H 540.493 4.79379 1.52332 0
M  V30 5889 H 540.193 5.87435 0.139123 0
M  V30 5890 H 541.717 6.01308 1.06117 0
M  V30 5891 H 543.131 5.61141 -1.17447 0
M  V30 5892 H 541.528 5.67071 -1.96343 0
M  V30 5893 H 542.598 4.28906 -2.26202 0
M  V30 5894 N 543.941 0.601185 1.45683 0
M  V30 5895 C 545.19 0.0914953 2.01492 0
M  V30 5896 C 545.503 -1.28331 1.47616 0
M  V30 5897 O 546.709 -1.88537 1.95362 0
M  V30 5898 C 545.165 0.11291 3.59723 0
M  V30 5899 C 544.773 1.48717 4.22596 0
M  V30 5900 C 546.517 -0.341871 4.23121 0
M  V30 5901 C 544.424 1.46531 5.7296 0
M  V30 5902 H 543.354 0.0304365 0.753385 0
M  V30 5903 H 546.005 0.755568 1.67223 0
M  V30 5904 H 544.387 -0.617692 3.91153 0
M  V30 5905 H 545.561 2.23897 4.02749 0
M  V30 5906 H 543.876 1.88351 3.71366 0
M  V30 5907 H 546.473 -0.377304 5.33367 0
M  V30 5908 H 546.816 -1.36325 3.93346 0
M  V30 5909 H 547.349 0.335256 3.96385 0
M  V30 5910 H 544.088 2.46408 6.07423 0
M  V30 5911 H 543.608 0.755997 5.95017 0
M  V30 5912 H 545.287 1.18618 6.36034 0
M  V30 5913 N 545.419 -1.53889 0.339982 0
M  V30 5914 C 546.696 -1.93084 -0.312719 0
M  V30 5915 C 547.076 -1.2712 -1.68534 0
M  V30 5916 O 546.424 -0.420835 -2.24591 0
M  V30 5917 C 546.634 -3.4683 -0.388558 0
M  V30 5918 C 547.982 -4.19732 -0.641088 0
M  V30 5919 O 549.006 -3.53075 -0.470818 0
M  V30 5920 O 547.865 -5.3781 -0.970685 0
M  V30 5921 H 544.959 -0.806784 -0.18174 0
M  V30 5922 H 547.505 -1.65137 0.390898 0
M  V30 5923 H 546.277 -3.87055 0.574821 0
M  V30 5924 H 545.9 -3.80933 -1.1391 0
M  V30 5925 N 546.897 -0.0685191 -1.57451 0
M  V30 5926 C 548.145 0.60016 -1.92983 0
M  V30 5927 C 548.466 1.70348 -0.949028 0
M  V30 5928 O 547.736 1.959 0.00335647 0
M  V30 5929 H 546.316 0.224682 -0.712409 0
M  V30 5930 H 548.978 -0.125605 -1.94495 0
M  V30 5931 H 548.074 1.02759 -2.94698 0
M  V30 5932 N 548.375 1.56261 0.205012 0
M  V30 5933 C 549.605 1.83874 0.942018 0
M  V30 5934 C 550.013 0.647595 1.77772 0
M  V30 5935 O 549.356 -0.393098 1.79445 0
M  V30 5936 C 549.418 3.05453 1.89575 0
M  V30 5937 C 549.082 4.39772 1.24296 0
M  V30 5938 C 550.079 5.16133 0.624724 0
M  V30 5939 C 547.764 4.86504 1.24978 0
M  V30 5940 C 549.758 6.37396 0.0220117 0
M  V30 5941 C 547.445 6.07705 0.643232 0
M  V30 5942 C 548.443 6.82993 0.0304164 0
M  V30 5943 O 548.131 8.019 -0.566654 0
M  V30 5944 H 547.863 0.614896 0.280854 0
M  V30 5945 H 550.417 2.04215 0.220285 0
M  V30 5946 H 548.647 2.80972 2.65691 0
M  V30 5947 H 550.336 3.19797 2.4997 0
M  V30 5948 H 551.102 4.81127 0.611666 0
M  V30 5949 H 546.981 4.27865 1.71616 0
M  V30 5950 H 550.525 6.96102 -0.456926 0
M  V30 5951 H 546.422 6.42181 0.653759 0
M  V30 5952 H 547.19 8.17192 -0.462588 0
M  V30 5953 N 549.853 -0.472356 1.50355 0
M  V30 5954 C 551.083 -1.24603 1.64796 0
M  V30 5955 C 551.491 -1.86297 0.330156 0
M  V30 5956 O 550.834 -1.69934 -0.697728 0
M  V30 5957 C 550.896 -2.39578 2.68035 0
M  V30 5958 C 550.56 -1.98531 4.11624 0
M  V30 5959 C 551.557 -1.50856 4.97532 0
M  V30 5960 C 549.242 -2.0729 4.57532 0
M  V30 5961 C 551.236 -1.12481 6.27397 0
M  V30 5962 C 548.923 -1.68527 5.87403 0
M  V30 5963 C 549.921 -1.212 6.7216 0
M  V30 5964 O 549.609 -0.829728 7.99607 0
M  V30 5965 H 549.341 -0.383035 0.55701 0
M  V30 5966 H 551.895 -0.570392 1.97321 0
M  V30 5967 H 550.125 -3.10309 2.30749 0
M  V30 5968 H 551.814 -3.01544 2.71709 0
M  V30 5969 H 552.58 -1.43511 4.63281 0
M  V30 5970 H 548.459 -2.43076 3.91708 0
M  V30 5971 H 552.003 -0.754698 6.93506 0
M  V30 5972 H 547.9 -1.7553 6.21176 0
M  V30 5973 H 548.668 -0.958689 8.12866 0
M  V30 5974 N 551.331 -1.39911 -0.725443 0
M  V30 5975 C 552.747 -1.21725 -1.03224 0
M  V30 5976 C 552.947 -0.0855224 -2.01318 0
M  V30 5977 O 552.003 0.55976 -2.46217 0
M  V30 5978 C 553.316 -2.55511 -1.58539 0
M  V30 5979 C 554.864 -2.62439 -1.70572 0
M  V30 5980 C 555.339 -3.9647 -2.29294 0
M  V30 5981 N 556.83 -3.98159 -2.36692 0
M  V30 5982 C 557.565 -4.98647 -2.83088 0
M  V30 5983 N 557.061 -6.0953 -3.2931 0
M  V30 5984 N 558.854 -4.8602 -2.82384 0
M  V30 5985 H 551.005 -2.12267 -0.075048 0
M  V30 5986 H 553.268 -0.943136 -0.0959066 0
M  V30 5987 H 552.974 -3.38926 -0.939249 0
M  V30 5988 H 552.848 -2.75905 -2.57208 0
M  V30 5989 H 555.235 -1.79401 -2.34306 0
M  V30 5990 H 555.316 -2.45885 -0.705297 0
M  V30 5991 H 554.96 -4.79942 -1.66186 0
M  V30 5992 H 554.89 -4.10349 -3.30032 0
M  V30 5993 H 557.381 -3.18085 -2.04035 0
M  V30 5994 H 557.694 -6.82106 -3.6325 0
M  V30 5995 H 556.039 -6.1311 -3.27294 0
M  V30 5996 H 559.23 -3.98493 -2.45603 0
M  V30 5997 H 559.403 -5.64478 -3.18226 0
M  V30 5998 N 552.809 0.956637 -1.25245 0
M  V30 5999 C 553.739 2.07058 -1.07931 0
M  V30 6000 C 554.72 1.70096 0.0110361 0
M  V30 6001 O 555.905 1.93555 -0.158121 0
M  V30 6002 C 553.035 3.40272 -0.695124 0
M  V30 6003 C 551.989 3.91235 -1.73549 0
M  V30 6004 C 551.315 5.20921 -1.20604 0
M  V30 6005 C 552.615 4.17837 -3.13385 0
M  V30 6006 H 554.309 2.218 -2.01109 0
M  V30 6007 H 551.855 1.06581 -0.968326 0
M  V30 6008 H 553.808 4.1765 -0.560949 0
M  V30 6009 H 552.532 3.25462 0.272355 0
M  V30 6010 H 551.191 3.16025 -1.85807 0
M  V30 6011 H 550.839 5.02479 -0.228846 0
M  V30 6012 H 550.539 5.55987 -1.90136 0
M  V30 6013 H 552.063 6.00897 -1.08421 0
M  V30 6014 H 553.477 4.8588 -3.04292 0
M  V30 6015 H 551.874 4.64154 -3.80369 0
M  V30 6016 H 552.944 3.2419 -3.60595 0
M  V30 6017 N 554.287 1.06798 1.15896 0
M  V30 6018 C 555.515 0.808694 1.90441 0
M  V30 6019 C 555.93 -0.637506 1.77711 0
M  V30 6020 O 555.287 -1.43684 1.12522 0
M  V30 6021 C 555.338 1.20068 3.40978 0
M  V30 6022 O 555.059 2.59013 3.53333 0
M  V30 6023 C 556.56 0.96987 4.3256 0
M  V30 6024 H 553.78 0.292809 0.603742 0
M  V30 6025 H 556.324 1.42296 1.46874 0
M  V30 6026 H 554.479 0.630842 3.82229 0
M  V30 6027 H 554.893 2.7485 4.46719 0
M  V30 6028 H 556.367 1.29371 5.36626 0
M  V30 6029 H 556.844 -0.0941209 4.39099 0
M  V30 6030 H 557.45 1.52433 3.97044 0
M  V30 6031 N 555.766 -1.3263 0.851289 0
M  V30 6032 C 556.729 -2.27247 0.298541 0
M  V30 6033 C 557.729 -1.51467 -0.539847 0
M  V30 6034 O 558.919 -1.7061 -0.351843 0
M  V30 6035 C 556.051 -3.35964 -0.578004 0
M  V30 6036 H 557.244 -2.7765 1.13359 0
M  V30 6037 H 554.797 -1.43245 0.625354 0
M  V30 6038 H 555.532 -2.90823 -1.435 0
M  V30 6039 H 555.317 -3.92094 0.0220539 0
M  V30 6040 H 556.807 -4.06472 -0.957626 0
M  V30 6041 N 557.244 -0.608902 -1.45362 0
M  V30 6042 C 558.521 -0.0365378 -1.95566 0
M  V30 6043 C 558.901 1.43169 -1.55131 0
M  V30 6044 O 558.249 2.1349 -0.814513 0
M  V30 6045 C 558.459 -0.236026 -3.48201 0
M  V30 6046 C 559.807 -0.117518 -4.24437 0
M  V30 6047 O 560.831 -0.166217 -3.55812 0
M  V30 6048 O 559.69 -0.00372127 -5.465 0
M  V30 6049 H 556.784 0.0349874 -0.82626 0
M  V30 6050 H 559.33 -0.679055 -1.55521 0
M  V30 6051 H 558.102 -1.25569 -3.70605 0
M  V30 6052 H 557.725 0.441691 -3.95139 0
M  V30 6053 N 558.722 1.53707 -0.348139 0
M  V30 6054 C 559.685 2.23812 0.494058 0
M  V30 6055 C 560.685 1.23989 1.02388 0
M  V30 6056 O 561.875 1.48395 0.912396 0
M  V30 6057 C 559.007 2.96133 1.68872 0
M  V30 6058 H 560.2 2.99663 -0.119141 0
M  V30 6059 H 557.753 1.55983 -0.0995539 0
M  V30 6060 H 558.488 2.24481 2.34049 0
M  V30 6061 H 558.273 3.69357 1.31596 0
M  V30 6062 H 559.763 3.49475 2.28597 0
M  V30 6063 N 560.2 0.0768682 1.57412 0
M  V30 6064 C 561.15 -0.898795 2.09537 0
M  V30 6065 C 562.134 -1.25556 1.0062 0
M  V30 6066 O 563.326 -1.23369 1.26921 0
M  V30 6067 C 560.455 -2.16453 2.66464 0
M  V30 6068 C 559.541 -1.83401 3.82393 0
M  V30 6069 N 559.932 -1.20823 4.91157 0
M  V30 6070 C 558.23 -2.13121 3.91785 0
M  V30 6071 C 558.931 -1.05976 5.71965 0
M  V30 6072 N 557.907 -1.57113 5.204 0
M  V30 6073 H 561.709 -0.410718 2.91016 0
M  V30 6074 H 559.223 -0.126878 1.61904 0
M  V30 6075 H 561.22 -2.87274 3.02125 0
M  V30 6076 H 559.88 -2.65844 1.86433 0
M  V30 6077 H 560.891 -0.877249 5.10416 0
M  V30 6078 H 557.568 -2.64854 3.22736 0
M  V30 6079 H 558.958 -0.571809 6.69462 0
M  V30 6080 N 561.678 -1.56367 -0.196722 0
M  V30 6081 C 562.628 -1.9082 -1.24787 0
M  V30 6082 C 563.612 -0.773719 -1.41076 0
M  V30 6083 O 564.804 -1.03655 -1.43474 0
M  V30 6084 C 561.933 -2.24982 -2.59303 0
M  V30 6085 C 561.019 -3.44882 -2.46814 0
M  V30 6086 N 561.41 -4.62835 -2.04003 0
M  V30 6087 C 559.708 -3.48988 -2.77711 0
M  V30 6088 C 560.409 -5.44993 -2.03366 0
M  V30 6089 N 559.385 -4.85356 -2.44807 0
M  V30 6090 H 563.187 -2.79516 -0.908175 0
M  V30 6091 H 560.701 -1.57265 -0.405166 0
M  V30 6092 H 562.698 -2.47848 -3.35227 0
M  V30 6093 H 561.358 -1.37611 -2.94098 0
M  V30 6094 H 562.369 -4.87532 -1.74738 0
M  V30 6095 H 559.046 -2.72029 -3.16712 0
M  V30 6096 H 560.436 -6.49464 -1.72181 0
M  V30 6097 N 563.156 0.464375 -1.50603 0
M  V30 6098 C 564.386 1.23727 -1.65454 0
M  V30 6099 C 564.794 1.86119 -0.340032 0
M  V30 6100 O 564.137 1.70301 0.688706 0
M  V30 6101 C 564.199 2.38153 -2.69301 0
M  V30 6102 C 563.863 1.96345 -4.12671 0
M  V30 6103 C 564.86 1.48215 -4.98326 0
M  V30 6104 C 562.545 2.04861 -4.58625 0
M  V30 6105 C 564.539 1.09152 -6.27985 0
M  V30 6106 C 562.226 1.65409 -5.88288 0
M  V30 6107 C 563.224 1.17634 -6.72794 0
M  V30 6108 O 562.912 0.787312 -8.00035 0
M  V30 6109 H 562.644 0.380075 -0.559034 0
M  V30 6110 H 565.198 0.559919 -1.97621 0
M  V30 6111 H 563.428 3.09081 -2.32392 0
M  V30 6112 H 565.117 3.00099 -2.73304 0
M  V30 6113 H 565.883 1.41052 -4.64036 0
M  V30 6114 H 561.762 2.40996 -3.92991 0
M  V30 6115 H 565.306 0.717909 -6.93896 0
M  V30 6116 H 561.203 1.72233 -6.22098 0
M  V30 6117 H 561.971 0.915567 -8.13363 0
M  V30 6118 N 564.634 1.40294 0.718013 0
M  V30 6119 C 565.564 1.43118 1.84498 0
M  V30 6120 C 566.545 0.292403 1.67568 0
M  V30 6121 O 567.73 0.500675 1.87635 0
M  V30 6122 C 564.86 1.29065 3.22427 0
M  V30 6123 C 563.814 2.40521 3.54025 0
M  V30 6124 C 563.14 2.11546 4.91073 0
M  V30 6125 C 564.44 3.82859 3.55269 0
M  V30 6126 H 566.134 2.37432 1.82391 0
M  V30 6127 H 563.68 1.14283 0.87609 0
M  V30 6128 H 565.633 1.29658 4.00957 0
M  V30 6129 H 564.357 0.312271 3.25104 0
M  V30 6130 H 563.016 2.39173 2.77834 0
M  V30 6131 H 562.664 1.12104 4.90348 0
M  V30 6132 H 562.364 2.86216 5.1318 0
M  V30 6133 H 563.888 2.13817 5.71939 0
M  V30 6134 H 565.302 3.86044 4.23843 0
M  V30 6135 H 563.699 4.57029 3.88902 0
M  V30 6136 H 564.769 4.12617 2.54706 0
M  V30 6137 N 566.112 -0.949982 1.2575 0
M  V30 6138 C 567.352 -1.70994 1.11984 0
M  V30 6139 C 567.716 -1.89095 -0.332746 0
M  V30 6140 O 568.917 -2.62192 -0.592331 0
M  V30 6141 C 567.188 -3.05286 1.85837 0
M  V30 6142 S 568.747 -3.96477 1.88019 0
M  V30 6143 H 565.565 -0.587689 0.400178 0
M  V30 6144 H 568.167 -1.13271 1.59342 0
M  V30 6145 H 566.871 -2.89785 2.90608 0
M  V30 6146 H 566.402 -3.68069 1.38885 0
M  V30 6147 H 568.417 -4.86814 0.96057 0
M  V30 6148 N 567.59 -1.07411 -1.15328 0
M  V30 6149 C 568.537 -0.694995 -2.20087 0
M  V30 6150 C 569.507 0.313904 -1.63107 0
M  V30 6151 O 570.692 0.200216 -1.89747 0
M  V30 6152 C 567.832 -0.0996218 -3.44956 0
M  V30 6153 C 566.945 -1.16007 -4.16133 0
M  V30 6154 C 566.08 -0.529636 -5.28553 0
M  V30 6155 C 565.119 -1.57283 -5.91548 0
M  V30 6156 N 564.256 -0.964932 -6.95438 0
M  V30 6157 H 569.096 -1.5927 -2.51867 0
M  V30 6158 H 566.633 -0.796115 -1.23695 0
M  V30 6159 H 568.591 0.263197 -4.16369 0
M  V30 6160 H 567.221 0.761435 -3.13691 0
M  V30 6161 H 566.273 -1.64045 -3.4321 0
M  V30 6162 H 567.585 -1.95101 -4.59061 0
M  V30 6163 H 566.739 -0.114487 -6.06592 0
M  V30 6164 H 565.478 0.29307 -4.86819 0
M  V30 6165 H 564.483 -1.99775 -5.12221 0
M  V30 6166 H 565.708 -2.39783 -6.35359 0
M  V30 6167 H 563.654 -0.16314 -6.55797 0
M  V30 6168 H 563.571 -1.69311 -7.36797 0
M  V30 6169 H 564.839 -0.575305 -7.77374 0
M  V30 6170 N 569.068 1.32177 -0.85831 0
M  V30 6171 C 569.978 2.32561 -0.308606 0
M  V30 6172 C 570.994 1.64209 0.575462 0
M  V30 6173 O 572.17 1.95719 0.474961 0
M  V30 6174 C 569.235 3.43207 0.490909 0
M  V30 6175 C 568.296 4.27243 -0.419733 0
M  V30 6176 C 567.529 5.32605 0.341719 0
M  V30 6177 O 567.752 5.48332 1.57125 0
M  V30 6178 O 566.686 6.0118 -0.294379 0
M  V30 6179 H 570.512 2.81477 -1.14037 0
M  V30 6180 H 568.097 1.35866 -0.621349 0
M  V30 6181 H 569.979 4.10677 0.944574 0
M  V30 6182 H 568.654 2.96474 1.29941 0
M  V30 6183 H 567.561 3.62569 -0.921652 0
M  V30 6184 H 568.894 4.7751 -1.19352 0
M  V30 6185 N 570.547 0.616602 1.45037 0
M  V30 6186 C 571.793 0.115501 2.02471 0
M  V30 6187 C 572.126 -1.25406 1.4828 0
M  V30 6188 O 571.401 -1.82922 0.661051 0
M  V30 6189 C 571.684 0.0863588 3.59996 0
M  V30 6190 C 571.537 1.48723 4.24501 0
M  V30 6191 C 572.856 -0.596762 4.36035 0
M  V30 6192 H 569.975 0.0434461 0.735718 0
M  V30 6193 H 572.617 0.7903 1.72784 0
M  V30 6194 H 570.767 -0.488277 3.85419 0
M  V30 6195 H 572.439 2.10964 4.10234 0
M  V30 6196 H 570.682 2.04534 3.82555 0
M  V30 6197 H 571.353 1.419 5.3345 0
M  V30 6198 H 573.829 -0.10824 4.15959 0
M  V30 6199 H 572.705 -0.586289 5.4576 0
M  V30 6200 H 572.966 -1.66451 4.09569 0
M  V30 6201 N 572.025 -1.5352 0.356285 0
M  V30 6202 C 572.988 -2.24071 -0.482182 0
M  V30 6203 C 573.988 -1.24531 -1.01729 0
M  V30 6204 O 575.178 -1.48876 -0.904513 0
M  V30 6205 C 572.31 -2.97025 -1.67299 0
M  V30 6206 H 573.503 -2.99596 0.135031 0
M  V30 6207 H 571.056 -1.55928 0.107825 0
M  V30 6208 H 571.791 -2.25719 -2.32855 0
M  V30 6209 H 571.576 -3.7005 -1.29636 0
M  V30 6210 H 573.066 -3.50683 -2.26741 0
M  V30 6211 N 573.503 -0.0852151 -1.57369 0
M  V30 6212 C 574.914 0.445428 -1.81309 0
M  V30 6213 C 575.265 1.68795 -1.00013 0
M  V30 6214 O 574.39 2.15211 -0.226573 0
M  V30 6215 C 574.985 0.814887 -3.28854 0
M  V30 6216 C 573.544 1.29032 -3.53592 0
M  V30 6217 C 572.691 0.282089 -2.75861 0
M  V30 6218 H 575.642 -0.310771 -1.55627 0
M  V30 6219 H 575.663 1.67524 -3.41637 0
M  V30 6220 H 575.175 -0.0896309 -3.87996 0
M  V30 6221 H 573.276 2.21289 -2.9977 0
M  V30 6222 H 573.389 1.25898 -4.62262 0
M  V30 6223 H 571.753 0.762182 -2.43029 0
M  V30 6224 H 572.536 -0.614936 -3.37748 0
M  V30 6225 N 574.981 1.5647 0.188427 0
M  V30 6226 C 576.392 1.70864 0.752494 0
M  V30 6227 C 576.743 0.692905 1.83557 0
M  V30 6228 O 575.868 -0.149307 2.15884 0
M  V30 6229 C 576.463 3.09789 1.37173 0
M  V30 6230 C 575.022 3.25925 1.88281 0
M  V30 6231 C 574.169 2.66817 0.755259 0
M  V30 6232 H 577.12 1.58657 -0.0367408 0
M  V30 6233 H 577.141 3.07489 2.24122 0
M  V30 6234 H 576.653 3.83693 0.583219 0
M  V30 6235 H 574.754 2.56948 2.6983 0
M  V30 6236 H 574.867 4.33498 2.04001 0
M  V30 6237 H 573.231 2.2617 1.17128 0
M  V30 6238 H 574.014 3.43294 -0.0211237 0
M  V30 6239 N 576.459 -0.456382 1.50847 0
M  V30 6240 C 577.422 -1.53493 1.70213 0
M  V30 6241 C 578.422 -1.50264 0.572481 0
M  V30 6242 O 579.612 -1.52623 0.839751 0
M  V30 6243 C 576.744 -2.93091 1.741 0
M  V30 6244 H 577.937 -1.37633 2.66453 0
M  V30 6245 H 575.49 -0.683776 1.4055 0
M  V30 6246 H 576.225 -3.14378 0.796063 0
M  V30 6247 H 576.01 -2.9684 2.5618 0
M  V30 6248 H 577.5 -3.71368 1.90987 0
M  V30 6249 N 577.937 -1.40673 -0.710563 0
M  V30 6250 C 579.183 -1.39428 -1.47267 0
M  V30 6251 C 579.516 0.00182129 -1.942 0
M  V30 6252 O 578.791 0.971387 -1.68506 0
M  V30 6253 C 579.074 -2.38812 -2.6952 0
M  V30 6254 C 578.927 -3.87467 -2.28449 0
M  V30 6255 C 580.246 -2.3566 -3.71689 0
M  V30 6256 H 577.365 -0.507768 -0.534173 0
M  V30 6257 H 580.007 -1.71843 -0.810547 0
M  V30 6258 H 578.157 -2.113 -3.26013 0
M  V30 6259 H 579.829 -4.25825 -1.77399 0
M  V30 6260 H 578.072 -4.03058 -1.60395 0
M  V30 6261 H 578.743 -4.5253 -3.16103 0
M  V30 6262 H 581.219 -2.6004 -3.24836 0
M  V30 6263 H 580.095 -3.07237 -4.54859 0
M  V30 6264 H 580.356 -1.36996 -4.20339 0
M  V30 6265 N 579.415 0.9433 -1.26252 0
M  V30 6266 C 580.345 2.05902 -1.10122 0
M  V30 6267 C 581.326 1.70099 -0.00700552 0
M  V30 6268 O 582.511 1.93377 -0.178641 0
M  V30 6269 C 579.641 3.39516 -0.731175 0
M  V30 6270 C 578.595 3.89372 -1.77688 0
M  V30 6271 C 577.921 5.19613 -1.26122 0
M  V30 6272 C 579.221 4.14489 -3.17799 0
M  V30 6273 H 580.915 2.19655 -2.03451 0
M  V30 6274 H 578.461 1.05548 -0.979576 0
M  V30 6275 H 580.414 4.17031 -0.605215 0
M  V30 6276 H 579.138 3.25733 0.23782 0
M  V30 6277 H 577.797 3.14036 -1.89148 0
M  V30 6278 H 577.445 5.02208 -0.282128 0
M  V30 6279 H 577.145 5.53939 -1.96023 0
M  V30 6280 H 578.669 5.99713 -1.14789 0
M  V30 6281 H 580.083 4.82625 -3.09428 0
M  V30 6282 H 578.48 4.60094 -3.85271 0
M  V30 6283 H 579.55 3.20347 -3.64014 0
M  V30 6284 N 580.893 1.08022 1.14757 0
M  V30 6285 C 581.803 0.718292 2.23333 0
M  V30 6286 C 582.819 -0.273477 1.71837 0
M  V30 6287 O 583.995 -0.118406 2.01052 0
M  V30 6288 C 581.06 0.128855 3.4646 0
M  V30 6289 C 580.121 1.17473 4.12915 0
M  V30 6290 C 579.354 0.61333 5.30164 0
M  V30 6291 O 579.577 -0.568458 5.6756 0
M  V30 6292 O 578.511 1.3615 5.86299 0
M  V30 6293 H 582.337 1.62394 2.56636 0
M  V30 6294 H 579.922 0.853628 1.22611 0
M  V30 6295 H 581.804 -0.197249 4.20938 0
M  V30 6296 H 580.479 -0.750014 3.14891 0
M  V30 6297 H 579.386 1.5533 3.40328 0
M  V30 6298 H 580.719 2.02574 4.48581 0
M  V30 6299 N 582.371 -1.3172 0.865308 0
M  V30 6300 C 583.319 -2.30569 0.306674 0
M  V30 6301 C 584.313 -1.59317 -0.575724 0
M  V30 6302 O 585.519 -1.73961 -0.462343 0
M  V30 6303 H 581.894 -0.747681 0.0804834 0
M  V30 6304 H 583.865 -2.75165 1.15441 0
M  V30 6305 C 582.614 -3.44358 -0.480952 0
M  V30 6306 H 581.937 -3.99354 0.18876 0
M  V30 6307 H 583.377 -4.15652 -0.837241 0
M  V30 6308 C 581.836 -2.92574 -1.67039 0
M  V30 6309 O 582.366 -2.90954 -2.76964 0
M  V30 6310 N 580.572 -2.48835 -1.50097 0
M  V30 6311 H 580.119 -2.50353 -0.606738 0
M  V30 6312 H 580.077 -2.14543 -2.29823 0
M  V30 6313 N 583.85 -0.624285 -1.44708 0
M  V30 6314 C 585.099 -0.123539 -2.01321 0
M  V30 6315 C 585.412 1.25966 -1.49639 0
M  V30 6316 O 586.618 1.85405 -1.98336 0
M  V30 6317 C 585.074 -0.170124 -3.59498 0
M  V30 6318 C 584.682 -1.55421 -4.20176 0
M  V30 6319 C 586.426 0.274513 -4.23611 0
M  V30 6320 C 584.332 -1.55628 -5.70556 0
M  V30 6321 H 583.263 -0.0424183 -0.752806 0
M  V30 6322 H 585.913 -0.782076 -1.65999 0
M  V30 6323 H 584.296 0.555385 -3.92086 0
M  V30 6324 H 585.47 -2.30276 -3.99136 0
M  V30 6325 H 583.784 -1.94235 -3.68323 0
M  V30 6326 H 586.382 0.292402 -5.339 0
M  V30 6327 H 586.725 1.3005 -3.95465 0
M  V30 6328 H 587.258 -0.398275 -3.95801 0
M  V30 6329 H 583.997 -2.56041 -6.03426 0
M  V30 6330 H 583.517 -0.850563 -5.93739 0
M  V30 6331 H 585.196 -1.28721 -6.34066 0
M  V30 6332 N 585.328 1.53329 -0.364422 0
M  V30 6333 C 586.26 2.23286 0.517293 0
M  V30 6334 C 587.273 1.24657 1.04711 0
M  V30 6335 O 588.462 1.50887 0.95369 0
M  V30 6336 C 585.562 2.91604 1.72685 0
M  V30 6337 C 584.735 4.1673 1.32873 0
M  V30 6338 C 583.794 4.68269 2.40022 0
M  V30 6339 O 582.82 5.31976 2.02461 0
M  V30 6340 N 584.022 4.45983 3.7159 0
M  V30 6341 H 586.787 2.99588 -0.0819391 0
M  V30 6342 H 584.348 1.60787 -0.189544 0
M  V30 6343 H 586.34 3.22992 2.4384 0
M  V30 6344 H 584.91 2.18763 2.23297 0
M  V30 6345 H 584.13 3.91657 0.447069 0
M  V30 6346 H 585.418 4.98078 1.03902 0
M  V30 6347 H 584.816 3.95077 4.04883 0
M  V30 6348 H 583.373 4.81924 4.38854 0
M  V30 6349 N 586.806 0.0935595 1.57322 0
M  V30 6350 C 588.031 -0.582324 1.99057 0
M  V30 6351 C 588.456 -1.61025 0.972242 0
M  V30 6352 O 587.814 -1.81202 -0.0594622 0
M  V30 6353 C 587.862 -1.20799 3.39765 0
M  V30 6354 O 586.966 -2.32382 3.40694 0
M  V30 6355 H 586.307 -0.147884 0.647323 0
M  V30 6356 H 588.837 0.174516 2.03854 0
M  V30 6357 H 588.847 -1.54966 3.77425 0
M  V30 6358 H 587.522 -0.454914 4.13405 0
M  V30 6359 H 586.099 -1.99845 3.14827 0
M  V30 6360 N 588.284 -1.56567 -0.180126 0
M  V30 6361 C 589.232 -1.96632 -1.24251 0
M  V30 6362 C 590.226 -0.853818 -1.46309 0
M  V30 6363 O 591.432 -1.0389 -1.46993 0
M  V30 6364 H 587.807 -0.625476 -0.417473 0
M  V30 6365 H 589.778 -2.85201 -0.877679 0
M  V30 6366 C 588.527 -2.33486 -2.57642 0
M  V30 6367 H 587.85 -3.18626 -2.4149 0
M  V30 6368 H 589.29 -2.65371 -3.30688 0
M  V30 6369 C 587.749 -1.17499 -3.15746 0
M  V30 6370 O 588.279 -0.457956 -3.99081 0
M  V30 6371 N 586.485 -0.94786 -2.74707 0
M  V30 6372 H 586.032 -1.53269 -2.07042 0
M  V30 6373 H 585.99 -0.173626 -3.1392 0
M  V30 6374 N 589.762 0.448376 -1.51087 0
M  V30 6375 C 591.002 1.20832 -1.64861 0
M  V30 6376 C 591.366 1.88748 -0.351873 0
M  V30 6377 O 592.567 2.66307 -0.365265 0
M  V30 6378 C 590.838 2.20674 -2.81137 0
M  V30 6379 S 592.397 3.05303 -3.15176 0
M  V30 6380 H 589.215 0.40992 -0.580936 0
M  V30 6381 H 591.817 0.501624 -1.88955 0
M  V30 6382 H 590.521 1.69399 -3.73808 0
M  V30 6383 H 590.052 2.9594 -2.59198 0
M  V30 6384 H 592.067 4.22162 -2.60756 0
M  V30 6385 N 591.24 1.41047 0.703093 0
M  V30 6386 C 592.19 1.38774 1.80903 0
M  V30 6387 C 593.174 0.263275 1.58731 0
M  V30 6388 O 594.366 0.503362 1.69692 0
M  V30 6389 C 591.495 1.26497 3.19145 0
M  V30 6390 C 590.581 2.43775 3.47037 0
M  V30 6391 N 590.972 3.69249 3.45672 0
M  V30 6392 C 589.27 2.37425 3.77552 0
M  V30 6393 C 589.971 4.46989 3.72258 0
M  V30 6394 N 588.947 3.76998 3.91629 0
M  V30 6395 H 592.749 2.33714 1.78199 0
M  V30 6396 H 590.263 1.34996 0.902762 0
M  V30 6397 H 592.26 1.2295 3.98358 0
M  V30 6398 H 590.92 0.32534 3.23066 0
M  V30 6399 H 591.931 4.02239 3.26228 0
M  V30 6400 H 588.608 1.51895 3.88888 0
M  V30 6401 H 589.998 5.55894 3.77402 0
M  V30 6402 N 592.718 -0.936591 1.26751 0
M  V30 6403 C 593.966 -1.67998 1.12343 0
M  V30 6404 C 594.287 -1.92137 -0.332938 0
M  V30 6405 O 593.557 -1.52132 -1.23421 0
M  V30 6406 H 592.137 -0.622609 0.412756 0
M  V30 6407 H 594.799 -1.12509 1.59147 0
M  V30 6408 H 593.895 -2.65185 1.64571 0
M  V30 6409 N 594.196 -1.08629 -1.14182 0
M  V30 6410 C 595.607 -0.838003 -1.66836 0
M  V30 6411 C 595.958 0.634885 -1.85644 0
M  V30 6412 O 595.083 1.49008 -1.56926 0
M  V30 6413 C 595.678 -1.51465 -3.03058 0
M  V30 6414 C 594.237 -1.31355 -3.52736 0
M  V30 6415 C 593.384 -1.57599 -2.28162 0
M  V30 6416 H 596.335 -1.24656 -0.982165 0
M  V30 6417 H 596.356 -0.943134 -3.68626 0
M  V30 6418 H 595.868 -2.58661 -2.89337 0
M  V30 6419 H 593.969 -0.262384 -3.71675 0
M  V30 6420 H 594.082 -2.04275 -4.33369 0
M  V30 6421 H 592.446 -0.997659 -2.34348 0
M  V30 6422 H 593.229 -2.66006 -2.17015 0
M  V30 6423 N 595.674 1.31259 -0.872281 0
M  V30 6424 C 596.923 1.95893 -0.480493 0
M  V30 6425 C 597.236 1.697 0.972688 0
M  V30 6426 O 598.442 2.28214 1.47073 0
M  V30 6427 C 596.898 3.50705 -0.808342 0
M  V30 6428 C 596.506 3.85735 -2.27844 0
M  V30 6429 C 598.25 4.21719 -0.485136 0
M  V30 6430 C 596.157 5.33668 -2.54858 0
M  V30 6431 H 595.087 0.733182 -0.175955 0
M  V30 6432 H 597.738 1.49396 -1.0655 0
M  V30 6433 H 596.12 3.95706 -0.152558 0
M  V30 6434 H 597.294 3.51686 -2.97748 0
M  V30 6435 H 595.609 3.27792 -2.56791 0
M  V30 6436 H 598.206 5.30559 -0.664166 0
M  V30 6437 H 598.549 4.12316 0.574592 0
M  V30 6438 H 599.082 3.82359 -1.09756 0
M  V30 6439 H 595.821 5.48109 -3.59523 0
M  V30 6440 H 595.341 5.69061 -1.8955 0
M  V30 6441 H 597.02 6.00958 -2.39706 0
M  V30 6442 N 597.152 0.631951 1.44375 0
M  V30 6443 C 598.377 0.142146 2.06912 0
M  V30 6444 C 598.802 -1.17456 1.4692 0
M  V30 6445 O 598.16 -1.72074 0.570975 0
M  V30 6446 C 598.208 0.0417952 3.60576 0
M  V30 6447 O 597.312 -1.00194 4.00044 0
M  V30 6448 H 596.653 0.0851491 0.658518 0
M  V30 6449 H 599.183 0.868863 1.85235 0
M  V30 6450 H 599.193 -0.148517 4.0773 0
M  V30 6451 H 597.868 1.0031 4.03622 0
M  V30 6452 H 596.445 -0.786131 3.64519 0
M  V30 6453 N 598.631 -1.53133 0.372548 0
M  V30 6454 C 599.564 -2.22328 -0.514361 0
M  V30 6455 C 600.542 -1.21776 -1.07747 0
M  V30 6456 O 601.726 -1.50704 -1.13228 0
M  V30 6457 C 598.853 -2.92343 -1.71035 0
M  V30 6458 C 597.899 -4.07026 -1.27405 0
M  V30 6459 S 598.732 -5.34821 -0.269526 0
M  V30 6460 C 599.888 -6.08352 -1.47168 0
M  V30 6461 H 600.121 -2.9721 0.0732683 0
M  V30 6462 H 597.654 -1.53603 0.156673 0
M  V30 6463 H 599.612 -3.33296 -2.39634 0
M  V30 6464 H 598.273 -2.17173 -2.26925 0
M  V30 6465 H 597.466 -4.55056 -2.16656 0
M  V30 6466 H 597.068 -3.68001 -0.66719 0
M  V30 6467 H 599.36 -6.33507 -2.40157 0
M  V30 6468 H 600.303 -7.0053 -1.03263 0
M  V30 6469 H 600.711 -5.38893 -1.6809 0
M  V30 6470 N 600.109 -0.101901 -1.5727 0
M  V30 6471 C 601.386 0.602832 -1.86079 0
M  V30 6472 C 601.766 1.85912 -1 0
M  V30 6473 O 601.114 2.28379 -0.0742488 0
M  V30 6474 C 601.324 0.911694 -3.36881 0
M  V30 6475 C 602.672 1.2722 -4.05093 0
M  V30 6476 O 603.696 1.0025 -3.41802 0
M  V30 6477 O 602.555 1.7776 -5.16782 0
M  V30 6478 H 599.649 0.302366 -0.769743 0
M  V30 6479 H 602.195 -0.135113 -1.69161 0
M  V30 6480 H 600.967 0.0207256 -3.91295 0
M  V30 6481 H 600.59 1.70538 -3.59169 0
M  V30 6482 N 601.587 1.56661 0.17182 0
M  V30 6483 C 602.834 1.81965 0.888529 0
M  V30 6484 C 603.162 0.6789 1.82267 0
M  V30 6485 O 602.417 -0.333875 1.92831 0
M  V30 6486 C 602.716 3.13435 1.71736 0
M  V30 6487 C 602.382 4.41159 0.932184 0
M  V30 6488 C 601.044 4.75851 0.715481 0
M  V30 6489 C 603.396 5.19803 0.381387 0
M  V30 6490 C 600.724 5.86666 -0.063126 0
M  V30 6491 C 603.076 6.31433 -0.384129 0
M  V30 6492 C 601.74 6.64692 -0.611637 0
M  V30 6493 H 601.01 0.665859 0.325136 0
M  V30 6494 H 603.657 1.90884 0.153495 0
M  V30 6495 H 601.962 2.99857 2.52177 0
M  V30 6496 H 603.659 3.30224 2.27493 0
M  V30 6497 H 600.249 4.13947 1.11112 0
M  V30 6498 H 604.433 4.93396 0.536148 0
M  V30 6499 H 599.689 6.10892 -0.249136 0
M  V30 6500 H 603.863 6.91577 -0.818185 0
M  V30 6501 H 601.49 7.50398 -1.21684 0
M  V30 6502 N 603.065 -0.440357 1.51323 0
M  V30 6503 C 604.028 -1.51679 1.71832 0
M  V30 6504 C 605.028 -1.49648 0.588386 0
M  V30 6505 O 606.218 -1.51724 0.855891 0
M  V30 6506 C 603.35 -2.91228 1.77199 0
M  V30 6507 H 604.543 -1.34799 2.67898 0
M  V30 6508 H 602.096 -0.66883 1.41267 0
M  V30 6509 H 602.831 -3.13516 0.829363 0
M  V30 6510 H 602.616 -2.94107 2.59314 0
M  V30 6511 H 604.106 -3.69321 1.94915 0
M  V30 6512 N 604.543 -1.41418 -0.695603 0
M  V30 6513 C 605.792 -1.40073 -1.4513 0
M  V30 6514 C 606.105 -0.0130439 -1.95596 0
M  V30 6515 O 607.311 0.123032 -2.71221 0
M  V30 6516 C 605.767 -2.46286 -2.62433 0
M  V30 6517 C 605.375 -3.90962 -2.18753 0
M  V30 6518 C 607.119 -2.54077 -3.40066 0
M  V30 6519 C 605.026 -4.88728 -3.33015 0
M  V30 6520 H 603.956 -0.520903 -0.545138 0
M  V30 6521 H 606.607 -1.67242 -0.75515 0
M  V30 6522 H 604.989 -2.12248 -3.34315 0
M  V30 6523 H 606.163 -4.34248 -1.54161 0
M  V30 6524 H 604.478 -3.86831 -1.54114 0
M  V30 6525 H 607.075 -3.24303 -4.25125 0
M  V30 6526 H 607.418 -1.5776 -3.8525 0
M  V30 6527 H 607.951 -2.87206 -2.75241 0
M  V30 6528 H 604.69 -5.86449 -2.92844 0
M  V30 6529 H 604.21 -4.50091 -3.96457 0
M  V30 6530 H 605.889 -5.09483 -3.98793 0
M  V30 6531 N 606.021 0.929856 -1.27246 0
M  V30 6532 C 607.246 1.71674 -1.16374 0
M  V30 6533 C 607.671 1.86064 0.276024 0
M  V30 6534 O 607.029 1.3591 1.19992 0
M  V30 6535 C 607.077 3.09526 -1.85003 0
M  V30 6536 O 606.181 3.96142 -1.14653 0
M  V30 6537 H 605.522 0.52629 -0.404863 0
M  V30 6538 H 608.052 1.16381 -1.68276 0
M  V30 6539 H 608.062 3.59852 -1.92276 0
M  V30 6540 H 606.737 2.98369 -2.89739 0
M  V30 6541 H 605.314 3.54584 -1.15433 0
M  V30 6542 N 607.499 1.09233 1.13605 0
M  V30 6543 C 608.446 0.729921 2.18954 0
M  V30 6544 C 609.416 -0.287916 1.63586 0
M  V30 6545 O 610.601 -0.170003 1.90041 0
M  V30 6546 C 607.741 0.154489 3.44754 0
M  V30 6547 C 606.854 1.22613 4.14234 0
M  V30 6548 C 605.989 0.613657 5.27644 0
M  V30 6549 C 605.028 1.66674 5.8897 0
M  V30 6550 N 604.165 1.07545 6.93814 0
M  V30 6551 H 609.005 1.63257 2.49302 0
M  V30 6552 H 606.542 0.815693 1.22413 0
M  V30 6553 H 608.5 -0.196923 4.16735 0
M  V30 6554 H 607.13 -0.711433 3.14863 0
M  V30 6555 H 606.182 1.69485 3.40557 0
M  V30 6556 H 607.494 2.0238 4.55899 0
M  V30 6557 H 606.648 0.210976 6.06333 0
M  V30 6558 H 605.387 -0.215584 4.87223 0
M  V30 6559 H 604.392 2.07899 5.08978 0
M  V30 6560 H 605.617 2.49861 6.31464 0
M  V30 6561 H 603.563 0.267451 6.55455 0
M  V30 6562 H 603.48 1.81011 7.3401 0
M  V30 6563 H 604.748 0.698906 7.7636 0
M  V30 6564 N 608.977 -1.30795 0.87923 0
M  V30 6565 C 609.907 -2.30742 0.357796 0
M  V30 6566 C 610.888 -1.60747 -0.556283 0
M  V30 6567 O 612.073 -1.88393 -0.47135 0
M  V30 6568 C 609.203 -3.44583 -0.433555 0
M  V30 6569 C 608.157 -4.26235 0.388251 0
M  V30 6570 C 607.483 -5.32073 -0.529352 0
M  V30 6571 C 608.783 -4.96303 1.62729 0
M  V30 6572 H 610.477 -2.74605 1.19299 0
M  V30 6573 H 608.023 -1.32017 0.575104 0
M  V30 6574 H 609.976 -4.13563 -0.808934 0
M  V30 6575 H 608.7 -2.99511 -1.30234 0
M  V30 6576 H 607.359 -3.58936 0.745695 0
M  V30 6577 H 607.007 -4.83249 -1.39569 0
M  V30 6578 H 606.707 -5.87598 0.0166741 0
M  V30 6579 H 608.231 -6.0391 -0.901373 0
M  V30 6580 H 609.645 -5.5783 1.32283 0
M  V30 6581 H 608.042 -5.61666 2.11309 0
M  V30 6582 H 609.112 -4.22758 2.37494 0
M  V30 6583 N 610.455 -0.639598 -1.44038 0
M  V30 6584 C 611.402 0.0602458 -2.30721 0
M  V30 6585 C 612.372 0.828352 -1.43971 0
M  V30 6586 O 613.557 0.807693 -1.72861 0
M  V30 6587 C 610.697 1.03008 -3.29368 0
M  V30 6588 C 609.81 0.259502 -4.3122 0
M  V30 6589 C 608.945 1.22191 -5.16955 0
M  V30 6590 C 607.984 0.440978 -6.10509 0
M  V30 6591 N 607.121 1.35428 -6.88915 0
M  V30 6592 H 611.961 -0.684867 -2.90023 0
M  V30 6593 H 609.498 -0.349509 -1.42888 0
M  V30 6594 H 611.456 1.60583 -3.85057 0
M  V30 6595 H 610.086 1.74222 -2.71747 0
M  V30 6596 H 609.138 -0.432317 -3.77935 0
M  V30 6597 H 610.45 -0.348347 -4.97582 0
M  V30 6598 H 609.604 1.86873 -5.77203 0
M  V30 6599 H 608.343 1.86367 -4.50687 0
M  V30 6600 H 607.348 -0.219279 -5.49363 0
M  V30 6601 H 608.573 -0.196192 -6.78817 0
M  V30 6602 H 606.519 1.9831 -6.25307 0
M  V30 6603 H 606.436 0.800657 -7.51748 0
M  V30 6604 H 607.704 1.98967 -7.53679 0
M  V30 6605 N 611.933 1.52934 -0.380664 0
M  V30 6606 C 612.88 2.26197 0.458641 0
M  V30 6607 C 613.85 1.27462 1.06502 0
M  V30 6608 O 615.035 1.56274 1.09467 0
M  V30 6609 C 612.175 3.06571 1.58456 0
M  V30 6610 C 611.288 4.20222 1.00189 0
M  V30 6611 C 610.423 4.88007 2.09815 0
M  V30 6612 C 609.462 5.93665 1.49092 0
M  V30 6613 N 608.599 6.55081 2.52613 0
M  V30 6614 H 613.439 2.975 -0.172595 0
M  V30 6615 H 610.976 1.4678 -0.0969426 0
M  V30 6616 H 612.934 3.51455 2.24801 0
M  V30 6617 H 611.564 2.37494 2.18624 0
M  V30 6618 H 610.616 3.79714 0.228292 0
M  V30 6619 H 611.928 4.96102 0.518064 0
M  V30 6620 H 611.082 5.36151 2.83948 0
M  V30 6621 H 609.821 4.11632 2.61555 0
M  V30 6622 H 608.826 5.44868 0.7348 0
M  V30 6623 H 610.051 6.71969 0.981582 0
M  V30 6624 H 607.997 5.8155 3.03538 0
M  V30 6625 H 607.914 7.26548 2.08961 0
M  V30 6626 H 609.182 7.07871 3.26402 0
M  V30 6627 N 613.412 0.11024 1.57214 0
M  V30 6628 C 614.375 -0.828808 2.1369 0
M  V30 6629 C 615.375 -1.20059 1.06969 0
M  V30 6630 O 616.565 -1.12754 1.32786 0
M  V30 6631 C 613.697 -2.11959 2.66994 0
M  V30 6632 H 614.89 -0.338146 2.97988 0
M  V30 6633 H 612.443 -0.138913 1.55681 0
M  V30 6634 H 613.178 -2.65476 1.8626 0
M  V30 6635 H 612.963 -1.86258 3.45037 0
M  V30 6636 H 614.453 -2.79105 3.10629 0
M  V30 6637 N 614.89 -1.56749 -0.16351 0
M  V30 6638 C 616.138 -1.82074 -0.87713 0
M  V30 6639 C 616.459 -0.688503 -1.82441 0
M  V30 6640 O 615.729 0.291085 -1.93725 0
M  V30 6641 H 614.309 -0.671677 -0.326893 0
M  V30 6642 H 616.971 -1.9423 -0.161459 0
M  V30 6643 H 616.067 -2.76407 -1.44934 0
M  V30 6644 N 616.368 0.432326 -1.51554 0
M  V30 6645 C 617.316 1.54572 -1.73811 0
M  V30 6646 C 618.31 1.58246 -0.604539 0
M  V30 6647 O 619.516 1.6193 -0.786041 0
M  V30 6648 H 615.891 0.513626 -0.549265 0
M  V30 6649 H 617.862 1.32977 -2.67132 0
M  V30 6650 C 616.611 2.92181 -1.88483 0
M  V30 6651 H 615.934 2.90088 -2.75116 0
M  V30 6652 H 617.374 3.69439 -2.08065 0
M  V30 6653 C 615.833 3.3065 -0.645909 0
M  V30 6654 O 616.363 4.01216 0.197093 0
M  V30 6655 N 614.569 2.86464 -0.488538 0
M  V30 6656 H 614.116 2.29209 -1.17562 0
M  V30 6657 H 614.074 3.12565 0.339156 0
M  V30 6658 N 617.846 1.41785 0.688094 0
M  V30 6659 C 618.778 1.40159 1.81351 0
M  V30 6660 C 619.791 0.30262 1.59963 0
M  V30 6661 O 620.98 0.564841 1.69327 0
M  V30 6662 C 618.08 1.16517 3.1824 0
M  V30 6663 C 617.253 2.38597 3.66593 0
M  V30 6664 C 616.312 2.10699 4.82174 0
M  V30 6665 O 615.338 2.83798 4.93404 0
M  V30 6666 N 616.54 1.10187 5.69947 0
M  V30 6667 H 619.305 2.3716 1.83236 0
M  V30 6668 H 616.866 1.36494 0.870697 0
M  V30 6669 H 618.858 0.957941 3.93199 0
M  V30 6670 H 617.428 0.280873 3.11336 0
M  V30 6671 H 616.648 2.74974 2.82459 0
M  V30 6672 H 617.936 3.19919 3.95638 0
M  V30 6673 H 617.334 0.497016 5.63512 0
M  V30 6674 H 615.891 0.954518 6.44773 0
M  V30 6675 N 619.324 -0.923095 1.27737 0
M  V30 6676 C 620.552 -1.70525 1.17171 0
M  V30 6677 C 620.967 -1.86847 -0.270881 0
M  V30 6678 O 620.324 -1.38879 -1.18401 0
M  V30 6679 C 620.375 -3.10242 1.85559 0
M  V30 6680 O 620.096 -2.94683 3.24182 0
M  V30 6681 C 621.597 -4.04586 1.81176 0
M  V30 6682 H 618.817 -0.533347 0.407163 0
M  V30 6683 H 621.361 -1.15599 1.68692 0
M  V30 6684 H 619.516 -3.62014 1.3793 0
M  V30 6685 H 619.93 -3.83045 3.58297 0
M  V30 6686 H 621.404 -5.00119 2.33633 0
M  V30 6687 H 621.881 -4.3218 0.782099 0
M  V30 6688 H 622.487 -3.58741 2.2844 0
M  V30 6689 N 620.802 -1.09834 -1.13024 0
M  V30 6690 C 622.05 -0.835297 -1.8403 0
M  V30 6691 C 622.371 0.640944 -1.84165 0
M  V30 6692 O 621.641 1.46517 -1.30037 0
M  V30 6693 H 620.221 -0.306018 -0.681441 0
M  V30 6694 H 622.883 -1.38734 -1.36891 0
M  V30 6695 H 621.979 -1.19258 -2.88416 0
M  V30 6696 N 622.28 1.30327 -0.886154 0
M  V30 6697 C 623.21 2.30549 -0.370028 0
M  V30 6698 C 624.191 1.61039 0.547751 0
M  V30 6699 O 625.376 1.8864 0.461353 0
M  V30 6700 C 622.506 3.44808 0.415275 0
M  V30 6701 C 621.46 4.26024 -0.41085 0
M  V30 6702 C 620.786 5.32347 0.501128 0
M  V30 6703 C 622.086 4.95433 -1.65359 0
M  V30 6704 H 623.78 2.73969 -1.20754 0
M  V30 6705 H 621.326 1.3171 -0.582097 0
M  V30 6706 H 623.279 4.13986 0.78699 0
M  V30 6707 H 622.003 3.00197 1.28644 0
M  V30 6708 H 620.662 3.58535 -0.764719 0
M  V30 6709 H 620.31 4.83982 1.37004 0
M  V30 6710 H 620.01 5.87581 -0.0478356 0
M  V30 6711 H 621.534 6.0438 0.869333 0
M  V30 6712 H 622.948 5.5712 -1.35239 0
M  V30 6713 H 621.345 5.60537 -2.14284 0
M  V30 6714 H 622.415 4.21493 -2.39733 0
M  V30 6715 N 623.758 0.647228 1.43697 0
M  V30 6716 C 624.988 0.16551 2.05936 0
M  V30 6717 C 625.396 -1.17164 1.48557 0
M  V30 6718 O 624.739 -1.73307 0.60914 0
M  V30 6719 C 624.801 -0.00648082 3.59499 0
M  V30 6720 C 624.465 1.25503 4.39429 0
M  V30 6721 C 625.462 2.18241 4.71876 0
M  V30 6722 C 623.147 1.49494 4.79538 0
M  V30 6723 C 625.141 3.33268 5.43333 0
M  V30 6724 C 622.828 2.64815 5.50742 0
M  V30 6725 C 623.826 3.56528 5.82561 0
M  V30 6726 O 623.514 4.69836 6.52311 0
M  V30 6727 H 623.246 0.0844124 0.670709 0
M  V30 6728 H 625.8 0.88638 1.8529 0
M  V30 6729 H 624.03 -0.782661 3.78697 0
M  V30 6730 H 625.719 -0.444794 4.03456 0
M  V30 6731 H 626.485 2.00946 4.41413 0
M  V30 6732 H 622.364 0.789912 4.54182 0
M  V30 6733 H 625.908 4.04874 5.68087 0
M  V30 6734 H 621.805 2.82047 5.8062 0
M  V30 6735 H 622.573 4.69024 6.70789 0
M  V30 6736 N 625.236 -1.5273 0.388769 0
M  V30 6737 C 626.482 -2.01871 -0.193877 0
M  V30 6738 C 626.815 -1.27475 -1.46505 0
M  V30 6739 O 626.09 -0.375063 -1.90849 0
M  V30 6740 C 626.373 -3.5712 -0.462336 0
M  V30 6741 C 626.226 -4.42186 0.824091 0
M  V30 6742 C 627.545 -4.21881 -1.25319 0
M  V30 6743 H 624.664 -0.733764 -0.0689899 0
M  V30 6744 H 627.306 -1.82796 0.518231 0
M  V30 6745 H 625.456 -3.73504 -1.06896 0
M  V30 6746 H 627.128 -4.37554 1.46096 0
M  V30 6747 H 625.371 -4.09219 1.43952 0
M  V30 6748 H 626.042 -5.48828 0.590905 0
M  V30 6749 H 628.518 -4.0947 -0.73981 0
M  V30 6750 H 627.394 -5.30487 -1.40977 0
M  V30 6751 H 627.655 -3.79478 -2.26824 0
M  V30 6752 N 626.714 -0.118576 -1.57153 0
M  V30 6753 C 627.644 0.828436 -2.1831 0
M  V30 6754 C 628.625 1.27758 -1.12303 0
M  V30 6755 O 629.81 1.34026 -1.40537 0
M  V30 6756 C 626.94 2.07876 -2.78217 0
M  V30 6757 C 625.894 1.76742 -3.89803 0
M  V30 6758 C 625.22 3.08801 -4.36516 0
M  V30 6759 C 626.52 1.03606 -5.11921 0
M  V30 6760 H 628.214 0.318824 -2.97698 0
M  V30 6761 H 625.76 0.151911 -1.43196 0
M  V30 6762 H 627.713 2.74584 -3.19659 0
M  V30 6763 H 626.437 2.61161 -1.96118 0
M  V30 6764 H 625.096 1.12424 -3.48936 0
M  V30 6765 H 624.744 3.6002 -3.51276 0
M  V30 6766 H 624.444 2.88743 -5.11763 0
M  V30 6767 H 625.968 3.76627 -4.80608 0
M  V30 6768 H 627.382 1.60467 -5.50385 0
M  V30 6769 H 625.779 0.936454 -5.92748 0
M  V30 6770 H 626.849 0.0227421 -4.84895 0
M  V30 6771 N 628.193 1.56834 0.155195 0
M  V30 6772 C 629.609 1.51315 0.50755 0
M  V30 6773 C 629.809 0.825614 1.83809 0
M  V30 6774 O 628.865 0.39271 2.49427 0
M  V30 6775 C 630.178 2.96074 0.52542 0
M  V30 6776 C 631.726 3.06968 0.611505 0
M  V30 6777 C 632.201 4.53218 0.660115 0
M  V30 6778 N 633.692 4.5753 0.722564 0
M  V30 6779 C 634.427 5.68056 0.781023 0
M  V30 6780 N 633.923 6.88173 0.799327 0
M  V30 6781 N 635.716 5.56068 0.821278 0
M  V30 6782 H 627.867 1.9993 -0.717063 0
M  V30 6783 H 630.13 0.911507 -0.260496 0
M  V30 6784 H 629.836 3.49599 -0.383875 0
M  V30 6785 H 629.71 3.51587 1.36624 0
M  V30 6786 H 632.097 2.53468 1.51122 0
M  V30 6787 H 632.178 2.54513 -0.256306 0
M  V30 6788 H 631.822 5.07354 -0.23541 0
M  V30 6789 H 631.752 5.03447 1.5443 0
M  V30 6790 H 634.243 3.71054 0.716049 0
M  V30 6791 H 634.556 7.6816 0.845553 0
M  V30 6792 H 632.901 6.90751 0.767337 0
M  V30 6793 H 636.092 4.61142 0.804091 0
M  V30 6794 H 636.265 6.42223 0.863372 0
M  V30 6795 N 629.671 -0.424282 1.51781 0
M  V30 6796 C 630.911 -1.18194 1.66762 0
M  V30 6797 C 631.275 -1.88164 0.381857 0
M  V30 6798 O 632.476 -2.65692 0.407586 0
M  V30 6799 C 630.747 -2.16173 2.84612 0
M  V30 6800 S 632.306 -3.0025 3.19993 0
M  V30 6801 H 629.124 -0.400626 0.587384 0
M  V30 6802 H 631.726 -0.471499 1.89729 0
M  V30 6803 H 630.43 -1.6343 3.76455 0
M  V30 6804 H 629.961 -2.91778 2.63873 0
M  V30 6805 H 631.976 -4.1796 2.67439 0
M  V30 6806 N 631.149 -1.42148 -0.680565 0
M  V30 6807 C 632.374 -1.45901 -1.47403 0
M  V30 6808 C 632.799 -0.0700985 -1.87969 0
M  V30 6809 O 632.157 0.930145 -1.55621 0
M  V30 6810 C 632.205 -2.38661 -2.70321 0
M  V30 6811 O 631.309 -1.85399 -3.68376 0
M  V30 6812 H 630.65 -0.494565 -0.443059 0
M  V30 6813 H 633.18 -1.86774 -0.835251 0
M  V30 6814 H 633.19 -2.55046 -3.18458 0
M  V30 6815 H 631.865 -3.39571 -2.40134 0
M  V30 6816 H 630.442 -1.78541 -3.2738 0
M  V30 6817 N 632.627 0.916307 -1.28225 0
M  V30 6818 C 634.038 1.48024 -1.13779 0
M  V30 6819 C 634.389 1.94289 0.273139 0
M  V30 6820 O 633.514 1.82226 1.16716 0
M  V30 6821 C 634.109 2.69029 -2.05935 0
M  V30 6822 C 632.668 3.2161 -1.95561 0
M  V30 6823 C 631.815 1.94321 -1.97825 0
M  V30 6824 H 634.766 0.729272 -1.40951 0
M  V30 6825 H 634.787 3.44204 -1.62184 0
M  V30 6826 H 634.299 2.35325 -3.08616 0
M  V30 6827 H 632.4 3.60045 -0.959076 0
M  V30 6828 H 632.513 3.87032 -2.82388 0
M  V30 6829 H 630.877 2.1131 -1.42198 0
M  V30 6830 H 631.66 1.62917 -3.0218 0
M  V30 6831 N 634.105 1.10431 1.1244 0
M  V30 6832 C 635.052 0.753103 2.18167 0
M  V30 6833 C 636.022 -0.270549 1.63882 0
M  V30 6834 O 637.207 -0.149837 1.90211 0
M  V30 6835 C 634.347 0.191046 3.44571 0
M  V30 6836 C 633.46 1.26999 4.12911 0
M  V30 6837 C 632.595 0.669586 5.26963 0
M  V30 6838 C 631.634 1.72912 5.87169 0
M  V30 6839 N 630.771 1.14898 6.92635 0
M  V30 6840 H 635.611 1.65892 2.47556 0
M  V30 6841 H 633.148 0.828631 1.21541 0
M  V30 6842 H 635.106 -0.152712 4.1692 0
M  V30 6843 H 633.736 -0.677997 3.15599 0
M  V30 6844 H 632.788 1.73087 3.3874 0
M  V30 6845 H 634.1 2.07204 4.53727 0
M  V30 6846 H 633.254 0.275274 6.06075 0
M  V30 6847 H 631.993 -0.163895 4.87425 0
M  V30 6848 H 630.998 2.13286 5.06744 0
M  V30 6849 H 632.223 2.56544 6.28778 0
M  V30 6850 H 630.169 0.336956 6.55134 0
M  V30 6851 H 630.086 1.88786 7.32049 0
M  V30 6852 H 631.354 0.78121 7.75576 0
M  V30 6853 N 635.583 -1.29855 0.893053 0
M  V30 6854 C 636.86 -1.90694 0.435336 0
M  V30 6855 C 637.24 -1.8111 -1.08454 0
M  V30 6856 O 636.588 -1.23352 -1.92345 0
M  V30 6857 C 636.798 -3.36033 0.942472 0
M  V30 6858 C 638.146 -4.13083 0.982226 0
M  V30 6859 O 639.17 -3.4491 0.889686 0
M  V30 6860 O 638.029 -5.34896 1.12022 0
M  V30 6861 H 635.123 -0.815978 0.134567 0
M  V30 6862 H 637.669 -1.38367 0.982484 0
M  V30 6863 H 636.441 -3.37132 1.9864 0
M  V30 6864 H 636.064 -3.95828 0.374952 0
M  V30 6865 N 637.061 -0.65484 -1.43351 0
M  V30 6866 C 638.308 -0.168892 -2.01794 0
M  V30 6867 C 638.636 1.2177 -1.51665 0
M  V30 6868 O 637.891 1.82717 -0.70092 0
M  V30 6869 C 638.19 -0.130424 -3.57162 0
M  V30 6870 C 637.856 -1.45898 -4.26643 0
M  V30 6871 C 636.518 -1.82279 -4.4534 0
M  V30 6872 C 638.87 -2.33485 -4.65976 0
M  V30 6873 C 636.198 -3.0591 -5.00635 0
M  V30 6874 C 638.55 -3.5641 -5.22642 0
M  V30 6875 C 637.214 -3.92985 -5.39555 0
M  V30 6876 H 636.484 -0.061802 -0.738418 0
M  V30 6877 H 639.131 -0.845869 -1.71806 0
M  V30 6878 H 637.436 0.630008 -3.86702 0
M  V30 6879 H 639.133 0.262465 -4.0014 0
M  V30 6880 H 635.723 -1.16591 -4.12437 0
M  V30 6881 H 639.907 -2.06668 -4.51223 0
M  V30 6882 H 635.163 -3.34295 -5.11915 0
M  V30 6883 H 639.337 -4.24495 -5.52066 0
M  V30 6884 H 636.964 -4.88862 -5.82167 0
M  V30 6885 N 638.539 1.52521 -0.396863 0
M  V30 6886 C 639.487 2.28217 0.44943 0
M  V30 6887 C 640.481 1.32416 1.05652 0
M  V30 6888 O 641.687 1.49925 0.996124 0
M  V30 6889 H 638.062 0.733966 0.1637 0
M  V30 6890 H 640.033 2.97658 -0.210367 0
M  V30 6891 C 638.782 3.10713 1.56054 0
M  V30 6892 H 638.105 3.84291 1.10273 0
M  V30 6893 H 639.545 3.66803 2.12677 0
M  V30 6894 C 638.004 2.23499 2.52091 0
M  V30 6895 O 638.534 1.8669 3.55682 0
M  V30 6896 N 636.74 1.8751 2.2201 0
M  V30 6897 H 636.287 2.17643 1.37802 0
M  V30 6898 H 636.245 1.29448 2.86514 0
M  V30 6899 N 640.017 0.126909 1.57088 0
M  V30 6900 C 640.964 -0.82036 2.15728 0
M  V30 6901 C 641.934 -1.25811 1.08447 0
M  V30 6902 O 643.119 -1.33422 1.36393 0
M  V30 6903 C 640.259 -2.06199 2.76724 0
M  V30 6904 C 639.372 -1.67188 3.98337 0
M  V30 6905 C 638.507 -2.86378 4.47393 0
M  V30 6906 C 637.546 -2.43644 5.61519 0
M  V30 6907 N 636.683 -3.55775 6.05284 0
M  V30 6908 H 641.523 -0.313472 2.96347 0
M  V30 6909 H 639.06 -0.14303 1.46403 0
M  V30 6910 H 641.018 -2.78959 3.10222 0
M  V30 6911 H 639.648 -2.54333 1.98782 0
M  V30 6912 H 638.7 -0.842714 3.70948 0
M  V30 6913 H 640.012 -1.31789 4.81075 0
M  V30 6914 H 639.166 -3.67353 4.82842 0
M  V30 6915 H 637.905 -3.25009 3.63621 0
M  V30 6916 H 636.91 -1.61104 5.25667 0
M  V30 6917 H 638.135 -2.06122 6.47063 0
M  V30 6918 H 636.081 -3.94065 5.24451 0
M  V30 6919 H 635.998 -3.24325 6.82898 0
M  V30 6920 H 637.266 -4.37166 6.45373 0
M  V30 6921 N 641.495 -1.56914 -0.146875 0
M  V30 6922 C 642.725 -1.87243 -0.873126 0
M  V30 6923 C 643.133 -0.713127 -1.75246 0
M  V30 6924 O 642.476 0.326228 -1.8078 0
M  V30 6925 C 642.538 -3.12279 -1.78107 0
M  V30 6926 C 642.202 -4.44082 -1.07889 0
M  V30 6927 C 643.199 -5.18096 -0.432734 0
M  V30 6928 C 640.884 -4.90807 -1.06836 0
M  V30 6929 C 642.878 -6.37039 0.214569 0
M  V30 6930 C 640.565 -6.09674 -0.417243 0
M  V30 6931 C 641.563 -6.82636 0.223093 0
M  V30 6932 O 641.251 -7.99245 0.863884 0
M  V30 6933 H 640.983 -0.624896 -0.257839 0
M  V30 6934 H 643.537 -2.04892 -0.14434 0
M  V30 6935 H 641.767 -2.90639 -2.5508 0
M  V30 6936 H 643.456 -3.28854 -2.37929 0
M  V30 6937 H 644.222 -4.83066 -0.432677 0
M  V30 6938 H 640.101 -4.3394 -1.55618 0
M  V30 6939 H 643.645 -6.93927 0.714965 0
M  V30 6940 H 639.542 -6.44165 -0.414967 0
M  V30 6941 H 640.31 -8.14912 0.765564 0
M  V30 6942 N 642.974 0.416227 -1.52004 0
M  V30 6943 C 644.221 1.16383 -1.65714 0
M  V30 6944 C 644.549 1.9068 -0.383594 0
M  V30 6945 O 643.804 1.85174 0.633185 0
M  V30 6946 C 644.103 2.18923 -2.82502 0
M  V30 6947 C 643.769 1.61485 -4.20991 0
M  V30 6948 C 642.431 1.45545 -4.58661 0
M  V30 6949 C 644.783 1.19468 -5.07323 0
M  V30 6950 C 642.111 0.860937 -5.80349 0
M  V30 6951 C 644.463 0.614386 -6.29609 0
M  V30 6952 C 643.127 0.442056 -6.66035 0
M  V30 6953 H 642.397 0.425875 -0.606392 0
M  V30 6954 H 645.044 0.45199 -1.8609 0
M  V30 6955 H 643.349 2.96225 -2.56433 0
M  V30 6956 H 645.046 2.76628 -2.90307 0
M  V30 6957 H 641.636 1.74873 -3.91302 0
M  V30 6958 H 645.82 1.30596 -4.78809 0
M  V30 6959 H 641.076 0.715372 -6.072 0
M  V30 6960 H 645.25 0.280393 -6.95835 0
M  V30 6961 H 642.877 -0.0207218 -7.60197 0
M  V30 6962 N 644.452 1.42507 0.673017 0
M  V30 6963 C 645.382 1.48916 1.79851 0
M  V30 6964 C 646.363 0.345566 1.66553 0
M  V30 6965 O 647.548 0.560116 1.85947 0
M  V30 6966 C 644.678 1.39258 3.18158 0
M  V30 6967 C 643.632 2.51662 3.46194 0
M  V30 6968 C 642.958 2.27062 4.84094 0
M  V30 6969 C 644.258 3.93968 3.42909 0
M  V30 6970 H 645.952 2.43114 1.74745 0
M  V30 6971 H 643.498 1.17013 0.839288 0
M  V30 6972 H 645.451 1.42349 3.96629 0
M  V30 6973 H 644.175 0.415542 3.23946 0
M  V30 6974 H 642.834 2.47891 2.70084 0
M  V30 6975 H 642.482 1.27648 4.86534 0
M  V30 6976 H 642.182 3.02398 5.03815 0
M  V30 6977 H 643.706 2.31905 5.64847 0
M  V30 6978 H 645.12 3.99332 4.11347 0
M  V30 6979 H 643.517 4.6917 3.74165 0
M  V30 6980 H 644.587 4.20512 2.41449 0
M  V30 6981 N 645.93 -0.909495 1.28709 0
M  V30 6982 C 647.158 -1.69272 1.18973 0
M  V30 6983 C 647.573 -1.87123 -0.251048 0
M  V30 6984 O 646.93 -1.40127 -1.16922 0
M  V30 6985 C 646.981 -3.08257 1.88839 0
M  V30 6986 O 646.702 -2.91228 3.27289 0
M  V30 6987 C 648.203 -4.02642 1.85457 0
M  V30 6988 H 645.423 -0.528999 0.412797 0
M  V30 6989 H 647.967 -1.13803 1.69909 0
M  V30 6990 H 646.122 -3.6053 1.41762 0
M  V30 6991 H 646.536 -3.79223 3.6234 0
M  V30 6992 H 648.01 -4.97613 2.38925 0
M  V30 6993 H 648.487 -4.31327 0.827893 0
M  V30 6994 H 649.093 -3.56298 2.32233 0
M  V30 6995 N 647.408 -1.11026 -1.11852 0
M  V30 6996 C 648.655 -0.85646 -1.83497 0
M  V30 6997 C 648.983 0.617938 -1.84423 0
M  V30 6998 O 648.238 1.47194 -1.28966 0
M  V30 6999 C 648.537 -1.35777 -3.30604 0
M  V30 7000 C 648.203 -2.84465 -3.49843 0
M  V30 7001 C 646.865 -3.25068 -3.54802 0
M  V30 7002 C 649.217 -3.80251 -3.56453 0
M  V30 7003 C 646.545 -4.60194 -3.63921 0
M  V30 7004 C 648.897 -5.15188 -3.67102 0
M  V30 7005 C 647.561 -5.55356 -3.70319 0
M  V30 7006 H 646.831 -0.313401 -0.671462 0
M  V30 7007 H 649.478 -1.38792 -1.31943 0
M  V30 7008 H 647.783 -0.746455 -3.84624 0
M  V30 7009 H 649.48 -1.13779 -3.8452 0
M  V30 7010 H 646.07 -2.52054 -3.46651 0
M  V30 7011 H 650.254 -3.49986 -3.51886 0
M  V30 7012 H 645.51 -4.90728 -3.64686 0
M  V30 7013 H 649.684 -5.89248 -3.71159 0
M  V30 7014 H 647.311 -6.60054 -3.77138 0
M  V30 7015 N 648.886 1.2938 -0.899927 0
M  V30 7016 C 649.849 2.25983 -0.382677 0
M  V30 7017 C 650.849 1.53366 0.483259 0
M  V30 7018 O 652.039 1.71798 0.28828 0
M  V30 7019 C 649.171 3.37878 0.452915 0
M  V30 7020 H 650.364 2.73252 -1.23586 0
M  V30 7021 H 647.917 1.40825 -0.678088 0
M  V30 7022 H 648.652 2.95949 1.32608 0
M  V30 7023 H 648.437 3.91742 -0.167562 0
M  V30 7024 H 649.927 4.09746 0.806107 0
M  V30 7025 N 650.364 0.662433 1.43002 0
M  V30 7026 C 651.61 0.179857 2.02001 0
M  V30 7027 C 651.943 -1.20625 1.52195 0
M  V30 7028 O 651.218 -1.80726 0.718911 0
M  V30 7029 C 651.501 0.200845 3.59539 0
M  V30 7030 C 651.354 1.62153 4.19555 0
M  V30 7031 C 652.673 -0.457738 4.37713 0
M  V30 7032 H 649.792 0.0668305 0.733964 0
M  V30 7033 H 652.434 0.84487 1.70182 0
M  V30 7034 H 650.584 -0.365411 3.86778 0
M  V30 7035 H 652.256 2.23908 4.03315 0
M  V30 7036 H 650.499 2.16601 3.75854 0
M  V30 7037 H 651.17 1.58799 5.28665 0
M  V30 7038 H 653.646 0.0241495 4.16093 0
M  V30 7039 H 652.522 -0.412363 5.47349 0
M  V30 7040 H 652.783 -1.53336 4.14657 0
M  V30 7041 N 651.842 -1.52309 0.404946 0
M  V30 7042 C 652.752 -2.30634 -0.429555 0
M  V30 7043 C 653.768 -1.38187 -1.05737 0
M  V30 7044 O 654.944 -1.71261 -1.05979 0
M  V30 7045 C 652.009 -3.10947 -1.53339 0
M  V30 7046 C 651.07 -4.19126 -0.929065 0
M  V30 7047 C 650.303 -4.95601 -1.9803 0
M  V30 7048 O 650.526 -4.72331 -3.1978 0
M  V30 7049 O 649.46 -5.80551 -1.58886 0
M  V30 7050 H 653.286 -3.0298 0.208963 0
M  V30 7051 H 650.871 -1.4845 0.168255 0
M  V30 7052 H 652.753 -3.60974 -2.1743 0
M  V30 7053 H 651.428 -2.41399 -2.15658 0
M  V30 7054 H 650.335 -3.73257 -0.250982 0
M  V30 7055 H 651.668 -4.90955 -0.349855 0
M  V30 7056 N 653.32 -0.135238 -1.57019 0
M  V30 7057 C 654.736 0.221262 -1.58059 0
M  V30 7058 C 654.936 1.65538 -1.14889 0
M  V30 7059 O 653.992 2.37985 -0.843751 0
M  V30 7060 C 655.305 -0.0268114 -3.00688 0
M  V30 7061 C 656.853 0.0378206 -3.12977 0
M  V30 7062 C 657.328 -0.182769 -4.57635 0
M  V30 7063 N 658.819 -0.129292 -4.6302 0
M  V30 7064 C 659.554 -0.274648 -5.72742 0
M  V30 7065 N 659.05 -0.477075 -6.91155 0
M  V30 7066 N 660.843 -0.213077 -5.61696 0
M  V30 7067 H 652.994 -1.07177 -1.83376 0
M  V30 7068 H 655.257 -0.423338 -0.848227 0
M  V30 7069 H 654.963 -1.01889 -3.36618 0
M  V30 7070 H 654.837 0.697863 -3.70688 0
M  V30 7071 H 657.224 1.02043 -2.76896 0
M  V30 7072 H 657.305 -0.718996 -2.45487 0
M  V30 7073 H 656.949 -1.16243 -4.94419 0
M  V30 7074 H 656.879 0.59423 -5.23237 0
M  V30 7075 H 659.37 0.0229896 -3.77893 0
M  V30 7076 H 659.683 -0.578413 -7.70632 0
M  V30 7077 H 658.028 -0.513252 -6.93102 0
M  V30 7078 H 661.219 -0.0557796 -4.68067 0
M  V30 7079 H 661.392 -0.329796 -6.4716 0
M  V30 7080 N 654.798 1.5699 0.138552 0
M  V30 7081 C 655.708 2.02174 1.19008 0
M  V30 7082 C 656.724 0.938622 1.46512 0
M  V30 7083 O 657.9 1.24872 1.58016 0
M  V30 7084 C 654.965 2.40045 2.50159 0
M  V30 7085 C 654.026 3.62346 2.30226 0
M  V30 7086 C 653.259 3.98401 3.55123 0
M  V30 7087 O 653.482 3.35019 4.61647 0
M  V30 7088 O 652.416 4.91606 3.47285 0
M  V30 7089 H 656.242 2.91954 0.836452 0
M  V30 7090 H 653.827 1.45293 0.347907 0
M  V30 7091 H 655.709 2.65225 3.27465 0
M  V30 7092 H 654.384 1.53417 2.85035 0
M  V30 7093 H 653.291 3.42341 1.50843 0
M  V30 7094 H 654.624 4.49617 2.00262 0
M  V30 7095 N 656.276 -0.40816 1.52223 0
M  V30 7096 C 657.224 -1.51788 1.76248 0
M  V30 7097 C 658.218 -1.57264 0.629638 0
M  V30 7098 O 659.424 -1.60659 0.811704 0
M  V30 7099 H 655.799 -0.504823 0.557367 0
M  V30 7100 H 657.77 -1.2871 2.69214 0
M  V30 7101 C 656.519 -2.89145 1.93107 0
M  V30 7102 H 655.842 -2.85674 2.79697 0
M  V30 7103 H 657.282 -3.66082 2.13916 0
M  V30 7104 C 655.741 -3.29581 0.698431 0
M  V30 7105 O 656.271 -4.01479 -0.133238 0
M  V30 7106 N 654.477 -2.85651 0.53405 0
M  V30 7107 H 654.024 -2.2731 1.21194 0
M  V30 7108 H 653.982 -3.13065 -0.289387 0
M  V30 7109 N 657.755 -1.42862 -0.66545 0
M  V30 7110 C 659.001 -1.44043 -1.42757 0
M  V30 7111 C 659.334 -0.0599629 -1.94107 0
M  V30 7112 O 658.609 0.917286 -1.71511 0
M  V30 7113 C 658.892 -2.47266 -2.61786 0
M  V30 7114 C 658.745 -3.94539 -2.16007 0
M  V30 7115 C 660.064 -2.47365 -3.64003 0
M  V30 7116 H 657.183 -0.524506 -0.517748 0
M  V30 7117 H 659.825 -1.74335 -0.755466 0
M  V30 7118 H 657.975 -2.21565 -3.19126 0
M  V30 7119 H 659.647 -4.31254 -1.63762 0
M  V30 7120 H 657.89 -4.07957 -1.47491 0
M  V30 7121 H 658.561 -4.62357 -3.01546 0
M  V30 7122 H 661.037 -2.70243 -3.16399 0
M  V30 7123 H 659.913 -3.21552 -4.44854 0
M  V30 7124 H 660.174 -1.50299 -4.15767 0
M  V30 7125 N 659.233 0.902656 -1.29189 0
M  V30 7126 C 660.482 1.6475 -1.16362 0
M  V30 7127 C 660.795 1.93517 0.284682 0
M  V30 7128 O 662.001 2.66192 0.534229 0
M  V30 7129 C 660.457 2.96848 -2.03493 0
M  V30 7130 C 660.065 2.75687 -3.5313 0
M  V30 7131 C 661.809 3.74762 -1.99383 0
M  V30 7132 C 659.716 4.03492 -4.32375 0
M  V30 7133 H 658.646 0.618041 -0.431904 0
M  V30 7134 H 661.297 1.0008 -1.53806 0
M  V30 7135 H 659.679 3.62715 -1.58916 0
M  V30 7136 H 660.853 2.18431 -4.05739 0
M  V30 7137 H 659.168 2.11171 -3.58881 0
M  V30 7138 H 661.765 4.69515 -2.5585 0
M  V30 7139 H 662.108 4.04767 -0.973123 0
M  V30 7140 H 662.641 3.15732 -2.41988 0
M  V30 7141 H 659.38 3.78656 -5.3507 0
M  V30 7142 H 658.9 4.60318 -3.84535 0
M  V30 7143 H 660.579 4.71662 -4.42881 0
M  V30 7144 N 660.711 1.11618 1.11262 0
M  V30 7145 C 661.621 0.78898 2.20935 0
M  V30 7146 C 662.637 -0.21867 1.7262 0
M  V30 7147 O 663.813 -0.0543826 2.01327 0
M  V30 7148 C 660.878 0.239014 3.45875 0
M  V30 7149 C 659.939 1.3055 4.08968 0
M  V30 7150 C 659.172 0.781687 5.27944 0
M  V30 7151 O 659.395 -0.387605 5.69082 0
M  V30 7152 O 658.329 1.54734 5.81671 0
M  V30 7153 H 662.155 1.70477 2.51339 0
M  V30 7154 H 659.74 0.892203 1.19834 0
M  V30 7155 H 661.622 -0.0632312 4.21353 0
M  V30 7156 H 660.297 -0.649454 3.17118 0
M  V30 7157 H 659.204 1.66079 3.35214 0
M  V30 7158 H 660.537 2.16743 4.41909 0
M  V30 7159 N 662.189 -1.289 0.906776 0
M  V30 7160 C 663.419 -1.99112 0.551168 0
M  V30 7161 C 663.827 -1.67998 -0.870243 0
M  V30 7162 O 663.17 -0.92525 -1.58697 0
M  V30 7163 C 663.232 -3.53162 0.672065 0
M  V30 7164 C 662.896 -4.07849 2.06174 0
M  V30 7165 C 663.893 -4.22212 3.0337 0
M  V30 7166 C 661.578 -4.4271 2.37304 0
M  V30 7167 C 663.572 -4.70678 4.29815 0
M  V30 7168 C 661.259 -4.90871 3.6399 0
M  V30 7169 C 662.257 -5.04811 4.6006 0
M  V30 7170 O 661.945 -5.51925 5.84495 0
M  V30 7171 H 661.677 -0.642728 0.209469 0
M  V30 7172 H 664.231 -1.65234 1.22012 0
M  V30 7173 H 662.461 -3.86662 -0.05394 0
M  V30 7174 H 664.15 -4.046 0.324579 0
M  V30 7175 H 664.916 -3.9556 2.80637 0
M  V30 7176 H 660.795 -4.31114 1.63283 0
M  V30 7177 H 664.339 -4.81474 5.04806 0
M  V30 7178 H 660.236 -5.16961 3.86551 0
M  V30 7179 H 661.004 -5.70225 5.87185 0
M  V30 7180 N 663.667 -0.670007 -1.42649 0
M  V30 7181 C 664.614 0.0112928 -2.30797 0
M  V30 7182 C 665.584 0.797627 -1.45695 0
M  V30 7183 O 666.769 0.770845 -1.74535 0
M  V30 7184 C 663.909 0.95998 -3.31479 0
M  V30 7185 C 663.022 0.167975 -4.31673 0
M  V30 7186 C 662.157 1.11198 -5.19431 0
M  V30 7187 C 661.196 0.311381 -6.11307 0
M  V30 7188 N 660.333 1.20784 -6.91633 0
M  V30 7189 H 665.173 -0.746231 -2.88505 0
M  V30 7190 H 662.71 -0.379739 -1.42114 0
M  V30 7191 H 664.668 1.52379 -3.88377 0
M  V30 7192 H 663.298 1.68419 -2.75382 0
M  V30 7193 H 662.35 -0.512385 -3.76933 0
M  V30 7194 H 663.662 -0.453814 -4.96731 0
M  V30 7195 H 662.816 1.74587 -5.81037 0
M  V30 7196 H 661.555 1.76766 -4.54538 0
M  V30 7197 H 660.56 -0.335758 -5.48774 0
M  V30 7198 H 661.785 -0.340135 -6.78248 0
M  V30 7199 H 659.731 1.85001 -6.29373 0
M  V30 7200 H 659.648 0.64102 -7.53277 0
M  V30 7201 H 660.916 1.82936 -7.5773 0
M  V30 7202 N 665.145 1.52092 -0.413018 0
M  V30 7203 C 666.095 2.23947 0.427993 0
M  V30 7204 C 667.079 1.25229 1.01027 0
M  V30 7205 O 668.271 1.50448 0.932444 0
M  V30 7206 C 665.4 3.0672 1.542 0
M  V30 7207 C 664.486 4.12851 0.970307 0
M  V30 7208 N 664.877 5.05644 0.125611 0
M  V30 7209 C 663.175 4.28404 1.24042 0
M  V30 7210 C 663.876 5.8138 -0.192876 0
M  V30 7211 N 662.852 5.41996 0.417273 0
M  V30 7212 H 666.654 2.93048 -0.223628 0
M  V30 7213 H 664.168 1.60852 -0.223664 0
M  V30 7214 H 666.165 3.56754 2.15714 0
M  V30 7215 H 664.825 2.39159 2.19621 0
M  V30 7216 H 665.836 5.17348 -0.238995 0
M  V30 7217 H 662.513 3.72071 1.89391 0
M  V30 7218 H 663.903 6.66129 -0.878762 0
M  V30 7219 N 666.623 0.143563 1.56945 0
M  V30 7220 C 667.863 -0.511198 1.97904 0
M  V30 7221 C 668.227 -1.62262 1.0264 0
M  V30 7222 O 669.428 -2.338 1.32631 0
M  V30 7223 C 667.699 -1.00753 3.42905 0
M  V30 7224 S 669.258 -1.66737 4.05887 0
M  V30 7225 H 666.076 -0.165399 0.691494 0
M  V30 7226 H 668.678 0.234464 1.94089 0
M  V30 7227 H 667.382 -0.187817 4.0997 0
M  V30 7228 H 666.913 -1.7879 3.50425 0
M  V30 7229 H 668.928 -2.95444 3.98657 0
M  V30 7230 N 668.101 -1.57061 -0.130224 0
M  V30 7231 C 669.031 -2.02552 -1.16168 0
M  V30 7232 C 670.012 -0.907971 -1.4384 0
M  V30 7233 O 671.197 -1.17693 -1.54473 0
M  V30 7234 C 668.327 -2.42035 -2.49071 0
M  V30 7235 C 667.281 -3.5713 -2.35886 0
M  V30 7236 C 666.607 -3.82478 -3.7365 0
M  V30 7237 C 667.907 -4.89236 -1.8288 0
M  V30 7238 H 669.601 -2.8897 -0.783359 0
M  V30 7239 H 667.147 -1.39021 -0.375376 0
M  V30 7240 H 669.1 -2.72462 -3.21469 0
M  V30 7241 H 667.824 -1.52573 -2.88771 0
M  V30 7242 H 666.483 -3.26895 -1.65938 0
M  V30 7243 H 666.131 -2.9024 -4.10816 0
M  V30 7244 H 665.831 -4.59944 -3.65685 0
M  V30 7245 H 667.355 -4.15347 -4.47571 0
M  V30 7246 H 668.769 -5.18272 -2.45085 0
M  V30 7247 H 667.166 -5.70624 -1.85763 0
M  V30 7248 H 668.236 -4.78494 -0.785571 0
M  V30 7249 N 669.579 0.400081 -1.52437 0
M  V30 7250 C 670.828 1.14332 -1.66166 0
M  V30 7251 C 671.141 1.91419 -0.402253 0
M  V30 7252 O 672.347 2.6824 -0.419487 0
M  V30 7253 C 670.803 2.08137 -2.9361 0
M  V30 7254 C 670.411 1.36524 -4.26691 0
M  V30 7255 C 672.155 2.82664 -3.16703 0
M  V30 7256 C 670.062 2.29031 -5.45251 0
M  V30 7257 H 668.992 0.430499 -0.61902 0
M  V30 7258 H 671.643 0.407017 -1.78929 0
M  V30 7259 H 670.025 2.85358 -2.74567 0
M  V30 7260 H 671.199 0.646061 -4.56249 0
M  V30 7261 H 669.514 0.74002 -4.09771 0
M  V30 7262 H 672.111 3.52037 -4.0246 0
M  V30 7263 H 672.454 3.46122 -2.31312 0
M  V30 7264 H 672.987 2.12541 -3.36261 0
M  V30 7265 H 669.726 1.70206 -6.33017 0
M  V30 7266 H 669.246 2.98896 -5.2002 0
M  V30 7267 H 670.925 2.89359 -5.78689 0
M  V30 7268 N 671.057 1.43213 0.657864 0
M  V30 7269 C 672.285 1.48015 1.44566 0
M  V30 7270 C 672.7 0.0965951 1.88553 0
M  V30 7271 O 672.057 -0.892221 1.59203 0
M  V30 7272 C 672.108 2.42199 2.68369 0
M  V30 7273 O 671.829 3.75173 2.26223 0
M  V30 7274 C 673.33 2.56195 3.61772 0
M  V30 7275 H 670.55 0.502861 0.444266 0
M  V30 7276 H 673.094 1.87907 0.806917 0
M  V30 7277 H 671.249 2.05514 3.28394 0
M  V30 7278 H 671.663 4.25776 3.06293 0
M  V30 7279 H 673.137 3.26182 4.4532 0
M  V30 7280 H 673.614 1.60534 4.0881 0
M  V30 7281 H 674.22 2.93671 3.07632 0
M  V30 7282 N 672.536 -0.895792 1.29666 0
M  V30 7283 C 673.483 -2.00035 1.15129 0
M  V30 7284 C 674.453 -1.66043 0.0435819 0
M  V30 7285 O 675.638 -1.89621 0.211811 0
M  V30 7286 C 672.778 -3.34774 0.83787 0
M  V30 7287 C 671.891 -3.81525 2.0264 0
M  V30 7288 C 671.026 -5.04858 1.65201 0
M  V30 7289 C 670.065 -5.43988 2.80612 0
M  V30 7290 N 669.202 -6.58507 2.43544 0
M  V30 7291 H 674.042 -2.11802 2.09628 0
M  V30 7292 H 671.579 -1.03719 1.04311 0
M  V30 7293 H 673.537 -4.12311 0.636824 0
M  V30 7294 H 672.167 -3.22724 -0.0702314 0
M  V30 7295 H 671.219 -2.9999 2.33903 0
M  V30 7296 H 672.531 -4.06472 2.89106 0
M  V30 7297 H 671.685 -5.8999 1.41408 0
M  V30 7298 H 670.424 -4.81759 0.758893 0
M  V30 7299 H 669.429 -4.57388 3.05083 0
M  V30 7300 H 670.654 -5.69066 3.70595 0
M  V30 7301 H 668.6 -6.37004 1.56724 0
M  V30 7302 H 668.517 -6.83269 3.23542 0
M  V30 7303 H 669.785 -7.46897 2.2308 0
M  V30 7304 N 674.014 -1.12206 -1.10668 0
M  V30 7305 C 674.962 -0.782918 -2.19028 0
M  V30 7306 C 675.956 0.229175 -1.67843 0
M  V30 7307 O 677.162 0.0876295 -1.79787 0
M  V30 7308 H 673.537 -0.235339 -0.714227 0
M  V30 7309 H 675.508 -1.70527 -2.44874 0
M  V30 7310 C 674.257 -0.25116 -3.46792 0
M  V30 7311 H 673.58 -1.02123 -3.86537 0
M  V30 7312 H 675.02 -0.0521409 -4.23968 0
M  V30 7313 C 673.479 1.02037 -3.21076 0
M  V30 7314 O 674.009 2.09862 -3.42522 0
M  V30 7315 N 672.215 0.946348 -2.74759 0
M  V30 7316 H 671.762 0.068777 -2.57508 0
M  V30 7317 H 671.72 1.79775 -2.57931 0
M  V30 7318 N 675.492 1.28418 -0.913599 0
M  V30 7319 C 676.402 2.31043 -0.406965 0
M  V30 7320 C 677.418 1.66501 0.505298 0
M  V30 7321 O 678.594 1.97558 0.391522 0
M  V30 7322 C 675.659 3.4498 0.344901 0
M  V30 7323 C 674.72 4.25078 -0.600563 0
M  V30 7324 C 673.953 5.33575 0.115516 0
M  V30 7325 O 674.176 5.54503 1.33727 0
M  V30 7326 O 673.11 5.9939 -0.549095 0
M  V30 7327 H 676.936 2.76387 -1.25873 0
M  V30 7328 H 674.521 1.33109 -0.678415 0
M  V30 7329 H 676.403 4.14314 0.769542 0
M  V30 7330 H 675.078 3.01719 1.1725 0
M  V30 7331 H 673.985 3.58334 -1.0746 0
M  V30 7332 H 675.318 4.72018 -1.39497 0
M  V30 7333 N 676.97 0.677563 1.42291 0
M  V30 7334 C 677.918 -0.0106755 2.32598 0
M  V30 7335 C 678.912 -0.787643 1.49975 0
M  V30 7336 O 680.118 -0.695295 1.66029 0
M  V30 7337 H 676.493 -0.0222482 0.751671 0
M  V30 7338 H 678.464 0.768312 2.88339 0
M  V30 7339 C 677.213 -0.946142 3.3458 0
M  V30 7340 H 676.536 -0.357701 3.98197 0
M  V30 7341 H 677.976 -1.39634 4.00348 0
M  V30 7342 C 676.435 -2.05383 2.67057 0
M  V30 7343 O 676.965 -3.1406 2.50458 0
M  V30 7344 N 675.171 -1.82635 2.26038 0
M  V30 7345 H 674.718 -0.942534 2.39737 0
M  V30 7346 H 674.676 -2.56937 1.81192 0
M  V30 7347 N 678.448 -1.51871 0.421078 0
M  V30 7348 C 679.358 -2.31077 -0.405069 0
M  V30 7349 C 680.374 -1.39301 -1.04265 0
M  V30 7350 O 681.55 -1.72376 -1.04157 0
M  V30 7351 C 678.615 -3.12556 -1.50032 0
M  V30 7352 C 677.676 -4.20088 -0.884559 0
M  V30 7353 C 676.909 -4.97673 -1.92762 0
M  V30 7354 O 677.132 -4.75696 -3.14753 0
M  V30 7355 O 676.066 -5.82203 -1.52719 0
M  V30 7356 H 679.892 -3.02742 0.241086 0
M  V30 7357 H 677.477 -1.48263 0.183991 0
M  V30 7358 H 679.359 -3.6326 -2.13589 0
M  V30 7359 H 678.034 -2.43672 -2.13086 0
M  V30 7360 H 676.941 -3.73502 -0.211379 0
M  V30 7361 H 678.274 -4.91298 -0.297763 0
M  V30 7362 N 679.926 -0.151884 -1.56866 0
M  V30 7363 C 680.836 0.798876 -2.20579 0
M  V30 7364 C 681.852 1.268 -1.19154 0
M  V30 7365 O 683.028 1.32418 -1.51748 0
M  V30 7366 C 680.093 2.01861 -2.81874 0
M  V30 7367 C 679.154 1.59825 -3.9844 0
M  V30 7368 C 678.387 2.75984 -4.56802 0
M  V30 7369 O 678.61 3.92331 -4.14044 0
M  V30 7370 O 677.544 2.51175 -5.46987 0
M  V30 7371 H 681.37 0.2865 -3.02346 0
M  V30 7372 H 678.955 0.0753806 -1.4921 0
M  V30 7373 H 680.837 2.73235 -3.20813 0
M  V30 7374 H 679.512 2.52042 -2.03117 0
M  V30 7375 H 678.419 0.854601 -3.64208 0
M  V30 7376 H 679.752 1.14355 -4.78731 0
M  V30 7377 N 681.404 1.57128 0.121893 0
M  V30 7378 C 682.634 1.88609 0.843227 0
M  V30 7379 C 683.042 0.740917 1.74089 0
M  V30 7380 O 682.385 -0.297426 1.81276 0
M  V30 7381 C 682.447 3.15073 1.73117 0
M  V30 7382 C 682.111 4.45742 1.0081 0
M  V30 7383 C 683.108 5.18719 0.350255 0
M  V30 7384 C 680.793 4.92444 0.99014 0
M  V30 7385 C 682.787 6.36617 -0.315889 0
M  V30 7386 C 680.474 6.10261 0.320196 0
M  V30 7387 C 681.472 6.82194 -0.331666 0
M  V30 7388 O 681.16 7.97769 -0.990927 0
M  V30 7389 H 680.892 0.628919 0.247865 0
M  V30 7390 H 683.446 2.05096 0.111725 0
M  V30 7391 H 681.676 2.9466 2.50424 0
M  V30 7392 H 683.365 3.32597 2.32667 0
M  V30 7393 H 684.131 4.83693 0.35577 0
M  V30 7394 H 680.01 4.36361 1.48695 0
M  V30 7395 H 683.554 6.92701 -0.825272 0
M  V30 7396 H 679.451 6.44743 0.312433 0
M  V30 7397 H 680.219 8.13591 -0.895113 0
M  V30 7398 N 682.882 -0.391992 1.52647 0
M  V30 7399 C 683.83 -1.4991 1.77848 0
M  V30 7400 C 684.824 -1.56587 0.646282 0
M  V30 7401 O 686.03 -1.59789 0.828698 0
M  V30 7402 H 682.405 -0.498883 0.56269 0
M  V30 7403 H 684.376 -1.25847 2.70564 0
M  V30 7404 C 683.125 -2.87081 1.96163 0
M  V30 7405 H 682.448 -2.82692 2.82711 0
M  V30 7406 H 683.888 -3.63792 2.17787 0
M  V30 7407 C 682.347 -3.28822 0.733348 0
M  V30 7408 O 682.877 -4.01598 -0.0906481 0
M  V30 7409 N 681.083 -2.85068 0.564317 0
M  V30 7410 H 680.63 -2.26012 1.23598 0
M  V30 7411 H 680.588 -3.13355 -0.256166 0
M  V30 7412 N 684.36 -1.4356 -0.65026 0
M  V30 7413 C 685.29 -1.51758 -1.77459 0
M  V30 7414 C 686.271 -0.372019 -1.65982 0
M  V30 7415 O 687.456 -0.589627 -1.85033 0
M  V30 7416 C 684.586 -1.44302 -3.15902 0
M  V30 7417 C 683.54 -2.57138 -3.42146 0
M  V30 7418 C 682.866 -2.34735 -4.8042 0
M  V30 7419 C 684.166 -3.99373 -3.36598 0
M  V30 7420 H 685.86 -2.45863 -1.70855 0
M  V30 7421 H 683.406 -1.18333 -0.820566 0
M  V30 7422 H 685.359 -1.48641 -3.94314 0
M  V30 7423 H 684.083 -0.467026 -3.23244 0
M  V30 7424 H 682.742 -2.52157 -2.66106 0
M  V30 7425 H 682.39 -1.35372 -4.84441 0
M  V30 7426 H 682.09 -3.10375 -4.9894 0
M  V30 7427 H 683.614 -2.40862 -5.61086 0
M  V30 7428 H 685.028 -4.05826 -4.04942 0
M  V30 7429 H 683.425 -4.75063 -3.66654 0
M  V30 7430 H 684.495 -4.243 -2.34729 0
M  V30 7431 N 685.838 0.888903 -1.30139 0
M  V30 7432 C 687.063 1.67884 -1.21777 0
M  V30 7433 C 687.488 1.86848 0.216689 0
M  V30 7434 O 686.846 1.39659 1.15608 0
M  V30 7435 C 686.894 3.03483 -1.94757 0
M  V30 7436 O 685.998 3.92294 -1.27198 0
M  V30 7437 H 685.339 0.513144 -0.421402 0
M  V30 7438 H 687.869 1.10968 -1.71893 0
M  V30 7439 H 687.879 3.53553 -2.03627 0
M  V30 7440 H 686.554 2.89 -2.99085 0
M  V30 7441 H 685.131 3.50732 -1.26655 0
M  V30 7442 N 687.317 1.12792 1.10072 0
M  V30 7443 C 688.565 0.883796 1.81751 0
M  V30 7444 C 688.886 -0.591891 1.858 0
M  V30 7445 O 688.156 -1.43017 1.33876 0
M  V30 7446 H 686.736 0.323978 0.673088 0
M  V30 7447 H 689.398 1.42314 1.33164 0
M  V30 7448 H 688.494 1.26863 2.85153 0
M  V30 7449 N 688.795 -1.27931 0.920396 0
M  V30 7450 C 690.023 -1.98805 0.573087 0
M  V30 7451 C 690.438 -1.68724 -0.847201 0
M  V30 7452 O 689.795 -0.943699 -1.56207 0
M  V30 7453 C 689.846 -3.52971 0.780633 0
M  V30 7454 O 689.567 -3.81994 2.14504 0
M  V30 7455 C 691.068 -4.411 0.44105 0
M  V30 7456 H 688.288 -0.634651 0.21785 0
M  V30 7457 H 690.832 -1.62965 1.23542 0
M  V30 7458 H 688.987 -3.87048 0.165204 0
M  V30 7459 H 689.401 -4.76609 2.18962 0
M  V30 7460 H 690.875 -5.48312 0.637006 0
M  V30 7461 H 691.352 -4.34758 -0.62306 0
M  V30 7462 H 691.958 -4.12532 1.0343 0
M  V30 7463 N 690.273 -0.685099 -1.4193 0
M  V30 7464 C 691.22 -0.0131869 -2.30796 0
M  V30 7465 C 692.19 0.782129 -1.46533 0
M  V30 7466 O 693.375 0.75229 -1.75343 0
M  V30 7467 C 690.515 0.924768 -3.32479 0
M  V30 7468 C 689.628 0.122181 -4.31827 0
M  V30 7469 C 688.763 1.05682 -5.20581 0
M  V30 7470 C 687.802 0.246526 -6.11603 0
M  V30 7471 N 686.939 1.13442 -6.92875 0
M  V30 7472 H 691.779 -0.776789 -2.87698 0
M  V30 7473 H 689.316 -0.394791 -1.41703 0
M  V30 7474 H 691.274 1.48251 -3.89971 0
M  V30 7475 H 689.904 1.65488 -2.77152 0
M  V30 7476 H 688.956 -0.552335 -3.76369 0
M  V30 7477 H 690.268 -0.506473 -4.96222 0
M  V30 7478 H 689.422 1.68415 -5.82856 0
M  V30 7479 H 688.161 1.71935 -4.56388 0
M  V30 7480 H 687.166 -0.393944 -5.48387 0
M  V30 7481 H 688.391 -0.412053 -6.77849 0
M  V30 7482 H 686.337 1.78316 -6.313 0
M  V30 7483 H 686.254 0.561089 -7.53915 0
M  V30 7484 H 687.522 1.74889 -7.59628 0
M  V30 7485 N 691.751 1.51645 -0.429126 0
M  V30 7486 C 692.698 2.27542 0.386446 0
M  V30 7487 C 693.668 1.30786 1.02393 0
M  V30 7488 O 694.853 1.59678 1.0444 0
M  V30 7489 C 691.993 3.11457 1.48623 0
M  V30 7490 C 691.106 4.23196 0.867691 0
M  V30 7491 C 690.241 4.94435 1.94183 0
M  V30 7492 C 689.28 5.98108 1.30129 0
M  V30 7493 N 688.417 6.62786 2.31644 0
M  V30 7494 H 693.257 2.968 -0.267155 0
M  V30 7495 H 690.794 1.46397 -0.143591 0
M  V30 7496 H 692.752 3.58429 2.13506 0
M  V30 7497 H 691.382 2.44329 2.10957 0
M  V30 7498 H 690.434 3.80248 0.107373 0
M  V30 7499 H 691.746 4.97499 0.35997 0
M  V30 7500 H 690.9 5.44914 2.66747 0
M  V30 7501 H 689.639 4.19744 2.48326 0
M  V30 7502 H 688.644 5.4693 0.561082 0
M  V30 7503 H 689.869 6.74751 0.767303 0
M  V30 7504 H 687.815 5.90913 2.84883 0
M  V30 7505 H 687.732 7.32828 1.85741 0
M  V30 7506 H 689 7.17897 3.03717 0
M  V30 7507 N 693.229 0.160201 1.56784 0
M  V30 7508 C 694.177 -0.791402 2.18723 0
M  V30 7509 C 695.171 -1.24567 1.14801 0
M  V30 7510 O 696.377 -1.21262 1.33025 0
M  V30 7511 H 692.752 -0.273458 0.700517 0
M  V30 7512 H 694.723 -0.244931 2.97393 0
M  V30 7513 C 693.472 -2.01509 2.83354 0
M  V30 7514 H 692.795 -1.67454 3.63041 0
M  V30 7515 H 694.235 -2.66006 3.30177 0
M  V30 7516 C 692.694 -2.83159 1.82545 0
M  V30 7517 O 693.224 -3.79944 1.30405 0
M  V30 7518 N 691.43 -2.47953 1.51552 0
M  V30 7519 H 690.977 -1.69309 1.94144 0
M  V30 7520 H 690.935 -3.02873 0.843519 0
M  V30 7521 N 694.707 -1.5719 -0.113559 0
M  V30 7522 C 695.954 -1.85138 -0.820382 0
M  V30 7523 C 696.282 -0.74608 -1.79622 0
M  V30 7524 O 695.537 0.262077 -1.93937 0
M  V30 7525 C 695.836 -3.19593 -1.59984 0
M  V30 7526 C 695.502 -4.44315 -0.767809 0
M  V30 7527 C 694.164 -4.78179 -0.538379 0
M  V30 7528 C 696.516 -5.2086 -0.188203 0
M  V30 7529 C 693.844 -5.86028 0.28082 0
M  V30 7530 C 696.196 -6.29572 0.618217 0
M  V30 7531 C 694.86 -6.61964 0.857912 0
M  V30 7532 H 694.13 -0.677467 -0.300199 0
M  V30 7533 H 696.777 -1.91322 -0.0825443 0
M  V30 7534 H 695.082 -3.0901 -2.40874 0
M  V30 7535 H 696.779 -3.3844 -2.1508 0
M  V30 7536 H 693.369 -4.17786 -0.956724 0
M  V30 7537 H 697.553 -4.95045 -0.352658 0
M  V30 7538 H 692.809 -6.09547 0.475693 0
M  V30 7539 H 696.983 -6.88064 1.0743 0
M  V30 7540 H 694.61 -7.45365 1.49451 0
M  V30 7541 N 696.185 0.383891 -1.52853 0
M  V30 7542 C 697.41 1.154 -1.7233 0
M  V30 7543 C 697.835 1.82809 -0.44298 0
M  V30 7544 O 697.193 1.71026 0.601645 0
M  V30 7545 C 697.241 2.17386 -2.87708 0
M  V30 7546 O 696.345 3.24082 -2.55038 0
M  V30 7547 H 695.686 0.335709 -0.572883 0
M  V30 7548 H 698.216 0.44662 -1.99666 0
M  V30 7549 H 698.226 2.61296 -3.1335 0
M  V30 7550 H 696.901 1.6771 -3.80587 0
M  V30 7551 H 695.478 2.85273 -2.40153 0
M  V30 7552 N 697.663 1.43903 0.642637 0
M  V30 7553 C 698.888 1.49758 1.43483 0
M  V30 7554 C 699.313 0.119911 1.87717 0
M  V30 7555 O 698.671 -0.888558 1.58033 0
M  V30 7556 C 698.719 2.45744 2.63898 0
M  V30 7557 O 697.823 1.95101 3.63331 0
M  V30 7558 H 697.164 0.506138 0.429791 0
M  V30 7559 H 699.694 1.88923 0.785438 0
M  V30 7560 H 699.704 2.63399 3.11584 0
M  V30 7561 H 698.379 3.45818 2.31046 0
M  V30 7562 H 696.956 1.87158 3.22531 0
M  V30 7563 N 699.141 -0.881989 1.30609 0
M  V30 7564 C 700.071 -2.00413 1.1982 0
M  V30 7565 C 701.052 -1.69871 0.0881538 0
M  V30 7566 O 702.237 -1.92304 0.2707 0
M  V30 7567 C 699.367 -3.35641 0.89233 0
M  V30 7568 C 698.321 -3.80451 1.96064 0
M  V30 7569 C 697.647 -5.13003 1.5077 0
M  V30 7570 C 698.947 -3.98855 3.37213 0
M  V30 7571 H 700.641 -2.09698 2.13699 0
M  V30 7572 H 698.187 -1.00754 1.02882 0
M  V30 7573 H 700.14 -4.13669 0.803497 0
M  V30 7574 H 698.864 -3.26497 -0.0821381 0
M  V30 7575 H 697.523 -3.04654 2.03916 0
M  V30 7576 H 697.171 -5.0029 0.521417 0
M  V30 7577 H 696.871 -5.43956 2.22229 0
M  V30 7578 H 698.395 -5.93554 1.43271 0
M  V30 7579 H 699.809 -4.67312 3.32103 0
M  V30 7580 H 698.206 -4.41188 4.06784 0
M  V30 7581 H 699.276 -3.02614 3.78883 0
M  V30 7582 N 700.619 -1.13374 -1.09472 0
M  V30 7583 C 701.566 -0.810682 -2.16094 0
M  V30 7584 C 702.536 0.227003 -1.64541 0
M  V30 7585 O 703.721 0.0993538 -1.90541 0
M  V30 7586 C 700.861 -0.282336 -3.43943 0
M  V30 7587 C 699.974 -1.37902 -4.09398 0
M  V30 7588 C 699.109 -0.809066 -5.25002 0
M  V30 7589 C 698.148 -1.88419 -5.82379 0
M  V30 7590 N 697.285 -1.33221 -6.89345 0
M  V30 7591 H 702.125 -1.72397 -2.43071 0
M  V30 7592 H 699.662 -0.860564 -1.19301 0
M  V30 7593 H 701.62 0.0421189 -4.17179 0
M  V30 7594 H 700.25 0.594083 -3.17286 0
M  V30 7595 H 699.302 -1.82008 -3.34032 0
M  V30 7596 H 700.614 -2.19161 -4.48074 0
M  V30 7597 H 699.768 -0.435867 -6.05132 0
M  V30 7598 H 698.507 0.0346058 -4.87688 0
M  V30 7599 H 697.512 -2.26646 -5.00911 0
M  V30 7600 H 698.737 -2.73125 -6.21755 0
M  V30 7601 H 696.683 -0.510535 -6.5401 0
M  V30 7602 H 696.6 -2.08129 -7.26786 0
M  V30 7603 H 697.868 -0.986565 -7.73232 0
M  V30 7604 N 702.098 1.27442 -0.927168 0
M  V30 7605 C 703.375 1.89473 -0.485742 0
M  V30 7606 C 703.755 1.83922 1.03614 0
M  V30 7607 O 703.103 1.28409 1.89007 0
M  V30 7608 C 703.313 3.33417 -1.03123 0
M  V30 7609 C 704.661 4.10333 -1.0914 0
M  V30 7610 O 705.685 3.4243 -0.98082 0
M  V30 7611 O 704.544 5.31737 -1.26165 0
M  V30 7612 H 701.638 0.812124 -0.156154 0
M  V30 7613 H 704.184 1.35713 -1.01882 0
M  V30 7614 H 702.956 3.31747 -2.07508 0
M  V30 7615 H 702.579 3.94695 -0.479767 0
M  V30 7616 N 703.576 0.692616 1.41565 0
M  V30 7617 C 704.506 0.0397325 2.33466 0
M  V30 7618 C 705.487 -0.770334 1.51657 0
M  V30 7619 O 706.672 -0.723903 1.80203 0
M  V30 7620 C 703.802 -0.899495 3.3545 0
M  V30 7621 C 702.756 -0.196738 4.27548 0
M  V30 7622 C 702.082 -1.25012 5.19881 0
M  V30 7623 C 703.382 0.935158 5.1386 0
M  V30 7624 H 705.076 0.807296 2.88311 0
M  V30 7625 H 702.622 0.389665 1.38628 0
M  V30 7626 H 704.575 -1.36545 3.98665 0
M  V30 7627 H 703.299 -1.69869 2.78948 0
M  V30 7628 H 701.958 0.249158 3.65752 0
M  V30 7629 H 701.606 -2.04177 4.59696 0
M  V30 7630 H 701.306 -0.784931 5.82334 0
M  V30 7631 H 702.83 -1.71665 5.85972 0
M  V30 7632 H 704.244 0.549619 5.70659 0
M  V30 7633 H 702.641 1.32726 5.85238 0
M  V30 7634 H 703.711 1.77613 4.512 0
M  V30 7635 N 705.054 -1.51416 0.437162 0
M  V30 7636 C 705.984 -2.30631 -0.364922 0
M  V30 7637 C 706.965 -1.36037 -1.02118 0
M  V30 7638 O 708.15 -1.64956 -1.02485 0
M  V30 7639 C 705.28 -3.1482 -1.46648 0
M  V30 7640 C 704.234 -4.17691 -0.933717 0
M  V30 7641 C 703.56 -4.904 -2.13101 0
M  V30 7642 C 704.86 -5.2229 0.0317201 0
M  V30 7643 H 706.554 -2.97932 0.29614 0
M  V30 7644 H 704.1 -1.4328 0.143865 0
M  V30 7645 H 706.053 -3.69017 -2.03481 0
M  V30 7646 H 704.777 -2.4534 -2.15583 0
M  V30 7647 H 703.436 -3.64545 -0.387602 0
M  V30 7648 H 703.084 -4.17423 -2.80654 0
M  V30 7649 H 702.784 -5.59962 -1.78092 0
M  V30 7650 H 704.308 -5.4742 -2.70487 0
M  V30 7651 H 705.722 -5.7156 -0.446302 0
M  V30 7652 H 704.119 -5.99378 0.29437 0
M  V30 7653 H 705.189 -4.75131 0.968447 0
M  V30 7654 N 706.532 -0.168513 -1.56696 0
M  V30 7655 C 707.48 0.779791 -2.19139 0
M  V30 7656 C 708.474 1.23957 -1.1546 0
M  V30 7657 O 709.68 1.20555 -1.33666 0
M  V30 7658 H 706.055 0.269739 -0.701958 0
M  V30 7659 H 708.026 0.229156 -2.97519 0
M  V30 7660 C 706.775 2.00003 -2.84419 0
M  V30 7661 H 706.098 1.65527 -3.63924 0
M  V30 7662 H 707.538 2.64251 -3.31583 0
M  V30 7663 C 705.997 2.82187 -1.84044 0
M  V30 7664 O 706.527 3.79247 -1.32418 0
M  V30 7665 N 704.733 2.47145 -1.52864 0
M  V30 7666 H 704.28 1.68277 -1.9504 0
M  V30 7667 H 704.238 3.02422 -0.859569 0
M  V30 7668 N 708.01 1.57248 0.105221 0
M  V30 7669 C 709.25 1.87393 0.816283 0
M  V30 7670 C 709.614 0.758249 1.76393 0
M  V30 7671 O 710.815 0.941835 2.5176 0
M  V30 7672 C 709.086 3.22775 1.53463 0
M  V30 7673 S 710.645 3.74588 2.28537 0
M  V30 7674 H 707.463 0.656847 0.272164 0
M  V30 7675 H 710.065 1.9536 0.073909 0
M  V30 7676 H 708.769 4.01905 0.830674 0
M  V30 7677 H 708.3 3.17921 2.3171 0
M  V30 7678 H 710.315 3.47193 3.54502 0
M  V30 7679 N 709.488 -0.375779 1.53054 0
M  V30 7680 C 710.718 -1.1387 1.72386 0
M  V30 7681 C 711.126 -1.8382 0.447966 0
M  V30 7682 O 710.469 -1.74027 -0.588244 0
M  V30 7683 C 710.531 -2.22047 2.82728 0
M  V30 7684 C 710.195 -1.71951 4.23417 0
M  V30 7685 C 711.192 -1.18909 5.06119 0
M  V30 7686 C 708.877 -1.77773 4.69789 0
M  V30 7687 C 710.871 -0.723529 6.3328 0
M  V30 7688 C 708.558 -1.30829 5.96931 0
M  V30 7689 C 709.556 -0.782077 6.78508 0
M  V30 7690 O 709.244 -0.319529 8.03265 0
M  V30 7691 H 708.976 -0.346835 0.580242 0
M  V30 7692 H 711.53 -0.443748 2.00549 0
M  V30 7693 H 709.76 -2.95006 2.50017 0
M  V30 7694 H 711.449 -2.83654 2.90336 0
M  V30 7695 H 712.215 -1.13758 4.7147 0
M  V30 7696 H 708.094 -2.17673 4.06373 0
M  V30 7697 H 711.638 -0.312126 6.96901 0
M  V30 7698 H 707.535 -1.3567 6.31081 0
M  V30 7699 H 708.303 -0.439796 8.17318 0
M  V30 7700 N 710.966 -1.44241 -0.634997 0
M  V30 7701 C 711.898 -1.46793 -1.76024 0
M  V30 7702 C 712.911 -0.361781 -1.58729 0
M  V30 7703 O 714.1 -0.627297 -1.67114 0
M  V30 7704 C 711.2 -1.28248 -3.13697 0
M  V30 7705 C 710.373 -2.52038 -3.57485 0
M  V30 7706 C 709.432 -2.2845 -4.74022 0
M  V30 7707 O 708.458 -3.01915 -4.82531 0
M  V30 7708 N 709.66 -1.31264 -5.65464 0
M  V30 7709 H 712.425 -2.43797 -1.74307 0
M  V30 7710 H 709.986 -1.39631 -0.819438 0
M  V30 7711 H 711.978 -1.10321 -3.89373 0
M  V30 7712 H 710.548 -0.39623 -3.10079 0
M  V30 7713 H 709.768 -2.85268 -2.72059 0
M  V30 7714 H 711.056 -3.34382 -3.83492 0
M  V30 7715 H 710.454 -0.705817 -5.6128 0
M  V30 7716 H 709.011 -1.19316 -6.40786 0
M  V30 7717 N 712.444 0.87505 -1.31075 0
M  V30 7718 C 713.377 1.98471 -1.12625 0
M  V30 7719 C 714.355 1.6257 -0.0311379 0
M  V30 7720 O 715.539 1.87574 -0.186594 0
M  V30 7721 C 712.666 3.30963 -0.719799 0
M  V30 7722 C 711.712 3.85849 -1.81722 0
M  V30 7723 S 712.545 4.11926 -3.42165 0
M  V30 7724 C 713.701 5.47423 -3.03445 0
M  V30 7725 H 713.934 2.13817 -2.06566 0
M  V30 7726 H 711.467 1.02463 -1.15502 0
M  V30 7727 H 713.425 4.07541 -0.492035 0
M  V30 7728 H 712.086 3.1346 0.200413 0
M  V30 7729 H 711.279 4.81616 -1.48533 0
M  V30 7730 H 710.881 3.16046 -1.99977 0
M  V30 7731 H 713.173 6.28881 -2.52023 0
M  V30 7732 H 714.116 5.85557 -3.98157 0
M  V30 7733 H 714.524 5.10455 -2.41031 0
M  V30 7734 N 713.922 1.13953 1.08869 0
M  V30 7735 C 714.832 0.835666 2.19212 0
M  V30 7736 C 715.848 -0.182005 1.73045 0
M  V30 7737 O 717.024 -0.0116661 2.01397 0
M  V30 7738 C 714.089 0.312325 3.4529 0
M  V30 7739 C 713.15 1.39196 4.06107 0
M  V30 7740 C 712.383 0.893496 5.26168 0
M  V30 7741 O 712.606 -0.266807 5.69776 0
M  V30 7742 O 711.54 1.67037 5.78258 0
M  V30 7743 H 715.366 1.75769 2.47667 0
M  V30 7744 H 712.951 0.917421 1.17914 0
M  V30 7745 H 714.833 0.0261582 4.21392 0
M  V30 7746 H 713.508 -0.582042 3.18424 0
M  V30 7747 H 712.415 1.73152 3.31616 0
M  V30 7748 H 713.748 2.26068 4.37212 0
M  V30 7749 N 715.4 -1.26948 0.933913 0
M  V30 7750 C 716.628 -1.98186 0.59414 0
M  V30 7751 C 717.043 -1.69614 -0.829257 0
M  V30 7752 O 716.4 -0.960213 -1.55197 0
M  V30 7753 C 716.451 -3.52123 0.818026 0
M  V30 7754 O 716.172 -3.79698 2.18543 0
M  V30 7755 C 717.673 -4.40608 0.48781 0
M  V30 7756 H 714.893 -0.632305 0.224569 0
M  V30 7757 H 717.437 -1.61646 1.25263 0
M  V30 7758 H 715.592 -3.86851 0.206246 0
M  V30 7759 H 716.006 -4.7426 2.24005 0
M  V30 7760 H 717.48 -5.47606 0.695126 0
M  V30 7761 H 717.957 -4.35394 -0.576913 0
M  V30 7762 H 718.563 -4.11411 1.078 0
M  V30 7763 N 716.879 -0.700114 -1.41195 0
M  V30 7764 C 718.125 -0.233351 -2.01453 0
M  V30 7765 C 718.458 1.16548 -1.55339 0
M  V30 7766 O 717.733 1.78756 -0.766575 0
M  V30 7767 C 718.016 -0.2961 -3.58881 0
M  V30 7768 C 717.869 -1.7322 -4.15108 0
M  V30 7769 C 719.188 0.341525 -4.38773 0
M  V30 7770 H 716.307 -0.0862667 -0.731934 0
M  V30 7771 H 718.949 -0.889693 -1.67882 0
M  V30 7772 H 717.099 0.262736 -3.87611 0
M  V30 7773 H 718.771 -2.34523 -3.97236 0
M  V30 7774 H 717.014 -2.2649 -3.69979 0
M  V30 7775 H 717.685 -1.7276 -5.24269 0
M  V30 7776 H 720.161 -0.134461 -4.15883 0
M  V30 7777 H 719.037 0.267098 -5.4825 0
M  V30 7778 H 719.298 1.42289 -4.18577 0
M  V30 7779 N 718.357 1.51182 -0.445186 0
M  V30 7780 C 719.773 1.59299 -0.0978954 0
M  V30 7781 C 719.973 1.4555 1.39346 0
M  V30 7782 O 719.029 1.30073 2.16419 0
M  V30 7783 C 720.342 2.94133 -0.625005 0
M  V30 7784 C 721.89 3.07463 -0.586137 0
M  V30 7785 C 722.365 4.44832 -1.09035 0
M  V30 7786 N 723.856 4.51173 -1.04867 0
M  V30 7787 C 724.591 5.55804 -1.40959 0
M  V30 7788 N 724.087 6.67816 -1.84375 0
M  V30 7789 N 725.88 5.46205 -1.32726 0
M  V30 7790 H 718.031 1.58363 -1.41544 0
M  V30 7791 H 720.294 0.746946 -0.58376 0
M  V30 7792 H 720 3.09589 -1.66876 0
M  V30 7793 H 719.874 3.77161 -0.0542262 0
M  V30 7794 H 722.261 2.9167 0.448646 0
M  V30 7795 H 722.342 2.26255 -1.19341 0
M  V30 7796 H 721.986 4.61372 -2.12364 0
M  V30 7797 H 721.916 5.24591 -0.459539 0
M  V30 7798 H 724.407 3.70783 -0.729932 0
M  V30 7799 H 724.72 7.43683 -2.10131 0
M  V30 7800 H 723.065 6.69003 -1.88308 0
M  V30 7801 H 726.256 4.57583 -0.986678 0
M  V30 7802 H 726.429 6.27634 -1.61182 0
M  V30 7803 N 719.835 0.176821 1.56605 0
M  V30 7804 C 721.06 -0.47599 2.01864 0
M  V30 7805 C 721.485 -1.55645 1.05623 0
M  V30 7806 O 720.843 -1.81263 0.0366729 0
M  V30 7807 C 720.891 -1.02619 3.4569 0
M  V30 7808 O 719.995 -2.13996 3.52533 0
M  V30 7809 H 719.336 -0.113363 0.654251 0
M  V30 7810 H 721.866 0.28233 2.02643 0
M  V30 7811 H 721.876 -1.34742 3.85109 0
M  V30 7812 H 720.551 -0.235138 4.15235 0
M  V30 7813 H 719.128 -1.82876 3.24978 0
M  V30 7814 N 721.313 -1.57302 -0.09688 0
M  V30 7815 C 722.59 -1.7701 -0.832272 0
M  V30 7816 C 722.97 -0.758025 -1.97021 0
M  V30 7817 O 722.318 0.213824 -2.27497 0
M  V30 7818 C 722.528 -3.22725 -1.32851 0
M  V30 7819 C 723.876 -3.85856 -1.772 0
M  V30 7820 O 724.9 -3.26464 -1.42478 0
M  V30 7821 O 723.759 -4.90295 -2.41398 0
M  V30 7822 H 720.853 -0.725558 -0.396856 0
M  V30 7823 H 723.399 -1.69516 -0.0789005 0
M  V30 7824 H 722.171 -3.87921 -0.51312 0
M  V30 7825 H 721.794 -3.34845 -2.14394 0
M  V30 7826 N 722.791 0.367657 -1.53252 0
M  V30 7827 C 723.739 1.47061 -1.8021 0
M  V30 7828 C 724.733 1.55539 -0.671112 0
M  V30 7829 O 725.939 1.58451 -0.854014 0
M  V30 7830 H 722.314 0.489868 -0.570555 0
M  V30 7831 H 724.285 1.21527 -2.72532 0
M  V30 7832 C 723.034 2.83924 -2.00706 0
M  V30 7833 H 722.357 2.78158 -2.87172 0
M  V30 7834 H 723.797 3.60281 -2.23547 0
M  V30 7835 C 722.256 3.27613 -0.785568 0
M  V30 7836 O 722.786 4.01691 0.0267459 0
M  V30 7837 N 720.992 2.84134 -0.609597 0
M  V30 7838 H 720.539 2.24017 -1.27178 0
M  V30 7839 H 720.497 3.13723 0.206281 0
M  V30 7840 N 724.269 1.44576 0.627338 0
M  V30 7841 C 725.518 1.46837 1.38281 0
M  V30 7842 C 725.831 0.10635 1.95311 0
M  V30 7843 O 727.037 0.00651084 2.71499 0
M  V30 7844 C 725.493 2.58527 2.50384 0
M  V30 7845 C 725.101 4.00953 1.99851 0
M  V30 7846 C 726.845 2.70013 3.27557 0
M  V30 7847 C 724.752 5.0406 3.09318 0
M  V30 7848 H 723.682 0.546319 0.519664 0
M  V30 7849 H 726.333 1.70654 0.674497 0
M  V30 7850 H 724.715 2.27957 3.23808 0
M  V30 7851 H 725.889 4.41108 1.33267 0
M  V30 7852 H 724.204 3.93743 1.35482 0
M  V30 7853 H 726.801 3.44217 4.09168 0
M  V30 7854 H 727.144 1.75961 3.77284 0
M  V30 7855 H 727.677 3.00011 2.61224 0
M  V30 7856 H 724.416 5.99753 2.6453 0
M  V30 7857 H 723.936 4.68493 3.74532 0
M  V30 7858 H 725.615 5.2793 3.74031 0
M  V30 7859 N 725.747 -0.868086 1.31537 0
M  V30 7860 C 726.996 -1.61607 1.20689 0
M  V30 7861 C 727.309 -1.94204 -0.233275 0
M  V30 7862 O 728.515 -2.67515 -0.463465 0
M  V30 7863 C 726.971 -2.91348 2.11292 0
M  V30 7864 C 726.579 -2.66227 3.60315 0
M  V30 7865 C 728.323 -3.69344 2.09249 0
M  V30 7866 C 726.23 -3.91887 4.42921 0
M  V30 7867 H 725.16 -0.606373 0.448138 0
M  V30 7868 H 727.811 -0.959666 1.56405 0
M  V30 7869 H 726.193 -3.58374 1.68477 0
M  V30 7870 H 727.367 -2.07597 4.11388 0
M  V30 7871 H 725.682 -2.01582 3.64354 0
M  V30 7872 H 728.279 -4.62567 2.68209 0
M  V30 7873 H 728.622 -4.02044 1.0801 0
M  V30 7874 H 729.155 -3.09205 2.50274 0
M  V30 7875 H 725.894 -3.64336 5.44922 0
M  V30 7876 H 725.414 -4.49961 3.96605 0
M  V30 7877 H 727.093 -4.59754 4.55231 0
M  V30 7878 N 727.225 -1.14528 -1.08264 0
M  V30 7879 C 728.472 -0.914405 -1.80679 0
M  V30 7880 C 728.8 0.558952 -1.86295 0
M  V30 7881 O 728.055 1.43017 -1.33584 0
M  V30 7882 C 728.354 -1.46226 -3.26117 0
M  V30 7883 C 728.02 -2.95451 -3.40616 0
M  V30 7884 C 726.682 -3.36191 -3.4428 0
M  V30 7885 C 729.034 -3.91399 -3.44175 0
M  V30 7886 C 726.362 -4.71539 -3.49096 0
M  V30 7887 C 728.714 -5.26606 -3.50526 0
M  V30 7888 C 727.378 -5.66856 -3.52464 0
M  V30 7889 H 726.648 -0.334604 -0.661151 0
M  V30 7890 H 729.295 -1.4292 -1.27461 0
M  V30 7891 H 727.6 -0.868442 -3.82054 0
M  V30 7892 H 729.297 -1.25955 -3.80705 0
M  V30 7893 H 725.887 -2.62955 -3.38456 0
M  V30 7894 H 730.071 -3.61004 -3.40573 0
M  V30 7895 H 725.327 -5.02082 -3.4889 0
M  V30 7896 H 729.501 -6.00758 -3.52225 0
M  V30 7897 H 727.128 -6.71718 -3.55948 0
M  V30 7898 N 728.703 1.26451 -0.940633 0
M  V30 7899 C 729.635 2.25556 -0.407104 0
M  V30 7900 C 730.648 1.55888 0.469324 0
M  V30 7901 O 731.837 1.76292 0.279858 0
M  V30 7902 C 728.937 3.36109 0.434064 0
M  V30 7903 C 728.11 4.3532 -0.426082 0
M  V30 7904 C 727.169 5.25004 0.354563 0
M  V30 7905 O 726.195 5.68684 -0.242219 0
M  V30 7906 N 727.397 5.5652 1.65123 0
M  V30 7907 H 730.162 2.7197 -1.25907 0
M  V30 7908 H 727.723 1.40212 -0.809456 0
M  V30 7909 H 729.715 3.93059 0.963684 0
M  V30 7910 H 728.285 2.89194 1.18683 0
M  V30 7911 H 727.505 3.77449 -1.13692 0
M  V30 7912 H 728.793 4.986 -1.01366 0
M  V30 7913 H 728.191 5.22912 2.15822 0
M  V30 7914 H 726.748 6.16115 2.12711 0
M  V30 7915 N 730.181 0.707592 1.40822 0
M  V30 7916 C 731.428 0.243671 2.01029 0
M  V30 7917 C 731.756 -1.16057 1.5608 0
M  V30 7918 O 731.011 -1.7999 0.768251 0
M  V30 7919 C 731.31 0.262892 3.56432 0
M  V30 7920 C 730.976 1.61632 4.20935 0
M  V30 7921 C 729.638 1.98682 4.38268 0
M  V30 7922 C 731.99 2.50619 4.5699 0
M  V30 7923 C 729.318 3.2428 4.88937 0
M  V30 7924 C 731.67 3.75562 5.09054 0
M  V30 7925 C 730.334 4.12739 5.24598 0
M  V30 7926 H 729.604 0.0891654 0.735616 0
M  V30 7927 H 732.251 0.909051 1.68548 0
M  V30 7928 H 730.556 -0.486052 3.88773 0
M  V30 7929 H 732.253 -0.113775 4.00839 0
M  V30 7930 H 728.843 1.31818 4.07826 0
M  V30 7931 H 733.027 2.23272 4.43242 0
M  V30 7932 H 728.283 3.53064 4.99155 0
M  V30 7933 H 732.457 4.44692 5.35931 0
M  V30 7934 H 730.084 5.10132 5.63622 0
M  V30 7935 N 731.66 -1.50943 0.453197 0
M  V30 7936 C 732.888 -2.06628 -0.106135 0
M  V30 7937 C 733.303 -1.31901 -1.35084 0
M  V30 7938 O 732.66 -0.383074 -1.78434 0
M  V30 7939 C 732.711 -3.5914 -0.412368 0
M  V30 7940 O 732.432 -4.31047 0.782948 0
M  V30 7941 C 733.933 -4.31391 -1.02064 0
M  V30 7942 H 731.153 -0.670999 -0.000885896 0
M  V30 7943 H 733.697 -1.94331 0.63684 0
M  V30 7944 H 731.852 -3.71299 -1.10526 0
M  V30 7945 H 732.266 -5.21948 0.516736 0
M  V30 7946 H 733.74 -5.39135 -1.1848 0
M  V30 7947 H 734.217 -3.90714 -2.00598 0
M  V30 7948 H 734.823 -4.23716 -0.366664 0
M  V30 7949 N 733.138 -0.185124 -1.56509 0
M  V30 7950 C 734.085 0.739729 -2.18624 0
M  V30 7951 C 735.055 1.217 -1.13042 0
M  V30 7952 O 736.24 1.28268 -1.41251 0
M  V30 7953 C 733.38 1.95787 -2.84186 0
M  V30 7954 C 732.493 1.52289 -4.04267 0
M  V30 7955 C 731.628 2.69576 -4.57714 0
M  V30 7956 C 730.667 2.22636 -5.70175 0
M  V30 7957 N 729.804 3.33065 -6.18071 0
M  V30 7958 H 734.644 0.203269 -2.97306 0
M  V30 7959 H 732.181 0.0885946 -1.46833 0
M  V30 7960 H 734.139 2.67253 -3.20361 0
M  V30 7961 H 732.769 2.4678 -2.08085 0
M  V30 7962 H 731.821 0.704458 -3.7382 0
M  V30 7963 H 733.133 1.13843 -4.85635 0
M  V30 7964 H 732.287 3.4918 -4.96143 0
M  V30 7965 H 731.026 3.1129 -3.75433 0
M  V30 7966 H 730.031 1.41483 -5.31284 0
M  V30 7967 H 731.256 1.81964 -6.54267 0
M  V30 7968 H 729.202 3.74328 -5.38715 0
M  V30 7969 H 729.119 2.98756 -6.94464 0
M  V30 7970 H 730.387 4.12912 -6.61153 0
M  V30 7971 N 734.616 1.57351 0.0885366 0
M  V30 7972 C 735.856 1.88248 0.796362 0
M  V30 7973 C 736.22 0.776915 1.75579 0
M  V30 7974 O 737.421 0.968485 2.50747 0
M  V30 7975 C 735.692 3.24385 1.50031 0
M  V30 7976 S 737.251 3.76991 2.24551 0
M  V30 7977 H 734.069 0.659697 0.265181 0
M  V30 7978 H 736.671 1.95428 0.0531843 0
M  V30 7979 H 735.375 4.02764 0.788 0
M  V30 7980 H 734.906 3.20361 2.28325 0
M  V30 7981 H 736.921 3.50933 3.508 0
M  V30 7982 N 736.094 -0.359525 1.53444 0
M  V30 7983 C 737.334 -1.11014 1.71625 0
M  V30 7984 C 737.698 -1.86376 0.46132 0
M  V30 7985 O 738.899 -2.63724 0.519908 0
M  V30 7986 C 737.17 -2.03907 2.93524 0
M  V30 7987 S 738.729 -2.86408 3.3244 0
M  V30 7988 H 735.547 -0.375352 0.603847 0
M  V30 7989 H 738.149 -0.390604 1.91558 0
M  V30 7990 H 736.853 -1.47316 3.83048 0
M  V30 7991 H 736.384 -2.80324 2.76011 0
M  V30 7992 H 738.399 -4.06241 2.84926 0
M  V30 7993 N 737.572 -1.44907 -0.619662 0
M  V30 7994 C 738.983 -1.42905 -1.20146 0
M  V30 7995 C 739.334 -0.150341 -1.95623 0
M  V30 7996 O 738.459 0.748732 -2.03034 0
M  V30 7997 C 739.054 -2.58889 -2.18545 0
M  V30 7998 C 737.613 -2.60046 -2.72127 0
M  V30 7999 C 736.76 -2.3493 -1.4732 0
M  V30 8000 H 739.711 -1.53321 -0.409666 0
M  V30 8001 H 739.732 -2.32298 -3.0136 0
M  V30 8002 H 739.244 -3.51941 -1.63583 0
M  V30 8003 H 737.345 -1.70968 -3.3106 0
M  V30 8004 H 737.458 -3.58893 -3.17384 0
M  V30 8005 H 735.822 -1.84248 -1.75855 0
M  V30 8006 H 736.605 -3.3011 -0.942442 0
M  V30 8007 N 739.05 0.861098 -1.31996 0
M  V30 8008 C 740.461 1.43065 -1.19955 0
M  V30 8009 C 740.812 1.95273 0.190489 0
M  V30 8010 O 739.937 1.87012 1.08882 0
M  V30 8011 C 740.532 2.60052 -2.1716 0
M  V30 8012 C 739.091 3.13026 -2.09026 0
M  V30 8013 C 738.238 1.85756 -2.05888 0
M  V30 8014 H 741.189 0.668834 -1.43918 0
M  V30 8015 H 741.21 3.37016 -1.76637 0
M  V30 8016 H 740.722 2.22024 -3.18319 0
M  V30 8017 H 738.823 3.55653 -1.11092 0
M  V30 8018 H 738.936 3.74707 -2.98549 0
M  V30 8019 H 737.3 2.05088 -1.51033 0
M  V30 8020 H 738.083 1.49954 -3.08818 0
M  V30 8021 N 740.528 1.15101 1.07655 0
M  V30 8022 C 741.475 0.844958 2.14777 0
M  V30 8023 C 742.445 -0.200798 1.64882 0
M  V30 8024 O 743.63 -0.0690278 1.90675 0
M  V30 8025 C 740.77 0.337018 3.4345 0
M  V30 8026 C 739.883 1.44398 4.07153 0
M  V30 8027 C 739.018 0.892487 5.23649 0
M  V30 8028 C 738.057 1.9766 5.79307 0
M  V30 8029 N 737.194 1.44171 6.87138 0
M  V30 8030 H 742.034 1.76242 2.40297 0
M  V30 8031 H 739.571 0.879435 1.17917 0
M  V30 8032 H 741.529 0.024256 4.17193 0
M  V30 8033 H 740.159 -0.543531 3.18191 0
M  V30 8034 H 739.211 1.87299 3.31094 0
M  V30 8035 H 740.523 2.26262 4.4453 0
M  V30 8036 H 739.677 0.532083 6.04362 0
M  V30 8037 H 738.416 0.0429854 4.87681 0
M  V30 8038 H 737.421 2.34586 4.97242 0
M  V30 8039 H 738.646 2.82982 6.17331 0
M  V30 8040 H 736.592 0.614518 6.53115 0
M  V30 8041 H 736.509 2.19665 7.23383 0
M  V30 8042 H 737.777 1.10945 7.71564 0
M  V30 8043 N 742.006 -1.2595 0.947325 0
M  V30 8044 C 743.417 -1.75389 0.639963 0
M  V30 8045 C 743.768 -1.77081 -0.844788 0
M  V30 8046 O 742.893 -1.3869 -1.66114 0
M  V30 8047 C 743.488 -3.18506 1.15496 0
M  V30 8048 C 742.047 -3.65534 0.897894 0
M  V30 8049 C 741.194 -2.44818 1.30228 0
M  V30 8050 H 744.145 -1.1194 1.12495 0
M  V30 8051 H 744.166 -3.77045 0.511627 0
M  V30 8052 H 743.678 -3.17243 2.23559 0
M  V30 8053 H 741.779 -3.72221 -0.168096 0
M  V30 8054 H 741.892 -4.54039 1.52922 0
M  V30 8055 H 740.256 -2.44291 0.720678 0
M  V30 8056 H 741.039 -2.46251 2.39198 0
M  V30 8057 N 743.484 -0.715051 -1.40445 0
M  V30 8058 C 744.431 -0.0621393 -2.30716 0
M  V30 8059 C 745.401 0.750871 -1.48159 0
M  V30 8060 O 746.586 0.714928 -1.76899 0
M  V30 8061 C 743.726 0.854036 -3.34365 0
M  V30 8062 C 742.839 0.0305565 -4.31989 0
M  V30 8063 C 741.974 0.946162 -5.22706 0
M  V30 8064 C 741.013 0.116741 -6.11989 0
M  V30 8065 N 740.15 0.987194 -6.95125 0
M  V30 8066 H 744.99 -0.83764 -2.85985 0
M  V30 8067 H 742.527 -0.424759 -1.40834 0
M  V30 8068 H 744.485 1.39946 -3.93028 0
M  V30 8069 H 743.115 1.59572 -2.806 0
M  V30 8070 H 742.167 -0.632044 -3.75112 0
M  V30 8071 H 743.479 -0.611615 -4.95036 0
M  V30 8072 H 742.633 1.56014 -5.86297 0
M  V30 8073 H 741.372 1.62216 -4.59932 0
M  V30 8074 H 740.377 -0.510176 -5.47428 0
M  V30 8075 H 741.602 -0.555742 -6.76822 0
M  V30 8076 H 739.548 1.64885 -6.3494 0
M  V30 8077 H 739.465 0.401046 -7.54936 0
M  V30 8078 H 740.733 1.58737 -7.63166 0
M  V30 8079 N 744.962 1.50701 -0.461195 0
M  V30 8080 C 746.239 1.94958 0.158296 0
M  V30 8081 C 746.619 1.40111 1.57899 0
M  V30 8082 O 745.967 0.597976 2.20537 0
M  V30 8083 C 746.177 3.48821 0.11172 0
M  V30 8084 C 747.525 4.23499 0.30552 0
M  V30 8085 O 748.549 3.557 0.188758 0
M  V30 8086 O 747.408 5.43823 0.540244 0
M  V30 8087 H 744.502 0.818674 0.117054 0
M  V30 8088 H 747.048 1.61508 -0.520888 0
M  V30 8089 H 745.82 3.81263 -0.880577 0
M  V30 8090 H 745.443 3.88781 0.832791 0
M  V30 8091 N 746.441 0.193421 1.56409 0
M  V30 8092 C 747.388 -0.728124 2.19014 0
M  V30 8093 C 748.358 -1.21098 1.13686 0
M  V30 8094 O 749.543 -1.27517 1.4193 0
M  V30 8095 C 746.683 -1.94277 2.8522 0
M  V30 8096 C 745.796 -1.50143 4.05069 0
M  V30 8097 C 744.931 -2.67145 4.59137 0
M  V30 8098 C 743.97 -2.19609 5.71348 0
M  V30 8099 N 743.107 -3.29782 6.19829 0
M  V30 8100 H 747.947 -0.187499 2.9741 0
M  V30 8101 H 745.484 -0.0808064 1.46878 0
M  V30 8102 H 747.442 -2.65551 3.21774 0
M  V30 8103 H 746.072 -2.45673 2.09391 0
M  V30 8104 H 745.124 -0.684624 3.74189 0
M  V30 8105 H 746.436 -1.11266 4.86232 0
M  V30 8106 H 745.59 -3.46544 4.97988 0
M  V30 8107 H 744.329 -3.09295 3.77078 0
M  V30 8108 H 743.334 -1.38664 5.32027 0
M  V30 8109 H 744.559 -1.78492 6.55223 0
M  V30 8110 H 742.505 -3.71466 5.40693 0
M  V30 8111 H 742.422 -2.95069 6.96039 0
M  V30 8112 H 743.69 -4.094 6.63334 0
M  V30 8113 N 747.919 -1.57396 -0.0801906 0
M  V30 8114 C 749.144 -1.91437 -0.797909 0
M  V30 8115 C 749.569 -0.789075 -1.70749 0
M  V30 8116 O 748.927 0.25857 -1.79447 0
M  V30 8117 C 748.975 -3.24402 -1.57467 0
M  V30 8118 O 748.079 -3.13043 -2.68473 0
M  V30 8119 H 747.42 -0.627109 -0.218243 0
M  V30 8120 H 749.95 -2.04537 -0.050949 0
M  V30 8121 H 749.96 -3.58072 -1.95571 0
M  V30 8122 H 748.635 -4.05884 -0.907229 0
M  V30 8123 H 747.212 -2.90915 -2.33287 0
M  V30 8124 N 749.397 0.351382 -1.53633 0
M  V30 8125 C 750.345 1.45142 -1.8176 0
M  V30 8126 C 751.339 1.54819 -0.687571 0
M  V30 8127 O 752.545 1.57536 -0.870772 0
M  V30 8128 H 748.92 0.483789 -0.575719 0
M  V30 8129 H 750.891 1.1863 -2.73806 0
M  V30 8130 C 749.64 2.81779 -2.03706 0
M  V30 8131 H 748.963 2.75097 -2.90107 0
M  V30 8132 H 750.403 3.5789 -2.27356 0
M  V30 8133 C 748.862 3.26762 -0.820271 0
M  V30 8134 O 749.392 4.01697 -0.0158603 0
M  V30 8135 N 747.598 2.83472 -0.639699 0
M  V30 8136 H 747.145 2.22655 -1.29547 0
M  V30 8137 H 747.103 3.13924 0.172995 0
M  V30 8138 N 750.875 1.45233 0.611969 0
M  V30 8139 C 751.805 1.5641 1.73373 0
M  V30 8140 C 752.786 0.415896 1.64937 0
M  V30 8141 O 753.971 0.638478 1.83404 0
M  V30 8142 C 751.101 1.52627 3.11965 0
M  V30 8143 C 750.055 2.66119 3.35208 0
M  V30 8144 C 749.381 2.4739 4.74028 0
M  V30 8145 C 750.681 4.08157 3.25891 0
M  V30 8146 H 752.375 2.50307 1.64277 0
M  V30 8147 H 749.921 1.20467 0.788904 0
M  V30 8148 H 751.874 1.59043 3.90235 0
M  V30 8149 H 750.598 0.552564 3.21892 0
M  V30 8150 H 749.257 2.59123 2.59327 0
M  V30 8151 H 748.905 1.48168 4.80682 0
M  V30 8152 H 748.605 3.23494 4.90536 0
M  V30 8153 H 750.129 2.55653 5.54503 0
M  V30 8154 H 751.543 4.1642 3.9404 0
M  V30 8155 H 749.94 4.84617 3.5393 0
M  V30 8156 H 751.01 4.30374 2.23397 0
M  V30 8157 N 752.353 -0.854086 1.3245 0
M  V30 8158 C 753.283 -1.97827 1.24044 0
M  V30 8159 C 754.264 -1.69646 0.124166 0
M  V30 8160 O 755.449 -1.91687 0.31143 0
M  V30 8161 C 752.579 -3.33673 0.963324 0
M  V30 8162 C 751.533 -3.76207 2.04089 0
M  V30 8163 C 750.859 -5.0969 1.61618 0
M  V30 8164 C 752.159 -3.91612 3.45597 0
M  V30 8165 H 753.853 -2.05118 2.18099 0
M  V30 8166 H 751.399 -0.985489 1.04996 0
M  V30 8167 H 753.352 -4.11871 0.891061 0
M  V30 8168 H 752.076 -3.26597 -0.0128649 0
M  V30 8169 H 750.735 -3.0026 2.10332 0
M  V30 8170 H 750.383 -4.99072 0.627418 0
M  V30 8171 H 750.083 -5.3912 2.33717 0
M  V30 8172 H 751.607 -5.90381 1.55829 0
M  V30 8173 H 753.021 -4.60163 3.4194 0
M  V30 8174 H 751.418 -4.3246 4.16051 0
M  V30 8175 H 752.488 -2.9451 3.85217 0
M  V30 8176 N 753.831 -1.1567 -1.07043 0
M  V30 8177 C 755.077 -0.9349 -1.79965 0
M  V30 8178 C 755.41 0.536464 -1.86643 0
M  V30 8179 O 754.685 1.39781 -1.35247 0
M  V30 8180 C 754.968 -1.55371 -3.24857 0
M  V30 8181 C 754.821 -3.09589 -3.26305 0
M  V30 8182 C 756.14 -1.24209 -4.22209 0
M  V30 8183 H 753.259 -0.341061 -0.653335 0
M  V30 8184 H 755.901 -1.42883 -1.25237 0
M  V30 8185 H 754.051 -1.13368 -3.71591 0
M  V30 8186 H 755.723 -3.60521 -2.87789 0
M  V30 8187 H 753.966 -3.43315 -2.65174 0
M  V30 8188 H 754.637 -3.48002 -4.28484 0
M  V30 8189 H 757.113 -1.60548 -3.8388 0
M  V30 8190 H 755.989 -1.70119 -5.21872 0
M  V30 8191 H 756.25 -0.15964 -4.41812 0
M  V30 8192 N 755.309 1.25446 -0.953992 0
M  V30 8193 C 756.556 1.93143 -0.608429 0
M  V30 8194 C 756.884 1.74727 0.854451 0
M  V30 8195 O 756.139 1.0855 1.62836 0
M  V30 8196 C 756.438 3.45555 -0.912496 0
M  V30 8197 C 756.104 3.84126 -2.36131 0
M  V30 8198 C 754.766 3.94367 -2.75732 0
M  V30 8199 C 757.118 4.0324 -3.30223 0
M  V30 8200 C 754.446 4.21127 -4.08496 0
M  V30 8201 C 756.798 4.31493 -4.62598 0
M  V30 8202 C 755.462 4.3995 -5.01996 0
M  V30 8203 H 754.732 0.706762 -0.22264 0
M  V30 8204 H 757.379 1.49005 -1.20291 0
M  V30 8205 H 755.684 3.91091 -0.235618 0
M  V30 8206 H 757.381 3.9612 -0.623714 0
M  V30 8207 H 753.971 3.76711 -2.04418 0
M  V30 8208 H 758.155 3.94744 -3.00817 0
M  V30 8209 H 753.411 4.2589 -4.38665 0
M  V30 8210 H 757.585 4.45227 -5.35486 0
M  V30 8211 H 755.212 4.60439 -6.04896 0
M  V30 8212 N 756.787 0.722489 1.40064 0
M  V30 8213 C 758.203 0.396758 1.5459 0
M  V30 8214 C 758.403 -1.09375 1.69232 0
M  V30 8215 O 757.459 -1.87984 1.68578 0
M  V30 8216 C 758.772 1.16885 2.77053 0
M  V30 8217 C 760.32 1.15583 2.90877 0
M  V30 8218 C 760.795 1.91023 4.16262 0
M  V30 8219 N 762.286 1.88126 4.23276 0
M  V30 8220 C 763.021 2.43315 5.19216 0
M  V30 8221 N 762.517 3.07089 6.21022 0
M  V30 8222 N 764.31 2.33418 5.11344 0
M  V30 8223 H 756.461 1.68887 1.28806 0
M  V30 8224 H 758.724 0.714231 0.62336 0
M  V30 8225 H 758.43 2.22301 2.72534 0
M  V30 8226 H 758.304 0.765011 3.69361 0
M  V30 8227 H 760.691 0.10984 2.94896 0
M  V30 8228 H 760.772 1.59895 1.99668 0
M  V30 8229 H 760.416 2.95616 4.13006 0
M  V30 8230 H 760.346 1.44126 5.06493 0
M  V30 8231 H 762.837 1.41654 3.50346 0
M  V30 8232 H 763.15 3.467 6.90666 0
M  V30 8233 H 761.495 3.11175 6.21446 0
M  V30 8234 H 764.686 1.83248 4.30741 0
M  V30 8235 H 764.859 2.7673 5.85939 0
M  V30 8236 N 758.265 -1.50454 0.469181 0
M  V30 8237 C 759.493 -2.06729 -0.0842134 0
M  V30 8238 C 759.908 -1.33326 -1.33677 0
M  V30 8239 O 759.265 -0.401977 -1.78018 0
M  V30 8240 C 759.316 -3.59557 -0.374253 0
M  V30 8241 O 759.037 -4.30192 0.828622 0
M  V30 8242 C 760.538 -4.32449 -0.974824 0
M  V30 8243 H 757.758 -0.670971 0.006231 0
M  V30 8244 H 760.302 -1.93645 0.657415 0
M  V30 8245 H 758.457 -3.7245 -1.06581 0
M  V30 8246 H 758.871 -5.21371 0.572066 0
M  V30 8247 H 760.345 -5.40361 -1.12755 0
M  V30 8248 H 760.822 -3.92819 -1.96442 0
M  V30 8249 H 761.428 -4.24082 -0.321703 0
M  V30 8250 N 759.743 -0.201713 -1.56304 0
M  V30 8251 C 760.691 0.733133 -2.20744 0
M  V30 8252 C 761.685 1.2148 -1.18064 0
M  V30 8253 O 762.891 1.17692 -1.36193 0
M  V30 8254 H 759.266 0.254789 -0.707521 0
M  V30 8255 H 761.237 0.165996 -2.97938 0
M  V30 8256 C 759.986 1.93925 -2.88597 0
M  V30 8257 H 759.309 1.5777 -3.67353 0
M  V30 8258 H 760.749 2.57158 -3.37114 0
M  V30 8259 C 759.208 2.78219 -1.89989 0
M  V30 8260 O 759.738 3.76353 -1.40432 0
M  V30 8261 N 757.944 2.43847 -1.58072 0
M  V30 8262 H 757.491 1.64103 -1.98565 0
M  V30 8263 H 757.449 3.0053 -0.923524 0
M  V30 8264 N 761.222 1.57436 0.0718424 0
M  V30 8265 C 762.47 1.86878 0.769484 0
M  V30 8266 C 762.791 0.7937 1.78116 0
M  V30 8267 O 762.061 -0.177642 1.95093 0
M  V30 8268 H 760.641 0.689593 0.287177 0
M  V30 8269 H 763.303 1.94841 0.0479427 0
M  V30 8270 H 762.399 2.84387 1.28572 0
M  V30 8271 N 762.7 -0.34323 1.53817 0
M  V30 8272 C 763.946 -1.08504 1.71332 0
M  V30 8273 C 764.279 -1.88294 0.475285 0
M  V30 8274 O 763.554 -1.87205 -0.527688 0
M  V30 8275 C 763.837 -2.02597 2.97702 0
M  V30 8276 C 763.69 -1.26268 4.31713 0
M  V30 8277 C 765.009 -3.0241 3.19744 0
M  V30 8278 H 762.128 -0.393072 0.623429 0
M  V30 8279 H 764.77 -0.363579 1.86489 0
M  V30 8280 H 762.92 -2.64118 2.8491 0
M  V30 8281 H 764.592 -0.673594 4.56356 0
M  V30 8282 H 762.835 -0.564696 4.30109 0
M  V30 8283 H 763.506 -1.95253 5.16314 0
M  V30 8284 H 765.982 -2.51004 3.31868 0
M  V30 8285 H 764.858 -3.65449 4.09558 0
M  V30 8286 H 765.119 -3.73806 2.36054 0
M  V30 8287 N 764.178 -1.45556 -0.604258 0
M  V30 8288 C 765.403 -1.53509 -1.39462 0
M  V30 8289 C 765.828 -0.169638 -1.87333 0
M  V30 8290 O 765.186 0.846346 -1.60333 0
M  V30 8291 C 765.234 -2.52654 -2.5729 0
M  V30 8292 O 764.338 -2.04666 -3.5803 0
M  V30 8293 H 763.679 -0.517355 -0.416221 0
M  V30 8294 H 766.209 -1.90939 -0.735072 0
M  V30 8295 H 766.219 -2.71568 -3.04491 0
M  V30 8296 H 764.894 -3.51823 -2.21797 0
M  V30 8297 H 763.471 -1.95643 -3.17456 0
M  V30 8298 N 765.656 0.84705 -1.32902 0
M  V30 8299 C 766.933 1.58583 -1.14503 0
M  V30 8300 C 767.313 2.09075 0.291724 0
M  V30 8301 O 766.661 1.88636 1.28952 0
M  V30 8302 C 766.871 2.72605 -2.17916 0
M  V30 8303 C 768.219 3.41993 -2.51646 0
M  V30 8304 O 769.243 2.82838 -2.1652 0
M  V30 8305 O 768.102 4.48761 -3.1189 0
M  V30 8306 H 765.196 0.698756 -0.442345 0
M  V30 8307 H 767.742 0.890516 -1.44457 0
M  V30 8308 H 766.514 2.32876 -3.14459 0
M  V30 8309 H 766.137 3.49807 -1.89 0
M  V30 8310 N 767.134 1.16236 1.06428 0
M  V30 8311 C 768.38 0.944431 1.79467 0
M  V30 8312 C 768.713 -0.526558 1.86925 0
M  V30 8313 O 767.988 -1.39061 1.35986 0
M  V30 8314 C 768.271 1.57092 3.24028 0
M  V30 8315 C 768.124 3.11315 3.24658 0
M  V30 8316 C 769.443 1.26447 4.21544 0
M  V30 8317 H 766.562 0.344521 0.651517 0
M  V30 8318 H 769.204 1.43545 1.24478 0
M  V30 8319 H 767.354 1.15337 3.70985 0
M  V30 8320 H 769.026 3.62042 2.85873 0
M  V30 8321 H 767.269 3.44716 2.6335 0
M  V30 8322 H 767.94 3.50269 4.26633 0
M  V30 8323 H 770.416 1.62581 3.83023 0
M  V30 8324 H 769.292 1.72885 5.20963 0
M  V30 8325 H 769.553 0.183068 4.41721 0
M  V30 8326 N 768.612 -1.24939 0.960631 0
M  V30 8327 C 770.023 -1.74701 0.658529 0
M  V30 8328 C 770.374 -1.77967 -0.825959 0
M  V30 8329 O 769.499 -1.40444 -1.64634 0
M  V30 8330 C 770.094 -3.17263 1.18867 0
M  V30 8331 C 768.653 -3.64561 0.936614 0
M  V30 8332 C 767.8 -2.43423 1.32817 0
M  V30 8333 H 770.751 -1.10741 1.13676 0
M  V30 8334 H 770.772 -3.76481 0.551589 0
M  V30 8335 H 770.284 -3.14854 2.26912 0
M  V30 8336 H 768.385 -3.72378 -0.128608 0
M  V30 8337 H 768.498 -4.52392 1.57729 0
M  V30 8338 H 766.862 -2.43513 0.746548 0
M  V30 8339 H 767.645 -2.437 2.41796 0
M  V30 8340 N 770.09 -0.729906 -1.39679 0
M  V30 8341 C 771.318 -0.285709 -2.04918 0
M  V30 8342 C 771.733 1.07765 -1.55023 0
M  V30 8343 O 771.09 1.67999 -0.712923 0
M  V30 8344 C 771.141 -0.272793 -3.60469 0
M  V30 8345 O 770.862 -1.58233 -4.08527 0
M  V30 8346 C 772.363 0.188199 -4.429 0
M  V30 8347 H 769.583 -0.125758 -0.65911 0
M  V30 8348 H 772.127 -0.992129 -1.78821 0
M  V30 8349 H 770.282 0.384699 -3.85485 0
M  V30 8350 H 770.696 -1.49245 -5.02818 0
M  V30 8351 H 772.17 0.14608 -5.51807 0
M  V30 8352 H 772.647 1.2326 -4.21549 0
M  V30 8353 H 773.253 -0.439541 -4.23023 0
M  V30 8354 N 771.568 1.50203 -0.477153 0
M  V30 8355 C 772.793 2.07263 0.0754986 0
M  V30 8356 C 773.218 1.33801 1.32208 0
M  V30 8357 O 772.576 0.387482 1.77111 0
M  V30 8358 C 772.624 3.59028 0.336348 0
M  V30 8359 O 771.728 3.87339 1.4157 0
M  V30 8360 H 771.069 0.663815 -0.015662 0
M  V30 8361 H 773.599 1.93321 -0.669936 0
M  V30 8362 H 773.609 4.03927 0.575034 0
M  V30 8363 H 772.284 4.11912 -0.574551 0
M  V30 8364 H 770.861 3.54272 1.16385 0
M  V30 8365 N 773.046 0.209999 1.56195 0
M  V30 8366 C 774.457 -0.299943 1.84275 0
M  V30 8367 C 774.808 -1.60314 1.1311 0
M  V30 8368 O 773.933 -2.1273 0.396874 0
M  V30 8369 C 774.528 -0.550986 3.3429 0
M  V30 8370 C 773.087 -1.00526 3.62728 0
M  V30 8371 C 772.234 -0.0619828 2.77231 0
M  V30 8372 H 775.185 0.433458 1.52666 0
M  V30 8373 H 775.206 -1.39846 3.53869 0
M  V30 8374 H 774.718 0.397669 3.86057 0
M  V30 8375 H 772.819 -1.96768 3.16407 0
M  V30 8376 H 772.932 -0.887664 4.70805 0
M  V30 8377 H 771.296 -0.566648 2.48317 0
M  V30 8378 H 772.079 0.881383 3.31793 0
M  V30 8379 N 774.524 -1.57472 -0.0634922 0
M  V30 8380 C 775.752 -1.91887 -0.773767 0
M  V30 8381 C 776.167 -0.806733 -1.70696 0
M  V30 8382 O 775.524 0.219383 -1.81177 0
M  V30 8383 C 775.575 -3.26092 -1.56034 0
M  V30 8384 O 775.296 -4.33029 -0.66464 0
M  V30 8385 C 776.797 -3.74573 -2.37087 0
M  V30 8386 H 774.017 -0.634074 -0.219525 0
M  V30 8387 H 776.561 -2.04476 -0.0312828 0
M  V30 8388 H 774.716 -3.15004 -2.25502 0
M  V30 8389 H 775.13 -5.10291 -1.21258 0
M  V30 8390 H 776.604 -4.71084 -2.87722 0
M  V30 8391 H 777.081 -3.04003 -3.16984 0
M  V30 8392 H 777.687 -3.88631 -1.72759 0
M  V30 8393 N 776.003 0.335068 -1.53997 0
M  V30 8394 C 776.933 1.41727 -1.85568 0
M  V30 8395 C 777.914 1.54505 -0.7115 0
M  V30 8396 O 779.099 1.68573 -0.964191 0
M  V30 8397 C 776.229 2.7866 -2.07282 0
M  V30 8398 C 775.183 2.80682 -3.23112 0
M  V30 8399 C 774.509 4.20581 -3.30175 0
M  V30 8400 C 775.809 2.45458 -4.61029 0
M  V30 8401 H 777.503 1.15555 -2.76202 0
M  V30 8402 H 775.049 0.554445 -1.32898 0
M  V30 8403 H 777.002 3.54423 -2.27952 0
M  V30 8404 H 775.726 3.06286 -1.13387 0
M  V30 8405 H 774.385 2.07373 -3.02311 0
M  V30 8406 H 774.033 4.4533 -2.33859 0
M  V30 8407 H 773.733 4.22843 -4.08016 0
M  V30 8408 H 775.257 4.98174 -3.53066 0
M  V30 8409 H 776.671 3.10934 -4.81656 0
M  V30 8410 H 775.068 2.5899 -5.41336 0
M  V30 8411 H 776.138 1.40628 -4.6406 0
M  V30 8412 N 777.481 1.45874 0.596531 0
M  V30 8413 C 778.413 1.51408 1.7207 0
M  V30 8414 C 779.426 0.403738 1.57714 0
M  V30 8415 O 780.615 0.671384 1.65393 0
M  V30 8416 C 777.715 1.3652 3.10186 0
M  V30 8417 C 776.888 2.61428 3.50677 0
M  V30 8418 C 775.947 2.40937 4.67799 0
M  V30 8419 O 774.973 3.14602 4.74357 0
M  V30 8420 N 776.175 1.4621 5.61785 0
M  V30 8421 H 778.94 2.48333 1.67782 0
M  V30 8422 H 776.501 1.41755 0.782129 0
M  V30 8423 H 778.493 1.20606 3.86311 0
M  V30 8424 H 777.063 0.478302 3.08919 0
M  V30 8425 H 776.283 2.92381 2.644 0
M  V30 8426 H 777.571 3.44432 3.74491 0
M  V30 8427 H 776.969 0.854382 5.59211 0
M  V30 8428 H 775.526 1.36264 6.37397 0
M  V30 8429 N 778.959 -0.83999 1.33349 0
M  V30 8430 C 780.375 -1.13049 1.12659 0
M  V30 8431 C 780.575 -2.01328 -0.0832613 0
M  V30 8432 O 779.631 -2.40669 -0.763856 0
M  V30 8433 C 780.944 -1.79366 2.41347 0
M  V30 8434 C 782.492 -1.91937 2.47243 0
M  V30 8435 C 782.967 -2.6167 3.75889 0
M  V30 8436 N 784.458 -2.69184 3.76954 0
M  V30 8437 C 785.193 -3.23827 4.73206 0
M  V30 8438 N 784.689 -3.79166 5.79832 0
M  V30 8439 N 786.482 -3.22068 4.60683 0
M  V30 8440 H 778.633 -0.252432 2.10895 0
M  V30 8441 H 780.896 -0.174501 0.931801 0
M  V30 8442 H 780.602 -1.2196 3.29877 0
M  V30 8443 H 780.476 -2.79396 2.53412 0
M  V30 8444 H 782.863 -2.48498 1.59163 0
M  V30 8445 H 782.944 -0.908604 2.39119 0
M  V30 8446 H 782.588 -2.05769 4.64351 0
M  V30 8447 H 782.518 -3.63217 3.81289 0
M  V30 8448 H 785.009 -2.2994 2.99893 0
M  V30 8449 H 785.322 -4.19061 6.49313 0
M  V30 8450 H 783.667 -3.77457 5.83568 0
M  V30 8451 H 786.858 -2.78092 3.7654 0
M  V30 8452 H 787.031 -3.64351 5.35866 0
M  V30 8453 N 780.437 -1.16799 -1.0581 0
M  V30 8454 C 781.848 -0.95945 -1.60161 0
M  V30 8455 C 782.199 0.49543 -1.89842 0
M  V30 8456 O 781.324 1.36957 -1.67546 0
M  V30 8457 C 781.919 -1.73527 -2.90987 0
M  V30 8458 C 780.478 -1.57158 -3.42021 0
M  V30 8459 C 779.625 -1.74089 -2.15843 0
M  V30 8460 H 782.576 -1.31598 -0.886992 0
M  V30 8461 H 782.597 -1.21397 -3.60615 0
M  V30 8462 H 782.109 -2.79411 -2.69353 0
M  V30 8463 H 780.21 -0.537361 -3.68705 0
M  V30 8464 H 780.323 -2.35858 -4.17022 0
M  V30 8465 H 778.687 -1.16874 -2.26302 0
M  V30 8466 H 779.47 -2.81371 -1.96686 0
M  V30 8467 N 781.915 1.24427 -0.967243 0
M  V30 8468 C 783.143 1.96541 -0.646477 0
M  V30 8469 C 783.558 1.71753 0.783996 0
M  V30 8470 O 782.915 1.00102 1.52597 0
M  V30 8471 C 782.966 3.4983 -0.911098 0
M  V30 8472 O 782.687 3.7377 -2.28534 0
M  V30 8473 C 784.188 4.3916 -0.604458 0
M  V30 8474 H 781.408 0.626129 -0.241255 0
M  V30 8475 H 783.952 1.58268 -1.29505 0
M  V30 8476 H 782.107 3.86168 -0.308741 0
M  V30 8477 H 782.521 4.68154 -2.365 0
M  V30 8478 H 783.995 5.4557 -0.840069 0
M  V30 8479 H 784.472 4.36771 0.461273 0
M  V30 8480 H 785.078 4.08409 -1.1867 0
M  V30 8481 N 783.393 0.737304 1.3929 0
M  V30 8482 C 784.343 0.0748537 2.27877 0
M  V30 8483 C 785.327 -0.71022 1.44377 0
M  V30 8484 O 786.519 -0.578851 1.67267 0
M  V30 8485 C 783.648 -0.82991 3.33118 0
M  V30 8486 C 782.734 -0.0388619 4.24082 0
M  V30 8487 N 783.125 0.989182 4.96033 0
M  V30 8488 C 781.423 -0.268167 4.45193 0
M  V30 8489 C 782.124 1.46639 5.62914 0
M  V30 8490 N 781.1 0.784581 5.37908 0
M  V30 8491 H 784.902 0.862457 2.80961 0
M  V30 8492 H 782.416 0.571845 1.51999 0
M  V30 8493 H 784.413 -1.31999 3.95452 0
M  V30 8494 H 783.073 -1.61665 2.81593 0
M  V30 8495 H 784.084 1.3706 4.99435 0
M  V30 8496 H 780.761 -1.02953 4.04607 0
M  V30 8497 H 782.151 2.32182 6.30508 0
M  V30 8498 N 784.871 -1.49948 0.485112 0
M  V30 8499 C 785.804 -2.25531 -0.348027 0
M  V30 8500 C 786.782 -1.29433 -0.984172 0
M  V30 8501 O 787.966 -1.58687 -1.01738 0
M  V30 8502 C 785.093 -3.04225 -1.48878 0
M  V30 8503 C 784.139 -4.15355 -0.968616 0
M  V30 8504 S 784.972 -5.35347 0.127934 0
M  V30 8505 C 786.128 -6.17593 -1.01637 0
M  V30 8506 H 786.361 -2.95847 0.293529 0
M  V30 8507 H 783.894 -1.52018 0.27018 0
M  V30 8508 H 785.852 -3.50153 -2.14251 0
M  V30 8509 H 784.513 -2.33407 -2.1019 0
M  V30 8510 H 783.706 -4.69873 -1.82305 0
M  V30 8511 H 783.308 -3.71936 -0.392377 0
M  V30 8512 H 785.6 -6.49576 -1.92503 0
M  V30 8513 H 786.543 -7.0626 -0.510149 0
M  V30 8514 H 786.951 -5.49877 -1.27653 0
M  V30 8515 N 786.349 -0.21828 -1.56081 0
M  V30 8516 C 787.297 0.709679 -2.21509 0
M  V30 8517 C 788.291 1.20221 -1.19346 0
M  V30 8518 O 789.497 1.16241 -1.37433 0
M  V30 8519 H 785.872 0.247271 -0.710184 0
M  V30 8520 H 787.843 0.134386 -2.98097 0
M  V30 8521 C 786.592 1.90853 -2.90638 0
M  V30 8522 H 785.915 1.53865 -3.69006 0
M  V30 8523 H 787.355 2.53568 -3.39822 0
M  V30 8524 C 785.814 2.76189 -1.92929 0
M  V30 8525 O 786.344 3.74842 -1.44416 0
M  V30 8526 N 784.55 2.42157 -1.6065 0
M  V30 8527 H 784.097 1.61987 -2.00294 0
M  V30 8528 H 784.055 2.99534 -0.955347 0
M  V30 8529 N 787.827 1.57504 0.0551401 0
M  V30 8530 C 788.759 2.0158 1.09078 0
M  V30 8531 C 789.772 0.92434 1.34014 0
M  V30 8532 O 790.961 1.20202 1.31961 0
M  V30 8533 C 788.061 2.35385 2.43818 0
M  V30 8534 C 787.234 3.66588 2.38605 0
M  V30 8535 C 786.293 3.87874 3.55585 0
M  V30 8536 O 785.319 4.59259 3.36258 0
M  V30 8537 N 786.521 3.31503 4.76536 0
M  V30 8538 H 789.286 2.91039 0.71529 0
M  V30 8539 H 786.847 1.60058 0.243532 0
M  V30 8540 H 788.839 2.46784 3.20749 0
M  V30 8541 H 787.409 1.51731 2.73307 0
M  V30 8542 H 786.629 3.65787 1.46947 0
M  V30 8543 H 787.917 4.52706 2.32239 0
M  V30 8544 H 787.315 2.73592 4.9514 0
M  V30 8545 H 785.872 3.48324 5.50921 0
M  V30 8546 N 789.305 -0.326896 1.54172 0
M  V30 8547 C 790.238 -1.42591 1.78166 0
M  V30 8548 C 791.216 -1.49837 0.631484 0
M  V30 8549 O 792.4 -1.67298 0.868544 0
M  V30 8550 C 789.527 -2.8071 1.89524 0
M  V30 8551 C 788.573 -2.91012 3.11792 0
M  V30 8552 S 789.406 -2.55763 4.70474 0
M  V30 8553 C 790.562 -3.9596 4.84733 0
M  V30 8554 H 790.795 -1.22024 2.71104 0
M  V30 8555 H 788.328 -0.523539 1.45253 0
M  V30 8556 H 790.286 -3.60276 1.96753 0
M  V30 8557 H 788.947 -2.98562 0.975696 0
M  V30 8558 H 788.14 -3.92258 3.16464 0
M  V30 8559 H 787.742 -2.19414 3.02876 0
M  V30 8560 H 790.034 -4.90676 4.67166 0
M  V30 8561 H 790.977 -3.96273 5.86833 0
M  V30 8562 H 791.385 -3.8476 4.13062 0
M  V30 8563 N 790.784 -1.46188 -0.588786 0
M  V30 8564 C 792.03 -1.51407 -1.34921 0
M  V30 8565 C 792.363 -0.162771 -1.93517 0
M  V30 8566 O 791.638 0.825082 -1.76132 0
M  V30 8567 C 791.921 -2.60795 -2.48311 0
M  V30 8568 C 791.774 -4.05435 -1.94789 0
M  V30 8569 C 793.093 -2.66313 -3.50379 0
M  V30 8570 H 790.212 -0.551213 -0.489217 0
M  V30 8571 H 792.854 -1.78095 -0.661993 0
M  V30 8572 H 791.004 -2.3817 -3.06932 0
M  V30 8573 H 792.676 -4.39328 -1.40672 0
M  V30 8574 H 790.919 -4.15202 -1.25659 0
M  V30 8575 H 791.59 -4.77691 -2.76613 0
M  V30 8576 H 794.066 -2.86634 -3.01629 0
M  V30 8577 H 792.942 -3.44681 -4.27184 0
M  V30 8578 H 793.203 -1.72127 -4.07216 0
M  V30 8579 N 792.262 0.832906 -1.33792 0
M  V30 8580 C 793.509 1.58853 -1.25586 0
M  V30 8581 C 793.837 1.93695 0.176807 0
M  V30 8582 O 793.092 1.59386 1.13554 0
M  V30 8583 C 793.391 2.9047 -2.08235 0
M  V30 8584 C 793.057 2.74965 -3.57358 0
M  V30 8585 C 791.719 2.70444 -3.98012 0
M  V30 8586 C 794.071 2.59347 -4.52093 0
M  V30 8587 C 791.399 2.48212 -5.31608 0
M  V30 8588 C 793.751 2.38649 -5.85858 0
M  V30 8589 C 792.415 2.32533 -6.25687 0
M  V30 8590 H 791.685 0.581285 -0.459553 0
M  V30 8591 H 794.332 0.964501 -1.65438 0
M  V30 8592 H 792.637 3.57111 -1.6118 0
M  V30 8593 H 794.334 3.48001 -1.99239 0
M  V30 8594 H 790.924 2.79319 -3.25083 0
M  V30 8595 H 795.108 2.6187 -4.2159 0
M  V30 8596 H 790.364 2.41929 -5.61498 0
M  V30 8597 H 794.538 2.25549 -6.58863 0
M  V30 8598 H 792.165 2.15067 -7.29143 0
M  V30 8599 N 793.74 1.17359 1.05189 0
M  V30 8600 C 794.69 0.858445 2.11222 0
M  V30 8601 C 795.674 -0.166991 1.60031 0
M  V30 8602 O 796.866 0.0354456 1.76965 0
M  V30 8603 C 793.995 0.373549 3.41262 0
M  V30 8604 C 793.081 1.43041 3.99249 0
M  V30 8605 N 793.472 2.64387 4.312 0
M  V30 8606 C 791.77 1.28828 4.26989 0
M  V30 8607 C 792.471 3.32296 4.77446 0
M  V30 8608 N 791.447 2.59674 4.77567 0
M  V30 8609 H 795.249 1.78104 2.33786 0
M  V30 8610 H 792.763 1.0623 1.22837 0
M  V30 8611 H 794.76 0.129331 4.16699 0
M  V30 8612 H 793.42 -0.542847 3.2013 0
M  V30 8613 H 794.431 3.01351 4.21198 0
M  V30 8614 H 791.108 0.43353 4.15243 0
M  V30 8615 H 792.498 4.35939 5.11279 0
M  V30 8616 N 795.218 -1.23913 0.973828 0
M  V30 8617 C 796.165 -2.25132 0.508366 0
M  V30 8618 C 797.135 -1.59908 -0.449307 0
M  V30 8619 O 798.32 -1.87405 -0.358313 0
M  V30 8620 C 795.46 -3.4458 -0.189422 0
M  V30 8621 C 794.573 -4.24381 0.807738 0
M  V30 8622 C 793.708 -5.31131 0.0854315 0
M  V30 8623 C 792.747 -6.02635 1.07225 0
M  V30 8624 N 791.884 -7.01073 0.379535 0
M  V30 8625 H 796.724 -2.64313 1.37632 0
M  V30 8626 H 794.261 -1.29924 0.689802 0
M  V30 8627 H 796.219 -4.12706 -0.610733 0
M  V30 8628 H 794.849 -3.06218 -1.02129 0
M  V30 8629 H 793.901 -3.55735 1.34747 0
M  V30 8630 H 795.213 -4.73778 1.55998 0
M  V30 8631 H 794.367 -6.05422 -0.393572 0
M  V30 8632 H 793.106 -4.82658 -0.699461 0
M  V30 8633 H 792.111 -5.27143 1.56207 0
M  V30 8634 H 793.336 -6.53197 1.85769 0
M  V30 8635 H 791.282 -6.54862 -0.386269 0
M  V30 8636 H 791.199 -7.48382 1.07054 0
M  V30 8637 H 792.467 -7.79462 -0.0772984 0
M  V30 8638 N 796.696 -0.74468 -1.38897 0
M  V30 8639 C 797.945 -0.293716 -1.9955 0
M  V30 8640 C 798.258 1.12831 -1.59777 0
M  V30 8641 O 799.464 1.67929 -2.13336 0
M  V30 8642 C 797.92 -0.474188 -3.56762 0
M  V30 8643 C 797.528 -1.90472 -4.05493 0
M  V30 8644 C 799.272 -0.0854875 -4.24414 0
M  V30 8645 C 797.179 -2.03423 -5.55314 0
M  V30 8646 H 796.109 -0.106066 -0.746502 0
M  V30 8647 H 798.76 -0.919948 -1.58774 0
M  V30 8648 H 797.142 0.221092 -3.95382 0
M  V30 8649 H 798.316 -2.63274 -3.78184 0
M  V30 8650 H 796.631 -2.24752 -3.50536 0
M  V30 8651 H 799.228 -0.161133 -5.34457 0
M  V30 8652 H 799.571 0.96066 -4.05064 0
M  V30 8653 H 800.104 -0.732286 -3.91002 0
M  V30 8654 H 796.843 -3.0626 -5.79556 0
M  V30 8655 H 796.363 -1.3507 -5.84394 0
M  V30 8656 H 798.042 -1.81996 -6.20876 0
M  V30 8657 N 798.174 1.49689 -0.493057 0
M  V30 8658 C 799.59 1.58907 -0.148526 0
M  V30 8659 C 799.79 1.4991 1.34645 0
M  V30 8660 O 798.846 1.36893 2.12171 0
M  V30 8661 C 800.159 2.91996 -0.718265 0
M  V30 8662 C 801.707 3.05443 -0.683658 0
M  V30 8663 C 802.182 4.41138 -1.23132 0
M  V30 8664 N 803.673 4.47608 -1.19167 0
M  V30 8665 C 804.408 5.51038 -1.5857 0
M  V30 8666 N 803.904 6.61612 -2.05528 0
M  V30 8667 N 805.697 5.41706 -1.50036 0
M  V30 8668 H 797.848 1.5378 -1.46511 0
M  V30 8669 H 800.111 0.727996 -0.607228 0
M  V30 8670 H 799.817 3.04123 -1.7664 0
M  V30 8671 H 799.691 3.76798 -0.17419 0
M  V30 8672 H 802.078 2.92949 0.355626 0
M  V30 8673 H 802.159 2.22344 -1.26479 0
M  V30 8674 H 801.803 4.54382 -2.26935 0
M  V30 8675 H 801.733 5.22864 -0.626201 0
M  V30 8676 H 804.224 3.68274 -0.847524 0
M  V30 8677 H 804.537 7.36622 -2.33685 0
M  V30 8678 H 802.882 6.62674 -2.09497 0
M  V30 8679 H 806.073 4.54212 -1.13176 0
M  V30 8680 H 806.246 6.22188 -1.81068 0
M  V30 8681 N 799.652 0.226554 1.55963 0
M  V30 8682 C 800.6 -0.697922 2.21882 0
M  V30 8683 C 801.594 -1.19586 1.19981 0
M  V30 8684 O 802.8 -1.15511 1.38048 0
M  V30 8685 H 799.175 -0.243501 0.711485 0
M  V30 8686 H 801.146 -0.118576 2.98164 0
M  V30 8687 C 799.895 -1.89309 2.91646 0
M  V30 8688 H 799.218 -1.51906 3.69817 0
M  V30 8689 H 800.658 -2.51762 3.41162 0
M  V30 8690 C 799.117 -2.75162 1.94391 0
M  V30 8691 O 799.647 -3.74071 1.46402 0
M  V30 8692 N 797.853 -2.41302 1.61932 0
M  V30 8693 H 797.4 -1.60923 2.01151 0
M  V30 8694 H 797.358 -2.99023 0.971219 0
M  V30 8695 N 801.13 -1.57531 -0.0467866 0
M  V30 8696 C 802.04 -2.08768 -1.07018 0
M  V30 8697 C 803.056 -1.02245 -1.40791 0
M  V30 8698 O 804.232 -1.33873 -1.50466 0
M  V30 8699 C 801.297 -2.54221 -2.35738 0
M  V30 8700 C 800.358 -3.75152 -2.08709 0
M  V30 8701 C 799.591 -4.18428 -3.31291 0
M  V30 8702 O 799.814 -3.61365 -4.4133 0
M  V30 8703 O 798.748 -5.11018 -3.18032 0
M  V30 8704 H 802.574 -2.96334 -0.664812 0
M  V30 8705 H 800.159 -1.47074 -0.262605 0
M  V30 8706 H 802.041 -2.83866 -3.11445 0
M  V30 8707 H 800.716 -1.69774 -2.75605 0
M  V30 8708 H 799.623 -3.50553 -1.30627 0
M  V30 8709 H 800.956 -4.60528 -1.73708 0
M  V30 8710 N 802.608 0.318715 -1.54344 0
M  V30 8711 C 803.885 1.07461 -1.63437 0
M  V30 8712 C 804.265 2.05771 -0.47131 0
M  V30 8713 O 803.613 2.22175 0.53391 0
M  V30 8714 C 803.823 1.77224 -3.00654 0
M  V30 8715 C 805.171 2.30069 -3.56866 0
M  V30 8716 O 806.195 1.87284 -3.0299 0
M  V30 8717 O 805.054 3.08412 -4.51159 0
M  V30 8718 H 802.148 0.495627 -0.66203 0
M  V30 8719 H 804.694 0.318218 -1.6669 0
M  V30 8720 H 803.466 1.05742 -3.76742 0
M  V30 8721 H 803.089 2.59662 -3.01101 0
M  V30 8722 N 804.086 1.46499 0.581025 0
M  V30 8723 C 805.016 1.60052 1.70017 0
M  V30 8724 C 805.997 0.450788 1.64018 0
M  V30 8725 O 807.182 0.677237 1.82009 0
M  V30 8726 C 804.312 1.5921 3.08658 0
M  V30 8727 C 803.266 2.73169 3.29488 0
M  V30 8728 C 802.592 2.57389 4.68674 0
M  V30 8729 C 803.892 4.14978 3.1716 0
M  V30 8730 H 805.586 2.53735 1.5893 0
M  V30 8731 H 803.132 1.22113 0.763173 0
M  V30 8732 H 805.085 1.67285 3.86773 0
M  V30 8733 H 803.809 0.620718 3.20647 0
M  V30 8734 H 802.468 2.64566 2.53773 0
M  V30 8735 H 802.116 1.58331 4.77431 0
M  V30 8736 H 801.816 3.33826 4.83564 0
M  V30 8737 H 803.34 2.67358 5.48956 0
M  V30 8738 H 804.754 4.24684 3.85119 0
M  V30 8739 H 803.151 4.92016 3.4357 0
M  V30 8740 H 804.221 4.35016 2.14218 0
M  V30 8741 N 805.565 -0.825799 1.34232 0
M  V30 8742 C 806.814 -1.57686 1.2577 0
M  V30 8743 C 807.127 -1.94848 -0.171372 0
M  V30 8744 O 808.333 -2.68854 -0.378123 0
M  V30 8745 C 806.789 -2.84478 2.20454 0
M  V30 8746 C 806.397 -2.54629 3.68603 0
M  V30 8747 C 808.141 -3.625 2.20893 0
M  V30 8748 C 806.048 -3.77597 4.55164 0
M  V30 8749 H 804.978 -0.591809 0.467203 0
M  V30 8750 H 807.629 -0.909421 1.59379 0
M  V30 8751 H 806.011 -3.52832 1.79793 0
M  V30 8752 H 807.185 -1.94404 4.17784 0
M  V30 8753 H 805.5 -1.89888 3.70582 0
M  V30 8754 H 808.097 -4.538 2.82789 0
M  V30 8755 H 808.44 -3.98404 1.20746 0
M  V30 8756 H 808.973 -3.01086 2.59985 0
M  V30 8757 H 805.712 -3.46815 5.56237 0
M  V30 8758 H 805.232 -4.37116 4.10719 0
M  V30 8759 H 806.911 -4.45039 4.69627 0
M  V30 8760 N 807.043 -1.17915 -1.04565 0
M  V30 8761 C 808.29 -0.971424 -1.77678 0
M  V30 8762 C 808.618 0.499401 -1.87979 0
M  V30 8763 O 807.873 1.38695 -1.38066 0
M  V30 8764 C 808.172 -1.56528 -3.213 0
M  V30 8765 C 807.838 -3.06138 -3.31044 0
M  V30 8766 C 806.5 -3.46974 -3.33411 0
M  V30 8767 C 808.852 -4.02151 -3.31548 0
M  V30 8768 C 806.18 -4.82406 -3.33918 0
M  V30 8769 C 808.532 -5.37492 -3.33595 0
M  V30 8770 C 807.196 -5.77782 -3.34251 0
M  V30 8771 H 806.466 -0.355469 -0.650171 0
M  V30 8772 H 809.113 -1.46902 -1.22849 0
M  V30 8773 H 807.418 -0.98955 -3.79098 0
M  V30 8774 H 809.115 -1.38003 -3.76505 0
M  V30 8775 H 805.705 -2.73589 -3.29919 0
M  V30 8776 H 809.889 -3.71656 -3.28916 0
M  V30 8777 H 805.145 -5.12927 -3.3274 0
M  V30 8778 H 809.319 -6.1166 -3.32934 0
M  V30 8779 H 806.946 -6.82702 -3.34397 0
M  V30 8780 N 808.521 1.23394 -0.980386 0
M  V30 8781 C 809.469 2.26872 -0.513018 0
M  V30 8782 C 810.463 1.63853 0.429948 0
M  V30 8783 O 811.669 1.77417 0.303842 0
M  V30 8784 H 808.044 0.737398 -0.147473 0
M  V30 8785 H 810.015 2.63654 -1.39746 0
M  V30 8786 C 808.764 3.47289 0.168962 0
M  V30 8787 H 808.087 3.96033 -0.547546 0
M  V30 8788 H 809.527 4.21502 0.459616 0
M  V30 8789 C 807.986 3.06425 1.40019 0
M  V30 8790 O 808.516 3.14708 2.49643 0
M  V30 8791 N 806.722 2.61339 1.27084 0
M  V30 8792 H 806.269 2.54799 0.378872 0
M  V30 8793 H 806.227 2.34364 2.09573 0
M  V30 8794 N 809.999 0.752036 1.385 0
M  V30 8795 C 810.909 0.125318 2.34265 0
M  V30 8796 C 811.925 -0.702437 1.59191 0
M  V30 8797 O 813.101 -0.626951 1.91393 0
M  V30 8798 C 810.166 -0.758486 3.38301 0
M  V30 8799 C 809.227 0.0834636 4.29219 0
M  V30 8800 C 808.46 -0.758252 5.28286 0
M  V30 8801 O 808.683 -1.99632 5.34325 0
M  V30 8802 O 807.617 -0.177878 6.01637 0
M  V30 8803 H 811.443 0.91617 2.89551 0
M  V30 8804 H 809.028 0.512911 1.4032 0
M  V30 8805 H 810.91 -1.26365 4.02007 0
M  V30 8806 H 809.585 -1.52786 2.85374 0
M  V30 8807 H 808.492 0.634545 3.68679 0
M  V30 8808 H 809.825 0.815455 4.85398 0
M  V30 8809 N 811.477 -1.49425 0.500989 0
M  V30 8810 C 812.702 -2.07356 -0.0425154 0
M  V30 8811 C 813.127 -1.35887 -1.30063 0
M  V30 8812 O 812.485 -0.41561 -1.76472 0
M  V30 8813 C 812.533 -3.59518 -0.279188 0
M  V30 8814 O 811.637 -3.89542 -1.3539 0
M  V30 8815 H 810.978 -0.663482 0.0262207 0
M  V30 8816 H 813.508 -1.92231 0.700607 0
M  V30 8817 H 813.518 -4.04791 -0.5107 0
M  V30 8818 H 812.193 -4.10946 0.640009 0
M  V30 8819 H 810.77 -3.56079 -1.10734 0
M  V30 8820 N 812.955 -0.234822 -1.55841 0
M  V30 8821 C 813.885 0.664217 -2.23854 0
M  V30 8822 C 814.866 1.19076 -1.2147 0
M  V30 8823 O 816.051 1.23232 -1.50091 0
M  V30 8824 C 813.181 1.86666 -2.9287 0
M  V30 8825 C 812.135 1.47341 -4.01839 0
M  V30 8826 C 811.461 2.75571 -4.58219 0
M  V30 8827 C 812.761 0.653479 -5.18196 0
M  V30 8828 H 814.455 0.0971213 -2.99242 0
M  V30 8829 H 812.001 0.0452724 -1.43929 0
M  V30 8830 H 813.954 2.50116 -3.39146 0
M  V30 8831 H 812.678 2.45894 -2.1495 0
M  V30 8832 H 811.337 0.862314 -3.56314 0
M  V30 8833 H 810.985 3.32971 -3.77014 0
M  V30 8834 H 810.685 2.49987 -5.31771 0
M  V30 8835 H 812.209 3.39939 -5.07221 0
M  V30 8836 H 813.623 1.19198 -5.60771 0
M  V30 8837 H 812.02 0.494188 -5.98062 0
M  V30 8838 H 813.09 -0.337004 -4.83728 0
M  V30 8839 N 814.433 1.57553 0.0384317 0
M  V30 8840 C 815.681 1.88468 0.729672 0
M  V30 8841 C 816.002 0.831302 1.76393 0
M  V30 8842 O 815.272 -0.13622 1.95426 0
M  V30 8843 H 813.852 0.695529 0.272485 0
M  V30 8844 H 816.514 1.94899 0.0066032 0
M  V30 8845 H 815.61 2.8705 1.22511 0
M  V30 8846 N 815.911 -0.310526 1.54511 0
M  V30 8847 C 816.843 -1.40405 1.8116 0
M  V30 8848 C 817.856 -1.47261 0.694114 0
M  V30 8849 O 819.045 -1.49751 0.971441 0
M  V30 8850 C 816.145 -2.78849 1.92604 0
M  V30 8851 C 815.318 -2.95041 3.22908 0
M  V30 8852 C 814.377 -4.13925 3.24889 0
M  V30 8853 O 813.403 -4.06463 3.98467 0
M  V30 8854 N 814.605 -5.24099 2.496 0
M  V30 8855 H 817.37 -1.17903 2.75534 0
M  V30 8856 H 814.931 -0.500564 1.53967 0
M  V30 8857 H 816.923 -3.5661 1.91342 0
M  V30 8858 H 815.493 -2.94342 1.05268 0
M  V30 8859 H 814.713 -2.04472 3.37023 0
M  V30 8860 H 816.001 -3.02763 4.08916 0
M  V30 8861 H 815.399 -5.33039 1.89435 0
M  V30 8862 H 813.956 -6.0023 2.54102 0
M  V30 8863 N 817.389 -1.46805 -0.573248 0
M  V30 8864 C 818.637 -1.52302 -1.32847 0
M  V30 8865 C 818.958 -0.180159 -1.94166 0
M  V30 8866 O 818.228 0.794291 -1.79075 0
M  V30 8867 H 816.808 -0.56097 -0.493276 0
M  V30 8868 H 819.47 -1.82998 -0.670642 0
M  V30 8869 H 818.566 -2.28089 -2.13031 0
M  V30 8870 N 818.867 0.818669 -1.34668 0
M  V30 8871 C 820.095 1.60674 -1.30351 0
M  V30 8872 C 820.51 1.88408 0.121546 0
M  V30 8873 O 819.867 1.47849 1.06991 0
M  V30 8874 C 819.918 2.94516 -2.09625 0
M  V30 8875 O 819.639 2.6799 -3.46573 0
M  V30 8876 C 821.14 3.8891 -2.12754 0
M  V30 8877 H 818.36 0.499306 -0.448258 0
M  V30 8878 H 820.904 1.01828 -1.77345 0
M  V30 8879 H 819.059 3.49908 -1.66262 0
M  V30 8880 H 819.473 3.53361 -3.87603 0
M  V30 8881 H 820.947 4.79972 -2.72637 0
M  V30 8882 H 821.424 4.24599 -1.12306 0
M  V30 8883 H 822.03 3.39453 -2.56225 0
M  V30 8884 N 820.346 1.18468 1.03938 0
M  V30 8885 C 821.593 0.980833 1.77161 0
M  V30 8886 C 821.921 -0.489425 1.88242 0
M  V30 8887 O 821.176 -1.37961 1.388 0
M  V30 8888 C 821.475 1.58229 3.20466 0
M  V30 8889 C 821.141 3.07889 3.29416 0
M  V30 8890 C 819.803 3.48737 3.31566 0
M  V30 8891 C 822.155 4.03903 3.29411 0
M  V30 8892 C 819.483 4.84171 3.31355 0
M  V30 8893 C 821.835 5.39253 3.3074 0
M  V30 8894 C 820.499 5.79547 3.31182 0
M  V30 8895 H 819.769 0.358912 0.648277 0
M  V30 8896 H 822.416 1.47552 1.22069 0
M  V30 8897 H 820.721 1.00964 3.78568 0
M  V30 8898 H 822.418 1.39998 3.75768 0
M  V30 8899 H 819.008 2.75335 3.28464 0
M  V30 8900 H 823.192 3.73395 3.2694 0
M  V30 8901 H 818.448 5.14685 3.30015 0
M  V30 8902 H 822.622 6.13417 3.29686 0
M  V30 8903 H 820.249 6.84466 3.30772 0
M  V30 8904 N 821.824 -1.22873 0.986916 0
M  V30 8905 C 823.052 -1.95487 0.677663 0
M  V30 8906 C 823.467 -1.72978 -0.756572 0
M  V30 8907 O 822.824 -1.02517 -1.50985 0
M  V30 8908 C 822.875 -3.48337 0.966638 0
M  V30 8909 O 822.596 -3.70087 2.34451 0
M  V30 8910 C 824.097 -4.38142 0.674248 0
M  V30 8911 H 821.317 -0.622211 0.251185 0
M  V30 8912 H 823.861 -1.56187 1.32007 0
M  V30 8913 H 822.016 -3.85628 0.370137 0
M  V30 8914 H 822.43 -4.64332 2.43918 0
M  V30 8915 H 823.904 -5.44165 0.926759 0
M  V30 8916 H 824.381 -4.3745 -0.391728 0
M  V30 8917 H 824.987 -4.06469 1.25152 0
M  V30 8918 N 823.302 -0.75937 -1.38099 0
M  V30 8919 C 824.249 -0.135508 -2.30402 0
M  V30 8920 C 825.219 0.703356 -1.50473 0
M  V30 8921 O 826.404 0.658287 -1.79084 0
M  V30 8922 C 823.544 0.747228 -3.36913 0
M  V30 8923 C 822.657 -0.106893 -4.31868 0
M  V30 8924 C 821.792 0.779388 -5.25451 0
M  V30 8925 C 820.831 -0.0780179 -6.1205 0
M  V30 8926 N 819.968 0.765545 -6.97914 0
M  V30 8927 H 824.808 -0.9282 -2.83176 0
M  V30 8928 H 822.345 -0.46935 -1.39411 0
M  V30 8929 H 824.303 1.27371 -3.97281 0
M  V30 8930 H 822.933 1.50565 -2.85535 0
M  V30 8931 H 821.985 -0.751063 -3.72912 0
M  V30 8932 H 823.297 -0.768798 -4.9284 0
M  V30 8933 H 822.451 1.37282 -5.90964 0
M  V30 8934 H 821.19 1.47501 -4.6486 0
M  V30 8935 H 820.195 -0.684078 -5.45528 0
M  V30 8936 H 821.42 -0.770786 -6.74712 0
M  V30 8937 H 819.366 1.44601 -6.39864 0
M  V30 8938 H 819.283 0.160666 -7.55829 0
M  V30 8939 H 820.551 1.34377 -7.6783 0
M  V30 8940 N 824.78 1.49157 -0.508906 0
M  V30 8941 C 826.029 2.0167 0.0346854 0
M  V30 8942 C 826.342 1.39302 1.37311 0
M  V30 8943 O 827.548 1.83189 2.00385 0
M  V30 8944 C 826.004 3.59725 0.112261 0
M  V30 8945 C 825.612 4.31069 -1.21999 0
M  V30 8946 C 827.356 4.20155 0.605798 0
M  V30 8947 C 825.263 5.81001 -1.10415 0
M  V30 8948 H 824.193 0.753814 0.0167355 0
M  V30 8949 H 826.844 1.7162 -0.649518 0
M  V30 8950 H 825.226 3.86525 0.861087 0
M  V30 8951 H 826.4 4.15962 -1.98273 0
M  V30 8952 H 824.715 3.82418 -1.64759 0
M  V30 8953 H 827.312 5.29964 0.710102 0
M  V30 8954 H 827.655 3.84051 1.60656 0
M  V30 8955 H 828.188 3.97705 -0.0867239 0
M  V30 8956 H 824.927 6.21643 -2.07941 0
M  V30 8957 H 824.447 5.9858 -0.382428 0
M  V30 8958 H 826.126 6.42207 -0.786116 0
M  V30 8959 N 826.258 0.243083 1.55714 0
M  V30 8960 C 827.505 -0.38272 1.9885 0
M  V30 8961 C 827.833 -1.58225 1.13115 0
M  V30 8962 O 827.088 -1.94861 0.181067 0
M  V30 8963 C 827.387 -0.839621 3.47398 0
M  V30 8964 C 827.053 0.251737 4.50197 0
M  V30 8965 C 825.715 0.551487 4.78029 0
M  V30 8966 C 828.067 0.988728 5.11736 0
M  V30 8967 C 825.395 1.59237 5.64677 0
M  V30 8968 C 827.747 2.0191 5.99512 0
M  V30 8969 C 826.411 2.32554 6.2568 0
M  V30 8970 H 825.681 -0.140047 0.727645 0
M  V30 8971 H 828.328 0.35011 1.88272 0
M  V30 8972 H 826.633 -1.65159 3.55288 0
M  V30 8973 H 828.33 -1.33404 3.78159 0
M  V30 8974 H 824.92 0.00796741 4.28599 0
M  V30 8975 H 829.104 0.7704 4.90284 0
M  V30 8976 H 824.36 1.83517 5.83208 0
M  V30 8977 H 828.534 2.59511 6.46241 0
M  V30 8978 H 826.161 3.13349 6.92616 0
M  V30 8979 N 827.736 -1.57571 -0.0300757 0
M  V30 8980 C 828.683 -2.06492 -1.03101 0
M  V30 8981 C 829.653 -0.953862 -1.3598 0
M  V30 8982 O 830.838 -1.22436 -1.46335 0
M  V30 8983 C 827.978 -2.54826 -2.32718 0
M  V30 8984 C 827.091 -3.79718 -2.06006 0
M  V30 8985 C 826.226 -4.16668 -3.29487 0
M  V30 8986 C 825.265 -5.3448 -2.98324 0
M  V30 8987 N 824.402 -5.66867 -4.14254 0
M  V30 8988 H 829.242 -2.91755 -0.606877 0
M  V30 8989 H 826.779 -1.44252 -0.288038 0
M  V30 8990 H 828.737 -2.80916 -3.08451 0
M  V30 8991 H 827.367 -1.72481 -2.72856 0
M  V30 8992 H 826.419 -3.60718 -1.20774 0
M  V30 8993 H 827.731 -4.65569 -1.79017 0
M  V30 8994 H 826.885 -4.43881 -4.13588 0
M  V30 8995 H 825.624 -3.29466 -3.59588 0
M  V30 8996 H 824.629 -5.07021 -2.12625 0
M  V30 8997 H 825.854 -6.23334 -2.69502 0
M  V30 8998 H 823.8 -4.82625 -4.44308 0
M  V30 8999 H 823.717 -6.47226 -3.90685 0
M  V30 9000 H 824.985 -5.98656 -4.99231 0
M  V30 9001 N 829.214 0.302327 -1.54673 0
M  V30 9002 C 830.462 1.03565 -1.73547 0
M  V30 9003 C 830.783 1.87843 -0.523448 0
M  V30 9004 O 830.053 1.90367 0.462295 0
M  V30 9005 H 828.633 0.385358 -0.639928 0
M  V30 9006 H 831.295 0.333632 -1.92023 0
M  V30 9007 H 830.391 1.68952 -2.62415 0
M  V30 9008 N 830.692 1.47107 0.565454 0
M  V30 9009 C 831.938 1.53535 1.32495 0
M  V30 9010 C 832.271 0.193537 1.93233 0
M  V30 9011 O 831.546 -0.796956 1.77423 0
M  V30 9012 C 831.829 2.64712 2.4413 0
M  V30 9013 C 831.682 4.08482 1.88314 0
M  V30 9014 C 833.001 2.71853 3.46098 0
M  V30 9015 H 830.12 0.558926 0.480386 0
M  V30 9016 H 832.762 1.79125 0.633575 0
M  V30 9017 H 830.912 2.43023 3.03104 0
M  V30 9018 H 832.584 4.4151 1.33665 0
M  V30 9019 H 830.827 4.17148 1.19037 0
M  V30 9020 H 831.498 4.82032 2.68978 0
M  V30 9021 H 833.974 2.91397 2.97031 0
M  V30 9022 H 832.85 3.51433 4.21646 0
M  V30 9023 H 833.111 1.78584 4.04426 0
M  V30 9024 N 832.17 -0.811516 1.35101 0
M  V30 9025 C 833.586 -1.10634 1.15031 0
M  V30 9026 C 833.786 -2.01459 -0.0405379 0
M  V30 9027 O 832.842 -2.42235 -0.712635 0
M  V30 9028 C 834.155 -1.74207 2.45097 0
M  V30 9029 C 835.703 -1.8665 2.51258 0
M  V30 9030 C 836.178 -2.53638 3.81355 0
M  V30 9031 N 837.669 -2.61128 3.82579 0
M  V30 9032 C 838.404 -3.13717 4.79968 0
M  V30 9033 N 837.9 -3.66782 5.87744 0
M  V30 9034 N 839.693 -3.12224 4.67411 0
M  V30 9035 H 831.844 -0.207641 2.11383 0
M  V30 9036 H 834.107 -0.154697 0.935293 0
M  V30 9037 H 833.813 -1.14936 3.32389 0
M  V30 9038 H 833.687 -2.73958 2.59281 0
M  V30 9039 H 836.074 -2.45066 1.64398 0
M  V30 9040 H 836.155 -0.857678 2.40993 0
M  V30 9041 H 835.799 -1.95873 4.68611 0
M  V30 9042 H 835.729 -3.55047 3.88907 0
M  V30 9043 H 838.22 -2.23527 3.04703 0
M  V30 9044 H 838.533 -4.05194 6.58056 0
M  V30 9045 H 836.878 -3.64994 5.91443 0
M  V30 9046 H 840.069 -2.70042 3.82354 0
M  V30 9047 H 840.242 -3.52903 5.43474 0
M  V30 9048 N 833.648 -1.19017 -1.03309 0
M  V30 9049 C 835.064 -0.941483 -1.28873 0
M  V30 9050 C 835.264 0.388587 -1.97718 0
M  V30 9051 O 834.32 1.12111 -2.26246 0
M  V30 9052 C 835.633 -2.11249 -2.13996 0
M  V30 9053 C 837.181 -2.15164 -2.27318 0
M  V30 9054 C 837.656 -3.31704 -3.15811 0
M  V30 9055 N 839.147 -3.31613 -3.23399 0
M  V30 9056 C 839.882 -4.18431 -3.9205 0
M  V30 9057 N 839.378 -5.15397 -4.62966 0
M  V30 9058 N 841.171 -4.06321 -3.88406 0
M  V30 9059 H 833.322 -2.04599 -0.570343 0
M  V30 9060 H 835.585 -0.894406 -0.314232 0
M  V30 9061 H 835.291 -3.07482 -1.70727 0
M  V30 9062 H 835.165 -2.07955 -3.14697 0
M  V30 9063 H 837.552 -1.19504 -2.6982 0
M  V30 9064 H 837.633 -2.22513 -1.26182 0
M  V30 9065 H 837.277 -4.2764 -2.74019 0
M  V30 9066 H 837.207 -3.21592 -4.16997 0
M  V30 9067 H 839.698 -2.6142 -2.72888 0
M  V30 9068 H 840.011 -5.78 -5.12968 0
M  V30 9069 H 838.356 -5.19349 -4.61846 0
M  V30 9070 H 841.547 -3.29849 -3.3214 0
M  V30 9071 H 841.72 -4.74196 -4.41635 0
M  V30 9072 N 835.127 1.22348 -0.993418 0
M  V30 9073 C 836.037 2.27987 -0.553076 0
M  V30 9074 C 837.053 1.69378 0.398386 0
M  V30 9075 O 838.229 1.99648 0.26509 0
M  V30 9076 C 835.294 3.46475 0.124809 0
M  V30 9077 C 834.355 4.20399 -0.869682 0
M  V30 9078 C 833.588 5.33229 -0.224052 0
M  V30 9079 O 833.811 5.61885 0.981915 0
M  V30 9080 O 832.745 5.94685 -0.929174 0
M  V30 9081 H 836.571 2.67822 -1.43195 0
M  V30 9082 H 834.156 1.28525 -0.761694 0
M  V30 9083 H 836.038 4.18369 0.504496 0
M  V30 9084 H 834.713 3.08565 0.978243 0
M  V30 9085 H 833.62 3.50774 -1.30031 0
M  V30 9086 H 834.953 4.62191 -1.69233 0
M  V30 9087 N 836.605 0.766683 1.37694 0
M  V30 9088 C 837.851 0.329201 2.0011 0
M  V30 9089 C 838.184 -1.09004 1.60723 0
M  V30 9090 O 837.459 -1.74895 0.850989 0
M  V30 9091 C 837.742 0.466989 3.57059 0
M  V30 9092 C 837.595 1.92828 4.06371 0
M  V30 9093 C 838.914 -0.131792 4.39903 0
M  V30 9094 H 836.033 0.12109 0.726984 0
M  V30 9095 H 838.675 0.968779 1.63446 0
M  V30 9096 H 836.825 -0.0775023 3.88423 0
M  V30 9097 H 838.497 2.53208 3.85595 0
M  V30 9098 H 836.74 2.43884 3.58752 0
M  V30 9099 H 837.411 1.97577 5.15429 0
M  V30 9100 H 839.887 0.332731 4.14768 0
M  V30 9101 H 838.763 -0.005217 5.489 0
M  V30 9102 H 839.024 -1.22156 4.24889 0
M  V30 9103 N 838.083 -1.48885 0.516809 0
M  V30 9104 C 839.331 -2.02088 -0.0220166 0
M  V30 9105 C 839.652 -1.39735 -1.36011 0
M  V30 9106 O 838.922 -0.558119 -1.87781 0
M  V30 9107 H 837.502 -0.746917 -0.0111255 0
M  V30 9108 H 840.164 -1.8274 0.677647 0
M  V30 9109 H 839.26 -3.11786 -0.140067 0
M  V30 9110 N 839.561 -0.251338 -1.55583 0
M  V30 9111 C 840.838 0.422729 -1.90977 0
M  V30 9112 C 841.218 1.75534 -1.17265 0
M  V30 9113 O 840.566 2.26632 -0.291588 0
M  V30 9114 C 840.776 0.586448 -3.44037 0
M  V30 9115 C 842.124 0.880294 -4.15375 0
M  V30 9116 O 843.148 0.672148 -3.49801 0
M  V30 9117 O 842.007 1.27694 -5.31372 0
M  V30 9118 H 839.101 0.227622 -0.795058 0
M  V30 9119 H 841.647 -0.295733 -1.67103 0
M  V30 9120 H 840.419 -0.352327 -3.89711 0
M  V30 9121 H 840.042 1.35528 -3.73789 0
M  V30 9122 N 841.039 1.57585 0.0217189 0
M  V30 9123 C 842.269 1.9359 0.721572 0
M  V30 9124 C 842.677 0.850132 1.69025 0
M  V30 9125 O 842.02 -0.181539 1.82801 0
M  V30 9126 C 842.082 3.25445 1.52729 0
M  V30 9127 C 841.746 4.51251 0.722586 0
M  V30 9128 C 842.743 5.19896 0.0196598 0
M  V30 9129 C 840.428 4.97745 0.674959 0
M  V30 9130 C 842.422 6.33319 -0.720114 0
M  V30 9131 C 840.109 6.11062 -0.068555 0
M  V30 9132 C 841.107 6.78704 -0.764845 0
M  V30 9133 O 840.795 7.89852 -1.49627 0
M  V30 9134 H 840.527 0.643409 0.207366 0
M  V30 9135 H 843.081 2.05391 -0.0189346 0
M  V30 9136 H 841.311 3.0999 2.31178 0
M  V30 9137 H 843 3.46721 2.11044 0
M  V30 9138 H 843.766 4.84977 0.0474394 0
M  V30 9139 H 839.645 4.44934 1.20643 0
M  V30 9140 H 843.189 6.86051 -1.26413 0
M  V30 9141 H 839.086 6.45425 -0.0982318 0
M  V30 9142 H 839.854 8.06251 -1.41071 0
M  V30 9143 N 842.517 -0.29412 1.54831 0
M  V30 9144 C 843.765 -1.02643 1.74094 0
M  V30 9145 C 844.086 -1.87563 0.533402 0
M  V30 9146 O 843.356 -1.9061 -0.452192 0
M  V30 9147 H 841.936 -0.381959 0.641963 0
M  V30 9148 H 844.598 -0.323444 1.92197 0
M  V30 9149 H 843.694 -1.67558 2.63307 0
M  V30 9150 N 843.995 -1.47404 -0.557645 0
M  V30 9151 C 844.927 -1.55917 -1.67995 0
M  V30 9152 C 845.94 -0.445411 -1.56588 0
M  V30 9153 O 847.129 -0.714999 -1.63554 0
M  V30 9154 C 844.229 -1.44697 -3.06457 0
M  V30 9155 C 843.402 -2.70633 -3.43622 0
M  V30 9156 C 842.461 -2.53256 -4.61246 0
M  V30 9157 O 841.487 -3.27068 -4.65849 0
M  V30 9158 N 842.689 -1.61053 -5.57711 0
M  V30 9159 H 845.454 -2.52694 -1.61139 0
M  V30 9160 H 843.015 -1.43778 -0.744271 0
M  V30 9161 H 845.007 -1.30806 -3.82978 0
M  V30 9162 H 843.577 -0.560039 -3.07542 0
M  V30 9163 H 842.797 -2.99288 -2.56555 0
M  V30 9164 H 844.085 -3.5424 -3.65228 0
M  V30 9165 H 843.483 -1.00235 -5.56749 0
M  V30 9166 H 842.04 -1.53115 -6.33561 0
M  V30 9167 N 845.473 0.80434 -1.35529 0
M  V30 9168 C 846.403 1.93086 -1.31301 0
M  V30 9169 C 847.384 1.69068 -0.187044 0
M  V30 9170 O 848.569 1.90399 -0.382359 0
M  V30 9171 C 845.699 3.29867 -1.0865 0
M  V30 9172 C 844.653 3.68373 -2.17911 0
M  V30 9173 C 843.979 5.0334 -1.80423 0
M  V30 9174 C 845.279 3.78516 -3.59893 0
M  V30 9175 H 846.973 1.96882 -2.25561 0
M  V30 9176 H 844.519 0.945841 -1.08581 0
M  V30 9177 H 846.472 4.08281 -1.04331 0
M  V30 9178 H 845.196 3.2642 -0.108359 0
M  V30 9179 H 843.855 2.92247 -2.21331 0
M  V30 9180 H 843.503 4.96399 -0.812213 0
M  V30 9181 H 843.203 5.30074 -2.53565 0
M  V30 9182 H 844.727 5.84191 -1.77633 0
M  V30 9183 H 846.141 4.47155 -3.58783 0
M  V30 9184 H 844.538 4.16721 -4.31814 0
M  V30 9185 H 845.608 2.8001 -3.95882 0
M  V30 9186 N 846.951 1.19563 1.02676 0
M  V30 9187 C 847.901 0.903055 2.09354 0
M  V30 9188 C 848.885 -0.133009 1.60349 0
M  V30 9189 O 850.077 0.0729744 1.7685 0
M  V30 9190 C 847.206 0.445852 3.40392 0
M  V30 9191 C 846.292 1.51477 3.96126 0
M  V30 9192 N 846.683 2.73474 4.25495 0
M  V30 9193 C 844.981 1.37856 4.2416 0
M  V30 9194 C 845.682 3.42348 4.7029 0
M  V30 9195 N 844.658 2.69746 4.71952 0
M  V30 9196 H 848.46 1.83023 2.29956 0
M  V30 9197 H 845.974 1.08812 1.20556 0
M  V30 9198 H 847.971 0.21769 4.16331 0
M  V30 9199 H 846.631 -0.47482 3.2121 0
M  V30 9200 H 847.642 3.10217 4.14711 0
M  V30 9201 H 844.319 0.521512 4.1423 0
M  V30 9202 H 845.709 4.46686 5.01917 0
M  V30 9203 N 848.429 -1.21819 0.999893 0
M  V30 9204 C 849.339 -2.27691 0.565159 0
M  V30 9205 C 850.355 -1.69587 -0.389398 0
M  V30 9206 O 851.531 -1.99786 -0.254499 0
M  V30 9207 C 848.596 -3.46537 -0.106432 0
M  V30 9208 C 847.657 -4.19932 0.891964 0
M  V30 9209 C 846.89 -5.33103 0.252327 0
M  V30 9210 O 847.113 -5.62398 -0.952103 0
M  V30 9211 O 846.047 -5.94184 0.960698 0
M  V30 9212 H 849.873 -2.67059 1.44613 0
M  V30 9213 H 847.458 -1.28119 0.768499 0
M  V30 9214 H 849.34 -4.18631 -0.482301 0
M  V30 9215 H 848.015 -3.09079 -0.961865 0
M  V30 9216 H 846.922 -3.5008 1.3189 0
M  V30 9217 H 848.255 -4.61287 1.71682 0
M  V30 9218 N 849.908 -0.773975 -1.37286 0
M  V30 9219 C 851.136 -0.350758 -2.03905 0
M  V30 9220 C 851.551 1.02779 -1.58373 0
M  V30 9221 O 850.908 1.65646 -0.766009 0
M  V30 9222 C 850.959 -0.387335 -3.59419 0
M  V30 9223 O 850.68 -1.7115 -4.03286 0
M  V30 9224 C 852.181 0.047198 -4.43275 0
M  V30 9225 H 849.401 -0.146663 -0.654775 0
M  V30 9226 H 851.945 -1.04852 -1.75574 0
M  V30 9227 H 850.1 0.261865 -3.86514 0
M  V30 9228 H 850.514 -1.65166 -4.97816 0
M  V30 9229 H 851.988 -0.0295474 -5.51992 0
M  V30 9230 H 852.465 1.09786 -4.25257 0
M  V30 9231 H 853.071 -0.573899 -4.2141 0
M  V30 9232 N 851.386 1.48609 -0.524698 0
M  V30 9233 C 852.296 2.33318 0.244923 0
M  V30 9234 C 853.312 1.46153 0.944214 0
M  V30 9235 O 854.488 1.79141 0.920347 0
M  V30 9236 C 851.553 3.22149 1.28144 0
M  V30 9237 C 850.614 4.25184 0.593068 0
M  V30 9238 C 849.847 5.0977 1.5802 0
M  V30 9239 O 850.07 4.96249 2.81235 0
M  V30 9240 O 849.004 5.9134 1.1225 0
M  V30 9241 H 852.83 3.00362 -0.449066 0
M  V30 9242 H 850.415 1.46643 -0.285689 0
M  V30 9243 H 852.297 3.77111 1.88057 0
M  V30 9244 H 850.972 2.57772 1.95793 0
M  V30 9245 H 849.879 3.74071 -0.0464214 0
M  V30 9246 H 851.212 4.92183 -0.0413893 0
M  V30 9247 N 852.864 0.259585 1.55447 0
M  V30 9248 C 854.11 -0.362143 1.9954 0
M  V30 9249 C 854.443 -1.5666 1.14767 0
M  V30 9250 O 853.718 -1.93319 0.214025 0
M  V30 9251 C 854.001 -0.759588 3.51998 0
M  V30 9252 C 853.854 0.451134 4.47532 0
M  V30 9253 C 855.173 -1.60186 4.09913 0
M  V30 9254 H 852.292 -0.130157 0.725416 0
M  V30 9255 H 854.934 0.363431 1.86492 0
M  V30 9256 H 853.084 -1.3778 3.63248 0
M  V30 9257 H 854.756 1.08965 4.48246 0
M  V30 9258 H 852.999 1.092 4.19831 0
M  V30 9259 H 853.67 0.129518 5.51848 0
M  V30 9260 H 856.146 -1.0799 4.01842 0
M  V30 9261 H 855.022 -1.84879 5.16828 0
M  V30 9262 H 855.283 -2.57787 3.59163 0
M  V30 9263 N 854.342 -1.57594 -0.0133615 0
M  V30 9264 C 855.272 -2.10611 -1.00823 0
M  V30 9265 C 856.253 -1.01217 -1.36708 0
M  V30 9266 O 857.438 -1.28827 -1.45318 0
M  V30 9267 C 854.568 -2.59844 -2.30431 0
M  V30 9268 C 853.522 -3.73644 -2.08745 0
M  V30 9269 C 852.848 -4.09141 -3.4425 0
M  V30 9270 C 854.148 -5.01454 -1.46086 0
M  V30 9271 H 855.842 -2.93985 -0.566849 0
M  V30 9272 H 853.388 -1.41423 -0.271219 0
M  V30 9273 H 855.341 -2.95557 -3.00373 0
M  V30 9274 H 854.065 -1.73573 -2.76658 0
M  V30 9275 H 852.724 -3.38303 -1.41232 0
M  V30 9276 H 852.372 -3.19914 -3.88155 0
M  V30 9277 H 852.072 -4.85802 -3.3056 0
M  V30 9278 H 853.596 -4.47402 -4.15528 0
M  V30 9279 H 855.01 -5.35024 -2.05966 0
M  V30 9280 H 853.407 -5.82832 -1.42924 0
M  V30 9281 H 854.477 -4.83003 -0.428471 0
M  V30 9282 N 855.82 0.285905 -1.54985 0
M  V30 9283 C 856.75 1.35752 -1.89983 0
M  V30 9284 C 857.731 1.52163 -0.760295 0
M  V30 9285 O 858.916 1.65421 -1.01733 0
M  V30 9286 C 856.046 2.71925 -2.16042 0
M  V30 9287 C 855 2.70261 -3.31878 0
M  V30 9288 C 854.326 4.09864 -3.43388 0
M  V30 9289 C 855.626 2.30667 -4.68604 0
M  V30 9290 H 857.32 1.06709 -2.79738 0
M  V30 9291 H 854.866 0.511884 -1.34595 0
M  V30 9292 H 856.819 3.46992 -2.39113 0
M  V30 9293 H 855.543 3.02523 -1.23074 0
M  V30 9294 H 854.202 1.97651 -3.08755 0
M  V30 9295 H 853.85 4.37664 -2.47909 0
M  V30 9296 H 853.55 4.09648 -4.21262 0
M  V30 9297 H 855.074 4.86689 -3.68736 0
M  V30 9298 H 856.488 2.95453 -4.91305 0
M  V30 9299 H 854.885 2.41637 -5.49301 0
M  V30 9300 H 855.955 1.25793 -4.68299 0
M  V30 9301 N 857.298 1.47698 0.54982 0
M  V30 9302 C 858.245 1.60739 1.65625 0
M  V30 9303 C 859.215 0.450129 1.59884 0
M  V30 9304 O 860.4 0.671123 1.78607 0
M  V30 9305 C 857.54 1.63457 3.03934 0
M  V30 9306 C 856.653 2.90152 3.20056 0
M  V30 9307 C 855.788 2.84157 4.48807 0
M  V30 9308 C 854.827 4.05644 4.58387 0
M  V30 9309 N 853.964 3.97843 5.78503 0
M  V30 9310 H 858.804 2.55234 1.53817 0
M  V30 9311 H 856.341 1.26593 0.749173 0
M  V30 9312 H 858.299 1.63015 3.84034 0
M  V30 9313 H 856.929 0.724689 3.1456 0
M  V30 9314 H 855.981 3.00428 2.33339 0
M  V30 9315 H 857.293 3.80097 3.22998 0
M  V30 9316 H 856.447 2.82006 5.37175 0
M  V30 9317 H 855.186 1.91908 4.48356 0
M  V30 9318 H 854.191 4.08092 3.6843 0
M  V30 9319 H 855.416 4.9903 4.60593 0
M  V30 9320 H 853.362 3.08401 5.78986 0
M  V30 9321 H 853.279 4.81473 5.82855 0
M  V30 9322 H 854.547 3.99719 6.69212 0
M  V30 9323 N 858.776 -0.797141 1.35954 0
M  V30 9324 C 860.022 -1.55698 1.29946 0
M  V30 9325 C 860.355 -1.93808 -0.123259 0
M  V30 9326 O 859.63 -1.62102 -1.07486 0
M  V30 9327 C 859.913 -2.83926 2.2149 0
M  V30 9328 C 859.766 -2.52232 3.72423 0
M  V30 9329 C 861.085 -3.85698 2.11955 0
M  V30 9330 H 858.204 -0.56488 0.47337 0
M  V30 9331 H 860.846 -0.916421 1.66438 0
M  V30 9332 H 858.996 -3.38588 1.905 0
M  V30 9333 H 860.668 -2.0368 4.13899 0
M  V30 9334 H 858.911 -1.85286 3.92239 0
M  V30 9335 H 859.582 -3.43782 4.31877 0
M  V30 9336 H 862.058 -3.40462 2.39218 0
M  V30 9337 H 860.934 -4.73182 2.78191 0
M  V30 9338 H 861.195 -4.28083 1.10442 0
M  V30 9339 N 860.254 -1.20106 -1.0204 0
M  V30 9340 C 861.184 -0.970301 -2.12385 0
M  V30 9341 C 862.165 0.099378 -1.69809 0
M  V30 9342 O 863.35 -0.057365 -1.94115 0
M  V30 9343 C 860.48 -0.517431 -3.43424 0
M  V30 9344 C 859.434 -1.52992 -3.99722 0
M  V30 9345 C 858.76 -0.933817 -5.26483 0
M  V30 9346 C 860.06 -2.91257 -4.33551 0
M  V30 9347 H 861.754 -1.89316 -2.31948 0
M  V30 9348 H 859.3 -0.911655 -1.11467 0
M  V30 9349 H 861.253 -0.343243 -4.2 0
M  V30 9350 H 859.977 0.441049 -3.23608 0
M  V30 9351 H 858.636 -1.6914 -3.2525 0
M  V30 9352 H 858.284 0.0324763 -5.0299 0
M  V30 9353 H 857.984 -1.60999 -5.65113 0
M  V30 9354 H 859.508 -0.770614 -6.05718 0
M  V30 9355 H 860.922 -2.78642 -5.0103 0
M  V30 9356 H 859.319 -3.55745 -4.83286 0
M  V30 9357 H 860.389 -3.43269 -3.42483 0
M  V30 9358 N 861.732 1.21287 -1.00634 0
M  V30 9359 C 863.009 1.86 -0.605257 0
M  V30 9360 C 863.389 1.90139 0.917072 0
M  V30 9361 O 862.737 1.40169 1.80458 0
M  V30 9362 C 862.947 3.26183 -1.24119 0
M  V30 9363 C 864.295 4.02562 -1.35015 0
M  V30 9364 O 865.319 3.35499 -1.19661 0
M  V30 9365 O 864.178 5.22638 -1.59726 0
M  V30 9366 H 861.272 0.800549 -0.207486 0
M  V30 9367 H 863.818 1.28959 -1.10307 0
M  V30 9368 H 862.59 3.17878 -2.28186 0
M  V30 9369 H 862.213 3.90845 -0.729807 0
M  V30 9370 N 863.21 0.781244 1.36873 0
M  V30 9371 C 864.157 0.172146 2.30157 0
M  V30 9372 C 865.127 -0.679328 1.51573 0
M  V30 9373 O 866.312 -0.629713 1.80109 0
M  V30 9374 C 863.452 -0.693534 3.38059 0
M  V30 9375 C 862.565 0.175586 4.31643 0
M  V30 9376 C 861.7 -0.695695 5.26625 0
M  V30 9377 C 860.739 0.17538 6.11849 0
M  V30 9378 N 859.876 -0.654416 6.99043 0
M  V30 9379 H 864.716 0.973133 2.81663 0
M  V30 9380 H 862.253 0.491469 1.38647 0
M  V30 9381 H 864.211 -1.21035 3.99257 0
M  V30 9382 H 862.841 -1.46003 2.87894 0
M  V30 9383 H 861.893 0.810295 3.7167 0
M  V30 9384 H 863.205 0.847107 4.91554 0
M  V30 9385 H 862.359 -1.27863 5.93073 0
M  V30 9386 H 861.098 -1.40087 4.67148 0
M  V30 9387 H 860.103 0.77078 5.4437 0
M  V30 9388 H 861.328 0.87803 6.734 0
M  V30 9389 H 859.274 -1.34403 6.42084 0
M  V30 9390 H 859.191 -0.0403998 7.55989 0
M  V30 9391 H 860.459 -1.22144 7.69871 0
M  V30 9392 N 864.689 -1.48329 0.532571 0
M  V30 9393 C 865.652 -2.2816 -0.218069 0
M  V30 9394 C 866.652 -1.35526 -0.865409 0
M  V30 9395 O 867.842 -1.58394 -0.725061 0
M  V30 9396 C 864.974 -3.1448 -1.31586 0
M  V30 9397 H 866.167 -2.95987 0.482865 0
M  V30 9398 H 863.72 -1.53612 0.288603 0
M  V30 9399 H 864.455 -2.5129 -2.04997 0
M  V30 9400 H 864.24 -3.82625 -0.856779 0
M  V30 9401 H 865.73 -3.74693 -1.84377 0
M  V30 9402 N 866.167 -0.267825 -1.55308 0
M  V30 9403 C 867.117 0.637168 -2.18916 0
M  V30 9404 C 868.101 1.12381 -1.15149 0
M  V30 9405 O 869.293 1.0701 -1.40989 0
M  V30 9406 C 866.422 1.82423 -2.90821 0
M  V30 9407 C 865.508 1.35512 -4.01867 0
M  V30 9408 N 865.899 0.601644 -5.02209 0
M  V30 9409 C 864.197 1.63868 -4.14805 0
M  V30 9410 C 864.898 0.35596 -5.8061 0
M  V30 9411 N 863.874 0.926271 -5.3565 0
M  V30 9412 H 867.676 0.0535787 -2.93851 0
M  V30 9413 H 865.19 -0.0710577 -1.62244 0
M  V30 9414 H 867.187 2.48379 -3.34834 0
M  V30 9415 H 865.847 2.41185 -2.17394 0
M  V30 9416 H 866.858 0.249693 -5.17298 0
M  V30 9417 H 863.535 2.23618 -3.52564 0
M  V30 9418 H 864.925 -0.246994 -6.71446 0
M  V30 9419 N 867.645 1.57599 0.00500368 0
M  V30 9420 C 869.061 1.55463 0.361015 0
M  V30 9421 C 869.261 0.997051 1.75103 0
M  V30 9422 O 868.317 0.628661 2.44549 0
M  V30 9423 C 869.63 2.99734 0.240828 0
M  V30 9424 C 871.178 3.11399 0.316138 0
M  V30 9425 C 871.653 4.57446 0.22513 0
M  V30 9426 N 873.144 4.62334 0.283186 0
M  V30 9427 C 873.879 5.72914 0.23603 0
M  V30 9428 N 873.375 6.92659 0.139762 0
M  V30 9429 N 875.168 5.61364 0.287529 0
M  V30 9430 H 867.319 1.92185 -0.904359 0
M  V30 9431 H 869.582 0.882529 -0.34619 0
M  V30 9432 H 869.288 3.44348 -0.715343 0
M  V30 9433 H 869.162 3.63009 1.02491 0
M  V30 9434 H 871.549 2.66718 1.26275 0
M  V30 9435 H 871.63 2.50911 -0.497725 0
M  V30 9436 H 871.274 5.02801 -0.717917 0
M  V30 9437 H 871.204 5.15874 1.05742 0
M  V30 9438 H 873.695 3.7619 0.359123 0
M  V30 9439 H 874.008 7.72722 0.10954 0
M  V30 9440 H 872.353 6.9492 0.105462 0
M  V30 9441 H 875.544 4.66707 0.360897 0
M  V30 9442 H 875.717 6.47528 0.247313 0
M  V30 9443 N 869.123 -0.277682 1.55134 0
M  V30 9444 C 870.071 -1.36305 1.88478 0
M  V30 9445 C 871.065 -1.51362 0.760654 0
M  V30 9446 O 872.271 -1.53202 0.944943 0
M  V30 9447 H 868.646 -0.45577 0.598146 0
M  V30 9448 H 870.617 -1.05431 2.79154 0
M  V30 9449 C 869.366 -2.71739 2.16918 0
M  V30 9450 H 868.689 -2.60942 3.02901 0
M  V30 9451 H 870.129 -3.46635 2.44172 0
M  V30 9452 C 868.588 -3.22476 0.975239 0
M  V30 9453 O 869.118 -4.01164 0.207497 0
M  V30 9454 N 867.324 -2.80097 0.774219 0
M  V30 9455 H 866.871 -2.16221 1.40022 0
M  V30 9456 H 866.829 -3.14392 -0.023021 0
M  V30 9457 N 870.601 -1.47988 -0.541979 0
M  V30 9458 C 871.831 -1.58804 -1.32155 0
M  V30 9459 C 872.239 -0.242893 -1.87634 0
M  V30 9460 O 871.582 0.776239 -1.66494 0
M  V30 9461 C 871.644 -2.56567 -2.51821 0
M  V30 9462 C 871.308 -4.01915 -2.17517 0
M  V30 9463 C 872.305 -4.89954 -1.73901 0
M  V30 9464 C 869.99 -4.47365 -2.28408 0
M  V30 9465 C 871.984 -6.21467 -1.41625 0
M  V30 9466 C 869.671 -5.78902 -1.95745 0
M  V30 9467 C 870.669 -6.65775 -1.52423 0
M  V30 9468 O 870.357 -7.94866 -1.20183 0
M  V30 9469 H 870.089 -0.538536 -0.408601 0
M  V30 9470 H 872.643 -1.94446 -0.661818 0
M  V30 9471 H 870.873 -2.16023 -3.20735 0
M  V30 9472 H 872.562 -2.57347 -3.13891 0
M  V30 9473 H 873.328 -4.56082 -1.64966 0
M  V30 9474 H 869.207 -3.79942 -2.61084 0
M  V30 9475 H 872.751 -6.8923 -1.07738 0
M  V30 9476 H 868.648 -6.12311 -2.04316 0
M  V30 9477 H 869.416 -8.07509 -1.33683 0
M  V30 9478 N 872.079 0.78992 -1.36375 0
M  V30 9479 C 873.304 1.58389 -1.33895 0
M  V30 9480 C 873.729 1.8794 0.0774934 0
M  V30 9481 O 873.087 1.4785 1.0493 0
M  V30 9482 C 873.135 2.88201 -2.16732 0
M  V30 9483 O 872.239 3.81778 -1.55946 0
M  V30 9484 H 871.58 0.480471 -0.458305 0
M  V30 9485 H 874.11 0.979119 -1.79651 0
M  V30 9486 H 874.12 3.37475 -2.29292 0
M  V30 9487 H 872.795 2.66019 -3.19698 0
M  V30 9488 H 871.372 3.40371 -1.52323 0
M  V30 9489 N 873.557 1.20646 1.01402 0
M  V30 9490 C 874.467 0.973385 2.13453 0
M  V30 9491 C 875.483 -0.0715865 1.73853 0
M  V30 9492 O 876.659 0.116438 2.01063 0
M  V30 9493 C 873.724 0.531285 3.42605 0
M  V30 9494 C 872.785 1.64741 3.96433 0
M  V30 9495 C 872.018 1.22631 5.1942 0
M  V30 9496 O 872.241 0.0960891 5.70319 0
M  V30 9497 O 871.175 2.03474 5.66465 0
M  V30 9498 H 875.001 1.91164 2.35987 0
M  V30 9499 H 872.586 0.990553 1.11841 0
M  V30 9500 H 874.468 0.294095 4.20373 0
M  V30 9501 H 873.143 -0.378358 3.21481 0
M  V30 9502 H 872.05 1.93891 3.19933 0
M  V30 9503 H 873.383 2.53415 4.2195 0
M  V30 9504 N 875.035 -1.20752 1.01276 0
M  V30 9505 C 876.26 -1.94547 0.718769 0
M  V30 9506 C 876.685 -1.7404 -0.713563 0
M  V30 9507 O 876.043 -1.03221 -1.49047 0
M  V30 9508 C 876.091 -3.44823 1.05497 0
M  V30 9509 O 875.195 -4.12072 0.164516 0
M  V30 9510 H 874.536 -0.607931 0.267051 0
M  V30 9511 H 877.066 -1.53292 1.35509 0
M  V30 9512 H 877.076 -3.95427 1.00507 0
M  V30 9513 H 875.751 -3.59072 2.09858 0
M  V30 9514 H 874.328 -3.71909 0.271615 0
M  V30 9515 N 876.513 -0.788492 -1.36457 0
M  V30 9516 C 877.76 -0.360461 -1.99266 0
M  V30 9517 C 878.088 1.0676 -1.62581 0
M  V30 9518 O 877.343 1.75205 -0.871884 0
M  V30 9519 C 877.642 -0.470255 -3.54293 0
M  V30 9520 C 877.308 -1.85899 -4.10795 0
M  V30 9521 C 875.97 -2.23896 -4.25939 0
M  V30 9522 C 878.322 -2.76836 -4.41601 0
M  V30 9523 C 875.65 -3.52235 -4.69199 0
M  V30 9524 C 878.002 -4.04602 -4.86292 0
M  V30 9525 C 876.666 -4.42623 -4.99641 0
M  V30 9526 H 875.936 -0.131902 -0.729166 0
M  V30 9527 H 878.583 -1.00577 -1.62962 0
M  V30 9528 H 876.888 0.258559 -3.90946 0
M  V30 9529 H 878.585 -0.120119 -4.0082 0
M  V30 9530 H 875.175 -1.55372 -3.99447 0
M  V30 9531 H 879.359 -2.48735 -4.2947 0
M  V30 9532 H 874.615 -3.81565 -4.77722 0
M  V30 9533 H 878.789 -4.75182 -5.09092 0
M  V30 9534 H 876.416 -5.42125 -5.32921 0
M  V30 9535 N 877.991 1.48044 -0.54043 0
M  V30 9536 C 879.238 2.02497 -0.0101567 0
M  V30 9537 C 879.566 1.41651 1.33286 0
M  V30 9538 O 878.821 0.555504 1.8765 0
M  V30 9539 C 879.12 3.57085 0.150008 0
M  V30 9540 C 878.786 4.36769 -1.11998 0
M  V30 9541 C 877.448 4.58261 -1.46801 0
M  V30 9542 C 879.8 4.82848 -1.96232 0
M  V30 9543 C 877.128 5.23079 -2.65717 0
M  V30 9544 C 879.48 5.48977 -3.14335 0
M  V30 9545 C 878.144 5.68705 -3.49472 0
M  V30 9546 H 877.414 0.740991 -0.00371661 0
M  V30 9547 H 880.061 1.77909 -0.708562 0
M  V30 9548 H 878.366 3.80572 0.931259 0
M  V30 9549 H 880.063 3.96851 0.575384 0
M  V30 9550 H 876.653 4.20309 -0.838957 0
M  V30 9551 H 880.837 4.66038 -1.70654 0
M  V30 9552 H 876.093 5.36549 -2.93129 0
M  V30 9553 H 880.267 5.83649 -3.79904 0
M  V30 9554 H 877.894 6.18703 -4.41713 0
M  V30 9555 N 879.47 0.276058 1.55163 0
M  V30 9556 C 880.38 -0.621066 2.2623 0
M  V30 9557 C 881.396 -1.16931 1.28853 0
M  V30 9558 O 882.572 -1.1994 1.61791 0
M  V30 9559 C 879.637 -1.78824 2.97023 0
M  V30 9560 C 878.698 -1.27657 4.09881 0
M  V30 9561 C 877.931 -2.38812 4.77289 0
M  V30 9562 O 878.154 -3.58188 4.43912 0
M  V30 9563 O 877.088 -2.06915 5.65217 0
M  V30 9564 H 880.914 -0.0453346 3.03666 0
M  V30 9565 H 878.499 0.0434275 1.49337 0
M  V30 9566 H 880.381 -2.46877 3.41511 0
M  V30 9567 H 879.056 -2.35104 2.22503 0
M  V30 9568 H 877.963 -0.56248 3.69847 0
M  V30 9569 H 879.296 -0.759509 4.86305 0
M  V30 9570 N 880.948 -1.576 0.00335426 0
M  V30 9571 C 881.911 -2.07576 -0.971838 0
M  V30 9572 C 882.911 -0.985796 -1.27038 0
M  V30 9573 O 884.101 -1.24833 -1.21501 0
M  V30 9574 C 881.233 -2.52003 -2.29581 0
M  V30 9575 H 882.426 -2.95008 -0.539481 0
M  V30 9576 H 879.979 -1.54381 -0.244186 0
M  V30 9577 H 880.714 -1.67825 -2.77498 0
M  V30 9578 H 880.499 -3.31609 -2.09231 0
M  V30 9579 H 881.989 -2.90983 -2.99531 0
M  V30 9580 N 882.426 0.269451 -1.5528 0
M  V30 9581 C 883.389 1.31642 -1.87625 0
M  V30 9582 C 884.389 1.42182 -0.751058 0
M  V30 9583 O 885.579 1.41272 -1.01921 0
M  V30 9584 C 882.711 2.6973 -2.08467 0
M  V30 9585 H 883.904 1.0419 -2.81219 0
M  V30 9586 H 881.457 0.507685 -1.47825 0
M  V30 9587 H 882.192 3.02356 -1.17266 0
M  V30 9588 H 881.977 2.63465 -2.90394 0
M  V30 9589 H 883.467 3.4537 -2.34753 0
M  V30 9590 N 883.904 1.48273 0.534124 0
M  V30 9591 C 885.129 1.59988 1.31979 0
M  V30 9592 C 885.554 0.258824 1.86311 0
M  V30 9593 O 884.912 -0.768885 1.64188 0
M  V30 9594 C 884.96 2.64642 2.44943 0
M  V30 9595 O 884.064 2.21515 3.47858 0
M  V30 9596 H 883.405 0.536625 0.391063 0
M  V30 9597 H 885.935 1.94229 0.643135 0
M  V30 9598 H 885.945 2.85786 2.91187 0
M  V30 9599 H 884.62 3.62004 2.04758 0
M  V30 9600 H 883.197 2.10567 3.0776 0
M  V30 9601 N 885.382 -0.782676 1.36792 0
M  V30 9602 C 886.315 -1.90241 1.2603 0
M  V30 9603 C 887.293 -1.61969 0.143055 0
M  V30 9604 O 888.477 -1.85843 0.315366 0
M  V30 9605 C 885.604 -3.25218 0.946082 0
M  V30 9606 C 884.65 -3.72414 2.0787 0
M  V30 9607 S 885.483 -3.87376 3.69729 0
M  V30 9608 C 886.639 -5.25219 3.40435 0
M  V30 9609 H 886.872 -1.99079 2.20805 0
M  V30 9610 H 884.405 -0.942625 1.22286 0
M  V30 9611 H 886.363 -4.03183 0.771612 0
M  V30 9612 H 885.024 -3.14096 0.0159991 0
M  V30 9613 H 884.217 -4.7024 1.81358 0
M  V30 9614 H 883.819 -3.01519 2.21274 0
M  V30 9615 H 886.111 -6.10025 2.94746 0
M  V30 9616 H 887.054 -5.56738 4.37549 0
M  V30 9617 H 887.462 -4.92638 2.75622 0
M  V30 9618 N 886.86 -1.21182 -1.00761 0
M  V30 9619 C 887.793 -0.912033 -2.09182 0
M  V30 9620 C 888.771 0.139421 -1.62001 0
M  V30 9621 O 889.955 0.0110272 -1.88497 0
M  V30 9622 C 887.082 -0.368957 -3.36684 0
M  V30 9623 C 886.128 -1.4028 -4.0277 0
M  V30 9624 S 886.961 -2.97108 -4.45519 0
M  V30 9625 C 888.117 -2.444 -5.76211 0
M  V30 9626 H 888.35 -1.83019 -2.34289 0
M  V30 9627 H 885.883 -1.04127 -1.14004 0
M  V30 9628 H 887.841 -0.0621883 -4.10453 0
M  V30 9629 H 886.502 0.527841 -3.09633 0
M  V30 9630 H 885.695 -0.97238 -4.94531 0
M  V30 9631 H 885.297 -1.65752 -3.35265 0
M  V30 9632 H 887.589 -1.84723 -6.51831 0
M  V30 9633 H 888.532 -3.34593 -6.24062 0
M  V30 9634 H 888.94 -1.86203 -5.32906 0
M  V30 9635 N 888.338 1.20213 -1.01915 0
M  V30 9636 C 889.563 1.94163 -0.729076 0
M  V30 9637 C 889.988 1.74416 0.704323 0
M  V30 9638 O 889.346 1.0401 1.48498 0
M  V30 9639 C 889.394 3.44258 -1.07324 0
M  V30 9640 O 888.498 4.11979 -0.186367 0
M  V30 9641 H 887.839 0.606506 -0.270272 0
M  V30 9642 H 890.369 1.52571 -1.3632 0
M  V30 9643 H 890.379 3.94888 -1.02603 0
M  V30 9644 H 889.054 3.57954 -2.11759 0
M  V30 9645 H 887.631 3.7176 -0.291334 0
M  V30 9646 N 889.816 0.795718 1.36037 0
M  V30 9647 C 890.763 0.196548 2.29962 0
M  V30 9648 C 891.733 -0.663213 1.52285 0
M  V30 9649 O 892.918 -0.610574 1.80767 0
M  V30 9650 C 890.058 -0.657639 3.38776 0
M  V30 9651 C 889.171 0.221358 4.31433 0
M  V30 9652 C 888.306 -0.6398 5.27333 0
M  V30 9653 C 887.345 0.240265 6.11628 0
M  V30 9654 N 886.482 -0.580237 6.99698 0
M  V30 9655 H 891.322 1.00295 2.80615 0
M  V30 9656 H 888.859 0.506147 1.38118 0
M  V30 9657 H 890.817 -1.16793 4.00519 0
M  V30 9658 H 889.447 -1.42941 2.89426 0
M  V30 9659 H 888.499 0.84967 3.70789 0
M  V30 9660 H 889.811 0.899195 4.90628 0
M  V30 9661 H 888.965 -1.21566 5.94396 0
M  V30 9662 H 887.704 -1.35124 4.68607 0
M  V30 9663 H 886.709 0.828474 5.43522 0
M  V30 9664 H 887.934 0.949403 6.72431 0
M  V30 9665 H 885.88 -1.27585 6.43473 0
M  V30 9666 H 885.797 0.0397853 7.5599 0
M  V30 9667 H 887.065 -1.13972 7.71123 0
M  V30 9668 N 891.294 -1.47756 0.548274 0
M  V30 9669 C 892.224 -2.32702 -0.19284 0
M  V30 9670 C 893.205 -1.43237 -0.917457 0
M  V30 9671 O 894.39 -1.72103 -0.89967 0
M  V30 9672 C 891.52 -3.24831 -1.22891 0
M  V30 9673 C 890.474 -4.23466 -0.621312 0
M  V30 9674 C 889.8 -5.04856 -1.76137 0
M  V30 9675 C 891.1 -5.20616 0.419055 0
M  V30 9676 H 892.794 -2.94914 0.516323 0
M  V30 9677 H 890.34 -1.41818 0.24975 0
M  V30 9678 H 892.293 -3.83094 -1.75547 0
M  V30 9679 H 891.017 -2.60656 -1.9679 0
M  V30 9680 H 889.676 -3.66416 -0.116123 0
M  V30 9681 H 889.324 -4.37091 -2.48918 0
M  V30 9682 H 889.024 -5.71629 -1.36065 0
M  V30 9683 H 890.548 -5.65976 -2.29136 0
M  V30 9684 H 891.962 -5.73296 -0.0211034 0
M  V30 9685 H 890.359 -5.95543 0.738163 0
M  V30 9686 H 891.429 -4.66638 1.31822 0
M  V30 9687 N 892.772 -0.284283 -1.55015 0
M  V30 9688 C 893.997 0.335799 -2.04664 0
M  V30 9689 C 894.422 1.47999 -1.16094 0
M  V30 9690 O 893.78 1.8058 -0.161454 0
M  V30 9691 C 893.828 0.785615 -3.51938 0
M  V30 9692 O 892.932 1.89202 -3.66437 0
M  V30 9693 H 892.273 0.0680233 -0.660506 0
M  V30 9694 H 894.803 -0.421255 -2.00216 0
M  V30 9695 H 894.813 1.07892 -3.93476 0
M  V30 9696 H 893.488 -0.0514675 -4.15868 0
M  V30 9697 H 892.065 1.60055 -3.36804 0
M  V30 9698 N 894.251 1.57596 -0.0117121 0
M  V30 9699 C 895.201 2.05641 0.98467 0
M  V30 9700 C 896.185 0.953422 1.2961 0
M  V30 9701 O 897.377 1.21712 1.28512 0
M  V30 9702 C 894.506 2.57285 2.27286 0
M  V30 9703 C 893.592 3.74483 1.99057 0
M  V30 9704 N 893.983 4.85741 1.41029 0
M  V30 9705 C 892.281 3.82637 2.2914 0
M  V30 9706 C 892.982 5.67094 1.29536 0
M  V30 9707 N 891.958 5.13459 1.78497 0
M  V30 9708 H 895.76 2.89069 0.530702 0
M  V30 9709 H 893.274 1.6124 0.193717 0
M  V30 9710 H 895.271 2.89988 2.99521 0
M  V30 9711 H 893.931 1.75281 2.73325 0
M  V30 9712 H 894.942 5.06352 1.08756 0
M  V30 9713 H 891.619 3.11509 2.77972 0
M  V30 9714 H 893.009 6.66525 0.848144 0
M  V30 9715 N 895.729 -0.261212 1.5542 0
M  V30 9716 C 896.676 -1.32315 1.89107 0
M  V30 9717 C 897.646 -1.48517 0.743767 0
M  V30 9718 O 898.831 -1.62733 0.996123 0
M  V30 9719 C 895.971 -2.67626 2.17877 0
M  V30 9720 C 895.084 -2.59549 3.45338 0
M  V30 9721 C 894.219 -3.87118 3.63748 0
M  V30 9722 C 893.258 -3.736 4.8486 0
M  V30 9723 N 892.395 -4.93029 4.99867 0
M  V30 9724 H 897.235 -1.02886 2.79675 0
M  V30 9725 H 894.772 -0.496812 1.38456 0
M  V30 9726 H 896.73 -3.4637 2.32559 0
M  V30 9727 H 895.36 -2.95232 1.30529 0
M  V30 9728 H 894.412 -1.72452 3.39064 0
M  V30 9729 H 895.724 -2.45465 4.34222 0
M  V30 9730 H 894.878 -4.74305 3.78312 0
M  V30 9731 H 893.617 -4.04084 2.73071 0
M  V30 9732 H 892.622 -2.84797 4.70288 0
M  V30 9733 H 893.847 -3.58143 5.76984 0
M  V30 9734 H 891.793 -5.10383 4.12123 0
M  V30 9735 H 891.71 -4.81521 5.82815 0
M  V30 9736 H 892.978 -5.81754 5.18828 0
M  V30 9737 N 897.207 -1.48554 -0.526253 0
M  V30 9738 C 898.157 -1.59753 -1.62674 0
M  V30 9739 C 899.141 -0.454452 -1.54349 0
M  V30 9740 O 900.333 -0.706091 -1.62306 0
M  V30 9741 C 897.462 -1.64388 -3.01383 0
M  V30 9742 C 896.548 -2.84188 -3.14798 0
M  V30 9743 N 896.939 -4.08564 -2.98176 0
M  V30 9744 C 895.237 -2.81599 -3.45859 0
M  V30 9745 C 895.938 -4.88961 -3.15106 0
M  V30 9746 N 894.914 -4.21848 -3.42849 0
M  V30 9747 H 898.716 -2.5366 -1.48438 0
M  V30 9748 H 896.23 -1.44977 -0.731801 0
M  V30 9749 H 898.227 -1.70505 -3.80439 0
M  V30 9750 H 896.887 -0.716006 -3.16707 0
M  V30 9751 H 897.898 -4.38943 -2.74862 0
M  V30 9752 H 894.575 -1.98083 -3.67518 0
M  V30 9753 H 895.965 -5.97683 -3.0696 0
M  V30 9754 N 898.685 0.775411 -1.37205 0
M  V30 9755 C 899.615 1.90258 -1.35367 0
M  V30 9756 C 900.596 1.68634 -0.222864 0
M  V30 9757 O 901.781 1.89545 -0.422659 0
M  V30 9758 C 898.911 3.27488 -1.15623 0
M  V30 9759 C 897.865 3.63668 -2.25676 0
M  V30 9760 C 897.191 4.994 -1.91059 0
M  V30 9761 C 898.491 3.70797 -3.67841 0
M  V30 9762 H 900.185 1.92053 -2.29687 0
M  V30 9763 H 897.731 0.922597 -1.10563 0
M  V30 9764 H 899.684 4.05976 -1.12968 0
M  V30 9765 H 898.408 3.26117 -0.177573 0
M  V30 9766 H 897.067 2.87486 -2.2748 0
M  V30 9767 H 896.715 4.94565 -0.917324 0
M  V30 9768 H 896.415 5.24576 -2.64751 0
M  V30 9769 H 897.939 5.80291 -1.89985 0
M  V30 9770 H 899.353 4.39444 -3.68187 0
M  V30 9771 H 897.75 4.07468 -4.40556 0
M  V30 9772 H 898.82 2.71549 -4.01732 0
M  V30 9773 N 900.163 1.21714 1.00117 0
M  V30 9774 C 901.409 1.03823 1.74208 0
M  V30 9775 C 901.742 -0.426733 1.89454 0
M  V30 9776 O 901.017 -1.31658 1.43166 0
M  V30 9777 C 901.3 1.74047 3.15246 0
M  V30 9778 C 901.153 3.28087 3.077 0
M  V30 9779 C 902.472 1.48614 4.14249 0
M  V30 9780 H 899.591 0.378573 0.632338 0
M  V30 9781 H 902.233 1.49942 1.16694 0
M  V30 9782 H 900.383 1.3484 3.64349 0
M  V30 9783 H 902.055 3.76686 2.6628 0
M  V30 9784 H 900.298 3.58191 2.44707 0
M  V30 9785 H 900.969 3.72392 4.07466 0
M  V30 9786 H 903.445 1.82656 3.73866 0
M  V30 9787 H 902.321 2.00257 5.11066 0
M  V30 9788 H 902.582 0.416957 4.40129 0
M  V30 9789 N 901.641 -1.19671 1.02551 0
M  V30 9790 C 902.571 -2.25009 0.623965 0
M  V30 9791 C 903.552 -1.66129 -0.36538 0
M  V30 9792 O 904.737 -1.92599 -0.248842 0
M  V30 9793 C 901.867 -3.47287 -0.0294869 0
M  V30 9794 C 900.821 -4.18818 0.881781 0
M  V30 9795 C 900.147 -5.34618 0.0936189 0
M  V30 9796 C 901.447 -4.73986 2.19396 0
M  V30 9797 H 903.141 -2.58851 1.50454 0
M  V30 9798 H 900.687 -1.24425 0.724872 0
M  V30 9799 H 902.64 -4.20168 -0.322016 0
M  V30 9800 H 901.364 -3.12635 -0.944838 0
M  V30 9801 H 900.023 -3.47815 1.15845 0
M  V30 9802 H 899.671 -4.9621 -0.823661 0
M  V30 9803 H 899.371 -5.83409 0.700568 0
M  V30 9804 H 900.895 -6.10297 -0.192249 0
M  V30 9805 H 902.309 -5.38639 1.96319 0
M  V30 9806 H 900.706 -5.3325 2.75254 0
M  V30 9807 H 901.776 -3.92238 2.85092 0
M  V30 9808 N 903.119 -0.802921 -1.35613 0
M  V30 9809 C 904.067 -0.198783 -2.31749 0
M  V30 9810 C 905.061 0.649416 -1.56458 0
M  V30 9811 O 906.267 0.542989 -1.71615 0
M  V30 9812 H 902.642 -0.0455177 -0.750621 0
M  V30 9813 H 904.613 -1.02479 -2.80251 0
M  V30 9814 C 903.362 0.641066 -3.41739 0
M  V30 9815 H 902.685 -0.00226244 -3.998 0
M  V30 9816 H 904.125 1.03022 -4.11294 0
M  V30 9817 C 902.584 1.80505 -2.84464 0
M  V30 9818 O 903.114 2.90235 -2.77717 0
M  V30 9819 N 901.32 1.61542 -2.41563 0
M  V30 9820 H 900.867 0.722863 -2.4725 0
M  V30 9821 H 900.825 2.39581 -2.03589 0
M  V30 9822 N 904.597 1.47463 -0.556102 0
M  V30 9823 C 905.827 2.06568 -0.0364056 0
M  V30 9824 C 906.235 1.40939 1.26225 0
M  V30 9825 O 905.578 0.499572 1.76777 0
M  V30 9826 C 905.64 3.58755 0.231278 0
M  V30 9827 C 905.304 4.46417 -0.977776 0
M  V30 9828 C 906.301 4.846 -1.88305 0
M  V30 9829 C 903.986 4.87948 -1.19214 0
M  V30 9830 C 905.98 5.63111 -2.98639 0
M  V30 9831 C 903.667 5.66224 -2.29857 0
M  V30 9832 C 904.665 6.03716 -3.194 0
M  V30 9833 O 904.353 6.80415 -4.28125 0
M  V30 9834 H 904.085 0.674675 -0.042305 0
M  V30 9835 H 906.639 1.9047 -0.768775 0
M  V30 9836 H 904.869 3.73061 1.01794 0
M  V30 9837 H 906.558 3.99884 0.696221 0
M  V30 9838 H 907.324 4.53115 -1.72949 0
M  V30 9839 H 903.203 4.58233 -0.504347 0
M  V30 9840 H 906.747 5.92293 -3.68557 0
M  V30 9841 H 902.644 5.97121 -2.45186 0
M  V30 9842 H 903.412 6.98807 -4.26159 0
M  V30 9843 N 906.075 0.2925 1.54862 0
M  V30 9844 C 907.323 -0.318633 1.99572 0
M  V30 9845 C 907.644 -1.55062 1.1824 0
M  V30 9846 O 906.914 -1.93943 0.276226 0
M  V30 9847 H 905.494 -0.120722 0.737181 0
M  V30 9848 H 908.156 0.401862 1.90712 0
M  V30 9849 H 907.252 -0.596542 3.06346 0
M  V30 9850 N 907.553 -1.57587 0.0200696 0
M  V30 9851 C 908.799 -1.91708 -0.661503 0
M  V30 9852 C 909.132 -0.895968 -1.72296 0
M  V30 9853 O 908.407 0.082577 -1.94325 0
M  V30 9854 C 908.69 -3.36344 -1.28627 0
M  V30 9855 C 908.543 -4.49186 -0.234982 0
M  V30 9856 C 909.862 -3.80771 -2.20685 0
M  V30 9857 H 906.981 -0.69717 -0.239005 0
M  V30 9858 H 909.623 -1.8985 0.0754764 0
M  V30 9859 H 907.773 -3.38058 -1.91439 0
M  V30 9860 H 909.445 -4.59606 0.395011 0
M  V30 9861 H 907.688 -4.31557 0.440565 0
M  V30 9862 H 908.359 -5.47395 -0.711558 0
M  V30 9863 H 910.835 -3.80735 -1.67868 0
M  V30 9864 H 909.711 -4.82685 -2.61356 0
M  V30 9865 H 909.972 -3.15764 -3.09428 0
M  V30 9866 N 909.032 0.252966 -1.55557 0
M  V30 9867 C 910.272 0.989276 -1.78865 0
M  V30 9868 C 910.636 1.82755 -0.588615 0
M  V30 9869 O 911.837 2.59516 -0.700347 0
M  V30 9870 C 910.108 1.83203 -3.06874 0
M  V30 9871 S 911.667 2.62826 -3.5138 0
M  V30 9872 H 908.485 0.332863 -0.62827 0
M  V30 9873 H 911.087 0.257716 -1.93794 0
M  V30 9874 H 909.791 1.20579 -3.92287 0
M  V30 9875 H 909.322 2.60644 -2.94666 0
M  V30 9876 H 911.337 3.85648 -3.12234 0
M  V30 9877 N 910.51 1.48831 0.518367 0
M  V30 9878 C 911.756 1.57672 1.27543 0
M  V30 9879 C 912.089 0.254915 1.9252 0
M  V30 9880 O 911.364 -0.740107 1.79868 0
M  V30 9881 C 911.647 2.72345 2.35585 0
M  V30 9882 C 911.5 4.14267 1.75224 0
M  V30 9883 C 912.819 2.82726 3.37274 0
M  V30 9884 H 909.938 0.573926 0.462361 0
M  V30 9885 H 912.58 1.8105 0.576267 0
M  V30 9886 H 910.73 2.52543 2.95219 0
M  V30 9887 H 912.402 4.45539 1.19551 0
M  V30 9888 H 910.645 4.20724 1.05706 0
M  V30 9889 H 911.316 4.90345 2.53507 0
M  V30 9890 H 913.792 3.00699 2.8761 0
M  V30 9891 H 912.668 3.6467 4.10252 0
M  V30 9892 H 912.929 1.9136 3.9854 0
M  V30 9893 N 911.988 -0.768124 1.37614 0
M  V30 9894 C 913.228 -1.53979 1.34424 0
M  V30 9895 C 913.592 -1.91874 -0.0696803 0
M  V30 9896 O 914.793 -2.67845 -0.22633 0
M  V30 9897 C 913.064 -2.76845 2.26034 0
M  V30 9898 S 914.623 -3.66871 2.4073 0
M  V30 9899 H 911.441 -0.527108 0.477157 0
M  V30 9900 H 914.043 -0.902945 1.73399 0
M  V30 9901 H 912.747 -2.47091 3.2768 0
M  V30 9902 H 912.278 -3.45486 1.88157 0
M  V30 9903 H 914.293 -4.6899 1.62057 0
M  V30 9904 N 913.466 -1.22244 -0.994698 0
M  V30 9905 C 914.714 -1.04384 -1.73056 0
M  V30 9906 C 915.035 0.422204 -1.90374 0
M  V30 9907 O 914.305 1.30383 -1.46209 0
M  V30 9908 H 912.885 -0.383263 -0.641185 0
M  V30 9909 H 915.547 -1.53725 -1.1981 0
M  V30 9910 H 914.643 -1.52021 -2.72573 0
M  V30 9911 N 914.944 1.19125 -1.03184 0
M  V30 9912 C 916.221 1.84674 -0.644574 0
M  V30 9913 C 916.601 1.92042 0.876534 0
M  V30 9914 O 915.949 1.43965 1.77444 0
M  V30 9915 C 916.159 3.23477 -1.3101 0
M  V30 9916 C 917.507 3.99608 -1.43524 0
M  V30 9917 O 918.531 3.32886 -1.2675 0
M  V30 9918 O 917.39 5.19132 -1.70776 0
M  V30 9919 H 914.484 0.795968 -0.22442 0
M  V30 9920 H 917.03 1.2659 -1.13018 0
M  V30 9921 H 915.802 3.12967 -2.34878 0
M  V30 9922 H 915.425 3.89209 -0.812547 0
M  V30 9923 N 916.422 0.810101 1.35185 0
M  V30 9924 C 917.332 0.224565 2.33523 0
M  V30 9925 C 918.348 -0.634287 1.62027 0
M  V30 9926 O 919.524 -0.545211 1.9388 0
M  V30 9927 C 916.589 -0.614319 3.41214 0
M  V30 9928 C 915.65 0.265435 4.28479 0
M  V30 9929 C 914.883 -0.533506 5.31027 0
M  V30 9930 O 915.106 -1.7679 5.42311 0
M  V30 9931 O 914.04 0.0774573 6.0185 0
M  V30 9932 H 917.866 1.03815 2.85405 0
M  V30 9933 H 915.451 0.571964 1.38018 0
M  V30 9934 H 917.333 -1.09201 4.07005 0
M  V30 9935 H 916.008 -1.40545 2.91597 0
M  V30 9936 H 914.915 0.790343 3.65656 0
M  V30 9937 H 916.248 1.0206 4.81503 0
M  V30 9938 N 917.9 -1.47166 0.563914 0
M  V30 9939 C 918.848 -2.31798 -0.193009 0
M  V30 9940 C 919.842 -1.43338 -0.902805 0
M  V30 9941 O 921.048 -1.60067 -0.823328 0
M  V30 9942 H 917.423 -0.747613 -0.0811139 0
M  V30 9943 H 919.394 -2.93476 0.539876 0
M  V30 9944 C 918.143 -3.26131 -1.20555 0
M  V30 9945 H 917.466 -3.94166 -0.668803 0
M  V30 9946 H 918.906 -3.88167 -1.70593 0
M  V30 9947 C 917.365 -2.50132 -2.25689 0
M  V30 9948 O 917.895 -2.25064 -3.3273 0
M  V30 9949 N 916.101 -2.11022 -1.99795 0
M  V30 9950 H 915.648 -2.3161 -1.1276 0
M  V30 9951 H 915.606 -1.60489 -2.70353 0
M  V30 9952 N 919.378 -0.300708 -1.54705 0
M  V30 9953 C 920.627 0.309428 -1.99312 0
M  V30 9954 C 920.94 1.55027 -1.19272 0
M  V30 9955 O 922.146 2.23498 -1.54146 0
M  V30 9956 C 920.602 0.601856 -3.54832 0
M  V30 9957 C 920.21 -0.620636 -4.4368 0
M  V30 9958 C 921.954 1.1732 -4.07966 0
M  V30 9959 C 919.861 -0.301376 -5.90632 0
M  V30 9960 H 918.791 0.119395 -0.744487 0
M  V30 9961 H 921.442 -0.409368 -1.78875 0
M  V30 9962 H 919.824 1.38024 -3.71168 0
M  V30 9963 H 920.998 -1.39685 -4.39118 0
M  V30 9964 H 919.313 -1.1106 -4.01316 0
M  V30 9965 H 921.91 1.42631 -5.15326 0
M  V30 9966 H 922.253 2.11537 -3.5855 0
M  V30 9967 H 922.786 0.456534 -3.95172 0
M  V30 9968 H 919.525 -1.21209 -6.44196 0
M  V30 9969 H 919.045 0.437574 -5.98202 0
M  V30 9970 H 920.724 0.097164 -6.46927 0
M  V30 9971 N 920.856 1.57574 -0.0284266 0
M  V30 9972 C 921.786 2.1321 0.952039 0
M  V30 9973 C 922.767 1.04806 1.33977 0
M  V30 9974 O 923.952 1.32635 1.41851 0
M  V30 9975 C 921.082 2.65862 2.23461 0
M  V30 9976 C 920.036 3.79047 1.98765 0
M  V30 9977 C 919.362 4.18124 3.33281 0
M  V30 9978 C 920.662 5.05151 1.32739 0
M  V30 9979 H 922.356 2.95385 0.488705 0
M  V30 9980 H 919.902 1.42092 0.233628 0
M  V30 9981 H 921.855 3.03417 2.92431 0
M  V30 9982 H 920.579 1.80848 2.71959 0
M  V30 9983 H 919.238 3.41929 1.32213 0
M  V30 9984 H 918.886 3.30092 3.79537 0
M  V30 9985 H 918.586 4.94396 3.17563 0
M  V30 9986 H 920.11 4.58262 4.0352 0
M  V30 9987 H 921.524 5.40297 1.91708 0
M  V30 9988 H 919.921 5.86416 1.27421 0
M  V30 9989 H 920.991 4.83969 0.300261 0
M  V30 9990 N 922.334 -0.244713 1.55689 0
M  V30 9991 C 923.58 -0.973886 1.77886 0
M  V30 9992 C 923.913 -1.8489 0.594071 0
M  V30 9993 O 923.188 -1.90182 -0.407564 0
M  V30 9994 C 923.471 -1.83255 3.09983 0
M  V30 9995 C 923.324 -0.985571 4.3887 0
M  V30 9996 C 924.643 -2.81464 3.38329 0
M  V30 9997 H 921.762 -0.352629 0.647165 0
M  V30 9998 H 924.404 -0.244243 1.88424 0
M  V30 9999 H 922.554 -2.45464 3.01131 0
M  V30 10000 H 924.226 -0.382005 4.59716 0
M  V30 10001 H 922.469 -0.29002 4.32829 0
M  V30 10002 H 923.14 -1.62022 5.27686 0
M  V30 10003 H 925.616 -2.2939 3.47159 0
M  V30 10004 H 924.492 -3.38663 4.31971 0
M  V30 10005 H 924.753 -3.58037 2.59349 0
M  V30 10006 N 923.813 -1.49104 -0.510467 0
M  V30 10007 C 924.745 -1.61183 -1.6295 0
M  V30 10008 C 925.758 -0.495003 -1.55092 0
M  V30 10009 O 926.947 -0.766671 -1.61197 0
M  V30 10010 C 924.047 -1.54373 -3.01699 0
M  V30 10011 C 923.22 -2.81428 -3.34838 0
M  V30 10012 C 922.279 -2.67802 -4.52956 0
M  V30 10013 O 921.305 -3.41723 -4.55208 0
M  V30 10014 N 922.507 -1.78715 -5.52305 0
M  V30 10015 H 925.272 -2.57693 -1.53018 0
M  V30 10016 H 922.833 -1.46073 -0.698152 0
M  V30 10017 H 924.825 -1.42924 -3.78622 0
M  V30 10018 H 923.395 -0.657597 -3.05605 0
M  V30 10019 H 922.615 -3.07299 -2.46903 0
M  V30 10020 H 923.903 -3.6568 -3.53773 0
M  V30 10021 H 923.301 -1.17897 -5.53278 0
M  V30 10022 H 921.858 -1.73194 -6.28369 0
M  V30 10023 N 925.291 0.760815 -1.38019 0
M  V30 10024 C 926.201 1.90526 -1.36884 0
M  V30 10025 C 927.217 1.71941 -0.266908 0
M  V30 10026 O 928.393 1.94988 -0.50413 0
M  V30 10027 C 925.458 3.25799 -1.18558 0
M  V30 10028 C 924.519 3.56961 -2.3849 0
M  V30 10029 C 923.752 4.8578 -2.21029 0
M  V30 10030 O 923.975 5.57629 -1.20023 0
M  V30 10031 O 922.909 5.16254 -3.0946 0
M  V30 10032 H 926.735 1.94437 -2.33298 0
M  V30 10033 H 924.32 0.905091 -1.18863 0
M  V30 10034 H 926.202 4.0669 -1.1037 0
M  V30 10035 H 924.877 3.22716 -0.252241 0
M  V30 10036 H 923.784 2.7626 -2.52252 0
M  V30 10037 H 925.117 3.64798 -3.30429 0
M  V30 10038 N 926.769 1.22769 0.988202 0
M  V30 10039 C 928.016 1.05509 1.72841 0
M  V30 10040 C 928.344 -0.409145 1.90148 0
M  V30 10041 O 927.599 -1.3195 1.44526 0
M  V30 10042 C 927.898 1.71679 3.13466 0
M  V30 10043 C 927.564 3.21584 3.16061 0
M  V30 10044 C 926.226 3.62486 3.16476 0
M  V30 10045 C 928.578 4.17511 3.11984 0
M  V30 10046 C 925.906 4.97789 3.10521 0
M  V30 10047 C 928.258 5.52796 3.0757 0
M  V30 10048 C 926.922 5.93072 3.06304 0
M  V30 10049 H 926.192 0.386085 0.632471 0
M  V30 10050 H 928.839 1.52596 1.157 0
M  V30 10051 H 927.144 1.1693 3.73945 0
M  V30 10052 H 928.841 1.55809 3.69492 0
M  V30 10053 H 925.431 2.89019 3.1649 0
M  V30 10054 H 929.615 3.86926 3.10809 0
M  V30 10055 H 924.871 5.28218 3.07888 0
M  V30 10056 H 929.045 6.26848 3.03372 0
M  V30 10057 H 926.672 6.97879 3.01444 0
M  V30 10058 N 928.247 -1.18576 1.03814 0
M  V30 10059 C 929.493 -1.88773 0.741132 0
M  V30 10060 C 929.826 -1.79993 -0.729127 0
M  V30 10061 O 929.101 -1.19851 -1.53186 0
M  V30 10062 C 929.384 -3.39352 1.20468 0
M  V30 10063 C 929.237 -3.56955 2.73684 0
M  V30 10064 C 930.556 -4.32901 0.792741 0
M  V30 10065 H 927.675 -0.685482 0.270708 0
M  V30 10066 H 930.317 -1.39523 1.2897 0
M  V30 10067 H 928.467 -3.81427 0.737974 0
M  V30 10068 H 930.139 -3.2399 3.28372 0
M  V30 10069 H 928.382 -2.99696 3.13632 0
M  V30 10070 H 929.053 -4.62598 3.01176 0
M  V30 10071 H 931.529 -3.98592 1.1943 0
M  V30 10072 H 930.405 -5.36828 1.14486 0
M  V30 10073 H 930.666 -4.41052 -0.304295 0
M  V30 10074 N 929.725 -0.817259 -1.34754 0
M  V30 10075 C 930.672 -0.233108 -2.2962 0
M  V30 10076 C 931.642 0.638902 -1.53321 0
M  V30 10077 O 932.827 0.581739 -1.81715 0
M  V30 10078 C 929.967 0.603659 -3.39779 0
M  V30 10079 C 929.08 -0.289967 -4.31026 0
M  V30 10080 C 928.215 0.555825 -5.28284 0
M  V30 10081 C 927.254 -0.337539 -6.11169 0
M  V30 10082 N 926.391 0.468847 -7.00533 0
M  V30 10083 H 931.231 -1.04747 -2.78984 0
M  V30 10084 H 928.768 -0.528056 -1.37295 0
M  V30 10085 H 930.726 1.10407 -4.02326 0
M  V30 10086 H 929.356 1.38319 -2.91664 0
M  V30 10087 H 928.408 -0.908552 -3.69391 0
M  V30 10088 H 929.72 -0.977136 -4.89135 0
M  V30 10089 H 928.874 1.12094 -5.96255 0
M  V30 10090 H 927.613 1.27652 -4.70698 0
M  V30 10091 H 926.618 -0.914839 -5.42135 0
M  V30 10092 H 927.843 -1.05626 -6.70835 0
M  V30 10093 H 925.789 1.17332 -6.45422 0
M  V30 10094 H 925.706 -0.160052 -7.55831 0
M  V30 10095 H 926.974 1.01689 -7.72839 0
M  V30 10096 N 931.203 1.46865 -0.571711 0
M  V30 10097 C 932.45 2.0243 -0.0531071 0
M  V30 10098 C 932.778 1.44446 1.30252 0
M  V30 10099 O 932.033 0.595182 1.8643 0
M  V30 10100 C 932.332 3.57323 0.0742311 0
M  V30 10101 C 931.998 4.34295 -1.21237 0
M  V30 10102 C 930.66 4.55044 -1.56489 0
M  V30 10103 C 933.012 4.78577 -2.0643 0
M  V30 10104 C 930.34 5.17325 -2.76752 0
M  V30 10105 C 932.692 5.42186 -3.25909 0
M  V30 10106 C 931.356 5.61165 -3.61456 0
M  V30 10107 H 930.626 0.740745 -0.0194333 0
M  V30 10108 H 933.273 1.76366 -0.74614 0
M  V30 10109 H 931.578 3.82461 0.850325 0
M  V30 10110 H 933.275 3.97982 0.491077 0
M  V30 10111 H 929.865 4.18435 -0.927922 0
M  V30 10112 H 934.049 4.62313 -1.80501 0
M  V30 10113 H 929.305 5.30211 -3.04444 0
M  V30 10114 H 933.479 5.75459 -3.92198 0
M  V30 10115 H 931.106 6.09195 -4.54737 0
M  V30 10116 N 932.681 0.308908 1.54543 0
M  V30 10117 C 933.929 -0.297447 1.99899 0
M  V30 10118 C 934.25 -1.53799 1.19878 0
M  V30 10119 O 933.52 -1.93639 0.29678 0
M  V30 10120 H 932.1 -0.112897 0.738419 0
M  V30 10121 H 934.762 0.422067 1.90275 0
M  V30 10122 H 933.858 -0.564016 3.06961 0
M  V30 10123 N 934.159 -1.57557 0.0367827 0
M  V30 10124 C 935.384 -1.96828 -0.653707 0
M  V30 10125 C 935.809 -0.913559 -1.64425 0
M  V30 10126 O 935.167 0.124749 -1.8087 0
M  V30 10127 C 935.215 -3.35189 -1.32969 0
M  V30 10128 O 934.319 -3.32095 -2.44513 0
M  V30 10129 H 933.66 -0.64157 -0.171124 0
M  V30 10130 H 936.19 -2.04351 0.100912 0
M  V30 10131 H 936.2 -3.71593 -1.68472 0
M  V30 10132 H 934.875 -4.11496 -0.603654 0
M  V30 10133 H 933.452 -3.07418 -2.11065 0
M  V30 10134 N 935.637 0.236453 -1.55816 0
M  V30 10135 C 936.567 1.29639 -1.94206 0
M  V30 10136 C 937.548 1.49667 -0.808319 0
M  V30 10137 O 938.733 1.621 -1.06945 0
M  V30 10138 C 935.863 2.64914 -2.24584 0
M  V30 10139 C 934.817 2.59565 -3.40308 0
M  V30 10140 C 934.143 3.98732 -3.56254 0
M  V30 10141 C 935.443 2.15642 -4.75706 0
M  V30 10142 H 937.137 0.977552 -2.82992 0
M  V30 10143 H 934.683 0.468804 -1.36155 0
M  V30 10144 H 936.636 3.39209 -2.50031 0
M  V30 10145 H 935.36 2.98455 -1.32636 0
M  V30 10146 H 934.019 1.87728 -3.14887 0
M  V30 10147 H 933.667 4.29556 -2.61707 0
M  V30 10148 H 933.367 3.96039 -4.34082 0
M  V30 10149 H 934.891 4.74711 -3.84033 0
M  V30 10150 H 936.305 2.79673 -5.00456 0
M  V30 10151 H 934.702 2.24039 -5.56711 0
M  V30 10152 H 935.772 1.10831 -4.72064 0
M  V30 10153 N 937.115 1.49373 0.502552 0
M  V30 10154 C 938.392 1.49282 1.26389 0
M  V30 10155 C 938.772 0.219674 2.09954 0
M  V30 10156 O 938.12 -0.797991 2.14113 0
M  V30 10157 C 938.33 2.77083 2.12194 0
M  V30 10158 C 939.678 3.26511 2.71433 0
M  V30 10159 O 940.702 2.78189 2.22462 0
M  V30 10160 O 939.561 4.10665 3.60578 0
M  V30 10161 H 936.655 0.597415 0.57186 0
M  V30 10162 H 939.201 1.61634 0.516951 0
M  V30 10163 H 937.973 3.61237 1.50411 0
M  V30 10164 H 937.596 2.67583 2.94084 0
M  V30 10165 N 938.594 -0.753485 1.38421 0
M  V30 10166 C 939.822 -1.54272 1.37868 0
M  V30 10167 C 940.237 -1.88774 -0.0315155 0
M  V30 10168 O 939.594 -1.52785 -0.998148 0
M  V30 10169 C 939.645 -2.84179 2.23438 0
M  V30 10170 O 939.366 -2.51149 3.58965 0
M  V30 10171 C 940.867 -3.78316 2.31067 0
M  V30 10172 H 938.087 -0.47735 0.47157 0
M  V30 10173 H 940.631 -0.932509 1.82001 0
M  V30 10174 H 938.786 -3.41577 1.82767 0
M  V30 10175 H 939.2 -3.34466 4.04021 0
M  V30 10176 H 940.674 -4.66418 2.95226 0
M  V30 10177 H 941.151 -4.18757 1.32436 0
M  V30 10178 H 941.757 -3.26842 2.72129 0
M  V30 10179 N 940.072 -1.23292 -0.981677 0
M  V30 10180 C 941.302 -1.0893 -1.7555 0
M  V30 10181 C 941.71 0.362219 -1.857 0
M  V30 10182 O 941.053 1.2624 -1.33451 0
M  V30 10183 C 941.115 -1.6389 -3.19969 0
M  V30 10184 C 940.779 -3.12632 -3.33332 0
M  V30 10185 C 941.776 -4.0994 -3.19758 0
M  V30 10186 C 939.461 -3.52314 -3.58022 0
M  V30 10187 C 941.455 -5.44915 -3.30676 0
M  V30 10188 C 939.142 -4.87434 -3.6858 0
M  V30 10189 C 940.14 -5.83544 -3.54916 0
M  V30 10190 O 939.828 -7.16209 -3.65102 0
M  V30 10191 H 939.56 -0.381901 -0.557788 0
M  V30 10192 H 942.114 -1.63586 -1.24213 0
M  V30 10193 H 940.344 -1.03653 -3.72549 0
M  V30 10194 H 942.033 -1.45023 -3.79108 0
M  V30 10195 H 942.799 -3.80625 -3.00582 0
M  V30 10196 H 938.678 -2.78022 -3.67729 0
M  V30 10197 H 942.222 -6.19913 -3.19928 0
M  V30 10198 H 938.119 -5.16426 -3.87265 0
M  V30 10199 H 938.887 -7.23941 -3.81905 0
M  V30 10200 N 941.55 1.18024 -1.04442 0
M  V30 10201 C 942.48 2.23988 -0.659683 0
M  V30 10202 C 943.461 1.6669 0.338904 0
M  V30 10203 O 944.646 1.92971 0.21817 0
M  V30 10204 C 941.776 3.4729 -0.0257672 0
M  V30 10205 C 940.73 4.17362 -0.948299 0
M  V30 10206 C 940.056 5.34401 -0.17866 0
M  V30 10207 C 941.356 4.70435 -2.26909 0
M  V30 10208 H 943.05 2.56425 -1.54553 0
M  V30 10209 H 940.596 1.23256 -0.744575 0
M  V30 10210 H 942.549 4.20627 0.255131 0
M  V30 10211 H 941.273 3.14098 0.894981 0
M  V30 10212 H 939.932 3.45928 -1.21364 0
M  V30 10213 H 939.58 4.97458 0.744614 0
M  V30 10214 H 939.28 5.8222 -0.793294 0
M  V30 10215 H 940.804 6.10526 0.0951315 0
M  V30 10216 H 942.218 5.35447 -2.04864 0
M  V30 10217 H 940.615 5.28803 -2.83703 0
M  V30 10218 H 941.685 3.87653 -2.91296 0
M  V30 10219 N 943.028 0.824394 1.34319 0
M  V30 10220 C 943.975 0.245282 2.29493 0
M  V30 10221 C 944.945 -0.630762 1.53657 0
M  V30 10222 O 946.13 -0.572094 1.82021 0
M  V30 10223 C 943.27 -0.585631 3.40095 0
M  V30 10224 C 942.383 0.312821 4.30866 0
M  V30 10225 C 941.518 -0.527801 5.28571 0
M  V30 10226 C 940.557 0.369946 6.10981 0
M  V30 10227 N 939.694 -0.43169 7.00772 0
M  V30 10228 H 944.534 1.06225 2.78425 0
M  V30 10229 H 942.071 0.53533 1.37013 0
M  V30 10230 H 944.029 -1.08271 4.02906 0
M  V30 10231 H 942.659 -1.3677 2.92393 0
M  V30 10232 H 941.711 0.928129 3.68904 0
M  V30 10233 H 943.023 1.00306 4.8861 0
M  V30 10234 H 942.177 -1.0893 5.96841 0
M  V30 10235 H 940.916 -1.25154 4.71368 0
M  V30 10236 H 939.921 0.943577 5.41643 0
M  V30 10237 H 941.146 1.09182 6.70266 0
M  V30 10238 H 939.092 -1.13908 6.46035 0
M  V30 10239 H 939.009 0.200133 7.55735 0
M  V30 10240 H 940.277 -0.975894 7.73367 0
M  V30 10241 N 944.506 -1.46559 0.579492 0
M  V30 10242 C 945.453 -2.30275 -0.155598 0
M  V30 10243 C 946.423 -1.40422 -0.887175 0
M  V30 10244 O 947.608 -1.69373 -0.878481 0
M  V30 10245 C 944.748 -3.24827 -1.16539 0
M  V30 10246 C 943.861 -4.29778 -0.43759 0
M  V30 10247 C 942.996 -5.11461 -1.43462 0
M  V30 10248 C 942.035 -6.08164 -0.693048 0
M  V30 10249 N 941.172 -6.82726 -1.63799 0
M  V30 10250 H 946.012 -2.92607 0.564356 0
M  V30 10251 H 943.549 -1.44211 0.290126 0
M  V30 10252 H 945.507 -3.78088 -1.76368 0
M  V30 10253 H 944.137 -2.64311 -1.8531 0
M  V30 10254 H 943.189 -3.794 0.27567 0
M  V30 10255 H 944.501 -4.98597 0.142298 0
M  V30 10256 H 943.655 -5.68982 -2.1058 0
M  V30 10257 H 942.394 -4.42595 -2.04844 0
M  V30 10258 H 941.399 -5.49799 -0.00807093 0
M  V30 10259 H 942.624 -6.79047 -0.0846678 0
M  V30 10260 H 940.57 -6.16572 -2.23997 0
M  V30 10261 H 940.487 -7.47795 -1.11082 0
M  V30 10262 H 941.755 -7.44807 -2.29962 0
M  V30 10263 N 945.984 -0.3171 -1.54377 0
M  V30 10264 C 946.932 0.567371 -2.25574 0
M  V30 10265 C 947.926 1.12387 -1.2675 0
M  V30 10266 O 949.132 1.07266 -1.44548 0
M  V30 10267 H 945.507 0.201605 -0.724472 0
M  V30 10268 H 947.478 -0.0554644 -2.98348 0
M  V30 10269 C 946.227 1.71984 -3.02187 0
M  V30 10270 H 945.55 1.30086 -3.78044 0
M  V30 10271 H 946.99 2.31443 -3.5526 0
M  V30 10272 C 945.449 2.6336 -2.10103 0
M  V30 10273 O 945.979 3.64899 -1.67962 0
M  V30 10274 N 944.185 2.3145 -1.75725 0
M  V30 10275 H 943.732 1.48921 -2.10191 0
M  V30 10276 H 943.69 2.92852 -1.14391 0
M  V30 10277 N 947.462 1.57535 -0.0451378 0
M  V30 10278 C 948.409 2.11176 0.931313 0
M  V30 10279 C 949.379 1.01765 1.31275 0
M  V30 10280 O 950.564 1.29279 1.40327 0
M  V30 10281 C 947.704 2.65639 2.20295 0
M  V30 10282 C 946.817 3.89114 1.87654 0
M  V30 10283 C 945.952 4.31914 3.09232 0
M  V30 10284 C 944.991 5.48105 2.72484 0
M  V30 10285 N 944.128 5.85986 3.86736 0
M  V30 10286 H 948.968 2.94318 0.466986 0
M  V30 10287 H 946.505 1.45462 0.218886 0
M  V30 10288 H 948.463 2.95312 2.94697 0
M  V30 10289 H 947.093 1.85303 2.64316 0
M  V30 10290 H 946.145 3.6607 1.03427 0
M  V30 10291 H 947.457 4.7358 1.56601 0
M  V30 10292 H 946.611 4.63108 3.91939 0
M  V30 10293 H 945.35 3.46247 3.43459 0
M  V30 10294 H 944.355 5.16589 1.88192 0
M  V30 10295 H 945.58 6.35482 2.39455 0
M  V30 10296 H 943.526 5.03273 4.20775 0
M  V30 10297 H 943.443 6.65129 3.5936 0
M  V30 10298 H 944.711 6.21793 4.701 0
M  V30 10299 N 948.94 -0.228186 1.55939 0
M  V30 10300 C 949.888 -1.30239 1.92719 0
M  V30 10301 C 950.882 -1.48865 0.808424 0
M  V30 10302 O 952.088 -1.50118 0.993204 0
M  V30 10303 H 948.463 -0.436509 0.612343 0
M  V30 10304 H 950.434 -0.964965 2.82367 0
M  V30 10305 C 949.183 -2.647 2.25453 0
M  V30 10306 H 948.506 -2.51173 3.1105 0
M  V30 10307 H 949.946 -3.38691 2.55077 0
M  V30 10308 C 948.405 -3.1921 1.07734 0
M  V30 10309 O 948.935 -4.00301 0.335019 0
M  V30 10310 N 947.141 -2.77492 0.862938 0
M  V30 10311 H 946.688 -2.11657 1.4683 0
M  V30 10312 H 946.646 -3.14306 0.0770119 0
M  V30 10313 N 950.418 -1.49637 -0.494624 0
M  V30 10314 C 951.658 -1.61067 -1.25844 0
M  V30 10315 C 952.022 -0.293666 -1.89741 0
M  V30 10316 O 953.223 -0.283202 -2.67304 0
M  V30 10317 C 951.494 -2.74218 -2.29215 0
M  V30 10318 S 953.053 -3.05639 -3.1485 0
M  V30 10319 H 949.871 -0.568056 -0.42759 0
M  V30 10320 H 952.473 -1.87323 -0.559491 0
M  V30 10321 H 951.177 -3.68422 -1.80813 0
M  V30 10322 H 950.708 -2.49975 -3.0377 0
M  V30 10323 H 952.723 -2.47651 -4.29981 0
M  V30 10324 N 951.896 0.746133 -1.38819 0
M  V30 10325 C 953.145 1.50085 -1.34749 0
M  V30 10326 C 953.458 1.95516 0.0574786 0
M  V30 10327 O 954.664 2.70601 0.22073 0
M  V30 10328 C 953.12 2.71141 -2.36665 0
M  V30 10329 C 952.728 2.32706 -3.82821 0
M  V30 10330 C 954.472 3.49005 -2.41652 0
M  V30 10331 C 952.379 3.50418 -4.76405 0
M  V30 10332 H 951.309 0.563563 -0.500912 0
M  V30 10333 H 953.96 0.814951 -1.6441 0
M  V30 10334 H 952.342 3.4175 -2.00058 0
M  V30 10335 H 953.516 1.69715 -4.28408 0
M  V30 10336 H 951.831 1.67959 -3.81023 0
M  V30 10337 H 954.428 4.36541 -3.08766 0
M  V30 10338 H 954.771 3.90687 -1.43769 0
M  V30 10339 H 955.304 2.85416 -2.77097 0
M  V30 10340 H 952.043 3.13795 -5.75511 0
M  V30 10341 H 951.563 4.12426 -4.35505 0
M  V30 10342 H 953.242 4.16901 -4.94775 0
M  V30 10343 N 953.375 1.23811 0.975125 0
M  V30 10344 C 954.323 1.02149 2.0897 0
M  V30 10345 C 955.317 -0.0412172 1.6935 0
M  V30 10346 O 956.523 0.112726 1.79647 0
M  V30 10347 H 952.898 0.313259 0.683647 0
M  V30 10348 H 954.869 1.96686 2.24404 0
M  V30 10349 C 953.618 0.635023 3.41852 0
M  V30 10350 H 952.941 1.44449 3.72793 0
M  V30 10351 H 954.381 0.52301 4.20762 0
M  V30 10352 C 952.84 -0.657207 3.30428 0
M  V30 10353 O 953.37 -1.70494 3.63723 0
M  V30 10354 N 951.576 -0.635122 2.83575 0
M  V30 10355 H 951.123 0.21784 2.56677 0
M  V30 10356 H 951.081 -1.49995 2.76313 0
M  V30 10357 N 954.853 -1.17469 1.05066 0
M  V30 10358 C 956.102 -1.87032 0.755114 0
M  V30 10359 C 956.415 -1.81844 -0.720572 0
M  V30 10360 O 957.621 -2.46866 -1.13002 0
M  V30 10361 C 956.077 -3.35581 1.30052 0
M  V30 10362 C 955.685 -3.49274 2.80556 0
M  V30 10363 C 957.429 -4.1048 1.08196 0
M  V30 10364 C 955.336 -4.91838 3.28404 0
M  V30 10365 H 954.266 -0.70057 0.278779 0
M  V30 10366 H 956.917 -1.32663 1.26779 0
M  V30 10367 H 955.299 -3.89479 0.715667 0
M  V30 10368 H 956.473 -3.05598 3.44886 0
M  V30 10369 H 954.788 -2.87793 3.00939 0
M  V30 10370 H 957.385 -5.15652 1.41447 0
M  V30 10371 H 957.728 -4.16295 0.0196603 0
M  V30 10372 H 958.261 -3.62784 1.63195 0
M  V30 10373 H 955 -4.91196 4.34058 0
M  V30 10374 H 954.52 -5.36189 2.68815 0
M  V30 10375 H 956.199 -5.60602 3.23009 0
M  V30 10376 N 956.331 -0.831506 -1.3388 0
M  V30 10377 C 957.261 -0.274378 -2.31882 0
M  V30 10378 C 958.242 0.613872 -1.58637 0
M  V30 10379 O 959.427 0.538961 -1.86571 0
M  V30 10380 C 956.557 0.557498 -3.42796 0
M  V30 10381 C 955.511 -0.234337 -4.27358 0
M  V30 10382 C 954.837 0.720825 -5.29819 0
M  V30 10383 C 956.137 -1.44732 -5.01847 0
M  V30 10384 H 957.831 -1.09322 -2.78728 0
M  V30 10385 H 955.377 -0.527136 -1.34005 0
M  V30 10386 H 957.33 0.957501 -4.10378 0
M  V30 10387 H 956.054 1.40947 -2.94621 0
M  V30 10388 H 954.713 -0.61581 -3.61391 0
M  V30 10389 H 954.361 1.569 -4.77903 0
M  V30 10390 H 954.061 0.195171 -5.87276 0
M  V30 10391 H 955.585 1.1185 -6.00268 0
M  V30 10392 H 956.999 -1.12087 -5.62236 0
M  V30 10393 H 955.396 -1.90923 -5.68919 0
M  V30 10394 H 956.466 -2.22099 -4.31045 0
M  V30 10395 N 957.809 1.4625 -0.587256 0
M  V30 10396 C 959.055 2.0323 -0.0830359 0
M  V30 10397 C 959.41 1.45007 1.26455 0
M  V30 10398 O 958.703 0.607494 1.81714 0
M  V30 10399 C 958.897 3.57382 0.036328 0
M  V30 10400 C 958.726 4.30556 -1.29814 0
M  V30 10401 C 957.496 4.69285 -1.87349 0
M  V30 10402 C 959.694 4.63806 -2.22236 0
M  V30 10403 N 957.676 5.27229 -3.14488 0
M  V30 10404 C 959.047 5.22368 -3.33964 0
M  V30 10405 C 961.102 4.45738 -2.2186 0
M  V30 10406 C 959.805 5.64769 -4.45454 0
M  V30 10407 C 961.831 4.89158 -3.32383 0
M  V30 10408 C 961.193 5.47795 -4.42832 0
M  V30 10409 H 957.292 0.77856 -0.0732716 0
M  V30 10410 H 959.876 1.78343 -0.781152 0
M  V30 10411 H 958.047 3.81973 0.703621 0
M  V30 10412 H 959.779 4.01009 0.545347 0
M  V30 10413 H 956.534 4.5219 -1.40789 0
M  V30 10414 H 956.958 5.60719 -3.79372 0
M  V30 10415 H 961.6 3.99735 -1.37739 0
M  V30 10416 H 959.318 6.09748 -5.30314 0
M  V30 10417 H 962.904 4.76926 -3.33216 0
M  V30 10418 H 961.784 5.80778 -5.26941 0
M  V30 10419 N 959.287 0.325282 1.54207 0
M  V30 10420 C 960.234 -0.539889 2.24397 0
M  V30 10421 C 961.204 -1.11028 1.2354 0
M  V30 10422 O 962.389 -1.1503 1.52226 0
M  V30 10423 C 959.529 -1.69405 3.00659 0
M  V30 10424 C 958.642 -1.15273 4.16337 0
M  V30 10425 C 957.777 -2.27272 4.80126 0
M  V30 10426 C 956.816 -1.70397 5.87904 0
M  V30 10427 N 955.953 -2.76065 6.45548 0
M  V30 10428 H 960.793 0.0652318 2.97929 0
M  V30 10429 H 958.33 0.043964 1.47034 0
M  V30 10430 H 960.288 -2.37325 3.43122 0
M  V30 10431 H 958.918 -2.27043 2.29458 0
M  V30 10432 H 957.97 -0.365034 3.78645 0
M  V30 10433 H 959.282 -0.696576 4.93912 0
M  V30 10434 H 958.436 -3.03092 5.25566 0
M  V30 10435 H 957.175 -2.76224 4.01935 0
M  V30 10436 H 956.18 -0.930752 5.41864 0
M  V30 10437 H 957.405 -1.22319 6.67993 0
M  V30 10438 H 955.351 -3.24306 5.7023 0
M  V30 10439 H 955.268 -2.35018 7.18542 0
M  V30 10440 H 956.536 -3.5171 6.95644 0
M  V30 10441 N 960.765 -1.57509 0.0534917 0
M  V30 10442 C 961.695 -2.14698 -0.917999 0
M  V30 10443 C 962.676 -1.06924 -1.32292 0
M  V30 10444 O 963.861 -1.34875 -1.39723 0
M  V30 10445 C 960.991 -2.69383 -2.19203 0
M  V30 10446 C 959.945 -3.82161 -1.9271 0
M  V30 10447 C 959.271 -4.23373 -3.26587 0
M  V30 10448 C 960.571 -5.07199 -1.24686 0
M  V30 10449 H 962.265 -2.96125 -0.44165 0
M  V30 10450 H 959.811 -1.42446 -0.210993 0
M  V30 10451 H 961.764 -3.08031 -2.87567 0
M  V30 10452 H 960.488 -1.85151 -2.69048 0
M  V30 10453 H 959.147 -3.43989 -1.26757 0
M  V30 10454 H 958.795 -3.36089 -3.74237 0
M  V30 10455 H 958.495 -4.99385 -3.09658 0
M  V30 10456 H 960.019 -4.64623 -3.96178 0
M  V30 10457 H 961.433 -5.43279 -1.83088 0
M  V30 10458 H 959.83 -5.88369 -1.18076 0
M  V30 10459 H 960.9 -4.84386 -0.223227 0
M  V30 10460 N 962.243 0.219913 -1.56058 0
M  V30 10461 C 963.153 1.29349 -1.95719 0
M  V30 10462 C 964.169 1.5119 -0.861248 0
M  V30 10463 O 965.345 1.64289 -1.16495 0
M  V30 10464 C 962.41 2.6229 -2.26726 0
M  V30 10465 C 961.471 2.48738 -3.49897 0
M  V30 10466 C 960.704 3.75339 -3.79416 0
M  V30 10467 O 960.927 4.78427 -3.10586 0
M  V30 10468 O 959.861 3.72352 -4.72903 0
M  V30 10469 H 963.687 0.986979 -2.87215 0
M  V30 10470 H 961.272 0.42291 -1.43289 0
M  V30 10471 H 963.154 3.408 -2.47857 0
M  V30 10472 H 961.829 2.92619 -1.38404 0
M  V30 10473 H 960.736 1.68422 -3.34043 0
M  V30 10474 H 962.069 2.23347 -4.38608 0
M  V30 10475 N 963.721 1.49897 0.486681 0
M  V30 10476 C 964.967 1.60342 1.2417 0
M  V30 10477 C 965.3 0.295694 1.91936 0
M  V30 10478 O 964.575 -0.701788 1.81398 0
M  V30 10479 C 964.858 2.77281 2.29755 0
M  V30 10480 C 964.711 4.1789 1.66397 0
M  V30 10481 C 966.03 2.89817 3.31201 0
M  V30 10482 H 963.149 0.583605 0.450083 0
M  V30 10483 H 965.791 1.82232 0.537734 0
M  V30 10484 H 963.941 2.58748 2.89796 0
M  V30 10485 H 965.613 4.47975 1.10073 0
M  V30 10486 H 963.856 4.22872 0.967579 0
M  V30 10487 H 964.527 4.95612 2.43049 0
M  V30 10488 H 967.003 3.06732 2.81167 0
M  V30 10489 H 965.879 3.7329 4.02425 0
M  V30 10490 H 966.14 1.9977 3.94391 0
M  V30 10491 N 965.199 -0.738761 1.39212 0
M  V30 10492 C 966.162 -1.83441 1.37412 0
M  V30 10493 C 967.162 -1.58484 0.271908 0
M  V30 10494 O 968.352 -1.65954 0.529609 0
M  V30 10495 C 965.484 -3.21167 1.143 0
M  V30 10496 H 966.677 -1.86441 2.34904 0
M  V30 10497 H 964.23 -0.942023 1.24722 0
M  V30 10498 H 964.965 -3.23829 0.174756 0
M  V30 10499 H 964.75 -3.40678 1.94116 0
M  V30 10500 H 966.24 -4.01231 1.15773 0
M  V30 10501 N 966.677 -1.24326 -0.968545 0
M  V30 10502 C 967.624 -1.0349 -2.06297 0
M  V30 10503 C 968.594 0.0515333 -1.6602 0
M  V30 10504 O 969.779 -0.102924 -1.90522 0
M  V30 10505 C 966.919 -0.64487 -3.39021 0
M  V30 10506 C 966.032 -1.80469 -3.92498 0
M  V30 10507 C 965.167 -1.36032 -5.13487 0
M  V30 10508 C 964.206 -2.49014 -5.59159 0
M  V30 10509 N 963.343 -2.05451 -6.71367 0
M  V30 10510 H 968.183 -1.97161 -2.23454 0
M  V30 10511 H 965.72 -0.982028 -1.0952 0
M  V30 10512 H 967.678 -0.399771 -4.1528 0
M  V30 10513 H 966.308 0.254845 -3.21792 0
M  V30 10514 H 965.36 -2.16348 -3.12886 0
M  V30 10515 H 966.672 -2.65365 -4.22354 0
M  V30 10516 H 965.826 -1.07405 -5.97117 0
M  V30 10517 H 964.565 -0.481887 -4.85313 0
M  V30 10518 H 963.57 -2.78402 -4.74102 0
M  V30 10519 H 964.795 -3.37413 -5.89346 0
M  V30 10520 H 962.741 -1.20004 -6.4493 0
M  V30 10521 H 962.658 -2.83901 -7.00668 0
M  V30 10522 H 963.926 -1.79962 -7.58442 0
M  V30 10523 N 968.156 1.1691 -1.05688 0
M  V30 10524 C 969.088 2.20648 -0.620237 0
M  V30 10525 C 970.101 1.59652 0.318604 0
M  V30 10526 O 971.29 1.78157 0.110553 0
M  V30 10527 C 968.39 3.38716 0.111729 0
M  V30 10528 C 967.563 4.29277 -0.839062 0
M  V30 10529 C 966.622 5.25993 -0.147453 0
M  V30 10530 O 965.648 5.63787 -0.783151 0
M  V30 10531 N 966.85 5.69725 1.11327 0
M  V30 10532 H 969.615 2.58731 -1.51256 0
M  V30 10533 H 967.176 1.31858 -0.939412 0
M  V30 10534 H 969.168 4.00455 0.584657 0
M  V30 10535 H 967.738 2.99189 0.905784 0
M  V30 10536 H 966.958 3.64894 -1.4915 0
M  V30 10537 H 968.246 4.86669 -1.48428 0
M  V30 10538 H 967.644 5.41103 1.64999 0
M  V30 10539 H 966.201 6.33584 1.53018 0
M  V30 10540 N 969.634 0.838594 1.33437 0
M  V30 10541 C 970.564 0.286672 2.31734 0
M  V30 10542 C 971.545 -0.605451 1.5896 0
M  V30 10543 O 972.73 -0.529059 1.86854 0
M  V30 10544 C 969.86 -0.539311 3.43087 0
M  V30 10545 C 968.814 0.256997 4.27228 0
M  V30 10546 C 968.14 -0.692718 5.30194 0
M  V30 10547 C 969.44 1.47391 5.01072 0
M  V30 10548 H 971.134 1.10798 2.78144 0
M  V30 10549 H 968.68 0.534235 1.33723 0
M  V30 10550 H 970.633 -0.935724 4.1088 0
M  V30 10551 H 969.357 -1.39383 2.95364 0
M  V30 10552 H 968.016 0.634967 3.61059 0
M  V30 10553 H 967.664 -1.54363 4.78729 0
M  V30 10554 H 967.364 -0.164023 5.87371 0
M  V30 10555 H 968.888 -1.08665 6.00853 0
M  V30 10556 H 970.302 1.15067 5.61634 0
M  V30 10557 H 968.699 1.93937 5.67898 0
M  V30 10558 H 969.769 2.24382 4.29861 0
M  V30 10559 N 971.112 -1.45937 0.595003 0
M  V30 10560 C 972.075 -2.2888 -0.121102 0
M  V30 10561 C 973.075 -1.39075 -0.807149 0
M  V30 10562 O 974.265 -1.61326 -0.657228 0
M  V30 10563 C 971.397 -3.19778 -1.1813 0
M  V30 10564 H 972.59 -2.93673 0.607968 0
M  V30 10565 H 970.143 -1.5225 0.353495 0
M  V30 10566 H 970.878 -2.59759 -1.94154 0
M  V30 10567 H 970.663 -3.85914 -0.693724 0
M  V30 10568 H 972.153 -3.82176 -1.68319 0
M  V30 10569 N 972.59 -0.333456 -1.54032 0
M  V30 10570 C 973.836 0.259248 -2.01741 0
M  V30 10571 C 974.191 1.48999 -1.21725 0
M  V30 10572 O 973.484 1.89333 -0.293882 0
M  V30 10573 C 973.678 0.63565 -3.51702 0
M  V30 10574 C 973.507 -0.55707 -4.46236 0
M  V30 10575 C 972.277 -1.05925 -4.94073 0
M  V30 10576 C 974.475 -1.41237 -4.94527 0
M  V30 10577 N 972.457 -2.21535 -5.72534 0
M  V30 10578 C 973.828 -2.41551 -5.71011 0
M  V30 10579 C 975.883 -1.43899 -4.76652 0
M  V30 10580 C 974.586 -3.44342 -6.31523 0
M  V30 10581 C 976.612 -2.45567 -5.38006 0
M  V30 10582 C 975.974 -3.44606 -6.1435 0
M  V30 10583 H 972.073 0.0584431 -0.779813 0
M  V30 10584 H 974.657 -0.470736 -1.88924 0
M  V30 10585 H 972.828 1.33475 -3.64745 0
M  V30 10586 H 974.56 1.21067 -3.86167 0
M  V30 10587 H 971.315 -0.628947 -4.69405 0
M  V30 10588 H 971.739 -2.79878 -6.16439 0
M  V30 10589 H 976.381 -0.686929 -4.17182 0
M  V30 10590 H 974.099 -4.20449 -6.90107 0
M  V30 10591 H 977.685 -2.4844 -5.26088 0
M  V30 10592 H 976.565 -4.21987 -6.60982 0
M  V30 10593 N 974.068 1.57479 -0.061844 0
M  V30 10594 C 975.031 2.1104 0.894127 0
M  V30 10595 C 976.031 1.03227 1.23292 0
M  V30 10596 O 977.221 1.29256 1.16784 0
M  V30 10597 C 974.353 2.6035 2.20069 0
M  V30 10598 H 975.546 2.96807 0.429619 0
M  V30 10599 H 973.099 1.55181 0.18672 0
M  V30 10600 H 973.834 1.78008 2.71079 0
M  V30 10601 H 973.619 3.39146 1.9678 0
M  V30 10602 H 975.109 3.019 2.88525 0
M  V30 10603 N 975.546 -0.211634 1.56173 0
M  V30 10604 C 976.479 -1.28982 1.88252 0
M  V30 10605 C 977.457 -1.4474 0.740889 0
M  V30 10606 O 978.641 -1.60394 0.990249 0
M  V30 10607 C 975.768 -2.65879 2.09824 0
M  V30 10608 C 974.814 -2.67082 3.3252 0
M  V30 10609 S 975.647 -2.2016 4.8815 0
M  V30 10610 C 976.803 -3.58913 5.12769 0
M  V30 10611 H 977.036 -1.01578 2.79409 0
M  V30 10612 H 974.569 -0.414351 1.48736 0
M  V30 10613 H 976.527 -3.44688 2.22935 0
M  V30 10614 H 975.188 -2.90502 1.19447 0
M  V30 10615 H 974.381 -3.67703 3.44689 0
M  V30 10616 H 973.983 -1.96343 3.18317 0
M  V30 10617 H 976.275 -4.54671 5.02276 0
M  V30 10618 H 977.218 -3.51652 6.14611 0
M  V30 10619 H 977.626 -3.5306 4.40465 0
M  V30 10620 N 977.024 -1.50153 -0.478725 0
M  V30 10621 C 977.974 -1.64848 -1.57509 0
M  V30 10622 C 978.958 -0.503327 -1.52825 0
M  V30 10623 O 980.15 -0.75737 -1.59978 0
M  V30 10624 C 977.279 -1.73893 -2.96 0
M  V30 10625 C 976.365 -2.9406 -3.05597 0
M  V30 10626 N 976.756 -4.17844 -2.85027 0
M  V30 10627 C 975.054 -2.92459 -3.36725 0
M  V30 10628 C 975.755 -4.98739 -2.9939 0
M  V30 10629 N 974.731 -4.32542 -3.29255 0
M  V30 10630 H 978.533 -2.58254 -1.40293 0
M  V30 10631 H 976.047 -1.47232 -0.685307 0
M  V30 10632 H 978.044 -1.82523 -3.74821 0
M  V30 10633 H 976.704 -0.816402 -3.14269 0
M  V30 10634 H 977.715 -4.47465 -2.60759 0
M  V30 10635 H 974.392 -2.09675 -3.6103 0
M  V30 10636 H 975.782 -6.07146 -2.8779 0
M  V30 10637 N 978.502 0.731368 -1.39602 0
M  V30 10638 C 979.749 1.491 -1.37024 0
M  V30 10639 C 980.077 1.94473 0.0326423 0
M  V30 10640 O 979.332 1.6737 1.01418 0
M  V30 10641 C 979.631 2.74224 -2.29208 0
M  V30 10642 C 979.297 2.477 -3.7677 0
M  V30 10643 C 977.959 2.40175 -4.16976 0
M  V30 10644 C 980.311 2.25098 -4.70086 0
M  V30 10645 C 977.639 2.08095 -5.48556 0
M  V30 10646 C 979.991 1.94534 -6.01946 0
M  V30 10647 C 978.655 1.85481 -6.41212 0
M  V30 10648 H 977.925 0.545595 -0.501405 0
M  V30 10649 H 980.572 0.839127 -1.72136 0
M  V30 10650 H 978.877 3.44171 -1.87225 0
M  V30 10651 H 980.574 3.32264 -2.24504 0
M  V30 10652 H 977.164 2.54436 -3.44906 0
M  V30 10653 H 981.348 2.29876 -4.39853 0
M  V30 10654 H 976.604 1.99611 -5.77897 0
M  V30 10655 H 980.778 1.76054 -6.73779 0
M  V30 10656 H 978.405 1.60389 -7.43088 0
M  V30 10657 N 979.98 1.24838 0.961938 0
M  V30 10658 C 980.91 1.07053 2.07514 0
M  V30 10659 C 981.891 -0.0182465 1.7009 0
M  V30 10660 O 983.076 0.149915 1.9362 0
M  V30 10661 C 980.206 0.680693 3.40564 0
M  V30 10662 C 979.16 1.71889 3.91967 0
M  V30 10663 C 978.486 1.18395 5.21428 0
M  V30 10664 C 979.786 3.1161 4.19161 0
M  V30 10665 H 981.48 2.00167 2.22651 0
M  V30 10666 H 979.026 0.963799 1.0699 0
M  V30 10667 H 980.979 0.54324 4.17884 0
M  V30 10668 H 979.703 -0.28615 3.25344 0
M  V30 10669 H 978.362 1.84465 3.16809 0
M  V30 10670 H 978.01 0.207543 5.02572 0
M  V30 10671 H 977.71 1.87778 5.56788 0
M  V30 10672 H 979.234 1.05873 6.01351 0
M  V30 10673 H 980.648 3.0223 4.87165 0
M  V30 10674 H 979.045 3.78398 4.65763 0
M  V30 10675 H 980.115 3.59218 3.25715 0
M  V30 10676 N 981.458 -1.16348 1.06306 0
M  V30 10677 C 982.368 -2.24375 0.685059 0
M  V30 10678 C 983.384 -1.71413 -0.298956 0
M  V30 10679 O 984.56 -2.00854 -0.148239 0
M  V30 10680 C 981.625 -3.46614 0.0774088 0
M  V30 10681 C 980.686 -4.14613 1.11331 0
M  V30 10682 C 979.919 -5.31016 0.534559 0
M  V30 10683 O 980.142 -5.66654 -0.65265 0
M  V30 10684 O 979.076 -5.88256 1.27431 0
M  V30 10685 H 982.902 -2.59018 1.58566 0
M  V30 10686 H 980.487 -1.23865 0.835332 0
M  V30 10687 H 982.369 -4.20599 -0.259716 0
M  V30 10688 H 981.044 -3.13743 -0.796677 0
M  V30 10689 H 979.951 -3.42597 1.50261 0
M  V30 10690 H 981.284 -4.51538 1.95893 0
M  V30 10691 N 982.937 -0.845659 -1.3299 0
M  V30 10692 C 983.847 -0.2864 -2.32845 0
M  V30 10693 C 984.863 0.591105 -1.63652 0
M  V30 10694 O 986.039 0.493615 -1.95257 0
M  V30 10695 C 983.104 0.523636 -3.42723 0
M  V30 10696 C 982.165 -0.378945 -4.27624 0
M  V30 10697 C 981.398 0.392526 -5.32255 0
M  V30 10698 O 981.621 1.6235 -5.46808 0
M  V30 10699 O 980.555 -0.237 -6.01433 0
M  V30 10700 H 984.381 -1.11346 -2.82552 0
M  V30 10701 H 981.966 -0.608356 -1.36453 0
M  V30 10702 H 983.848 0.983718 -4.09757 0
M  V30 10703 H 982.523 1.32764 -2.95221 0
M  V30 10704 H 981.43 -0.887012 -3.63432 0
M  V30 10705 H 982.763 -1.1479 -4.78627 0
M  V30 10706 N 984.415 1.45619 -0.602734 0
M  V30 10707 C 985.363 2.32228 0.131484 0
M  V30 10708 C 986.357 1.45681 0.864484 0
M  V30 10709 O 987.563 1.62193 0.7806 0
M  V30 10710 H 983.938 0.7495 0.0612638 0
M  V30 10711 H 985.909 2.91941 -0.617496 0
M  V30 10712 C 984.658 3.29213 1.11866 0
M  V30 10713 H 983.981 3.95801 0.564061 0
M  V30 10714 H 985.421 3.92554 1.60242 0
M  V30 10715 C 983.88 2.56028 2.18978 0
M  V30 10716 O 984.41 2.33806 3.26646 0
M  V30 10717 N 982.616 2.16245 1.94129 0
M  V30 10718 H 982.163 2.34518 1.06579 0
M  V30 10719 H 982.121 1.67601 2.66003 0
M  V30 10720 N 985.893 0.34162 1.53853 0
M  V30 10721 C 987.121 -0.256929 2.05299 0
M  V30 10722 C 987.536 -1.44366 1.21671 0
M  V30 10723 O 986.893 -1.80758 0.251584 0
M  V30 10724 C 986.944 -0.673854 3.55164 0
M  V30 10725 O 986.665 0.465687 4.35618 0
M  V30 10726 C 988.166 -1.33332 4.22773 0
M  V30 10727 H 985.386 -0.0499445 0.669139 0
M  V30 10728 H 987.93 0.493048 1.98467 0
M  V30 10729 H 986.085 -1.37378 3.62224 0
M  V30 10730 H 986.499 0.133723 5.2433 0
M  V30 10731 H 987.973 -1.57582 5.29029 0
M  V30 10732 H 988.45 -2.28628 3.75001 0
M  V30 10733 H 989.056 -0.675489 4.19901 0
M  V30 10734 N 987.371 -1.57444 0.0701946 0
M  V30 10735 C 988.301 -2.15659 -0.895176 0
M  V30 10736 C 989.282 -1.08321 -1.31151 0
M  V30 10737 O 990.467 -1.36349 -1.38284 0
M  V30 10738 C 987.597 -2.71693 -2.16334 0
M  V30 10739 C 986.551 -3.84183 -1.88645 0
M  V30 10740 C 985.877 -4.26814 -3.22078 0
M  V30 10741 C 987.177 -5.08493 -1.19299 0
M  V30 10742 H 988.871 -2.96576 -0.410217 0
M  V30 10743 H 986.417 -1.42662 -0.195872 0
M  V30 10744 H 988.37 -3.11064 -2.84284 0
M  V30 10745 H 987.094 -1.87994 -2.67069 0
M  V30 10746 H 985.753 -3.45314 -1.23101 0
M  V30 10747 H 985.401 -3.40039 -3.70651 0
M  V30 10748 H 985.101 -5.02642 -3.04344 0
M  V30 10749 H 986.625 -4.68799 -3.91228 0
M  V30 10750 H 988.039 -5.4519 -1.77316 0
M  V30 10751 H 986.436 -5.89588 -1.11828 0
M  V30 10752 H 987.506 -4.84595 -0.171839 0
M  V30 10753 N 988.849 0.203349 -1.56283 0
M  V30 10754 C 990.098 0.92315 -1.79334 0
M  V30 10755 C 990.411 1.84765 -0.641977 0
M  V30 10756 O 991.617 2.60745 -0.756584 0
M  V30 10757 C 990.073 1.69184 -3.17655 0
M  V30 10758 C 989.681 0.812581 -4.40569 0
M  V30 10759 C 991.425 2.40177 -3.50022 0
M  V30 10760 C 989.332 1.57967 -5.69913 0
M  V30 10761 H 988.262 0.348442 -0.668659 0
M  V30 10762 H 990.913 0.1766 -1.82648 0
M  V30 10763 H 989.295 2.48197 -3.08568 0
M  V30 10764 H 990.469 0.0616956 -4.60759 0
M  V30 10765 H 988.784 0.21389 -4.1585 0
M  V30 10766 H 991.381 2.98103 -4.4389 0
M  V30 10767 H 991.724 3.13961 -2.73376 0
M  V30 10768 H 992.257 1.68138 -3.6052 0
M  V30 10769 H 988.996 0.884767 -6.49501 0
M  V30 10770 H 988.516 2.3047 -5.53754 0
M  V30 10771 H 990.195 2.13562 -6.10737 0
M  V30 10772 N 990.327 1.50405 0.470755 0
M  V30 10773 C 991.277 1.65681 1.56633 0
M  V30 10774 C 992.261 0.511424 1.52556 0
M  V30 10775 O 993.453 0.765844 1.59574 0
M  V30 10776 C 990.582 1.7546 2.95074 0
M  V30 10777 C 989.668 2.95676 3.04034 0
M  V30 10778 N 990.059 4.1935 2.82807 0
M  V30 10779 C 988.357 2.94241 3.35169 0
M  V30 10780 C 989.058 5.0032 2.96741 0
M  V30 10781 N 988.034 4.34282 3.26956 0
M  V30 10782 H 991.836 2.58994 1.38922 0
M  V30 10783 H 989.35 1.47593 0.67749 0
M  V30 10784 H 991.347 1.84508 3.73848 0
M  V30 10785 H 990.007 0.833057 3.13832 0
M  V30 10786 H 991.018 4.48842 2.58382 0
M  V30 10787 H 987.695 2.11587 3.59913 0
M  V30 10788 H 989.085 6.08664 2.84566 0
M  V30 10789 N 991.805 -0.723954 1.39988 0
M  V30 10790 C 993.053 -1.48078 1.3754 0
M  V30 10791 C 993.374 -1.94985 -0.0243358 0
M  V30 10792 O 992.644 -1.69764 -0.977602 0
M  V30 10793 H 991.224 -0.549354 0.506181 0
M  V30 10794 H 993.886 -0.858746 1.74962 0
M  V30 10795 H 992.982 -2.35763 2.04505 0
M  V30 10796 N 993.283 -1.25346 -0.955304 0
M  V30 10797 C 994.231 -1.05461 -2.07318 0
M  V30 10798 C 995.225 0.0142699 -1.69394 0
M  V30 10799 O 996.431 -0.141292 -1.79445 0
M  V30 10800 H 992.806 -0.324095 -0.678577 0
M  V30 10801 H 994.777 -2.00231 -2.21247 0
M  V30 10802 C 993.526 -0.689329 -3.40798 0
M  V30 10803 H 992.849 -1.50362 -3.70447 0
M  V30 10804 H 994.289 -0.589883 -4.19877 0
M  V30 10805 C 992.748 0.604556 -3.31431 0
M  V30 10806 O 993.278 1.64686 -3.6639 0
M  V30 10807 N 991.484 0.589927 -2.84549 0
M  V30 10808 H 991.031 -0.258647 -2.56298 0
M  V30 10809 H 990.989 1.4558 -2.78664 0
M  V30 10810 N 994.761 1.15782 -1.06922 0
M  V30 10811 C 996.007 1.86741 -0.790922 0
M  V30 10812 C 996.34 1.81863 0.681149 0
M  V30 10813 O 995.615 1.23871 1.49954 0
M  V30 10814 C 995.898 3.36038 -1.29422 0
M  V30 10815 C 995.751 3.49573 -2.83052 0
M  V30 10816 C 997.07 4.30647 -0.907239 0
M  V30 10817 H 994.189 0.678064 -0.288787 0
M  V30 10818 H 996.831 1.36054 -1.32624 0
M  V30 10819 H 994.981 3.79336 -0.838843 0
M  V30 10820 H 996.653 3.1517 -3.36847 0
M  V30 10821 H 994.896 2.91275 -3.21467 0
M  V30 10822 H 995.567 4.5445 -3.13335 0
M  V30 10823 H 998.043 3.95286 -1.29956 0
M  V30 10824 H 996.919 5.33604 -1.28679 0
M  V30 10825 H 997.18 4.41703 0.187251 0
M  V30 10826 N 996.239 0.8527 1.3254 0
M  V30 10827 C 997.479 0.461385 1.99125 0
M  V30 10828 C 997.843 -0.964507 1.66016 0
M  V30 10829 O 999.044 -1.46027 2.25676 0
M  V30 10830 C 997.315 0.69143 3.50648 0
M  V30 10831 S 998.874 0.397397 4.36997 0
M  V30 10832 H 995.692 0.172933 0.689649 0
M  V30 10833 H 998.294 1.10499 1.61277 0
M  V30 10834 H 996.998 1.72831 3.72233 0
M  V30 10835 H 996.529 0.0341812 3.93385 0
M  V30 10836 H 998.544 -0.777363 4.90073 0
M  V30 10837 N 997.718 -1.45297 0.610449 0
M  V30 10838 C 998.681 -2.28995 -0.0968194 0
M  V30 10839 C 999.681 -1.39923 -0.792353 0
M  V30 10840 O 1000.87 -1.62014 -0.64008 0
M  V30 10841 C 998.003 -3.21013 -1.14731 0
M  V30 10842 H 999.196 -2.93012 0.639082 0
M  V30 10843 H 996.749 -1.51867 0.369624 0
M  V30 10844 H 997.484 -2.61803 -1.91388 0
M  V30 10845 H 997.269 -3.86628 -0.652753 0
M  V30 10846 H 998.759 -3.8394 -1.64256 0
M  V30 10847 N 999.196 -0.349774 -1.5367 0
M  V30 10848 C 1000.14 0.504121 -2.25227 0
M  V30 10849 C 1001.11 1.09048 -1.2529 0
M  V30 10850 O 1002.3 1.12594 -1.54037 0
M  V30 10851 C 999.438 1.64601 -3.03316 0
M  V30 10852 C 998.551 1.08635 -4.18118 0
M  V30 10853 C 997.686 2.19605 -4.83681 0
M  V30 10854 C 996.725 1.61023 -5.90541 0
M  V30 10855 N 995.862 2.6576 -6.49858 0
M  V30 10856 H 1000.7 -0.112621 -2.97787 0
M  V30 10857 H 998.239 -0.0673503 -1.46946 0
M  V30 10858 H 1000.2 2.31836 -3.46854 0
M  V30 10859 H 998.827 2.23364 -2.33041 0
M  V30 10860 H 997.879 0.304748 -3.79177 0
M  V30 10861 H 999.191 0.617911 -4.94958 0
M  V30 10862 H 998.345 2.94693 -5.30322 0
M  V30 10863 H 997.084 2.69795 -4.06278 0
M  V30 10864 H 996.089 0.844428 -5.43277 0
M  V30 10865 H 997.314 1.11677 -6.69855 0
M  V30 10866 H 995.26 3.15193 -5.75317 0
M  V30 10867 H 995.177 2.23557 -7.2219 0
M  V30 10868 H 996.445 3.40598 -7.01151 0
M  V30 10869 N 1000.67 1.57404 -0.0785433 0
M  V30 10870 C 1001.62 2.14316 0.903949 0
M  V30 10871 C 1002.62 1.08176 1.30362 0
M  V30 10872 O 1003.82 1.26546 1.28008 0
M  V30 10873 H 1000.2 0.685367 0.309477 0
M  V30 10874 H 1002.17 2.95719 0.399081 0
M  V30 10875 C 1000.92 2.72504 2.15956 0
M  V30 10876 H 1000.24 3.53853 1.86087 0
M  V30 10877 H 1001.68 3.15914 2.82798 0
M  V30 10878 C 1000.14 1.6759 2.92259 0
M  V30 10879 O 1000.67 1.10492 3.86205 0
M  V30 10880 N 998.875 1.38467 2.5549 0
M  V30 10881 H 998.422 1.85088 1.79166 0
M  V30 10882 H 998.38 0.685053 3.06846 0
M  V30 10883 N 1002.15 -0.195058 1.56388 0
M  V30 10884 C 1003.4 -0.913626 1.79821 0
M  V30 10885 C 1003.71 -1.84422 0.651767 0
M  V30 10886 O 1004.92 -2.6034 0.770402 0
M  V30 10887 C 1003.38 -1.67497 3.18548 0
M  V30 10888 C 1002.98 -0.789205 4.40994 0
M  V30 10889 C 1004.73 -2.38318 3.5129 0
M  V30 10890 C 1002.63 -1.54942 5.70742 0
M  V30 10891 H 1001.56 -0.344891 0.670497 0
M  V30 10892 H 1004.22 -0.166912 1.82739 0
M  V30 10893 H 1002.6 -2.46557 3.0988 0
M  V30 10894 H 1003.77 -0.0372595 4.60785 0
M  V30 10895 H 1002.09 -0.191834 4.15958 0
M  V30 10896 H 1004.68 -2.95745 4.45465 0
M  V30 10897 H 1005.03 -3.12507 2.75037 0
M  V30 10898 H 1005.56 -1.66224 3.61406 0
M  V30 10899 H 1002.3 -0.85031 6.49962 0
M  V30 10900 H 1001.82 -2.2753 5.54969 0
M  V30 10901 H 1003.5 -2.1032 6.11861 0
M  V30 10902 N 1003.63 -1.50653 -0.462772 0
M  V30 10903 C 1004.56 -1.73056 -1.5676 0
M  V30 10904 C 1005.54 -0.579699 -1.59917 0
M  V30 10905 O 1006.73 -0.819729 -1.76051 0
M  V30 10906 C 1003.86 -1.83234 -2.9503 0
M  V30 10907 C 1002.81 -2.98488 -3.06739 0
M  V30 10908 C 1002.14 -2.93818 -4.46738 0
M  V30 10909 C 1003.44 -4.38869 -2.83181 0
M  V30 10910 H 1005.13 -2.65562 -1.38265 0
M  V30 10911 H 1002.68 -1.27792 -0.663722 0
M  V30 10912 H 1004.63 -1.97491 -3.72257 0
M  V30 10913 H 1003.35 -0.873558 -3.14701 0
M  V30 10914 H 1002.01 -2.83895 -2.31946 0
M  V30 10915 H 1001.66 -1.95769 -4.63339 0
M  V30 10916 H 1001.36 -3.71197 -4.55507 0
M  V30 10917 H 1002.88 -3.10135 -5.25974 0
M  V30 10918 H 1004.3 -4.53945 -3.50153 0
M  V30 10919 H 1002.69 -5.17762 -3.03386 0
M  V30 10920 H 1003.76 -4.50663 -1.78972 0
M  V30 10921 N 1005.11 0.71652 -1.4037 0
M  V30 10922 C 1006.04 1.84345 -1.43315 0
M  V30 10923 C 1007.02 1.67537 -0.294186 0
M  V30 10924 O 1008.2 1.87582 -0.502671 0
M  V30 10925 C 1005.33 3.2229 -1.29408 0
M  V30 10926 C 1004.29 3.53769 -2.40897 0
M  V30 10927 C 1003.61 4.90847 -2.12068 0
M  V30 10928 C 1004.91 3.54862 -3.83237 0
M  V30 10929 H 1006.61 1.82138 -2.37626 0
M  V30 10930 H 1004.15 0.874873 -1.14376 0
M  V30 10931 H 1006.11 4.00819 -1.30085 0
M  V30 10932 H 1004.83 3.2507 -0.31573 0
M  V30 10933 H 1003.49 2.77579 -2.39469 0
M  V30 10934 H 1003.14 4.90229 -1.12626 0
M  V30 10935 H 1002.84 5.12875 -2.86762 0
M  V30 10936 H 1004.36 5.71711 -2.14426 0
M  V30 10937 H 1005.78 4.23432 -3.86494 0
M  V30 10938 H 1004.17 3.88416 -4.57442 0
M  V30 10939 H 1005.24 2.54266 -4.12888 0
M  V30 10940 N 1006.59 1.25851 0.948643 0
M  V30 10941 C 1007.84 1.10347 1.68838 0
M  V30 10942 C 1008.15 -0.354262 1.92365 0
M  V30 10943 O 1009.35 -0.629847 2.64093 0
M  V30 10944 C 1007.81 1.92659 3.03991 0
M  V30 10945 C 1007.42 3.42962 2.88238 0
M  V30 10946 C 1009.16 1.85743 3.81707 0
M  V30 10947 C 1007.07 4.17547 4.18818 0
M  V30 10948 H 1006 0.409342 0.63321 0
M  V30 10949 H 1008.65 1.50098 1.05559 0
M  V30 10950 H 1007.03 1.45736 3.68208 0
M  V30 10951 H 1008.21 3.97601 2.32917 0
M  V30 10952 H 1006.52 3.51035 2.23972 0
M  V30 10953 H 1009.12 2.38758 4.78434 0
M  V30 10954 H 1009.46 0.826568 4.08012 0
M  V30 10955 H 1009.99 2.30449 3.2425 0
M  V30 10956 H 1006.73 5.21072 3.97699 0
M  V30 10957 H 1006.25 3.6769 4.73882 0
M  V30 10958 H 1007.93 4.25589 4.87322 0
M  V30 10959 N 1008.06 -1.15214 1.07534 0
M  V30 10960 C 1009.48 -1.38031 0.801228 0
M  V30 10961 C 1009.68 -1.92556 -0.593672 0
M  V30 10962 O 1008.74 -2.1325 -1.35206 0
M  V30 10963 C 1010.05 -2.34958 1.87657 0
M  V30 10964 C 1011.6 -2.48617 1.90154 0
M  V30 10965 C 1012.07 -3.48837 2.96777 0
M  V30 10966 N 1013.56 -3.56374 2.95892 0
M  V30 10967 C 1014.3 -4.33746 3.75036 0
M  V30 10968 N 1013.79 -5.14435 4.64036 0
M  V30 10969 N 1015.59 -4.28853 3.63375 0
M  V30 10970 H 1007.74 -0.781639 1.97495 0
M  V30 10971 H 1010 -0.406243 0.856546 0
M  V30 10972 H 1009.71 -2.02013 2.87895 0
M  V30 10973 H 1009.58 -3.3476 1.73827 0
M  V30 10974 H 1011.97 -2.80859 0.905666 0
M  V30 10975 H 1012.05 -1.48808 2.08062 0
M  V30 10976 H 1011.69 -3.1733 3.96565 0
M  V30 10977 H 1011.62 -4.48406 2.76116 0
M  V30 10978 H 1014.11 -2.98784 2.31379 0
M  V30 10979 H 1014.43 -5.70722 5.21053 0
M  V30 10980 H 1012.77 -5.13734 4.68084 0
M  V30 10981 H 1015.96 -3.64882 2.93221 0
M  V30 10982 H 1016.14 -4.88903 4.25298 0
M  V30 10983 N 1009.54 -0.859717 -1.32086 0
M  V30 10984 C 1010.45 -0.31108 -2.32528 0
M  V30 10985 C 1011.47 0.573714 -1.6427 0
M  V30 10986 O 1012.64 0.472878 -1.9577 0
M  V30 10987 C 1009.71 0.487256 -3.43259 0
M  V30 10988 C 1008.77 -0.424279 -4.27198 0
M  V30 10989 C 1008 0.336051 -5.32641 0
M  V30 10990 O 1008.23 1.56541 -5.48499 0
M  V30 10991 O 1007.16 -0.300777 -6.01148 0
M  V30 10992 H 1010.99 -1.14336 -2.81355 0
M  V30 10993 H 1008.57 -0.622794 -1.358 0
M  V30 10994 H 1010.45 0.940203 -4.10777 0
M  V30 10995 H 1009.13 1.29626 -2.96612 0
M  V30 10996 H 1008.04 -0.925509 -3.62471 0
M  V30 10997 H 1009.37 -1.1986 -4.77383 0
M  V30 10998 N 1011.02 1.44971 -0.618145 0
M  V30 10999 C 1011.93 2.34403 0.0960457 0
M  V30 11000 C 1012.95 1.51862 0.849355 0
M  V30 11001 O 1014.12 1.84632 0.804557 0
M  V30 11002 C 1011.19 3.29646 1.07397 0
M  V30 11003 C 1010.25 4.28095 0.321466 0
M  V30 11004 C 1009.48 5.18787 1.25281 0
M  V30 11005 O 1009.7 5.1313 2.49106 0
M  V30 11006 O 1008.64 5.97282 0.744156 0
M  V30 11007 H 1012.46 2.96898 -0.639176 0
M  V30 11008 H 1010.05 1.44529 -0.37837 0
M  V30 11009 H 1011.93 3.88307 1.63694 0
M  V30 11010 H 1010.61 2.69702 1.79004 0
M  V30 11011 H 1009.51 3.73019 -0.284223 0
M  V30 11012 H 1010.85 4.90923 -0.354315 0
M  V30 11013 N 1012.5 0.357919 1.53482 0
M  V30 11014 C 1013.78 -0.290164 1.93436 0
M  V30 11015 C 1014.16 -1.67039 1.29079 0
M  V30 11016 O 1013.5 -2.24085 0.447017 0
M  V30 11017 C 1013.71 -0.348055 3.4726 0
M  V30 11018 C 1015.06 -0.59206 4.20452 0
M  V30 11019 O 1016.09 -0.429581 3.536 0
M  V30 11020 O 1014.94 -0.907855 5.38907 0
M  V30 11021 H 1012.04 -0.172312 0.80885 0
M  V30 11022 H 1014.58 0.410144 1.64669 0
M  V30 11023 H 1013.36 0.619953 3.86358 0
M  V30 11024 H 1012.98 -1.09457 3.82237 0
M  V30 11025 N 1013.98 -1.5736 0.0868897 0
M  V30 11026 C 1015.39 -1.57304 -0.269762 0
M  V30 11027 C 1015.59 -1.09745 -1.68992 0
M  V30 11028 O 1014.65 -0.77017 -2.40468 0
M  V30 11029 C 1015.96 -3.00628 -0.0656646 0
M  V30 11030 C 1017.51 -3.12713 -0.134045 0
M  V30 11031 C 1017.98 -4.57981 0.0419569 0
M  V30 11032 N 1019.48 -4.63198 -0.0131501 0
M  V30 11033 C 1020.21 -5.73316 0.0983964 0
M  V30 11034 N 1019.71 -6.92296 0.264315 0
M  V30 11035 N 1021.5 -5.62086 0.0402517 0
M  V30 11036 H 1013.65 -1.86585 1.01487 0
M  V30 11037 H 1015.91 -0.860843 0.397055 0
M  V30 11038 H 1015.62 -3.39592 0.914891 0
M  V30 11039 H 1015.49 -3.68367 -0.811522 0
M  V30 11040 H 1017.88 -2.73627 -1.1051 0
M  V30 11041 H 1017.96 -2.47582 0.643167 0
M  V30 11042 H 1017.61 -4.9776 1.00984 0
M  V30 11043 H 1017.54 -5.21162 -0.754847 0
M  V30 11044 H 1020.03 -3.77644 -0.139183 0
M  V30 11045 H 1020.34 -7.72047 0.341165 0
M  V30 11046 H 1018.68 -6.94353 0.299876 0
M  V30 11047 H 1021.88 -4.68017 -0.0881801 0
M  V30 11048 H 1022.05 -6.47868 0.130635 0
M  V30 11049 N 1015.45 0.186762 -1.56489 0
M  V30 11050 C 1016.4 1.23141 -1.95205 0
M  V30 11051 C 1017.37 1.44799 -0.81378 0
M  V30 11052 O 1018.56 1.57795 -1.07263 0
M  V30 11053 C 1015.7 2.56926 -2.30397 0
M  V30 11054 C 1014.81 2.42777 -3.57328 0
M  V30 11055 C 1013.94 3.69323 -3.81804 0
M  V30 11056 C 1012.98 3.50041 -5.02133 0
M  V30 11057 N 1012.12 4.68619 -5.2282 0
M  V30 11058 H 1016.96 0.894256 -2.84266 0
M  V30 11059 H 1014.5 0.430187 -1.40669 0
M  V30 11060 H 1016.46 3.3488 -2.4882 0
M  V30 11061 H 1015.09 2.88668 -1.44466 0
M  V30 11062 H 1014.14 1.56078 -3.46906 0
M  V30 11063 H 1015.45 2.24468 -4.45439 0
M  V30 11064 H 1014.6 4.55715 -4.00511 0
M  V30 11065 H 1013.34 3.90595 -2.92039 0
M  V30 11066 H 1012.35 2.62034 -4.8334 0
M  V30 11067 H 1013.57 3.30206 -5.93414 0
M  V30 11068 H 1011.52 4.90139 -4.36005 0
M  V30 11069 H 1011.44 4.53165 -6.05126 0
M  V30 11070 H 1012.7 5.56338 -5.45993 0
M  V30 11071 N 1016.93 1.50896 0.454776 0
M  V30 11072 C 1018.16 1.6648 1.22849 0
M  V30 11073 C 1018.58 0.354841 1.85435 0
M  V30 11074 O 1017.93 -0.664931 1.69956 0
M  V30 11075 C 1017.98 2.76787 2.32532 0
M  V30 11076 O 1017.7 4.02706 1.72509 0
M  V30 11077 C 1019.21 3.03488 3.23125 0
M  V30 11078 H 1016.43 0.559152 0.370932 0
M  V30 11079 H 1018.97 1.97215 0.540983 0
M  V30 11080 H 1017.12 2.48701 2.9703 0
M  V30 11081 H 1017.54 4.63834 2.44863 0
M  V30 11082 H 1019.01 3.84294 3.9626 0
M  V30 11083 H 1019.49 2.152 3.82865 0
M  V30 11084 H 1020.1 3.33167 2.64347 0
M  V30 11085 N 1018.41 -0.709066 1.40748 0
M  V30 11086 C 1019.66 -1.46611 1.39103 0
M  V30 11087 C 1019.98 -1.95 -0.00365366 0
M  V30 11088 O 1019.25 -1.70791 -0.959541 0
M  V30 11089 H 1017.83 -0.543954 0.511979 0
M  V30 11090 H 1020.49 -0.840141 1.75863 0
M  V30 11091 H 1019.59 -2.33581 2.06994 0
M  V30 11092 N 1019.89 -1.26353 -0.941956 0
M  V30 11093 C 1020.84 -1.07654 -2.06188 0
M  V30 11094 C 1021.83 -0.00369741 -1.694 0
M  V30 11095 O 1023.04 -0.160316 -1.79285 0
M  V30 11096 H 1019.41 -0.331274 -0.675101 0
M  V30 11097 H 1021.38 -2.02566 -2.19111 0
M  V30 11098 C 1020.13 -0.725436 -3.40048 0
M  V30 11099 H 1019.46 -1.54283 -3.68832 0
M  V30 11100 H 1020.9 -0.634383 -4.19227 0
M  V30 11101 C 1019.35 0.569369 -3.32054 0
M  V30 11102 O 1019.88 1.60791 -3.68116 0
M  V30 11103 N 1018.09 0.559714 -2.85159 0
M  V30 11104 H 1017.64 -0.285817 -2.56009 0
M  V30 11105 H 1017.6 1.42617 -2.80193 0
M  V30 11106 N 1021.37 1.14642 -1.08144 0
M  V30 11107 C 1022.78 1.6719 -0.830923 0
M  V30 11108 C 1023.13 1.85373 0.642749 0
M  V30 11109 O 1022.25 1.56293 1.49671 0
M  V30 11110 C 1022.85 3.03697 -1.50179 0
M  V30 11111 C 1021.41 3.5329 -1.29858 0
M  V30 11112 C 1020.56 2.28828 -1.5663 0
M  V30 11113 H 1023.51 0.987441 -1.24239 0
M  V30 11114 H 1023.53 3.69023 -0.9275 0
M  V30 11115 H 1023.04 2.90431 -2.57432 0
M  V30 11116 H 1021.14 3.71783 -0.246626 0
M  V30 11117 H 1021.25 4.34231 -2.02436 0
M  V30 11118 H 1019.62 2.34769 -0.987716 0
M  V30 11119 H 1020.4 2.18141 -2.65084 0
M  V30 11120 N 1022.85 0.866709 1.31628 0
M  V30 11121 C 1024.26 0.529032 1.79048 0
M  V30 11122 C 1024.61 -0.953871 1.71452 0
M  V30 11123 O 1023.73 -1.74462 1.28031 0
M  V30 11124 C 1024.33 0.953522 3.25105 0
M  V30 11125 C 1022.89 0.667554 3.70433 0
M  V30 11126 C 1022.03 1.14664 2.52483 0
M  V30 11127 H 1024.98 1.05275 1.18756 0
M  V30 11128 H 1025.01 0.274844 3.79506 0
M  V30 11129 H 1024.52 2.03283 3.30602 0
M  V30 11130 H 1022.62 -0.400532 3.70441 0
M  V30 11131 H 1022.73 1.2423 4.62714 0
M  V30 11132 H 1021.1 0.566502 2.4832 0
M  V30 11133 H 1021.88 2.2333 2.60727 0
M  V30 11134 N 1024.32 -1.44642 0.625825 0
M  V30 11135 C 1025.57 -2.02094 0.128201 0
M  V30 11136 C 1025.9 -1.49181 -1.24801 0
M  V30 11137 O 1025.15 -0.663965 -1.84092 0
M  V30 11138 C 1025.45 -3.57352 0.0584381 0
M  V30 11139 C 1025.12 -4.29496 1.37272 0
M  V30 11140 C 1023.78 -4.48922 1.7327 0
M  V30 11141 C 1026.13 -4.70586 2.2405 0
M  V30 11142 C 1023.46 -5.06697 2.95762 0
M  V30 11143 C 1025.81 -5.29717 3.45807 0
M  V30 11144 C 1024.48 -5.47363 3.82034 0
M  V30 11145 H 1023.75 -0.739514 0.0469122 0
M  V30 11146 H 1026.39 -1.73475 0.811083 0
M  V30 11147 H 1024.7 -3.85354 -0.707791 0
M  V30 11148 H 1026.4 -3.9953 -0.34303 0
M  V30 11149 H 1022.99 -4.14702 1.08258 0
M  V30 11150 H 1027.17 -4.55295 1.97535 0
M  V30 11151 H 1022.43 -5.18546 3.23913 0
M  V30 11152 H 1026.6 -5.60507 4.13286 0
M  V30 11153 H 1024.23 -5.91898 4.77033 0
M  V30 11154 N 1025.8 -0.366053 -1.5329 0
M  V30 11155 C 1027.05 0.224614 -2.00445 0
M  V30 11156 C 1027.36 1.49829 -1.2574 0
M  V30 11157 O 1028.57 2.16759 -1.63487 0
M  V30 11158 C 1027.03 0.450818 -3.57065 0
M  V30 11159 C 1026.63 -0.808257 -4.40649 0
M  V30 11160 C 1028.38 0.999116 -4.12575 0
M  V30 11161 C 1026.28 -0.551612 -5.88822 0
M  V30 11162 H 1025.21 0.0877114 -0.748881 0
M  V30 11163 H 1027.87 -0.484866 -1.76978 0
M  V30 11164 H 1026.25 1.22157 -3.76688 0
M  V30 11165 H 1027.42 -1.58184 -4.32798 0
M  V30 11166 H 1025.74 -1.27981 -3.96245 0
M  V30 11167 H 1028.33 1.20646 -5.20911 0
M  V30 11168 H 1028.68 1.96139 -3.67199 0
M  V30 11169 H 1029.21 0.288518 -3.96752 0
M  V30 11170 H 1025.95 -1.48423 -6.38475 0
M  V30 11171 H 1025.47 0.183462 -5.99519 0
M  V30 11172 H 1027.15 -0.177307 -6.46757 0
M  V30 11173 N 1027.28 1.57312 -0.0952337 0
M  V30 11174 C 1028.23 2.14032 0.863657 0
M  V30 11175 C 1029.2 1.0589 1.27971 0
M  V30 11176 O 1030.38 1.33678 1.36143 0
M  V30 11177 C 1027.52 2.72513 2.11733 0
M  V30 11178 C 1026.63 3.94887 1.7518 0
M  V30 11179 C 1025.77 4.41533 2.95334 0
M  V30 11180 C 1024.81 5.56496 2.54908 0
M  V30 11181 N 1023.95 5.97993 3.67897 0
M  V30 11182 H 1028.79 2.95655 0.373115 0
M  V30 11183 H 1026.32 1.46085 0.172497 0
M  V30 11184 H 1028.28 3.04539 2.85153 0
M  V30 11185 H 1026.91 1.93618 2.58287 0
M  V30 11186 H 1025.96 3.69175 0.917279 0
M  V30 11187 H 1027.27 4.78322 1.41455 0
M  V30 11188 H 1026.43 4.75343 3.77007 0
M  V30 11189 H 1025.17 3.56999 3.3227 0
M  V30 11190 H 1024.17 5.22314 1.71662 0
M  V30 11191 H 1025.4 6.42779 2.19117 0
M  V30 11192 H 1023.34 5.16405 4.04551 0
M  V30 11193 H 1023.26 6.76225 3.38018 0
M  V30 11194 H 1024.53 6.36434 4.5008 0
M  V30 11195 N 1028.76 -0.17846 1.56586 0
M  V30 11196 C 1029.69 -1.22342 1.98884 0
M  V30 11197 C 1030.67 -1.46564 0.86331 0
M  V30 11198 O 1031.85 -1.58019 1.12887 0
M  V30 11199 C 1028.98 -2.56396 2.34261 0
M  V30 11200 C 1027.94 -2.46756 3.49708 0
M  V30 11201 C 1027.26 -3.85235 3.70807 0
M  V30 11202 C 1028.56 -1.97838 4.83381 0
M  V30 11203 H 1030.26 -0.871848 2.86425 0
M  V30 11204 H 1027.8 -0.417948 1.37801 0
M  V30 11205 H 1029.76 -3.29695 2.62448 0
M  V30 11206 H 1028.48 -2.93327 1.43621 0
M  V30 11207 H 1027.14 -1.75912 3.21637 0
M  V30 11208 H 1026.79 -4.19547 2.7747 0
M  V30 11209 H 1026.49 -3.79655 4.48481 0
M  V30 11210 H 1028.01 -4.60131 4.01387 0
M  V30 11211 H 1029.43 -2.60906 5.10491 0
M  V30 11212 H 1027.82 -2.03223 5.64642 0
M  V30 11213 H 1028.89 -0.932339 4.75852 0
M  V30 11214 N 1030.24 -1.51135 -0.446768 0
M  V30 11215 C 1031.46 -1.67411 -1.22427 0
M  V30 11216 C 1031.89 -0.367009 -1.84485 0
M  V30 11217 O 1031.24 0.67185 -1.68392 0
M  V30 11218 C 1031.29 -2.78473 -2.29096 0
M  V30 11219 O 1030.4 -2.41419 -3.34351 0
M  V30 11220 H 1029.74 -0.558512 -0.359111 0
M  V30 11221 H 1032.27 -1.97648 -0.5288 0
M  V30 11222 H 1032.28 -3.02277 -2.7403 0
M  V30 11223 H 1030.95 -3.73326 -1.83304 0
M  V30 11224 H 1029.53 -2.28152 -2.9496 0
M  V30 11225 N 1031.71 0.701592 -1.41122 0
M  V30 11226 C 1032.99 1.45569 -1.30648 0
M  V30 11227 C 1033.37 2.10988 0.068744 0
M  V30 11228 O 1032.72 2.01228 1.08257 0
M  V30 11229 C 1032.93 2.48003 -2.45551 0
M  V30 11230 C 1034.28 3.13431 -2.86437 0
M  V30 11231 O 1035.3 2.58327 -2.45247 0
M  V30 11232 O 1034.16 4.13221 -3.57646 0
M  V30 11233 H 1031.25 0.648 -0.513834 0
M  V30 11234 H 1033.8 0.73258 -1.53073 0
M  V30 11235 H 1032.57 1.98276 -3.37346 0
M  V30 11236 H 1032.19 3.27832 -2.24971 0
M  V30 11237 N 1033.19 1.2685 0.935242 0
M  V30 11238 C 1034.6 1.11569 1.49697 0
M  V30 11239 C 1034.95 -0.301952 1.93863 0
M  V30 11240 O 1034.08 -1.19408 1.80473 0
M  V30 11241 C 1034.67 2.01918 2.72056 0
M  V30 11242 C 1033.23 1.90765 3.24477 0
M  V30 11243 C 1032.38 1.94918 1.97237 0
M  V30 11244 H 1035.33 1.39853 0.750116 0
M  V30 11245 H 1035.35 1.57056 3.46574 0
M  V30 11246 H 1034.86 3.05088 2.39881 0
M  V30 11247 H 1032.96 0.905521 3.61429 0
M  V30 11248 H 1033.08 2.76611 3.91182 0
M  V30 11249 H 1031.44 1.39046 2.13397 0
M  V30 11250 H 1032.22 2.99729 1.67385 0
M  V30 11251 N 1034.67 -1.14067 1.0875 0
M  V30 11252 C 1035.92 -1.84819 0.817698 0
M  V30 11253 C 1036.24 -1.83545 -0.658488 0
M  V30 11254 O 1035.51 -1.28633 -1.47751 0
M  V30 11255 H 1034.09 -0.68433 0.299502 0
M  V30 11256 H 1036.75 -1.38208 1.37421 0
M  V30 11257 H 1035.85 -2.89541 1.16501 0
M  V30 11258 N 1036.15 -0.873678 -1.31166 0
M  V30 11259 C 1037.4 -0.482577 -1.95842 0
M  V30 11260 C 1037.71 0.970881 -1.69804 0
M  V30 11261 O 1038.92 1.4683 -2.28371 0
M  V30 11262 C 1037.37 -0.812074 -3.50619 0
M  V30 11263 C 1036.98 -2.28254 -3.85492 0
M  V30 11264 C 1038.72 -0.489624 -4.21667 0
M  V30 11265 C 1036.63 -2.55426 -5.33396 0
M  V30 11266 H 1035.56 -0.176736 -0.732994 0
M  V30 11267 H 1038.21 -1.06709 -1.49283 0
M  V30 11268 H 1036.59 -0.156769 -3.9569 0
M  V30 11269 H 1037.77 -2.98122 -3.51369 0
M  V30 11270 H 1036.08 -2.5714 -3.27518 0
M  V30 11271 H 1038.68 -0.669811 -5.30488 0
M  V30 11272 H 1039.02 0.570204 -4.12376 0
M  V30 11273 H 1039.56 -1.10163 -3.82242 0
M  V30 11274 H 1036.3 -3.60106 -5.47726 0
M  V30 11275 H 1035.82 -1.90156 -5.68859 0
M  V30 11276 H 1037.49 -2.40345 -6.00702 0
M  V30 11277 N 1037.63 1.44308 -0.633487 0
M  V30 11278 C 1038.85 2.06897 -0.144347 0
M  V30 11279 C 1039.28 1.47045 1.173 0
M  V30 11280 O 1038.63 0.572806 1.72013 0
M  V30 11281 C 1038.68 3.60571 -0.0456324 0
M  V30 11282 O 1037.79 4.0015 0.997682 0
M  V30 11283 H 1037.13 0.658427 -0.0858499 0
M  V30 11284 H 1039.66 1.85142 -0.870833 0
M  V30 11285 H 1039.67 4.07745 0.144178 0
M  V30 11286 H 1038.34 4.03515 -1.0074 0
M  V30 11287 H 1036.92 3.64603 0.782252 0
M  V30 11288 N 1039.1 0.374177 1.53094 0
M  V30 11289 C 1040.35 -0.213981 2.00562 0
M  V30 11290 C 1040.67 -1.4916 1.26533 0
M  V30 11291 O 1041.87 -2.15889 1.64634 0
M  V30 11292 C 1040.33 -0.431876 3.57299 0
M  V30 11293 C 1039.94 0.831615 4.40214 0
M  V30 11294 C 1041.68 -0.977222 4.13099 0
M  V30 11295 C 1039.59 0.582831 5.88521 0
M  V30 11296 H 1038.52 -0.0837386 0.749336 0
M  V30 11297 H 1041.17 0.494245 1.76719 0
M  V30 11298 H 1039.55 -1.20158 3.7733 0
M  V30 11299 H 1040.72 1.60477 4.31953 0
M  V30 11300 H 1039.04 1.30081 3.9556 0
M  V30 11301 H 1041.64 -1.17881 5.21544 0
M  V30 11302 H 1041.98 -1.94189 3.68234 0
M  V30 11303 H 1042.51 -0.267473 3.969 0
M  V30 11304 H 1039.25 1.51807 6.37679 0
M  V30 11305 H 1038.77 -0.151666 5.99608 0
M  V30 11306 H 1040.45 0.211604 6.46654 0
M  V30 11307 N 1040.58 -1.57259 0.103575 0
M  V30 11308 C 1041.81 -1.99 -0.566275 0
M  V30 11309 C 1042.23 -0.982909 -1.61197 0
M  V30 11310 O 1041.58 0.026345 -1.82481 0
M  V30 11311 C 1041.63 -3.40778 -1.20635 0
M  V30 11312 O 1041.35 -4.37632 -0.202472 0
M  V30 11313 C 1042.86 -3.97567 -1.961 0
M  V30 11314 H 1040.08 -0.653751 -0.151164 0
M  V30 11315 H 1042.62 -2.03658 0.185365 0
M  V30 11316 H 1040.77 -3.37107 -1.90886 0
M  V30 11317 H 1041.19 -5.2026 -0.665535 0
M  V30 11318 H 1042.66 -4.98897 -2.36233 0
M  V30 11319 H 1043.14 -3.35853 -2.83018 0
M  V30 11320 H 1043.75 -4.04737 -1.30645 0
M  V30 11321 N 1042.06 0.170153 -1.56679 0
M  V30 11322 C 1043.31 0.887906 -1.8233 0
M  V30 11323 C 1043.64 1.81845 -0.681608 0
M  V30 11324 O 1042.91 1.9191 0.316362 0
M  V30 11325 C 1043.2 1.68256 -3.18374 0
M  V30 11326 C 1043.05 0.775059 -4.43072 0
M  V30 11327 C 1044.37 2.65001 -3.51372 0
M  V30 11328 H 1041.49 0.32135 -0.663252 0
M  V30 11329 H 1044.13 0.154065 -1.89374 0
M  V30 11330 H 1042.28 2.30817 -3.12499 0
M  V30 11331 H 1043.95 0.162234 -4.61015 0
M  V30 11332 H 1042.2 0.0831809 -4.3372 0
M  V30 11333 H 1042.87 1.36661 -5.34816 0
M  V30 11334 H 1045.34 2.12566 -3.57708 0
M  V30 11335 H 1044.22 3.17667 -4.47637 0
M  V30 11336 H 1044.48 3.45255 -2.76136 0
M  V30 11337 N 1043.54 1.5137 0.438746 0
M  V30 11338 C 1044.47 1.75528 1.53987 0
M  V30 11339 C 1045.45 0.605067 1.58975 0
M  V30 11340 O 1046.63 0.847634 1.74725 0
M  V30 11341 C 1043.76 1.87904 2.92078 0
M  V30 11342 C 1042.72 3.0333 3.01951 0
M  V30 11343 C 1042.04 3.00888 4.42007 0
M  V30 11344 C 1043.34 4.43319 2.76163 0
M  V30 11345 H 1045.04 2.67728 1.34022 0
M  V30 11346 H 1042.58 1.28831 0.643308 0
M  V30 11347 H 1044.54 2.03388 3.69068 0
M  V30 11348 H 1043.26 0.923514 3.13271 0
M  V30 11349 H 1041.92 2.87549 2.274 0
M  V30 11350 H 1041.57 2.03116 4.60166 0
M  V30 11351 H 1041.27 3.78397 4.49544 0
M  V30 11352 H 1042.79 3.18464 5.20973 0
M  V30 11353 H 1044.21 4.59458 3.42887 0
M  V30 11354 H 1042.6 5.22523 2.9511 0
M  V30 11355 H 1043.67 4.53453 1.71779 0
M  V30 11356 N 1045.02 -0.694098 1.41492 0
M  V30 11357 C 1046.43 -1.27407 1.36471 0
M  V30 11358 C 1046.78 -1.9614 0.0485209 0
M  V30 11359 O 1045.9 -1.98871 -0.853188 0
M  V30 11360 C 1046.5 -2.31698 2.47188 0
M  V30 11361 C 1045.06 -2.85268 2.45559 0
M  V30 11362 C 1044.2 -1.59325 2.2696 0
M  V30 11363 H 1047.16 -0.488756 1.50986 0
M  V30 11364 H 1047.18 -3.1302 2.1633 0
M  V30 11365 H 1046.69 -1.81644 3.42968 0
M  V30 11366 H 1044.79 -3.39494 1.5354 0
M  V30 11367 H 1044.9 -3.35598 3.41922 0
M  V30 11368 H 1043.27 -1.85188 1.74864 0
M  V30 11369 H 1044.05 -1.11265 3.24769 0
M  V30 11370 N 1046.49 -1.27344 -0.928501 0
M  V30 11371 C 1047.44 -1.10001 -2.029 0
M  V30 11372 C 1048.41 -0.00131084 -1.661 0
M  V30 11373 O 1049.6 -0.163485 -1.90098 0
M  V30 11374 C 1046.74 -0.7524 -3.36798 0
M  V30 11375 C 1045.85 -1.92865 -3.86558 0
M  V30 11376 C 1044.98 -1.52299 -5.08899 0
M  V30 11377 C 1044.02 -2.66677 -5.50953 0
M  V30 11378 N 1043.16 -2.26706 -6.64491 0
M  V30 11379 H 1048 -2.0417 -2.17068 0
M  V30 11380 H 1045.54 -1.01637 -1.0634 0
M  V30 11381 H 1047.5 -0.531687 -4.13798 0
M  V30 11382 H 1046.13 0.15234 -3.2244 0
M  V30 11383 H 1045.18 -2.26192 -3.05845 0
M  V30 11384 H 1046.49 -2.78668 -4.13698 0
M  V30 11385 H 1045.64 -1.26348 -5.93398 0
M  V30 11386 H 1044.38 -0.636042 -4.83535 0
M  V30 11387 H 1043.39 -2.93344 -4.65004 0
M  V30 11388 H 1044.61 -3.55992 -5.78313 0
M  V30 11389 H 1042.56 -1.40462 -6.40786 0
M  V30 11390 H 1042.48 -3.06049 -6.91281 0
M  V30 11391 H 1043.74 -2.04 -7.52333 0
M  V30 11392 N 1047.97 1.13488 -1.09353 0
M  V30 11393 C 1049.25 1.80998 -0.741559 0
M  V30 11394 C 1049.63 1.96418 0.773505 0
M  V30 11395 O 1048.98 1.53168 1.69563 0
M  V30 11396 C 1049.19 3.16078 -1.47972 0
M  V30 11397 C 1050.54 3.91438 -1.64504 0
M  V30 11398 O 1051.56 3.25699 -1.44218 0
M  V30 11399 O 1050.42 5.0935 -1.98054 0
M  V30 11400 H 1047.51 0.782953 -0.266297 0
M  V30 11401 H 1050.06 1.20422 -1.19569 0
M  V30 11402 H 1048.83 3.00076 -2.51137 0
M  V30 11403 H 1048.45 3.84354 -1.01772 0
M  V30 11404 N 1049.45 0.880621 1.30701 0
M  V30 11405 C 1050.7 0.492957 1.95583 0
M  V30 11406 C 1051.01 -0.961863 1.70316 0
M  V30 11407 O 1052.22 -1.45617 2.29146 0
M  V30 11408 C 1050.68 0.830656 3.50183 0
M  V30 11409 C 1050.28 2.30295 3.84276 0
M  V30 11410 C 1052.03 0.511979 4.21401 0
M  V30 11411 C 1049.93 2.58251 5.32034 0
M  V30 11412 H 1048.86 0.18062 0.732047 0
M  V30 11413 H 1051.52 1.075 1.48715 0
M  V30 11414 H 1049.9 0.177752 3.95601 0
M  V30 11415 H 1051.07 2.99981 3.49783 0
M  V30 11416 H 1049.39 2.58873 3.2615 0
M  V30 11417 H 1051.98 0.697935 5.30125 0
M  V30 11418 H 1052.33 -0.548327 4.12673 0
M  V30 11419 H 1052.86 1.12189 3.81652 0
M  V30 11420 H 1049.6 3.63005 5.45809 0
M  V30 11421 H 1049.12 1.9317 5.67843 0
M  V30 11422 H 1050.8 2.43527 5.99419 0
M  V30 11423 N 1050.93 -1.4397 0.641131 0
M  V30 11424 C 1051.86 -2.33458 -0.04446 0
M  V30 11425 C 1052.84 -1.48781 -0.824507 0
M  V30 11426 O 1054.03 -1.77477 -0.788397 0
M  V30 11427 C 1051.16 -3.31989 -1.01984 0
M  V30 11428 C 1050.11 -4.2656 -0.350745 0
M  V30 11429 C 1049.44 -5.15036 -1.43673 0
M  V30 11430 C 1050.74 -5.16897 0.749299 0
M  V30 11431 H 1052.43 -2.91034 0.702832 0
M  V30 11432 H 1049.98 -1.39942 0.339435 0
M  V30 11433 H 1051.93 -3.93483 -1.50828 0
M  V30 11434 H 1050.65 -2.72643 -1.79815 0
M  V30 11435 H 1049.31 -3.66413 0.117139 0
M  V30 11436 H 1048.96 -4.52037 -2.20617 0
M  V30 11437 H 1048.66 -5.79125 -0.994358 0
M  V30 11438 H 1050.18 -5.79403 -1.92678 0
M  V30 11439 H 1051.6 -5.7227 0.343534 0
M  V30 11440 H 1049.99 -5.89643 1.11541 0
M  V30 11441 H 1051.06 -4.5731 1.61232 0
M  V30 11442 N 1052.41 -0.382291 -1.52893 0
M  V30 11443 C 1053.34 0.491199 -2.23875 0
M  V30 11444 C 1054.35 1.03249 -1.25871 0
M  V30 11445 O 1055.54 0.936016 -1.5199 0
M  V30 11446 C 1052.64 1.6927 -2.936 0
M  V30 11447 C 1051.81 1.28 -4.18252 0
M  V30 11448 C 1050.87 2.34541 -4.71038 0
M  V30 11449 O 1049.9 1.96239 -5.34302 0
M  V30 11450 N 1051.1 3.6636 -4.50289 0
M  V30 11451 H 1053.87 -0.116897 -2.99472 0
M  V30 11452 H 1051.43 -0.208296 -1.60554 0
M  V30 11453 H 1053.42 2.40054 -3.25816 0
M  V30 11454 H 1051.99 2.20729 -2.21354 0
M  V30 11455 H 1051.21 0.40133 -3.92152 0
M  V30 11456 H 1052.5 0.98082 -4.99257 0
M  V30 11457 H 1051.9 4.00245 -3.99775 0
M  V30 11458 H 1050.45 4.332 -4.87013 0
M  V30 11459 N 1053.89 1.57202 -0.111913 0
M  V30 11460 C 1054.8 2.18475 0.854753 0
M  V30 11461 C 1055.81 1.15888 1.29792 0
M  V30 11462 O 1056.99 1.48329 1.36237 0
M  V30 11463 C 1054.05 2.76645 2.0897 0
M  V30 11464 C 1053.11 3.94244 1.69913 0
M  V30 11465 C 1052.35 4.49631 2.8752 0
M  V30 11466 O 1052.57 4.03926 4.02741 0
M  V30 11467 O 1051.5 5.40417 2.65015 0
M  V30 11468 H 1055.33 3.01519 0.363352 0
M  V30 11469 H 1052.91 1.4897 0.113329 0
M  V30 11470 H 1054.8 3.13755 2.81311 0
M  V30 11471 H 1053.47 1.96637 2.5713 0
M  V30 11472 H 1052.38 3.61915 0.947013 0
M  V30 11473 H 1053.71 4.75666 1.26501 0
M  V30 11474 N 1055.36 -0.161842 1.56767 0
M  V30 11475 C 1056.78 -0.51396 1.51098 0
M  V30 11476 C 1056.98 -1.84158 0.817815 0
M  V30 11477 O 1056.04 -2.49592 0.382133 0
M  V30 11478 C 1057.35 -0.537966 2.95849 0
M  V30 11479 C 1058.9 -0.624512 3.06706 0
M  V30 11480 C 1059.37 -0.679322 4.52934 0
M  V30 11481 N 1060.86 -0.741953 4.57219 0
M  V30 11482 C 1061.6 -0.805096 5.6772 0
M  V30 11483 N 1061.09 -0.828492 6.87828 0
M  V30 11484 N 1062.89 -0.844843 5.55715 0
M  V30 11485 H 1055.04 0.708581 2.00232 0
M  V30 11486 H 1057.3 0.25663 0.912603 0
M  V30 11487 H 1057.01 0.369052 3.49758 0
M  V30 11488 H 1056.88 -1.38113 3.51005 0
M  V30 11489 H 1059.27 -1.52195 2.52825 0
M  V30 11490 H 1059.35 0.245515 2.54619 0
M  V30 11491 H 1058.99 0.213901 5.07449 0
M  V30 11492 H 1058.92 -1.56563 5.02788 0
M  V30 11493 H 1061.41 -0.731772 3.70747 0
M  V30 11494 H 1061.73 -0.878109 7.67795 0
M  V30 11495 H 1060.07 -0.796612 6.9042 0
M  V30 11496 H 1063.26 -0.823632 4.60797 0
M  V30 11497 H 1063.44 -0.890588 6.41851 0
M  V30 11498 N 1056.84 -1.516 -0.430713 0
M  V30 11499 C 1058.09 -1.63829 -1.17657 0
M  V30 11500 C 1058.4 -0.363605 -1.92191 0
M  V30 11501 O 1059.61 -0.365358 -2.6903 0
M  V30 11502 C 1058.07 -2.89357 -2.14011 0
M  V30 11503 C 1057.67 -4.23854 -1.45094 0
M  V30 11504 C 1059.42 -3.10944 -2.88988 0
M  V30 11505 C 1057.32 -5.40526 -2.3997 0
M  V30 11506 H 1056.25 -0.610221 -0.442884 0
M  V30 11507 H 1058.91 -1.78073 -0.442984 0
M  V30 11508 H 1057.29 -2.68762 -2.90832 0
M  V30 11509 H 1058.46 -4.54854 -0.737853 0
M  V30 11510 H 1056.78 -4.08197 -0.822429 0
M  V30 11511 H 1059.37 -3.95286 -3.60074 0
M  V30 11512 H 1059.72 -2.24291 -3.50712 0
M  V30 11513 H 1060.25 -3.3191 -2.19272 0
M  V30 11514 H 1056.99 -6.29459 -1.82925 0
M  V30 11515 H 1056.51 -5.13893 -3.09313 0
M  V30 11516 H 1058.19 -5.72741 -3.00959 0
M  V30 11517 N 1058.32 0.686584 -1.41858 0
M  V30 11518 C 1059.73 1.26682 -1.37145 0
M  V30 11519 C 1060.08 1.96112 -0.058922 0
M  V30 11520 O 1059.21 1.99321 0.842629 0
M  V30 11521 C 1059.8 2.30383 -2.48413 0
M  V30 11522 C 1058.36 2.83961 -2.47069 0
M  V30 11523 C 1057.51 1.58119 -2.27802 0
M  V30 11524 H 1060.46 0.480742 -1.51243 0
M  V30 11525 H 1060.48 3.11868 -2.17987 0
M  V30 11526 H 1059.99 1.79822 -3.43927 0
M  V30 11527 H 1058.09 3.38675 -1.55338 0
M  V30 11528 H 1058.21 3.3378 -3.43697 0
M  V30 11529 H 1056.57 1.84258 -1.75844 0
M  V30 11530 H 1057.35 1.09541 -3.25355 0
M  V30 11531 N 1059.8 1.27835 0.921735 0
M  V30 11532 C 1061.04 1.15702 1.67286 0
M  V30 11533 C 1061.4 -0.293049 1.90155 0
M  V30 11534 O 1060.69 -1.21058 1.48511 0
M  V30 11535 C 1060.89 1.88054 3.03925 0
M  V30 11536 C 1060.71 3.39947 2.94391 0
M  V30 11537 C 1059.48 4.09275 2.96347 0
M  V30 11538 C 1061.68 4.35824 2.7306 0
M  V30 11539 N 1059.66 5.47694 2.77317 0
M  V30 11540 C 1061.04 5.61551 2.62794 0
M  V30 11541 C 1063.09 4.25844 2.57994 0
M  V30 11542 C 1061.79 6.78434 2.38998 0
M  V30 11543 C 1063.82 5.42455 2.35577 0
M  V30 11544 C 1063.18 6.67141 2.26058 0
M  V30 11545 H 1059.28 0.478278 0.618687 0
M  V30 11546 H 1061.86 1.61382 1.08922 0
M  V30 11547 H 1060.04 1.4482 3.60391 0
M  V30 11548 H 1061.77 1.68374 3.68011 0
M  V30 11549 H 1058.52 3.6079 3.06802 0
M  V30 11550 H 1058.95 6.2043 2.70916 0
M  V30 11551 H 1063.59 3.30161 2.64109 0
M  V30 11552 H 1061.31 7.74194 2.31623 0
M  V30 11553 H 1064.89 5.36617 2.24796 0
M  V30 11554 H 1063.77 7.55851 2.08947 0
M  V30 11555 N 1061.28 -1.12907 1.09954 0
M  V30 11556 C 1062.52 -1.84579 0.840155 0
M  V30 11557 C 1062.85 -1.83605 -0.632692 0
M  V30 11558 O 1062.13 -1.27803 -1.46617 0
M  V30 11559 C 1062.41 -3.32489 1.38286 0
M  V30 11560 C 1062.27 -3.41946 2.92221 0
M  V30 11561 C 1063.58 -4.28091 1.0211 0
M  V30 11562 H 1060.7 -0.670169 0.306663 0
M  V30 11563 H 1063.35 -1.3249 1.36185 0
M  V30 11564 H 1061.5 -3.76978 0.939123 0
M  V30 11565 H 1063.17 -3.06128 3.45085 0
M  V30 11566 H 1061.41 -2.8265 3.29077 0
M  V30 11567 H 1062.08 -4.45983 3.25274 0
M  V30 11568 H 1064.56 -3.91701 1.4039 0
M  V30 11569 H 1063.43 -5.30005 1.42781 0
M  V30 11570 H 1063.69 -4.42044 -0.0700753 0
M  V30 11571 N 1062.75 -0.88754 -1.30232 0
M  V30 11572 C 1064.16 -0.55745 -1.78184 0
M  V30 11573 C 1064.52 0.926474 -1.72948 0
M  V30 11574 O 1063.64 1.72403 -1.3079 0
M  V30 11575 C 1064.24 -1.00512 -3.23547 0
M  V30 11576 C 1062.79 -0.726402 -3.69324 0
M  V30 11577 C 1061.94 -1.18666 -2.50627 0
M  V30 11578 H 1064.89 -1.07151 -1.17066 0
M  V30 11579 H 1064.91 -0.335185 -3.79021 0
M  V30 11580 H 1064.43 -2.08517 -3.27326 0
M  V30 11581 H 1062.53 0.341548 -3.71031 0
M  V30 11582 H 1062.64 -1.31575 -4.60679 0
M  V30 11583 H 1061 -0.605936 -2.47387 0
M  V30 11584 H 1061.79 -2.2745 -2.57141 0
M  V30 11585 N 1064.23 1.43628 -0.648757 0
M  V30 11586 C 1065.64 1.85142 -0.24066 0
M  V30 11587 C 1065.99 1.54304 1.21181 0
M  V30 11588 O 1065.12 0.989792 1.92437 0
M  V30 11589 C 1065.71 3.3606 -0.429999 0
M  V30 11590 C 1064.27 3.76323 -0.0762588 0
M  V30 11591 C 1063.42 2.67382 -0.734999 0
M  V30 11592 H 1066.37 1.33844 -0.852734 0
M  V30 11593 H 1066.39 3.79102 0.325836 0
M  V30 11594 H 1065.9 3.58474 -1.48721 0
M  V30 11595 H 1064.01 3.59521 0.978529 0
M  V30 11596 H 1064.12 4.76498 -0.498612 0
M  V30 11597 H 1062.48 2.54141 -0.168644 0
M  V30 11598 H 1063.27 2.92625 -1.79515 0
M  V30 11599 N 1065.71 0.390394 1.52688 0
M  V30 11600 C 1066.62 -0.451543 2.30213 0
M  V30 11601 C 1067.64 -1.07051 1.37172 0
M  V30 11602 O 1068.81 -1.07609 1.70242 0
M  V30 11603 C 1065.88 -1.56299 3.0947 0
M  V30 11604 C 1064.94 -0.969017 4.18221 0
M  V30 11605 C 1064.17 -2.0275 4.93688 0
M  V30 11606 O 1064.39 -3.24273 4.69258 0
M  V30 11607 O 1063.33 -1.64418 5.79008 0
M  V30 11608 H 1067.15 0.180042 3.03166 0
M  V30 11609 H 1064.74 0.154082 1.48603 0
M  V30 11610 H 1066.62 -2.20864 3.58883 0
M  V30 11611 H 1065.3 -2.17952 2.3933 0
M  V30 11612 H 1064.2 -0.286587 3.73001 0
M  V30 11613 H 1065.54 -0.396687 4.90599 0
M  V30 11614 N 1067.19 -1.57141 0.120249 0
M  V30 11615 C 1068.43 -1.97124 -0.540521 0
M  V30 11616 C 1068.79 -1.0022 -1.63768 0
M  V30 11617 O 1069.99 -1.29146 -2.35743 0
M  V30 11618 C 1068.26 -3.41371 -1.05833 0
M  V30 11619 S 1069.82 -4.03367 -1.72745 0
M  V30 11620 H 1066.64 -0.688962 -0.175646 0
M  V30 11621 H 1069.24 -1.94416 0.205625 0
M  V30 11622 H 1067.95 -4.09646 -0.248656 0
M  V30 11623 H 1067.48 -3.47732 -1.83972 0
M  V30 11624 H 1069.49 -3.94227 -3.0133 0
M  V30 11625 N 1068.67 0.153526 -1.5685 0
M  V30 11626 C 1069.92 0.865628 -1.82181 0
M  V30 11627 C 1070.23 1.82629 -0.700434 0
M  V30 11628 O 1071.43 2.58206 -0.839155 0
M  V30 11629 C 1069.89 1.58993 -3.22877 0
M  V30 11630 C 1069.5 0.672006 -4.42931 0
M  V30 11631 C 1071.24 2.2892 -3.57486 0
M  V30 11632 C 1069.15 1.39755 -5.7465 0
M  V30 11633 H 1068.08 0.326993 -0.679406 0
M  V30 11634 H 1070.73 0.118403 -1.83118 0
M  V30 11635 H 1069.11 2.38255 -3.16308 0
M  V30 11636 H 1070.29 -0.0849226 -4.60722 0
M  V30 11637 H 1068.6 0.0814825 -4.1632 0
M  V30 11638 H 1071.2 2.8383 -4.5315 0
M  V30 11639 H 1071.54 3.05105 -2.83226 0
M  V30 11640 H 1072.07 1.56583 -3.65686 0
M  V30 11641 H 1068.81 0.677686 -6.51987 0
M  V30 11642 H 1068.33 2.12736 -5.60806 0
M  V30 11643 H 1070.01 1.94024 -6.17223 0
M  V30 11644 N 1070.14 1.51827 0.422667 0
M  V30 11645 C 1071.05 1.77066 1.53899 0
M  V30 11646 C 1072.07 0.655541 1.61179 0
M  V30 11647 O 1073.25 0.939448 1.78147 0
M  V30 11648 C 1070.31 1.90372 2.89758 0
M  V30 11649 C 1069.37 3.14256 2.92475 0
M  V30 11650 C 1068.61 3.26918 4.21853 0
M  V30 11651 O 1068.83 2.45164 5.15025 0
M  V30 11652 O 1067.76 4.19989 4.31153 0
M  V30 11653 H 1071.59 2.71791 1.35511 0
M  V30 11654 H 1069.17 1.36506 0.607165 0
M  V30 11655 H 1071.06 2.01024 3.70361 0
M  V30 11656 H 1069.73 0.988347 3.08242 0
M  V30 11657 H 1068.64 3.09072 2.10773 0
M  V30 11658 H 1069.97 4.0553 2.78937 0
M  V30 11659 N 1071.62 -0.679052 1.4222 0
M  V30 11660 C 1072.57 -1.81398 1.45594 0
M  V30 11661 C 1073.56 -1.66112 0.332127 0
M  V30 11662 O 1074.77 -1.72772 0.504942 0
M  V30 11663 H 1071.15 -0.598045 0.455902 0
M  V30 11664 H 1073.12 -1.7567 2.41211 0
M  V30 11665 C 1071.87 -3.19525 1.37109 0
M  V30 11666 H 1071.19 -3.31912 2.22878 0
M  V30 11667 H 1072.63 -3.98967 1.43531 0
M  V30 11668 C 1071.09 -3.36792 0.0853593 0
M  V30 11669 O 1071.62 -3.92309 -0.863532 0
M  V30 11670 N 1069.82 -2.906 0.00389229 0
M  V30 11671 H 1069.37 -2.45607 0.776846 0
M  V30 11672 H 1069.33 -3.0253 -0.855742 0
M  V30 11673 N 1073.1 -1.28322 -0.914942 0
M  V30 11674 C 1074.51 -1.13937 -1.47903 0
M  V30 11675 C 1074.86 0.271072 -1.94318 0
M  V30 11676 O 1073.99 1.16522 -1.8235 0
M  V30 11677 C 1074.58 -2.06221 -2.68809 0
M  V30 11678 C 1073.14 -1.95903 -3.21402 0
M  V30 11679 C 1072.29 -1.98031 -1.94111 0
M  V30 11680 H 1075.24 -1.41029 -0.727772 0
M  V30 11681 H 1075.26 -1.6255 -3.44031 0
M  V30 11682 H 1074.77 -3.08866 -2.34997 0
M  V30 11683 H 1072.87 -0.962907 -3.59943 0
M  V30 11684 H 1072.99 -2.82799 -3.86732 0
M  V30 11685 H 1071.35 -1.42423 -2.11158 0
M  V30 11686 H 1072.13 -3.02354 -1.62595 0
M  V30 11687 N 1074.58 1.12322 -1.10551 0
M  V30 11688 C 1075.53 2.18087 -0.755424 0
M  V30 11689 C 1076.5 1.6391 0.268805 0
M  V30 11690 O 1077.68 1.90227 0.147813 0
M  V30 11691 C 1074.82 3.4455 -0.194713 0
M  V30 11692 C 1073.93 4.12775 -1.27439 0
M  V30 11693 C 1073.07 5.26891 -0.675194 0
M  V30 11694 C 1072.11 5.86985 -1.73536 0
M  V30 11695 N 1071.24 6.92512 -1.15635 0
M  V30 11696 H 1076.08 2.47379 -1.66155 0
M  V30 11697 H 1073.62 1.21452 -0.829924 0
M  V30 11698 H 1075.58 4.16936 0.148275 0
M  V30 11699 H 1074.21 3.15671 0.674638 0
M  V30 11700 H 1073.26 3.38556 -1.73448 0
M  V30 11701 H 1074.57 4.53506 -2.07687 0
M  V30 11702 H 1073.73 6.06046 -0.281723 0
M  V30 11703 H 1072.47 4.87442 0.158708 0
M  V30 11704 H 1071.47 5.06517 -2.13825 0
M  V30 11705 H 1072.7 6.28505 -2.57213 0
M  V30 11706 H 1070.64 6.55098 -0.343928 0
M  V30 11707 H 1070.56 7.31848 -1.89565 0
M  V30 11708 H 1071.83 7.75492 -0.789463 0
M  V30 11709 N 1076.06 0.894434 1.2976 0
M  V30 11710 C 1077 0.357958 2.29829 0
M  V30 11711 C 1078 -0.540093 1.6056 0
M  V30 11712 O 1079.2 -0.423478 1.74948 0
M  V30 11713 H 1075.58 0.0971183 0.745702 0
M  V30 11714 H 1077.55 1.21542 2.72526 0
M  V30 11715 C 1076.3 -0.404126 3.45343 0
M  V30 11716 H 1075.62 0.277671 3.98835 0
M  V30 11717 H 1077.06 -0.744446 4.17413 0
M  V30 11718 C 1075.52 -1.6048 2.96222 0
M  V30 11719 O 1076.05 -2.70414 2.97051 0
M  V30 11720 N 1074.26 -1.44517 2.52117 0
M  V30 11721 H 1073.8 -0.55082 2.51642 0
M  V30 11722 H 1073.76 -2.24987 2.1961 0
M  V30 11723 N 1077.53 -1.43282 0.656365 0
M  V30 11724 C 1078.46 -2.33492 -0.0196962 0
M  V30 11725 C 1079.45 -1.49647 -0.80868 0
M  V30 11726 O 1080.63 -1.78303 -0.769529 0
M  V30 11727 C 1077.76 -3.33052 -0.984574 0
M  V30 11728 C 1076.71 -4.26908 -0.305483 0
M  V30 11729 C 1076.04 -5.16531 -1.38202 0
M  V30 11730 C 1077.34 -5.16073 0.804081 0
M  V30 11731 H 1079.03 -2.90272 0.733661 0
M  V30 11732 H 1076.58 -1.39574 0.354259 0
M  V30 11733 H 1078.53 -3.9506 -1.46647 0
M  V30 11734 H 1077.26 -2.74535 -1.76913 0
M  V30 11735 H 1075.92 -3.66268 0.155995 0
M  V30 11736 H 1075.56 -4.54351 -2.1581 0
M  V30 11737 H 1075.26 -5.80148 -0.932878 0
M  V30 11738 H 1076.79 -5.81414 -1.86522 0
M  V30 11739 H 1078.2 -5.71873 0.404212 0
M  V30 11740 H 1076.6 -5.88427 1.17789 0
M  V30 11741 H 1077.67 -4.55574 1.66073 0
M  V30 11742 N 1079.01 -0.398486 -1.52479 0
M  V30 11743 C 1079.96 0.447001 -2.28264 0
M  V30 11744 C 1080.96 1.05511 -1.32529 0
M  V30 11745 O 1082.16 0.994528 -1.5003 0
M  V30 11746 H 1078.54 0.162919 -0.73414 0
M  V30 11747 H 1080.51 -0.213534 -2.97635 0
M  V30 11748 C 1079.26 1.55724 -3.10879 0
M  V30 11749 H 1078.58 1.09864 -3.84409 0
M  V30 11750 H 1080.02 2.12286 -3.67029 0
M  V30 11751 C 1078.48 2.51853 -2.23768 0
M  V30 11752 O 1079.01 3.55483 -1.87069 0
M  V30 11753 N 1077.21 2.2181 -1.87746 0
M  V30 11754 H 1076.76 1.3757 -2.17789 0
M  V30 11755 H 1076.72 2.86376 -1.29753 0
M  V30 11756 N 1080.49 1.57075 -0.12858 0
M  V30 11757 C 1081.42 2.18833 0.814519 0
M  V30 11758 C 1082.4 1.13114 1.2704 0
M  V30 11759 O 1083.59 1.41387 1.33129 0
M  V30 11760 C 1080.72 2.79535 2.06101 0
M  V30 11761 C 1079.67 3.9092 1.74257 0
M  V30 11762 C 1079 4.38473 3.06015 0
M  V30 11763 C 1080.3 5.1257 1.00345 0
M  V30 11764 H 1081.99 2.97895 0.299862 0
M  V30 11765 H 1079.54 1.4329 0.14279 0
M  V30 11766 H 1081.49 3.21401 2.72543 0
M  V30 11767 H 1080.21 1.97777 2.59907 0
M  V30 11768 H 1078.87 3.49645 1.102 0
M  V30 11769 H 1078.52 3.53561 3.57776 0
M  V30 11770 H 1078.22 5.13591 2.85479 0
M  V30 11771 H 1079.75 4.82997 3.7356 0
M  V30 11772 H 1081.16 5.51395 1.56959 0
M  V30 11773 H 1079.56 5.93333 0.898693 0
M  V30 11774 H 1080.63 4.84899 -0.0081335 0
M  V30 11775 N 1081.97 -0.145205 1.5693 0
M  V30 11776 C 1082.93 -1.16316 1.97492 0
M  V30 11777 C 1083.93 -1.35764 0.861668 0
M  V30 11778 O 1085.12 -1.32726 1.12825 0
M  V30 11779 C 1082.25 -2.52311 2.29242 0
M  V30 11780 H 1083.45 -0.815138 2.8861 0
M  V30 11781 H 1081 -0.38861 1.51392 0
M  V30 11782 H 1081.74 -2.92081 1.40922 0
M  V30 11783 H 1081.52 -2.39555 3.10412 0
M  V30 11784 H 1083.01 -3.25624 2.61456 0
M  V30 11785 N 1083.45 -1.52049 -0.414609 0
M  V30 11786 C 1084.68 -1.69679 -1.18392 0
M  V30 11787 C 1085.09 -0.403881 -1.84429 0
M  V30 11788 O 1084.45 0.619636 -1.71659 0
M  V30 11789 C 1084.5 -2.82855 -2.25112 0
M  V30 11790 O 1084.22 -4.07138 -1.61772 0
M  V30 11791 C 1085.72 -3.11948 -3.14965 0
M  V30 11792 H 1082.94 -0.56879 -0.355977 0
M  V30 11793 H 1085.48 -1.9858 -0.488505 0
M  V30 11794 H 1083.64 -2.56488 -2.90332 0
M  V30 11795 H 1084.05 -4.70163 -2.32479 0
M  V30 11796 H 1085.53 -3.94665 -3.85932 0
M  V30 11797 H 1086 -2.25276 -3.77024 0
M  V30 11798 H 1086.61 -3.40059 -2.55421 0
M  V30 11799 N 1084.93 0.6715 -1.42579 0
M  V30 11800 C 1086.2 1.42766 -1.33706 0
M  V30 11801 C 1086.58 2.11086 0.0239748 0
M  V30 11802 O 1085.93 2.03479 1.03964 0
M  V30 11803 C 1086.14 2.42739 -2.50756 0
M  V30 11804 C 1087.49 3.07284 -2.93021 0
M  V30 11805 O 1088.51 2.53066 -2.50671 0
M  V30 11806 O 1087.37 4.05541 -3.66331 0
M  V30 11807 H 1084.47 0.636955 -0.527463 0
M  V30 11808 H 1087.01 0.699946 -1.54593 0
M  V30 11809 H 1085.78 1.91076 -3.41476 0
M  V30 11810 H 1085.41 3.22986 -2.31874 0
M  V30 11811 N 1086.4 1.28806 0.908124 0
M  V30 11812 C 1087.35 1.13215 2.01125 0
M  V30 11813 C 1088.32 0.0277357 1.66077 0
M  V30 11814 O 1089.51 0.193707 1.89814 0
M  V30 11815 C 1086.65 0.805887 3.35558 0
M  V30 11816 C 1085.76 1.9899 3.83441 0
M  V30 11817 C 1084.89 1.60376 5.06412 0
M  V30 11818 C 1083.93 2.75409 5.46641 0
M  V30 11819 N 1083.07 2.37249 6.60801 0
M  V30 11820 H 1087.91 2.07598 2.13792 0
M  V30 11821 H 1085.45 1.03316 1.0471 0
M  V30 11822 H 1087.4 0.597451 4.129 0
M  V30 11823 H 1086.03 -0.101023 3.22642 0
M  V30 11824 H 1085.09 2.31029 3.02208 0
M  V30 11825 H 1086.4 2.85214 4.09212 0
M  V30 11826 H 1085.55 1.35772 5.91313 0
M  V30 11827 H 1084.29 0.712888 4.82462 0
M  V30 11828 H 1083.3 3.00705 4.60279 0
M  V30 11829 H 1084.52 3.65148 5.72577 0
M  V30 11830 H 1082.47 1.50638 6.3847 0
M  V30 11831 H 1082.38 3.17008 6.86325 0
M  V30 11832 H 1083.65 2.15943 7.48992 0
M  V30 11833 N 1087.88 -1.11734 1.11145 0
M  V30 11834 C 1089.13 -1.83874 0.86959 0
M  V30 11835 C 1089.48 -1.82859 -0.598363 0
M  V30 11836 O 1088.78 -1.26849 -1.43596 0
M  V30 11837 C 1088.97 -3.3046 1.36129 0
M  V30 11838 C 1088.8 -3.45752 2.87551 0
M  V30 11839 C 1087.57 -3.58956 3.55638 0
M  V30 11840 C 1089.77 -3.40296 3.85621 0
M  V30 11841 N 1087.75 -3.62688 4.95309 0
M  V30 11842 C 1089.12 -3.50611 5.11343 0
M  V30 11843 C 1091.17 -3.23808 3.78223 0
M  V30 11844 C 1089.88 -3.46138 6.3054 0
M  V30 11845 C 1091.9 -3.20651 4.96927 0
M  V30 11846 C 1091.27 -3.31534 6.21502 0
M  V30 11847 H 1087.36 -0.688226 0.371306 0
M  V30 11848 H 1089.95 -1.33715 1.41522 0
M  V30 11849 H 1088.12 -3.79144 0.842885 0
M  V30 11850 H 1089.85 -3.90493 1.0629 0
M  V30 11851 H 1086.61 -3.61387 3.06098 0
M  V30 11852 H 1087.03 -3.68199 5.68118 0
M  V30 11853 H 1091.67 -3.14282 2.8282 0
M  V30 11854 H 1089.39 -3.54433 7.26225 0
M  V30 11855 H 1092.98 -3.09064 4.9292 0
M  V30 11856 H 1091.86 -3.29076 7.11814 0
M  V30 11857 N 1089.36 -0.901303 -1.29284 0
M  V30 11858 C 1090.58 -0.542823 -2.0017 0
M  V30 11859 C 1091.01 0.865583 -1.67001 0
M  V30 11860 O 1090.37 1.5764 -0.895502 0
M  V30 11861 C 1090.42 -0.743987 -3.52842 0
M  V30 11862 O 1089.52 0.202771 -4.11901 0
M  V30 11863 H 1088.86 -0.211903 -0.62928 0
M  V30 11864 H 1091.39 -1.21333 -1.64741 0
M  V30 11865 H 1091.4 -0.64926 -4.02801 0
M  V30 11866 H 1090.08 -1.77077 -3.7632 0
M  V30 11867 H 1088.65 0.0603637 -3.72851 0
M  V30 11868 N 1090.84 1.42931 -0.663954 0
M  V30 11869 C 1092.08 2.01683 -0.181738 0
M  V30 11870 C 1092.41 1.52437 1.20802 0
M  V30 11871 O 1091.67 0.71254 1.82267 0
M  V30 11872 C 1091.97 3.57072 -0.153163 0
M  V30 11873 C 1091.63 4.25706 -1.48612 0
M  V30 11874 C 1090.29 4.4417 -1.85111 0
M  V30 11875 C 1092.65 4.6448 -2.36448 0
M  V30 11876 C 1089.97 4.98677 -3.09092 0
M  V30 11877 C 1092.33 5.20362 -3.5973 0
M  V30 11878 C 1090.99 5.37041 -3.96412 0
M  V30 11879 H 1090.26 0.73801 -0.0665026 0
M  V30 11880 H 1092.91 1.71264 -0.856791 0
M  V30 11881 H 1091.21 3.87095 0.605372 0
M  V30 11882 H 1092.91 4.00299 0.236981 0
M  V30 11883 H 1089.5 4.11686 -1.19215 0
M  V30 11884 H 1093.68 4.49898 -2.09537 0
M  V30 11885 H 1088.94 5.09776 -3.37547 0
M  V30 11886 H 1093.11 5.49352 -4.28001 0
M  V30 11887 H 1090.74 5.79042 -4.92559 0
M  V30 11888 N 1092.32 0.406567 1.52266 0
M  V30 11889 C 1093.56 -0.169717 2.01386 0
M  V30 11890 C 1093.88 -1.45864 1.29417 0
M  V30 11891 O 1093.15 -1.9136 0.419327 0
M  V30 11892 H 1091.73 -0.0657075 0.744105 0
M  V30 11893 H 1094.4 0.542221 1.87206 0
M  V30 11894 H 1093.49 -0.367659 3.09927 0
M  V30 11895 N 1093.79 -1.57004 0.136909 0
M  V30 11896 C 1095.02 -2.00156 -0.523936 0
M  V30 11897 C 1095.44 -1.01688 -1.59075 0
M  V30 11898 O 1094.79 -0.0123678 -1.82496 0
M  V30 11899 C 1094.85 -3.4326 -1.13379 0
M  V30 11900 O 1094.57 -4.37963 -0.109598 0
M  V30 11901 C 1096.07 -4.01637 -1.87623 0
M  V30 11902 H 1093.29 -0.65681 -0.137263 0
M  V30 11903 H 1095.83 -2.03219 0.228522 0
M  V30 11904 H 1093.99 -3.4108 -1.83693 0
M  V30 11905 H 1094.4 -5.21555 -0.55503 0
M  V30 11906 H 1095.87 -5.03795 -2.25597 0
M  V30 11907 H 1096.35 -3.41781 -2.75831 0
M  V30 11908 H 1096.96 -4.07417 -1.22031 0
M  V30 11909 N 1095.27 0.136881 -1.57004 0
M  V30 11910 C 1096.5 0.862436 -1.88068 0
M  V30 11911 C 1096.92 1.74274 -0.726227 0
M  V30 11912 O 1096.27 1.79956 0.30366 0
M  V30 11913 C 1096.32 1.71076 -3.18458 0
M  V30 11914 O 1096.04 0.865918 -4.29457 0
M  V30 11915 C 1097.55 2.54302 -3.63105 0
M  V30 11916 H 1094.77 0.248865 -0.623143 0
M  V30 11917 H 1097.31 0.126633 -2.04108 0
M  V30 11918 H 1095.46 2.39951 -3.04142 0
M  V30 11919 H 1095.88 1.4493 -5.04079 0
M  V30 11920 H 1097.35 3.09384 -4.57149 0
M  V30 11921 H 1097.83 3.3082 -2.88886 0
M  V30 11922 H 1098.44 1.907 -3.80149 0
M  V30 11923 N 1096.75 1.52266 0.40654 0
M  V30 11924 C 1097.68 1.78755 1.50229 0
M  V30 11925 C 1098.66 0.638652 1.57655 0
M  V30 11926 O 1099.85 0.884505 1.72888 0
M  V30 11927 C 1096.98 1.94057 2.88026 0
M  V30 11928 C 1095.93 3.09667 2.95449 0
M  V30 11929 C 1095.26 3.10196 4.35526 0
M  V30 11930 C 1096.56 4.49077 2.66697 0
M  V30 11931 H 1098.25 2.70511 1.28313 0
M  V30 11932 H 1095.8 1.30167 0.615836 0
M  V30 11933 H 1097.75 2.11171 3.64671 0
M  V30 11934 H 1096.47 0.989755 3.11242 0
M  V30 11935 H 1095.13 2.92308 2.2125 0
M  V30 11936 H 1094.78 2.12831 4.55754 0
M  V30 11937 H 1094.48 3.87847 4.41416 0
M  V30 11938 H 1096 3.29443 5.14101 0
M  V30 11939 H 1097.42 4.66628 3.33064 0
M  V30 11940 H 1095.82 5.28665 2.8396 0
M  V30 11941 H 1096.89 4.56995 1.62122 0
M  V30 11942 N 1098.23 -0.663929 1.42933 0
M  V30 11943 C 1099.47 -1.42446 1.45192 0
M  V30 11944 C 1099.83 -1.92269 0.0710678 0
M  V30 11945 O 1099.12 -1.68688 -0.908565 0
M  V30 11946 C 1099.32 -2.62976 2.4203 0
M  V30 11947 C 1099.15 -2.24948 3.89395 0
M  V30 11948 C 1097.92 -2.13786 4.57847 0
M  V30 11949 C 1100.11 -1.85907 4.79524 0
M  V30 11950 N 1098.1 -1.68976 5.90187 0
M  V30 11951 C 1099.47 -1.52099 6.01054 0
M  V30 11952 C 1101.52 -1.72995 4.6688 0
M  V30 11953 C 1100.22 -1.06673 7.11346 0
M  V30 11954 C 1102.25 -1.28975 5.77165 0
M  V30 11955 C 1101.61 -0.960968 6.97814 0
M  V30 11956 H 1097.71 -0.517312 0.58644 0
M  V30 11957 H 1100.3 -0.765097 1.79037 0
M  V30 11958 H 1098.47 -3.26586 2.10229 0
M  V30 11959 H 1100.2 -3.29624 2.34798 0
M  V30 11960 H 1096.95 -2.33203 4.12206 0
M  V30 11961 H 1097.38 -1.48964 6.60408 0
M  V30 11962 H 1102.02 -1.97057 3.7407 0
M  V30 11963 H 1099.74 -0.813591 8.03994 0
M  V30 11964 H 1103.32 -1.19489 5.69398 0
M  V30 11965 H 1102.2 -0.625522 7.81701 0
M  V30 11966 N 1099.71 -1.29285 -0.901281 0
M  V30 11967 C 1100.62 -1.16161 -2.03823 0
M  V30 11968 C 1101.63 -0.0852298 -1.73791 0
M  V30 11969 O 1102.81 -0.29699 -1.99198 0
M  V30 11970 C 1099.87 -0.837586 -3.3643 0
M  V30 11971 C 1098.93 -1.99764 -3.7999 0
M  V30 11972 C 1098.17 -1.68898 -5.0627 0
M  V30 11973 O 1098.39 -0.609177 -5.67138 0
M  V30 11974 O 1097.32 -2.53648 -5.45845 0
M  V30 11975 H 1101.15 -2.11635 -2.17817 0
M  V30 11976 H 1098.74 -1.08722 -1.02468 0
M  V30 11977 H 1100.62 -0.671376 -4.16017 0
M  V30 11978 H 1099.29 0.0873811 -3.23582 0
M  V30 11979 H 1098.2 -2.21908 -3.01177 0
M  V30 11980 H 1099.53 -2.90376 -3.9742 0
M  V30 11981 N 1101.18 1.11143 -1.11736 0
M  V30 11982 C 1102.43 1.82311 -0.862875 0
M  V30 11983 C 1102.75 1.85735 0.613326 0
M  V30 11984 O 1103.95 2.53034 0.984168 0
M  V30 11985 C 1102.41 3.27427 -1.49396 0
M  V30 11986 C 1102.02 3.32323 -3.00443 0
M  V30 11987 C 1103.76 4.03474 -1.31944 0
M  V30 11988 C 1101.67 4.71855 -3.56521 0
M  V30 11989 H 1100.6 0.683124 -0.31915 0
M  V30 11990 H 1103.25 1.25045 -1.34298 0
M  V30 11991 H 1101.63 3.84644 -0.941528 0
M  V30 11992 H 1102.8 2.84971 -3.62117 0
M  V30 11993 H 1101.12 2.69758 -3.17206 0
M  V30 11994 H 1103.72 5.06528 -1.71271 0
M  V30 11995 H 1104.06 4.15473 -0.262339 0
M  V30 11996 H 1104.59 3.52652 -1.84069 0
M  V30 11997 H 1101.33 4.65054 -4.61958 0
M  V30 11998 H 1100.85 5.19604 -2.99619 0
M  V30 11999 H 1102.53 5.40816 -3.55144 0
M  V30 12000 N 1102.66 0.908147 1.28804 0
M  V30 12001 C 1103.9 0.545425 1.96989 0
M  V30 12002 C 1104.27 -0.893226 1.69957 0
M  V30 12003 O 1105.47 -1.36324 2.31666 0
M  V30 12004 C 1103.74 0.83953 3.474 0
M  V30 12005 S 1105.3 0.582385 4.34918 0
M  V30 12006 H 1102.12 0.202027 0.681693 0
M  V30 12007 H 1104.72 1.1724 1.56445 0
M  V30 12008 H 1103.42 1.88463 3.64568 0
M  V30 12009 H 1102.95 0.200999 3.92886 0
M  V30 12010 H 1104.97 -0.568807 4.92929 0
M  V30 12011 N 1104.14 -1.42577 0.671525 0
M  V30 12012 C 1105.37 -2.06442 0.199152 0
M  V30 12013 C 1105.79 -1.50104 -1.1336 0
M  V30 12014 O 1105.15 -0.618211 -1.70434 0
M  V30 12015 C 1105.2 -3.60323 0.141215 0
M  V30 12016 O 1104.3 -4.02655 -0.891238 0
M  V30 12017 H 1103.64 -0.655919 0.103277 0
M  V30 12018 H 1106.17 -1.82768 0.919614 0
M  V30 12019 H 1106.18 -4.07984 -0.0360209 0
M  V30 12020 H 1104.86 -4.00702 1.11403 0
M  V30 12021 H 1103.43 -3.66549 -0.685309 0
M  V30 12022 N 1105.62 -0.414636 -1.52048 0
M  V30 12023 C 1106.87 0.159034 -2.01473 0
M  V30 12024 C 1107.19 1.45176 -1.30188 0
M  V30 12025 O 1106.46 1.91134 -0.429469 0
M  V30 12026 H 1105.04 0.0617604 -0.744443 0
M  V30 12027 H 1107.7 -0.552141 -1.86916 0
M  V30 12028 H 1106.8 0.351217 -3.10118 0
M  V30 12029 N 1107.1 1.56929 -0.145233 0
M  V30 12030 C 1108.34 1.95681 0.50532 0
M  V30 12031 C 1108.67 1.03098 1.65516 0
M  V30 12032 O 1107.94 0.0921961 1.95683 0
M  V30 12033 H 1106.52 0.72252 0.189668 0
M  V30 12034 H 1109.18 1.93651 -0.220318 0
M  V30 12035 H 1108.27 2.99359 0.882631 0
M  V30 12036 N 1108.58 -0.128553 1.57075 0
M  V30 12037 C 1109.85 -0.867766 1.75297 0
M  V30 12038 C 1110.23 -1.98508 0.718176 0
M  V30 12039 O 1109.58 -2.2702 -0.259616 0
M  V30 12040 C 1109.79 -1.39326 3.19983 0
M  V30 12041 C 1111.14 -1.84939 3.82208 0
M  V30 12042 O 1112.16 -1.49027 3.23527 0
M  V30 12043 O 1111.02 -2.51227 4.85332 0
M  V30 12044 H 1108.12 -0.411393 0.717415 0
M  V30 12045 H 1110.66 -0.113038 1.69323 0
M  V30 12046 H 1109.43 -0.591172 3.86809 0
M  V30 12047 H 1109.06 -2.21097 3.30457 0
M  V30 12048 N 1110.05 -1.5248 -0.398459 0
M  V30 12049 C 1111 -1.76585 -1.48615 0
M  V30 12050 C 1111.97 -0.608677 -1.54546 0
M  V30 12051 O 1113.16 -0.847383 -1.7095 0
M  V30 12052 C 1110.3 -1.93201 -2.8595 0
M  V30 12053 C 1109.41 -3.20875 -2.89246 0
M  V30 12054 C 1108.54 -3.27862 -4.17947 0
M  V30 12055 C 1107.58 -4.49697 -4.15258 0
M  V30 12056 N 1106.72 -4.54017 -5.35549 0
M  V30 12057 H 1111.56 -2.69412 -1.27362 0
M  V30 12058 H 1109.1 -1.33487 -0.618031 0
M  V30 12059 H 1111.05 -2.00819 -3.65688 0
M  V30 12060 H 1109.68 -1.03743 -3.05675 0
M  V30 12061 H 1108.74 -3.22376 -2.01935 0
M  V30 12062 H 1110.05 -4.1066 -2.83125 0
M  V30 12063 H 1109.2 -3.34611 -5.06083 0
M  V30 12064 H 1107.94 -2.36035 -4.26777 0
M  V30 12065 H 1106.95 -4.43083 -3.25511 0
M  V30 12066 H 1108.17 -5.42831 -4.08059 0
M  V30 12067 H 1106.12 -3.65078 -5.45027 0
M  V30 12068 H 1106.03 -5.37661 -5.31466 0
M  V30 12069 H 1107.3 -4.65009 -6.25609 0
M  V30 12070 N 1111.53 0.65634 -1.43283 0
M  V30 12071 C 1112.94 1.23744 -1.39801 0
M  V30 12072 C 1113.29 1.95942 -0.100507 0
M  V30 12073 O 1112.42 2.01063 0.800161 0
M  V30 12074 C 1113.01 2.25062 -2.53244 0
M  V30 12075 C 1111.57 2.78657 -2.53036 0
M  V30 12076 C 1110.72 1.53251 -2.31105 0
M  V30 12077 H 1113.67 0.448553 -1.52229 0
M  V30 12078 H 1113.69 3.07174 -2.24553 0
M  V30 12079 H 1113.2 1.72487 -3.47664 0
M  V30 12080 H 1111.3 3.35304 -1.62487 0
M  V30 12081 H 1111.42 3.26414 -3.507 0
M  V30 12082 H 1109.78 1.80487 -1.79713 0
M  V30 12083 H 1110.56 1.02615 -3.27605 0
M  V30 12084 N 1113.01 1.29761 0.894412 0
M  V30 12085 C 1113.94 1.17902 2.01547 0
M  V30 12086 C 1114.92 0.0719402 1.69948 0
M  V30 12087 O 1116.11 0.252338 1.92554 0
M  V30 12088 C 1113.24 0.860262 3.36477 0
M  V30 12089 C 1112.19 1.92424 3.82305 0
M  V30 12090 C 1111.52 1.45868 5.14419 0
M  V30 12091 C 1112.82 3.33391 4.02054 0
M  V30 12092 H 1114.51 2.11688 2.11727 0
M  V30 12093 H 1112.06 1.01916 1.01731 0
M  V30 12094 H 1114.01 0.763987 4.14417 0
M  V30 12095 H 1112.73 -0.113289 3.26403 0
M  V30 12096 H 1111.39 2.00999 3.06586 0
M  V30 12097 H 1111.04 0.473654 5.00765 0
M  V30 12098 H 1110.74 2.17028 5.46052 0
M  V30 12099 H 1112.26 1.37601 5.94894 0
M  V30 12100 H 1113.68 3.27628 4.7046 0
M  V30 12101 H 1112.07 4.02555 4.4505 0
M  V30 12102 H 1113.14 3.75978 3.06216 0
M  V30 12103 N 1114.49 -1.10549 1.12324 0
M  V30 12104 C 1115.71 -1.8681 0.900927 0
M  V30 12105 C 1116.14 -1.80049 -0.54443 0
M  V30 12106 O 1115.5 -1.16957 -1.38531 0
M  V30 12107 C 1115.54 -3.33197 1.37883 0
M  V30 12108 O 1114.65 -4.08628 0.556529 0
M  V30 12109 H 1113.99 -0.579709 0.32378 0
M  V30 12110 H 1116.52 -1.39678 1.49503 0
M  V30 12111 H 1116.53 -3.84047 1.37739 0
M  V30 12112 H 1115.2 -3.37435 2.43127 0
M  V30 12113 H 1113.78 -3.67627 0.62486 0
M  V30 12114 N 1115.97 -0.914965 -1.28321 0
M  V30 12115 C 1116.93 -0.409024 -2.25521 0
M  V30 12116 C 1117.93 0.465327 -1.5392 0
M  V30 12117 O 1119.12 0.26821 -1.72123 0
M  V30 12118 C 1116.25 0.413452 -3.38383 0
M  V30 12119 H 1117.44 -1.26767 -2.71791 0
M  V30 12120 H 1115 -0.694477 -1.40024 0
M  V30 12121 H 1115.73 1.29145 -2.97476 0
M  V30 12122 H 1115.52 -0.213268 -3.9152 0
M  V30 12123 H 1117.01 0.758232 -4.10659 0
M  V30 12124 N 1117.44 1.42219 -0.679077 0
M  V30 12125 C 1118.37 2.33493 -0.0174528 0
M  V30 12126 C 1119.35 1.50915 0.78477 0
M  V30 12127 O 1120.54 1.79504 0.741065 0
M  V30 12128 C 1117.67 3.34576 0.931463 0
M  V30 12129 C 1116.62 4.2734 0.237527 0
M  V30 12130 C 1115.95 5.18664 1.29967 0
M  V30 12131 C 1117.25 5.14729 -0.886082 0
M  V30 12132 H 1118.94 2.89068 -0.779748 0
M  V30 12133 H 1116.49 1.38993 -0.376419 0
M  V30 12134 H 1118.44 3.97343 1.40343 0
M  V30 12135 H 1117.17 2.77315 1.72523 0
M  V30 12136 H 1115.83 3.65973 -0.214245 0
M  V30 12137 H 1115.47 4.57727 2.08554 0
M  V30 12138 H 1115.17 5.81558 0.840463 0
M  V30 12139 H 1116.7 5.84308 1.77249 0
M  V30 12140 H 1118.11 5.71158 -0.495141 0
M  V30 12141 H 1116.51 5.86478 -1.27135 0
M  V30 12142 H 1117.58 4.52874 -1.733 0
M  V30 12143 N 1118.92 0.422693 1.51826 0
M  V30 12144 C 1120.2 -0.20786 1.94492 0
M  V30 12145 C 1120.58 -1.61414 1.36047 0
M  V30 12146 O 1119.93 -2.21987 0.541657 0
M  V30 12147 C 1120.14 -0.200457 3.48424 0
M  V30 12148 C 1121.48 -0.413199 4.22585 0
M  V30 12149 O 1122.51 -0.27922 3.55104 0
M  V30 12150 O 1121.37 -0.678469 5.42272 0
M  V30 12151 H 1118.46 -0.137851 0.81543 0
M  V30 12152 H 1121.01 0.479617 1.62781 0
M  V30 12153 H 1119.78 0.783263 3.83381 0
M  V30 12154 H 1119.4 -0.931464 3.86535 0
M  V30 12155 N 1120.4 -1.5685 0.153553 0
M  V30 12156 C 1121.62 -2.01135 -0.505904 0
M  V30 12157 C 1122.05 -1.03301 -1.57196 0
M  V30 12158 O 1121.41 -0.00976022 -1.81297 0
M  V30 12159 C 1121.46 -3.44129 -1.0774 0
M  V30 12160 O 1120.56 -3.49318 -2.19205 0
M  V30 12161 H 1119.9 -0.652496 -0.123062 0
M  V30 12162 H 1122.43 -2.03039 0.252216 0
M  V30 12163 H 1122.44 -3.83066 -1.40444 0
M  V30 12164 H 1121.12 -4.1484 -0.296754 0
M  V30 12165 H 1119.69 -3.22227 -1.8768 0
M  V30 12166 N 1121.88 0.120221 -1.57141 0
M  V30 12167 C 1122.81 1.1732 -1.96898 0
M  V30 12168 C 1123.82 1.37722 -0.868134 0
M  V30 12169 O 1125.01 1.36818 -1.14643 0
M  V30 12170 C 1122.11 2.53343 -2.25102 0
M  V30 12171 C 1121.28 2.53559 -3.56408 0
M  V30 12172 C 1120.34 3.71319 -3.72838 0
M  V30 12173 O 1119.37 3.54961 -4.44962 0
M  V30 12174 N 1120.57 4.89836 -3.11514 0
M  V30 12175 H 1123.34 0.835023 -2.87832 0
M  V30 12176 H 1120.9 0.309508 -1.58914 0
M  V30 12177 H 1122.89 3.30679 -2.3331 0
M  V30 12178 H 1121.46 2.79347 -1.403 0
M  V30 12179 H 1120.68 1.61946 -3.59398 0
M  V30 12180 H 1121.97 2.5076 -4.42716 0
M  V30 12181 H 1121.37 5.0603 -2.52884 0
M  V30 12182 H 1119.92 5.64853 -3.25246 0
M  V30 12183 N 1123.36 1.52689 0.390367 0
M  V30 12184 C 1124.77 1.41909 0.730338 0
M  V30 12185 C 1124.97 0.538427 1.94173 0
M  V30 12186 O 1124.03 0.0113527 2.52497 0
M  V30 12187 C 1125.34 2.84737 0.966714 0
M  V30 12188 C 1126.89 2.94206 1.06827 0
M  V30 12189 C 1127.36 4.38042 1.33728 0
M  V30 12190 N 1128.86 4.4136 1.40553 0
M  V30 12191 C 1129.59 5.49735 1.63031 0
M  V30 12192 N 1129.09 6.68197 1.82988 0
M  V30 12193 N 1130.88 5.37276 1.65199 0
M  V30 12194 H 1123.03 2.08469 -0.406766 0
M  V30 12195 H 1125.29 0.940401 -0.11979 0
M  V30 12196 H 1125 3.51385 0.148725 0
M  V30 12197 H 1124.87 3.26909 1.88176 0
M  V30 12198 H 1127.26 2.27726 1.87683 0
M  V30 12199 H 1127.34 2.55463 0.131168 0
M  V30 12200 H 1126.99 5.05087 0.533832 0
M  V30 12201 H 1126.92 4.74336 2.28721 0
M  V30 12202 H 1129.41 3.55976 1.26844 0
M  V30 12203 H 1129.72 7.46567 1.99643 0
M  V30 12204 H 1128.06 6.71228 1.80215 0
M  V30 12205 H 1131.26 4.437 1.49158 0
M  V30 12206 H 1131.43 6.21806 1.82377 0
M  V30 12207 N 1124.83 -0.648732 1.43629 0
M  V30 12208 C 1125.78 -1.76145 1.49136 0
M  V30 12209 C 1126.75 -1.62569 0.340649 0
M  V30 12210 O 1127.94 -1.82748 0.548435 0
M  V30 12211 C 1125.08 -3.14321 1.42466 0
M  V30 12212 C 1124.19 -3.38999 2.67776 0
M  V30 12213 C 1123.32 -4.67047 2.53062 0
M  V30 12214 C 1122.36 -4.84845 3.7362 0
M  V30 12215 N 1121.5 -6.04155 3.57689 0
M  V30 12216 H 1126.34 -1.70774 2.44213 0
M  V30 12217 H 1123.88 -0.833311 1.2122 0
M  V30 12218 H 1125.84 -3.94206 1.36592 0
M  V30 12219 H 1124.47 -3.18751 0.509666 0
M  V30 12220 H 1123.52 -2.53179 2.83909 0
M  V30 12221 H 1124.83 -3.48035 3.57314 0
M  V30 12222 H 1123.98 -5.55066 2.44922 0
M  V30 12223 H 1122.72 -4.60339 1.61056 0
M  V30 12224 H 1121.73 -3.95261 3.82163 0
M  V30 12225 H 1122.95 -4.9338 4.6664 0
M  V30 12226 H 1120.9 -5.9857 2.6842 0
M  V30 12227 H 1120.82 -6.14169 4.40832 0
M  V30 12228 H 1122.08 -6.94782 3.53409 0
M  V30 12229 N 1126.31 -1.30234 -0.887518 0
M  V30 12230 C 1127.24 -1.18969 -2.00919 0
M  V30 12231 C 1128.22 -0.080952 -1.69907 0
M  V30 12232 O 1129.41 -0.262546 -1.92417 0
M  V30 12233 C 1126.54 -0.878094 -3.36016 0
M  V30 12234 C 1125.49 -1.94449 -3.81279 0
M  V30 12235 C 1124.82 -1.48594 -5.13638 0
M  V30 12236 C 1126.12 -3.35519 -4.00281 0
M  V30 12237 H 1127.81 -2.12808 -2.10602 0
M  V30 12238 H 1125.36 -1.02454 -1.01189 0
M  V30 12239 H 1127.31 -0.785954 -4.14006 0
M  V30 12240 H 1126.04 0.0959779 -3.26459 0
M  V30 12241 H 1124.69 -2.02622 -3.05516 0
M  V30 12242 H 1124.34 -0.500204 -5.00507 0
M  V30 12243 H 1124.04 -2.19921 -5.44893 0
M  V30 12244 H 1125.57 -1.40754 -5.94156 0
M  V30 12245 H 1126.98 -3.30119 -4.68716 0
M  V30 12246 H 1125.38 -4.0491 -4.42909 0
M  V30 12247 H 1126.45 -3.77597 -3.04218 0
M  V30 12248 N 1127.79 1.09952 -1.12909 0
M  V30 12249 C 1128.72 2.16257 -0.759305 0
M  V30 12250 C 1129.74 1.61355 0.216427 0
M  V30 12251 O 1130.92 1.785 -0.00297224 0
M  V30 12252 C 1128.02 3.38741 -0.103908 0
M  V30 12253 C 1127.2 4.23072 -1.11037 0
M  V30 12254 C 1126.26 5.23991 -0.481667 0
M  V30 12255 O 1125.28 5.57665 -1.14011 0
M  V30 12256 N 1126.48 5.75652 0.748698 0
M  V30 12257 H 1129.25 2.48588 -1.67405 0
M  V30 12258 H 1126.81 1.25617 -1.02137 0
M  V30 12259 H 1128.8 4.03362 0.328799 0
M  V30 12260 H 1127.37 3.04344 0.713677 0
M  V30 12261 H 1126.59 3.5467 -1.72054 0
M  V30 12262 H 1127.88 4.76244 -1.79078 0
M  V30 12263 H 1127.28 5.505 1.30253 0
M  V30 12264 H 1125.84 6.42033 1.12415 0
M  V30 12265 N 1129.27 0.921757 1.27833 0
M  V30 12266 C 1130.52 0.559078 1.94629 0
M  V30 12267 C 1130.84 -0.898641 1.72495 0
M  V30 12268 O 1130.1 -1.65546 1.0437 0
M  V30 12269 C 1130.4 0.824259 3.47765 0
M  V30 12270 C 1130.06 2.26278 3.90011 0
M  V30 12271 C 1128.73 2.65607 4.01256 0
M  V30 12272 C 1131.08 3.19853 4.11513 0
M  V30 12273 C 1128.41 3.97646 4.31387 0
M  V30 12274 C 1130.76 4.51467 4.43126 0
M  V30 12275 C 1129.42 4.90637 4.52583 0
M  V30 12276 H 1128.69 0.204581 0.712199 0
M  V30 12277 H 1131.34 1.1646 1.52018 0
M  V30 12278 H 1129.64 0.136011 3.91564 0
M  V30 12279 H 1131.34 0.522701 3.97579 0
M  V30 12280 H 1127.93 1.94765 3.81791 0
M  V30 12281 H 1132.11 2.90674 4.02271 0
M  V30 12282 H 1127.37 4.27685 4.36916 0
M  V30 12283 H 1131.54 5.23982 4.58711 0
M  V30 12284 H 1129.17 5.92982 4.75685 0
M  V30 12285 N 1130.75 -1.41857 0.686609 0
M  V30 12286 C 1131.98 -2.05401 0.222238 0
M  V30 12287 C 1132.38 -1.51731 -1.13023 0
M  V30 12288 O 1131.73 -0.656701 -1.71561 0
M  V30 12289 C 1131.79 -3.59381 0.0926608 0
M  V30 12290 C 1131.45 -4.35801 1.37573 0
M  V30 12291 C 1132.45 -4.65678 2.31171 0
M  V30 12292 C 1130.14 -4.75233 1.62661 0
M  V30 12293 C 1132.13 -5.33936 3.48125 0
M  V30 12294 C 1129.82 -5.43229 2.79902 0
M  V30 12295 C 1130.81 -5.72507 3.72458 0
M  V30 12296 O 1130.5 -6.39106 4.87646 0
M  V30 12297 H 1130.23 -0.668126 0.102876 0
M  V30 12298 H 1132.79 -1.82775 0.93714 0
M  V30 12299 H 1131.02 -3.80711 -0.67793 0
M  V30 12300 H 1132.71 -4.04529 -0.333364 0
M  V30 12301 H 1133.47 -4.35704 2.13042 0
M  V30 12302 H 1129.35 -4.51831 0.914862 0
M  V30 12303 H 1132.9 -5.56706 4.20386 0
M  V30 12304 H 1128.79 -5.72621 2.97951 0
M  V30 12305 H 1129.56 -6.576 4.87344 0
M  V30 12306 N 1132.22 -0.430739 -1.51599 0
M  V30 12307 C 1133.13 0.390347 -2.3133 0
M  V30 12308 C 1134.15 1.03376 -1.39962 0
M  V30 12309 O 1135.33 1.03057 -1.73035 0
M  V30 12310 C 1132.39 1.48039 -3.13505 0
M  V30 12311 C 1131.45 0.857792 -4.20643 0
M  V30 12312 C 1130.69 1.89589 -4.9889 0
M  V30 12313 O 1130.91 3.11717 -4.77691 0
M  V30 12314 O 1129.84 1.49009 -5.83164 0
M  V30 12315 H 1133.67 -0.260358 -3.02582 0
M  V30 12316 H 1131.25 -0.193428 -1.48143 0
M  V30 12317 H 1133.14 2.11272 -3.64612 0
M  V30 12318 H 1131.81 2.1153 -2.45024 0
M  V30 12319 H 1130.72 0.187592 -3.73629 0
M  V30 12320 H 1132.05 0.266474 -4.91478 0
M  V30 12321 N 1133.7 1.56767 -0.161869 0
M  V30 12322 C 1134.98 1.88245 0.531352 0
M  V30 12323 C 1135.36 1.07025 1.81958 0
M  V30 12324 O 1134.71 0.161385 2.27929 0
M  V30 12325 C 1134.92 3.40117 0.782416 0
M  V30 12326 C 1136.27 4.09655 1.11661 0
M  V30 12327 O 1137.29 3.4538 0.871274 0
M  V30 12328 O 1136.15 5.23192 1.57901 0
M  V30 12329 H 1133.24 0.780725 0.272759 0
M  V30 12330 H 1135.79 1.68522 -0.199597 0
M  V30 12331 H 1134.56 3.91088 -0.128677 0
M  V30 12332 H 1134.18 3.65418 1.56702 0
M  V30 12333 N 1135.18 -0.111886 1.57202 0
M  V30 12334 C 1136.6 -0.465629 1.52657 0
M  V30 12335 C 1136.8 -1.81463 0.875989 0
M  V30 12336 O 1135.85 -2.4825 0.461345 0
M  V30 12337 C 1137.17 -0.443571 2.9741 0
M  V30 12338 C 1138.71 -0.52662 3.08538 0
M  V30 12339 C 1139.19 -0.53488 4.54866 0
M  V30 12340 N 1140.68 -0.596117 4.59348 0
M  V30 12341 C 1141.41 -0.624073 5.69994 0
M  V30 12342 N 1140.91 -0.609245 6.90116 0
M  V30 12343 N 1142.7 -0.667619 5.58121 0
M  V30 12344 H 1134.85 0.771925 1.97876 0
M  V30 12345 H 1137.12 0.285534 0.903977 0
M  V30 12346 H 1136.82 0.480138 3.48407 0
M  V30 12347 H 1136.7 -1.26876 3.55221 0
M  V30 12348 H 1139.08 -1.44075 2.57539 0
M  V30 12349 H 1139.17 0.326396 2.53709 0
M  V30 12350 H 1138.81 0.375233 5.06512 0
M  V30 12351 H 1138.74 -1.40488 5.07514 0
M  V30 12352 H 1141.23 -0.613452 3.72888 0
M  V30 12353 H 1141.54 -0.633396 7.702 0
M  V30 12354 H 1139.89 -0.576557 6.92604 0
M  V30 12355 H 1143.08 -0.676616 4.63184 0
M  V30 12356 H 1143.25 -0.685938 6.44359 0
M  V30 12357 N 1136.66 -1.52894 -0.382264 0
M  V30 12358 C 1137.61 -1.74531 -1.46707 0
M  V30 12359 C 1138.59 -0.599499 -1.49315 0
M  V30 12360 O 1139.78 -0.857577 -1.54837 0
M  V30 12361 C 1136.91 -1.92366 -2.84342 0
M  V30 12362 C 1136 -3.12899 -2.86278 0
M  V30 12363 N 1136.39 -4.35125 -2.57876 0
M  V30 12364 C 1134.69 -3.13282 -3.17444 0
M  V30 12365 C 1135.39 -5.16769 -2.67066 0
M  V30 12366 N 1134.37 -4.52606 -3.0108 0
M  V30 12367 H 1138.17 -2.66653 -1.23585 0
M  V30 12368 H 1135.68 -1.51292 -0.590286 0
M  V30 12369 H 1137.68 -2.0599 -3.62455 0
M  V30 12370 H 1136.34 -1.01461 -3.08441 0
M  V30 12371 H 1137.35 -4.63143 -2.31774 0
M  V30 12372 H 1134.03 -2.32211 -3.46964 0
M  V30 12373 H 1135.42 -6.24219 -2.48595 0
M  V30 12374 N 1138.14 0.641106 -1.43971 0
M  V30 12375 C 1139.07 1.76645 -1.46046 0
M  V30 12376 C 1140.08 1.58881 -0.355049 0
M  V30 12377 O 1141.27 1.67379 -0.620207 0
M  V30 12378 C 1138.37 3.14237 -1.26918 0
M  V30 12379 C 1137.54 3.5855 -2.50521 0
M  V30 12380 C 1136.6 4.74986 -2.26438 0
M  V30 12381 O 1135.63 4.83807 -2.99866 0
M  V30 12382 N 1136.83 5.66016 -1.28866 0
M  V30 12383 H 1139.6 1.75339 -2.43056 0
M  V30 12384 H 1137.16 0.82535 -1.39282 0
M  V30 12385 H 1139.15 3.89837 -1.0867 0
M  V30 12386 H 1137.72 3.10244 -0.383082 0
M  V30 12387 H 1136.94 2.73265 -2.84112 0
M  V30 12388 H 1138.23 3.84906 -3.32754 0
M  V30 12389 H 1137.63 5.61574 -0.682018 0
M  V30 12390 H 1136.18 6.41286 -1.16599 0
M  V30 12391 N 1139.62 1.30703 0.880598 0
M  V30 12392 C 1140.55 1.20033 2.00286 0
M  V30 12393 C 1141.53 0.0899614 1.69862 0
M  V30 12394 O 1142.71 0.272747 1.92275 0
M  V30 12395 C 1139.84 0.895902 3.35546 0
M  V30 12396 C 1138.8 1.96468 3.80242 0
M  V30 12397 C 1138.12 1.51316 5.12843 0
M  V30 12398 C 1139.42 3.37637 3.98496 0
M  V30 12399 H 1141.12 2.13922 2.0947 0
M  V30 12400 H 1138.66 1.02989 1.00644 0
M  V30 12401 H 1140.61 0.807899 4.13583 0
M  V30 12402 H 1139.34 -0.0786636 3.26505 0
M  V30 12403 H 1138 2.0424 3.04437 0
M  V30 12404 H 1137.65 0.52674 5.00234 0
M  V30 12405 H 1137.35 2.22807 5.43719 0
M  V30 12406 H 1138.87 1.43903 5.93401 0
M  V30 12407 H 1140.28 3.326 4.66959 0
M  V30 12408 H 1138.68 4.07253 4.40755 0
M  V30 12409 H 1139.75 3.79205 3.02211 0
M  V30 12410 N 1141.09 -1.09351 1.1349 0
M  V30 12411 C 1142.5 -1.63035 0.909746 0
M  V30 12412 C 1142.86 -1.88229 -0.553573 0
M  V30 12413 O 1141.98 -1.63256 -1.42044 0
M  V30 12414 C 1142.58 -2.96186 1.64497 0
M  V30 12415 C 1141.13 -3.46692 1.46566 0
M  V30 12416 C 1140.28 -2.21095 1.67369 0
M  V30 12417 H 1143.23 -0.92704 1.28809 0
M  V30 12418 H 1143.25 -3.64177 1.10251 0
M  V30 12419 H 1142.77 -2.77818 2.70996 0
M  V30 12420 H 1140.87 -3.70183 0.423728 0
M  V30 12421 H 1140.98 -4.24078 2.22923 0
M  V30 12422 H 1139.34 -2.29789 1.0986 0
M  V30 12423 H 1140.13 -2.05245 2.7519 0
M  V30 12424 N 1142.57 -0.928524 -1.27343 0
M  V30 12425 C 1143.53 -0.43292 -2.25074 0
M  V30 12426 C 1144.53 0.448976 -1.54405 0
M  V30 12427 O 1145.72 0.249939 -1.72398 0
M  V30 12428 C 1142.86 0.377539 -3.38803 0
M  V30 12429 H 1144.05 -1.29642 -2.70431 0
M  V30 12430 H 1141.6 -0.709289 -1.3928 0
M  V30 12431 H 1142.34 1.25982 -2.98829 0
M  V30 12432 H 1142.12 -0.254782 -3.91271 0
M  V30 12433 H 1143.61 0.714634 -4.1144 0
M  V30 12434 N 1144.05 1.41491 -0.694123 0
M  V30 12435 C 1145.46 1.84283 -0.299439 0
M  V30 12436 C 1145.81 1.58081 1.16211 0
M  V30 12437 O 1144.94 1.05051 1.89191 0
M  V30 12438 C 1145.53 3.34522 -0.536696 0
M  V30 12439 C 1144.09 3.7589 -0.195944 0
M  V30 12440 C 1143.24 2.64908 -0.819692 0
M  V30 12441 H 1146.19 1.31063 -0.894884 0
M  V30 12442 H 1146.21 3.79947 0.205062 0
M  V30 12443 H 1145.72 3.53561 -1.6005 0
M  V30 12444 H 1143.82 3.62452 0.863655 0
M  V30 12445 H 1143.94 4.74671 -0.649954 0
M  V30 12446 H 1142.3 2.53476 -0.249412 0
M  V30 12447 H 1143.08 2.86765 -1.88734 0
M  V30 12448 N 1145.53 0.438773 1.51369 0
M  V30 12449 C 1146.47 -0.37195 2.27783 0
M  V30 12450 C 1147.44 -1.01558 1.31435 0
M  V30 12451 O 1148.63 -1.03421 1.60339 0
M  V30 12452 C 1145.77 -1.46636 3.12397 0
M  V30 12453 C 1144.88 -0.840727 4.2374 0
M  V30 12454 C 1144.02 -1.91031 4.95662 0
M  V30 12455 C 1143.06 -1.26318 5.98924 0
M  V30 12456 N 1142.19 -2.27419 6.64248 0
M  V30 12457 H 1147.03 0.286048 2.96624 0
M  V30 12458 H 1144.57 0.152909 1.46303 0
M  V30 12459 H 1146.53 -2.11219 3.59781 0
M  V30 12460 H 1145.16 -2.09397 2.45668 0
M  V30 12461 H 1144.21 -0.0831588 3.80309 0
M  V30 12462 H 1145.52 -0.328285 4.97719 0
M  V30 12463 H 1144.68 -2.63272 5.46601 0
M  V30 12464 H 1143.42 -2.45649 4.21317 0
M  V30 12465 H 1142.42 -0.526246 5.47276 0
M  V30 12466 H 1143.65 -0.724324 6.75226 0
M  V30 12467 H 1141.59 -2.81114 5.92715 0
M  V30 12468 H 1141.51 -1.81071 7.33996 0
M  V30 12469 H 1142.78 -2.99139 7.19817 0
M  V30 12470 N 1147.01 -1.56678 0.170181 0
M  V30 12471 C 1148.25 -1.97913 -0.469262 0
M  V30 12472 C 1148.61 -1.05438 -1.60936 0
M  V30 12473 O 1147.9 -0.0938273 -1.9137 0
M  V30 12474 C 1148.09 -3.43103 -1.00076 0
M  V30 12475 C 1147.92 -4.49617 0.0863088 0
M  V30 12476 C 1146.69 -5.02454 0.535589 0
M  V30 12477 C 1148.89 -5.06606 0.886289 0
M  V30 12478 N 1146.87 -5.926 1.60308 0
M  V30 12479 C 1148.24 -5.93182 1.80374 0
M  V30 12480 C 1150.3 -4.89109 0.931495 0
M  V30 12481 C 1149 -6.64134 2.76257 0
M  V30 12482 C 1151.03 -5.60781 1.87827 0
M  V30 12483 C 1150.39 -6.47084 2.78319 0
M  V30 12484 H 1146.49 -0.769393 -0.139852 0
M  V30 12485 H 1149.07 -1.92817 0.270136 0
M  V30 12486 H 1147.24 -3.48747 -1.70968 0
M  V30 12487 H 1148.98 -3.71351 -1.60874 0
M  V30 12488 H 1145.73 -4.73412 0.133508 0
M  V30 12489 H 1146.15 -6.42378 2.13729 0
M  V30 12490 H 1150.8 -4.22084 0.245904 0
M  V30 12491 H 1148.51 -7.30373 3.45805 0
M  V30 12492 H 1152.1 -5.49229 1.91934 0
M  V30 12493 H 1150.98 -7.01569 3.50386 0
M  V30 12494 N 1148.48 0.103547 -1.57259 0
M  V30 12495 C 1149.45 1.11039 -2.00507 0
M  V30 12496 C 1150.45 1.33432 -0.897361 0
M  V30 12497 O 1151.64 1.29688 -1.16304 0
M  V30 12498 C 1148.77 2.46144 -2.35851 0
M  V30 12499 H 1149.96 0.738332 -2.90669 0
M  V30 12500 H 1147.51 0.348334 -1.52369 0
M  V30 12501 H 1148.25 2.88242 -1.48617 0
M  V30 12502 H 1148.03 2.31241 -3.16654 0
M  V30 12503 H 1149.52 3.18577 -2.69997 0
M  V30 12504 N 1149.96 1.53094 0.37415 0
M  V30 12505 C 1150.87 1.81872 1.48188 0
M  V30 12506 C 1151.89 0.706487 1.59012 0
M  V30 12507 O 1153.06 0.995648 1.75068 0
M  V30 12508 C 1150.13 1.99494 2.83554 0
M  V30 12509 C 1149.19 3.23402 2.82329 0
M  V30 12510 C 1148.42 3.40174 4.11239 0
M  V30 12511 O 1148.65 2.61425 5.06965 0
M  V30 12512 O 1147.58 4.33493 4.17573 0
M  V30 12513 H 1151.41 2.75965 1.26795 0
M  V30 12514 H 1148.99 1.38368 0.56343 0
M  V30 12515 H 1150.87 2.12705 3.63778 0
M  V30 12516 H 1149.55 1.08591 3.04942 0
M  V30 12517 H 1148.45 3.15621 2.00834 0
M  V30 12518 H 1149.79 4.14199 2.65894 0
M  V30 12519 N 1151.44 -0.633461 1.44309 0
M  V30 12520 C 1152.37 -1.75676 1.53819 0
M  V30 12521 C 1153.35 -1.65537 0.391365 0
M  V30 12522 O 1154.54 -1.84332 0.611181 0
M  V30 12523 C 1151.67 -3.14197 1.47979 0
M  V30 12524 C 1150.62 -3.39122 2.61113 0
M  V30 12525 C 1149.95 -4.77648 2.40325 0
M  V30 12526 C 1151.25 -3.31914 4.03274 0
M  V30 12527 H 1152.94 -1.67974 2.47841 0
M  V30 12528 H 1150.49 -0.8067 1.19283 0
M  V30 12529 H 1152.44 -3.92553 1.53233 0
M  V30 12530 H 1151.16 -3.22677 0.504718 0
M  V30 12531 H 1149.82 -2.63145 2.55245 0
M  V30 12532 H 1149.47 -4.82829 1.41016 0
M  V30 12533 H 1149.17 -4.95284 3.16177 0
M  V30 12534 H 1150.69 -5.58237 2.47394 0
M  V30 12535 H 1152.11 -4.00178 4.10524 0
M  V30 12536 H 1150.5 -3.61085 4.7931 0
M  V30 12537 H 1151.57 -2.29761 4.2701 0
M  V30 12538 N 1152.92 -1.31168 -0.873655 0
M  V30 12539 C 1153.88 -1.18471 -1.96207 0
M  V30 12540 C 1154.88 -0.112814 -1.60404 0
M  V30 12541 O 1156.07 -0.3618 -1.70401 0
M  V30 12542 C 1153.2 -0.817662 -3.30949 0
M  V30 12543 H 1154.4 -2.1518 -2.08896 0
M  V30 12544 H 1151.95 -1.14727 -1.06149 0
M  V30 12545 H 1152.68 0.148428 -3.2396 0
M  V30 12546 H 1152.47 -1.59244 -3.58307 0
M  V30 12547 H 1153.96 -0.75262 -4.10762 0
M  V30 12548 N 1154.4 1.08748 -1.14068 0
M  V30 12549 C 1155.34 2.17667 -0.819981 0
M  V30 12550 C 1156.34 1.68207 0.200654 0
M  V30 12551 O 1157.54 1.79909 0.0571014 0
M  V30 12552 H 1153.92 0.710129 -0.247427 0
M  V30 12553 H 1155.89 2.41944 -1.74659 0
M  V30 12554 C 1154.64 3.46315 -0.309985 0
M  V30 12555 H 1153.96 3.84748 -1.08669 0
M  V30 12556 H 1155.4 4.23818 -0.124094 0
M  V30 12557 C 1153.86 3.22762 0.965724 0
M  V30 12558 O 1154.39 3.46034 2.04018 0
M  V30 12559 N 1152.6 2.76326 0.899576 0
M  V30 12560 H 1152.14 2.57588 0.0250598 0
M  V30 12561 H 1152.1 2.60945 1.75371 0
M  V30 12562 N 1155.87 0.935264 1.26849 0
M  V30 12563 C 1156.8 0.457776 2.28969 0
M  V30 12564 C 1157.79 -0.48587 1.63013 0
M  V30 12565 O 1158.97 -0.388998 1.90264 0
M  V30 12566 C 1156.1 -0.283332 3.46142 0
M  V30 12567 C 1155.05 0.573196 4.24144 0
M  V30 12568 C 1154.38 -0.297525 5.33872 0
M  V30 12569 C 1155.68 1.84153 4.88759 0
M  V30 12570 H 1157.37 1.31125 2.69159 0
M  V30 12571 H 1154.92 0.631956 1.29392 0
M  V30 12572 H 1156.87 -0.628366 4.16689 0
M  V30 12573 H 1155.6 -1.1709 3.04889 0
M  V30 12574 H 1154.26 0.901043 3.55354 0
M  V30 12575 H 1153.9 -1.18427 4.8886 0
M  V30 12576 H 1153.6 0.272126 5.8697 0
M  V30 12577 H 1155.13 -0.637961 6.07258 0
M  V30 12578 H 1156.54 1.5641 5.51551 0
M  V30 12579 H 1154.94 2.35528 5.51948 0
M  V30 12580 H 1156.01 2.5565 4.12033 0
M  V30 12581 N 1157.35 -1.41121 0.701616 0
M  V30 12582 C 1158.6 -2.00359 0.232214 0
M  V30 12583 C 1158.91 -1.56231 -1.17691 0
M  V30 12584 O 1160.12 -2.08071 -1.74409 0
M  V30 12585 C 1158.58 -3.58052 0.364257 0
M  V30 12586 C 1158.18 -4.11158 1.77913 0
M  V30 12587 C 1159.93 -4.24476 -0.0450628 0
M  V30 12588 C 1157.84 -5.61306 1.8625 0
M  V30 12589 H 1156.77 -0.749411 0.0830609 0
M  V30 12590 H 1159.42 -1.61528 0.870689 0
M  V30 12591 H 1157.8 -3.94515 -0.342569 0
M  V30 12592 H 1158.97 -3.86101 2.5152 0
M  V30 12593 H 1157.29 -3.57282 2.13866 0
M  V30 12594 H 1159.88 -5.347 -0.00329209 0
M  V30 12595 H 1160.23 -4.01919 -1.08477 0
M  V30 12596 H 1160.76 -3.93069 0.611704 0
M  V30 12597 H 1157.5 -5.88699 2.88294 0
M  V30 12598 H 1157.02 -5.88271 1.17036 0
M  V30 12599 H 1158.7 -6.26179 1.62817 0
M  V30 12600 N 1158.83 -0.446794 -1.51134 0
M  V30 12601 C 1159.78 0.374154 -2.29571 0
M  V30 12602 C 1160.77 1.01241 -1.35818 0
M  V30 12603 O 1161.98 0.946293 -1.53119 0
M  V30 12604 H 1158.35 0.13948 -0.738951 0
M  V30 12605 H 1160.32 -0.308117 -2.96805 0
M  V30 12606 C 1159.07 1.45754 -3.15675 0
M  V30 12607 H 1158.4 0.975787 -3.87709 0
M  V30 12608 H 1159.84 2.00502 -3.73597 0
M  V30 12609 C 1158.3 2.44606 -2.31667 0
M  V30 12610 O 1158.83 3.49352 -1.98284 0
M  V30 12611 N 1157.03 2.15725 -1.94708 0
M  V30 12612 H 1156.58 1.30572 -2.22056 0
M  V30 12613 H 1156.54 2.82103 -1.38798 0
M  V30 12614 N 1160.31 1.56586 -0.178487 0
M  V30 12615 C 1161.26 2.19631 0.765822 0
M  V30 12616 C 1162.25 1.16247 1.23219 0
M  V30 12617 O 1163.46 1.34431 1.19701 0
M  V30 12618 H 1159.83 0.703661 0.265264 0
M  V30 12619 H 1161.8 2.97659 0.210207 0
M  V30 12620 C 1160.55 2.85686 1.98188 0
M  V30 12621 H 1159.87 3.64971 1.63206 0
M  V30 12622 H 1161.31 3.33259 2.62134 0
M  V30 12623 C 1159.77 1.85837 2.81009 0
M  V30 12624 O 1160.3 1.3483 3.78396 0
M  V30 12625 N 1158.51 1.54435 2.46167 0
M  V30 12626 H 1158.06 1.96107 1.67032 0
M  V30 12627 H 1158.01 0.878808 3.01868 0
M  V30 12628 N 1161.79 -0.095206 1.57312 0
M  V30 12629 C 1163.03 -0.804335 1.87909 0
M  V30 12630 C 1163.39 -1.75907 0.769465 0
M  V30 12631 O 1164.59 -2.51155 0.957846 0
M  V30 12632 C 1162.86 -1.51405 3.23746 0
M  V30 12633 S 1164.42 -2.26147 3.76036 0
M  V30 12634 H 1161.24 -0.267976 0.658567 0
M  V30 12635 H 1163.84 -0.0614682 1.95403 0
M  V30 12636 H 1162.55 -0.805066 4.02426 0
M  V30 12637 H 1162.08 -2.29681 3.1939 0
M  V30 12638 H 1164.09 -3.52284 3.49443 0
M  V30 12639 N 1163.26 -1.53291 -0.366026 0
M  V30 12640 C 1164.2 -1.7448 -1.47079 0
M  V30 12641 C 1165.18 -0.593147 -1.51395 0
M  V30 12642 O 1166.36 -0.825686 -1.69454 0
M  V30 12643 C 1163.49 -1.82319 -2.85443 0
M  V30 12644 C 1162.53 -3.04285 -2.98852 0
M  V30 12645 S 1163.37 -4.63812 -2.67653 0
M  V30 12646 C 1164.52 -4.74499 -4.08168 0
M  V30 12647 H 1164.75 -2.67911 -1.28884 0
M  V30 12648 H 1162.29 -1.43874 -0.560335 0
M  V30 12649 H 1164.25 -1.87521 -3.65166 0
M  V30 12650 H 1162.91 -0.899398 -3.00948 0
M  V30 12651 H 1162.1 -3.06379 -4.00185 0
M  V30 12652 H 1161.7 -2.97193 -2.27051 0
M  V30 12653 H 1163.99 -4.54527 -5.02406 0
M  V30 12654 H 1164.94 -5.76558 -4.1108 0
M  V30 12655 H 1165.34 -4.03136 -3.95147 0
M  V30 12656 N 1164.74 0.6258 -1.44643 0
M  V30 12657 C 1166.02 1.38439 -1.38181 0
M  V30 12658 C 1166.4 2.11056 -0.0431928 0
M  V30 12659 O 1165.75 2.06683 0.974383 0
M  V30 12660 C 1165.96 2.34639 -2.58352 0
M  V30 12661 C 1167.31 2.97807 -3.02649 0
M  V30 12662 O 1168.33 2.44963 -2.58595 0
M  V30 12663 O 1167.19 3.93682 -3.79048 0
M  V30 12664 H 1164.28 0.619852 -0.54746 0
M  V30 12665 H 1166.83 0.650409 -1.56741 0
M  V30 12666 H 1165.6 1.80116 -3.47382 0
M  V30 12667 H 1165.22 3.15446 -2.42032 0
M  V30 12668 N 1166.22 1.31629 0.866686 0
M  V30 12669 C 1167.45 1.24293 1.6503 0
M  V30 12670 C 1167.86 -0.193556 1.88207 0
M  V30 12671 O 1167.2 -1.13712 1.44275 0
M  V30 12672 C 1167.26 1.92032 3.03914 0
M  V30 12673 C 1166.93 3.41373 3.03831 0
M  V30 12674 C 1167.92 4.37064 2.81551 0
M  V30 12675 C 1165.61 3.83118 3.24848 0
M  V30 12676 C 1167.6 5.72474 2.80272 0
M  V30 12677 C 1165.29 5.18639 3.23197 0
M  V30 12678 C 1166.29 6.13128 3.00936 0
M  V30 12679 O 1165.98 7.46172 2.99137 0
M  V30 12680 H 1165.71 0.430569 0.521139 0
M  V30 12681 H 1168.26 1.74105 1.0898 0
M  V30 12682 H 1166.49 1.36774 3.61704 0
M  V30 12683 H 1168.18 1.78567 3.64512 0
M  V30 12684 H 1168.95 4.06142 2.65093 0
M  V30 12685 H 1164.83 3.10001 3.41204 0
M  V30 12686 H 1168.37 6.46199 2.62816 0
M  V30 12687 H 1164.27 5.49196 3.39197 0
M  V30 12688 H 1165.04 7.55385 3.15175 0
M  V30 12689 N 1167.7 -1.08142 1.14644 0
M  V30 12690 C 1168.61 -2.18675 0.849607 0
M  V30 12691 C 1169.63 -1.73158 -0.170983 0
M  V30 12692 O 1170.8 -2.014 0.0011579 0
M  V30 12693 C 1167.87 -3.45084 0.334305 0
M  V30 12694 C 1166.93 -4.05213 1.41779 0
M  V30 12695 C 1166.16 -5.25588 0.926981 0
M  V30 12696 O 1166.38 -5.69934 -0.230522 0
M  V30 12697 O 1165.32 -5.77183 1.70715 0
M  V30 12698 H 1169.14 -2.46542 1.77343 0
M  V30 12699 H 1166.73 -1.17328 0.924911 0
M  V30 12700 H 1168.61 -4.21367 0.0529893 0
M  V30 12701 H 1167.29 -3.18788 -0.561755 0
M  V30 12702 H 1166.19 -3.30507 1.7526 0
M  V30 12703 H 1167.53 -4.35764 2.28847 0
M  V30 12704 N 1169.18 -0.941978 -1.26351 0
M  V30 12705 C 1170.59 -0.632522 -1.75659 0
M  V30 12706 C 1170.94 0.852287 -1.76722 0
M  V30 12707 O 1170.06 1.66701 -1.37985 0
M  V30 12708 C 1170.66 -1.14145 -3.18993 0
M  V30 12709 C 1169.22 -0.882391 -3.65911 0
M  V30 12710 C 1168.37 -1.29189 -2.45368 0
M  V30 12711 H 1171.32 -1.12019 -1.12416 0
M  V30 12712 H 1171.34 -0.495639 -3.77258 0
M  V30 12713 H 1170.85 -2.22213 -3.18187 0
M  V30 12714 H 1168.95 0.183873 -3.72146 0
M  V30 12715 H 1169.06 -1.50996 -4.54683 0
M  V30 12716 H 1167.43 -0.710316 -2.44595 0
M  V30 12717 H 1168.21 -2.38152 -2.47262 0
M  V30 12718 N 1170.66 1.40747 -0.709091 0
M  V30 12719 C 1171.93 1.94831 -0.173246 0
M  V30 12720 C 1172.31 1.64766 1.31967 0
M  V30 12721 O 1171.66 0.961853 2.07269 0
M  V30 12722 C 1171.87 3.45697 -0.479013 0
M  V30 12723 C 1173.22 4.22576 -0.414122 0
M  V30 12724 O 1174.24 3.53778 -0.414699 0
M  V30 12725 O 1173.1 5.45135 -0.385986 0
M  V30 12726 H 1170.2 0.826683 -0.0228947 0
M  V30 12727 H 1172.74 1.50391 -0.786178 0
M  V30 12728 H 1171.51 3.60914 -1.51185 0
M  V30 12729 H 1171.14 3.97261 0.164211 0
M  V30 12730 N 1172.13 0.454803 1.50895 0
M  V30 12731 C 1173.38 -0.10577 2.02224 0
M  V30 12732 C 1173.71 -1.41176 1.33789 0
M  V30 12733 O 1172.96 -1.90522 0.447181 0
M  V30 12734 C 1173.26 -0.354159 3.55641 0
M  V30 12735 C 1172.93 0.868136 4.42464 0
M  V30 12736 C 1171.59 1.2033 4.65912 0
M  V30 12737 C 1173.94 1.68272 4.93289 0
M  V30 12738 C 1171.27 2.3534 5.37431 0
M  V30 12739 C 1173.62 2.82396 5.6607 0
M  V30 12740 C 1172.29 3.16346 5.87777 0
M  V30 12741 H 1171.56 -0.0387041 0.739989 0
M  V30 12742 H 1174.2 0.605564 1.81673 0
M  V30 12743 H 1172.51 -1.14757 3.74617 0
M  V30 12744 H 1174.21 -0.8016 3.92906 0
M  V30 12745 H 1170.8 0.596995 4.24422 0
M  V30 12746 H 1174.98 1.43698 4.75042 0
M  V30 12747 H 1170.24 2.61936 5.52449 0
M  V30 12748 H 1174.41 3.45873 6.04438 0
M  V30 12749 H 1172.04 4.05574 6.42973 0
M  V30 12750 N 1173.61 -1.56489 0.186789 0
M  V30 12751 C 1175.03 -1.58701 -0.169176 0
M  V30 12752 C 1175.23 -1.2027 -1.61671 0
M  V30 12753 O 1174.28 -0.92154 -2.35083 0
M  V30 12754 C 1175.6 -3.00437 0.125657 0
M  V30 12755 C 1177.14 -3.12932 0.0651 0
M  V30 12756 C 1177.62 -4.56787 0.333131 0
M  V30 12757 N 1179.11 -4.62344 0.281453 0
M  V30 12758 C 1179.85 -5.71529 0.462805 0
M  V30 12759 N 1179.34 -6.89213 0.704054 0
M  V30 12760 N 1181.13 -5.60692 0.397636 0
M  V30 12761 H 1173.29 -1.79754 1.13148 0
M  V30 12762 H 1175.55 -0.83385 0.450997 0
M  V30 12763 H 1175.25 -3.33086 1.12901 0
M  V30 12764 H 1175.13 -3.72782 -0.575612 0
M  V30 12765 H 1177.52 -2.80101 -0.928845 0
M  V30 12766 H 1177.6 -2.42991 0.799318 0
M  V30 12767 H 1177.24 -4.9033 1.32436 0
M  V30 12768 H 1177.17 -5.24907 -0.421879 0
M  V30 12769 H 1179.66 -3.77764 0.101266 0
M  V30 12770 H 1179.97 -7.68314 0.831468 0
M  V30 12771 H 1178.32 -6.9104 0.740851 0
M  V30 12772 H 1181.51 -4.6763 0.20964 0
M  V30 12773 H 1181.68 -6.45726 0.54239 0
M  V30 12774 N 1175.09 0.086862 -1.5736 0
M  V30 12775 C 1176.5 0.640442 -1.75372 0
M  V30 12776 C 1176.85 1.78693 -0.81014 0
M  V30 12777 O 1175.98 2.16398 0.00940712 0
M  V30 12778 C 1176.57 1.16856 -3.1801 0
M  V30 12779 C 1175.13 1.66813 -3.37417 0
M  V30 12780 C 1174.28 0.58116 -2.71142 0
M  V30 12781 H 1177.23 -0.139249 -1.58088 0
M  V30 12782 H 1177.25 2.03772 -3.21337 0
M  V30 12783 H 1176.76 0.333909 -3.86661 0
M  V30 12784 H 1174.86 2.52652 -2.73858 0
M  V30 12785 H 1174.98 1.75545 -4.45781 0
M  V30 12786 H 1173.34 1.0226 -2.3327 0
M  V30 12787 H 1174.12 -0.243047 -3.42439 0
M  V30 12788 N 1176.57 1.53483 0.357892 0
M  V30 12789 C 1177.79 1.74264 1.12458 0
M  V30 12790 C 1178.22 0.473944 1.82031 0
M  V30 12791 O 1177.58 -0.57253 1.72023 0
M  V30 12792 C 1177.62 2.91356 2.12471 0
M  V30 12793 O 1176.73 2.60502 3.19707 0
M  V30 12794 H 1176.07 0.578499 0.325937 0
M  V30 12795 H 1178.6 2.00395 0.412666 0
M  V30 12796 H 1178.61 3.1774 2.5594 0
M  V30 12797 H 1177.28 3.83378 1.61226 0
M  V30 12798 H 1175.86 2.44961 2.81156 0
M  V30 12799 N 1178.05 -0.61812 1.44973 0
M  V30 12800 C 1179.29 -1.3774 1.48439 0
M  V30 12801 C 1179.62 -1.94117 0.121999 0
M  V30 12802 O 1178.88 -1.749 -0.877974 0
M  V30 12803 C 1179.17 -2.55143 2.50274 0
M  V30 12804 C 1178.84 -2.16976 3.95262 0
M  V30 12805 C 1177.5 -2.06281 4.34743 0
M  V30 12806 C 1179.85 -1.8703 4.86486 0
M  V30 12807 C 1177.18 -1.63846 5.63357 0
M  V30 12808 C 1179.53 -1.46085 6.15501 0
M  V30 12809 C 1178.2 -1.3394 6.53924 0
M  V30 12810 H 1177.47 -0.504026 0.543175 0
M  V30 12811 H 1180.12 -0.699685 1.7826 0
M  V30 12812 H 1178.42 -3.28205 2.13983 0
M  V30 12813 H 1180.12 -3.13373 2.50197 0
M  V30 12814 H 1176.71 -2.26223 3.64034 0
M  V30 12815 H 1180.89 -1.94196 4.56729 0
M  V30 12816 H 1176.15 -1.53058 5.91932 0
M  V30 12817 H 1180.32 -1.21956 6.85638 0
M  V30 12818 H 1177.95 -1.00832 7.53483 0
M  V30 12819 N 1179.52 -1.32087 -0.859693 0
M  V30 12820 C 1180.94 -1.10968 -1.14709 0
M  V30 12821 C 1181.14 0.113139 -2.01182 0
M  V30 12822 O 1180.2 0.799499 -2.39508 0
M  V30 12823 C 1181.51 -2.38657 -1.8293 0
M  V30 12824 C 1183.06 -2.44366 -1.95587 0
M  V30 12825 C 1183.53 -3.71963 -2.67222 0
M  V30 12826 N 1185.02 -3.72916 -2.7475 0
M  V30 12827 C 1185.76 -4.68346 -3.30816 0
M  V30 12828 N 1185.25 -5.74139 -3.87732 0
M  V30 12829 N 1187.05 -4.55851 -3.28872 0
M  V30 12830 H 1179.2 -2.10497 -0.283711 0
M  V30 12831 H 1181.46 -0.929108 -0.188315 0
M  V30 12832 H 1181.17 -3.2803 -1.26844 0
M  V30 12833 H 1181.04 -2.49236 -2.83128 0
M  V30 12834 H 1183.43 -1.55456 -2.50833 0
M  V30 12835 H 1183.51 -2.37744 -0.944001 0
M  V30 12836 H 1183.15 -4.61245 -2.1264 0
M  V30 12837 H 1183.08 -3.75855 -3.68837 0
M  V30 12838 H 1185.57 -2.96447 -2.34367 0
M  V30 12839 H 1185.89 -6.43021 -4.28654 0
M  V30 12840 H 1184.23 -5.779 -3.86078 0
M  V30 12841 H 1187.42 -3.72371 -2.83651 0
M  V30 12842 H 1187.6 -5.30398 -3.72266 0
M  V30 12843 N 1181 1.07532 -1.15215 0
M  V30 12844 C 1181.96 2.1286 -0.84989 0
M  V30 12845 C 1182.96 1.60103 0.149524 0
M  V30 12846 O 1184.15 1.74017 -0.0798918 0
M  V30 12847 C 1181.29 3.3984 -0.268617 0
M  V30 12848 H 1182.48 2.41106 -1.78347 0
M  V30 12849 H 1180.03 1.23392 -0.959386 0
M  V30 12850 H 1180.77 3.17235 0.67325 0
M  V30 12851 H 1180.55 3.79433 -0.988592 0
M  V30 12852 H 1182.04 4.17533 -0.0746554 0
M  V30 12853 N 1182.48 0.948665 1.2585 0
M  V30 12854 C 1183.73 0.595938 1.92695 0
M  V30 12855 C 1184.04 -0.870229 1.75175 0
M  V30 12856 O 1185.25 -1.33266 2.36543 0
M  V30 12857 C 1183.7 1.01511 3.45288 0
M  V30 12858 C 1183.31 2.50341 3.71528 0
M  V30 12859 C 1185.06 0.734635 4.18095 0
M  V30 12860 C 1182.96 2.8609 5.17597 0
M  V30 12861 H 1181.89 0.219171 0.721443 0
M  V30 12862 H 1184.54 1.15231 1.42807 0
M  V30 12863 H 1182.93 0.387201 3.94102 0
M  V30 12864 H 1184.1 3.18101 3.3339 0
M  V30 12865 H 1182.42 2.75797 3.11969 0
M  V30 12866 H 1185.01 0.977962 5.25681 0
M  V30 12867 H 1185.36 -0.328807 4.14999 0
M  V30 12868 H 1185.89 1.32262 3.75169 0
M  V30 12869 H 1182.63 3.91427 5.25799 0
M  V30 12870 H 1182.15 2.22999 5.56805 0
M  V30 12871 H 1183.83 2.74959 5.85668 0
M  V30 12872 N 1183.96 -1.40369 0.716545 0
M  V30 12873 C 1185.21 -2.00101 0.253452 0
M  V30 12874 C 1185.52 -1.57471 -1.16027 0
M  V30 12875 O 1186.73 -2.09909 -1.72193 0
M  V30 12876 C 1185.18 -3.57645 0.402213 0
M  V30 12877 C 1184.79 -4.09248 1.82264 0
M  V30 12878 C 1186.53 -4.245 -3.88526e-05 0
M  V30 12879 C 1184.44 -5.59299 1.92193 0
M  V30 12880 H 1183.37 -0.748488 0.0910047 0
M  V30 12881 H 1186.02 -1.60595 0.887772 0
M  V30 12882 H 1184.4 -3.94857 -0.300706 0
M  V30 12883 H 1185.58 -3.83412 2.55601 0
M  V30 12884 H 1183.89 -3.54993 2.17644 0
M  V30 12885 H 1186.49 -5.34673 0.0534202 0
M  V30 12886 H 1186.83 -4.03046 -1.04208 0
M  V30 12887 H 1187.37 -3.92398 0.65336 0
M  V30 12888 H 1184.11 -5.85608 2.94522 0
M  V30 12889 H 1183.63 -5.86997 1.23268 0
M  V30 12890 H 1185.3 -6.24416 1.6945 0
M  V30 12891 N 1185.44 -0.462799 -1.50652 0
M  V30 12892 C 1186.85 -0.11648 -1.59174 0
M  V30 12893 C 1187.05 1.37638 -1.47167 0
M  V30 12894 O 1186.11 2.14886 -1.3259 0
M  V30 12895 C 1187.42 -0.659289 -2.93383 0
M  V30 12896 C 1188.97 -0.62198 -3.06758 0
M  V30 12897 C 1189.44 -1.14219 -4.43529 0
M  V30 12898 N 1190.94 -1.10125 -4.49919 0
M  V30 12899 C 1191.67 -1.47436 -5.54121 0
M  V30 12900 N 1191.17 -1.92156 -6.65618 0
M  V30 12901 N 1192.96 -1.39091 -5.44619 0
M  V30 12902 H 1185.11 -1.43383 -1.56701 0
M  V30 12903 H 1187.37 -0.592438 -0.740082 0
M  V30 12904 H 1187.08 -1.70477 -3.07621 0
M  V30 12905 H 1186.95 -0.0982388 -3.77072 0
M  V30 12906 H 1189.34 0.414576 -2.92173 0
M  V30 12907 H 1189.42 -1.21974 -2.24847 0
M  V30 12908 H 1189.07 -2.17734 -4.58862 0
M  V30 12909 H 1189 -0.52073 -5.24019 0
M  V30 12910 H 1191.49 -0.773154 -3.69906 0
M  V30 12911 H 1191.8 -2.18796 -7.4118 0
M  V30 12912 H 1190.14 -1.96103 -6.6676 0
M  V30 12913 H 1193.34 -1.04001 -4.564 0
M  V30 12914 H 1193.51 -1.68496 -6.2571 0
M  V30 12915 N 1186.91 1.56388 -0.195085 0
M  V30 12916 C 1188.19 1.89329 0.491303 0
M  V30 12917 C 1188.57 1.10861 1.79647 0
M  V30 12918 O 1187.92 0.209696 2.27536 0
M  V30 12919 C 1188.13 3.417 0.710096 0
M  V30 12920 C 1189.48 4.11931 1.02947 0
M  V30 12921 O 1190.5 3.4715 0.797817 0
M  V30 12922 O 1189.36 5.26423 1.46767 0
M  V30 12923 H 1186.45 0.786335 0.256137 0
M  V30 12924 H 1189 1.68061 -0.235298 0
M  V30 12925 H 1187.77 3.90727 -0.211604 0
M  V30 12926 H 1187.4 3.6866 1.48916 0
M  V30 12927 N 1188.39 -0.0785156 1.57404 0
M  V30 12928 C 1189.32 -1.09446 2.06262 0
M  V30 12929 C 1190.3 -1.40777 0.954772 0
M  V30 12930 O 1191.49 -1.5052 1.22708 0
M  V30 12931 C 1188.62 -2.40979 2.50093 0
M  V30 12932 C 1187.57 -2.24017 3.64692 0
M  V30 12933 C 1186.9 -3.60873 3.94556 0
M  V30 12934 C 1188.2 -1.66696 4.94985 0
M  V30 12935 H 1189.89 -0.687928 2.9139 0
M  V30 12936 H 1187.44 -0.329466 1.4018 0
M  V30 12937 H 1189.39 -3.12337 2.82884 0
M  V30 12938 H 1188.12 -2.83599 1.61985 0
M  V30 12939 H 1186.77 -1.55101 3.32174 0
M  V30 12940 H 1186.42 -4.01051 3.0359 0
M  V30 12941 H 1186.12 -3.50365 4.71718 0
M  V30 12942 H 1187.65 -4.33673 4.29837 0
M  V30 12943 H 1189.06 -2.27913 5.2605 0
M  V30 12944 H 1187.46 -1.66902 5.76423 0
M  V30 12945 H 1188.53 -0.627827 4.80818 0
M  V30 12946 N 1189.87 -1.5367 -0.349747 0
M  V30 12947 C 1190.82 -1.81914 -1.44948 0
M  V30 12948 C 1191.81 -0.689218 -1.54745 0
M  V30 12949 O 1193.02 -0.872448 -1.57443 0
M  V30 12950 H 1189.39 -0.576234 -0.483176 0
M  V30 12951 H 1191.36 -2.73932 -1.18338 0
M  V30 12952 C 1190.11 -2.04005 -2.81562 0
M  V30 12953 H 1189.44 -2.90399 -2.74788 0
M  V30 12954 H 1190.88 -2.27737 -3.57648 0
M  V30 12955 C 1189.34 -0.823748 -3.26674 0
M  V30 12956 O 1189.87 -0.0201351 -4.01695 0
M  V30 12957 N 1188.07 -0.642716 -2.83403 0
M  V30 12958 H 1187.62 -1.29783 -2.22517 0
M  V30 12959 H 1187.58 0.169654 -3.13942 0
M  V30 12960 N 1191.35 0.610423 -1.45298 0
M  V30 12961 C 1192.57 1.40112 -1.52917 0
M  V30 12962 C 1193 1.87404 -0.161696 0
M  V30 12963 O 1192.36 1.59973 0.853135 0
M  V30 12964 C 1192.4 2.58359 -2.51561 0
M  V30 12965 O 1191.51 3.58895 -2.03146 0
M  V30 12966 H 1190.85 0.41841 -0.515586 0
M  V30 12967 H 1193.38 0.743159 -1.90626 0
M  V30 12968 H 1193.39 3.0564 -2.70275 0
M  V30 12969 H 1192.06 2.23286 -3.50879 0
M  V30 12970 H 1190.64 3.18282 -1.94296 0
M  V30 12971 N 1192.83 1.32541 0.852676 0
M  V30 12972 C 1193.76 1.24254 1.97694 0
M  V30 12973 C 1194.74 0.125971 1.69633 0
M  V30 12974 O 1195.92 0.31347 1.91653 0
M  V30 12975 C 1193.05 0.966874 3.3357 0
M  V30 12976 C 1192.01 2.0449 3.75989 0
M  V30 12977 C 1191.33 1.6216 5.09518 0
M  V30 12978 C 1192.63 3.46013 3.91244 0
M  V30 12979 H 1194.33 2.18317 2.04886 0
M  V30 12980 H 1191.87 1.05101 0.984371 0
M  V30 12981 H 1193.83 0.895444 4.11776 0
M  V30 12982 H 1192.55 -0.0093893 3.26599 0
M  V30 12983 H 1191.21 2.10651 3.00036 0
M  V30 12984 H 1190.86 0.632729 4.99005 0
M  V30 12985 H 1190.56 2.3429 5.38871 0
M  V30 12986 H 1192.08 1.56457 5.90215 0
M  V30 12987 H 1193.49 3.4243 4.59799 0
M  V30 12988 H 1191.89 4.1651 4.32017 0
M  V30 12989 H 1192.96 3.8553 2.941 0
M  V30 12990 N 1194.3 -1.0692 1.15784 0
M  V30 12991 C 1195.55 -1.796 0.935429 0
M  V30 12992 C 1195.88 -1.86935 -0.537173 0
M  V30 12993 O 1195.13 -1.35244 -1.41448 0
M  V30 12994 C 1195.43 -3.24389 1.50022 0
M  V30 12995 C 1195.1 -3.37145 2.99406 0
M  V30 12996 C 1193.76 -3.40334 3.40186 0
M  V30 12997 C 1196.11 -3.39584 3.95389 0
M  V30 12998 C 1193.44 -3.43569 4.75581 0
M  V30 12999 C 1195.79 -3.44356 5.30661 0
M  V30 13000 C 1194.46 -3.45824 5.70931 0
M  V30 13001 H 1193.73 -0.657201 0.342298 0
M  V30 13002 H 1196.37 -1.25784 1.44397 0
M  V30 13003 H 1194.68 -3.81015 0.91297 0
M  V30 13004 H 1196.38 -3.79209 1.30389 0
M  V30 13005 H 1192.97 -3.35365 2.66887 0
M  V30 13006 H 1197.15 -3.36337 3.64954 0
M  V30 13007 H 1192.41 -3.43006 5.06119 0
M  V30 13008 H 1196.58 -3.4519 6.04828 0
M  V30 13009 H 1194.21 -3.48084 6.75826 0
M  V30 13010 N 1195.78 -0.955326 -1.25345 0
M  V30 13011 C 1197.01 -0.627693 -1.97149 0
M  V30 13012 C 1197.43 0.800349 -1.70997 0
M  V30 13013 O 1196.78 1.53545 -0.986417 0
M  V30 13014 C 1196.83 -0.877675 -3.50684 0
M  V30 13015 O 1196.55 -2.24957 -3.75934 0
M  V30 13016 C 1198.06 -0.562524 -4.39716 0
M  V30 13017 H 1195.28 -0.235269 -0.628402 0
M  V30 13018 H 1197.82 -1.27989 -1.59496 0
M  V30 13019 H 1195.97 -0.271878 -3.86445 0
M  V30 13020 H 1196.39 -2.32022 -4.70389 0
M  V30 13021 H 1197.86 -0.787972 -5.46347 0
M  V30 13022 H 1198.34 0.50293 -4.36311 0
M  V30 13023 H 1198.95 -1.14767 -4.09522 0
M  V30 13024 N 1197.26 1.39987 -0.723979 0
M  V30 13025 C 1198.67 1.83606 -0.338461 0
M  V30 13026 C 1199.02 1.6051 1.12831 0
M  V30 13027 O 1198.15 1.09041 1.8692 0
M  V30 13028 C 1198.74 3.33308 -0.607533 0
M  V30 13029 C 1197.3 3.75389 -0.275632 0
M  V30 13030 C 1196.45 2.6311 -0.875699 0
M  V30 13031 H 1199.4 1.29135 -0.922483 0
M  V30 13032 H 1199.42 3.80297 0.124424 0
M  V30 13033 H 1198.93 3.50087 -1.67514 0
M  V30 13034 H 1197.03 3.64203 0.786579 0
M  V30 13035 H 1197.15 4.73185 -0.750492 0
M  V30 13036 H 1195.51 2.5289 -0.303122 0
M  V30 13037 H 1196.29 2.82698 -1.94774 0
M  V30 13038 N 1198.74 0.470782 1.50404 0
M  V30 13039 C 1200.02 -0.145879 1.95055 0
M  V30 13040 C 1200.4 -1.57004 1.41114 0
M  V30 13041 O 1199.74 -2.20152 0.612006 0
M  V30 13042 C 1199.95 -0.0895071 3.48885 0
M  V30 13043 C 1201.3 -0.278548 4.23685 0
M  V30 13044 O 1202.33 -0.166105 3.55812 0
M  V30 13045 O 1201.19 -0.505606 5.44156 0
M  V30 13046 H 1198.28 -0.111838 0.819403 0
M  V30 13047 H 1200.83 0.531162 1.61173 0
M  V30 13048 H 1199.6 0.904836 3.80695 0
M  V30 13049 H 1199.22 -0.808019 3.89303 0
M  V30 13050 N 1200.22 -1.56282 0.203376 0
M  V30 13051 C 1201.45 -2.01905 -0.437936 0
M  V30 13052 C 1201.86 -1.08263 -1.55164 0
M  V30 13053 O 1201.2 -0.0811746 -1.83521 0
M  V30 13054 C 1201.26 -3.43908 -1.04725 0
M  V30 13055 C 1200.92 -4.56944 -0.0712582 0
M  V30 13056 C 1201.92 -5.14856 0.72243 0
M  V30 13057 C 1199.61 -5.02282 0.0422267 0
M  V30 13058 C 1201.6 -6.16562 1.61649 0
M  V30 13059 C 1199.29 -6.0383 0.939835 0
M  V30 13060 C 1200.29 -6.60844 1.72552 0
M  V30 13061 O 1199.97 -7.60417 2.60808 0
M  V30 13062 H 1199.71 -0.666416 -0.11343 0
M  V30 13063 H 1202.26 -2.03019 0.311833 0
M  V30 13064 H 1200.49 -3.39806 -1.84577 0
M  V30 13065 H 1202.18 -3.73288 -1.59407 0
M  V30 13066 H 1202.94 -4.80691 0.645105 0
M  V30 13067 H 1198.82 -4.57596 -0.559165 0
M  V30 13068 H 1202.37 -6.6099 2.23019 0
M  V30 13069 H 1198.26 -6.37418 1.01824 0
M  V30 13070 H 1199.03 -7.77869 2.54679 0
M  V30 13071 N 1201.7 0.070167 -1.57444 0
M  V30 13072 C 1202.61 1.10106 -2.07157 0
M  V30 13073 C 1203.62 1.42293 -1.00143 0
M  V30 13074 O 1204.8 1.52437 -1.31624 0
M  V30 13075 C 1201.86 2.39486 -2.50694 0
M  V30 13076 C 1200.92 2.14255 -3.72012 0
M  V30 13077 C 1200.16 3.37466 -4.13464 0
M  V30 13078 O 1200.38 4.46645 -3.54773 0
M  V30 13079 O 1199.31 3.25583 -5.0624 0
M  V30 13080 H 1203.14 0.70873 -2.95315 0
M  V30 13081 H 1200.72 0.28441 -1.46668 0
M  V30 13082 H 1202.61 3.15625 -2.79212 0
M  V30 13083 H 1201.28 2.78095 -1.65664 0
M  V30 13084 H 1200.19 1.35816 -3.48575 0
M  V30 13085 H 1201.52 1.80525 -4.57899 0
M  V30 13086 N 1203.17 1.53854 0.341593 0
M  V30 13087 C 1204.1 1.84966 1.42513 0
M  V30 13088 C 1205.08 0.704944 1.54805 0
M  V30 13089 O 1206.27 0.957036 1.68981 0
M  V30 13090 C 1203.4 2.06099 2.79536 0
M  V30 13091 C 1202.35 3.21919 2.82049 0
M  V30 13092 C 1201.68 3.28389 4.21977 0
M  V30 13093 C 1202.98 4.59984 2.4741 0
M  V30 13094 H 1204.67 2.7571 1.16724 0
M  V30 13095 H 1202.22 1.32662 0.560073 0
M  V30 13096 H 1204.17 2.26448 3.55386 0
M  V30 13097 H 1202.9 1.12087 3.06764 0
M  V30 13098 H 1201.56 3.01429 2.08653 0
M  V30 13099 H 1201.2 2.3197 4.46317 0
M  V30 13100 H 1200.9 4.0622 4.24569 0
M  V30 13101 H 1202.43 3.50951 4.99666 0
M  V30 13102 H 1203.84 4.80334 3.12973 0
M  V30 13103 H 1202.24 5.40233 2.61282 0
M  V30 13104 H 1203.31 4.6346 1.42594 0
M  V30 13105 N 1204.65 -0.602709 1.4562 0
M  V30 13106 C 1205.58 -1.72374 1.5751 0
M  V30 13107 C 1206.56 -1.64669 0.426389 0
M  V30 13108 O 1207.75 -1.82994 0.650143 0
M  V30 13109 C 1204.88 -3.10987 1.5461 0
M  V30 13110 C 1203.83 -3.33507 2.68248 0
M  V30 13111 C 1203.16 -4.72443 2.50403 0
M  V30 13112 C 1204.46 -3.23285 4.10224 0
M  V30 13113 H 1206.15 -1.62679 2.51348 0
M  V30 13114 H 1203.7 -0.781217 1.20967 0
M  V30 13115 H 1205.65 -3.89214 1.61525 0
M  V30 13116 H 1204.37 -3.21533 0.573049 0
M  V30 13117 H 1203.03 -2.57672 2.60769 0
M  V30 13118 H 1202.68 -4.79729 1.51226 0
M  V30 13119 H 1202.38 -4.88466 3.26611 0
M  V30 13120 H 1203.91 -5.52864 2.59179 0
M  V30 13121 H 1205.32 -3.91381 4.1892 0
M  V30 13122 H 1203.72 -3.50837 4.86861 0
M  V30 13123 H 1204.79 -2.20652 4.31788 0
M  V30 13124 N 1206.13 -1.32992 -0.845635 0
M  V30 13125 C 1207.36 -1.27087 -1.63268 0
M  V30 13126 C 1207.77 0.159481 -1.88125 0
M  V30 13127 O 1207.13 1.09948 -1.45663 0
M  V30 13128 C 1207.18 -2.03649 -2.98679 0
M  V30 13129 O 1206.9 -3.41104 -2.74918 0
M  V30 13130 C 1208.4 -2.04875 -3.93117 0
M  V30 13131 H 1205.62 -0.438107 -0.508236 0
M  V30 13132 H 1208.17 -1.75257 -1.05381 0
M  V30 13133 H 1206.32 -1.59178 -3.53187 0
M  V30 13134 H 1206.74 -3.80405 -3.61099 0
M  V30 13135 H 1208.21 -2.62911 -4.85368 0
M  V30 13136 H 1208.69 -1.03728 -4.26775 0
M  V30 13137 H 1209.29 -2.49334 -3.44547 0
M  V30 13138 N 1207.61 1.06304 -1.1635 0
M  V30 13139 C 1208.52 2.17296 -0.884289 0
M  V30 13140 C 1209.53 1.73408 0.143414 0
M  V30 13141 O 1210.71 2.01373 -0.0331987 0
M  V30 13142 C 1207.77 3.44509 -0.389163 0
M  V30 13143 C 1206.84 4.02906 -1.48208 0
M  V30 13144 C 1206.07 5.24047 -1.01048 0
M  V30 13145 O 1206.29 5.70229 0.139821 0
M  V30 13146 O 1205.23 5.74394 -1.79876 0
M  V30 13147 H 1209.05 2.4369 -1.81243 0
M  V30 13148 H 1206.64 1.15841 -0.943459 0
M  V30 13149 H 1208.52 4.21229 -0.120018 0
M  V30 13150 H 1207.19 3.19642 0.510968 0
M  V30 13151 H 1206.1 3.27677 -1.80496 0
M  V30 13152 H 1207.43 4.32068 -2.35751 0
M  V30 13153 N 1209.09 0.96196 1.24836 0
M  V30 13154 C 1210.03 0.479282 2.27609 0
M  V30 13155 C 1211.03 -0.454224 1.63197 0
M  V30 13156 O 1212.23 -0.330146 1.76946 0
M  V30 13157 H 1208.61 0.13651 0.739506 0
M  V30 13158 H 1210.58 1.35817 2.657 0
M  V30 13159 C 1209.33 -0.220499 3.47 0
M  V30 13160 H 1208.65 0.488694 3.96802 0
M  V30 13161 H 1210.09 -0.522137 4.20773 0
M  V30 13162 C 1208.55 -1.44552 3.04313 0
M  V30 13163 O 1209.08 -2.54287 3.10967 0
M  V30 13164 N 1207.29 -1.3095 2.59423 0
M  V30 13165 H 1206.83 -0.416656 2.54208 0
M  V30 13166 H 1206.79 -2.13029 2.31227 0
M  V30 13167 N 1210.56 -1.39601 0.731392 0
M  V30 13168 C 1211.84 -1.94531 0.20422 0
M  V30 13169 C 1212.22 -1.66845 -1.29329 0
M  V30 13170 O 1211.57 -0.994706 -2.05713 0
M  V30 13171 C 1211.78 -3.44891 0.53395 0
M  V30 13172 C 1213.13 -4.21863 0.481298 0
M  V30 13173 O 1214.15 -3.53073 0.470929 0
M  V30 13174 O 1213.01 -5.44452 0.472663 0
M  V30 13175 H 1210.1 -0.826214 0.0360436 0
M  V30 13176 H 1212.65 -1.49121 0.810005 0
M  V30 13177 H 1211.42 -3.58463 1.56907 0
M  V30 13178 H 1211.04 -3.97472 -0.10099 0
M  V30 13179 N 1212.04 -0.478751 -1.50152 0
M  V30 13180 C 1212.98 0.357584 -2.25381 0
M  V30 13181 C 1213.95 0.98965 -1.29014 0
M  V30 13182 O 1215.14 1.02409 -1.58255 0
M  V30 13183 C 1212.26 1.50167 -3.03591 0
M  V30 13184 C 1211.31 0.986215 -4.14941 0
M  V30 13185 S 1212.14 -0.105239 -5.35397 0
M  V30 13186 C 1213.3 1.04254 -6.17156 0
M  V30 13187 H 1213.53 -0.280985 -2.95969 0
M  V30 13188 H 1211.07 -0.263734 -1.52131 0
M  V30 13189 H 1213.02 2.15733 -3.49241 0
M  V30 13190 H 1211.68 2.11178 -2.32514 0
M  V30 13191 H 1210.88 1.84295 -4.69096 0
M  V30 13192 H 1210.48 0.408141 -3.71766 0
M  V30 13193 H 1212.77 1.95255 -6.48754 0
M  V30 13194 H 1213.71 0.540083 -7.06037 0
M  V30 13195 H 1214.12 1.29983 -5.49331 0
M  V30 13196 N 1213.52 1.56172 -0.211661 0
M  V30 13197 C 1214.45 2.22843 0.697375 0
M  V30 13198 C 1215.43 1.19689 1.20866 0
M  V30 13199 O 1216.62 1.48245 1.25447 0
M  V30 13200 C 1213.75 2.90067 1.90993 0
M  V30 13201 C 1212.7 3.99608 1.5329 0
M  V30 13202 C 1212.03 4.54078 2.82343 0
M  V30 13203 C 1213.33 5.17169 0.730333 0
M  V30 13204 H 1215.02 2.99065 0.141533 0
M  V30 13205 H 1212.57 1.43846 0.0666337 0
M  V30 13206 H 1214.52 3.35396 2.55123 0
M  V30 13207 H 1213.24 2.11276 2.49058 0
M  V30 13208 H 1211.9 3.54995 0.915115 0
M  V30 13209 H 1211.55 3.72029 3.38531 0
M  V30 13210 H 1211.25 5.28001 2.57853 0
M  V30 13211 H 1212.77 5.02119 3.47432 0
M  V30 13212 H 1214.19 5.5894 1.2751 0
M  V30 13213 H 1212.59 5.97262 0.582916 0
M  V30 13214 H 1213.66 4.84174 -0.265157 0
M  V30 13215 N 1215 -0.0618163 1.57479 0
M  V30 13216 C 1216.41 -0.612461 1.76368 0
M  V30 13217 C 1216.76 -1.77381 0.838466 0
M  V30 13218 O 1215.89 -2.16386 0.0250211 0
M  V30 13219 C 1216.48 -1.11782 3.19829 0
M  V30 13220 C 1215.04 -1.61424 3.40028 0
M  V30 13221 C 1214.19 -0.53795 2.72032 0
M  V30 13222 H 1217.14 0.164382 1.57846 0
M  V30 13223 H 1217.16 -1.98634 3.24538 0
M  V30 13224 H 1216.67 -0.272353 3.87143 0
M  V30 13225 H 1214.77 -2.48263 2.77842 0
M  V30 13226 H 1214.88 -1.68431 4.48517 0
M  V30 13227 H 1213.25 -0.985355 2.34868 0
M  V30 13228 H 1214.03 0.297495 3.42009 0
M  V30 13229 N 1216.48 -1.54033 -0.333429 0
M  V30 13230 C 1217.42 -1.83441 -1.43011 0
M  V30 13231 C 1218.42 -0.705592 -1.54006 0
M  V30 13232 O 1219.62 -0.889098 -1.56509 0
M  V30 13233 H 1216 -0.581326 -0.477037 0
M  V30 13234 H 1217.97 -2.75172 -1.15426 0
M  V30 13235 C 1216.72 -2.0698 -2.79382 0
M  V30 13236 H 1216.04 -2.93297 -2.71692 0
M  V30 13237 H 1217.48 -2.31517 -3.55212 0
M  V30 13238 C 1215.94 -0.85835 -3.25782 0
M  V30 13239 O 1216.47 -0.062739 -4.01651 0
M  V30 13240 N 1214.68 -0.672738 -2.82706 0
M  V30 13241 H 1214.22 -1.32136 -2.21128 0
M  V30 13242 H 1214.18 0.136347 -3.14104 0
M  V30 13243 N 1217.95 0.594978 -1.45938 0
M  V30 13244 C 1218.89 1.71911 -1.50072 0
M  V30 13245 C 1219.87 1.58657 -0.355913 0
M  V30 13246 O 1221.05 1.80043 -0.558272 0
M  V30 13247 C 1218.18 3.09858 -1.3677 0
M  V30 13248 C 1217.22 3.41667 -2.55277 0
M  V30 13249 S 1218.06 3.35101 -4.17693 0
M  V30 13250 C 1219.21 4.75606 -4.06878 0
M  V30 13251 H 1219.44 1.68143 -2.45184 0
M  V30 13252 H 1216.98 0.772698 -1.33674 0
M  V30 13253 H 1218.94 3.89444 -1.29782 0
M  V30 13254 H 1217.6 3.11128 -0.431073 0
M  V30 13255 H 1216.79 4.42138 -2.41929 0
M  V30 13256 H 1216.39 2.69622 -2.59191 0
M  V30 13257 H 1218.68 5.65708 -3.72801 0
M  V30 13258 H 1219.63 4.9401 -5.07306 0
M  V30 13259 H 1220.03 4.5188 -3.38327 0
M  V30 13260 N 1219.43 1.33438 0.838571 0
M  V30 13261 C 1220.85 1.12779 1.12929 0
M  V30 13262 C 1221.05 -0.0811188 2.01337 0
M  V30 13263 O 1220.1 -0.761294 2.4075 0
M  V30 13264 C 1221.42 2.41537 1.7911 0
M  V30 13265 C 1222.97 2.47447 1.91674 0
M  V30 13266 C 1223.44 3.76167 2.6127 0
M  V30 13267 N 1224.93 3.7724 2.68783 0
M  V30 13268 C 1225.67 4.7355 3.23323 0
M  V30 13269 N 1225.16 5.80235 3.78549 0
M  V30 13270 N 1226.96 4.61025 3.21578 0
M  V30 13271 H 1219.11 2.10921 0.250187 0
M  V30 13272 H 1221.37 0.931986 0.17351 0
M  V30 13273 H 1221.08 3.30006 1.21609 0
M  V30 13274 H 1220.95 2.53709 2.79127 0
M  V30 13275 H 1223.34 1.59427 2.48328 0
M  V30 13276 H 1223.42 2.39216 0.906058 0
M  V30 13277 H 1223.06 4.64569 2.05275 0
M  V30 13278 H 1222.99 3.81675 3.62811 0
M  V30 13279 H 1225.48 3.00138 2.29621 0
M  V30 13280 H 1225.8 6.49759 4.1837 0
M  V30 13281 H 1224.14 5.83969 3.76836 0
M  V30 13282 H 1227.33 3.76836 2.77691 0
M  V30 13283 H 1227.5 5.36253 3.63781 0
M  V30 13284 N 1220.91 -1.05686 1.16912 0
M  V30 13285 C 1222.16 -1.77987 0.948875 0
M  V30 13286 C 1222.47 -1.8845 -0.524011 0
M  V30 13287 O 1223.68 -2.57442 -0.862322 0
M  V30 13288 C 1222.13 -3.19927 1.64848 0
M  V30 13289 C 1221.74 -3.1761 3.15956 0
M  V30 13290 C 1223.49 -3.96719 1.51044 0
M  V30 13291 C 1221.39 -4.54307 3.78628 0
M  V30 13292 H 1220.32 -0.667119 0.35138 0
M  V30 13293 H 1222.97 -1.18496 1.40111 0
M  V30 13294 H 1221.36 -3.79714 1.12397 0
M  V30 13295 H 1222.53 -2.67369 3.75301 0
M  V30 13296 H 1220.85 -2.54317 3.29715 0
M  V30 13297 H 1223.44 -4.97779 1.95243 0
M  V30 13298 H 1223.79 -4.13748 0.460268 0
M  V30 13299 H 1224.32 -3.43468 2.00685 0
M  V30 13300 H 1221.06 -4.42484 4.8362 0
M  V30 13301 H 1220.58 -5.04717 3.24069 0
M  V30 13302 H 1222.26 -5.23255 3.80543 0
M  V30 13303 N 1222.39 -0.968567 -1.24324 0
M  V30 13304 C 1223.64 -0.629682 -1.9204 0
M  V30 13305 C 1223.96 0.837906 -1.7608 0
M  V30 13306 O 1223.23 1.5982 -1.13289 0
M  V30 13307 H 1221.81 -0.229901 -0.710742 0
M  V30 13308 H 1224.47 -1.22982 -1.512 0
M  V30 13309 H 1223.57 -0.871034 -2.99699 0
M  V30 13310 N 1223.87 1.39211 -0.738786 0
M  V30 13311 C 1224.83 2.28937 -0.109746 0
M  V30 13312 C 1225.83 1.46488 0.663157 0
M  V30 13313 O 1227.02 1.67119 0.491614 0
M  V30 13314 C 1224.15 3.30039 0.853633 0
M  V30 13315 H 1225.34 2.86068 -0.900295 0
M  V30 13316 H 1222.9 1.47922 -0.504853 0
M  V30 13317 H 1223.63 2.77971 1.6704 0
M  V30 13318 H 1223.42 3.90935 0.302007 0
M  V30 13319 H 1224.91 3.97169 1.29022 0
M  V30 13320 N 1225.34 0.486708 1.49896 0
M  V30 13321 C 1226.27 -0.288898 2.31706 0
M  V30 13322 C 1227.26 -0.975901 1.3932 0
M  V30 13323 O 1228.44 -0.970065 1.68236 0
M  V30 13324 C 1225.57 -1.36218 3.19471 0
M  V30 13325 C 1224.52 -0.795884 4.20535 0
M  V30 13326 C 1223.85 -1.96862 4.97141 0
M  V30 13327 C 1225.15 0.203421 5.21904 0
M  V30 13328 H 1226.84 0.393934 2.96797 0
M  V30 13329 H 1224.39 0.190894 1.42729 0
M  V30 13330 H 1226.34 -1.91238 3.75508 0
M  V30 13331 H 1225.07 -2.074 2.52295 0
M  V30 13332 H 1223.73 -0.267538 3.65622 0
M  V30 13333 H 1223.37 -2.66779 4.26425 0
M  V30 13334 H 1223.07 -1.59585 5.65514 0
M  V30 13335 H 1224.6 -2.52343 5.56017 0
M  V30 13336 H 1226.01 -0.258144 5.72719 0
M  V30 13337 H 1224.41 0.491273 5.98086 0
M  V30 13338 H 1225.48 1.12414 4.7169 0
M  V30 13339 N 1226.82 -1.56058 0.219941 0
M  V30 13340 C 1228.07 -1.97869 -0.411383 0
M  V30 13341 C 1228.39 -1.10878 -1.60409 0
M  V30 13342 O 1227.66 -0.185454 -1.9502 0
M  V30 13343 H 1226.24 -0.730747 -0.154979 0
M  V30 13344 H 1228.9 -1.92379 0.312461 0
M  V30 13345 H 1228 -3.0323 -0.738798 0
M  V30 13346 N 1228.3 0.053464 -1.57509 0
M  V30 13347 C 1229.55 0.749102 -1.88135 0
M  V30 13348 C 1229.88 1.76642 -0.814111 0
M  V30 13349 O 1229.13 1.94796 0.187845 0
M  V30 13350 C 1229.43 1.47666 -3.25468 0
M  V30 13351 C 1229.1 0.597619 -4.46922 0
M  V30 13352 C 1227.76 0.355429 -4.79886 0
M  V30 13353 C 1230.11 -0.0107869 -5.21199 0
M  V30 13354 C 1227.44 -0.504347 -5.84528 0
M  V30 13355 C 1229.79 -0.858123 -6.26753 0
M  V30 13356 C 1228.45 -1.11001 -6.58206 0
M  V30 13357 H 1227.72 0.274116 -0.688434 0
M  V30 13358 H 1230.37 0.00944162 -1.91498 0
M  V30 13359 H 1228.68 2.28901 -3.1798 0
M  V30 13360 H 1230.37 2.02002 -3.46404 0
M  V30 13361 H 1226.96 0.796526 -4.21134 0
M  V30 13362 H 1231.15 0.163404 -4.96031 0
M  V30 13363 H 1226.4 -0.708057 -6.07286 0
M  V30 13364 H 1230.58 -1.3362 -6.83461 0
M  V30 13365 H 1228.2 -1.77798 -7.39116 0
M  V30 13366 N 1229.78 1.54207 0.325255 0
M  V30 13367 C 1231 1.7661 1.08736 0
M  V30 13368 C 1231.43 0.512449 1.80985 0
M  V30 13369 O 1230.79 -0.535913 1.73198 0
M  V30 13370 C 1230.84 2.95797 2.06243 0
M  V30 13371 O 1229.94 2.67225 3.14109 0
M  V30 13372 H 1229.28 0.585282 0.313593 0
M  V30 13373 H 1231.81 2.01225 0.370066 0
M  V30 13374 H 1231.82 3.23097 2.49143 0
M  V30 13375 H 1230.5 3.86712 1.53058 0
M  V30 13376 H 1229.07 2.50869 2.75897 0
M  V30 13377 N 1231.26 -0.58723 1.46251 0
M  V30 13378 C 1232.51 -1.34294 1.51028 0
M  V30 13379 C 1232.83 -1.94329 0.161623 0
M  V30 13380 O 1232.1 -1.78309 -0.811342 0
M  V30 13381 H 1230.68 -0.498607 0.556238 0
M  V30 13382 H 1233.34 -0.688074 1.8235 0
M  V30 13383 H 1232.43 -2.15197 2.26045 0
M  V30 13384 N 1232.74 -1.33881 -0.831482 0
M  V30 13385 C 1233.7 -1.24654 -1.92339 0
M  V30 13386 C 1234.7 -0.163788 -1.59964 0
M  V30 13387 O 1235.89 -0.415829 -1.69164 0
M  V30 13388 C 1233.02 -0.922537 -3.2818 0
M  V30 13389 H 1234.21 -2.21717 -2.01944 0
M  V30 13390 H 1231.77 -1.18046 -1.02445 0
M  V30 13391 H 1232.5 0.0452872 -3.24268 0
M  V30 13392 H 1232.29 -1.70562 -3.53059 0
M  V30 13393 H 1233.78 -0.88292 -4.0816 0
M  V30 13394 N 1234.21 1.05064 -1.1747 0
M  V30 13395 C 1235.46 1.78089 -0.963883 0
M  V30 13396 C 1235.79 1.87766 0.507365 0
M  V30 13397 O 1235.04 1.37477 1.39279 0
M  V30 13398 C 1235.34 3.21961 -1.55164 0
M  V30 13399 C 1235.01 3.32339 -3.04732 0
M  V30 13400 C 1233.67 3.34878 -3.45557 0
M  V30 13401 C 1236.02 3.3325 -4.00741 0
M  V30 13402 C 1233.35 3.35959 -4.80987 0
M  V30 13403 C 1235.7 3.3587 -5.36073 0
M  V30 13404 C 1234.37 3.36697 -5.7636 0
M  V30 13405 H 1233.64 0.651672 -0.35271 0
M  V30 13406 H 1236.28 1.23471 -1.4638 0
M  V30 13407 H 1234.59 3.79514 -0.973471 0
M  V30 13408 H 1236.29 3.77087 -1.36406 0
M  V30 13409 H 1232.88 3.31076 -2.72188 0
M  V30 13410 H 1237.06 3.30488 -3.70258 0
M  V30 13411 H 1232.32 3.34911 -5.11512 0
M  V30 13412 H 1236.49 3.35524 -6.10243 0
M  V30 13413 H 1234.12 3.37288 -6.81279 0
M  V30 13414 N 1235.69 0.975146 1.23809 0
M  V30 13415 C 1236.6 0.51917 2.28783 0
M  V30 13416 C 1237.62 -0.423487 1.68768 0
M  V30 13417 O 1238.79 -0.294699 1.99232 0
M  V30 13418 C 1235.86 -0.176229 3.46252 0
M  V30 13419 C 1234.92 0.807177 4.21643 0
M  V30 13420 C 1234.15 0.144869 5.33503 0
M  V30 13421 O 1234.38 -1.06522 5.60365 0
M  V30 13422 O 1233.31 0.84079 5.95999 0
M  V30 13423 H 1237.14 1.39204 2.69919 0
M  V30 13424 H 1234.72 0.74253 1.29641 0
M  V30 13425 H 1236.6 -0.566547 4.17574 0
M  V30 13426 H 1235.28 -1.02394 3.07078 0
M  V30 13427 H 1234.18 1.2481 3.52666 0
M  V30 13428 H 1235.52 1.62354 4.64653 0
M  V30 13429 N 1237.17 -1.38817 0.746158 0
M  V30 13430 C 1238.45 -1.94303 0.224841 0
M  V30 13431 C 1238.83 -1.68207 -1.27552 0
M  V30 13432 O 1238.17 -1.01647 -2.04646 0
M  V30 13433 C 1238.38 -3.44306 0.5705 0
M  V30 13434 C 1239.73 -4.21329 0.526015 0
M  V30 13435 O 1240.76 -3.52554 0.508351 0
M  V30 13436 O 1239.62 -5.4392 0.530383 0
M  V30 13437 H 1236.71 -0.825785 0.0448047 0
M  V30 13438 H 1239.26 -1.48253 0.825775 0
M  V30 13439 H 1238.03 -3.56779 1.60701 0
M  V30 13440 H 1237.65 -3.97556 -0.0588271 0
M  V30 13441 N 1238.65 -0.49465 -1.49636 0
M  V30 13442 C 1240.06 -0.150217 -1.58892 0
M  V30 13443 C 1240.26 1.34485 -1.50053 0
M  V30 13444 O 1239.32 2.12026 -1.37118 0
M  V30 13445 C 1240.63 -0.721372 -2.91919 0
M  V30 13446 C 1242.18 -0.686908 -3.0537 0
M  V30 13447 C 1242.66 -1.23601 -4.41006 0
M  V30 13448 N 1244.15 -1.19644 -4.47481 0
M  V30 13449 C 1244.88 -1.59157 -5.50869 0
M  V30 13450 N 1244.38 -2.06232 -6.61393 0
M  V30 13451 N 1246.17 -1.50612 -5.41546 0
M  V30 13452 H 1238.32 -1.46675 -1.53624 0
M  V30 13453 H 1240.58 -0.608003 -0.727349 0
M  V30 13454 H 1240.29 -1.76964 -3.03935 0
M  V30 13455 H 1240.16 -0.178199 -3.76779 0
M  V30 13456 H 1242.55 0.352508 -2.92987 0
M  V30 13457 H 1242.63 -1.26716 -2.22209 0
M  V30 13458 H 1242.28 -2.27418 -4.5414 0
M  V30 13459 H 1242.21 -0.631765 -5.22797 0
M  V30 13460 H 1244.7 -0.851443 -3.68183 0
M  V30 13461 H 1245.01 -2.34469 -7.36372 0
M  V30 13462 H 1243.36 -2.10202 -6.6245 0
M  V30 13463 H 1246.55 -1.13659 -4.54092 0
M  V30 13464 H 1246.72 -1.8173 -6.21995 0
M  V30 13465 N 1240.13 1.55939 -0.228214 0
M  V30 13466 C 1241.4 1.90329 0.451033 0
M  V30 13467 C 1241.78 1.14646 1.77255 0
M  V30 13468 O 1241.13 0.257912 2.2704 0
M  V30 13469 C 1241.34 3.43129 0.637456 0
M  V30 13470 C 1242.69 4.14022 0.94186 0
M  V30 13471 O 1243.71 3.48764 0.724002 0
M  V30 13472 O 1242.57 5.29418 1.35568 0
M  V30 13473 H 1239.67 0.791591 0.2394 0
M  V30 13474 H 1242.21 1.67524 -0.270893 0
M  V30 13475 H 1240.98 3.90191 -0.294435 0
M  V30 13476 H 1240.61 3.71735 1.41062 0
M  V30 13477 N 1241.6 -0.0451101 1.57535 0
M  V30 13478 C 1243.02 -0.59372 1.77008 0
M  V30 13479 C 1243.37 -1.76482 0.857233 0
M  V30 13480 O 1242.49 -2.16347 0.0479703 0
M  V30 13481 C 1243.09 -1.08383 3.20996 0
M  V30 13482 C 1241.65 -1.57808 3.41721 0
M  V30 13483 C 1240.79 -0.509067 2.72587 0
M  V30 13484 H 1243.74 0.181114 1.57663 0
M  V30 13485 H 1243.76 -1.95181 3.26626 0
M  V30 13486 H 1243.28 -0.231276 3.8741 0
M  V30 13487 H 1241.38 -2.45302 2.8046 0
M  V30 13488 H 1241.49 -1.63664 4.50279 0
M  V30 13489 H 1239.85 -0.960389 2.359 0
M  V30 13490 H 1240.64 0.333753 3.41674 0
M  V30 13491 N 1243.08 -1.54377 -0.317073 0
M  V30 13492 C 1244.31 -1.76865 -1.07362 0
M  V30 13493 C 1244.73 -0.520354 -1.81488 0
M  V30 13494 O 1244.08 0.509213 -1.75252 0
M  V30 13495 C 1244.13 -2.96598 -2.06668 0
M  V30 13496 O 1243.85 -4.16602 -1.35552 0
M  V30 13497 C 1245.36 -3.31348 -2.94489 0
M  V30 13498 H 1242.58 -0.590277 -0.319083 0
M  V30 13499 H 1245.12 -2.01284 -0.361227 0
M  V30 13500 H 1243.27 -2.74433 -2.73432 0
M  V30 13501 H 1243.69 -4.83996 -2.02108 0
M  V30 13502 H 1245.16 -4.1841 -3.60051 0
M  V30 13503 H 1245.64 -2.48797 -3.61935 0
M  V30 13504 H 1246.25 -3.55614 -2.33278 0
M  V30 13505 N 1244.56 0.579466 -1.4656 0
M  V30 13506 C 1245.49 1.70291 -1.53406 0
M  V30 13507 C 1246.51 1.57232 -0.422116 0
M  V30 13508 O 1247.69 1.64598 -0.69064 0
M  V30 13509 C 1244.79 3.08572 -1.40131 0
M  V30 13510 C 1243.97 3.47602 -2.65502 0
M  V30 13511 C 1243.03 4.64955 -2.4638 0
M  V30 13512 O 1242.05 4.70653 -3.20116 0
M  V30 13513 N 1243.25 5.60041 -1.52756 0
M  V30 13514 H 1246.02 1.64873 -2.50274 0
M  V30 13515 H 1243.58 0.765533 -1.42658 0
M  V30 13516 H 1245.57 3.84877 -1.25106 0
M  V30 13517 H 1244.14 3.0834 -0.514322 0
M  V30 13518 H 1243.36 2.60969 -2.95446 0
M  V30 13519 H 1244.65 3.70446 -3.48779 0
M  V30 13520 H 1244.05 5.58176 -0.919587 0
M  V30 13521 H 1242.61 6.35764 -1.43693 0
M  V30 13522 N 1246.04 1.3432 0.824371 0
M  V30 13523 C 1247.29 1.26595 1.5805 0
M  V30 13524 C 1247.61 -0.164471 1.93803 0
M  V30 13525 O 1246.87 -1.12537 1.60106 0
M  V30 13526 C 1247.17 2.1008 2.89139 0
M  V30 13527 C 1246.83 3.59102 2.72684 0
M  V30 13528 C 1245.5 3.99726 2.67904 0
M  V30 13529 C 1247.85 4.53736 2.56463 0
M  V30 13530 C 1245.18 5.33178 2.44822 0
M  V30 13531 C 1247.53 5.87366 2.34913 0
M  V30 13532 C 1246.19 6.27155 2.28544 0
M  V30 13533 H 1245.46 0.463245 0.578347 0
M  V30 13534 H 1248.11 1.66048 0.953948 0
M  V30 13535 H 1246.41 1.6345 3.56078 0
M  V30 13536 H 1248.11 2.01451 3.46726 0
M  V30 13537 H 1244.7 3.26855 2.77244 0
M  V30 13538 H 1248.88 4.23248 2.5918 0
M  V30 13539 H 1244.14 5.63028 2.38348 0
M  V30 13540 H 1248.31 6.60286 2.21349 0
M  V30 13541 H 1245.94 7.30498 2.1042 0
M  V30 13542 N 1247.52 -1.0444 1.18026 0
M  V30 13543 C 1248.43 -2.15862 0.918747 0
M  V30 13544 C 1249.44 -1.73614 -0.115808 0
M  V30 13545 O 1250.62 -2.01294 0.0652312 0
M  V30 13546 C 1247.68 -3.43846 0.443922 0
M  V30 13547 C 1246.74 -4.00497 1.54599 0
M  V30 13548 C 1245.98 -5.22373 1.09372 0
M  V30 13549 O 1246.2 -5.70379 -0.049085 0
M  V30 13550 O 1245.13 -5.71459 1.88992 0
M  V30 13551 H 1248.96 -2.40776 1.85097 0
M  V30 13552 H 1246.55 -1.14326 0.961769 0
M  V30 13553 H 1248.43 -4.20985 0.187017 0
M  V30 13554 H 1247.1 -3.20414 -0.460051 0
M  V30 13555 H 1246.01 -3.24764 1.85686 0
M  V30 13556 H 1247.34 -4.28262 2.42595 0
M  V30 13557 N 1248.99 -0.981699 -1.2329 0
M  V30 13558 C 1249.9 -0.531296 -2.28505 0
M  V30 13559 C 1250.92 0.414531 -1.6899 0
M  V30 13560 O 1252.1 0.284129 -1.99386 0
M  V30 13561 C 1249.16 0.157864 -3.4634 0
M  V30 13562 C 1248.22 -0.829527 -4.21209 0
M  V30 13563 C 1247.46 -0.17316 -5.33419 0
M  V30 13564 O 1247.68 1.03549 -5.60922 0
M  V30 13565 O 1246.61 -0.872385 -5.95544 0
M  V30 13566 H 1250.44 -1.40633 -2.69177 0
M  V30 13567 H 1248.02 -0.749395 -1.29246 0
M  V30 13568 H 1249.91 0.544394 -4.17869 0
M  V30 13569 H 1248.58 1.00764 -3.07617 0
M  V30 13570 H 1247.49 -1.26678 -3.51999 0
M  V30 13571 H 1248.82 -1.64815 -4.63785 0
M  V30 13572 N 1250.47 1.3842 -0.753509 0
M  V30 13573 C 1251.89 1.53668 -0.431095 0
M  V30 13574 C 1252.09 1.71626 1.05578 0
M  V30 13575 O 1251.14 1.72723 1.84182 0
M  V30 13576 C 1252.46 2.74381 -1.23027 0
M  V30 13577 C 1254.01 2.8823 -1.22034 0
M  V30 13578 C 1254.48 4.11904 -2.00248 0
M  V30 13579 N 1255.97 4.18981 -1.97508 0
M  V30 13580 C 1256.71 5.13667 -2.5482 0
M  V30 13581 N 1256.2 6.14027 -3.20846 0
M  V30 13582 N 1258 5.06017 -2.44751 0
M  V30 13583 H 1250.15 1.25012 -1.71714 0
M  V30 13584 H 1252.41 0.607296 -0.727939 0
M  V30 13585 H 1252.12 2.67515 -2.28317 0
M  V30 13586 H 1251.99 3.67565 -0.847098 0
M  V30 13587 H 1254.38 2.94578 -0.175502 0
M  V30 13588 H 1254.46 1.96057 -1.64303 0
M  V30 13589 H 1254.1 4.06318 -3.04742 0
M  V30 13590 H 1254.03 5.03157 -1.55373 0
M  V30 13591 H 1256.52 3.47104 -1.49423 0
M  V30 13592 H 1256.84 6.82771 -3.61999 0
M  V30 13593 H 1255.18 6.1436 -3.24941 0
M  V30 13594 H 1258.37 4.26552 -1.92797 0
M  V30 13595 H 1258.54 5.7963 -2.89713 0
M  V30 13596 N 1251.95 0.502579 1.49372 0
M  V30 13597 C 1252.9 -0.294292 2.26093 0
M  V30 13598 C 1253.88 -0.934147 1.31006 0
M  V30 13599 O 1255.08 -0.841486 1.55718 0
M  V30 13600 C 1252.21 -1.3572 3.15333 0
M  V30 13601 C 1251.29 -0.723506 4.17883 0
M  V30 13602 N 1251.68 0.174787 5.05498 0
M  V30 13603 C 1249.98 -0.983906 4.35012 0
M  V30 13604 C 1250.68 0.537673 5.7921 0
M  V30 13605 N 1249.66 -0.0947799 5.43517 0
M  V30 13606 H 1253.46 0.397202 2.91204 0
M  V30 13607 H 1250.97 0.31876 1.59241 0
M  V30 13608 H 1252.97 -1.94154 3.6893 0
M  V30 13609 H 1251.63 -2.05036 2.51775 0
M  V30 13610 H 1252.64 0.545699 5.15017 0
M  V30 13611 H 1249.32 -1.66969 3.82658 0
M  V30 13612 H 1250.71 1.27266 6.59737 0
M  V30 13613 N 1253.43 -1.55816 0.23648 0
M  V30 13614 C 1254.36 -2.23924 -0.661834 0
M  V30 13615 C 1255.34 -1.21597 -1.18946 0
M  V30 13616 O 1256.52 -1.50222 -1.23073 0
M  V30 13617 C 1253.65 -2.93069 -1.86355 0
M  V30 13618 C 1252.61 -4.01996 -1.46913 0
M  V30 13619 C 1251.93 -4.58512 -2.75083 0
M  V30 13620 C 1253.23 -5.18265 -0.647964 0
M  V30 13621 H 1254.93 -2.99253 -0.0939368 0
M  V30 13622 H 1252.47 -1.43934 -0.0437407 0
M  V30 13623 H 1254.43 -3.39412 -2.49755 0
M  V30 13624 H 1253.15 -2.15212 -2.45665 0
M  V30 13625 H 1251.81 -3.56406 -0.858522 0
M  V30 13626 H 1251.46 -3.77368 -3.3257 0
M  V30 13627 H 1251.16 -5.32037 -2.49421 0
M  V30 13628 H 1252.68 -5.07583 -3.39399 0
M  V30 13629 H 1254.1 -5.60898 -1.18602 0
M  V30 13630 H 1252.49 -5.98114 -0.487823 0
M  V30 13631 H 1253.56 -4.83691 0.342151 0
M  V30 13632 N 1254.91 0.036755 -1.57557 0
M  V30 13633 C 1255.85 1.03975 -2.06053 0
M  V30 13634 C 1256.82 1.36384 -0.948089 0
M  V30 13635 O 1258.01 1.46853 -1.21815 0
M  V30 13636 C 1255.15 2.33796 -2.53837 0
M  V30 13637 C 1254.26 2.07614 -3.78841 0
M  V30 13638 C 1253.4 3.3125 -4.15267 0
M  V30 13639 C 1252.44 3.00587 -5.33211 0
M  V30 13640 N 1251.57 4.16653 -5.65106 0
M  V30 13641 H 1256.41 0.61924 -2.91495 0
M  V30 13642 H 1253.95 0.294151 -1.44129 0
M  V30 13643 H 1255.91 3.09639 -2.79606 0
M  V30 13644 H 1254.54 2.73584 -1.71323 0
M  V30 13645 H 1253.59 1.22302 -3.60203 0
M  V30 13646 H 1254.9 1.80989 -4.64806 0
M  V30 13647 H 1254.06 4.15466 -4.42123 0
M  V30 13648 H 1252.79 3.60981 -3.27939 0
M  V30 13649 H 1251.8 2.14772 -5.06115 0
M  V30 13650 H 1253.02 2.72142 -6.22186 0
M  V30 13651 H 1250.97 4.4635 -4.80737 0
M  V30 13652 H 1250.89 3.93425 -6.45564 0
M  V30 13653 H 1252.16 5.01764 -5.96534 0
M  V30 13654 N 1256.39 1.54543 0.308881 0
M  V30 13655 C 1257.63 1.73449 1.04506 0
M  V30 13656 C 1257.96 0.516034 1.8753 0
M  V30 13657 O 1257.22 -0.502106 1.89149 0
M  V30 13658 C 1257.51 2.97124 1.98626 0
M  V30 13659 C 1257.18 4.31256 1.31641 0
M  V30 13660 C 1255.84 4.67719 1.13105 0
M  V30 13661 C 1258.19 5.14437 0.836888 0
M  V30 13662 C 1255.52 5.84949 0.452878 0
M  V30 13663 C 1257.87 6.32365 0.172473 0
M  V30 13664 C 1256.54 6.67495 -0.0249143 0
M  V30 13665 H 1255.81 0.634697 0.382415 0
M  V30 13666 H 1258.46 1.88795 0.320714 0
M  V30 13667 H 1256.76 2.76526 2.77562 0
M  V30 13668 H 1258.46 3.08946 2.55643 0
M  V30 13669 H 1255.05 4.02576 1.47074 0
M  V30 13670 H 1259.23 4.86772 0.967834 0
M  V30 13671 H 1254.49 6.10717 0.288886 0
M  V30 13672 H 1258.66 6.96092 -0.207027 0
M  V30 13673 H 1256.29 7.5819 -0.552425 0
M  V30 13674 N 1257.86 -0.571685 1.46866 0
M  V30 13675 C 1258.79 -1.68994 1.61131 0
M  V30 13676 C 1259.77 -1.63728 0.461222 0
M  V30 13677 O 1260.96 -1.81574 0.688813 0
M  V30 13678 C 1258.09 -3.07638 1.61172 0
M  V30 13679 C 1257.04 -3.27742 2.75262 0
M  V30 13680 C 1256.37 -4.67025 2.60368 0
M  V30 13681 C 1257.67 -3.14511 4.16989 0
M  V30 13682 H 1259.36 -1.57311 2.54742 0
M  V30 13683 H 1256.91 -0.755382 1.22597 0
M  V30 13684 H 1258.86 -3.857 1.69744 0
M  V30 13685 H 1257.59 -3.20245 0.641122 0
M  V30 13686 H 1256.25 -2.52083 2.66176 0
M  V30 13687 H 1255.89 -4.76413 1.61368 0
M  V30 13688 H 1255.59 -4.81428 3.36899 0
M  V30 13689 H 1257.12 -5.47242 2.70848 0
M  V30 13690 H 1258.53 -3.82407 4.27128 0
M  V30 13691 H 1256.93 -3.40431 4.94193 0
M  V30 13692 H 1258 -2.11443 4.36371 0
M  V30 13693 N 1259.34 -1.34755 -0.817236 0
M  V30 13694 C 1260.27 -1.22648 -1.93624 0
M  V30 13695 C 1261.29 -0.152226 -1.62087 0
M  V30 13696 O 1262.48 -0.404578 -1.73855 0
M  V30 13697 C 1259.58 -0.863519 -3.27714 0
M  V30 13698 C 1258.75 -2.03394 -3.87233 0
M  V30 13699 C 1257.81 -1.64846 -4.99712 0
M  V30 13700 O 1256.83 -2.3658 -5.17705 0
M  V30 13701 N 1258.04 -0.565909 -5.77735 0
M  V30 13702 H 1260.8 -2.19051 -2.0454 0
M  V30 13703 H 1258.36 -1.27785 -0.994113 0
M  V30 13704 H 1260.35 -0.58733 -4.00415 0
M  V30 13705 H 1258.92 0.0104987 -3.12598 0
M  V30 13706 H 1258.14 -2.47454 -3.06856 0
M  V30 13707 H 1259.43 -2.81655 -4.23731 0
M  V30 13708 H 1258.83 0.030313 -5.65692 0
M  V30 13709 H 1257.39 -0.349467 -6.50862 0
M  V30 13710 N 1260.82 1.03812 -1.18578 0
M  V30 13711 C 1261.75 2.11928 -0.872871 0
M  V30 13712 C 1262.76 1.62275 0.130592 0
M  V30 13713 O 1263.95 1.78233 -0.0975869 0
M  V30 13714 C 1261.05 3.37714 -0.283321 0
M  V30 13715 C 1260.23 4.16591 -1.33307 0
M  V30 13716 C 1259.29 5.20701 -0.758746 0
M  V30 13717 O 1258.31 5.50837 -1.43412 0
M  V30 13718 N 1259.51 5.78811 0.442505 0
M  V30 13719 H 1262.28 2.39364 -1.80346 0
M  V30 13720 H 1259.84 1.20027 -1.08652 0
M  V30 13721 H 1261.83 4.04538 0.114524 0
M  V30 13722 H 1260.4 3.07699 0.551347 0
M  V30 13723 H 1259.62 3.45051 -1.90613 0
M  V30 13724 H 1260.91 4.66082 -2.04071 0
M  V30 13725 H 1260.31 5.56631 1.00889 0
M  V30 13726 H 1258.86 6.47089 0.78224 0
M  V30 13727 N 1262.3 0.988223 1.22768 0
M  V30 13728 C 1263.23 0.554478 2.26821 0
M  V30 13729 C 1264.21 -0.416293 1.64927 0
M  V30 13730 O 1265.39 -0.30795 1.91743 0
M  V30 13731 C 1262.52 -0.136266 3.47033 0
M  V30 13732 C 1261.48 0.752575 4.21332 0
M  V30 13733 C 1260.8 -0.0708236 5.34653 0
M  V30 13734 C 1262.1 2.04717 4.80508 0
M  V30 13735 H 1263.8 1.42423 2.63355 0
M  V30 13736 H 1261.34 0.686267 1.26595 0
M  V30 13737 H 1263.3 -0.451068 4.18979 0
M  V30 13738 H 1262.02 -1.04053 3.09581 0
M  V30 13739 H 1260.68 1.05095 3.51213 0
M  V30 13740 H 1260.33 -0.975859 4.93443 0
M  V30 13741 H 1260.03 0.520835 5.85287 0
M  V30 13742 H 1261.55 -0.379828 6.09417 0
M  V30 13743 H 1262.97 1.79663 5.44421 0
M  V30 13744 H 1261.36 2.58726 5.41462 0
M  V30 13745 H 1262.43 2.72896 4.00819 0
M  V30 13746 N 1263.78 -1.38018 0.760839 0
M  V30 13747 C 1265.02 -1.99557 0.319609 0
M  V30 13748 C 1265.34 -1.60699 -1.10457 0
M  V30 13749 O 1264.61 -0.867248 -1.75658 0
M  V30 13750 H 1263.19 -0.738066 0.115182 0
M  V30 13751 H 1265.86 -1.6867 0.976544 0
M  V30 13752 H 1264.95 -3.09672 0.388523 0
M  V30 13753 N 1265.25 -0.510493 -1.49103 0
M  V30 13754 C 1266.2 0.262848 -2.29298 0
M  V30 13755 C 1267.17 0.951714 -1.36131 0
M  V30 13756 O 1268.36 0.956534 -1.65091 0
M  V30 13757 C 1265.5 1.31565 -3.19037 0
M  V30 13758 C 1264.61 0.637598 -4.27269 0
M  V30 13759 C 1263.74 1.67165 -5.04212 0
M  V30 13760 C 1262.78 0.975992 -6.04269 0
M  V30 13761 N 1261.92 1.95468 -6.74342 0
M  V30 13762 H 1266.76 -0.427246 -2.94921 0
M  V30 13763 H 1264.3 -0.222538 -1.45407 0
M  V30 13764 H 1266.25 1.93813 -3.69449 0
M  V30 13765 H 1264.88 1.97438 -2.55379 0
M  V30 13766 H 1263.94 -0.0983863 -3.80273 0
M  V30 13767 H 1265.25 0.0904435 -4.98718 0
M  V30 13768 H 1264.4 2.36893 -5.5854 0
M  V30 13769 H 1263.14 2.25267 -4.32557 0
M  V30 13770 H 1262.15 0.264534 -5.49163 0
M  V30 13771 H 1263.37 0.40134 -6.77913 0
M  V30 13772 H 1261.32 2.52515 -6.05452 0
M  V30 13773 H 1261.23 1.45845 -7.41799 0
M  V30 13774 H 1262.5 2.64455 -7.33269 0
M  V30 13775 N 1266.73 1.55688 -0.24474 0
M  V30 13776 C 1267.98 1.98498 0.379852 0
M  V30 13777 C 1268.3 1.13416 1.58625 0
M  V30 13778 O 1267.57 0.216456 1.947 0
M  V30 13779 H 1266.15 0.73312 0.143334 0
M  V30 13780 H 1268.81 1.91858 -0.343027 0
M  V30 13781 H 1267.91 3.04367 0.690463 0
M  V30 13782 N 1268.21 -0.0283989 1.57574 0
M  V30 13783 C 1269.16 -1.04723 2.07692 0
M  V30 13784 C 1270.15 -1.37399 0.990847 0
M  V30 13785 O 1271.36 -1.36297 1.17572 0
M  V30 13786 H 1267.73 -0.355251 0.662798 0
M  V30 13787 H 1269.7 -0.598737 2.92331 0
M  V30 13788 C 1268.45 -2.33941 2.57229 0
M  V30 13789 H 1267.78 -2.09659 3.40416 0
M  V30 13790 H 1269.22 -3.03574 2.96005 0
M  V30 13791 C 1267.67 -3.02953 1.47381 0
M  V30 13792 O 1268.2 -3.9281 0.840431 0
M  V30 13793 N 1266.41 -2.64294 1.20819 0
M  V30 13794 H 1265.96 -1.91307 1.72509 0
M  V30 13795 H 1265.92 -3.10786 0.475353 0
M  V30 13796 N 1269.69 -1.54705 -0.300681 0
M  V30 13797 C 1270.93 -1.74001 -1.03585 0
M  V30 13798 C 1271.26 -0.525972 -1.87253 0
M  V30 13799 O 1270.52 0.492068 -1.89413 0
M  V30 13800 C 1270.82 -2.98173 -1.97047 0
M  V30 13801 C 1270.48 -4.31948 -1.29352 0
M  V30 13802 C 1269.14 -4.68312 -1.10623 0
M  V30 13803 C 1271.5 -5.14874 -0.809594 0
M  V30 13804 C 1268.82 -5.85181 -0.42185 0
M  V30 13805 C 1271.18 -6.32447 -0.138935 0
M  V30 13806 C 1269.84 -6.67473 0.0603129 0
M  V30 13807 H 1269.11 -0.636716 -0.379044 0
M  V30 13808 H 1271.76 -1.88963 -0.310697 0
M  V30 13809 H 1270.06 -2.77994 -2.76091 0
M  V30 13810 H 1271.76 -3.10297 -2.54001 0
M  V30 13811 H 1268.35 -4.0335 -1.44937 0
M  V30 13812 H 1272.53 -4.87278 -0.942006 0
M  V30 13813 H 1267.79 -6.10862 -0.256494 0
M  V30 13814 H 1271.96 -6.95973 0.243939 0
M  V30 13815 H 1269.59 -7.57887 0.592626 0
M  V30 13816 N 1271.17 0.563888 -1.47167 0
M  V30 13817 C 1272.41 1.31875 -1.53145 0
M  V30 13818 C 1272.74 1.94047 -0.192518 0
M  V30 13819 O 1272.01 1.79577 0.782872 0
M  V30 13820 H 1270.59 0.489694 -0.5641 0
M  V30 13821 H 1273.25 0.658976 -1.83422 0
M  V30 13822 H 1272.34 2.11574 -2.2944 0
M  V30 13823 N 1272.64 1.35187 0.810078 0
M  V30 13824 C 1273.87 1.31528 1.60359 0
M  V30 13825 C 1274.29 -0.105385 1.87805 0
M  V30 13826 O 1273.65 -1.07113 1.46276 0
M  V30 13827 C 1273.7 2.12429 2.91386 0
M  V30 13828 O 1272.8 1.50262 3.84051 0
M  V30 13829 H 1272.15 0.451122 0.487222 0
M  V30 13830 H 1274.68 1.78178 1.00568 0
M  V30 13831 H 1274.69 2.24257 3.40841 0
M  V30 13832 H 1273.36 3.15714 2.70735 0
M  V30 13833 H 1271.94 1.47253 3.42594 0
M  V30 13834 N 1274.12 -1.03182 1.19127 0
M  V30 13835 C 1275.37 -1.76794 0.993563 0
M  V30 13836 C 1275.7 -1.88306 -0.474809 0
M  V30 13837 O 1274.98 -1.39769 -1.35258 0
M  V30 13838 C 1275.26 -3.19573 1.65968 0
M  V30 13839 C 1275.11 -3.1595 3.2015 0
M  V30 13840 C 1276.43 -4.17897 1.38023 0
M  V30 13841 H 1273.55 -0.641768 0.362357 0
M  V30 13842 H 1276.19 -1.20472 1.46924 0
M  V30 13843 H 1274.34 -3.67663 1.25524 0
M  V30 13844 H 1276.01 -2.7578 3.69788 0
M  V30 13845 H 1274.26 -2.53743 3.51848 0
M  V30 13846 H 1274.93 -4.16811 3.61901 0
M  V30 13847 H 1277.4 -3.78394 1.73082 0
M  V30 13848 H 1276.28 -5.15997 1.87186 0
M  V30 13849 H 1276.54 -4.41048 0.304812 0
M  V30 13850 N 1275.6 -0.99472 -1.22242 0
M  V30 13851 C 1276.51 -0.555502 -2.27928 0
M  V30 13852 C 1277.53 0.396584 -1.6942 0
M  V30 13853 O 1278.7 0.262965 -1.99676 0
M  V30 13854 C 1275.77 0.121121 -3.46488 0
M  V30 13855 C 1274.83 -0.874155 -4.20306 0
M  V30 13856 C 1274.06 -0.229726 -5.33205 0
M  V30 13857 O 1274.28 0.975935 -5.61989 0
M  V30 13858 O 1273.22 -0.935501 -5.94586 0
M  V30 13859 H 1277.04 -1.4348 -2.6767 0
M  V30 13860 H 1274.63 -0.763061 -1.28444 0
M  V30 13861 H 1276.51 0.500043 -4.18423 0
M  V30 13862 H 1275.19 0.974959 -3.08668 0
M  V30 13863 H 1274.09 -1.30404 -3.50636 0
M  V30 13864 H 1275.43 -1.69725 -4.62011 0
M  V30 13865 N 1277.08 1.37613 -0.768148 0
M  V30 13866 C 1278.01 2.27988 -0.098355 0
M  V30 13867 C 1278.99 1.46137 0.712939 0
M  V30 13868 O 1280.17 1.75477 0.68847 0
M  V30 13869 C 1277.3 3.27413 0.867086 0
M  V30 13870 C 1276.35 4.26269 0.140235 0
M  V30 13871 S 1277.18 5.2258 -1.16921 0
M  V30 13872 C 1278.34 6.25557 -0.207221 0
M  V30 13873 H 1278.57 2.84447 -0.864693 0
M  V30 13874 H 1276.1 1.43833 -0.561376 0
M  V30 13875 H 1278.06 3.85205 1.41872 0
M  V30 13876 H 1276.72 2.69908 1.6065 0
M  V30 13877 H 1275.91 4.964 0.871977 0
M  V30 13878 H 1275.52 3.72449 -0.340294 0
M  V30 13879 H 1277.81 6.74642 0.621654 0
M  V30 13880 H 1278.75 7.02653 -0.876595 0
M  V30 13881 H 1279.16 5.64213 0.179968 0
M  V30 13882 N 1278.56 0.518393 1.4883 0
M  V30 13883 C 1279.8 -0.0180482 2.04392 0
M  V30 13884 C 1280.16 -1.32666 1.38794 0
M  V30 13885 O 1281.36 -1.94842 1.85176 0
M  V30 13886 C 1279.63 -0.149457 3.57087 0
M  V30 13887 S 1281.19 -0.637636 4.34142 0
M  V30 13888 H 1278.01 0.00651981 0.71097 0
M  V30 13889 H 1280.61 0.69632 1.82679 0
M  V30 13890 H 1279.32 0.807977 4.02368 0
M  V30 13891 H 1278.85 -0.888549 3.83234 0
M  V30 13892 H 1280.86 -1.90406 4.58214 0
M  V30 13893 N 1280.03 -1.55556 0.252993 0
M  V30 13894 C 1281.45 -1.59276 -0.101714 0
M  V30 13895 C 1281.65 -1.27018 -1.56424 0
M  V30 13896 O 1280.71 -1.02042 -2.30963 0
M  V30 13897 C 1282.02 -2.99634 0.252969 0
M  V30 13898 C 1283.57 -3.12375 0.197767 0
M  V30 13899 C 1284.04 -4.54963 0.52657 0
M  V30 13900 N 1285.53 -4.60734 0.477296 0
M  V30 13901 C 1286.27 -5.69052 0.704793 0
M  V30 13902 N 1285.76 -6.85607 0.99574 0
M  V30 13903 N 1287.56 -5.58501 0.635086 0
M  V30 13904 H 1279.71 -1.74793 1.2067 0
M  V30 13905 H 1281.97 -0.813971 0.485958 0
M  V30 13906 H 1281.68 -3.27998 1.26926 0
M  V30 13907 H 1281.55 -3.74888 -0.416984 0
M  V30 13908 H 1283.94 -2.83788 -0.809209 0
M  V30 13909 H 1284.02 -2.39382 0.901659 0
M  V30 13910 H 1283.66 -4.84271 1.53113 0
M  V30 13911 H 1283.59 -5.26224 -0.198869 0
M  V30 13912 H 1286.08 -3.76995 0.261398 0
M  V30 13913 H 1286.4 -7.64096 1.15659 0
M  V30 13914 H 1284.74 -6.87276 1.03328 0
M  V30 13915 H 1287.93 -4.6632 0.407789 0
M  V30 13916 H 1288.11 -6.42845 0.815777 0
M  V30 13917 N 1281.51 0.0200419 -1.57587 0
M  V30 13918 C 1282.74 0.719511 -1.93666 0
M  V30 13919 C 1283.15 1.68934 -0.85193 0
M  V30 13920 O 1282.49 1.8282 0.179593 0
M  V30 13921 C 1282.56 1.52382 -3.25607 0
M  V30 13922 C 1282.22 0.717784 -4.51328 0
M  V30 13923 C 1283.22 0.0141272 -5.19898 0
M  V30 13924 C 1280.9 0.669662 -4.97816 0
M  V30 13925 C 1282.9 -0.726853 -6.33242 0
M  V30 13926 C 1280.58 -0.0750577 -6.11054 0
M  V30 13927 C 1281.58 -0.772067 -6.78622 0
M  V30 13928 O 1281.27 -1.50468 -7.89693 0
M  V30 13929 H 1281 0.206681 -0.643629 0
M  V30 13930 H 1283.55 -0.0211203 -2.05389 0
M  V30 13931 H 1281.78 2.30848 -3.10236 0
M  V30 13932 H 1283.47 2.10675 -3.46945 0
M  V30 13933 H 1284.24 0.0422784 -4.84982 0
M  V30 13934 H 1280.12 1.20169 -4.45062 0
M  V30 13935 H 1283.66 -1.27143 -6.85916 0
M  V30 13936 H 1279.56 -0.1051 -6.45414 0
M  V30 13937 H 1280.33 -1.41929 -8.06101 0
M  V30 13938 N 1282.99 1.54862 0.292472 0
M  V30 13939 C 1284.27 1.65237 1.04671 0
M  V30 13940 C 1284.65 0.506168 2.04942 0
M  V30 13941 O 1284 -0.496123 2.23049 0
M  V30 13942 C 1284.21 3.03618 1.72095 0
M  V30 13943 C 1285.55 3.6072 2.23979 0
M  V30 13944 O 1286.58 3.06126 1.82114 0
M  V30 13945 O 1285.44 4.56328 3.0071 0
M  V30 13946 H 1282.53 0.670347 0.484319 0
M  V30 13947 H 1285.08 1.67206 0.28988 0
M  V30 13948 H 1283.85 3.78482 0.993324 0
M  V30 13949 H 1283.47 3.05464 2.54514 0
M  V30 13950 N 1284.47 -0.556076 1.47464 0
M  V30 13951 C 1285.88 -1.1382 1.47993 0
M  V30 13952 C 1286.23 -1.94785 0.235249 0
M  V30 13953 O 1285.36 -2.06098 -0.659752 0
M  V30 13954 C 1285.95 -2.07082 2.68146 0
M  V30 13955 C 1284.51 -2.60564 2.71631 0
M  V30 13956 C 1283.66 -1.36967 2.41113 0
M  V30 13957 H 1286.61 -0.34262 1.54957 0
M  V30 13958 H 1286.63 -2.90975 2.45181 0
M  V30 13959 H 1286.14 -1.48127 3.5872 0
M  V30 13960 H 1284.24 -3.23314 1.852 0
M  V30 13961 H 1284.35 -3.0148 3.72353 0
M  V30 13962 H 1282.72 -1.67678 1.91719 0
M  V30 13963 H 1283.5 -0.79803 3.33896 0
M  V30 13964 N 1285.95 -1.35615 -0.802897 0
M  V30 13965 C 1286.88 -1.31506 -1.92947 0
M  V30 13966 C 1287.86 -0.188843 -1.69048 0
M  V30 13967 O 1289.04 -0.384384 -1.90358 0
M  V30 13968 C 1286.17 -1.09001 -3.29752 0
M  V30 13969 C 1285.13 -2.18303 -3.68141 0
M  V30 13970 C 1284.45 -1.80959 -5.03148 0
M  V30 13971 C 1285.75 -3.60296 -3.78132 0
M  V30 13972 H 1287.45 -2.25771 -1.96642 0
M  V30 13973 H 1284.99 -1.08682 -0.944685 0
M  V30 13974 H 1286.95 -1.04766 -4.08169 0
M  V30 13975 H 1285.67 -0.111832 -3.26408 0
M  V30 13976 H 1284.33 -2.21642 -2.92011 0
M  V30 13977 H 1283.98 -0.817495 -4.96312 0
M  V30 13978 H 1283.68 -2.54129 -5.29804 0
M  V30 13979 H 1285.2 -1.78255 -5.84001 0
M  V30 13980 H 1286.62 -3.59259 -4.46773 0
M  V30 13981 H 1285.01 -4.32258 -4.16261 0
M  V30 13982 H 1286.08 -3.9618 -2.79588 0
M  V30 13983 N 1287.43 1.02549 -1.19673 0
M  V30 13984 C 1288.36 2.10991 -0.8953 0
M  V30 13985 C 1289.37 1.62405 0.113373 0
M  V30 13986 O 1290.56 1.7812 -0.116485 0
M  V30 13987 C 1287.66 3.37394 -0.319124 0
M  V30 13988 C 1286.83 4.15154 -1.37718 0
M  V30 13989 C 1285.89 5.19867 -0.81393 0
M  V30 13990 O 1284.92 5.49285 -1.49246 0
M  V30 13991 N 1286.12 5.79248 0.381089 0
M  V30 13992 H 1288.88 2.37438 -1.82875 0
M  V30 13993 H 1286.45 1.18867 -1.09919 0
M  V30 13994 H 1288.44 4.04637 0.0716106 0
M  V30 13995 H 1287.01 3.08267 0.518681 0
M  V30 13996 H 1286.23 3.4301 -1.94262 0
M  V30 13997 H 1287.52 4.63892 -2.09003 0
M  V30 13998 H 1286.91 5.5767 0.949791 0
M  V30 13999 H 1285.47 6.47882 0.713563 0
M  V30 14000 N 1288.9 1.00119 1.21713 0
M  V30 14001 C 1290.18 0.597366 1.86255 0
M  V30 14002 C 1290.56 -0.925124 1.89749 0
M  V30 14003 O 1289.91 -1.8105 1.39402 0
M  V30 14004 C 1290.12 1.22735 3.26707 0
M  V30 14005 C 1291.47 1.33307 4.03131 0
M  V30 14006 O 1292.49 1.18237 3.36003 0
M  V30 14007 O 1291.35 1.57509 5.2331 0
M  V30 14008 H 1288.44 0.204091 0.801421 0
M  V30 14009 H 1290.99 1.09759 1.29426 0
M  V30 14010 H 1289.76 2.26837 3.18843 0
M  V30 14011 H 1289.38 0.713232 3.91151 0
M  V30 14012 N 1290.38 -1.37203 0.775435 0
M  V30 14013 C 1291.33 -2.32102 0.152051 0
M  V30 14014 C 1292.32 -1.55117 -0.680806 0
M  V30 14015 O 1293.53 -1.70486 -0.577455 0
M  V30 14016 H 1289.9 -0.751386 0.0303853 0
M  V30 14017 H 1291.88 -2.82259 0.968121 0
M  V30 14018 C 1290.62 -3.40378 -0.709788 0
M  V30 14019 H 1289.95 -3.99723 -0.0782879 0
M  V30 14020 H 1291.39 -4.09134 -1.11288 0
M  V30 14021 C 1289.85 -2.80769 -1.862 0
M  V30 14022 O 1290.38 -2.71813 -2.95771 0
M  V30 14023 N 1288.58 -2.38259 -1.66376 0
M  V30 14024 H 1288.13 -2.45743 -0.772531 0
M  V30 14025 H 1288.09 -1.98721 -2.43634 0
M  V30 14026 N 1291.86 -0.526279 -1.48553 0
M  V30 14027 C 1293.09 0.0052277 -2.06899 0
M  V30 14028 C 1293.5 1.2849 -1.38332 0
M  V30 14029 O 1292.86 1.76354 -0.469648 0
M  V30 14030 C 1292.91 0.236709 -3.60724 0
M  V30 14031 O 1292.63 -0.992256 -4.26715 0
M  V30 14032 C 1294.13 0.809014 -4.35855 0
M  V30 14033 H 1291.35 -0.0318426 -0.670244 0
M  V30 14034 H 1293.9 -0.730865 -1.90994 0
M  V30 14035 H 1292.05 0.922842 -3.76248 0
M  V30 14036 H 1292.47 -0.770697 -5.18807 0
M  V30 14037 H 1293.94 0.920428 -5.44272 0
M  V30 14038 H 1294.42 1.81302 -4.00033 0
M  V30 14039 H 1295.02 0.159564 -4.25001 0
M  V30 14040 N 1293.34 1.5542 -0.261239 0
M  V30 14041 C 1294.59 1.9889 0.358777 0
M  V30 14042 C 1294.91 1.15092 1.57413 0
M  V30 14043 O 1294.18 0.237095 1.9446 0
M  V30 14044 H 1292.76 0.734599 0.13555 0
M  V30 14045 H 1295.42 1.91483 -0.363357 0
M  V30 14046 H 1294.51 3.05082 0.658142 0
M  V30 14047 N 1294.82 -0.0116844 1.57596 0
M  V30 14048 C 1295.73 -1.02342 2.111 0
M  V30 14049 C 1296.74 -1.38478 1.05355 0
M  V30 14050 O 1297.92 -1.47447 1.37191 0
M  V30 14051 C 1294.98 -2.30016 2.5941 0
M  V30 14052 C 1294.04 -2.003 3.79708 0
M  V30 14053 C 1293.28 -3.21888 4.25704 0
M  V30 14054 O 1293.5 -4.33171 3.71106 0
M  V30 14055 O 1292.43 -3.0657 5.17975 0
M  V30 14056 H 1296.26 -0.598637 2.97742 0
M  V30 14057 H 1293.84 -0.229779 1.47622 0
M  V30 14058 H 1295.73 -3.05044 2.90733 0
M  V30 14059 H 1294.4 -2.71755 1.75871 0
M  V30 14060 H 1293.31 -1.22785 3.53376 0
M  V30 14061 H 1294.64 -1.63406 4.64284 0
M  V30 14062 N 1296.29 -1.55015 -0.284256 0
M  V30 14063 C 1297.54 -1.7535 -1.01884 0
M  V30 14064 C 1297.87 -0.546825 -1.86342 0
M  V30 14065 O 1297.15 0.455832 -1.89083 0
M  V30 14066 C 1297.43 -3.05219 -1.91084 0
M  V30 14067 C 1297.28 -4.36219 -1.09694 0
M  V30 14068 C 1298.6 -3.31056 -2.89983 0
M  V30 14069 H 1295.72 -0.637981 -0.368984 0
M  V30 14070 H 1298.36 -1.87741 -0.292116 0
M  V30 14071 H 1296.51 -2.94786 -2.53048 0
M  V30 14072 H 1298.19 -4.58594 -0.498876 0
M  V30 14073 H 1296.43 -4.31951 -0.400078 0
M  V30 14074 H 1297.1 -5.23392 -1.75399 0
M  V30 14075 H 1299.58 -3.41209 -2.38151 0
M  V30 14076 H 1298.45 -4.23212 -3.49547 0
M  V30 14077 H 1298.71 -2.50153 -3.64521 0
M  V30 14078 N 1297.77 0.548248 -1.47757 0
M  V30 14079 C 1299.02 1.30694 -1.55071 0
M  V30 14080 C 1299.35 1.92994 -0.216075 0
M  V30 14081 O 1298.63 1.78341 0.776196 0
M  V30 14082 C 1298.91 2.41024 -2.67543 0
M  V30 14083 C 1298.76 1.83534 -4.10652 0
M  V30 14084 C 1300.08 3.42902 -2.75874 0
M  V30 14085 H 1297.2 0.47383 -0.564494 0
M  V30 14086 H 1299.84 0.612628 -1.79852 0
M  V30 14087 H 1297.99 3.00248 -2.46543 0
M  V30 14088 H 1299.66 1.28503 -4.4304 0
M  V30 14089 H 1297.91 1.14161 -4.18509 0
M  V30 14090 H 1298.58 2.63335 -4.85138 0
M  V30 14091 H 1301.05 2.9361 -2.94843 0
M  V30 14092 H 1299.93 4.17516 -3.5633 0
M  V30 14093 H 1300.19 4.02314 -1.83291 0
M  V30 14094 N 1299.25 1.36039 0.795694 0
M  V30 14095 C 1300.21 1.29709 1.88966 0
M  V30 14096 C 1301.21 0.206142 1.59473 0
M  V30 14097 O 1302.4 0.460534 1.68002 0
M  V30 14098 C 1299.53 1.00922 3.25619 0
M  V30 14099 H 1300.73 2.26993 1.95995 0
M  V30 14100 H 1298.28 1.2072 0.992791 0
M  V30 14101 H 1299.02 0.0407027 3.24274 0
M  V30 14102 H 1298.8 1.79863 3.48413 0
M  V30 14103 H 1300.29 0.990826 4.05675 0
M  V30 14104 N 1300.73 -1.01913 1.20215 0
M  V30 14105 C 1301.97 -1.7573 1.01226 0
M  V30 14106 C 1302.31 -1.88799 -0.45481 0
M  V30 14107 O 1301.58 -1.41196 -1.33768 0
M  V30 14108 C 1301.87 -3.17795 1.69348 0
M  V30 14109 C 1301.72 -3.12536 3.23483 0
M  V30 14110 C 1303.04 -4.16409 1.42448 0
M  V30 14111 H 1300.16 -0.637889 0.369144 0
M  V30 14112 H 1302.8 -1.18907 1.48193 0
M  V30 14113 H 1300.95 -3.66311 1.29416 0
M  V30 14114 H 1302.62 -2.71843 3.72692 0
M  V30 14115 H 1300.86 -2.49997 3.54519 0
M  V30 14116 H 1301.53 -4.12949 3.66302 0
M  V30 14117 H 1304.01 -3.76537 1.77086 0
M  V30 14118 H 1302.89 -5.13983 1.92648 0
M  V30 14119 H 1303.15 -4.407 0.351574 0
M  V30 14120 N 1302.21 -1.00763 -1.2118 0
M  V30 14121 C 1303.15 -0.570257 -2.23644 0
M  V30 14122 C 1304.12 0.405039 -1.61086 0
M  V30 14123 O 1305.31 0.306496 -1.88322 0
M  V30 14124 C 1302.45 0.094325 -3.44971 0
M  V30 14125 C 1301.56 -0.924463 -4.21993 0
M  V30 14126 C 1300.7 -0.231869 -5.30694 0
M  V30 14127 C 1299.74 -1.23803 -5.99449 0
M  V30 14128 N 1298.87 -0.572725 -6.9976 0
M  V30 14129 H 1303.71 -1.44869 -2.60417 0
M  V30 14130 H 1301.25 -0.725369 -1.27972 0
M  V30 14131 H 1303.21 0.496689 -4.14233 0
M  V30 14132 H 1301.84 0.936457 -3.08918 0
M  V30 14133 H 1300.89 -1.44505 -3.51884 0
M  V30 14134 H 1302.2 -1.69004 -4.69296 0
M  V30 14135 H 1301.36 0.226465 -6.06277 0
M  V30 14136 H 1300.09 0.566092 -4.84403 0
M  V30 14137 H 1299.1 -1.70684 -5.22635 0
M  V30 14138 H 1300.32 -2.03711 -6.47826 0
M  V30 14139 H 1298.27 0.205531 -6.55678 0
M  V30 14140 H 1298.19 -1.27651 -7.45145 0
M  V30 14141 H 1299.46 -0.137683 -7.79378 0
M  V30 14142 N 1303.68 1.3679 -0.7827 0
M  V30 14143 C 1304.63 2.30139 -0.174595 0
M  V30 14144 C 1305.6 1.51645 0.677714 0
M  V30 14145 O 1306.79 1.80176 0.627796 0
M  V30 14146 C 1303.93 3.38133 0.689936 0
M  V30 14147 C 1303.04 4.31624 -0.180179 0
M  V30 14148 C 1302.17 5.26698 0.69009 0
M  V30 14149 C 1301.21 6.1183 -0.181891 0
M  V30 14150 N 1300.35 6.99113 0.646977 0
M  V30 14151 H 1305.19 2.81559 -0.97613 0
M  V30 14152 H 1302.73 1.38595 -0.492944 0
M  V30 14153 H 1304.69 3.99386 1.2061 0
M  V30 14154 H 1303.32 2.88049 1.45696 0
M  V30 14155 H 1302.37 3.71583 -0.81425 0
M  V30 14156 H 1303.68 4.91464 -0.852337 0
M  V30 14157 H 1302.83 5.93209 1.27232 0
M  V30 14158 H 1301.57 4.67297 1.3959 0
M  V30 14159 H 1300.58 5.44288 -0.776572 0
M  V30 14160 H 1301.8 6.73306 -0.885195 0
M  V30 14161 H 1299.75 6.42227 1.3372 0
M  V30 14162 H 1299.67 7.55993 0.0323547 0
M  V30 14163 H 1300.93 7.7 1.21325 0
M  V30 14164 N 1305.16 0.53415 1.48272 0
M  V30 14165 C 1306.09 -0.215037 2.32508 0
M  V30 14166 C 1307.07 -0.931083 1.42355 0
M  V30 14167 O 1308.26 -0.916051 1.71237 0
M  V30 14168 C 1305.39 -1.25985 3.23643 0
M  V30 14169 C 1304.34 -0.661692 4.22854 0
M  V30 14170 C 1303.67 -1.80946 5.03153 0
M  V30 14171 C 1304.97 0.369358 5.20992 0
M  V30 14172 H 1306.66 0.488158 2.95394 0
M  V30 14173 H 1304.21 0.236206 1.4205 0
M  V30 14174 H 1306.16 -1.79195 3.81402 0
M  V30 14175 H 1304.89 -1.99268 2.58766 0
M  V30 14176 H 1303.54 -0.151082 3.66289 0
M  V30 14177 H 1303.19 -2.53077 4.34696 0
M  V30 14178 H 1302.89 -1.41513 5.70305 0
M  V30 14179 H 1304.42 -2.34526 5.63764 0
M  V30 14180 H 1305.83 -0.0758076 5.7325 0
M  V30 14181 H 1304.23 0.681301 5.9622 0
M  V30 14182 H 1305.3 1.27363 4.67875 0
M  V30 14183 N 1306.64 -1.55279 0.269478 0
M  V30 14184 C 1307.57 -2.19684 -0.653573 0
M  V30 14185 C 1308.59 -1.17985 -1.12176 0
M  V30 14186 O 1309.77 -1.44739 -1.04464 0
M  V30 14187 C 1306.87 -2.80438 -1.90284 0
M  V30 14188 C 1306.05 -4.07774 -1.58239 0
M  V30 14189 C 1305.11 -4.52629 -2.68354 0
M  V30 14190 O 1304.13 -5.18524 -2.3478 0
M  V30 14191 N 1305.33 -4.22297 -3.98303 0
M  V30 14192 H 1308.1 -2.99525 -0.102379 0
M  V30 14193 H 1305.66 -1.61648 0.0903465 0
M  V30 14194 H 1307.65 -3.07392 -2.63234 0
M  V30 14195 H 1306.22 -2.04622 -2.36323 0
M  V30 14196 H 1305.44 -3.88168 -0.686983 0
M  V30 14197 H 1306.73 -4.90749 -1.34323 0
M  V30 14198 H 1306.13 -3.69441 -4.28404 0
M  V30 14199 H 1304.69 -4.54035 -4.67649 0
M  V30 14200 N 1308.12 0.00332656 -1.576 0
M  V30 14201 C 1309.07 1.00425 -2.04692 0
M  V30 14202 C 1310.05 1.30514 -0.941011 0
M  V30 14203 O 1311.24 1.29667 -1.2048 0
M  V30 14204 C 1308.37 2.29731 -2.55105 0
M  V30 14205 C 1307.46 2.02621 -3.72566 0
M  V30 14206 N 1307.85 1.45657 -4.84373 0
M  V30 14207 C 1306.15 2.3278 -3.80433 0
M  V30 14208 C 1306.85 1.34942 -5.65832 0
M  V30 14209 N 1305.83 1.83389 -5.11732 0
M  V30 14210 H 1309.63 0.558262 -2.88549 0
M  V30 14211 H 1307.14 0.209094 -1.61048 0
M  V30 14212 H 1309.14 3.02274 -2.87116 0
M  V30 14213 H 1307.8 2.74985 -1.72665 0
M  V30 14214 H 1308.81 1.13582 -5.05291 0
M  V30 14215 H 1305.49 2.80932 -3.08842 0
M  V30 14216 H 1306.88 0.911707 -6.65686 0
M  V30 14217 N 1309.6 1.55164 0.276031 0
M  V30 14218 C 1310.82 1.7998 1.03063 0
M  V30 14219 C 1311.25 0.569769 1.79263 0
M  V30 14220 O 1310.6 -0.48054 1.74816 0
M  V30 14221 C 1310.65 3.02209 1.96728 0
M  V30 14222 O 1309.76 2.77083 3.05449 0
M  V30 14223 H 1309.1 0.594963 0.294814 0
M  V30 14224 H 1311.63 2.02301 0.305861 0
M  V30 14225 H 1311.64 3.3086 2.38738 0
M  V30 14226 H 1310.31 3.91386 1.40677 0
M  V30 14227 H 1308.89 2.5952 2.67776 0
M  V30 14228 N 1311.07 -0.540404 1.48045 0
M  V30 14229 C 1312.3 -1.32177 1.59175 0
M  V30 14230 C 1312.72 -1.87163 0.248115 0
M  V30 14231 O 1312.07 -1.65871 -0.761124 0
M  V30 14232 C 1312.13 -2.47995 2.63023 0
M  V30 14233 O 1311.85 -1.95278 3.92171 0
M  V30 14234 C 1313.35 -3.39967 2.84495 0
M  V30 14235 H 1310.57 -0.40233 0.537002 0
M  V30 14236 H 1313.11 -0.652983 1.93795 0
M  V30 14237 H 1311.27 -3.10779 2.31291 0
M  V30 14238 H 1311.68 -2.71012 4.49058 0
M  V30 14239 H 1313.15 -4.17607 3.60982 0
M  V30 14240 H 1313.63 -3.94555 1.92932 0
M  V30 14241 H 1314.24 -2.82985 3.1749 0
M  V30 14242 N 1312.55 -1.36459 -0.788468 0
M  V30 14243 C 1313.46 -1.33017 -1.93245 0
M  V30 14244 C 1314.48 -0.232212 -1.72444 0
M  V30 14245 O 1315.65 -0.464743 -1.95965 0
M  V30 14246 C 1312.72 -1.1197 -3.28121 0
M  V30 14247 C 1311.78 -2.3125 -3.61693 0
M  V30 14248 C 1311.01 -2.11197 -4.90134 0
M  V30 14249 O 1311.24 -1.08764 -5.59934 0
M  V30 14250 O 1310.17 -2.98996 -5.22384 0
M  V30 14251 H 1314 -2.29333 -1.99098 0
M  V30 14252 H 1311.58 -1.17016 -0.928856 0
M  V30 14253 H 1313.46 -1.02154 -4.08831 0
M  V30 14254 H 1312.14 -0.187171 -3.23158 0
M  V30 14255 H 1311.05 -2.46635 -2.81286 0
M  V30 14256 H 1312.38 -3.23012 -3.71381 0
M  V30 14257 N 1314.03 1.01274 -1.20754 0
M  V30 14258 C 1314.94 2.1335 -0.975656 0
M  V30 14259 C 1315.96 1.7386 0.0697364 0
M  V30 14260 O 1317.13 2.01051 -0.118578 0
M  V30 14261 C 1314.2 3.42548 -0.534931 0
M  V30 14262 C 1313.26 3.96257 -1.65163 0
M  V30 14263 C 1312.49 5.19289 -1.23184 0
M  V30 14264 O 1312.71 5.70309 -0.102158 0
M  V30 14265 O 1311.65 5.66248 -2.04076 0
M  V30 14266 H 1315.47 2.35783 -1.91415 0
M  V30 14267 H 1313.06 1.11736 -0.991743 0
M  V30 14268 H 1314.94 4.20341 -0.298568 0
M  V30 14269 H 1313.62 3.21521 0.374937 0
M  V30 14270 H 1312.52 3.19726 -1.94232 0
M  V30 14271 H 1313.86 4.2168 -2.53864 0
M  V30 14272 N 1315.51 1.01404 1.20644 0
M  V30 14273 C 1316.46 0.552956 2.21193 0
M  V30 14274 C 1317.44 -0.390324 1.56094 0
M  V30 14275 O 1318.64 -0.213705 1.75705 0
M  V30 14276 C 1315.76 -0.10995 3.43124 0
M  V30 14277 C 1314.85 0.854886 4.15394 0
M  V30 14278 N 1315.24 2.01137 4.64088 0
M  V30 14279 C 1313.54 0.675168 4.4086 0
M  V30 14280 C 1314.24 2.6187 5.19422 0
M  V30 14281 N 1313.22 1.89952 5.09332 0
M  V30 14282 H 1317.02 1.43467 2.56504 0
M  V30 14283 H 1314.53 0.87905 1.36552 0
M  V30 14284 H 1316.53 -0.457802 4.14379 0
M  V30 14285 H 1315.19 -0.987534 3.09318 0
M  V30 14286 H 1316.2 2.3914 4.59383 0
M  V30 14287 H 1312.88 -0.154577 4.17214 0
M  V30 14288 H 1314.27 3.59727 5.67491 0
M  V30 14289 N 1316.99 -1.36373 0.789944 0
M  V30 14290 C 1317.92 -2.32616 0.202944 0
M  V30 14291 C 1318.9 -1.56674 -0.662364 0
M  V30 14292 O 1320.08 -1.84826 -0.596078 0
M  V30 14293 C 1317.21 -3.4092 -0.662646 0
M  V30 14294 C 1316.17 -4.27877 0.102811 0
M  V30 14295 C 1315.49 -5.27352 -0.883407 0
M  V30 14296 C 1316.79 -5.0606 1.29231 0
M  V30 14297 H 1318.49 -2.81958 1.00699 0
M  V30 14298 H 1316.03 -1.35562 0.48568 0
M  V30 14299 H 1317.99 -4.07239 -1.08324 0
M  V30 14300 H 1316.71 -2.90147 -1.4994 0
M  V30 14301 H 1315.37 -3.63114 0.504389 0
M  V30 14302 H 1315.02 -4.72853 -1.71521 0
M  V30 14303 H 1314.72 -5.86398 -0.375669 0
M  V30 14304 H 1316.24 -5.96545 -1.30256 0
M  V30 14305 H 1317.66 -5.65417 0.947446 0
M  V30 14306 H 1316.05 -5.74521 1.73338 0
M  V30 14307 H 1317.12 -4.37671 2.08739 0
M  V30 14308 N 1318.47 -0.542005 -1.47987 0
M  V30 14309 C 1319.88 -0.200691 -1.58333 0
M  V30 14310 C 1320.08 1.29643 -1.54256 0
M  V30 14311 O 1319.14 2.07556 -1.43794 0
M  V30 14312 C 1320.45 -0.813878 -2.89476 0
M  V30 14313 C 1322 -0.783711 -3.0303 0
M  V30 14314 C 1322.47 -1.37569 -4.36851 0
M  V30 14315 N 1323.96 -1.33819 -4.43449 0
M  V30 14316 C 1324.7 -1.76602 -5.45527 0
M  V30 14317 N 1324.2 -2.27169 -6.54497 0
M  V30 14318 N 1325.99 -1.67765 -5.3648 0
M  V30 14319 H 1318.14 -1.51488 -1.4888 0
M  V30 14320 H 1320.4 -0.630835 -0.707638 0
M  V30 14321 H 1320.11 -1.86544 -2.98151 0
M  V30 14322 H 1319.98 -0.297978 -3.76021 0
M  V30 14323 H 1322.37 0.259118 -2.9396 0
M  V30 14324 H 1322.45 -1.33721 -2.18065 0
M  V30 14325 H 1322.09 -2.41751 -4.46675 0
M  V30 14326 H 1322.02 -0.797769 -5.20522 0
M  V30 14327 H 1324.52 -0.968147 -3.65288 0
M  V30 14328 H 1324.83 -2.57777 -7.2854 0
M  V30 14329 H 1323.17 -2.31171 -6.55427 0
M  V30 14330 H 1326.36 -1.28048 -4.50246 0
M  V30 14331 H 1326.54 -2.01426 -6.15899 0
M  V30 14332 N 1319.94 1.55134 -0.277709 0
M  V30 14333 C 1321.22 1.91667 0.390253 0
M  V30 14334 C 1321.6 1.20228 1.73518 0
M  V30 14335 O 1320.95 0.330013 2.26104 0
M  V30 14336 C 1321.16 3.44983 0.52797 0
M  V30 14337 C 1322.51 4.16809 0.809665 0
M  V30 14338 O 1323.53 3.50891 0.612679 0
M  V30 14339 O 1322.39 5.33463 1.18656 0
M  V30 14340 H 1319.48 0.798807 0.214095 0
M  V30 14341 H 1322.03 1.66577 -0.324053 0
M  V30 14342 H 1320.8 3.89056 -0.418422 0
M  V30 14343 H 1320.42 3.76035 1.29164 0
M  V30 14344 N 1321.42 0.00503138 1.57599 0
M  V30 14345 C 1322.67 -0.678761 1.90785 0
M  V30 14346 C 1323 -1.73499 0.87911 0
M  V30 14347 O 1322.25 -1.95359 -0.115418 0
M  V30 14348 C 1322.55 -1.35485 3.30724 0
M  V30 14349 C 1322.22 -0.431335 4.48832 0
M  V30 14350 C 1320.88 -0.177078 4.80874 0
M  V30 14351 C 1323.23 0.204219 5.208 0
M  V30 14352 C 1320.56 0.720944 5.82254 0
M  V30 14353 C 1322.91 1.09015 6.23136 0
M  V30 14354 C 1321.57 1.35353 6.53633 0
M  V30 14355 H 1320.84 -0.248376 0.698133 0
M  V30 14356 H 1323.49 0.061638 1.91401 0
M  V30 14357 H 1321.8 -2.16942 3.26257 0
M  V30 14358 H 1323.49 -1.89007 3.53663 0
M  V30 14359 H 1320.08 -0.639676 4.238 0
M  V30 14360 H 1324.27 0.0208074 4.96296 0
M  V30 14361 H 1319.52 0.93296 6.0424 0
M  V30 14362 H 1323.7 1.58894 6.78031 0
M  V30 14363 H 1321.32 2.05107 7.32008 0
M  V30 14364 N 1322.9 -1.55308 -0.267798 0
M  V30 14365 C 1323.81 -1.91649 -1.35307 0
M  V30 14366 C 1324.83 -0.814349 -1.53767 0
M  V30 14367 O 1326 -1.11388 -1.67793 0
M  V30 14368 C 1323.07 -2.18553 -2.69138 0
M  V30 14369 C 1322.13 -3.42083 -2.5938 0
M  V30 14370 C 1321.36 -3.67695 -3.86828 0
M  V30 14371 O 1321.58 -2.95728 -4.87751 0
M  V30 14372 O 1320.52 -4.61229 -3.86718 0
M  V30 14373 H 1324.34 -2.84044 -1.07483 0
M  V30 14374 H 1321.93 -1.41921 -0.466772 0
M  V30 14375 H 1323.81 -2.3726 -3.48261 0
M  V30 14376 H 1322.49 -1.2934 -2.96737 0
M  V30 14377 H 1321.39 -3.28706 -1.78614 0
M  V30 14378 H 1322.73 -4.31532 -2.36729 0
M  V30 14379 N 1324.38 0.532545 -1.4833 0
M  V30 14380 C 1325.79 0.860843 -1.34394 0
M  V30 14381 C 1325.99 1.98384 -0.353013 0
M  V30 14382 O 1325.05 2.5148 0.226688 0
M  V30 14383 C 1326.36 1.23079 -2.74358 0
M  V30 14384 C 1327.91 1.34082 -2.82827 0
M  V30 14385 C 1328.39 1.74421 -4.23487 0
M  V30 14386 N 1329.88 1.81528 -4.26148 0
M  V30 14387 C 1330.61 2.1412 -5.31921 0
M  V30 14388 N 1330.11 2.45154 -6.47975 0
M  V30 14389 N 1331.9 2.15104 -5.19314 0
M  V30 14390 H 1324.05 -0.208464 -2.11375 0
M  V30 14391 H 1326.31 -0.03062 -0.947505 0
M  V30 14392 H 1326.02 0.47926 -3.48419 0
M  V30 14393 H 1325.89 2.18151 -3.07718 0
M  V30 14394 H 1328.28 2.08311 -2.09022 0
M  V30 14395 H 1328.36 0.37137 -2.5309 0
M  V30 14396 H 1328.01 1.00752 -4.97807 0
M  V30 14397 H 1327.94 2.72411 -4.50666 0
M  V30 14398 H 1330.43 1.59832 -3.42436 0
M  V30 14399 H 1330.74 2.69121 -7.24426 0
M  V30 14400 H 1329.09 2.42679 -6.51254 0
M  V30 14401 H 1332.28 1.90315 -4.27666 0
M  V30 14402 H 1332.45 2.40173 -6.01848 0
M  V30 14403 N 1325.86 1.36875 0.78122 0
M  V30 14404 C 1326.77 1.3404 1.92537 0
M  V30 14405 C 1327.78 0.241354 1.72318 0
M  V30 14406 O 1328.96 0.475128 1.95715 0
M  V30 14407 C 1326.02 1.13708 3.27523 0
M  V30 14408 C 1325.08 2.33165 3.60462 0
M  V30 14409 C 1324.32 2.13793 4.89007 0
M  V30 14410 O 1324.54 1.11732 5.5935 0
M  V30 14411 O 1323.47 3.01762 5.20791 0
M  V30 14412 H 1327.3 2.30386 1.97879 0
M  V30 14413 H 1324.88 1.17506 0.922637 0
M  V30 14414 H 1326.77 1.0432 4.08283 0
M  V30 14415 H 1325.44 0.204306 3.23055 0
M  V30 14416 H 1324.35 2.48123 2.79974 0
M  V30 14417 H 1325.68 3.24977 3.69663 0
M  V30 14418 N 1327.33 -1.00632 1.21289 0
M  V30 14419 C 1328.58 -1.73802 1.02351 0
M  V30 14420 C 1328.9 -1.90503 -0.443611 0
M  V30 14421 O 1330.1 -2.60868 -0.752356 0
M  V30 14422 C 1328.56 -3.12647 1.78269 0
M  V30 14423 C 1328.17 -3.03923 3.29142 0
M  V30 14424 C 1329.91 -3.89956 1.67735 0
M  V30 14425 C 1327.82 -4.3784 3.97556 0
M  V30 14426 H 1326.75 -0.651616 0.379358 0
M  V30 14427 H 1329.4 -1.12446 1.45011 0
M  V30 14428 H 1327.78 -3.74605 1.28401 0
M  V30 14429 H 1328.95 -2.51211 3.86303 0
M  V30 14430 H 1327.27 -2.40103 3.40205 0
M  V30 14431 H 1329.87 -4.89051 2.1618 0
M  V30 14432 H 1330.21 -4.11423 0.635338 0
M  V30 14433 H 1330.74 -3.34647 2.15072 0
M  V30 14434 H 1327.48 -4.21573 5.01952 0
M  V30 14435 H 1327 -4.90518 3.45184 0
M  V30 14436 H 1328.68 -5.06644 4.02393 0
M  V30 14437 N 1328.81 -1.02043 -1.20104 0
M  V30 14438 C 1329.72 -0.603724 -2.26699 0
M  V30 14439 C 1330.74 0.360558 -1.70223 0
M  V30 14440 O 1331.91 0.220552 -2.00189 0
M  V30 14441 C 1328.98 0.0475988 -3.46667 0
M  V30 14442 C 1328.04 -0.963111 -4.18357 0
M  V30 14443 C 1327.27 -0.342775 -5.32598 0
M  V30 14444 O 1327.5 0.856509 -5.63933 0
M  V30 14445 O 1326.43 -1.06141 -5.92467 0
M  V30 14446 H 1330.26 -1.49125 -2.64566 0
M  V30 14447 H 1327.84 -0.790134 -1.26796 0
M  V30 14448 H 1329.72 0.411177 -4.19389 0
M  V30 14449 H 1328.4 0.909266 -3.10667 0
M  V30 14450 H 1327.3 -1.37813 -3.47791 0
M  V30 14451 H 1328.64 -1.79487 -4.58307 0
M  V30 14452 N 1330.29 1.35952 -0.797165 0
M  V30 14453 C 1331.54 1.98283 -0.369685 0
M  V30 14454 C 1331.85 1.63968 1.06649 0
M  V30 14455 O 1333.06 2.19591 1.59662 0
M  V30 14456 C 1331.51 3.54692 -0.610046 0
M  V30 14457 C 1331.12 3.97925 -2.05814 0
M  V30 14458 C 1332.87 4.23778 -0.247457 0
M  V30 14459 C 1330.77 5.47142 -2.24475 0
M  V30 14460 H 1329.7 0.741909 -0.134489 0
M  V30 14461 H 1332.35 1.55146 -0.979893 0
M  V30 14462 H 1330.74 3.95938 0.0699822 0
M  V30 14463 H 1331.91 3.67857 -2.77521 0
M  V30 14464 H 1330.23 3.417 -2.37971 0
M  V30 14465 H 1332.82 5.33452 -0.365059 0
M  V30 14466 H 1333.17 4.08436 0.805315 0
M  V30 14467 H 1333.7 3.87921 -0.881028 0
M  V30 14468 H 1330.44 5.67441 -3.28163 0
M  V30 14469 H 1329.96 5.78811 -1.57282 0
M  V30 14470 H 1331.64 6.13475 -2.05567 0
M  V30 14471 N 1331.77 0.549846 1.47697 0
M  V30 14472 C 1332.7 -0.190364 2.32723 0
M  V30 14473 C 1333.68 -0.915933 1.43334 0
M  V30 14474 O 1334.86 -0.897838 1.72199 0
M  V30 14475 C 1331.99 -1.22545 3.24961 0
M  V30 14476 C 1330.95 -0.616805 4.23532 0
M  V30 14477 C 1330.27 -1.75599 5.05044 0
M  V30 14478 C 1331.57 0.424595 5.20571 0
M  V30 14479 H 1333.27 0.519461 2.94859 0
M  V30 14480 H 1330.81 0.251259 1.41791 0
M  V30 14481 H 1332.77 -1.75139 3.83281 0
M  V30 14482 H 1331.49 -1.96512 2.60865 0
M  V30 14483 H 1330.15 -0.112224 3.66428 0
M  V30 14484 H 1329.8 -2.48453 4.37356 0
M  V30 14485 H 1329.5 -1.35456 5.71774 0
M  V30 14486 H 1331.02 -2.28533 5.6622 0
M  V30 14487 H 1332.44 -0.0150025 5.73298 0
M  V30 14488 H 1330.83 0.7445 5.95464 0
M  V30 14489 H 1331.9 1.32318 4.66497 0
M  V30 14490 N 1333.25 -1.54984 0.285932 0
M  V30 14491 C 1334.19 -2.2295 -0.596822 0
M  V30 14492 C 1335.16 -1.20674 -1.14136 0
M  V30 14493 O 1336.35 -1.49249 -1.18867 0
M  V30 14494 C 1333.49 -2.9625 -1.77002 0
M  V30 14495 C 1332.6 -4.13268 -1.25831 0
M  V30 14496 C 1331.74 -4.74187 -2.39417 0
M  V30 14497 C 1330.78 -5.83377 -1.85304 0
M  V30 14498 N 1329.91 -6.38313 -2.92405 0
M  V30 14499 H 1334.75 -2.97998 -0.0106104 0
M  V30 14500 H 1332.29 -1.47099 0.00653041 0
M  V30 14501 H 1334.25 -3.36971 -2.4598 0
M  V30 14502 H 1332.88 -2.23606 -2.3281 0
M  V30 14503 H 1331.93 -3.77593 -0.461278 0
M  V30 14504 H 1333.24 -4.91979 -0.822049 0
M  V30 14505 H 1332.4 -5.17683 -3.16369 0
M  V30 14506 H 1331.13 -3.94775 -2.86364 0
M  V30 14507 H 1330.14 -5.3932 -1.06835 0
M  V30 14508 H 1331.36 -6.64664 -1.3928 0
M  V30 14509 H 1329.31 -5.61791 -3.38713 0
M  V30 14510 H 1329.23 -7.12328 -2.53228 0
M  V30 14511 H 1330.5 -6.86468 -3.69299 0
M  V30 14512 N 1334.72 -0.0133892 -1.57594 0
M  V30 14513 C 1335.95 0.682855 -1.95836 0
M  V30 14514 C 1336.37 1.65763 -0.889049 0
M  V30 14515 O 1335.73 1.80665 0.151585 0
M  V30 14516 C 1335.78 1.37931 -3.33178 0
M  V30 14517 O 1334.88 2.49416 -3.28429 0
M  V30 14518 H 1334.23 0.180629 -0.638959 0
M  V30 14519 H 1336.76 -0.0705644 -2.04478 0
M  V30 14520 H 1336.77 1.73969 -3.69051 0
M  V30 14521 H 1335.44 0.664675 -4.10554 0
M  V30 14522 H 1334.02 2.15606 -3.04251 0
M  V30 14523 N 1336.2 1.55448 0.259558 0
M  V30 14524 C 1337.13 1.9226 1.32508 0
M  V30 14525 C 1338.11 0.786012 1.5085 0
M  V30 14526 O 1339.3 1.04526 1.6367 0
M  V30 14527 C 1336.43 2.20627 2.68218 0
M  V30 14528 C 1335.38 3.36418 2.64589 0
M  V30 14529 C 1334.71 3.50295 4.03977 0
M  V30 14530 C 1336.01 4.72452 2.2268 0
M  V30 14531 H 1337.7 2.81509 1.01945 0
M  V30 14532 H 1335.25 1.35444 0.488965 0
M  V30 14533 H 1337.2 2.44968 3.42883 0
M  V30 14534 H 1335.93 1.28191 3.00391 0
M  V30 14535 H 1334.58 3.12065 1.92382 0
M  V30 14536 H 1334.23 2.55302 4.33394 0
M  V30 14537 H 1333.93 4.28155 4.02439 0
M  V30 14538 H 1335.46 3.76944 4.8036 0
M  V30 14539 H 1336.87 4.96249 2.87071 0
M  V30 14540 H 1335.27 5.53323 2.32279 0
M  V30 14541 H 1336.34 4.70367 1.17826 0
M  V30 14542 N 1337.68 -0.524672 1.4861 0
M  V30 14543 C 1338.61 -1.64481 1.59621 0
M  V30 14544 C 1339.63 -1.55557 0.480181 0
M  V30 14545 O 1340.81 -1.61921 0.751254 0
M  V30 14546 C 1337.91 -3.03158 1.51487 0
M  V30 14547 C 1337.09 -3.37509 2.78221 0
M  V30 14548 C 1336.15 -4.5549 2.63467 0
M  V30 14549 O 1335.17 -4.58448 3.37364 0
M  V30 14550 N 1336.37 -5.53986 1.73437 0
M  V30 14551 H 1339.14 -1.5547 2.56221 0
M  V30 14552 H 1336.7 -0.712059 1.45401 0
M  V30 14553 H 1338.69 -3.79969 1.39305 0
M  V30 14554 H 1337.26 -3.06219 0.628406 0
M  V30 14555 H 1336.48 -2.49824 3.04929 0
M  V30 14556 H 1337.77 -3.57246 3.62288 0
M  V30 14557 H 1337.17 -5.54378 1.12612 0
M  V30 14558 H 1335.73 -6.29993 1.6719 0
M  V30 14559 N 1339.16 -1.37287 -0.77395 0
M  V30 14560 C 1340.11 -1.29389 -1.8773 0
M  V30 14561 C 1341.09 -0.182167 -1.59865 0
M  V30 14562 O 1342.28 -0.416367 -1.72033 0
M  V30 14563 C 1339.41 -1.10094 -3.25168 0
M  V30 14564 C 1338.5 -2.25801 -3.58991 0
M  V30 14565 N 1338.89 -3.51182 -3.64012 0
M  V30 14566 C 1337.19 -2.17907 -3.89144 0
M  V30 14567 C 1337.89 -4.27468 -3.9452 0
M  V30 14568 N 1336.87 -3.56583 -4.10304 0
M  V30 14569 H 1340.67 -2.24344 -1.8986 0
M  V30 14570 H 1338.18 -1.30228 -0.970282 0
M  V30 14571 H 1340.18 -1.02521 -4.04098 0
M  V30 14572 H 1338.84 -0.160535 -3.24303 0
M  V30 14573 H 1339.85 -3.85118 -3.46272 0
M  V30 14574 H 1336.53 -1.3191 -3.96113 0
M  V30 14575 H 1337.92 -5.3597 -4.05198 0
M  V30 14576 N 1340.64 0.999871 -1.21821 0
M  V30 14577 C 1341.91 1.71135 -0.947213 0
M  V30 14578 C 1342.29 2.04087 0.539601 0
M  V30 14579 O 1341.64 1.71866 1.5058 0
M  V30 14580 C 1341.85 2.96704 -1.8376 0
M  V30 14581 C 1343.2 3.69627 -2.08952 0
M  V30 14582 O 1344.22 3.06697 -1.81151 0
M  V30 14583 O 1343.08 4.82832 -2.55999 0
M  V30 14584 H 1340.18 0.746631 -0.355628 0
M  V30 14585 H 1342.72 1.05684 -1.32774 0
M  V30 14586 H 1341.49 2.68802 -2.84361 0
M  V30 14587 H 1341.12 3.69894 -1.45821 0
M  V30 14588 N 1342.11 1.02678 1.19562 0
M  V30 14589 C 1343.06 0.599259 2.24748 0
M  V30 14590 C 1344.06 -0.367079 1.65375 0
M  V30 14591 O 1345.26 -0.235887 1.78448 0
M  V30 14592 H 1341.64 0.175517 0.73123 0
M  V30 14593 H 1343.61 1.4971 2.58127 0
M  V30 14594 C 1342.36 -0.0362515 3.47681 0
M  V30 14595 H 1341.68 0.698343 3.93654 0
M  V30 14596 H 1343.12 -0.298361 4.22949 0
M  V30 14597 C 1341.58 -1.28218 3.11547 0
M  V30 14598 O 1342.11 -2.37446 3.24009 0
M  V30 14599 N 1340.32 -1.17014 2.66 0
M  V30 14600 H 1339.86 -0.28132 2.56059 0
M  V30 14601 H 1339.82 -2.00473 2.42194 0
M  V30 14602 N 1343.59 -1.35528 0.804364 0
M  V30 14603 C 1344.84 -1.98084 0.380196 0
M  V30 14604 C 1345.15 -1.64531 -1.05778 0
M  V30 14605 O 1346.36 -2.20435 -1.58495 0
M  V30 14606 C 1344.82 -3.54364 0.628848 0
M  V30 14607 C 1344.42 -3.96828 2.07921 0
M  V30 14608 C 1346.17 -4.23641 0.269927 0
M  V30 14609 C 1344.08 -5.45944 2.27374 0
M  V30 14610 H 1343.01 -0.741185 0.138422 0
M  V30 14611 H 1345.66 -1.54624 0.988107 0
M  V30 14612 H 1344.04 -3.9597 -0.0489837 0
M  V30 14613 H 1345.21 -3.6638 2.79467 0
M  V30 14614 H 1343.53 -3.40433 2.39779 0
M  V30 14615 H 1346.12 -5.33251 0.393344 0
M  V30 14616 H 1346.47 -4.08858 -0.783644 0
M  V30 14617 H 1347 -3.87448 0.901588 0
M  V30 14618 H 1343.74 -5.65693 3.31168 0
M  V30 14619 H 1343.26 -5.77969 1.6035 0
M  V30 14620 H 1344.94 -6.12376 2.08817 0
M  V30 14621 N 1345.07 -0.557671 -1.47404 0
M  V30 14622 C 1346.32 -0.0338384 -2.02772 0
M  V30 14623 C 1346.65 1.31278 -1.43107 0
M  V30 14624 O 1345.93 1.85436 -0.58682 0
M  V30 14625 C 1346.21 0.0587427 -3.60052 0
M  V30 14626 C 1346.06 -1.315 -4.30148 0
M  V30 14627 C 1347.38 0.771942 -4.33277 0
M  V30 14628 H 1344.5 -0.0137711 -0.736871 0
M  V30 14629 H 1347.14 -0.720049 -1.75827 0
M  V30 14630 H 1345.29 0.643154 -3.83139 0
M  V30 14631 H 1346.96 -1.94265 -4.184 0
M  V30 14632 H 1345.21 -1.88956 -3.90484 0
M  V30 14633 H 1345.88 -1.20294 -5.38733 0
M  V30 14634 H 1348.35 0.275729 -4.15185 0
M  V30 14635 H 1347.23 0.805683 -5.42955 0
M  V30 14636 H 1347.49 1.82816 -4.0253 0
M  V30 14637 N 1346.55 1.54831 -0.294147 0
M  V30 14638 C 1347.5 2.23263 0.58499 0
M  V30 14639 C 1348.47 1.21278 1.13494 0
M  V30 14640 O 1349.65 1.49878 1.18073 0
M  V30 14641 C 1346.79 2.97185 1.75429 0
M  V30 14642 C 1345.9 4.1393 1.23638 0
M  V30 14643 C 1345.04 4.7545 2.36899 0
M  V30 14644 C 1344.08 5.84352 1.82207 0
M  V30 14645 N 1343.22 6.39855 2.89015 0
M  V30 14646 H 1348.06 2.98 -0.00519329 0
M  V30 14647 H 1345.59 1.47093 -0.0143313 0
M  V30 14648 H 1347.55 3.38271 2.4419 0
M  V30 14649 H 1346.18 2.24837 2.3162 0
M  V30 14650 H 1345.23 3.77832 0.441247 0
M  V30 14651 H 1346.54 4.92409 0.795946 0
M  V30 14652 H 1345.7 5.19353 3.1362 0
M  V30 14653 H 1344.44 3.96288 2.84266 0
M  V30 14654 H 1343.44 5.39879 1.03974 0
M  V30 14655 H 1344.67 6.65393 1.35753 0
M  V30 14656 H 1342.61 5.6358 3.35729 0
M  V30 14657 H 1342.53 7.13661 2.49447 0
M  V30 14658 H 1343.8 6.88417 3.65654 0
M  V30 14659 N 1348.03 0.0217466 1.57585 0
M  V30 14660 C 1349.26 -0.667911 1.95506 0
M  V30 14661 C 1349.67 -1.66616 0.89642 0
M  V30 14662 O 1349.01 -1.83232 -0.131059 0
M  V30 14663 C 1349.07 -1.43696 3.29533 0
M  V30 14664 C 1348.73 -0.59787 4.53072 0
M  V30 14665 C 1349.73 0.12372 5.19753 0
M  V30 14666 C 1347.42 -0.53744 4.99417 0
M  V30 14667 C 1349.41 0.894491 6.31092 0
M  V30 14668 C 1347.1 0.237041 6.1064 0
M  V30 14669 C 1348.1 0.95172 6.76337 0
M  V30 14670 O 1347.78 1.71352 7.85426 0
M  V30 14671 H 1347.52 -0.189544 0.648883 0
M  V30 14672 H 1350.07 0.0755682 2.05261 0
M  V30 14673 H 1348.3 -2.22541 3.16247 0
M  V30 14674 H 1349.99 -2.01402 3.52409 0
M  V30 14675 H 1350.75 0.0863208 4.84923 0
M  V30 14676 H 1346.63 -1.08327 4.48092 0
M  V30 14677 H 1350.18 1.45285 6.82304 0
M  V30 14678 H 1346.07 0.276183 6.44909 0
M  V30 14679 H 1346.84 1.63252 8.02054 0
M  V30 14680 N 1349.51 -1.55583 -0.251311 0
M  V30 14681 C 1350.45 -1.89946 -1.31108 0
M  V30 14682 C 1351.42 -0.753209 -1.4804 0
M  V30 14683 O 1352.61 -1.00646 -1.62095 0
M  V30 14684 C 1349.75 -2.19576 -2.66233 0
M  V30 14685 C 1348.86 -3.46983 -2.57345 0
M  V30 14686 C 1348 -3.66206 -3.84794 0
M  V30 14687 C 1347.03 -4.87229 -3.70505 0
M  V30 14688 N 1346.17 -5.02996 -4.89836 0
M  V30 14689 H 1351.01 -2.80325 -1.01104 0
M  V30 14690 H 1348.55 -1.3877 -0.487986 0
M  V30 14691 H 1350.51 -2.3476 -3.44882 0
M  V30 14692 H 1349.14 -1.32406 -2.94395 0
M  V30 14693 H 1348.19 -3.40156 -1.70289 0
M  V30 14694 H 1349.5 -4.35776 -2.42695 0
M  V30 14695 H 1348.65 -3.81324 -4.71886 0
M  V30 14696 H 1347.39 -2.75638 -4.02337 0
M  V30 14697 H 1346.4 -4.72092 -2.81797 0
M  V30 14698 H 1347.62 -5.79253 -3.54462 0
M  V30 14699 H 1345.57 -4.15364 -5.07748 0
M  V30 14700 H 1345.49 -5.8587 -4.778 0
M  V30 14701 H 1346.75 -5.22521 -5.78439 0
M  V30 14702 N 1350.98 0.516783 -1.48886 0
M  V30 14703 C 1352.23 1.26936 -1.57263 0
M  V30 14704 C 1352.55 1.93337 -0.254156 0
M  V30 14705 O 1351.82 1.81977 0.725345 0
M  V30 14706 H 1350.4 0.4715 -0.579393 0
M  V30 14707 H 1353.06 0.600289 -1.85425 0
M  V30 14708 H 1352.16 2.04167 -2.36055 0
M  V30 14709 N 1352.46 1.37696 0.766659 0
M  V30 14710 C 1353.71 1.33382 1.52765 0
M  V30 14711 C 1354.04 -0.0800569 1.94035 0
M  V30 14712 O 1353.32 -1.03848 1.64456 0
M  V30 14713 C 1353.6 2.2776 2.78922 0
M  V30 14714 C 1353.45 3.77949 2.43874 0
M  V30 14715 C 1354.77 2.20494 3.80881 0
M  V30 14716 H 1351.89 0.485836 0.554195 0
M  V30 14717 H 1354.53 1.68438 0.879119 0
M  V30 14718 H 1352.68 1.97994 3.34261 0
M  V30 14719 H 1354.35 4.18333 1.9441 0
M  V30 14720 H 1352.6 3.96269 1.76503 0
M  V30 14721 H 1353.27 4.39428 3.34077 0
M  V30 14722 H 1355.74 2.46742 3.35048 0
M  V30 14723 H 1354.62 2.88663 4.66867 0
M  V30 14724 H 1354.88 1.19951 4.25516 0
M  V30 14725 N 1353.94 -0.993397 1.22349 0
M  V30 14726 C 1355.18 -1.74807 1.05933 0
M  V30 14727 C 1355.54 -1.87815 -0.398702 0
M  V30 14728 O 1356.74 -2.5996 -0.683703 0
M  V30 14729 C 1355.02 -3.11601 1.75042 0
M  V30 14730 S 1356.57 -4.02813 1.74032 0
M  V30 14731 H 1353.39 -0.601331 0.379371 0
M  V30 14732 H 1355.99 -1.18777 1.55282 0
M  V30 14733 H 1354.7 -2.99775 2.80291 0
M  V30 14734 H 1354.23 -3.72703 1.25922 0
M  V30 14735 H 1356.24 -4.89876 0.789658 0
M  V30 14736 N 1355.42 -1.03311 -1.19015 0
M  V30 14737 C 1356.65 -0.750712 -1.92478 0
M  V30 14738 C 1357.06 0.694964 -1.75974 0
M  V30 14739 O 1356.4 1.4847 -1.08177 0
M  V30 14740 C 1356.46 -1.02757 -3.44501 0
M  V30 14741 C 1356.12 -2.46565 -3.84779 0
M  V30 14742 C 1357.12 -3.44716 -3.89187 0
M  V30 14743 C 1354.81 -2.81076 -4.16295 0
M  V30 14744 C 1356.8 -4.75433 -4.24549 0
M  V30 14745 C 1354.49 -4.12002 -4.51329 0
M  V30 14746 C 1355.49 -5.08991 -4.55431 0
M  V30 14747 O 1355.17 -6.37571 -4.89652 0
M  V30 14748 H 1354.91 -0.273717 -0.618106 0
M  V30 14749 H 1357.46 -1.38176 -1.51975 0
M  V30 14750 H 1355.69 -0.339383 -3.85208 0
M  V30 14751 H 1357.38 -0.734175 -3.99205 0
M  V30 14752 H 1358.14 -3.19392 -3.64985 0
M  V30 14753 H 1354.02 -2.0626 -4.12284 0
M  V30 14754 H 1357.57 -5.51133 -4.27666 0
M  V30 14755 H 1353.46 -4.37098 -4.7499 0
M  V30 14756 H 1354.23 -6.42107 -5.07583 0
M  V30 14757 N 1356.9 1.35099 -0.81154 0
M  V30 14758 C 1358.12 2.03391 -0.405805 0
M  V30 14759 C 1358.55 1.60745 0.97686 0
M  V30 14760 O 1357.9 0.786518 1.63351 0
M  V30 14761 C 1357.95 3.57075 -0.502954 0
M  V30 14762 O 1357.06 4.09577 0.481681 0
M  V30 14763 H 1356.4 0.642203 -0.168733 0
M  V30 14764 H 1358.93 1.72591 -1.0988 0
M  V30 14765 H 1358.94 4.06277 -0.37456 0
M  V30 14766 H 1357.61 3.87463 -1.51145 0
M  V30 14767 H 1356.19 3.71583 0.313115 0
M  V30 14768 N 1358.37 0.56548 1.47106 0
M  V30 14769 C 1359.34 -0.167191 2.28589 0
M  V30 14770 C 1360.34 -0.835005 1.3742 0
M  V30 14771 O 1361.53 -0.689598 1.59969 0
M  V30 14772 C 1358.66 -1.24548 3.17333 0
M  V30 14773 H 1359.85 0.548677 2.94838 0
M  V30 14774 H 1357.4 0.322749 1.52931 0
M  V30 14775 H 1358.14 -1.99348 2.55794 0
M  V30 14776 H 1357.92 -0.771335 3.84438 0
M  V30 14777 H 1359.41 -1.75985 3.78707 0
M  V30 14778 N 1359.85 -1.54672 0.302354 0
M  V30 14779 C 1361.1 -1.99771 -0.305919 0
M  V30 14780 C 1361.42 -1.19225 -1.54306 0
M  V30 14781 O 1360.69 -0.288569 -1.93763 0
M  V30 14782 H 1359.27 -0.737934 -0.116026 0
M  V30 14783 H 1361.93 -1.90452 0.413997 0
M  V30 14784 H 1361.03 -3.06719 -0.577024 0
M  V30 14785 N 1361.33 -0.0301034 -1.57571 0
M  V30 14786 C 1362.75 0.326296 -1.56229 0
M  V30 14787 C 1362.95 1.72839 -1.03581 0
M  V30 14788 O 1362 2.43088 -0.682979 0
M  V30 14789 C 1363.32 0.174001 -3.00196 0
M  V30 14790 C 1364.86 0.246694 -3.12026 0
M  V30 14791 C 1365.34 0.123177 -4.57834 0
M  V30 14792 N 1366.83 0.180129 -4.6285 0
M  V30 14793 C 1367.56 0.108353 -5.73298 0
M  V30 14794 N 1367.06 -0.0145648 -6.92798 0
M  V30 14795 N 1368.85 0.162411 -5.61865 0
M  V30 14796 H 1361 -0.946945 -1.90123 0
M  V30 14797 H 1363.27 -0.365762 -0.874598 0
M  V30 14798 H 1362.97 -0.791871 -3.42669 0
M  V30 14799 H 1362.85 0.943794 -3.65202 0
M  V30 14800 H 1365.23 1.20303 -2.69465 0
M  V30 14801 H 1365.32 -0.553493 -2.4974 0
M  V30 14802 H 1364.96 -0.82974 -5.01077 0
M  V30 14803 H 1364.89 0.94224 -5.18102 0
M  V30 14804 H 1367.38 0.275236 -3.76896 0
M  V30 14805 H 1367.69 -0.062614 -7.72775 0
M  V30 14806 H 1366.04 -0.0493606 -6.94982 0
M  V30 14807 H 1369.23 0.256847 -4.67395 0
M  V30 14808 H 1369.4 0.103013 -6.47918 0
M  V30 14809 N 1362.81 1.55714 0.243056 0
M  V30 14810 C 1364.22 1.48224 0.591754 0
M  V30 14811 C 1364.42 0.72105 1.88157 0
M  V30 14812 O 1363.48 0.251966 2.5124 0
M  V30 14813 C 1364.79 2.92655 0.690918 0
M  V30 14814 C 1366.34 3.03048 0.782988 0
M  V30 14815 C 1366.82 4.48794 0.913682 0
M  V30 14816 N 1368.31 4.52748 0.978454 0
M  V30 14817 C 1369.04 5.62771 1.09891 0
M  V30 14818 N 1368.54 6.82596 1.18467 0
M  V30 14819 N 1370.33 5.50576 1.13237 0
M  V30 14820 H 1362.48 2.03642 -0.603614 0
M  V30 14821 H 1364.75 0.924702 -0.208878 0
M  V30 14822 H 1364.45 3.51203 -0.186871 0
M  V30 14823 H 1364.33 3.43357 1.5616 0
M  V30 14824 H 1366.71 2.44578 1.65123 0
M  V30 14825 H 1366.79 2.55551 -0.112921 0
M  V30 14826 H 1366.44 5.07875 0.0499835 0
M  V30 14827 H 1366.37 4.93976 1.82469 0
M  V30 14828 H 1368.86 3.66445 0.92337 0
M  V30 14829 H 1369.17 7.62197 1.27576 0
M  V30 14830 H 1367.52 6.85349 1.15418 0
M  V30 14831 H 1370.71 4.55897 1.06188 0
M  V30 14832 H 1370.88 6.36358 1.2228 0
M  V30 14833 N 1364.29 -0.50888 1.49158 0
M  V30 14834 C 1365.23 -1.63216 1.6572 0
M  V30 14835 C 1366.23 -1.61117 0.523236 0
M  V30 14836 O 1367.43 -1.6572 0.702629 0
M  V30 14837 H 1363.81 -0.540909 0.522419 0
M  V30 14838 H 1365.78 -1.46397 2.6002 0
M  V30 14839 C 1364.53 -3.01393 1.73372 0
M  V30 14840 H 1363.85 -3.03711 2.6 0
M  V30 14841 H 1365.29 -3.79547 1.88998 0
M  V30 14842 C 1363.75 -3.33509 0.47683 0
M  V30 14843 O 1364.28 -3.99694 -0.400986 0
M  V30 14844 N 1362.49 -2.88579 0.342145 0
M  V30 14845 H 1362.03 -2.34894 1.05747 0
M  V30 14846 H 1361.99 -3.10435 -0.497757 0
M  V30 14847 N 1365.76 -1.381 -0.759346 0
M  V30 14848 C 1366.69 -1.37578 -1.88665 0
M  V30 14849 C 1367.68 -0.242529 -1.68362 0
M  V30 14850 O 1368.86 -0.444751 -1.89039 0
M  V30 14851 C 1365.99 -1.19437 -3.26117 0
M  V30 14852 C 1364.94 -2.29905 -3.61009 0
M  V30 14853 C 1364.27 -1.96874 -4.97136 0
M  V30 14854 C 1365.57 -3.72143 -3.66479 0
M  V30 14855 H 1367.26 -2.31912 -1.89359 0
M  V30 14856 H 1364.81 -1.11632 -0.909631 0
M  V30 14857 H 1366.76 -1.17698 -4.0463 0
M  V30 14858 H 1365.49 -0.21562 -3.25887 0
M  V30 14859 H 1364.15 -2.3082 -2.84812 0
M  V30 14860 H 1363.79 -0.974979 -4.9346 0
M  V30 14861 H 1363.49 -2.70855 -5.21451 0
M  V30 14862 H 1365.02 -1.96744 -5.78035 0
M  V30 14863 H 1366.43 -3.73291 -4.35117 0
M  V30 14864 H 1364.83 -4.45282 -4.02299 0
M  V30 14865 H 1365.9 -4.04874 -2.66843 0
M  V30 14866 N 1367.24 0.986894 -1.22875 0
M  V30 14867 C 1368.19 2.07811 -1.00416 0
M  V30 14868 C 1369.16 1.65925 0.0761734 0
M  V30 14869 O 1370.34 1.90654 -0.0746294 0
M  V30 14870 C 1367.48 3.39941 -0.594471 0
M  V30 14871 C 1366.6 3.95134 -1.74622 0
M  V30 14872 C 1365.73 5.1545 -1.28394 0
M  V30 14873 C 1364.77 5.62794 -2.40686 0
M  V30 14874 N 1363.91 6.74343 -1.95462 0
M  V30 14875 H 1368.75 2.26356 -1.93822 0
M  V30 14876 H 1366.29 1.10966 -0.965661 0
M  V30 14877 H 1368.24 4.15828 -0.338078 0
M  V30 14878 H 1366.87 3.21379 0.302587 0
M  V30 14879 H 1365.93 3.16064 -2.11679 0
M  V30 14880 H 1367.24 4.26247 -2.59066 0
M  V30 14881 H 1366.39 5.98646 -0.98529 0
M  V30 14882 H 1365.13 4.85975 -0.409789 0
M  V30 14883 H 1364.14 4.78182 -2.71333 0
M  V30 14884 H 1365.36 5.9429 -3.28627 0
M  V30 14885 H 1363.31 6.46641 -1.10417 0
M  V30 14886 H 1363.22 7.04806 -2.73469 0
M  V30 14887 H 1364.49 7.6103 -1.68683 0
M  V30 14888 N 1368.72 1.0394 1.18466 0
M  V30 14889 C 1369.65 0.650182 2.24265 0
M  V30 14890 C 1370.63 -0.345968 1.66545 0
M  V30 14891 O 1371.82 -0.226348 1.92876 0
M  V30 14892 C 1368.95 0.0110451 3.47298 0
M  V30 14893 C 1367.9 0.930599 4.17761 0
M  V30 14894 C 1367.23 0.156005 5.34472 0
M  V30 14895 C 1368.53 2.24913 4.71393 0
M  V30 14896 H 1370.22 1.53465 2.57078 0
M  V30 14897 H 1367.77 0.739343 1.23571 0
M  V30 14898 H 1369.72 -0.272959 4.20515 0
M  V30 14899 H 1368.44 -0.908288 3.13716 0
M  V30 14900 H 1367.1 1.19897 3.4644 0
M  V30 14901 H 1366.75 -0.765695 4.97138 0
M  V30 14902 H 1366.45 0.768606 5.82551 0
M  V30 14903 H 1367.97 -0.121011 6.1048 0
M  V30 14904 H 1369.39 2.02592 5.36311 0
M  V30 14905 H 1367.79 2.81459 5.30001 0
M  V30 14906 H 1368.86 2.8965 3.88884 0
M  V30 14907 N 1370.2 -1.34667 0.818693 0
M  V30 14908 C 1371.45 -1.9767 0.401184 0
M  V30 14909 C 1371.76 -1.65644 -1.04027 0
M  V30 14910 O 1372.97 -2.22104 -1.56148 0
M  V30 14911 C 1371.42 -3.53677 0.666398 0
M  V30 14912 C 1371.03 -3.94601 2.12119 0
M  V30 14913 C 1372.77 -4.23331 0.314845 0
M  V30 14914 C 1370.68 -5.43502 2.33151 0
M  V30 14915 H 1369.61 -0.739675 0.146275 0
M  V30 14916 H 1372.26 -1.53568 1.00445 0
M  V30 14917 H 1370.64 -3.95999 -0.00698307 0
M  V30 14918 H 1371.82 -3.63396 2.83338 0
M  V30 14919 H 1370.13 -3.37871 2.43377 0
M  V30 14920 H 1372.73 -5.32804 0.449881 0
M  V30 14921 H 1373.07 -4.09666 -0.740235 0
M  V30 14922 H 1373.61 -3.8647 0.942631 0
M  V30 14923 H 1370.35 -5.62148 3.37149 0
M  V30 14924 H 1369.87 -5.76236 1.66471 0
M  V30 14925 H 1371.54 -6.10127 2.153 0
M  V30 14926 N 1371.68 -0.573274 -1.46804 0
M  V30 14927 C 1372.61 0.213527 -2.27199 0
M  V30 14928 C 1373.59 0.905598 -1.35047 0
M  V30 14929 O 1374.77 0.921377 -1.64447 0
M  V30 14930 C 1371.9 1.30556 -3.12527 0
M  V30 14931 C 1370.94 0.720331 -4.20373 0
M  V30 14932 S 1371.78 -0.445518 -5.33644 0
M  V30 14933 C 1372.93 0.64794 -6.22537 0
M  V30 14934 H 1373.17 -0.468642 -2.93583 0
M  V30 14935 H 1370.7 -0.359949 -1.50146 0
M  V30 14936 H 1372.66 1.93086 -3.62254 0
M  V30 14937 H 1371.32 1.95963 -2.45474 0
M  V30 14938 H 1370.51 1.54089 -4.79867 0
M  V30 14939 H 1370.11 0.170885 -3.73609 0
M  V30 14940 H 1372.41 1.53602 -6.59858 0
M  V30 14941 H 1373.35 0.0899764 -7.08043 0
M  V30 14942 H 1373.76 0.94784 -5.56486 0
M  V30 14943 N 1373.15 1.5451 -0.310553 0
M  V30 14944 C 1374.06 2.27557 0.570518 0
M  V30 14945 C 1375.08 1.31426 1.14032 0
M  V30 14946 O 1376.26 1.64423 1.16306 0
M  V30 14947 C 1373.32 3.00933 1.72163 0
M  V30 14948 C 1372.38 4.12623 1.18495 0
M  V30 14949 C 1371.62 4.8249 2.28121 0
M  V30 14950 O 1371.84 4.5178 3.48211 0
M  V30 14951 O 1370.77 5.69686 1.94273 0
M  V30 14952 H 1374.6 3.03692 -0.0223195 0
M  V30 14953 H 1372.18 1.49203 -0.0766821 0
M  V30 14954 H 1374.07 3.46925 2.39208 0
M  V30 14955 H 1372.74 2.27685 2.3009 0
M  V30 14956 H 1371.65 3.71008 0.479956 0
M  V30 14957 H 1372.98 4.87876 0.650994 0
M  V30 14958 N 1374.63 0.0384594 1.57553 0
M  V30 14959 C 1375.86 -0.647137 1.96203 0
M  V30 14960 C 1376.27 -1.65656 0.914042 0
M  V30 14961 O 1375.61 -1.83361 -0.111617 0
M  V30 14962 C 1375.68 -1.40193 3.31038 0
M  V30 14963 C 1375.34 -0.549782 4.53681 0
M  V30 14964 C 1376.34 0.178839 5.19592 0
M  V30 14965 C 1374.02 -0.48444 4.99958 0
M  V30 14966 C 1376.02 0.961376 6.30108 0
M  V30 14967 C 1373.7 0.301795 6.10354 0
M  V30 14968 C 1374.7 1.0234 6.75289 0
M  V30 14969 O 1374.39 1.79673 7.83564 0
M  V30 14970 H 1374.12 -0.182651 0.650857 0
M  V30 14971 H 1376.68 0.0973346 2.05169 0
M  V30 14972 H 1374.91 -2.19175 3.1859 0
M  V30 14973 H 1376.59 -1.97653 3.54525 0
M  V30 14974 H 1377.36 0.137749 4.84804 0
M  V30 14975 H 1373.24 -1.03568 4.49216 0
M  V30 14976 H 1376.78 1.52513 6.80724 0
M  V30 14977 H 1372.68 0.344569 6.4458 0
M  V30 14978 H 1373.45 1.71749 8.00278 0
M  V30 14979 N 1376.11 -1.55841 -0.234795 0
M  V30 14980 C 1377.04 -1.94344 -1.29432 0
M  V30 14981 C 1378.02 -0.809912 -1.49581 0
M  V30 14982 O 1379.21 -1.07117 -1.61986 0
M  V30 14983 C 1376.34 -2.24866 -2.64675 0
M  V30 14984 C 1375.29 -3.40584 -2.59203 0
M  V30 14985 C 1374.62 -3.56678 -3.98353 0
M  V30 14986 C 1375.92 -4.75935 -2.15135 0
M  V30 14987 H 1377.61 -2.83096 -0.97454 0
M  V30 14988 H 1375.16 -1.36205 -0.467355 0
M  V30 14989 H 1377.11 -2.50392 -3.38942 0
M  V30 14990 H 1375.83 -1.32953 -2.98314 0
M  V30 14991 H 1374.49 -3.15087 -1.87393 0
M  V30 14992 H 1374.14 -2.62164 -4.29277 0
M  V30 14993 H 1373.84 -4.34503 -3.95577 0
M  V30 14994 H 1375.37 -3.84538 -4.74302 0
M  V30 14995 H 1376.78 -5.00753 -2.7914 0
M  V30 14996 H 1375.18 -5.56949 -2.23446 0
M  V30 14997 H 1376.25 -4.72182 -1.10328 0
M  V30 14998 N 1377.59 0.500963 -1.49426 0
M  V30 14999 C 1379 1.08248 -1.52116 0
M  V30 15000 C 1379.35 1.93777 -0.30738 0
M  V30 15001 O 1378.48 2.08404 0.582805 0
M  V30 15002 C 1379.07 1.96988 -2.75647 0
M  V30 15003 C 1377.63 2.50303 -2.81115 0
M  V30 15004 C 1376.78 1.27924 -2.4603 0
M  V30 15005 H 1379.73 0.284872 -1.56122 0
M  V30 15006 H 1379.75 2.81675 -2.55811 0
M  V30 15007 H 1379.26 1.34711 -3.6397 0
M  V30 15008 H 1377.36 3.16218 -1.97072 0
M  V30 15009 H 1377.48 2.87453 -3.83286 0
M  V30 15010 H 1375.84 1.60447 -1.9781 0
M  V30 15011 H 1376.62 0.673557 -3.36628 0
M  V30 15012 N 1379.07 1.38501 0.752011 0
M  V30 15013 C 1380.3 1.37832 1.53902 0
M  V30 15014 C 1380.71 -0.0333526 1.89171 0
M  V30 15015 O 1380.05 -1.01076 1.53393 0
M  V30 15016 C 1380.11 2.17098 2.86546 0
M  V30 15017 C 1379.77 3.65895 2.73807 0
M  V30 15018 C 1380.77 4.59353 2.43497 0
M  V30 15019 C 1378.46 4.0927 2.9121 0
M  V30 15020 C 1380.45 5.94167 2.30746 0
M  V30 15021 C 1378.14 5.44165 2.78079 0
M  V30 15022 C 1379.14 6.36427 2.47891 0
M  V30 15023 O 1378.82 7.68839 2.34822 0
M  V30 15024 H 1378.56 0.473187 0.482773 0
M  V30 15025 H 1381.11 1.82715 0.938324 0
M  V30 15026 H 1379.34 1.66936 3.48811 0
M  V30 15027 H 1381.03 2.08817 3.48067 0
M  V30 15028 H 1381.79 4.27147 2.29718 0
M  V30 15029 H 1377.67 3.37803 3.13704 0
M  V30 15030 H 1381.22 6.66148 2.07105 0
M  V30 15031 H 1377.11 5.75967 2.91432 0
M  V30 15032 H 1377.88 7.79379 2.50022 0
M  V30 15033 N 1380.55 -0.980364 1.23396 0
M  V30 15034 C 1381.79 -1.71826 1.06397 0
M  V30 15035 C 1382.11 -1.90854 -0.399958 0
M  V30 15036 O 1381.38 -1.47721 -1.28668 0
M  V30 15037 H 1379.96 -0.636669 0.390719 0
M  V30 15038 H 1382.63 -1.18008 1.55113 0
M  V30 15039 H 1381.72 -2.7078 1.55192 0
M  V30 15040 N 1382.02 -1.04567 -1.17913 0
M  V30 15041 C 1383.25 -0.772146 -1.92491 0
M  V30 15042 C 1383.67 0.665297 -1.75942 0
M  V30 15043 O 1383.03 1.46144 -1.07292 0
M  V30 15044 C 1383.08 -1.14966 -3.41782 0
M  V30 15045 O 1382.18 -0.278091 -4.11461 0
M  V30 15046 H 1381.52 -0.283715 -0.600335 0
M  V30 15047 H 1384.05 -1.39685 -1.49496 0
M  V30 15048 H 1384.06 -1.11374 -3.92505 0
M  V30 15049 H 1382.74 -2.1968 -3.53148 0
M  V30 15050 H 1381.32 -0.374073 -3.71019 0
M  V30 15051 N 1383.5 1.34231 -0.825823 0
M  V30 15052 C 1384.43 2.31997 -0.264546 0
M  V30 15053 C 1385.41 1.58375 0.620592 0
M  V30 15054 O 1386.6 1.86341 0.546865 0
M  V30 15055 C 1383.73 3.42557 0.572025 0
M  V30 15056 C 1382.68 4.27454 -0.216219 0
M  V30 15057 C 1382.01 5.29509 0.743279 0
M  V30 15058 C 1383.31 5.02456 -1.42603 0
M  V30 15059 H 1385 2.79189 -1.08139 0
M  V30 15060 H 1382.55 1.34227 -0.521451 0
M  V30 15061 H 1384.5 4.09968 0.974889 0
M  V30 15062 H 1383.22 2.94021 1.42195 0
M  V30 15063 H 1381.88 3.61649 -0.600485 0
M  V30 15064 H 1381.53 4.77234 1.58924 0
M  V30 15065 H 1381.23 5.87188 0.220064 0
M  V30 15066 H 1382.76 5.99789 1.14394 0
M  V30 15067 H 1384.17 5.62706 -1.09702 0
M  V30 15068 H 1382.57 5.69723 -1.88509 0
M  V30 15069 H 1383.64 4.31983 -2.2027 0
M  V30 15070 N 1384.98 0.581051 1.46498 0
M  V30 15071 C 1386.4 0.242599 1.57745 0
M  V30 15072 C 1386.6 -1.25508 1.57639 0
M  V30 15073 O 1385.65 -2.0367 1.49247 0
M  V30 15074 C 1386.96 0.890342 2.87217 0
M  V30 15075 C 1388.51 0.863778 3.00845 0
M  V30 15076 C 1388.99 1.49103 4.3305 0
M  V30 15077 N 1390.48 1.4553 4.39745 0
M  V30 15078 C 1391.21 1.91003 5.40653 0
M  V30 15079 N 1390.71 2.44442 6.48244 0
M  V30 15080 N 1392.5 1.8193 5.31844 0
M  V30 15081 H 1384.65 1.55382 1.44811 0
M  V30 15082 H 1386.92 0.649375 0.690664 0
M  V30 15083 H 1386.62 1.94383 2.93101 0
M  V30 15084 H 1386.5 0.397569 3.75099 0
M  V30 15085 H 1388.88 -0.181089 2.94544 0
M  V30 15086 H 1388.96 1.39455 2.14443 0
M  V30 15087 H 1388.61 2.53509 4.40109 0
M  V30 15088 H 1388.54 0.935496 5.18224 0
M  V30 15089 H 1391.03 1.06466 3.62593 0
M  V30 15090 H 1391.34 2.77002 7.2145 0
M  V30 15091 H 1389.69 2.48467 6.49068 0
M  V30 15092 H 1392.88 1.3994 4.46693 0
M  V30 15093 H 1393.05 2.17685 6.10342 0
M  V30 15094 N 1386.46 -1.54343 0.318742 0
M  V30 15095 C 1387.73 -1.92635 -0.339299 0
M  V30 15096 C 1388.11 -1.24786 -1.7027 0
M  V30 15097 O 1387.46 -0.389844 -2.2515 0
M  V30 15098 C 1387.67 -3.46262 -0.436318 0
M  V30 15099 C 1389.02 -4.18809 -0.698871 0
M  V30 15100 O 1390.04 -3.52392 -0.519431 0
M  V30 15101 O 1388.9 -5.36422 -1.04471 0
M  V30 15102 H 1386 -0.804202 -0.192841 0
M  V30 15103 H 1388.54 -1.6566 0.368104 0
M  V30 15104 H 1387.32 -3.8781 0.521427 0
M  V30 15105 H 1386.94 -3.79327 -1.19149 0
M  V30 15106 N 1387.94 -0.0468143 -1.5753 0
M  V30 15107 C 1389.17 0.636723 -1.96544 0
M  V30 15108 C 1389.57 1.65169 -0.922814 0
M  V30 15109 O 1388.92 1.83417 0.101892 0
M  V30 15110 C 1388.98 1.38435 -3.31777 0
M  V30 15111 C 1388.64 0.525714 -4.53966 0
M  V30 15112 C 1389.64 -0.206392 -5.1949 0
M  V30 15113 C 1387.32 0.457919 -5.00208 0
M  V30 15114 C 1389.32 -0.994779 -6.29589 0
M  V30 15115 C 1387.01 -0.334159 -6.10186 0
M  V30 15116 C 1388 -1.0592 -6.74737 0
M  V30 15117 O 1387.69 -1.83826 -7.826 0
M  V30 15118 H 1387.42 0.179197 -0.651816 0
M  V30 15119 H 1389.98 -0.108214 -2.05115 0
M  V30 15120 H 1388.21 2.17482 -3.19748 0
M  V30 15121 H 1389.9 1.9577 -3.55568 0
M  V30 15122 H 1390.66 -0.163457 -4.84724 0
M  V30 15123 H 1386.54 1.01185 -4.49758 0
M  V30 15124 H 1390.09 -1.56121 -6.79906 0
M  V30 15125 H 1385.98 -0.378748 -6.44388 0
M  V30 15126 H 1386.75 -1.75991 -7.99356 0
M  V30 15127 N 1389.41 1.55964 0.226527 0
M  V30 15128 C 1390.34 1.95028 1.284 0
M  V30 15129 C 1391.33 0.817833 1.49149 0
M  V30 15130 O 1392.51 1.07975 1.61416 0
M  V30 15131 C 1389.64 2.26266 2.63478 0
M  V30 15132 C 1388.59 3.41954 2.57393 0
M  V30 15133 C 1387.92 3.58786 3.96456 0
M  V30 15134 C 1389.22 4.77069 2.12608 0
M  V30 15135 H 1390.91 2.83608 0.959513 0
M  V30 15136 H 1388.46 1.36451 0.460125 0
M  V30 15137 H 1390.41 2.52186 3.3761 0
M  V30 15138 H 1389.14 1.34533 2.97604 0
M  V30 15139 H 1387.8 3.16076 1.85719 0
M  V30 15140 H 1387.44 2.64437 4.27881 0
M  V30 15141 H 1387.14 4.36595 3.93267 0
M  V30 15142 H 1388.67 3.87048 4.72256 0
M  V30 15143 H 1390.08 5.02226 2.76481 0
M  V30 15144 H 1388.48 5.58126 2.2049 0
M  V30 15145 H 1389.55 4.7276 1.07823 0
M  V30 15146 N 1390.89 -0.493031 1.4969 0
M  V30 15147 C 1391.82 -1.61058 1.63074 0
M  V30 15148 C 1392.84 -1.54504 0.513069 0
M  V30 15149 O 1394.03 -1.60291 0.785431 0
M  V30 15150 C 1391.13 -2.99877 1.57883 0
M  V30 15151 C 1390.3 -3.31531 2.85317 0
M  V30 15152 C 1389.36 -4.49799 2.7307 0
M  V30 15153 O 1388.38 -4.51189 3.47012 0
M  V30 15154 N 1389.59 -5.50182 1.85148 0
M  V30 15155 H 1392.35 -1.5 2.59461 0
M  V30 15156 H 1389.91 -0.681057 1.46878 0
M  V30 15157 H 1391.9 -3.76928 1.47333 0
M  V30 15158 H 1390.47 -3.04817 0.693218 0
M  V30 15159 H 1389.69 -2.433 3.10159 0
M  V30 15160 H 1390.98 -3.49481 3.69784 0
M  V30 15161 H 1390.38 -5.51865 1.24345 0
M  V30 15162 H 1388.94 -6.26305 1.80516 0
M  V30 15163 N 1392.37 -1.38898 -0.744656 0
M  V30 15164 C 1393.32 -1.36845 -1.85855 0
M  V30 15165 C 1394.29 -0.2296 -1.64505 0
M  V30 15166 O 1395.47 -0.423221 -1.86047 0
M  V30 15167 C 1392.61 -1.20818 -3.2326 0
M  V30 15168 C 1391.73 -2.44166 -3.5638 0
M  V30 15169 C 1390.86 -2.20801 -4.83136 0
M  V30 15170 C 1389.9 -3.39874 -5.0907 0
M  V30 15171 N 1389.04 -3.15888 -6.27024 0
M  V30 15172 H 1393.88 -2.32068 -1.86945 0
M  V30 15173 H 1391.41 -1.15289 -0.913611 0
M  V30 15174 H 1393.37 -1.0954 -4.02563 0
M  V30 15175 H 1392 -0.292295 -3.21474 0
M  V30 15176 H 1391.05 -2.66083 -2.71852 0
M  V30 15177 H 1392.37 -3.32885 -3.71469 0
M  V30 15178 H 1391.52 -2.0671 -5.704 0
M  V30 15179 H 1390.26 -1.29462 -4.70203 0
M  V30 15180 H 1389.26 -3.54474 -4.20271 0
M  V30 15181 H 1390.49 -4.32102 -5.23894 0
M  V30 15182 H 1388.43 -2.27204 -6.15398 0
M  V30 15183 H 1388.35 -3.9816 -6.42655 0
M  V30 15184 H 1389.62 -3.0547 -7.17153 0
M  V30 15185 N 1393.85 0.973806 -1.23914 0
M  V30 15186 C 1394.8 2.05229 -0.993221 0
M  V30 15187 C 1395.78 1.60776 0.0631684 0
M  V30 15188 O 1396.97 1.76365 -0.149794 0
M  V30 15189 C 1394.1 3.38132 -0.593421 0
M  V30 15190 C 1393.19 3.89165 -1.68556 0
M  V30 15191 N 1393.58 4.13203 -2.91714 0
M  V30 15192 C 1391.88 4.17765 -1.56167 0
M  V30 15193 C 1392.58 4.54961 -3.62471 0
M  V30 15194 N 1391.56 4.59778 -2.90009 0
M  V30 15195 H 1395.36 2.21781 -1.92848 0
M  V30 15196 H 1392.87 1.15711 -1.1395 0
M  V30 15197 H 1394.87 4.14991 -0.398491 0
M  V30 15198 H 1393.53 3.2297 0.33472 0
M  V30 15199 H 1394.54 4.00832 -3.27954 0
M  V30 15200 H 1391.22 4.11571 -0.701112 0
M  V30 15201 H 1392.61 4.82022 -4.68085 0
M  V30 15202 N 1395.33 1.05191 1.17357 0
M  V30 15203 C 1396.27 0.652868 2.21374 0
M  V30 15204 C 1397.24 -0.344974 1.62478 0
M  V30 15205 O 1398.43 -0.23639 1.8933 0
M  V30 15206 C 1395.57 0.0337737 3.45083 0
M  V30 15207 C 1394.68 1.08045 4.18271 0
M  V30 15208 C 1393.82 0.428673 5.29468 0
M  V30 15209 C 1392.86 1.45966 5.94441 0
M  V30 15210 N 1391.99 0.832042 6.97152 0
M  V30 15211 H 1396.83 1.54434 2.54861 0
M  V30 15212 H 1394.37 0.772365 1.25192 0
M  V30 15213 H 1396.33 -0.342607 4.15791 0
M  V30 15214 H 1394.96 -0.821159 3.12181 0
M  V30 15215 H 1394.01 1.57466 3.46278 0
M  V30 15216 H 1395.32 1.86305 4.62701 0
M  V30 15217 H 1394.48 -0.00129344 6.067 0
M  V30 15218 H 1393.21 -0.385919 4.86171 0
M  V30 15219 H 1392.22 1.89964 5.1594 0
M  V30 15220 H 1393.44 2.27615 6.39819 0
M  V30 15221 H 1391.39 0.0379612 6.55989 0
M  V30 15222 H 1391.31 1.55219 7.39894 0
M  V30 15223 H 1392.58 0.42685 7.7833 0
M  V30 15224 N 1396.8 -1.33791 0.83293 0
M  V30 15225 C 1397.71 -2.33108 0.264169 0
M  V30 15226 C 1398.73 -1.6308 -0.606694 0
M  V30 15227 O 1399.91 -1.94777 -0.512225 0
M  V30 15228 C 1396.97 -3.42208 -0.556315 0
M  V30 15229 C 1396.03 -4.27966 0.338123 0
M  V30 15230 C 1395.27 -5.31856 -0.443297 0
M  V30 15231 O 1395.49 -5.45234 -1.6756 0
M  V30 15232 O 1394.42 -6.01632 0.179599 0
M  V30 15233 H 1398.25 -2.83602 1.08645 0
M  V30 15234 H 1395.83 -1.37027 0.595307 0
M  V30 15235 H 1397.72 -4.088 -1.02277 0
M  V30 15236 H 1396.39 -2.9394 -1.35575 0
M  V30 15237 H 1395.3 -3.64262 0.852293 0
M  V30 15238 H 1396.63 -4.79701 1.10217 0
M  V30 15239 N 1398.28 -0.588812 -1.46187 0
M  V30 15240 C 1399.7 -0.250962 -1.57615 0
M  V30 15241 C 1399.9 1.2467 -1.58302 0
M  V30 15242 O 1398.95 2.02876 -1.50325 0
M  V30 15243 C 1400.27 -0.905561 -2.8674 0
M  V30 15244 C 1401.82 -0.879721 -3.00383 0
M  V30 15245 C 1402.29 -1.51398 -4.32253 0
M  V30 15246 N 1403.78 -1.4786 -4.38967 0
M  V30 15247 C 1404.52 -1.93868 -5.39632 0
M  V30 15248 N 1404.01 -2.47876 -6.46938 0
M  V30 15249 N 1405.81 -1.84748 -5.30872 0
M  V30 15250 H 1397.96 -1.56148 -1.43985 0
M  V30 15251 H 1400.22 -0.653028 -0.68721 0
M  V30 15252 H 1399.93 -1.95935 -2.92066 0
M  V30 15253 H 1399.8 -0.417456 -3.74883 0
M  V30 15254 H 1402.19 0.165466 -2.94636 0
M  V30 15255 H 1402.27 -1.40591 -2.137 0
M  V30 15256 H 1401.91 -2.55839 -4.38758 0
M  V30 15257 H 1401.84 -0.962965 -5.17721 0
M  V30 15258 H 1404.33 -1.08387 -3.62023 0
M  V30 15259 H 1404.65 -2.80824 -7.1997 0
M  V30 15260 H 1402.99 -2.51905 -6.47741 0
M  V30 15261 H 1406.18 -1.42307 -4.45944 0
M  V30 15262 H 1406.35 -2.20919 -6.09179 0
M  V30 15263 N 1399.76 1.54172 -0.326923 0
M  V30 15264 C 1401.01 1.99809 0.275554 0
M  V30 15265 C 1401.32 1.21886 1.52981 0
M  V30 15266 O 1402.53 1.57917 2.20849 0
M  V30 15267 C 1400.98 3.55802 0.541543 0
M  V30 15268 C 1400.59 4.42563 -0.695853 0
M  V30 15269 C 1402.34 4.09898 1.10379 0
M  V30 15270 C 1400.24 5.90035 -0.401581 0
M  V30 15271 H 1399.17 0.746406 0.106742 0
M  V30 15272 H 1401.82 1.78155 -0.439669 0
M  V30 15273 H 1400.21 3.73457 1.31704 0
M  V30 15274 H 1401.38 4.36684 -1.47118 0
M  V30 15275 H 1399.7 3.99373 -1.17855 0
M  V30 15276 H 1402.29 5.17672 1.33863 0
M  V30 15277 H 1402.64 3.62089 2.0542 0
M  V30 15278 H 1403.17 3.9589 0.389395 0
M  V30 15279 H 1399.91 6.42046 -1.32126 0
M  V30 15280 H 1399.43 5.98858 0.335977 0
M  V30 15281 H 1401.11 6.46999 -0.0126539 0
M  V30 15282 N 1401.24 0.0551678 1.57503 0
M  V30 15283 C 1402.52 -0.657808 1.84207 0
M  V30 15284 C 1402.9 -1.88798 0.944372 0
M  V30 15285 O 1402.24 -2.28499 0.00641728 0
M  V30 15286 C 1402.45 -1.0113 3.34026 0
M  V30 15287 C 1403.8 -1.39189 4.01138 0
M  V30 15288 O 1404.83 -1.10353 3.38675 0
M  V30 15289 O 1403.68 -1.93023 5.11277 0
M  V30 15290 H 1400.78 -0.325084 0.760427 0
M  V30 15291 H 1403.32 0.0848352 1.69488 0
M  V30 15292 H 1402.1 -0.13688 3.91061 0
M  V30 15293 H 1401.72 -1.81126 3.53948 0
M  V30 15294 N 1402.72 -1.56081 -0.218252 0
M  V30 15295 C 1403.67 -1.89082 -1.27405 0
M  V30 15296 C 1404.65 -0.754204 -1.42129 0
M  V30 15297 O 1405.84 -1.01668 -1.44888 0
M  V30 15298 C 1402.97 -2.21387 -2.62379 0
M  V30 15299 C 1402.06 -3.41448 -2.51543 0
M  V30 15300 N 1402.45 -4.5998 -2.10362 0
M  V30 15301 C 1400.75 -3.45128 -2.82494 0
M  V30 15302 C 1401.45 -5.42139 -2.10857 0
M  V30 15303 N 1400.42 -4.81936 -2.51472 0
M  V30 15304 H 1404.23 -2.78238 -0.946609 0
M  V30 15305 H 1401.74 -1.56691 -0.426801 0
M  V30 15306 H 1403.74 -2.43205 -3.38611 0
M  V30 15307 H 1402.4 -1.33545 -2.95966 0
M  V30 15308 H 1403.41 -4.85077 -1.8144 0
M  V30 15309 H 1400.08 -2.67638 -3.20431 0
M  V30 15310 H 1401.47 -6.47029 -1.81114 0
M  V30 15311 N 1404.2 0.485086 -1.49949 0
M  V30 15312 C 1405.44 1.23486 -1.5948 0
M  V30 15313 C 1405.76 1.93377 -0.294082 0
M  V30 15314 O 1406.96 2.70173 -0.268133 0
M  V30 15315 C 1405.42 2.24303 -2.81454 0
M  V30 15316 C 1405.03 1.60279 -4.18347 0
M  V30 15317 C 1406.77 3.0001 -3.00324 0
M  V30 15318 C 1404.68 2.593 -5.31524 0
M  V30 15319 H 1403.61 0.464595 -0.593858 0
M  V30 15320 H 1406.26 0.506893 -1.7636 0
M  V30 15321 H 1404.64 3.00332 -2.58102 0
M  V30 15322 H 1405.82 0.901352 -4.51899 0
M  V30 15323 H 1404.13 0.969053 -4.04967 0
M  V30 15324 H 1406.73 3.74091 -3.82048 0
M  V30 15325 H 1407.07 3.5857 -2.11502 0
M  V30 15326 H 1407.6 2.31095 -3.2379 0
M  V30 15327 H 1404.34 2.05498 -6.22455 0
M  V30 15328 H 1403.86 3.27638 -5.02408 0
M  V30 15329 H 1405.54 3.21411 -5.61519 0
M  V30 15330 N 1405.67 1.39291 0.737279 0
M  V30 15331 C 1406.62 1.37829 1.85127 0
M  V30 15332 C 1407.59 0.238321 1.64381 0
M  V30 15333 O 1408.78 0.433081 1.8582 0
M  V30 15334 C 1405.92 1.22531 3.22615 0
M  V30 15335 C 1405.03 2.46052 3.55081 0
M  V30 15336 C 1404.16 2.2336 4.81958 0
M  V30 15337 C 1403.2 3.42569 5.0726 0
M  V30 15338 N 1402.34 3.19209 6.2534 0
M  V30 15339 H 1407.18 2.33056 1.85712 0
M  V30 15340 H 1404.72 1.15772 0.907484 0
M  V30 15341 H 1406.67 1.11673 4.01976 0
M  V30 15342 H 1405.3 0.30934 3.21314 0
M  V30 15343 H 1404.36 2.67521 2.70438 0
M  V30 15344 H 1405.67 3.3485 3.69698 0
M  V30 15345 H 1404.82 2.09732 5.69295 0
M  V30 15346 H 1403.56 1.31953 4.6951 0
M  V30 15347 H 1402.57 3.56698 4.18386 0
M  V30 15348 H 1403.79 4.34874 5.21595 0
M  V30 15349 H 1401.74 2.30464 6.14184 0
M  V30 15350 H 1401.65 4.01562 6.40534 0
M  V30 15351 H 1402.92 3.09269 7.15523 0
M  V30 15352 N 1407.15 -0.967221 1.24429 0
M  V30 15353 C 1408.08 -2.07966 1.06172 0
M  V30 15354 C 1409.06 -1.70081 -0.0254566 0
M  V30 15355 O 1410.25 -1.93682 0.141705 0
M  V30 15356 C 1407.38 -3.4085 0.666251 0
M  V30 15357 C 1406.33 -3.92692 1.70225 0
M  V30 15358 C 1405.66 -5.21925 1.16183 0
M  V30 15359 C 1406.96 -4.20478 3.09831 0
M  V30 15360 H 1408.65 -2.23497 1.99222 0
M  V30 15361 H 1406.2 -1.07398 0.959255 0
M  V30 15362 H 1408.15 -4.1811 0.52552 0
M  V30 15363 H 1406.87 -3.2522 -0.299939 0
M  V30 15364 H 1405.53 -3.17588 1.83121 0
M  V30 15365 H 1405.18 -5.02655 0.186237 0
M  V30 15366 H 1404.88 -5.57579 1.85416 0
M  V30 15367 H 1406.41 -6.01795 1.03323 0
M  V30 15368 H 1407.82 -4.88442 3.00162 0
M  V30 15369 H 1406.22 -4.67362 3.7642 0
M  V30 15370 H 1407.29 -3.27235 3.57834 0
M  V30 15371 N 1408.63 -1.05812 -1.16797 0
M  V30 15372 C 1409.56 -0.685778 -2.23202 0
M  V30 15373 C 1410.54 0.319428 -1.67074 0
M  V30 15374 O 1411.73 0.195635 -1.93212 0
M  V30 15375 C 1408.86 -0.0662958 -3.47237 0
M  V30 15376 C 1407.81 -0.996943 -4.16227 0
M  V30 15377 C 1407.14 -0.241015 -5.34157 0
M  V30 15378 C 1408.44 -2.32384 -4.67755 0
M  V30 15379 H 1410.13 -1.57535 -2.54604 0
M  V30 15380 H 1407.68 -0.758909 -1.22379 0
M  V30 15381 H 1409.63 0.206024 -4.20896 0
M  V30 15382 H 1408.35 0.858263 -3.15121 0
M  V30 15383 H 1407.01 -1.25393 -3.44488 0
M  V30 15384 H 1406.66 0.686508 -4.98293 0
M  V30 15385 H 1406.36 -0.861188 -5.81255 0
M  V30 15386 H 1407.88 0.0238739 -6.10595 0
M  V30 15387 H 1409.3 -2.11099 -5.3302 0
M  V30 15388 H 1407.69 -2.89855 -5.25456 0
M  V30 15389 H 1408.76 -2.958 -3.84227 0
M  V30 15390 N 1410.11 1.33347 -0.840014 0
M  V30 15391 C 1411.04 2.28029 -0.231432 0
M  V30 15392 C 1412.05 1.51792 0.588488 0
M  V30 15393 O 1413.24 1.736 0.415371 0
M  V30 15394 C 1410.34 3.31745 0.692721 0
M  V30 15395 C 1409.51 4.37311 -0.0881144 0
M  V30 15396 C 1408.57 5.20689 0.759557 0
M  V30 15397 O 1407.6 5.68854 0.198347 0
M  V30 15398 N 1408.8 5.42082 2.07672 0
M  V30 15399 H 1411.57 2.80893 -1.04495 0
M  V30 15400 H 1409.13 1.46053 -0.698586 0
M  V30 15401 H 1411.12 3.84428 1.2648 0
M  V30 15402 H 1409.69 2.79148 1.40695 0
M  V30 15403 H 1408.91 3.85112 -0.841579 0
M  V30 15404 H 1410.2 5.04947 -0.624986 0
M  V30 15405 H 1409.6 5.04654 2.55619 0
M  V30 15406 H 1408.15 5.97817 2.59726 0
M  V30 15407 N 1411.59 0.596556 1.45873 0
M  V30 15408 C 1412.82 0.093357 2.06389 0
M  V30 15409 C 1413.22 -1.2229 1.44367 0
M  V30 15410 O 1412.57 -1.75332 0.548131 0
M  V30 15411 C 1412.63 -0.132256 3.59257 0
M  V30 15412 C 1412.29 1.10051 4.43551 0
M  V30 15413 C 1413.29 2.01598 4.79223 0
M  V30 15414 C 1410.97 1.32625 4.84475 0
M  V30 15415 C 1412.97 3.14054 5.54661 0
M  V30 15416 C 1410.66 2.45384 5.5967 0
M  V30 15417 C 1411.65 3.35927 5.94678 0
M  V30 15418 O 1411.34 4.46726 6.6835 0
M  V30 15419 H 1411.07 0.0608944 0.673252 0
M  V30 15420 H 1413.63 0.821009 1.88278 0
M  V30 15421 H 1411.86 -0.914678 3.75727 0
M  V30 15422 H 1413.55 -0.585681 4.01652 0
M  V30 15423 H 1414.31 1.85379 4.48174 0
M  V30 15424 H 1410.19 0.630522 4.56668 0
M  V30 15425 H 1413.74 3.8475 5.81904 0
M  V30 15426 H 1409.63 2.6156 5.90133 0
M  V30 15427 H 1410.4 4.45268 6.86789 0
M  V30 15428 N 1413.06 -1.53996 0.335095 0
M  V30 15429 C 1414.29 -2.05188 -0.26563 0
M  V30 15430 C 1414.71 -1.21058 -1.44881 0
M  V30 15431 O 1414.06 -0.243919 -1.80863 0
M  V30 15432 C 1414.11 -3.54875 -0.688904 0
M  V30 15433 O 1413.84 -4.35811 0.447217 0
M  V30 15434 C 1415.34 -4.22204 -1.35123 0
M  V30 15435 H 1412.56 -0.668921 -0.0527806 0
M  V30 15436 H 1415.1 -1.98675 0.48463 0
M  V30 15437 H 1413.26 -3.61638 -1.38912 0
M  V30 15438 H 1413.67 -5.24381 0.111495 0
M  V30 15439 H 1415.14 -5.28356 -1.59823 0
M  V30 15440 H 1415.62 -3.74029 -2.30216 0
M  V30 15441 H 1416.23 -4.19611 -0.693283 0
M  V30 15442 N 1414.54 -0.0635198 -1.57472 0
M  V30 15443 C 1415.77 0.620205 -1.9791 0
M  V30 15444 C 1416.19 1.62851 -0.941335 0
M  V30 15445 O 1415.55 1.81056 0.0940313 0
M  V30 15446 C 1415.6 1.27261 -3.37397 0
M  V30 15447 O 1414.7 2.38841 -3.36197 0
M  V30 15448 H 1414.04 0.16021 -0.644382 0
M  V30 15449 H 1416.57 -0.135582 -2.0415 0
M  V30 15450 H 1416.58 1.6214 -3.74399 0
M  V30 15451 H 1415.26 0.533723 -4.12461 0
M  V30 15452 H 1413.83 2.05817 -3.10956 0
M  V30 15453 N 1416.02 1.56195 0.209972 0
M  V30 15454 C 1416.95 1.89859 1.28398 0
M  V30 15455 C 1417.96 0.787878 1.42465 0
M  V30 15456 O 1419.15 1.06623 1.43156 0
M  V30 15457 C 1416.25 2.10231 2.65812 0
M  V30 15458 C 1415.43 3.41309 2.73545 0
M  V30 15459 C 1414.49 3.50973 3.92052 0
M  V30 15460 O 1413.51 4.23915 3.79849 0
M  V30 15461 N 1414.71 2.82965 5.06864 0
M  V30 15462 H 1417.48 2.82581 0.998411 0
M  V30 15463 H 1415.04 1.56882 0.399964 0
M  V30 15464 H 1417.03 2.13999 3.43492 0
M  V30 15465 H 1415.6 1.2408 2.8692 0
M  V30 15466 H 1414.82 3.49539 1.82253 0
M  V30 15467 H 1416.11 4.27636 2.7569 0
M  V30 15468 H 1415.51 2.23504 5.19676 0
M  V30 15469 H 1414.06 2.9238 5.82544 0
M  V30 15470 N 1417.5 -0.477127 1.50204 0
M  V30 15471 C 1418.75 -1.22639 1.60133 0
M  V30 15472 C 1419.06 -1.93218 0.304333 0
M  V30 15473 O 1420.27 -2.70027 0.282457 0
M  V30 15474 C 1418.72 -2.22807 2.82639 0
M  V30 15475 C 1418.33 -1.58059 4.19191 0
M  V30 15476 C 1420.07 -2.98413 3.01911 0
M  V30 15477 C 1417.98 -2.56478 5.32891 0
M  V30 15478 H 1416.91 -0.461439 0.596314 0
M  V30 15479 H 1419.56 -0.497533 1.76626 0
M  V30 15480 H 1417.94 -2.98959 2.59692 0
M  V30 15481 H 1419.12 -0.877374 4.5237 0
M  V30 15482 H 1417.43 -0.947563 4.05475 0
M  V30 15483 H 1420.03 -3.72059 3.84026 0
M  V30 15484 H 1420.37 -3.57444 2.134 0
M  V30 15485 H 1420.91 -2.29375 3.25011 0
M  V30 15486 H 1417.64 -2.02194 6.23536 0
M  V30 15487 H 1417.16 -3.24969 5.04138 0
M  V30 15488 H 1418.84 -3.18429 5.63216 0
M  V30 15489 N 1418.98 -1.3968 -0.729882 0
M  V30 15490 C 1420.22 -1.3862 -1.50213 0
M  V30 15491 C 1420.58 0.0167409 -1.91993 0
M  V30 15492 O 1421.78 0.15238 -2.68368 0
M  V30 15493 C 1420.05 -2.33583 -2.70507 0
M  V30 15494 S 1421.61 -2.50756 -3.60093 0
M  V30 15495 H 1418.43 -0.491511 -0.513749 0
M  V30 15496 H 1421.03 -1.75823 -0.854783 0
M  V30 15497 H 1419.74 -3.34369 -2.37961 0
M  V30 15498 H 1419.27 -1.97613 -3.40166 0
M  V30 15499 H 1421.28 -1.74929 -4.64343 0
M  V30 15500 N 1420.45 0.960609 -1.2494 0
M  V30 15501 C 1421.4 2.05634 -1.04801 0
M  V30 15502 C 1422.37 1.66049 0.0409611 0
M  V30 15503 O 1423.56 1.90453 -0.115053 0
M  V30 15504 C 1420.7 3.38604 -0.666444 0
M  V30 15505 C 1419.81 3.91341 -1.82964 0
M  V30 15506 C 1418.94 5.1261 -1.39299 0
M  V30 15507 C 1417.98 5.57562 -2.52569 0
M  V30 15508 N 1417.12 6.70046 -2.09722 0
M  V30 15509 H 1421.96 2.22194 -1.9858 0
M  V30 15510 H 1419.5 1.08892 -0.988981 0
M  V30 15511 H 1421.46 4.15017 -0.426205 0
M  V30 15512 H 1420.09 3.21948 0.23435 0
M  V30 15513 H 1419.14 3.11502 -2.18335 0
M  V30 15514 H 1420.45 4.20656 -2.68049 0
M  V30 15515 H 1419.6 5.96421 -1.11205 0
M  V30 15516 H 1418.34 4.84997 -0.512779 0
M  V30 15517 H 1417.35 4.72319 -2.81415 0
M  V30 15518 H 1418.57 5.87186 -3.41159 0
M  V30 15519 H 1416.52 6.44153 -1.24109 0
M  V30 15520 H 1416.44 6.98846 -2.88357 0
M  V30 15521 H 1417.7 7.57281 -1.84787 0
M  V30 15522 N 1421.93 1.0643 1.16234 0
M  V30 15523 C 1423.18 0.780296 1.86429 0
M  V30 15524 C 1423.5 -0.695335 1.82181 0
M  V30 15525 O 1422.77 -1.50312 1.2563 0
M  V30 15526 H 1421.35 0.285654 0.690225 0
M  V30 15527 H 1424.01 1.34609 1.40949 0
M  V30 15528 H 1423.11 1.10644 2.91829 0
M  V30 15529 N 1423.41 -1.329 0.847073 0
M  V30 15530 C 1424.34 -2.27027 0.231111 0
M  V30 15531 C 1425.32 -1.50045 -0.626524 0
M  V30 15532 O 1426.51 -1.79193 -0.58499 0
M  V30 15533 C 1423.63 -3.31911 -0.67472 0
M  V30 15534 C 1422.68 -4.26362 0.108531 0
M  V30 15535 S 1423.51 -5.14874 1.4719 0
M  V30 15536 C 1424.67 -6.23285 0.571586 0
M  V30 15537 H 1424.9 -2.78922 1.02906 0
M  V30 15538 H 1422.43 -1.40315 0.64428 0
M  V30 15539 H 1424.39 -3.92821 -1.19172 0
M  V30 15540 H 1423.05 -2.78815 -1.44641 0
M  V30 15541 H 1422.25 -5.00639 -0.581079 0
M  V30 15542 H 1421.85 -3.69831 0.556863 0
M  V30 15543 H 1424.14 -6.77119 -0.227261 0
M  V30 15544 H 1425.08 -6.96347 1.28477 0
M  V30 15545 H 1425.49 -5.64303 0.149291 0
M  V30 15546 N 1424.89 -0.604284 -1.45555 0
M  V30 15547 C 1425.8 0.118409 -2.34301 0
M  V30 15548 C 1426.81 0.863807 -1.51044 0
M  V30 15549 O 1427.99 0.822138 -1.83856 0
M  V30 15550 C 1425.06 1.10538 -3.28606 0
M  V30 15551 C 1424.12 0.362301 -4.27768 0
M  V30 15552 C 1423.35 1.30226 -5.17568 0
M  V30 15553 O 1423.57 2.53991 -5.10729 0
M  V30 15554 O 1422.51 0.801116 -5.96545 0
M  V30 15555 H 1426.33 -0.610816 -2.97494 0
M  V30 15556 H 1423.92 -0.364562 -1.44884 0
M  V30 15557 H 1425.8 1.67392 -3.86727 0
M  V30 15558 H 1424.47 1.81569 -2.67982 0
M  V30 15559 H 1423.38 -0.248616 -3.73273 0
M  V30 15560 H 1424.71 -0.307454 -4.91239 0
M  V30 15561 N 1426.37 1.53816 -0.343257 0
M  V30 15562 C 1427.6 2.05028 0.254375 0
M  V30 15563 C 1428 1.21793 1.44786 0
M  V30 15564 O 1427.35 0.246075 1.82044 0
M  V30 15565 C 1427.41 3.5194 0.733364 0
M  V30 15566 C 1427.07 4.5573 -0.340434 0
M  V30 15567 C 1428.07 5.06261 -1.18304 0
M  V30 15568 C 1425.76 4.99862 -0.494277 0
M  V30 15569 C 1427.75 5.99504 -2.16503 0
M  V30 15570 C 1425.44 5.92916 -1.47967 0
M  V30 15571 C 1426.43 6.42625 -2.3135 0
M  V30 15572 O 1426.12 7.33848 -3.28211 0
M  V30 15573 H 1425.85 0.673922 0.0529695 0
M  V30 15574 H 1428.41 1.99387 -0.493352 0
M  V30 15575 H 1426.64 3.55044 1.53233 0
M  V30 15576 H 1428.33 3.86124 1.25151 0
M  V30 15577 H 1429.09 4.7293 -1.07527 0
M  V30 15578 H 1424.97 4.60772 0.144904 0
M  V30 15579 H 1428.52 6.38227 -2.81624 0
M  V30 15580 H 1424.41 6.25662 -1.588 0
M  V30 15581 H 1425.18 7.51781 -3.23679 0
M  V30 15582 N 1427.84 0.0718701 1.57436 0
M  V30 15583 C 1428.77 -0.89288 2.15754 0
M  V30 15584 C 1429.76 -1.31036 1.0846 0
M  V30 15585 O 1430.94 -1.38139 1.36496 0
M  V30 15586 C 1428.07 -2.16044 2.71923 0
M  V30 15587 C 1427.02 -1.88236 3.84384 0
M  V30 15588 C 1426.35 -3.21624 4.27156 0
M  V30 15589 C 1427.65 -1.18758 5.0862 0
M  V30 15590 H 1429.34 -0.407061 2.9662 0
M  V30 15591 H 1426.89 -0.194354 1.42682 0
M  V30 15592 H 1428.84 -2.83952 3.11366 0
M  V30 15593 H 1427.57 -2.66868 1.88279 0
M  V30 15594 H 1426.23 -1.22734 3.45445 0
M  V30 15595 H 1425.87 -3.70289 3.40433 0
M  V30 15596 H 1425.57 -3.03809 5.02965 0
M  V30 15597 H 1427.1 -3.90729 4.69215 0
M  V30 15598 H 1428.51 -1.76735 5.45378 0
M  V30 15599 H 1426.91 -1.11201 5.89707 0
M  V30 15600 H 1427.98 -0.166682 4.84613 0
M  V30 15601 N 1429.32 -1.56304 -0.201686 0
M  V30 15602 C 1430.57 -1.79881 -0.921269 0
M  V30 15603 C 1430.89 -0.643809 -1.84065 0
M  V30 15604 O 1430.16 0.338239 -1.92958 0
M  V30 15605 H 1428.74 -0.663506 -0.343175 0
M  V30 15606 H 1431.4 -1.93779 -0.208775 0
M  V30 15607 H 1430.5 -2.7279 -1.51631 0
M  V30 15608 N 1430.8 0.469154 -1.50455 0
M  V30 15609 C 1432.03 1.24432 -1.653 0
M  V30 15610 C 1432.44 1.85766 -0.33713 0
M  V30 15611 O 1431.8 1.69313 0.681118 0
M  V30 15612 C 1431.85 2.35163 -2.74555 0
M  V30 15613 O 1431.57 1.76344 -4.01042 0
M  V30 15614 C 1433.07 3.26006 -3.00391 0
M  V30 15615 H 1430.29 0.376251 -0.555587 0
M  V30 15616 H 1432.84 0.559777 -1.96689 0
M  V30 15617 H 1430.99 2.99389 -2.45855 0
M  V30 15618 H 1431.41 2.49278 -4.61477 0
M  V30 15619 H 1432.88 3.99909 -3.80496 0
M  V30 15620 H 1433.36 3.84901 -2.11537 0
M  V30 15621 H 1433.96 2.67515 -3.3063 0
M  V30 15622 N 1432.28 1.40065 0.722464 0
M  V30 15623 C 1433.23 1.39784 1.83655 0
M  V30 15624 C 1434.2 0.255743 1.64119 0
M  V30 15625 O 1435.38 0.452766 1.8535 0
M  V30 15626 C 1432.52 1.25946 3.21297 0
M  V30 15627 C 1431.63 2.49805 3.52451 0
M  V30 15628 C 1430.77 2.2846 4.79562 0
M  V30 15629 C 1429.81 3.4793 5.03598 0
M  V30 15630 N 1428.94 3.25823 6.21919 0
M  V30 15631 H 1433.78 2.35013 1.83229 0
M  V30 15632 H 1431.32 1.16728 0.895154 0
M  V30 15633 H 1433.28 1.15931 4.00769 0
M  V30 15634 H 1431.91 0.343402 3.20968 0
M  V30 15635 H 1430.96 2.70375 2.67585 0
M  V30 15636 H 1432.27 3.38753 3.66126 0
M  V30 15637 H 1431.43 2.15758 5.67039 0
M  V30 15638 H 1430.17 1.36926 4.68084 0
M  V30 15639 H 1429.17 3.61116 4.14579 0
M  V30 15640 H 1430.4 4.40382 5.16953 0
M  V30 15641 H 1428.34 2.36965 6.11705 0
M  V30 15642 H 1428.26 4.08333 6.36239 0
M  V30 15643 H 1429.53 3.16841 7.12202 0
M  V30 15644 N 1433.76 -0.95397 1.25448 0
M  V30 15645 C 1435.17 -1.22516 1.02284 0
M  V30 15646 C 1435.37 -1.99816 -0.259933 0
M  V30 15647 O 1434.43 -2.33022 -0.972479 0
M  V30 15648 C 1435.74 -1.9989 2.24643 0
M  V30 15649 C 1437.29 -2.1293 2.29412 0
M  V30 15650 C 1437.77 -2.93703 3.51429 0
M  V30 15651 N 1439.26 -3.01281 3.51829 0
M  V30 15652 C 1439.99 -3.64174 4.42905 0
M  V30 15653 N 1439.49 -4.28673 5.44253 0
M  V30 15654 N 1441.28 -3.61321 4.30585 0
M  V30 15655 H 1433.43 -0.436859 2.07859 0
M  V30 15656 H 1435.69 -0.255744 0.912852 0
M  V30 15657 H 1435.4 -1.50489 3.17877 0
M  V30 15658 H 1435.27 -3.00593 2.27868 0
M  V30 15659 H 1437.66 -2.61528 1.367 0
M  V30 15660 H 1437.74 -1.1153 2.30206 0
M  V30 15661 H 1437.39 -2.45795 4.44463 0
M  V30 15662 H 1437.32 -3.95331 3.47881 0
M  V30 15663 H 1439.81 -2.55414 2.78517 0
M  V30 15664 H 1440.12 -4.74522 6.09958 0
M  V30 15665 H 1438.47 -4.27299 5.48125 0
M  V30 15666 H 1441.66 -3.10118 3.50634 0
M  V30 15667 H 1441.83 -4.1005 5.0176 0
M  V30 15668 N 1435.24 -1.07045 -1.15668 0
M  V30 15669 C 1436.47 -0.811567 -1.89992 0
M  V30 15670 C 1436.87 0.638628 -1.78096 0
M  V30 15671 O 1436.22 1.44953 -1.12846 0
M  V30 15672 C 1436.28 -1.13665 -3.41058 0
M  V30 15673 C 1435.94 -2.58681 -3.7674 0
M  V30 15674 C 1436.94 -3.56923 -3.78023 0
M  V30 15675 C 1434.62 -2.94178 -4.07142 0
M  V30 15676 C 1436.62 -4.88699 -4.09209 0
M  V30 15677 C 1434.31 -4.26152 -4.37993 0
M  V30 15678 C 1435.3 -5.23222 -4.39007 0
M  V30 15679 O 1434.99 -6.52826 -4.6912 0
M  V30 15680 H 1434.72 -0.293243 -0.609085 0
M  V30 15681 H 1437.28 -1.42941 -1.47502 0
M  V30 15682 H 1435.51 -0.461762 -3.83933 0
M  V30 15683 H 1437.2 -0.860808 -3.96667 0
M  V30 15684 H 1437.96 -3.30842 -3.54639 0
M  V30 15685 H 1433.84 -2.19272 -4.05513 0
M  V30 15686 H 1437.39 -5.6446 -4.09915 0
M  V30 15687 H 1433.28 -4.51988 -4.60844 0
M  V30 15688 H 1434.05 -6.5793 -4.86898 0
M  V30 15689 N 1436.71 1.32449 -0.85411 0
M  V30 15690 C 1437.96 1.96537 -0.453451 0
M  V30 15691 C 1438.28 1.68344 0.995982 0
M  V30 15692 O 1439.48 2.26166 1.50204 0
M  V30 15693 C 1437.94 3.51785 -0.759934 0
M  V30 15694 C 1437.55 3.88838 -2.22506 0
M  V30 15695 C 1439.29 4.22347 -0.426973 0
M  V30 15696 C 1437.2 5.37129 -2.47479 0
M  V30 15697 H 1436.13 0.735537 -0.165835 0
M  V30 15698 H 1438.78 1.50851 -1.04481 0
M  V30 15699 H 1437.16 3.95879 -0.0980116 0
M  V30 15700 H 1438.33 3.55756 -2.92873 0
M  V30 15701 H 1436.65 3.31299 -2.52249 0
M  V30 15702 H 1439.25 5.31424 -0.590986 0
M  V30 15703 H 1439.59 4.11485 0.631359 0
M  V30 15704 H 1440.12 3.83835 -1.04477 0
M  V30 15705 H 1436.86 5.53012 -3.51935 0
M  V30 15706 H 1436.38 5.71619 -1.8169 0
M  V30 15707 H 1438.06 6.04204 -2.31401 0
M  V30 15708 N 1438.19 0.611994 1.45232 0
M  V30 15709 C 1439.14 -0.125771 2.27653 0
M  V30 15710 C 1440.13 -0.834397 1.37574 0
M  V30 15711 O 1441.32 -0.72366 1.61531 0
M  V30 15712 C 1438.45 -1.11955 3.24532 0
M  V30 15713 C 1437.53 -0.411537 4.22099 0
M  V30 15714 N 1437.92 0.549272 5.02809 0
M  V30 15715 C 1436.22 -0.658514 4.41112 0
M  V30 15716 C 1436.92 0.965836 5.73626 0
M  V30 15717 N 1435.9 0.308649 5.42723 0
M  V30 15718 H 1439.7 0.612115 2.87455 0
M  V30 15719 H 1437.21 0.436003 1.56438 0
M  V30 15720 H 1439.21 -1.66253 3.82316 0
M  V30 15721 H 1437.87 -1.85795 2.6629 0
M  V30 15722 H 1438.88 0.926222 5.0955 0
M  V30 15723 H 1435.56 -1.38125 3.9399 0
M  V30 15724 H 1436.95 1.75853 6.48479 0
M  V30 15725 N 1439.67 -1.53632 0.351409 0
M  V30 15726 C 1441.09 -1.596 -0.000214515 0
M  V30 15727 C 1441.29 -1.36709 -1.4803 0
M  V30 15728 O 1440.34 -1.16524 -2.24006 0
M  V30 15729 C 1441.65 -2.97419 0.443013 0
M  V30 15730 C 1443.2 -3.10485 0.396025 0
M  V30 15731 C 1443.68 -4.50693 0.814843 0
M  V30 15732 N 1445.17 -4.56766 0.76934 0
M  V30 15733 C 1445.9 -5.63418 1.06526 0
M  V30 15734 N 1445.4 -6.77887 1.42974 0
M  V30 15735 N 1447.19 -5.53331 0.988986 0
M  V30 15736 H 1439.34 -1.66765 1.31542 0
M  V30 15737 H 1441.61 -0.781418 0.53674 0
M  V30 15738 H 1441.31 -3.19262 1.47529 0
M  V30 15739 H 1441.19 -3.76781 -0.177725 0
M  V30 15740 H 1443.57 -2.8836 -0.627092 0
M  V30 15741 H 1443.65 -2.33163 1.05207 0
M  V30 15742 H 1443.3 -4.73554 1.83601 0
M  V30 15743 H 1443.23 -5.26424 0.136193 0
M  V30 15744 H 1445.72 -3.74569 0.500623 0
M  V30 15745 H 1446.03 -7.55194 1.64018 0
M  V30 15746 H 1444.38 -6.79314 1.46827 0
M  V30 15747 H 1447.57 -4.62783 0.703526 0
M  V30 15748 H 1447.74 -6.36355 1.22295 0
M  V30 15749 N 1441.15 -0.0802183 -1.57396 0
M  V30 15750 C 1442.42 0.628419 -1.8523 0
M  V30 15751 C 1442.8 1.87272 -0.974288 0
M  V30 15752 O 1442.15 2.2846 -0.0427687 0
M  V30 15753 C 1442.36 0.958033 -3.35593 0
M  V30 15754 C 1443.71 1.3279 -4.03301 0
M  V30 15755 O 1444.73 1.04951 -3.40388 0
M  V30 15756 O 1443.59 1.84865 -5.14283 0
M  V30 15757 H 1440.69 0.312945 -0.765503 0
M  V30 15758 H 1443.23 -0.111788 -1.69331 0
M  V30 15759 H 1442.01 0.074648 -3.91229 0
M  V30 15760 H 1441.63 1.75472 -3.56785 0
M  V30 15761 N 1442.63 1.56409 0.193394 0
M  V30 15762 C 1443.56 1.97707 1.24234 0
M  V30 15763 C 1444.54 0.849286 1.47381 0
M  V30 15764 O 1445.72 1.11374 1.59089 0
M  V30 15765 C 1442.85 2.31804 2.5862 0
M  V30 15766 C 1441.81 3.47337 2.50082 0
M  V30 15767 C 1441.13 3.67114 3.88756 0
M  V30 15768 C 1442.43 4.81472 2.02441 0
M  V30 15769 H 1444.13 2.8558 0.89914 0
M  V30 15770 H 1441.67 1.37396 0.431078 0
M  V30 15771 H 1443.62 2.5929 3.32185 0
M  V30 15772 H 1442.35 1.40816 2.94684 0
M  V30 15773 H 1441.01 3.19944 1.78973 0
M  V30 15774 H 1440.66 2.73454 4.22175 0
M  V30 15775 H 1440.36 4.44838 3.83918 0
M  V30 15776 H 1441.88 3.96978 4.6394 0
M  V30 15777 H 1443.29 5.07978 2.65766 0
M  V30 15778 H 1441.69 5.62677 2.08601 0
M  V30 15779 H 1442.76 4.74941 0.977704 0
M  V30 15780 N 1444.1 -0.461169 1.50702 0
M  V30 15781 C 1445.07 -1.54032 1.69725 0
M  V30 15782 C 1446.07 -1.50445 0.567707 0
M  V30 15783 O 1447.26 -1.52889 0.834901 0
M  V30 15784 C 1444.39 -2.93642 1.73168 0
M  V30 15785 H 1445.58 -1.38478 2.66015 0
M  V30 15786 H 1443.13 -0.688235 1.40332 0
M  V30 15787 H 1443.87 -3.14629 0.786078 0
M  V30 15788 H 1443.65 -2.97652 2.55236 0
M  V30 15789 H 1445.14 -3.71972 1.89807 0
M  V30 15790 N 1445.58 -1.40446 -0.715026 0
M  V30 15791 C 1446.81 -1.4207 -1.50412 0
M  V30 15792 C 1447.22 -0.0205547 -1.88789 0
M  V30 15793 O 1446.58 0.955635 -1.55479 0
M  V30 15794 C 1446.63 -2.3119 -2.77909 0
M  V30 15795 O 1446.35 -3.65754 -2.41154 0
M  V30 15796 C 1447.85 -2.41412 -3.718 0
M  V30 15797 H 1445.07 -0.484554 -0.464164 0
M  V30 15798 H 1447.62 -1.84504 -0.881964 0
M  V30 15799 H 1445.77 -1.92117 -3.36407 0
M  V30 15800 H 1446.19 -4.13091 -3.23197 0
M  V30 15801 H 1447.66 -3.07976 -4.58099 0
M  V30 15802 H 1448.14 -1.43934 -4.14945 0
M  V30 15803 H 1448.74 -2.81039 -3.19213 0
M  V30 15804 N 1447.06 0.947303 -1.25952 0
M  V30 15805 C 1448.48 1.21972 -1.02932 0
M  V30 15806 C 1448.68 1.99951 0.249333 0
M  V30 15807 O 1447.73 2.33534 0.960108 0
M  V30 15808 C 1449.04 1.98695 -2.257 0
M  V30 15809 C 1450.59 2.11711 -2.30538 0
M  V30 15810 C 1451.07 2.91835 -3.52982 0
M  V30 15811 N 1452.56 2.99411 -3.53422 0
M  V30 15812 C 1453.29 3.6182 -4.4483 0
M  V30 15813 N 1452.79 4.25781 -5.46519 0
M  V30 15814 N 1454.58 3.59033 -4.32495 0
M  V30 15815 H 1446.73 0.42583 -2.08088 0
M  V30 15816 H 1449 0.250899 -0.914196 0
M  V30 15817 H 1448.7 1.48801 -3.18671 0
M  V30 15818 H 1448.58 2.9938 -2.29459 0
M  V30 15819 H 1450.96 2.608 -1.38085 0
M  V30 15820 H 1451.04 1.10308 -2.30794 0
M  V30 15821 H 1450.69 2.43435 -4.4576 0
M  V30 15822 H 1450.62 3.9348 -3.49973 0
M  V30 15823 H 1453.11 2.53934 -2.79868 0
M  V30 15824 H 1453.42 4.71281 -6.12466 0
M  V30 15825 H 1451.77 4.24386 -5.50383 0
M  V30 15826 H 1454.96 3.08254 -3.52274 0
M  V30 15827 H 1455.13 4.07384 -5.03927 0
M  V30 15828 N 1448.54 1.07657 1.15099 0
M  V30 15829 C 1449.49 0.694043 2.22004 0
M  V30 15830 C 1450.48 -0.296607 1.66783 0
M  V30 15831 O 1451.69 -0.159989 1.79288 0
M  V30 15832 H 1448.06 0.206374 0.723128 0
M  V30 15833 H 1450.03 1.60523 2.51545 0
M  V30 15834 C 1448.78 0.111245 3.47522 0
M  V30 15835 H 1448.1 0.864677 3.90338 0
M  V30 15836 H 1449.54 -0.118705 4.23834 0
M  V30 15837 C 1448 -1.14889 3.16705 0
M  V30 15838 O 1448.53 -2.2349 3.33789 0
M  V30 15839 N 1446.74 -1.05627 2.70724 0
M  V30 15840 H 1446.29 -0.172463 2.57022 0
M  V30 15841 H 1446.24 -1.9002 2.50479 0
M  V30 15842 N 1450.02 -1.31994 0.861122 0
M  V30 15843 C 1451.27 -1.96294 0.463868 0
M  V30 15844 C 1451.58 -1.68869 -0.98704 0
M  V30 15845 O 1452.78 -2.26959 -1.49003 0
M  V30 15846 C 1451.24 -3.51377 0.77858 0
M  V30 15847 C 1450.85 -3.87653 2.24565 0
M  V30 15848 C 1452.59 -4.22115 0.449365 0
M  V30 15849 C 1450.5 -5.35809 2.50324 0
M  V30 15850 H 1449.43 -0.734647 0.169733 0
M  V30 15851 H 1452.08 -1.50294 1.0528 0
M  V30 15852 H 1450.46 -3.95821 0.119005 0
M  V30 15853 H 1451.64 -3.54197 2.94755 0
M  V30 15854 H 1449.95 -3.29957 2.54003 0
M  V30 15855 H 1452.55 -5.31103 0.61916 0
M  V30 15856 H 1452.89 -4.11814 -0.609528 0
M  V30 15857 H 1453.42 -3.83276 1.06511 0
M  V30 15858 H 1450.16 -5.51138 3.54863 0
M  V30 15859 H 1449.68 -5.70648 1.84719 0
M  V30 15860 H 1451.36 -6.02968 2.34602 0
M  V30 15861 N 1451.49 -0.619688 -1.44906 0
M  V30 15862 C 1452.42 0.0791121 -2.33366 0
M  V30 15863 C 1453.41 0.846503 -1.47541 0
M  V30 15864 O 1454.59 0.814657 -1.76287 0
M  V30 15865 C 1451.72 1.06901 -3.30438 0
M  V30 15866 C 1450.67 0.41403 -4.25993 0
M  V30 15867 C 1450 1.51303 -5.12846 0
M  V30 15868 C 1451.3 -0.672483 -5.17953 0
M  V30 15869 H 1452.99 -0.659551 -2.92045 0
M  V30 15870 H 1450.54 -0.318623 -1.40431 0
M  V30 15871 H 1452.49 1.56653 -3.912 0
M  V30 15872 H 1451.22 1.83842 -2.69944 0
M  V30 15873 H 1449.88 -0.0627315 -3.66546 0
M  V30 15874 H 1449.52 2.27303 -4.48712 0
M  V30 15875 H 1449.22 1.08022 -5.77586 0
M  V30 15876 H 1450.75 2.01258 -5.76479 0
M  V30 15877 H 1452.16 -0.258542 -5.72717 0
M  V30 15878 H 1450.56 -1.02776 -5.91234 0
M  V30 15879 H 1451.63 -1.54425 -4.59653 0
M  V30 15880 N 1452.97 1.53444 -0.359552 0
M  V30 15881 C 1454.22 2.01464 0.232366 0
M  V30 15882 C 1454.55 1.24656 1.48911 0
M  V30 15883 O 1453.83 0.338574 1.9153 0
M  V30 15884 C 1454.11 3.56172 0.530403 0
M  V30 15885 C 1453.96 4.43678 -0.739556 0
M  V30 15886 C 1455.28 4.19412 1.33347 0
M  V30 15887 H 1452.4 0.732314 0.0829802 0
M  V30 15888 H 1455.04 1.83752 -0.483253 0
M  V30 15889 H 1453.19 3.71396 1.14004 0
M  V30 15890 H 1454.86 4.40263 -1.37719 0
M  V30 15891 H 1453.11 4.11892 -1.36117 0
M  V30 15892 H 1453.78 5.49856 -0.486062 0
M  V30 15893 H 1456.25 4.07984 0.817816 0
M  V30 15894 H 1455.13 5.277 1.51075 0
M  V30 15895 H 1455.39 3.7508 2.34024 0
M  V30 15896 N 1454.45 0.0885642 1.57351 0
M  V30 15897 C 1455.36 -0.887092 2.17182 0
M  V30 15898 C 1456.38 -1.31498 1.13949 0
M  V30 15899 O 1457.55 -1.38424 1.4629 0
M  V30 15900 C 1454.62 -2.13053 2.73513 0
M  V30 15901 C 1453.68 -1.75747 3.91678 0
M  V30 15902 C 1452.91 -2.94163 4.45313 0
M  V30 15903 O 1453.13 -4.08693 3.97903 0
M  V30 15904 O 1452.07 -2.73008 5.36424 0
M  V30 15905 H 1455.89 -0.408073 3.00946 0
M  V30 15906 H 1453.48 -0.135431 1.48785 0
M  V30 15907 H 1455.36 -2.85937 3.09545 0
M  V30 15908 H 1454.04 -2.6002 1.92798 0
M  V30 15909 H 1452.94 -1.00064 3.60469 0
M  V30 15910 H 1454.28 -1.33549 4.73736 0
M  V30 15911 N 1455.93 -1.56509 -0.185096 0
M  V30 15912 C 1456.88 -1.96237 -1.24875 0
M  V30 15913 C 1457.87 -0.849169 -1.46579 0
M  V30 15914 O 1459.08 -1.03422 -1.47322 0
M  V30 15915 H 1455.45 -0.624147 -0.419457 0
M  V30 15916 H 1457.42 -2.8492 -0.88673 0
M  V30 15917 C 1456.17 -2.32667 -2.58382 0
M  V30 15918 H 1455.49 -3.17858 -2.425 0
M  V30 15919 H 1456.93 -2.6432 -3.31528 0
M  V30 15920 C 1455.39 -1.16496 -3.16118 0
M  V30 15921 O 1455.92 -0.445283 -3.99224 0
M  V30 15922 N 1454.13 -0.939133 -2.75007 0
M  V30 15923 H 1453.68 -1.52611 -2.07527 0
M  V30 15924 H 1453.63 -0.163659 -3.13974 0
M  V30 15925 N 1457.41 0.45317 -1.50944 0
M  V30 15926 C 1458.32 1.57435 -1.73929 0
M  V30 15927 C 1459.33 1.62467 -0.622935 0
M  V30 15928 O 1460.51 1.80004 -0.903365 0
M  V30 15929 C 1457.57 2.93534 -1.84495 0
M  V30 15930 C 1456.63 2.98747 -3.083 0
M  V30 15931 C 1455.87 4.28354 -3.18352 0
M  V30 15932 O 1456.09 5.1986 -2.34738 0
M  V30 15933 O 1455.02 4.39527 -4.11217 0
M  V30 15934 H 1458.85 1.40959 -2.69006 0
M  V30 15935 H 1456.44 0.634545 -1.35255 0
M  V30 15936 H 1458.32 3.74336 -1.93522 0
M  V30 15937 H 1456.99 3.10171 -0.926044 0
M  V30 15938 H 1455.9 2.16958 -3.04762 0
M  V30 15939 H 1457.23 2.87051 -3.99828 0
M  V30 15940 N 1458.88 1.40823 0.707568 0
M  V30 15941 C 1459.83 1.4191 1.84294 0
M  V30 15942 C 1460.83 0.298592 1.66748 0
M  V30 15943 O 1462.03 0.47003 1.73755 0
M  V30 15944 H 1458.41 0.44376 0.607109 0
M  V30 15945 H 1460.38 2.37623 1.80494 0
M  V30 15946 C 1459.13 1.30643 3.22223 0
M  V30 15947 H 1458.45 2.16145 3.36335 0
M  V30 15948 H 1459.89 1.35463 4.01778 0
M  V30 15949 C 1458.35 0.0174867 3.36895 0
M  V30 15950 O 1458.88 -0.942398 3.90489 0
M  V30 15951 N 1457.09 -0.0546572 2.90549 0
M  V30 15952 H 1456.63 0.727204 2.47122 0
M  V30 15953 H 1456.59 -0.916521 3.00744 0
M  V30 15954 N 1460.36 -0.94061 1.26453 0
M  V30 15955 C 1461.78 -1.21424 1.03578 0
M  V30 15956 C 1461.98 -2.00081 -0.238726 0
M  V30 15957 O 1461.03 -2.3404 -0.947709 0
M  V30 15958 C 1462.35 -1.97496 2.26751 0
M  V30 15959 C 1463.9 -2.10485 2.31657 0
M  V30 15960 C 1464.37 -2.89959 3.54525 0
M  V30 15961 N 1465.86 -2.97533 3.55005 0
M  V30 15962 C 1466.6 -3.59456 4.46742 0
M  V30 15963 N 1466.09 -4.22876 5.48769 0
M  V30 15964 N 1467.89 -3.56734 4.34393 0
M  V30 15965 H 1460.04 -0.414788 2.08311 0
M  V30 15966 H 1462.3 -0.246047 0.915513 0
M  V30 15967 H 1462.01 -1.47109 3.19456 0
M  V30 15968 H 1461.88 -2.98159 2.31043 0
M  V30 15969 H 1464.27 -2.60064 1.39466 0
M  V30 15970 H 1464.35 -1.09082 2.31376 0
M  V30 15971 H 1463.99 -2.41067 4.47045 0
M  V30 15972 H 1463.92 -3.91619 3.52054 0
M  V30 15973 H 1466.41 -2.52446 2.81211 0
M  V30 15974 H 1466.73 -4.68026 6.14956 0
M  V30 15975 H 1465.07 -4.21461 5.52626 0
M  V30 15976 H 1468.26 -3.06381 3.53904 0
M  V30 15977 H 1468.43 -4.04706 5.0608 0
M  V30 15978 N 1461.84 -1.08266 -1.14527 0
M  V30 15979 C 1463.09 -0.812661 -1.85805 0
M  V30 15980 C 1463.42 0.659878 -1.82645 0
M  V30 15981 O 1462.69 1.48498 -1.25612 0
M  V30 15982 C 1462.98 -1.33335 -3.34505 0
M  V30 15983 C 1462.83 -2.87113 -3.46246 0
M  V30 15984 C 1464.15 -0.957435 -4.29559 0
M  V30 15985 H 1461.27 -0.296681 -0.674648 0
M  V30 15986 H 1463.91 -1.34203 -1.34497 0
M  V30 15987 H 1462.06 -0.883056 -3.78331 0
M  V30 15988 H 1463.73 -3.40502 -3.11217 0
M  V30 15989 H 1461.98 -3.24845 -2.87504 0
M  V30 15990 H 1462.65 -3.18618 -4.50762 0
M  V30 15991 H 1465.12 -1.3456 -3.93742 0
M  V30 15992 H 1464 -1.34897 -5.32066 0
M  V30 15993 H 1464.26 0.135689 -4.41892 0
M  V30 15994 N 1463.32 1.31536 -0.86811 0
M  V30 15995 C 1464.27 2.28562 -0.320602 0
M  V30 15996 C 1465.24 1.55648 0.579902 0
M  V30 15997 O 1466.42 1.83804 0.51194 0
M  V30 15998 C 1463.56 3.41836 0.473499 0
M  V30 15999 C 1462.67 4.29604 -0.454311 0
M  V30 16000 C 1461.81 5.30021 0.353733 0
M  V30 16001 C 1460.85 6.09434 -0.570624 0
M  V30 16002 N 1459.99 7.01812 0.201058 0
M  V30 16003 H 1464.83 2.74782 -1.15322 0
M  V30 16004 H 1462.36 1.35179 -0.580088 0
M  V30 16005 H 1464.32 4.06248 0.949662 0
M  V30 16006 H 1462.95 2.96732 1.27083 0
M  V30 16007 H 1462 3.65653 -1.04892 0
M  V30 16008 H 1463.31 4.85048 -1.16316 0
M  V30 16009 H 1462.47 6.001 0.892484 0
M  V30 16010 H 1461.21 4.75228 1.09589 0
M  V30 16011 H 1460.21 5.38247 -1.12115 0
M  V30 16012 H 1461.44 6.66314 -1.3116 0
M  V30 16013 H 1459.38 6.49431 0.926058 0
M  V30 16014 H 1459.3 7.54668 -0.448494 0
M  V30 16015 H 1460.57 7.76157 0.7211 0
M  V30 16016 N 1464.8 0.627364 1.44575 0
M  V30 16017 C 1466.05 0.127824 2.01295 0
M  V30 16018 C 1466.36 -1.25647 1.49907 0
M  V30 16019 O 1467.57 -1.84982 1.9873 0
M  V30 16020 C 1466.02 0.177775 3.59461 0
M  V30 16021 C 1465.63 1.56315 4.19845 0
M  V30 16022 C 1467.37 -0.265497 4.23669 0
M  V30 16023 C 1465.28 1.56842 5.70223 0
M  V30 16024 H 1464.21 0.0440205 0.752714 0
M  V30 16025 H 1466.86 0.785607 1.65833 0
M  V30 16026 H 1465.24 -0.547038 3.92203 0
M  V30 16027 H 1466.42 2.31125 3.98645 0
M  V30 16028 H 1464.73 1.95019 3.67909 0
M  V30 16029 H 1467.33 -0.281038 5.33961 0
M  V30 16030 H 1467.67 -1.29208 3.95741 0
M  V30 16031 H 1468.21 0.406698 3.95716 0
M  V30 16032 H 1464.94 2.57325 6.0288 0
M  V30 16033 H 1464.46 0.863198 5.93556 0
M  V30 16034 H 1466.14 1.30071 6.33791 0
M  V30 16035 N 1466.28 -1.53251 0.367684 0
M  V30 16036 C 1467.52 -2.00889 -0.220914 0
M  V30 16037 C 1467.84 -1.25662 -1.4911 0
M  V30 16038 O 1467.11 -0.370491 -1.92365 0
M  V30 16039 H 1465.69 -0.742191 -0.0846233 0
M  V30 16040 H 1468.36 -1.88525 0.494402 0
M  V30 16041 H 1467.45 -3.08891 -0.446414 0
M  V30 16042 N 1467.75 -0.0969077 -1.57302 0
M  V30 16043 C 1469.03 0.608737 -1.85886 0
M  V30 16044 C 1469.41 1.86228 -0.994096 0
M  V30 16045 O 1468.76 2.28402 -0.0669975 0
M  V30 16046 C 1468.97 0.922385 -3.3659 0
M  V30 16047 C 1470.32 1.28505 -4.04687 0
M  V30 16048 O 1471.34 1.01334 -3.41482 0
M  V30 16049 O 1470.2 1.794 -5.16215 0
M  V30 16050 H 1467.29 0.304808 -0.768779 0
M  V30 16051 H 1469.84 -0.129742 -1.69203 0
M  V30 16052 H 1468.61 0.0331488 -3.91286 0
M  V30 16053 H 1468.23 1.71678 -3.58626 0
M  V30 16054 N 1469.23 1.56605 0.176793 0
M  V30 16055 C 1470.48 1.81682 0.894302 0
M  V30 16056 C 1470.81 0.67311 1.82481 0
M  V30 16057 O 1470.06 -0.339995 1.92724 0
M  V30 16058 C 1470.36 3.12888 1.7273 0
M  V30 16059 C 1470.03 4.40861 0.946186 0
M  V30 16060 C 1468.69 4.75622 0.730586 0
M  V30 16061 C 1471.04 5.19679 0.397889 0
M  V30 16062 C 1468.37 5.86683 -0.0444995 0
M  V30 16063 C 1470.72 6.31551 -0.36408 0
M  V30 16064 C 1469.38 6.64883 -0.59053 0
M  V30 16065 H 1468.65 0.664823 0.327248 0
M  V30 16066 H 1471.3 1.90834 0.159555 0
M  V30 16067 H 1469.61 2.99055 2.53128 0
M  V30 16068 H 1471.3 3.295 2.2854 0
M  V30 16069 H 1467.89 4.13592 1.12426 0
M  V30 16070 H 1472.08 4.93223 0.55181 0
M  V30 16071 H 1467.33 6.10968 -0.229739 0
M  V30 16072 H 1471.51 6.91833 -0.796223 0
M  V30 16073 H 1469.13 7.50781 -1.19301 0
M  V30 16074 N 1470.71 -0.445159 1.51182 0
M  V30 16075 C 1471.96 -1.19288 1.6314 0
M  V30 16076 C 1472.28 -1.91904 0.346109 0
M  V30 16077 O 1471.55 -1.8523 -0.637695 0
M  V30 16078 H 1470.13 -0.443319 0.601229 0
M  V30 16079 H 1472.79 -0.511136 1.88078 0
M  V30 16080 H 1471.89 -1.92672 2.45528 0
M  V30 16081 N 1472.19 -1.41197 -0.700089 0
M  V30 16082 C 1473.12 -1.45456 -1.8266 0
M  V30 16083 C 1474.1 -0.313719 -1.67182 0
M  V30 16084 O 1475.28 -0.524528 -1.86982 0
M  V30 16085 C 1472.41 -1.33161 -3.20758 0
M  V30 16086 C 1471.37 -2.4501 -3.50933 0
M  V30 16087 C 1470.69 -2.17782 -4.88339 0
M  V30 16088 C 1471.99 -3.87352 -3.50365 0
M  V30 16089 H 1473.69 -2.39735 -1.79353 0
M  V30 16090 H 1471.23 -1.1539 -0.861465 0
M  V30 16091 H 1473.19 -1.34754 -3.99274 0
M  V30 16092 H 1471.91 -0.353646 -3.2468 0
M  V30 16093 H 1470.57 -2.42692 -2.74766 0
M  V30 16094 H 1470.22 -1.1834 -4.88881 0
M  V30 16095 H 1469.92 -2.92728 -5.09494 0
M  V30 16096 H 1471.44 -2.21083 -5.6917 0
M  V30 16097 H 1472.86 -3.9141 -4.18893 0
M  V30 16098 H 1471.25 -4.61944 -3.83051 0
M  V30 16099 H 1472.32 -4.15827 -2.4943 0
M  V30 16100 N 1473.67 0.933891 -1.2695 0
M  V30 16101 C 1474.89 1.71512 -1.15721 0
M  V30 16102 C 1475.31 1.8661 0.286712 0
M  V30 16103 O 1474.67 1.3787 1.19574 0
M  V30 16104 C 1474.72 3.11804 -1.82922 0
M  V30 16105 O 1474.44 2.97421 -3.21672 0
M  V30 16106 C 1475.94 4.06108 -1.7774 0
M  V30 16107 H 1473.16 0.53678 -0.402626 0
M  V30 16108 H 1475.7 1.17025 -1.67706 0
M  V30 16109 H 1473.86 3.6317 -1.34856 0
M  V30 16110 H 1474.27 3.86069 -3.55037 0
M  V30 16111 H 1475.75 5.02082 -2.29385 0
M  V30 16112 H 1476.22 4.32828 -0.74543 0
M  V30 16113 H 1476.83 3.60665 -2.25391 0
M  V30 16114 N 1475.14 1.08871 1.13951 0
M  V30 16115 C 1476.09 0.722966 2.19184 0
M  V30 16116 C 1477.06 -0.293108 1.63493 0
M  V30 16117 O 1478.25 -0.176036 1.89986 0
M  V30 16118 C 1475.39 0.143542 3.44801 0
M  V30 16119 C 1474.5 1.21297 4.14622 0
M  V30 16120 C 1473.63 0.596902 5.27836 0
M  V30 16121 C 1472.67 1.64803 5.89497 0
M  V30 16122 N 1471.81 1.05341 6.94152 0
M  V30 16123 H 1476.65 1.62464 2.49819 0
M  V30 16124 H 1474.19 0.811803 1.22671 0
M  V30 16125 H 1476.14 -0.210153 4.1667 0
M  V30 16126 H 1474.77 -0.721426 3.14635 0
M  V30 16127 H 1473.83 1.68403 3.41093 0
M  V30 16128 H 1475.14 2.00931 4.56539 0
M  V30 16129 H 1474.29 0.191724 6.06397 0
M  V30 16130 H 1473.03 -0.231052 4.87152 0
M  V30 16131 H 1472.04 2.06282 5.09635 0
M  V30 16132 H 1473.26 2.47855 6.32254 0
M  V30 16133 H 1471.21 0.24664 6.55536 0
M  V30 16134 H 1471.12 1.7868 7.34581 0
M  V30 16135 H 1472.39 0.674253 7.76578 0
M  V30 16136 N 1476.62 -1.31073 0.875073 0
M  V30 16137 C 1477.87 -1.96809 0.489273 0
M  V30 16138 C 1478.2 -1.68979 -0.957073 0
M  V30 16139 O 1477.48 -0.989061 -1.67475 0
M  V30 16140 C 1477.76 -3.52139 0.752998 0
M  V30 16141 C 1477.61 -3.89524 2.24925 0
M  V30 16142 C 1478.93 -4.39535 0.222871 0
M  V30 16143 H 1476.05 -0.714873 0.179238 0
M  V30 16144 H 1478.69 -1.55114 1.09725 0
M  V30 16145 H 1476.84 -3.87785 0.23553 0
M  V30 16146 H 1478.51 -3.63953 2.83436 0
M  V30 16147 H 1476.76 -3.37948 2.71981 0
M  V30 16148 H 1477.43 -4.97845 2.38441 0
M  V30 16149 H 1479.9 -4.10741 0.665645 0
M  V30 16150 H 1478.78 -5.47159 0.436806 0
M  V30 16151 H 1479.04 -4.33346 -0.875445 0
M  V30 16152 N 1478.1 -0.635022 -1.4424 0
M  V30 16153 C 1479.03 0.0543561 -2.33437 0
M  V30 16154 C 1480.01 0.830807 -1.48431 0
M  V30 16155 O 1481.2 0.795913 -1.77141 0
M  V30 16156 C 1478.33 1.03391 -3.31553 0
M  V30 16157 C 1477.28 0.368824 -4.26408 0
M  V30 16158 C 1476.61 1.45855 -5.14422 0
M  V30 16159 C 1477.91 -0.727381 -5.1721 0
M  V30 16160 H 1479.6 -0.690489 -2.91329 0
M  V30 16161 H 1477.15 -0.3335 -1.40085 0
M  V30 16162 H 1479.1 1.52495 -3.9284 0
M  V30 16163 H 1477.82 1.80969 -2.71878 0
M  V30 16164 H 1476.48 -0.101605 -3.66459 0
M  V30 16165 H 1476.13 2.22531 -4.51098 0
M  V30 16166 H 1475.83 1.0189 -5.78699 0
M  V30 16167 H 1477.35 1.95132 -5.78581 0
M  V30 16168 H 1478.77 -0.319272 -5.7241 0
M  V30 16169 H 1477.17 -1.09041 -5.9011 0
M  V30 16170 H 1478.24 -1.59292 -4.57989 0
M  V30 16171 N 1479.58 1.53054 -0.375806 0
M  V30 16172 C 1480.99 1.86426 0.101188 0
M  V30 16173 C 1481.34 1.29603 1.47301 0
M  V30 16174 O 1480.47 0.622059 2.07266 0
M  V30 16175 C 1481.06 3.38265 0.190389 0
M  V30 16176 C 1479.62 3.71397 0.611653 0
M  V30 16177 C 1478.77 2.76304 -0.234801 0
M  V30 16178 H 1481.72 1.47156 -0.594211 0
M  V30 16179 H 1481.74 3.66793 1.01207 0
M  V30 16180 H 1481.25 3.79592 -0.80818 0
M  V30 16181 H 1479.35 3.35632 1.61808 0
M  V30 16182 H 1479.46 4.77597 0.379168 0
M  V30 16183 H 1477.83 2.52952 0.297888 0
M  V30 16184 H 1478.61 3.20467 -1.2311 0
M  V30 16185 N 1481.06 0.105248 1.57248 0
M  V30 16186 C 1481.99 -0.880221 2.11624 0
M  V30 16187 C 1483 -1.23924 1.05578 0
M  V30 16188 O 1484.19 -1.19059 1.32994 0
M  V30 16189 C 1481.29 -2.18628 2.5895 0
M  V30 16190 C 1480.46 -2.00105 3.88943 0
M  V30 16191 C 1479.52 -3.14315 4.2201 0
M  V30 16192 O 1478.55 -2.87832 4.91061 0
M  V30 16193 N 1479.75 -4.4037 3.78226 0
M  V30 16194 H 1482.52 -0.415742 2.96802 0
M  V30 16195 H 1480.08 -0.0795714 1.61704 0
M  V30 16196 H 1482.07 -2.94002 2.7811 0
M  V30 16197 H 1480.64 -2.56467 1.78727 0
M  V30 16198 H 1479.86 -1.09003 3.7883 0
M  V30 16199 H 1481.15 -1.85018 4.73968 0
M  V30 16200 H 1480.54 -4.64765 3.22506 0
M  V30 16201 H 1479.1 -5.1266 4.02521 0
M  V30 16202 N 1482.53 -1.56697 -0.168486 0
M  V30 16203 C 1483.81 -1.73032 -0.912097 0
M  V30 16204 C 1484.19 -0.667424 -2.00271 0
M  V30 16205 O 1483.54 0.317307 -2.26286 0
M  V30 16206 C 1483.75 -3.16334 -1.47424 0
M  V30 16207 C 1485.1 -3.77378 -1.94606 0
M  V30 16208 O 1486.12 -3.19629 -1.57212 0
M  V30 16209 O 1484.98 -4.78781 -2.63497 0
M  V30 16210 H 1482.07 -0.706713 -0.429518 0
M  V30 16211 H 1484.62 -1.68981 -0.156093 0
M  V30 16212 H 1483.39 -3.85179 -0.689421 0
M  V30 16213 H 1483.02 -3.24723 -2.29435 0
M  V30 16214 N 1484.01 0.437135 -1.51416 0
M  V30 16215 C 1484.96 1.53061 -1.72745 0
M  V30 16216 C 1485.93 1.56045 -0.569149 0
M  V30 16217 O 1487.11 1.73052 -0.803602 0
M  V30 16218 C 1484.25 2.90774 -1.85861 0
M  V30 16219 C 1483.37 2.97318 -3.1341 0
M  V30 16220 C 1482.5 4.26156 -3.1712 0
M  V30 16221 C 1481.54 4.26568 -4.38983 0
M  V30 16222 N 1480.68 5.4693 -4.40241 0
M  V30 16223 H 1485.52 1.34177 -2.66084 0
M  V30 16224 H 1483.06 0.651803 -1.31871 0
M  V30 16225 H 1485.01 3.7068 -1.91447 0
M  V30 16226 H 1483.64 3.08216 -0.959306 0
M  V30 16227 H 1482.7 2.10074 -3.17132 0
M  V30 16228 H 1484.01 2.93485 -4.03321 0
M  V30 16229 H 1483.16 5.14435 -3.21623 0
M  V30 16230 H 1481.9 4.32646 -2.25098 0
M  V30 16231 H 1480.91 3.36681 -4.34656 0
M  V30 16232 H 1482.13 4.21741 -5.3227 0
M  V30 16233 H 1480.08 5.54141 -3.51089 0
M  V30 16234 H 1479.99 5.44977 -5.23962 0
M  V30 16235 H 1481.26 6.37241 -4.48937 0
M  V30 16236 N 1485.49 1.41566 0.692592 0
M  V30 16237 C 1486.4 1.46014 1.83622 0
M  V30 16238 C 1487.42 0.350453 1.70434 0
M  V30 16239 O 1488.59 0.598634 1.92298 0
M  V30 16240 C 1485.66 1.34308 3.19628 0
M  V30 16241 C 1484.72 2.55617 3.44904 0
M  V30 16242 C 1483.95 2.4446 4.74421 0
M  V30 16243 O 1484.17 1.47078 5.51112 0
M  V30 16244 O 1483.11 3.34272 5.00546 0
M  V30 16245 H 1486.93 2.42504 1.82826 0
M  V30 16246 H 1484.52 1.23136 0.846039 0
M  V30 16247 H 1486.4 1.30075 4.00822 0
M  V30 16248 H 1485.08 0.409343 3.21101 0
M  V30 16249 H 1483.98 2.65426 2.63628 0
M  V30 16250 H 1485.32 3.47829 3.48247 0
M  V30 16251 N 1486.97 -0.927146 1.27443 0
M  V30 16252 C 1488.2 -1.70648 1.1646 0
M  V30 16253 C 1488.61 -1.871 -0.28114 0
M  V30 16254 O 1487.95 -1.38813 -1.20319 0
M  V30 16255 C 1488.01 -3.12542 1.77646 0
M  V30 16256 C 1487.68 -3.19425 3.26828 0
M  V30 16257 C 1488.67 -3.01633 4.23454 0
M  V30 16258 C 1486.36 -3.42366 3.67547 0
M  V30 16259 C 1488.35 -3.06672 5.58776 0
M  V30 16260 C 1486.04 -3.47039 5.02998 0
M  V30 16261 C 1487.04 -3.2921 5.98423 0
M  V30 16262 O 1486.72 -3.33619 7.31405 0
M  V30 16263 H 1486.46 -0.540657 0.40579 0
M  V30 16264 H 1489.01 -1.16983 1.68832 0
M  V30 16265 H 1487.24 -3.67691 1.19752 0
M  V30 16266 H 1488.93 -3.72445 1.61369 0
M  V30 16267 H 1489.7 -2.8375 3.93333 0
M  V30 16268 H 1485.57 -3.55294 2.93747 0
M  V30 16269 H 1489.12 -2.92674 6.33236 0
M  V30 16270 H 1485.02 -3.64446 5.32775 0
M  V30 16271 H 1485.78 -3.5007 7.3986 0
M  V30 16272 N 1488.45 -1.09474 -1.13372 0
M  V30 16273 C 1489.68 -0.851685 -1.88228 0
M  V30 16274 C 1490.08 0.600707 -1.79411 0
M  V30 16275 O 1489.43 1.42527 -1.15895 0
M  V30 16276 C 1489.49 -1.20874 -3.3857 0
M  V30 16277 C 1489.15 -2.66614 -3.71168 0
M  V30 16278 C 1490.15 -3.64862 -3.70367 0
M  V30 16279 C 1487.84 -3.02748 -4.0081 0
M  V30 16280 C 1489.83 -4.97269 -3.98751 0
M  V30 16281 C 1487.52 -4.35347 -4.28855 0
M  V30 16282 C 1488.51 -5.32417 -4.2781 0
M  V30 16283 O 1488.2 -6.6263 -4.55167 0
M  V30 16284 H 1487.93 -0.306097 -0.602728 0
M  V30 16285 H 1490.49 -1.46038 -1.44437 0
M  V30 16286 H 1488.72 -0.543096 -3.82867 0
M  V30 16287 H 1490.41 -0.944753 -3.94752 0
M  V30 16288 H 1491.17 -3.3829 -3.47541 0
M  V30 16289 H 1487.05 -2.27824 -4.00771 0
M  V30 16290 H 1490.6 -5.73028 -3.9785 0
M  V30 16291 H 1486.49 -4.61661 -4.51153 0
M  V30 16292 H 1487.26 -6.6811 -4.72833 0
M  V30 16293 N 1489.92 1.30607 -0.882012 0
M  V30 16294 C 1490.87 2.2821 -0.344826 0
M  V30 16295 C 1491.84 1.56254 0.563361 0
M  V30 16296 O 1493.03 1.84336 0.492416 0
M  V30 16297 C 1490.17 3.42319 0.437216 0
M  V30 16298 C 1489.28 4.29098 -0.499851 0
M  V30 16299 C 1488.41 5.30366 0.297497 0
M  V30 16300 C 1487.45 6.08795 -0.63523 0
M  V30 16301 N 1486.59 7.01986 0.12661 0
M  V30 16302 H 1491.43 2.73543 -1.18229 0
M  V30 16303 H 1488.97 1.34556 -0.594392 0
M  V30 16304 H 1490.93 4.07232 0.906521 0
M  V30 16305 H 1489.56 2.98063 1.23928 0
M  V30 16306 H 1488.61 3.6452 -1.08764 0
M  V30 16307 H 1489.92 4.83787 -1.21454 0
M  V30 16308 H 1489.07 6.01013 0.828786 0
M  V30 16309 H 1487.81 4.76364 1.04542 0
M  V30 16310 H 1486.82 5.37028 -1.17817 0
M  V30 16311 H 1488.04 6.64885 -1.3822 0
M  V30 16312 H 1485.99 6.50376 0.857125 0
M  V30 16313 H 1485.91 7.5415 -0.528512 0
M  V30 16314 H 1487.17 7.76879 0.638738 0
M  V30 16315 N 1491.4 0.642663 1.43901 0
M  V30 16316 C 1492.65 0.152003 2.0223 0
M  V30 16317 C 1492.98 -1.22711 1.50518 0
M  V30 16318 O 1492.26 -1.817 0.693937 0
M  V30 16319 C 1492.54 0.151278 3.59782 0
M  V30 16320 C 1492.39 1.56356 4.2175 0
M  V30 16321 C 1493.71 -0.518016 4.37041 0
M  V30 16322 H 1490.83 0.0567094 0.734815 0
M  V30 16323 H 1493.47 0.821337 1.7133 0
M  V30 16324 H 1491.62 -0.418679 3.86237 0
M  V30 16325 H 1493.29 2.18329 4.06362 0
M  V30 16326 H 1491.54 2.11401 3.78803 0
M  V30 16327 H 1492.21 1.51499 5.30803 0
M  V30 16328 H 1494.68 -0.0331947 4.16087 0
M  V30 16329 H 1493.56 -0.487754 5.46729 0
M  V30 16330 H 1493.82 -1.59036 4.12504 0
M  V30 16331 N 1492.88 -1.52852 0.383918 0
M  V30 16332 C 1493.83 -2.26294 -0.453826 0
M  V30 16333 C 1494.8 -1.27688 -1.0623 0
M  V30 16334 O 1495.98 -1.56507 -1.09134 0
M  V30 16335 C 1493.12 -3.06907 -1.57803 0
M  V30 16336 C 1492.24 -4.20434 -0.992943 0
M  V30 16337 C 1491.37 -4.88453 -2.08776 0
M  V30 16338 C 1490.41 -5.93981 -1.47828 0
M  V30 16339 N 1489.55 -6.55617 -2.51218 0
M  V30 16340 H 1494.39 -2.97462 0.178927 0
M  V30 16341 H 1491.92 -1.46759 0.100066 0
M  V30 16342 H 1493.88 -3.51933 -2.24052 0
M  V30 16343 H 1492.51 -2.37959 -2.18118 0
M  V30 16344 H 1491.56 -3.79762 -0.22021 0
M  V30 16345 H 1492.88 -4.96211 -0.507504 0
M  V30 16346 H 1492.03 -5.36755 -2.82806 0
M  V30 16347 H 1490.77 -4.12187 -2.60678 0
M  V30 16348 H 1489.77 -5.45023 -0.723202 0
M  V30 16349 H 1491 -6.72176 -0.967278 0
M  V30 16350 H 1488.95 -5.82195 -3.02299 0
M  V30 16351 H 1488.86 -7.26991 -2.07414 0
M  V30 16352 H 1490.13 -7.08564 -3.24895 0
M  V30 16353 N 1494.36 -0.113586 -1.5719 0
M  V30 16354 C 1495.27 0.852428 -2.18565 0
M  V30 16355 C 1496.29 1.29668 -1.16026 0
M  V30 16356 O 1497.46 1.36079 -1.48474 0
M  V30 16357 C 1494.53 2.08675 -2.76867 0
M  V30 16358 C 1493.59 1.69493 -3.94424 0
M  V30 16359 C 1492.82 2.87042 -4.49936 0
M  V30 16360 O 1493.04 4.02311 -4.04354 0
M  V30 16361 O 1491.98 2.64439 -5.40699 0
M  V30 16362 H 1495.8 0.360144 -3.01557 0
M  V30 16363 H 1493.39 0.111744 -1.48982 0
M  V30 16364 H 1495.27 2.80976 -3.14054 0
M  V30 16365 H 1493.95 2.5692 -1.9691 0
M  V30 16366 H 1492.85 0.943161 -3.62016 0
M  V30 16367 H 1494.19 1.25995 -4.758 0
M  V30 16368 N 1495.84 1.56784 0.160173 0
M  V30 16369 C 1497.25 1.72193 0.721552 0
M  V30 16370 C 1497.6 0.725901 1.82278 0
M  V30 16371 O 1496.72 -0.110343 2.16118 0
M  V30 16372 C 1497.32 3.12212 1.31563 0
M  V30 16373 C 1495.88 3.29268 1.82371 0
M  V30 16374 C 1495.03 2.68136 0.70701 0
M  V30 16375 H 1497.98 1.58565 -0.0653521 0
M  V30 16376 H 1498 3.11481 2.1854 0
M  V30 16377 H 1497.51 3.84682 0.513917 0
M  V30 16378 H 1495.61 2.61774 2.65152 0
M  V30 16379 H 1495.72 4.37107 1.96149 0
M  V30 16380 H 1494.09 2.28246 1.1303 0
M  V30 16381 H 1494.87 3.432 -0.0830407 0
M  V30 16382 N 1497.32 -0.429099 1.51646 0
M  V30 16383 C 1498.56 -1.17551 1.64396 0
M  V30 16384 C 1498.88 -1.91526 0.366444 0
M  V30 16385 O 1498.15 -1.85896 -0.618013 0
M  V30 16386 H 1496.73 -0.436918 0.605898 0
M  V30 16387 H 1499.4 -0.491159 1.8861 0
M  V30 16388 H 1498.49 -1.90057 2.47557 0
M  V30 16389 N 1498.79 -1.41931 -0.685074 0
M  V30 16390 C 1499.7 -1.46985 -1.82846 0
M  V30 16391 C 1500.72 -0.359487 -1.70246 0
M  V30 16392 O 1501.9 -0.608824 -1.91977 0
M  V30 16393 C 1498.96 -1.36001 -3.18912 0
M  V30 16394 C 1498.02 -2.57442 -3.43543 0
M  V30 16395 C 1497.25 -2.46972 -4.73118 0
M  V30 16396 O 1497.48 -1.49999 -5.50324 0
M  V30 16397 O 1496.41 -3.36922 -4.98766 0
M  V30 16398 H 1500.24 -2.4347 -1.81538 0
M  V30 16399 H 1497.82 -1.23583 -0.839497 0
M  V30 16400 H 1499.7 -1.32198 -4.00127 0
M  V30 16401 H 1498.38 -0.426366 -3.2088 0
M  V30 16402 H 1497.29 -2.66821 -2.62217 0
M  V30 16403 H 1498.62 -3.49671 -3.46398 0
M  V30 16404 N 1500.27 0.920374 -1.27933 0
M  V30 16405 C 1501.5 1.70804 -1.17647 0
M  V30 16406 C 1501.92 1.86264 0.262189 0
M  V30 16407 O 1501.28 1.36798 1.18979 0
M  V30 16408 C 1501.33 3.08142 -1.87298 0
M  V30 16409 O 1500.43 3.95279 -1.17593 0
M  V30 16410 H 1499.77 0.523267 -0.408763 0
M  V30 16411 H 1502.3 1.15127 -1.69136 0
M  V30 16412 H 1502.31 3.58414 -1.94945 0
M  V30 16413 H 1500.99 2.96208 -2.91948 0
M  V30 16414 H 1499.56 3.53716 -1.18065 0
M  V30 16415 N 1501.75 1.10074 1.1279 0
M  V30 16416 C 1503.16 0.859181 1.65756 0
M  V30 16417 C 1503.51 -0.611193 1.86437 0
M  V30 16418 O 1502.64 -1.46997 1.58811 0
M  V30 16419 C 1503.23 1.55312 3.01104 0
M  V30 16420 C 1501.79 1.35836 3.51035 0
M  V30 16421 C 1500.94 1.60491 2.26137 0
M  V30 16422 H 1503.89 1.25897 0.966211 0
M  V30 16423 H 1503.91 0.990001 3.67395 0
M  V30 16424 H 1503.42 2.62325 2.8602 0
M  V30 16425 H 1501.52 0.309694 3.71311 0
M  V30 16426 H 1501.64 2.09777 4.30732 0
M  V30 16427 H 1500 1.02742 2.33058 0
M  V30 16428 H 1500.78 2.68748 2.1361 0
M  V30 16429 N 1503.23 -1.30138 0.888926 0
M  V30 16430 C 1504.48 -1.95265 0.5054 0
M  V30 16431 C 1504.79 -1.70925 -0.950998 0
M  V30 16432 O 1506 -2.30069 -1.44155 0
M  V30 16433 C 1504.45 -3.49647 0.852937 0
M  V30 16434 C 1504.06 -3.82802 2.32737 0
M  V30 16435 C 1505.8 -4.21067 0.538801 0
M  V30 16436 C 1503.71 -5.30379 2.61633 0
M  V30 16437 H 1502.64 -0.730882 0.185278 0
M  V30 16438 H 1505.29 -1.48027 1.08444 0
M  V30 16439 H 1503.67 -3.9548 0.202937 0
M  V30 16440 H 1504.85 -3.47866 3.02202 0
M  V30 16441 H 1503.16 -3.24495 2.60944 0
M  V30 16442 H 1505.76 -5.2967 0.731676 0
M  V30 16443 H 1506.1 -4.13014 -0.522039 0
M  V30 16444 H 1506.64 -3.8093 1.14617 0
M  V30 16445 H 1503.37 -5.43486 3.66473 0
M  V30 16446 H 1502.89 -5.66601 1.96782 0
M  V30 16447 H 1504.57 -5.97856 2.47339 0
M  V30 16448 N 1504.71 -0.650285 -1.43559 0
M  V30 16449 C 1505.95 -0.162484 -2.01847 0
M  V30 16450 C 1506.28 1.22251 -1.51278 0
M  V30 16451 O 1505.54 1.82939 -0.695115 0
M  V30 16452 C 1505.83 -0.119084 -3.57202 0
M  V30 16453 C 1505.5 -1.44543 -4.27104 0
M  V30 16454 C 1504.16 -1.80864 -4.45917 0
M  V30 16455 C 1506.51 -2.32005 -4.66715 0
M  V30 16456 C 1503.84 -3.04319 -5.01604 0
M  V30 16457 C 1506.19 -3.54748 -5.23771 0
M  V30 16458 C 1504.86 -3.9127 -5.408 0
M  V30 16459 H 1504.13 -0.0594573 -0.738611 0
M  V30 16460 H 1506.78 -0.84041 -1.72074 0
M  V30 16461 H 1505.08 0.642282 -3.865 0
M  V30 16462 H 1506.78 0.275168 -4.00055 0
M  V30 16463 H 1503.37 -1.15281 -4.12805 0
M  V30 16464 H 1507.55 -2.05234 -4.51877 0
M  V30 16465 H 1502.81 -3.32668 -5.12974 0
M  V30 16466 H 1506.98 -4.2274 -5.53411 0
M  V30 16467 H 1504.61 -4.87011 -5.83716 0
M  V30 16468 N 1506.18 1.52647 -0.392018 0
M  V30 16469 C 1507.43 2.02584 0.182039 0
M  V30 16470 C 1507.78 1.27325 1.44243 0
M  V30 16471 O 1507.08 0.365951 1.88073 0
M  V30 16472 C 1507.27 3.53872 0.500914 0
M  V30 16473 C 1507.1 4.43784 -0.727027 0
M  V30 16474 C 1505.87 4.89669 -1.24711 0
M  V30 16475 C 1508.07 4.88774 -1.60014 0
M  V30 16476 N 1506.05 5.63659 -2.43231 0
M  V30 16477 C 1507.42 5.61373 -2.63174 0
M  V30 16478 C 1509.48 4.70811 -1.61992 0
M  V30 16479 C 1508.18 6.17916 -3.68202 0
M  V30 16480 C 1510.21 5.28239 -2.65927 0
M  V30 16481 C 1509.57 6.00746 -3.6781 0
M  V30 16482 H 1505.67 0.781476 0.0286289 0
M  V30 16483 H 1508.25 1.86989 -0.54252 0
M  V30 16484 H 1506.42 3.69575 1.19453 0
M  V30 16485 H 1508.15 3.90507 1.06236 0
M  V30 16486 H 1504.91 4.66662 -0.807697 0
M  V30 16487 H 1505.33 6.05305 -3.03208 0
M  V30 16488 H 1509.97 4.14256 -0.845699 0
M  V30 16489 H 1507.69 6.73552 -4.4649 0
M  V30 16490 H 1511.28 5.1622 -2.68344 0
M  V30 16491 H 1510.16 6.44389 -4.46914 0
M  V30 16492 N 1507.66 0.121921 1.57128 0
M  V30 16493 C 1508.89 -0.542225 1.99358 0
M  V30 16494 C 1509.3 -1.60578 1.00057 0
M  V30 16495 O 1508.64 -1.83694 -0.0142649 0
M  V30 16496 C 1508.71 -1.22448 3.38004 0
M  V30 16497 C 1508.37 -0.308522 4.55957 0
M  V30 16498 C 1509.37 0.454012 5.17914 0
M  V30 16499 C 1507.05 -0.218741 5.01823 0
M  V30 16500 C 1509.05 1.29403 6.24126 0
M  V30 16501 C 1506.73 0.624906 6.07896 0
M  V30 16502 C 1507.73 1.37992 6.68915 0
M  V30 16503 O 1507.42 2.20955 7.72938 0
M  V30 16504 H 1507.15 -0.147894 0.659624 0
M  V30 16505 H 1509.7 0.205954 2.04365 0
M  V30 16506 H 1507.93 -2.01979 3.2976 0
M  V30 16507 H 1509.62 -1.78583 3.64504 0
M  V30 16508 H 1510.39 0.394539 4.83393 0
M  V30 16509 H 1506.27 -0.796109 4.54074 0
M  V30 16510 H 1509.81 1.88382 6.71683 0
M  V30 16511 H 1505.71 0.685762 6.41847 0
M  V30 16512 H 1506.48 2.13929 7.90049 0
M  V30 16513 N 1509.14 -1.56867 -0.151857 0
M  V30 16514 C 1510.1 -1.96997 -1.17152 0
M  V30 16515 C 1511.1 -0.855905 -1.36128 0
M  V30 16516 O 1512.29 -1.12261 -1.33203 0
M  V30 16517 C 1509.43 -2.28171 -2.5328 0
M  V30 16518 H 1510.62 -2.88261 -0.827365 0
M  V30 16519 H 1508.17 -1.51226 -0.395024 0
M  V30 16520 H 1508.91 -1.39683 -2.92676 0
M  V30 16521 H 1508.69 -3.09394 -2.40869 0
M  V30 16522 H 1510.18 -2.60073 -3.26729 0
M  V30 16523 N 1510.62 0.421051 -1.51871 0
M  V30 16524 C 1512.03 1.00033 -1.5764 0
M  V30 16525 C 1512.38 1.91875 -0.409665 0
M  V30 16526 O 1511.51 2.11201 0.471516 0
M  V30 16527 C 1512.1 1.82099 -2.85701 0
M  V30 16528 C 1510.66 2.35049 -2.93988 0
M  V30 16529 C 1509.81 1.14703 -2.52465 0
M  V30 16530 H 1512.76 0.201715 -1.57413 0
M  V30 16531 H 1512.78 2.67719 -2.70382 0
M  V30 16532 H 1512.29 1.15229 -3.706 0
M  V30 16533 H 1510.39 3.05327 -2.13556 0
M  V30 16534 H 1510.5 2.66731 -3.97984 0
M  V30 16535 H 1508.87 1.49736 -2.06037 0
M  V30 16536 H 1509.65 0.494171 -3.39725 0
M  V30 16537 N 1512.1 1.42293 0.677538 0
M  V30 16538 C 1513.01 1.47953 1.82063 0
M  V30 16539 C 1514.02 0.36851 1.70053 0
M  V30 16540 O 1515.2 0.618996 1.91652 0
M  V30 16541 C 1512.26 1.3769 3.18186 0
M  V30 16542 C 1511.32 2.59261 3.42173 0
M  V30 16543 C 1510.56 2.49478 4.71801 0
M  V30 16544 O 1510.78 1.52915 5.49521 0
M  V30 16545 O 1509.71 3.39562 4.96972 0
M  V30 16546 H 1513.54 2.4443 1.80244 0
M  V30 16547 H 1511.13 1.24027 0.832932 0
M  V30 16548 H 1513.01 1.34319 3.9942 0
M  V30 16549 H 1511.68 0.443377 3.20649 0
M  V30 16550 H 1510.59 2.68207 2.60798 0
M  V30 16551 H 1511.92 3.51503 3.44538 0
M  V30 16552 N 1513.57 -0.913576 1.28419 0
M  V30 16553 C 1514.8 -1.70178 1.18551 0
M  V30 16554 C 1515.22 -1.864 -0.252307 0
M  V30 16555 O 1514.58 -1.37427 -1.18252 0
M  V30 16556 C 1514.63 -3.07145 1.8893 0
M  V30 16557 O 1513.73 -3.9465 1.19688 0
M  V30 16558 H 1513.08 -0.521092 0.411533 0
M  V30 16559 H 1515.61 -1.14228 1.69744 0
M  V30 16560 H 1515.62 -3.57375 1.96843 0
M  V30 16561 H 1514.29 -2.94655 2.93515 0
M  V30 16562 H 1512.87 -3.53085 1.19939 0
M  V30 16563 N 1515.05 -1.1067 -1.12204 0
M  V30 16564 C 1515.98 -0.779829 -2.20093 0
M  V30 16565 C 1516.96 0.248279 -1.68278 0
M  V30 16566 O 1518.15 0.113511 -1.93868 0
M  V30 16567 C 1515.28 -0.213511 -3.46643 0
M  V30 16568 C 1514.23 -1.17258 -4.11624 0
M  V30 16569 C 1513.56 -0.467352 -5.32654 0
M  V30 16570 C 1514.86 -2.52014 -4.57478 0
M  V30 16571 H 1516.55 -1.68192 -2.47693 0
M  V30 16572 H 1514.1 -0.810131 -1.1905 0
M  V30 16573 H 1516.05 0.0273225 -4.21391 0
M  V30 16574 H 1514.78 0.723837 -3.18478 0
M  V30 16575 H 1513.43 -1.39891 -3.3886 0
M  V30 16576 H 1513.08 0.474547 -5.00756 0
M  V30 16577 H 1512.78 -1.10694 -5.77079 0
M  V30 16578 H 1514.31 -0.235122 -6.10147 0
M  V30 16579 H 1515.72 -2.33516 -5.23587 0
M  V30 16580 H 1514.12 -3.1188 -5.1269 0
M  V30 16581 H 1515.19 -3.11831 -3.71335 0
M  V30 16582 N 1516.53 1.29665 -0.895815 0
M  V30 16583 C 1517.76 1.99862 -0.535043 0
M  V30 16584 C 1518.17 1.67077 0.879245 0
M  V30 16585 O 1517.53 0.913717 1.57979 0
M  V30 16586 C 1517.58 3.54396 -0.713132 0
M  V30 16587 O 1517.3 3.86018 -2.07175 0
M  V30 16588 C 1518.8 4.41862 -0.356792 0
M  V30 16589 H 1516.02 0.638693 -0.205699 0
M  V30 16590 H 1518.57 1.65293 -1.20409 0
M  V30 16591 H 1516.72 3.87292 -0.0913116 0
M  V30 16592 H 1517.14 4.80701 -2.09827 0
M  V30 16593 H 1518.61 5.49428 -0.532252 0
M  V30 16594 H 1519.09 4.3349 0.705914 0
M  V30 16595 H 1519.69 4.1443 -0.95539 0
M  V30 16596 N 1518.01 0.657889 1.43212 0
M  V30 16597 C 1518.92 -0.0313677 2.34579 0
M  V30 16598 C 1519.93 -0.807153 1.54146 0
M  V30 16599 O 1521.11 -0.753335 1.8678 0
M  V30 16600 C 1518.18 -0.982659 3.32483 0
M  V30 16601 C 1517.24 -0.203288 4.28818 0
M  V30 16602 C 1516.47 -1.10927 5.22045 0
M  V30 16603 O 1516.69 -2.34861 5.19804 0
M  V30 16604 O 1515.63 -0.57916 5.99107 0
M  V30 16605 H 1519.45 0.720808 2.95022 0
M  V30 16606 H 1517.04 0.418083 1.43431 0
M  V30 16607 H 1518.92 -1.52923 3.92673 0
M  V30 16608 H 1517.59 -1.71498 2.74536 0
M  V30 16609 H 1516.5 0.386982 3.72093 0
M  V30 16610 H 1517.83 0.489562 4.89759 0
M  V30 16611 N 1519.49 -1.52437 0.400108 0
M  V30 16612 C 1520.71 -2.0661 -0.180861 0
M  V30 16613 C 1521.14 -1.269 -1.38845 0
M  V30 16614 O 1520.49 -0.296862 -1.78853 0
M  V30 16615 C 1520.54 -3.56851 -0.518595 0
M  V30 16616 O 1519.65 -3.79634 -1.61095 0
M  V30 16617 H 1518.99 -0.663752 -0.0181348 0
M  V30 16618 H 1521.52 -1.96479 0.570702 0
M  V30 16619 H 1521.53 -4.00478 -0.779817 0
M  V30 16620 H 1520.2 -4.14302 0.364216 0
M  V30 16621 H 1518.78 -3.47892 -1.3426 0
M  V30 16622 N 1520.96 -0.130252 -1.57061 0
M  V30 16623 C 1521.91 0.815767 -2.15902 0
M  V30 16624 C 1522.88 1.2558 -1.08715 0
M  V30 16625 O 1524.07 1.33132 -1.36677 0
M  V30 16626 C 1521.21 2.0561 -2.77162 0
M  V30 16627 C 1520.32 1.6634 -3.98692 0
M  V30 16628 C 1519.45 2.85425 -4.48002 0
M  V30 16629 C 1518.49 2.42449 -5.62036 0
M  V30 16630 N 1517.63 3.54486 -6.0604 0
M  V30 16631 H 1522.47 0.307164 -2.96413 0
M  V30 16632 H 1520.01 0.139913 -1.46433 0
M  V30 16633 H 1521.97 2.78298 -3.10815 0
M  V30 16634 H 1520.6 2.5391 -1.99323 0
M  V30 16635 H 1519.65 0.834817 -3.71127 0
M  V30 16636 H 1520.96 1.30765 -4.81354 0
M  V30 16637 H 1520.11 3.66325 -4.83623 0
M  V30 16638 H 1518.85 3.24235 -3.64312 0
M  V30 16639 H 1517.86 1.59985 -5.26008 0
M  V30 16640 H 1519.08 2.04744 -6.475 0
M  V30 16641 H 1517.03 3.92948 -5.25289 0
M  V30 16642 H 1516.95 3.22871 -6.83586 0
M  V30 16643 H 1518.21 4.35792 -6.46302 0
M  V30 16644 N 1522.44 1.56945 0.143535 0
M  V30 16645 C 1523.69 1.83538 0.855563 0
M  V30 16646 C 1524.02 0.711666 1.81013 0
M  V30 16647 O 1523.27 -0.299039 1.93402 0
M  V30 16648 C 1523.57 3.16482 1.66054 0
M  V30 16649 C 1523.24 4.42768 0.85246 0
M  V30 16650 C 1521.9 4.77064 0.629535 0
M  V30 16651 C 1524.25 5.20406 0.287567 0
M  V30 16652 C 1521.58 5.86457 -0.168934 0
M  V30 16653 C 1523.93 6.30637 -0.49796 0
M  V30 16654 C 1522.6 6.6348 -0.731429 0
M  V30 16655 H 1521.87 0.671615 0.313073 0
M  V30 16656 H 1524.51 1.9113 0.11904 0
M  V30 16657 H 1522.82 3.04357 2.46727 0
M  V30 16658 H 1524.52 3.34274 2.215 0
M  V30 16659 H 1521.11 4.15884 1.03628 0
M  V30 16660 H 1525.29 4.94282 0.447066 0
M  V30 16661 H 1520.55 6.10343 -0.359283 0
M  V30 16662 H 1524.72 6.89989 -0.942792 0
M  V30 16663 H 1522.35 7.48081 -1.35199 0
M  V30 16664 N 1523.92 -0.412991 1.52093 0
M  V30 16665 C 1525.15 -1.18667 1.70096 0
M  V30 16666 C 1525.57 -1.83622 0.408012 0
M  V30 16667 O 1524.93 -1.69847 -0.634174 0
M  V30 16668 C 1524.98 -2.22837 2.83507 0
M  V30 16669 O 1524.08 -3.2889 2.48807 0
M  V30 16670 H 1523.42 -0.346581 0.566373 0
M  V30 16671 H 1525.95 -0.484642 1.98777 0
M  V30 16672 H 1525.96 -2.67229 3.08306 0
M  V30 16673 H 1524.64 -1.74942 3.77317 0
M  V30 16674 H 1523.21 -2.89804 2.34665 0
M  V30 16675 N 1525.4 -1.4265 -0.669982 0
M  V30 16676 C 1526.65 -1.43589 -1.43213 0
M  V30 16677 C 1526.98 -0.0537998 -1.94125 0
M  V30 16678 O 1526.25 0.922727 -1.71219 0
M  V30 16679 C 1526.54 -2.46433 -2.62569 0
M  V30 16680 C 1526.39 -3.93851 -2.17258 0
M  V30 16681 C 1527.71 -2.46208 -3.64787 0
M  V30 16682 H 1524.83 -0.522859 -0.519411 0
M  V30 16683 H 1527.47 -1.74094 -0.760997 0
M  V30 16684 H 1525.62 -2.20551 -3.19828 0
M  V30 16685 H 1527.29 -4.30732 -1.6513 0
M  V30 16686 H 1525.53 -4.07487 -1.48786 0
M  V30 16687 H 1526.21 -4.61398 -3.03012 0
M  V30 16688 H 1528.68 -2.69237 -3.17255 0
M  V30 16689 H 1527.56 -3.20138 -4.45873 0
M  V30 16690 H 1527.82 -1.48979 -4.16242 0
M  V30 16691 N 1526.88 0.906753 -1.28902 0
M  V30 16692 C 1527.84 1.99158 -1.1344 0
M  V30 16693 C 1528.84 1.60639 -0.0719551 0
M  V30 16694 O 1530.03 1.71267 -0.318317 0
M  V30 16695 C 1527.16 3.32923 -0.733172 0
M  V30 16696 H 1528.36 2.14305 -2.09794 0
M  V30 16697 H 1525.91 1.09034 -1.11988 0
M  V30 16698 H 1526.64 3.23477 0.230826 0
M  V30 16699 H 1526.43 3.62244 -1.50073 0
M  V30 16700 H 1527.92 4.12544 -0.64784 0
M  V30 16701 N 1528.36 1.11264 1.11616 0
M  V30 16702 C 1529.58 0.88306 1.87661 0
M  V30 16703 C 1530.01 -0.561586 1.79521 0
M  V30 16704 O 1529.36 -1.3964 1.1563 0
M  V30 16705 C 1529.41 1.34698 3.34498 0
M  V30 16706 O 1528.52 0.517512 4.0914 0
M  V30 16707 H 1527.86 0.318233 0.582772 0
M  V30 16708 H 1530.39 1.48164 1.41098 0
M  V30 16709 H 1530.4 1.34068 3.85344 0
M  V30 16710 H 1529.07 2.39896 3.39739 0
M  V30 16711 H 1527.65 0.589751 3.68207 0
M  V30 16712 N 1529.83 -1.29188 0.902679 0
M  V30 16713 C 1531.11 -1.90365 0.449496 0
M  V30 16714 C 1531.49 -1.81911 -1.07105 0
M  V30 16715 O 1530.84 -1.24778 -1.91423 0
M  V30 16716 C 1531.05 -3.35324 0.967418 0
M  V30 16717 C 1532.4 -4.12342 1.0129 0
M  V30 16718 O 1533.42 -3.44239 0.915293 0
M  V30 16719 O 1532.28 -5.34048 1.15994 0
M  V30 16720 H 1529.37 -0.814956 0.140628 0
M  V30 16721 H 1531.92 -1.37633 0.992739 0
M  V30 16722 H 1530.69 -3.35646 2.0114 0
M  V30 16723 H 1530.31 -3.95539 0.404358 0
M  V30 16724 N 1531.31 -0.665475 -1.42861 0
M  V30 16725 C 1532.56 -0.184156 -2.01962 0
M  V30 16726 C 1532.89 1.20301 -1.52451 0
M  V30 16727 O 1532.17 1.80573 -0.722756 0
M  V30 16728 C 1532.45 -0.208497 -3.59496 0
M  V30 16729 C 1532.3 -1.63045 -4.19209 0
M  V30 16730 C 1533.62 0.448421 -4.3781 0
M  V30 16731 H 1530.74 -0.0683924 -0.73382 0
M  V30 16732 H 1533.38 -0.84849 -1.70002 0
M  V30 16733 H 1531.53 0.357179 -3.86855 0
M  V30 16734 H 1533.2 -2.24766 -4.02837 0
M  V30 16735 H 1531.45 -2.17401 -3.75392 0
M  V30 16736 H 1532.12 -1.59924 -5.28326 0
M  V30 16737 H 1534.59 -0.0330053 -4.16087 0
M  V30 16738 H 1533.47 0.400713 -5.47435 0
M  V30 16739 H 1533.73 1.52454 -4.14982 0
M  V30 16740 N 1532.79 1.52222 -0.408187 0
M  V30 16741 C 1534.04 2.02765 0.160542 0
M  V30 16742 C 1534.39 1.28847 1.42885 0
M  V30 16743 O 1533.68 0.385878 1.87674 0
M  V30 16744 C 1533.88 3.54384 0.463353 0
M  V30 16745 C 1533.71 4.42988 -0.774055 0
M  V30 16746 C 1532.48 4.88318 -1.29897 0
M  V30 16747 C 1534.67 4.87049 -1.65189 0
M  V30 16748 N 1532.66 5.61048 -2.49196 0
M  V30 16749 C 1534.03 5.5855 -2.69114 0
M  V30 16750 C 1536.08 4.69066 -1.66976 0
M  V30 16751 C 1534.79 6.13976 -3.74735 0
M  V30 16752 C 1536.81 5.25389 -2.71515 0
M  V30 16753 C 1536.17 5.96811 -3.74161 0
M  V30 16754 H 1532.27 0.781735 0.0203387 0
M  V30 16755 H 1534.86 1.86403 -0.562322 0
M  V30 16756 H 1533.03 3.70821 1.15526 0
M  V30 16757 H 1534.76 3.91612 1.02088 0
M  V30 16758 H 1531.51 4.65779 -0.857148 0
M  V30 16759 H 1531.94 6.02055 -3.09611 0
M  V30 16760 H 1536.58 4.13335 -0.889589 0
M  V30 16761 H 1534.3 6.68779 -4.53608 0
M  V30 16762 H 1537.88 5.13344 -2.73804 0
M  V30 16763 H 1536.76 6.39613 -4.53724 0
M  V30 16764 N 1534.27 0.138579 1.5699 0
M  V30 16765 C 1535.49 -0.525074 2.00643 0
M  V30 16766 C 1535.92 -1.58174 1.01796 0
M  V30 16767 O 1535.28 -1.81298 -0.00754003 0
M  V30 16768 C 1535.32 -1.11019 3.43085 0
M  V30 16769 O 1534.43 -2.22529 3.4721 0
M  V30 16770 H 1533.77 -0.129283 0.651292 0
M  V30 16771 H 1536.3 0.23283 2.03271 0
M  V30 16772 H 1536.31 -1.44093 3.81708 0
M  V30 16773 H 1534.98 -0.336325 4.14538 0
M  V30 16774 H 1533.56 -1.90747 3.20422 0
M  V30 16775 N 1535.75 -1.57019 -0.13521 0
M  V30 16776 C 1536.99 -1.8399 -0.845818 0
M  V30 16777 C 1537.32 -0.721255 -1.80633 0
M  V30 16778 O 1536.58 0.288778 -1.93558 0
M  V30 16779 C 1536.87 -3.17358 -1.64373 0
M  V30 16780 C 1536.54 -4.43214 -0.828967 0
M  V30 16781 C 1535.2 -4.77391 -0.604226 0
M  V30 16782 C 1537.55 -5.20551 -0.259965 0
M  V30 16783 C 1534.88 -5.86359 0.200033 0
M  V30 16784 C 1537.23 -6.30364 0.531397 0
M  V30 16785 C 1535.9 -6.63083 0.766605 0
M  V30 16786 H 1535.17 -0.673266 -0.309507 0
M  V30 16787 H 1537.82 -1.9119 -0.108903 0
M  V30 16788 H 1536.12 -3.05661 -2.4511 0
M  V30 16789 H 1537.82 -3.35444 -2.19724 0
M  V30 16790 H 1534.41 -4.16427 -1.01421 0
M  V30 16791 H 1538.59 -4.94512 -0.420847 0
M  V30 16792 H 1533.85 -6.10144 0.391646 0
M  V30 16793 H 1538.02 -6.89479 0.979371 0
M  V30 16794 H 1535.65 -7.47354 1.39164 0
M  V30 16795 N 1537.22 0.404919 -1.52309 0
M  V30 16796 C 1538.47 1.14921 -1.66246 0
M  V30 16797 C 1538.79 1.90919 -0.396868 0
M  V30 16798 O 1538.06 1.86856 0.588361 0
M  V30 16799 H 1536.64 0.427223 -0.612772 0
M  V30 16800 H 1539.31 0.461091 -1.89367 0
M  V30 16801 H 1538.4 1.86095 -2.5055 0
M  V30 16802 N 1538.7 1.43003 0.662408 0
M  V30 16803 C 1539.95 1.44346 1.4245 0
M  V30 16804 C 1540.28 0.064094 1.94094 0
M  V30 16805 O 1539.56 -0.913633 1.71706 0
M  V30 16806 C 1539.84 2.47822 2.61259 0
M  V30 16807 C 1539.69 3.94998 2.15166 0
M  V30 16808 C 1541.01 2.48139 3.63476 0
M  V30 16809 H 1538.13 0.525606 0.51663 0
M  V30 16810 H 1540.77 1.74495 0.751754 0
M  V30 16811 H 1538.92 2.22244 3.18653 0
M  V30 16812 H 1540.59 4.31601 1.62843 0
M  V30 16813 H 1538.84 4.0827 1.46622 0
M  V30 16814 H 1539.51 4.62998 3.00561 0
M  V30 16815 H 1541.98 2.70916 3.15823 0
M  V30 16816 H 1540.86 3.22498 4.44169 0
M  V30 16817 H 1541.12 1.51184 4.15447 0
M  V30 16818 N 1540.18 -0.899904 1.29381 0
M  V30 16819 C 1541.43 -1.65282 1.17515 0
M  V30 16820 C 1541.76 -1.92275 -0.272788 0
M  V30 16821 O 1541.03 -1.53303 -1.19701 0
M  V30 16822 C 1541.32 -3.00207 1.98867 0
M  V30 16823 C 1541.17 -2.80281 3.51799 0
M  V30 16824 C 1542.49 -4.00936 1.81489 0
M  V30 16825 H 1539.61 -0.5998 0.428263 0
M  V30 16826 H 1542.25 -1.04241 1.58852 0
M  V30 16827 H 1540.4 -3.52308 1.63741 0
M  V30 16828 H 1542.07 -2.35082 3.96905 0
M  V30 16829 H 1540.32 -2.15068 3.76733 0
M  V30 16830 H 1540.99 -3.76155 4.03994 0
M  V30 16831 H 1543.46 -3.57944 2.12169 0
M  V30 16832 H 1542.34 -4.9328 2.4076 0
M  V30 16833 H 1542.6 -4.35342 0.770021 0
M  V30 16834 N 1541.66 -1.11854 -1.11024 0
M  V30 16835 C 1542.59 -0.803129 -2.19253 0
M  V30 16836 C 1543.57 0.230417 -1.68532 0
M  V30 16837 O 1544.75 0.0929421 -1.93977 0
M  V30 16838 C 1541.88 -0.250265 -3.46397 0
M  V30 16839 C 1540.84 -1.21617 -4.10357 0
M  V30 16840 C 1540.16 -0.523821 -5.32128 0
M  V30 16841 C 1541.46 -2.56852 -4.54779 0
M  V30 16842 H 1543.16 -1.7081 -2.45895 0
M  V30 16843 H 1540.7 -0.822712 -1.18184 0
M  V30 16844 H 1542.66 -0.0173732 -4.21396 0
M  V30 16845 H 1541.38 0.690018 -3.19228 0
M  V30 16846 H 1540.04 -1.43477 -3.37357 0
M  V30 16847 H 1539.69 0.421408 -5.01232 0
M  V30 16848 H 1539.39 -1.16809 -5.75873 0
M  V30 16849 H 1540.91 -0.299823 -6.09863 0
M  V30 16850 H 1542.33 -2.39056 -5.21081 0
M  V30 16851 H 1540.72 -3.17301 -5.09353 0
M  V30 16852 H 1541.79 -3.15751 -3.68007 0
M  V30 16853 N 1543.14 1.28707 -0.909517 0
M  V30 16854 C 1544.37 1.98995 -0.555405 0
M  V30 16855 C 1544.77 1.68183 0.866665 0
M  V30 16856 O 1544.12 0.928626 1.585 0
M  V30 16857 C 1544.18 3.53018 -0.67958 0
M  V30 16858 C 1543.84 4.0741 -2.07042 0
M  V30 16859 C 1544.84 4.21565 -3.04268 0
M  V30 16860 C 1542.53 4.42204 -2.38245 0
M  V30 16861 C 1544.52 4.69762 -4.30816 0
M  V30 16862 C 1542.21 4.90095 -3.65034 0
M  V30 16863 C 1543.2 5.03831 -4.61133 0
M  V30 16864 O 1542.89 5.50679 -5.85668 0
M  V30 16865 H 1542.62 0.64228 -0.210836 0
M  V30 16866 H 1545.18 1.64974 -1.22364 0
M  V30 16867 H 1543.41 3.86673 0.0457104 0
M  V30 16868 H 1545.1 4.0453 -0.33319 0
M  V30 16869 H 1545.86 3.94962 -2.81478 0
M  V30 16870 H 1541.74 4.30766 -1.642 0
M  V30 16871 H 1545.29 4.80398 -5.0583 0
M  V30 16872 H 1541.18 5.16137 -3.8765 0
M  V30 16873 H 1541.95 5.68974 -5.88397 0
M  V30 16874 N 1544.61 0.673042 1.42506 0
M  V30 16875 C 1545.52 -0.00648572 2.34599 0
M  V30 16876 C 1546.54 -0.790758 1.54994 0
M  V30 16877 O 1547.72 -0.733482 1.87569 0
M  V30 16878 C 1544.78 -0.94734 3.33506 0
M  V30 16879 C 1543.84 -0.157795 4.2901 0
M  V30 16880 C 1543.08 -1.05384 5.23192 0
M  V30 16881 O 1543.3 -2.29334 5.22266 0
M  V30 16882 O 1542.23 -0.515584 5.99688 0
M  V30 16883 H 1546.06 0.752059 2.94241 0
M  V30 16884 H 1543.64 0.433272 1.42979 0
M  V30 16885 H 1545.53 -1.4875 3.94273 0
M  V30 16886 H 1544.2 -1.68577 2.7634 0
M  V30 16887 H 1543.11 0.426426 3.71662 0
M  V30 16888 H 1544.44 0.54148 4.89212 0
M  V30 16889 N 1546.09 -1.52004 0.416254 0
M  V30 16890 C 1547.02 -2.30106 -0.396671 0
M  V30 16891 C 1548 -1.34616 -1.03983 0
M  V30 16892 O 1549.19 -1.63528 -1.04749 0
M  V30 16893 C 1546.32 -3.12769 -1.50972 0
M  V30 16894 C 1545.27 -4.16365 -0.99119 0
M  V30 16895 C 1544.6 -4.87417 -2.19838 0
M  V30 16896 C 1545.9 -5.22284 -0.0402599 0
M  V30 16897 H 1547.59 -2.98312 0.255054 0
M  V30 16898 H 1545.14 -1.43464 0.124106 0
M  V30 16899 H 1547.09 -3.66178 -2.08547 0
M  V30 16900 H 1545.82 -2.42346 -2.18943 0
M  V30 16901 H 1544.47 -3.63976 -0.437803 0
M  V30 16902 H 1544.12 -4.13516 -2.8638 0
M  V30 16903 H 1543.82 -5.57454 -1.85792 0
M  V30 16904 H 1545.35 -5.43641 -2.78006 0
M  V30 16905 H 1546.76 -5.70891 -0.525027 0
M  V30 16906 H 1545.16 -5.99726 0.211742 0
M  V30 16907 H 1546.23 -4.7642 0.902877 0
M  V30 16908 N 1547.57 -0.146903 -1.56914 0
M  V30 16909 C 1548.82 0.504234 -1.96122 0
M  V30 16910 C 1549.15 1.64879 -1.03175 0
M  V30 16911 O 1548.4 1.95605 -0.0609397 0
M  V30 16912 C 1548.7 1.05159 -3.41579 0
M  V30 16913 C 1548.37 0.0254845 -4.50893 0
M  V30 16914 C 1547.03 -0.256589 -4.80515 0
M  V30 16915 C 1549.38 -0.672284 -5.16846 0
M  V30 16916 C 1546.71 -1.24224 -5.73398 0
M  V30 16917 C 1549.06 -1.64675 -6.1079 0
M  V30 16918 C 1547.72 -1.93652 -6.38792 0
M  V30 16919 H 1546.99 0.184512 -0.71766 0
M  V30 16920 H 1549.64 -0.233712 -1.90069 0
M  V30 16921 H 1547.95 1.86687 -3.44464 0
M  V30 16922 H 1549.64 1.56398 -3.69244 0
M  V30 16923 H 1546.23 0.255517 -4.27838 0
M  V30 16924 H 1550.42 -0.467555 -4.94093 0
M  V30 16925 H 1545.67 -1.47319 -5.93386 0
M  V30 16926 H 1549.85 -2.19294 -6.60971 0
M  V30 16927 H 1547.47 -2.70179 -7.10568 0
M  V30 16928 N 1549.05 1.57088 0.126881 0
M  V30 16929 C 1550.28 1.88614 0.850444 0
M  V30 16930 C 1550.69 0.737309 1.73808 0
M  V30 16931 O 1550.05 -0.292196 1.80146 0
M  V30 16932 C 1550.1 3.19541 1.69044 0
M  V30 16933 O 1549.82 4.3 0.838555 0
M  V30 16934 C 1551.32 3.64717 2.51985 0
M  V30 16935 H 1548.54 0.624715 0.244892 0
M  V30 16936 H 1551.09 2.04184 0.113634 0
M  V30 16937 H 1549.24 3.05664 2.38009 0
M  V30 16938 H 1549.65 5.04992 1.41717 0
M  V30 16939 H 1551.13 4.5911 3.06467 0
M  V30 16940 H 1551.61 2.90986 3.28974 0
M  V30 16941 H 1552.21 3.81356 1.88276 0
M  V30 16942 N 1550.53 -0.396836 1.52522 0
M  V30 16943 C 1551.76 -1.16235 1.70801 0
M  V30 16944 C 1552.16 -1.8442 0.422591 0
M  V30 16945 O 1551.51 -1.732 -0.612171 0
M  V30 16946 C 1551.57 -2.25922 2.79642 0
M  V30 16947 C 1551.23 -1.7777 4.21007 0
M  V30 16948 C 1552.23 -1.25873 5.04432 0
M  V30 16949 C 1549.92 -1.84231 4.67295 0
M  V30 16950 C 1551.91 -0.810733 6.32223 0
M  V30 16951 C 1549.6 -1.39043 5.95072 0
M  V30 16952 C 1550.59 -0.875508 6.77365 0
M  V30 16953 O 1550.28 -0.430197 8.02748 0
M  V30 16954 H 1550.01 -0.354799 0.575407 0
M  V30 16955 H 1552.57 -0.471344 1.99919 0
M  V30 16956 H 1550.8 -2.98424 2.45927 0
M  V30 16957 H 1552.49 -2.87629 2.86399 0
M  V30 16958 H 1553.25 -1.20244 4.69858 0
M  V30 16959 H 1549.13 -2.23253 4.03335 0
M  V30 16960 H 1552.68 -0.408137 6.96405 0
M  V30 16961 H 1548.57 -1.44354 6.29152 0
M  V30 16962 H 1549.34 -0.552389 8.16634 0
M  V30 16963 N 1552.01 -1.43353 -0.654814 0
M  V30 16964 C 1553.25 -1.44172 -1.41058 0
M  V30 16965 C 1553.57 -0.0690586 -1.95478 0
M  V30 16966 O 1554.77 0.0453021 -2.71462 0
M  V30 16967 C 1553.23 -2.53701 -2.55272 0
M  V30 16968 C 1552.84 -3.97066 -2.07466 0
M  V30 16969 C 1554.58 -2.63713 -3.3265 0
M  V30 16970 C 1552.49 -4.98065 -3.18881 0
M  V30 16971 H 1551.42 -0.536303 -0.529995 0
M  V30 16972 H 1554.07 -1.69336 -0.706941 0
M  V30 16973 H 1552.45 -2.21736 -3.28099 0
M  V30 16974 H 1553.63 -4.38485 -1.4166 0
M  V30 16975 H 1551.94 -3.91086 -1.42972 0
M  V30 16976 H 1554.54 -3.36346 -4.15663 0
M  V30 16977 H 1554.88 -1.68729 -3.80574 0
M  V30 16978 H 1555.41 -2.94971 -2.66902 0
M  V30 16979 H 1552.15 -5.94596 -2.75927 0
M  V30 16980 H 1551.67 -4.61261 -3.83404 0
M  V30 16981 H 1553.35 -5.20696 -3.84037 0
M  V30 16982 N 1553.48 0.89303 -1.29857 0
M  V30 16983 C 1554.39 2.03079 -1.17457 0
M  V30 16984 C 1555.41 1.73733 -0.0962941 0
M  V30 16985 O 1556.59 1.99005 -0.309667 0
M  V30 16986 C 1553.65 3.3589 -0.858991 0
M  V30 16987 C 1552.71 3.78711 -2.0218 0
M  V30 16988 C 1551.94 5.05184 -1.72118 0
M  V30 16989 O 1552.17 5.66738 -0.645276 0
M  V30 16990 O 1551.1 5.44218 -2.57119 0
M  V30 16991 H 1554.93 2.16465 -2.13017 0
M  V30 16992 H 1552.51 1.01774 -1.09373 0
M  V30 16993 H 1554.39 4.15582 -0.697852 0
M  V30 16994 H 1553.07 3.23631 0.0667756 0
M  V30 16995 H 1551.98 2.99758 -2.23822 0
M  V30 16996 H 1553.31 3.95563 -2.929 0
M  V30 16997 N 1554.96 1.12442 1.10429 0
M  V30 16998 C 1555.91 0.792332 2.16773 0
M  V30 16999 C 1556.88 -0.240945 1.64343 0
M  V30 17000 O 1558.06 -0.115504 1.9045 0
M  V30 17001 C 1555.2 0.253166 3.4417 0
M  V30 17002 C 1554.32 1.34426 4.10553 0
M  V30 17003 C 1553.45 0.764527 5.2567 0
M  V30 17004 C 1552.49 1.83474 5.83955 0
M  V30 17005 N 1551.63 1.27372 6.9045 0
M  V30 17006 H 1556.47 1.7033 2.44524 0
M  V30 17007 H 1554 0.850418 1.20026 0
M  V30 17008 H 1555.96 -0.0774862 4.17128 0
M  V30 17009 H 1554.59 -0.620962 3.16771 0
M  V30 17010 H 1553.64 1.79169 3.35563 0
M  V30 17011 H 1554.96 2.15354 4.49916 0
M  V30 17012 H 1554.11 0.384548 6.0548 0
M  V30 17013 H 1552.85 -0.0759512 4.87641 0
M  V30 17014 H 1551.85 2.22391 5.02814 0
M  V30 17015 H 1553.08 2.67844 6.24048 0
M  V30 17016 H 1551.03 0.455069 6.5442 0
M  V30 17017 H 1550.94 2.01959 7.28525 0
M  V30 17018 H 1552.21 0.920975 7.7404 0
M  V30 17019 N 1556.44 -1.28223 0.91633 0
M  V30 17020 C 1557.66 -1.99523 0.566147 0
M  V30 17021 C 1558.09 -1.68 -0.846034 0
M  V30 17022 O 1557.45 -0.913838 -1.56584 0
M  V30 17023 C 1557.5 -3.51949 0.785114 0
M  V30 17024 O 1556.6 -4.1211 -0.154686 0
M  V30 17025 H 1555.94 -0.626764 0.219232 0
M  V30 17026 H 1558.47 -1.63313 1.23247 0
M  V30 17027 H 1558.48 -4.02016 0.696224 0
M  V30 17028 H 1557.16 -3.74227 1.81457 0
M  V30 17029 H 1555.73 -3.72896 -0.0168463 0
M  V30 17030 N 1557.92 -0.68059 -1.42147 0
M  V30 17031 C 1558.86 -0.00585926 -2.30799 0
M  V30 17032 C 1559.83 0.786778 -1.46284 0
M  V30 17033 O 1561.02 0.757853 -1.75103 0
M  V30 17034 C 1558.16 0.935319 -3.32183 0
M  V30 17035 C 1557.27 0.13589 -4.31786 0
M  V30 17036 C 1556.41 1.07335 -5.20243 0
M  V30 17037 C 1555.45 0.265943 -6.11522 0
M  V30 17038 N 1554.58 1.15641 -6.92511 0
M  V30 17039 H 1559.42 -0.767651 -2.87943 0
M  V30 17040 H 1556.96 -0.39029 -1.41828 0
M  V30 17041 H 1558.92 1.49489 -3.89498 0
M  V30 17042 H 1557.55 1.66368 -2.76626 0
M  V30 17043 H 1556.6 -0.540383 -3.76542 0
M  V30 17044 H 1557.91 -0.490716 -4.9638 0
M  V30 17045 H 1557.07 1.70265 -5.82319 0
M  V30 17046 H 1555.81 1.73383 -4.55839 0
M  V30 17047 H 1554.81 -0.376531 -5.48509 0
M  V30 17048 H 1556.04 -0.39053 -6.77976 0
M  V30 17049 H 1553.98 1.80319 -6.30731 0
M  V30 17050 H 1553.9 0.585022 -7.53733 0
M  V30 17051 H 1555.17 1.773 -7.59069 0
M  V30 17052 N 1559.4 1.51781 -0.424309 0
M  V30 17053 C 1560.62 2.06871 0.147968 0
M  V30 17054 C 1561.05 1.29093 1.36808 0
M  V30 17055 O 1560.4 0.325279 1.78358 0
M  V30 17056 C 1560.45 3.57631 0.461757 0
M  V30 17057 O 1559.56 3.82149 1.55035 0
M  V30 17058 H 1558.9 0.663957 0.00757275 0
M  V30 17059 H 1561.43 1.95547 -0.601888 0
M  V30 17060 H 1561.44 4.01668 0.716005 0
M  V30 17061 H 1560.11 4.1367 -0.430081 0
M  V30 17062 H 1558.69 3.49984 1.28709 0
M  V30 17063 N 1560.87 0.155222 1.56834 0
M  V30 17064 C 1562.28 -0.364232 1.83113 0
M  V30 17065 C 1562.64 -1.64173 1.07432 0
M  V30 17066 O 1561.76 -2.13988 0.322202 0
M  V30 17067 C 1562.36 -0.667608 3.32157 0
M  V30 17068 C 1560.91 -1.13156 3.58989 0
M  V30 17069 C 1560.06 -0.158941 2.76844 0
M  V30 17070 H 1563.01 0.379779 1.54089 0
M  V30 17071 H 1563.03 -1.52141 3.4876 0
M  V30 17072 H 1562.55 0.262355 3.87212 0
M  V30 17073 H 1560.65 -2.07717 3.09329 0
M  V30 17074 H 1560.76 -1.05184 4.67411 0
M  V30 17075 H 1559.12 -0.653181 2.46182 0
M  V30 17076 H 1559.91 0.764757 3.34674 0
M  V30 17077 N 1562.35 -1.57153 -0.118549 0
M  V30 17078 C 1563.76 -1.74046 -0.675645 0
M  V30 17079 C 1564.11 -0.773974 -1.80289 0
M  V30 17080 O 1563.24 0.0530041 -2.16335 0
M  V30 17081 C 1563.83 -3.15591 -1.23239 0
M  V30 17082 C 1562.39 -3.33988 -1.73577 0
M  V30 17083 C 1561.54 -2.69916 -0.63567 0
M  V30 17084 H 1564.49 -1.58336 0.10737 0
M  V30 17085 H 1564.51 -3.17166 -2.10205 0
M  V30 17086 H 1564.02 -3.8591 -0.411744 0
M  V30 17087 H 1562.12 -2.68712 -2.58118 0
M  V30 17088 H 1562.24 -4.42154 -1.84491 0
M  V30 17089 H 1560.6 -2.31163 -1.06939 0
M  V30 17090 H 1561.38 -3.42859 0.174005 0
M  V30 17091 N 1563.83 0.388742 -1.5273 0
M  V30 17092 C 1564.79 1.45759 -1.76881 0
M  V30 17093 C 1565.79 1.47565 -0.63884 0
M  V30 17094 O 1566.98 1.48731 -0.906895 0
M  V30 17095 C 1564.11 2.85045 -1.86981 0
M  V30 17096 H 1565.31 1.25629 -2.72319 0
M  V30 17097 H 1562.86 0.620497 -1.43456 0
M  V30 17098 H 1563.6 3.1052 -0.935296 0
M  V30 17099 H 1563.38 2.85136 -2.69147 0
M  V30 17100 H 1564.87 3.62492 -2.07338 0
M  V30 17101 N 1565.31 1.43698 0.647203 0
M  V30 17102 C 1566.22 1.51781 1.78884 0
M  V30 17103 C 1567.23 0.404498 1.69233 0
M  V30 17104 O 1568.41 0.659509 1.90296 0
M  V30 17105 C 1565.47 1.44408 3.15194 0
M  V30 17106 C 1564.54 2.6646 3.36597 0
M  V30 17107 C 1563.77 2.59429 4.66403 0
M  V30 17108 O 1563.99 1.64537 5.46154 0
M  V30 17109 O 1562.93 3.50027 4.89658 0
M  V30 17110 H 1566.75 2.48198 1.75019 0
M  V30 17111 H 1564.34 1.25766 0.806436 0
M  V30 17112 H 1566.22 1.42761 3.96481 0
M  V30 17113 H 1564.89 0.511292 3.19637 0
M  V30 17114 H 1563.8 2.73679 2.5505 0
M  V30 17115 H 1565.13 3.58732 3.37005 0
M  V30 17116 N 1566.79 -0.886131 1.30328 0
M  V30 17117 C 1568.03 -1.63784 1.19085 0
M  V30 17118 C 1568.36 -1.92825 -0.254697 0
M  V30 17119 O 1567.62 -1.54682 -1.19883 0
M  V30 17120 C 1567.92 -2.98624 1.96364 0
M  V30 17121 C 1567.58 -2.89139 3.45991 0
M  V30 17122 C 1566.24 -2.86259 3.86794 0
M  V30 17123 C 1568.6 -2.7735 4.41278 0
M  V30 17124 C 1565.92 -2.69428 5.21177 0
M  V30 17125 C 1568.28 -2.62057 5.75768 0
M  V30 17126 C 1566.94 -2.57551 6.15811 0
M  V30 17127 H 1566.21 -0.599327 0.435761 0
M  V30 17128 H 1568.86 -1.03037 1.61418 0
M  V30 17129 H 1567.16 -3.63315 1.46662 0
M  V30 17130 H 1568.86 -3.55746 1.85057 0
M  V30 17131 H 1565.45 -2.92189 3.13566 0
M  V30 17132 H 1569.63 -2.78642 4.10697 0
M  V30 17133 H 1564.89 -2.64353 5.51296 0
M  V30 17134 H 1569.06 -2.51909 6.49242 0
M  V30 17135 H 1566.69 -2.44268 7.19887 0
M  V30 17136 N 1568.26 -1.13026 -1.09832 0
M  V30 17137 C 1569.2 -0.747512 -2.1561 0
M  V30 17138 C 1570.18 0.2643 -1.60438 0
M  V30 17139 O 1571.36 0.156784 -1.87847 0
M  V30 17140 C 1568.49 -0.107449 -3.3853 0
M  V30 17141 C 1567.53 -1.08709 -4.12413 0
M  V30 17142 S 1568.37 -2.6176 -4.67164 0
M  V30 17143 C 1569.52 -1.99102 -5.93388 0
M  V30 17144 H 1569.75 -1.6435 -2.47743 0
M  V30 17145 H 1567.29 -0.949978 -1.21716 0
M  V30 17146 H 1569.25 0.255456 -4.09704 0
M  V30 17147 H 1567.91 0.765741 -3.04623 0
M  V30 17148 H 1567.1 -0.58698 -5.0057 0
M  V30 17149 H 1566.7 -1.39325 -3.4708 0
M  V30 17150 H 1568.99 -1.33755 -6.64166 0
M  V30 17151 H 1569.94 -2.85323 -6.48071 0
M  V30 17152 H 1570.34 -1.44429 -5.45711 0
M  V30 17153 N 1569.74 1.27735 -0.923117 0
M  V30 17154 C 1571.16 1.46952 -0.622666 0
M  V30 17155 C 1571.36 1.8364 0.829384 0
M  V30 17156 O 1570.41 1.94705 1.60767 0
M  V30 17157 C 1571.73 2.56545 -1.56861 0
M  V30 17158 C 1573.28 2.70408 -1.57634 0
M  V30 17159 C 1573.75 3.83154 -2.50913 0
M  V30 17160 N 1575.24 3.90521 -2.49093 0
M  V30 17161 C 1575.98 4.77167 -3.17962 0
M  V30 17162 N 1575.47 5.68334 -3.96193 0
M  V30 17163 N 1577.27 4.70857 -3.07002 0
M  V30 17164 H 1569.42 1.02205 -1.86193 0
M  V30 17165 H 1571.68 0.509982 -0.799138 0
M  V30 17166 H 1571.39 2.3637 -2.60427 0
M  V30 17167 H 1571.26 3.53839 -1.30681 0
M  V30 17168 H 1573.65 2.89967 -0.548005 0
M  V30 17169 H 1573.73 1.73615 -1.8786 0
M  V30 17170 H 1573.37 3.64349 -3.53853 0
M  V30 17171 H 1573.3 4.79365 -2.17984 0
M  V30 17172 H 1575.79 3.25329 -1.92274 0
M  V30 17173 H 1576.11 6.31298 -4.45738 0
M  V30 17174 H 1574.45 5.68144 -4.00297 0
M  V30 17175 H 1577.64 3.98629 -2.45382 0
M  V30 17176 H 1577.81 5.38166 -3.60945 0
M  V30 17177 N 1571.22 0.688118 1.41784 0
M  V30 17178 C 1572.15 -0.0323076 2.28177 0
M  V30 17179 C 1573.13 -0.795419 1.41816 0
M  V30 17180 O 1574.32 -0.787785 1.71249 0
M  V30 17181 C 1571.44 -1.05308 3.21913 0
M  V30 17182 C 1570.49 -0.384003 4.24768 0
M  V30 17183 S 1571.32 0.86817 5.28416 0
M  V30 17184 C 1572.48 -0.151191 6.25717 0
M  V30 17185 H 1572.71 0.700456 2.88931 0
M  V30 17186 H 1570.24 0.478125 1.46811 0
M  V30 17187 H 1572.2 -1.63689 3.76452 0
M  V30 17188 H 1570.86 -1.75837 2.6027 0
M  V30 17189 H 1570.06 -1.15469 4.90594 0
M  V30 17190 H 1569.66 0.126545 3.73786 0
M  V30 17191 H 1571.95 -1.0068 6.69977 0
M  V30 17192 H 1572.89 0.472955 7.06519 0
M  V30 17193 H 1573.3 -0.502631 5.62258 0
M  V30 17194 N 1572.7 -1.51554 0.432352 0
M  V30 17195 C 1573.95 -2.01232 -0.137255 0
M  V30 17196 C 1574.26 -1.32135 -1.44221 0
M  V30 17197 O 1575.47 -1.72756 -2.09446 0
M  V30 17198 C 1573.92 -3.58688 -0.295152 0
M  V30 17199 C 1573.53 -4.36718 0.999072 0
M  V30 17200 C 1575.27 -4.16528 -0.818798 0
M  V30 17201 C 1573.18 -5.85867 0.80709 0
M  V30 17202 H 1572.11 -0.751986 -0.0550696 0
M  V30 17203 H 1574.76 -1.74703 0.561352 0
M  V30 17204 H 1573.14 -3.81643 -1.05664 0
M  V30 17205 H 1574.32 -4.25512 1.76851 0
M  V30 17206 H 1572.63 -3.90306 1.45087 0
M  V30 17207 H 1575.23 -5.25664 -0.978841 0
M  V30 17208 H 1575.57 -3.75379 -1.79989 0
M  V30 17209 H 1576.11 -3.97632 -0.11575 0
M  V30 17210 H 1572.85 -6.31419 1.76041 0
M  V30 17211 H 1572.37 -5.9975 0.0773617 0
M  V30 17212 H 1574.04 -6.45375 0.458328 0
M  V30 17213 N 1574.18 -0.163538 -1.56749 0
M  V30 17214 C 1575.42 0.482449 -1.96257 0
M  V30 17215 C 1575.75 1.64302 -1.05023 0
M  V30 17216 O 1575.02 1.95562 -0.115027 0
M  V30 17217 H 1573.6 0.181222 -0.724684 0
M  V30 17218 H 1576.26 -0.242903 -1.9338 0
M  V30 17219 H 1575.35 0.847634 -3.00369 0
M  V30 17220 N 1575.65 1.57214 0.110213 0
M  V30 17221 C 1576.6 2.01971 1.1537 0
M  V30 17222 C 1577.6 0.918137 1.42361 0
M  V30 17223 O 1578.8 1.10334 1.4222 0
M  V30 17224 H 1575.18 0.64345 0.3892 0
M  V30 17225 H 1577.15 2.88827 0.749781 0
M  V30 17226 C 1575.9 2.4473 2.46987 0
M  V30 17227 H 1575.22 3.29066 2.27059 0
M  V30 17228 H 1576.66 2.79836 3.1854 0
M  V30 17229 C 1575.12 1.31445 3.10199 0
M  V30 17230 O 1575.65 0.635251 3.96645 0
M  V30 17231 N 1573.86 1.06927 2.70213 0
M  V30 17232 H 1573.4 1.62339 2.0001 0
M  V30 17233 H 1573.36 0.313273 3.12835 0
M  V30 17234 N 1577.13 -0.380637 1.52934 0
M  V30 17235 C 1578.41 -1.13958 1.58975 0
M  V30 17236 C 1578.79 -2.07503 0.388028 0
M  V30 17237 O 1578.14 -2.19844 -0.622984 0
M  V30 17238 C 1578.35 -1.89192 2.9327 0
M  V30 17239 C 1579.7 -2.44259 3.47308 0
M  V30 17240 O 1580.72 -1.99338 2.95199 0
M  V30 17241 O 1579.58 -3.26338 4.38367 0
M  V30 17242 H 1576.67 -0.521896 0.641525 0
M  V30 17243 H 1579.22 -0.385114 1.65272 0
M  V30 17244 H 1577.99 -1.20834 3.72176 0
M  V30 17245 H 1577.61 -2.71581 2.90395 0
M  V30 17246 N 1578.61 -1.44039 -0.639573 0
M  V30 17247 C 1579.56 -1.50254 -1.75192 0
M  V30 17248 C 1580.53 -0.350994 -1.62349 0
M  V30 17249 O 1581.71 -0.56006 -1.82395 0
M  V30 17250 C 1578.85 -1.44464 -3.13407 0
M  V30 17251 C 1577.97 -2.69929 -3.37287 0
M  V30 17252 C 1577.1 -2.56031 -4.65426 0
M  V30 17253 C 1576.14 -3.76699 -4.82456 0
M  V30 17254 N 1575.28 -3.61529 -6.01865 0
M  V30 17255 H 1580.12 -2.45296 -1.69216 0
M  V30 17256 H 1577.65 -1.21748 -0.825576 0
M  V30 17257 H 1579.61 -1.39099 -3.93328 0
M  V30 17258 H 1578.24 -0.529951 -3.1842 0
M  V30 17259 H 1577.29 -2.85516 -2.51366 0
M  V30 17260 H 1578.61 -3.59523 -3.45753 0
M  V30 17261 H 1577.76 -2.48451 -5.53495 0
M  V30 17262 H 1576.5 -1.63983 -4.59305 0
M  V30 17263 H 1575.5 -3.84672 -3.92819 0
M  V30 17264 H 1576.73 -4.69772 -4.90398 0
M  V30 17265 H 1574.67 -2.72226 -5.96849 0
M  V30 17266 H 1574.59 -4.44733 -6.1135 0
M  V30 17267 H 1575.86 -3.57826 -6.92518 0
M  V30 17268 N 1580.09 0.879207 -1.30796 0
M  V30 17269 C 1581.02 1.99134 -1.13482 0
M  V30 17270 C 1582.03 1.6262 -0.0764492 0
M  V30 17271 O 1583.22 1.75553 -0.323038 0
M  V30 17272 C 1580.32 3.31386 -0.709706 0
M  V30 17273 C 1579.5 3.963 -1.85108 0
M  V30 17274 C 1578.55 5.06858 -1.41356 0
M  V30 17275 O 1577.58 5.28178 -2.12172 0
M  V30 17276 N 1578.78 5.79746 -0.295789 0
M  V30 17277 H 1581.55 2.14536 -2.09271 0
M  V30 17278 H 1579.11 1.05264 -1.23009 0
M  V30 17279 H 1581.1 4.02719 -0.399903 0
M  V30 17280 H 1579.67 3.12209 0.156309 0
M  V30 17281 H 1578.89 3.18065 -2.3287 0
M  V30 17282 H 1580.18 4.36408 -2.61582 0
M  V30 17283 H 1579.58 5.64935 0.294166 0
M  V30 17284 H 1578.13 6.51784 -0.0454707 0
M  V30 17285 N 1581.57 1.13606 1.09231 0
M  V30 17286 C 1582.82 0.897278 1.81089 0
M  V30 17287 C 1583.14 -0.578066 1.86235 0
M  V30 17288 O 1582.41 -1.42018 1.34935 0
M  V30 17289 H 1580.99 0.328971 0.670662 0
M  V30 17290 H 1583.65 1.433 1.32103 0
M  V30 17291 H 1582.74 1.28979 2.84202 0
M  V30 17292 N 1583.05 -1.27244 0.929878 0
M  V30 17293 C 1583.98 -2.25893 0.387967 0
M  V30 17294 C 1584.99 -1.55485 -0.482524 0
M  V30 17295 O 1586.18 -1.76049 -0.294795 0
M  V30 17296 C 1583.28 -3.35729 -0.462544 0
M  V30 17297 C 1582.45 -4.35665 0.38916 0
M  V30 17298 C 1581.51 -5.24685 -0.399061 0
M  V30 17299 O 1580.54 -5.68869 0.193996 0
M  V30 17300 N 1581.74 -5.551 -1.69836 0
M  V30 17301 H 1584.5 -2.73027 1.23597 0
M  V30 17302 H 1582.07 -1.40893 0.797539 0
M  V30 17303 H 1584.06 -3.92228 -0.996974 0
M  V30 17304 H 1582.63 -2.88177 -1.2113 0
M  V30 17305 H 1581.85 -3.78399 1.10488 0
M  V30 17306 H 1583.14 -4.99442 0.971349 0
M  V30 17307 H 1582.53 -5.21064 -2.20248 0
M  V30 17308 H 1581.09 -6.14289 -2.17927 0
M  V30 17309 N 1584.52 -0.695628 -1.41417 0
M  V30 17310 C 1585.46 0.0202064 -2.28191 0
M  V30 17311 C 1586.43 0.787887 -1.42236 0
M  V30 17312 O 1587.62 0.778692 -1.71664 0
M  V30 17313 C 1584.75 1.03599 -3.22467 0
M  V30 17314 C 1583.79 0.361472 -4.24965 0
M  V30 17315 S 1584.62 -0.896181 -5.27948 0
M  V30 17316 C 1585.78 0.118005 -6.25789 0
M  V30 17317 H 1586.01 -0.715769 -2.88555 0
M  V30 17318 H 1583.55 -0.485904 -1.46555 0
M  V30 17319 H 1585.5 1.6169 -3.77315 0
M  V30 17320 H 1584.17 1.74454 -2.61198 0
M  V30 17321 H 1583.36 1.12866 -4.912 0
M  V30 17322 H 1582.96 -0.146366 -3.73713 0
M  V30 17323 H 1585.25 0.971258 -6.70502 0
M  V30 17324 H 1586.2 -0.510417 -7.06258 0
M  V30 17325 H 1586.6 0.472806 -5.62516 0
M  V30 17326 N 1586 1.51322 -0.440383 0
M  V30 17327 C 1587.25 2.01302 0.126581 0
M  V30 17328 C 1587.56 1.32898 1.43518 0
M  V30 17329 O 1588.77 1.73864 2.08527 0
M  V30 17330 C 1587.23 3.58839 0.276126 0
M  V30 17331 C 1586.83 4.36182 -1.02222 0
M  V30 17332 C 1588.58 4.16957 0.796697 0
M  V30 17333 C 1586.48 5.85431 -0.838148 0
M  V30 17334 H 1585.41 0.752268 0.0510809 0
M  V30 17335 H 1588.07 1.74403 -0.570609 0
M  V30 17336 H 1586.45 3.82198 1.03639 0
M  V30 17337 H 1587.62 4.24568 -1.79105 0
M  V30 17338 H 1585.94 3.89531 -1.47155 0
M  V30 17339 H 1588.53 5.26176 0.95095 0
M  V30 17340 H 1588.88 3.76329 1.77996 0
M  V30 17341 H 1589.41 3.97687 0.0946613 0
M  V30 17342 H 1586.15 6.30476 -1.79387 0
M  V30 17343 H 1585.67 5.99701 -0.109167 0
M  V30 17344 H 1587.35 6.45122 -0.492547 0
M  V30 17345 N 1587.48 0.171848 1.5666 0
M  V30 17346 C 1588.73 -0.473669 1.97191 0
M  V30 17347 C 1589.06 -1.6286 1.05784 0
M  V30 17348 O 1588.33 -1.94216 0.105084 0
M  V30 17349 C 1588.62 -0.956134 3.47174 0
M  V30 17350 C 1588.47 0.199007 4.4936 0
M  V30 17351 C 1589.79 -1.82962 4.00266 0
M  V30 17352 H 1586.91 -0.170704 0.716958 0
M  V30 17353 H 1589.55 0.25809 1.88239 0
M  V30 17354 H 1587.7 -1.57969 3.54934 0
M  V30 17355 H 1589.37 0.836109 4.53659 0
M  V30 17356 H 1587.61 0.85442 4.25302 0
M  V30 17357 H 1588.29 -0.180704 5.51704 0
M  V30 17358 H 1590.76 -1.30394 3.95141 0
M  V30 17359 H 1589.64 -2.13621 5.05625 0
M  V30 17360 H 1589.9 -2.77557 3.44114 0
M  V30 17361 N 1588.96 -1.5727 -0.101874 0
M  V30 17362 C 1590.2 -1.85742 -0.8066 0
M  V30 17363 C 1590.53 -0.759408 -1.79062 0
M  V30 17364 O 1589.79 0.247657 -1.94127 0
M  V30 17365 C 1590.09 -3.20773 -1.57605 0
M  V30 17366 C 1589.75 -4.44873 -0.734768 0
M  V30 17367 C 1588.41 -4.78566 -0.502829 0
M  V30 17368 C 1590.77 -5.20986 -0.14949 0
M  V30 17369 C 1588.09 -5.85803 0.324363 0
M  V30 17370 C 1590.45 -6.29095 0.664987 0
M  V30 17371 C 1589.11 -6.61308 0.907082 0
M  V30 17372 H 1588.38 -0.679679 -0.295156 0
M  V30 17373 H 1591.03 -1.91378 -0.0683238 0
M  V30 17374 H 1589.33 -3.10791 -2.38571 0
M  V30 17375 H 1591.03 -3.40029 -2.12559 0
M  V30 17376 H 1587.62 -4.18485 -0.92565 0
M  V30 17377 H 1591.8 -4.95294 -0.315859 0
M  V30 17378 H 1587.06 -6.09176 0.520978 0
M  V30 17379 H 1591.23 -6.87246 1.1254 0
M  V30 17380 H 1588.86 -7.44234 1.54986 0
M  V30 17381 N 1590.44 0.372521 -1.53134 0
M  V30 17382 C 1591.39 1.45592 -1.75462 0
M  V30 17383 C 1592.37 1.4893 -0.608994 0
M  V30 17384 O 1593.56 1.54288 -0.867419 0
M  V30 17385 C 1590.69 2.83111 -1.94172 0
M  V30 17386 C 1589.78 2.84279 -3.14716 0
M  V30 17387 N 1590.17 2.551 -4.36758 0
M  V30 17388 C 1588.47 3.15443 -3.15297 0
M  V30 17389 C 1589.17 2.6377 -5.18459 0
M  V30 17390 N 1588.14 2.98192 -4.54513 0
M  V30 17391 H 1591.94 1.21885 -2.67435 0
M  V30 17392 H 1589.46 0.58064 -1.51665 0
M  V30 17393 H 1591.46 3.61136 -2.08294 0
M  V30 17394 H 1590.12 3.07788 -1.03423 0
M  V30 17395 H 1591.13 2.2882 -4.64609 0
M  V30 17396 H 1587.8 3.45479 -2.34416 0
M  V30 17397 H 1589.19 2.44616 -6.2579 0
M  V30 17398 N 1591.91 1.44376 0.631925 0
M  V30 17399 C 1592.84 1.54005 1.75512 0
M  V30 17400 C 1593.82 0.393126 1.65495 0
M  V30 17401 O 1595.01 0.613143 1.84267 0
M  V30 17402 C 1592.14 1.48313 3.14039 0
M  V30 17403 C 1591.09 2.61474 3.38844 0
M  V30 17404 C 1590.42 2.40834 4.77392 0
M  V30 17405 C 1591.72 4.03627 3.31485 0
M  V30 17406 H 1593.41 2.48019 1.6771 0
M  V30 17407 H 1590.96 1.19368 0.80543 0
M  V30 17408 H 1592.91 1.5365 3.9239 0
M  V30 17409 H 1591.64 0.508152 3.22623 0
M  V30 17410 H 1590.3 2.55525 2.62874 0
M  V30 17411 H 1589.94 1.4153 4.82678 0
M  V30 17412 H 1589.64 3.16703 4.94947 0
M  V30 17413 H 1591.17 2.47988 5.57974 0
M  V30 17414 H 1592.58 4.1095 3.99741 0
M  V30 17415 H 1590.98 4.79694 3.60574 0
M  V30 17416 H 1592.05 4.27255 2.29307 0
M  V30 17417 N 1593.39 -0.872258 1.31261 0
M  V30 17418 C 1594.64 -1.6199 1.20176 0
M  V30 17419 C 1594.95 -1.94129 -0.239439 0
M  V30 17420 O 1596.16 -2.67366 -0.471956 0
M  V30 17421 C 1594.62 -2.92017 2.10366 0
M  V30 17422 C 1594.22 -2.6737 3.59468 0
M  V30 17423 C 1595.97 -3.70007 2.08075 0
M  V30 17424 C 1593.87 -3.93291 4.41674 0
M  V30 17425 H 1592.8 -0.607793 0.446211 0
M  V30 17426 H 1595.46 -0.964627 1.561 0
M  V30 17427 H 1593.84 -3.58907 1.67338 0
M  V30 17428 H 1595.01 -2.08902 4.10727 0
M  V30 17429 H 1593.33 -2.02738 3.63712 0
M  V30 17430 H 1595.92 -4.63416 2.66739 0
M  V30 17431 H 1596.27 -4.02385 1.06733 0
M  V30 17432 H 1596.8 -3.09998 2.49291 0
M  V30 17433 H 1593.54 -3.66064 5.43762 0
M  V30 17434 H 1593.06 -4.51218 3.95174 0
M  V30 17435 H 1594.74 -4.61197 4.53769 0
M  V30 17436 N 1594.87 -1.14184 -1.08627 0
M  V30 17437 C 1595.78 -0.84033 -2.19033 0
M  V30 17438 C 1596.8 0.178322 -1.73084 0
M  V30 17439 O 1597.97 0.00737963 -2.01399 0
M  V30 17440 C 1595.04 -0.319674 -3.45223 0
M  V30 17441 C 1594.1 -1.4006 -4.0581 0
M  V30 17442 C 1593.33 -0.904693 -5.25976 0
M  V30 17443 O 1593.55 0.25468 -5.69831 0
M  V30 17444 O 1592.49 -1.68267 -5.77901 0
M  V30 17445 H 1596.31 -1.76296 -2.47292 0
M  V30 17446 H 1593.9 -0.919929 -1.17719 0
M  V30 17447 H 1595.78 -0.0351268 -4.21385 0
M  V30 17448 H 1594.46 0.575264 -3.18547 0
M  V30 17449 H 1593.36 -1.73858 -3.31247 0
M  V30 17450 H 1594.7 -2.26998 -4.3673 0
M  V30 17451 N 1596.35 1.26749 -0.936613 0
M  V30 17452 C 1597.28 2.2892 -0.460213 0
M  V30 17453 C 1598.26 1.63065 0.484135 0
M  V30 17454 O 1599.44 1.90305 0.386973 0
M  V30 17455 C 1596.57 3.46172 0.279648 0
M  V30 17456 C 1595.53 4.24083 -0.57771 0
M  V30 17457 C 1594.85 5.33903 0.291843 0
M  V30 17458 C 1596.15 4.88562 -1.84673 0
M  V30 17459 H 1597.85 2.69019 -1.31412 0
M  V30 17460 H 1595.39 1.29325 -0.633333 0
M  V30 17461 H 1597.35 4.16755 0.623931 0
M  V30 17462 H 1596.07 3.05014 1.16765 0
M  V30 17463 H 1594.73 3.55258 -0.904824 0
M  V30 17464 H 1594.38 4.88986 1.17906 0
M  V30 17465 H 1594.08 5.8694 -0.278372 0
M  V30 17466 H 1595.6 6.07326 0.631498 0
M  V30 17467 H 1597.02 5.51384 -1.56997 0
M  V30 17468 H 1595.41 5.51697 -2.36115 0
M  V30 17469 H 1596.48 4.11761 -2.56088 0
M  V30 17470 N 1597.83 0.703118 1.41046 0
M  V30 17471 C 1598.76 0.0570815 2.3343 0
M  V30 17472 C 1599.74 -0.759042 1.52225 0
M  V30 17473 O 1600.92 -0.710491 1.80736 0
M  V30 17474 C 1598.05 -0.874541 3.36109 0
M  V30 17475 C 1597.01 -0.16496 4.27682 0
M  V30 17476 C 1596.33 -1.21145 5.20795 0
M  V30 17477 C 1597.63 0.97332 5.13151 0
M  V30 17478 H 1599.33 0.828699 2.87703 0
M  V30 17479 H 1596.87 0.399956 1.38334 0
M  V30 17480 H 1598.83 -1.33579 3.99668 0
M  V30 17481 H 1597.55 -1.67791 2.80203 0
M  V30 17482 H 1596.21 0.276332 3.65557 0
M  V30 17483 H 1595.86 -2.00755 4.61201 0
M  V30 17484 H 1595.56 -0.741633 5.82901 0
M  V30 17485 H 1597.08 -1.67305 5.87232 0
M  V30 17486 H 1598.49 0.592013 5.70235 0
M  V30 17487 H 1596.89 1.37071 5.84236 0
M  V30 17488 H 1597.96 1.80961 4.49868 0
M  V30 17489 N 1599.3 -1.51086 0.448402 0
M  V30 17490 C 1600.25 -2.28015 -0.357438 0
M  V30 17491 C 1601.22 -1.32079 -1.00719 0
M  V30 17492 O 1602.41 -1.60995 -1.02398 0
M  V30 17493 C 1599.55 -3.13324 -1.44644 0
M  V30 17494 C 1598.66 -4.24267 -0.813729 0
M  V30 17495 C 1597.79 -4.96868 -1.87871 0
M  V30 17496 C 1596.83 -5.99716 -1.22502 0
M  V30 17497 N 1595.97 -6.65682 -2.23185 0
M  V30 17498 H 1600.81 -2.96436 0.30493 0
M  V30 17499 H 1598.35 -1.46203 0.162222 0
M  V30 17500 H 1600.31 -3.61119 -2.08924 0
M  V30 17501 H 1598.94 -2.46996 -2.07829 0
M  V30 17502 H 1597.99 -3.80354 -0.0589414 0
M  V30 17503 H 1599.3 -4.97917 -0.296587 0
M  V30 17504 H 1598.45 -5.48266 -2.59786 0
M  V30 17505 H 1597.19 -4.22873 -2.42961 0
M  V30 17506 H 1596.2 -5.476 -0.491388 0
M  V30 17507 H 1597.42 -6.75674 -0.681315 0
M  V30 17508 H 1595.37 -5.94493 -2.77334 0
M  V30 17509 H 1595.29 -7.35134 -1.76393 0
M  V30 17510 H 1596.55 -7.21707 -2.9455 0
M  V30 17511 N 1600.78 -0.180154 -1.56567 0
M  V30 17512 C 1601.73 0.763484 -2.19713 0
M  V30 17513 C 1602.72 1.23095 -1.16378 0
M  V30 17514 O 1603.93 1.19558 -1.34558 0
M  V30 17515 H 1600.31 0.264515 -0.703943 0
M  V30 17516 H 1602.28 0.207039 -2.97681 0
M  V30 17517 C 1601.03 1.97884 -2.85897 0
M  V30 17518 H 1600.35 1.62818 -3.65144 0
M  V30 17519 H 1601.79 2.61779 -3.33538 0
M  V30 17520 C 1600.25 2.80811 -1.86136 0
M  V30 17521 O 1600.78 3.78253 -1.35232 0
M  V30 17522 N 1598.98 2.46003 -1.54697 0
M  V30 17523 H 1598.53 1.66823 -1.96285 0
M  V30 17524 H 1598.49 3.01774 -0.88202 0
M  V30 17525 N 1602.26 1.57322 0.0935319 0
M  V30 17526 C 1603.21 2.03184 1.13222 0
M  V30 17527 C 1604.2 0.933184 1.41379 0
M  V30 17528 O 1605.41 1.11836 1.41042 0
M  V30 17529 H 1601.78 0.647541 0.382354 0
M  V30 17530 H 1603.75 2.89606 0.719105 0
M  V30 17531 C 1602.5 2.47336 2.44378 0
M  V30 17532 H 1601.83 3.31456 2.23556 0
M  V30 17533 H 1603.27 2.83199 3.15554 0
M  V30 17534 C 1601.73 1.34728 3.08788 0
M  V30 17535 O 1602.26 0.677285 3.95949 0
M  V30 17536 N 1600.46 1.09787 2.69063 0
M  V30 17537 H 1600.01 1.64451 1.98277 0
M  V30 17538 H 1599.97 0.346436 3.12485 0
M  V30 17539 N 1603.74 -0.364395 1.53329 0
M  V30 17540 C 1604.99 -1.10473 1.69234 0
M  V30 17541 C 1605.31 -1.89799 0.447347 0
M  V30 17542 O 1604.58 -1.8835 -0.538612 0
M  V30 17543 H 1603.16 -0.410826 0.623884 0
M  V30 17544 H 1605.82 -0.410721 1.90523 0
M  V30 17545 H 1604.92 -1.79387 2.55396 0
M  V30 17546 N 1605.22 -1.44709 -0.62426 0
M  V30 17547 C 1606.63 -1.28747 -0.9432 0
M  V30 17548 C 1606.83 -0.228265 -2.00203 0
M  V30 17549 O 1605.89 0.383506 -2.49571 0
M  V30 17550 C 1607.2 -2.66124 -1.39995 0
M  V30 17551 C 1608.75 -2.73889 -1.51506 0
M  V30 17552 C 1609.22 -4.11751 -2.00562 0
M  V30 17553 N 1610.72 -4.13962 -2.07821 0
M  V30 17554 C 1611.45 -5.1749 -2.46964 0
M  V30 17555 N 1610.95 -6.31376 -2.85195 0
M  V30 17556 N 1612.74 -5.04846 -2.47158 0
M  V30 17557 H 1604.89 -2.12264 0.0758746 0
M  V30 17558 H 1607.15 -0.947566 -0.0286915 0
M  V30 17559 H 1606.86 -3.4474 -0.696203 0
M  V30 17560 H 1606.73 -2.93474 -2.36967 0
M  V30 17561 H 1609.12 -1.95587 -2.20975 0
M  V30 17562 H 1609.2 -2.50272 -0.528911 0
M  V30 17563 H 1608.85 -4.90532 -1.31685 0
M  V30 17564 H 1608.78 -4.32749 -3.0006 0
M  V30 17565 H 1611.27 -3.31771 -1.80933 0
M  V30 17566 H 1611.58 -7.06179 -3.13896 0
M  V30 17567 H 1609.92 -6.34804 -2.8293 0
M  V30 17568 H 1613.12 -4.14927 -2.16686 0
M  V30 17569 H 1613.29 -5.85651 -2.77339 0
M  V30 17570 N 1606.69 0.865285 -1.31722 0
M  V30 17571 C 1607.62 1.98871 -1.22362 0
M  V30 17572 C 1608.61 1.69745 -0.109779 0
M  V30 17573 O 1609.79 1.91944 -0.295167 0
M  V30 17574 C 1606.92 3.34477 -0.935 0
M  V30 17575 C 1605.87 3.77924 -2.00892 0
M  V30 17576 C 1605.2 5.11042 -1.57291 0
M  V30 17577 C 1606.5 3.94528 -3.42264 0
M  V30 17578 H 1608.19 2.06959 -2.16352 0
M  V30 17579 H 1605.74 0.994355 -1.04157 0
M  V30 17580 H 1607.69 4.12612 -0.856111 0
M  V30 17581 H 1606.42 3.26575 0.0405536 0
M  V30 17582 H 1605.08 3.02032 -2.07779 0
M  V30 17583 H 1604.72 4.99586 -0.585084 0
M  V30 17584 H 1604.42 5.41082 -2.29138 0
M  V30 17585 H 1605.95 5.91681 -1.50818 0
M  V30 17586 H 1607.36 4.63045 -3.38027 0
M  V30 17587 H 1605.76 4.35972 -4.12369 0
M  V30 17588 H 1606.83 2.97765 -3.82706 0
M  V30 17589 N 1608.17 1.14759 1.0802 0
M  V30 17590 C 1609.58 0.928711 1.61963 0
M  V30 17591 C 1609.93 -0.531568 1.88862 0
M  V30 17592 O 1609.06 -1.40129 1.64902 0
M  V30 17593 C 1609.65 1.67943 2.94246 0
M  V30 17594 C 1608.21 1.50602 3.44958 0
M  V30 17595 C 1607.36 1.69938 2.19126 0
M  V30 17596 H 1610.31 1.29882 0.911945 0
M  V30 17597 H 1610.33 1.14493 3.62866 0
M  V30 17598 H 1609.84 2.7422 2.74636 0
M  V30 17599 H 1607.95 0.466901 3.69663 0
M  V30 17600 H 1608.06 2.27857 4.21447 0
M  V30 17601 H 1606.42 1.12534 2.28491 0
M  V30 17602 H 1607.21 2.77566 2.0202 0
M  V30 17603 N 1609.65 -1.26251 0.943322 0
M  V30 17604 C 1611.07 -1.45943 0.645966 0
M  V30 17605 C 1611.27 -1.84936 -0.800064 0
M  V30 17606 O 1610.32 -1.97238 -1.57649 0
M  V30 17607 C 1611.64 -2.54017 1.60922 0
M  V30 17608 C 1613.18 -2.67866 1.61916 0
M  V30 17609 C 1613.66 -3.79113 2.56977 0
M  V30 17610 N 1615.15 -3.86509 2.55275 0
M  V30 17611 C 1615.88 -4.72048 3.25513 0
M  V30 17612 N 1615.38 -5.61959 4.05184 0
M  V30 17613 N 1617.17 -4.65913 3.14454 0
M  V30 17614 H 1609.32 -0.992295 1.87796 0
M  V30 17615 H 1611.59 -0.497204 0.80715 0
M  V30 17616 H 1611.29 -2.32197 2.64155 0
M  V30 17617 H 1611.17 -3.51715 1.36294 0
M  V30 17618 H 1613.55 -2.89059 0.594067 0
M  V30 17619 H 1613.64 -1.70604 1.90598 0
M  V30 17620 H 1613.28 -3.58673 3.59605 0
M  V30 17621 H 1613.21 -4.75836 2.25583 0
M  V30 17622 H 1615.7 -3.22229 1.97425 0
M  V30 17623 H 1616.01 -6.24127 4.55725 0
M  V30 17624 H 1614.36 -5.61704 4.09285 0
M  V30 17625 H 1617.55 -3.94675 2.51693 0
M  V30 17626 H 1617.72 -5.32356 3.69461 0
M  V30 17627 N 1611.13 -0.710588 -1.40671 0
M  V30 17628 C 1612.54 -0.320926 -1.83921 0
M  V30 17629 C 1612.89 1.14358 -1.59426 0
M  V30 17630 O 1612.02 1.87952 -1.07252 0
M  V30 17631 C 1612.61 -0.5757 -3.33873 0
M  V30 17632 C 1611.17 -0.239799 -3.75635 0
M  V30 17633 C 1610.32 -0.850552 -2.63934 0
M  V30 17634 H 1613.27 -0.910118 -1.3001 0
M  V30 17635 H 1613.29 0.160707 -3.8016 0
M  V30 17636 H 1612.8 -1.64166 -3.51669 0
M  V30 17637 H 1610.9 0.821297 -3.63436 0
M  V30 17638 H 1611.02 -0.705306 -4.7388 0
M  V30 17639 H 1609.38 -0.278977 -2.53168 0
M  V30 17640 H 1610.16 -1.92068 -2.84543 0
M  V30 17641 N 1612.61 1.50847 -0.456408 0
M  V30 17642 C 1613.88 1.94907 0.164485 0
M  V30 17643 C 1614.26 1.39609 1.58343 0
M  V30 17644 O 1613.61 0.590971 2.20726 0
M  V30 17645 C 1613.82 3.48784 0.122794 0
M  V30 17646 C 1615.17 4.234 0.318964 0
M  V30 17647 O 1616.19 3.55638 0.20005 0
M  V30 17648 O 1615.05 5.43649 0.557507 0
M  V30 17649 H 1612.15 0.818298 0.119652 0
M  V30 17650 H 1614.69 1.61673 -0.515758 0
M  V30 17651 H 1613.47 3.81541 -0.868468 0
M  V30 17652 H 1613.09 3.88514 0.84513 0
M  V30 17653 N 1614.09 0.188454 1.56469 0
M  V30 17654 C 1615.33 -0.451165 1.97 0
M  V30 17655 C 1615.65 -1.6261 1.07624 0
M  V30 17656 O 1614.92 -1.95354 0.146125 0
M  V30 17657 H 1613.5 -0.16967 0.727476 0
M  V30 17658 H 1616.17 0.273638 1.9297 0
M  V30 17659 H 1615.26 -0.799741 3.0168 0
M  V30 17660 N 1615.56 -1.5737 -0.0851874 0
M  V30 17661 C 1616.8 -1.88417 -0.792354 0
M  V30 17662 C 1617.17 -0.78065 -1.75413 0
M  V30 17663 O 1618.37 -0.973819 -2.5054 0
M  V30 17664 C 1616.64 -3.24703 -1.4934 0
M  V30 17665 S 1618.2 -3.77468 -2.23748 0
M  V30 17666 H 1615.02 -0.66026 -0.263777 0
M  V30 17667 H 1617.62 -1.95439 -0.0490248 0
M  V30 17668 H 1616.32 -4.02931 -0.779426 0
M  V30 17669 H 1615.85 -3.20846 -2.27643 0
M  V30 17670 H 1617.87 -3.51679 -3.50052 0
M  V30 17671 N 1617.04 0.356258 -1.53521 0
M  V30 17672 C 1618.45 0.932569 -1.61741 0
M  V30 17673 C 1618.8 1.89965 -0.490677 0
M  V30 17674 O 1617.93 2.1301 0.381514 0
M  V30 17675 C 1618.52 1.69818 -2.93168 0
M  V30 17676 C 1617.08 2.22369 -3.03692 0
M  V30 17677 C 1616.23 1.03891 -2.57103 0
M  V30 17678 H 1619.18 0.134769 -1.58127 0
M  V30 17679 H 1619.2 2.56011 -2.81494 0
M  V30 17680 H 1618.71 0.994065 -3.75153 0
M  V30 17681 H 1616.81 2.95994 -2.26314 0
M  V30 17682 H 1616.93 2.49611 -4.08939 0
M  V30 17683 H 1615.29 1.40862 -2.12202 0
M  V30 17684 H 1616.07 0.349637 -3.41515 0
M  V30 17685 N 1618.52 1.45038 0.616577 0
M  V30 17686 C 1619.8 1.39059 1.37557 0
M  V30 17687 C 1620.18 0.0566307 2.11024 0
M  V30 17688 O 1619.52 -0.961203 2.073 0
M  V30 17689 C 1619.73 2.59841 2.32989 0
M  V30 17690 C 1621.08 3.04539 2.95874 0
M  V30 17691 O 1622.11 2.6015 2.43312 0
M  V30 17692 O 1620.97 3.81547 3.9126 0
M  V30 17693 H 1618.06 0.551396 0.616353 0
M  V30 17694 H 1620.61 1.57152 0.640416 0
M  V30 17695 H 1619.38 3.48521 1.779 0
M  V30 17696 H 1619 2.44036 3.13899 0
M  V30 17697 N 1620 -0.858287 1.32179 0
M  V30 17698 C 1620.91 -1.99894 1.228 0
M  V30 17699 C 1621.92 -1.73417 0.142323 0
M  V30 17700 O 1623.1 -1.98114 0.362321 0
M  V30 17701 C 1620.16 -3.33495 0.947745 0
M  V30 17702 C 1619.23 -3.73217 2.12149 0
M  V30 17703 C 1618.46 -5.00443 1.85452 0
M  V30 17704 O 1618.68 -5.64828 0.79531 0
M  V30 17705 O 1617.62 -5.3721 2.71457 0
M  V30 17706 H 1621.44 -2.10742 2.18682 0
M  V30 17707 H 1619.03 -0.988385 1.12033 0
M  V30 17708 H 1620.91 -4.13585 0.807791 0
M  V30 17709 H 1619.58 -3.23694 0.019053 0
M  V30 17710 H 1618.49 -2.93718 2.3169 0
M  V30 17711 H 1619.82 -3.87659 3.03285 0
M  V30 17712 N 1621.48 -1.1533 -1.07409 0
M  V30 17713 C 1622.72 -0.922348 -1.79376 0
M  V30 17714 C 1623.04 0.551929 -1.87652 0
M  V30 17715 O 1624.24 0.900444 -2.56133 0
M  V30 17716 C 1622.7 -1.60081 -3.22339 0
M  V30 17717 C 1622.31 -3.11206 -3.22265 0
M  V30 17718 C 1624.05 -1.45138 -3.98917 0
M  V30 17719 C 1621.96 -3.71842 -4.59878 0
M  V30 17720 H 1620.89 -0.341438 -0.672262 0
M  V30 17721 H 1623.54 -1.38336 -1.20562 0
M  V30 17722 H 1621.92 -1.06748 -3.81341 0
M  V30 17723 H 1623.1 -3.7129 -2.72911 0
M  V30 17724 H 1621.41 -3.25903 -2.59183 0
M  V30 17725 H 1624.01 -1.87832 -5.00623 0
M  V30 17726 H 1624.35 -0.398796 -4.14385 0
M  V30 17727 H 1624.88 -1.95564 -3.46409 0
M  V30 17728 H 1621.62 -4.76998 -4.49614 0
M  V30 17729 H 1621.14 -3.16541 -5.09472 0
M  V30 17730 H 1622.82 -3.72733 -5.28847 0
M  V30 17731 N 1622.95 1.25748 -0.950004 0
M  V30 17732 C 1624.18 1.97127 -0.618432 0
M  V30 17733 C 1624.59 1.70855 0.81272 0
M  V30 17734 O 1623.93 0.978581 1.55465 0
M  V30 17735 C 1624 3.50678 -0.791546 0
M  V30 17736 C 1623.66 4.00617 -2.19899 0
M  V30 17737 C 1624.66 4.11672 -3.17525 0
M  V30 17738 C 1622.34 4.34401 -2.52193 0
M  V30 17739 C 1624.34 4.55818 -4.45543 0
M  V30 17740 C 1622.02 4.78234 -3.80441 0
M  V30 17741 C 1623.02 4.88905 -4.76929 0
M  V30 17742 O 1622.71 5.31768 -6.02891 0
M  V30 17743 H 1622.44 0.635248 -0.231163 0
M  V30 17744 H 1625 1.60997 -1.2755 0
M  V30 17745 H 1623.23 3.86623 -0.0773298 0
M  V30 17746 H 1624.91 4.03265 -0.461719 0
M  V30 17747 H 1625.68 3.85807 -2.93901 0
M  V30 17748 H 1621.56 4.25324 -1.77821 0
M  V30 17749 H 1625.1 4.64062 -5.20857 0
M  V30 17750 H 1621 5.03543 -4.03874 0
M  V30 17751 H 1621.77 5.49966 -6.06201 0
M  V30 17752 N 1624.43 0.718038 1.40292 0
M  V30 17753 C 1625.36 0.0160994 2.28194 0
M  V30 17754 C 1626.34 -0.765159 1.43472 0
M  V30 17755 O 1627.53 -0.751283 1.72881 0
M  V30 17756 C 1624.65 -0.984558 3.24074 0
M  V30 17757 C 1623.7 -0.293817 4.25487 0
M  V30 17758 S 1624.53 0.980059 5.26455 0
M  V30 17759 C 1625.69 -0.0184326 6.25897 0
M  V30 17760 H 1625.92 0.761585 2.8738 0
M  V30 17761 H 1623.45 0.509158 1.45763 0
M  V30 17762 H 1625.41 -1.55667 3.7984 0
M  V30 17763 H 1624.07 -1.70276 2.63941 0
M  V30 17764 H 1623.27 -1.05037 4.92933 0
M  V30 17765 H 1622.87 0.205802 3.73433 0
M  V30 17766 H 1625.16 -0.864464 6.71962 0
M  V30 17767 H 1626.1 0.622712 7.05357 0
M  V30 17768 H 1626.51 -0.383254 5.63197 0
M  V30 17769 N 1625.91 -1.50602 0.464402 0
M  V30 17770 C 1627.16 -2.01478 -0.0945398 0
M  V30 17771 C 1627.47 -1.35165 -1.41386 0
M  V30 17772 O 1628.68 -1.7716 -2.05735 0
M  V30 17773 C 1627.13 -3.59233 -0.219003 0
M  V30 17774 C 1626.74 -4.345 1.09148 0
M  V30 17775 C 1628.49 -4.18172 -0.730262 0
M  V30 17776 C 1626.39 -5.84023 0.931179 0
M  V30 17777 H 1625.32 -0.752985 -0.0391065 0
M  V30 17778 H 1627.97 -1.73473 0.598283 0
M  V30 17779 H 1626.36 -3.83798 -0.975455 0
M  V30 17780 H 1627.53 -4.21665 1.85837 0
M  V30 17781 H 1625.85 -3.8714 1.53334 0
M  V30 17782 H 1628.44 -5.27622 -0.867119 0
M  V30 17783 H 1628.79 -3.79113 -1.71986 0
M  V30 17784 H 1629.32 -3.97788 -0.0313808 0
M  V30 17785 H 1626.06 -6.27543 1.89395 0
M  V30 17786 H 1625.58 -5.99451 0.20456 0
M  V30 17787 H 1627.26 -6.44257 0.595118 0
M  V30 17788 N 1627.39 -0.19675 -1.56367 0
M  V30 17789 C 1628.32 0.762808 -2.15073 0
M  V30 17790 C 1629.3 1.20843 -1.08792 0
M  V30 17791 O 1630.48 1.29565 -1.36913 0
M  V30 17792 C 1627.61 2.03039 -2.71096 0
M  V30 17793 C 1626.66 1.72675 -3.89981 0
M  V30 17794 S 1627.49 0.873403 -5.28329 0
M  V30 17795 C 1628.65 2.15109 -5.87775 0
M  V30 17796 H 1628.88 0.263751 -2.96128 0
M  V30 17797 H 1626.41 0.0182687 -1.54389 0
M  V30 17798 H 1628.37 2.75834 -3.04017 0
M  V30 17799 H 1627.03 2.50057 -1.9008 0
M  V30 17800 H 1626.22 2.66792 -4.27596 0
M  V30 17801 H 1625.83 1.07961 -3.58079 0
M  V30 17802 H 1628.12 3.10348 -6.02238 0
M  V30 17803 H 1629.06 1.81924 -6.84331 0
M  V30 17804 H 1629.47 2.28031 -5.16394 0
M  V30 17805 N 1628.87 1.57413 0.0768405 0
M  V30 17806 C 1630.09 1.91224 0.790007 0
M  V30 17807 C 1630.51 0.792232 1.71374 0
M  V30 17808 O 1629.87 -0.234736 1.80984 0
M  V30 17809 C 1629.92 3.24757 1.58793 0
M  V30 17810 O 1629.64 4.3245 0.701329 0
M  V30 17811 C 1631.14 3.72549 2.40254 0
M  V30 17812 H 1628.36 0.63219 0.224893 0
M  V30 17813 H 1630.9 2.04442 0.0486173 0
M  V30 17814 H 1629.06 3.13081 2.28165 0
M  V30 17815 H 1629.47 5.09245 1.2558 0
M  V30 17816 H 1630.95 4.68628 2.91705 0
M  V30 17817 H 1631.42 3.01305 3.1955 0
M  V30 17818 H 1632.03 3.87153 1.76048 0
M  V30 17819 N 1630.34 -0.348112 1.53707 0
M  V30 17820 C 1631.25 -1.45079 1.84361 0
M  V30 17821 C 1632.27 -1.5779 0.733375 0
M  V30 17822 O 1633.45 -1.73353 1.02522 0
M  V30 17823 C 1630.51 -2.80127 2.04278 0
M  V30 17824 C 1629.57 -2.76799 3.28148 0
M  V30 17825 C 1628.81 -4.05406 3.47105 0
M  V30 17826 O 1629.03 -5.02454 2.69992 0
M  V30 17827 O 1627.96 -4.10155 4.40519 0
M  V30 17828 H 1631.79 -1.22093 2.78077 0
M  V30 17829 H 1629.37 -0.539863 1.39305 0
M  V30 17830 H 1631.26 -3.60115 2.18849 0
M  V30 17831 H 1629.93 -3.03055 1.13751 0
M  V30 17832 H 1628.84 -1.95448 3.18984 0
M  V30 17833 H 1630.17 -2.58826 4.18653 0
M  V30 17834 N 1631.82 -1.45363 -0.608876 0
M  V30 17835 C 1633.06 -1.50852 -1.37925 0
M  V30 17836 C 1633.43 -0.146034 -1.91444 0
M  V30 17837 O 1634.63 -0.0756115 -2.68694 0
M  V30 17838 C 1632.9 -2.55668 -2.49737 0
M  V30 17839 S 1634.46 -2.80371 -3.37546 0
M  V30 17840 H 1631.28 -0.533283 -0.470244 0
M  V30 17841 H 1633.88 -1.82435 -0.702697 0
M  V30 17842 H 1632.58 -3.53334 -2.08767 0
M  V30 17843 H 1632.11 -2.25731 -3.22194 0
M  V30 17844 H 1634.13 -2.13653 -4.47847 0
M  V30 17845 N 1633.3 0.851265 -1.32632 0
M  V30 17846 C 1634.55 1.60785 -1.24578 0
M  V30 17847 C 1634.9 1.91462 0.189803 0
M  V30 17848 O 1634.19 1.54839 1.12851 0
M  V30 17849 C 1634.39 2.93312 -2.04212 0
M  V30 17850 C 1634.22 2.75579 -3.55368 0
M  V30 17851 C 1632.99 2.73784 -4.247 0
M  V30 17852 C 1635.19 2.49095 -4.49951 0
M  V30 17853 N 1633.17 2.47298 -5.61887 0
M  V30 17854 C 1634.54 2.32046 -5.74939 0
M  V30 17855 C 1636.59 2.34591 -4.39171 0
M  V30 17856 C 1635.3 2.01965 -6.90364 0
M  V30 17857 C 1637.32 2.05902 -5.54399 0
M  V30 17858 C 1636.68 1.89655 -6.78388 0
M  V30 17859 H 1632.78 0.591922 -0.511031 0
M  V30 17860 H 1635.37 1.00037 -1.67035 0
M  V30 17861 H 1633.54 3.52033 -1.64095 0
M  V30 17862 H 1635.27 3.58369 -1.88026 0
M  V30 17863 H 1632.03 2.86845 -3.76851 0
M  V30 17864 H 1632.45 2.36973 -6.34171 0
M  V30 17865 H 1637.09 2.45871 -3.43959 0
M  V30 17866 H 1634.81 1.89423 -7.85585 0
M  V30 17867 H 1638.4 1.95452 -5.47987 0
M  V30 17868 H 1637.28 1.67772 -7.66043 0
M  V30 17869 N 1634.78 1.15898 1.06796 0
M  V30 17870 C 1635.73 0.856808 2.16244 0
M  V30 17871 C 1636.72 -0.172075 1.68524 0
M  V30 17872 O 1637.93 -0.0265569 1.7998 0
M  V30 17873 H 1634.3 0.259445 0.705827 0
M  V30 17874 H 1636.27 1.7874 2.38945 0
M  V30 17875 C 1635.02 0.368721 3.45739 0
M  V30 17876 H 1634.34 1.15184 3.82848 0
M  V30 17877 H 1635.78 0.196012 4.23547 0
M  V30 17878 C 1634.24 -0.910802 3.24355 0
M  V30 17879 O 1634.77 -1.98115 3.49447 0
M  V30 17880 N 1632.98 -0.852545 2.77813 0
M  V30 17881 H 1632.53 0.0186646 2.57593 0
M  V30 17882 H 1632.48 -1.70917 2.63884 0
M  V30 17883 N 1636.26 -1.25243 0.956659 0
M  V30 17884 C 1637.2 -2.2781 0.46963 0
M  V30 17885 C 1638.2 -1.63003 -0.461138 0
M  V30 17886 O 1639.4 -1.76805 -0.337644 0
M  V30 17887 H 1635.78 -0.740078 0.133374 0
M  V30 17888 H 1637.75 -2.66273 1.34689 0
M  V30 17889 C 1636.5 -3.46904 -0.235206 0
M  V30 17890 H 1635.82 -3.97006 0.471869 0
M  V30 17891 H 1637.26 -4.20548 -0.539969 0
M  V30 17892 C 1635.72 -3.03697 -1.45841 0
M  V30 17893 O 1636.25 -3.09887 -2.55603 0
M  V30 17894 N 1634.46 -2.58866 -1.32049 0
M  V30 17895 H 1634 -2.54029 -0.427428 0
M  V30 17896 H 1633.96 -2.30322 -2.14008 0
M  V30 17897 N 1637.73 -0.725468 -1.3991 0
M  V30 17898 C 1638.68 -0.0682776 -2.325 0
M  V30 17899 C 1639.68 0.736285 -1.52562 0
M  V30 17900 O 1640.88 0.638542 -1.68293 0
M  V30 17901 H 1637.26 -0.00327742 -0.751993 0
M  V30 17902 H 1639.23 -0.865735 -2.85565 0
M  V30 17903 C 1637.98 0.832036 -3.37598 0
M  V30 17904 H 1637.3 0.222341 -3.99181 0
M  V30 17905 H 1638.74 1.25965 -4.04856 0
M  V30 17906 C 1637.2 1.96201 -2.73874 0
M  V30 17907 O 1637.73 3.05378 -2.60974 0
M  V30 17908 N 1635.94 1.74857 -2.32106 0
M  V30 17909 H 1635.48 0.860621 -2.42798 0
M  V30 17910 H 1635.44 2.50639 -1.89808 0
M  V30 17911 N 1639.21 1.50354 -0.472382 0
M  V30 17912 C 1640.46 2.02633 0.0822846 0
M  V30 17913 C 1640.79 1.35358 1.39254 0
M  V30 17914 O 1640.07 0.479714 1.88491 0
M  V30 17915 C 1640.35 3.59126 0.264742 0
M  V30 17916 C 1640.2 4.3697 -1.06663 0
M  V30 17917 C 1641.52 4.28148 1.01869 0
M  V30 17918 H 1638.64 0.736451 0.0284304 0
M  V30 17919 H 1641.28 1.79661 -0.618224 0
M  V30 17920 H 1639.43 3.7883 0.86141 0
M  V30 17921 H 1641.1 4.28834 -1.69997 0
M  V30 17922 H 1639.35 4.0066 -1.66295 0
M  V30 17923 H 1640.02 5.44736 -0.892592 0
M  V30 17924 H 1642.49 4.12926 0.512931 0
M  V30 17925 H 1641.37 5.37453 1.11515 0
M  V30 17926 H 1641.63 3.91406 2.05557 0
M  V30 17927 N 1640.69 0.205039 1.56261 0
M  V30 17928 C 1641.64 -0.728433 2.209 0
M  V30 17929 C 1642.63 -1.21228 1.18322 0
M  V30 17930 O 1643.84 -1.17402 1.36443 0
M  V30 17931 H 1640.21 -0.253283 0.708062 0
M  V30 17932 H 1642.19 -0.159654 2.97973 0
M  V30 17933 C 1640.93 -1.93311 2.89009 0
M  V30 17934 H 1640.26 -1.56988 3.67688 0
M  V30 17935 H 1641.7 -2.5644 3.3766 0
M  V30 17936 C 1640.16 -2.77814 1.9058 0
M  V30 17937 O 1640.69 -3.76053 1.41233 0
M  V30 17938 N 1638.89 -2.4351 1.58591 0
M  V30 17939 H 1638.44 -1.6368 1.98914 0
M  V30 17940 H 1638.4 -3.00333 0.929918 0
M  V30 17941 N 1642.17 -1.57451 -0.0684915 0
M  V30 17942 C 1643.1 -2.00648 -1.10783 0
M  V30 17943 C 1644.11 -0.912944 -1.34793 0
M  V30 17944 O 1645.3 -1.19079 -1.32975 0
M  V30 17945 C 1642.4 -2.33309 -2.45805 0
M  V30 17946 C 1641.58 -3.64551 -2.41704 0
M  V30 17947 C 1640.64 -3.84845 -3.5886 0
M  V30 17948 O 1639.66 -4.56392 -3.40139 0
M  V30 17949 N 1640.86 -3.27451 -4.79329 0
M  V30 17950 H 1643.63 -2.90422 -0.739938 0
M  V30 17951 H 1641.19 -1.59846 -0.257093 0
M  V30 17952 H 1643.18 -2.44056 -3.22829 0
M  V30 17953 H 1641.75 -1.49408 -2.74583 0
M  V30 17954 H 1640.97 -3.64528 -1.50043 0
M  V30 17955 H 1642.26 -4.50721 -2.36068 0
M  V30 17956 H 1641.66 -2.69384 -4.97442 0
M  V30 17957 H 1640.21 -3.43641 -5.53854 0
M  V30 17958 N 1643.65 0.339955 -1.5389 0
M  V30 17959 C 1645.06 0.683287 -1.44234 0
M  V30 17960 C 1645.26 1.92298 -0.601976 0
M  V30 17961 O 1644.32 2.52324 -0.0943623 0
M  V30 17962 C 1645.63 0.872576 -2.87761 0
M  V30 17963 C 1647.18 0.970965 -2.97559 0
M  V30 17964 C 1647.66 1.19254 -4.42202 0
M  V30 17965 N 1649.15 1.25966 -4.45743 0
M  V30 17966 C 1649.88 1.44869 -5.54798 0
M  V30 17967 N 1649.38 1.6092 -6.73852 0
M  V30 17968 N 1651.17 1.47445 -5.42417 0
M  V30 17969 H 1643.32 -0.475086 -2.07019 0
M  V30 17970 H 1645.58 -0.150644 -0.935954 0
M  V30 17971 H 1645.29 0.033117 -3.51684 0
M  V30 17972 H 1645.16 1.77326 -3.32919 0
M  V30 17973 H 1647.55 1.80094 -2.33774 0
M  V30 17974 H 1647.63 0.0471065 -2.55757 0
M  V30 17975 H 1647.28 0.367482 -5.06569 0
M  V30 17976 H 1647.21 2.13002 -4.81599 0
M  V30 17977 H 1649.7 1.15072 -3.59954 0
M  V30 17978 H 1650.01 1.74989 -7.52727 0
M  V30 17979 H 1648.36 1.58049 -6.7679 0
M  V30 17980 H 1651.55 1.34489 -4.48364 0
M  V30 17981 H 1651.72 1.61834 -6.27466 0
M  V30 17982 N 1645.13 1.45684 0.601159 0
M  V30 17983 C 1646.54 1.44423 1.18317 0
M  V30 17984 C 1646.89 0.17524 1.95416 0
M  V30 17985 O 1646.01 -0.722816 2.03971 0
M  V30 17986 C 1646.61 2.61651 2.1523 0
M  V30 17987 C 1645.17 2.6349 2.68793 0
M  V30 17988 C 1644.31 2.36787 1.44317 0
M  V30 17989 H 1647.26 1.53831 0.390108 0
M  V30 17990 H 1647.29 2.36117 2.98377 0
M  V30 17991 H 1646.8 3.53995 1.59088 0
M  V30 17992 H 1644.9 1.7517 3.28856 0
M  V30 17993 H 1645.01 3.62906 3.12787 0
M  V30 17994 H 1643.38 1.86472 1.73494 0
M  V30 17995 H 1644.16 3.31284 0.900327 0
M  V30 17996 N 1646.6 -0.84422 1.33082 0
M  V30 17997 C 1647.83 -1.63654 1.27405 0
M  V30 17998 C 1648.25 -1.87476 -0.153146 0
M  V30 17999 O 1647.61 -1.43502 -1.10801 0
M  V30 18000 C 1647.66 -2.96698 2.04945 0
M  V30 18001 O 1646.76 -3.87751 1.40439 0
M  V30 18002 H 1646.1 -0.498545 0.438576 0
M  V30 18003 H 1648.63 -1.0507 1.7556 0
M  V30 18004 H 1648.64 -3.46438 2.1551 0
M  V30 18005 H 1647.32 -2.78682 3.08722 0
M  V30 18006 H 1645.9 -3.46231 1.38487 0
M  V30 18007 N 1648.08 -1.16463 -1.0618 0
M  V30 18008 C 1649.33 -0.946846 -1.79 0
M  V30 18009 C 1649.66 0.525259 -1.87273 0
M  V30 18010 O 1648.91 1.40584 -1.36142 0
M  V30 18011 C 1649.21 -1.52085 -3.23427 0
M  V30 18012 C 1648.88 -3.01547 -3.35232 0
M  V30 18013 C 1647.54 -3.42346 -3.38161 0
M  V30 18014 C 1649.89 -3.97543 -3.37059 0
M  V30 18015 C 1647.22 -4.77759 -3.40534 0
M  V30 18016 C 1649.57 -5.32843 -3.4097 0
M  V30 18017 C 1648.23 -5.73121 -3.42182 0
M  V30 18018 H 1647.5 -0.346475 -0.655008 0
M  V30 18019 H 1650.15 -1.45195 -1.24862 0
M  V30 18020 H 1648.46 -0.937212 -3.80426 0
M  V30 18021 H 1650.15 -1.32801 -3.78371 0
M  V30 18022 H 1646.74 -2.69017 -3.33658 0
M  V30 18023 H 1650.93 -3.67088 -3.34006 0
M  V30 18024 H 1646.18 -5.08293 -3.39777 0
M  V30 18025 H 1650.36 -6.07014 -3.41332 0
M  V30 18026 H 1647.98 -6.78029 -3.43774 0
M  V30 18027 N 1649.56 1.24734 -0.963288 0
M  V30 18028 C 1650.98 1.44897 -0.669103 0
M  V30 18029 C 1651.18 1.86185 0.770541 0
M  V30 18030 O 1650.23 1.99721 1.54492 0
M  V30 18031 C 1651.54 2.51425 -1.64943 0
M  V30 18032 C 1653.09 2.65256 -1.66157 0
M  V30 18033 C 1653.57 3.74977 -2.62976 0
M  V30 18034 N 1655.06 3.82399 -2.61391 0
M  V30 18035 C 1655.79 4.66809 -3.32981 0
M  V30 18036 N 1655.29 5.55441 -4.14073 0
M  V30 18037 N 1657.08 4.60851 -3.21827 0
M  V30 18038 H 1649.23 0.962292 -1.89351 0
M  V30 18039 H 1651.5 0.4843 -0.814958 0
M  V30 18040 H 1651.2 2.27965 -2.67815 0
M  V30 18041 H 1651.08 3.49503 -1.41872 0
M  V30 18042 H 1653.46 2.88077 -0.639978 0
M  V30 18043 H 1653.54 1.67551 -1.93288 0
M  V30 18044 H 1653.19 3.52907 -3.65266 0
M  V30 18045 H 1653.12 4.72187 -2.33125 0
M  V30 18046 H 1655.61 3.19048 -2.02527 0
M  V30 18047 H 1655.92 6.16798 -4.65597 0
M  V30 18048 H 1654.27 5.55121 -4.18169 0
M  V30 18049 H 1657.46 3.90621 -2.5794 0
M  V30 18050 H 1657.63 5.26411 -3.77883 0
M  V30 18051 N 1651.04 0.732878 1.39523 0
M  V30 18052 C 1652.31 0.20629 1.94509 0
M  V30 18053 C 1652.69 -1.29152 1.66982 0
M  V30 18054 O 1652.04 -2.05607 0.996895 0
M  V30 18055 C 1652.25 0.537619 3.44834 0
M  V30 18056 C 1653.6 0.485787 4.21812 0
M  V30 18057 O 1654.62 0.474686 3.53023 0
M  V30 18058 O 1653.48 0.478457 5.44402 0
M  V30 18059 H 1650.58 0.0369228 0.826175 0
M  V30 18060 H 1653.12 0.811591 1.49035 0
M  V30 18061 H 1651.9 1.57289 3.58296 0
M  V30 18062 H 1651.52 -0.0967601 3.97482 0
M  V30 18063 N 1652.52 -1.50101 0.480349 0
M  V30 18064 C 1653.45 -2.31581 -0.298718 0
M  V30 18065 C 1654.43 -1.38905 -0.981798 0
M  V30 18066 O 1655.61 -1.67823 -0.977188 0
M  V30 18067 C 1652.74 -3.18891 -1.37571 0
M  V30 18068 C 1651.7 -4.20194 -0.813704 0
M  V30 18069 C 1651.02 -4.96302 -1.98968 0
M  V30 18070 C 1652.32 -5.21985 0.181295 0
M  V30 18071 H 1654.02 -2.96961 0.381349 0
M  V30 18072 H 1651.56 -1.42809 0.184842 0
M  V30 18073 H 1653.51 -3.74694 -1.92828 0
M  V30 18074 H 1652.24 -2.51414 -2.08467 0
M  V30 18075 H 1650.9 -3.65506 -0.283034 0
M  V30 18076 H 1650.55 -4.2529 -2.68584 0
M  V30 18077 H 1650.25 -5.64833 -1.61981 0
M  V30 18078 H 1651.77 -5.54943 -2.54698 0
M  V30 18079 H 1653.18 -5.72604 -0.28242 0
M  V30 18080 H 1651.58 -5.98289 0.465916 0
M  V30 18081 H 1652.65 -4.72162 1.10413 0
M  V30 18082 N 1653.99 -0.213323 -1.5615 0
M  V30 18083 C 1654.96 0.686579 -2.18675 0
M  V30 18084 C 1655.96 1.1277 -1.14628 0
M  V30 18085 O 1657.15 1.03783 -1.39909 0
M  V30 18086 C 1654.28 1.93954 -2.80347 0
M  V30 18087 H 1655.47 0.141578 -2.99566 0
M  V30 18088 H 1653.02 0.0362987 -1.56258 0
M  V30 18089 H 1653.76 2.52661 -2.03304 0
M  V30 18090 H 1653.54 1.63179 -3.56532 0
M  V30 18091 H 1655.03 2.58087 -3.283 0
M  V30 18092 N 1655.47 1.57485 0.0601405 0
M  V30 18093 C 1656.4 2.07525 1.07031 0
M  V30 18094 C 1657.38 0.971136 1.39653 0
M  V30 18095 O 1658.57 1.24456 1.49078 0
M  V30 18096 C 1655.7 2.52888 2.38044 0
M  V30 18097 C 1654.65 3.67282 2.19745 0
M  V30 18098 C 1653.98 3.98741 3.56244 0
M  V30 18099 C 1655.28 4.96896 1.60908 0
M  V30 18100 H 1656.97 2.92173 0.653875 0
M  V30 18101 H 1654.52 1.40555 0.313083 0
M  V30 18102 H 1656.47 2.8651 3.09014 0
M  V30 18103 H 1655.2 1.65284 2.81689 0
M  V30 18104 H 1653.85 3.33961 1.51213 0
M  V30 18105 H 1653.5 3.08249 3.97481 0
M  V30 18106 H 1653.2 4.75775 3.44836 0
M  V30 18107 H 1654.73 4.34869 4.28627 0
M  V30 18108 H 1656.14 5.28674 2.21758 0
M  V30 18109 H 1654.54 5.78332 1.60164 0
M  V30 18110 H 1655.61 4.81518 0.571671 0
M  V30 18111 N 1656.95 -0.331789 1.54068 0
M  V30 18112 C 1658.37 -0.675628 1.44594 0
M  V30 18113 C 1658.57 -1.91976 0.612166 0
M  V30 18114 O 1657.62 -2.5227 0.107742 0
M  V30 18115 C 1658.94 -0.857303 2.8822 0
M  V30 18116 C 1660.48 -0.955171 2.9807 0
M  V30 18117 C 1660.96 -1.16908 4.42828 0
M  V30 18118 N 1662.45 -1.23601 4.46405 0
M  V30 18119 C 1663.18 -1.41924 5.55558 0
M  V30 18120 N 1662.68 -1.57345 6.74696 0
M  V30 18121 N 1664.47 -1.44566 5.43191 0
M  V30 18122 H 1656.62 0.486058 2.06764 0
M  V30 18123 H 1658.89 0.155605 0.935142 0
M  V30 18124 H 1658.59 -0.0144659 3.51697 0
M  V30 18125 H 1658.47 -1.75558 3.33855 0
M  V30 18126 H 1660.85 -1.78852 2.34725 0
M  V30 18127 H 1660.94 -0.0335425 2.55778 0
M  V30 18128 H 1660.58 -0.340612 5.06757 0
M  V30 18129 H 1660.51 -2.10445 4.82722 0
M  V30 18130 H 1663 -1.13161 3.60559 0
M  V30 18131 H 1663.31 -1.70995 7.53645 0
M  V30 18132 H 1661.66 -1.54458 6.77619 0
M  V30 18133 H 1664.85 -1.3211 4.49071 0
M  V30 18134 H 1665.02 -1.58505 6.28315 0
M  V30 18135 N 1658.43 -1.46001 -0.593424 0
M  V30 18136 C 1659.67 -1.50978 -1.35401 0
M  V30 18137 C 1660.01 -0.156626 -1.93567 0
M  V30 18138 O 1659.28 0.83067 -1.7587 0
M  V30 18139 C 1659.57 -2.60005 -2.49137 0
M  V30 18140 C 1659.42 -4.04814 -1.96075 0
M  V30 18141 C 1660.74 -2.65199 -3.51223 0
M  V30 18142 H 1657.86 -0.549657 -0.490965 0
M  V30 18143 H 1660.5 -1.77883 -0.667644 0
M  V30 18144 H 1658.65 -2.37194 -3.07687 0
M  V30 18145 H 1660.32 -4.38879 -1.42066 0
M  V30 18146 H 1658.56 -4.148 -1.26976 0
M  V30 18147 H 1659.23 -4.76811 -2.78128 0
M  V30 18148 H 1661.71 -2.85675 -3.02537 0
M  V30 18149 H 1660.59 -3.43323 -4.28276 0
M  V30 18150 H 1660.85 -1.70833 -4.0776 0
M  V30 18151 N 1659.91 0.83715 -1.33527 0
M  V30 18152 C 1661.18 1.57727 -1.15678 0
M  V30 18153 C 1661.56 2.09286 0.276178 0
M  V30 18154 O 1660.91 1.89589 1.27547 0
M  V30 18155 C 1661.12 2.70978 -2.19936 0
M  V30 18156 C 1662.47 3.40114 -2.5418 0
M  V30 18157 O 1663.49 2.81221 -2.18616 0
M  V30 18158 O 1662.35 4.46431 -3.15217 0
M  V30 18159 H 1659.45 0.69545 -0.447525 0
M  V30 18160 H 1661.99 0.879756 -1.45115 0
M  V30 18161 H 1660.76 2.30532 -3.16181 0
M  V30 18162 H 1660.39 3.48393 -1.91594 0
M  V30 18163 N 1661.38 1.17024 1.05561 0
M  V30 18164 C 1662.32 0.841314 2.13201 0
M  V30 18165 C 1663.33 -0.154667 1.62064 0
M  V30 18166 O 1664.52 0.0711173 1.78358 0
M  V30 18167 C 1661.62 0.233156 3.38097 0
M  V30 18168 C 1660.79 1.27108 4.18524 0
M  V30 18169 C 1659.85 0.681364 5.2177 0
M  V30 18170 O 1658.88 1.35219 5.52906 0
M  V30 18171 N 1660.08 -0.528381 5.7809 0
M  V30 18172 H 1662.84 1.76773 2.42015 0
M  V30 18173 H 1660.4 1.06858 1.21626 0
M  V30 18174 H 1662.4 -0.174565 4.04323 0
M  V30 18175 H 1660.97 -0.596965 3.06847 0
M  V30 18176 H 1660.19 1.85469 3.47843 0
M  V30 18177 H 1661.47 1.97129 4.6906 0
M  V30 18178 H 1660.87 -1.09141 5.55072 0
M  V30 18179 H 1659.43 -0.878214 6.45857 0
M  V30 18180 N 1662.86 -1.24221 0.969889 0
M  V30 18181 C 1664.11 -1.91656 0.628559 0
M  V30 18182 C 1664.42 -1.76627 -0.840371 0
M  V30 18183 O 1665.63 -2.38771 -1.29232 0
M  V30 18184 C 1664.09 -3.43515 1.07357 0
M  V30 18185 C 1663.69 -3.67226 2.56611 0
M  V30 18186 C 1665.44 -4.16788 0.805493 0
M  V30 18187 C 1663.35 -5.12667 2.94834 0
M  V30 18188 H 1662.28 -0.717619 0.231384 0
M  V30 18189 H 1664.93 -1.40831 1.17639 0
M  V30 18190 H 1663.31 -3.93388 0.454037 0
M  V30 18191 H 1664.48 -3.27942 3.23713 0
M  V30 18192 H 1662.8 -3.07243 2.81053 0
M  V30 18193 H 1665.39 -5.23945 1.06705 0
M  V30 18194 H 1665.74 -4.15498 -0.258321 0
M  V30 18195 H 1666.27 -3.7287 1.3861 0
M  V30 18196 H 1663.01 -5.1908 4.00295 0
M  V30 18197 H 1662.53 -5.5294 2.32417 0
M  V30 18198 H 1664.21 -5.80916 2.8486 0
M  V30 18199 N 1664.34 -0.740267 -1.39132 0
M  V30 18200 C 1665.76 -0.416412 -1.54072 0
M  V30 18201 C 1665.96 1.07211 -1.70611 0
M  V30 18202 O 1665.01 1.85822 -1.70958 0
M  V30 18203 C 1666.33 -1.20403 -2.75542 0
M  V30 18204 C 1667.87 -1.19278 -2.89382 0
M  V30 18205 C 1668.35 -1.96308 -4.13796 0
M  V30 18206 N 1669.84 -1.93501 -4.20846 0
M  V30 18207 C 1670.57 -2.49907 -5.16075 0
M  V30 18208 N 1670.07 -3.14973 -6.17061 0
M  V30 18209 N 1671.86 -2.39911 -5.0833 0
M  V30 18210 H 1664.01 -1.70513 -1.26645 0
M  V30 18211 H 1666.28 -0.722111 -0.614214 0
M  V30 18212 H 1665.98 -2.25754 -2.69681 0
M  V30 18213 H 1665.86 -0.811986 -3.68357 0
M  V30 18214 H 1668.24 -0.147385 -2.94732 0
M  V30 18215 H 1668.33 -1.62424 -1.97616 0
M  V30 18216 H 1667.97 -3.00851 -4.09208 0
M  V30 18217 H 1667.9 -1.50565 -5.04617 0
M  V30 18218 H 1670.39 -1.46104 -3.48514 0
M  V30 18219 H 1670.7 -3.55467 -6.86195 0
M  V30 18220 H 1669.05 -3.19064 -6.17433 0
M  V30 18221 H 1672.24 -1.88718 -4.28373 0
M  V30 18222 H 1672.41 -2.84169 -5.82368 0
M  V30 18223 N 1665.82 1.49844 -0.488302 0
M  V30 18224 C 1667.1 1.95212 0.123105 0
M  V30 18225 C 1667.48 1.42936 1.55346 0
M  V30 18226 O 1666.82 0.637657 2.19422 0
M  V30 18227 C 1667.03 3.48966 0.0487846 0
M  V30 18228 C 1668.38 4.23982 0.229083 0
M  V30 18229 O 1669.41 3.55982 0.124569 0
M  V30 18230 O 1668.26 5.44709 0.442066 0
M  V30 18231 H 1665.36 0.820652 0.102268 0
M  V30 18232 H 1667.9 1.60542 -0.549935 0
M  V30 18233 H 1666.68 3.79613 -0.949203 0
M  V30 18234 H 1666.3 3.90219 0.76253 0
M  V30 18235 N 1667.3 0.221601 1.56034 0
M  V30 18236 C 1668.24 -0.704963 2.2166 0
M  V30 18237 C 1669.24 -1.19966 1.19601 0
M  V30 18238 O 1670.44 -1.15949 1.37681 0
M  V30 18239 H 1666.82 -0.245758 0.710709 0
M  V30 18240 H 1668.79 -0.128041 2.98125 0
M  V30 18241 C 1667.54 -1.90234 2.91043 0
M  V30 18242 H 1666.86 -1.53079 3.69333 0
M  V30 18243 H 1668.3 -2.52844 3.40361 0
M  V30 18244 C 1666.76 -2.75777 1.93516 0
M  V30 18245 O 1667.29 -3.74534 1.45214 0
M  V30 18246 N 1665.5 -2.41815 1.61165 0
M  V30 18247 H 1665.04 -1.61561 2.00639 0
M  V30 18248 H 1665 -2.9933 0.96172 0
M  V30 18249 N 1668.77 -1.57515 -0.0517878 0
M  V30 18250 C 1669.71 -2.00388 -1.09178 0
M  V30 18251 C 1670.69 -0.88418 -1.36459 0
M  V30 18252 O 1671.87 -1.14816 -1.49498 0
M  V30 18253 C 1669 -2.35764 -2.43173 0
M  V30 18254 C 1668.04 -3.57947 -2.31898 0
M  V30 18255 S 1668.88 -5.08 -1.69399 0
M  V30 18256 C 1670.03 -5.46597 -3.04931 0
M  V30 18257 H 1670.26 -2.88287 -0.726501 0
M  V30 18258 H 1667.8 -1.52178 -0.261014 0
M  V30 18259 H 1669.76 -2.56818 -3.20241 0
M  V30 18260 H 1668.42 -1.48358 -2.76855 0
M  V30 18261 H 1667.61 -3.80281 -3.30761 0
M  V30 18262 H 1667.21 -3.36626 -1.62969 0
M  V30 18263 H 1669.5 -5.45891 -4.01259 0
M  V30 18264 H 1670.45 -6.47173 -2.87355 0
M  V30 18265 H 1670.85 -4.74072 -3.06457 0
M  V30 18266 N 1670.25 0.323614 -1.54242 0
M  V30 18267 C 1671.22 1.38126 -1.82904 0
M  V30 18268 C 1672.22 1.44723 -0.700853 0
M  V30 18269 O 1673.41 1.44751 -0.969161 0
M  V30 18270 C 1670.54 2.76858 -1.98903 0
M  V30 18271 H 1671.73 1.13966 -2.77402 0
M  V30 18272 H 1669.28 0.559094 -1.45958 0
M  V30 18273 H 1670.02 3.06274 -1.06616 0
M  V30 18274 H 1669.8 2.73464 -2.80998 0
M  V30 18275 H 1671.29 3.53372 -2.22526 0
M  V30 18276 N 1671.73 1.46313 0.585673 0
M  V30 18277 C 1672.98 1.51171 1.34134 0
M  V30 18278 C 1673.3 0.163691 1.94312 0
M  V30 18279 O 1672.57 -0.809444 1.78395 0
M  V30 18280 H 1671.15 0.556768 0.498014 0
M  V30 18281 H 1673.81 1.82423 0.686133 0
M  V30 18282 H 1672.91 2.26274 2.14957 0
M  V30 18283 O 1673.25 -0.729909 1.44064 0
M  V30 18284 H 1673.94 -1.37998 1.35927 0
M  V30 END ATOM
M  V30 BEGIN BOND
M  V30 END BOND
M  V30 END CTAB
M  END
$$$$
