drugbank_target|P06729 T-cell surface antigen CD2 (DB00092; DB06371)
 OpenBabel12092119383D

  0  0  0     0  0            999 V3000
M  V30 BEGIN CTAB
M  V30 COUNTS 5607 5676 0 0 0
M  V30 BEGIN ATOM
M  V30 1 H -0.908 1.98254 -0.117106 0
M  V30 2 N 0 1.576 0 0
M  V30 3 C 0.933 2.03868 1.02534 0
M  V30 4 C 1.911 0.928543 1.3348 0
M  V30 5 O 3.095 1.19667 1.45644 0
M  V30 6 C 0.222 2.43627 2.35294 0
M  V30 7 C -0.732 3.65373 2.2001 0
M  V30 8 S 0.101 5.13292 1.52614 0
M  V30 9 C 1.257 5.56322 2.86805 0
M  V30 10 H 1.49 2.90518 0.631377 0
M  V30 11 H -0.977 1.52953 0.210867 0
M  V30 12 H 0.981 2.67203 3.11629 0
M  V30 13 H -0.358 1.57376 2.7183 0
M  V30 14 H -1.165 3.90944 3.18086 0
M  V30 15 H -1.563 3.418 1.51819 0
M  V30 16 H 0.729 5.58782 3.83104 0
M  V30 17 H 1.672 6.56266 2.65933 0
M  V30 18 H 2.08 4.83886 2.90714 0
M  V30 19 N 1.4781 -0.272755 1.55222 0
M  V30 20 C 2.7031 -1.02683 1.80197 0
M  V30 21 C 3.1281 -1.79142 0.573551 0
M  V30 22 O 2.4861 -1.74917 -0.476849 0
M  V30 23 C 2.5341 -1.9609 3.02624 0
M  V30 24 O 1.6381 -3.04863 2.77727 0
M  V30 25 H 0.9791 -0.293557 0.595584 0
M  V30 26 H 3.5091 -0.30159 2.02365 0
M  V30 27 H 3.5191 -2.38039 3.31363 0
M  V30 28 H 2.1941 -1.39851 3.91682 0
M  V30 29 H 0.7711 -2.67228 2.60084 0
M  V30 30 N 2.9562 -1.48159 -0.537278 0
M  V30 31 C 4.2032 -1.55804 -1.29349 0
M  V30 32 C 4.5312 -0.228802 -1.9315 0
M  V30 33 O 3.7862 0.780242 -1.79473 0
M  V30 34 C 4.0852 -2.63956 -2.40961 0
M  V30 35 C 3.7512 -4.0662 -1.94861 0
M  V30 36 C 2.4132 -4.45452 -1.82006 0
M  V30 37 C 4.7652 -4.96055 -1.59933 0
M  V30 38 C 2.0932 -5.71531 -1.32547 0
M  V30 39 C 4.4452 -6.22617 -1.11939 0
M  V30 40 C 3.1092 -6.60312 -0.976951 0
M  V30 41 H 2.3792 -0.570129 -0.473322 0
M  V30 42 H 5.0262 -1.81845 -0.600372 0
M  V30 43 H 3.3312 -2.31747 -3.15912 0
M  V30 44 H 5.0282 -2.67089 -2.99107 0
M  V30 45 H 1.6182 -3.75949 -2.05815 0
M  V30 46 H 5.8022 -4.66738 -1.68728 0
M  V30 47 H 1.0582 -5.99468 -1.202 0
M  V30 48 H 5.2322 -6.91318 -0.839811 0
M  V30 49 H 2.8592 -7.57895 -0.591501 0
M  V30 50 N 4.4343 0.785586 -1.36625 0
M  V30 51 C 5.8453 1.36101 -1.27803 0
M  V30 52 C 6.1963 1.96035 0.0804875 0
M  V30 53 O 5.3213 1.92834 0.982042 0
M  V30 54 C 5.9163 2.47442 -2.31426 0
M  V30 55 C 4.4753 3.00789 -2.26281 0
M  V30 56 C 3.6223 1.73896 -2.15999 0
M  V30 57 H 6.5733 0.586928 -1.47448 0
M  V30 58 H 6.5943 3.2656 -1.95291 0
M  V30 59 H 6.1063 2.03791 -3.30289 0
M  V30 60 H 4.2073 3.48851 -1.30896 0
M  V30 61 H 4.3203 3.57343 -3.19128 0
M  V30 62 H 2.6843 1.9628 -1.62316 0
M  V30 63 H 3.4673 1.32368 -3.16755 0
M  V30 64 N 5.9124 1.20967 1.01018 0
M  V30 65 C 7.1524 1.03511 1.76252 0
M  V30 66 C 7.5164 -0.42458 1.87247 0
M  V30 67 O 8.7174 -0.719508 2.58991 0
M  V30 68 C 6.9884 1.70726 3.13986 0
M  V30 69 S 8.5474 1.68458 4.05176 0
M  V30 70 H 5.3654 0.371037 0.606508 0
M  V30 71 H 7.9674 1.53628 1.20908 0
M  V30 72 H 6.6714 2.76128 3.03614 0
M  V30 73 H 6.2024 1.20767 3.74405 0
M  V30 74 H 8.2174 0.721987 4.90919 0
M  V30 75 N 7.3905 -1.2043 1.01659 0
M  V30 76 C 8.3375 -2.23215 0.586822 0
M  V30 77 C 9.3075 -1.61382 -0.393085 0
M  V30 78 O 10.4925 -1.88544 -0.292525 0
M  V30 79 C 7.6325 -3.45032 -0.0687464 0
M  V30 80 C 6.7455 -4.21296 0.955724 0
M  V30 81 C 5.8805 -5.30507 0.271208 0
M  V30 82 C 4.9195 -5.98515 1.28244 0
M  V30 83 N 4.0565 -6.99316 0.62459 0
M  V30 84 H 8.8965 -2.59336 1.46796 0
M  V30 85 H 6.4335 -1.27431 0.734836 0
M  V30 86 H 8.3915 -4.1459 -0.465965 0
M  V30 87 H 7.0215 -3.09604 -0.913529 0
M  V30 88 H 6.0735 -3.50803 1.4711 0
M  V30 89 H 7.3855 -4.6803 1.72479 0
M  V30 90 H 6.5395 -6.06428 -0.18151 0
M  V30 91 H 5.2785 -4.8481 -0.530163 0
M  V30 92 H 4.2835 -5.21355 1.74554 0
M  V30 93 H 5.5085 -6.46298 2.08509 0
M  V30 94 H 3.4545 -6.55812 -0.156914 0
M  V30 95 H 3.3715 -7.44178 1.33172 0
M  V30 96 H 4.6395 -7.79255 0.195462 0
M  V30 97 N 8.8686 -0.792821 -1.36206 0
M  V30 98 C 10.1156 -0.366786 -1.99151 0
M  V30 99 C 10.4436 1.06243 -1.62919 0
M  V30 100 O 9.6986 1.74927 -0.877442 0
M  V30 101 C 9.9976 -0.481501 -3.54142 0
M  V30 102 C 9.6636 -1.87202 -4.10203 0
M  V30 103 C 8.3256 -2.25248 -4.25226 0
M  V30 104 C 10.6776 -2.78237 -4.40719 0
M  V30 105 C 8.0056 -3.53723 -4.68078 0
M  V30 106 C 10.3576 -4.06144 -4.85005 0
M  V30 107 C 9.0216 -4.44207 -4.98234 0
M  V30 108 H 8.2916 -0.134217 -0.728743 0
M  V30 109 H 10.9386 -1.01094 -1.62641 0
M  V30 110 H 9.2436 0.246146 -3.91026 0
M  V30 111 H 10.9406 -0.132844 -4.0078 0
M  V30 112 H 7.5306 -1.56639 -3.98951 0
M  V30 113 H 11.7146 -2.50097 -4.28679 0
M  V30 114 H 6.9706 -3.8308 -4.76508 0
M  V30 115 H 11.1446 -4.76796 -5.07581 0
M  V30 116 H 8.7716 -5.43814 -5.31197 0
M  V30 117 N 10.3467 1.47872 -0.545128 0
M  V30 118 C 11.5927 2.02793 -0.0166104 0
M  V30 119 C 11.9257 1.41987 1.32489 0
M  V30 120 O 11.2007 0.571045 1.85928 0
M  V30 121 C 11.4837 3.59989 0.0893294 0
M  V30 122 C 11.3367 4.3125 -1.27841 0
M  V30 123 C 12.6557 4.32606 0.808724 0
M  V30 124 H 9.7747 0.736962 -0.00751035 0
M  V30 125 H 12.4167 1.76433 -0.705085 0
M  V30 126 H 10.5667 3.82579 0.675681 0
M  V30 127 H 12.2387 4.20035 -1.90704 0
M  V30 128 H 10.4817 3.92076 -1.85632 0
M  V30 129 H 11.1527 5.39736 -1.15713 0
M  V30 130 H 13.6287 4.14936 0.310992 0
M  V30 131 H 12.5047 5.42251 0.851782 0
M  V30 132 H 12.7657 4.00963 1.86229 0
M  V30 133 N 11.8248 0.280983 1.55075 0
M  V30 134 C 12.7878 -0.590896 2.21452 0
M  V30 135 C 13.7878 -1.07682 1.19421 0
M  V30 136 O 14.9778 -0.97605 1.44288 0
M  V30 137 C 12.1098 -1.81587 2.88511 0
M  V30 138 H 13.3028 -0.0112554 2.99898 0
M  V30 139 H 10.8558 0.0316438 1.56268 0
M  V30 140 H 11.5908 -2.43587 2.14093 0
M  V30 141 H 11.3758 -1.4753 3.63287 0
M  V30 142 H 12.8658 -2.43575 3.39206 0
M  V30 143 N 13.3029 -1.57598 0.00835791 0
M  V30 144 C 14.5279 -1.95617 -0.689103 0
M  V30 145 C 14.9529 -0.883753 -1.66046 0
M  V30 146 O 14.3109 0.157352 -1.80616 0
M  V30 147 C 14.3589 -3.32736 -1.38994 0
M  V30 148 O 13.4629 -3.27631 -2.50463 0
M  V30 149 H 12.8039 -0.638379 -0.182668 0
M  V30 150 H 15.3339 -2.045 0.064036 0
M  V30 151 H 15.3439 -3.68494 -1.75147 0
M  V30 152 H 14.0189 -4.1034 -0.677778 0
M  V30 153 H 12.5959 -3.03561 -2.16576 0
M  V30 154 N 14.781 0.264519 -1.55364 0
M  V30 155 C 16.028 0.994986 -1.7637 0
M  V30 156 C 16.356 1.85976 -0.5695 0
M  V30 157 O 15.611 1.90509 0.44776 0
M  V30 158 C 15.91 1.9004 -3.02687 0
M  V30 159 C 15.576 1.19243 -4.34847 0
M  V30 160 C 14.238 0.996709 -4.70764 0
M  V30 161 C 16.59 0.689296 -5.16622 0
M  V30 162 C 13.918 0.285261 -5.86006 0
M  V30 163 C 16.27 -0.00860079 -6.32599 0
M  V30 164 C 14.934 -0.215963 -6.67151 0
M  V30 165 H 14.204 0.364091 -0.645383 0
M  V30 166 H 16.851 0.266543 -1.89636 0
M  V30 167 H 15.156 2.69533 -2.84357 0
M  V30 168 H 16.853 2.46695 -3.16137 0
M  V30 169 H 13.443 1.3549 -4.06621 0
M  V30 170 H 17.627 0.828108 -4.89342 0
M  V30 171 H 12.883 0.113961 -6.11294 0
M  V30 172 H 17.057 -0.406186 -6.95214 0
M  V30 173 H 14.684 -0.769217 -7.56298 0
M  V30 174 N 16.2591 1.48442 0.529413 0
M  V30 175 C 17.1891 1.65902 1.64313 0
M  V30 176 C 18.1701 0.507897 1.6234 0
M  V30 177 O 19.3551 0.740503 1.79528 0
M  V30 178 C 16.4851 1.69911 3.02898 0
M  V30 179 C 15.4391 2.8453 3.19729 0
M  V30 180 C 14.7651 2.73629 4.59381 0
M  V30 181 C 16.0651 4.25821 3.02447 0
M  V30 182 H 17.7591 2.5914 1.49955 0
M  V30 183 H 15.3051 1.24709 0.719982 0
M  V30 184 H 17.2581 1.80715 3.80684 0
M  V30 185 H 15.9821 0.732524 3.18279 0
M  V30 186 H 14.6411 2.73283 2.44361 0
M  V30 187 H 14.2891 1.74938 4.71599 0
M  V30 188 H 13.9891 3.50541 4.71588 0
M  V30 189 H 15.5131 2.86401 5.39265 0
M  V30 190 H 16.9271 4.37898 3.70024 0
M  V30 191 H 15.3241 5.03735 3.26146 0
M  V30 192 H 16.3941 4.42244 1.98867 0
M  V30 193 N 17.7372 -0.778329 1.37039 0
M  V30 194 C 18.6672 -1.90546 1.34962 0
M  V30 195 C 19.6482 -1.68681 0.219274 0
M  V30 196 O 20.8332 -1.89634 0.418624 0
M  V30 197 C 17.9632 -3.27734 1.14925 0
M  V30 198 C 16.9172 -3.64147 2.24902 0
M  V30 199 C 16.2432 -4.99806 1.89996 0
M  V30 200 C 17.5432 -3.71579 3.67051 0
M  V30 201 H 19.2372 -1.92541 2.29277 0
M  V30 202 H 16.7832 -0.924948 1.10366 0
M  V30 203 H 18.7362 -4.06215 1.12104 0
M  V30 204 H 17.4602 -3.26154 0.170631 0
M  V30 205 H 16.1192 -2.8797 2.26868 0
M  V30 206 H 15.7672 -4.94759 0.906796 0
M  V30 207 H 15.4672 -5.25139 2.63634 0
M  V30 208 H 16.9912 -5.80694 1.88749 0
M  V30 209 H 18.4052 -4.40227 3.67251 0
M  V30 210 H 16.8022 -4.08405 4.39688 0
M  V30 211 H 17.8722 -2.72404 4.01154 0
M  V30 212 N 19.2153 -1.21501 -1.00376 0
M  V30 213 C 20.4643 -1.02718 -1.73586 0
M  V30 214 C 20.7773 0.439589 -1.90596 0
M  V30 215 O 21.9833 0.746848 -2.61026 0
M  V30 216 C 20.4393 -1.78929 -3.1227 0
M  V30 217 C 20.0473 -3.29783 -3.03228 0
M  V30 218 C 21.7913 -1.68557 -3.89601 0
M  V30 219 C 19.6983 -3.98479 -4.36999 0
M  V30 220 H 18.6283 -0.380733 -0.650814 0
M  V30 221 H 21.2793 -1.45248 -1.1214 0
M  V30 222 H 19.6613 -1.29192 -3.74333 0
M  V30 223 H 20.8353 -3.86832 -2.50395 0
M  V30 224 H 19.1503 -3.40711 -2.39385 0
M  V30 225 H 21.7473 -2.17211 -4.88593 0
M  V30 226 H 22.0903 -0.644021 -4.11288 0
M  V30 227 H 22.6233 -2.15778 -3.34193 0
M  V30 228 H 19.3623 -5.02841 -4.20513 0
M  V30 229 H 18.8823 -3.46219 -4.89788 0
M  V30 230 H 20.5613 -4.03462 -5.05794 0
M  V30 231 N 20.6934 1.19889 -1.02296 0
M  V30 232 C 21.9404 1.8942 -0.715972 0
M  V30 233 C 22.2684 1.79251 0.754944 0
M  V30 234 O 21.5234 1.17526 1.56481 0
M  V30 235 C 21.8224 3.39883 -1.10518 0
M  V30 236 C 21.4884 3.70254 -2.57337 0
M  V30 237 C 20.1504 3.78254 -2.97452 0
M  V30 238 C 22.5024 3.84052 -3.52354 0
M  V30 239 C 19.8304 3.97514 -4.31509 0
M  V30 240 C 22.1824 4.04824 -4.86108 0
M  V30 241 C 20.8464 4.11054 -5.25919 0
M  V30 242 H 20.1164 0.693138 -0.261993 0
M  V30 243 H 22.7634 1.42012 -1.28472 0
M  V30 244 H 21.0684 3.8915 -0.454953 0
M  V30 245 H 22.7654 3.9199 -0.845261 0
M  V30 246 H 19.3554 3.64632 -2.25258 0
M  V30 247 H 23.5394 3.77221 -3.22518 0
M  V30 248 H 18.7954 4.00574 -4.61898 0
M  V30 249 H 22.9694 4.14442 -5.59653 0
M  V30 250 H 20.5964 4.2573 -6.29808 0
M  V30 251 N 22.1715 0.800033 1.35784 0
M  V30 252 C 23.1195 0.193851 2.31791 0
M  V30 253 C 24.1135 -0.652744 1.56319 0
M  V30 254 O 25.3195 -0.546641 1.71499 0
M  V30 255 H 21.6945 0.04392 0.750716 0
M  V30 256 H 23.6655 1.01883 2.80468 0
M  V30 257 C 22.4145 -0.648338 3.41602 0
M  V30 258 H 21.7375 -0.00624665 3.998 0
M  V30 259 H 23.1775 -1.03898 4.11073 0
M  V30 260 C 21.6365 -1.8111 2.84079 0
M  V30 261 O 22.1665 -2.90825 2.77099 0
M  V30 262 N 20.3725 -1.62056 2.41218 0
M  V30 263 H 19.9195 -0.728123 2.47095 0
M  V30 264 H 19.8775 -2.40013 2.03079 0
M  V30 265 N 23.6496 -1.47581 0.552962 0
M  V30 266 C 24.8956 -2.02782 0.0273648 0
M  V30 267 C 25.2286 -1.42687 -1.31734 0
M  V30 268 O 24.5036 -0.580897 -1.85623 0
M  V30 269 C 24.7866 -3.60031 -0.0702371 0
M  V30 270 C 24.6396 -4.30566 1.30126 0
M  V30 271 C 25.9586 -4.33028 -0.785771 0
M  V30 272 H 23.0776 -0.736912 0.0114185 0
M  V30 273 H 25.7196 -1.76056 0.714432 0
M  V30 274 H 23.8696 -3.82932 -0.655382 0
M  V30 275 H 25.5416 -4.19018 1.92929 0
M  V30 276 H 23.7846 -3.91086 1.87709 0
M  V30 277 H 24.4556 -5.39114 1.18573 0
M  V30 278 H 26.9316 -4.15095 -0.288982 0
M  V30 279 H 25.8076 -5.42695 -0.823013 0
M  V30 280 H 26.0686 -4.01945 -1.841 0
M  V30 281 N 25.1277 -0.289203 -1.54924 0
M  V30 282 C 26.3527 0.329299 -2.04769 0
M  V30 283 C 26.7777 1.4763 -1.16564 0
M  V30 284 O 26.1357 1.80527 -0.167186 0
M  V30 285 C 26.1837 0.774438 -3.52186 0
M  V30 286 O 25.2877 1.88038 -3.67036 0
M  V30 287 H 24.6287 0.0659259 -0.660719 0
M  V30 288 H 27.1587 -0.42761 -2.00082 0
M  V30 289 H 27.1687 1.06642 -3.93816 0
M  V30 290 H 25.8437 -0.0646707 -4.1585 0
M  V30 291 H 24.4207 1.58985 -3.3731 0
M  V30 292 N 26.6058 1.57591 -0.0167156 0
M  V30 293 C 27.8308 1.9598 0.67872 0
M  V30 294 C 28.2558 0.892546 1.65575 0
M  V30 295 O 27.6138 -0.147772 1.80697 0
M  V30 296 C 27.6618 3.33468 1.37227 0
M  V30 297 O 26.7658 3.28954 2.48722 0
M  V30 298 H 26.1068 0.639339 0.17928 0
M  V30 299 H 28.6368 2.04463 -0.0748802 0
M  V30 300 H 28.6468 3.69417 1.7319 0
M  V30 301 H 27.3218 4.10694 0.656007 0
M  V30 302 H 25.8988 3.04705 2.14963 0
M  V30 303 N 28.0839 -0.256276 1.55502 0
M  V30 304 C 29.0309 -1.31714 1.89526 0
M  V30 305 C 30.0009 -1.4828 0.748479 0
M  V30 306 O 31.1859 -1.62416 1.00128 0
M  V30 307 C 28.3259 -2.66933 2.18725 0
M  V30 308 C 27.4389 -2.58452 3.4616 0
M  V30 309 C 26.5739 -3.85961 3.64976 0
M  V30 310 C 25.6129 -3.72059 4.86044 0
M  V30 311 N 24.7499 -4.9144 5.01429 0
M  V30 312 H 29.5899 -1.01998 2.80001 0
M  V30 313 H 27.1269 -0.492413 1.38613 0
M  V30 314 H 29.0849 -3.4563 2.33657 0
M  V30 315 H 27.7149 -2.94816 1.31466 0
M  V30 316 H 26.7669 -1.71374 3.3961 0
M  V30 317 H 28.0789 -2.44085 4.34999 0
M  V30 318 H 27.2329 -4.73101 3.79816 0
M  V30 319 H 25.9719 -4.03215 2.74353 0
M  V30 320 H 24.9769 -2.83302 4.7119 0
M  V30 321 H 26.2019 -3.56309 5.78118 0
M  V30 322 H 24.1479 -5.09072 4.13741 0
M  V30 323 H 24.0649 -4.79668 5.84341 0
M  V30 324 H 25.3329 -5.80104 5.20672 0
M  V30 325 N 29.562 -1.4872 -0.521534 0
M  V30 326 C 30.81 -1.56857 -1.27437 0
M  V30 327 C 31.131 -0.247982 -1.93417 0
M  V30 328 O 30.401 0.731151 -1.81744 0
M  V30 329 H 28.981 -0.577885 -0.473347 0
M  V30 330 H 31.643 -1.85233 -0.606205 0
M  V30 331 H 30.739 -2.35402 -2.0492 0
M  V30 332 N 31.0401 0.771051 -1.3745 0
M  V30 333 C 32.0031 1.86598 -1.33093 0
M  V30 334 C 33.0031 1.59076 -0.234845 0
M  V30 335 O 34.1931 1.67145 -0.490732 0
M  V30 336 C 31.3251 3.23747 -1.06773 0
M  V30 337 H 32.5181 1.91873 -2.30488 0
M  V30 338 H 30.0711 0.970876 -1.2249 0
M  V30 339 H 30.8061 3.24148 -0.099129 0
M  V30 340 H 30.5911 3.45115 -1.86112 0
M  V30 341 H 32.0811 4.03824 -1.06377 0
M  V30 342 N 32.5182 1.22032 0.997298 0
M  V30 343 C 33.7642 1.04376 1.73878 0
M  V30 344 C 34.0972 -0.420716 1.89588 0
M  V30 345 O 33.3722 -1.31202 1.43583 0
M  V30 346 C 33.6552 1.75047 3.14691 0
M  V30 347 C 33.5082 3.29062 3.06656 0
M  V30 348 C 34.8272 1.49928 4.13775 0
M  V30 349 H 31.9462 0.380578 0.631133 0
M  V30 350 H 34.5882 1.50312 1.16217 0
M  V30 351 H 32.7382 1.35996 3.63919 0
M  V30 352 H 34.4102 3.7753 2.65083 0
M  V30 353 H 32.6532 3.58967 2.43568 0
M  V30 354 H 33.3242 3.73683 4.06282 0
M  V30 355 H 35.8002 1.83842 3.73285 0
M  V30 356 H 34.6762 2.01878 5.10428 0
M  V30 357 H 34.9372 0.430929 4.39995 0
M  V30 358 N 33.9963 -1.19345 1.0293 0
M  V30 359 C 35.2213 -1.93538 0.745511 0
M  V30 360 C 35.6463 -1.75007 -0.689511 0
M  V30 361 O 35.0043 -1.05265 -1.47611 0
M  V30 362 C 35.0523 -3.43336 1.10239 0
M  V30 363 O 34.1563 -4.11806 0.221289 0
M  V30 364 H 33.4973 -0.604193 0.275404 0
M  V30 365 H 36.0273 -1.5141 1.37609 0
M  V30 366 H 36.0373 -3.94004 1.05947 0
M  V30 367 H 34.7123 -3.56146 2.14786 0
M  V30 368 H 33.2893 -3.715 0.322842 0
M  V30 369 N 35.4744 -0.807222 -1.35358 0
M  V30 370 C 36.4214 -0.216037 -2.29787 0
M  V30 371 C 37.3914 0.650278 -1.52842 0
M  V30 372 O 38.5764 0.595227 -1.81278 0
M  V30 373 C 35.7164 0.628893 -3.39321 0
M  V30 374 C 34.8294 -0.257927 -4.31229 0
M  V30 375 C 33.9644 0.595069 -5.27856 0
M  V30 376 C 33.0034 -0.292111 -6.11403 0
M  V30 377 N 32.1404 0.520895 -7.00165 0
M  V30 378 H 36.9804 -1.02671 -2.79755 0
M  V30 379 H 34.5174 -0.517839 -1.37684 0
M  V30 380 H 36.4754 1.13393 -4.01494 0
M  V30 381 H 35.1054 1.40482 -2.90628 0
M  V30 382 H 34.1574 -0.881076 -3.70056 0
M  V30 383 H 35.4694 -0.940759 -4.89848 0
M  V30 384 H 34.6234 1.16522 -5.95405 0
M  V30 385 H 33.3624 1.31146 -4.69736 0
M  V30 386 H 32.3674 -0.874525 -5.428 0
M  V30 387 H 33.5924 -1.00638 -6.71602 0
M  V30 388 H 31.5384 1.22125 -6.44532 0
M  V30 389 H 31.4554 -0.103877 -7.55929 0
M  V30 390 H 32.7234 1.0743 -7.72062 0
M  V30 391 N 36.9525 1.47285 -0.560781 0
M  V30 392 C 37.8625 2.33846 0.187954 0
M  V30 393 C 38.8785 1.48412 0.908293 0
M  V30 394 O 40.0545 1.81332 0.876388 0
M  V30 395 C 37.1195 3.25178 1.2025 0
M  V30 396 C 36.1805 4.26504 0.489208 0
M  V30 397 C 35.4135 5.13472 1.45542 0
M  V30 398 O 35.6365 5.02959 2.6905 0
M  V30 399 O 34.5705 5.93902 0.977963 0
M  V30 400 H 38.3965 2.99177 -0.522177 0
M  V30 401 H 35.9815 1.45903 -0.321364 0
M  V30 402 H 37.8635 3.81584 1.78805 0
M  V30 403 H 36.5385 2.6247 1.89449 0
M  V30 404 H 35.4455 3.73847 -0.137627 0
M  V30 405 H 36.7785 4.91935 -0.161399 0
M  V30 406 N 38.4306 0.297415 1.54768 0
M  V30 407 C 39.6796 -0.313669 1.99246 0
M  V30 408 C 39.9926 -1.55281 1.18942 0
M  V30 409 O 41.1986 -2.23825 1.5367 0
M  V30 410 C 39.6546 -0.609407 3.54703 0
M  V30 411 C 39.2626 0.611192 4.43811 0
M  V30 412 C 41.0066 -1.18188 4.07715 0
M  V30 413 C 38.9136 0.288805 5.90694 0
M  V30 414 H 37.8436 -0.120979 0.744231 0
M  V30 415 H 40.4946 0.40556 1.78962 0
M  V30 416 H 38.8766 -1.38813 3.70873 0
M  V30 417 H 40.0506 1.3875 4.39414 0
M  V30 418 H 38.3656 1.10205 4.01552 0
M  V30 419 H 40.9626 -1.43727 5.15021 0
M  V30 420 H 41.3056 -2.12299 3.58099 0
M  V30 421 H 41.8386 -0.464944 3.95074 0
M  V30 422 H 38.5776 1.19838 6.44453 0
M  V30 423 H 38.0976 -0.450305 5.98107 0
M  V30 424 H 39.7766 -0.110933 6.46905 0
M  V30 425 N 39.9087 -1.5758 0.0250728 0
M  V30 426 C 41.1367 -1.9593 -0.664747 0
M  V30 427 C 41.5517 -0.901352 -1.65895 0
M  V30 428 O 40.9087 0.117255 -1.82123 0
M  V30 429 C 40.9597 -3.34342 -1.37468 0
M  V30 430 O 40.6807 -4.36079 -0.420324 0
M  V30 431 C 42.1817 -3.873 -2.1567 0
M  V30 432 H 39.4017 -0.645405 -0.183557 0
M  V30 433 H 41.9457 -2.04329 0.0836372 0
M  V30 434 H 40.1007 -3.27175 -2.0745 0
M  V30 435 H 40.5147 -5.16297 -0.923991 0
M  V30 436 H 41.9887 -4.86504 -2.60803 0
M  V30 437 H 42.4657 -3.21331 -2.99405 0
M  V30 438 H 43.0717 -3.97723 -1.50654 0
M  V30 439 N 41.3868 0.248026 -1.55636 0
M  V30 440 C 42.3348 1.32683 -1.91045 0
M  V30 441 C 43.3288 1.49883 -0.789401 0
M  V30 442 O 44.5348 1.51371 -0.974007 0
M  V30 443 H 40.9098 0.444272 -0.606734 0
M  V30 444 H 42.8808 1.00085 -2.81115 0
M  V30 445 C 41.6298 2.6755 -2.22064 0
M  V30 446 H 40.9528 2.55114 -3.07826 0
M  V30 447 H 42.3928 3.41912 -2.50743 0
M  V30 448 C 40.8518 3.20556 -1.0366 0
M  V30 449 O 41.3818 4.00695 -0.284016 0
M  V30 450 N 39.5878 2.78568 -0.82753 0
M  V30 451 H 39.1348 2.1351 -1.44123 0
M  V30 452 H 39.0928 3.14378 -0.0369803 0
M  V30 453 N 42.8649 1.48995 0.513639 0
M  V30 454 C 43.8279 1.64229 1.59879 0
M  V30 455 C 44.8279 0.514696 1.5234 0
M  V30 456 O 46.0179 0.78087 1.55718 0
M  V30 457 C 43.1499 1.62783 2.99524 0
M  V30 458 H 44.3429 2.61004 1.47705 0
M  V30 459 H 41.8959 1.37837 0.736936 0
M  V30 460 H 42.6309 0.675461 3.17188 0
M  V30 461 H 42.4159 2.4466 3.06404 0
M  V30 462 H 43.9059 1.76669 3.78388 0
M  V30 463 N 44.343 -0.763751 1.37857 0
M  V30 464 C 45.273 -1.89103 1.36975 0
M  V30 465 C 46.254 -1.68439 0.237152 0
M  V30 466 O 47.439 -1.8918 0.438713 0
M  V30 467 C 44.569 -3.26496 1.18395 0
M  V30 468 C 43.523 -3.61741 2.28751 0
M  V30 469 C 42.849 -4.97762 1.95286 0
M  V30 470 C 44.149 -3.67665 3.70972 0
M  V30 471 H 45.843 -1.90099 2.31307 0
M  V30 472 H 43.389 -0.91319 1.11341 0
M  V30 473 H 45.342 -4.05003 1.16406 0
M  V30 474 H 44.066 -3.25955 0.205215 0
M  V30 475 H 42.725 -2.85547 2.29909 0
M  V30 476 H 42.373 -4.93769 0.959221 0
M  V30 477 H 42.073 -5.22313 2.69189 0
M  V30 478 H 43.597 -5.7866 1.94898 0
M  V30 479 H 45.011 -4.36307 3.719 0
M  V30 480 H 43.408 -4.03718 4.43995 0
M  V30 481 H 44.478 -2.68134 4.0402 0
M  V30 482 N 45.8211 -1.22559 -0.990812 0
M  V30 483 C 46.7311 -1.01394 -2.11557 0
M  V30 484 C 47.7471 0.0383962 -1.73958 0
M  V30 485 O 48.9231 -0.154787 -2.00804 0
M  V30 486 C 45.9881 -0.596569 -3.41529 0
M  V30 487 C 45.0491 -1.72276 -3.93217 0
M  V30 488 C 44.2821 -1.32521 -5.16985 0
M  V30 489 O 44.5051 -0.204909 -5.70032 0
M  V30 490 O 43.4391 -2.14247 -5.62478 0
M  V30 491 H 47.2651 -1.95633 -2.32296 0
M  V30 492 H 44.8501 -1.01172 -1.0993 0
M  V30 493 H 46.7321 -0.374263 -4.19735 0
M  V30 494 H 45.4071 0.316939 -3.22145 0
M  V30 495 H 44.3141 -1.99961 -3.16174 0
M  V30 496 H 45.6471 -2.61421 -4.17037 0
M  V30 497 N 47.2992 1.18797 -1.03562 0
M  V30 498 C 48.5272 1.92599 -0.755869 0
M  V30 499 C 48.9422 1.75886 0.686271 0
M  V30 500 O 48.2992 1.08517 1.46732 0
M  V30 501 C 48.3502 3.44159 -1.10619 0
M  V30 502 O 48.0712 3.60341 -2.4917 0
M  V30 503 C 49.5722 4.3507 -0.850214 0
M  V30 504 H 46.7922 0.611587 -0.276048 0
M  V30 505 H 49.3362 1.50742 -1.38192 0
M  V30 506 H 47.4912 3.83823 -0.525194 0
M  V30 507 H 47.9052 4.54128 -2.62427 0
M  V30 508 H 49.3792 5.39989 -1.14523 0
M  V30 509 H 49.8562 4.38673 0.215176 0
M  V30 510 H 50.4622 4.01097 -1.41426 0
M  V30 511 N 48.7773 0.814389 1.34928 0
M  V30 512 C 50.0233 0.408167 1.99263 0
M  V30 513 C 50.3783 -1.0154 1.63424 0
M  V30 514 O 49.6713 -1.69607 0.891289 0
M  V30 515 C 49.8653 0.537781 3.53331 0
M  V30 516 C 49.6943 1.9724 4.04137 0
M  V30 517 C 48.4643 2.60245 4.33129 0
M  V30 518 C 50.6623 2.93801 4.2212 0
M  V30 519 N 48.6443 3.95036 4.69914 0
M  V30 520 C 50.0153 4.1348 4.6199 0
M  V30 521 C 52.0703 2.9053 4.04348 0
M  V30 522 C 50.7733 5.3033 4.85945 0
M  V30 523 C 52.7993 4.06589 4.29464 0
M  V30 524 C 52.1613 5.25017 4.69613 0
M  V30 525 H 48.2603 0.197289 0.756704 0
M  V30 526 H 50.8443 1.05728 1.63492 0
M  V30 527 H 49.0153 -0.0813868 3.88315 0
M  V30 528 H 50.7473 0.105389 4.04563 0
M  V30 529 H 47.5023 2.11545 4.23728 0
M  V30 530 H 47.9263 4.64455 4.92555 0
M  V30 531 H 52.5683 2.00115 3.72443 0
M  V30 532 H 50.2863 6.21309 5.16721 0
M  V30 533 H 53.8723 4.05447 4.17257 0
M  V30 534 H 52.7523 6.1333 4.88667 0
M  V30 535 N 50.2554 -1.46986 0.568584 0
M  V30 536 C 51.5034 -2.02041 0.0487022 0
M  V30 537 C 51.8244 -1.44408 -1.31039 0
M  V30 538 O 51.0944 -0.623477 -1.85714 0
M  V30 539 H 49.6744 -0.746849 0.015014 0
M  V30 540 H 52.3364 -1.80257 0.741168 0
M  V30 541 H 51.4324 -3.12085 -0.0308961 0
M  V30 542 N 51.7335 -0.305618 -1.54608 0
M  V30 543 C 52.6965 0.555591 -2.22364 0
M  V30 544 C 53.6965 1.05768 -1.21119 0
M  V30 545 O 54.8865 0.952972 -1.45822 0
M  V30 546 C 52.0185 1.76974 -2.91364 0
M  V30 547 H 53.2115 -0.0364572 -2.99878 0
M  V30 548 H 50.7645 -0.0565007 -1.56198 0
M  V30 549 H 51.4995 2.40151 -2.17941 0
M  V30 550 H 51.2845 1.41732 -3.65588 0
M  V30 551 H 52.7745 2.38148 -3.43038 0
M  V30 552 N 53.2116 1.57565 -0.0334293 0
M  V30 553 C 54.1416 2.13511 0.945265 0
M  V30 554 C 55.1226 1.05231 1.33643 0
M  V30 555 O 56.3076 1.33084 1.41429 0
M  V30 556 C 53.4376 2.6657 2.22616 0
M  V30 557 C 52.3916 3.79676 1.97561 0
M  V30 558 C 51.7176 4.1918 3.31952 0
M  V30 559 C 53.0176 5.0557 1.31135 0
M  V30 560 H 54.7116 2.95538 0.479325 0
M  V30 561 H 52.2576 1.42166 0.229115 0
M  V30 562 H 54.2106 3.04344 2.91466 0
M  V30 563 H 52.9346 1.8171 2.71384 0
M  V30 564 H 51.5936 3.42347 1.31127 0
M  V30 565 H 51.2416 3.31296 3.78487 0
M  V30 566 H 50.9416 4.95402 3.15992 0
M  V30 567 H 52.4656 4.59541 4.02063 0
M  V30 568 H 53.8796 5.40903 1.89992 0
M  V30 569 H 52.2766 5.86818 1.25559 0
M  V30 570 H 53.3466 4.84062 0.284894 0
M  V30 571 N 54.6897 -0.239769 1.55765 0
M  V30 572 C 55.9377 -0.964892 1.77579 0
M  V30 573 C 56.2587 -1.85582 0.598699 0
M  V30 574 O 55.5287 -1.92075 -0.385226 0
M  V30 575 H 54.1087 -0.359265 0.654933 0
M  V30 576 H 56.7707 -0.256001 1.93211 0
M  V30 577 H 55.8667 -1.58243 2.69009 0
M  V30 578 N 56.1678 -1.49265 -0.50573 0
M  V30 579 C 57.0998 -1.617 -1.62437 0
M  V30 580 C 58.1128 -0.499924 -1.54934 0
M  V30 581 O 59.3018 -0.771785 -1.60953 0
M  V30 582 C 56.4018 -1.5533 -3.01207 0
M  V30 583 C 55.5748 -2.8249 -3.33943 0
M  V30 584 C 54.6338 -2.69238 -4.52103 0
M  V30 585 O 53.6598 -3.43167 -4.5412 0
M  V30 586 N 54.8618 -1.80468 -5.51735 0
M  V30 587 H 57.6268 -2.58177 -1.52199 0
M  V30 588 H 55.1878 -1.46294 -0.693511 0
M  V30 589 H 57.1798 -1.44125 -3.78167 0
M  V30 590 H 55.7498 -0.667297 -3.05395 0
M  V30 591 H 54.9698 -3.08081 -2.45926 0
M  V30 592 H 56.2578 -3.66802 -3.5261 0
M  V30 593 H 55.6558 -1.19653 -5.52901 0
M  V30 594 H 54.2128 -1.75188 -6.27816 0
M  V30 595 N 57.6459 0.756429 -1.3826 0
M  V30 596 C 58.9229 1.50584 -1.24835 0
M  V30 597 C 59.3029 2.10556 0.151485 0
M  V30 598 O 58.6509 1.96825 1.1607 0
M  V30 599 C 58.8609 2.57448 -2.3563 0
M  V30 600 C 60.2089 3.24429 -2.73917 0
M  V30 601 O 61.2329 2.67751 -2.34921 0
M  V30 602 O 60.0919 4.26937 -3.41156 0
M  V30 603 H 57.1859 0.667664 -0.48801 0
M  V30 604 H 59.7319 0.792083 -1.5008 0
M  V30 605 H 58.5039 2.11362 -3.29305 0
M  V30 606 H 58.1269 3.36408 -2.11933 0
M  V30 607 N 59.124 1.23083 0.984299 0
M  V30 608 C 60.373 1.05466 1.71929 0
M  V30 609 C 60.686 -0.409211 1.91272 0
M  V30 610 O 61.892 -0.705226 2.62181 0
M  V30 611 C 60.348 1.83874 3.09384 0
M  V30 612 C 59.956 3.34566 2.97943 0
M  V30 613 C 61.7 1.74734 3.8687 0
M  V30 614 C 59.607 4.05381 4.30605 0
M  V30 615 H 58.537 0.391039 0.644674 0
M  V30 616 H 61.188 1.47013 1.09815 0
M  V30 617 H 59.57 1.35131 3.72231 0
M  V30 618 H 60.744 3.90767 2.44209 0
M  V30 619 H 59.059 3.44476 2.33934 0
M  V30 620 H 61.656 2.24957 4.85076 0
M  V30 621 H 61.999 0.709372 4.10212 0
M  V30 622 H 62.532 2.21067 3.30717 0
M  V30 623 H 59.271 5.09467 4.1246 0
M  V30 624 H 58.791 3.53967 4.84218 0
M  V30 625 H 60.47 4.11458 4.99311 0
M  V30 626 N 60.6021 -1.18246 1.0419 0
M  V30 627 C 61.5501 -2.23968 0.627792 0
M  V30 628 C 62.5441 -1.65828 -0.346019 0
M  V30 629 O 63.7501 -1.78733 -0.213175 0
M  V30 630 H 60.1251 -0.728939 0.184802 0
M  V30 631 H 62.0961 -2.56202 1.52981 0
M  V30 632 C 60.8451 -3.47699 0.00796591 0
M  V30 633 H 60.1681 -3.92734 0.748347 0
M  V30 634 H 61.6081 -4.23294 -0.24455 0
M  V30 635 C 60.0671 -3.13153 -1.24246 0
M  V30 636 O 60.5971 -3.27003 -2.33307 0
M  V30 637 N 58.8031 -2.67467 -1.13622 0
M  V30 638 H 58.3501 -2.56396 -0.248734 0
M  V30 639 H 58.3081 -2.44724 -1.97377 0
M  V30 640 N 62.0802 -0.821533 -1.34494 0
M  V30 641 C 63.0102 -0.257138 -2.3208 0
M  V30 642 C 63.9912 0.625645 -1.58176 0
M  V30 643 O 65.1762 0.552811 -1.86166 0
M  V30 644 C 62.3062 0.582958 -3.42372 0
M  V30 645 C 61.2602 -0.202571 -4.2752 0
M  V30 646 C 60.5862 0.760179 -5.29269 0
M  V30 647 C 61.8862 -1.40998 -5.02908 0
M  V30 648 H 63.5802 -1.07247 -2.79532 0
M  V30 649 H 61.1262 -0.517163 -1.34393 0
M  V30 650 H 63.0792 0.987972 -4.09655 0
M  V30 651 H 61.8032 1.43133 -2.93565 0
M  V30 652 H 60.4622 -0.588936 -3.61838 0
M  V30 653 H 60.1102 1.60447 -4.76724 0
M  V30 654 H 59.8102 0.238809 -5.87115 0
M  V30 655 H 61.3342 1.16308 -5.9942 0
M  V30 656 H 62.7482 -1.07905 -5.63054 0
M  V30 657 H 61.1452 -1.86689 -5.70322 0
M  V30 658 H 62.2152 -2.1889 -4.32684 0
M  V30 659 N 63.5583 1.46682 -0.576371 0
M  V30 660 C 64.8353 1.95599 0.00703437 0
M  V30 661 C 65.2153 1.51904 1.46589 0
M  V30 662 O 64.5633 0.766755 2.15251 0
M  V30 663 C 64.7733 3.4864 -0.158404 0
M  V30 664 C 66.1213 4.24594 -0.0229439 0
M  V30 665 O 67.1453 3.56094 -0.0869173 0
M  V30 666 O 66.0043 5.46373 0.118015 0
M  V30 667 H 63.0983 0.825275 0.053384 0
M  V30 668 H 65.6443 1.56996 -0.644244 0
M  V30 669 H 64.4163 3.7331 -1.17282 0
M  V30 670 H 64.0393 3.94057 0.5296 0
M  V30 671 N 65.0364 0.313813 1.54444 0
M  V30 672 C 66.2854 -0.292519 1.99568 0
M  V30 673 C 66.5984 -1.54011 1.20582 0
M  V30 674 O 67.8044 -2.22183 1.56035 0
M  V30 675 C 66.2604 -0.571752 3.55329 0
M  V30 676 C 65.8684 0.658229 4.43138 0
M  V30 677 C 67.6124 -1.13857 4.08946 0
M  V30 678 C 65.5194 0.351439 5.90355 0
M  V30 679 H 64.4494 -0.113079 0.745472 0
M  V30 680 H 67.1004 0.424518 1.78522 0
M  V30 681 H 65.4824 -1.34872 3.72325 0
M  V30 682 H 66.6564 1.43403 4.37918 0
M  V30 683 H 64.9714 1.14458 4.0036 0
M  V30 684 H 67.5684 -1.38257 5.16516 0
M  V30 685 H 67.9114 -2.08489 3.6033 0
M  V30 686 H 68.4444 -0.423015 3.95544 0
M  V30 687 H 65.1834 1.26667 6.43145 0
M  V30 688 H 64.7034 -0.386842 5.98551 0
M  V30 689 H 66.3824 -0.0423134 6.46986 0
M  V30 690 N 66.5145 -1.57545 0.0417849 0
M  V30 691 C 67.9255 -1.80011 -0.495259 0
M  V30 692 C 68.2765 -0.953199 -1.71489 0
M  V30 693 O 67.4015 -0.167138 -2.15754 0
M  V30 694 C 67.9965 -3.26482 -0.905265 0
M  V30 695 C 66.5555 -3.499 -1.38734 0
M  V30 696 C 65.7025 -2.74979 -0.358056 0
M  V30 697 H 68.6535 -1.56425 0.267736 0
M  V30 698 H 68.6745 -3.36887 -1.76882 0
M  V30 699 H 68.1865 -3.88096 -0.017401 0
M  V30 700 H 66.2875 -2.93553 -2.29471 0
M  V30 701 H 66.4005 -4.58615 -1.38598 0
M  V30 702 H 64.7645 -2.40834 -0.828912 0
M  V30 703 H 65.5475 -3.39315 0.521561 0
M  V30 704 N 67.9926 0.231505 -1.5589 0
M  V30 705 C 69.2176 0.978689 -1.82856 0
M  V30 706 C 69.6426 1.77559 -0.620846 0
M  V30 707 O 69.0006 1.76119 0.430305 0
M  V30 708 C 69.0486 1.87997 -3.07716 0
M  V30 709 O 68.1526 2.97393 -2.85712 0
M  V30 710 H 67.4936 0.277663 -0.603158 0
M  V30 711 H 70.0236 0.24783 -2.03093 0
M  V30 712 H 70.0336 2.2917 -3.37558 0
M  V30 713 H 68.7086 1.29417 -3.95252 0
M  V30 714 H 67.2856 2.60238 -2.67078 0
M  V30 715 N 69.4707 1.49531 0.497807 0
M  V30 716 C 70.7177 1.59179 1.25173 0
M  V30 717 C 71.0457 0.279932 1.92475 0
M  V30 718 O 70.3007 -0.732383 1.81479 0
M  V30 719 C 70.5997 2.70252 2.33878 0
M  V30 720 C 70.2657 4.11644 1.84012 0
M  V30 721 C 68.9277 4.50121 1.70132 0
M  V30 722 C 71.2797 5.00121 1.46725 0
M  V30 723 C 68.6077 5.74845 1.17348 0
M  V30 724 C 70.9597 6.25366 0.95392 0
M  V30 725 C 69.6237 6.6267 0.801538 0
M  V30 726 H 68.8937 0.582478 0.45804 0
M  V30 727 H 71.5407 1.83373 0.551948 0
M  V30 728 H 69.8457 2.40041 3.09657 0
M  V30 729 H 71.5427 2.74925 2.9192 0
M  V30 730 H 68.1327 3.81274 1.95775 0
M  V30 731 H 72.3167 4.71048 1.56294 0
M  V30 732 H 67.5727 6.02444 1.04264 0
M  V30 733 H 71.7467 6.93301 0.656225 0
M  V30 734 H 69.3737 7.59197 0.390351 0
M  V30 735 N 70.9488 -0.749086 1.3866 0
M  V30 736 C 71.8808 -1.87273 1.32142 0
M  V30 737 C 72.8938 -1.61127 0.232787 0
M  V30 738 O 74.0828 -1.71623 0.49069 0
M  V30 739 C 71.1828 -3.23005 1.02571 0
M  V30 740 C 70.3558 -3.7662 2.22433 0
M  V30 741 C 69.4148 -4.90879 1.89537 0
M  V30 742 O 68.4408 -5.05276 2.62078 0
M  V30 743 N 69.6428 -5.74198 0.853031 0
M  V30 744 H 72.4078 -1.93373 2.28969 0
M  V30 745 H 69.9688 -0.929216 1.32579 0
M  V30 746 H 71.9608 -3.96992 0.786085 0
M  V30 747 H 70.5308 -3.12262 0.145249 0
M  V30 748 H 69.7508 -2.94147 2.62434 0
M  V30 749 H 71.0388 -4.09173 3.02415 0
M  V30 750 H 70.4368 -5.6514 0.25155 0
M  V30 751 H 68.9938 -6.48313 0.67329 0
M  V30 752 N 72.4269 -1.23603 -0.977757 0
M  V30 753 C 73.3599 -0.962772 -2.06896 0
M  V30 754 C 74.3379 0.0998743 -1.62293 0
M  V30 755 O 75.5219 -0.0349421 -1.88468 0
M  V30 756 C 72.6489 -0.45095 -3.35685 0
M  V30 757 C 71.6949 -1.50061 -3.99229 0
M  V30 758 S 72.5279 -3.07884 -4.38142 0
M  V30 759 C 73.6839 -2.58378 -5.7008 0
M  V30 760 H 73.9169 -1.88677 -2.29757 0
M  V30 761 H 71.4499 -1.06876 -1.11431 0
M  V30 762 H 73.4079 -0.162261 -4.10179 0
M  V30 763 H 72.0689 0.452179 -3.10828 0
M  V30 764 H 71.2619 -1.09269 -4.92013 0
M  V30 765 H 70.8639 -1.73878 -3.31123 0
M  V30 766 H 73.1559 -2.00563 -6.47133 0
M  V30 767 H 74.0989 -3.49711 -6.15717 0
M  V30 768 H 74.5069 -1.99143 -5.28207 0
M  V30 769 N 73.905 1.17692 -1.04816 0
M  V30 770 C 75.13 1.92327 -0.776207 0
M  V30 771 C 75.555 1.76082 0.661581 0
M  V30 772 O 74.913 1.076 1.45917 0
M  V30 773 C 74.961 3.41539 -1.15687 0
M  V30 774 O 74.065 4.11402 -0.286775 0
M  V30 775 H 73.406 0.599735 -0.284981 0
M  V30 776 H 75.936 1.49201 -1.4 0
M  V30 777 H 75.946 3.92269 -1.12202 0
M  V30 778 H 74.621 3.52684 -2.20425 0
M  V30 779 H 73.198 3.70939 -0.381903 0
M  V30 780 N 75.3831 0.828654 1.34056 0
M  V30 781 C 76.6601 0.341809 1.9259 0
M  V30 782 C 77.0401 -1.17158 1.75605 0
M  V30 783 O 76.3881 -1.98132 1.13824 0
M  V30 784 C 76.5981 0.777453 3.4023 0
M  V30 785 C 77.9461 0.779579 4.17382 0
M  V30 786 O 78.9701 0.7204 3.48839 0
M  V30 787 O 77.8291 0.857996 5.39723 0
M  V30 788 H 74.9231 0.0946085 0.821571 0
M  V30 789 H 77.4691 0.913827 1.42994 0
M  V30 790 H 76.2411 1.8196 3.46419 0
M  V30 791 H 75.8641 0.181444 3.97186 0
M  V30 792 N 76.8612 -1.46375 0.584142 0
M  V30 793 C 78.1382 -1.956 0.0033388 0
M  V30 794 C 78.5182 -1.52679 -1.45782 0
M  V30 795 O 77.8662 -0.77816 -2.14842 0
M  V30 796 C 78.0762 -3.48551 0.176891 0
M  V30 797 C 79.4242 -4.24576 0.0454609 0
M  V30 798 O 80.4482 -3.56043 0.105801 0
M  V30 799 O 79.3072 -5.46427 -0.0890376 0
M  V30 800 H 76.4012 -0.825547 -0.0490066 0
M  V30 801 H 78.9472 -1.56652 0.65256 0
M  V30 802 H 77.7192 -3.72683 1.1926 0
M  V30 803 H 77.3422 -3.94332 -0.508695 0
M  V30 804 N 78.3393 -0.321999 -1.54275 0
M  V30 805 C 79.5883 0.281931 -1.9972 0
M  V30 806 C 79.9013 1.53369 -1.21397 0
M  V30 807 O 81.1073 2.21352 -1.57211 0
M  V30 808 C 79.5633 0.5529 -3.55628 0
M  V30 809 C 79.1713 -0.681721 -4.42783 0
M  V30 810 C 80.9153 1.11687 -4.09544 0
M  V30 811 C 78.8223 -0.382742 -5.9016 0
M  V30 812 H 77.7523 0.109124 -0.746062 0
M  V30 813 H 80.4033 -0.43398 -1.78294 0
M  V30 814 H 78.7853 1.32896 -3.73035 0
M  V30 815 H 79.9593 -1.45723 -4.37151 0
M  V30 816 H 78.2743 -1.1658 -3.99748 0
M  V30 817 H 80.8713 1.35515 -5.17242 0
M  V30 818 H 81.2143 2.06575 -3.61431 0
M  V30 819 H 81.7473 0.402032 -3.95763 0
M  V30 820 H 78.4863 -1.30076 -6.42464 0
M  V30 821 H 78.0063 0.355094 -5.98748 0
M  V30 822 H 79.6853 0.00800157 -6.47 0
M  V30 823 N 79.8174 1.5752 -0.0501392 0
M  V30 824 C 81.0944 1.83996 0.663685 0
M  V30 825 C 81.4744 0.938339 1.89099 0
M  V30 826 O 80.8224 -0.00087759 2.285 0
M  V30 827 C 81.0324 3.33702 1.02196 0
M  V30 828 C 82.3804 4.00691 1.40469 0
M  V30 829 O 83.4044 3.38321 1.11433 0
M  V30 830 O 82.2634 5.10658 1.94654 0
M  V30 831 H 79.3574 0.759385 0.32751 0
M  V30 832 H 81.9034 1.69514 -0.0794238 0
M  V30 833 H 80.6754 3.91015 0.149364 0
M  V30 834 H 80.2984 3.53368 1.82255 0
M  V30 835 N 81.2955 -0.223234 1.56011 0
M  V30 836 C 82.5725 -0.972108 1.69733 0
M  V30 837 C 82.9525 -2.02485 0.59691 0
M  V30 838 O 82.3005 -2.25037 -0.396324 0
M  V30 839 C 82.5105 -1.58407 3.10979 0
M  V30 840 C 83.8585 -2.07696 3.70334 0
M  V30 841 O 84.8825 -1.68304 3.1393 0
M  V30 842 O 83.7415 -2.80096 4.69264 0
M  V30 843 H 80.8355 -0.453993 0.691245 0
M  V30 844 H 83.3815 -0.215149 1.68331 0
M  V30 845 H 82.1535 -0.823831 3.82529 0
M  V30 846 H 81.7765 -2.40661 3.16493 0
M  V30 847 N 82.7736 -1.49793 -0.48987 0
M  V30 848 C 84.0226 -1.59085 -1.23995 0
M  V30 849 C 84.3356 -0.287907 -1.9347 0
M  V30 850 O 85.5416 -0.259506 -2.70257 0
M  V30 851 C 83.9976 -2.80736 -2.252 0
M  V30 852 C 83.6056 -4.17833 -1.61614 0
M  V30 853 C 85.3496 -2.99364 -3.00967 0
M  V30 854 C 83.2566 -5.30693 -2.60996 0
M  V30 855 H 82.1866 -0.592372 -0.466488 0
M  V30 856 H 84.8376 -1.76197 -0.51252 0
M  V30 857 H 83.2196 -2.57142 -3.01154 0
M  V30 858 H 84.3936 -4.51608 -0.915774 0
M  V30 859 H 82.7086 -4.04656 -0.981977 0
M  V30 860 H 85.3056 -3.80851 -3.75308 0
M  V30 861 H 85.6486 -2.10356 -3.59244 0
M  V30 862 H 86.1816 -3.2305 -2.32128 0
M  V30 863 H 82.9206 -6.21796 -2.07485 0
M  V30 864 H 82.4406 -5.01359 -3.2924 0
M  V30 865 H 84.1196 -5.6049 -3.23202 0
M  V30 866 N 84.2517 0.741722 -1.39055 0
M  V30 867 C 85.1987 1.85566 -1.37237 0
M  V30 868 C 86.1687 1.64457 -0.233072 0
M  V30 869 O 87.3537 1.85957 -0.427147 0
M  V30 870 C 84.4937 3.23004 -1.215 0
M  V30 871 C 83.6067 3.55864 -2.44918 0
M  V30 872 C 82.7417 4.82669 -2.21821 0
M  V30 873 C 81.7807 5.08351 -3.40948 0
M  V30 874 N 80.9177 6.26356 -3.17211 0
M  V30 875 H 85.7577 1.86455 -2.32462 0
M  V30 876 H 83.2947 0.911176 -1.15482 0
M  V30 877 H 85.2527 4.02331 -1.10389 0
M  V30 878 H 83.8827 3.21411 -0.29908 0
M  V30 879 H 82.9347 2.7129 -2.66657 0
M  V30 880 H 84.2467 3.70765 -3.33668 0
M  V30 881 H 83.4007 5.69962 -2.07914 0
M  V30 882 H 82.1397 4.69929 -1.30454 0
M  V30 883 H 81.1447 4.19522 -3.55361 0
M  V30 884 H 82.3697 5.22981 -4.33207 0
M  V30 885 H 80.3157 6.14917 -2.28502 0
M  V30 886 H 80.2327 6.41813 -3.99515 0
M  V30 887 H 81.5007 7.16506 -3.06984 0
M  V30 888 N 85.7298 1.2412 0.971189 0
M  V30 889 C 86.9758 1.09048 1.71698 0
M  V30 890 C 87.3308 -0.367442 1.88859 0
M  V30 891 O 86.6238 -1.26792 1.43646 0
M  V30 892 C 86.8178 1.75983 3.11071 0
M  V30 893 C 86.6468 3.28133 3.07504 0
M  V30 894 C 85.4168 3.97331 3.1218 0
M  V30 895 C 87.6148 4.24773 2.89952 0
M  V30 896 N 85.5968 5.3639 2.98596 0
M  V30 897 C 86.9678 5.50806 2.84627 0
M  V30 898 C 89.0228 4.15392 2.74506 0
M  V30 899 C 87.7258 6.68533 2.65437 0
M  V30 900 C 89.7518 5.32793 2.56682 0
M  V30 901 C 89.1138 6.57756 2.52063 0
M  V30 902 H 85.2128 0.453632 0.636979 0
M  V30 903 H 87.7968 1.56983 1.15171 0
M  V30 904 H 85.9678 1.30566 3.65796 0
M  V30 905 H 87.6998 1.53803 3.74335 0
M  V30 906 H 84.4548 3.48473 3.20724 0
M  V30 907 H 84.8788 6.09321 2.95054 0
M  V30 908 H 89.5208 3.19543 2.76861 0
M  V30 909 H 87.2388 7.64509 2.61825 0
M  V30 910 H 90.8248 5.27383 2.4568 0
M  V30 911 H 89.7048 7.4707 2.38446 0
M  V30 912 N 87.2079 -1.17134 1.05439 0
M  V30 913 C 88.1179 -2.24878 0.668365 0
M  V30 914 C 89.1339 -1.71186 -0.311687 0
M  V30 915 O 90.3099 -2.00738 -0.163161 0
M  V30 916 C 87.3749 -3.46662 0.051648 0
M  V30 917 C 86.4359 -4.15429 1.08246 0
M  V30 918 C 85.6689 -5.31399 0.495082 0
M  V30 919 O 85.8919 -5.66153 -0.694743 0
M  V30 920 O 84.8259 -5.89187 1.23056 0
M  V30 921 H 88.6519 -2.60189 1.56637 0
M  V30 922 H 86.2369 -1.24482 0.826104 0
M  V30 923 H 88.1189 -4.20394 -0.290966 0
M  V30 924 H 86.7939 -3.13142 -0.819971 0
M  V30 925 H 85.7009 -3.43704 1.47711 0
M  V30 926 H 87.0339 -4.52982 1.92532 0
M  V30 927 N 88.686 -0.835752 -1.33615 0
M  V30 928 C 89.633 -0.26473 -2.29277 0
M  V30 929 C 90.603 0.617712 -1.54187 0
M  V30 930 O 91.788 0.556641 -1.825 0
M  V30 931 C 88.928 0.556777 -3.40579 0
M  V30 932 C 88.041 -0.349339 -4.30585 0
M  V30 933 C 87.176 0.482969 -5.29 0
M  V30 934 C 86.215 -0.421732 -6.10645 0
M  V30 935 N 85.352 0.372262 -7.01112 0
M  V30 936 H 90.192 -1.08582 -2.77514 0
M  V30 937 H 87.729 -0.546927 -1.36554 0
M  V30 938 H 89.687 1.04852 -4.03809 0
M  V30 939 H 88.317 1.34286 -2.93542 0
M  V30 940 H 87.369 -0.959372 -3.68104 0
M  V30 941 H 88.681 -1.04445 -4.87742 0
M  V30 942 H 87.835 1.03866 -5.97743 0
M  V30 943 H 86.574 1.21153 -4.72412 0
M  V30 944 H 85.579 -0.989464 -5.40823 0
M  V30 945 H 86.804 -1.14861 -6.69316 0
M  V30 946 H 84.75 1.08426 -6.46977 0
M  V30 947 H 84.667 -0.264198 -7.55538 0
M  V30 948 H 85.935 0.910293 -7.74167 0
M  V30 949 N 90.1641 1.46063 -0.591896 0
M  V30 950 C 91.3921 2.06717 -0.0868936 0
M  V30 951 C 91.8071 1.43916 1.22203 0
M  V30 952 O 91.1641 0.547698 1.74088 0
M  V30 953 C 91.2151 3.6142 0.0758725 0
M  V30 954 O 90.9361 4.21874 -1.18126 0
M  V30 955 C 92.4371 4.39025 0.61416 0
M  V30 956 H 89.6571 0.668162 -0.0616518 0
M  V30 957 H 92.2011 1.8755 -0.815175 0
M  V30 958 H 90.3561 3.79983 0.754413 0
M  V30 959 H 90.7701 5.14861 -1.00092 0
M  V30 960 H 92.2441 5.4783 0.677193 0
M  V30 961 H 92.7211 4.07708 1.63312 0
M  V30 962 H 93.3271 4.2529 -0.0298142 0
M  V30 963 N 91.6422 0.330177 1.54103 0
M  V30 964 C 92.8672 -0.274893 2.0557 0
M  V30 965 C 93.2922 -1.44487 1.20437 0
M  V30 966 O 92.6502 -1.80021 0.214991 0
M  V30 967 C 92.6982 -0.68079 3.54115 0
M  V30 968 O 91.8022 -1.7824 3.71893 0
M  V30 969 H 91.1432 -0.0483849 0.662235 0
M  V30 970 H 93.6732 0.480508 1.98878 0
M  V30 971 H 93.6832 -0.961635 3.96505 0
M  V30 972 H 92.3582 0.174903 4.15532 0
M  V30 973 H 90.9352 -1.49985 3.41407 0
M  V30 974 N 93.1203 -1.57491 0.0584922 0
M  V30 975 C 94.3973 -1.84346 -0.653918 0
M  V30 976 C 94.7773 -0.948355 -1.88599 0
M  V30 977 O 94.1253 -0.0112403 -2.28497 0
M  V30 978 C 94.3353 -3.34239 -1.00425 0
M  V30 979 C 95.6833 -4.01431 -1.38342 0
M  V30 980 O 96.7073 -3.38907 -1.09637 0
M  V30 981 O 95.5663 -5.11683 -1.91943 0
M  V30 982 H 92.6603 -0.761112 -0.323478 0
M  V30 983 H 95.2063 -1.6947 0.0884125 0
M  V30 984 H 93.9783 -3.91089 -0.128625 0
M  V30 985 H 93.6013 -3.54329 -1.80378 0
M  V30 986 N 94.5984 0.214957 -1.56127 0
M  V30 987 C 95.5454 1.26642 -1.92952 0
M  V30 988 C 96.5154 1.46244 -0.78753 0
M  V30 989 O 97.7004 1.59704 -1.04399 0
M  V30 990 C 94.8404 2.6104 -2.25726 0
M  V30 991 C 93.9534 2.49183 -3.52891 0
M  V30 992 C 93.0884 3.76149 -3.7508 0
M  V30 993 C 92.1274 3.59041 -4.95738 0
M  V30 994 N 91.2644 4.77972 -5.14283 0
M  V30 995 H 96.1044 0.945384 -2.82607 0
M  V30 996 H 93.6414 0.455489 -1.3987 0
M  V30 997 H 95.5994 3.39313 -2.42739 0
M  V30 998 H 94.2294 2.91227 -1.39236 0
M  V30 999 H 93.2814 1.6231 -3.44034 0
M  V30 1000 H 94.5934 2.32466 -4.41318 0
M  V30 1001 H 93.7474 4.62865 -3.92226 0
M  V30 1002 H 92.4864 3.95799 -2.84947 0
M  V30 1003 H 91.4914 2.7071 -4.78535 0
M  V30 1004 H 92.7164 3.40856 -5.87362 0
M  V30 1005 H 90.6624 4.97923 -4.27093 0
M  V30 1006 H 90.5794 4.64006 -5.96853 0
M  V30 1007 H 91.8474 5.66096 -5.35869 0
M  V30 1008 N 96.0765 1.50051 0.48192 0
M  V30 1009 C 97.0235 1.68122 1.58125 0
M  V30 1010 C 97.9935 0.522545 1.57666 0
M  V30 1011 O 99.1785 0.751844 1.75362 0
M  V30 1012 C 96.3185 1.77142 2.96167 0
M  V30 1013 C 95.4315 3.0444 3.06497 0
M  V30 1014 C 94.5665 3.04321 4.35387 0
M  V30 1015 C 93.6055 4.26118 4.3942 0
M  V30 1016 N 92.7425 4.238 5.59766 0
M  V30 1017 H 97.5825 2.6198 1.42022 0
M  V30 1018 H 95.1195 1.29877 0.690687 0
M  V30 1019 H 97.0775 1.80352 3.76203 0
M  V30 1020 H 95.7075 0.867329 3.1093 0
M  V30 1021 H 94.7595 3.10752 2.19402 0
M  V30 1022 H 96.0715 3.94426 3.05336 0
M  V30 1023 H 95.2255 3.062 5.23762 0
M  V30 1024 H 93.9645 2.12147 4.39141 0
M  V30 1025 H 92.9695 4.24463 3.49444 0
M  V30 1026 H 94.1945 5.19507 4.37366 0
M  V30 1027 H 92.1405 3.34474 5.64326 0
M  V30 1028 H 92.0575 5.07542 5.60301 0
M  V30 1029 H 93.3255 4.2981 6.50295 0
M  V30 1030 N 97.5546 -0.734337 1.39446 0
M  V30 1031 C 98.5016 -1.84835 1.38219 0
M  V30 1032 C 99.4716 -1.64331 0.24179 0
M  V30 1033 O 100.657 -1.85728 0.437002 0
M  V30 1034 C 97.7966 -3.22355 1.23212 0
M  V30 1035 C 96.9096 -3.5456 2.46801 0
M  V30 1036 C 96.0446 -4.81485 2.24377 0
M  V30 1037 C 95.0836 -5.06536 3.43639 0
M  V30 1038 N 94.2206 -6.24665 3.20528 0
M  V30 1039 H 99.0606 -1.85219 2.33448 0
M  V30 1040 H 96.5976 -0.905039 1.15963 0
M  V30 1041 H 98.5556 -4.0174 1.12522 0
M  V30 1042 H 97.1856 -3.21248 0.316121 0
M  V30 1043 H 96.2376 -2.69872 2.68092 0
M  V30 1044 H 97.5496 -3.6899 3.3563 0
M  V30 1045 H 96.7036 -5.68852 2.10933 0
M  V30 1046 H 95.4426 -4.6923 1.32944 0
M  V30 1047 H 94.4476 -4.17632 3.5758 0
M  V30 1048 H 95.6726 -5.20676 4.35974 0
M  V30 1049 H 93.6186 -6.13696 2.3176 0
M  V30 1050 H 93.5356 -6.39685 4.02913 0
M  V30 1051 H 94.8036 -7.14868 3.10779 0
M  V30 1052 N 99.0327 -1.24633 -0.964593 0
M  V30 1053 C 100.282 -1.08188 -1.7023 0
M  V30 1054 C 100.595 0.37873 -1.91898 0
M  V30 1055 O 101.801 0.663427 -2.6327 0
M  V30 1056 C 100.257 -1.88773 -3.06419 0
M  V30 1057 C 99.8647 -3.39263 -2.92582 0
M  V30 1058 C 101.609 -1.80867 -3.84041 0
M  V30 1059 C 99.5157 -4.1218 -4.24101 0
M  V30 1060 H 98.4457 -0.401245 -0.638372 0
M  V30 1061 H 101.097 -1.48742 -1.07462 0
M  V30 1062 H 99.4787 -1.41035 -3.70034 0
M  V30 1063 H 100.653 -3.94603 -2.37961 0
M  V30 1064 H 98.9677 -3.48154 -2.28424 0
M  V30 1065 H 101.565 -2.32646 -4.81435 0
M  V30 1066 H 101.908 -0.774543 -4.09031 0
M  V30 1067 H 102.441 -2.26301 -3.27159 0
M  V30 1068 H 99.1797 -5.15965 -4.04303 0
M  V30 1069 H 98.6997 -3.61626 -4.78526 0
M  V30 1070 H 100.379 -4.19349 -4.92702 0
M  V30 1071 N 100.511 1.16574 -1.06058 0
M  V30 1072 C 101.474 2.19085 -0.673392 0
M  V30 1073 C 102.474 1.5835 0.279648 0
M  V30 1074 O 103.664 1.74088 0.0623488 0
M  V30 1075 C 100.796 3.40899 0.00954234 0
M  V30 1076 H 101.989 2.54853 -1.58081 0
M  V30 1077 H 99.5418 1.30808 -0.855516 0
M  V30 1078 H 100.277 3.10684 0.929826 0
M  V30 1079 H 100.062 3.86233 -0.67573 0
M  V30 1080 H 101.552 4.1675 0.266245 0
M  V30 1081 N 101.989 0.842826 1.3317 0
M  V30 1082 C 102.921 0.236245 2.27979 0
M  V30 1083 C 103.934 -0.585282 1.51915 0
M  V30 1084 O 105.123 -0.411705 1.73687 0
M  V30 1085 C 102.223 -0.685717 3.3189 0
M  V30 1086 C 101.396 0.0973448 4.37292 0
M  V30 1087 C 100.455 -0.748565 5.20848 0
M  V30 1088 O 99.4809 -0.186339 5.68895 0
M  V30 1089 N 100.683 -2.06527 5.42519 0
M  V30 1090 H 103.448 1.05088 2.80672 0
M  V30 1091 H 101.009 0.701667 1.45905 0
M  V30 1092 H 103.001 -1.25669 3.84694 0
M  V30 1093 H 101.571 -1.40105 2.79445 0
M  V30 1094 H 100.791 0.849706 3.84933 0
M  V30 1095 H 102.079 0.635643 5.04814 0
M  V30 1096 H 101.477 -2.54554 5.05192 0
M  V30 1097 H 100.034 -2.58464 5.98364 0
M  V30 1098 N 103.467 -1.45747 0.599634 0
M  V30 1099 C 104.714 -2.02292 0.0917284 0
M  V30 1100 C 105.042 -1.46906 -1.27472 0
M  V30 1101 O 104.297 -0.630652 -1.8526 0
M  V30 1102 C 104.596 -3.57399 -0.00602758 0
M  V30 1103 C 104.262 -4.31902 1.29503 0
M  V30 1104 C 102.924 -4.51974 1.65144 0
M  V30 1105 C 105.276 -4.74551 2.15525 0
M  V30 1106 C 102.604 -5.11949 2.86574 0
M  V30 1107 C 104.956 -5.35868 3.36196 0
M  V30 1108 C 103.62 -5.54165 3.72099 0
M  V30 1109 H 102.89 -0.740239 0.0335658 0
M  V30 1110 H 105.537 -1.7491 0.779661 0
M  V30 1111 H 103.842 -3.84014 -0.777183 0
M  V30 1112 H 105.539 -3.98846 -0.415038 0
M  V30 1113 H 102.129 -4.16588 1.00761 0
M  V30 1114 H 106.313 -4.58784 1.8929 0
M  V30 1115 H 101.569 -5.24305 3.14507 0
M  V30 1116 H 105.743 -5.6787 4.03109 0
M  V30 1117 H 103.37 -6.00406 4.6628 0
M  V30 1118 N 104.945 -0.338344 -1.53925 0
M  V30 1119 C 106.361 0.0137736 -1.59594 0
M  V30 1120 C 106.561 1.49186 -1.35447 0
M  V30 1121 O 105.617 2.24987 -1.14616 0
M  V30 1122 C 106.93 -0.41773 -2.97784 0
M  V30 1123 C 108.478 -0.369633 -3.1081 0
M  V30 1124 C 108.953 -0.776524 -4.51369 0
M  V30 1125 N 110.444 -0.730506 -4.57403 0
M  V30 1126 C 111.179 -1.01736 -5.64303 0
M  V30 1127 N 110.675 -1.3721 -6.79077 0
M  V30 1128 N 112.468 -0.941942 -5.54151 0
M  V30 1129 H 104.619 -1.3012 -1.67876 0
M  V30 1130 H 106.882 -0.530082 -0.78595 0
M  V30 1131 H 106.588 -1.44811 -3.20504 0
M  V30 1132 H 106.462 0.209729 -3.76616 0
M  V30 1133 H 108.849 0.651568 -2.87817 0
M  V30 1134 H 108.93 -1.03223 -2.34049 0
M  V30 1135 H 108.574 -1.79571 -4.75096 0
M  V30 1136 H 108.504 -0.0914649 -5.26521 0
M  V30 1137 H 110.995 -0.468783 -3.74981 0
M  V30 1138 H 111.308 -1.57597 -7.5656 0
M  V30 1139 H 109.653 -1.4105 -6.80536 0
M  V30 1140 H 112.844 -0.664184 -4.63364 0
M  V30 1141 H 113.017 -1.16884 -6.37371 0
M  V30 1142 N 106.423 1.57458 -0.0668435 0
M  V30 1143 C 107.37 2.12439 0.902122 0
M  V30 1144 C 108.34 1.03565 1.2986 0
M  V30 1145 O 109.525 1.312 1.38532 0
M  V30 1146 C 106.665 2.6865 2.16614 0
M  V30 1147 C 105.778 3.91663 1.82274 0
M  V30 1148 C 104.913 4.36134 3.0325 0
M  V30 1149 C 103.952 5.51808 2.64904 0
M  V30 1150 N 103.089 5.9126 3.78624 0
M  V30 1151 H 107.929 2.94934 0.426382 0
M  V30 1152 H 105.466 1.4575 0.198819 0
M  V30 1153 H 107.424 2.99346 2.90599 0
M  V30 1154 H 106.054 1.88928 2.61737 0
M  V30 1155 H 105.106 3.6746 0.983719 0
M  V30 1156 H 106.418 4.75693 1.50059 0
M  V30 1157 H 105.572 4.68465 3.85519 0
M  V30 1158 H 104.311 3.50948 3.38655 0
M  V30 1159 H 103.316 5.19133 1.81055 0
M  V30 1160 H 104.541 6.38722 2.30675 0
M  V30 1161 H 102.487 5.09024 4.138 0
M  V30 1162 H 102.404 6.70018 3.5016 0
M  V30 1163 H 103.672 6.28212 4.61486 0
M  V30 1164 N 107.901 -0.206675 1.56239 0
M  V30 1165 C 108.811 -1.27686 1.96808 0
M  V30 1166 C 109.827 -1.50455 0.874035 0
M  V30 1167 O 111.003 -1.63295 1.17884 0
M  V30 1168 C 108.068 -2.60358 2.28942 0
M  V30 1169 C 107.129 -2.45762 3.51994 0
M  V30 1170 C 106.362 -3.72108 3.82585 0
M  V30 1171 O 106.585 -4.75776 3.14631 0
M  V30 1172 O 105.519 -3.6833 4.76043 0
M  V30 1173 H 109.345 -0.962593 2.88041 0
M  V30 1174 H 106.93 -0.410746 1.43643 0
M  V30 1175 H 108.812 -3.38687 2.50737 0
M  V30 1176 H 107.487 -2.91435 1.4088 0
M  V30 1177 H 106.394 -1.65584 3.35459 0
M  V30 1178 H 107.727 -2.19621 4.40486 0
M  V30 1179 N 109.379 -1.50304 -0.473955 0
M  V30 1180 C 110.326 -1.68959 -1.57231 0
M  V30 1181 C 111.296 -0.530899 -1.57387 0
M  V30 1182 O 112.481 -0.761133 -1.74961 0
M  V30 1183 C 109.621 -1.7871 -2.95223 0
M  V30 1184 C 108.734 -3.06061 -3.04878 0
M  V30 1185 C 107.869 -3.06626 -4.33767 0
M  V30 1186 C 106.908 -4.28443 -4.37154 0
M  V30 1187 N 106.045 -4.26763 -5.5751 0
M  V30 1188 H 110.885 -2.6273 -1.40631 0
M  V30 1189 H 108.422 -1.30241 -0.683789 0
M  V30 1190 H 110.38 -1.82344 -3.75242 0
M  V30 1191 H 109.01 -0.883806 -3.10465 0
M  V30 1192 H 108.062 -3.11911 -2.17751 0
M  V30 1193 H 109.374 -3.96039 -3.0324 0
M  V30 1194 H 108.528 -3.08973 -5.22131 0
M  V30 1195 H 107.267 -2.14473 -4.3801 0
M  V30 1196 H 106.272 -4.2631 -3.47188 0
M  V30 1197 H 107.497 -5.2182 -4.34605 0
M  V30 1198 H 105.443 -3.37462 -5.62544 0
M  V30 1199 H 105.36 -5.10507 -5.57601 0
M  V30 1200 H 106.628 -4.33253 -6.48006 0
M  V30 1201 N 110.857 0.726932 -1.39834 0
M  V30 1202 C 111.767 1.87131 -1.41489 0
M  V30 1203 C 112.783 1.71239 -0.308757 0
M  V30 1204 O 113.959 1.93701 -0.551529 0
M  V30 1205 C 111.024 3.22811 -1.26468 0
M  V30 1206 C 110.085 3.51039 -2.47124 0
M  V30 1207 C 109.318 4.80245 -2.3281 0
M  V30 1208 O 109.541 5.54537 -1.33585 0
M  V30 1209 O 108.475 5.08554 -3.21957 0
M  V30 1210 H 112.301 1.8869 -2.3797 0
M  V30 1211 H 109.886 0.875837 -1.21035 0
M  V30 1212 H 111.768 4.03877 -1.20255 0
M  V30 1213 H 110.443 3.22005 -0.330862 0
M  V30 1214 H 109.35 2.70027 -2.58914 0
M  V30 1215 H 110.683 3.56632 -3.39227 0
M  V30 1216 N 112.336 1.25143 0.95797 0
M  V30 1217 C 113.564 1.12424 1.73691 0
M  V30 1218 C 113.979 -0.322304 1.86029 0
M  V30 1219 O 113.336 -1.22186 1.35561 0
M  V30 1220 C 113.387 1.76933 3.15241 0
M  V30 1221 O 113.108 3.15932 3.03511 0
M  V30 1222 C 114.609 1.6995 4.09429 0
M  V30 1223 H 111.829 0.3923 0.544373 0
M  V30 1224 H 114.373 1.6544 1.20207 0
M  V30 1225 H 112.528 1.27895 3.6568 0
M  V30 1226 H 112.942 3.47598 3.9278 0
M  V30 1227 H 114.416 2.19753 5.06372 0
M  V30 1228 H 114.893 0.662619 4.34173 0
M  V30 1229 H 115.499 2.18461 3.64904 0
M  V30 1230 N 113.814 -1.1601 1.06675 0
M  V30 1231 C 115.061 -1.86633 0.785781 0
M  V30 1232 C 115.389 -1.81929 -0.687896 0
M  V30 1233 O 114.644 -1.23253 -1.52011 0
M  V30 1234 C 114.943 -3.35547 1.23057 0
M  V30 1235 C 114.609 -3.60448 2.70902 0
M  V30 1236 C 113.271 -3.66954 3.11285 0
M  V30 1237 C 115.623 -3.7071 3.66365 0
M  V30 1238 C 112.951 -3.81225 4.45965 0
M  V30 1239 C 115.303 -3.86503 5.00797 0
M  V30 1240 C 113.967 -3.91252 5.40813 0
M  V30 1241 H 113.237 -0.682937 0.287538 0
M  V30 1242 H 115.884 -1.37146 1.33654 0
M  V30 1243 H 114.189 -3.87193 0.59907 0
M  V30 1244 H 115.886 -3.88583 0.990163 0
M  V30 1245 H 112.476 -3.56021 2.38636 0
M  V30 1246 H 116.66 -3.64991 3.36296 0
M  V30 1247 H 111.916 -3.83155 4.76447 0
M  V30 1248 H 116.09 -3.93385 5.74649 0
M  V30 1249 H 113.717 -4.02062 6.45174 0
M  V30 1250 N 115.292 -0.849877 -1.32721 0
M  V30 1251 C 116.239 -0.289033 -2.28983 0
M  V30 1252 C 117.209 0.601324 -1.54833 0
M  V30 1253 O 118.394 0.537253 -1.8308 0
M  V30 1254 C 115.534 0.520623 -3.4115 0
M  V30 1255 C 114.647 -0.394989 -4.3019 0
M  V30 1256 C 113.782 0.426834 -5.29482 0
M  V30 1257 C 112.821 -0.486476 -6.10164 0
M  V30 1258 N 111.958 0.297879 -7.01468 0
M  V30 1259 H 116.798 -1.11519 -2.76347 0
M  V30 1260 H 114.335 -0.56138 -1.35967 0
M  V30 1261 H 116.293 1.00563 -4.04899 0
M  V30 1262 H 114.923 1.31165 -2.9495 0
M  V30 1263 H 113.975 -0.99836 -3.67065 0
M  V30 1264 H 115.287 -1.09612 -4.86607 0
M  V30 1265 H 114.441 0.975205 -5.98811 0
M  V30 1266 H 113.18 1.16136 -4.73671 0
M  V30 1267 H 112.185 -1.04677 -5.39743 0
M  V30 1268 H 113.41 -1.21953 -6.6806 0
M  V30 1269 H 111.356 1.01558 -6.48091 0
M  V30 1270 H 111.273 -0.344318 -7.55216 0
M  V30 1271 H 112.541 0.828131 -7.75089 0
M  V30 1272 N 116.77 1.45427 -0.607355 0
M  V30 1273 C 117.68 2.34325 0.113463 0
M  V30 1274 C 118.696 1.51226 0.860617 0
M  V30 1275 O 119.872 1.84029 0.818255 0
M  V30 1276 C 116.937 3.28839 1.09844 0
M  V30 1277 C 115.998 4.27844 0.353271 0
M  V30 1278 C 115.231 5.17842 1.29133 0
M  V30 1279 O 115.454 5.11264 2.52913 0
M  V30 1280 O 114.388 5.96713 0.788523 0
M  V30 1281 H 118.214 2.97364 -0.617094 0
M  V30 1282 H 115.799 1.44807 -0.367619 0
M  V30 1283 H 117.681 3.8708 1.66575 0
M  V30 1284 H 116.356 2.68365 1.81003 0
M  V30 1285 H 115.263 3.7322 -0.256494 0
M  V30 1286 H 116.596 4.91173 -0.317822 0
M  V30 1287 N 118.248 0.346503 1.53744 0
M  V30 1288 C 119.195 -0.508914 2.25119 0
M  V30 1289 C 120.165 -1.09315 1.25058 0
M  V30 1290 O 121.35 -1.12921 1.53797 0
M  V30 1291 C 118.49 -1.65246 3.02965 0
M  V30 1292 C 117.603 -1.09525 4.17886 0
M  V30 1293 C 116.738 -2.20634 4.83212 0
M  V30 1294 C 115.777 -1.62279 5.90196 0
M  V30 1295 N 114.914 -2.67143 6.49291 0
M  V30 1296 H 119.754 0.106283 2.9781 0
M  V30 1297 H 117.291 0.0642227 1.4696 0
M  V30 1298 H 119.249 -2.32574 3.4636 0
M  V30 1299 H 117.879 -2.2386 2.32565 0
M  V30 1300 H 116.931 -0.312818 3.79112 0
M  V30 1301 H 118.243 -0.628444 4.94825 0
M  V30 1302 H 117.397 -2.95821 5.29693 0
M  V30 1303 H 116.136 -2.70659 4.05703 0
M  V30 1304 H 115.141 -0.855989 5.43096 0
M  V30 1305 H 116.366 -1.13102 6.69615 0
M  V30 1306 H 114.312 -3.16417 5.74645 0
M  V30 1307 H 114.229 -2.25093 7.21713 0
M  V30 1308 H 115.497 -3.4209 7.00425 0
M  V30 1309 N 119.726 -1.57421 0.075193 0
M  V30 1310 C 121.003 -1.85029 -0.634329 0
M  V30 1311 C 121.383 -0.968305 -1.87582 0
M  V30 1312 O 120.731 -0.0354749 -2.28472 0
M  V30 1313 C 120.941 -3.35286 -0.968742 0
M  V30 1314 C 122.289 -4.02875 -1.34077 0
M  V30 1315 O 123.313 -3.40051 -1.06037 0
M  V30 1316 O 122.172 -5.13691 -1.86506 0
M  V30 1317 H 119.266 -0.7645 -0.315387 0
M  V30 1318 H 121.812 -1.69366 0.106382 0
M  V30 1319 H 120.584 -3.91203 -0.0871376 0
M  V30 1320 H 120.207 -3.56223 -1.7661 0
M  V30 1321 N 121.204 0.198386 -1.56346 0
M  V30 1322 C 122.432 0.935572 -1.84539 0
M  V30 1323 C 122.847 1.76989 -0.657281 0
M  V30 1324 O 122.204 1.78626 0.374043 0
M  V30 1325 C 122.255 1.8344 -3.11499 0
M  V30 1326 O 121.976 1.03377 -4.25728 0
M  V30 1327 C 123.477 2.68355 -3.52846 0
M  V30 1328 H 120.697 0.273126 -0.612897 0
M  V30 1329 H 123.241 0.20663 -2.03453 0
M  V30 1330 H 121.396 2.51701 -2.94492 0
M  V30 1331 H 121.81 1.64599 -4.98003 0
M  V30 1332 H 123.284 3.27085 -4.44657 0
M  V30 1333 H 123.761 3.41901 -2.75681 0
M  V30 1334 H 124.367 2.05471 -3.72373 0
M  V30 1335 N 122.682 1.50554 0.465978 0
M  V30 1336 C 123.912 1.65323 1.23903 0
M  V30 1337 C 124.32 0.338051 1.86155 0
M  V30 1338 O 123.663 -0.690518 1.70228 0
M  V30 1339 C 123.725 2.69048 2.3844 0
M  V30 1340 C 123.389 4.12462 1.96784 0
M  V30 1341 C 124.386 4.98168 1.48745 0
M  V30 1342 C 122.071 4.58407 2.05349 0
M  V30 1343 C 124.065 6.27868 1.0982 0
M  V30 1344 C 121.752 5.88112 1.66035 0
M  V30 1345 C 122.75 6.72668 1.18349 0
M  V30 1346 O 122.438 7.99951 0.795825 0
M  V30 1347 H 122.17 0.558629 0.38067 0
M  V30 1348 H 124.724 1.97561 0.562022 0
M  V30 1349 H 122.954 2.32062 3.09328 0
M  V30 1350 H 124.643 2.72985 3.0039 0
M  V30 1351 H 125.409 4.63885 1.41546 0
M  V30 1352 H 121.288 3.92735 2.41414 0
M  V30 1353 H 124.832 6.93819 0.725293 0
M  V30 1354 H 120.729 6.21914 1.72895 0
M  V30 1355 H 121.497 8.13265 0.924222 0
M  V30 1356 N 124.16 -0.719506 1.40217 0
M  V30 1357 C 125.107 -1.83359 1.40172 0
M  V30 1358 C 126.077 -1.64065 0.259206 0
M  V30 1359 O 127.262 -1.85254 0.456677 0
M  V30 1360 C 124.402 -3.2103 1.26624 0
M  V30 1361 C 123.515 -3.51923 2.50548 0
M  V30 1362 C 122.65 -4.79079 2.29471 0
M  V30 1363 C 121.689 -5.02863 3.48992 0
M  V30 1364 N 120.826 -6.2123 3.27135 0
M  V30 1365 H 125.666 -1.82733 2.35399 0
M  V30 1366 H 123.203 -0.892688 1.16917 0
M  V30 1367 H 125.161 -4.00524 1.16776 0
M  V30 1368 H 123.791 -3.20895 0.350176 0
M  V30 1369 H 122.843 -2.67014 2.70939 0
M  V30 1370 H 124.155 -3.6541 3.39525 0
M  V30 1371 H 123.309 -5.66582 2.16955 0
M  V30 1372 H 122.048 -4.67794 1.37913 0
M  V30 1373 H 121.053 -4.13816 3.6199 0
M  V30 1374 H 122.278 -5.16023 4.41472 0
M  V30 1375 H 120.224 -6.11204 2.38256 0
M  V30 1376 H 120.141 -6.35375 4.09675 0
M  V30 1377 H 121.409 -7.11532 3.18344 0
M  V30 1378 N 125.638 -1.25649 -0.95132 0
M  V30 1379 C 126.568 -1.08808 -2.06599 0
M  V30 1380 C 127.549 0.00382547 -1.701 0
M  V30 1381 O 128.734 -0.166325 -1.93486 0
M  V30 1382 C 125.864 -0.709542 -3.39975 0
M  V30 1383 C 124.818 -1.75206 -3.90496 0
M  V30 1384 C 124.144 -1.22811 -5.20405 0
M  V30 1385 C 125.444 -3.15153 -4.16504 0
M  V30 1386 H 127.138 -2.02048 -2.20946 0
M  V30 1387 H 124.684 -0.972835 -1.06169 0
M  V30 1388 H 126.637 -0.578649 -4.17408 0
M  V30 1389 H 125.361 0.258556 -3.25575 0
M  V30 1390 H 124.02 -1.87145 -3.15234 0
M  V30 1391 H 123.668 -0.250145 -5.02378 0
M  V30 1392 H 123.368 -1.92492 -5.55176 0
M  V30 1393 H 124.892 -1.10968 -6.00432 0
M  V30 1394 H 126.306 -3.06349 -4.84586 0
M  V30 1395 H 124.703 -3.82333 -4.62538 0
M  V30 1396 H 125.773 -3.61966 -3.22658 0
M  V30 1397 N 127.117 1.15442 -1.07289 0
M  V30 1398 C 128.364 1.86213 -0.795668 0
M  V30 1399 C 128.692 1.82291 0.678238 0
M  V30 1400 O 127.947 1.24057 1.51355 0
M  V30 1401 C 128.246 3.3489 -1.24834 0
M  V30 1402 C 127.912 3.59007 -2.72809 0
M  V30 1403 C 126.574 3.65298 -3.13227 0
M  V30 1404 C 128.926 3.68762 -3.68326 0
M  V30 1405 C 126.254 3.78854 -4.4798 0
M  V30 1406 C 128.606 3.83842 -5.0284 0
M  V30 1407 C 127.27 3.88378 -5.4288 0
M  V30 1408 H 126.54 0.681403 -0.291155 0
M  V30 1409 H 129.187 1.36435 -1.34379 0
M  V30 1410 H 127.492 3.8687 -0.619595 0
M  V30 1411 H 129.189 3.88052 -1.01076 0
M  V30 1412 H 125.779 3.5475 -2.40521 0
M  V30 1413 H 129.963 3.63202 -3.38227 0
M  V30 1414 H 125.219 3.80623 -4.78472 0
M  V30 1415 H 129.393 3.90332 -5.76727 0
M  V30 1416 H 127.02 3.98635 -6.47298 0
M  V30 1417 N 128.595 0.856903 1.32268 0
M  V30 1418 C 129.542 0.301172 2.28827 0
M  V30 1419 C 130.512 -0.593104 1.5515 0
M  V30 1420 O 131.697 -0.527537 1.83362 0
M  V30 1421 C 128.837 -0.502523 3.41422 0
M  V30 1422 C 127.95 0.417797 4.29975 0
M  V30 1423 C 127.085 -0.398749 5.29701 0
M  V30 1424 C 126.124 0.518827 6.09897 0
M  V30 1425 N 125.261 -0.260674 7.01616 0
M  V30 1426 H 130.101 1.12983 2.75751 0
M  V30 1427 H 127.638 0.568582 1.35667 0
M  V30 1428 H 129.596 -0.984141 4.05426 0
M  V30 1429 H 128.226 -1.29599 2.95642 0
M  V30 1430 H 127.278 1.01781 3.66531 0
M  V30 1431 H 128.59 1.12191 4.86019 0
M  V30 1432 H 127.744 -0.943435 5.9932 0
M  V30 1433 H 126.483 -1.13622 4.7428 0
M  V30 1434 H 125.488 1.07538 5.39181 0
M  V30 1435 H 126.713 1.25495 6.67404 0
M  V30 1436 H 124.659 -0.981198 6.4862 0
M  V30 1437 H 124.576 0.384364 7.55022 0
M  V30 1438 H 125.844 -0.787014 7.75517 0
M  V30 1439 N 130.073 -1.45103 0.615059 0
M  V30 1440 C 131.021 -2.32331 -0.111791 0
M  V30 1441 C 132.015 -1.46409 -0.852102 0
M  V30 1442 O 133.221 -1.62849 -0.766821 0
M  V30 1443 H 129.596 -0.749993 -0.0549072 0
M  V30 1444 H 131.567 -2.91407 0.642225 0
M  V30 1445 C 130.316 -3.3015 -1.09071 0
M  V30 1446 H 129.639 -3.96265 -0.530485 0
M  V30 1447 H 131.079 -3.93898 -1.56908 0
M  V30 1448 C 129.538 -2.57875 -2.168 0
M  V30 1449 O 130.068 -2.36567 -3.24652 0
M  V30 1450 N 128.274 -2.17884 -1.92289 0
M  V30 1451 H 127.821 -2.35413 -1.04587 0
M  V30 1452 H 127.779 -1.6985 -2.64572 0
M  V30 1453 N 131.551 -0.354651 -1.53558 0
M  V30 1454 C 132.799 0.237972 -2.00694 0
M  V30 1455 C 133.12 1.50173 -1.24391 0
M  V30 1456 O 132.39 1.92673 -0.354135 0
M  V30 1457 H 130.97 0.0909256 -0.741446 0
M  V30 1458 H 133.632 -0.478368 -1.88938 0
M  V30 1459 H 132.728 0.47264 -3.085 0
M  V30 1460 N 133.029 1.57378 -0.0835403 0
M  V30 1461 C 134.257 1.98263 0.59157 0
M  V30 1462 C 134.672 0.962302 1.62435 0
M  V30 1463 O 134.029 -0.049581 1.82433 0
M  V30 1464 C 134.08 3.39214 1.24965 0
M  V30 1465 O 133.801 4.37339 0.258186 0
M  V30 1466 C 135.302 3.95038 2.01147 0
M  V30 1467 H 132.522 0.651773 0.159477 0
M  V30 1468 H 135.066 2.03878 -0.159415 0
M  V30 1469 H 133.221 3.34649 1.95164 0
M  V30 1470 H 133.635 5.19371 0.731734 0
M  V30 1471 H 135.109 4.95848 2.42567 0
M  V30 1472 H 135.586 3.32222 2.87272 0
M  V30 1473 H 136.192 4.0304 1.35789 0
M  V30 1474 N 134.507 -0.190092 1.56449 0
M  V30 1475 C 135.437 -1.23816 1.97969 0
M  V30 1476 C 136.418 -1.47201 0.852395 0
M  V30 1477 O 137.603 -1.58854 1.1171 0
M  V30 1478 C 134.733 -2.5813 2.3235 0
M  V30 1479 C 133.687 -2.49348 3.47864 0
M  V30 1480 C 133.013 -3.8798 3.67934 0
M  V30 1481 C 134.313 -2.01424 4.81898 0
M  V30 1482 H 136.007 -0.89311 2.85769 0
M  V30 1483 H 133.553 -0.428177 1.37487 0
M  V30 1484 H 135.506 -3.31637 2.59991 0
M  V30 1485 H 134.23 -2.94386 1.41438 0
M  V30 1486 H 132.889 -1.78297 3.20321 0
M  V30 1487 H 132.537 -4.21597 2.74344 0
M  V30 1488 H 132.237 -3.82978 4.45648 0
M  V30 1489 H 133.761 -4.63101 3.97957 0
M  V30 1490 H 135.175 -2.64693 5.08538 0
M  V30 1491 H 133.572 -2.07413 5.63116 0
M  V30 1492 H 134.642 -0.967677 4.75146 0
M  V30 1493 N 135.985 -1.50799 -0.457987 0
M  V30 1494 C 136.932 -1.70617 -1.5543 0
M  V30 1495 C 137.902 -0.547562 -1.56815 0
M  V30 1496 O 139.087 -0.779647 -1.74144 0
M  V30 1497 C 136.227 -1.81831 -2.93311 0
M  V30 1498 C 135.34 -3.09278 -3.01615 0
M  V30 1499 C 134.475 -3.11209 -4.30491 0
M  V30 1500 C 133.514 -4.33055 -4.32585 0
M  V30 1501 N 132.651 -4.32652 -5.52952 0
M  V30 1502 H 137.491 -2.64207 -1.37836 0
M  V30 1503 H 135.028 -1.30959 -0.669937 0
M  V30 1504 H 136.986 -1.86314 -3.73287 0
M  V30 1505 H 135.616 -0.916685 -3.0951 0
M  V30 1506 H 134.668 -3.14203 -2.1443 0
M  V30 1507 H 135.98 -3.99233 -2.99022 0
M  V30 1508 H 135.134 -3.14494 -5.18824 0
M  V30 1509 H 133.873 -2.19106 -4.35711 0
M  V30 1510 H 132.878 -4.29969 -3.42647 0
M  V30 1511 H 134.103 -5.264 -4.29046 0
M  V30 1512 H 132.049 -3.43409 -5.58933 0
M  V30 1513 H 131.966 -5.16392 -5.52155 0
M  V30 1514 H 133.234 -4.40101 -6.43375 0
M  V30 1515 N 137.463 0.71206 -1.40597 0
M  V30 1516 C 138.712 1.46754 -1.38369 0
M  V30 1517 C 139.025 1.95598 0.0097839 0
M  V30 1518 O 140.231 2.71059 0.154677 0
M  V30 1519 C 138.687 2.65289 -2.43207 0
M  V30 1520 C 138.295 2.23301 -3.88382 0
M  V30 1521 C 140.039 3.43008 -2.50091 0
M  V30 1522 C 137.946 3.38696 -4.84808 0
M  V30 1523 H 136.876 0.55118 -0.514506 0
M  V30 1524 H 139.527 0.774616 -1.66349 0
M  V30 1525 H 137.909 3.36769 -2.08332 0
M  V30 1526 H 139.083 1.59218 -4.32419 0
M  V30 1527 H 137.398 1.58618 -3.85006 0
M  V30 1528 H 139.995 4.28881 -3.1932 0
M  V30 1529 H 140.338 3.87065 -1.53253 0
M  V30 1530 H 140.871 2.78574 -2.83974 0
M  V30 1531 H 137.61 2.99668 -5.82992 0
M  V30 1532 H 137.13 4.01683 -4.45433 0
M  V30 1533 H 138.809 4.04712 -5.04794 0
M  V30 1534 N 138.941 1.26152 0.944643 0
M  V30 1535 C 139.888 1.07408 2.04285 0
M  V30 1536 C 140.858 -0.0198413 1.66088 0
M  V30 1537 O 142.043 0.139264 1.90291 0
M  V30 1538 C 139.183 0.70945 3.37729 0
M  V30 1539 C 138.296 1.87926 3.88983 0
M  V30 1540 C 137.431 1.45807 5.10797 0
M  V30 1541 C 136.47 2.5964 5.54305 0
M  V30 1542 N 135.607 2.18226 6.67324 0
M  V30 1543 H 140.447 2.01389 2.1965 0
M  V30 1544 H 137.984 1.00275 1.07626 0
M  V30 1545 H 139.942 0.478948 4.14442 0
M  V30 1546 H 138.572 -0.193389 3.2222 0
M  V30 1547 H 137.624 2.22279 3.08701 0
M  V30 1548 H 138.936 2.73377 4.17213 0
M  V30 1549 H 138.09 1.18781 5.94959 0
M  V30 1550 H 136.829 0.574414 4.84305 0
M  V30 1551 H 135.834 2.87399 4.68702 0
M  V30 1552 H 137.059 3.48599 5.828 0
M  V30 1553 H 135.005 1.3229 6.42523 0
M  V30 1554 H 134.922 2.97221 6.95123 0
M  V30 1555 H 136.19 1.94403 7.54869 0
M  V30 1556 N 140.419 -1.14872 1.07899 0
M  V30 1557 C 141.369 -2.17809 0.674027 0
M  V30 1558 C 142.353 -1.58008 -0.303699 0
M  V30 1559 O 143.545 -1.76616 -0.11654 0
M  V30 1560 C 140.674 -3.43208 0.0793318 0
M  V30 1561 C 139.76 -4.10051 1.08253 0
M  V30 1562 N 140.151 -4.52296 2.2641 0
M  V30 1563 C 138.449 -4.36469 0.917124 0
M  V30 1564 C 139.15 -5.04199 2.901 0
M  V30 1565 N 138.126 -4.98088 2.17736 0
M  V30 1566 H 141.928 -2.48207 1.57386 0
M  V30 1567 H 139.442 -1.315 0.952976 0
M  V30 1568 H 141.439 -4.16272 -0.228719 0
M  V30 1569 H 140.099 -3.14291 -0.815551 0
M  V30 1570 H 141.11 -4.45504 2.64096 0
M  V30 1571 H 137.787 -4.17432 0.0756078 0
M  V30 1572 H 139.177 -5.46802 3.90458 0
M  V30 1573 N 141.898 -0.863906 -1.31812 0
M  V30 1574 C 142.828 -0.330843 -2.31144 0
M  V30 1575 C 143.809 0.575005 -1.60087 0
M  V30 1576 O 144.994 0.493304 -1.8783 0
M  V30 1577 C 142.124 0.47374 -3.44054 0
M  V30 1578 C 141.078 -0.338481 -4.26659 0
M  V30 1579 C 140.404 0.591412 -5.31419 0
M  V30 1580 C 141.704 -1.56926 -4.98168 0
M  V30 1581 H 143.398 -1.16086 -2.75979 0
M  V30 1582 H 140.944 -0.559657 -1.32679 0
M  V30 1583 H 142.897 0.857143 -4.12591 0
M  V30 1584 H 141.621 1.33721 -2.9797 0
M  V30 1585 H 140.28 -0.703754 -3.59782 0
M  V30 1586 H 139.928 1.45199 -4.81587 0
M  V30 1587 H 139.628 0.0519022 -5.87577 0
M  V30 1588 H 141.152 0.97179 -6.02817 0
M  V30 1589 H 142.566 -1.25764 -5.59336 0
M  V30 1590 H 140.963 -2.04739 -5.64094 0
M  V30 1591 H 142.033 -2.32544 -4.25501 0
M  V30 1592 N 143.376 1.44774 -0.622745 0
M  V30 1593 C 144.323 2.30635 0.0871679 0
M  V30 1594 C 145.293 1.42994 0.845097 0
M  V30 1595 O 146.478 1.71907 0.827812 0
M  V30 1596 C 143.618 3.28144 1.06844 0
M  V30 1597 C 142.731 4.30888 0.309809 0
M  V30 1598 C 141.866 5.15494 1.28215 0
M  V30 1599 C 140.905 6.09953 0.512198 0
M  V30 1600 N 140.042 6.87287 1.43458 0
M  V30 1601 H 144.882 2.90803 -0.650974 0
M  V30 1602 H 142.419 1.43286 -0.33281 0
M  V30 1603 H 144.377 3.83157 1.65066 0
M  V30 1604 H 143.007 2.69695 1.77382 0
M  V30 1605 H 142.059 3.78414 -0.388181 0
M  V30 1606 H 143.371 4.97955 -0.290254 0
M  V30 1607 H 142.525 5.74983 1.93596 0
M  V30 1608 H 141.264 4.48481 1.91614 0
M  V30 1609 H 140.269 5.49581 -0.155151 0
M  V30 1610 H 141.494 6.78999 -0.116958 0
M  V30 1611 H 139.44 6.2295 2.05594 0
M  V30 1612 H 139.357 7.50763 0.888335 0
M  V30 1613 H 140.625 7.51306 2.07749 0
M  V30 1614 N 144.854 0.36279 1.53368 0
M  V30 1615 C 146.082 -0.228613 2.05633 0
M  V30 1616 C 146.497 -1.42676 1.23649 0
M  V30 1617 O 145.854 -1.80394 0.27647 0
M  V30 1618 C 145.905 -0.624845 3.56059 0
M  V30 1619 O 145.626 0.525675 4.34935 0
M  V30 1620 C 147.127 -1.27493 4.24571 0
M  V30 1621 H 144.347 -0.0407183 0.669763 0
M  V30 1622 H 146.891 0.520352 1.97769 0
M  V30 1623 H 145.046 -1.32373 3.64083 0
M  V30 1624 H 145.46 0.205969 5.24095 0
M  V30 1625 H 146.934 -1.50277 5.31151 0
M  V30 1626 H 147.411 -2.23439 3.78116 0
M  V30 1627 H 148.017 -0.617558 4.20792 0
M  V30 1628 N 146.332 -1.57332 0.0918853 0
M  V30 1629 C 147.609 -1.85691 -0.614668 0
M  V30 1630 C 147.989 -0.988146 -1.86545 0
M  V30 1631 O 147.337 -0.0597055 -2.28422 0
M  V30 1632 C 147.547 -3.36294 -0.933126 0
M  V30 1633 C 148.895 -4.04275 -1.29796 0
M  V30 1634 O 149.919 -3.41157 -1.02424 0
M  V30 1635 O 148.778 -5.1564 -1.81047 0
M  V30 1636 H 145.872 -0.767802 -0.307261 0
M  V30 1637 H 148.418 -1.69244 0.12434 0
M  V30 1638 H 147.19 -3.91273 -0.0456404 0
M  V30 1639 H 146.813 -3.58076 -1.72822 0
M  V30 1640 N 147.81 0.181792 -1.56548 0
M  V30 1641 C 149.087 0.926765 -1.72251 0
M  V30 1642 C 149.467 2.00831 -0.650386 0
M  V30 1643 O 148.815 2.26008 0.336521 0
M  V30 1644 C 149.025 1.50106 -3.1507 0
M  V30 1645 C 150.373 1.97805 -3.75711 0
M  V30 1646 O 151.397 1.59922 -3.18282 0
M  V30 1647 O 150.256 2.67555 -4.76525 0
M  V30 1648 H 147.35 0.435506 -0.703039 0
M  V30 1649 H 149.896 0.170443 -1.68842 0
M  V30 1650 H 148.668 0.72212 -3.84579 0
M  V30 1651 H 148.291 2.32186 -3.22763 0
M  V30 1652 N 149.288 1.51039 0.449983 0
M  V30 1653 C 150.22 1.67617 1.56324 0
M  V30 1654 C 151.233 0.557083 1.52972 0
M  V30 1655 O 152.422 0.830989 1.57977 0
M  V30 1656 C 149.522 1.66402 2.95235 0
M  V30 1657 C 148.695 2.9469 3.23229 0
M  V30 1658 C 147.754 2.85832 4.41799 0
M  V30 1659 O 146.78 3.59785 4.41071 0
M  V30 1660 N 147.982 2.00821 5.44657 0
M  V30 1661 H 150.747 2.63648 1.42512 0
M  V30 1662 H 148.308 1.48767 0.638737 0
M  V30 1663 H 150.3 1.58062 3.72557 0
M  V30 1664 H 148.87 0.780182 3.02708 0
M  V30 1665 H 148.09 3.16996 2.34323 0
M  V30 1666 H 149.378 3.79636 3.38754 0
M  V30 1667 H 148.776 1.40091 5.48079 0
M  V30 1668 H 147.333 1.98368 6.20881 0
M  V30 1669 N 150.766 -0.704594 1.40972 0
M  V30 1670 C 152.043 -1.45847 1.30338 0
M  V30 1671 C 152.423 -2.10973 -0.0732344 0
M  V30 1672 O 151.771 -2.00997 -1.08685 0
M  V30 1673 C 151.981 -2.48525 2.45023 0
M  V30 1674 C 153.329 -3.1404 2.8577 0
M  V30 1675 O 154.353 -2.58848 2.44696 0
M  V30 1676 O 153.212 -4.13981 3.56766 0
M  V30 1677 H 150.306 -0.649092 0.512454 0
M  V30 1678 H 152.852 -0.735836 1.52917 0
M  V30 1679 H 151.624 -1.98994 3.36923 0
M  V30 1680 H 151.247 -3.2831 2.24272 0
M  V30 1681 N 152.244 -1.26651 -0.937939 0
M  V30 1682 C 153.493 -1.11775 -1.67897 0
M  V30 1683 C 153.806 0.33794 -1.92659 0
M  V30 1684 O 155.012 0.607434 -2.64618 0
M  V30 1685 C 153.468 -1.9523 -3.02346 0
M  V30 1686 C 153.076 -3.45393 -2.8532 0
M  V30 1687 C 154.82 -1.88972 -3.80118 0
M  V30 1688 C 152.727 -4.21083 -4.15263 0
M  V30 1689 H 151.657 -0.414696 -0.629717 0
M  V30 1690 H 154.308 -1.50988 -1.04283 0
M  V30 1691 H 152.69 -1.48853 -3.66959 0
M  V30 1692 H 153.864 -3.99561 -2.29537 0
M  V30 1693 H 152.179 -3.52921 -2.20988 0
M  V30 1694 H 154.776 -2.42805 -4.76392 0
M  V30 1695 H 155.119 -0.86113 -4.07296 0
M  V30 1696 H 155.652 -2.33189 -3.22285 0
M  V30 1697 H 152.391 -5.24425 -3.93267 0
M  V30 1698 H 151.911 -3.71695 -4.70747 0
M  V30 1699 H 153.59 -4.29706 -4.83696 0
M  V30 1700 N 153.722 1.14298 -1.08507 0
M  V30 1701 C 154.952 1.88945 -0.835663 0
M  V30 1702 C 155.36 1.78894 0.615928 0
M  V30 1703 O 154.703 1.1468 1.43506 0
M  V30 1704 C 154.765 3.39585 -1.17994 0
M  V30 1705 C 154.429 3.7342 -2.63451 0
M  V30 1706 C 155.426 3.73454 -3.61702 0
M  V30 1707 C 153.111 4.03368 -2.99332 0
M  V30 1708 C 155.105 4.02961 -4.93864 0
M  V30 1709 C 152.792 4.32538 -4.31687 0
M  V30 1710 C 153.79 4.32318 -5.28763 0
M  V30 1711 O 153.478 4.6078 -6.58739 0
M  V30 1712 H 153.21 0.605307 -0.300965 0
M  V30 1713 H 155.764 1.45673 -1.44806 0
M  V30 1714 H 153.994 3.83315 -0.51055 0
M  V30 1715 H 155.683 3.9554 -0.911182 0
M  V30 1716 H 156.449 3.50403 -3.35325 0
M  V30 1717 H 152.328 4.02692 -2.24411 0
M  V30 1718 H 155.872 4.02704 -5.69627 0
M  V30 1719 H 151.769 4.55059 -4.57812 0
M  V30 1720 H 152.537 4.78492 -6.64069 0
M  V30 1721 N 155.201 0.870884 1.31352 0
M  V30 1722 C 156.148 0.325425 2.28494 0
M  V30 1723 C 157.118 -0.576615 1.5577 0
M  V30 1724 O 158.303 -0.508059 1.83911 0
M  V30 1725 C 155.443 -0.466283 3.41935 0
M  V30 1726 C 154.556 0.463378 4.29508 0
M  V30 1727 C 153.691 -0.342544 5.30094 0
M  V30 1728 C 152.73 0.583486 6.09313 0
M  V30 1729 N 151.867 -0.186244 7.01853 0
M  V30 1730 H 156.707 1.15901 2.74538 0
M  V30 1731 H 154.244 0.58294 1.35056 0
M  V30 1732 H 156.202 -0.941085 4.06447 0
M  V30 1733 H 154.832 -1.26456 2.97 0
M  V30 1734 H 153.884 1.05663 3.65431 0
M  V30 1735 H 155.196 1.1734 4.84802 0
M  V30 1736 H 154.35 -0.879816 6.00287 0
M  V30 1737 H 153.089 -1.08585 4.75458 0
M  V30 1738 H 152.094 1.13251 5.3801 0
M  V30 1739 H 153.319 1.32566 6.66035 0
M  V30 1740 H 151.265 -0.912348 6.49625 0
M  V30 1741 H 151.182 0.464422 7.54572 0
M  V30 1742 H 152.45 -0.704716 7.76308 0
M  V30 1743 N 156.679 -1.44442 0.630414 0
M  V30 1744 C 157.925 -2.02351 0.134816 0
M  V30 1745 C 158.258 -1.4947 -1.23986 0
M  V30 1746 O 157.533 -0.678475 -1.82283 0
M  V30 1747 C 157.816 -3.59898 0.120707 0
M  V30 1748 C 157.669 -4.23063 1.52767 0
M  V30 1749 C 158.988 -4.36585 -0.555127 0
M  V30 1750 H 156.107 -0.73527 0.0504646 0
M  V30 1751 H 158.749 -1.72022 0.806751 0
M  V30 1752 H 156.899 -3.85868 -0.451477 0
M  V30 1753 H 158.571 -4.08202 2.14869 0
M  V30 1754 H 156.814 -3.80586 2.08175 0
M  V30 1755 H 157.485 -5.32071 1.46984 0
M  V30 1756 H 159.961 -4.16044 -0.0685429 0
M  V30 1757 H 158.837 -5.46294 -0.534185 0
M  V30 1758 H 159.098 -4.11138 -1.62535 0
M  V30 1759 N 158.157 -0.370918 -1.53173 0
M  V30 1760 C 159.382 0.220293 -2.06227 0
M  V30 1761 C 159.807 1.41243 -1.24225 0
M  V30 1762 O 159.165 1.79387 -0.262645 0
M  V30 1763 C 159.213 0.586663 -3.55796 0
M  V30 1764 O 158.317 1.68317 -3.76488 0
M  V30 1765 H 157.658 0.0308099 -0.663285 0
M  V30 1766 H 160.188 -0.533068 -1.97534 0
M  V30 1767 H 160.198 0.85617 -3.98916 0
M  V30 1768 H 158.873 -0.285013 -4.14922 0
M  V30 1769 H 157.45 1.40881 -3.45264 0
M  V30 1770 N 159.635 1.57281 -0.100228 0
M  V30 1771 C 160.884 1.93713 0.561984 0
M  V30 1772 C 161.197 0.984492 1.69018 0
M  V30 1773 O 162.403 1.24273 2.41389 0
M  V30 1774 C 160.859 3.4421 1.05106 0
M  V30 1775 C 160.467 4.47975 -0.0476628 0
M  V30 1776 C 162.211 3.89595 1.68571 0
M  V30 1777 C 160.118 5.89631 0.457055 0
M  V30 1778 H 159.048 0.723082 0.2137 0
M  V30 1779 H 161.699 1.82644 -0.177057 0
M  V30 1780 H 160.081 3.50449 1.84395 0
M  V30 1781 H 161.255 4.53385 -0.823333 0
M  V30 1782 H 159.57 4.1223 -0.587816 0
M  V30 1783 H 162.167 4.92832 2.07414 0
M  V30 1784 H 162.51 3.28526 2.55688 0
M  V30 1785 H 163.043 3.86078 0.958562 0
M  V30 1786 H 159.782 6.54411 -0.377616 0
M  V30 1787 H 159.302 5.87681 1.19962 0
M  V30 1788 H 160.981 6.40363 0.92437 0
M  V30 1789 N 161.113 -0.173488 1.56642 0
M  V30 1790 C 162.343 -0.904781 1.85734 0
M  V30 1791 C 162.751 -1.76431 0.68328 0
M  V30 1792 O 162.094 -1.802 -0.356865 0
M  V30 1793 C 162.156 -1.83382 3.09211 0
M  V30 1794 C 161.82 -1.15411 4.42187 0
M  V30 1795 C 162.817 -0.520609 5.17287 0
M  V30 1796 C 160.502 -1.15151 4.88923 0
M  V30 1797 C 162.496 0.106412 6.37311 0
M  V30 1798 C 160.183 -0.520664 6.08878 0
M  V30 1799 C 161.181 0.107196 6.82916 0
M  V30 1800 O 160.869 0.728102 8.00596 0
M  V30 1801 H 160.601 -0.268408 0.62043 0
M  V30 1802 H 163.155 -0.179096 2.04618 0
M  V30 1803 H 161.385 -2.59976 2.86268 0
M  V30 1804 H 163.074 -2.43476 3.24768 0
M  V30 1805 H 163.84 -0.514606 4.82262 0
M  V30 1806 H 159.719 -1.62961 4.31236 0
M  V30 1807 H 163.263 0.597081 6.9504 0
M  V30 1808 H 159.16 -0.524242 6.43368 0
M  V30 1809 H 159.928 0.627138 8.16094 0
M  V30 1810 N 162.591 -1.51276 -0.441967 0
M  V30 1811 C 163.868 -1.54252 -1.20273 0
M  V30 1812 C 164.248 -0.30408 -2.08898 0
M  V30 1813 O 163.596 0.711084 -2.17154 0
M  V30 1814 C 163.806 -2.85406 -2.00859 0
M  V30 1815 C 165.154 -3.37181 -2.58059 0
M  V30 1816 O 166.178 -2.86925 -2.11074 0
M  V30 1817 O 165.037 -4.24858 -3.43741 0
M  V30 1818 H 162.131 -0.619969 -0.547328 0
M  V30 1819 H 164.677 -1.63586 -0.451413 0
M  V30 1820 H 163.449 -3.67003 -1.35736 0
M  V30 1821 H 163.072 -2.79213 -2.83065 0
M  V30 1822 N 164.069 0.697108 -1.41344 0
M  V30 1823 C 165.297 1.48593 -1.43972 0
M  V30 1824 C 165.712 1.88747 -0.0445612 0
M  V30 1825 O 165.069 1.56682 0.935785 0
M  V30 1826 C 165.12 2.74946 -2.34706 0
M  V30 1827 O 164.841 2.36484 -3.68791 0
M  V30 1828 C 166.342 3.687 -2.46121 0
M  V30 1829 H 163.562 0.457964 -0.490418 0
M  V30 1830 H 166.106 0.858429 -1.8561 0
M  V30 1831 H 164.261 3.33937 -1.9638 0
M  V30 1832 H 164.675 3.17918 -4.17167 0
M  V30 1833 H 166.149 4.54145 -3.13777 0
M  V30 1834 H 166.626 4.13081 -1.49199 0
M  V30 1835 H 167.232 3.15613 -2.85076 0
M  V30 1836 N 165.547 1.27147 0.931209 0
M  V30 1837 C 166.494 1.09568 2.03134 0
M  V30 1838 C 167.464 -0.00222433 1.661 0
M  V30 1839 O 168.649 0.159439 1.90133 0
M  V30 1840 C 165.789 0.745231 3.36957 0
M  V30 1841 C 164.902 1.92041 3.86968 0
M  V30 1842 C 164.037 1.51216 5.09222 0
M  V30 1843 C 163.076 2.65504 5.5152 0
M  V30 1844 N 162.213 2.25291 6.64972 0
M  V30 1845 H 167.053 2.03708 2.17502 0
M  V30 1846 H 164.59 1.01411 1.06556 0
M  V30 1847 H 166.548 0.522878 4.1391 0
M  V30 1848 H 165.178 -0.159202 3.22407 0
M  V30 1849 H 164.23 2.25541 3.06326 0
M  V30 1850 H 165.542 2.77787 4.1429 0
M  V30 1851 H 164.696 1.25084 5.93666 0
M  V30 1852 H 163.435 0.625749 4.83669 0
M  V30 1853 H 162.44 2.92354 4.65628 0
M  V30 1854 H 163.665 3.54761 5.7907 0
M  V30 1855 H 161.611 1.39098 6.41083 0
M  V30 1856 H 161.528 3.04577 6.91931 0
M  V30 1857 H 162.796 2.02398 7.52765 0
M  V30 1858 N 167.025 -1.13721 1.09112 0
M  V30 1859 C 168.273 -1.84559 0.823562 0
M  V30 1860 C 168.594 -1.83754 -0.652658 0
M  V30 1861 O 167.864 -1.29102 -1.47342 0
M  V30 1862 H 166.444 -0.683376 0.301673 0
M  V30 1863 H 169.106 -1.37771 1.37859 0
M  V30 1864 H 168.202 -2.8917 1.17419 0
M  V30 1865 N 168.503 -0.877838 -1.30888 0
M  V30 1866 C 169.45 -0.337538 -2.28318 0
M  V30 1867 C 170.42 0.568346 -1.56074 0
M  V30 1868 O 171.605 0.498298 -1.84178 0
M  V30 1869 C 168.745 0.448142 -3.42178 0
M  V30 1870 C 167.858 -0.48615 -4.29256 0
M  V30 1871 C 166.993 0.314427 -5.30269 0
M  V30 1872 C 166.032 -0.615791 -6.08995 0
M  V30 1873 N 165.169 0.14902 -7.01942 0
M  V30 1874 H 170.009 -1.17356 -2.73919 0
M  V30 1875 H 167.546 -0.590094 -1.34745 0
M  V30 1876 H 169.504 0.919517 -4.06941 0
M  V30 1877 H 168.134 1.24879 -2.97666 0
M  V30 1878 H 167.186 -1.076 -3.64865 0
M  V30 1879 H 168.498 -1.19909 -4.84173 0
M  V30 1880 H 167.652 0.847969 -6.00745 0
M  V30 1881 H 166.391 1.06062 -4.76027 0
M  V30 1882 H 165.396 -1.16102 -5.37401 0
M  V30 1883 H 166.621 -1.36097 -6.65323 0
M  V30 1884 H 164.567 0.877884 -6.50099 0
M  V30 1885 H 164.484 -0.504433 -7.54315 0
M  V30 1886 H 165.752 0.663537 -7.76671 0
M  V30 1887 N 169.982 1.44106 -0.638065 0
M  V30 1888 C 170.93 2.3248 0.0748149 0
M  V30 1889 C 171.924 1.47746 0.828702 0
M  V30 1890 O 173.13 1.64049 0.740816 0
M  V30 1891 H 169.505 0.750771 0.0429686 0
M  V30 1892 H 171.476 2.90348 -0.688504 0
M  V30 1893 C 170.225 3.31843 1.03805 0
M  V30 1894 H 169.548 3.97059 0.467375 0
M  V30 1895 H 170.988 3.96345 1.50622 0
M  V30 1896 C 169.447 2.61291 2.1267 0
M  V30 1897 O 169.977 2.41702 3.20847 0
M  V30 1898 N 168.183 2.20915 1.88798 0
M  V30 1899 H 167.73 2.37047 1.00829 0
M  V30 1900 H 167.688 1.74038 2.61836 0
M  V30 1901 N 171.46 0.379036 1.52974 0
M  V30 1902 C 172.706 -0.206727 2.01744 0
M  V30 1903 C 173.039 -1.47314 1.26539 0
M  V30 1904 O 172.314 -1.91084 0.362903 0
M  V30 1905 C 172.597 -0.485066 3.56818 0
M  V30 1906 C 172.45 0.795919 4.42702 0
M  V30 1907 C 173.769 -1.28003 4.21074 0
M  V30 1908 H 170.888 -0.0736607 0.73331 0
M  V30 1909 H 173.53 0.506581 1.83122 0
M  V30 1910 H 171.68 -1.09272 3.72816 0
M  V30 1911 H 173.352 1.43307 4.38476 0
M  V30 1912 H 171.595 1.41344 4.10127 0
M  V30 1913 H 172.266 0.555947 5.49193 0
M  V30 1914 H 174.742 -0.765867 4.08991 0
M  V30 1915 H 173.618 -1.44352 5.29579 0
M  V30 1916 H 173.879 -2.29236 3.78026 0
M  V30 1917 N 172.938 -1.57226 0.108567 0
M  V30 1918 C 173.868 -2.17778 -0.84232 0
M  V30 1919 C 174.849 -1.11487 -1.2847 0
M  V30 1920 O 176.034 -1.39681 -1.34918 0
M  V30 1921 C 173.164 -2.76888 -2.09644 0
M  V30 1922 C 172.118 -3.88669 -1.79221 0
M  V30 1923 C 171.444 -4.34541 -3.11574 0
M  V30 1924 C 172.744 -5.11251 -1.06864 0
M  V30 1925 H 174.438 -2.97489 -0.337774 0
M  V30 1926 H 171.984 -1.43097 -0.161025 0
M  V30 1927 H 173.937 -3.17904 -2.76614 0
M  V30 1928 H 172.661 -1.94451 -2.62405 0
M  V30 1929 H 171.32 -3.48213 -1.14644 0
M  V30 1930 H 170.968 -3.48977 -3.62249 0
M  V30 1931 H 170.668 -5.09914 -2.91996 0
M  V30 1932 H 172.192 -4.782 -3.7968 0
M  V30 1933 H 173.606 -5.49352 -1.63968 0
M  V30 1934 H 172.003 -5.9214 -0.974178 0
M  V30 1935 H 173.073 -4.8487 -0.0536168 0
M  V30 1936 N 174.416 0.165178 -1.56732 0
M  V30 1937 C 175.326 1.22423 -2.00125 0
M  V30 1938 C 176.342 1.48084 -0.913619 0
M  V30 1939 O 177.518 1.60112 -1.22172 0
M  V30 1940 C 174.583 2.54197 -2.35764 0
M  V30 1941 C 173.644 2.36343 -3.58386 0
M  V30 1942 C 172.877 3.61834 -3.92316 0
M  V30 1943 O 173.1 4.67267 -3.27135 0
M  V30 1944 O 172.034 3.55579 -4.85641 0
M  V30 1945 H 175.86 0.885886 -2.90492 0
M  V30 1946 H 173.445 0.372518 -1.44681 0
M  V30 1947 H 175.327 3.3192 -2.59629 0
M  V30 1948 H 174.002 2.87598 -1.48557 0
M  V30 1949 H 172.909 1.56632 -3.39731 0
M  V30 1950 H 174.242 2.07865 -4.46154 0
M  V30 1951 N 175.894 1.51508 0.433938 0
M  V30 1952 C 176.841 1.73068 1.52696 0
M  V30 1953 C 177.811 0.572441 1.55924 0
M  V30 1954 O 178.996 0.807253 1.72882 0
M  V30 1955 C 176.136 1.86474 2.90381 0
M  V30 1956 C 175.249 3.14037 2.96656 0
M  V30 1957 C 174.384 3.18019 4.25485 0
M  V30 1958 C 173.423 4.39882 4.2564 0
M  V30 1959 N 172.56 4.41394 5.45999 0
M  V30 1960 H 177.4 2.66366 1.33615 0
M  V30 1961 H 174.937 1.32008 0.649018 0
M  V30 1962 H 176.895 1.92229 3.70275 0
M  V30 1963 H 175.525 0.965809 3.08013 0
M  V30 1964 H 174.577 3.17575 2.09404 0
M  V30 1965 H 175.889 4.0394 2.92633 0
M  V30 1966 H 175.043 3.22708 5.13755 0
M  V30 1967 H 173.782 2.2601 4.3217 0
M  V30 1968 H 172.787 4.35366 3.35763 0
M  V30 1969 H 174.012 5.33159 4.20617 0
M  V30 1970 H 171.958 3.52258 5.53399 0
M  V30 1971 H 171.875 5.25111 5.4387 0
M  V30 1972 H 173.143 4.50281 6.36292 0
M  V30 1973 N 177.372 -0.689602 1.41712 0
M  V30 1974 C 178.621 -1.44534 1.40686 0
M  V30 1975 C 178.934 -1.95588 0.0213352 0
M  V30 1976 O 180.14 -2.71271 -0.111534 0
M  V30 1977 C 178.596 -2.61387 2.47396 0
M  V30 1978 C 178.204 -2.17094 3.91885 0
M  V30 1979 C 179.948 -3.38986 2.55517 0
M  V30 1980 C 177.855 -3.3094 4.90135 0
M  V30 1981 H 176.785 -0.542925 0.52321 0
M  V30 1982 H 179.436 -0.748054 1.6756 0
M  V30 1983 H 177.818 -3.33412 2.13664 0
M  V30 1984 H 178.992 -1.52318 4.34897 0
M  V30 1985 H 177.307 -1.52473 3.8748 0
M  V30 1986 H 179.904 -4.23747 3.26102 0
M  V30 1987 H 180.247 -3.84578 1.59391 0
M  V30 1988 H 180.78 -2.74021 2.8837 0
M  V30 1989 H 177.519 -2.90355 5.87685 0
M  V30 1990 H 177.039 -3.94546 4.51767 0
M  V30 1991 H 178.718 -3.9663 5.11169 0
M  V30 1992 N 178.85 -1.27639 -0.924453 0
M  V30 1993 C 180.097 -1.14167 -1.67249 0
M  V30 1994 C 180.425 0.311863 -1.91984 0
M  V30 1995 O 179.68 1.24425 -1.51053 0
M  V30 1996 C 179.979 -1.87407 -3.04325 0
M  V30 1997 C 179.645 -3.37249 -2.99289 0
M  V30 1998 C 178.307 -3.7812 -2.97622 0
M  V30 1999 C 180.659 -4.32845 -2.90336 0
M  V30 2000 C 177.987 -5.12944 -2.8479 0
M  V30 2001 C 180.339 -5.6773 -2.79045 0
M  V30 2002 C 179.003 -6.07889 -2.7573 0
M  V30 2003 H 178.273 -0.417766 -0.612007 0
M  V30 2004 H 180.92 -1.58286 -1.07786 0
M  V30 2005 H 179.225 -1.35805 -3.67511 0
M  V30 2006 H 180.922 -1.74408 -3.61086 0
M  V30 2007 H 177.512 -3.04748 -3.01374 0
M  V30 2008 H 181.696 -4.02239 -2.90719 0
M  V30 2009 H 176.952 -5.432 -2.80612 0
M  V30 2010 H 181.126 -6.41472 -2.71083 0
M  V30 2011 H 178.753 -7.12314 -2.65544 0
M  V30 2012 N 180.328 1.1314 -1.09713 0
M  V30 2013 C 181.605 1.80762 -0.747302 0
M  V30 2014 C 181.985 1.96663 0.767265 0
M  V30 2015 O 181.333 1.53706 1.69076 0
M  V30 2016 C 181.543 3.15606 -1.48975 0
M  V30 2017 C 182.891 3.90914 -1.65746 0
M  V30 2018 O 183.915 3.25239 -1.45251 0
M  V30 2019 O 182.774 5.08718 -1.9967 0
M  V30 2020 H 179.868 0.782103 -0.268782 0
M  V30 2021 H 182.414 1.20041 -1.19951 0
M  V30 2022 H 181.186 2.99278 -2.52088 0
M  V30 2023 H 180.809 3.84029 -1.02991 0
M  V30 2024 N 181.806 0.884767 1.30421 0
M  V30 2025 C 182.736 0.367574 2.30589 0
M  V30 2026 C 183.717 -0.549464 1.60981 0
M  V30 2027 O 184.902 -0.46336 1.88591 0
M  V30 2028 C 182.032 -0.418944 3.44764 0
M  V30 2029 C 180.986 0.406316 4.26067 0
M  V30 2030 C 180.312 -0.506793 5.32293 0
M  V30 2031 C 181.612 1.64832 4.95608 0
M  V30 2032 H 183.306 1.20462 2.74097 0
M  V30 2033 H 180.852 0.580695 1.31772 0
M  V30 2034 H 182.805 -0.791395 4.13902 0
M  V30 2035 H 181.529 -1.28964 3.0006 0
M  V30 2036 H 180.188 0.760903 3.58617 0
M  V30 2037 H 179.836 -1.37519 4.83836 0
M  V30 2038 H 179.536 0.0415828 5.87585 0
M  V30 2039 H 181.06 -0.875764 6.04287 0
M  V30 2040 H 182.474 1.34646 5.57264 0
M  V30 2041 H 180.871 2.13688 5.60765 0
M  V30 2042 H 181.941 2.39284 4.21748 0
M  V30 2043 N 183.284 -1.43765 0.645699 0
M  V30 2044 C 184.231 -2.30745 -0.0504648 0
M  V30 2045 C 185.201 -1.4432 -0.822241 0
M  V30 2046 O 186.386 -1.73202 -0.800358 0
M  V30 2047 C 183.526 -3.29802 -1.0161 0
M  V30 2048 C 182.639 -4.31326 -0.241219 0
M  V30 2049 C 181.774 -5.17469 -1.19998 0
M  V30 2050 C 180.813 -6.10691 -0.415094 0
M  V30 2051 N 179.95 -6.89483 -1.32506 0
M  V30 2052 H 184.79 -2.8973 0.697155 0
M  V30 2053 H 182.327 -1.42738 0.355563 0
M  V30 2054 H 184.285 -3.85734 -1.58949 0
M  V30 2055 H 182.915 -2.72483 -1.73069 0
M  V30 2056 H 181.967 -3.77749 0.448334 0
M  V30 2057 H 183.279 -4.9743 0.369437 0
M  V30 2058 H 182.433 -5.7799 -1.84424 0
M  V30 2059 H 181.172 -4.51473 -1.84455 0
M  V30 2060 H 180.177 -5.49265 0.242565 0
M  V30 2061 H 181.402 -6.78727 0.224966 0
M  V30 2062 H 179.348 -6.26142 -1.95657 0
M  V30 2063 H 179.265 -7.52081 -0.768783 0
M  V30 2064 H 180.533 -7.54516 -1.9577 0
M  V30 2065 N 184.763 -0.387143 -1.52771 0
M  V30 2066 C 186.012 0.19697 -2.00736 0
M  V30 2067 C 186.325 1.48082 -1.27793 0
M  V30 2068 O 187.531 2.14485 -1.66458 0
M  V30 2069 C 185.987 0.401568 -3.57653 0
M  V30 2070 C 185.595 -0.868907 -4.39493 0
M  V30 2071 C 187.339 0.942164 -4.13912 0
M  V30 2072 C 185.246 -0.632705 -5.88006 0
M  V30 2073 H 184.176 0.0773827 -0.750019 0
M  V30 2074 H 186.827 -0.50921 -1.76293 0
M  V30 2075 H 185.209 1.16954 -3.78335 0
M  V30 2076 H 186.383 -1.64133 -4.30577 0
M  V30 2077 H 184.698 -1.33429 -3.94443 0
M  V30 2078 H 187.295 1.13455 -5.22525 0
M  V30 2079 H 187.638 1.9106 -3.69867 0
M  V30 2080 H 188.171 0.233814 -3.97112 0
M  V30 2081 H 184.91 -1.57208 -6.36369 0
M  V30 2082 H 184.43 0.100825 -5.99715 0
M  V30 2083 H 186.109 -0.26642 -6.46451 0
M  V30 2084 N 186.241 1.57166 -0.116904 0
M  V30 2085 C 187.173 2.12271 0.864507 0
M  V30 2086 C 188.186 1.06494 1.23138 0
M  V30 2087 O 189.375 1.33873 1.18069 0
M  V30 2088 C 186.475 2.60564 2.16702 0
M  V30 2089 C 185.648 3.90416 1.97216 0
M  V30 2090 C 184.707 4.24329 3.11178 0
M  V30 2091 O 183.733 4.93182 2.84184 0
M  V30 2092 N 184.935 3.8148 4.37554 0
M  V30 2093 H 187.7 2.97102 0.393726 0
M  V30 2094 H 185.261 1.61759 0.0675805 0
M  V30 2095 H 187.253 2.80282 2.91932 0
M  V30 2096 H 185.823 1.80623 2.55135 0
M  V30 2097 H 185.043 3.79627 1.06192 0
M  V30 2098 H 186.331 4.75327 1.81499 0
M  V30 2099 H 185.729 3.25943 4.62361 0
M  V30 2100 H 184.286 4.06311 5.09661 0
M  V30 2101 N 187.719 -0.156864 1.56817 0
M  V30 2102 C 188.629 -1.2136 2.00771 0
M  V30 2103 C 189.645 -1.47598 0.921459 0
M  V30 2104 O 190.821 -1.59462 1.2302 0
M  V30 2105 C 187.886 -2.52943 2.37109 0
M  V30 2106 C 186.947 -2.34439 3.59634 0
M  V30 2107 C 186.18 -3.59748 3.94229 0
M  V30 2108 O 186.403 -4.65526 3.29609 0
M  V30 2109 O 185.337 -3.52998 4.8752 0
M  V30 2110 H 189.163 -0.870468 2.90958 0
M  V30 2111 H 186.748 -0.36484 1.44877 0
M  V30 2112 H 188.63 -3.30538 2.61386 0
M  V30 2113 H 187.305 -2.86806 1.5008 0
M  V30 2114 H 186.212 -1.54828 3.40557 0
M  V30 2115 H 187.545 -2.05496 4.4725 0
M  V30 2116 N 189.197 -1.51736 -0.425897 0
M  V30 2117 C 190.613 -1.40166 -0.76326 0
M  V30 2118 C 190.813 -0.492962 -1.95377 0
M  V30 2119 O 189.869 0.0475815 -2.52455 0
M  V30 2120 C 191.182 -2.82403 -1.03291 0
M  V30 2121 C 192.73 -2.91632 -1.13665 0
M  V30 2122 C 193.205 -4.34801 -1.43916 0
M  V30 2123 N 194.696 -4.3796 -1.50816 0
M  V30 2124 C 195.431 -5.4578 -1.75817 0
M  V30 2125 N 194.927 -6.63744 -1.98534 0
M  V30 2126 N 196.72 -5.33274 -1.77694 0
M  V30 2127 H 188.871 -2.09361 0.358 0
M  V30 2128 H 191.134 -0.942941 0.0978094 0
M  V30 2129 H 190.84 -3.50943 -0.230696 0
M  V30 2130 H 190.714 -3.22428 -1.95754 0
M  V30 2131 H 193.101 -2.23284 -1.92947 0
M  V30 2132 H 193.182 -2.55088 -0.190756 0
M  V30 2133 H 192.826 -5.03703 -0.65157 0
M  V30 2134 H 192.756 -4.68868 -2.39729 0
M  V30 2135 H 195.247 -3.52919 -1.35118 0
M  V30 2136 H 195.56 -7.41704 -2.17013 0
M  V30 2137 H 193.905 -6.66839 -1.95832 0
M  V30 2138 H 197.096 -4.40098 -1.59473 0
M  V30 2139 H 197.269 -6.1738 -1.9684 0
M  V30 2140 N 190.675 0.682077 -1.42076 0
M  V30 2141 C 191.921 1.44428 -1.42367 0
M  V30 2142 C 192.254 1.94164 -0.0373056 0
M  V30 2143 O 191.529 1.70429 0.937239 0
M  V30 2144 C 191.812 2.64654 -2.44194 0
M  V30 2145 C 191.665 2.20596 -3.91991 0
M  V30 2146 C 192.984 3.66865 -2.431 0
M  V30 2147 H 190.103 0.523834 -0.518428 0
M  V30 2148 H 192.745 0.77576 -1.73442 0
M  V30 2149 H 190.895 3.2169 -2.17826 0
M  V30 2150 H 192.567 1.68783 -4.29313 0
M  V30 2151 H 190.81 1.52242 -4.06208 0
M  V30 2152 H 191.481 3.06921 -4.58807 0
M  V30 2153 H 193.957 3.19531 -2.66532 0
M  V30 2154 H 192.833 4.48577 -3.16339 0
M  V30 2155 H 193.094 4.17493 -1.45437 0
M  V30 2156 N 192.153 1.28127 0.917671 0
M  V30 2157 C 193.378 1.18007 1.70555 0
M  V30 2158 C 193.803 -0.258257 1.86319 0
M  V30 2159 O 193.161 -1.1869 1.37049 0
M  V30 2160 C 193.209 1.87948 3.07746 0
M  V30 2161 O 192.313 1.18427 3.9503 0
M  V30 2162 H 191.654 0.409867 0.522403 0
M  V30 2163 H 194.184 1.69379 1.1477 0
M  V30 2164 H 194.194 1.95701 3.58001 0
M  V30 2165 H 192.869 2.92573 2.95591 0
M  V30 2166 H 191.446 1.18811 3.53466 0
M  V30 2167 N 193.631 -1.12557 1.10312 0
M  V30 2168 C 194.578 -2.18247 0.750781 0
M  V30 2169 C 195.548 -1.63853 -0.272293 0
M  V30 2170 O 196.733 -1.90195 -0.151862 0
M  V30 2171 C 193.873 -3.44591 0.187379 0
M  V30 2172 C 192.986 -4.13046 1.2656 0
M  V30 2173 C 192.121 -5.27034 0.663978 0
M  V30 2174 C 191.16 -5.87353 1.72287 0
M  V30 2175 N 190.297 -6.92757 1.1416 0
M  V30 2176 H 195.137 -2.47732 1.65628 0
M  V30 2177 H 192.674 -1.21629 0.827337 0
M  V30 2178 H 194.632 -4.16904 -0.157148 0
M  V30 2179 H 193.262 -3.15527 -0.681355 0
M  V30 2180 H 192.314 -3.38924 1.72727 0
M  V30 2181 H 193.626 -4.53947 2.06721 0
M  V30 2182 H 192.78 -6.06104 0.268824 0
M  V30 2183 H 191.519 -4.87407 -0.169082 0
M  V30 2184 H 190.524 -5.06971 2.12746 0
M  V30 2185 H 191.749 -6.29051 2.55875 0
M  V30 2186 H 189.695 -6.5517 0.329984 0
M  V30 2187 H 189.612 -7.3225 1.88007 0
M  V30 2188 H 190.88 -7.75658 0.772956 0
M  V30 2189 N 195.109 -0.891671 -1.2995 0
M  V30 2190 C 196.52 -0.563104 -1.78006 0
M  V30 2191 C 196.871 0.920978 -1.73241 0
M  V30 2192 O 195.996 1.71987 -1.31337 0
M  V30 2193 C 196.591 -1.01539 -3.23226 0
M  V30 2194 C 195.15 -0.738124 -3.69092 0
M  V30 2195 C 194.297 -1.19461 -2.50249 0
M  V30 2196 H 197.248 -1.07522 -1.16725 0
M  V30 2197 H 197.269 -0.347217 -3.78912 0
M  V30 2198 H 196.781 -2.09555 -3.26662 0
M  V30 2199 H 194.882 0.329766 -3.71138 0
M  V30 2200 H 194.995 -1.33037 -4.60259 0
M  V30 2201 H 193.359 -0.613787 -2.47194 0
M  V30 2202 H 194.142 -2.28265 -2.56417 0
M  V30 2203 N 196.587 1.43421 -0.653314 0
M  V30 2204 C 197.534 2.30768 0.0382271 0
M  V30 2205 C 198.504 1.44755 0.814576 0
M  V30 2206 O 199.689 1.73624 0.791162 0
M  V30 2207 C 196.829 3.30336 0.998599 0
M  V30 2208 C 195.942 4.31448 0.218342 0
M  V30 2209 C 195.077 5.18098 1.17252 0
M  V30 2210 C 194.116 6.10902 0.382702 0
M  V30 2211 N 193.253 6.90176 1.28848 0
M  V30 2212 H 198.093 2.89357 -0.712511 0
M  V30 2213 H 195.63 1.42548 -0.363128 0
M  V30 2214 H 197.588 3.86572 1.56901 0
M  V30 2215 H 196.218 2.73397 1.71621 0
M  V30 2216 H 195.27 3.77506 -0.46836 0
M  V30 2217 H 196.582 4.97227 -0.395812 0
M  V30 2218 H 195.736 5.7896 1.81356 0
M  V30 2219 H 194.475 4.52444 1.82058 0
M  V30 2220 H 193.48 5.49128 -0.27169 0
M  V30 2221 H 194.705 6.78598 -0.260957 0
M  V30 2222 H 192.651 6.27171 1.92334 0
M  V30 2223 H 192.568 7.52478 0.728887 0
M  V30 2224 H 193.836 7.55543 1.91766 0
M  V30 2225 N 198.065 0.39524 1.52563 0
M  V30 2226 C 199.314 -0.186321 2.00838 0
M  V30 2227 C 199.627 -1.47402 1.28577 0
M  V30 2228 O 200.833 -2.13599 1.67593 0
M  V30 2229 C 199.289 -0.382595 3.57861 0
M  V30 2230 C 198.897 0.892202 4.39026 0
M  V30 2231 C 200.641 -0.9202 4.14406 0
M  V30 2232 C 198.548 0.66388 5.87662 0
M  V30 2233 H 197.478 -0.0734041 0.750418 0
M  V30 2234 H 200.129 0.518552 1.76021 0
M  V30 2235 H 198.511 -1.14946 3.7895 0
M  V30 2236 H 199.685 1.66414 4.29701 0
M  V30 2237 H 198 1.35519 3.9373 0
M  V30 2238 H 200.597 -1.10683 5.23119 0
M  V30 2239 H 200.94 -1.89096 3.70875 0
M  V30 2240 H 201.473 -0.212751 3.97231 0
M  V30 2241 H 198.212 1.6058 6.35527 0
M  V30 2242 H 197.732 -0.0690193 5.9976 0
M  V30 2243 H 199.411 0.300699 6.46301 0
M  V30 2244 N 199.544 -1.57102 0.125237 0
M  V30 2245 C 200.769 -2.0019 -0.542101 0
M  V30 2246 C 201.194 -1.00449 -1.59034 0
M  V30 2247 O 200.552 0.0229423 -1.81285 0
M  V30 2248 C 200.6 -3.42129 -1.13929 0
M  V30 2249 O 199.704 -3.45307 -2.2547 0
M  V30 2250 H 199.045 -0.650171 -0.134812 0
M  V30 2251 H 201.575 -2.03461 0.215553 0
M  V30 2252 H 201.585 -3.80471 -1.4733 0
M  V30 2253 H 200.26 -4.14237 -0.371531 0
M  V30 2254 H 198.837 -3.1879 -1.93462 0
M  V30 2255 N 201.022 0.148545 -1.56898 0
M  V30 2256 C 202.268 0.857877 -1.84424 0
M  V30 2257 C 202.623 1.7886 -0.709006 0
M  V30 2258 O 201.916 1.89344 0.293139 0
M  V30 2259 C 202.11 1.67064 -3.1595 0
M  V30 2260 C 201.939 0.82011 -4.42159 0
M  V30 2261 C 200.709 0.486328 -5.02954 0
M  V30 2262 C 202.907 0.151155 -5.14078 0
M  V30 2263 N 200.889 -0.377956 -6.12735 0
M  V30 2264 C 202.26 -0.573333 -6.17343 0
M  V30 2265 C 204.315 0.0716685 -4.97848 0
M  V30 2266 C 203.018 -1.3698 -7.06137 0
M  V30 2267 C 205.044 -0.711532 -5.87104 0
M  V30 2268 C 204.406 -1.42431 -6.8985 0
M  V30 2269 H 200.505 0.291798 -0.725519 0
M  V30 2270 H 203.089 0.123347 -1.94309 0
M  V30 2271 H 201.26 2.37642 -3.07215 0
M  V30 2272 H 202.992 2.32302 -3.31388 0
M  V30 2273 H 199.747 0.821753 -4.66416 0
M  V30 2274 H 200.171 -0.801077 -6.72244 0
M  V30 2275 H 204.813 0.608381 -4.184 0
M  V30 2276 H 202.531 -1.91778 -7.85014 0
M  V30 2277 H 206.117 -0.775005 -5.76615 0
M  V30 2278 H 204.997 -2.02061 -7.57721 0
M  V30 2279 N 202.5 1.5196 0.417844 0
M  V30 2280 C 203.728 1.69426 1.18753 0
M  V30 2281 C 204.143 0.399955 1.84515 0
M  V30 2282 O 203.5 -0.623288 1.71527 0
M  V30 2283 C 203.551 2.82375 2.25714 0
M  V30 2284 O 203.272 4.06793 1.62638 0
M  V30 2285 C 204.773 3.11277 3.15628 0
M  V30 2286 H 201.993 0.568031 0.357186 0
M  V30 2287 H 204.537 1.98475 0.49273 0
M  V30 2288 H 202.692 2.5587 2.90877 0
M  V30 2289 H 203.106 4.69667 2.3348 0
M  V30 2290 H 204.58 3.93843 3.86771 0
M  V30 2291 H 205.057 2.24473 3.77503 0
M  V30 2292 H 205.663 3.39515 2.56144 0
M  V30 2293 N 203.978 -0.674533 1.42435 0
M  V30 2294 C 205.218 -1.4466 1.44405 0
M  V30 2295 C 205.582 -1.91911 0.0585784 0
M  V30 2296 O 206.783 -2.68759 -0.0469991 0
M  V30 2297 C 205.054 -2.61136 2.44013 0
M  V30 2298 S 206.613 -3.49981 2.64687 0
M  V30 2299 H 203.431 -0.494074 0.511284 0
M  V30 2300 H 206.033 -0.785162 1.7904 0
M  V30 2301 H 204.737 -2.24662 3.43446 0
M  V30 2302 H 204.268 -3.32153 2.10803 0
M  V30 2303 H 206.283 -4.57124 1.93007 0
M  V30 2304 N 205.456 -1.28612 -0.910864 0
M  V30 2305 C 206.705 -1.15311 -1.65488 0
M  V30 2306 C 207.018 0.296999 -1.93332 0
M  V30 2307 O 208.224 0.551168 -2.65847 0
M  V30 2308 C 206.68 -2.01599 -2.98137 0
M  V30 2309 C 206.288 -3.51367 -2.7793 0
M  V30 2310 C 208.032 -1.96993 -3.76024 0
M  V30 2311 C 205.939 -4.29797 -4.06237 0
M  V30 2312 H 204.869 -0.42796 -0.620779 0
M  V30 2313 H 207.52 -1.53166 -1.01057 0
M  V30 2314 H 205.902 -1.56603 -3.63719 0
M  V30 2315 H 207.076 -4.0434 -2.21011 0
M  V30 2316 H 205.391 -3.57529 -2.13452 0
M  V30 2317 H 207.988 -2.52856 -4.71135 0
M  V30 2318 H 208.331 -0.94733 -4.05378 0
M  V30 2319 H 208.864 -2.39973 -3.17266 0
M  V30 2320 H 205.603 -5.32648 -3.82055 0
M  V30 2321 H 205.123 -3.81596 -4.62757 0
M  V30 2322 H 206.802 -4.39869 -4.74473 0
M  V30 2323 N 206.934 1.1197 -1.10907 0
M  V30 2324 C 207.882 2.19927 -0.757303 0
M  V30 2325 C 208.876 1.67564 0.248747 0
M  V30 2326 O 210.082 1.79672 0.108605 0
M  V30 2327 H 206.457 0.716925 -0.226987 0
M  V30 2328 H 208.428 2.46847 -1.67658 0
M  V30 2329 C 207.177 3.47061 -0.210671 0
M  V30 2330 H 206.5 3.87703 -0.976049 0
M  V30 2331 H 207.94 4.24 -0.0026584 0
M  V30 2332 C 206.399 3.19864 1.05777 0
M  V30 2333 O 206.929 3.40049 2.13845 0
M  V30 2334 N 205.135 2.73636 0.978349 0
M  V30 2335 H 204.682 2.5741 0.0988246 0
M  V30 2336 H 204.64 2.55815 1.82773 0
M  V30 2337 N 208.412 0.89855 1.29475 0
M  V30 2338 C 209.64 0.539261 1.99749 0
M  V30 2339 C 210.055 -0.875716 1.67262 0
M  V30 2340 O 209.412 -1.57786 0.917049 0
M  V30 2341 C 209.463 0.72061 3.54245 0
M  V30 2342 O 209.184 2.07989 3.8558 0
M  V30 2343 C 210.685 0.366118 4.41786 0
M  V30 2344 H 207.905 0.207047 0.638258 0
M  V30 2345 H 210.449 1.20758 1.65039 0
M  V30 2346 H 208.604 0.0994862 3.87272 0
M  V30 2347 H 209.018 2.10841 4.80257 0
M  V30 2348 H 210.492 0.543848 5.49314 0
M  V30 2349 H 210.969 -0.696763 4.33638 0
M  V30 2350 H 211.575 0.964135 4.14228 0
M  V30 2351 N 209.89 -1.43072 0.660911 0
M  V30 2352 C 211.118 -2.06067 0.185422 0
M  V30 2353 C 211.533 -1.49582 -1.15198 0
M  V30 2354 O 210.89 -0.630134 -1.71276 0
M  V30 2355 C 210.941 -3.61371 0.0966523 0
M  V30 2356 O 210.662 -4.15758 1.38119 0
M  V30 2357 C 212.163 -4.41455 -0.403996 0
M  V30 2358 H 209.383 -0.664459 0.0934604 0
M  V30 2359 H 211.927 -1.83447 0.90373 0
M  V30 2360 H 210.082 -3.8315 -0.572259 0
M  V30 2361 H 210.496 -5.09499 1.24542 0
M  V30 2362 H 211.97 -5.50437 -0.415045 0
M  V30 2363 H 212.447 -4.15036 -1.43674 0
M  V30 2364 H 213.053 -4.24663 0.232691 0
M  V30 2365 N 211.368 -0.403325 -1.52352 0
M  V30 2366 C 212.298 0.416205 -2.29761 0
M  V30 2367 C 213.279 1.05123 -1.33728 0
M  V30 2368 O 214.464 1.06134 -1.62632 0
M  V30 2369 C 211.594 1.53624 -3.11475 0
M  V30 2370 C 210.548 1.02653 -4.15507 0
M  V30 2371 C 209.874 2.23971 -4.85532 0
M  V30 2372 C 211.174 0.08463 -5.22231 0
M  V30 2373 H 212.868 -0.229701 -2.98518 0
M  V30 2374 H 210.414 -0.111913 -1.43564 0
M  V30 2375 H 212.367 2.1165 -3.64393 0
M  V30 2376 H 211.091 2.20994 -2.40477 0
M  V30 2377 H 209.75 0.46871 -3.63591 0
M  V30 2378 H 209.398 2.89883 -4.11068 0
M  V30 2379 H 209.098 1.90521 -5.55856 0
M  V30 2380 H 210.622 2.82614 -5.41259 0
M  V30 2381 H 212.036 0.573509 -5.70424 0
M  V30 2382 H 210.433 -0.160783 -5.99885 0
M  V30 2383 H 211.503 -0.86237 -4.7717 0
M  V30 2384 N 212.846 1.57033 -0.133567 0
M  V30 2385 C 214.074 2.00044 0.528195 0
M  V30 2386 C 214.489 1.01349 1.59291 0
M  V30 2387 O 213.846 0.00848369 1.82498 0
M  V30 2388 C 213.897 3.43018 1.1411 0
M  V30 2389 O 213.618 4.37939 0.11892 0
M  V30 2390 C 215.119 4.01237 1.88477 0
M  V30 2391 H 212.339 0.656517 0.138661 0
M  V30 2392 H 214.883 2.03267 -0.224196 0
M  V30 2393 H 213.038 3.40688 1.84418 0
M  V30 2394 H 213.452 5.21436 0.56613 0
M  V30 2395 H 214.926 5.03314 2.26669 0
M  V30 2396 H 215.403 3.41193 2.76558 0
M  V30 2397 H 216.009 4.07156 1.22898 0
M  V30 2398 N 214.325 -0.140222 1.56975 0
M  V30 2399 C 215.565 -0.857823 1.85528 0
M  V30 2400 C 215.929 -1.78039 0.718768 0
M  V30 2401 O 217.13 -2.53795 0.885521 0
M  V30 2402 C 215.401 -1.60615 3.19277 0
M  V30 2403 S 216.96 -2.36824 3.69405 0
M  V30 2404 H 213.778 -0.286727 0.650622 0
M  V30 2405 H 216.38 -0.117408 1.95147 0
M  V30 2406 H 215.084 -0.919994 3.99955 0
M  V30 2407 H 214.615 -2.38735 3.12681 0
M  V30 2408 H 216.63 -3.62148 3.3921 0
M  V30 2409 N 215.803 -1.52179 -0.40978 0
M  V30 2410 C 216.713 -1.78364 -1.52392 0
M  V30 2411 C 217.729 -0.669183 -1.60617 0
M  V30 2412 O 218.905 -0.954518 -1.77344 0
M  V30 2413 C 215.97 -1.92822 -2.88133 0
M  V30 2414 C 215.031 -3.16725 -2.898 0
M  V30 2415 C 214.264 -3.30483 -4.19067 0
M  V30 2416 O 214.487 -2.49522 -5.12928 0
M  V30 2417 O 213.421 -4.2363 -4.27576 0
M  V30 2418 H 217.247 -2.72931 -1.33201 0
M  V30 2419 H 214.832 -1.37016 -0.59557 0
M  V30 2420 H 216.714 -2.04157 -3.68643 0
M  V30 2421 H 215.389 -1.01444 -3.07393 0
M  V30 2422 H 214.296 -3.10848 -2.08146 0
M  V30 2423 H 215.629 -4.07881 -2.75489 0
M  V30 2424 N 217.281 0.66697 -1.42791 0
M  V30 2425 C 218.527 1.4291 -1.43891 0
M  V30 2426 C 218.86 1.94114 -0.0578972 0
M  V30 2427 O 218.135 1.71414 0.91911 0
M  V30 2428 C 218.418 2.62049 -2.46987 0
M  V30 2429 C 218.271 2.16426 -3.94309 0
M  V30 2430 C 219.59 3.64266 -2.46978 0
M  V30 2431 H 216.709 0.518306 -0.523954 0
M  V30 2432 H 219.351 0.757321 -1.74255 0
M  V30 2433 H 217.501 3.19361 -2.21225 0
M  V30 2434 H 219.173 1.64221 -4.31079 0
M  V30 2435 H 217.416 1.47925 -4.078 0
M  V30 2436 H 218.087 3.02038 -4.62036 0
M  V30 2437 H 220.563 3.16686 -2.69906 0
M  V30 2438 H 219.439 4.45196 -3.21079 0
M  V30 2439 H 219.7 4.15927 -1.49857 0
M  V30 2440 N 218.759 1.29093 0.90403 0
M  V30 2441 C 219.692 1.08176 2.00931 0
M  V30 2442 C 220.67 -0.005083 1.62599 0
M  V30 2443 O 221.854 0.144765 1.87943 0
M  V30 2444 C 218.981 0.645897 3.32484 0
M  V30 2445 C 218.027 1.73081 3.89801 0
M  V30 2446 S 218.86 3.32905 4.19446 0
M  V30 2447 C 220.016 2.91176 5.54046 0
M  V30 2448 H 220.249 2.01752 2.18365 0
M  V30 2449 H 217.782 1.13191 1.0501 0
M  V30 2450 H 219.74 0.401131 4.08535 0
M  V30 2451 H 218.401 -0.270188 3.12936 0
M  V30 2452 H 217.594 1.37768 4.84805 0
M  V30 2453 H 217.196 1.92888 3.20422 0
M  V30 2454 H 219.488 2.37952 6.34338 0
M  V30 2455 H 220.431 3.85014 5.94281 0
M  V30 2456 H 220.839 2.296 5.15698 0
M  V30 2457 N 220.237 -1.11381 1.11499 0
M  V30 2458 C 221.185 -2.19522 0.768956 0
M  V30 2459 C 222.179 -1.67693 -0.239857 0
M  V30 2460 O 223.385 -1.79727 -0.0990755 0
M  V30 2461 H 219.76 -0.715711 0.230786 0
M  V30 2462 H 221.731 -2.45954 1.68964 0
M  V30 2463 C 220.48 -3.46945 0.229073 0
M  V30 2464 H 219.803 -3.8718 0.996596 0
M  V30 2465 H 221.243 -4.23993 0.0251441 0
M  V30 2466 C 219.702 -3.2042 -1.04079 0
M  V30 2467 O 220.232 -3.41178 -2.12038 0
M  V30 2468 N 218.438 -2.74151 -0.963823 0
M  V30 2469 H 217.985 -2.57459 -0.0851722 0
M  V30 2470 H 217.943 -2.56781 -1.81414 0
M  V30 2471 N 221.715 -0.905404 -1.28997 0
M  V30 2472 C 222.963 -0.533192 -1.9494 0
M  V30 2473 C 223.284 0.924618 -1.71685 0
M  V30 2474 O 222.554 1.65268 -1.05183 0
M  V30 2475 H 221.134 -0.194194 -0.721317 0
M  V30 2476 H 223.796 -1.15294 -1.57141 0
M  V30 2477 H 222.892 -0.72059 -3.03667 0
M  V30 2478 N 223.193 1.4272 -0.668489 0
M  V30 2479 C 224.421 2.05966 -0.196348 0
M  V30 2480 C 224.836 1.50191 1.14403 0
M  V30 2481 O 224.193 0.639208 1.7094 0
M  V30 2482 C 224.244 3.61314 -0.115815 0
M  V30 2483 O 223.965 4.1502 -1.40322 0
M  V30 2484 C 225.466 4.41663 0.380579 0
M  V30 2485 H 222.686 0.663954 -0.0969829 0
M  V30 2486 H 225.23 1.82966 -0.913446 0
M  V30 2487 H 223.385 3.83448 0.551931 0
M  V30 2488 H 223.799 5.08832 -1.27243 0
M  V30 2489 H 225.273 5.5065 0.385848 0
M  V30 2490 H 225.75 4.15792 1.41471 0
M  V30 2491 H 226.356 4.24534 -0.255209 0
M  V30 2492 N 224.671 0.411399 1.52136 0
M  V30 2493 C 225.948 -0.222308 1.94333 0
M  V30 2494 C 226.328 -1.6242 1.34844 0
M  V30 2495 O 225.676 -2.22384 0.525145 0
M  V30 2496 C 225.886 -0.226345 3.48265 0
M  V30 2497 C 227.234 -0.444592 4.22266 0
M  V30 2498 O 228.258 -0.305602 3.54887 0
M  V30 2499 O 227.117 -0.718749 5.41753 0
M  V30 2500 H 224.211 -0.143907 0.814383 0
M  V30 2501 H 226.757 0.467506 1.63133 0
M  V30 2502 H 225.529 0.75475 3.83952 0
M  V30 2503 H 225.152 -0.960163 3.85832 0
M  V30 2504 N 226.149 -1.5696 0.141893 0
M  V30 2505 C 227.56 -1.82797 -0.379776 0
M  V30 2506 C 227.911 -1.06033 -1.6508 0
M  V30 2507 O 227.036 -0.304011 -2.14254 0
M  V30 2508 C 227.631 -3.31578 -0.695802 0
M  V30 2509 C 226.19 -3.58014 -1.16201 0
M  V30 2510 C 225.337 -2.76699 -0.182455 0
M  V30 2511 H 228.288 -1.54406 0.366675 0
M  V30 2512 H 228.309 -3.47454 -1.55099 0
M  V30 2513 H 227.821 -3.87421 0.229449 0
M  V30 2514 H 225.922 -3.07553 -2.10338 0
M  V30 2515 H 226.035 -4.66501 -1.09151 0
M  V30 2516 H 224.399 -2.45618 -0.674072 0
M  V30 2517 H 225.182 -3.35311 0.736297 0
M  V30 2518 N 227.627 0.131896 -1.57047 0
M  V30 2519 C 228.537 1.1815 -2.02676 0
M  V30 2520 C 229.553 1.46113 -0.944824 0
M  V30 2521 O 230.729 1.57485 -1.25541 0
M  V30 2522 C 227.794 2.49139 -2.41103 0
M  V30 2523 C 226.855 2.28688 -3.63318 0
M  V30 2524 C 226.088 3.53431 -3.99903 0
M  V30 2525 O 226.311 4.60223 -3.36973 0
M  V30 2526 O 225.245 3.45198 -4.93074 0
M  V30 2527 H 229.071 0.824069 -2.92306 0
M  V30 2528 H 226.656 0.341745 -1.45439 0
M  V30 2529 H 228.538 3.26338 -2.66611 0
M  V30 2530 H 227.213 2.84382 -1.54624 0
M  V30 2531 H 226.12 1.4939 -3.42977 0
M  V30 2532 H 227.453 1.98355 -4.50462 0
M  V30 2533 N 229.106 1.52395 0.401703 0
M  V30 2534 C 230.036 1.79231 1.49661 0
M  V30 2535 C 231.017 0.643654 1.57452 0
M  V30 2536 O 232.202 0.889989 1.72606 0
M  V30 2537 C 229.332 1.94971 2.87409 0
M  V30 2538 C 228.286 3.10604 2.94465 0
M  V30 2539 C 227.612 3.11577 4.34538 0
M  V30 2540 C 228.912 4.49921 2.6527 0
M  V30 2541 H 230.606 2.70917 1.27454 0
M  V30 2542 H 228.152 1.30362 0.6117 0
M  V30 2543 H 230.105 2.12328 3.63999 0
M  V30 2544 H 228.829 0.999632 3.10926 0
M  V30 2545 H 227.488 2.93009 2.20321 0
M  V30 2546 H 227.136 2.14277 4.55076 0
M  V30 2547 H 226.836 3.89247 4.40183 0
M  V30 2548 H 228.36 3.31073 5.13053 0
M  V30 2549 H 229.774 4.67683 3.31581 0
M  V30 2550 H 228.171 5.29564 2.82281 0
M  V30 2551 H 229.241 4.57507 1.60671 0
M  V30 2552 N 230.584 -0.659388 1.43143 0
M  V30 2553 C 231.532 -1.79374 1.4808 0
M  V30 2554 C 232.526 -1.65639 0.354988 0
M  V30 2555 O 233.732 -1.7206 0.528704 0
M  V30 2556 H 230.107 -0.591705 0.4641 0
M  V30 2557 H 232.078 -1.72329 2.43609 0
M  V30 2558 C 230.827 -3.17606 1.41499 0
M  V30 2559 H 230.15 -3.28809 2.27431 0
M  V30 2560 H 231.59 -3.96951 1.49015 0
M  V30 2561 C 230.049 -3.36642 0.131765 0
M  V30 2562 O 230.579 -3.93461 -0.809386 0
M  V30 2563 N 228.785 -2.90567 0.0439396 0
M  V30 2564 H 228.332 -2.44513 0.810619 0
M  V30 2565 H 228.29 -3.03681 -0.813969 0
M  V30 2566 N 232.062 -1.29571 -0.897171 0
M  V30 2567 C 232.992 -1.17473 -2.01798 0
M  V30 2568 C 233.973 -0.068323 -1.69963 0
M  V30 2569 O 235.158 -0.248239 -1.92607 0
M  V30 2570 C 232.288 -0.853099 -3.36659 0
M  V30 2571 C 231.242 -1.9161 -3.82713 0
M  V30 2572 C 230.568 -1.44773 -5.14728 0
M  V30 2573 C 231.868 -3.32535 -4.02763 0
M  V30 2574 H 233.562 -2.11237 -2.12177 0
M  V30 2575 H 231.108 -1.01699 -1.01948 0
M  V30 2576 H 233.061 -0.755165 -4.14578 0
M  V30 2577 H 231.785 0.120236 -3.26379 0
M  V30 2578 H 230.444 -2.00346 -3.07013 0
M  V30 2579 H 230.092 -0.462995 -5.00865 0
M  V30 2580 H 229.792 -2.15865 -5.46513 0
M  V30 2581 H 231.316 -1.36334 -5.95185 0
M  V30 2582 H 232.73 -3.26626 -4.71156 0
M  V30 2583 H 231.127 -4.01607 -4.45905 0
M  V30 2584 H 232.197 -3.75326 -3.07016 0
M  V30 2585 N 233.54 1.10788 -1.12088 0
M  V30 2586 C 234.77 1.86191 -0.895351 0
M  V30 2587 C 235.178 1.80763 0.558702 0
M  V30 2588 O 234.521 1.19188 1.39785 0
M  V30 2589 C 234.583 3.35659 -1.28737 0
M  V30 2590 C 234.247 3.64849 -2.75198 0
M  V30 2591 C 235.244 3.61757 -3.734 0
M  V30 2592 C 232.929 3.93641 -3.12013 0
M  V30 2593 C 234.923 3.87045 -5.06434 0
M  V30 2594 C 232.61 4.18585 -4.4523 0
M  V30 2595 C 233.608 4.15277 -5.42249 0
M  V30 2596 O 233.296 4.3959 -6.73065 0
M  V30 2597 H 233.028 0.595425 -0.32007 0
M  V30 2598 H 235.582 1.40992 -1.49367 0
M  V30 2599 H 233.812 3.81497 -0.63224 0
M  V30 2600 H 235.501 3.92441 -1.03656 0
M  V30 2601 H 236.267 3.39557 -3.46303 0
M  V30 2602 H 232.146 3.95348 -2.37109 0
M  V30 2603 H 235.69 3.84378 -5.82151 0
M  V30 2604 H 231.587 4.40264 -4.72057 0
M  V30 2605 H 232.355 4.57123 -6.78956 0
M  V30 2606 N 235.018 0.912232 1.28515 0
M  V30 2607 C 235.95 0.35676 2.26406 0
M  V30 2608 C 236.963 -0.503933 1.54804 0
M  V30 2609 O 238.152 -0.319059 1.75625 0
M  V30 2610 C 235.252 -0.508825 3.35058 0
M  V30 2611 C 234.425 0.329007 4.36161 0
M  V30 2612 C 233.484 -0.471422 5.24084 0
M  V30 2613 O 232.51 0.115482 5.69083 0
M  V30 2614 N 233.712 -1.77479 5.52704 0
M  V30 2615 H 236.477 1.19818 2.74707 0
M  V30 2616 H 234.038 0.778022 1.4198 0
M  V30 2617 H 236.03 -1.051 3.90815 0
M  V30 2618 H 234.6 -1.25095 2.86478 0
M  V30 2619 H 233.82 1.05256 3.79888 0
M  V30 2620 H 235.108 0.90234 5.00735 0
M  V30 2621 H 234.506 -2.27417 5.17975 0
M  V30 2622 H 233.063 -2.26382 6.11224 0
M  V30 2623 N 236.496 -1.42363 0.676048 0
M  V30 2624 C 237.773 -1.95183 0.127726 0
M  V30 2625 C 238.153 -1.61641 -1.35777 0
M  V30 2626 O 237.501 -0.913216 -2.09458 0
M  V30 2627 C 237.711 -3.46721 0.398199 0
M  V30 2628 C 239.059 -4.23427 0.315383 0
M  V30 2629 O 240.083 -3.54649 0.332016 0
M  V30 2630 O 238.942 -5.45888 0.25865 0
M  V30 2631 H 236.036 -0.826992 0.00359427 0
M  V30 2632 H 238.582 -1.52184 0.750864 0
M  V30 2633 H 237.354 -3.64344 1.4272 0
M  V30 2634 H 236.977 -3.96769 -0.256885 0
M  V30 2635 N 237.974 -0.419461 -1.51915 0
M  V30 2636 C 239.222 0.152637 -2.01523 0
M  V30 2637 C 239.543 1.44762 -1.30649 0
M  V30 2638 O 238.813 1.90997 -0.435535 0
M  V30 2639 H 237.393 0.0593966 -0.744635 0
M  V30 2640 H 240.055 -0.558073 -1.86739 0
M  V30 2641 H 239.151 0.341369 -3.10227 0
M  V30 2642 N 239.452 1.56882 -0.150215 0
M  V30 2643 C 240.399 2.16922 0.788244 0
M  V30 2644 C 241.369 1.10303 1.24187 0
M  V30 2645 O 242.554 1.38359 1.31383 0
M  V30 2646 C 239.694 2.79754 2.02068 0
M  V30 2647 C 238.807 4.00775 1.61257 0
M  V30 2648 C 237.942 4.51595 2.79705 0
M  V30 2649 C 236.981 5.65074 2.35282 0
M  V30 2650 N 236.118 6.10499 3.4675 0
M  V30 2651 H 240.958 2.96779 0.269444 0
M  V30 2652 H 238.495 1.46599 0.12128 0
M  V30 2653 H 240.453 3.14329 2.74323 0
M  V30 2654 H 239.083 2.02536 2.51354 0
M  V30 2655 H 238.135 3.72158 0.787553 0
M  V30 2656 H 239.447 4.82978 1.24633 0
M  V30 2657 H 238.601 4.88242 3.60145 0
M  V30 2658 H 237.34 3.68406 3.19576 0
M  V30 2659 H 236.345 5.28 1.53283 0
M  V30 2660 H 237.57 6.50052 1.96493 0
M  V30 2661 H 235.516 5.30243 3.86236 0
M  V30 2662 H 235.433 6.87637 3.14152 0
M  V30 2663 H 236.701 6.51791 4.27537 0
M  V30 2664 N 240.93 -0.123565 1.57115 0
M  V30 2665 C 241.88 -1.1575 1.96433 0
M  V30 2666 C 242.864 -1.37313 0.838686 0
M  V30 2667 O 244.056 -1.38482 1.10235 0
M  V30 2668 C 241.185 -2.48526 2.36833 0
M  V30 2669 C 240.271 -2.30457 3.5602 0
M  V30 2670 N 240.662 -1.8219 4.71848 0
M  V30 2671 C 238.96 -2.61129 3.61563 0
M  V30 2672 C 239.661 -1.77721 5.53886 0
M  V30 2673 N 238.637 -2.21899 4.96248 0
M  V30 2674 H 242.439 -0.776797 2.83449 0
M  V30 2675 H 239.953 -0.331364 1.58983 0
M  V30 2676 H 241.95 -3.233 2.63216 0
M  V30 2677 H 240.61 -2.87358 1.5118 0
M  V30 2678 H 241.621 -1.51805 4.95152 0
M  V30 2679 H 238.298 -3.03678 2.86507 0
M  V30 2680 H 239.688 -1.41697 6.56789 0
M  V30 2681 N 242.408 -1.52605 -0.393616 0
M  V30 2682 C 243.338 -1.80022 -1.48709 0
M  V30 2683 C 244.319 -0.651995 -1.57108 0
M  V30 2684 O 245.504 -0.89913 -1.72132 0
M  V30 2685 C 242.634 -1.96492 -2.86371 0
M  V30 2686 C 241.588 -3.12161 -2.92813 0
M  V30 2687 C 240.914 -3.13877 -4.3288 0
M  V30 2688 C 242.214 -4.51322 -2.6288 0
M  V30 2689 H 243.908 -2.71589 -1.26015 0
M  V30 2690 H 241.454 -1.30684 -0.604778 0
M  V30 2691 H 243.407 -2.14255 -3.62867 0
M  V30 2692 H 242.131 -1.01611 -3.10391 0
M  V30 2693 H 240.79 -2.94173 -2.18764 0
M  V30 2694 H 240.438 -2.16687 -4.53933 0
M  V30 2695 H 240.138 -3.91576 -4.38112 0
M  V30 2696 H 241.662 -3.33789 -5.1129 0
M  V30 2697 H 243.076 -4.69435 -3.29096 0
M  V30 2698 H 241.473 -5.31053 -2.79468 0
M  V30 2699 H 242.543 -4.58353 -1.58242 0
M  V30 2700 N 243.887 0.651787 -1.4349 0
M  V30 2701 C 244.834 1.76462 -1.4876 0
M  V30 2702 C 245.804 1.62641 -0.337189 0
M  V30 2703 O 246.989 1.82864 -0.544544 0
M  V30 2704 C 244.129 3.14623 -1.41796 0
M  V30 2705 C 243.242 3.39568 -2.67053 0
M  V30 2706 C 242.377 4.67585 -2.52068 0
M  V30 2707 C 241.416 4.85639 -3.72587 0
M  V30 2708 N 240.553 6.04915 -3.56402 0
M  V30 2709 H 245.393 1.71293 -2.43849 0
M  V30 2710 H 242.93 0.835889 -1.21043 0
M  V30 2711 H 244.888 3.94496 -1.35753 0
M  V30 2712 H 243.518 3.18859 -0.50288 0
M  V30 2713 H 242.57 2.53783 -2.8337 0
M  V30 2714 H 243.882 3.48795 -3.56572 0
M  V30 2715 H 243.036 5.55586 -2.4374 0
M  V30 2716 H 241.775 4.60681 -1.60075 0
M  V30 2717 H 240.78 3.96073 -3.81321 0
M  V30 2718 H 242.005 4.94372 -4.65589 0
M  V30 2719 H 239.951 5.9914 -2.67146 0
M  V30 2720 H 239.868 6.15106 -4.39524 0
M  V30 2721 H 241.136 6.95533 -3.51929 0
M  V30 2722 N 245.365 1.30045 0.890287 0
M  V30 2723 C 246.295 1.18541 2.01172 0
M  V30 2724 C 247.276 0.0773356 1.69924 0
M  V30 2725 O 248.461 0.25845 1.92473 0
M  V30 2726 C 245.591 0.870941 3.36202 0
M  V30 2727 C 244.545 1.93637 3.81692 0
M  V30 2728 C 243.871 1.475 5.13953 0
M  V30 2729 C 245.171 3.34666 4.00994 0
M  V30 2730 H 246.865 2.12359 2.11054 0
M  V30 2731 H 244.411 1.02238 1.01407 0
M  V30 2732 H 246.364 0.777141 4.14172 0
M  V30 2733 H 245.088 -0.102926 3.26438 0
M  V30 2734 H 243.747 2.01972 3.05946 0
M  V30 2735 H 243.395 0.489551 5.00612 0
M  V30 2736 H 243.095 2.1876 5.4536 0
M  V30 2737 H 244.619 1.39489 5.94454 0
M  V30 2738 H 246.033 3.2912 4.69417 0
M  V30 2739 H 244.43 4.03966 4.43769 0
M  V30 2740 H 245.5 3.76949 3.05021 0
M  V30 2741 N 246.843 -1.10192 1.12674 0
M  V30 2742 C 248.068 -1.86523 0.906853 0
M  V30 2743 C 248.493 -1.80221 -0.538711 0
M  V30 2744 O 247.851 -1.17396 -1.38158 0
M  V30 2745 C 247.899 -3.32758 1.3894 0
M  V30 2746 O 247.003 -4.08449 0.5695 0
M  V30 2747 H 246.344 -0.578678 0.325619 0
M  V30 2748 H 248.874 -1.39203 1.49946 0
M  V30 2749 H 248.884 -3.83608 1.38958 0
M  V30 2750 H 247.559 -3.36661 2.44197 0
M  V30 2751 H 246.136 -3.67427 0.636528 0
M  V30 2752 N 248.321 -0.919034 -1.28029 0
M  V30 2753 C 249.253 -0.368762 -2.26214 0
M  V30 2754 C 250.266 0.495716 -1.55069 0
M  V30 2755 O 251.455 0.30974 -1.75792 0
M  V30 2756 C 248.555 0.491049 -3.35324 0
M  V30 2757 C 247.728 -0.352133 -4.3598 0
M  V30 2758 C 246.787 0.443622 -5.24327 0
M  V30 2759 O 245.813 -0.14566 -5.69014 0
M  V30 2760 N 247.015 1.74545 -5.53637 0
M  V30 2761 H 249.78 -1.21273 -2.74068 0
M  V30 2762 H 247.341 -0.785541 -1.41566 0
M  V30 2763 H 249.333 1.03026 -3.91366 0
M  V30 2764 H 247.903 1.23574 -2.87138 0
M  V30 2765 H 247.123 -1.07269 -3.79324 0
M  V30 2766 H 248.411 -0.928883 -5.00249 0
M  V30 2767 H 247.809 2.24666 -5.19174 0
M  V30 2768 H 246.366 2.23138 -6.12416 0
M  V30 2769 N 249.799 1.42003 -0.683588 0
M  V30 2770 C 251.215 1.55625 -0.353976 0
M  V30 2771 C 251.415 1.66151 1.14 0
M  V30 2772 O 250.471 1.63329 1.92561 0
M  V30 2773 C 251.784 2.80171 -1.092 0
M  V30 2774 C 253.332 2.93954 -1.07518 0
M  V30 2775 C 253.807 4.21372 -1.79471 0
M  V30 2776 N 255.298 4.28303 -1.76381 0
M  V30 2777 C 256.033 5.25729 -2.28904 0
M  V30 2778 N 255.529 6.29254 -2.89846 0
M  V30 2779 N 257.322 5.17586 -2.19228 0
M  V30 2780 H 249.473 1.33415 -1.6527 0
M  V30 2781 H 251.736 0.64282 -0.696769 0
M  V30 2782 H 251.442 2.78561 -2.14701 0
M  V30 2783 H 251.316 3.7133 -0.662862 0
M  V30 2784 H 253.703 2.95086 -0.028475 0
M  V30 2785 H 253.784 2.04002 -1.54328 0
M  V30 2786 H 253.428 4.21001 -2.84114 0
M  V30 2787 H 253.358 5.10275 -1.30104 0
M  V30 2788 H 255.849 3.54119 -1.31939 0
M  V30 2789 H 256.162 6.99964 -3.27522 0
M  V30 2790 H 254.507 6.29791 -2.93919 0
M  V30 2791 H 257.698 4.35631 -1.71299 0
M  V30 2792 H 257.871 5.93348 -2.60466 0
M  V30 2793 N 251.277 0.427512 1.51691 0
M  V30 2794 C 252.523 -0.142439 2.02299 0
M  V30 2795 C 252.856 -1.43214 1.31162 0
M  V30 2796 O 252.131 -1.89833 0.423511 0
M  V30 2797 C 252.414 -0.371301 3.58181 0
M  V30 2798 C 252.267 0.936358 4.39946 0
M  V30 2799 C 253.586 -1.14542 4.24933 0
M  V30 2800 H 250.705 -0.0502937 0.735282 0
M  V30 2801 H 253.347 0.564584 1.81418 0
M  V30 2802 H 251.497 -0.973559 3.76104 0
M  V30 2803 H 253.169 1.57184 4.33694 0
M  V30 2804 H 251.412 1.5432 4.05423 0
M  V30 2805 H 252.083 0.730388 5.47147 0
M  V30 2806 H 254.559 -0.635362 4.11221 0
M  V30 2807 H 253.435 -1.27431 5.33903 0
M  V30 2808 H 253.696 -2.17093 3.85127 0
M  V30 2809 N 252.755 -1.56801 0.158532 0
M  V30 2810 C 254.004 -1.95665 -0.489702 0
M  V30 2811 C 254.317 -1.04654 -1.65248 0
M  V30 2812 O 255.523 -1.33146 -2.3661 0
M  V30 2813 C 253.979 -3.47874 -0.922582 0
M  V30 2814 C 253.587 -4.47489 0.213893 0
M  V30 2815 C 255.331 -3.95583 -1.53996 0
M  V30 2816 C 253.238 -5.90921 -0.237903 0
M  V30 2817 H 252.168 -0.730516 -0.186716 0
M  V30 2818 H 254.819 -1.81861 0.244722 0
M  V30 2819 H 253.201 -3.57051 -1.71261 0
M  V30 2820 H 254.375 -4.50017 0.991036 0
M  V30 2821 H 252.69 -4.09764 0.740407 0
M  V30 2822 H 255.287 -5.0019 -1.8898 0
M  V30 2823 H 255.63 -3.37789 -2.43319 0
M  V30 2824 H 256.163 -3.8937 -0.814611 0
M  V30 2825 H 252.902 -6.52559 0.620236 0
M  V30 2826 H 252.422 -5.91729 -0.980676 0
M  V30 2827 H 254.101 -6.43352 -0.686067 0
M  V30 2828 N 254.233 0.115231 -1.57178 0
M  V30 2829 C 255.461 0.836437 -1.89239 0
M  V30 2830 C 255.876 1.73256 -0.750175 0
M  V30 2831 O 255.233 1.80357 0.278832 0
M  V30 2832 C 255.284 1.66671 -3.20785 0
M  V30 2833 O 255.005 0.806652 -4.3061 0
M  V30 2834 C 256.506 2.49274 -3.66575 0
M  V30 2835 H 253.726 0.240253 -0.626514 0
M  V30 2836 H 256.27 0.0984932 -2.04263 0
M  V30 2837 H 254.425 2.35737 -3.0742 0
M  V30 2838 H 254.839 1.37969 -5.06028 0
M  V30 2839 H 256.313 3.03055 -4.6137 0
M  V30 2840 H 256.79 3.26807 -2.93417 0
M  V30 2841 H 257.396 1.85443 -3.82741 0
M  V30 2842 N 255.711 1.52812 0.385517 0
M  V30 2843 C 256.661 1.74219 1.47078 0
M  V30 2844 C 257.645 0.59632 1.49442 0
M  V30 2845 O 258.837 0.85428 1.5502 0
M  V30 2846 C 255.966 1.9176 2.84751 0
M  V30 2847 C 255.052 3.12289 2.86943 0
M  V30 2848 N 255.443 4.34575 2.58802 0
M  V30 2849 C 253.741 3.12605 3.1811 0
M  V30 2850 C 254.442 5.162 2.68166 0
M  V30 2851 N 253.418 4.51964 3.02043 0
M  V30 2852 H 257.22 2.6639 1.24152 0
M  V30 2853 H 254.734 1.51166 0.593504 0
M  V30 2854 H 256.731 2.05218 3.62893 0
M  V30 2855 H 255.391 1.00805 3.08656 0
M  V30 2856 H 256.402 4.62649 2.32759 0
M  V30 2857 H 253.079 2.31472 3.47458 0
M  V30 2858 H 254.469 6.23689 2.49923 0
M  V30 2859 N 257.189 -0.644168 1.43834 0
M  V30 2860 C 258.136 -1.75671 1.49694 0
M  V30 2861 C 259.106 -1.6246 0.345809 0
M  V30 2862 O 260.291 -1.82573 0.554234 0
M  V30 2863 C 257.431 -3.13867 1.43463 0
M  V30 2864 C 256.544 -3.38147 2.6885 0
M  V30 2865 C 255.679 -4.66241 2.54544 0
M  V30 2866 C 254.718 -4.83657 3.75157 0
M  V30 2867 N 253.855 -6.03016 3.59605 0
M  V30 2868 H 258.695 -1.69998 2.44754 0
M  V30 2869 H 256.232 -0.829458 1.21484 0
M  V30 2870 H 258.19 -3.9377 1.37843 0
M  V30 2871 H 256.82 -3.18588 0.519783 0
M  V30 2872 H 255.872 -2.52276 2.84712 0
M  V30 2873 H 257.184 -3.46899 3.58417 0
M  V30 2874 H 256.338 -5.54285 2.46683 0
M  V30 2875 H 255.077 -4.59826 1.62516 0
M  V30 2876 H 254.082 -3.94046 3.83416 0
M  V30 2877 H 255.307 -4.91896 4.68204 0
M  V30 2878 H 253.253 -5.97715 2.7032 0
M  V30 2879 H 253.17 -6.12766 4.42779 0
M  V30 2880 H 254.438 -6.93657 3.55613 0
M  V30 2881 N 258.668 -1.30515 -0.883378 0
M  V30 2882 C 259.914 -1.20617 -1.63778 0
M  V30 2883 C 260.269 0.236469 -1.90941 0
M  V30 2884 O 259.562 1.16596 -1.52039 0
M  V30 2885 C 259.756 -1.96994 -2.98209 0
M  V30 2886 C 259.585 -3.48537 -2.84169 0
M  V30 2887 C 258.355 -4.17893 -2.84067 0
M  V30 2888 C 260.553 -4.43738 -2.60001 0
M  V30 2889 N 258.535 -5.55685 -2.60936 0
M  V30 2890 C 259.906 -5.69105 -2.46007 0
M  V30 2891 C 261.961 -4.33316 -2.45239 0
M  V30 2892 C 260.664 -6.8523 -2.18752 0
M  V30 2893 C 262.69 -5.4921 -2.19369 0
M  V30 2894 C 262.052 -6.73558 -2.06153 0
M  V30 2895 H 258.151 -0.496434 -0.604216 0
M  V30 2896 H 260.735 -1.64544 -1.04083 0
M  V30 2897 H 258.906 -1.55455 -3.55933 0
M  V30 2898 H 260.638 -1.79225 -3.62851 0
M  V30 2899 H 257.393 -3.69739 -2.95956 0
M  V30 2900 H 257.817 -6.28199 -2.52378 0
M  V30 2901 H 262.459 -3.37856 -2.54191 0
M  V30 2902 H 260.177 -7.80729 -2.08537 0
M  V30 2903 H 263.763 -5.43054 -2.08766 0
M  V30 2904 H 262.643 -7.61721 -1.86416 0
M  V30 2905 N 260.146 1.09593 -1.13257 0
M  V30 2906 C 261.374 1.855 -0.916378 0
M  V30 2907 C 261.789 1.81069 0.534738 0
M  V30 2908 O 261.146 1.20562 1.37007 0
M  V30 2909 C 261.197 3.33546 -1.39388 0
M  V30 2910 O 260.918 3.37927 -2.78813 0
M  V30 2911 C 262.419 4.26299 -1.21588 0
M  V30 2912 H 259.639 0.585991 -0.326887 0
M  V30 2913 H 262.183 1.38488 -1.5047 0
M  V30 2914 H 260.338 3.77992 -0.848597 0
M  V30 2915 H 260.752 4.30254 -2.9997 0
M  V30 2916 H 262.226 5.28341 -1.59876 0
M  V30 2917 H 262.703 4.38918 -0.157376 0
M  V30 2918 H 263.309 3.87668 -1.7491 0
M  V30 2919 N 261.624 0.925811 1.2754 0
M  V30 2920 C 262.852 0.581509 1.9856 0
M  V30 2921 C 263.267 -0.840041 1.69082 0
M  V30 2922 O 262.624 -1.55805 0.950312 0
M  V30 2923 C 262.675 0.795589 3.52637 0
M  V30 2924 O 262.396 2.16121 3.81082 0
M  V30 2925 C 263.897 0.459744 4.4091 0
M  V30 2926 H 261.117 0.220538 0.633722 0
M  V30 2927 H 263.661 1.24232 1.6244 0
M  V30 2928 H 261.816 0.18161 3.86974 0
M  V30 2929 H 262.23 2.2098 4.75676 0
M  V30 2930 H 263.704 0.660244 5.48037 0
M  V30 2931 H 264.181 -0.604625 4.35018 0
M  V30 2932 H 264.787 1.05178 4.12089 0
M  V30 2933 N 263.102 -1.41638 0.69111 0
M  V30 2934 C 264.327 -2.06148 0.227583 0
M  V30 2935 C 264.752 -1.51652 -1.11281 0
M  V30 2936 O 264.11 -0.64164 -1.69566 0
M  V30 2937 C 264.158 -3.60095 0.190858 0
M  V30 2938 O 263.262 -4.03845 -0.835664 0
M  V30 2939 H 262.603 -0.654434 0.112306 0
M  V30 2940 H 265.133 -1.81484 0.944714 0
M  V30 2941 H 265.143 -4.07995 0.020207 0
M  V30 2942 H 263.818 -3.99129 1.16915 0
M  V30 2943 H 262.395 -3.67458 -0.63473 0
M  V30 2944 N 264.58 -0.43555 -1.51462 0
M  V30 2945 C 265.51 0.367376 -2.30592 0
M  V30 2946 C 266.491 1.02263 -1.35928 0
M  V30 2947 O 267.676 1.02661 -1.64847 0
M  V30 2948 C 264.806 1.46983 -3.14664 0
M  V30 2949 C 263.76 0.938161 -4.17591 0
M  V30 2950 C 263.086 2.13622 -4.90173 0
M  V30 2951 C 264.386 -0.0261621 -5.22293 0
M  V30 2952 H 266.08 -0.292969 -2.97963 0
M  V30 2953 H 263.626 -0.14234 -1.43295 0
M  V30 2954 H 265.579 2.03873 -3.688 0
M  V30 2955 H 264.303 2.15843 -2.4511 0
M  V30 2956 H 262.962 0.391481 -3.64504 0
M  V30 2957 H 262.61 2.81098 -4.17124 0
M  V30 2958 H 262.31 1.78688 -5.59772 0
M  V30 2959 H 263.834 2.7107 -5.47132 0
M  V30 2960 H 265.248 0.452384 -5.71512 0
M  V30 2961 H 263.645 -0.287992 -5.99409 0
M  V30 2962 H 264.715 -0.963391 -4.75233 0
M  V30 2963 N 266.058 1.56714 -0.166846 0
M  V30 2964 C 267.283 2.01557 0.488833 0
M  V30 2965 C 267.708 1.0463 1.56314 0
M  V30 2966 O 267.066 0.0251304 1.81283 0
M  V30 2967 C 267.114 3.4503 1.04818 0
M  V30 2968 O 266.218 3.51163 2.16236 0
M  V30 2969 H 265.559 0.653516 0.117526 0
M  V30 2970 H 268.089 2.02818 -0.269421 0
M  V30 2971 H 268.099 3.84243 1.37191 0
M  V30 2972 H 266.774 4.15077 0.261572 0
M  V30 2973 H 265.351 3.23807 1.84942 0
M  V30 2974 N 267.536 -0.106894 1.57237 0
M  V30 2975 C 268.499 -1.11466 2.0027 0
M  V30 2976 C 269.499 -1.33623 0.894519 0
M  V30 2977 O 270.689 -1.29935 1.16028 0
M  V30 2978 C 267.821 -2.46646 2.35327 0
M  V30 2979 H 269.014 -0.744516 2.90512 0
M  V30 2980 H 266.567 -0.351576 1.52295 0
M  V30 2981 H 267.302 -2.88558 1.48003 0
M  V30 2982 H 267.087 -2.31915 3.16161 0
M  V30 2983 H 268.577 -3.19151 2.69318 0
M  V30 2984 N 269.014 -1.53014 -0.377408 0
M  V30 2985 C 269.961 -1.78616 -1.46168 0
M  V30 2986 C 270.931 -0.629917 -1.53692 0
M  V30 2987 O 272.116 -0.870861 -1.69766 0
M  V30 2988 C 269.256 -1.97123 -2.8326 0
M  V30 2989 C 268.369 -3.24831 -2.84796 0
M  V30 2990 C 267.504 -3.33591 -4.13389 0
M  V30 2991 C 266.543 -4.55377 -4.09021 0
M  V30 2992 N 265.68 -4.61355 -5.29241 0
M  V30 2993 H 270.52 -2.71142 -1.23637 0
M  V30 2994 H 268.057 -1.34326 -0.599577 0
M  V30 2995 H 270.015 -2.05839 -3.62886 0
M  V30 2996 H 268.645 -1.07946 -3.04216 0
M  V30 2997 H 267.697 -3.25128 -1.97474 0
M  V30 2998 H 269.009 -4.14523 -2.77439 0
M  V30 2999 H 268.163 -3.41554 -5.01424 0
M  V30 3000 H 266.902 -2.41894 -4.23484 0
M  V30 3001 H 265.907 -4.47527 -3.19373 0
M  V30 3002 H 267.132 -5.48402 -4.00539 0
M  V30 3003 H 265.078 -3.72554 -5.39944 0
M  V30 3004 H 264.995 -5.44935 -5.24006 0
M  V30 3005 H 266.263 -4.73586 -6.19141 0
M  V30 3006 N 270.492 0.636531 -1.44174 0
M  V30 3007 C 271.739 1.39619 -1.46672 0
M  V30 3008 C 272.067 1.94257 -0.0972691 0
M  V30 3009 O 271.322 1.73768 0.900175 0
M  V30 3010 C 271.621 2.58309 -2.47005 0
M  V30 3011 C 271.287 2.21992 -3.92467 0
M  V30 3012 C 269.949 2.118 -4.32081 0
M  V30 3013 C 272.301 1.9321 -4.84065 0
M  V30 3014 C 269.629 1.71007 -5.61225 0
M  V30 3015 C 271.981 1.53911 -6.13591 0
M  V30 3016 C 270.645 1.42257 -6.52165 0
M  V30 3017 H 269.915 0.510902 -0.536712 0
M  V30 3018 H 272.562 0.722328 -1.77355 0
M  V30 3019 H 270.867 3.30903 -2.09786 0
M  V30 3020 H 272.564 3.16533 -2.46186 0
M  V30 3021 H 269.154 2.30841 -3.61124 0
M  V30 3022 H 273.338 1.99997 -4.54219 0
M  V30 3023 H 268.594 1.60583 -5.89935 0
M  V30 3024 H 272.768 1.30677 -6.8403 0
M  V30 3025 H 270.395 1.10419 -7.52138 0
M  V30 3026 N 271.97 1.30982 0.876444 0
M  V30 3027 C 272.917 1.18085 1.98304 0
M  V30 3028 C 273.887 0.0682263 1.6596 0
M  V30 3029 O 275.072 0.239937 1.89285 0
M  V30 3030 C 272.212 0.887475 3.33493 0
M  V30 3031 C 271.325 2.08281 3.78475 0
M  V30 3032 C 270.46 1.72678 5.0235 0
M  V30 3033 C 269.499 2.88657 5.39762 0
M  V30 3034 N 268.636 2.53292 6.54819 0
M  V30 3035 H 273.476 2.1275 2.08666 0
M  V30 3036 H 271.013 1.05839 1.02159 0
M  V30 3037 H 272.971 0.697961 4.1132 0
M  V30 3038 H 271.601 -0.022315 3.22792 0
M  V30 3039 H 270.653 2.3833 2.96484 0
M  V30 3040 H 271.965 2.95108 4.02135 0
M  V30 3041 H 271.119 1.50151 5.87826 0
M  V30 3042 H 269.858 0.830327 4.8058 0
M  V30 3043 H 268.863 3.1184 4.52809 0
M  V30 3044 H 270.088 3.79002 5.63502 0
M  V30 3045 H 268.034 1.66163 6.34607 0
M  V30 3046 H 267.951 3.3365 6.7839 0
M  V30 3047 H 269.219 2.34143 7.43503 0
M  V30 3048 N 273.449 -1.08991 1.13837 0
M  V30 3049 C 274.689 -1.82867 0.913183 0
M  V30 3050 C 275.053 -1.83936 -0.550604 0
M  V30 3051 O 276.254 -2.53515 -0.893515 0
M  V30 3052 C 274.525 -3.24843 1.49036 0
M  V30 3053 S 276.084 -4.15669 1.40588 0
M  V30 3054 H 272.902 -0.630278 0.329046 0
M  V30 3055 H 275.504 -1.31049 1.45073 0
M  V30 3056 H 274.208 -3.21644 2.54899 0
M  V30 3057 H 273.739 -3.81734 0.950947 0
M  V30 3058 H 275.754 -4.94686 0.387353 0
M  V30 3059 N 274.927 -0.932562 -1.27047 0
M  V30 3060 C 276.155 -0.592031 -1.98249 0
M  V30 3061 C 276.57 0.831062 -1.69525 0
M  V30 3062 O 275.927 1.55299 -0.958561 0
M  V30 3063 C 275.978 -0.814279 -3.5221 0
M  V30 3064 O 275.699 -2.18139 -3.7993 0
M  V30 3065 C 277.2 -0.483121 -4.4066 0
M  V30 3066 H 274.42 -0.223896 -0.632544 0
M  V30 3067 H 276.964 -1.25091 -1.61779 0
M  V30 3068 H 275.119 -0.20213 -3.86872 0
M  V30 3069 H 275.533 -2.235 -4.74498 0
M  V30 3070 H 277.007 -0.689298 -5.47679 0
M  V30 3071 H 277.484 0.581546 -4.35333 0
M  V30 3072 H 278.09 -1.07362 -4.11526 0
M  V30 3073 N 276.405 1.4127 -0.698611 0
M  V30 3074 C 277.368 2.29158 -0.044132 0
M  V30 3075 C 278.368 1.44529 0.704841 0
M  V30 3076 O 279.558 1.65643 0.539276 0
M  V30 3077 C 276.69 3.27459 0.947809 0
M  V30 3078 H 277.883 2.88529 -0.817994 0
M  V30 3079 H 275.436 1.49307 -0.46228 0
M  V30 3080 H 276.171 2.73073 1.74933 0
M  V30 3081 H 275.956 3.8991 0.41385 0
M  V30 3082 H 277.446 3.93311 1.40344 0
M  V30 3083 N 277.883 0.443576 1.51229 0
M  V30 3084 C 279.131 -0.120557 2.0174 0
M  V30 3085 C 279.452 -1.42665 1.32935 0
M  V30 3086 O 278.722 -1.9028 0.465866 0
M  V30 3087 H 277.302 -0.0475426 0.745486 0
M  V30 3088 H 279.964 0.587711 1.85828 0
M  V30 3089 H 279.06 -0.291972 3.10731 0
M  V30 3090 N 279.361 -1.56624 0.175154 0
M  V30 3091 C 280.309 -2.19468 -0.770495 0
M  V30 3092 C 281.303 -1.15985 -1.23466 0
M  V30 3093 O 282.509 -1.34176 -1.19987 0
M  V30 3094 H 278.884 -0.703095 -0.266761 0
M  V30 3095 H 280.855 -2.97613 -0.216542 0
M  V30 3096 C 279.604 -2.85264 -1.98796 0
M  V30 3097 H 278.927 -3.64623 -1.63983 0
M  V30 3098 H 280.367 -3.327 -2.62843 0
M  V30 3099 C 278.826 -1.85239 -2.81404 0
M  V30 3100 O 279.356 -1.34024 -3.78682 0
M  V30 3101 N 277.562 -1.53911 -2.46495 0
M  V30 3102 H 277.109 -1.95751 -1.67449 0
M  V30 3103 H 277.067 -0.872382 -3.02054 0
M  V30 3104 N 280.839 0.0985539 -1.57292 0
M  V30 3105 C 281.786 1.11981 -2.01814 0
M  V30 3106 C 282.756 1.39999 -0.89384 0
M  V30 3107 O 283.941 1.5152 -1.15958 0
M  V30 3108 C 281.081 2.43577 -2.44467 0
M  V30 3109 C 280.194 2.2232 -3.70402 0
M  V30 3110 C 279.329 3.4729 -4.01949 0
M  V30 3111 C 278.368 3.2128 -5.21005 0
M  V30 3112 N 277.505 4.38507 -5.48321 0
M  V30 3113 H 282.345 0.733149 -2.88841 0
M  V30 3114 H 279.882 0.350482 -1.42864 0
M  V30 3115 H 281.84 3.20373 -2.6724 0
M  V30 3116 H 280.47 2.80097 -1.60455 0
M  V30 3117 H 279.522 1.36343 -3.55126 0
M  V30 3118 H 280.834 1.99089 -4.57345 0
M  V30 3119 H 279.988 4.32495 -4.25479 0
M  V30 3120 H 278.727 3.73572 -3.13521 0
M  V30 3121 H 277.732 2.34468 -4.97298 0
M  V30 3122 H 278.957 2.96348 -6.11028 0
M  V30 3123 H 276.903 4.64871 -4.62851 0
M  V30 3124 H 276.82 4.18455 -6.29628 0
M  V30 3125 H 278.088 5.24787 -5.76385 0
M  V30 3126 N 282.317 1.53212 0.369288 0
M  V30 3127 C 283.563 1.69466 1.11397 0
M  V30 3128 C 283.896 0.443257 1.89074 0
M  V30 3129 O 283.171 -0.559386 1.86282 0
M  V30 3130 C 283.454 2.9422 2.07621 0
M  V30 3131 C 283.307 4.29508 1.33577 0
M  V30 3132 C 284.626 3.14565 3.07794 0
M  V30 3133 H 281.745 0.616667 0.403597 0
M  V30 3134 H 284.387 1.85845 0.395179 0
M  V30 3135 H 282.537 2.80387 2.68916 0
M  V30 3136 H 284.209 4.55147 0.750955 0
M  V30 3137 H 282.452 4.29088 0.637618 0
M  V30 3138 H 283.123 5.12926 2.03989 0
M  V30 3139 H 285.599 3.2756 2.56601 0
M  V30 3140 H 284.475 4.03297 3.72348 0
M  V30 3141 H 284.736 2.29675 3.77759 0
M  V30 3142 N 283.795 -0.628877 1.44509 0
M  V30 3143 C 285.02 -1.42048 1.5112 0
M  V30 3144 C 285.445 -1.87594 0.137818 0
M  V30 3145 O 284.803 -1.58873 -0.873437 0
M  V30 3146 C 284.851 -2.61541 2.48251 0
M  V30 3147 O 283.955 -3.61453 1.98559 0
M  V30 3148 H 283.296 -0.424942 0.510216 0
M  V30 3149 H 285.826 -0.767374 1.89664 0
M  V30 3150 H 285.836 -3.09057 2.66361 0
M  V30 3151 H 284.511 -2.27736 3.48007 0
M  V30 3152 H 283.088 -3.20731 1.90227 0
M  V30 3153 N 285.273 -1.31445 -0.869486 0
M  V30 3154 C 286.22 -1.19135 -1.97675 0
M  V30 3155 C 287.19 -0.0770266 -1.65921 0
M  V30 3156 O 288.375 -0.249972 -1.89155 0
M  V30 3157 C 285.515 -0.905149 -3.33018 0
M  V30 3158 C 284.628 -2.10285 -3.77365 0
M  V30 3159 C 283.763 -1.75339 -5.01427 0
M  V30 3160 C 282.802 -2.91515 -5.38224 0
M  V30 3161 N 281.939 -2.56762 -6.53466 0
M  V30 3162 H 286.779 -2.13853 -2.07535 0
M  V30 3163 H 284.316 -1.06379 -1.01597 0
M  V30 3164 H 286.274 -0.719765 -4.10944 0
M  V30 3165 H 284.904 0.00519624 -3.228 0
M  V30 3166 H 283.956 -2.39899 -2.95216 0
M  V30 3167 H 285.268 -2.97237 -4.00564 0
M  V30 3168 H 284.422 -1.53266 -5.87022 0
M  V30 3169 H 283.161 -0.855801 -4.80133 0
M  V30 3170 H 282.166 -3.14237 -4.51149 0
M  V30 3171 H 283.391 -3.81985 -5.61484 0
M  V30 3172 H 281.337 -1.69526 -6.33717 0
M  V30 3173 H 281.254 -3.37243 -6.76612 0
M  V30 3174 H 282.522 -2.38083 -7.42251 0
M  V30 3175 N 286.751 1.08385 -1.14413 0
M  V30 3176 C 287.661 2.18856 -0.844951 0
M  V30 3177 C 288.677 1.73121 0.174668 0
M  V30 3178 O 289.853 2.014 0.00312857 0
M  V30 3179 C 286.918 3.45155 -0.32696 0
M  V30 3180 C 285.979 4.05513 -1.40916 0
M  V30 3181 C 285.212 5.25784 -0.915793 0
M  V30 3182 O 285.435 5.69884 0.242651 0
M  V30 3183 O 284.369 5.77545 -1.69487 0
M  V30 3184 H 288.195 2.46919 -1.76818 0
M  V30 3185 H 285.78 1.17524 -0.922411 0
M  V30 3186 H 287.662 4.21377 -0.0440211 0
M  V30 3187 H 286.337 3.18668 0.568539 0
M  V30 3188 H 285.244 3.30879 -1.74556 0
M  V30 3189 H 286.577 4.3625 -2.27919 0
M  V30 3190 N 288.23 0.939286 1.26551 0
M  V30 3191 C 289.455 0.602008 1.98471 0
M  V30 3192 C 289.88 -0.815624 1.69497 0
M  V30 3193 O 289.238 -1.54912 0.941905 0
M  V30 3194 C 289.286 0.848407 3.50477 0
M  V30 3195 O 288.39 -0.0804009 4.12322 0
M  V30 3196 H 287.731 0.23049 0.622712 0
M  V30 3197 H 290.261 1.2617 1.61066 0
M  V30 3198 H 290.271 0.768553 4.00696 0
M  V30 3199 H 288.946 1.88171 3.70897 0
M  V30 3200 H 287.523 0.0503508 3.72866 0
M  V30 3201 N 289.708 -1.40897 0.706093 0
M  V30 3202 C 290.933 -2.05895 0.249435 0
M  V30 3203 C 291.358 -1.52823 -1.09666 0
M  V30 3204 O 290.716 -0.659589 -1.68876 0
M  V30 3205 C 290.764 -3.59872 0.22904 0
M  V30 3206 O 289.868 -4.04708 -0.792784 0
M  V30 3207 H 289.209 -0.653206 0.119241 0
M  V30 3208 H 291.739 -1.80471 0.96391 0
M  V30 3209 H 291.749 -4.07951 0.0634791 0
M  V30 3210 H 290.424 -3.97866 1.21141 0
M  V30 3211 H 289.001 -3.68111 -0.59572 0
M  V30 3212 N 291.186 -0.45159 -1.50991 0
M  V30 3213 C 292.432 0.110237 -2.025 0
M  V30 3214 C 292.765 1.41109 -1.33424 0
M  V30 3215 O 292.04 1.89135 -0.453659 0
M  V30 3216 C 292.323 0.314271 -3.58726 0
M  V30 3217 C 292.176 -1.00623 -4.38401 0
M  V30 3218 C 293.495 1.07767 -4.26702 0
M  V30 3219 H 290.614 0.0385897 -0.735989 0
M  V30 3220 H 293.256 -0.593374 -1.80497 0
M  V30 3221 H 291.406 0.913601 -3.77605 0
M  V30 3222 H 293.078 -1.64064 -4.31139 0
M  V30 3223 H 291.321 -1.6075 -4.02917 0
M  V30 3224 H 291.992 -0.817341 -5.45915 0
M  V30 3225 H 294.468 0.56986 -4.12179 0
M  V30 3226 H 293.344 1.18921 -5.35863 0
M  V30 3227 H 293.605 2.10939 -3.88532 0
M  V30 3228 N 292.664 1.56529 -0.183458 0
M  V30 3229 C 293.574 2.22144 0.754272 0
M  V30 3230 C 294.59 1.21684 1.24374 0
M  V30 3231 O 295.766 1.54385 1.29333 0
M  V30 3232 C 292.831 2.85884 1.96141 0
M  V30 3233 C 291.892 4.01579 1.51765 0
M  V30 3234 C 291.125 4.6227 2.66725 0
M  V30 3235 O 291.348 4.21865 3.83909 0
M  V30 3236 O 290.282 5.51936 2.40104 0
M  V30 3237 H 294.108 3.02861 0.225527 0
M  V30 3238 H 291.693 1.49331 0.0453032 0
M  V30 3239 H 293.575 3.26253 2.66715 0
M  V30 3240 H 292.25 2.08154 2.47899 0
M  V30 3241 H 291.157 3.65856 0.781049 0
M  V30 3242 H 292.49 4.80938 1.04686 0
M  V30 3243 N 294.142 -0.090211 1.57342 0
M  V30 3244 C 295.553 -0.644173 1.75235 0
M  V30 3245 C 295.904 -1.78865 0.806335 0
M  V30 3246 O 295.029 -2.16395 -0.0140128 0
M  V30 3247 C 295.624 -1.17532 3.1776 0
M  V30 3248 C 294.183 -1.67531 3.37061 0
M  V30 3249 C 293.33 -0.58693 2.71017 0
M  V30 3250 H 296.281 0.135884 1.58117 0
M  V30 3251 H 296.302 -2.04455 3.20902 0
M  V30 3252 H 295.814 -0.342138 3.86589 0
M  V30 3253 H 293.915 -2.53234 2.73319 0
M  V30 3254 H 294.028 -1.76493 4.45406 0
M  V30 3255 H 292.392 -1.02756 2.33052 0
M  V30 3256 H 293.175 0.235758 3.4249 0
M  V30 3257 N 295.62 -1.53406 -0.361157 0
M  V30 3258 C 296.866 -1.70054 -1.10496 0
M  V30 3259 C 297.199 -0.453278 -1.88836 0
M  V30 3260 O 296.474 0.5495 -1.86576 0
M  V30 3261 C 296.757 -2.95317 -2.06058 0
M  V30 3262 C 296.61 -4.3021 -1.31298 0
M  V30 3263 C 297.929 -3.16193 -3.06121 0
M  V30 3264 H 295.048 -0.618799 -0.400321 0
M  V30 3265 H 297.69 -1.86052 -0.385318 0
M  V30 3266 H 295.84 -2.81809 -2.67425 0
M  V30 3267 H 297.512 -4.55538 -0.726807 0
M  V30 3268 H 295.755 -4.29421 -0.614853 0
M  V30 3269 H 296.426 -5.14 -2.01265 0
M  V30 3270 H 298.902 -3.28916 -2.5486 0
M  V30 3271 H 297.778 -4.05266 -3.70204 0
M  V30 3272 H 298.039 -2.31676 -3.76535 0
M  V30 3273 N 297.098 0.621204 -1.44841 0
M  V30 3274 C 298.323 1.41244 -1.51871 0
M  V30 3275 C 298.748 1.87519 -0.147764 0
M  V30 3276 O 298.106 1.59334 0.865 0
M  V30 3277 C 298.154 2.60221 -2.49634 0
M  V30 3278 O 297.258 3.60395 -2.00473 0
M  V30 3279 H 296.599 0.42223 -0.512463 0
M  V30 3280 H 299.129 0.757305 -1.90069 0
M  V30 3281 H 299.139 3.0764 -2.67996 0
M  V30 3282 H 297.814 2.25887 -3.4921 0
M  V30 3283 H 296.391 3.19717 -1.91925 0
M  V30 3284 N 298.576 1.31904 0.862503 0
M  V30 3285 C 299.816 1.23324 1.63004 0
M  V30 3286 C 300.18 -0.203724 1.90916 0
M  V30 3287 O 301.381 -0.413132 2.65606 0
M  V30 3288 C 299.652 2.06116 2.91978 0
M  V30 3289 S 301.211 2.14478 3.82812 0
M  V30 3290 H 298.029 0.439117 0.559193 0
M  V30 3291 H 300.631 1.66658 1.02202 0
M  V30 3292 H 299.335 3.09593 2.69407 0
M  V30 3293 H 298.866 1.6353 3.57801 0
M  V30 3294 H 300.881 1.28855 4.79177 0
M  V30 3295 N 300.054 -1.07777 1.14986 0
M  V30 3296 C 301.465 -1.61766 0.932127 0
M  V30 3297 C 301.816 -1.88974 -0.527581 0
M  V30 3298 O 300.941 -1.65198 -1.39781 0
M  V30 3299 C 301.536 -2.93891 1.68563 0
M  V30 3300 C 300.095 -3.44639 1.5133 0
M  V30 3301 C 299.242 -2.18767 1.704 0
M  V30 3302 H 302.193 -0.909201 1.30074 0
M  V30 3303 H 302.214 -3.62623 1.15259 0
M  V30 3304 H 301.726 -2.74057 2.74799 0
M  V30 3305 H 299.827 -3.69564 0.474702 0
M  V30 3306 H 299.94 -4.20966 2.28746 0
M  V30 3307 H 298.304 -2.28253 1.13016 0
M  V30 3308 H 299.087 -2.01433 2.77992 0
M  V30 3309 N 301.532 -0.945985 -1.26051 0
M  V30 3310 C 302.442 -0.465633 -2.29933 0
M  V30 3311 C 303.458 0.462761 -1.67733 0
M  V30 3312 O 304.634 0.341118 -1.9849 0
M  V30 3313 C 301.699 0.256994 -3.45746 0
M  V30 3314 C 300.76 -0.708549 -4.23412 0
M  V30 3315 C 299.993 -0.0203135 -5.33696 0
M  V30 3316 O 300.216 1.19571 -5.57726 0
M  V30 3317 O 299.15 -0.701459 -5.97799 0
M  V30 3318 H 302.976 -1.32866 -2.73094 0
M  V30 3319 H 300.561 -0.712071 -1.31339 0
M  V30 3320 H 302.443 0.663852 -4.16138 0
M  V30 3321 H 301.118 1.09533 -3.04605 0
M  V30 3322 H 300.025 -1.16545 -3.55483 0
M  V30 3323 H 301.358 -1.51465 -4.68315 0
M  V30 3324 N 303.011 1.40521 -0.713556 0
M  V30 3325 C 303.958 2.30723 -0.059684 0
M  V30 3326 C 304.928 1.48079 0.752448 0
M  V30 3327 O 306.113 1.76823 0.71681 0
M  V30 3328 C 303.253 3.34274 0.857594 0
M  V30 3329 C 302.366 4.31986 0.0351536 0
M  V30 3330 C 301.501 5.22605 0.951724 0
M  V30 3331 C 300.54 6.11976 0.123253 0
M  V30 3332 N 299.677 6.9502 0.99459 0
M  V30 3333 H 304.517 2.86074 -0.834596 0
M  V30 3334 H 302.054 1.40879 -0.42326 0
M  V30 3335 H 304.012 3.92879 1.40364 0
M  V30 3336 H 302.642 2.8043 1.59871 0
M  V30 3337 H 301.694 3.7518 -0.628052 0
M  V30 3338 H 303.006 4.95101 -0.606347 0
M  V30 3339 H 302.16 5.86131 1.56638 0
M  V30 3340 H 300.899 4.59759 1.62705 0
M  V30 3341 H 299.904 5.47482 -0.50435 0
M  V30 3342 H 301.129 6.76881 -0.548539 0
M  V30 3343 H 299.075 6.34764 1.6556 0
M  V30 3344 H 298.992 7.54892 0.40908 0
M  V30 3345 H 300.26 7.62997 1.59549 0
M  V30 3346 N 304.489 0.459591 1.5075 0
M  V30 3347 C 305.737 -0.0991532 2.01857 0
M  V30 3348 C 306.058 -1.41247 1.34441 0
M  V30 3349 O 305.328 -1.89775 0.486022 0
M  V30 3350 H 303.908 -0.039633 0.745948 0
M  V30 3351 H 306.57 0.607387 1.85194 0
M  V30 3352 H 305.666 -0.258998 3.11023 0
M  V30 3353 N 305.967 -1.56429 0.191757 0
M  V30 3354 C 306.897 -2.21937 -0.725696 0
M  V30 3355 C 307.878 -1.1814 -1.2238 0
M  V30 3356 O 309.063 -1.46636 -1.27325 0
M  V30 3357 C 306.193 -2.87611 -1.94672 0
M  V30 3358 C 305.147 -3.97623 -1.58366 0
M  V30 3359 C 304.473 -4.50446 -2.88102 0
M  V30 3360 C 305.773 -5.16197 -0.796133 0
M  V30 3361 H 307.467 -2.98861 -0.179606 0
M  V30 3362 H 305.013 -1.43749 -0.0849464 0
M  V30 3363 H 306.966 -3.3212 -2.59373 0
M  V30 3364 H 305.69 -2.08087 -2.51728 0
M  V30 3365 H 304.349 -3.53801 -0.960247 0
M  V30 3366 H 303.997 -3.67688 -3.43241 0
M  V30 3367 H 303.697 -5.24675 -2.64556 0
M  V30 3368 H 305.221 -4.97654 -3.53798 0
M  V30 3369 H 306.635 -5.57271 -1.34618 0
M  V30 3370 H 305.032 -5.96471 -0.658928 0
M  V30 3371 H 306.102 -4.84473 0.203478 0
M  V30 3372 N 307.445 0.0818655 -1.57387 0
M  V30 3373 C 308.722 0.815343 -1.77796 0
M  V30 3374 C 309.102 1.96289 -0.77679 0
M  V30 3375 O 308.45 2.27691 0.192106 0
M  V30 3376 C 308.66 1.29765 -3.23978 0
M  V30 3377 C 310.008 1.7351 -3.8753 0
M  V30 3378 O 311.032 1.39356 -3.27808 0
M  V30 3379 O 309.891 2.36708 -4.92576 0
M  V30 3380 H 306.985 0.389914 -0.729312 0
M  V30 3381 H 309.531 0.0627213 -1.69584 0
M  V30 3382 H 308.303 0.47608 -3.88393 0
M  V30 3383 H 307.926 2.11189 -3.36875 0
M  V30 3384 N 308.923 1.53595 0.353017 0
M  V30 3385 C 310.172 1.69603 1.09168 0
M  V30 3386 C 310.485 0.460925 1.90092 0
M  V30 3387 O 311.691 0.501774 2.66823 0
M  V30 3388 C 310.147 2.99872 1.9901 0
M  V30 3389 C 309.755 4.30687 1.23339 0
M  V30 3390 C 311.499 3.25246 2.72792 0
M  V30 3391 C 309.406 5.52036 2.12156 0
M  V30 3392 H 308.336 0.631966 0.411261 0
M  V30 3393 H 310.987 1.80096 0.351802 0
M  V30 3394 H 309.369 2.83212 2.7678 0
M  V30 3395 H 310.543 4.58019 0.505456 0
M  V30 3396 H 308.858 4.11853 0.613663 0
M  V30 3397 H 311.455 4.13095 3.39495 0
M  V30 3398 H 311.798 2.41846 3.38846 0
M  V30 3399 H 312.331 3.42638 2.021 0
M  V30 3400 H 309.07 6.37951 1.50659 0
M  V30 3401 H 308.59 5.28966 2.82764 0
M  V30 3402 H 310.269 5.87313 2.71427 0
M  V30 3403 N 310.401 -0.613514 1.45168 0
M  V30 3404 C 311.631 -1.39743 1.52169 0
M  V30 3405 C 312.039 -1.88596 0.151086 0
M  V30 3406 O 311.382 -1.6251 -0.856521 0
M  V30 3407 C 311.444 -2.64035 2.43979 0
M  V30 3408 C 311.108 -2.36861 3.90827 0
M  V30 3409 C 312.105 -1.97591 4.80889 0
M  V30 3410 C 309.79 -2.49956 4.35692 0
M  V30 3411 C 311.784 -1.71768 6.1382 0
M  V30 3412 C 309.471 -2.23747 5.68665 0
M  V30 3413 C 310.469 -1.84714 6.57548 0
M  V30 3414 O 310.157 -1.58809 7.88058 0
M  V30 3415 H 309.889 -0.434382 0.517966 0
M  V30 3416 H 312.443 -0.75587 1.90986 0
M  V30 3417 H 310.673 -3.3089 2.00122 0
M  V30 3418 H 312.362 -3.26069 2.41731 0
M  V30 3419 H 313.128 -1.87015 4.47493 0
M  V30 3420 H 309.007 -2.79305 3.66756 0
M  V30 3421 H 312.551 -1.41227 6.83155 0
M  V30 3422 H 308.448 -2.33938 6.01617 0
M  V30 3423 H 309.216 -1.7291 8.00028 0
M  V30 3424 N 311.879 -1.3236 -0.855495 0
M  V30 3425 C 312.809 -1.23833 -1.97958 0
M  V30 3426 C 313.79 -0.122361 -1.69659 0
M  V30 3427 O 314.975 -0.30939 -1.9172 0
M  V30 3428 C 312.105 -0.959772 -3.33775 0
M  V30 3429 C 311.059 -2.03689 -3.76424 0
M  V30 3430 C 310.385 -1.61075 -5.09862 0
M  V30 3431 C 311.685 -3.4518 -3.9198 0
M  V30 3432 H 313.379 -2.1788 -2.0535 0
M  V30 3433 H 310.925 -1.04891 -0.986605 0
M  V30 3434 H 312.878 -0.886678 -4.11966 0
M  V30 3435 H 311.602 0.0163404 -3.26596 0
M  V30 3436 H 310.261 -2.10012 -3.00484 0
M  V30 3437 H 309.909 -0.622107 -4.99138 0
M  V30 3438 H 309.609 -2.33143 -5.39368 0
M  V30 3439 H 311.133 -1.55201 -5.90546 0
M  V30 3440 H 312.547 -3.4145 -4.60526 0
M  V30 3441 H 310.944 -4.1559 -4.32903 0
M  V30 3442 H 312.014 -3.84903 -2.94919 0
M  V30 3443 N 313.357 1.07166 -1.15556 0
M  V30 3444 C 314.606 1.79181 -0.926132 0
M  V30 3445 C 314.919 1.87768 0.547967 0
M  V30 3446 O 316.125 2.56323 0.895036 0
M  V30 3447 C 314.581 3.22 -1.60761 0
M  V30 3448 C 314.189 3.21607 -3.11886 0
M  V30 3449 C 315.933 3.9861 -1.4598 0
M  V30 3450 C 313.84 4.59092 -3.72812 0
M  V30 3451 H 312.77 0.67154 -0.342856 0
M  V30 3452 H 315.421 1.2027 -1.3859 0
M  V30 3453 H 313.803 3.81115 -1.07553 0
M  V30 3454 H 314.977 2.72127 -3.71865 0
M  V30 3455 H 313.292 2.58495 -3.2645 0
M  V30 3456 H 315.889 5.00225 -1.88888 0
M  V30 3457 H 316.232 4.143 -0.407541 0
M  V30 3458 H 316.765 3.45996 -1.96295 0
M  V30 3459 H 313.504 4.48606 -4.77946 0
M  V30 3460 H 313.024 5.08803 -3.17616 0
M  V30 3461 H 314.703 5.28059 -3.73848 0
M  V30 3462 N 314.835 0.952656 1.25548 0
M  V30 3463 C 316.084 0.602053 1.92505 0
M  V30 3464 C 316.397 -0.864663 1.75451 0
M  V30 3465 O 317.603 -1.32514 2.36965 0
M  V30 3466 C 316.059 1.02607 3.44963 0
M  V30 3467 C 315.667 2.51519 3.70732 0
M  V30 3468 C 317.411 0.747905 4.1786 0
M  V30 3469 C 315.318 2.87732 5.16686 0
M  V30 3470 H 314.248 0.22146 0.720744 0
M  V30 3471 H 316.899 1.15684 1.42441 0
M  V30 3472 H 315.281 0.399712 3.93978 0
M  V30 3473 H 316.455 3.19157 3.32378 0
M  V30 3474 H 314.77 2.76786 3.11092 0
M  V30 3475 H 317.367 0.994647 5.25367 0
M  V30 3476 H 317.71 -0.315629 4.15102 0
M  V30 3477 H 318.243 1.33452 3.74747 0
M  V30 3478 H 314.982 3.93095 5.24554 0
M  V30 3479 H 314.502 2.24765 5.56094 0
M  V30 3480 H 316.181 2.76817 5.84792 0
M  V30 3481 N 316.313 -1.40141 0.720998 0
M  V30 3482 C 317.561 -2.0039 0.262323 0
M  V30 3483 C 317.882 -1.57469 -1.15015 0
M  V30 3484 O 317.152 -0.816582 -1.78069 0
M  V30 3485 H 315.732 -0.741063 0.093996 0
M  V30 3486 H 318.394 -1.71398 0.927835 0
M  V30 3487 H 317.49 -3.10658 0.299671 0
M  V30 3488 N 317.792 -0.46758 -1.50504 0
M  V30 3489 C 319.041 0.0902868 -2.01498 0
M  V30 3490 C 319.354 1.411 -1.35463 0
M  V30 3491 O 320.56 2.0536 -1.77594 0
M  V30 3492 C 319.016 0.21142 -3.59278 0
M  V30 3493 C 318.624 -1.10065 -4.34269 0
M  V30 3494 C 320.368 0.721433 -4.18325 0
M  V30 3495 C 318.275 -0.943505 -5.83825 0
M  V30 3496 H 317.205 0.037517 -0.753066 0
M  V30 3497 H 319.856 -0.601943 -1.73346 0
M  V30 3498 H 318.238 0.967352 -3.84003 0
M  V30 3499 H 319.412 -1.86726 -4.21272 0
M  V30 3500 H 317.727 -1.5415 -3.86816 0
M  V30 3501 H 320.324 0.85598 -5.27804 0
M  V30 3502 H 320.667 1.71186 -3.79475 0
M  V30 3503 H 321.2 0.0229843 -3.97793 0
M  V30 3504 H 317.939 -1.90719 -6.27141 0
M  V30 3505 H 317.459 -0.217213 -5.99407 0
M  V30 3506 H 319.138 -0.608715 -6.4413 0
M  V30 3507 N 319.27 1.56325 -0.20005 0
M  V30 3508 C 320.51 1.99619 0.439519 0
M  V30 3509 C 320.874 1.08423 1.58456 0
M  V30 3510 O 322.075 1.40973 2.28867 0
M  V30 3511 C 320.346 3.46314 0.883258 0
M  V30 3512 S 321.905 4.11634 1.51997 0
M  V30 3513 H 318.723 0.697007 0.140363 0
M  V30 3514 H 321.325 1.93118 -0.304282 0
M  V30 3515 H 320.029 4.10381 0.0398967 0
M  V30 3516 H 319.56 3.56643 1.6604 0
M  V30 3517 H 321.575 4.09049 2.8088 0
M  V30 3518 N 320.748 -0.0735177 1.57428 0
M  V30 3519 C 321.996 -0.771472 1.86796 0
M  V30 3520 C 322.317 -1.78201 0.791804 0
M  V30 3521 O 321.587 -1.95074 -0.179718 0
M  V30 3522 H 320.167 -0.28791 0.689287 0
M  V30 3523 H 322.829 -0.0500161 1.94836 0
M  V30 3524 H 321.925 -1.28874 2.8425 0
M  V30 3525 N 322.226 -1.5378 -0.344866 0
M  V30 3526 C 323.474 -1.70625 -1.08311 0
M  V30 3527 C 323.795 -0.471447 -1.89215 0
M  V30 3528 O 323.065 0.514616 -1.8902 0
M  V30 3529 H 321.645 -0.629058 -0.402859 0
M  V30 3530 H 324.307 -1.9103 -0.386459 0
M  V30 3531 H 323.403 -2.57656 -1.76124 0
M  V30 3532 N 323.704 0.605807 -1.45491 0
M  V30 3533 C 324.952 1.36207 -1.49305 0
M  V30 3534 C 325.273 1.94519 -0.136863 0
M  V30 3535 O 324.543 1.77261 0.833983 0
M  V30 3536 H 323.123 0.50565 -0.549843 0
M  V30 3537 H 325.785 0.711239 -1.81459 0
M  V30 3538 H 324.881 2.18058 -2.23287 0
M  V30 3539 N 325.182 1.32811 0.848464 0
M  V30 3540 C 326.407 1.26882 1.6406 0
M  V30 3541 C 326.832 -0.15913 1.87426 0
M  V30 3542 O 326.19 -1.11258 1.43148 0
M  V30 3543 C 326.238 2.03997 2.97351 0
M  V30 3544 O 325.342 1.39201 3.88197 0
M  V30 3545 H 324.683 0.436982 0.499943 0
M  V30 3546 H 327.213 1.75224 1.0563 0
M  V30 3547 H 327.223 2.14403 3.47124 0
M  V30 3548 H 325.898 3.0783 2.79666 0
M  V30 3549 H 324.475 1.37381 3.46671 0
M  V30 3550 N 326.66 -1.06551 1.16123 0
M  V30 3551 C 327.59 -2.15935 0.88851 0
M  V30 3552 C 328.571 -1.69306 -0.164135 0
M  V30 3553 O 329.756 -1.94193 -0.0167857 0
M  V30 3554 C 326.886 -3.45149 0.385942 0
M  V30 3555 C 325.84 -4.05271 1.3762 0
M  V30 3556 C 325.166 -5.29664 0.732137 0
M  V30 3557 C 326.466 -4.44355 2.74493 0
M  V30 3558 H 328.16 -2.39006 1.80323 0
M  V30 3559 H 325.706 -1.14866 0.868435 0
M  V30 3560 H 327.659 -4.21004 0.182647 0
M  V30 3561 H 326.383 -3.21689 -0.564274 0
M  V30 3562 H 325.042 -3.3147 1.56599 0
M  V30 3563 H 324.69 -5.02499 -0.224483 0
M  V30 3564 H 324.39 -5.70848 1.39307 0
M  V30 3565 H 325.914 -6.08218 0.538802 0
M  V30 3566 H 327.328 -5.11303 2.59311 0
M  V30 3567 H 325.725 -4.96515 3.37035 0
M  V30 3568 H 326.795 -3.55339 3.29943 0
M  V30 3569 N 328.138 -0.959301 -1.25041 0
M  V30 3570 C 329.068 -0.501388 -2.28053 0
M  V30 3571 C 330.049 0.454673 -1.63911 0
M  V30 3572 O 331.234 0.352618 -1.90972 0
M  V30 3573 C 328.364 0.217224 -3.4662 0
M  V30 3574 C 327.318 -0.654034 -4.22973 0
M  V30 3575 C 326.644 0.195589 -5.34342 0
M  V30 3576 C 327.944 -1.93447 -4.85155 0
M  V30 3577 H 329.638 -1.36238 -2.66608 0
M  V30 3578 H 327.184 -0.656534 -1.28163 0
M  V30 3579 H 329.137 0.548732 -4.17812 0
M  V30 3580 H 327.861 1.1125 -3.07068 0
M  V30 3581 H 326.52 -0.968693 -3.5357 0
M  V30 3582 H 326.168 1.09076 -4.91031 0
M  V30 3583 H 325.868 -0.384091 -5.86343 0
M  V30 3584 H 327.392 0.521958 -6.08365 0
M  V30 3585 H 328.806 -1.66908 -5.48466 0
M  V30 3586 H 327.203 -2.46018 -5.47353 0
M  V30 3587 H 328.273 -2.63466 -4.07079 0
M  V30 3588 N 329.616 1.39756 -0.72842 0
M  V30 3589 C 330.549 2.28176 -0.0330172 0
M  V30 3590 C 331.527 1.44035 0.754501 0
M  V30 3591 O 332.711 1.73434 0.738445 0
M  V30 3592 C 329.838 3.24795 0.960504 0
M  V30 3593 C 328.884 4.25693 0.262264 0
M  V30 3594 S 329.717 5.25714 -1.01906 0
M  V30 3595 C 330.873 6.25894 -0.0279717 0
M  V30 3596 H 331.106 2.86807 -0.78287 0
M  V30 3597 H 328.639 1.45382 -0.519951 0
M  V30 3598 H 330.597 3.80983 1.52846 0
M  V30 3599 H 329.258 2.65196 1.68315 0
M  V30 3600 H 328.451 4.93699 1.01379 0
M  V30 3601 H 328.053 3.7327 -0.233482 0
M  V30 3602 H 330.345 6.72585 0.814621 0
M  V30 3603 H 331.288 7.04876 -0.67499 0
M  V30 3604 H 331.696 5.63466 0.341489 0
M  V30 3605 N 331.094 0.475555 1.50254 0
M  V30 3606 C 332.34 -0.0780073 2.0265 0
M  V30 3607 C 332.673 -1.38968 1.35652 0
M  V30 3608 O 331.948 -1.8839 0.483691 0
M  V30 3609 C 332.231 -0.257161 3.59181 0
M  V30 3610 C 332.084 1.07585 4.36744 0
M  V30 3611 C 333.403 -1.00965 4.28362 0
M  V30 3612 H 330.522 -0.0268758 0.73651 0
M  V30 3613 H 333.164 0.622015 1.7953 0
M  V30 3614 H 331.314 -0.853412 3.79011 0
M  V30 3615 H 332.986 1.70902 4.28474 0
M  V30 3616 H 331.229 1.6714 4.00308 0
M  V30 3617 H 331.9 0.904088 5.44546 0
M  V30 3618 H 334.376 -0.504214 4.13034 0
M  V30 3619 H 333.252 -1.10381 5.37687 0
M  V30 3620 H 333.513 -2.04731 3.91839 0
M  V30 3621 N 332.573 -1.56217 0.208337 0
M  V30 3622 C 333.82 -1.97949 -0.42692 0
M  V30 3623 C 334.148 -1.09562 -1.60706 0
M  V30 3624 O 333.403 -0.137616 -1.95216 0
M  V30 3625 C 333.702 -3.45441 -0.916797 0
M  V30 3626 C 333.368 -4.50646 0.151391 0
M  V30 3627 C 332.03 -4.79139 0.444867 0
M  V30 3628 C 334.382 -5.13811 0.874492 0
M  V30 3629 C 331.71 -5.68084 1.46619 0
M  V30 3630 C 334.062 -6.03861 1.88506 0
M  V30 3631 C 332.726 -6.30704 2.18559 0
M  V30 3632 H 331.996 -0.724345 -0.156221 0
M  V30 3633 H 334.643 -1.89006 0.308084 0
M  V30 3634 H 332.948 -3.51521 -1.73032 0
M  V30 3635 H 334.645 -3.75094 -1.41794 0
M  V30 3636 H 331.235 -4.28511 -0.0875068 0
M  V30 3637 H 335.419 -4.91879 0.660996 0
M  V30 3638 H 330.675 -5.87151 1.7048 0
M  V30 3639 H 334.849 -6.51861 2.45051 0
M  V30 3640 H 332.476 -6.99424 2.97843 0
M  V30 3641 N 334.051 0.0651679 -1.57465 0
M  V30 3642 C 335.297 0.764193 -1.87851 0
M  V30 3643 C 335.63 1.76889 -0.801495 0
M  V30 3644 O 334.905 1.93594 0.187528 0
M  V30 3645 C 335.188 1.46625 -3.28897 0
M  V30 3646 C 335.041 0.477515 -4.47258 0
M  V30 3647 C 336.36 2.4095 -3.68281 0
M  V30 3648 H 333.479 0.276351 -0.683227 0
M  V30 3649 H 336.121 0.0272868 -1.8998 0
M  V30 3650 H 334.271 2.09438 -3.27212 0
M  V30 3651 H 335.943 -0.145922 -4.61069 0
M  V30 3652 H 334.186 -0.206576 -4.33308 0
M  V30 3653 H 334.857 1.0065 -5.42746 0
M  V30 3654 H 337.333 1.88209 -3.71102 0
M  V30 3655 H 336.209 2.87072 -4.67847 0
M  V30 3656 H 336.47 3.26049 -2.98571 0
M  V30 3657 N 335.529 1.53961 0.336706 0
M  V30 3658 C 336.492 1.81724 1.39675 0
M  V30 3659 C 337.492 0.688532 1.45313 0
M  V30 3660 O 338.682 0.956829 1.45569 0
M  V30 3661 C 335.814 1.96543 2.78538 0
M  V30 3662 H 337.007 2.76424 1.16318 0
M  V30 3663 H 334.56 1.45478 0.571474 0
M  V30 3664 H 335.295 1.0401 3.07168 0
M  V30 3665 H 335.08 2.78665 2.75841 0
M  V30 3666 H 336.57 2.19516 3.5525 0
M  V30 3667 N 337.007 -0.598083 1.45811 0
M  V30 3668 C 337.937 -1.71873 1.58057 0
M  V30 3669 C 338.918 -1.64533 0.431615 0
M  V30 3670 O 340.103 -1.82787 0.65595 0
M  V30 3671 C 337.233 -3.10495 1.55597 0
M  V30 3672 C 336.187 -3.32654 2.69305 0
M  V30 3673 C 335.513 -4.71646 2.51902 0
M  V30 3674 C 336.813 -3.21981 4.11248 0
M  V30 3675 H 338.507 -1.61881 2.51863 0
M  V30 3676 H 336.053 -0.777372 1.21214 0
M  V30 3677 H 338.006 -3.88699 1.6276 0
M  V30 3678 H 336.73 -3.2135 0.583255 0
M  V30 3679 H 335.389 -2.56843 2.61586 0
M  V30 3680 H 335.037 -4.79246 1.52748 0
M  V30 3681 H 334.737 -4.87426 3.2816 0
M  V30 3682 H 336.261 -5.52038 2.60933 0
M  V30 3683 H 337.675 -3.90049 4.20161 0
M  V30 3684 H 336.072 -3.49289 4.87972 0
M  V30 3685 H 337.142 -2.1928 4.32486 0
M  V30 3686 N 338.485 -1.33259 -0.841409 0
M  V30 3687 C 339.415 -1.25926 -1.96634 0
M  V30 3688 C 340.396 -0.140349 -1.6952 0
M  V30 3689 O 341.581 -0.329707 -1.91381 0
M  V30 3690 C 338.711 -0.99512 -3.32738 0
M  V30 3691 C 337.665 -2.0767 -3.74242 0
M  V30 3692 C 336.991 -1.66474 -5.08125 0
M  V30 3693 C 338.291 -3.49318 -3.88297 0
M  V30 3694 H 339.985 -2.20046 -2.03027 0
M  V30 3695 H 337.531 -1.05931 -0.975425 0
M  V30 3696 H 339.484 -0.930323 -4.11002 0
M  V30 3697 H 338.208 -0.0183004 -3.26595 0
M  V30 3698 H 336.867 -2.13187 -2.98239 0
M  V30 3699 H 336.515 -0.675012 -4.9845 0
M  V30 3700 H 336.215 -2.3885 -5.36865 0
M  V30 3701 H 337.739 -1.61455 -5.88867 0
M  V30 3702 H 339.153 -3.46316 -4.56879 0
M  V30 3703 H 337.55 -4.20158 -4.28471 0
M  V30 3704 H 338.62 -3.8801 -2.9082 0
M  V30 3705 N 339.963 1.05934 -1.16686 0
M  V30 3706 C 341.209 1.79065 -0.95203 0
M  V30 3707 C 341.542 1.87147 0.518629 0
M  V30 3708 O 340.817 1.36574 1.38484 0
M  V30 3709 C 341.1 3.23359 -1.58464 0
M  V30 3710 C 340.953 3.23336 -3.12689 0
M  V30 3711 C 342.272 4.21004 -1.28232 0
M  V30 3712 H 339.391 0.65005 -0.34728 0
M  V30 3713 H 342.033 1.23868 -1.44072 0
M  V30 3714 H 340.183 3.70493 -1.16908 0
M  V30 3715 H 341.855 2.84336 -3.6325 0
M  V30 3716 H 340.098 2.61886 -3.4583 0
M  V30 3717 H 340.769 4.25144 -3.52075 0
M  V30 3718 H 343.245 3.8233 -1.64203 0
M  V30 3719 H 342.121 5.20225 -1.75092 0
M  V30 3720 H 342.382 4.41639 -0.201791 0
M  V30 3721 N 341.441 0.965919 1.2453 0
M  V30 3722 C 342.688 0.626831 1.92554 0
M  V30 3723 C 343.016 -0.837739 1.75534 0
M  V30 3724 O 342.271 -1.61793 1.10098 0
M  V30 3725 C 342.57 0.945428 3.44669 0
M  V30 3726 C 342.236 2.39785 3.81856 0
M  V30 3727 C 340.898 2.79483 3.91718 0
M  V30 3728 C 343.25 3.34055 4.00071 0
M  V30 3729 C 340.578 4.12496 4.1721 0
M  V30 3730 C 342.93 4.66694 4.27059 0
M  V30 3731 C 341.594 5.06172 4.3514 0
M  V30 3732 H 340.864 0.229374 0.704605 0
M  V30 3733 H 343.511 1.21707 1.4785 0
M  V30 3734 H 341.816 0.272926 3.90848 0
M  V30 3735 H 343.513 0.661484 3.95507 0
M  V30 3736 H 340.103 2.08003 3.74743 0
M  V30 3737 H 344.287 3.04571 3.91855 0
M  V30 3738 H 339.543 4.42709 4.21685 0
M  V30 3739 H 343.717 5.3971 4.40097 0
M  V30 3740 H 341.344 6.09262 4.54646 0
M  V30 3741 N 342.919 -1.39368 0.735821 0
M  V30 3742 C 344.149 -2.04498 0.293967 0
M  V30 3743 C 344.557 -1.55593 -1.07645 0
M  V30 3744 O 343.9 -0.716324 -1.69158 0
M  V30 3745 C 343.962 -3.58836 0.218342 0
M  V30 3746 C 343.626 -4.30721 1.52736 0
M  V30 3747 C 344.623 -4.57305 2.47322 0
M  V30 3748 C 342.308 -4.69251 1.79189 0
M  V30 3749 C 344.302 -5.21429 3.66593 0
M  V30 3750 C 341.989 -5.33104 2.98737 0
M  V30 3751 C 342.987 -5.59125 3.9226 0
M  V30 3752 O 342.675 -6.21653 5.09708 0
M  V30 3753 H 342.407 -0.664118 0.126189 0
M  V30 3754 H 344.961 -1.79385 1.00051 0
M  V30 3755 H 343.191 -3.8285 -0.544314 0
M  V30 3756 H 344.88 -4.05447 -0.191626 0
M  V30 3757 H 345.646 -4.27983 2.28156 0
M  V30 3758 H 341.525 -4.48354 1.07239 0
M  V30 3759 H 345.069 -5.41656 4.39607 0
M  V30 3760 H 340.966 -5.61846 3.17803 0
M  V30 3761 H 341.734 -6.40146 5.10054 0
M  V30 3762 N 344.397 -0.483516 -1.5 0
M  V30 3763 C 345.646 0.0689102 -2.01582 0
M  V30 3764 C 345.959 1.39655 -1.36952 0
M  V30 3765 O 347.165 2.03465 -1.79762 0
M  V30 3766 C 345.621 0.173302 -3.59483 0
M  V30 3767 C 345.229 -1.14665 -4.33077 0
M  V30 3768 C 346.973 0.677024 -4.19066 0
M  V30 3769 C 344.88 -1.00537 -5.82792 0
M  V30 3770 H 343.81 0.0295277 -0.753422 0
M  V30 3771 H 346.461 -0.620295 -1.72698 0
M  V30 3772 H 344.843 0.926569 -3.85007 0
M  V30 3773 H 346.017 -1.91184 -4.19268 0
M  V30 3774 H 344.332 -1.58244 -3.85159 0
M  V30 3775 H 346.929 0.799952 -5.28682 0
M  V30 3776 H 347.272 1.67151 -3.81269 0
M  V30 3777 H 347.805 -0.0192083 -3.97795 0
M  V30 3778 H 344.544 -1.9736 -6.25083 0
M  V30 3779 H 344.064 -0.280776 -5.99142 0
M  V30 3780 H 345.743 -0.677 -6.43448 0
M  V30 3781 N 345.875 1.56104 -0.216619 0
M  V30 3782 C 347.103 2.02563 0.421413 0
M  V30 3783 C 347.518 1.0965 1.53695 0
M  V30 3784 O 346.875 0.10521 1.82196 0
M  V30 3785 C 346.926 3.48584 0.957665 0
M  V30 3786 O 346.647 4.37953 -0.113389 0
M  V30 3787 C 348.148 4.10664 1.66943 0
M  V30 3788 H 345.368 0.662944 0.103665 0
M  V30 3789 H 347.912 2.01793 -0.331629 0
M  V30 3790 H 346.067 3.49985 1.661 0
M  V30 3791 H 346.481 5.23704 0.288932 0
M  V30 3792 H 347.955 5.14622 1.99671 0
M  V30 3793 H 348.432 3.55373 2.58083 0
M  V30 3794 H 349.038 4.13098 1.01142 0
M  V30 3795 N 347.353 -0.0568162 1.57498 0
M  V30 3796 C 348.3 -1.06591 2.04712 0
M  V30 3797 C 349.27 -1.3758 0.930644 0
M  V30 3798 O 350.455 -1.48392 1.19935 0
M  V30 3799 C 347.595 -2.3701 2.50839 0
M  V30 3800 C 346.708 -2.12421 3.76167 0
M  V30 3801 C 345.843 -3.36511 4.11015 0
M  V30 3802 C 344.882 -3.07353 5.2934 0
M  V30 3803 N 344.019 -4.23816 5.59754 0
M  V30 3804 H 348.859 -0.65631 2.90683 0
M  V30 3805 H 346.396 -0.312481 1.43743 0
M  V30 3806 H 348.354 -3.13175 2.7564 0
M  V30 3807 H 346.984 -2.75744 1.67825 0
M  V30 3808 H 346.036 -1.2688 3.58616 0
M  V30 3809 H 347.348 -1.86894 4.62463 0
M  V30 3810 H 346.502 -4.21062 4.36797 0
M  V30 3811 H 345.241 -3.65128 3.23315 0
M  V30 3812 H 344.246 -2.212 5.03339 0
M  V30 3813 H 345.471 -2.80043 6.1867 0
M  V30 3814 H 343.417 -4.52436 4.75014 0
M  V30 3815 H 343.334 -4.01614 6.40501 0
M  V30 3816 H 344.602 -5.0932 5.90096 0
M  V30 3817 N 348.832 -1.54138 -0.328536 0
M  V30 3818 C 350.248 -1.44736 -0.672574 0
M  V30 3819 C 350.448 -0.616217 -1.91846 0
M  V30 3820 O 349.504 -0.113067 -2.52247 0
M  V30 3821 C 350.817 -2.884 -0.851217 0
M  V30 3822 C 352.365 -2.98271 -0.948877 0
M  V30 3823 C 352.84 -4.43074 -1.15973 0
M  V30 3824 N 354.331 -4.46665 -1.22658 0
M  V30 3825 C 355.066 -5.55857 -1.40751 0
M  V30 3826 N 354.562 -6.75026 -1.5592 0
M  V30 3827 N 356.355 -5.43495 -1.4342 0
M  V30 3828 H 348.506 -2.06661 0.490421 0
M  V30 3829 H 350.769 -0.934812 0.157579 0
M  V30 3830 H 350.475 -3.51699 -0.00704236 0
M  V30 3831 H 350.349 -3.34225 -1.74853 0
M  V30 3832 H 352.736 -2.35102 -1.78356 0
M  V30 3833 H 352.817 -2.55785 -0.0281435 0
M  V30 3834 H 352.461 -5.06827 -0.329915 0
M  V30 3835 H 352.391 -4.83165 -2.09426 0
M  V30 3836 H 354.882 -3.60797 -1.124 0
M  V30 3837 H 355.195 -7.54004 -1.69404 0
M  V30 3838 H 353.54 -6.77944 -1.53027 0
M  V30 3839 H 356.731 -4.49349 -1.31162 0
M  V30 3840 H 356.904 -6.28649 -1.57178 0
M  V30 3841 N 350.31 0.590341 -1.46126 0
M  V30 3842 C 351.257 1.69994 -1.56111 0
M  V30 3843 C 352.227 1.61065 -0.405867 0
M  V30 3844 O 353.412 1.8039 -0.621613 0
M  V30 3845 C 350.552 3.08326 -1.55013 0
M  V30 3846 C 349.665 3.27936 -2.81215 0
M  V30 3847 C 348.8 4.56473 -2.71673 0
M  V30 3848 C 347.839 4.694 -3.92849 0
M  V30 3849 N 346.976 5.89254 -3.81738 0
M  V30 3850 H 351.816 1.60797 -2.50895 0
M  V30 3851 H 349.353 0.783799 -1.24479 0
M  V30 3852 H 351.311 3.88383 -1.52362 0
M  V30 3853 H 349.941 3.16439 -0.637667 0
M  V30 3854 H 348.993 2.41536 -2.93879 0
M  V30 3855 H 350.305 3.33357 -3.71045 0
M  V30 3856 H 349.459 5.44748 -2.67085 0
M  V30 3857 H 348.198 4.53477 -1.7947 0
M  V30 3858 H 347.203 3.79544 -3.97777 0
M  V30 3859 H 348.428 4.7418 -4.86138 0
M  V30 3860 H 346.374 5.87271 -2.92317 0
M  V30 3861 H 346.291 5.95911 -4.65217 0
M  V30 3862 H 347.559 6.79981 -3.81112 0
M  V30 3863 N 351.788 1.33704 0.83433 0
M  V30 3864 C 352.735 1.24335 1.94447 0
M  V30 3865 C 353.705 0.120991 1.65659 0
M  V30 3866 O 354.89 0.300035 1.88426 0
M  V30 3867 C 352.03 0.993124 3.30501 0
M  V30 3868 C 351.143 2.20217 3.71657 0
M  V30 3869 C 350.278 1.88572 4.96602 0
M  V30 3870 C 349.317 3.05683 5.30306 0
M  V30 3871 N 348.454 2.73997 6.46429 0
M  V30 3872 H 353.294 2.1928 2.01792 0
M  V30 3873 H 350.831 1.09035 0.987404 0
M  V30 3874 H 352.789 0.828467 4.08892 0
M  V30 3875 H 351.419 0.0803902 3.227 0
M  V30 3876 H 350.471 2.47642 2.88752 0
M  V30 3877 H 351.783 3.07752 3.92543 0
M  V30 3878 H 350.937 1.68776 5.82752 0
M  V30 3879 H 349.676 0.982799 4.77695 0
M  V30 3880 H 348.681 3.26088 4.42659 0
M  V30 3881 H 349.906 3.96737 5.51159 0
M  V30 3882 H 347.852 1.86268 6.28999 0
M  V30 3883 H 347.769 3.55064 6.67432 0
M  V30 3884 H 349.037 2.57679 7.35678 0
M  V30 3885 N 353.266 -1.05314 1.17247 0
M  V30 3886 C 354.198 -2.13023 0.845812 0
M  V30 3887 C 355.211 -1.62096 -0.151246 0
M  V30 3888 O 356.4 -1.78343 0.0748818 0
M  V30 3889 C 353.5 -3.38047 0.240292 0
M  V30 3890 C 352.673 -4.18255 1.27991 0
M  V30 3891 C 351.732 -5.21625 0.692375 0
M  V30 3892 O 350.758 -5.52619 1.36385 0
M  V30 3893 N 351.96 -5.78201 -0.516178 0
M  V30 3894 H 354.725 -2.41642 1.77283 0
M  V30 3895 H 352.286 -1.21401 1.07115 0
M  V30 3896 H 354.278 -4.04359 -0.16603 0
M  V30 3897 H 352.848 -3.06972 -0.590487 0
M  V30 3898 H 352.068 -3.47451 1.86203 0
M  V30 3899 H 353.356 -4.68643 1.98119 0
M  V30 3900 H 352.754 -5.55301 -1.07969 0
M  V30 3901 H 351.311 -6.4604 -0.86458 0
M  V30 3902 N 354.744 -0.972509 -1.24016 0
M  V30 3903 C 356.16 -0.679827 -1.44397 0
M  V30 3904 C 356.36 0.756716 -1.86751 0
M  V30 3905 O 355.416 1.53007 -2.00861 0
M  V30 3906 C 356.729 -1.66803 -2.50195 0
M  V30 3907 C 358.277 -1.68119 -2.64017 0
M  V30 3908 C 358.752 -2.65748 -3.73017 0
M  V30 3909 N 360.243 -2.64219 -3.8045 0
M  V30 3910 C 360.978 -3.36433 -4.64328 0
M  V30 3911 N 360.474 -4.1818 -5.52356 0
M  V30 3912 N 362.267 -3.25235 -4.58453 0
M  V30 3913 H 354.418 -1.90059 -0.948228 0
M  V30 3914 H 356.681 -0.818527 -0.478245 0
M  V30 3915 H 356.387 -2.69498 -2.25973 0
M  V30 3916 H 356.261 -1.4446 -3.48441 0
M  V30 3917 H 358.648 -0.661319 -2.87594 0
M  V30 3918 H 358.729 -1.94525 -1.66113 0
M  V30 3919 H 358.373 -3.67872 -3.50189 0
M  V30 3920 H 358.303 -2.36619 -4.70446 0
M  V30 3921 H 360.794 -2.04887 -3.17537 0
M  V30 3922 H 361.107 -4.70157 -6.13329 0
M  V30 3923 H 359.452 -4.22273 -5.52006 0
M  V30 3924 H 362.643 -2.60829 -3.88698 0
M  V30 3925 H 362.816 -3.81776 -5.23594 0
M  V30 3926 N 356.222 1.38976 -0.743202 0
M  V30 3927 C 357.447 2.05161 -0.303936 0
M  V30 3928 C 357.872 1.55677 1.05576 0
M  V30 3929 O 357.23 0.704131 1.67068 0
M  V30 3930 C 357.278 3.59138 -0.324373 0
M  V30 3931 O 356.382 4.06668 0.685204 0
M  V30 3932 H 355.723 0.649815 -0.136518 0
M  V30 3933 H 358.253 1.77852 -1.01142 0
M  V30 3934 H 358.263 4.07639 -0.171618 0
M  V30 3935 H 356.938 3.94515 -1.31647 0
M  V30 3936 H 355.515 3.69561 0.497913 0
M  V30 3937 N 357.7 0.491464 1.49741 0
M  V30 3938 C 359.116 0.146835 1.58923 0
M  V30 3939 C 359.316 -1.34804 1.49767 0
M  V30 3940 O 358.372 -2.12317 1.36667 0
M  V30 3941 C 359.685 0.715157 2.92072 0
M  V30 3942 C 361.233 0.680407 3.05515 0
M  V30 3943 C 361.708 1.22663 4.41269 0
M  V30 3944 N 363.199 1.18691 4.47735 0
M  V30 3945 C 363.934 1.57984 5.51207 0
M  V30 3946 N 363.43 2.04824 6.6183 0
M  V30 3947 N 365.223 1.49459 5.41866 0
M  V30 3948 H 357.374 1.46347 1.53936 0
M  V30 3949 H 359.637 0.606453 0.728642 0
M  V30 3950 H 359.343 1.76317 3.04311 0
M  V30 3951 H 359.217 0.17018 3.76816 0
M  V30 3952 H 361.604 -0.358743 2.92911 0
M  V30 3953 H 361.685 1.26242 2.22478 0
M  V30 3954 H 361.329 2.26451 4.54623 0
M  V30 3955 H 361.259 0.620637 5.2293 0
M  V30 3956 H 363.75 0.843605 3.68364 0
M  V30 3957 H 364.063 2.32901 7.3687 0
M  V30 3958 H 362.408 2.08791 6.62896 0
M  V30 3959 H 365.599 1.12692 4.54333 0
M  V30 3960 H 365.772 1.80406 6.22381 0
M  V30 3961 N 359.178 -1.55987 0.224894 0
M  V30 3962 C 360.594 -1.59066 -0.130426 0
M  V30 3963 C 360.794 -1.24176 -1.5869 0
M  V30 3964 O 359.85 -0.978592 -2.32766 0
M  V30 3965 C 361.163 -3.00042 0.198883 0
M  V30 3966 C 362.711 -3.1268 0.141391 0
M  V30 3967 C 363.186 -4.55839 0.444422 0
M  V30 3968 N 364.677 -4.6152 0.394115 0
M  V30 3969 C 365.412 -5.70231 0.602038 0
M  V30 3970 N 364.908 -6.87291 0.871914 0
M  V30 3971 N 366.701 -5.59555 0.534245 0
M  V30 3972 H 358.852 -1.76941 1.17497 0
M  V30 3973 H 361.115 -0.822604 0.471197 0
M  V30 3974 H 360.821 -3.30234 1.2099 0
M  V30 3975 H 360.695 -3.74075 -0.484535 0
M  V30 3976 H 363.082 -2.82283 -0.860265 0
M  V30 3977 H 363.163 -2.40969 0.858335 0
M  V30 3978 H 362.807 -4.86954 1.44353 0
M  V30 3979 H 362.737 -5.2578 -0.293752 0
M  V30 3980 H 365.228 -3.77405 0.193356 0
M  V30 3981 H 365.541 -7.66058 1.01858 0
M  V30 3982 H 363.886 -6.89028 0.909145 0
M  V30 3983 H 367.077 -4.6698 0.323612 0
M  V30 3984 H 367.25 -6.44211 0.699693 0
M  V30 3985 N 360.656 0.0484629 -1.57525 0
M  V30 3986 C 361.604 1.07359 -2.06341 0
M  V30 3987 C 362.598 1.3865 -0.973269 0
M  V30 3988 O 363.804 1.37783 -1.15827 0
M  V30 3989 H 360.179 0.363662 -0.65822 0
M  V30 3990 H 362.15 0.635916 -2.91545 0
M  V30 3991 C 360.899 2.37198 -2.54229 0
M  V30 3992 H 360.222 2.13977 -3.37719 0
M  V30 3993 H 361.662 3.07319 -2.92115 0
M  V30 3994 C 360.121 3.04805 -1.43511 0
M  V30 3995 O 360.651 3.93848 -0.79034 0
M  V30 3996 N 358.857 2.65811 -1.17444 0
M  V30 3997 H 358.404 1.93488 -1.70059 0
M  V30 3998 H 358.362 3.11366 -0.435737 0
M  V30 3999 N 362.134 1.5431 0.320358 0
M  V30 4000 C 363.411 1.63322 1.07635 0
M  V30 4001 C 363.791 0.46912 2.05821 0
M  V30 4002 O 363.139 -0.536274 2.22118 0
M  V30 4003 C 363.349 3.00465 1.77544 0
M  V30 4004 C 364.697 3.56621 2.30449 0
M  V30 4005 O 365.721 3.02791 1.87606 0
M  V30 4006 O 364.58 4.5083 3.08892 0
M  V30 4007 H 361.674 0.661502 0.496331 0
M  V30 4008 H 364.22 1.66656 0.319992 0
M  V30 4009 H 362.992 3.76629 1.06143 0
M  V30 4010 H 362.615 3.00824 2.59982 0
M  V30 4011 N 363.613 -0.582584 1.46437 0
M  V30 4012 C 364.523 -1.71949 1.59595 0
M  V30 4013 C 365.539 -1.67264 0.479443 0
M  V30 4014 O 366.715 -1.87171 0.743579 0
M  V30 4015 C 363.78 -3.08452 1.58298 0
M  V30 4016 C 362.841 -3.244 2.81182 0
M  V30 4017 C 362.074 -4.54391 2.79937 0
M  V30 4018 O 362.297 -5.38287 1.8869 0
M  V30 4019 O 361.231 -4.73588 3.71481 0
M  V30 4020 H 365.057 -1.63795 2.55744 0
M  V30 4021 H 362.642 -0.749643 1.29231 0
M  V30 4022 H 364.524 -3.89732 1.60271 0
M  V30 4023 H 363.199 -3.17043 0.653094 0
M  V30 4024 H 362.106 -2.42613 2.84763 0
M  V30 4025 H 363.439 -3.20699 3.7338 0
M  V30 4026 N 365.091 -1.34144 -0.827227 0
M  V30 4027 C 366.001 -1.27428 -1.96975 0
M  V30 4028 C 367.017 -0.182728 -1.73038 0
M  V30 4029 O 368.193 -0.408426 -1.97215 0
M  V30 4030 C 365.258 -1.02526 -3.31194 0
M  V30 4031 C 364.319 -2.20796 -3.68168 0
M  V30 4032 C 363.552 -1.97073 -4.95982 0
M  V30 4033 O 363.775 -0.926822 -5.6282 0
M  V30 4034 O 362.709 -2.83912 -5.30733 0
M  V30 4035 H 366.535 -2.23537 -2.05584 0
M  V30 4036 H 364.12 -1.14307 -0.961989 0
M  V30 4037 H 366.002 -0.904026 -4.11589 0
M  V30 4038 H 364.677 -0.0945389 -3.23562 0
M  V30 4039 H 363.584 -2.38477 -2.88235 0
M  V30 4040 H 364.917 -3.12243 -3.8048 0
M  V30 4041 N 366.569 1.04691 -1.17803 0
M  V30 4042 C 367.499 2.14494 -0.92275 0
M  V30 4043 C 368.48 1.69546 0.137179 0
M  V30 4044 O 369.665 1.94195 -0.0141108 0
M  V30 4045 C 366.795 3.44491 -0.440803 0
M  V30 4046 C 365.749 4.03031 -1.4405 0
M  V30 4047 C 365.075 5.28432 -0.81631 0
M  V30 4048 C 366.375 4.39932 -2.81527 0
M  V30 4049 H 368.069 2.36107 -1.84103 0
M  V30 4050 H 365.615 1.1347 -0.886599 0
M  V30 4051 H 367.568 4.2066 -0.249602 0
M  V30 4052 H 366.292 3.22546 0.513025 0
M  V30 4053 H 364.951 3.28937 -1.61853 0
M  V30 4054 H 364.599 5.02792 0.144511 0
M  V30 4055 H 364.299 5.68559 -1.48371 0
M  V30 4056 H 365.823 6.07284 -0.635496 0
M  V30 4057 H 367.237 5.07113 -2.67412 0
M  V30 4058 H 365.634 4.9109 -3.44892 0
M  V30 4059 H 366.704 3.50045 -3.35554 0
M  V30 4060 N 368.047 0.979072 1.23499 0
M  V30 4061 C 368.957 0.526431 2.28617 0
M  V30 4062 C 369.973 -0.418126 1.68901 0
M  V30 4063 O 371.149 -0.288372 1.99325 0
M  V30 4064 C 368.214 -0.165235 3.46306 0
M  V30 4065 C 367.275 0.82056 4.21385 0
M  V30 4066 C 366.508 0.161807 5.33455 0
M  V30 4067 O 366.731 -1.04742 5.60701 0
M  V30 4068 O 365.665 0.859708 5.95729 0
M  V30 4069 H 369.491 1.4006 2.69475 0
M  V30 4070 H 367.076 0.746643 1.29405 0
M  V30 4071 H 368.958 -0.553287 4.17752 0
M  V30 4072 H 367.633 -1.01419 3.07402 0
M  V30 4073 H 366.54 1.25929 3.52268 0
M  V30 4074 H 367.873 1.63828 4.64135 0
M  V30 4075 N 369.525 -1.3858 0.750561 0
M  V30 4076 C 370.753 -2.04471 0.316098 0
M  V30 4077 C 371.168 -1.56606 -1.05452 0
M  V30 4078 O 370.525 -0.737784 -1.66922 0
M  V30 4079 C 370.576 -3.60025 0.326275 0
M  V30 4080 O 370.297 -4.06133 1.6428 0
M  V30 4081 C 371.798 -4.43131 -0.122429 0
M  V30 4082 H 369.018 -0.65717 0.135528 0
M  V30 4083 H 371.562 -1.77329 1.01857 0
M  V30 4084 H 369.717 -3.86014 -0.327431 0
M  V30 4085 H 370.131 -5.00547 1.56693 0
M  V30 4086 H 371.605 -5.51963 -0.0641473 0
M  V30 4087 H 372.082 -4.23333 -1.16988 0
M  V30 4088 H 372.688 -4.22323 0.50229 0
M  V30 4089 N 371.003 -0.499398 -1.49478 0
M  V30 4090 C 372.419 -0.155261 -1.58843 0
M  V30 4091 C 372.619 1.34008 -1.50479 0
M  V30 4092 O 371.675 2.11589 -1.37791 0
M  V30 4093 C 372.988 -0.730636 -2.91689 0
M  V30 4094 C 374.536 -0.696599 -3.0515 0
M  V30 4095 C 375.011 -1.25001 -4.40612 0
M  V30 4096 N 376.502 -1.21064 -4.47099 0
M  V30 4097 C 377.237 -1.60905 -5.50361 0
M  V30 4098 N 376.733 -2.08331 -6.60735 0
M  V30 4099 N 378.526 -1.52331 -5.41065 0
M  V30 4100 H 370.677 -1.47162 -1.53158 0
M  V30 4101 H 372.94 -0.610309 -0.725415 0
M  V30 4102 H 372.646 -1.77928 -3.03372 0
M  V30 4103 H 372.52 -0.190161 -3.7672 0
M  V30 4104 H 374.907 0.343204 -2.93097 0
M  V30 4105 H 374.988 -1.2742 -2.21806 0
M  V30 4106 H 374.632 -2.28859 -4.53416 0
M  V30 4107 H 374.562 -0.64836 -5.22593 0
M  V30 4108 H 377.053 -0.863128 -3.67911 0
M  V30 4109 H 377.366 -2.36805 -7.35624 0
M  V30 4110 H 375.711 -2.12304 -6.6178 0
M  V30 4111 H 378.902 -1.151 -4.53729 0
M  V30 4112 H 379.075 -1.83704 -6.21415 0
M  V30 4113 N 372.481 1.55866 -0.233164 0
M  V30 4114 C 373.444 2.1953 0.658715 0
M  V30 4115 C 374.444 1.16053 1.11303 0
M  V30 4116 O 375.634 1.41218 1.01996 0
M  V30 4117 C 372.766 2.82791 1.90373 0
M  V30 4118 H 373.959 2.99721 0.10347 0
M  V30 4119 H 371.512 1.56291 0.0164245 0
M  V30 4120 H 372.247 2.06501 2.50056 0
M  V30 4121 H 372.032 3.58578 1.58632 0
M  V30 4122 H 373.522 3.31556 2.53891 0
M  V30 4123 N 373.959 -0.0401083 1.57549 0
M  V30 4124 C 374.909 -1.05175 2.02292 0
M  V30 4125 C 375.893 -1.32674 0.910294 0
M  V30 4126 O 377.085 -1.32444 1.17421 0
M  V30 4127 C 374.214 -2.35622 2.49674 0
M  V30 4128 C 373.3 -2.11261 3.67736 0
M  V30 4129 N 373.691 -1.56923 4.80842 0
M  V30 4130 C 371.989 -2.41596 3.74897 0
M  V30 4131 C 372.69 -1.48111 5.62528 0
M  V30 4132 N 371.666 -1.95282 5.07312 0
M  V30 4133 H 375.468 -0.625455 2.87168 0
M  V30 4134 H 372.982 -0.246624 1.60516 0
M  V30 4135 H 374.979 -3.08893 2.79983 0
M  V30 4136 H 373.639 -2.7894 1.662 0
M  V30 4137 H 374.65 -1.25345 5.02503 0
M  V30 4138 H 371.327 -2.88064 3.02201 0
M  V30 4139 H 372.717 -1.06683 6.63377 0
M  V30 4140 N 375.437 -1.54477 -0.31217 0
M  V30 4141 C 376.853 -1.45442 -0.657185 0
M  V30 4142 C 377.053 -0.63653 -1.91182 0
M  V30 4143 O 376.109 -0.139815 -2.52113 0
M  V30 4144 C 377.422 -2.89287 -0.82058 0
M  V30 4145 C 378.97 -2.9926 -0.917188 0
M  V30 4146 C 379.445 -4.44279 -1.11267 0
M  V30 4147 N 380.936 -4.4794 -1.17914 0
M  V30 4148 C 381.671 -5.57318 -1.34848 0
M  V30 4149 N 381.167 -6.76642 -1.48752 0
M  V30 4150 N 382.96 -5.44986 -1.37647 0
M  V30 4151 H 375.111 -2.06129 0.512313 0
M  V30 4152 H 377.374 -0.933088 0.167485 0
M  V30 4153 H 377.08 -3.51687 0.0302604 0
M  V30 4154 H 376.954 -3.36061 -1.71298 0
M  V30 4155 H 379.341 -2.36981 -1.75852 0
M  V30 4156 H 379.422 -2.558 -0.00101257 0
M  V30 4157 H 379.066 -5.07149 -0.27614 0
M  V30 4158 H 378.996 -4.85359 -2.04289 0
M  V30 4159 H 381.487 -3.61969 -1.08567 0
M  V30 4160 H 381.8 -7.55758 -1.61397 0
M  V30 4161 H 380.145 -6.79529 -1.45828 0
M  V30 4162 H 383.336 -4.50715 -1.26388 0
M  V30 4163 H 383.509 -6.3028 -1.50501 0
M  V30 4164 N 376.915 0.57481 -1.46744 0
M  V30 4165 C 378.161 1.3347 -1.52688 0
M  V30 4166 C 378.494 1.93353 -0.181229 0
M  V30 4167 O 377.769 1.76912 0.808237 0
M  V30 4168 C 378.052 2.45811 -2.63152 0
M  V30 4169 C 377.905 1.90912 -4.07275 0
M  V30 4170 C 379.224 3.47822 -2.69644 0
M  V30 4171 H 376.343 0.483935 -0.555856 0
M  V30 4172 H 378.985 0.644968 -1.78718 0
M  V30 4173 H 377.135 3.04646 -2.41088 0
M  V30 4174 H 378.807 1.36473 -4.4065 0
M  V30 4175 H 377.05 1.21691 -4.16382 0
M  V30 4176 H 377.721 2.72042 -4.80309 0
M  V30 4177 H 380.197 2.9888 -2.895 0
M  V30 4178 H 379.073 4.23876 -3.48742 0
M  V30 4179 H 379.334 4.05555 -1.76005 0
M  V30 4180 N 378.394 1.34581 0.820102 0
M  V30 4181 C 379.357 1.2628 1.91275 0
M  V30 4182 C 380.357 0.177344 1.59819 0
M  V30 4183 O 381.547 0.430156 1.68806 0
M  V30 4184 C 378.679 0.950327 3.27386 0
M  V30 4185 H 379.872 2.23421 2.00057 0
M  V30 4186 H 377.425 1.1891 1.0144 0
M  V30 4187 H 378.16 -0.0177938 3.24295 0
M  V30 4188 H 377.945 1.73549 3.51601 0
M  V30 4189 H 379.435 0.917492 4.07396 0
M  V30 4190 N 379.872 -1.04064 1.18357 0
M  V30 4191 C 381.1 -1.80916 1.00384 0
M  V30 4192 C 381.515 -1.83414 -0.447738 0
M  V30 4193 O 380.872 -1.26962 -1.31099 0
M  V30 4194 C 380.923 -3.26516 1.55144 0
M  V30 4195 O 380.644 -3.2424 2.94618 0
M  V30 4196 C 382.145 -4.20013 1.41789 0
M  V30 4197 H 379.365 -0.569728 0.354474 0
M  V30 4198 H 381.909 -1.31151 1.56906 0
M  V30 4199 H 380.064 -3.73512 1.02798 0
M  V30 4200 H 380.478 -4.15452 3.20156 0
M  V30 4201 H 381.952 -5.20111 1.84901 0
M  V30 4202 H 382.429 -4.37667 0.36661 0
M  V30 4203 H 383.035 -3.78881 1.93207 0
M  V30 4204 N 381.35 -0.985608 -1.22978 0
M  V30 4205 C 382.26 -0.538548 -2.28335 0
M  V30 4206 C 383.276 0.409163 -1.69121 0
M  V30 4207 O 384.452 0.277797 -1.99475 0
M  V30 4208 C 381.517 0.146867 -3.46389 0
M  V30 4209 C 380.578 -0.842896 -4.20944 0
M  V30 4210 C 379.811 -0.190095 -5.33361 0
M  V30 4211 O 380.034 1.01767 -5.61248 0
M  V30 4212 O 378.968 -0.891289 -5.95264 0
M  V30 4213 H 382.794 -1.41487 -2.68729 0
M  V30 4214 H 380.379 -0.753495 -1.29007 0
M  V30 4215 H 382.261 0.531125 -4.1804 0
M  V30 4216 H 380.936 0.997871 -3.07935 0
M  V30 4217 H 379.843 -1.27795 -3.51595 0
M  V30 4218 H 381.176 -1.66287 -4.6326 0
M  V30 4219 N 382.828 1.3818 -0.7579 0
M  V30 4220 C 383.738 2.3421 -0.135247 0
M  V30 4221 C 384.754 1.59487 0.695683 0
M  V30 4222 O 385.93 1.91657 0.618832 0
M  V30 4223 C 382.995 3.3862 0.744139 0
M  V30 4224 C 382.056 4.2918 -0.101658 0
M  V30 4225 C 381.289 5.28603 0.735851 0
M  V30 4226 O 381.512 5.35166 1.97366 0
M  V30 4227 O 380.446 6.01707 0.152372 0
M  V30 4228 H 384.272 2.8916 -0.928436 0
M  V30 4229 H 381.857 1.40101 -0.518855 0
M  V30 4230 H 383.739 4.02539 1.2466 0
M  V30 4231 H 382.414 2.86019 1.51575 0
M  V30 4232 H 381.321 3.68407 -0.650167 0
M  V30 4233 H 382.654 4.85048 -0.836024 0
M  V30 4234 N 384.306 0.507319 1.49211 0
M  V30 4235 C 385.722 0.163682 1.58758 0
M  V30 4236 C 385.922 -1.33208 1.51188 0
M  V30 4237 O 384.978 -2.10855 1.38911 0
M  V30 4238 C 386.291 0.746095 2.91297 0
M  V30 4239 C 387.839 0.712773 3.04776 0
M  V30 4240 C 388.314 1.27336 4.39943 0
M  V30 4241 N 389.805 1.23433 4.46451 0
M  V30 4242 C 390.54 1.63821 5.495 0
M  V30 4243 N 390.036 2.11832 6.5962 0
M  V30 4244 N 391.829 1.55198 5.4025 0
M  V30 4245 H 383.98 1.47972 1.52375 0
M  V30 4246 H 386.243 0.614147 0.722168 0
M  V30 4247 H 385.949 1.79534 3.02424 0
M  V30 4248 H 385.823 0.210137 3.76614 0
M  V30 4249 H 388.21 -0.327656 2.93275 0
M  V30 4250 H 388.291 1.28595 2.21127 0
M  V30 4251 H 387.935 2.3126 4.52196 0
M  V30 4252 H 387.865 0.676066 5.22242 0
M  V30 4253 H 390.356 0.882627 3.67448 0
M  V30 4254 H 390.669 2.40703 7.34358 0
M  V30 4255 H 389.014 2.1581 6.60644 0
M  V30 4256 H 392.205 1.17505 4.53112 0
M  V30 4257 H 392.378 1.86997 6.20432 0
M  V30 4258 N 385.784 -1.5574 0.241426 0
M  V30 4259 C 387.032 -1.98417 -0.384075 0
M  V30 4260 C 387.353 -1.13078 -1.58866 0
M  V30 4261 O 386.623 -0.212312 -1.94746 0
M  V30 4262 H 385.203 -0.732813 -0.144894 0
M  V30 4263 H 387.865 -1.9193 0.338943 0
M  V30 4264 H 386.961 -3.04219 -0.696939 0
M  V30 4265 N 387.262 0.0317525 -1.57568 0
M  V30 4266 C 388.678 0.38735 -1.54828 0
M  V30 4267 C 388.878 1.7677 -0.967187 0
M  V30 4268 O 387.934 2.45581 -0.587063 0
M  V30 4269 C 389.247 0.291667 -2.99282 0
M  V30 4270 C 390.795 0.368946 -3.10818 0
M  V30 4271 C 391.27 0.302741 -4.56998 0
M  V30 4272 N 392.761 0.361617 -4.61786 0
M  V30 4273 C 393.496 0.333238 -5.72431 0
M  V30 4274 N 392.992 0.257308 -6.92322 0
M  V30 4275 N 394.785 0.382769 -5.60795 0
M  V30 4276 H 386.936 -0.871609 -1.93692 0
M  V30 4277 H 389.199 -0.331161 -0.888277 0
M  V30 4278 H 388.905 -0.656794 -3.45513 0
M  V30 4279 H 388.779 1.08638 -3.61217 0
M  V30 4280 H 391.166 1.30784 -2.64536 0
M  V30 4281 H 391.247 -0.455066 -2.5172 0
M  V30 4282 H 390.891 -0.632473 -5.03947 0
M  V30 4283 H 390.821 1.14482 -5.14005 0
M  V30 4284 H 393.312 0.422923 -3.75526 0
M  V30 4285 H 393.625 0.24068 -7.72425 0
M  V30 4286 H 391.97 0.223396 -6.94641 0
M  V30 4287 H 395.161 0.44006 -4.66027 0
M  V30 4288 H 395.334 0.357184 -6.47015 0
M  V30 4289 N 388.74 1.54641 0.303973 0
M  V30 4290 C 389.687 1.85386 1.37479 0
M  V30 4291 C 390.657 0.702528 1.50512 0
M  V30 4292 O 391.842 0.950867 1.65418 0
M  V30 4293 C 388.982 2.10413 2.73533 0
M  V30 4294 C 388.095 3.38049 2.68974 0
M  V30 4295 C 387.23 3.52934 3.97002 0
M  V30 4296 C 386.269 4.74373 3.86829 0
M  V30 4297 N 385.406 4.8608 5.06627 0
M  V30 4298 H 390.246 2.76732 1.1056 0
M  V30 4299 H 387.783 1.37034 0.534805 0
M  V30 4300 H 389.741 2.22919 3.52652 0
M  V30 4301 H 388.371 1.22338 2.98719 0
M  V30 4302 H 387.423 3.3418 1.81736 0
M  V30 4303 H 388.735 4.27288 2.57346 0
M  V30 4304 H 387.889 3.65088 4.84557 0
M  V30 4305 H 386.628 2.61824 4.1146 0
M  V30 4306 H 385.633 4.62255 2.97658 0
M  V30 4307 H 386.858 5.66888 3.73918 0
M  V30 4308 H 384.804 3.97891 5.21554 0
M  V30 4309 H 384.721 5.69315 4.9741 0
M  V30 4310 H 385.989 5.02587 5.95841 0
M  V30 4311 N 390.218 -0.567019 1.47046 0
M  V30 4312 C 391.629 -1.14916 1.47143 0
M  V30 4313 C 391.98 -1.94954 0.220767 0
M  V30 4314 O 391.105 -2.05602 -0.67505 0
M  V30 4315 C 391.7 -2.09069 2.666 0
M  V30 4316 C 390.259 -2.62575 2.69687 0
M  V30 4317 C 389.406 -1.38755 2.40088 0
M  V30 4318 H 392.357 -0.354126 1.54699 0
M  V30 4319 H 392.378 -2.92789 2.43011 0
M  V30 4320 H 391.89 -1.50789 3.57609 0
M  V30 4321 H 389.991 -3.24681 1.82792 0
M  V30 4322 H 390.104 -3.04239 3.70102 0
M  V30 4323 H 388.468 -1.69098 1.90468 0
M  V30 4324 H 389.251 -0.822822 3.33293 0
M  V30 4325 N 391.696 -1.35014 -0.812953 0
M  V30 4326 C 392.646 -1.23959 -1.91359 0
M  V30 4327 C 393.63 -0.136306 -1.60322 0
M  V30 4328 O 394.822 -0.366925 -1.73155 0
M  V30 4329 C 391.951 -1.00736 -3.28188 0
M  V30 4330 C 391.037 -2.15426 -3.65311 0
M  V30 4331 N 391.428 -3.40612 -3.73921 0
M  V30 4332 C 389.726 -2.06672 -3.95225 0
M  V30 4333 C 390.427 -4.15994 -4.06601 0
M  V30 4334 N 389.403 -3.44685 -4.20349 0
M  V30 4335 H 393.205 -2.18815 -1.96208 0
M  V30 4336 H 390.719 -1.27395 -1.00718 0
M  V30 4337 H 392.716 -0.909052 -4.06868 0
M  V30 4338 H 391.376 -0.067586 -3.2463 0
M  V30 4339 H 392.387 -3.75043 -3.5716 0
M  V30 4340 H 389.064 -1.20511 -3.99729 0
M  V30 4341 H 390.454 -5.24145 -4.20382 0
M  V30 4342 N 393.175 1.03435 -1.18907 0
M  V30 4343 C 394.107 2.1165 -0.879595 0
M  V30 4344 C 395.12 1.62316 0.125439 0
M  V30 4345 O 396.309 1.78201 -0.103245 0
M  V30 4346 C 393.409 3.37622 -0.294042 0
M  V30 4347 C 392.582 4.16166 -1.34629 0
M  V30 4348 C 391.641 5.20457 -0.775274 0
M  V30 4349 O 390.667 5.50379 -1.4516 0
M  V30 4350 N 391.869 5.78949 0.424126 0
M  V30 4351 H 394.634 2.38791 -1.81105 0
M  V30 4352 H 392.195 1.19681 -1.09032 0
M  V30 4353 H 394.187 4.04572 0.101679 0
M  V30 4354 H 392.757 3.07873 0.541575 0
M  V30 4355 H 391.977 3.44444 -1.91707 0
M  V30 4356 H 393.265 4.65432 -2.05549 0
M  V30 4357 H 392.663 5.56948 0.991209 0
M  V30 4358 H 391.22 6.47334 0.761691 0
M  V30 4359 N 394.653 0.992116 1.22453 0
M  V30 4360 C 395.902 0.662992 1.90492 0
M  V30 4361 C 396.215 -0.808407 1.78113 0
M  V30 4362 O 397.421 -1.24908 2.41061 0
M  V30 4363 C 395.877 1.1353 3.41524 0
M  V30 4364 C 395.485 2.63187 3.62542 0
M  V30 4365 C 397.229 0.880465 4.15269 0
M  V30 4366 C 395.136 3.04024 5.0727 0
M  V30 4367 H 394.066 0.244278 0.713333 0
M  V30 4368 H 396.717 1.20157 1.38688 0
M  V30 4369 H 395.099 0.52485 3.92506 0
M  V30 4370 H 396.273 3.2957 3.22056 0
M  V30 4371 H 394.588 2.86543 3.02129 0
M  V30 4372 H 397.185 1.16128 5.21937 0
M  V30 4373 H 397.528 -0.183408 4.15896 0
M  V30 4374 H 398.061 1.45307 3.70312 0
M  V30 4375 H 394.8 4.09584 5.11782 0
M  V30 4376 H 394.32 2.42343 5.48662 0
M  V30 4377 H 395.999 2.95282 5.75689 0
M  V30 4378 N 396.131 -1.37776 0.765217 0
M  V30 4379 C 397.542 -1.82521 0.392819 0
M  V30 4380 C 397.893 -1.63789 -1.08017 0
M  V30 4381 O 397.018 -1.14542 -1.83601 0
M  V30 4382 C 397.613 -3.31358 0.706214 0
M  V30 4383 C 396.172 -3.74406 0.386952 0
M  V30 4384 C 395.319 -2.60394 0.953422 0
M  V30 4385 H 398.27 -1.2634 0.960412 0
M  V30 4386 H 398.291 -3.80498 -0.0114706 0
M  V30 4387 H 397.803 -3.44959 1.77833 0
M  V30 4388 H 395.904 -3.66377 -0.678112 0
M  V30 4389 H 396.017 -4.70749 0.890636 0
M  V30 4390 H 394.381 -2.51878 0.378064 0
M  V30 4391 H 395.164 -2.76791 2.03081 0
M  V30 4392 N 397.609 -0.515225 -1.4894 0
M  V30 4393 C 398.572 0.244681 -2.2789 0
M  V30 4394 C 399.572 0.881166 -1.34507 0
M  V30 4395 O 400.762 0.743497 -1.57537 0
M  V30 4396 C 397.894 1.35247 -3.12923 0
M  V30 4397 H 399.087 -0.448289 -2.96531 0
M  V30 4398 H 396.64 -0.270656 -1.53939 0
M  V30 4399 H 397.375 2.07916 -2.48881 0
M  V30 4400 H 397.16 0.901374 -3.81599 0
M  V30 4401 H 398.65 1.88737 -3.72516 0
M  V30 4402 N 399.087 1.5561 -0.249682 0
M  V30 4403 C 400.312 2.03865 0.381305 0
M  V30 4404 C 400.737 1.12769 1.50548 0
M  V30 4405 O 400.095 0.121189 1.80895 0
M  V30 4406 C 400.143 3.50101 0.863816 0
M  V30 4407 O 399.247 3.62132 1.97318 0
M  V30 4408 H 398.588 0.658827 0.0827194 0
M  V30 4409 H 401.118 2.01105 -0.376552 0
M  V30 4410 H 401.128 3.90975 1.1663 0
M  V30 4411 H 399.803 4.1588 0.0411816 0
M  V30 4412 H 398.38 3.33155 1.67517 0
M  V30 4413 N 400.565 -0.0233959 1.57583 0
M  V30 4414 C 401.793 -0.724682 1.93794 0
M  V30 4415 C 402.208 -1.68588 0.849912 0
M  V30 4416 O 401.565 -1.81676 -0.173204 0
M  V30 4417 C 401.616 -1.47684 3.29957 0
M  V30 4418 O 401.337 -0.554222 4.3458 0
M  V30 4419 C 402.838 -2.27477 3.80485 0
M  V30 4420 H 400.058 -0.203317 0.639455 0
M  V30 4421 H 402.602 0.0207653 2.04489 0
M  V30 4422 H 400.757 -2.17412 3.20641 0
M  V30 4423 H 401.171 -1.08232 5.13212 0
M  V30 4424 H 402.645 -2.7564 4.78254 0
M  V30 4425 H 403.122 -3.09144 3.11972 0
M  V30 4426 H 403.728 -1.62813 3.92902 0
M  V30 4427 N 402.043 -1.548 -0.295768 0
M  V30 4428 C 403.454 -1.65274 -0.868411 0
M  V30 4429 C 403.805 -0.56481 -1.87894 0
M  V30 4430 O 402.93 0.29767 -2.14343 0
M  V30 4431 C 403.525 -2.99603 -1.58188 0
M  V30 4432 C 402.084 -3.12181 -2.10286 0
M  V30 4433 C 401.231 -2.6098 -0.93727 0
M  V30 4434 H 404.182 -1.58534 -0.0726422 0
M  V30 4435 H 404.203 -2.91319 -2.44772 0
M  V30 4436 H 403.715 -3.78764 -0.846151 0
M  V30 4437 H 401.816 -2.3775 -2.8689 0
M  V30 4438 H 401.929 -4.18415 -2.33379 0
M  V30 4439 H 400.293 -2.17564 -1.32431 0
M  V30 4440 H 401.076 -3.42623 -0.215414 0
M  V30 4441 N 403.521 0.559213 -1.47345 0
M  V30 4442 C 404.453 1.68161 -1.55738 0
M  V30 4443 C 405.466 1.56636 -0.443744 0
M  V30 4444 O 406.655 1.6363 -0.713258 0
M  V30 4445 C 403.755 3.06611 -1.4437 0
M  V30 4446 C 402.928 3.4391 -2.70268 0
M  V30 4447 C 401.987 4.61515 -2.52765 0
M  V30 4448 O 401.013 4.66197 -3.26572 0
M  V30 4449 N 402.215 5.57883 -1.6046 0
M  V30 4450 H 404.98 1.61408 -2.52522 0
M  V30 4451 H 402.541 0.7458 -1.43699 0
M  V30 4452 H 404.533 3.83117 -1.30398 0
M  V30 4453 H 403.103 3.07602 -0.556766 0
M  V30 4454 H 402.323 2.56873 -2.99015 0
M  V30 4455 H 403.611 3.65605 -3.53851 0
M  V30 4456 H 403.009 5.56855 -0.996422 0
M  V30 4457 H 401.566 6.33723 -1.52441 0
M  V30 4458 N 404.999 1.35443 0.805782 0
M  V30 4459 C 405.947 1.28465 1.93906 0
M  V30 4460 C 406.941 0.17943 1.68447 0
M  V30 4461 O 408.147 0.345459 1.76654 0
M  V30 4462 H 404.522 0.399528 0.637088 0
M  V30 4463 H 406.493 2.24206 1.96912 0
M  V30 4464 C 405.242 1.07432 3.30687 0
M  V30 4465 H 404.565 1.91716 3.50835 0
M  V30 4466 H 406.005 1.06591 4.10383 0
M  V30 4467 C 404.464 -0.22179 3.36169 0
M  V30 4468 O 404.994 -1.21731 3.82811 0
M  V30 4469 N 403.2 -0.260841 2.89427 0
M  V30 4470 H 402.747 0.549884 2.51663 0
M  V30 4471 H 402.705 -1.12777 2.93477 0
M  V30 4472 N 406.477 -1.02803 1.19454 0
M  V30 4473 C 407.888 -1.57667 0.999899 0
M  V30 4474 C 408.239 -1.91041 -0.446956 0
M  V30 4475 O 407.364 -1.70978 -1.32648 0
M  V30 4476 C 407.959 -2.86477 1.80877 0
M  V30 4477 C 406.518 -3.37911 1.65811 0
M  V30 4478 C 405.665 -2.11343 1.79526 0
M  V30 4479 H 408.616 -0.853214 1.33813 0
M  V30 4480 H 408.637 -3.57408 1.30536 0
M  V30 4481 H 408.149 -2.62155 2.86175 0
M  V30 4482 H 406.25 -3.67218 0.63102 0
M  V30 4483 H 406.363 -4.10885 2.46395 0
M  V30 4484 H 404.727 -2.23254 1.22596 0
M  V30 4485 H 405.51 -1.89461 2.86285 0
M  V30 4486 N 407.956 -0.998596 -1.21925 0
M  V30 4487 C 408.919 -0.558679 -2.22287 0
M  V30 4488 C 409.919 0.361525 -1.56683 0
M  V30 4489 O 411.109 0.152695 -1.73529 0
M  V30 4490 C 408.241 0.18661 -3.40389 0
M  V30 4491 H 409.434 -1.4463 -2.62721 0
M  V30 4492 H 406.987 -0.786413 -1.35075 0
M  V30 4493 H 407.722 1.08996 -3.05435 0
M  V30 4494 H 407.507 -0.474188 -3.89222 0
M  V30 4495 H 408.997 0.482367 -4.14805 0
M  V30 4496 N 409.434 1.37368 -0.772513 0
M  V30 4497 C 410.662 2.03942 -0.348588 0
M  V30 4498 C 411.077 1.58264 1.02947 0
M  V30 4499 O 410.434 0.764246 1.65727 0
M  V30 4500 C 410.485 3.5946 -0.38351 0
M  V30 4501 O 410.206 4.03468 -1.70721 0
M  V30 4502 C 411.707 4.4327 0.0519152 0
M  V30 4503 H 408.927 0.654931 -0.145966 0
M  V30 4504 H 411.471 1.75686 -1.04665 0
M  V30 4505 H 409.626 3.86486 0.265978 0
M  V30 4506 H 410.04 4.97991 -1.64636 0
M  V30 4507 H 411.514 5.51995 -0.0236733 0
M  V30 4508 H 411.991 4.2514 1.10238 0
M  V30 4509 H 412.597 4.21471 -0.569415 0
M  V30 4510 N 410.912 0.523116 1.48665 0
M  V30 4511 C 412.137 -0.0117284 2.07397 0
M  V30 4512 C 412.562 -1.28031 1.37803 0
M  V30 4513 O 411.92 -1.75836 0.441762 0
M  V30 4514 C 411.968 -0.225786 3.59892 0
M  V30 4515 O 411.072 -1.29592 3.91509 0
M  V30 4516 H 410.413 0.0360673 0.66302 0
M  V30 4517 H 412.943 0.729066 1.9117 0
M  V30 4518 H 412.953 -0.450552 4.05505 0
M  V30 4519 H 411.628 0.700944 4.09951 0
M  V30 4520 H 410.205 -1.05436 3.57684 0
M  V30 4521 N 412.39 -1.55475 0.257931 0
M  V30 4522 C 413.322 -2.19192 -0.669881 0
M  V30 4523 C 414.335 -1.17148 -1.1305 0
M  V30 4524 O 415.524 -1.43959 -1.05537 0
M  V30 4525 C 412.624 -2.79016 -1.92363 0
M  V30 4526 C 411.797 -4.06586 -1.61265 0
M  V30 4527 C 410.856 -4.50622 -2.7171 0
M  V30 4528 O 409.882 -5.16765 -2.38627 0
M  V30 4529 N 411.084 -4.19325 -4.01431 0
M  V30 4530 H 413.849 -2.99441 -0.124635 0
M  V30 4531 H 411.41 -1.6171 0.0783311 0
M  V30 4532 H 413.402 -3.05427 -2.65511 0
M  V30 4533 H 411.972 -2.0286 -2.37837 0
M  V30 4534 H 411.192 -3.87646 -0.715811 0
M  V30 4535 H 412.48 -4.89737 -1.37967 0
M  V30 4536 H 411.878 -3.66247 -4.31138 0
M  V30 4537 H 410.435 -4.50547 -4.7101 0
M  V30 4538 N 413.868 0.0150385 -1.57593 0
M  V30 4539 C 414.818 1.01943 -2.0394 0
M  V30 4540 C 415.802 1.31209 -0.931286 0
M  V30 4541 O 416.994 1.30559 -1.19513 0
M  V30 4542 C 414.123 2.31621 -2.53391 0
M  V30 4543 C 413.209 2.05384 -3.7105 0
M  V30 4544 N 413.6 1.49253 -4.83278 0
M  V30 4545 C 411.898 2.35601 -3.78693 0
M  V30 4546 C 412.599 1.39143 -5.64813 0
M  V30 4547 N 411.575 1.87187 -5.10355 0
M  V30 4548 H 415.377 0.57969 -2.88126 0
M  V30 4549 H 412.891 0.221056 -1.60888 0
M  V30 4550 H 414.888 3.044 -2.84862 0
M  V30 4551 H 413.548 2.76261 -1.70616 0
M  V30 4552 H 414.559 1.17334 -5.04433 0
M  V30 4553 H 411.236 2.8322 -3.06746 0
M  V30 4554 H 412.626 0.961153 -6.6499 0
M  V30 4555 N 415.346 1.54954 0.287554 0
M  V30 4556 C 416.757 1.65732 0.859634 0
M  V30 4557 C 417.108 0.574767 1.87592 0
M  V30 4558 O 416.233 -0.286299 2.14498 0
M  V30 4559 C 416.828 3.00438 1.56597 0
M  V30 4560 C 415.387 3.13292 2.08627 0
M  V30 4561 C 414.534 2.61473 0.923416 0
M  V30 4562 H 417.485 1.5857 0.0642338 0
M  V30 4563 H 417.506 2.92613 2.43224 0
M  V30 4564 H 417.018 3.79207 0.826053 0
M  V30 4565 H 415.119 2.39268 2.85625 0
M  V30 4566 H 415.232 4.19647 2.31157 0
M  V30 4567 H 413.596 2.18264 1.31275 0
M  V30 4568 H 414.379 3.42733 0.197241 0
M  V30 4569 N 416.824 -0.551391 1.4764 0
M  V30 4570 C 418.235 -1.13349 1.48354 0
M  V30 4571 C 418.586 -1.94709 0.241432 0
M  V30 4572 O 417.711 -2.06306 -0.653205 0
M  V30 4573 C 418.306 -2.0623 2.68802 0
M  V30 4574 C 416.865 -2.597 2.72457 0
M  V30 4575 C 416.012 -1.36201 2.41546 0
M  V30 4576 H 418.963 -0.337698 1.55065 0
M  V30 4577 H 418.984 -2.90196 2.46103 0
M  V30 4578 H 418.496 -1.46987 3.59188 0
M  V30 4579 H 416.597 -3.22724 1.86225 0
M  V30 4580 H 416.71 -3.00296 3.73308 0
M  V30 4581 H 415.074 -1.67068 1.9225 0
M  V30 4582 H 415.857 -0.787425 3.34147 0
M  V30 4583 N 418.302 -1.35869 -0.798587 0
M  V30 4584 C 419.713 -1.26498 -1.37314 0
M  V30 4585 C 420.064 0.0991899 -1.95949 0
M  V30 4586 O 419.189 1.0004 -1.91888 0
M  V30 4587 C 419.784 -2.29054 -2.49639 0
M  V30 4588 C 418.343 -2.234 -3.02935 0
M  V30 4589 C 417.49 -2.14329 -1.75949 0
M  V30 4590 H 420.441 -1.46881 -0.600971 0
M  V30 4591 H 420.462 -1.92166 -3.28409 0
M  V30 4592 H 419.974 -3.2833 -2.06933 0
M  V30 4593 H 418.075 -1.27562 -3.50084 0
M  V30 4594 H 418.188 -3.15703 -3.60372 0
M  V30 4595 H 416.552 -1.60435 -1.9782 0
M  V30 4596 H 417.335 -3.15477 -1.35384 0
M  V30 4597 N 419.78 1.02168 -1.19998 0
M  V30 4598 C 421.191 1.57135 -1.00825 0
M  V30 4599 C 421.542 1.91276 0.436818 0
M  V30 4600 O 420.667 1.71679 1.3174 0
M  V30 4601 C 421.262 2.85514 -1.82393 0
M  V30 4602 C 419.821 3.37027 -1.67601 0
M  V30 4603 C 418.968 2.10388 -1.80644 0
M  V30 4604 H 421.919 0.846106 -1.34264 0
M  V30 4605 H 421.94 3.56711 -1.32429 0
M  V30 4606 H 421.452 2.60634 -2.87561 0
M  V30 4607 H 419.553 3.66878 -0.650485 0
M  V30 4608 H 419.666 4.09572 -2.4857 0
M  V30 4609 H 418.03 2.22601 -1.23778 0
M  V30 4610 H 418.813 1.8794 -2.87286 0
M  V30 4611 N 421.258 1.00505 1.21394 0
M  V30 4612 C 422.669 0.721082 1.72213 0
M  V30 4613 C 423.02 -0.761263 1.80829 0
M  V30 4614 O 422.145 -1.59464 1.46288 0
M  V30 4615 C 422.74 1.30228 3.12772 0
M  V30 4616 C 421.299 1.06743 3.60947 0
M  V30 4617 C 420.446 1.41507 2.38477 0
M  V30 4618 H 423.397 1.17594 1.06571 0
M  V30 4619 H 423.418 0.686955 3.74247 0
M  V30 4620 H 422.93 2.38115 3.06468 0
M  V30 4621 H 421.031 0.00572162 3.726 0
M  V30 4622 H 421.144 1.73936 4.46411 0
M  V30 4623 H 419.508 0.833852 2.40664 0
M  V30 4624 H 420.291 2.50424 2.34824 0
M  V30 4625 N 422.737 -1.36956 0.779787 0
M  V30 4626 C 423.985 -1.99097 0.347079 0
M  V30 4627 C 424.306 -1.62206 -1.08232 0
M  V30 4628 O 423.576 -0.891373 -1.74446 0
M  V30 4629 H 422.156 -0.736409 0.125342 0
M  V30 4630 H 424.818 -1.67308 0.999696 0
M  V30 4631 H 423.914 -3.09107 0.431162 0
M  V30 4632 N 424.215 -0.530993 -1.48385 0
M  V30 4633 C 425.165 0.251092 -2.26613 0
M  V30 4634 C 426.149 0.908977 -1.32765 0
M  V30 4635 O 427.341 0.811616 -1.57295 0
M  V30 4636 C 424.47 1.29677 -3.17866 0
M  V30 4637 C 423.556 0.643627 -4.19188 0
M  V30 4638 N 423.947 -0.271223 -5.05072 0
M  V30 4639 C 422.245 0.900711 -4.3681 0
M  V30 4640 C 422.946 -0.648109 -5.78078 0
M  V30 4641 N 421.922 -0.00895987 -5.43599 0
M  V30 4642 H 425.724 -0.452702 -2.90393 0
M  V30 4643 H 423.238 -0.349091 -1.58604 0
M  V30 4644 H 425.235 1.87079 -3.72568 0
M  V30 4645 H 423.895 2.00193 -2.55642 0
M  V30 4646 H 424.906 -0.643883 -5.13882 0
M  V30 4647 H 421.583 1.59636 -3.85775 0
M  V30 4648 H 422.973 -1.39833 -6.57188 0
M  V30 4649 N 425.693 1.55336 -0.266172 0
M  V30 4650 C 427.109 1.59356 0.0882065 0
M  V30 4651 C 427.309 1.2834 1.55342 0
M  V30 4652 O 426.365 1.03996 2.30089 0
M  V30 4653 C 427.678 2.99409 -0.278364 0
M  V30 4654 C 429.226 3.12196 -0.224243 0
M  V30 4655 C 429.701 4.545 -0.565123 0
M  V30 4656 N 431.192 4.60313 -0.51634 0
M  V30 4657 C 431.927 5.68434 -0.753013 0
M  V30 4658 N 431.423 6.84738 -1.05383 0
M  V30 4659 N 433.216 5.57942 -0.682414 0
M  V30 4660 H 425.367 1.73764 -1.22147 0
M  V30 4661 H 427.63 0.809822 -0.492841 0
M  V30 4662 H 427.336 3.2691 -1.29703 0
M  V30 4663 H 427.21 3.75228 0.385186 0
M  V30 4664 H 429.597 2.84464 0.78512 0
M  V30 4665 H 429.678 2.38609 -0.921922 0
M  V30 4666 H 429.322 4.82956 -1.57213 0
M  V30 4667 H 429.252 5.26374 0.154248 0
M  V30 4668 H 431.743 3.7676 -0.29335 0
M  V30 4669 H 432.056 7.63088 -1.22133 0
M  V30 4670 H 430.401 6.86375 -1.09151 0
M  V30 4671 H 433.592 4.65958 -0.44731 0
M  V30 4672 H 433.765 6.4213 -0.870248 0
M  V30 4673 N 427.171 -0.0066808 1.57599 0
M  V30 4674 C 428.396 -0.707738 1.94951 0
M  V30 4675 C 428.821 -1.66882 0.867868 0
M  V30 4676 O 428.179 -1.80457 -0.17458 0
M  V30 4677 C 428.227 -1.42162 3.31394 0
M  V30 4678 O 427.331 -2.53578 3.25226 0
M  V30 4679 H 426.672 -0.188752 0.636607 0
M  V30 4680 H 429.202 0.0445193 2.04552 0
M  V30 4681 H 429.212 -1.78655 3.66806 0
M  V30 4682 H 427.887 -0.716903 4.09675 0
M  V30 4683 H 426.464 -2.19463 3.01481 0
M  V30 4684 N 428.649 -1.55105 -0.279332 0
M  V30 4685 C 429.581 -1.83952 -1.36727 0
M  V30 4686 C 430.594 -0.723642 -1.45833 0
M  V30 4687 O 431.783 -1.00141 -1.47763 0
M  V30 4688 C 428.883 -1.98183 -2.74912 0
M  V30 4689 C 428.056 -3.28787 -2.88475 0
M  V30 4690 C 427.115 -3.33162 -4.07295 0
M  V30 4691 O 426.141 -4.06576 -3.98353 0
M  V30 4692 N 427.343 -2.60109 -5.18964 0
M  V30 4693 H 430.108 -2.77853 -1.12328 0
M  V30 4694 H 427.669 -1.54945 -0.469442 0
M  V30 4695 H 429.661 -1.98488 -3.52682 0
M  V30 4696 H 428.231 -1.11177 -2.92162 0
M  V30 4697 H 427.451 -3.41075 -1.97641 0
M  V30 4698 H 428.739 -4.14933 -2.94463 0
M  V30 4699 H 428.137 -2.00136 -5.29115 0
M  V30 4700 H 426.694 -2.66143 -5.94988 0
M  V30 4701 N 430.127 0.543554 -1.4793 0
M  V30 4702 C 431.09 1.63156 -1.60975 0
M  V30 4703 C 432.09 1.53346 -0.483899 0
M  V30 4704 O 433.28 1.5726 -0.749339 0
M  V30 4705 C 430.412 3.02743 -1.56716 0
M  V30 4706 H 431.605 1.52934 -2.57975 0
M  V30 4707 H 429.158 0.764557 -1.36324 0
M  V30 4708 H 429.893 3.18484 -0.611418 0
M  V30 4709 H 429.678 3.11272 -2.38438 0
M  V30 4710 H 431.168 3.81871 -1.6901 0
M  V30 4711 N 431.605 1.3629 0.791371 0
M  V30 4712 C 433.016 1.27225 1.36641 0
M  V30 4713 C 433.367 -0.0887968 1.95999 0
M  V30 4714 O 432.492 -0.990207 1.92416 0
M  V30 4715 C 433.087 2.30375 2.48421 0
M  V30 4716 C 431.646 2.25004 3.01746 0
M  V30 4717 C 430.793 2.15259 1.7481 0
M  V30 4718 H 433.744 1.47198 0.593173 0
M  V30 4719 H 433.765 1.93905 3.27385 0
M  V30 4720 H 433.277 3.29422 2.05189 0
M  V30 4721 H 431.378 1.29417 3.49403 0
M  V30 4722 H 431.491 3.1761 3.58693 0
M  V30 4723 H 429.855 1.61482 1.96966 0
M  V30 4724 H 430.638 3.16191 1.33709 0
M  V30 4725 N 433.083 -1.0153 1.20538 0
M  V30 4726 C 434.308 -1.79283 1.04271 0
M  V30 4727 C 434.733 -1.8372 -0.403544 0
M  V30 4728 O 434.091 -1.27321 -1.2907 0
M  V30 4729 C 434.139 -3.21535 1.63241 0
M  V30 4730 O 433.243 -4.03099 0.870908 0
M  V30 4731 H 432.584 -0.55293 0.367647 0
M  V30 4732 H 435.114 -1.27696 1.59859 0
M  V30 4733 H 435.124 -3.72243 1.6703 0
M  V30 4734 H 433.799 -3.1762 2.68497 0
M  V30 4735 H 432.376 -3.61693 0.907323 0
M  V30 4736 N 434.561 -1.01147 -1.20859 0
M  V30 4737 C 435.511 -0.548247 -2.2131 0
M  V30 4738 C 436.495 0.393646 -1.5601 0
M  V30 4739 O 437.687 0.217445 -1.75659 0
M  V30 4740 C 434.816 0.117252 -3.431 0
M  V30 4741 C 433.902 -0.846043 -4.15575 0
M  V30 4742 N 434.293 -2.00149 -4.64515 0
M  V30 4743 C 432.591 -0.665783 -4.41003 0
M  V30 4744 C 433.292 -2.60764 -5.19978 0
M  V30 4745 N 432.268 -1.88868 -5.09735 0
M  V30 4746 H 436.07 -1.42921 -2.56809 0
M  V30 4747 H 433.584 -0.876142 -1.36739 0
M  V30 4748 H 435.581 0.46662 -4.1428 0
M  V30 4749 H 434.241 0.994115 -3.09107 0
M  V30 4750 H 435.252 -2.38162 -4.5989 0
M  V30 4751 H 431.929 0.163456 -4.1718 0
M  V30 4752 H 433.319 -3.58519 -5.68255 0
M  V30 4753 N 436.039 1.36541 -0.78704 0
M  V30 4754 C 437.455 1.52571 -0.46844 0
M  V30 4755 C 437.655 1.7415 1.01361 0
M  V30 4756 O 436.711 1.77163 1.79915 0
M  V30 4757 C 438.024 2.71299 -1.29682 0
M  V30 4758 C 439.572 2.85169 -1.29027 0
M  V30 4759 C 440.047 4.06898 -2.10233 0
M  V30 4760 N 441.538 4.1404 -2.07666 0
M  V30 4761 C 442.273 5.07301 -2.67271 0
M  V30 4762 N 441.769 6.06021 -3.35724 0
M  V30 4763 N 443.562 4.99898 -2.57018 0
M  V30 4764 H 435.713 1.20788 -1.74711 0
M  V30 4765 H 437.976 0.589364 -0.742532 0
M  V30 4766 H 437.682 2.61868 -2.34773 0
M  V30 4767 H 437.556 3.6539 -0.936479 0
M  V30 4768 H 439.943 2.94062 -0.247284 0
M  V30 4769 H 440.024 1.91992 -1.69035 0
M  V30 4770 H 439.668 3.98766 -3.1456 0
M  V30 4771 H 439.598 4.99218 -1.67597 0
M  V30 4772 H 442.089 3.43357 -1.57843 0
M  V30 4773 H 442.402 6.73741 -3.78541 0
M  V30 4774 H 440.747 6.06253 -3.39826 0
M  V30 4775 H 443.938 4.21724 -2.03142 0
M  V30 4776 H 444.111 5.72392 -3.03761 0
M  V30 4777 N 437.518 0.538854 1.48102 0
M  V30 4778 C 438.929 0.100679 1.86428 0
M  V30 4779 C 439.28 -1.32447 1.44749 0
M  V30 4780 O 438.405 -1.99339 0.842199 0
M  V30 4781 C 439 0.175933 3.38343 0
M  V30 4782 C 437.559 -0.207098 3.7583 0
M  V30 4783 C 436.706 0.531741 2.72154 0
M  V30 4784 H 439.657 0.749614 1.3988 0
M  V30 4785 H 439.678 -0.610144 3.75576 0
M  V30 4786 H 439.19 1.21328 3.68648 0
M  V30 4787 H 437.291 -1.24626 3.5114 0
M  V30 4788 H 437.404 0.138687 4.78899 0
M  V30 4789 H 435.768 -0.0230462 2.5469 0
M  V30 4790 H 436.551 1.56989 3.05302 0
M  V30 4791 N 438.996 -1.55193 0.274407 0
M  V30 4792 C 440.407 -1.85358 -0.223488 0
M  V30 4793 C 440.758 -1.19642 -1.555 0
M  V30 4794 O 439.883 -0.484498 -2.10907 0
M  V30 4795 C 440.478 -3.36282 -0.412285 0
M  V30 4796 C 439.037 -3.66574 -0.854413 0
M  V30 4797 C 438.184 -2.7725 0.0527056 0
M  V30 4798 H 441.135 -1.50743 0.496215 0
M  V30 4799 H 441.156 -3.59349 -1.25094 0
M  V30 4800 H 440.668 -3.84083 0.556965 0
M  V30 4801 H 438.769 -3.24273 -1.83516 0
M  V30 4802 H 438.882 -4.74073 -0.692226 0
M  V30 4803 H 437.246 -2.50447 -0.463484 0
M  V30 4804 H 438.029 -3.27865 1.01783 0
M  V30 4805 N 440.474 -0.00167713 -1.576 0
M  V30 4806 C 441.885 0.54091 -1.78693 0
M  V30 4807 C 442.236 1.7386 -0.909247 0
M  V30 4808 O 441.361 2.16109 -0.112176 0
M  V30 4809 C 441.956 0.98806 -3.24072 0
M  V30 4810 C 440.515 1.47594 -3.46256 0
M  V30 4811 C 439.662 0.42792 -2.73978 0
M  V30 4812 H 442.613 -0.22784 -1.57056 0
M  V30 4813 H 442.634 1.85398 -3.32277 0
M  V30 4814 H 442.146 0.116164 -3.87926 0
M  V30 4815 H 440.247 2.36868 -2.87618 0
M  V30 4816 H 440.36 1.50225 -4.54939 0
M  V30 4817 H 438.724 0.889934 -2.38647 0
M  V30 4818 H 439.507 -0.435038 -3.40532 0
M  V30 4819 N 441.952 1.55251 0.271103 0
M  V30 4820 C 443.363 1.66635 0.842007 0
M  V30 4821 C 443.714 0.594631 1.86972 0
M  V30 4822 O 442.839 -0.263532 2.14789 0
M  V30 4823 C 443.434 3.02082 1.53401 0
M  V30 4824 C 441.993 3.15487 2.05293 0
M  V30 4825 C 441.14 2.62438 0.895631 0
M  V30 4826 H 444.091 1.58629 0.0474117 0
M  V30 4827 H 444.112 2.95176 2.40107 0
M  V30 4828 H 443.624 3.80062 0.785786 0
M  V30 4829 H 441.725 2.42284 2.83071 0
M  V30 4830 H 441.838 4.22075 2.26693 0
M  V30 4831 H 440.202 2.19644 1.28953 0
M  V30 4832 H 440.985 3.42923 0.160878 0
M  V30 4833 N 443.43 -0.535701 1.48216 0
M  V30 4834 C 444.678 -1.28928 1.55634 0
M  V30 4835 C 444.999 -1.93645 0.229514 0
M  V30 4836 O 444.269 -1.81038 -0.74846 0
M  V30 4837 H 442.849 -0.47884 0.573342 0
M  V30 4838 H 445.511 -0.623853 1.84646 0
M  V30 4839 H 444.607 -2.07157 2.33436 0
M  V30 4840 N 444.908 -1.36708 -0.784132 0
M  V30 4841 C 445.858 -1.2799 -1.88686 0
M  V30 4842 C 446.842 -0.170282 -1.59996 0
M  V30 4843 O 448.034 -0.403571 -1.72338 0
M  V30 4844 C 445.163 -1.07674 -3.25977 0
M  V30 4845 C 444.249 -2.23127 -3.60659 0
M  V30 4846 N 444.64 -3.48467 -3.66612 0
M  V30 4847 C 442.938 -2.15009 -3.90752 0
M  V30 4848 C 443.639 -4.24525 -3.97685 0
M  V30 4849 N 442.615 -3.53524 -4.12943 0
M  V30 4850 H 446.417 -2.22927 -1.91522 0
M  V30 4851 H 443.931 -1.29503 -0.979933 0
M  V30 4852 H 445.928 -0.995151 -4.04849 0
M  V30 4853 H 444.588 -0.13643 -3.24413 0
M  V30 4854 H 445.599 -3.82534 -3.49125 0
M  V30 4855 H 442.276 -1.28963 -3.97083 0
M  V30 4856 H 443.666 -5.32944 -4.0917 0
M  V30 4857 N 446.386 1.0089 -1.21074 0
M  V30 4858 C 447.802 1.2695 -0.967257 0
M  V30 4859 C 448.002 1.9846 0.348673 0
M  V30 4860 O 447.058 2.28459 1.0753 0
M  V30 4861 C 448.371 2.09697 -2.15517 0
M  V30 4862 C 449.919 2.22937 -2.197 0
M  V30 4863 C 450.394 3.09064 -3.37999 0
M  V30 4864 N 451.885 3.16653 -3.38061 0
M  V30 4865 C 452.62 3.8354 -4.26245 0
M  V30 4866 N 452.116 4.52488 -5.2462 0
M  V30 4867 N 453.909 3.80141 -4.14064 0
M  V30 4868 H 446.06 0.529005 -2.05707 0
M  V30 4869 H 448.323 0.296148 -0.900556 0
M  V30 4870 H 448.029 1.64497 -3.10859 0
M  V30 4871 H 447.903 3.10444 -2.14253 0
M  V30 4872 H 450.29 2.67357 -1.24916 0
M  V30 4873 H 450.371 1.21673 -2.2501 0
M  V30 4874 H 450.015 2.65347 -4.33074 0
M  V30 4875 H 449.945 4.10433 -3.29928 0
M  V30 4876 H 452.436 2.67566 -2.66865 0
M  V30 4877 H 452.749 5.01219 -5.88217 0
M  V30 4878 H 451.094 4.51288 -5.28549 0
M  V30 4879 H 454.285 3.25427 -3.36474 0
M  V30 4880 H 454.458 4.31992 -4.82998 0
M  V30 4881 N 447.864 1.01787 1.20321 0
M  V30 4882 C 449.11 0.708985 1.90003 0
M  V30 4883 C 449.443 -0.759572 1.78729 0
M  V30 4884 O 448.718 -1.55198 1.17234 0
M  V30 4885 C 449.001 1.1469 3.41348 0
M  V30 4886 C 448.854 2.67586 3.61549 0
M  V30 4887 C 450.173 0.71915 4.34185 0
M  V30 4888 H 447.292 0.259034 0.689978 0
M  V30 4889 H 449.934 1.26584 1.41692 0
M  V30 4890 H 448.084 0.673128 3.82624 0
M  V30 4891 H 449.756 3.22826 3.29517 0
M  V30 4892 H 447.999 3.085 3.04976 0
M  V30 4893 H 448.67 2.93281 4.67643 0
M  V30 4894 H 451.146 1.12647 4.00562 0
M  V30 4895 H 450.022 1.05358 5.38694 0
M  V30 4896 H 450.283 -0.379111 4.40472 0
M  V30 4897 N 449.342 -1.36122 0.79427 0
M  V30 4898 C 450.274 -2.28683 0.153903 0
M  V30 4899 C 451.287 -1.49707 -0.639669 0
M  V30 4900 O 452.476 -1.7209 -0.474054 0
M  V30 4901 C 449.576 -3.29202 -0.804921 0
M  V30 4902 C 448.749 -4.37358 -0.060366 0
M  V30 4903 C 447.808 -5.17811 -0.935849 0
M  V30 4904 O 446.834 -5.67853 -0.391309 0
M  V30 4905 N 448.036 -5.34721 -2.25951 0
M  V30 4906 H 450.801 -2.84278 0.949008 0
M  V30 4907 H 448.362 -1.4834 0.648611 0
M  V30 4908 H 450.354 -3.79914 -1.39455 0
M  V30 4909 H 448.924 -2.74212 -1.50088 0
M  V30 4910 H 448.144 -3.87746 0.710382 0
M  V30 4911 H 449.432 -5.06777 0.45324 0
M  V30 4912 H 448.83 -4.95687 -2.72601 0
M  V30 4913 H 447.387 -5.88657 -2.79867 0
M  V30 4914 N 450.82 -0.546701 -1.47814 0
M  V30 4915 C 451.77 0.227042 -2.26867 0
M  V30 4916 C 452.754 0.894844 -1.33721 0
M  V30 4917 O 453.946 0.794887 -1.58147 0
M  V30 4918 C 451.075 1.26299 -3.19223 0
M  V30 4919 C 450.161 0.59913 -4.19847 0
M  V30 4920 N 450.552 -0.324777 -5.04756 0
M  V30 4921 C 448.85 0.854331 -4.37741 0
M  V30 4922 C 449.551 -0.709386 -5.77358 0
M  V30 4923 N 448.527 -0.0666153 -5.43559 0
M  V30 4924 H 452.329 -0.483476 -2.89896 0
M  V30 4925 H 449.843 -0.365893 -1.58224 0
M  V30 4926 H 451.84 1.83116 -3.74532 0
M  V30 4927 H 450.5 1.97471 -2.57751 0
M  V30 4928 H 451.511 -0.698351 -5.1317 0
M  V30 4929 H 448.188 1.55536 -3.87447 0
M  V30 4930 H 449.578 -1.46796 -6.55668 0
M  V30 4931 N 452.299 1.55045 -0.282633 0
M  V30 4932 C 453.231 2.2023 0.634924 0
M  V30 4933 C 454.244 1.18931 1.11172 0
M  V30 4934 O 455.433 1.4562 1.03233 0
M  V30 4935 C 452.533 2.82041 1.87899 0
M  V30 4936 C 451.706 4.091 1.54776 0
M  V30 4937 C 450.765 4.54887 2.64507 0
M  V30 4938 O 449.791 5.20496 2.30375 0
M  V30 4939 N 450.993 4.25659 3.94709 0
M  V30 4940 H 453.758 2.99601 0.0769811 0
M  V30 4941 H 451.319 1.61565 -0.104048 0
M  V30 4942 H 453.311 3.09613 2.60619 0
M  V30 4943 H 451.881 2.06618 2.3458 0
M  V30 4944 H 451.101 3.88736 0.654049 0
M  V30 4945 H 452.389 4.9187 1.30158 0
M  V30 4946 H 451.787 3.7306 4.25256 0
M  V30 4947 H 450.344 4.57984 4.63782 0
M  V30 4948 N 453.777 0.010035 1.57597 0
M  V30 4949 C 455.188 -0.531426 1.78977 0
M  V30 4950 C 455.539 -1.73375 0.918454 0
M  V30 4951 O 454.664 -2.16047 0.123635 0
M  V30 4952 C 455.259 -0.97086 3.24592 0
M  V30 4953 C 453.818 -1.45756 3.47033 0
M  V30 4954 C 452.965 -0.413384 2.74201 0
M  V30 4955 H 455.916 0.236166 1.56933 0
M  V30 4956 H 455.937 -1.83633 3.33255 0
M  V30 4957 H 455.449 -0.0955893 3.87982 0
M  V30 4958 H 453.55 -2.35339 2.88871 0
M  V30 4959 H 453.663 -1.4781 4.55729 0
M  V30 4960 H 452.027 -0.877266 2.39115 0
M  V30 4961 H 452.81 0.453092 3.40297 0
M  V30 4962 N 455.255 -1.55392 -0.262866 0
M  V30 4963 C 456.187 -1.85392 -1.34768 0
M  V30 4964 C 457.2 -0.739069 -1.45057 0
M  V30 4965 O 458.389 -1.01703 -1.46693 0
M  V30 4966 C 455.489 -2.01088 -2.72795 0
M  V30 4967 C 454.662 -3.31828 -2.84972 0
M  V30 4968 C 453.721 -3.37464 -4.03738 0
M  V30 4969 O 452.747 -4.10778 -3.94018 0
M  V30 4970 N 453.949 -2.65599 -5.16176 0
M  V30 4971 H 456.714 -2.79029 -1.09375 0
M  V30 4972 H 454.275 -1.55434 -0.452981 0
M  V30 4973 H 456.267 -2.02217 -3.50557 0
M  V30 4974 H 454.837 -1.1427 -2.90966 0
M  V30 4975 H 454.057 -3.43152 -1.94012 0
M  V30 4976 H 455.345 -4.18032 -2.90045 0
M  V30 4977 H 454.743 -2.05736 -5.26962 0
M  V30 4978 H 453.3 -2.72439 -5.92132 0
M  V30 4979 N 456.733 0.527833 -1.48498 0
M  V30 4980 C 457.68 1.6322 -1.6318 0
M  V30 4981 C 458.65 1.59199 -0.473815 0
M  V30 4982 O 459.835 1.77591 -0.697563 0
M  V30 4983 C 456.975 3.01474 -1.67951 0
M  V30 4984 C 456.088 3.15713 -2.94871 0
M  V30 4985 C 455.223 4.44539 -2.90789 0
M  V30 4986 C 454.262 4.52315 -4.12404 0
M  V30 4987 N 453.399 5.72533 -4.06387 0
M  V30 4988 H 458.239 1.50011 -2.57489 0
M  V30 4989 H 455.776 0.730298 -1.27691 0
M  V30 4990 H 457.734 3.81572 -1.68698 0
M  V30 4991 H 456.364 3.1345 -0.771306 0
M  V30 4992 H 455.416 2.28854 -3.03859 0
M  V30 4993 H 456.728 3.1732 -3.8485 0
M  V30 4994 H 455.882 5.3293 -2.89949 0
M  V30 4995 H 454.621 4.45457 -1.98542 0
M  V30 4996 H 453.626 3.62331 -4.13517 0
M  V30 4997 H 454.851 4.53134 -5.05812 0
M  V30 4998 H 452.797 5.74344 -3.16962 0
M  V30 4999 H 452.714 5.75643 -4.90073 0
M  V30 5000 H 453.982 6.63204 -4.0961 0
M  V30 5001 N 458.211 1.37122 0.776871 0
M  V30 5002 C 459.627 1.1781 1.07671 0
M  V30 5003 C 459.827 0.0107454 2.01497 0
M  V30 5004 O 458.883 -0.650756 2.4397 0
M  V30 5005 C 460.196 2.49451 1.67913 0
M  V30 5006 C 461.744 2.55927 1.80195 0
M  V30 5007 C 462.219 3.87686 2.43851 0
M  V30 5008 N 463.71 3.891 2.51307 0
M  V30 5009 C 464.445 4.87797 3.014 0
M  V30 5010 N 463.941 5.96888 3.51705 0
M  V30 5011 N 465.734 4.75205 3.00227 0
M  V30 5012 H 457.885 2.11843 0.153778 0
M  V30 5013 H 460.148 0.938927 0.130844 0
M  V30 5014 H 459.854 3.35207 1.06439 0
M  V30 5015 H 459.728 2.66169 2.67271 0
M  V30 5016 H 462.115 1.70582 2.40803 0
M  V30 5017 H 462.196 2.43097 0.796069 0
M  V30 5018 H 461.84 4.73444 1.83884 0
M  V30 5019 H 461.77 3.97817 3.45035 0
M  V30 5020 H 464.261 3.10293 2.157 0
M  V30 5021 H 464.574 6.68155 3.88316 0
M  V30 5022 H 462.919 6.0054 3.49824 0
M  V30 5023 H 466.11 3.89103 2.60224 0
M  V30 5024 H 466.283 5.52279 3.38957 0
M  V30 5025 N 459.689 -1.00246 1.21608 0
M  V30 5026 C 461.1 -1.55511 1.03312 0
M  V30 5027 C 461.451 -1.91946 -0.406332 0
M  V30 5028 O 460.576 -1.73753 -1.28992 0
M  V30 5029 C 461.171 -2.82576 1.86913 0
M  V30 5030 C 459.73 -3.34318 1.72941 0
M  V30 5031 C 458.877 -2.07487 1.83968 0
M  V30 5032 H 461.828 -0.824638 1.35593 0
M  V30 5033 H 461.849 -3.54559 1.38087 0
M  V30 5034 H 461.361 -2.56026 2.91672 0
M  V30 5035 H 459.462 -3.65797 0.70877 0
M  V30 5036 H 459.575 -4.05566 2.55055 0
M  V30 5037 H 457.939 -2.20603 1.27304 0
M  V30 5038 H 458.722 -1.83346 2.9024 0
M  V30 5039 N 461.167 -1.02423 -1.1978 0
M  V30 5040 C 462.578 -0.748389 -1.71044 0
M  V30 5041 C 462.929 0.732398 -1.82017 0
M  V30 5042 O 462.054 1.57116 -1.48807 0
M  V30 5043 C 462.649 -1.35187 -3.1066 0
M  V30 5044 C 461.208 -1.12472 -3.59203 0
M  V30 5045 C 460.355 -1.45283 -2.36195 0
M  V30 5046 H 463.306 -1.19275 -1.04686 0
M  V30 5047 H 463.327 -0.746408 -3.73107 0
M  V30 5048 H 462.839 -2.4296 -3.02642 0
M  V30 5049 H 460.94 -0.0649983 -3.72543 0
M  V30 5050 H 461.053 -1.81016 -4.43588 0
M  V30 5051 H 459.417 -0.872034 -2.39307 0
M  V30 5052 H 460.2 -2.54129 -2.30811 0
M  V30 5053 N 462.645 1.35699 -0.801477 0
M  V30 5054 C 463.608 2.28199 -0.213994 0
M  V30 5055 C 464.608 1.49359 0.595691 0
M  V30 5056 O 465.798 1.69186 0.414921 0
M  V30 5057 C 462.93 3.33587 0.702297 0
M  V30 5058 H 464.123 2.81666 -1.02976 0
M  V30 5059 H 461.676 1.45467 -0.571759 0
M  V30 5060 H 462.411 2.85297 1.54195 0
M  V30 5061 H 462.196 3.91906 0.123484 0
M  V30 5062 H 463.686 4.02638 1.10783 0
M  V30 5063 N 464.123 0.554532 1.47522 0
M  V30 5064 C 465.534 0.120446 1.86311 0
M  V30 5065 C 465.885 -1.30904 1.46145 0
M  V30 5066 O 465.01 -1.98434 0.863294 0
M  V30 5067 C 465.605 0.211808 3.38137 0
M  V30 5068 C 464.164 -0.167224 3.76028 0
M  V30 5069 C 463.311 0.560576 2.71575 0
M  V30 5070 H 466.262 0.764408 1.39077 0
M  V30 5071 H 466.283 -0.570275 3.76202 0
M  V30 5072 H 465.795 1.25232 3.6734 0
M  V30 5073 H 463.896 -1.20894 3.52442 0
M  V30 5074 H 464.009 0.189473 4.78725 0
M  V30 5075 H 462.373 0.00396836 2.547 0
M  V30 5076 H 463.156 1.60219 3.0362 0
M  V30 5077 N 465.601 -1.54893 0.290851 0
M  V30 5078 C 466.826 -2.04804 -0.32712 0
M  V30 5079 C 467.251 -1.16721 -1.47506 0
M  V30 5080 O 466.609 -0.169107 -1.8051 0
M  V30 5081 C 466.657 -3.52268 -0.770689 0
M  V30 5082 O 465.761 -3.67236 -1.87647 0
M  V30 5083 H 465.102 -0.660789 -0.0652227 0
M  V30 5084 H 467.632 -2.00036 0.429739 0
M  V30 5085 H 467.642 -3.9393 -1.06223 0
M  V30 5086 H 466.317 -4.15843 0.069096 0
M  V30 5087 H 464.894 -3.37479 -1.58626 0
M  V30 5088 N 467.08 -0.0183926 -1.57589 0
M  V30 5089 C 468.328 0.661253 -1.90976 0
M  V30 5090 C 468.649 1.73281 -0.894353 0
M  V30 5091 O 467.919 1.9579 0.0656788 0
M  V30 5092 H 466.499 0.247233 -0.704901 0
M  V30 5093 H 469.161 -0.0636639 -1.94796 0
M  V30 5094 H 468.257 1.12083 -2.9128 0
M  V30 5095 N 468.558 1.5553 0.254621 0
M  V30 5096 C 469.786 1.81046 1.00149 0
M  V30 5097 C 470.201 0.593047 1.79244 0
M  V30 5098 O 469.558 -0.438196 1.77161 0
M  V30 5099 C 469.609 3.04684 1.94551 0
M  V30 5100 O 469.33 4.21725 1.18658 0
M  V30 5101 C 470.831 3.42943 2.80901 0
M  V30 5102 H 468.051 0.602653 0.295044 0
M  V30 5103 H 470.595 2.02576 0.279842 0
M  V30 5104 H 468.75 2.85226 2.62154 0
M  V30 5105 H 469.164 4.91746 1.82445 0
M  V30 5106 H 470.638 4.32576 3.42902 0
M  V30 5107 H 471.115 2.63176 3.51617 0
M  V30 5108 H 471.721 3.64724 2.18762 0
M  V30 5109 N 470.036 -0.519951 1.48776 0
M  V30 5110 C 470.968 -1.63973 1.60142 0
M  V30 5111 C 471.981 -1.55404 0.485117 0
M  V30 5112 O 473.17 -1.61682 0.756391 0
M  V30 5113 C 470.27 -3.02676 1.52449 0
M  V30 5114 C 469.443 -3.36624 2.79291 0
M  V30 5115 C 468.502 -4.54652 2.64912 0
M  V30 5116 O 467.528 -4.57374 3.38818 0
M  V30 5117 N 468.73 -5.53432 1.75195 0
M  V30 5118 H 471.495 -1.54656 2.56713 0
M  V30 5119 H 469.056 -0.707439 1.45626 0
M  V30 5120 H 471.048 -3.79525 1.4051 0
M  V30 5121 H 469.618 -3.06018 0.638125 0
M  V30 5122 H 468.838 -2.48855 3.0572 0
M  V30 5123 H 470.126 -3.56094 3.6342 0
M  V30 5124 H 469.524 -5.54018 1.14371 0
M  V30 5125 H 468.081 -6.29459 1.69189 0
M  V30 5126 N 471.514 -1.37532 -0.769588 0
M  V30 5127 C 472.76 -1.33057 -1.53048 0
M  V30 5128 C 473.093 0.0841865 -1.94017 0
M  V30 5129 O 472.368 1.04198 -1.64235 0
M  V30 5130 C 472.651 -2.27166 -2.79406 0
M  V30 5131 C 472.504 -3.77429 -2.44677 0
M  V30 5132 C 473.823 -2.19683 -3.81349 0
M  V30 5133 H 470.942 -0.484655 -0.555228 0
M  V30 5134 H 473.584 -1.68251 -0.882702 0
M  V30 5135 H 471.734 -1.97283 -3.34682 0
M  V30 5136 H 473.406 -4.17918 -1.953 0
M  V30 5137 H 471.649 -3.95892 -1.77346 0
M  V30 5138 H 472.32 -4.38716 -3.35011 0
M  V30 5139 H 474.796 -2.46029 -3.35573 0
M  V30 5140 H 473.672 -2.87668 -4.67481 0
M  V30 5141 H 473.933 -1.19045 -4.25771 0
M  V30 5142 N 472.992 0.995999 -1.22138 0
M  V30 5143 C 473.942 2.06988 -0.956042 0
M  V30 5144 C 474.926 1.60636 0.0921576 0
M  V30 5145 O 476.118 1.76607 -0.117958 0
M  V30 5146 C 473.247 3.39148 -0.532335 0
M  V30 5147 C 472.333 3.92142 -1.61509 0
M  V30 5148 N 472.724 4.18397 -2.84214 0
M  V30 5149 C 471.022 4.20514 -1.48606 0
M  V30 5150 C 471.723 4.61425 -3.54206 0
M  V30 5151 N 470.699 4.64934 -2.81669 0
M  V30 5152 H 474.501 2.25223 -1.88816 0
M  V30 5153 H 472.015 1.17748 -1.11845 0
M  V30 5154 H 474.012 4.15642 -0.323574 0
M  V30 5155 H 472.672 3.22314 0.392921 0
M  V30 5156 H 473.683 4.06682 -3.20671 0
M  V30 5157 H 470.36 4.12769 -0.626762 0
M  V30 5158 H 471.75 4.90387 -4.59315 0
M  V30 5159 N 474.47 1.03057 1.19235 0
M  V30 5160 C 475.402 0.570932 2.21975 0
M  V30 5161 C 476.415 -0.354088 1.58903 0
M  V30 5162 O 477.604 -0.150211 1.77867 0
M  V30 5163 C 474.704 -0.187152 3.38383 0
M  V30 5164 C 473.877 0.743231 4.31039 0
M  V30 5165 C 472.936 0.0302493 5.26191 0
M  V30 5166 O 471.962 0.657371 5.65391 0
M  V30 5167 N 473.164 -1.23991 5.67104 0
M  V30 5168 H 475.929 1.45456 2.62036 0
M  V30 5169 H 473.49 0.909807 1.33918 0
M  V30 5170 H 475.482 -0.673715 3.99053 0
M  V30 5171 H 474.052 -0.972205 2.97098 0
M  V30 5172 H 473.272 1.40985 3.68126 0
M  V30 5173 H 474.56 1.3755 4.89854 0
M  V30 5174 H 473.958 -1.77011 5.37293 0
M  V30 5175 H 472.515 -1.67093 6.30018 0
M  V30 5176 N 475.948 -1.35272 0.808662 0
M  V30 5177 C 476.88 -2.28507 0.178149 0
M  V30 5178 C 477.893 -1.50377 -0.623754 0
M  V30 5179 O 479.082 -1.72583 -0.455774 0
M  V30 5180 C 476.182 -3.30038 -0.769959 0
M  V30 5181 C 475.355 -4.37398 -0.0139749 0
M  V30 5182 C 474.414 -5.18775 -0.880875 0
M  V30 5183 O 473.44 -5.68236 -0.331059 0
M  V30 5184 N 474.642 -5.37087 -2.20267 0
M  V30 5185 H 477.407 -2.83255 0.979106 0
M  V30 5186 H 474.968 -1.47643 0.664308 0
M  V30 5187 H 476.96 -3.81371 -1.35418 0
M  V30 5188 H 475.53 -2.75789 -1.47171 0
M  V30 5189 H 474.75 -3.86971 0.751468 0
M  V30 5190 H 476.038 -5.06268 0.506965 0
M  V30 5191 H 475.436 -4.9855 -2.67328 0
M  V30 5192 H 473.993 -5.91593 -2.73608 0
M  V30 5193 N 477.426 -0.562348 -1.47226 0
M  V30 5194 C 478.373 0.182461 -2.30078 0
M  V30 5195 C 479.343 0.903503 -1.39377 0
M  V30 5196 O 480.528 0.898188 -1.68337 0
M  V30 5197 C 477.668 1.20322 -3.23445 0
M  V30 5198 C 476.781 0.487717 -4.29238 0
M  V30 5199 C 475.916 1.49422 -5.09752 0
M  V30 5200 C 474.955 0.763976 -6.07314 0
M  V30 5201 N 474.092 1.71755 -6.80768 0
M  V30 5202 H 478.932 -0.530169 -2.93246 0
M  V30 5203 H 476.469 -0.273276 -1.44539 0
M  V30 5204 H 478.427 1.80768 -3.76004 0
M  V30 5205 H 477.057 1.88382 -2.6213 0
M  V30 5206 H 476.109 -0.231374 -3.79696 0
M  V30 5207 H 477.421 -0.0841003 -4.98729 0
M  V30 5208 H 476.575 2.17206 -5.66486 0
M  V30 5209 H 475.314 2.09995 -4.40174 0
M  V30 5210 H 474.319 0.0722344 -5.49753 0
M  V30 5211 H 475.544 0.16391 -6.78902 0
M  V30 5212 H 473.49 2.31177 -6.13916 0
M  V30 5213 H 473.407 1.19802 -7.46447 0
M  V30 5214 H 474.675 2.38638 -7.42073 0
M  V30 5215 N 478.904 1.54736 -0.299062 0
M  V30 5216 C 480.152 1.99706 0.31017 0
M  V30 5217 C 480.473 1.18896 1.54559 0
M  V30 5218 O 479.743 0.284445 1.93824 0
M  V30 5219 H 478.323 0.737686 0.117596 0
M  V30 5220 H 480.985 1.9054 -0.409943 0
M  V30 5221 H 480.081 3.06596 0.58355 0
M  V30 5222 N 480.382 0.0267497 1.57577 0
M  V30 5223 C 481.793 -0.512413 1.79531 0
M  V30 5224 C 482.144 -1.72391 0.936791 0
M  V30 5225 O 481.269 -2.15903 0.146543 0
M  V30 5226 C 481.864 -0.936378 3.25603 0
M  V30 5227 C 480.423 -1.42067 3.4856 0
M  V30 5228 C 479.57 -0.384278 2.74624 0
M  V30 5229 H 482.521 0.252797 1.56674 0
M  V30 5230 H 482.542 -1.80088 3.35184 0
M  V30 5231 H 482.054 -0.0544332 3.88062 0
M  V30 5232 H 480.155 -2.32262 2.9135 0
M  V30 5233 H 480.268 -1.42968 4.57271 0
M  V30 5234 H 478.632 -0.851855 2.40032 0
M  V30 5235 H 479.415 0.489159 3.39797 0
M  V30 5236 N 481.861 -1.55662 -0.24637 0
M  V30 5237 C 483.272 -1.67953 -0.81539 0
M  V30 5238 C 483.623 -0.624302 -1.86002 0
M  V30 5239 O 482.748 0.229328 -2.15181 0
M  V30 5240 C 483.343 -3.04484 -1.48576 0
M  V30 5241 C 481.902 -3.18713 -2.00248 0
M  V30 5242 C 481.049 -2.6383 -0.853766 0
M  V30 5243 H 484 -1.58685 -0.0221692 0
M  V30 5244 H 484.021 -2.98959 -2.3538 0
M  V30 5245 H 483.533 -3.81264 -0.725222 0
M  V30 5246 H 481.634 -2.46757 -2.79181 0
M  V30 5247 H 481.747 -4.25628 -2.1995 0
M  V30 5248 H 480.111 -2.21667 -1.25442 0
M  V30 5249 H 480.894 -3.43135 -0.106302 0
M  V30 5250 N 483.339 0.512053 -1.4905 0
M  V30 5251 C 484.269 1.62365 -1.67809 0
M  V30 5252 C 485.25 1.61737 -0.526809 0
M  V30 5253 O 486.435 1.78651 -0.761404 0
M  V30 5254 C 483.565 3.00895 -1.73435 0
M  V30 5255 C 482.519 3.16387 -2.88242 0
M  V30 5256 C 481.845 4.56157 -2.78971 0
M  V30 5257 C 483.145 2.97457 -4.29321 0
M  V30 5258 H 484.839 1.46921 -2.60873 0
M  V30 5259 H 482.385 0.705379 -1.2554 0
M  V30 5260 H 484.338 3.78549 -1.85145 0
M  V30 5261 H 483.062 3.17403 -0.769619 0
M  V30 5262 H 481.721 2.41155 -2.76116 0
M  V30 5263 H 481.369 4.69525 -1.8043 0
M  V30 5264 H 481.069 4.67465 -3.5602 0
M  V30 5265 H 482.593 5.35886 -2.92675 0
M  V30 5266 H 484.007 3.64888 -4.42187 0
M  V30 5267 H 482.404 3.20245 -5.07507 0
M  V30 5268 H 483.474 1.93692 -4.44535 0
M  V30 5269 N 484.817 1.37938 0.762283 0
M  V30 5270 C 486.228 1.30094 1.33912 0
M  V30 5271 C 486.579 -0.0472026 1.96143 0
M  V30 5272 O 485.704 -0.94917 1.94473 0
M  V30 5273 C 486.299 2.35592 2.43478 0
M  V30 5274 C 484.858 2.31353 2.96905 0
M  V30 5275 C 484.005 2.18919 1.70205 0
M  V30 5276 H 486.956 1.48423 0.561816 0
M  V30 5277 H 486.977 2.00806 3.23199 0
M  V30 5278 H 486.489 3.33701 1.98155 0
M  V30 5279 H 484.59 1.36799 3.46579 0
M  V30 5280 H 484.703 3.25147 3.51875 0
M  V30 5281 H 483.067 1.65624 1.93496 0
M  V30 5282 H 483.85 3.18956 1.26973 0
M  V30 5283 N 486.295 -0.989507 1.22664 0
M  V30 5284 C 487.711 -1.25395 0.987331 0
M  V30 5285 C 487.911 -1.9899 -0.317056 0
M  V30 5286 O 486.967 -2.30141 -1.03882 0
M  V30 5287 C 488.28 -2.06242 2.18826 0
M  V30 5288 C 489.828 -2.19413 2.23219 0
M  V30 5289 C 490.303 -3.03648 3.42873 0
M  V30 5290 N 491.794 -3.11234 3.43056 0
M  V30 5291 C 492.529 -3.7671 4.32293 0
M  V30 5292 N 492.025 -4.44085 5.31752 0
M  V30 5293 N 493.818 -3.73505 4.2006 0
M  V30 5294 H 485.969 -0.496212 2.06522 0
M  V30 5295 H 488.232 -0.281784 0.905153 0
M  V30 5296 H 487.938 -1.59531 3.13437 0
M  V30 5297 H 487.812 -3.06996 2.19165 0
M  V30 5298 H 490.199 -2.65336 1.29154 0
M  V30 5299 H 490.28 -1.18078 2.26917 0
M  V30 5300 H 489.924 -2.58424 4.37241 0
M  V30 5301 H 489.854 -4.05132 3.36416 0
M  V30 5302 H 492.345 -2.63287 2.71088 0
M  V30 5303 H 492.658 -4.91797 5.96117 0
M  V30 5304 H 491.003 -4.42822 5.35662 0
M  V30 5305 H 494.194 -3.20033 3.41609 0
M  V30 5306 H 494.367 -4.24253 4.8981 0
M  V30 5307 N 487.773 -1.03688 -1.18687 0
M  V30 5308 C 489.184 -0.766488 -1.70241 0
M  V30 5309 C 489.535 0.713052 -1.82784 0
M  V30 5310 O 488.66 1.55529 -1.50465 0
M  V30 5311 C 489.255 -1.38475 -3.09209 0
M  V30 5312 C 487.814 -1.16276 -3.5799 0
M  V30 5313 C 486.961 -1.4778 -2.34641 0
M  V30 5314 H 489.912 -1.20378 -1.03415 0
M  V30 5315 H 489.933 -0.785939 -3.72295 0
M  V30 5316 H 489.445 -2.46157 -3.00048 0
M  V30 5317 H 487.546 -0.104508 -3.72453 0
M  V30 5318 H 487.659 -1.8571 -4.41643 0
M  V30 5319 H 486.023 -0.897366 -2.38368 0
M  V30 5320 H 486.806 -2.56562 -2.28102 0
M  V30 5321 N 489.251 1.34841 -0.815825 0
M  V30 5322 C 490.667 1.51543 -0.500697 0
M  V30 5323 C 490.867 1.76261 0.976444 0
M  V30 5324 O 489.923 1.8094 1.76117 0
M  V30 5325 C 491.236 2.68487 -1.35407 0
M  V30 5326 C 492.784 2.82368 -1.35046 0
M  V30 5327 C 493.259 4.02347 -2.18816 0
M  V30 5328 N 494.75 4.09542 -2.16402 0
M  V30 5329 C 495.485 5.01517 -2.77971 0
M  V30 5330 N 494.981 5.98763 -3.48503 0
M  V30 5331 N 496.774 4.94334 -2.67563 0
M  V30 5332 H 488.925 1.17055 -1.77234 0
M  V30 5333 H 491.188 0.573481 -0.754866 0
M  V30 5334 H 490.894 2.56829 -2.40274 0
M  V30 5335 H 490.768 3.63321 -1.01377 0
M  V30 5336 H 493.155 2.93471 -0.309604 0
M  V30 5337 H 493.236 1.88363 -1.73069 0
M  V30 5338 H 492.88 3.92004 -3.22948 0
M  V30 5339 H 492.81 4.95551 -1.78148 0
M  V30 5340 H 495.301 3.39932 -1.65091 0
M  V30 5341 H 495.614 6.6556 -3.92747 0
M  V30 5342 H 493.959 5.98909 -3.52609 0
M  V30 5343 H 497.15 4.1732 -2.12041 0
M  V30 5344 H 497.323 5.6582 -3.15834 0
M  V30 5345 N 490.729 0.570148 1.46925 0
M  V30 5346 C 491.975 0.0510284 2.02736 0
M  V30 5347 C 492.308 -1.3006 1.44215 0
M  V30 5348 O 491.583 -1.84932 0.602521 0
M  V30 5349 C 491.866 -0.028215 3.60089 0
M  V30 5350 C 491.719 1.35142 4.29018 0
M  V30 5351 C 493.038 -0.735181 4.33916 0
M  V30 5352 H 490.157 0.0200178 0.736728 0
M  V30 5353 H 492.799 0.73493 1.75211 0
M  V30 5354 H 490.949 -0.610648 3.83671 0
M  V30 5355 H 492.621 1.97806 4.16738 0
M  V30 5356 H 490.864 1.9226 3.88868 0
M  V30 5357 H 491.535 1.24857 5.37694 0
M  V30 5358 H 494.011 -0.240519 4.15404 0
M  V30 5359 H 492.887 -0.759622 5.43618 0
M  V30 5360 H 493.148 -1.79397 4.04066 0
M  V30 5361 N 492.207 -1.54576 0.307264 0
M  V30 5362 C 493.139 -2.21212 -0.599807 0
M  V30 5363 C 494.152 -1.20685 -1.09266 0
M  V30 5364 O 495.341 -1.47244 -1.00903 0
M  V30 5365 C 492.441 -2.84994 -1.83389 0
M  V30 5366 C 491.614 -4.11511 -1.48248 0
M  V30 5367 C 490.673 -4.59038 -2.57237 0
M  V30 5368 O 489.699 -5.24095 -2.22065 0
M  V30 5369 N 490.901 -4.31884 -3.87887 0
M  V30 5370 H 493.666 -2.99686 -0.0293075 0
M  V30 5371 H 491.227 -1.61379 0.129738 0
M  V30 5372 H 493.219 -3.1372 -2.5566 0
M  V30 5373 H 491.789 -2.10324 -2.31263 0
M  V30 5374 H 491.009 -3.89728 -0.592122 0
M  V30 5375 H 492.297 -4.93879 -1.22316 0
M  V30 5376 H 491.695 -3.79778 -4.19268 0
M  V30 5377 H 490.252 -4.65304 -4.56438 0
M  V30 5378 N 493.685 -0.035106 -1.57561 0
M  V30 5379 C 495.096 0.502885 -1.798 0
M  V30 5380 C 495.447 1.71892 -0.945921 0
M  V30 5381 O 494.572 2.15822 -0.157991 0
M  V30 5382 C 495.167 0.919097 -3.26095 0
M  V30 5383 C 493.726 1.40216 -3.49308 0
M  V30 5384 C 492.873 0.369709 -2.74824 0
M  V30 5385 H 495.824 -0.261102 -1.56537 0
M  V30 5386 H 495.845 1.78308 -3.36135 0
M  V30 5387 H 495.357 0.0338526 -3.88085 0
M  V30 5388 H 493.458 2.30714 -2.92578 0
M  V30 5389 H 493.571 1.40541 -4.58023 0
M  V30 5390 H 491.935 0.839113 -2.40481 0
M  V30 5391 H 492.718 -0.507173 -3.39533 0
M  V30 5392 N 495.163 1.55791 0.238111 0
M  V30 5393 C 496.11 1.9105 1.29493 0
M  V30 5394 C 497.08 0.765733 1.47397 0
M  V30 5395 O 498.265 1.02017 1.61236 0
M  V30 5396 C 495.405 2.21826 2.64362 0
M  V30 5397 C 494.518 3.49153 2.54394 0
M  V30 5398 C 493.653 3.69455 3.81676 0
M  V30 5399 C 492.692 4.90353 3.66361 0
M  V30 5400 N 491.829 5.07131 4.85554 0
M  V30 5401 H 496.669 2.81172 0.987233 0
M  V30 5402 H 494.206 1.39179 0.476203 0
M  V30 5403 H 496.164 2.37675 3.4288 0
M  V30 5404 H 494.794 1.34897 2.93262 0
M  V30 5405 H 493.846 3.41587 1.67399 0
M  V30 5406 H 495.158 4.37818 2.38991 0
M  V30 5407 H 494.312 3.85311 4.68636 0
M  V30 5408 H 493.051 2.7904 3.99985 0
M  V30 5409 H 492.056 4.74464 2.77784 0
M  V30 5410 H 493.281 5.82237 3.49538 0
M  V30 5411 H 491.227 4.19654 5.04209 0
M  V30 5412 H 491.144 5.89899 4.72816 0
M  V30 5413 H 492.412 5.27407 5.73988 0
M  V30 5414 N 496.642 -0.504142 1.49319 0
M  V30 5415 C 498.053 -1.08572 1.51885 0
M  V30 5416 C 498.404 -1.93842 0.303255 0
M  V30 5417 O 497.529 -2.0828 -0.58724 0
M  V30 5418 C 498.124 -1.97574 2.75227 0
M  V30 5419 C 496.683 -2.509 2.80581 0
M  V30 5420 C 495.83 -1.28447 2.45757 0
M  V30 5421 H 498.781 -0.288194 1.56061 0
M  V30 5422 H 498.802 -2.82219 2.55211 0
M  V30 5423 H 498.314 -1.35486 3.63683 0
M  V30 5424 H 496.415 -3.16636 1.96398 0
M  V30 5425 H 496.528 -2.88268 3.82673 0
M  V30 5426 H 494.892 -1.60868 1.97468 0
M  V30 5427 H 495.675 -0.68072 3.36483 0
M  V30 5428 N 498.12 -1.38341 -0.754957 0
M  V30 5429 C 499.531 -1.30803 -1.3322 0
M  V30 5430 C 499.882 0.0368 -1.96165 0
M  V30 5431 O 499.007 0.938844 -1.94974 0
M  V30 5432 C 499.602 -2.3688 -2.42225 0
M  V30 5433 C 498.161 -2.32925 -2.95674 0
M  V30 5434 C 497.308 -2.19819 -1.69042 0
M  V30 5435 H 500.259 -1.48719 -0.553937 0
M  V30 5436 H 500.28 -2.02517 -3.22129 0
M  V30 5437 H 499.792 -3.34747 -1.96383 0
M  V30 5438 H 497.893 -1.38635 -3.45848 0
M  V30 5439 H 498.006 -3.27008 -3.50146 0
M  V30 5440 H 496.37 -1.66648 -1.92615 0
M  V30 5441 H 497.153 -3.19625 -1.25279 0
M  V30 5442 N 499.598 0.982988 -1.23187 0
M  V30 5443 C 500.548 2.05962 -0.977942 0
M  V30 5444 C 501.532 1.60725 0.0751148 0
M  V30 5445 O 502.724 1.76471 -0.136683 0
M  V30 5446 C 499.853 3.38564 -0.568276 0
M  V30 5447 C 498.939 3.90407 -1.6566 0
M  V30 5448 N 499.33 4.15359 -2.88635 0
M  V30 5449 C 497.628 4.18915 -1.53058 0
M  V30 5450 C 498.329 4.57642 -3.5908 0
M  V30 5451 N 497.305 4.6192 -2.86584 0
M  V30 5452 H 501.107 2.23208 -1.91195 0
M  V30 5453 H 498.621 1.16555 -1.13087 0
M  V30 5454 H 500.618 4.15276 -0.36764 0
M  V30 5455 H 499.278 3.22712 0.358713 0
M  V30 5456 H 500.289 4.03258 -3.24966 0
M  V30 5457 H 496.966 4.12081 -0.670506 0
M  V30 5458 H 498.356 4.85488 -4.6449 0
M  V30 5459 N 501.076 1.04316 1.18135 0
M  V30 5460 C 502.324 0.746542 1.87806 0
M  V30 5461 C 502.645 -0.728082 1.80898 0
M  V30 5462 O 501.915 -1.52554 1.22899 0
M  V30 5463 H 500.495 0.273157 0.695265 0
M  V30 5464 H 503.157 1.32044 1.43354 0
M  V30 5465 H 502.253 1.05362 2.93778 0
M  V30 5466 N 502.554 -1.34406 0.822964 0
M  V30 5467 C 503.517 -2.2783 0.250271 0
M  V30 5468 C 504.517 -1.50288 -0.571854 0
M  V30 5469 O 505.707 -1.69825 -0.387952 0
M  V30 5470 C 502.839 -3.34663 -0.649137 0
M  V30 5471 H 504.032 -2.79992 1.07444 0
M  V30 5472 H 501.585 -1.44539 0.594829 0
M  V30 5473 H 502.32 -2.87714 -1.49637 0
M  V30 5474 H 502.105 -3.92052 -0.0611199 0
M  V30 5475 H 503.595 -4.04349 -1.04363 0
M  V30 5476 N 504.032 -0.577932 -1.46621 0
M  V30 5477 C 504.995 0.147805 -2.28723 0
M  V30 5478 C 505.995 0.823325 -1.38123 0
M  V30 5479 O 507.185 0.676011 -1.60548 0
M  V30 5480 C 504.317 1.21853 -3.18378 0
M  V30 5481 H 505.51 -0.573654 -2.94362 0
M  V30 5482 H 503.063 -0.335703 -1.52652 0
M  V30 5483 H 503.798 1.97173 -2.57475 0
M  V30 5484 H 503.583 0.738714 -3.85078 0
M  V30 5485 H 505.073 1.72768 -3.80186 0
M  V30 5486 N 505.51 1.54411 -0.315457 0
M  V30 5487 C 506.42 2.27737 0.56329 0
M  V30 5488 C 507.436 1.31787 1.13614 0
M  V30 5489 O 508.612 1.64791 1.15784 0
M  V30 5490 C 505.677 3.01478 1.71207 0
M  V30 5491 C 504.738 4.12997 1.17185 0
M  V30 5492 C 503.971 4.83212 2.26588 0
M  V30 5493 O 504.194 4.52884 3.46775 0
M  V30 5494 O 503.128 5.70299 1.92463 0
M  V30 5495 H 506.954 3.03683 -0.0319614 0
M  V30 5496 H 504.539 1.49178 -0.0814188 0
M  V30 5497 H 506.421 3.47683 2.38106 0
M  V30 5498 H 505.096 2.28414 2.29366 0
M  V30 5499 H 504.003 3.71159 0.468174 0
M  V30 5500 H 505.336 4.8808 0.635501 0
M  V30 5501 N 506.988 0.0434614 1.5754 0
M  V30 5502 C 507.936 -0.951465 2.1225 0
M  V30 5503 C 508.93 -1.3274 1.05245 0
M  V30 5504 O 510.136 -1.30795 1.23663 0
M  V30 5505 H 506.511 -0.324667 0.678303 0
M  V30 5506 H 508.482 -0.464855 2.94757 0
M  V30 5507 C 507.231 -2.21972 2.67626 0
M  V30 5508 H 506.554 -1.93923 3.4962 0
M  V30 5509 H 507.994 -2.89765 3.09536 0
M  V30 5510 C 506.453 -2.95919 1.61038 0
M  V30 5511 O 506.983 -3.8857 1.01862 0
M  V30 5512 N 505.189 -2.58511 1.32741 0
M  V30 5513 H 504.736 -1.83244 1.81051 0
M  V30 5514 H 504.694 -3.08296 0.616531 0
M  V30 5515 N 508.466 -1.55915 -0.229846 0
M  V30 5516 C 509.691 -1.8296 -0.976743 0
M  V30 5517 C 510.116 -0.622735 -1.77493 0
M  V30 5518 O 509.474 0.428431 -1.76165 0
M  V30 5519 C 509.522 -3.07916 -1.8767 0
M  V30 5520 O 508.626 -2.86028 -2.97088 0
M  V30 5521 H 507.967 -0.603453 -0.277021 0
M  V30 5522 H 510.497 -2.0312 -0.245669 0
M  V30 5523 H 510.507 -3.37802 -2.2881 0
M  V30 5524 H 509.182 -3.95389 -1.28996 0
M  V30 5525 H 507.759 -2.67355 -2.59954 0
M  V30 5526 N 509.944 0.496216 -1.49584 0
M  V30 5527 C 510.874 1.60576 -1.69521 0
M  V30 5528 C 511.855 1.61169 -0.543933 0
M  V30 5529 O 513.04 1.77834 -0.78031 0
M  V30 5530 C 510.17 2.99038 -1.76616 0
M  V30 5531 C 509.124 3.13312 -2.91581 0
M  V30 5532 C 508.45 4.53172 -2.83794 0
M  V30 5533 C 509.75 2.92886 -4.32452 0
M  V30 5534 H 511.444 1.44146 -2.62416 0
M  V30 5535 H 508.99 0.692024 -1.26282 0
M  V30 5536 H 510.943 3.76564 -1.8915 0
M  V30 5537 H 509.667 3.16568 -0.80324 0
M  V30 5538 H 508.326 2.38213 -2.78658 0
M  V30 5539 H 507.974 4.67585 -1.854 0
M  V30 5540 H 507.674 4.63662 -3.60958 0
M  V30 5541 H 509.198 5.32752 -2.98342 0
M  V30 5542 H 510.612 3.60178 -4.46032 0
M  V30 5543 H 509.009 3.14844 -5.10875 0
M  V30 5544 H 510.079 1.88966 -4.46565 0
M  V30 5545 N 511.423 1.38739 0.74761 0
M  V30 5546 C 512.648 1.38702 1.54197 0
M  V30 5547 C 513.073 -0.019664 1.8809 0
M  V30 5548 O 512.431 -1.00333 1.51006 0
M  V30 5549 C 512.479 2.25492 2.814 0
M  V30 5550 O 511.583 1.67613 3.76802 0
M  V30 5551 H 510.924 0.472863 0.466151 0
M  V30 5552 H 513.454 1.82577 0.923413 0
M  V30 5553 H 513.464 2.39561 3.30264 0
M  V30 5554 H 512.139 3.27727 2.56062 0
M  V30 5555 H 510.716 1.62718 3.35526 0
M  V30 5556 N 512.901 -0.976442 1.23707 0
M  V30 5557 C 514.312 -1.53284 1.06587 0
M  V30 5558 C 514.663 -1.92765 -0.365526 0
M  V30 5559 O 513.788 -1.7645 -1.25277 0
M  V30 5560 C 514.383 -2.78548 1.92864 0
M  V30 5561 C 512.942 -3.30574 1.79994 0
M  V30 5562 C 512.089 -2.03538 1.88328 0
M  V30 5563 H 515.04 -0.795692 1.37311 0
M  V30 5564 H 515.061 -3.5155 1.45577 0
M  V30 5565 H 514.573 -2.49782 2.97037 0
M  V30 5566 H 512.674 -3.64211 0.786202 0
M  V30 5567 H 512.787 -4.00065 2.636 0
M  V30 5568 H 511.151 -2.17853 1.31954 0
M  V30 5569 H 511.934 -1.77149 2.94063 0
M  V30 5570 N 514.379 -1.04941 -1.1758 0
M  V30 5571 C 515.604 -0.778253 -1.92245 0
M  V30 5572 C 516.029 0.659707 -1.76152 0
M  V30 5573 O 515.387 1.45803 -1.07755 0
M  V30 5574 C 515.435 -1.16051 -3.41416 0
M  V30 5575 O 514.539 -0.291153 -4.11371 0
M  V30 5576 H 513.88 -0.285619 -0.599431 0
M  V30 5577 H 516.41 -1.40159 -1.49052 0
M  V30 5578 H 516.42 -1.12619 -3.92149 0
M  V30 5579 H 515.095 -2.208 -3.52449 0
M  V30 5580 H 513.672 -0.385851 -3.70898 0
M  V30 5581 N 515.857 1.33968 -0.830081 0
M  V30 5582 C 517.082 2.02813 -0.433796 0
M  V30 5583 C 517.507 1.62076 0.954614 0
M  V30 5584 O 516.865 0.808955 1.62252 0
M  V30 5585 C 516.913 3.56348 -0.552115 0
M  V30 5586 O 516.017 4.10202 0.425191 0
M  V30 5587 H 515.358 0.639817 -0.177567 0
M  V30 5588 H 517.888 1.7106 -1.12248 0
M  V30 5589 H 517.898 4.05722 -0.430513 0
M  V30 5590 H 516.573 3.85344 -1.56471 0
M  V30 5591 H 515.15 3.71979 0.261878 0
M  V30 5592 N 517.335 0.585699 1.46312 0
M  V30 5593 C 518.283 -0.158577 2.32059 0
M  V30 5594 C 519.277 -0.881427 1.44662 0
M  V30 5595 O 520.483 -0.799476 1.61271 0
M  V30 5596 H 516.858 -0.0700066 0.748734 0
M  V30 5597 H 518.829 0.583383 2.92642 0
M  V30 5598 C 517.578 -1.15701 3.27885 0
M  V30 5599 H 516.901 -0.610215 3.95116 0
M  V30 5600 H 518.341 -1.64812 3.90657 0
M  V30 5601 C 516.8 -2.21951 2.53455 0
M  V30 5602 O 517.33 -3.29352 2.29978 0
M  V30 5603 N 515.536 -1.9664 2.13965 0
M  V30 5604 H 515.083 -1.09309 2.33258 0
M  V30 5605 H 515.041 -2.6794 1.64485 0
M  V30 5606 O 518.852 -1.54637 0.465785 0
M  V30 5607 H 519.543 -1.93604 -0.0608748 0
M  V30 END ATOM
M  V30 BEGIN BOND
M  V30 END BOND
M  V30 END CTAB
M  END
$$$$
