drugbank_target|P53611 Geranylgeranyl transferase type-2 subunit beta (DB04464; DB07780; DB07841)
 OpenBabel12092120463D

  0  0  0     0  0            999 V3000
M  V30 BEGIN CTAB
M  V30 COUNTS 5136 5195 0 0 0
M  V30 BEGIN ATOM
M  V30 1 H -0.908 1.98254 -0.117106 0
M  V30 2 N 0 1.576 0 0
M  V30 3 C 0.933 2.03868 1.02534 0
M  V30 4 C 1.911 0.928543 1.3348 0
M  V30 5 O 3.095 1.19667 1.45644 0
M  V30 6 C 0.222 2.43627 2.35294 0
M  V30 7 C -0.732 3.65373 2.2001 0
M  V30 8 S 0.101 5.13292 1.52614 0
M  V30 9 C 1.257 5.56322 2.86805 0
M  V30 10 H 1.49 2.90518 0.631377 0
M  V30 11 H -0.977 1.52953 0.210867 0
M  V30 12 H 0.981 2.67203 3.11629 0
M  V30 13 H -0.358 1.57376 2.7183 0
M  V30 14 H -1.165 3.90944 3.18086 0
M  V30 15 H -1.563 3.418 1.51819 0
M  V30 16 H 0.729 5.58782 3.83104 0
M  V30 17 H 1.672 6.56266 2.65933 0
M  V30 18 H 2.08 4.83886 2.90714 0
M  V30 19 N 1.4781 -0.272755 1.55222 0
M  V30 20 C 2.7261 -1.00234 1.75492 0
M  V30 21 C 3.0471 -1.8681 0.5592 0
M  V30 22 O 2.3171 -1.91215 -0.425882 0
M  V30 23 H 0.8971 -0.373076 0.647166 0
M  V30 24 H 3.5591 -0.296926 1.92625 0
M  V30 25 H 2.6551 -1.63913 2.65592 0
M  V30 26 N 2.9562 -1.48159 -0.537278 0
M  V30 27 C 4.1842 -1.59454 -1.31841 0
M  V30 28 C 4.5992 -0.252065 -1.8711 0
M  V30 29 O 3.9562 0.757621 -1.66031 0
M  V30 30 C 4.0072 -2.63546 -2.47439 0
M  V30 31 O 3.7282 -3.92583 -1.94449 0
M  V30 32 C 5.2292 -2.85212 -3.39366 0
M  V30 33 H 2.4492 -0.53785 -0.401196 0
M  V30 34 H 4.9932 -1.93932 -0.648891 0
M  V30 35 H 3.1482 -2.31946 -3.1029 0
M  V30 36 H 3.5622 -4.49629 -2.70063 0
M  V30 37 H 5.0362 -3.61863 -4.16844 0
M  V30 38 H 5.5132 -1.93765 -3.94147 0
M  V30 39 H 6.1192 -3.18086 -2.82314 0
M  V30 40 N 4.4343 0.785586 -1.36625 0
M  V30 41 C 5.8453 1.36101 -1.27803 0
M  V30 42 C 6.1963 1.96035 0.0804875 0
M  V30 43 O 5.3213 1.92834 0.982042 0
M  V30 44 C 5.9163 2.47442 -2.31426 0
M  V30 45 C 4.4753 3.00789 -2.26281 0
M  V30 46 C 3.6223 1.73896 -2.15999 0
M  V30 47 H 6.5733 0.586928 -1.47448 0
M  V30 48 H 6.5943 3.2656 -1.95291 0
M  V30 49 H 6.1063 2.03791 -3.30289 0
M  V30 50 H 4.2073 3.48851 -1.30896 0
M  V30 51 H 4.3203 3.57343 -3.19128 0
M  V30 52 H 2.6843 1.9628 -1.62316 0
M  V30 53 H 3.4673 1.32368 -3.16755 0
M  V30 54 N 5.9124 1.20967 1.01018 0
M  V30 55 C 6.8444 0.922059 2.09835 0
M  V30 56 C 7.8574 -0.0927106 1.62536 0
M  V30 57 O 9.0464 0.139127 1.77957 0
M  V30 58 C 6.1464 0.362004 3.36961 0
M  V30 59 C 5.3194 1.42986 4.13369 0
M  V30 60 C 4.3784 0.879976 5.1879 0
M  V30 61 O 3.4044 1.56219 5.47343 0
M  V30 62 N 4.6064 -0.307396 5.79686 0
M  V30 63 H 7.3714 1.8588 2.35093 0
M  V30 64 H 4.9324 1.11422 1.1746 0
M  V30 65 H 6.9244 -0.0201474 4.04695 0
M  V30 66 H 5.4944 -0.479437 3.08902 0
M  V30 67 H 4.7144 1.98608 3.40512 0
M  V30 68 H 6.0024 2.14885 4.61196 0
M  V30 69 H 5.4004 -0.878796 5.58832 0
M  V30 70 H 3.9574 -0.631115 6.48737 0
M  V30 71 N 7.3905 -1.2043 1.01659 0
M  V30 72 C 8.3375 -2.23215 0.586822 0
M  V30 73 C 9.3075 -1.61382 -0.393085 0
M  V30 74 O 10.4925 -1.88544 -0.292525 0
M  V30 75 C 7.6325 -3.45032 -0.0687464 0
M  V30 76 C 6.7455 -4.21296 0.955724 0
M  V30 77 C 5.8805 -5.30507 0.271208 0
M  V30 78 C 4.9195 -5.98515 1.28244 0
M  V30 79 N 4.0565 -6.99316 0.62459 0
M  V30 80 H 8.8965 -2.59336 1.46796 0
M  V30 81 H 6.4335 -1.27431 0.734836 0
M  V30 82 H 8.3915 -4.1459 -0.465965 0
M  V30 83 H 7.0215 -3.09604 -0.913529 0
M  V30 84 H 6.0735 -3.50803 1.4711 0
M  V30 85 H 7.3855 -4.6803 1.72479 0
M  V30 86 H 6.5395 -6.06428 -0.18151 0
M  V30 87 H 5.2785 -4.8481 -0.530163 0
M  V30 88 H 4.2835 -5.21355 1.74554 0
M  V30 89 H 5.5085 -6.46298 2.08509 0
M  V30 90 H 3.4545 -6.55812 -0.156914 0
M  V30 91 H 3.3715 -7.44178 1.33172 0
M  V30 92 H 4.6395 -7.79255 0.195462 0
M  V30 93 N 8.8686 -0.792821 -1.36206 0
M  V30 94 C 10.1456 -0.290627 -1.93429 0
M  V30 95 C 10.5256 1.21773 -1.72437 0
M  V30 96 O 9.8736 2.0108 -1.08531 0
M  V30 97 C 10.0836 -0.686973 -3.42172 0
M  V30 98 C 11.4316 -0.668643 -4.19302 0
M  V30 99 O 12.4556 -0.627658 -3.50626 0
M  V30 100 O 11.3146 -0.714597 -5.41808 0
M  V30 101 H 8.4086 -0.0727927 -0.82379 0
M  V30 102 H 10.9546 -0.875593 -1.45367 0
M  V30 103 H 9.7266 -1.72711 -3.51122 0
M  V30 104 H 9.3496 -0.0760733 -3.97527 0
M  V30 105 N 10.3467 1.47872 -0.545128 0
M  V30 106 C 11.5927 2.02793 -0.0166104 0
M  V30 107 C 11.9257 1.41987 1.32489 0
M  V30 108 O 11.2007 0.571045 1.85928 0
M  V30 109 C 11.4837 3.59989 0.0893294 0
M  V30 110 C 11.3367 4.3125 -1.27841 0
M  V30 111 C 12.6557 4.32606 0.808724 0
M  V30 112 H 9.7747 0.736962 -0.00751035 0
M  V30 113 H 12.4167 1.76433 -0.705085 0
M  V30 114 H 10.5667 3.82579 0.675681 0
M  V30 115 H 12.2387 4.20035 -1.90704 0
M  V30 116 H 10.4817 3.92076 -1.85632 0
M  V30 117 H 11.1527 5.39736 -1.15713 0
M  V30 118 H 13.6287 4.14936 0.310992 0
M  V30 119 H 12.5047 5.42251 0.851782 0
M  V30 120 H 12.7657 4.00963 1.86229 0
M  V30 121 N 11.8248 0.280983 1.55075 0
M  V30 122 C 13.0738 -0.334784 1.98902 0
M  V30 123 C 13.3868 -1.56534 1.17288 0
M  V30 124 O 14.5928 -2.25443 1.51287 0
M  V30 125 C 13.0488 -0.646994 3.54037 0
M  V30 126 C 12.6568 0.564085 4.44435 0
M  V30 127 C 14.4008 -1.22506 4.06439 0
M  V30 128 C 12.3078 0.226137 5.90967 0
M  V30 129 H 11.2378 -0.128866 0.742906 0
M  V30 130 H 13.8888 0.386556 1.79382 0
M  V30 131 H 12.2708 -1.42739 3.6938 0
M  V30 132 H 13.4448 1.34082 4.40861 0
M  V30 133 H 11.7598 1.0594 4.02698 0
M  V30 134 H 14.3568 -1.49182 5.13468 0
M  V30 135 H 14.6998 -2.16085 3.55827 0
M  V30 136 H 15.2328 -0.50682 3.94558 0
M  V30 137 H 11.9718 1.12996 6.45687 0
M  V30 138 H 11.4918 -0.513717 5.97596 0
M  V30 139 H 13.1708 -0.179539 6.46751 0
M  V30 140 N 13.3029 -1.57598 0.00835791 0
M  V30 141 C 14.5519 -1.90107 -0.673968 0
M  V30 142 C 14.8649 -0.884275 -1.7447 0
M  V30 143 O 16.0709 -1.09987 -2.48224 0
M  V30 144 C 14.5269 -3.37497 -1.24995 0
M  V30 145 C 14.1349 -4.47491 -0.2136 0
M  V30 146 C 15.8789 -3.79104 -1.90999 0
M  V30 147 C 13.7859 -5.85963 -0.80005 0
M  V30 148 H 12.7159 -0.709393 -0.255495 0
M  V30 149 H 15.3669 -1.83365 0.0702693 0
M  V30 150 H 13.7489 -3.39102 -2.04513 0
M  V30 151 H 14.9229 -4.57414 0.557596 0
M  V30 152 H 13.2379 -4.14956 0.346474 0
M  V30 153 H 15.8349 -4.79901 -2.35795 0
M  V30 154 H 16.1779 -3.1306 -2.74407 0
M  V30 155 H 16.7109 -3.79833 -1.18203 0
M  V30 156 H 13.4499 -6.555 -0.00456708 0
M  V30 157 H 12.9699 -5.79687 -1.54021 0
M  V30 158 H 14.6489 -6.33884 -1.29615 0
M  V30 159 N 14.781 0.264519 -1.55364 0
M  V30 160 C 15.728 1.32717 -1.88825 0
M  V30 161 C 16.698 1.48675 -0.740605 0
M  V30 162 O 17.883 1.62945 -0.992657 0
M  V30 163 C 15.023 2.68089 -2.17307 0
M  V30 164 C 14.136 2.60284 -3.44785 0
M  V30 165 C 13.271 3.87892 -3.62924 0
M  V30 166 C 12.31 3.74631 -4.84064 0
M  V30 167 N 11.447 4.94092 -4.98816 0
M  V30 168 H 16.287 1.03481 -2.79456 0
M  V30 169 H 13.824 0.499757 -1.3835 0
M  V30 170 H 15.782 3.46864 -2.31821 0
M  V30 171 H 14.412 2.95509 -1.299 0
M  V30 172 H 13.464 1.73173 -3.38697 0
M  V30 173 H 14.776 2.46388 -4.33698 0
M  V30 174 H 13.93 4.75109 -3.77302 0
M  V30 175 H 12.669 4.04664 -2.7221 0
M  V30 176 H 11.674 2.85797 -4.69681 0
M  V30 177 H 12.899 3.5937 -5.76221 0
M  V30 178 H 10.845 5.11259 -4.11036 0
M  V30 179 H 10.762 4.8276 -5.81789 0
M  V30 180 H 12.03 5.82857 -5.17588 0
M  V30 181 N 16.2591 1.48442 0.529413 0
M  V30 182 C 17.4841 1.60406 1.31471 0
M  V30 183 C 17.9091 0.264738 1.86228 0
M  V30 184 O 17.2671 -0.763668 1.64432 0
M  V30 185 C 17.3151 2.65419 2.44101 0
M  V30 186 O 16.4191 2.22618 3.47153 0
M  V30 187 H 15.7601 0.537863 0.389357 0
M  V30 188 H 18.2901 1.94432 0.636965 0
M  V30 189 H 18.3001 2.86709 2.90279 0
M  V30 190 H 16.9751 3.62652 2.03608 0
M  V30 191 H 15.5521 2.11543 3.0709 0
M  V30 192 N 17.7372 -0.778329 1.37039 0
M  V30 193 C 19.0142 -1.52551 1.22424 0
M  V30 194 C 19.3942 -2.10288 -0.184964 0
M  V30 195 O 18.7422 -1.94953 -1.19187 0
M  V30 196 C 18.9522 -2.61164 2.31504 0
M  V30 197 C 20.3002 -3.28746 2.68721 0
M  V30 198 O 21.3242 -2.71455 2.30631 0
M  V30 199 O 20.1832 -4.3231 3.3432 0
M  V30 200 H 17.2772 -0.675343 0.477326 0
M  V30 201 H 19.8232 -0.815859 1.48801 0
M  V30 202 H 18.5952 -2.16574 3.25901 0
M  V30 203 H 18.2182 -3.39737 2.06554 0
M  V30 204 N 19.2153 -1.21501 -1.00376 0
M  V30 205 C 20.1783 -0.976927 -2.07337 0
M  V30 206 C 21.1783 0.0525322 -1.60714 0
M  V30 207 O 22.3683 -0.184869 -1.73216 0
M  V30 208 C 19.5003 -0.473423 -3.37597 0
M  V30 209 H 20.6933 -1.92587 -2.29892 0
M  V30 210 H 18.2463 -1.03217 -1.17371 0
M  V30 211 H 18.9813 0.480379 -3.20722 0
M  V30 212 H 18.7663 -1.216 -3.72768 0
M  V30 213 H 20.2563 -0.32675 -4.1632 0
M  V30 214 N 20.6934 1.19889 -1.02296 0
M  V30 215 C 22.1044 1.71124 -0.746568 0
M  V30 216 C 22.4554 1.81939 0.734335 0
M  V30 217 O 21.5804 1.48639 1.57275 0
M  V30 218 C 22.1754 3.10804 -1.34857 0
M  V30 219 C 20.7344 3.59323 -1.1209 0
M  V30 220 C 19.8814 2.3635 -1.45031 0
M  V30 221 H 22.8324 1.04813 -1.19163 0
M  V30 222 H 22.8534 3.73186 -0.742437 0
M  V30 223 H 22.3654 3.029 -2.42638 0
M  V30 224 H 20.4664 3.7255 -0.0610337 0
M  V30 225 H 20.5794 4.4378 -1.80544 0
M  V30 226 H 18.9434 2.39399 -0.869487 0
M  V30 227 H 19.7264 2.31081 -2.53883 0
M  V30 228 N 22.1715 0.800033 1.35784 0
M  V30 229 C 23.4485 0.30088 1.93272 0
M  V30 230 C 23.8285 -1.20857 1.73081 0
M  V30 231 O 23.1765 -2.00502 1.09596 0
M  V30 232 C 23.3865 0.70511 3.41803 0
M  V30 233 C 24.7345 0.690871 4.18942 0
M  V30 234 O 25.7585 0.646244 3.50289 0
M  V30 235 O 24.6175 0.74332 5.41421 0
M  V30 236 H 21.7115 0.0771605 0.823393 0
M  V30 237 H 24.2575 0.88329 1.449 0
M  V30 238 H 23.0295 1.74571 3.50201 0
M  V30 239 H 22.6525 0.0971541 3.97481 0
M  V30 240 N 23.6496 -1.47581 0.552962 0
M  V30 241 C 24.8776 -2.06875 0.0320556 0
M  V30 242 C 25.2926 -1.40625 -1.25976 0
M  V30 243 O 24.6496 -0.501349 -1.75479 0
M  V30 244 C 24.7006 -3.61092 -0.17167 0
M  V30 245 O 24.4216 -4.24858 1.06899 0
M  V30 246 C 25.9226 -4.37242 -0.730344 0
M  V30 247 H 23.1426 -0.669561 0.043915 0
M  V30 248 H 25.6866 -1.89646 0.765163 0
M  V30 249 H 23.8416 -3.7785 -0.854894 0
M  V30 250 H 24.2556 -5.17334 0.864059 0
M  V30 251 H 25.7296 -5.45842 -0.822203 0
M  V30 252 H 26.2066 -4.03235 -1.74064 0
M  V30 253 H 26.8126 -4.25219 -0.0829543 0
M  V30 254 N 25.1277 -0.289203 -1.54924 0
M  V30 255 C 26.0577 0.58549 -2.2604 0
M  V30 256 C 27.0387 1.14753 -1.25562 0
M  V30 257 O 28.2237 1.17906 -1.54311 0
M  V30 258 C 25.3537 1.76305 -2.99222 0
M  V30 259 C 24.3077 1.33191 -4.06748 0
M  V30 260 C 23.6337 2.5937 -4.6758 0
M  V30 261 C 24.9337 0.471775 -5.20165 0
M  V30 262 H 26.6277 -0.00763532 -2.99399 0
M  V30 263 H 24.1737 -0.00511229 -1.43999 0
M  V30 264 H 26.1267 2.38097 -3.47689 0
M  V30 265 H 24.8507 2.38223 -2.23422 0
M  V30 266 H 23.5097 0.737121 -3.59113 0
M  V30 267 H 23.1577 3.19576 -3.88433 0
M  V30 268 H 22.8577 2.31228 -5.40192 0
M  V30 269 H 24.3817 3.21985 -5.18804 0
M  V30 270 H 25.7957 0.995056 -5.64599 0
M  V30 271 H 24.1927 0.284639 -5.99425 0
M  V30 272 H 25.2627 -0.506041 -4.82252 0
M  V30 273 N 26.6058 1.57591 -0.0167156 0
M  V30 274 C 27.5358 2.12496 0.967858 0
M  V30 275 C 28.5168 1.03807 1.34752 0
M  V30 276 O 29.7018 1.31577 1.42833 0
M  V30 277 C 26.8318 2.64194 2.25431 0
M  V30 278 C 25.7858 3.77559 2.01576 0
M  V30 279 C 25.1118 4.15636 3.36379 0
M  V30 280 C 26.4118 5.04151 1.36489 0
M  V30 281 H 28.1058 2.95013 0.510643 0
M  V30 282 H 25.6518 1.41915 0.244181 0
M  V30 283 H 27.6048 3.01236 2.94678 0
M  V30 284 H 26.3288 1.78821 2.73296 0
M  V30 285 H 24.9878 3.40937 1.34751 0
M  V30 286 H 24.6358 3.27263 3.81979 0
M  V30 287 H 24.3358 4.92022 3.21229 0
M  V30 288 H 25.8598 4.5525 4.06915 0
M  V30 289 H 27.2738 5.38857 1.95718 0
M  V30 290 H 25.6708 5.85453 1.31776 0
M  V30 291 H 26.7408 4.83733 0.336219 0
M  V30 292 N 28.0839 -0.256276 1.55502 0
M  V30 293 C 29.0139 -1.32102 1.92539 0
M  V30 294 C 29.9949 -1.50684 0.789194 0
M  V30 295 O 31.1799 -1.63449 1.04872 0
M  V30 296 C 28.3099 -2.67752 2.21192 0
M  V30 297 C 27.2639 -2.63878 3.36975 0
M  V30 298 C 26.5899 -4.03236 3.51147 0
M  V30 299 C 27.8899 -2.21682 4.72921 0
M  V30 300 H 29.5839 -1.01351 2.81724 0
M  V30 301 H 27.1299 -0.486105 1.35547 0
M  V30 302 H 29.0829 -3.42365 2.45691 0
M  V30 303 H 27.8069 -3.0012 1.28824 0
M  V30 304 H 26.4659 -1.91722 3.12471 0
M  V30 305 H 26.1139 -4.32854 2.56216 0
M  V30 306 H 25.8139 -4.01535 4.29003 0
M  V30 307 H 27.3379 -4.79563 3.77957 0
M  V30 308 H 28.7519 -2.86023 4.96854 0
M  V30 309 H 27.1489 -2.3111 5.53812 0
M  V30 310 H 28.2189 -1.16833 4.70615 0
M  V30 311 N 29.562 -1.4872 -0.521534 0
M  V30 312 C 30.472 -1.66569 -1.65203 0
M  V30 313 C 31.488 -0.548197 -1.65139 0
M  V30 314 O 32.664 -0.820339 -1.83936 0
M  V30 315 C 29.729 -1.70917 -3.01642 0
M  V30 316 C 28.79 -2.94356 -3.12495 0
M  V30 317 C 28.023 -2.98487 -4.42426 0
M  V30 318 O 28.246 -2.10786 -5.30024 0
M  V30 319 O 27.18 -3.90746 -4.57822 0
M  V30 320 H 31.006 -2.62298 -1.5308 0
M  V30 321 H 28.591 -1.3222 -0.695565 0
M  V30 322 H 30.473 -1.7625 -3.82771 0
M  V30 323 H 29.148 -0.783633 -3.14071 0
M  V30 324 H 28.055 -2.94552 -2.3063 0
M  V30 325 H 29.388 -3.86322 -3.04986 0
M  V30 326 N 31.0401 0.771051 -1.3745 0
M  V30 327 C 31.9871 1.88435 -1.3327 0
M  V30 328 C 32.9571 1.64914 -0.198136 0
M  V30 329 O 34.1421 1.86821 -0.387606 0
M  V30 330 C 31.2821 3.25509 -1.14622 0
M  V30 331 C 30.3951 3.60979 -2.37314 0
M  V30 332 C 29.5301 4.87265 -2.11533 0
M  V30 333 C 28.5691 5.15469 -3.30088 0
M  V30 334 N 27.7061 6.32944 -3.03853 0
M  V30 335 H 32.5461 1.91344 -2.28455 0
M  V30 336 H 30.0831 0.935466 -1.13523 0
M  V30 337 H 32.0411 4.04582 -1.01831 0
M  V30 338 H 30.6711 3.21974 -0.230837 0
M  V30 339 H 29.7231 2.76885 -2.60842 0
M  V30 340 H 31.0351 3.77759 -3.25729 0
M  V30 341 H 30.1891 5.74244 -1.95777 0
M  V30 342 H 28.9281 4.7259 -1.20457 0
M  V30 343 H 27.9331 4.26966 -3.46382 0
M  V30 344 H 29.1581 5.32052 -4.22016 0
M  V30 345 H 27.1041 6.19625 -2.15407 0
M  V30 346 H 27.0211 6.50143 -3.85812 0
M  V30 347 H 28.2891 7.22857 -2.91716 0
M  V30 348 N 32.5182 1.22032 0.997298 0
M  V30 349 C 33.4682 0.953838 2.07089 0
M  V30 350 C 34.4522 -0.0938669 1.60626 0
M  V30 351 O 35.6442 0.116078 1.76619 0
M  V30 352 C 32.7732 0.528726 3.39204 0
M  V30 353 C 31.8592 1.61092 3.92314 0
M  V30 354 N 32.2502 2.83768 4.18699 0
M  V30 355 C 30.5482 1.48158 4.20672 0
M  V30 356 C 31.2492 3.53715 4.61802 0
M  V30 357 N 30.2252 2.81174 4.65233 0
M  V30 358 H 34.0272 1.88577 2.25424 0
M  V30 359 H 31.5412 1.11719 1.17867 0
M  V30 360 H 33.5382 0.31915 4.15677 0
M  V30 361 H 32.1982 -0.39635 3.22272 0
M  V30 362 H 33.2092 3.20238 4.07023 0
M  V30 363 H 29.8862 0.622369 4.12835 0
M  V30 364 H 31.2762 4.58793 4.90875 0
M  V30 365 N 33.9963 -1.19345 1.0293 0
M  V30 366 C 34.9593 -2.20793 0.615069 0
M  V30 367 C 35.9593 -1.57553 -0.321533 0
M  V30 368 O 37.1493 -1.73862 -0.108483 0
M  V30 369 C 34.2813 -3.40754 -0.0999222 0
M  V30 370 H 35.4743 -2.58955 1.51269 0
M  V30 371 H 33.0273 -1.3303 0.820534 0
M  V30 372 H 33.7623 -3.0811 -1.01187 0
M  V30 373 H 33.5473 -3.87889 0.57309 0
M  V30 374 H 35.0373 -4.15898 -0.376645 0
M  V30 375 N 35.4744 -0.807222 -1.35358 0
M  V30 376 C 36.7514 -0.311126 -1.9311 0
M  V30 377 C 37.1314 1.19937 -1.73719 0
M  V30 378 O 36.4794 1.99918 -1.10657 0
M  V30 379 C 36.6894 -0.723226 -3.41424 0
M  V30 380 C 38.0374 -0.713078 -4.18569 0
M  V30 381 O 39.0614 -0.664811 -3.49941 0
M  V30 382 O 37.9204 -0.772022 -5.41019 0
M  V30 383 H 35.0144 -0.081526 -0.822972 0
M  V30 384 H 37.5604 -0.890962 -1.4443 0
M  V30 385 H 36.3324 -1.76426 -3.4927 0
M  V30 386 H 35.9554 -0.118232 -3.97424 0
M  V30 387 N 36.9525 1.47285 -0.560781 0
M  V30 388 C 38.1825 2.06555 -0.0429638 0
M  V30 389 C 38.5905 1.41339 1.25777 0
M  V30 390 O 37.9335 0.505182 1.76617 0
M  V30 391 C 37.9955 3.58827 0.219887 0
M  V30 392 C 37.6595 4.46105 -0.991944 0
M  V30 393 C 38.6565 4.84 -1.89843 0
M  V30 394 C 36.3415 4.87567 -1.20762 0
M  V30 395 C 38.3355 5.6216 -3.00425 0
M  V30 396 C 36.0225 5.65491 -2.31653 0
M  V30 397 C 37.0205 6.02699 -3.21315 0
M  V30 398 O 36.7085 6.79052 -4.30283 0
M  V30 399 H 36.4405 0.674537 -0.0444468 0
M  V30 400 H 38.9945 1.90225 -0.774818 0
M  V30 401 H 37.2245 3.73383 1.00609 0
M  V30 402 H 38.9135 4.00103 0.683522 0
M  V30 403 H 39.6795 4.52564 -1.74387 0
M  V30 404 H 35.5585 4.5807 -0.518893 0
M  V30 405 H 39.1025 5.9112 -3.70436 0
M  V30 406 H 34.9995 5.9634 -2.47081 0
M  V30 407 H 35.7675 6.9745 -4.28376 0
M  V30 408 N 38.4306 0.297415 1.54768 0
M  V30 409 C 39.6796 -0.313669 1.99246 0
M  V30 410 C 39.9926 -1.55281 1.18942 0
M  V30 411 O 41.1986 -2.23825 1.5367 0
M  V30 412 C 39.6546 -0.609407 3.54703 0
M  V30 413 C 39.2626 0.611192 4.43811 0
M  V30 414 C 41.0066 -1.18188 4.07715 0
M  V30 415 C 38.9136 0.288805 5.90694 0
M  V30 416 H 37.8436 -0.120979 0.744231 0
M  V30 417 H 40.4946 0.40556 1.78962 0
M  V30 418 H 38.8766 -1.38813 3.70873 0
M  V30 419 H 40.0506 1.3875 4.39414 0
M  V30 420 H 38.3656 1.10205 4.01552 0
M  V30 421 H 40.9626 -1.43727 5.15021 0
M  V30 422 H 41.3056 -2.12299 3.58099 0
M  V30 423 H 41.8386 -0.464944 3.95074 0
M  V30 424 H 38.5776 1.19838 6.44453 0
M  V30 425 H 38.0976 -0.450305 5.98107 0
M  V30 426 H 39.7766 -0.110933 6.46905 0
M  V30 427 N 39.9087 -1.5758 0.0250728 0
M  V30 428 C 40.8717 -2.08896 -0.943139 0
M  V30 429 C 41.8717 -1.00321 -1.25668 0
M  V30 430 O 43.0617 -1.26495 -1.19769 0
M  V30 431 C 40.1937 -2.55143 -2.26086 0
M  V30 432 H 41.3867 -2.95723 -0.498775 0
M  V30 433 H 38.9397 -1.54703 -0.222888 0
M  V30 434 H 39.6747 -1.71633 -2.75159 0
M  V30 435 H 39.4597 -3.34461 -2.04641 0
M  V30 436 H 40.9497 -2.95083 -2.95492 0
M  V30 437 N 41.3868 0.248026 -1.55636 0
M  V30 438 C 42.6118 0.998028 -1.81808 0
M  V30 439 C 43.0368 1.78207 -0.601979 0
M  V30 440 O 42.3948 1.75653 0.448961 0
M  V30 441 C 42.4428 1.9125 -3.05705 0
M  V30 442 O 41.5468 3.00406 -2.82542 0
M  V30 443 H 40.8878 0.284045 -0.600179 0
M  V30 444 H 43.4178 0.269357 -2.02819 0
M  V30 445 H 43.4278 2.32737 -3.35108 0
M  V30 446 H 42.1028 1.33602 -3.93857 0
M  V30 447 H 40.6798 2.63056 -2.64303 0
M  V30 448 N 42.8649 1.48995 0.513639 0
M  V30 449 C 44.0949 1.61297 1.291 0
M  V30 450 C 44.5029 0.278656 1.87137 0
M  V30 451 O 43.8459 -0.744325 1.67945 0
M  V30 452 C 43.9079 2.61326 2.46879 0
M  V30 453 C 43.5719 4.05993 2.09807 0
M  V30 454 C 44.5689 4.93183 1.64519 0
M  V30 455 C 42.2539 4.51642 2.19829 0
M  V30 456 C 44.2479 6.24056 1.2974 0
M  V30 457 C 41.9349 5.82532 1.84662 0
M  V30 458 C 42.9329 6.68562 1.3969 0
M  V30 459 O 42.6209 7.97014 1.04992 0
M  V30 460 H 42.3529 0.546236 0.39825 0
M  V30 461 H 44.9069 1.95673 0.62459 0
M  V30 462 H 43.1369 2.22104 3.16554 0
M  V30 463 H 44.8259 2.6329 3.08923 0
M  V30 464 H 45.5919 4.59147 1.56233 0
M  V30 465 H 41.4709 3.84855 2.53786 0
M  V30 466 H 45.0149 6.91161 0.945659 0
M  V30 467 H 40.9119 6.16099 1.92594 0
M  V30 468 H 41.6799 8.09913 1.18249 0
M  V30 469 N 44.343 -0.763751 1.37857 0
M  V30 470 C 45.591 -1.51957 1.33243 0
M  V30 471 C 45.912 -1.94835 -0.0801709 0
M  V30 472 O 45.182 -1.66894 -1.02582 0
M  V30 473 H 43.762 -0.563626 0.49024 0
M  V30 474 H 46.424 -0.908504 1.7243 0
M  V30 475 H 45.52 -2.41523 1.97669 0
M  V30 476 N 45.8211 -1.22559 -0.990812 0
M  V30 477 C 47.0461 -1.07862 -1.77145 0
M  V30 478 C 47.4711 0.366447 -1.84496 0
M  V30 479 O 46.8291 1.26478 -1.29896 0
M  V30 480 C 46.8771 -1.69686 -3.18181 0
M  V30 481 O 45.9811 -0.951946 -4.01263 0
M  V30 482 H 45.3221 -0.378712 -0.545411 0
M  V30 483 H 47.8521 -1.62399 -1.2445 0
M  V30 484 H 47.8621 -1.74496 -3.68802 0
M  V30 485 H 46.5371 -2.74841 -3.12146 0
M  V30 486 H 45.1141 -0.980011 -3.59792 0
M  V30 487 N 47.2992 1.18797 -1.03562 0
M  V30 488 C 48.2462 2.22253 -0.622259 0
M  V30 489 C 49.2162 1.61987 0.36736 0
M  V30 490 O 50.4012 1.88986 0.262492 0
M  V30 491 C 47.5412 3.45097 0.0138462 0
M  V30 492 C 46.6542 4.19722 -1.02263 0
M  V30 493 C 45.7892 5.30009 -0.355573 0
M  V30 494 C 44.8282 5.96399 -1.37749 0
M  V30 495 N 43.9652 6.98234 -0.735766 0
M  V30 496 H 48.8052 2.56968 -1.50903 0
M  V30 497 H 46.3422 1.26245 -0.755017 0
M  V30 498 H 48.3002 4.15279 0.399948 0
M  V30 499 H 46.9302 3.11018 0.864158 0
M  V30 500 H 45.9822 3.48418 -1.52673 0
M  V30 501 H 47.2942 4.65227 -1.79903 0
M  V30 502 H 46.4482 6.0664 0.0850095 0
M  V30 503 H 45.1872 4.85592 0.452967 0
M  V30 504 H 44.1922 5.18512 -1.82826 0
M  V30 505 H 45.4172 6.42899 -2.18764 0
M  V30 506 H 43.3632 6.55979 0.0525597 0
M  V30 507 H 43.2802 7.41965 -1.44995 0
M  V30 508 H 44.5482 7.78845 -0.31941 0
M  V30 509 N 48.7773 0.814389 1.34928 0
M  V30 510 C 49.7243 0.22822 2.29669 0
M  V30 511 C 50.6943 -0.642164 1.53184 0
M  V30 512 O 51.8793 -0.585605 1.81591 0
M  V30 513 C 49.0193 -0.61089 3.3965 0
M  V30 514 C 48.1323 0.280792 4.31086 0
M  V30 515 C 47.2673 -0.567067 5.28165 0
M  V30 516 C 46.3063 0.324531 6.11239 0
M  V30 517 N 45.4433 -0.483756 7.00431 0
M  V30 518 H 50.2833 1.04153 2.79206 0
M  V30 519 H 47.8203 0.525133 1.37407 0
M  V30 520 H 49.7783 -1.11263 4.0209 0
M  V30 521 H 48.4083 -1.38939 2.91369 0
M  V30 522 H 47.4603 0.900688 3.69583 0
M  V30 523 H 48.7723 0.966723 4.89342 0
M  V30 524 H 47.9263 -1.13363 5.96015 0
M  V30 525 H 46.6653 -1.28654 4.70425 0
M  V30 526 H 45.6703 0.903298 5.42329 0
M  V30 527 H 46.8953 1.04198 6.71059 0
M  V30 528 H 44.8413 -1.18706 6.45171 0
M  V30 529 H 44.7583 0.143965 7.55863 0
M  V30 530 H 46.0263 -1.03334 7.7262 0
M  V30 531 N 50.2554 -1.46986 0.568584 0
M  V30 532 C 51.5324 -1.95592 -0.0174074 0
M  V30 533 C 51.9124 -1.51124 -1.47393 0
M  V30 534 O 51.2604 -0.755329 -2.15655 0
M  V30 535 C 51.4704 -3.48719 0.139913 0
M  V30 536 C 52.8184 -4.246 0.000426376 0
M  V30 537 O 53.8424 -3.56135 0.0680316 0
M  V30 538 O 52.7014 -5.46302 -0.146988 0
M  V30 539 H 49.7954 -0.82498 -0.0577599 0
M  V30 540 H 52.3414 -1.57335 0.635909 0
M  V30 541 H 51.1134 -3.73927 1.15301 0
M  V30 542 H 50.7364 -3.93771 -0.550491 0
M  V30 543 N 51.7335 -0.305618 -1.54608 0
M  V30 544 C 53.0105 0.355652 -1.92339 0
M  V30 545 C 53.3905 1.71324 -1.23335 0
M  V30 546 O 52.7385 2.25473 -0.370702 0
M  V30 547 C 52.9485 0.46572 -3.45879 0
M  V30 548 C 54.2965 0.734426 -4.182 0
M  V30 549 O 55.3205 0.54935 -3.51938 0
M  V30 550 O 54.1795 1.09024 -5.35515 0
M  V30 551 H 51.2735 0.199666 -0.802535 0
M  V30 552 H 53.8195 -0.354017 -1.65966 0
M  V30 553 H 52.5915 -0.488461 -3.88239 0
M  V30 554 H 52.2145 1.22367 -3.78301 0
M  V30 555 N 53.2116 1.57565 -0.0334293 0
M  V30 556 C 54.4416 1.95996 0.653398 0
M  V30 557 C 54.8496 0.908749 1.65947 0
M  V30 558 O 54.1926 -0.117471 1.83324 0
M  V30 559 C 54.2546 3.30589 1.41249 0
M  V30 560 C 53.9186 4.53503 0.564263 0
M  V30 561 C 54.9156 5.19647 -0.16225 0
M  V30 562 C 52.6006 4.99801 0.500398 0
M  V30 563 C 54.5946 6.30412 -0.941255 0
M  V30 564 C 52.2816 6.10448 -0.282308 0
M  V30 565 C 53.2796 6.75612 -1.00184 0
M  V30 566 O 52.9676 7.84134 -1.77171 0
M  V30 567 H 52.6996 0.65027 0.184728 0
M  V30 568 H 55.2536 2.05199 -0.0907841 0
M  V30 569 H 53.4836 3.17888 2.20191 0
M  V30 570 H 55.1726 3.53892 1.98784 0
M  V30 571 H 55.9386 4.84846 -0.12227 0
M  V30 572 H 51.8176 4.48883 1.05002 0
M  V30 573 H 55.3616 6.81208 -1.50339 0
M  V30 574 H 51.2586 6.44686 -0.323989 0
M  V30 575 H 52.0266 8.00822 -1.69194 0
M  V30 576 N 54.6897 -0.239769 1.55765 0
M  V30 577 C 55.5997 -1.31831 1.94056 0
M  V30 578 C 56.6157 -1.52275 0.841925 0
M  V30 579 O 57.7917 -1.65759 1.14394 0
M  V30 580 C 54.8567 -2.65156 2.23368 0
M  V30 581 C 53.9177 -2.53173 3.46701 0
M  V30 582 C 53.1507 -3.8014 3.74606 0
M  V30 583 O 53.3737 -4.82343 3.04469 0
M  V30 584 O 52.3077 -3.78344 4.68123 0
M  V30 585 H 56.1337 -1.02347 2.85935 0
M  V30 586 H 53.7187 -0.441123 1.42739 0
M  V30 587 H 55.6007 -3.43929 2.43497 0
M  V30 588 H 54.2757 -2.94358 1.34666 0
M  V30 589 H 53.1827 -1.72662 3.31871 0
M  V30 590 H 54.5157 -2.28915 4.35728 0
M  V30 591 N 56.1678 -1.49265 -0.50573 0
M  V30 592 C 57.3978 -1.61979 -1.28243 0
M  V30 593 C 57.8058 -0.288576 -1.86986 0
M  V30 594 O 57.1488 0.735408 -1.68337 0
M  V30 595 C 57.2108 -2.62632 -2.45489 0
M  V30 596 C 56.8748 -4.071 -2.07651 0
M  V30 597 C 57.8718 -4.94049 -1.61901 0
M  V30 598 C 55.5568 -4.52801 -2.17431 0
M  V30 599 C 57.5508 -6.24736 -1.26428 0
M  V30 600 C 55.2378 -5.83503 -1.8157 0
M  V30 601 C 56.2358 -6.69294 -1.36142 0
M  V30 602 O 55.9238 -7.9756 -1.00764 0
M  V30 603 H 55.6558 -0.54834 -0.395347 0
M  V30 604 H 58.2098 -1.96002 -0.614204 0
M  V30 605 H 56.4398 -2.2378 -3.15372 0
M  V30 606 H 58.1288 -2.64925 -3.07522 0
M  V30 607 H 58.8948 -4.5997 -1.53795 0
M  V30 608 H 54.7738 -3.86196 -2.51742 0
M  V30 609 H 58.3178 -6.91652 -0.908992 0
M  V30 610 H 54.2148 -6.17112 -1.89324 0
M  V30 611 H 54.9828 -8.10529 -1.13952 0
M  V30 612 N 57.6459 0.756429 -1.3826 0
M  V30 613 C 58.8859 1.52833 -1.35725 0
M  V30 614 C 59.2499 1.91926 0.0534106 0
M  V30 615 O 60.4509 2.68028 0.203613 0
M  V30 616 C 58.7219 2.74919 -2.28373 0
M  V30 617 S 60.2809 3.64817 -2.43832 0
M  V30 618 H 57.0989 0.523043 -0.481608 0
M  V30 619 H 59.7009 0.888212 -1.74158 0
M  V30 620 H 58.4049 2.44304 -3.29763 0
M  V30 621 H 57.9359 3.43878 -1.91079 0
M  V30 622 H 59.9509 4.676 -1.66027 0
M  V30 623 N 59.124 1.23083 0.984299 0
M  V30 624 C 60.057 0.951786 2.07404 0
M  V30 625 C 61.035 -0.10848 1.62238 0
M  V30 626 O 62.219 0.0249467 1.88483 0
M  V30 627 C 59.346 0.433142 3.35919 0
M  V30 628 C 58.392 1.47941 4.0002 0
M  V30 629 S 59.225 3.05556 4.39768 0
M  V30 630 C 60.381 2.55351 5.71442 0
M  V30 631 H 60.614 1.87456 2.30754 0
M  V30 632 H 58.147 1.06284 1.11996 0
M  V30 633 H 60.105 0.140506 4.10259 0
M  V30 634 H 58.766 -0.468656 3.10584 0
M  V30 635 H 57.959 1.06658 4.92585 0
M  V30 636 H 57.561 1.7212 3.3204 0
M  V30 637 H 59.853 1.97128 6.48187 0
M  V30 638 H 60.796 3.46441 6.17563 0
M  V30 639 H 61.204 1.96339 5.29255 0
M  V30 640 N 60.6021 -1.18246 1.0419 0
M  V30 641 C 61.8271 -1.92736 0.765996 0
M  V30 642 C 62.2521 -1.75728 -0.67091 0
M  V30 643 O 61.6101 -1.06825 -1.46486 0
M  V30 644 C 61.6581 -3.42148 1.13875 0
M  V30 645 O 60.7621 -4.11548 0.264954 0
M  V30 646 H 60.1031 -0.601238 0.281797 0
M  V30 647 H 62.6331 -1.49942 1.39207 0
M  V30 648 H 62.6431 -3.92858 1.1012 0
M  V30 649 H 61.3181 -3.53848 2.18551 0
M  V30 650 H 59.8951 -3.71137 0.362226 0
M  V30 651 N 62.0802 -0.821533 -1.34494 0
M  V30 652 C 62.9902 -0.244355 -2.33324 0
M  V30 653 C 64.0062 0.620527 -1.62559 0
M  V30 654 O 65.1822 0.528754 -1.94335 0
M  V30 655 C 62.2472 0.585368 -3.41723 0
M  V30 656 C 61.3082 -0.301752 -4.28238 0
M  V30 657 C 60.5412 0.488466 -5.3146 0
M  V30 658 O 60.7642 1.72186 -5.4379 0
M  V30 659 O 59.6982 -0.12848 -6.01763 0
M  V30 660 H 63.5242 -1.06231 -2.84515 0
M  V30 661 H 61.1092 -0.583645 -1.37528 0
M  V30 662 H 62.9912 1.05747 -4.07916 0
M  V30 663 H 61.6662 1.38068 -2.92778 0
M  V30 664 H 60.5732 -0.821315 -3.64973 0
M  V30 665 H 61.9062 -1.06138 -4.8062 0
M  V30 666 N 63.5583 1.46682 -0.576371 0
M  V30 667 C 64.7883 2.06498 -0.0648694 0
M  V30 668 C 65.1963 1.42665 1.24271 0
M  V30 669 O 64.5393 0.523886 1.76071 0
M  V30 670 C 64.6013 3.5904 0.181816 0
M  V30 671 C 64.2653 4.45028 -1.0392 0
M  V30 672 C 65.2623 4.81959 -1.94966 0
M  V30 673 C 62.9473 4.86259 -1.25927 0
M  V30 674 C 64.9413 5.58942 -3.06371 0
M  V30 675 C 62.6283 5.63002 -2.37638 0
M  V30 676 C 63.6263 5.99257 -3.2769 0
M  V30 677 O 63.3143 6.7445 -4.37461 0
M  V30 678 H 63.0463 0.674028 -0.0515987 0
M  V30 679 H 65.6003 1.89393 -0.794951 0
M  V30 680 H 63.8303 3.74429 0.966436 0
M  V30 681 H 65.5193 4.00806 0.641047 0
M  V30 682 H 66.2853 4.50689 -1.79177 0
M  V30 683 H 62.1643 4.57494 -0.567448 0
M  V30 684 H 65.7083 5.87158 -3.76684 0
M  V30 685 H 61.6053 5.93686 -2.53392 0
M  V30 686 H 62.3733 6.92867 -4.35749 0
M  V30 687 N 65.0364 0.313813 1.54444 0
M  V30 688 C 65.9664 -0.549454 2.26943 0
M  V30 689 C 66.9474 -1.12741 1.27372 0
M  V30 690 O 68.1324 -1.15436 1.56167 0
M  V30 691 C 65.2624 -1.71523 3.01989 0
M  V30 692 C 64.2164 -1.26703 4.08816 0
M  V30 693 C 63.5424 -2.51898 4.71647 0
M  V30 694 C 64.8424 -0.388962 5.2085 0
M  V30 695 H 66.5364 0.0552661 2.99349 0
M  V30 696 H 64.0824 0.0280207 1.43973 0
M  V30 697 H 66.0354 -2.32535 3.51433 0
M  V30 698 H 64.7594 -2.34639 2.27183 0
M  V30 699 H 63.4184 -0.679896 3.6024 0
M  V30 700 H 63.0664 -3.13356 3.93468 0
M  V30 701 H 62.7664 -2.22605 5.43802 0
M  V30 702 H 64.2904 -3.1369 5.23861 0
M  V30 703 H 65.7044 -0.905107 5.6611 0
M  V30 704 H 64.1014 -0.18924 5.99802 0
M  V30 705 H 65.1714 0.582699 4.81386 0
M  V30 706 N 66.5145 -1.57545 0.0417849 0
M  V30 707 C 67.9305 -1.56467 -0.314704 0
M  V30 708 C 68.1305 -1.04859 -1.72066 0
M  V30 709 O 67.1865 -0.700983 -2.42575 0
M  V30 710 C 68.4995 -3.00317 -0.15174 0
M  V30 711 C 70.0475 -3.12201 -0.223553 0
M  V30 712 C 70.5225 -4.57913 -0.0892295 0
M  V30 713 N 72.0135 -4.6297 -0.145808 0
M  V30 714 C 72.7485 -5.73362 -0.0658459 0
M  V30 715 N 72.2445 -6.92769 0.0659282 0
M  V30 716 N 74.0375 -5.6197 -0.12075 0
M  V30 717 H 66.1885 -1.89416 0.961014 0
M  V30 718 H 68.4515 -0.871862 0.372237 0
M  V30 719 H 68.1575 -3.42073 0.817254 0
M  V30 720 H 68.0315 -3.65892 -0.916692 0
M  V30 721 H 70.4185 -2.70349 -1.18301 0
M  V30 722 H 70.4995 -2.49323 0.571994 0
M  V30 723 H 70.1435 -5.00448 0.866867 0
M  V30 724 H 70.0735 -5.18786 -0.903802 0
M  V30 725 H 72.5645 -3.7709 -0.247286 0
M  V30 726 H 72.8775 -7.72707 0.119905 0
M  V30 727 H 71.2225 -6.94927 0.100885 0
M  V30 728 H 74.4135 -4.67572 -0.222187 0
M  V30 729 H 74.5865 -6.47977 -0.0549735 0
M  V30 730 N 67.9926 0.231505 -1.5589 0
M  V30 731 C 68.9256 1.31369 -1.86595 0
M  V30 732 C 69.9036 1.45671 -0.722397 0
M  V30 733 O 71.0876 1.61642 -0.969743 0
M  V30 734 C 68.2146 2.68529 -2.06421 0
M  V30 735 C 67.2606 2.71295 -3.29092 0
M  V30 736 S 68.0936 2.26358 -4.85306 0
M  V30 737 C 69.2496 3.65414 -5.08157 0
M  V30 738 H 69.4826 1.05128 -2.78092 0
M  V30 739 H 67.0156 0.433259 -1.48197 0
M  V30 740 H 68.9736 3.47499 -2.18528 0
M  V30 741 H 67.6346 2.91999 -1.15738 0
M  V30 742 H 66.8276 3.72063 -3.39978 0
M  V30 743 H 66.4296 2.0038 -3.15791 0
M  V30 744 H 68.7216 4.6103 -4.96445 0
M  V30 745 H 69.6646 3.5945 -6.10083 0
M  V30 746 H 70.0726 3.5864 -4.35933 0
M  V30 747 N 69.4707 1.49531 0.497807 0
M  V30 748 C 70.6957 1.63159 1.28039 0
M  V30 749 C 71.1207 0.30418 1.85624 0
M  V30 750 O 70.4787 -0.728618 1.66015 0
M  V30 751 C 70.5267 2.70537 2.38416 0
M  V30 752 O 69.6307 2.29931 3.42353 0
M  V30 753 H 68.9717 0.546001 0.377861 0
M  V30 754 H 71.5017 1.9574 0.59558 0
M  V30 755 H 71.5117 2.92802 2.84132 0
M  V30 756 H 70.1867 3.6689 1.95869 0
M  V30 757 H 68.7637 2.18009 3.02533 0
M  V30 758 N 70.9488 -0.749086 1.3866 0
M  V30 759 C 72.1968 -1.50535 1.34847 0
M  V30 760 C 72.5178 -1.94909 -0.0595016 0
M  V30 761 O 71.7878 -1.67973 -1.00806 0
M  V30 762 H 70.3678 -0.558395 0.49619 0
M  V30 763 H 73.0298 -0.890165 1.73384 0
M  V30 764 H 72.1258 -2.39413 2.00219 0
M  V30 765 N 72.4269 -1.23603 -0.977757 0
M  V30 766 C 73.6759 -1.06377 -1.71368 0
M  V30 767 C 73.9889 0.399062 -1.91486 0
M  V30 768 O 75.1949 0.691312 -2.62551 0
M  V30 769 C 73.6509 -1.85512 -3.08404 0
M  V30 770 C 73.2589 -3.36141 -2.96164 0
M  V30 771 C 75.0029 -1.76783 -3.85938 0
M  V30 772 C 72.9099 -4.07659 -4.28449 0
M  V30 773 H 71.8399 -0.394452 -0.642591 0
M  V30 774 H 74.4909 -1.47594 -1.09034 0
M  V30 775 H 72.8729 -1.37103 -3.71509 0
M  V30 776 H 74.0469 -3.92056 -2.42133 0
M  V30 777 H 72.3619 -3.45712 -2.32104 0
M  V30 778 H 74.9589 -2.27526 -4.83876 0
M  V30 779 H 75.3019 -0.731116 -4.0983 0
M  V30 780 H 75.8349 -2.22818 -3.2954 0
M  V30 781 H 72.5739 -5.11648 -4.09752 0
M  V30 782 H 72.0939 -3.5653 -4.82334 0
M  V30 783 H 73.7729 -4.141 -4.97122 0
M  V30 784 N 73.905 1.17692 -1.04816 0
M  V30 785 C 75.135 1.91508 -0.775128 0
M  V30 786 C 75.543 1.76844 0.67253 0
M  V30 787 O 74.886 1.10057 1.47082 0
M  V30 788 C 74.948 3.43167 -1.0713 0
M  V30 789 C 74.612 3.81612 -2.51438 0
M  V30 790 C 75.609 3.84772 -3.49638 0
M  V30 791 C 73.294 4.12687 -2.86348 0
M  V30 792 C 75.288 4.18469 -4.80794 0
M  V30 793 C 72.975 4.46053 -4.17708 0
M  V30 794 C 73.973 4.48921 -5.14741 0
M  V30 795 O 73.661 4.81504 -6.43746 0
M  V30 796 H 73.393 0.614575 -0.281555 0
M  V30 797 H 75.947 1.50206 -1.40098 0
M  V30 798 H 74.177 3.84745 -0.388342 0
M  V30 799 H 75.866 3.98239 -0.784883 0
M  V30 800 H 76.632 3.60893 -3.24008 0
M  V30 801 H 72.511 4.09627 -2.11486 0
M  V30 802 H 76.055 4.20623 -5.56527 0
M  V30 803 H 71.952 4.69393 -4.43103 0
M  V30 804 H 72.72 4.99377 -6.4851 0
M  V30 805 N 75.3831 0.828654 1.34056 0
M  V30 806 C 76.6291 0.429279 1.98818 0
M  V30 807 C 76.9841 -0.998011 1.64492 0
M  V30 808 O 76.2771 -1.68652 0.909228 0
M  V30 809 C 76.4711 0.575226 3.52741 0
M  V30 810 C 76.3001 2.01515 4.02022 0
M  V30 811 C 75.0701 2.64825 4.30344 0
M  V30 812 C 77.2681 2.98261 4.18981 0
M  V30 813 N 75.2501 3.99998 4.65698 0
M  V30 814 C 76.6211 4.18356 4.57578 0
M  V30 815 C 78.6761 2.94802 4.01243 0
M  V30 816 C 77.3791 5.35454 4.80293 0
M  V30 817 C 79.4051 4.11121 4.25128 0
M  V30 818 C 78.7671 5.29969 4.64018 0
M  V30 819 H 74.8661 0.205304 0.754569 0
M  V30 820 H 77.4501 1.07457 1.62361 0
M  V30 821 H 75.6211 -0.0401962 3.88379 0
M  V30 822 H 77.3531 0.148292 4.04428 0
M  V30 823 H 74.1081 2.16027 4.21461 0
M  V30 824 H 74.5321 4.69653 4.87601 0
M  V30 825 H 79.1741 2.04054 3.70299 0
M  V30 826 H 76.8921 6.26755 5.10102 0
M  V30 827 H 80.4781 4.0985 4.12934 0
M  V30 828 H 79.3581 6.18479 4.82134 0
M  V30 829 N 76.8612 -1.46375 0.584142 0
M  V30 830 C 78.1092 -2.01978 0.0701287 0
M  V30 831 C 78.4302 -1.4579 -1.295 0
M  V30 832 O 77.7002 -0.64314 -1.85042 0
M  V30 833 H 76.2802 -0.746648 0.0229345 0
M  V30 834 H 78.9422 -1.79461 0.760245 0
M  V30 835 H 78.0382 -3.121 0.0022064 0
M  V30 836 N 78.3393 -0.321999 -1.54275 0
M  V30 837 C 79.2693 0.537411 -2.27231 0
M  V30 838 C 80.2503 1.12064 -1.27968 0
M  V30 839 O 81.4353 1.14606 -1.56777 0
M  V30 840 C 78.5653 1.69919 -3.02894 0
M  V30 841 C 77.5193 1.24534 -4.09482 0
M  V30 842 C 76.8453 2.49394 -4.72977 0
M  V30 843 C 78.1453 0.361335 -5.21049 0
M  V30 844 H 79.8393 -0.0711406 -2.99315 0
M  V30 845 H 77.3853 -0.0356555 -1.43956 0
M  V30 846 H 79.3383 2.30668 -3.52662 0
M  V30 847 H 78.0623 2.33431 -2.28424 0
M  V30 848 H 76.7213 0.660782 -3.60596 0
M  V30 849 H 76.3693 3.11265 -3.95124 0
M  V30 850 H 76.0693 2.19718 -5.44975 0
M  V30 851 H 77.5933 3.10908 -5.25517 0
M  V30 852 H 79.0073 0.875072 -5.66582 0
M  V30 853 H 77.4043 0.157428 -5.99893 0
M  V30 854 H 78.4743 -0.60822 -4.8107 0
M  V30 855 N 79.8174 1.5752 -0.0501392 0
M  V30 856 C 81.0454 1.96963 0.633492 0
M  V30 857 C 81.4604 0.927631 1.6444 0
M  V30 858 O 80.8174 -0.0882665 1.82286 0
M  V30 859 C 80.8684 3.36487 1.32132 0
M  V30 860 O 80.5894 4.36693 0.350894 0
M  V30 861 C 82.0904 3.90682 2.09481 0
M  V30 862 H 79.3104 0.648244 0.173266 0
M  V30 863 H 81.8544 2.0417 -0.116134 0
M  V30 864 H 80.0094 3.30434 2.02218 0
M  V30 865 H 80.4234 5.17702 0.841735 0
M  V30 866 H 81.8974 4.90591 2.5303 0
M  V30 867 H 82.3744 3.26053 2.94255 0
M  V30 868 H 82.9804 4.00069 1.44307 0
M  V30 869 N 81.2955 -0.223234 1.56011 0
M  V30 870 C 82.5415 -0.949279 1.79211 0
M  V30 871 C 82.8745 -1.84054 0.619494 0
M  V30 872 O 82.1495 -1.90726 -0.381317 0
M  V30 873 C 82.4325 -1.78965 3.12479 0
M  V30 874 C 82.2855 -0.924997 4.40186 0
M  V30 875 C 83.6045 -2.76774 3.42175 0
M  V30 876 H 80.7235 -0.343676 0.651963 0
M  V30 877 H 83.3655 -0.218253 1.88742 0
M  V30 878 H 81.5155 -2.41291 3.04485 0
M  V30 879 H 83.1875 -0.318615 4.60198 0
M  V30 880 H 81.4305 -0.230344 4.33188 0
M  V30 881 H 82.1015 -1.54735 5.29869 0
M  V30 882 H 84.5775 -2.24584 3.50287 0
M  V30 883 H 83.4535 -3.32678 4.36597 0
M  V30 884 H 83.7145 -3.54429 2.64258 0
M  V30 885 N 82.7736 -1.49793 -0.48987 0
M  V30 886 C 83.7066 -1.61898 -1.60823 0
M  V30 887 C 84.6846 -0.467651 -1.5573 0
M  V30 888 O 85.8686 -0.684682 -1.75626 0
M  V30 889 C 82.9956 -1.58422 -2.99366 0
M  V30 890 C 82.0416 -2.78889 -3.22682 0
M  V30 891 S 82.8746 -4.40429 -3.04602 0
M  V30 892 C 84.0306 -4.39617 -4.4552 0
M  V30 893 H 84.2636 -2.56502 -1.50312 0
M  V30 894 H 81.7966 -1.38822 -0.675849 0
M  V30 895 H 83.7546 -1.57103 -3.79248 0
M  V30 896 H 82.4156 -0.650866 -3.07283 0
M  V30 897 H 81.6086 -2.72708 -4.23847 0
M  V30 898 H 81.2106 -2.77678 -2.50541 0
M  V30 899 H 83.5026 -4.12022 -5.37814 0
M  V30 900 H 84.4456 -5.41097 -4.56749 0
M  V30 901 H 84.8536 -3.69554 -4.2672 0
M  V30 902 N 84.2517 0.741722 -1.39055 0
M  V30 903 C 85.5287 1.49252 -1.26425 0
M  V30 904 C 85.9087 2.10705 0.129144 0
M  V30 905 O 85.2567 1.98045 1.13976 0
M  V30 906 C 85.4667 2.54934 -2.38347 0
M  V30 907 C 86.8147 3.21506 -2.77343 0
M  V30 908 O 87.8387 2.65245 -2.37747 0
M  V30 909 O 86.6977 4.23294 -3.45665 0
M  V30 910 H 83.7917 0.662451 -0.495064 0
M  V30 911 H 86.3377 0.776121 -1.50912 0
M  V30 912 H 85.1097 2.07857 -3.31529 0
M  V30 913 H 84.7327 3.34141 -2.15489 0
M  V30 914 N 85.7298 1.2412 0.971189 0
M  V30 915 C 86.6598 1.05508 2.08304 0
M  V30 916 C 87.6408 -0.0308864 1.70072 0
M  V30 917 O 88.8258 0.135521 1.93727 0
M  V30 918 C 85.9558 0.655365 3.4106 0
M  V30 919 C 84.9098 1.68971 3.93234 0
M  V30 920 C 84.2358 1.14516 5.22293 0
M  V30 921 C 85.5358 3.08487 4.21465 0
M  V30 922 H 87.2298 1.98507 2.24132 0
M  V30 923 H 84.7758 0.955821 1.07704 0
M  V30 924 H 86.7288 0.51217 4.18276 0
M  V30 925 H 85.4528 -0.31032 3.25122 0
M  V30 926 H 84.1118 1.82106 3.18171 0
M  V30 927 H 83.7598 0.170189 5.02712 0
M  V30 928 H 83.4598 1.83635 5.58168 0
M  V30 929 H 84.9838 1.01401 6.02121 0
M  V30 930 H 86.3978 2.98601 4.89398 0
M  V30 931 H 84.7948 3.74926 4.68562 0
M  V30 932 H 85.8648 3.56787 3.28376 0
M  V30 933 N 87.2079 -1.17134 1.05439 0
M  V30 934 C 88.1409 -2.2012 0.601855 0
M  V30 935 C 89.1189 -1.58314 -0.370854 0
M  V30 936 O 90.3029 -1.8638 -0.281882 0
M  V30 937 C 87.4299 -3.38491 -0.118868 0
M  V30 938 C 86.4759 -4.18752 0.809242 0
M  V30 939 S 87.3089 -4.83602 2.29977 0
M  V30 940 C 88.4649 -6.0536 1.59029 0
M  V30 941 H 88.6979 -2.58165 1.47438 0
M  V30 942 H 86.2309 -1.27788 0.866573 0
M  V30 943 H 88.1889 -4.07084 -0.528495 0
M  V30 944 H 86.8499 -2.98829 -0.967465 0
M  V30 945 H 86.0429 -5.03373 0.251379 0
M  V30 946 H 85.6449 -3.5561 1.15835 0
M  V30 947 H 87.9369 -6.71615 0.891017 0
M  V30 948 H 88.8799 -6.65679 2.41407 0
M  V30 949 H 89.2879 -5.54138 1.07663 0
M  V30 950 N 88.686 -0.835752 -1.33615 0
M  V30 951 C 89.934 -0.429109 -1.97492 0
M  V30 952 C 90.255 1.01433 -1.66543 0
M  V30 953 O 89.525 1.70611 -0.962744 0
M  V30 954 H 88.105 -0.155686 -0.730596 0
M  V30 955 H 90.767 -1.06802 -1.63031 0
M  V30 956 H 89.863 -0.55861 -3.0706 0
M  V30 957 N 90.1641 1.46063 -0.591896 0
M  V30 958 C 91.0961 2.28539 0.174001 0
M  V30 959 C 92.1091 1.39047 0.846753 0
M  V30 960 O 93.2981 1.63564 0.714774 0
M  V30 961 C 90.3981 3.14347 1.26645 0
M  V30 962 C 89.5711 4.32021 0.683856 0
M  V30 963 C 88.6301 4.99157 1.66518 0
M  V30 964 O 87.6561 5.56458 1.19763 0
M  V30 965 N 88.8581 4.97005 2.99943 0
M  V30 966 H 91.6231 2.94911 -0.533633 0
M  V30 967 H 89.1841 1.56077 -0.430294 0
M  V30 968 H 91.1761 3.56125 1.92242 0
M  V30 969 H 89.7461 2.49988 1.87682 0
M  V30 970 H 88.9661 3.93915 -0.1498 0
M  V30 971 H 90.2541 5.08059 0.274567 0
M  V30 972 H 89.6521 4.51714 3.40545 0
M  V30 973 H 88.2091 5.42696 3.61004 0
M  V30 974 N 91.6422 0.330177 1.54103 0
M  V30 975 C 92.5722 -0.525353 2.27513 0
M  V30 976 C 93.5532 -1.11383 1.2856 0
M  V30 977 O 94.7382 -1.13773 1.57383 0
M  V30 978 C 91.8682 -1.6831 3.03791 0
M  V30 979 C 90.8222 -1.2236 4.10137 0
M  V30 980 C 90.1482 -2.46882 4.74293 0
M  V30 981 C 91.4482 -0.333697 5.21233 0
M  V30 982 H 93.1422 0.087013 2.99274 0
M  V30 983 H 90.6882 0.0432893 1.43935 0
M  V30 984 H 92.6412 -2.28795 3.5388 0
M  V30 985 H 91.3652 -2.32216 2.29659 0
M  V30 986 H 90.0242 -0.64165 3.60941 0
M  V30 987 H 89.6722 -3.09165 3.96769 0
M  V30 988 H 89.3722 -2.16825 5.46133 0
M  V30 989 H 90.8962 -3.08117 5.27159 0
M  V30 990 H 92.3102 -0.845013 5.67038 0
M  V30 991 H 90.7072 -0.125612 5.99969 0
M  V30 992 H 91.7772 0.633724 4.80741 0
M  V30 993 N 93.1203 -1.57491 0.0584922 0
M  V30 994 C 94.0703 -2.08474 -0.923188 0
M  V30 995 C 95.0543 -0.991479 -1.26722 0
M  V30 996 O 96.2463 -1.25473 -1.24842 0
M  V30 997 C 93.3753 -2.6392 -2.19548 0
M  V30 998 C 92.4613 -3.80227 -1.87852 0
M  V30 999 N 92.8523 -4.89714 -1.26546 0
M  V30 1000 C 91.1503 -3.89271 -2.17679 0
M  V30 1001 C 91.8513 -5.70689 -1.12644 0
M  V30 1002 N 90.8273 -5.18531 -1.63176 0
M  V30 1003 H 94.6293 -2.90517 -0.444653 0
M  V30 1004 H 92.1433 -1.61745 -0.145764 0
M  V30 1005 H 94.1403 -2.98752 -2.9078 0
M  V30 1006 H 92.8003 -1.83318 -2.68001 0
M  V30 1007 H 93.8113 -5.09358 -0.936757 0
M  V30 1008 H 90.4883 -3.19623 -2.68602 0
M  V30 1009 H 91.8783 -6.6875 -0.6499 0
M  V30 1010 N 94.5984 0.214957 -1.56127 0
M  V30 1011 C 96.0144 0.564948 -1.49267 0
M  V30 1012 C 96.2144 1.86827 -0.754838 0
M  V30 1013 O 95.2704 2.50745 -0.297198 0
M  V30 1014 C 96.5834 0.638071 -2.93852 0
M  V30 1015 C 98.1314 0.728253 -3.0441 0
M  V30 1016 C 98.6064 0.832663 -4.50367 0
M  V30 1017 N 100.097 0.896712 -4.54437 0
M  V30 1018 C 100.832 0.997324 -5.6466 0
M  V30 1019 N 100.328 1.06147 -6.8462 0
M  V30 1020 N 102.121 1.03297 -5.52527 0
M  V30 1021 H 94.2724 -0.640211 -2.02522 0
M  V30 1022 H 96.5354 -0.225507 -0.920788 0
M  V30 1023 H 96.2414 -0.250126 -3.50809 0
M  V30 1024 H 96.1154 1.49947 -3.46115 0
M  V30 1025 H 98.5024 1.60689 -2.47514 0
M  V30 1026 H 98.5834 -0.158952 -2.55306 0
M  V30 1027 H 98.2274 -0.0415417 -5.07883 0
M  V30 1028 H 98.1574 1.73538 -4.97184 0
M  V30 1029 H 100.648 0.857188 -3.6805 0
M  V30 1030 H 100.961 1.1382 -7.64372 0
M  V30 1031 H 99.3064 1.03049 -6.87318 0
M  V30 1032 H 102.497 0.979558 -4.57736 0
M  V30 1033 H 102.67 1.10793 -6.38458 0
M  V30 1034 N 96.0765 1.50051 0.48192 0
M  V30 1035 C 97.0095 1.62749 1.59963 0
M  V30 1036 C 97.9875 0.475903 1.5548 0
M  V30 1037 O 99.1715 0.693986 1.7526 0
M  V30 1038 C 96.2985 1.60008 2.98522 0
M  V30 1039 C 95.3445 2.80596 3.21198 0
M  V30 1040 S 96.1775 4.42038 3.02262 0
M  V30 1041 C 97.3335 4.41973 4.43182 0
M  V30 1042 H 97.5665 2.57296 1.4895 0
M  V30 1043 H 95.0995 1.39179 0.668477 0
M  V30 1044 H 97.0575 1.59112 3.78409 0
M  V30 1045 H 95.7185 0.667153 3.06933 0
M  V30 1046 H 94.9115 2.74952 4.22395 0
M  V30 1047 H 94.5135 2.79003 2.49065 0
M  V30 1048 H 96.8055 4.14868 5.35622 0
M  V30 1049 H 97.7485 5.43512 4.53873 0
M  V30 1050 H 98.1565 3.71812 4.24755 0
M  V30 1051 N 97.5546 -0.734337 1.39446 0
M  V30 1052 C 98.5026 -1.86971 1.38364 0
M  V30 1053 C 99.4966 -1.67288 0.266687 0
M  V30 1054 O 100.703 -1.74621 0.436755 0
M  V30 1055 H 97.0776 -0.615474 0.432082 0
M  V30 1056 H 99.0486 -1.85 2.34132 0
M  V30 1057 C 97.7976 -3.2466 1.24465 0
M  V30 1058 H 97.1206 -3.40402 2.09682 0
M  V30 1059 H 98.5606 -4.04292 1.27764 0
M  V30 1060 C 97.0196 -3.36867 -0.0468674 0
M  V30 1061 O 97.5496 -3.88618 -1.01681 0
M  V30 1062 N 95.7556 -2.90391 -0.110145 0
M  V30 1063 H 95.3026 -2.48466 0.679868 0
M  V30 1064 H 95.2606 -2.98939 -0.973799 0
M  V30 1065 N 99.0327 -1.24633 -0.964593 0
M  V30 1066 C 100.449 -1.01239 -1.2338 0
M  V30 1067 C 100.649 0.2769 -1.99588 0
M  V30 1068 O 99.7047 0.992241 -2.32187 0
M  V30 1069 C 101.018 -2.22937 -2.01791 0
M  V30 1070 C 102.566 -2.27594 -2.14872 0
M  V30 1071 C 103.041 -3.48921 -2.96678 0
M  V30 1072 N 104.532 -3.49257 -3.04259 0
M  V30 1073 C 105.267 -4.39795 -3.67924 0
M  V30 1074 N 104.763 -5.40591 -4.33281 0
M  V30 1075 N 106.556 -4.275 -3.64966 0
M  V30 1076 H 98.7067 -2.0748 -0.454502 0
M  V30 1077 H 100.97 -0.910647 -0.26349 0
M  V30 1078 H 100.676 -3.16587 -1.53184 0
M  V30 1079 H 100.55 -2.25306 -3.02518 0
M  V30 1080 H 102.937 -1.34473 -2.6268 0
M  V30 1081 H 103.018 -2.2925 -1.13482 0
M  V30 1082 H 102.662 -4.42359 -2.49562 0
M  V30 1083 H 102.592 -3.4451 -3.98272 0
M  V30 1084 H 105.083 -2.76337 -2.57771 0
M  V30 1085 H 105.396 -6.05904 -4.79687 0
M  V30 1086 H 103.741 -5.44475 -4.3194 0
M  V30 1087 H 106.932 -3.47987 -3.13086 0
M  V30 1088 H 107.105 -4.98258 -4.14298 0
M  V30 1089 N 100.511 1.16574 -1.06058 0
M  V30 1090 C 101.421 2.2452 -0.680282 0
M  V30 1091 C 102.437 1.71348 0.302604 0
M  V30 1092 O 103.613 2.00822 0.152513 0
M  V30 1093 C 100.678 3.46629 -0.0700315 0
M  V30 1094 C 99.7388 4.14849 -1.10448 0
M  V30 1095 C 98.9718 5.31129 -0.523256 0
M  V30 1096 O 99.1948 5.66514 0.664709 0
M  V30 1097 O 98.1288 5.88526 -1.26179 0
M  V30 1098 H 101.955 2.59355 -1.58015 0
M  V30 1099 H 99.5398 1.24043 -0.832694 0
M  V30 1100 H 101.422 4.20543 0.268667 0
M  V30 1101 H 100.097 3.13573 0.803353 0
M  V30 1102 H 99.0038 3.42916 -1.49532 0
M  V30 1103 H 100.337 4.51954 -1.94931 0
M  V30 1104 N 101.989 0.842826 1.3317 0
M  V30 1105 C 102.899 0.281444 2.32906 0
M  V30 1106 C 103.915 -0.594587 1.63526 0
M  V30 1107 O 105.091 -0.49777 1.95152 0
M  V30 1108 C 102.156 -0.530929 3.42611 0
M  V30 1109 C 101.217 0.369843 4.27704 0
M  V30 1110 C 100.45 -0.403853 5.3217 0
M  V30 1111 O 100.673 -1.63513 5.46461 0
M  V30 1112 O 99.6069 0.224199 6.01482 0
M  V30 1113 H 103.433 1.10744 2.82789 0
M  V30 1114 H 101.018 0.60545 1.36582 0
M  V30 1115 H 102.9 -0.992437 4.09547 0
M  V30 1116 H 101.575 -1.33392 2.94938 0
M  V30 1117 H 100.482 0.879275 3.6362 0
M  V30 1118 H 101.815 1.13771 4.78871 0
M  V30 1119 N 103.467 -1.45747 0.599634 0
M  V30 1120 C 104.716 -2.01502 0.0893511 0
M  V30 1121 C 105.029 -1.4748 -1.28488 0
M  V30 1122 O 106.235 -1.95161 -1.88745 0
M  V30 1123 C 104.691 -3.59735 0.109082 0
M  V30 1124 C 104.299 -4.22754 1.48267 0
M  V30 1125 C 106.043 -4.23085 -0.346374 0
M  V30 1126 C 103.95 -5.73115 1.45921 0
M  V30 1127 H 102.88 -0.753417 0.0296347 0
M  V30 1128 H 105.531 -1.67303 0.753788 0
M  V30 1129 H 103.913 -3.91087 -0.621854 0
M  V30 1130 H 105.087 -4.02987 2.23468 0
M  V30 1131 H 103.402 -3.71567 1.87955 0
M  V30 1132 H 105.999 -5.33327 -0.38298 0
M  V30 1133 H 106.342 -3.93201 -1.36743 0
M  V30 1134 H 106.875 -3.9642 0.331038 0
M  V30 1135 H 103.614 -6.07685 2.45762 0
M  V30 1136 H 103.134 -5.95097 0.749665 0
M  V30 1137 H 104.813 -6.3616 1.17941 0
M  V30 1138 N 104.945 -0.338344 -1.53925 0
M  V30 1139 C 105.875 0.51328 -2.27789 0
M  V30 1140 C 106.856 1.107 -1.29149 0
M  V30 1141 O 108.041 1.12937 -1.57984 0
M  V30 1142 C 105.171 1.66697 -3.04679 0
M  V30 1143 C 104.125 1.20183 -4.1078 0
M  V30 1144 C 103.451 2.44363 -4.75595 0
M  V30 1145 C 104.751 0.30605 -5.21403 0
M  V30 1146 H 106.445 -0.102883 -2.99223 0
M  V30 1147 H 103.991 -0.0509219 -1.4391 0
M  V30 1148 H 105.944 2.26915 -3.55088 0
M  V30 1149 H 104.668 2.30995 -2.30887 0
M  V30 1150 H 103.327 0.622499 -3.61276 0
M  V30 1151 H 102.975 3.07057 -3.98403 0
M  V30 1152 H 102.675 2.13925 -5.47275 0
M  V30 1153 H 104.199 3.05317 -5.28786 0
M  V30 1154 H 105.613 0.814929 -5.67478 0
M  V30 1155 H 104.01 0.0937929 -6.00027 0
M  V30 1156 H 105.08 -0.65921 -4.80398 0
M  V30 1157 N 106.423 1.57458 -0.0668435 0
M  V30 1158 C 107.386 2.11323 0.887422 0
M  V30 1159 C 108.386 1.03618 1.22964 0
M  V30 1160 O 109.576 1.29626 1.16373 0
M  V30 1161 C 106.708 2.61048 2.19242 0
M  V30 1162 H 107.901 2.96942 0.420194 0
M  V30 1163 H 105.454 1.55239 0.181793 0
M  V30 1164 H 106.189 1.78868 2.70512 0
M  V30 1165 H 105.974 3.39769 1.95702 0
M  V30 1166 H 107.464 3.02814 2.87565 0
M  V30 1167 N 107.901 -0.206675 1.56239 0
M  V30 1168 C 109.148 -0.928842 1.79941 0
M  V30 1169 C 109.476 -1.83734 0.638131 0
M  V30 1170 O 108.731 -1.92039 -0.376746 0
M  V30 1171 C 109.03 -1.78675 3.09532 0
M  V30 1172 C 108.696 -1.03022 4.38973 0
M  V30 1173 C 107.358 -0.821302 4.74139 0
M  V30 1174 C 109.71 -0.497081 5.18824 0
M  V30 1175 C 107.038 -0.0675719 5.86661 0
M  V30 1176 C 109.39 0.24338 6.32132 0
M  V30 1177 C 108.054 0.463422 6.65889 0
M  V30 1178 H 107.324 -0.339887 0.658451 0
M  V30 1179 H 109.971 -0.195977 1.90495 0
M  V30 1180 H 108.276 -2.58794 2.94165 0
M  V30 1181 H 109.973 -2.34792 3.25075 0
M  V30 1182 H 106.563 -1.20306 4.11369 0
M  V30 1183 H 110.747 -0.645921 4.92079 0
M  V30 1184 H 106.003 0.112995 6.11296 0
M  V30 1185 H 110.177 0.66393 6.93228 0
M  V30 1186 H 107.804 1.04938 7.52922 0
M  V30 1187 N 109.379 -1.50304 -0.473955 0
M  V30 1188 C 110.628 -1.60392 -1.22301 0
M  V30 1189 C 110.941 -0.308411 -1.93153 0
M  V30 1190 O 112.147 -0.288156 -2.69966 0
M  V30 1191 C 110.603 -2.83109 -2.2221 0
M  V30 1192 C 110.211 -4.19524 -1.57173 0
M  V30 1193 C 111.955 -3.0254 -2.97775 0
M  V30 1194 C 109.862 -5.33431 -2.55353 0
M  V30 1195 H 108.792 -0.597286 -0.460179 0
M  V30 1196 H 111.443 -1.76731 -0.493803 0
M  V30 1197 H 109.825 -2.60322 -2.9841 0
M  V30 1198 H 110.999 -4.52554 -0.867824 0
M  V30 1199 H 109.314 -4.05674 -0.939002 0
M  V30 1200 H 111.911 -3.84811 -3.71248 0
M  V30 1201 H 112.254 -2.14154 -3.56992 0
M  V30 1202 H 112.787 -3.25494 -2.28688 0
M  V30 1203 H 109.526 -6.23962 -2.00878 0
M  V30 1204 H 109.046 -5.04823 -3.23904 0
M  V30 1205 H 110.725 -5.63887 -3.17239 0
M  V30 1206 N 110.857 0.726932 -1.39834 0
M  V30 1207 C 111.804 1.841 -1.39197 0
M  V30 1208 C 112.774 1.642 -0.250502 0
M  V30 1209 O 113.959 1.85494 -0.446846 0
M  V30 1210 C 111.099 3.21697 -1.24919 0
M  V30 1211 C 110.212 3.53247 -2.48678 0
M  V30 1212 C 109.347 4.80289 -2.26928 0
M  V30 1213 C 108.386 5.04707 -3.4632 0
M  V30 1214 N 107.523 6.22956 -3.23836 0
M  V30 1215 H 112.363 1.83979 -2.34427 0
M  V30 1216 H 109.9 0.898876 -1.16442 0
M  V30 1217 H 111.858 4.01137 -1.1465 0
M  V30 1218 H 110.488 3.21076 -0.333153 0
M  V30 1219 H 109.54 2.68447 -2.69519 0
M  V30 1220 H 110.852 3.67205 -3.37582 0
M  V30 1221 H 110.006 5.67725 -2.13947 0
M  V30 1222 H 108.745 4.68519 -1.35431 0
M  V30 1223 H 107.75 4.1573 -3.5979 0
M  V30 1224 H 108.975 5.18357 -4.38729 0
M  V30 1225 H 106.921 6.12459 -2.35011 0
M  V30 1226 H 106.838 6.37539 -4.063 0
M  V30 1227 H 108.106 7.1321 -3.14566 0
M  V30 1228 N 112.336 1.25143 0.95797 0
M  V30 1229 C 113.561 1.12521 1.74223 0
M  V30 1230 C 113.986 -0.317402 1.85403 0
M  V30 1231 O 113.344 -1.2299 1.33204 0
M  V30 1232 C 113.392 1.78062 3.1357 0
M  V30 1233 O 112.496 1.058 3.98598 0
M  V30 1234 H 111.837 0.39304 0.535178 0
M  V30 1235 H 114.367 1.65641 1.201 0
M  V30 1236 H 114.377 1.84213 3.64046 0
M  V30 1237 H 113.052 2.83021 3.04749 0
M  V30 1238 H 111.629 1.07506 3.57067 0
M  V30 1239 N 113.814 -1.1601 1.06675 0
M  V30 1240 C 115.054 -1.88304 0.795037 0
M  V30 1241 C 115.418 -1.80062 -0.666466 0
M  V30 1242 O 116.619 -2.47319 -1.05293 0
M  V30 1243 C 114.89 -3.33664 1.28076 0
M  V30 1244 S 116.449 -4.23768 1.13868 0
M  V30 1245 H 113.267 -0.649928 0.288296 0
M  V30 1246 H 115.869 -1.4001 1.36445 0
M  V30 1247 H 114.573 -3.37203 2.33927 0
M  V30 1248 H 114.104 -3.87009 0.706253 0
M  V30 1249 H 116.119 -4.96148 0.0719668 0
M  V30 1250 N 115.292 -0.849877 -1.32721 0
M  V30 1251 C 116.224 -0.248332 -2.27851 0
M  V30 1252 C 117.237 0.577218 -1.52224 0
M  V30 1253 O 118.426 0.402489 -1.73903 0
M  V30 1254 C 115.526 0.668107 -3.32249 0
M  V30 1255 C 114.699 -0.120534 -4.37234 0
M  V30 1256 C 113.758 0.720932 -5.21238 0
M  V30 1257 O 112.784 0.156166 -5.68986 0
M  V30 1258 N 113.986 2.03647 -5.43607 0
M  V30 1259 H 116.751 -1.06575 -2.80111 0
M  V30 1260 H 114.312 -0.709395 -1.45531 0
M  V30 1261 H 116.304 1.23627 -3.85355 0
M  V30 1262 H 114.874 1.38621 -2.80184 0
M  V30 1263 H 114.094 -0.870108 -3.84477 0
M  V30 1264 H 115.382 -0.662406 -5.0447 0
M  V30 1265 H 114.78 2.51871 -5.06535 0
M  V30 1266 H 113.337 2.55287 -5.99727 0
M  V30 1267 N 116.77 1.45427 -0.607355 0
M  V30 1268 C 117.72 2.27612 0.133038 0
M  V30 1269 C 118.704 1.37307 0.838785 0
M  V30 1270 O 119.896 1.61299 0.728813 0
M  V30 1271 C 117.025 3.24173 1.12991 0
M  V30 1272 C 116.111 4.21965 0.425011 0
M  V30 1273 N 116.502 5.02982 -0.533217 0
M  V30 1274 C 114.8 4.40899 0.672593 0
M  V30 1275 C 115.501 5.73931 -0.947518 0
M  V30 1276 N 114.477 5.42819 -0.291321 0
M  V30 1277 H 118.279 2.87649 -0.602935 0
M  V30 1278 H 115.793 1.56576 -0.431006 0
M  V30 1279 H 117.79 3.81783 1.67473 0
M  V30 1280 H 116.45 2.65696 1.86644 0
M  V30 1281 H 117.461 5.09843 -0.90995 0
M  V30 1282 H 114.138 3.93547 1.39382 0
M  V30 1283 H 115.528 6.49037 -1.73782 0
M  V30 1284 N 118.248 0.346503 1.53744 0
M  V30 1285 C 119.158 -0.517293 2.28826 0
M  V30 1286 C 120.174 -1.10935 1.3405 0
M  V30 1287 O 121.35 -1.1244 1.6709 0
M  V30 1288 C 118.415 -1.65098 3.04866 0
M  V30 1289 C 117.476 -1.0884 4.15274 0
M  V30 1290 C 116.709 -2.16806 4.87679 0
M  V30 1291 O 116.932 -3.3758 4.59778 0
M  V30 1292 O 115.866 -1.80934 5.74061 0
M  V30 1293 H 119.692 0.0931396 3.03557 0
M  V30 1294 H 117.277 0.111458 1.48984 0
M  V30 1295 H 119.159 -2.31053 3.5241 0
M  V30 1296 H 117.834 -2.24717 2.32989 0
M  V30 1297 H 116.741 -0.3933 3.72027 0
M  V30 1298 H 118.074 -0.537036 4.89261 0
M  V30 1299 N 119.726 -1.57421 0.075193 0
M  V30 1300 C 120.966 -1.95495 -0.596757 0
M  V30 1301 C 121.33 -0.954886 -1.66571 0
M  V30 1302 O 122.531 -1.22341 -2.39345 0
M  V30 1303 C 120.802 -3.382 -1.15566 0
M  V30 1304 S 122.361 -3.98254 -1.84226 0
M  V30 1305 H 119.179 -0.683649 -0.195307 0
M  V30 1306 H 121.781 -1.94925 0.149859 0
M  V30 1307 H 120.485 -4.08766 -0.36588 0
M  V30 1308 H 120.016 -3.42321 -1.93856 0
M  V30 1309 H 122.031 -3.85435 -3.12497 0
M  V30 1310 N 121.204 0.198386 -1.56346 0
M  V30 1311 C 122.452 0.91747 -1.80075 0
M  V30 1312 C 122.773 1.83929 -0.647692 0
M  V30 1313 O 122.043 1.93029 0.334166 0
M  V30 1314 H 120.623 0.341774 -0.664228 0
M  V30 1315 H 123.285 0.204684 -1.93822 0
M  V30 1316 H 122.381 1.51055 -2.7311 0
M  V30 1317 N 122.682 1.50554 0.465978 0
M  V30 1318 C 123.93 1.61479 1.21528 0
M  V30 1319 C 124.251 0.319596 1.92363 0
M  V30 1320 O 123.521 -0.663194 1.84333 0
M  V30 1321 H 122.101 0.595055 0.451573 0
M  V30 1322 H 124.763 1.87355 0.53704 0
M  V30 1323 H 123.859 2.42846 1.96042 0
M  V30 1324 N 124.16 -0.719506 1.40217 0
M  V30 1325 C 125.409 -1.47486 1.37589 0
M  V30 1326 C 125.722 -1.9559 -0.0201568 0
M  V30 1327 O 126.928 -2.70973 -0.169049 0
M  V30 1328 C 125.384 -2.66575 2.41796 0
M  V30 1329 C 124.992 -2.25358 3.87192 0
M  V30 1330 C 126.736 -3.4433 2.48269 0
M  V30 1331 C 124.643 -3.41262 4.83005 0
M  V30 1332 H 123.573 -0.553901 0.511576 0
M  V30 1333 H 126.224 -0.783427 1.65936 0
M  V30 1334 H 124.606 -3.3787 2.06543 0
M  V30 1335 H 125.78 -1.61509 4.31569 0
M  V30 1336 H 124.095 -1.60657 3.84159 0
M  V30 1337 H 126.692 -4.30569 3.17041 0
M  V30 1338 H 127.035 -3.87872 1.51198 0
M  V30 1339 H 127.568 -2.80076 2.82493 0
M  V30 1340 H 124.307 -3.02755 5.81394 0
M  V30 1341 H 123.827 -4.0404 4.43297 0
M  V30 1342 H 125.506 -4.07383 5.02641 0
M  V30 1343 N 125.638 -1.25649 -0.95132 0
M  V30 1344 C 126.863 -1.13443 -1.73624 0
M  V30 1345 C 127.288 0.307565 -1.85568 0
M  V30 1346 O 126.646 1.22282 -1.33854 0
M  V30 1347 C 126.694 -1.79723 -3.12621 0
M  V30 1348 O 125.798 -1.07912 -3.98031 0
M  V30 1349 H 125.139 -0.395872 -0.533086 0
M  V30 1350 H 127.669 -1.66276 -1.1922 0
M  V30 1351 H 127.679 -1.86141 -3.63064 0
M  V30 1352 H 126.354 -2.84633 -3.03244 0
M  V30 1353 H 124.931 -1.09398 -3.56492 0
M  V30 1354 N 127.117 1.15442 -1.07289 0
M  V30 1355 C 128.08 2.18358 -0.696591 0
M  V30 1356 C 129.08 1.58637 0.262837 0
M  V30 1357 O 130.27 1.74145 0.0438809 0
M  V30 1358 C 127.402 3.4089 -0.0266151 0
M  V30 1359 H 128.595 2.53162 -1.60776 0
M  V30 1360 H 126.148 1.29893 -0.869342 0
M  V30 1361 H 126.883 3.11653 0.896822 0
M  V30 1362 H 126.668 3.85495 -0.716657 0
M  V30 1363 H 128.158 4.17009 0.222028 0
M  V30 1364 N 128.595 0.856903 1.32268 0
M  V30 1365 C 129.82 0.474569 2.01897 0
M  V30 1366 C 130.245 -0.921766 1.63967 0
M  V30 1367 O 129.603 -1.60589 0.84148 0
M  V30 1368 C 129.651 0.623799 3.55164 0
M  V30 1369 O 128.755 -0.342459 4.10976 0
M  V30 1370 H 128.096 0.190422 0.63611 0
M  V30 1371 H 130.626 1.15672 1.68764 0
M  V30 1372 H 130.636 0.512169 4.04773 0
M  V30 1373 H 129.311 1.64202 3.82113 0
M  V30 1374 H 127.888 -0.18688 3.72431 0
M  V30 1375 N 130.073 -1.45103 0.615059 0
M  V30 1376 C 131.322 -2.01396 0.110718 0
M  V30 1377 C 131.635 -1.48834 -1.26916 0
M  V30 1378 O 132.841 -1.97152 -1.86664 0
M  V30 1379 C 131.297 -3.59599 0.14723 0
M  V30 1380 C 130.905 -4.21158 1.52743 0
M  V30 1381 C 132.649 -4.23428 -0.30148 0
M  V30 1382 C 130.556 -5.71535 1.51992 0
M  V30 1383 H 129.486 -0.753061 0.0376241 0
M  V30 1384 H 132.137 -1.66494 0.77149 0
M  V30 1385 H 130.519 -3.91724 -0.580339 0
M  V30 1386 H 131.693 -4.00594 2.2773 0
M  V30 1387 H 130.008 -3.69552 1.91886 0
M  V30 1388 H 132.605 -5.33703 -0.326392 0
M  V30 1389 H 132.948 -3.94629 -1.32565 0
M  V30 1390 H 133.481 -3.96047 0.373065 0
M  V30 1391 H 130.22 -6.05044 2.52193 0
M  V30 1392 H 129.74 -5.94268 0.81274 0
M  V30 1393 H 131.419 -6.34873 1.24681 0
M  V30 1394 N 131.551 -0.354651 -1.53558 0
M  V30 1395 C 132.799 0.237972 -2.00694 0
M  V30 1396 C 133.12 1.50173 -1.24391 0
M  V30 1397 O 132.39 1.92673 -0.354135 0
M  V30 1398 H 130.97 0.0909256 -0.741446 0
M  V30 1399 H 133.632 -0.478368 -1.88938 0
M  V30 1400 H 132.728 0.47264 -3.085 0
M  V30 1401 N 133.029 1.57378 -0.0835403 0
M  V30 1402 C 133.979 2.09916 0.889905 0
M  V30 1403 C 134.963 1.01151 1.25129 0
M  V30 1404 O 136.155 1.27443 1.2283 0
M  V30 1405 C 133.284 2.67379 2.15322 0
M  V30 1406 C 132.37 3.83167 1.81779 0
M  V30 1407 N 132.761 4.91665 1.18739 0
M  V30 1408 C 131.059 3.92685 2.11459 0
M  V30 1409 C 131.76 5.72409 1.0355 0
M  V30 1410 N 130.736 5.21062 1.54906 0
M  V30 1411 H 134.538 2.91188 0.398378 0
M  V30 1412 H 132.052 1.61956 0.120013 0
M  V30 1413 H 134.049 3.0334 2.8599 0
M  V30 1414 H 132.709 1.87558 2.65051 0
M  V30 1415 H 133.72 5.10784 0.855604 0
M  V30 1416 H 130.397 3.23856 2.63483 0
M  V30 1417 H 131.787 6.69699 0.543425 0
M  V30 1418 N 134.507 -0.190092 1.56449 0
M  V30 1419 C 135.784 -0.935886 1.71757 0
M  V30 1420 C 136.164 -2.01173 0.639726 0
M  V30 1421 O 135.512 -2.25827 -0.348502 0
M  V30 1422 C 135.722 -1.51775 3.1427 0
M  V30 1423 C 137.07 -1.99794 3.74656 0
M  V30 1424 O 138.094 -1.61607 3.1743 0
M  V30 1425 O 136.953 -2.70079 4.751 0
M  V30 1426 H 134.047 -0.439229 0.700719 0
M  V30 1427 H 136.593 -0.179395 1.68749 0
M  V30 1428 H 135.365 -0.742505 3.84191 0
M  V30 1429 H 134.988 -2.33894 3.21527 0
M  V30 1430 N 135.985 -1.50799 -0.457987 0
M  V30 1431 C 137.396 -1.55152 -1.0385 0
M  V30 1432 C 137.747 -0.362719 -1.92818 0
M  V30 1433 O 136.872 0.522915 -2.09987 0
M  V30 1434 C 137.467 -2.81173 -1.89017 0
M  V30 1435 C 136.026 -2.88164 -2.42154 0
M  V30 1436 C 135.173 -2.49591 -1.20829 0
M  V30 1437 H 138.124 -1.56874 -0.240068 0
M  V30 1438 H 138.145 -2.63769 -2.74238 0
M  V30 1439 H 137.657 -3.67677 -1.24238 0
M  V30 1440 H 135.758 -2.06042 -3.10447 0
M  V30 1441 H 135.871 -3.91356 -2.76364 0
M  V30 1442 H 134.235 -2.02322 -1.54719 0
M  V30 1443 H 135.018 -3.38418 -0.576927 0
M  V30 1444 N 137.463 0.71206 -1.40597 0
M  V30 1445 C 138.413 1.81783 -1.37619 0
M  V30 1446 C 139.397 1.58896 -0.253162 0
M  V30 1447 O 140.589 1.70009 -0.492547 0
M  V30 1448 C 137.718 3.19944 -1.24462 0
M  V30 1449 C 136.804 3.48582 -2.4156 0
M  V30 1450 N 137.195 3.48016 -3.67041 0
M  V30 1451 C 135.493 3.79056 -2.35016 0
M  V30 1452 C 136.194 3.75096 -4.44609 0
M  V30 1453 N 135.17 3.94022 -3.74497 0
M  V30 1454 H 138.972 1.79683 -2.32575 0
M  V30 1455 H 136.486 0.91134 -1.34419 0
M  V30 1456 H 138.483 3.99133 -1.20411 0
M  V30 1457 H 137.143 3.23267 -0.304762 0
M  V30 1458 H 138.154 3.28782 -4.00153 0
M  V30 1459 H 134.831 3.89848 -1.49415 0
M  V30 1460 H 136.221 3.80934 -5.53479 0
M  V30 1461 N 138.941 1.26152 0.944643 0
M  V30 1462 C 139.871 1.09902 2.06019 0
M  V30 1463 C 140.852 0.00519538 1.70099 0
M  V30 1464 O 142.037 0.176583 1.93396 0
M  V30 1465 C 139.167 0.727562 3.39594 0
M  V30 1466 C 138.121 1.77274 3.89561 0
M  V30 1467 C 137.447 1.25569 5.19747 0
M  V30 1468 C 138.747 3.17357 4.14827 0
M  V30 1469 H 140.441 2.03217 2.19871 0
M  V30 1470 H 137.987 0.978452 1.05652 0
M  V30 1471 H 139.94 0.600777 4.17095 0
M  V30 1472 H 138.664 -0.241287 3.25707 0
M  V30 1473 H 137.323 1.88814 3.14237 0
M  V30 1474 H 136.971 0.276783 5.02238 0
M  V30 1475 H 136.671 1.95433 5.54148 0
M  V30 1476 H 138.195 1.1415 5.99835 0
M  V30 1477 H 139.609 3.08914 4.82954 0
M  V30 1478 H 138.006 3.84781 4.60504 0
M  V30 1479 H 139.076 3.63673 3.20734 0
M  V30 1480 N 140.419 -1.14872 1.07899 0
M  V30 1481 C 141.349 -2.2193 0.725887 0
M  V30 1482 C 142.33 -1.67622 -0.28927 0
M  V30 1483 O 143.515 -1.93533 -0.160787 0
M  V30 1484 C 140.645 -3.47061 0.128856 0
M  V30 1485 C 139.599 -4.14363 1.07178 0
M  V30 1486 C 138.925 -5.33636 0.337229 0
M  V30 1487 C 140.225 -4.63492 2.40775 0
M  V30 1488 H 141.919 -2.51724 1.62097 0
M  V30 1489 H 139.465 -1.20991 0.780838 0
M  V30 1490 H 141.418 -4.21199 -0.130147 0
M  V30 1491 H 140.142 -3.16617 -0.80134 0
M  V30 1492 H 138.801 -3.42173 1.3158 0
M  V30 1493 H 138.449 -4.99449 -0.596606 0
M  V30 1494 H 138.149 -5.79609 0.965788 0
M  V30 1495 H 139.673 -6.10539 0.0861567 0
M  V30 1496 H 141.087 -5.2913 2.20669 0
M  V30 1497 H 139.484 -5.20148 2.99276 0
M  V30 1498 H 140.554 -3.78834 3.02676 0
M  V30 1499 N 141.898 -0.863906 -1.31812 0
M  V30 1500 C 143.128 -0.485406 -2.00817 0
M  V30 1501 C 143.536 0.925007 -1.65046 0
M  V30 1502 O 142.879 1.61653 -0.872574 0
M  V30 1503 C 142.941 -0.555589 -3.55181 0
M  V30 1504 C 142.605 -1.92654 -4.14407 0
M  V30 1505 C 143.602 -2.89324 -4.31958 0
M  V30 1506 C 141.287 -2.2262 -4.50273 0
M  V30 1507 C 143.281 -4.14108 -4.84555 0
M  V30 1508 C 140.968 -3.47654 -5.02573 0
M  V30 1509 C 141.966 -4.43214 -5.19664 0
M  V30 1510 O 141.654 -5.66033 -5.70843 0
M  V30 1511 H 141.386 -0.188224 -0.649267 0
M  V30 1512 H 143.94 -1.16514 -1.69156 0
M  V30 1513 H 142.17 0.181037 -3.86276 0
M  V30 1514 H 143.859 -0.19138 -4.05449 0
M  V30 1515 H 144.625 -2.6748 -4.04573 0
M  V30 1516 H 140.504 -1.4902 -4.3625 0
M  V30 1517 H 144.048 -4.88703 -4.9781 0
M  V30 1518 H 139.945 -3.69345 -5.29391 0
M  V30 1519 H 140.713 -5.6812 -5.89222 0
M  V30 1520 N 143.376 1.44774 -0.622745 0
M  V30 1521 C 144.604 2.06487 -0.130722 0
M  V30 1522 C 145.019 1.46476 1.19123 0
M  V30 1523 O 144.376 0.584502 1.72887 0
M  V30 1524 C 144.427 3.615 -0.000807207 0
M  V30 1525 O 144.148 4.19274 -1.27048 0
M  V30 1526 C 145.649 4.40229 0.520898 0
M  V30 1527 H 142.869 0.666704 -0.0758106 0
M  V30 1528 H 145.413 1.85779 -0.854774 0
M  V30 1529 H 143.568 3.81498 0.673643 0
M  V30 1530 H 143.982 5.12622 -1.1099 0
M  V30 1531 H 145.456 5.49144 0.560838 0
M  V30 1532 H 145.933 4.1108 1.54627 0
M  V30 1533 H 146.539 4.25131 -0.120018 0
M  V30 1534 N 144.854 0.36279 1.53368 0
M  V30 1535 C 145.784 -0.476976 2.28576 0
M  V30 1536 C 146.765 -1.08631 1.30894 0
M  V30 1537 O 147.95 -1.10409 1.59761 0
M  V30 1538 C 145.08 -1.61828 3.07293 0
M  V30 1539 C 144.034 -1.13633 4.1264 0
M  V30 1540 C 143.36 -2.36766 4.79423 0
M  V30 1541 C 144.66 -0.223061 5.21823 0
M  V30 1542 H 146.354 0.150474 2.99022 0
M  V30 1543 H 143.9 0.0738103 1.43811 0
M  V30 1544 H 145.853 -2.21237 3.58653 0
M  V30 1545 H 144.577 -2.27292 2.34533 0
M  V30 1546 H 143.236 -0.564945 3.62221 0
M  V30 1547 H 142.884 -3.0068 4.03238 0
M  V30 1548 H 142.584 -2.05192 5.50609 0
M  V30 1549 H 144.108 -2.96865 5.33576 0
M  V30 1550 H 145.522 -0.724545 5.68703 0
M  V30 1551 H 143.919 0.001678 6.001 0
M  V30 1552 H 144.989 0.735553 4.79289 0
M  V30 1553 N 146.332 -1.57332 0.0918853 0
M  V30 1554 C 147.557 -1.98995 -0.584442 0
M  V30 1555 C 147.982 -0.970528 -1.61128 0
M  V30 1556 O 147.34 0.0613904 -1.81196 0
M  V30 1557 C 147.388 -3.39636 -1.21161 0
M  V30 1558 O 146.492 -3.40447 -2.32744 0
M  V30 1559 H 145.833 -0.647165 -0.148572 0
M  V30 1560 H 148.363 -2.03873 0.172347 0
M  V30 1561 H 148.373 -3.7726 -1.55367 0
M  V30 1562 H 147.048 -4.13356 -0.459313 0
M  V30 1563 H 145.625 -3.14614 -2.0018 0
M  V30 1564 N 147.81 0.181792 -1.56548 0
M  V30 1565 C 148.773 1.20894 -1.94724 0
M  V30 1566 C 149.773 1.37738 -0.829747 0
M  V30 1567 O 150.963 1.35323 -1.09697 0
M  V30 1568 C 148.095 2.57593 -2.23291 0
M  V30 1569 H 149.288 0.882275 -2.86629 0
M  V30 1570 H 146.841 0.423838 -1.50444 0
M  V30 1571 H 147.576 2.95291 -1.34067 0
M  V30 1572 H 147.361 2.46735 -3.04736 0
M  V30 1573 H 148.851 3.31637 -2.53785 0
M  V30 1574 N 149.288 1.51039 0.449983 0
M  V30 1575 C 150.534 1.63322 1.20223 0
M  V30 1576 C 150.867 0.34241 1.91158 0
M  V30 1577 O 150.142 -0.657344 1.83055 0
M  V30 1578 C 150.425 2.82801 2.22925 0
M  V30 1579 C 150.278 4.21823 1.56157 0
M  V30 1580 C 151.597 2.97807 3.24035 0
M  V30 1581 H 148.716 0.594407 0.435718 0
M  V30 1582 H 151.358 1.83489 0.493136 0
M  V30 1583 H 149.508 2.65738 2.834 0
M  V30 1584 H 151.18 4.50526 0.991162 0
M  V30 1585 H 149.423 4.25105 0.864172 0
M  V30 1586 H 150.094 5.01391 2.30891 0
M  V30 1587 H 152.57 3.13497 2.73603 0
M  V30 1588 H 151.446 3.82992 3.93202 0
M  V30 1589 H 151.707 2.09328 3.89402 0
M  V30 1590 N 150.766 -0.704594 1.40972 0
M  V30 1591 C 151.698 -1.82974 1.38033 0
M  V30 1592 C 152.711 -1.60305 0.283931 0
M  V30 1593 O 153.9 -1.69975 0.545042 0
M  V30 1594 C 151 -3.19578 1.12795 0
M  V30 1595 C 150.173 -3.69352 2.34302 0
M  V30 1596 C 149.232 -4.84601 2.05058 0
M  V30 1597 O 148.258 -4.96682 2.7802 0
M  V30 1598 N 149.46 -5.71194 1.03528 0
M  V30 1599 H 152.225 -1.85991 2.35005 0
M  V30 1600 H 149.786 -0.886567 1.35468 0
M  V30 1601 H 151.778 -3.9429 0.911987 0
M  V30 1602 H 150.348 -3.11642 0.24452 0
M  V30 1603 H 149.568 -2.85649 2.71659 0
M  V30 1604 H 150.856 -3.99345 3.1528 0
M  V30 1605 H 150.254 -5.64054 0.431217 0
M  V30 1606 H 148.811 -6.45843 0.879205 0
M  V30 1607 N 152.244 -1.26651 -0.937939 0
M  V30 1608 C 153.493 -1.11775 -1.67897 0
M  V30 1609 C 153.806 0.33794 -1.92659 0
M  V30 1610 O 155.012 0.607434 -2.64618 0
M  V30 1611 C 153.468 -1.9523 -3.02346 0
M  V30 1612 C 153.076 -3.45393 -2.8532 0
M  V30 1613 C 154.82 -1.88972 -3.80118 0
M  V30 1614 C 152.727 -4.21083 -4.15263 0
M  V30 1615 H 151.657 -0.414696 -0.629717 0
M  V30 1616 H 154.308 -1.50988 -1.04283 0
M  V30 1617 H 152.69 -1.48853 -3.66959 0
M  V30 1618 H 153.864 -3.99561 -2.29537 0
M  V30 1619 H 152.179 -3.52921 -2.20988 0
M  V30 1620 H 154.776 -2.42805 -4.76392 0
M  V30 1621 H 155.119 -0.86113 -4.07296 0
M  V30 1622 H 155.652 -2.33189 -3.22285 0
M  V30 1623 H 152.391 -5.24425 -3.93267 0
M  V30 1624 H 151.911 -3.71695 -4.70747 0
M  V30 1625 H 153.59 -4.29706 -4.83696 0
M  V30 1626 N 153.722 1.14298 -1.08507 0
M  V30 1627 C 154.652 2.21542 -0.737646 0
M  V30 1628 C 155.633 1.67773 0.280377 0
M  V30 1629 O 156.818 1.93616 0.150521 0
M  V30 1630 C 153.948 3.46988 -0.147259 0
M  V30 1631 C 152.902 4.13789 -1.09374 0
M  V30 1632 C 152.228 5.33449 -0.365524 0
M  V30 1633 C 153.528 4.62208 -2.4323 0
M  V30 1634 H 155.222 2.5086 -1.6343 0
M  V30 1635 H 152.768 1.20576 -0.787243 0
M  V30 1636 H 154.721 4.21262 0.107808 0
M  V30 1637 H 153.445 3.17037 0.784538 0
M  V30 1638 H 152.104 3.4147 -1.33393 0
M  V30 1639 H 151.752 4.99759 0.57011 0
M  V30 1640 H 151.452 5.79088 -0.996512 0
M  V30 1641 H 152.976 6.10485 -0.118534 0
M  V30 1642 H 154.39 5.27952 -2.23472 0
M  V30 1643 H 152.787 5.18553 -3.02031 0
M  V30 1644 H 153.857 3.77224 -3.04681 0
M  V30 1645 N 155.201 0.870884 1.31352 0
M  V30 1646 C 156.429 0.49677 2.00848 0
M  V30 1647 C 156.844 -0.910998 1.65367 0
M  V30 1648 O 156.201 -1.59696 0.883374 0
M  V30 1649 C 156.252 0.645308 3.55694 0
M  V30 1650 O 155.973 1.99764 3.89905 0
M  V30 1651 C 157.474 0.272326 4.42463 0
M  V30 1652 H 154.694 0.193462 0.642506 0
M  V30 1653 H 157.238 1.1723 1.67563 0
M  V30 1654 H 155.393 0.0173176 3.87396 0
M  V30 1655 H 155.807 2.00607 4.84621 0
M  V30 1656 H 157.281 0.427208 5.50344 0
M  V30 1657 H 157.758 -0.788587 4.32062 0
M  V30 1658 H 158.364 0.876054 4.1618 0
M  V30 1659 N 156.679 -1.44442 0.630414 0
M  V30 1660 C 157.609 -2.33418 -0.0618083 0
M  V30 1661 C 158.59 -1.48165 -0.835541 0
M  V30 1662 O 159.775 -1.76886 -0.801564 0
M  V30 1663 C 156.905 -3.31222 -1.04449 0
M  V30 1664 C 155.859 -4.26288 -0.382436 0
M  V30 1665 C 155.185 -5.13954 -1.47497 0
M  V30 1666 C 156.485 -5.1744 0.710865 0
M  V30 1667 H 158.179 -2.91548 0.681184 0
M  V30 1668 H 155.725 -1.40191 0.329026 0
M  V30 1669 H 157.678 -3.92351 -1.53748 0
M  V30 1670 H 156.402 -2.71299 -1.81836 0
M  V30 1671 H 155.061 -3.6649 0.0899054 0
M  V30 1672 H 154.709 -4.50385 -2.2397 0
M  V30 1673 H 154.409 -5.7837 -1.03737 0
M  V30 1674 H 155.933 -5.77955 -1.96979 0
M  V30 1675 H 157.347 -5.72509 0.300996 0
M  V30 1676 H 155.744 -5.90455 1.07156 0
M  V30 1677 H 156.814 -4.58496 1.57829 0
M  V30 1678 N 158.157 -0.370918 -1.53173 0
M  V30 1679 C 159.387 0.217389 -2.05453 0
M  V30 1680 C 159.795 1.42568 -1.24382 0
M  V30 1681 O 159.138 1.81571 -0.278839 0
M  V30 1682 C 159.2 0.669827 -3.53205 0
M  V30 1683 C 158.864 -0.4225 -4.55043 0
M  V30 1684 C 159.861 -1.27407 -5.04047 0
M  V30 1685 C 157.546 -0.58427 -4.9889 0
M  V30 1686 C 159.54 -2.27271 -5.95505 0
M  V30 1687 C 157.227 -1.58627 -5.90153 0
M  V30 1688 C 158.225 -2.42892 -6.38351 0
M  V30 1689 O 157.913 -3.41382 -7.27814 0
M  V30 1690 H 157.645 0.0408171 -0.674767 0
M  V30 1691 H 160.199 -0.5292 -1.98466 0
M  V30 1692 H 158.429 1.4681 -3.57748 0
M  V30 1693 H 160.118 1.18173 -3.88317 0
M  V30 1694 H 160.884 -1.16031 -4.70916 0
M  V30 1695 H 156.763 0.061851 -4.60959 0
M  V30 1696 H 160.307 -2.93079 -6.33049 0
M  V30 1697 H 156.204 -1.70048 -6.22699 0
M  V30 1698 H 156.972 -3.37173 -7.45826 0
M  V30 1699 N 159.635 1.57281 -0.100228 0
M  V30 1700 C 160.912 1.86014 0.604812 0
M  V30 1701 C 161.292 0.998025 1.86018 0
M  V30 1702 O 160.64 0.0718184 2.28387 0
M  V30 1703 C 160.85 3.36784 0.915278 0
M  V30 1704 C 162.198 4.04957 1.27651 0
M  V30 1705 O 163.222 3.41695 1.00613 0
M  V30 1706 O 162.081 5.16593 1.7831 0
M  V30 1707 H 159.175 0.76942 0.303185 0
M  V30 1708 H 161.721 1.69176 -0.133313 0
M  V30 1709 H 160.493 3.91292 0.0248896 0
M  V30 1710 H 160.116 3.58987 1.70921 0
M  V30 1711 N 161.113 -0.173488 1.56642 0
M  V30 1712 C 162.338 -0.910149 1.86363 0
M  V30 1713 C 162.763 -1.75132 0.686318 0
M  V30 1714 O 162.121 -1.77595 -0.364643 0
M  V30 1715 C 162.169 -1.76447 3.14482 0
M  V30 1716 O 161.273 -2.86584 2.96553 0
M  V30 1717 H 160.614 -0.255086 0.613047 0
M  V30 1718 H 163.144 -0.172283 2.03873 0
M  V30 1719 H 163.154 -2.16483 3.45831 0
M  V30 1720 H 161.829 -1.14658 3.99783 0
M  V30 1721 H 160.406 -2.50146 2.76553 0
M  V30 1722 N 162.591 -1.51276 -0.441967 0
M  V30 1723 C 163.84 -1.6295 -1.18871 0
M  V30 1724 C 164.153 -0.349312 -1.92456 0
M  V30 1725 O 165.359 -0.345355 -2.69295 0
M  V30 1726 C 163.815 -2.87759 -2.16155 0
M  V30 1727 C 163.423 -4.22764 -1.48239 0
M  V30 1728 C 165.167 -3.08788 -2.91291 0
M  V30 1729 C 163.074 -5.38728 -2.4398 0
M  V30 1730 H 162.004 -0.606913 -0.447406 0
M  V30 1731 H 164.655 -1.77739 -0.456205 0
M  V30 1732 H 163.037 -2.66593 -2.92821 0
M  V30 1733 H 164.211 -4.54293 -0.771635 0
M  V30 1734 H 162.526 -4.07575 -0.852741 0
M  V30 1735 H 165.123 -3.92599 -3.63002 0
M  V30 1736 H 165.466 -2.21679 -3.5237 0
M  V30 1737 H 165.999 -3.30272 -2.21733 0
M  V30 1738 H 162.738 -6.28082 -1.87598 0
M  V30 1739 H 162.258 -5.1158 -3.13123 0
M  V30 1740 H 163.937 -5.70489 -3.05207 0
M  V30 1741 N 164.069 0.697108 -1.41344 0
M  V30 1742 C 165.017 1.83237 -1.43272 0
M  V30 1743 C 166.011 1.66522 -0.310947 0
M  V30 1744 O 167.217 1.73402 -0.482899 0
M  V30 1745 H 163.592 0.603802 -0.448249 0
M  V30 1746 H 165.563 1.78727 -2.38954 0
M  V30 1747 C 164.312 3.21245 -1.33029 0
M  V30 1748 H 163.635 3.34723 -2.18633 0
M  V30 1749 H 165.075 4.00763 -1.38439 0
M  V30 1750 C 163.534 3.36873 -0.0424635 0
M  V30 1751 O 164.064 3.91177 0.913421 0
M  V30 1752 N 162.27 2.90581 0.0331145 0
M  V30 1753 H 161.817 2.46577 -0.745506 0
M  V30 1754 H 161.775 3.01416 0.894199 0
M  V30 1755 N 165.547 1.27147 0.931209 0
M  V30 1756 C 166.793 1.13446 1.68101 0
M  V30 1757 C 167.126 -0.319628 1.91552 0
M  V30 1758 O 166.401 -1.23407 1.50336 0
M  V30 1759 C 166.684 1.91482 3.0497 0
M  V30 1760 C 166.537 3.44855 2.88782 0
M  V30 1761 C 167.856 1.71651 4.05246 0
M  V30 1762 H 164.975 0.413498 0.610072 0
M  V30 1763 H 167.617 1.56261 1.08086 0
M  V30 1764 H 165.767 1.55095 3.56199 0
M  V30 1765 H 167.439 3.9105 2.44698 0
M  V30 1766 H 165.682 3.71373 2.24198 0
M  V30 1767 H 166.353 3.94694 3.85902 0
M  V30 1768 H 168.829 2.0337 3.63015 0
M  V30 1769 H 167.705 2.28651 4.99009 0
M  V30 1770 H 167.966 0.663555 4.37092 0
M  V30 1771 N 167.025 -1.13721 1.09112 0
M  V30 1772 C 168.274 -1.84275 0.82009 0
M  V30 1773 C 168.587 -1.84253 -0.656509 0
M  V30 1774 O 169.793 -2.50668 -1.04296 0
M  V30 1775 C 168.249 -3.30825 1.41714 0
M  V30 1776 C 167.857 -3.39244 2.92605 0
M  V30 1777 C 169.601 -4.06443 1.22492 0
M  V30 1778 C 167.508 -4.80047 3.45411 0
M  V30 1779 H 166.438 -0.690387 0.30312 0
M  V30 1780 H 169.089 -1.28146 1.31343 0
M  V30 1781 H 167.471 -3.86737 0.851498 0
M  V30 1782 H 168.645 -2.93344 3.55367 0
M  V30 1783 H 166.96 -2.77088 3.10823 0
M  V30 1784 H 169.557 -5.10387 1.59402 0
M  V30 1785 H 169.9 -4.15972 0.165299 0
M  V30 1786 H 170.433 -3.56852 1.75788 0
M  V30 1787 H 167.172 -4.75709 4.50978 0
M  V30 1788 H 166.692 -5.26455 2.87411 0
M  V30 1789 H 168.371 -5.48957 3.42425 0
M  V30 1790 N 168.503 -0.877838 -1.30888 0
M  V30 1791 C 169.78 -0.413052 -1.91189 0
M  V30 1792 C 170.16 1.1056 -1.79832 0
M  V30 1793 O 169.508 1.93771 -1.21099 0
M  V30 1794 C 169.718 -0.903191 -3.3711 0
M  V30 1795 C 171.066 -0.93395 -4.14201 0
M  V30 1796 O 172.09 -0.849373 -3.45925 0
M  V30 1797 O 170.949 -1.05772 -5.36167 0
M  V30 1798 H 168.043 -0.125035 -0.817493 0
M  V30 1799 H 170.589 -0.966269 -1.39504 0
M  V30 1800 H 169.361 -1.94692 -3.39427 0
M  V30 1801 H 168.984 -0.328732 -3.96239 0
M  V30 1802 N 169.982 1.44106 -0.638065 0
M  V30 1803 C 171.228 2.02277 -0.145546 0
M  V30 1804 C 171.561 1.50125 1.23191 0
M  V30 1805 O 170.836 0.688133 1.8192 0
M  V30 1806 C 171.119 3.59829 -0.139791 0
M  V30 1807 C 170.972 4.22247 -1.55008 0
M  V30 1808 C 172.291 4.36873 0.531966 0
M  V30 1809 H 169.41 0.734992 -0.0543632 0
M  V30 1810 H 172.052 1.71592 -0.815863 0
M  V30 1811 H 170.202 3.86102 0.431007 0
M  V30 1812 H 171.874 4.07057 -2.1703 0
M  V30 1813 H 170.117 3.79476 -2.10191 0
M  V30 1814 H 170.788 5.31284 -1.49804 0
M  V30 1815 H 173.264 4.16074 0.0464781 0
M  V30 1816 H 172.14 5.4657 0.505206 0
M  V30 1817 H 172.401 4.11995 1.60352 0
M  V30 1818 N 171.46 0.379036 1.52974 0
M  V30 1819 C 172.408 -0.476033 2.27677 0
M  V30 1820 C 173.402 -1.0719 1.31174 0
M  V30 1821 O 174.608 -1.01355 1.48752 0
M  V30 1822 H 170.983 -0.172255 0.732006 0
M  V30 1823 H 172.954 0.175615 2.97883 0
M  V30 1824 C 171.703 -1.5967 3.0887 0
M  V30 1825 H 171.026 -1.1475 3.82978 0
M  V30 1826 H 172.466 -2.16943 3.64296 0
M  V30 1827 C 170.925 -2.54682 2.20542 0
M  V30 1828 O 171.455 -3.57836 1.82527 0
M  V30 1829 N 169.661 -2.24183 1.84907 0
M  V30 1830 H 169.208 -1.40333 2.1602 0
M  V30 1831 H 169.166 -2.88006 1.26096 0
M  V30 1832 N 172.938 -1.57226 0.108567 0
M  V30 1833 C 173.885 -2.14756 -0.845481 0
M  V30 1834 C 174.855 -1.06971 -1.27068 0
M  V30 1835 O 176.04 -1.34827 -1.35005 0
M  V30 1836 C 173.18 -2.74298 -2.09415 0
M  V30 1837 C 172.293 -3.96358 -1.71826 0
M  V30 1838 C 171.428 -4.44021 -2.9158 0
M  V30 1839 C 170.467 -5.58637 -2.50181 0
M  V30 1840 N 169.604 -6.01091 -3.62814 0
M  V30 1841 H 174.444 -2.95961 -0.348035 0
M  V30 1842 H 171.981 -1.46226 -0.160106 0
M  V30 1843 H 173.939 -3.06945 -2.82561 0
M  V30 1844 H 172.569 -1.95801 -2.56636 0
M  V30 1845 H 171.621 -3.69939 -0.885947 0
M  V30 1846 H 172.933 -4.79504 -1.37394 0
M  V30 1847 H 172.087 -4.78522 -3.72963 0
M  V30 1848 H 170.826 -3.59803 -3.29231 0
M  V30 1849 H 169.831 -5.23751 -1.67228 0
M  V30 1850 H 171.056 -6.44613 -2.13659 0
M  V30 1851 H 169.002 -5.19817 -4.00158 0
M  V30 1852 H 168.919 -6.79066 -3.32273 0
M  V30 1853 H 170.187 -6.40227 -4.44668 0
M  V30 1854 N 174.416 0.165178 -1.56732 0
M  V30 1855 C 175.662 0.882112 -1.82611 0
M  V30 1856 C 175.995 1.81628 -0.687378 0
M  V30 1857 O 175.27 1.92009 0.310267 0
M  V30 1858 C 175.553 1.67245 -3.18906 0
M  V30 1859 C 175.406 0.760987 -4.43316 0
M  V30 1860 C 176.725 2.63884 -3.52212 0
M  V30 1861 H 173.844 0.319242 -0.664269 0
M  V30 1862 H 176.486 0.148052 -1.89422 0
M  V30 1863 H 174.636 2.29824 -3.1323 0
M  V30 1864 H 176.308 0.147596 -4.61064 0
M  V30 1865 H 174.551 0.0694102 -4.33744 0
M  V30 1866 H 175.222 1.34962 -5.35247 0
M  V30 1867 H 177.698 2.11429 -3.58381 0
M  V30 1868 H 176.574 3.16245 -4.48643 0
M  V30 1869 H 176.835 3.44377 -2.77231 0
M  V30 1870 N 175.894 1.51508 0.433938 0
M  V30 1871 C 177.14 1.64588 1.18484 0
M  V30 1872 C 177.473 0.362666 1.90784 0
M  V30 1873 O 176.748 -0.637892 1.83742 0
M  V30 1874 C 177.031 2.85149 2.19913 0
M  V30 1875 C 176.884 4.23456 1.51674 0
M  V30 1876 C 178.203 3.01227 3.20858 0
M  V30 1877 H 175.322 0.598994 0.429389 0
M  V30 1878 H 177.964 1.84002 0.473647 0
M  V30 1879 H 176.114 2.68729 2.80566 0
M  V30 1880 H 177.786 4.51552 0.943322 0
M  V30 1881 H 176.029 4.25998 0.819035 0
M  V30 1882 H 176.7 5.03812 2.2556 0
M  V30 1883 H 179.176 3.16382 2.70263 0
M  V30 1884 H 178.052 3.87141 3.89118 0
M  V30 1885 H 178.313 2.13447 3.8716 0
M  V30 1886 N 177.372 -0.689602 1.41712 0
M  V30 1887 C 178.282 -1.83314 1.46401 0
M  V30 1888 C 179.298 -1.7036 0.35405 0
M  V30 1889 O 180.474 -1.92171 0.602692 0
M  V30 1890 C 177.539 -3.19344 1.34982 0
M  V30 1891 C 176.6 -3.44363 2.56344 0
M  V30 1892 C 175.833 -4.73904 2.45461 0
M  V30 1893 O 176.056 -5.508 1.48241 0
M  V30 1894 O 174.99 -4.99839 3.35328 0
M  V30 1895 H 178.816 -1.82314 2.42889 0
M  V30 1896 H 176.401 -0.843438 1.23315 0
M  V30 1897 H 178.283 -4.00547 1.3092 0
M  V30 1898 H 176.958 -3.21014 0.41612 0
M  V30 1899 H 175.865 -2.63067 2.65982 0
M  V30 1900 H 177.198 -3.47512 3.48563 0
M  V30 1901 N 178.85 -1.27639 -0.924453 0
M  V30 1902 C 180.08 -1.16819 -1.70402 0
M  V30 1903 C 180.488 0.277191 -1.87158 0
M  V30 1904 O 179.831 1.20025 -1.39067 0
M  V30 1905 C 179.893 -1.78305 -3.12166 0
M  V30 1906 C 179.557 -3.27502 -3.18734 0
M  V30 1907 C 180.554 -4.2409 -3.00738 0
M  V30 1908 C 178.239 -3.68269 -3.4159 0
M  V30 1909 C 180.233 -5.59422 -3.05492 0
M  V30 1910 C 177.92 -5.0373 -3.45977 0
M  V30 1911 C 178.918 -5.99116 -3.27946 0
M  V30 1912 O 178.606 -7.32108 -3.32074 0
M  V30 1913 H 178.338 -0.406931 -0.539799 0
M  V30 1914 H 180.892 -1.69078 -1.16626 0
M  V30 1915 H 179.122 -1.20528 -3.67437 0
M  V30 1916 H 180.811 -1.62154 -3.72103 0
M  V30 1917 H 181.577 -3.93931 -2.82919 0
M  V30 1918 H 177.456 -2.94496 -3.54673 0
M  V30 1919 H 181 -6.33852 -2.91337 0
M  V30 1920 H 176.897 -5.33543 -3.63321 0
M  V30 1921 H 177.665 -7.40598 -3.48507 0
M  V30 1922 N 180.328 1.1314 -1.09713 0
M  V30 1923 C 181.574 1.84757 -0.836224 0
M  V30 1924 C 181.907 1.8347 0.636598 0
M  V30 1925 O 181.182 1.27491 1.46889 0
M  V30 1926 C 181.465 3.32782 -1.37578 0
M  V30 1927 C 181.318 3.42567 -2.91493 0
M  V30 1928 C 182.637 4.28307 -1.01198 0
M  V30 1929 H 179.756 0.67082 -0.305236 0
M  V30 1930 H 182.398 1.3278 -1.35903 0
M  V30 1931 H 180.548 3.77177 -0.931097 0
M  V30 1932 H 182.22 3.06862 -3.44432 0
M  V30 1933 H 180.463 2.83349 -3.28475 0
M  V30 1934 H 181.134 4.46674 -3.24324 0
M  V30 1935 H 183.61 3.91999 -1.39556 0
M  V30 1936 H 182.486 5.30307 -1.41653 0
M  V30 1937 H 182.747 4.42029 0.0794833 0
M  V30 1938 N 181.806 0.884767 1.30421 0
M  V30 1939 C 182.753 0.349642 2.28136 0
M  V30 1940 C 183.723 -0.560061 1.56373 0
M  V30 1941 O 184.908 -0.488524 1.8444 0
M  V30 1942 C 182.048 -0.42999 3.42411 0
M  V30 1943 C 181.161 0.508907 4.28992 0
M  V30 1944 C 180.296 -0.286301 5.30428 0
M  V30 1945 C 179.335 0.648079 6.08659 0
M  V30 1946 N 178.472 -0.111792 7.02011 0
M  V30 1947 H 183.312 1.18807 2.73293 0
M  V30 1948 H 180.849 0.597231 1.3443 0
M  V30 1949 H 182.807 -0.897923 4.07423 0
M  V30 1950 H 181.437 -1.23299 2.98324 0
M  V30 1951 H 180.489 1.09533 3.64289 0
M  V30 1952 H 181.801 1.22475 4.8353 0
M  V30 1953 H 180.955 -0.816098 6.01186 0
M  V30 1954 H 179.694 -1.03536 4.76583 0
M  V30 1955 H 178.699 1.18951 5.36778 0
M  V30 1956 H 179.924 1.39623 6.64592 0
M  V30 1957 H 177.87 -0.843395 6.50556 0
M  V30 1958 H 177.787 0.544429 7.54037 0
M  V30 1959 H 179.055 -0.622339 7.77012 0
M  V30 1960 N 183.284 -1.43765 0.645699 0
M  V30 1961 C 184.532 -2.01499 0.155731 0
M  V30 1962 C 184.853 -1.51151 -1.232 0
M  V30 1963 O 184.123 -0.721044 -1.82148 0
M  V30 1964 H 182.703 -0.745003 0.0545817 0
M  V30 1965 H 185.365 -1.76075 0.835677 0
M  V30 1966 H 184.461 -3.1181 0.134577 0
M  V30 1967 N 184.763 -0.387143 -1.52771 0
M  V30 1968 C 185.693 0.440551 -2.29306 0
M  V30 1969 C 186.674 1.06535 -1.32606 0
M  V30 1970 O 187.859 1.07853 -1.61497 0
M  V30 1971 C 184.989 1.56919 -3.09829 0
M  V30 1972 C 183.943 1.07054 -4.14395 0
M  V30 1973 C 183.269 2.29109 -4.83129 0
M  V30 1974 C 184.569 0.140015 -5.22112 0
M  V30 1975 H 186.263 -0.198026 -2.98744 0
M  V30 1976 H 183.809 -0.09668 -1.43675 0
M  V30 1977 H 185.762 2.15503 -3.62128 0
M  V30 1978 H 184.486 2.23532 -2.3812 0
M  V30 1979 H 183.145 0.507247 -3.63074 0
M  V30 1980 H 182.793 2.94227 -4.0797 0
M  V30 1981 H 182.493 1.96406 -5.53804 0
M  V30 1982 H 184.017 2.88339 -5.38231 0
M  V30 1983 H 185.431 0.633978 -5.69784 0
M  V30 1984 H 183.828 -0.0971485 -6.00021 0
M  V30 1985 H 184.898 -0.811711 -4.78058 0
M  V30 1986 N 186.241 1.57166 -0.116904 0
M  V30 1987 C 187.173 2.12271 0.864507 0
M  V30 1988 C 188.186 1.06494 1.23138 0
M  V30 1989 O 189.375 1.33873 1.18069 0
M  V30 1990 C 186.475 2.60564 2.16702 0
M  V30 1991 C 185.648 3.90416 1.97216 0
M  V30 1992 C 184.707 4.24329 3.11178 0
M  V30 1993 O 183.733 4.93182 2.84184 0
M  V30 1994 N 184.935 3.8148 4.37554 0
M  V30 1995 H 187.7 2.97102 0.393726 0
M  V30 1996 H 185.261 1.61759 0.0675805 0
M  V30 1997 H 187.253 2.80282 2.91932 0
M  V30 1998 H 185.823 1.80623 2.55135 0
M  V30 1999 H 185.043 3.79627 1.06192 0
M  V30 2000 H 186.331 4.75327 1.81499 0
M  V30 2001 H 185.729 3.25943 4.62361 0
M  V30 2002 H 184.286 4.06311 5.09661 0
M  V30 2003 N 187.719 -0.156864 1.56817 0
M  V30 2004 C 188.666 -1.19394 1.97519 0
M  V30 2005 C 189.636 -1.4322 0.841265 0
M  V30 2006 O 190.821 -1.55719 1.10255 0
M  V30 2007 C 187.961 -2.52483 2.35258 0
M  V30 2008 C 187.074 -2.35914 3.61896 0
M  V30 2009 C 186.209 -3.61969 3.88782 0
M  V30 2010 C 185.248 -3.40395 5.08722 0
M  V30 2011 N 184.385 -4.58556 5.31668 0
M  V30 2012 H 189.225 -0.839845 2.85921 0
M  V30 2013 H 186.762 -0.403264 1.41464 0
M  V30 2014 H 188.72 -3.30071 2.55165 0
M  V30 2015 H 187.35 -2.85859 1.49949 0
M  V30 2016 H 186.402 -1.49429 3.49821 0
M  V30 2017 H 187.714 -2.15926 4.49641 0
M  V30 2018 H 186.868 -4.47989 4.09135 0
M  V30 2019 H 185.607 -3.84951 2.9944 0
M  V30 2020 H 184.612 -2.52763 4.88253 0
M  V30 2021 H 185.837 -3.18822 5.99608 0
M  V30 2022 H 183.783 -4.81729 4.45279 0
M  V30 2023 H 183.7 -4.41535 6.13664 0
M  V30 2024 H 184.968 -5.45817 5.5651 0
M  V30 2025 N 189.197 -1.51736 -0.425897 0
M  V30 2026 C 190.107 -1.76738 -1.54275 0
M  V30 2027 C 191.123 -0.65211 -1.61318 0
M  V30 2028 O 192.299 -0.935654 -1.78346 0
M  V30 2029 C 189.364 -1.89755 -2.90162 0
M  V30 2030 C 188.425 -3.13633 -2.93143 0
M  V30 2031 C 187.658 -3.2602 -4.22548 0
M  V30 2032 O 187.881 -2.44067 -5.15546 0
M  V30 2033 O 186.815 -4.19071 -4.32046 0
M  V30 2034 H 190.641 -2.71502 -1.36089 0
M  V30 2035 H 188.226 -1.36376 -0.610069 0
M  V30 2036 H 190.108 -2.00236 -3.70788 0
M  V30 2037 H 188.783 -0.981785 -3.08452 0
M  V30 2038 H 187.69 -3.08622 -2.11431 0
M  V30 2039 H 189.023 -4.04936 -2.798 0
M  V30 2040 N 190.675 0.682077 -1.42076 0
M  V30 2041 C 191.952 1.43755 -1.32642 0
M  V30 2042 C 192.332 2.11063 0.0396611 0
M  V30 2043 O 191.68 2.02701 1.05474 0
M  V30 2044 C 191.89 2.44596 -2.48946 0
M  V30 2045 C 193.238 3.09454 -2.9073 0
M  V30 2046 O 194.262 2.54922 -2.48783 0
M  V30 2047 O 193.121 4.08253 -3.63307 0
M  V30 2048 H 190.215 0.640857 -0.522715 0
M  V30 2049 H 192.761 0.711415 -1.54068 0
M  V30 2050 H 191.533 1.93609 -3.40046 0
M  V30 2051 H 191.156 3.24701 -2.29467 0
M  V30 2052 N 192.153 1.28127 0.917671 0
M  V30 2053 C 193.401 1.14825 1.66312 0
M  V30 2054 C 193.722 -0.304379 1.9261 0
M  V30 2055 O 192.992 -1.21149 1.53947 0
M  V30 2056 H 191.572 0.421953 0.616413 0
M  V30 2057 H 194.234 1.608 1.10134 0
M  V30 2058 H 193.33 1.68489 2.62712 0
M  V30 2059 N 193.631 -1.12557 1.10312 0
M  V30 2060 C 194.856 -1.88405 0.867085 0
M  V30 2061 C 195.281 -1.79038 -0.576817 0
M  V30 2062 O 194.639 -1.14439 -1.40618 0
M  V30 2063 C 194.687 -3.3563 1.31851 0
M  V30 2064 O 193.791 -4.09565 0.482734 0
M  V30 2065 H 193.132 -0.585455 0.313271 0
M  V30 2066 H 195.662 -1.42352 1.4696 0
M  V30 2067 H 195.672 -3.86469 1.3079 0
M  V30 2068 H 194.347 -3.41765 2.37001 0
M  V30 2069 H 192.924 -3.68695 0.558448 0
M  V30 2070 N 195.109 -0.891671 -1.2995 0
M  V30 2071 C 196.356 -0.513501 -1.95881 0
M  V30 2072 C 196.684 0.938655 -1.70351 0
M  V30 2073 O 195.939 1.67936 -1.00478 0
M  V30 2074 C 196.238 -0.742868 -3.49594 0
M  V30 2075 C 195.904 -2.17114 -3.95186 0
M  V30 2076 C 194.566 -2.56169 -4.07346 0
M  V30 2077 C 196.918 -3.10162 -4.18866 0
M  V30 2078 C 194.246 -3.87469 -4.4055 0
M  V30 2079 C 196.598 -4.41001 -4.53542 0
M  V30 2080 C 195.262 -4.79941 -4.63911 0
M  V30 2081 H 194.532 -0.187903 -0.71678 0
M  V30 2082 H 197.179 -1.1288 -1.54694 0
M  V30 2083 H 195.484 -0.044586 -3.91775 0
M  V30 2084 H 197.181 -0.429767 -3.9869 0
M  V30 2085 H 193.771 -1.85801 -3.86233 0
M  V30 2086 H 197.955 -2.81206 -4.08946 0
M  V30 2087 H 193.211 -4.17371 -4.46779 0
M  V30 2088 H 197.385 -5.13133 -4.70815 0
M  V30 2089 H 195.012 -5.81719 -4.89395 0
M  V30 2090 N 196.587 1.43421 -0.653314 0
M  V30 2091 C 197.55 2.29182 0.0287951 0
M  V30 2092 C 198.55 1.42213 0.750465 0
M  V30 2093 O 199.74 1.63843 0.591701 0
M  V30 2094 C 196.872 3.24278 1.05151 0
M  V30 2095 H 198.065 2.90985 -0.725786 0
M  V30 2096 H 195.618 1.50702 -0.414545 0
M  V30 2097 H 196.353 2.6737 1.83532 0
M  V30 2098 H 196.138 3.88396 0.537687 0
M  V30 2099 H 197.628 3.88647 1.52786 0
M  V30 2100 N 198.065 0.39524 1.52563 0
M  V30 2101 C 199.313 -0.184678 2.01254 0
M  V30 2102 C 199.634 -1.46822 1.28329 0
M  V30 2103 O 198.904 -1.91666 0.405094 0
M  V30 2104 H 197.484 -0.0712355 0.743596 0
M  V30 2105 H 200.146 0.528293 1.87603 0
M  V30 2106 H 199.242 -0.390681 3.09645 0
M  V30 2107 N 199.544 -1.57102 0.125237 0
M  V30 2108 C 200.821 -1.86953 -0.575142 0
M  V30 2109 C 201.201 -1.02749 -1.84407 0
M  V30 2110 O 200.549 -0.108144 -2.28244 0
M  V30 2111 C 200.759 -3.38198 -0.861583 0
M  V30 2112 C 202.107 -4.06937 -1.21192 0
M  V30 2113 O 203.131 -3.43252 -0.951645 0
M  V30 2114 O 201.99 -5.19364 -1.70068 0
M  V30 2115 H 199.084 -0.774147 -0.290906 0
M  V30 2116 H 201.63 -1.68942 0.160211 0
M  V30 2117 H 200.402 -3.91282 0.0373647 0
M  V30 2118 H 200.025 -3.61661 -1.65188 0
M  V30 2119 N 201.022 0.148545 -1.56898 0
M  V30 2120 C 202.271 0.85984 -1.82454 0
M  V30 2121 C 202.584 1.82406 -0.706229 0
M  V30 2122 O 203.79 2.57938 -0.847349 0
M  V30 2123 C 202.246 1.57967 -3.2338 0
M  V30 2124 C 201.854 0.65794 -4.43142 0
M  V30 2125 C 203.598 2.27784 -3.58211 0
M  V30 2126 C 201.505 1.3793 -5.75091 0
M  V30 2127 H 200.435 0.324834 -0.68044 0
M  V30 2128 H 203.086 0.112588 -1.83154 0
M  V30 2129 H 201.468 2.37249 -3.17063 0
M  V30 2130 H 202.642 -0.0995497 -4.60692 0
M  V30 2131 H 200.957 0.0682643 -4.16344 0
M  V30 2132 H 203.554 2.8239 -4.54048 0
M  V30 2133 H 203.897 3.04204 -2.84193 0
M  V30 2134 H 204.43 1.55421 -3.66182 0
M  V30 2135 H 201.169 0.656982 -6.52199 0
M  V30 2136 H 200.689 2.10954 -5.61479 0
M  V30 2137 H 202.368 1.92063 -6.17835 0
M  V30 2138 N 202.5 1.5196 0.417844 0
M  V30 2139 C 203.746 1.66793 1.16411 0
M  V30 2140 C 204.101 0.388758 1.88432 0
M  V30 2141 O 203.394 -0.616409 1.81414 0
M  V30 2142 C 203.588 2.82269 2.19223 0
M  V30 2143 C 203.417 4.21293 1.57297 0
M  V30 2144 C 202.187 4.86948 1.34944 0
M  V30 2145 C 204.385 5.03704 1.03858 0
M  V30 2146 N 202.367 6.1003 0.688195 0
M  V30 2147 C 203.738 6.1795 0.503742 0
M  V30 2148 C 205.793 4.89095 0.932203 0
M  V30 2149 C 204.496 7.19188 -0.127034 0
M  V30 2150 C 206.522 5.90559 0.315293 0
M  V30 2151 C 205.884 7.0409 -0.208906 0
M  V30 2152 H 201.983 0.66407 0.412959 0
M  V30 2153 H 204.567 1.89242 0.457772 0
M  V30 2154 H 202.738 2.61451 2.87225 0
M  V30 2155 H 204.47 2.86183 2.86149 0
M  V30 2156 H 201.225 4.45156 1.61657 0
M  V30 2157 H 201.649 6.75964 0.374449 0
M  V30 2158 H 206.291 4.01557 1.32332 0
M  V30 2159 H 204.009 8.06359 -0.530231 0
M  V30 2160 H 207.595 5.81327 0.234625 0
M  V30 2161 H 206.475 7.81257 -0.67875 0
M  V30 2162 N 203.978 -0.674533 1.42435 0
M  V30 2163 C 205.226 -1.43175 1.42637 0
M  V30 2164 C 205.547 -1.94951 0.0438992 0
M  V30 2165 O 204.817 -1.7308 -0.917607 0
M  V30 2166 H 203.397 -0.531307 0.525092 0
M  V30 2167 H 206.059 -0.797006 1.77859 0
M  V30 2168 H 205.155 -2.28463 2.12629 0
M  V30 2169 N 205.456 -1.28612 -0.910864 0
M  V30 2170 C 206.366 -1.14643 -2.0468 0
M  V30 2171 C 207.382 -0.0723121 -1.7385 0
M  V30 2172 O 208.558 -0.282178 -1.99413 0
M  V30 2173 C 205.623 -0.812561 -3.37044 0
M  V30 2174 C 204.684 -1.96935 -3.81465 0
M  V30 2175 C 203.917 -1.65131 -5.07511 0
M  V30 2176 O 204.14 -0.567013 -5.67575 0
M  V30 2177 O 203.074 -2.49585 -5.47714 0
M  V30 2178 H 206.9 -2.1001 -2.19384 0
M  V30 2179 H 204.485 -1.07958 -1.03274 0
M  V30 2180 H 206.367 -0.640441 -4.16505 0
M  V30 2181 H 205.042 0.111426 -3.23508 0
M  V30 2182 H 203.949 -2.19664 -3.02818 0
M  V30 2183 H 205.282 -2.87414 -3.99567 0
M  V30 2184 N 206.934 1.1197 -1.10907 0
M  V30 2185 C 208.183 1.82947 -0.849302 0
M  V30 2186 C 208.496 1.85275 0.627112 0
M  V30 2187 O 209.702 2.52296 1.00295 0
M  V30 2188 C 208.158 3.28529 -1.46959 0
M  V30 2189 C 207.766 3.34546 -2.97965 0
M  V30 2190 C 209.51 4.04443 -1.28942 0
M  V30 2191 C 207.417 4.74491 -3.53004 0
M  V30 2192 H 206.347 0.685477 -0.314065 0
M  V30 2193 H 208.998 1.2604 -1.33365 0
M  V30 2194 H 207.38 3.85333 -0.912917 0
M  V30 2195 H 208.554 2.87654 -3.59989 0
M  V30 2196 H 206.869 2.72108 -3.15192 0
M  V30 2197 H 209.466 5.07787 -1.67502 0
M  V30 2198 H 209.809 4.15656 -0.231456 0
M  V30 2199 H 210.342 3.5401 -1.81443 0
M  V30 2200 H 207.081 4.68474 -4.58489 0
M  V30 2201 H 206.601 5.21816 -2.9575 0
M  V30 2202 H 208.28 5.4344 -3.51115 0
M  V30 2203 N 208.412 0.89855 1.29475 0
M  V30 2204 C 209.689 0.443416 1.90508 0
M  V30 2205 C 210.069 -1.07685 1.81569 0
M  V30 2206 O 209.417 -1.9182 1.24166 0
M  V30 2207 C 209.627 0.956708 3.35631 0
M  V30 2208 C 210.975 0.999728 4.12663 0
M  V30 2209 O 211.999 0.904299 3.4453 0
M  V30 2210 O 210.858 1.14289 5.34416 0
M  V30 2211 H 207.952 0.138025 0.815401 0
M  V30 2212 H 210.498 0.98834 1.37949 0
M  V30 2213 H 209.27 2.00067 3.36287 0
M  V30 2214 H 208.893 0.391728 3.95666 0
M  V30 2215 N 209.89 -1.43072 0.660911 0
M  V30 2216 C 211.118 -2.06067 0.185422 0
M  V30 2217 C 211.533 -1.49582 -1.15198 0
M  V30 2218 O 210.89 -0.630134 -1.71276 0
M  V30 2219 C 210.941 -3.61371 0.0966523 0
M  V30 2220 O 210.662 -4.15758 1.38119 0
M  V30 2221 C 212.163 -4.41455 -0.403996 0
M  V30 2222 H 209.383 -0.664459 0.0934604 0
M  V30 2223 H 211.927 -1.83447 0.90373 0
M  V30 2224 H 210.082 -3.8315 -0.572259 0
M  V30 2225 H 210.496 -5.09499 1.24542 0
M  V30 2226 H 211.97 -5.50437 -0.415045 0
M  V30 2227 H 212.447 -4.15036 -1.43674 0
M  V30 2228 H 213.053 -4.24663 0.232691 0
M  V30 2229 N 211.368 -0.403325 -1.52352 0
M  V30 2230 C 212.784 -0.0539281 -1.59509 0
M  V30 2231 C 212.984 1.43307 -1.41652 0
M  V30 2232 O 212.04 2.19924 -1.24056 0
M  V30 2233 C 213.353 -0.543654 -2.95745 0
M  V30 2234 C 214.901 -0.501125 -3.08962 0
M  V30 2235 C 215.376 -0.967267 -4.47669 0
M  V30 2236 N 216.867 -0.923849 -4.53893 0
M  V30 2237 C 217.602 -1.25578 -5.5948 0
M  V30 2238 N 217.098 -1.65889 -6.72646 0
M  V30 2239 N 218.891 -1.17613 -5.49658 0
M  V30 2240 H 211.042 -1.37123 -1.62206 0
M  V30 2241 H 213.305 -0.56294 -0.76276 0
M  V30 2242 H 213.011 -1.58275 -3.14073 0
M  V30 2243 H 212.885 0.0498042 -3.77167 0
M  V30 2244 H 215.272 0.528909 -2.90321 0
M  V30 2245 H 215.353 -1.13056 -2.2946 0
M  V30 2246 H 214.997 -1.9956 -4.67053 0
M  V30 2247 H 214.927 -0.314698 -5.25659 0
M  V30 2248 H 217.418 -0.627403 -3.72655 0
M  V30 2249 H 217.731 -1.89543 -7.49195 0
M  V30 2250 H 216.076 -1.69787 -6.73942 0
M  V30 2251 H 219.267 -0.860115 -4.6013 0
M  V30 2252 H 219.44 -1.43812 -6.3184 0
M  V30 2253 N 212.846 1.57033 -0.133567 0
M  V30 2254 C 214.093 1.95686 0.520877 0
M  V30 2255 C 214.421 1.0177 1.6575 0
M  V30 2256 O 213.676 0.0443195 1.9565 0
M  V30 2257 C 213.975 3.40674 1.08057 0
M  V30 2258 C 213.641 4.50855 0.0637899 0
M  V30 2259 C 212.303 4.80716 -0.215757 0
M  V30 2260 C 214.655 5.17398 -0.62835 0
M  V30 2261 C 211.983 5.74433 -1.19348 0
M  V30 2262 C 214.335 6.12167 -1.5948 0
M  V30 2263 C 212.999 6.40414 -1.88218 0
M  V30 2264 H 212.269 0.716067 0.190602 0
M  V30 2265 H 214.916 1.9026 -0.217556 0
M  V30 2266 H 213.221 3.42865 1.89606 0
M  V30 2267 H 214.918 3.67902 1.59529 0
M  V30 2268 H 211.508 4.27605 0.291855 0
M  V30 2269 H 215.692 4.94472 -0.425562 0
M  V30 2270 H 210.948 5.94616 -1.42272 0
M  V30 2271 H 215.122 6.6281 -2.13671 0
M  V30 2272 H 212.749 7.12838 -2.64133 0
M  V30 2273 N 214.325 -0.140222 1.56975 0
M  V30 2274 C 215.55 -0.870414 1.88251 0
M  V30 2275 C 215.975 -1.73637 0.723312 0
M  V30 2276 O 215.333 -1.78329 -0.32689 0
M  V30 2277 C 215.381 -1.69737 3.18154 0
M  V30 2278 O 214.485 -2.80229 3.02565 0
M  V30 2279 H 213.826 -0.242025 0.61832 0
M  V30 2280 H 216.356 -0.128999 2.04193 0
M  V30 2281 H 216.366 -2.09099 3.50345 0
M  V30 2282 H 215.041 -1.06152 4.02125 0
M  V30 2283 H 213.618 -2.44224 2.81796 0
M  V30 2284 N 215.803 -1.52179 -0.40978 0
M  V30 2285 C 217.05 -1.66206 -1.15679 0
M  V30 2286 C 217.378 -0.391674 -1.90516 0
M  V30 2287 O 216.633 0.62533 -1.8544 0
M  V30 2288 C 216.932 -2.83428 -2.17723 0
M  V30 2289 C 216.598 -4.21672 -1.59699 0
M  V30 2290 C 215.26 -4.59274 -1.43599 0
M  V30 2291 C 217.612 -5.07825 -1.17317 0
M  V30 2292 C 214.94 -5.80709 -0.836328 0
M  V30 2293 C 217.292 -6.29864 -0.587691 0
M  V30 2294 C 215.956 -6.66216 -0.413818 0
M  V30 2295 H 215.226 -0.608192 -0.423301 0
M  V30 2296 H 217.873 -1.86279 -0.444097 0
M  V30 2297 H 216.178 -2.57687 -2.95135 0
M  V30 2298 H 217.875 -2.91477 -2.75394 0
M  V30 2299 H 214.465 -3.9204 -1.73213 0
M  V30 2300 H 218.649 -4.79359 -1.28565 0
M  V30 2301 H 213.905 -6.07498 -0.689626 0
M  V30 2302 H 218.079 -6.95948 -0.250894 0
M  V30 2303 H 215.706 -7.60182 0.0529471 0
M  V30 2304 N 217.281 0.66697 -1.42791 0
M  V30 2305 C 218.521 1.43892 -1.4517 0
M  V30 2306 C 218.885 1.91877 -0.0687551 0
M  V30 2307 O 220.086 2.6878 0.0327455 0
M  V30 2308 C 218.357 2.59839 -2.45395 0
M  V30 2309 S 219.916 3.48572 -2.66539 0
M  V30 2310 H 216.734 0.491356 -0.513897 0
M  V30 2311 H 219.336 0.775656 -1.79454 0
M  V30 2312 H 218.04 2.22838 -3.44632 0
M  V30 2313 H 217.571 3.3103 -2.12562 0
M  V30 2314 H 219.586 4.56094 -1.95429 0
M  V30 2315 N 218.759 1.29093 0.90403 0
M  V30 2316 C 219.722 1.1386 1.98919 0
M  V30 2317 C 220.722 0.0753457 1.60623 0
M  V30 2318 O 221.912 0.321931 1.71199 0
M  V30 2319 C 219.044 0.740198 3.32767 0
M  V30 2320 H 220.237 2.10246 2.13861 0
M  V30 2321 H 217.79 1.12218 1.08797 0
M  V30 2322 H 218.525 -0.223997 3.23525 0
M  V30 2323 H 218.31 1.50838 3.61926 0
M  V30 2324 H 219.8 0.656546 4.12407 0
M  V30 2325 N 220.237 -1.11381 1.11499 0
M  V30 2326 C 221.483 -1.83403 0.865512 0
M  V30 2327 C 221.816 -1.84459 -0.607329 0
M  V30 2328 O 221.091 -1.29811 -1.44842 0
M  V30 2329 C 221.374 -3.30552 1.42855 0
M  V30 2330 C 221.227 -3.37886 2.96906 0
M  V30 2331 C 222.546 -4.26643 1.08 0
M  V30 2332 H 219.665 -0.665879 0.31587 0
M  V30 2333 H 222.307 -1.30601 1.37998 0
M  V30 2334 H 220.457 -3.75648 0.990985 0
M  V30 2335 H 222.129 -3.01343 3.49271 0
M  V30 2336 H 220.372 -2.78088 3.32941 0
M  V30 2337 H 221.043 -4.41458 3.31389 0
M  V30 2338 H 223.519 -3.89729 1.45775 0
M  V30 2339 H 222.395 -5.27986 1.50072 0
M  V30 2340 H 222.656 -4.42099 -0.00915037 0
M  V30 2341 N 221.715 -0.905404 -1.28997 0
M  V30 2342 C 222.678 -0.392253 -2.25819 0
M  V30 2343 C 223.678 0.476753 -1.5357 0
M  V30 2344 O 224.868 0.280994 -1.71919 0
M  V30 2345 C 222 0.438588 -3.38067 0
M  V30 2346 H 223.193 -1.24743 -2.72725 0
M  V30 2347 H 220.746 -0.684051 -1.40536 0
M  V30 2348 H 221.481 1.31352 -2.96508 0
M  V30 2349 H 221.266 -0.184167 -3.91667 0
M  V30 2350 H 222.756 0.78873 -4.10084 0
M  V30 2351 N 223.193 1.4272 -0.668489 0
M  V30 2352 C 224.421 2.05966 -0.196348 0
M  V30 2353 C 224.836 1.50191 1.14403 0
M  V30 2354 O 224.193 0.639208 1.7094 0
M  V30 2355 C 224.244 3.61314 -0.115815 0
M  V30 2356 O 223.965 4.1502 -1.40322 0
M  V30 2357 C 225.466 4.41663 0.380579 0
M  V30 2358 H 222.686 0.663954 -0.0969829 0
M  V30 2359 H 225.23 1.82966 -0.913446 0
M  V30 2360 H 223.385 3.83448 0.551931 0
M  V30 2361 H 223.799 5.08832 -1.27243 0
M  V30 2362 H 225.273 5.5065 0.385848 0
M  V30 2363 H 225.75 4.15792 1.41471 0
M  V30 2364 H 226.356 4.24534 -0.255209 0
M  V30 2365 N 224.671 0.411399 1.52136 0
M  V30 2366 C 225.601 -0.404015 2.29978 0
M  V30 2367 C 226.582 -1.04412 1.34284 0
M  V30 2368 O 227.767 -1.0527 1.63192 0
M  V30 2369 C 224.897 -1.5197 3.12286 0
M  V30 2370 C 223.851 -1.00448 4.16046 0
M  V30 2371 C 223.177 -2.21393 4.86712 0
M  V30 2372 C 224.477 -0.0569336 5.22269 0
M  V30 2373 H 226.171 0.245529 2.98392 0
M  V30 2374 H 223.717 0.119525 1.43503 0
M  V30 2375 H 225.67 -2.09715 3.6551 0
M  V30 2376 H 224.394 -2.19716 2.41646 0
M  V30 2377 H 223.053 -0.449421 3.63835 0
M  V30 2378 H 222.701 -2.87699 4.12599 0
M  V30 2379 H 222.401 -1.87571 5.56858 0
M  V30 2380 H 223.925 -2.7974 5.4275 0
M  V30 2381 H 225.339 -0.54325 5.7072 0
M  V30 2382 H 223.736 0.192594 5.99791 0
M  V30 2383 H 224.806 0.887663 4.76706 0
M  V30 2384 N 226.149 -1.5696 0.141893 0
M  V30 2385 C 227.112 -2.15316 -0.785587 0
M  V30 2386 C 228.112 -1.09366 -1.1788 0
M  V30 2387 O 229.302 -1.35031 -1.10056 0
M  V30 2388 C 226.434 -2.71211 -2.06537 0
M  V30 2389 H 227.627 -2.98608 -0.278041 0
M  V30 2390 H 225.18 -1.5593 -0.107519 0
M  V30 2391 H 225.915 -1.91571 -2.6167 0
M  V30 2392 H 225.7 -3.4872 -1.79268 0
M  V30 2393 H 227.19 -3.16189 -2.72789 0
M  V30 2394 N 227.627 0.131896 -1.57047 0
M  V30 2395 C 228.557 1.16384 -2.02428 0
M  V30 2396 C 229.538 1.43936 -0.90644 0
M  V30 2397 O 230.723 1.54599 -1.17528 0
M  V30 2398 C 227.853 2.49328 -2.4177 0
M  V30 2399 C 226.807 2.36266 -3.56879 0
M  V30 2400 C 226.133 3.74057 -3.8208 0
M  V30 2401 C 227.433 1.834 -4.89042 0
M  V30 2402 H 229.127 0.786433 -2.88887 0
M  V30 2403 H 226.673 0.376855 -1.38981 0
M  V30 2404 H 228.626 3.21759 -2.7212 0
M  V30 2405 H 227.35 2.88934 -1.52266 0
M  V30 2406 H 226.009 1.66286 -3.26718 0
M  V30 2407 H 225.657 4.11125 -2.89803 0
M  V30 2408 H 225.357 3.66174 -4.59554 0
M  V30 2409 H 226.881 4.48012 -4.1487 0
M  V30 2410 H 228.295 2.45636 -5.18011 0
M  V30 2411 H 226.692 1.8637 -5.70426 0
M  V30 2412 H 227.762 0.790662 -4.7841 0
M  V30 2413 N 229.106 1.52395 0.401703 0
M  V30 2414 C 230.036 1.79231 1.49661 0
M  V30 2415 C 231.017 0.643654 1.57452 0
M  V30 2416 O 232.202 0.889989 1.72606 0
M  V30 2417 C 229.332 1.94971 2.87409 0
M  V30 2418 C 228.286 3.10604 2.94465 0
M  V30 2419 C 227.612 3.11577 4.34538 0
M  V30 2420 C 228.912 4.49921 2.6527 0
M  V30 2421 H 230.606 2.70917 1.27454 0
M  V30 2422 H 228.152 1.30362 0.6117 0
M  V30 2423 H 230.105 2.12328 3.63999 0
M  V30 2424 H 228.829 0.999632 3.10926 0
M  V30 2425 H 227.488 2.93009 2.20321 0
M  V30 2426 H 227.136 2.14277 4.55076 0
M  V30 2427 H 226.836 3.89247 4.40183 0
M  V30 2428 H 228.36 3.31073 5.13053 0
M  V30 2429 H 229.774 4.67683 3.31581 0
M  V30 2430 H 228.171 5.29564 2.82281 0
M  V30 2431 H 229.241 4.57507 1.60671 0
M  V30 2432 N 230.584 -0.659388 1.43143 0
M  V30 2433 C 231.832 -1.41654 1.44147 0
M  V30 2434 C 232.153 -1.94893 0.0645739 0
M  V30 2435 O 231.423 -1.74044 -0.899198 0
M  V30 2436 H 230.003 -0.525708 0.530697 0
M  V30 2437 H 232.665 -0.778097 1.78694 0
M  V30 2438 H 231.761 -2.26195 2.1504 0
M  V30 2439 N 232.062 -1.29571 -0.897171 0
M  V30 2440 C 233.009 -1.14916 -2.00158 0
M  V30 2441 C 233.979 -0.0418149 -1.66047 0
M  V30 2442 O 235.164 -0.209793 -1.89643 0
M  V30 2443 C 232.304 -0.834307 -3.34863 0
M  V30 2444 C 231.417 -2.02234 -3.8174 0
M  V30 2445 C 230.552 -1.64664 -5.05034 0
M  V30 2446 C 229.591 -2.80033 -5.44286 0
M  V30 2447 N 228.728 -2.42843 -6.58765 0
M  V30 2448 H 233.568 -2.09403 -2.12025 0
M  V30 2449 H 231.105 -1.042 -1.0383 0
M  V30 2450 H 233.063 -0.632436 -4.12379 0
M  V30 2451 H 231.693 0.0736656 -3.22716 0
M  V30 2452 H 230.745 -2.33583 -3.00238 0
M  V30 2453 H 232.057 -2.88673 -4.06779 0
M  V30 2454 H 231.211 -1.4078 -5.9014 0
M  V30 2455 H 229.95 -0.753766 -4.8184 0
M  V30 2456 H 228.955 -3.04596 -4.57713 0
M  V30 2457 H 230.18 -3.69989 -5.6946 0
M  V30 2458 H 228.126 -1.56046 -6.3717 0
M  V30 2459 H 228.043 -3.22815 -6.83613 0
M  V30 2460 H 229.311 -2.22285 -7.47134 0
M  V30 2461 N 233.54 1.10788 -1.12088 0
M  V30 2462 C 234.47 2.19083 -0.807755 0
M  V30 2463 C 235.451 1.6858 0.226859 0
M  V30 2464 O 236.636 1.93997 0.0888475 0
M  V30 2465 C 233.766 3.46344 -0.257576 0
M  V30 2466 C 232.72 4.101 -1.22483 0
M  V30 2467 C 232.046 5.32016 -0.535052 0
M  V30 2468 C 233.346 4.54236 -2.57811 0
M  V30 2469 H 235.04 2.45534 -1.71328 0
M  V30 2470 H 232.586 1.1801 -0.825205 0
M  V30 2471 H 234.539 4.21392 -0.0262679 0
M  V30 2472 H 233.263 3.19373 0.683278 0
M  V30 2473 H 231.922 3.37054 -1.44189 0
M  V30 2474 H 231.57 5.01319 0.410827 0
M  V30 2475 H 231.27 5.75625 -1.18024 0
M  V30 2476 H 232.794 6.09799 -0.312695 0
M  V30 2477 H 234.208 5.20575 -2.40155 0
M  V30 2478 H 232.605 5.08682 -3.18375 0
M  V30 2479 H 233.675 3.6734 -3.16528 0
M  V30 2480 N 235.018 0.912232 1.28515 0
M  V30 2481 C 236.295 0.463597 1.90027 0
M  V30 2482 C 236.675 -1.05753 1.82701 0
M  V30 2483 O 236.023 -1.90492 1.26194 0
M  V30 2484 C 236.233 0.992253 3.34597 0
M  V30 2485 C 237.581 1.04344 4.11579 0
M  V30 2486 O 238.605 0.94079 3.43551 0
M  V30 2487 O 237.464 1.1995 5.33174 0
M  V30 2488 H 234.558 0.146666 0.813891 0
M  V30 2489 H 237.104 1.00292 1.36893 0
M  V30 2490 H 235.876 2.03623 3.34146 0
M  V30 2491 H 235.499 0.433672 3.95228 0
M  V30 2492 N 236.496 -1.42363 0.676048 0
M  V30 2493 C 237.459 -2.29199 0.00766941 0
M  V30 2494 C 238.459 -1.43389 -0.727745 0
M  V30 2495 O 239.649 -1.64764 -0.56556 0
M  V30 2496 C 236.781 -3.2591 -0.999785 0
M  V30 2497 H 237.974 -2.89794 0.771988 0
M  V30 2498 H 235.527 -1.50024 0.438468 0
M  V30 2499 H 236.262 -2.70256 -1.79255 0
M  V30 2500 H 236.047 -3.89202 -0.475829 0
M  V30 2501 H 237.537 -3.91028 -1.46583 0
M  V30 2502 N 237.974 -0.419461 -1.51915 0
M  V30 2503 C 239.223 0.154346 -2.01109 0
M  V30 2504 C 239.536 1.45338 -1.30905 0
M  V30 2505 O 240.742 2.10906 -1.7097 0
M  V30 2506 C 239.198 0.325615 -3.58424 0
M  V30 2507 C 238.806 -0.961934 -4.37551 0
M  V30 2508 C 240.55 0.854155 -4.15818 0
M  V30 2509 C 238.457 -0.757287 -5.86531 0
M  V30 2510 H 237.387 0.0614563 -0.751491 0
M  V30 2511 H 240.038 -0.54649 -1.75173 0
M  V30 2512 H 238.42 1.08903 -3.80731 0
M  V30 2513 H 239.594 -1.7323 -4.26999 0
M  V30 2514 H 237.909 -1.41766 -3.91524 0
M  V30 2515 H 240.506 1.02346 -5.24814 0
M  V30 2516 H 240.849 1.83172 -3.73837 0
M  V30 2517 H 241.382 0.149528 -3.97519 0
M  V30 2518 H 238.121 -1.70671 -6.32892 0
M  V30 2519 H 237.641 -0.0264061 -5.99794 0
M  V30 2520 H 239.32 -0.403482 -6.45741 0
M  V30 2521 N 239.452 1.56882 -0.150215 0
M  V30 2522 C 240.4 2.18214 0.805313 0
M  V30 2523 C 241.394 1.14006 1.25296 0
M  V30 2524 O 242.6 1.3225 1.22107 0
M  V30 2525 H 238.975 0.698762 0.277913 0
M  V30 2526 H 240.946 2.97231 0.263862 0
M  V30 2527 C 239.695 2.82065 2.03309 0
M  V30 2528 H 239.018 3.61968 1.69763 0
M  V30 2529 H 240.458 3.28477 2.68103 0
M  V30 2530 C 238.917 1.80739 2.84315 0
M  V30 2531 O 239.447 1.27983 3.80767 0
M  V30 2532 N 237.653 1.4997 2.48913 0
M  V30 2533 H 237.2 1.93062 1.70542 0
M  V30 2534 H 237.158 0.824217 3.03404 0
M  V30 2535 N 240.93 -0.123565 1.57115 0
M  V30 2536 C 242.176 -0.833386 1.84885 0
M  V30 2537 C 242.509 -1.79742 0.735292 0
M  V30 2538 O 241.784 -1.92764 -0.25925 0
M  V30 2539 C 242.067 -1.5873 3.23228 0
M  V30 2540 C 241.92 -0.643183 4.45178 0
M  V30 2541 C 243.239 -2.54453 3.59085 0
M  V30 2542 H 240.358 -0.301518 0.6725 0
M  V30 2543 H 243 -0.097778 1.89748 0
M  V30 2544 H 241.15 -2.21438 3.19214 0
M  V30 2545 H 242.822 -0.0253015 4.61293 0
M  V30 2546 H 241.065 0.0456139 4.33776 0
M  V30 2547 H 241.736 -1.20724 5.38637 0
M  V30 2548 H 244.212 -2.01853 3.63861 0
M  V30 2549 H 243.088 -3.04238 4.5687 0
M  V30 2550 H 243.349 -3.36906 2.86264 0
M  V30 2551 N 242.408 -1.52605 -0.393616 0
M  V30 2552 C 243.318 -1.79971 -1.50492 0
M  V30 2553 C 244.334 -0.686181 -1.59899 0
M  V30 2554 O 245.51 -0.973274 -1.76322 0
M  V30 2555 C 242.575 -1.95867 -2.86072 0
M  V30 2556 C 241.636 -3.19781 -2.86424 0
M  V30 2557 C 240.869 -3.34909 -4.15538 0
M  V30 2558 O 241.092 -2.54948 -5.10253 0
M  V30 2559 O 240.026 -4.28141 -4.23059 0
M  V30 2560 H 243.852 -2.74328 -1.30299 0
M  V30 2561 H 241.437 -1.3764 -0.581005 0
M  V30 2562 H 243.319 -2.08056 -3.66457 0
M  V30 2563 H 241.994 -1.04699 -3.063 0
M  V30 2564 H 240.901 -3.13038 -2.04837 0
M  V30 2565 H 242.234 -4.1078 -2.71147 0
M  V30 2566 N 243.887 0.651787 -1.4349 0
M  V30 2567 C 244.834 1.76462 -1.4876 0
M  V30 2568 C 245.804 1.62641 -0.337189 0
M  V30 2569 O 246.989 1.82864 -0.544544 0
M  V30 2570 C 244.129 3.14623 -1.41796 0
M  V30 2571 C 243.242 3.39568 -2.67053 0
M  V30 2572 C 242.377 4.67585 -2.52068 0
M  V30 2573 C 241.416 4.85639 -3.72587 0
M  V30 2574 N 240.553 6.04915 -3.56402 0
M  V30 2575 H 245.393 1.71293 -2.43849 0
M  V30 2576 H 242.93 0.835889 -1.21043 0
M  V30 2577 H 244.888 3.94496 -1.35753 0
M  V30 2578 H 243.518 3.18859 -0.50288 0
M  V30 2579 H 242.57 2.53783 -2.8337 0
M  V30 2580 H 243.882 3.48795 -3.56572 0
M  V30 2581 H 243.036 5.55586 -2.4374 0
M  V30 2582 H 241.775 4.60681 -1.60075 0
M  V30 2583 H 240.78 3.96073 -3.81321 0
M  V30 2584 H 242.005 4.94372 -4.65589 0
M  V30 2585 H 239.951 5.9914 -2.67146 0
M  V30 2586 H 239.868 6.15106 -4.39524 0
M  V30 2587 H 241.136 6.95533 -3.51929 0
M  V30 2588 N 245.365 1.30045 0.890287 0
M  V30 2589 C 246.328 1.15963 1.977 0
M  V30 2590 C 247.328 0.0923777 1.60534 0
M  V30 2591 O 248.518 0.340071 1.70848 0
M  V30 2592 C 245.65 0.775451 3.31963 0
M  V30 2593 H 246.843 2.12502 2.11619 0
M  V30 2594 H 244.396 1.13366 1.07601 0
M  V30 2595 H 245.131 -0.189671 3.23745 0
M  V30 2596 H 244.916 1.54668 3.60306 0
M  V30 2597 H 246.406 0.700251 4.11687 0
M  V30 2598 N 246.843 -1.10192 1.12674 0
M  V30 2599 C 248.092 -1.81573 0.8783 0
M  V30 2600 C 248.405 -1.86249 -0.597557 0
M  V30 2601 O 249.611 -2.5386 -0.962681 0
M  V30 2602 C 248.067 -3.26149 1.52167 0
M  V30 2603 C 247.675 -3.29763 3.03249 0
M  V30 2604 C 249.419 -4.0234 1.3536 0
M  V30 2605 C 247.326 -4.68815 3.60508 0
M  V30 2606 H 246.256 -0.680394 0.324931 0
M  V30 2607 H 248.907 -1.23902 1.35353 0
M  V30 2608 H 247.289 -3.83832 0.974104 0
M  V30 2609 H 248.463 -2.8189 3.6452 0
M  V30 2610 H 246.778 -2.67059 3.19481 0
M  V30 2611 H 249.375 -5.05058 1.75559 0
M  V30 2612 H 249.718 -4.15235 0.297554 0
M  V30 2613 H 250.251 -3.51079 1.87052 0
M  V30 2614 H 246.99 -4.61121 4.65884 0
M  V30 2615 H 246.51 -5.17045 3.04014 0
M  V30 2616 H 248.189 -5.37785 3.59717 0
M  V30 2617 N 248.321 -0.919034 -1.28029 0
M  V30 2618 C 249.231 -0.416756 -2.30869 0
M  V30 2619 C 250.247 0.498235 -1.66714 0
M  V30 2620 O 251.423 0.383144 -1.97722 0
M  V30 2621 C 248.488 0.330274 -3.45123 0
M  V30 2622 C 247.549 -0.618578 -4.2482 0
M  V30 2623 C 246.782 0.0928959 -5.33619 0
M  V30 2624 O 247.005 1.31375 -5.55065 0
M  V30 2625 O 245.939 -0.574499 -5.99152 0
M  V30 2626 H 249.765 -1.27043 -2.75851 0
M  V30 2627 H 247.35 -0.684052 -1.3282 0
M  V30 2628 H 249.232 0.751972 -4.14636 0
M  V30 2629 H 247.907 1.1597 -3.02213 0
M  V30 2630 H 246.814 -1.08978 -3.57875 0
M  V30 2631 H 248.147 -1.41497 -4.71423 0
M  V30 2632 N 249.799 1.42003 -0.683588 0
M  V30 2633 C 251.046 2.01413 -0.209514 0
M  V30 2634 C 251.374 1.54088 1.1869 0
M  V30 2635 O 250.629 0.737591 1.81268 0
M  V30 2636 C 250.928 3.56827 -0.202357 0
M  V30 2637 C 250.594 4.23617 -1.54464 0
M  V30 2638 C 249.256 4.41577 -1.91215 0
M  V30 2639 C 251.608 4.61178 -2.42826 0
M  V30 2640 C 248.936 4.9437 -3.15935 0
M  V30 2641 C 251.288 5.15355 -3.66867 0
M  V30 2642 C 249.952 5.31528 -4.03776 0
M  V30 2643 H 249.222 0.737023 -0.0766668 0
M  V30 2644 H 251.869 1.70067 -0.880312 0
M  V30 2645 H 250.174 3.87892 0.551969 0
M  V30 2646 H 251.871 4.00588 0.181793 0
M  V30 2647 H 248.461 4.10004 -1.24877 0
M  V30 2648 H 252.645 4.46968 -2.15717 0
M  V30 2649 H 247.901 5.05076 -3.44541 0
M  V30 2650 H 252.075 5.43402 -4.35531 0
M  V30 2651 H 249.702 5.72199 -5.00492 0
M  V30 2652 N 251.277 0.427512 1.51691 0
M  V30 2653 C 252.523 -0.142439 2.02299 0
M  V30 2654 C 252.856 -1.43214 1.31162 0
M  V30 2655 O 252.131 -1.89833 0.423511 0
M  V30 2656 C 252.414 -0.371301 3.58181 0
M  V30 2657 C 252.267 0.936358 4.39946 0
M  V30 2658 C 253.586 -1.14542 4.24933 0
M  V30 2659 H 250.705 -0.0502937 0.735282 0
M  V30 2660 H 253.347 0.564584 1.81418 0
M  V30 2661 H 251.497 -0.973559 3.76104 0
M  V30 2662 H 253.169 1.57184 4.33694 0
M  V30 2663 H 251.412 1.5432 4.05423 0
M  V30 2664 H 252.083 0.730388 5.47147 0
M  V30 2665 H 254.559 -0.635362 4.11221 0
M  V30 2666 H 253.435 -1.27431 5.33903 0
M  V30 2667 H 253.696 -2.17093 3.85127 0
M  V30 2668 N 252.755 -1.56801 0.158532 0
M  V30 2669 C 253.685 -2.20347 -0.772609 0
M  V30 2670 C 254.666 -1.15518 -1.24859 0
M  V30 2671 O 255.851 -1.43902 -1.30406 0
M  V30 2672 C 252.981 -2.83417 -2.00729 0
M  V30 2673 C 251.935 -3.94174 -1.66765 0
M  V30 2674 C 251.261 -4.44233 -2.97592 0
M  V30 2675 C 252.561 -5.14392 -0.905447 0
M  V30 2676 H 254.255 -2.98413 -0.242959 0
M  V30 2677 H 251.801 -1.43537 -0.115419 0
M  V30 2678 H 253.754 -3.26543 -2.6636 0
M  V30 2679 H 252.478 -2.02701 -2.56086 0
M  V30 2680 H 251.137 -3.51684 -1.03508 0
M  V30 2681 H 250.785 -3.60325 -3.50963 0
M  V30 2682 H 250.485 -5.18945 -2.75626 0
M  V30 2683 H 252.009 -4.90037 -3.64274 0
M  V30 2684 H 253.423 -5.5429 -1.46408 0
M  V30 2685 H 251.82 -5.9494 -0.7853 0
M  V30 2686 H 252.89 -4.84795 0.100668 0
M  V30 2687 N 254.233 0.115231 -1.57178 0
M  V30 2688 C 255.458 0.840354 -1.89612 0
M  V30 2689 C 255.883 1.72464 -0.750845 0
M  V30 2690 O 255.241 1.78826 0.298478 0
M  V30 2691 C 255.289 1.64654 -3.20814 0
M  V30 2692 O 254.393 2.7538 -3.06985 0
M  V30 2693 H 253.734 0.232158 -0.622092 0
M  V30 2694 H 256.264 0.0964977 -2.04372 0
M  V30 2695 H 256.274 2.03499 -3.53627 0
M  V30 2696 H 254.949 0.997416 -4.03763 0
M  V30 2697 H 253.526 2.3971 -2.85646 0
M  V30 2698 N 255.711 1.52812 0.385517 0
M  V30 2699 C 256.951 1.69716 1.13911 0
M  V30 2700 C 257.315 0.42962 1.87132 0
M  V30 2701 O 258.516 0.475071 2.64569 0
M  V30 2702 C 256.787 2.90021 2.0886 0
M  V30 2703 S 258.346 3.27531 2.92009 0
M  V30 2704 H 255.164 0.59739 0.385547 0
M  V30 2705 H 257.766 1.90868 0.423061 0
M  V30 2706 H 256.47 3.80493 1.53797 0
M  V30 2707 H 256.001 2.71213 2.84969 0
M  V30 2708 H 258.016 2.77989 4.11019 0
M  V30 2709 N 257.189 -0.644168 1.43834 0
M  V30 2710 C 258.122 -1.76906 1.44151 0
M  V30 2711 C 259.1 -1.59774 0.301857 0
M  V30 2712 O 260.284 -1.81834 0.496841 0
M  V30 2713 C 257.411 -3.14321 1.26174 0
M  V30 2714 C 256.457 -3.50134 2.43533 0
M  V30 2715 S 257.29 -3.49085 4.06079 0
M  V30 2716 C 258.446 -4.89142 3.90501 0
M  V30 2717 H 258.679 -1.76368 2.39336 0
M  V30 2718 H 256.212 -0.817624 1.30974 0
M  V30 2719 H 258.17 -3.93625 1.16489 0
M  V30 2720 H 256.831 -3.12412 0.325224 0
M  V30 2721 H 256.024 -4.50095 2.26783 0
M  V30 2722 H 255.626 -2.78264 2.4989 0
M  V30 2723 H 257.918 -5.78036 3.53385 0
M  V30 2724 H 258.861 -5.10945 4.90246 0
M  V30 2725 H 259.269 -4.63102 3.22795 0
M  V30 2726 N 258.668 -1.30515 -0.883378 0
M  V30 2727 C 259.616 -1.16941 -2.01066 0
M  V30 2728 C 260.61 -0.0809148 -1.69207 0
M  V30 2729 O 261.816 -0.241877 -1.78367 0
M  V30 2730 H 258.191 -0.361705 -0.659298 0
M  V30 2731 H 260.162 -2.12344 -2.09649 0
M  V30 2732 C 258.911 -0.879694 -3.36388 0
M  V30 2733 H 258.234 -1.70936 -3.61415 0
M  V30 2734 H 259.674 -0.82483 -4.159 0
M  V30 2735 C 258.133 0.417409 -3.34304 0
M  V30 2736 O 258.663 1.43843 -3.75063 0
M  V30 2737 N 256.869 0.429141 -2.87414 0
M  V30 2738 H 256.416 -0.402222 -2.5444 0
M  V30 2739 H 256.374 1.29696 -2.86403 0
M  V30 2740 N 260.146 1.09593 -1.13257 0
M  V30 2741 C 261.393 1.81734 -0.893257 0
M  V30 2742 C 261.721 1.8563 0.580656 0
M  V30 2743 O 260.976 1.31906 1.44566 0
M  V30 2744 C 261.275 3.27802 -1.42411 0
M  V30 2745 C 260.941 3.44041 -2.91456 0
M  V30 2746 C 259.603 3.48181 -3.3215 0
M  V30 2747 C 261.955 3.48719 -3.87356 0
M  V30 2748 C 259.283 3.54575 -4.67433 0
M  V30 2749 C 261.635 3.56648 -5.2248 0
M  V30 2750 C 260.299 3.59055 -5.62704 0
M  V30 2751 H 259.569 0.665011 -0.326866 0
M  V30 2752 H 262.216 1.2912 -1.41422 0
M  V30 2753 H 260.521 3.83042 -0.823795 0
M  V30 2754 H 262.218 3.82149 -1.21503 0
M  V30 2755 H 258.808 3.41502 -2.58987 0
M  V30 2756 H 262.992 3.44763 -3.57004 0
M  V30 2757 H 258.248 3.54725 -4.97976 0
M  V30 2758 H 262.422 3.59212 -5.96607 0
M  V30 2759 H 260.049 3.63763 -6.67518 0
M  V30 2760 N 261.624 0.925811 1.2754 0
M  V30 2761 C 262.901 0.483726 1.89524 0
M  V30 2762 C 263.281 -1.03809 1.83812 0
M  V30 2763 O 262.629 -1.89143 1.28207 0
M  V30 2764 C 262.839 1.02769 3.33526 0
M  V30 2765 C 264.187 1.08703 4.10449 0
M  V30 2766 O 265.211 0.977175 3.42534 0
M  V30 2767 O 264.07 1.25599 5.31871 0
M  V30 2768 H 261.164 0.15529 0.812289 0
M  V30 2769 H 263.71 1.01738 1.35822 0
M  V30 2770 H 262.482 2.07155 3.31967 0
M  V30 2771 H 262.105 0.475567 3.94746 0
M  V30 2772 N 263.102 -1.41638 0.69111 0
M  V30 2773 C 264.35 -2.00902 0.219758 0
M  V30 2774 C 264.671 -1.54994 -1.18329 0
M  V30 2775 O 263.941 -0.778628 -1.79762 0
M  V30 2776 H 262.521 -0.74289 0.0782558 0
M  V30 2777 H 265.183 -1.73327 0.891271 0
M  V30 2778 H 264.279 -3.11224 0.233708 0
M  V30 2779 N 264.58 -0.43555 -1.51462 0
M  V30 2780 C 265.828 0.131254 -2.01673 0
M  V30 2781 C 266.149 1.43368 -1.32177 0
M  V30 2782 O 265.419 1.90524 -0.455769 0
M  V30 2783 H 263.999 0.0514954 -0.745223 0
M  V30 2784 H 266.661 -0.577847 -1.86137 0
M  V30 2785 H 265.757 0.308446 -3.10572 0
M  V30 2786 N 266.058 1.56714 -0.166846 0
M  V30 2787 C 267.305 1.96747 0.479252 0
M  V30 2788 C 267.633 1.05263 1.63554 0
M  V30 2789 O 266.888 0.0858098 1.95512 0
M  V30 2790 C 267.187 3.42889 1.00806 0
M  V30 2791 C 266.853 4.50889 -0.0318574 0
M  V30 2792 C 265.515 4.8015 -0.317675 0
M  V30 2793 C 267.867 5.15949 -0.737956 0
M  V30 2794 C 265.195 5.71772 -1.31506 0
M  V30 2795 C 267.547 6.08647 -1.72429 0
M  V30 2796 C 266.211 6.36277 -2.0176 0
M  V30 2797 H 265.481 0.719949 0.175371 0
M  V30 2798 H 268.128 1.89756 -0.257864 0
M  V30 2799 H 266.433 3.4681 1.82291 0
M  V30 2800 H 268.13 3.71203 1.51689 0
M  V30 2801 H 264.72 4.28128 0.201088 0
M  V30 2802 H 268.904 4.93458 -0.530351 0
M  V30 2803 H 264.16 5.91465 -1.54853 0
M  V30 2804 H 268.334 6.58129 -2.27682 0
M  V30 2805 H 265.961 7.07075 -2.79194 0
M  V30 2806 N 267.536 -0.106894 1.57237 0
M  V30 2807 C 268.784 -0.810921 1.85117 0
M  V30 2808 C 269.105 -1.7984 0.753827 0
M  V30 2809 O 268.375 -1.94649 -0.221056 0
M  V30 2810 H 266.955 -0.302466 0.683025 0
M  V30 2811 H 269.617 -0.0913324 1.94686 0
M  V30 2812 H 268.713 -1.34875 2.81452 0
M  V30 2813 N 269.014 -1.53014 -0.377408 0
M  V30 2814 C 270.254 -1.70318 -1.1301 0
M  V30 2815 C 270.618 -0.439538 -1.86901 0
M  V30 2816 O 271.819 -0.489095 -2.64313 0
M  V30 2817 C 270.09 -2.91125 -2.07319 0
M  V30 2818 S 271.649 -3.29075 -2.90268 0
M  V30 2819 H 268.467 -0.599426 -0.382374 0
M  V30 2820 H 271.069 -1.91089 -0.412933 0
M  V30 2821 H 269.773 -3.81303 -1.51777 0
M  V30 2822 H 269.304 -2.7272 -2.83526 0
M  V30 2823 H 271.319 -2.80165 -4.09539 0
M  V30 2824 N 270.492 0.636531 -1.44174 0
M  V30 2825 C 271.908 0.954104 -1.27941 0
M  V30 2826 C 272.108 2.0039 -0.211248 0
M  V30 2827 O 271.164 2.49236 0.404695 0
M  V30 2828 C 272.477 1.4225 -2.64925 0
M  V30 2829 C 274.025 1.53827 -2.72592 0
M  V30 2830 C 274.5 2.04053 -4.10032 0
M  V30 2831 N 275.991 2.11331 -4.12182 0
M  V30 2832 C 276.726 2.51352 -5.15374 0
M  V30 2833 N 276.222 2.90549 -6.2893 0
M  V30 2834 N 278.015 2.51438 -5.02728 0
M  V30 2835 H 270.166 -0.0578386 -2.12321 0
M  V30 2836 H 272.429 0.0367406 -0.947288 0
M  V30 2837 H 272.135 0.725466 -3.44136 0
M  V30 2838 H 272.009 2.39451 -2.9145 0
M  V30 2839 H 274.396 2.22628 -1.93702 0
M  V30 2840 H 274.477 0.550154 -2.49814 0
M  V30 2841 H 274.121 1.35848 -4.89395 0
M  V30 2842 H 274.051 3.03726 -4.30184 0
M  V30 2843 H 276.542 1.83745 -3.30222 0
M  V30 2844 H 276.855 3.19884 -7.03487 0
M  V30 2845 H 275.2 2.88313 -6.32377 0
M  V30 2846 H 278.391 2.20203 -4.13072 0
M  V30 2847 H 278.564 2.82304 -5.83274 0
M  V30 2848 N 271.97 1.30982 0.876444 0
M  V30 2849 C 273.381 1.18277 1.44456 0
M  V30 2850 C 273.732 -0.213265 1.95037 0
M  V30 2851 O 272.857 -1.11057 1.85729 0
M  V30 2852 C 273.452 2.1411 2.62569 0
M  V30 2853 C 272.011 2.05358 3.15444 0
M  V30 2854 C 271.158 2.03706 1.88146 0
M  V30 2855 H 274.109 1.43127 0.685584 0
M  V30 2856 H 274.13 1.72692 3.39054 0
M  V30 2857 H 273.642 3.15706 2.25724 0
M  V30 2858 H 271.743 1.06934 3.56926 0
M  V30 2859 H 271.856 2.94156 3.78166 0
M  V30 2860 H 270.22 1.48629 2.06837 0
M  V30 2861 H 271.003 3.07047 1.53547 0
M  V30 2862 N 273.449 -1.08991 1.13837 0
M  V30 2863 C 274.697 -1.80899 0.901098 0
M  V30 2864 C 275.018 -1.86356 -0.574134 0
M  V30 2865 O 274.288 -1.35235 -1.41733 0
M  V30 2866 H 272.868 -0.669966 0.330386 0
M  V30 2867 H 275.53 -1.318 1.43578 0
M  V30 2868 H 274.626 -2.83929 1.29578 0
M  V30 2869 N 274.927 -0.932562 -1.27047 0
M  V30 2870 C 276.152 -0.591474 -1.98787 0
M  V30 2871 C 276.577 0.824601 -1.69062 0
M  V30 2872 O 275.935 1.5541 -0.933677 0
M  V30 2873 C 275.983 -0.829808 -3.50922 0
M  V30 2874 O 275.087 0.102266 -4.12273 0
M  V30 2875 H 274.428 -0.227185 -0.623926 0
M  V30 2876 H 276.958 -1.25314 -1.61733 0
M  V30 2877 H 276.968 -0.747292 -4.01098 0
M  V30 2878 H 275.643 -1.86201 -3.7189 0
M  V30 2879 H 274.22 -0.0305761 -3.72887 0
M  V30 2880 N 276.405 1.4127 -0.698611 0
M  V30 2881 C 277.315 2.34573 -0.0357891 0
M  V30 2882 C 278.331 1.56393 0.762701 0
M  V30 2883 O 279.507 1.8886 0.699564 0
M  V30 2884 C 276.572 3.35159 0.887089 0
M  V30 2885 C 275.633 4.29225 0.0804634 0
M  V30 2886 C 274.866 5.25006 0.959387 0
M  V30 2887 O 275.089 5.26314 2.19886 0
M  V30 2888 O 274.023 6.00519 0.407439 0
M  V30 2889 H 277.849 2.92838 -0.804957 0
M  V30 2890 H 275.434 1.42175 -0.458966 0
M  V30 2891 H 277.316 3.9689 1.41621 0
M  V30 2892 H 275.991 2.79333 1.6357 0
M  V30 2893 H 274.898 3.70833 -0.493328 0
M  V30 2894 H 276.231 4.88157 -0.629547 0
M  V30 2895 N 277.883 0.443576 1.51229 0
M  V30 2896 C 279.108 -0.121648 2.07043 0
M  V30 2897 C 279.533 -1.35156 1.30823 0
M  V30 2898 O 278.891 -1.7793 0.347934 0
M  V30 2899 C 278.939 -0.41624 3.5819 0
M  V30 2900 O 278.043 -1.50163 3.8409 0
M  V30 2901 H 277.384 0.000871367 0.663999 0
M  V30 2902 H 279.914 0.626706 1.94765 0
M  V30 2903 H 279.924 -0.664867 4.02546 0
M  V30 2904 H 278.599 0.482653 4.1309 0
M  V30 2905 H 277.176 -1.24248 3.51592 0
M  V30 2906 N 279.361 -1.56624 0.175154 0
M  V30 2907 C 280.311 -2.14747 -0.766004 0
M  V30 2908 C 281.295 -1.08275 -1.19018 0
M  V30 2909 O 282.487 -1.34388 -1.15191 0
M  V30 2910 C 279.616 -2.79478 -1.99366 0
M  V30 2911 C 278.702 -3.93114 -1.5913 0
M  V30 2912 N 279.093 -4.97752 -0.89872 0
M  V30 2913 C 277.391 -4.04345 -1.88204 0
M  V30 2914 C 278.092 -5.77473 -0.700012 0
M  V30 2915 N 277.068 -5.29207 -1.24263 0
M  V30 2916 H 280.87 -2.93015 -0.22793 0
M  V30 2917 H 278.384 -1.6238 -0.0253843 0
M  V30 2918 H 280.381 -3.19498 -2.67818 0
M  V30 2919 H 279.041 -2.02692 -2.53665 0
M  V30 2920 H 280.052 -5.14903 -0.556347 0
M  V30 2921 H 276.729 -3.38667 -2.44153 0
M  V30 2922 H 278.119 -6.71728 -0.152047 0
M  V30 2923 N 280.839 0.0985539 -1.57292 0
M  V30 2924 C 281.802 1.10402 -2.00858 0
M  V30 2925 C 282.802 1.33146 -0.901593 0
M  V30 2926 O 283.992 1.29318 -1.16716 0
M  V30 2927 C 281.124 2.45394 -2.36632 0
M  V30 2928 H 282.317 0.729099 -2.90902 0
M  V30 2929 H 279.87 0.343495 -1.52479 0
M  V30 2930 H 280.605 2.87769 -1.49531 0
M  V30 2931 H 280.39 2.30235 -3.17387 0
M  V30 2932 H 281.88 3.17718 -2.71007 0
M  V30 2933 N 282.317 1.53212 0.369288 0
M  V30 2934 C 283.565 1.68881 1.11012 0
M  V30 2935 C 283.886 0.441285 1.89941 0
M  V30 2936 O 283.156 -0.544623 1.88177 0
M  V30 2937 H 281.736 0.622569 0.412816 0
M  V30 2938 H 284.398 1.90391 0.416802 0
M  V30 2939 H 283.494 2.54822 1.80201 0
M  V30 2940 N 283.795 -0.628877 1.44509 0
M  V30 2941 C 284.727 -1.754 1.47538 0
M  V30 2942 C 285.74 -1.58575 0.368506 0
M  V30 2943 O 286.929 -1.66847 0.634376 0
M  V30 2944 C 284.029 -3.1315 1.29577 0
M  V30 2945 C 283.202 -3.56413 2.53551 0
M  V30 2946 C 282.261 -4.7305 2.30457 0
M  V30 2947 O 281.287 -4.81247 3.03957 0
M  V30 2948 N 282.489 -5.64903 1.3366 0
M  V30 2949 H 285.254 -1.73272 2.44534 0
M  V30 2950 H 282.815 -0.813512 1.39977 0
M  V30 2951 H 284.807 -3.88902 1.11971 0
M  V30 2952 H 283.377 -3.09908 0.409371 0
M  V30 2953 H 282.597 -2.70847 2.86419 0
M  V30 2954 H 283.885 -3.82071 3.36005 0
M  V30 2955 H 283.283 -5.60975 0.729604 0
M  V30 2956 H 281.84 -6.40275 1.22032 0
M  V30 2957 N 285.273 -1.31445 -0.869486 0
M  V30 2958 C 286.522 -1.20517 -1.61736 0
M  V30 2959 C 286.835 0.235341 -1.94179 0
M  V30 2960 O 288.041 0.466312 -2.67465 0
M  V30 2961 C 286.497 -2.10982 -2.91573 0
M  V30 2962 C 286.105 -3.60032 -2.66611 0
M  V30 2963 C 287.849 -2.08856 -3.69567 0
M  V30 2964 C 285.756 -4.42503 -3.92358 0
M  V30 2965 H 284.686 -0.447493 -0.606849 0
M  V30 2966 H 287.337 -1.56303 -0.96133 0
M  V30 2967 H 285.719 -1.68095 -3.58553 0
M  V30 2968 H 286.893 -4.11167 -2.08035 0
M  V30 2969 H 285.208 -3.64139 -2.0197 0
M  V30 2970 H 287.805 -2.67716 -4.62852 0
M  V30 2971 H 288.148 -1.07582 -4.02159 0
M  V30 2972 H 288.681 -2.49945 -3.09471 0
M  V30 2973 H 285.42 -5.44533 -3.64916 0
M  V30 2974 H 284.94 -3.96125 -4.50383 0
M  V30 2975 H 286.619 -4.54741 -4.60238 0
M  V30 2976 N 286.751 1.08385 -1.14413 0
M  V30 2977 C 287.981 1.8425 -0.934644 0
M  V30 2978 C 288.389 1.81907 0.520234 0
M  V30 2979 O 287.732 1.22126 1.37226 0
M  V30 2980 C 287.794 3.32853 -1.35828 0
M  V30 2981 C 287.458 3.5893 -2.82875 0
M  V30 2982 C 288.455 3.53756 -3.80989 0
M  V30 2983 C 286.14 3.86934 -3.20293 0
M  V30 2984 C 288.134 3.76216 -5.14529 0
M  V30 2985 C 285.821 4.09047 -4.54008 0
M  V30 2986 C 286.819 4.03682 -5.50936 0
M  V30 2987 O 286.507 4.25214 -6.82238 0
M  V30 2988 H 286.239 0.588502 -0.332628 0
M  V30 2989 H 288.793 1.37792 -1.52324 0
M  V30 2990 H 287.023 3.8007 -0.713019 0
M  V30 2991 H 288.712 3.90154 -1.11957 0
M  V30 2992 H 289.478 3.32135 -3.53428 0
M  V30 2993 H 285.357 3.9023 -2.45442 0
M  V30 2994 H 288.901 3.71943 -5.90173 0
M  V30 2995 H 284.798 4.30151 -4.8129 0
M  V30 2996 H 285.566 4.42619 -6.88499 0
M  V30 2997 N 288.23 0.939286 1.26551 0
M  V30 2998 C 289.47 0.5933 1.956 0
M  V30 2999 C 289.834 -0.851515 1.72085 0
M  V30 3000 O 291.035 -1.30634 2.34921 0
M  V30 3001 C 289.306 0.923996 3.45249 0
M  V30 3002 S 290.865 0.688269 4.33369 0
M  V30 3003 H 287.683 0.218591 0.676564 0
M  V30 3004 H 290.285 1.2102 1.5354 0
M  V30 3005 H 288.989 1.97297 3.59864 0
M  V30 3006 H 288.52 0.296746 3.92279 0
M  V30 3007 H 290.535 -0.448434 4.9417 0
M  V30 3008 N 289.708 -1.40897 0.706093 0
M  V30 3009 C 290.948 -2.02916 0.245827 0
M  V30 3010 C 291.312 -1.54751 -1.13649 0
M  V30 3011 O 292.513 -2.08768 -1.69321 0
M  V30 3012 C 290.784 -3.56031 0.312537 0
M  V30 3013 S 292.343 -4.38741 -0.0721388 0
M  V30 3014 H 289.161 -0.704186 0.0982007 0
M  V30 3015 H 291.763 -1.72168 0.926207 0
M  V30 3016 H 290.467 -3.88579 1.32039 0
M  V30 3017 H 289.998 -3.91495 -0.386641 0
M  V30 3018 H 292.013 -4.78952 -1.29692 0
M  V30 3019 N 291.186 -0.45159 -1.50991 0
M  V30 3020 C 292.414 0.108334 -2.06616 0
M  V30 3021 C 292.829 1.35224 -1.31757 0
M  V30 3022 O 292.186 1.78475 -0.381174 0
M  V30 3023 C 292.237 0.41619 -3.59096 0
M  V30 3024 O 291.958 -0.778361 -4.3113 0
M  V30 3025 C 293.459 1.02523 -4.31282 0
M  V30 3026 H 290.679 0.00159995 -0.670998 0
M  V30 3027 H 293.223 -0.634771 -1.94399 0
M  V30 3028 H 291.378 1.10921 -3.71181 0
M  V30 3029 H 291.792 -0.511181 -5.22003 0
M  V30 3030 H 293.266 1.19053 -5.39009 0
M  V30 3031 H 293.743 2.01013 -3.905 0
M  V30 3032 H 294.349 0.371173 -4.23677 0
M  V30 3033 N 292.664 1.56529 -0.183458 0
M  V30 3034 C 293.912 1.96855 0.457452 0
M  V30 3035 C 294.233 1.07104 1.62953 0
M  V30 3036 O 293.503 0.139887 1.954 0
M  V30 3037 H 292.083 0.72693 0.171992 0
M  V30 3038 H 294.745 1.93056 -0.267476 0
M  V30 3039 H 293.841 3.01423 0.809368 0
M  V30 3040 N 294.142 -0.090211 1.57342 0
M  V30 3041 C 295.389 -0.792807 1.86335 0
M  V30 3042 C 295.717 -1.78494 0.772662 0
M  V30 3043 O 294.972 -1.94305 -0.233258 0
M  V30 3044 C 295.271 -1.55222 3.21933 0
M  V30 3045 C 294.937 -0.701765 4.45406 0
M  V30 3046 C 293.599 -0.467334 4.78925 0
M  V30 3047 C 295.951 -0.11086 5.21082 0
M  V30 3048 C 293.279 0.367785 5.85546 0
M  V30 3049 C 295.631 0.711609 6.28585 0
M  V30 3050 C 294.295 0.956086 6.60617 0
M  V30 3051 H 293.565 -0.290109 0.681849 0
M  V30 3052 H 296.212 -0.0541332 1.91423 0
M  V30 3053 H 294.517 -2.3626 3.12551 0
M  V30 3054 H 296.214 -2.10032 3.41595 0
M  V30 3055 H 292.804 -0.894598 4.1916 0
M  V30 3056 H 296.988 -0.279129 4.95514 0
M  V30 3057 H 292.244 0.566128 6.08773 0
M  V30 3058 H 296.418 1.17632 6.86393 0
M  V30 3059 H 294.045 1.60499 7.43064 0
M  V30 3060 N 295.62 -1.53406 -0.361157 0
M  V30 3061 C 296.55 -1.83136 -1.44857 0
M  V30 3062 C 297.531 -0.685174 -1.5569 0
M  V30 3063 O 298.716 -0.93544 -1.70186 0
M  V30 3064 C 295.846 -2.02522 -2.82138 0
M  V30 3065 C 294.8 -3.18302 -2.86126 0
M  V30 3066 C 294.126 -3.22989 -4.26125 0
M  V30 3067 C 295.426 -4.56796 -2.53248 0
M  V30 3068 H 297.12 -2.74201 -1.20226 0
M  V30 3069 H 294.666 -1.31938 -0.576922 0
M  V30 3070 H 296.619 -2.21904 -3.58241 0
M  V30 3071 H 295.343 -1.08172 -3.08166 0
M  V30 3072 H 294.002 -2.98747 -2.12475 0
M  V30 3073 H 293.65 -2.26267 -4.49235 0
M  V30 3074 H 293.35 -4.00781 -4.29708 0
M  V30 3075 H 294.874 -3.44559 -5.04094 0
M  V30 3076 H 296.288 -4.7631 -3.19064 0
M  V30 3077 H 294.685 -5.36862 -2.68141 0
M  V30 3078 H 295.755 -4.61606 -1.48484 0
M  V30 3079 N 297.098 0.621204 -1.44841 0
M  V30 3080 C 298.061 1.71459 -1.521 0
M  V30 3081 C 299.061 1.55696 -0.401933 0
M  V30 3082 O 300.251 1.61011 -0.664925 0
M  V30 3083 C 297.383 3.10624 -1.40447 0
M  V30 3084 H 298.576 1.66394 -2.49506 0
M  V30 3085 H 296.129 0.835745 -1.3208 0
M  V30 3086 H 296.864 3.21277 -0.441737 0
M  V30 3087 H 296.649 3.23473 -2.21602 0
M  V30 3088 H 298.139 3.90293 -1.4853 0
M  V30 3089 N 298.576 1.31904 0.862503 0
M  V30 3090 C 299.825 1.21373 1.61094 0
M  V30 3091 C 300.138 -0.22504 1.94301 0
M  V30 3092 O 301.344 -0.452121 2.67709 0
M  V30 3093 C 299.8 2.12525 2.9045 0
M  V30 3094 C 299.408 3.61441 2.64697 0
M  V30 3095 C 301.152 2.10813 3.68454 0
M  V30 3096 C 299.059 4.44578 3.90006 0
M  V30 3097 H 297.989 0.450705 0.604468 0
M  V30 3098 H 300.64 1.56811 0.953027 0
M  V30 3099 H 299.022 1.69994 3.57656 0
M  V30 3100 H 300.196 4.12264 2.05851 0
M  V30 3101 H 298.511 3.65205 2.00036 0
M  V30 3102 H 301.108 2.70167 4.61426 0
M  V30 3103 H 301.451 1.09713 4.01583 0
M  V30 3104 H 301.984 2.51583 3.08141 0
M  V30 3105 H 298.723 5.46461 3.62023 0
M  V30 3106 H 298.243 3.98508 4.48276 0
M  V30 3107 H 299.922 4.57176 4.5782 0
M  V30 3108 N 300.054 -1.07777 1.14986 0
M  V30 3109 C 301.282 -1.84018 0.945773 0
M  V30 3110 C 301.697 -1.81897 -0.505863 0
M  V30 3111 O 301.054 -1.22726 -1.35072 0
M  V30 3112 C 301.105 -3.31287 1.44677 0
M  V30 3113 O 300.826 -3.33449 2.84154 0
M  V30 3114 C 302.327 -4.24311 1.28355 0
M  V30 3115 H 299.547 -0.580716 0.336169 0
M  V30 3116 H 302.091 -1.36077 1.52654 0
M  V30 3117 H 300.246 -3.76594 0.908625 0
M  V30 3118 H 300.66 -4.25427 3.06777 0
M  V30 3119 H 302.134 -5.2573 1.68261 0
M  V30 3120 H 302.611 -4.38612 0.227184 0
M  V30 3121 H 303.217 -3.84836 1.81056 0
M  V30 3122 N 301.532 -0.945985 -1.26051 0
M  V30 3123 C 302.757 -0.612525 -1.98149 0
M  V30 3124 C 303.182 0.806623 -1.69927 0
M  V30 3125 O 302.54 1.54411 -0.950108 0
M  V30 3126 C 302.588 -0.866981 -3.50023 0
M  V30 3127 O 301.692 0.0585333 -4.12358 0
M  V30 3128 H 301.033 -0.23379 -0.621481 0
M  V30 3129 H 303.563 -1.27023 -1.60395 0
M  V30 3130 H 303.573 -0.789792 -4.00283 0
M  V30 3131 H 302.248 -1.90135 -3.69894 0
M  V30 3132 H 300.825 -0.0701241 -3.72834 0
M  V30 3133 N 303.011 1.40521 -0.713556 0
M  V30 3134 C 303.943 2.29191 -0.0203126 0
M  V30 3135 C 304.956 1.45723 0.725864 0
M  V30 3136 O 306.145 1.69033 0.573581 0
M  V30 3137 C 303.245 3.2395 0.995486 0
M  V30 3138 C 302.418 4.36262 0.315256 0
M  V30 3139 C 301.477 5.11474 1.23616 0
M  V30 3140 O 300.503 5.64606 0.721719 0
M  V30 3141 N 301.705 5.20638 2.56743 0
M  V30 3142 H 304.47 2.89327 -0.781652 0
M  V30 3143 H 302.031 1.51869 -0.561022 0
M  V30 3144 H 304.023 3.71137 1.61368 0
M  V30 3145 H 302.593 2.64995 1.6582 0
M  V30 3146 H 301.813 3.91228 -0.483106 0
M  V30 3147 H 303.101 5.08558 -0.157004 0
M  V30 3148 H 302.499 4.7895 3.01037 0
M  V30 3149 H 301.056 5.71339 3.13712 0
M  V30 3150 N 304.489 0.459591 1.5075 0
M  V30 3151 C 305.419 -0.330644 2.31147 0
M  V30 3152 C 306.4 -1.00087 1.37538 0
M  V30 3153 O 307.585 -1.00025 1.66459 0
M  V30 3154 C 304.715 -1.41958 3.16962 0
M  V30 3155 C 303.669 -0.871608 4.19031 0
M  V30 3156 C 302.995 -2.05797 4.9351 0
M  V30 3157 C 304.295 0.109251 5.22186 0
M  V30 3158 H 305.989 0.340336 2.97459 0
M  V30 3159 H 303.535 0.165119 1.4305 0
M  V30 3160 H 305.488 -1.9798 3.71997 0
M  V30 3161 H 304.212 -2.11917 2.48513 0
M  V30 3162 H 302.871 -0.333442 3.6508 0
M  V30 3163 H 302.519 -2.74427 4.21544 0
M  V30 3164 H 302.219 -1.6976 5.62544 0
M  V30 3165 H 303.743 -2.62331 5.51375 0
M  V30 3166 H 305.157 -0.361405 5.7216 0
M  V30 3167 H 303.554 0.383316 5.98875 0
M  V30 3168 H 304.624 1.03887 4.73641 0
M  V30 3169 N 305.967 -1.56429 0.191757 0
M  V30 3170 C 306.917 -2.15548 -0.743184 0
M  V30 3171 C 307.901 -1.09531 -1.17863 0
M  V30 3172 O 309.093 -1.35602 -1.13759 0
M  V30 3173 C 306.222 -2.81577 -1.96391 0
M  V30 3174 C 305.308 -3.9478 -1.54951 0
M  V30 3175 N 305.699 -4.98677 -0.845876 0
M  V30 3176 C 303.997 -4.06319 -1.83905 0
M  V30 3177 C 304.698 -5.78183 -0.638724 0
M  V30 3178 N 303.674 -5.30495 -1.18643 0
M  V30 3179 H 307.476 -2.9324 -0.196839 0
M  V30 3180 H 304.99 -1.62398 -0.0081603 0
M  V30 3181 H 306.987 -3.22321 -2.64415 0
M  V30 3182 H 305.647 -2.05371 -2.51501 0
M  V30 3183 H 306.658 -5.15464 -0.501704 0
M  V30 3184 H 303.335 -3.41238 -2.40548 0
M  V30 3185 H 304.725 -6.71851 -0.0807929 0
M  V30 3186 N 307.445 0.0818655 -1.57387 0
M  V30 3187 C 308.377 1.12484 -1.997 0
M  V30 3188 C 309.39 1.35564 -0.90146 0
M  V30 3189 O 310.579 1.33982 -1.17945 0
M  V30 3190 C 307.679 2.47778 -2.31213 0
M  V30 3191 C 306.852 2.44793 -3.62485 0
M  V30 3192 C 305.911 3.62117 -3.81782 0
M  V30 3193 O 304.937 3.44005 -4.53486 0
M  V30 3194 N 306.139 4.82094 -3.23367 0
M  V30 3195 H 308.904 0.764585 -2.89783 0
M  V30 3196 H 306.465 0.270664 -1.59621 0
M  V30 3197 H 308.457 3.24891 -2.41304 0
M  V30 3198 H 307.027 2.75843 -1.4707 0
M  V30 3199 H 306.247 1.53134 -3.6324 0
M  V30 3200 H 307.535 2.39889 -4.48699 0
M  V30 3201 H 306.933 4.99713 -2.65148 0
M  V30 3202 H 305.49 5.56753 -3.38923 0
M  V30 3203 N 308.923 1.53595 0.353017 0
M  V30 3204 C 310.169 1.70638 1.09593 0
M  V30 3205 C 310.502 0.463286 1.88593 0
M  V30 3206 O 309.777 -0.539597 1.86865 0
M  V30 3207 C 310.06 2.96406 2.04489 0
M  V30 3208 C 309.913 4.30901 1.29014 0
M  V30 3209 C 311.232 3.17812 3.0444 0
M  V30 3210 H 308.351 0.620913 0.397034 0
M  V30 3211 H 310.993 1.86254 0.375446 0
M  V30 3212 H 309.143 2.83223 2.65927 0
M  V30 3213 H 310.815 4.55917 0.702638 0
M  V30 3214 H 309.058 4.29741 0.592071 0
M  V30 3215 H 309.729 5.1506 1.98537 0
M  V30 3216 H 312.205 3.30263 2.53112 0
M  V30 3217 H 311.081 4.07223 3.6805 0
M  V30 3218 H 311.342 2.33669 3.75301 0
M  V30 3219 N 310.401 -0.613514 1.45168 0
M  V30 3220 C 311.349 -1.74572 1.53712 0
M  V30 3221 C 312.343 -1.64426 0.407505 0
M  V30 3222 O 313.549 -1.70291 0.583176 0
M  V30 3223 H 309.924 -0.576641 0.48269 0
M  V30 3224 H 311.895 -1.64492 2.48968 0
M  V30 3225 C 310.644 -3.12943 1.51532 0
M  V30 3226 H 309.967 -3.21407 2.37776 0
M  V30 3227 H 311.407 -3.9201 1.61569 0
M  V30 3228 C 309.866 -3.36053 0.238798 0
M  V30 3229 O 310.396 -3.95837 -0.6838 0
M  V30 3230 N 308.602 -2.9028 0.136359 0
M  V30 3231 H 308.149 -2.41811 0.887999 0
M  V30 3232 H 308.107 -3.06116 -0.716944 0
M  V30 3233 N 311.879 -1.3236 -0.855495 0
M  V30 3234 C 313.104 -1.2601 -1.64731 0
M  V30 3235 C 313.529 0.169068 -1.87339 0
M  V30 3236 O 312.887 1.12016 -1.42556 0
M  V30 3237 C 312.935 -2.02417 -2.98429 0
M  V30 3238 O 312.039 -1.3714 -3.8893 0
M  V30 3239 H 311.38 -0.434325 -0.502253 0
M  V30 3240 H 313.91 -1.74661 -1.06558 0
M  V30 3241 H 313.92 -2.12559 -3.48257 0
M  V30 3242 H 312.595 -3.06343 -2.81295 0
M  V30 3243 H 311.172 -1.3554 -3.47395 0
M  V30 3244 N 313.357 1.07166 -1.15556 0
M  V30 3245 C 314.634 1.76546 -0.842069 0
M  V30 3246 C 315.014 2.00453 0.661939 0
M  V30 3247 O 314.362 1.62452 1.60691 0
M  V30 3248 C 314.572 3.07266 -1.65495 0
M  V30 3249 C 315.92 3.81578 -1.86234 0
M  V30 3250 O 316.944 3.17083 -1.62287 0
M  V30 3251 O 315.803 4.97419 -2.26355 0
M  V30 3252 H 312.897 0.766756 -0.309862 0
M  V30 3253 H 315.443 1.13514 -1.26145 0
M  V30 3254 H 314.215 2.85494 -2.67598 0
M  V30 3255 H 313.838 3.7803 -1.23203 0
M  V30 3256 N 314.835 0.952656 1.25548 0
M  V30 3257 C 315.765 0.489287 2.28316 0
M  V30 3258 C 316.746 -0.463359 1.63667 0
M  V30 3259 O 317.931 -0.36274 1.90782 0
M  V30 3260 C 315.061 -0.235603 3.465 0
M  V30 3261 C 314.015 0.631593 4.23314 0
M  V30 3262 C 313.341 -0.223923 5.34231 0
M  V30 3263 C 314.641 1.90871 4.86174 0
M  V30 3264 H 316.335 1.34822 2.67326 0
M  V30 3265 H 313.881 0.649728 1.28509 0
M  V30 3266 H 315.834 -0.570882 4.17515 0
M  V30 3267 H 314.558 -1.12877 3.06474 0
M  V30 3268 H 313.217 0.949929 3.54079 0
M  V30 3269 H 312.865 -1.11678 4.90446 0
M  V30 3270 H 312.565 0.35299 5.86539 0
M  V30 3271 H 314.089 -0.554214 6.0808 0
M  V30 3272 H 315.503 1.63997 5.49343 0
M  V30 3273 H 313.9 2.43112 5.4865 0
M  V30 3274 H 314.97 2.61304 4.08471 0
M  V30 3275 N 316.313 -1.40141 0.720998 0
M  V30 3276 C 317.243 -2.33339 0.0867621 0
M  V30 3277 C 318.224 -1.53178 -0.739622 0
M  V30 3278 O 319.409 -1.81625 -0.687449 0
M  V30 3279 C 316.539 -3.37194 -0.831728 0
M  V30 3280 C 315.493 -4.27857 -0.110558 0
M  V30 3281 C 314.819 -5.22294 -1.14513 0
M  V30 3282 C 316.119 -5.11872 1.0385 0
M  V30 3283 H 317.813 -2.86626 0.865219 0
M  V30 3284 H 315.359 -1.37814 0.417516 0
M  V30 3285 H 317.312 -4.01335 -1.28485 0
M  V30 3286 H 316.036 -2.82314 -1.64214 0
M  V30 3287 H 314.695 -3.65176 0.322797 0
M  V30 3288 H 314.343 -4.63717 -1.94874 0
M  V30 3289 H 314.043 -5.83797 -0.667446 0
M  V30 3290 H 315.567 -5.89312 -1.59824 0
M  V30 3291 H 316.981 -5.69436 0.664482 0
M  V30 3292 H 315.378 -5.82445 1.4449 0
M  V30 3293 H 316.448 -4.4753 1.86668 0
M  V30 3294 N 317.792 -0.46758 -1.50504 0
M  V30 3295 C 319.04 0.0884469 -2.01906 0
M  V30 3296 C 319.361 1.40532 -1.35188 0
M  V30 3297 O 318.631 1.89515 -0.496079 0
M  V30 3298 H 317.211 0.0356765 -0.746148 0
M  V30 3299 H 319.873 -0.6172 -1.84869 0
M  V30 3300 H 318.969 0.2425 -3.11156 0
M  V30 3301 N 319.27 1.56325 -0.20005 0
M  V30 3302 C 320.516 1.98772 0.431408 0
M  V30 3303 C 320.871 1.0849 1.58895 0
M  V30 3304 O 320.164 0.130331 1.91156 0
M  V30 3305 C 320.358 3.4495 0.935103 0
M  V30 3306 C 320.187 4.49371 -0.172096 0
M  V30 3307 C 318.957 5.0134 -0.631377 0
M  V30 3308 C 321.155 5.04822 -0.982806 0
M  V30 3309 N 319.137 5.89433 -1.71588 0
M  V30 3310 C 320.508 5.89632 -1.91661 0
M  V30 3311 C 322.563 4.87242 -1.02467 0
M  V30 3312 C 321.266 6.58741 -2.88881 0
M  V30 3313 C 323.292 5.57094 -1.98494 0
M  V30 3314 C 322.654 6.41655 -2.90617 0
M  V30 3315 H 318.753 0.771922 0.125144 0
M  V30 3316 H 321.337 1.92266 -0.306883 0
M  V30 3317 H 319.508 3.51946 1.64282 0
M  V30 3318 H 321.24 3.74354 1.53758 0
M  V30 3319 H 317.995 4.73071 -0.223827 0
M  V30 3320 H 318.419 6.38182 -2.25948 0
M  V30 3321 H 323.061 4.21538 -0.326408 0
M  V30 3322 H 320.779 7.23641 -3.5968 0
M  V30 3323 H 324.365 5.45466 -2.0238 0
M  V30 3324 H 323.245 6.94755 -3.63711 0
M  V30 3325 N 320.748 -0.0735177 1.57428 0
M  V30 3326 C 321.994 -0.768909 1.88307 0
M  V30 3327 C 322.349 -1.75273 0.793535 0
M  V30 3328 O 321.642 -1.90527 -0.202466 0
M  V30 3329 C 321.836 -1.51799 3.23561 0
M  V30 3330 C 321.665 -0.608217 4.45568 0
M  V30 3331 C 320.435 -0.245808 5.04702 0
M  V30 3332 C 322.633 0.0942904 5.14214 0
M  V30 3333 N 320.615 0.66987 6.10234 0
M  V30 3334 C 321.986 0.867222 6.13905 0
M  V30 3335 C 324.041 0.165943 4.97623 0
M  V30 3336 C 322.744 1.70515 6.98797 0
M  V30 3337 C 324.77 0.990837 5.83041 0
M  V30 3338 C 324.132 1.75182 6.82269 0
M  V30 3339 H 320.231 -0.25685 0.738615 0
M  V30 3340 H 322.815 -0.030499 1.94676 0
M  V30 3341 H 320.986 -2.22713 3.18203 0
M  V30 3342 H 322.718 -2.16226 3.42094 0
M  V30 3343 H 319.473 -0.598284 4.69806 0
M  V30 3344 H 319.897 1.1209 6.67656 0
M  V30 3345 H 324.539 -0.408064 4.20826 0
M  V30 3346 H 322.257 2.29013 7.7497 0
M  V30 3347 H 325.843 1.04923 5.72261 0
M  V30 3348 H 324.723 2.37983 7.47217 0
M  V30 3349 N 322.226 -1.5378 -0.344866 0
M  V30 3350 C 323.156 -1.84662 -1.42906 0
M  V30 3351 C 324.137 -0.701648 -1.54955 0
M  V30 3352 O 325.322 -0.953438 -1.69184 0
M  V30 3353 C 322.452 -2.05503 -2.79974 0
M  V30 3354 C 321.406 -3.21318 -2.82734 0
M  V30 3355 C 320.732 -3.2749 -4.22675 0
M  V30 3356 C 322.032 -4.59456 -2.48389 0
M  V30 3357 H 323.726 -2.75461 -1.17311 0
M  V30 3358 H 321.272 -1.32542 -0.562896 0
M  V30 3359 H 323.225 -2.25691 -3.55867 0
M  V30 3360 H 321.949 -1.11434 -3.07002 0
M  V30 3361 H 320.608 -3.00984 -2.09294 0
M  V30 3362 H 320.256 -2.31019 -4.4681 0
M  V30 3363 H 319.956 -4.05316 -4.25433 0
M  V30 3364 H 321.48 -3.49887 -5.00412 0
M  V30 3365 H 322.894 -4.79667 -3.13995 0
M  V30 3366 H 321.291 -5.39675 -2.62432 0
M  V30 3367 H 322.361 -4.63155 -1.4358 0
M  V30 3368 N 323.704 0.605807 -1.45491 0
M  V30 3369 C 324.944 1.37606 -1.51142 0
M  V30 3370 C 325.308 1.91413 -0.150075 0
M  V30 3371 O 326.509 2.68677 -0.0812828 0
M  V30 3372 C 324.78 2.49197 -2.56195 0
M  V30 3373 S 326.339 3.36953 -2.81083 0
M  V30 3374 H 323.157 0.469118 -0.534275 0
M  V30 3375 H 325.759 0.698845 -1.82583 0
M  V30 3376 H 324.463 2.0802 -3.53773 0
M  V30 3377 H 323.994 3.21717 -2.26411 0
M  V30 3378 H 326.009 4.47395 -2.14598 0
M  V30 3379 N 325.182 1.32811 0.848464 0
M  V30 3380 C 326.092 1.24278 1.98978 0
M  V30 3381 C 327.108 0.155176 1.73307 0
M  V30 3382 O 328.284 0.376999 1.9784 0
M  V30 3383 C 325.349 0.972444 3.32783 0
M  V30 3384 C 324.41 2.14911 3.71634 0
M  V30 3385 C 323.643 1.89157 4.99054 0
M  V30 3386 O 323.866 0.837165 5.64223 0
M  V30 3387 O 322.8 2.75433 5.35183 0
M  V30 3388 H 326.626 2.20238 2.09115 0
M  V30 3389 H 324.211 1.12762 0.980052 0
M  V30 3390 H 326.093 0.838432 4.12975 0
M  V30 3391 H 324.768 0.043051 3.23671 0
M  V30 3392 H 323.675 2.33862 2.91992 0
M  V30 3393 H 325.008 3.06151 3.85399 0
M  V30 3394 N 326.66 -1.06551 1.16123 0
M  V30 3395 C 328.076 -1.3142 0.905585 0
M  V30 3396 C 328.276 -1.96571 -0.442964 0
M  V30 3397 O 327.332 -2.23068 -1.18308 0
M  V30 3398 C 328.645 -2.19741 2.05267 0
M  V30 3399 C 330.193 -2.33165 2.08813 0
M  V30 3400 C 330.668 -3.24838 3.22868 0
M  V30 3401 N 332.159 -3.32421 3.22568 0
M  V30 3402 C 332.894 -4.0344 4.0746 0
M  V30 3403 N 332.39 -4.77003 5.02434 0
M  V30 3404 N 334.183 -3.99464 3.95456 0
M  V30 3405 H 326.334 -0.626548 2.02949 0
M  V30 3406 H 328.597 -0.338777 0.8854 0
M  V30 3407 H 328.303 -1.79142 3.02657 0
M  V30 3408 H 328.177 -3.20313 1.99198 0
M  V30 3409 H 330.564 -2.73013 1.12018 0
M  V30 3410 H 330.645 -1.3227 2.18948 0
M  V30 3411 H 330.289 -2.85708 4.19921 0
M  V30 3412 H 330.219 -4.25707 3.0997 0
M  V30 3413 H 332.71 -2.79994 2.53795 0
M  V30 3414 H 333.023 -5.28712 5.63634 0
M  V30 3415 H 331.368 -4.75992 5.06415 0
M  V30 3416 H 334.559 -3.4111 3.20564 0
M  V30 3417 H 334.732 -4.54544 4.61837 0
M  V30 3418 N 328.138 -0.959301 -1.25041 0
M  V30 3419 C 329.07 -0.440543 -2.24926 0
M  V30 3420 C 330.083 0.446131 -1.56568 0
M  V30 3421 O 331.272 0.253657 -1.76689 0
M  V30 3422 C 328.372 0.38412 -3.36716 0
M  V30 3423 C 327.545 -0.490658 -4.34639 0
M  V30 3424 C 326.604 0.276587 -5.25473 0
M  V30 3425 O 325.63 -0.326614 -5.68262 0
M  V30 3426 N 326.832 1.56844 -5.5891 0
M  V30 3427 H 329.597 -1.29931 -2.70071 0
M  V30 3428 H 327.158 -0.830181 -1.38995 0
M  V30 3429 H 329.15 0.905228 -3.94446 0
M  V30 3430 H 327.72 1.14377 -2.90924 0
M  V30 3431 H 326.94 -1.19282 -3.7572 0
M  V30 3432 H 328.228 -1.08756 -4.97041 0
M  V30 3433 H 327.626 2.08036 -5.26059 0
M  V30 3434 H 326.183 2.03541 -6.19205 0
M  V30 3435 N 329.616 1.39756 -0.72842 0
M  V30 3436 C 330.546 2.33289 -0.0991354 0
M  V30 3437 C 331.527 1.53568 0.731489 0
M  V30 3438 O 332.712 1.81987 0.677807 0
M  V30 3439 C 329.842 3.3763 0.813834 0
M  V30 3440 C 328.796 4.2791 0.0878663 0
M  V30 3441 C 328.122 5.22894 1.11741 0
M  V30 3442 C 329.422 5.11314 -1.06563 0
M  V30 3443 H 331.116 2.86163 -0.880408 0
M  V30 3444 H 328.662 1.37591 -0.424819 0
M  V30 3445 H 330.615 4.0201 1.26355 0
M  V30 3446 H 329.339 2.83181 1.62715 0
M  V30 3447 H 327.998 3.65 -0.342159 0
M  V30 3448 H 327.646 4.64744 1.92412 0
M  V30 3449 H 327.346 5.84143 0.636477 0
M  V30 3450 H 328.87 5.90151 1.56697 0
M  V30 3451 H 330.284 5.69076 -0.694671 0
M  V30 3452 H 328.681 5.81671 -1.47577 0
M  V30 3453 H 329.751 4.46534 -1.89038 0
M  V30 3454 N 331.094 0.475555 1.50254 0
M  V30 3455 C 332.505 0.0215174 1.86688 0
M  V30 3456 C 332.856 -1.38467 1.39001 0
M  V30 3457 O 331.981 -2.02732 0.756894 0
M  V30 3458 C 332.576 0.0322715 3.38785 0
M  V30 3459 C 331.135 -0.366314 3.74613 0
M  V30 3460 C 330.282 0.415832 2.74164 0
M  V30 3461 H 333.233 0.689612 1.42934 0
M  V30 3462 H 333.254 -0.76889 3.7265 0
M  V30 3463 H 332.766 1.05584 3.73462 0
M  V30 3464 H 330.867 -1.39406 3.45538 0
M  V30 3465 H 330.98 -0.064555 4.79057 0
M  V30 3466 H 329.344 -0.131048 2.54363 0
M  V30 3467 H 330.127 1.43899 3.11686 0
M  V30 3468 N 332.573 -1.56217 0.208337 0
M  V30 3469 C 333.798 -2.02782 -0.435222 0
M  V30 3470 C 334.223 -1.08738 -1.53485 0
M  V30 3471 O 333.581 -0.0731855 -1.81152 0
M  V30 3472 C 333.629 -3.47687 -0.956335 0
M  V30 3473 O 332.733 -3.56773 -2.06849 0
M  V30 3474 H 332.074 -0.656403 -0.100158 0
M  V30 3475 H 334.604 -2.02033 0.3231 0
M  V30 3476 H 334.614 -3.87745 -1.26955 0
M  V30 3477 H 333.289 -4.15624 -0.15143 0
M  V30 3478 H 331.866 -3.28597 -1.76292 0
M  V30 3479 N 334.051 0.0651679 -1.57465 0
M  V30 3480 C 335.299 0.761555 -1.87202 0
M  V30 3481 C 335.62 1.77778 -0.801243 0
M  V30 3482 O 334.89 1.95166 0.16937 0
M  V30 3483 H 333.47 0.284251 -0.690804 0
M  V30 3484 H 336.132 0.0396827 -1.9486 0
M  V30 3485 H 335.228 1.27365 -2.84929 0
M  V30 3486 N 335.529 1.53961 0.336706 0
M  V30 3487 C 336.777 1.71197 1.07405 0
M  V30 3488 C 337.098 0.481475 1.88962 0
M  V30 3489 O 336.368 -0.504585 1.8929 0
M  V30 3490 H 334.948 0.631185 0.399517 0
M  V30 3491 H 337.61 1.91232 0.376323 0
M  V30 3492 H 336.706 2.58587 1.74755 0
M  V30 3493 N 337.007 -0.598083 1.45811 0
M  V30 3494 C 337.937 -1.71873 1.58057 0
M  V30 3495 C 338.918 -1.64533 0.431615 0
M  V30 3496 O 340.103 -1.82787 0.65595 0
M  V30 3497 C 337.233 -3.10495 1.55597 0
M  V30 3498 C 336.187 -3.32654 2.69305 0
M  V30 3499 C 335.513 -4.71646 2.51902 0
M  V30 3500 C 336.813 -3.21981 4.11248 0
M  V30 3501 H 338.507 -1.61881 2.51863 0
M  V30 3502 H 336.053 -0.777372 1.21214 0
M  V30 3503 H 338.006 -3.88699 1.6276 0
M  V30 3504 H 336.73 -3.2135 0.583255 0
M  V30 3505 H 335.389 -2.56843 2.61586 0
M  V30 3506 H 335.037 -4.79246 1.52748 0
M  V30 3507 H 334.737 -4.87426 3.2816 0
M  V30 3508 H 336.261 -5.52038 2.60933 0
M  V30 3509 H 337.675 -3.90049 4.20161 0
M  V30 3510 H 336.072 -3.49289 4.87972 0
M  V30 3511 H 337.142 -2.1928 4.32486 0
M  V30 3512 N 338.485 -1.33259 -0.841409 0
M  V30 3513 C 339.433 -1.23279 -1.97244 0
M  V30 3514 C 340.427 -0.134706 -1.68864 0
M  V30 3515 O 341.633 -0.298501 -1.77508 0
M  V30 3516 H 338.008 -0.382497 -0.647457 0
M  V30 3517 H 339.979 -2.18906 -2.02787 0
M  V30 3518 C 338.728 -0.986268 -3.33419 0
M  V30 3519 H 338.051 -1.82347 -3.55794 0
M  V30 3520 H 339.491 -0.956728 -4.13065 0
M  V30 3521 C 337.95 0.310842 -3.35463 0
M  V30 3522 O 338.48 1.31838 -3.79449 0
M  V30 3523 N 336.686 0.337485 -2.88634 0
M  V30 3524 H 336.233 -0.482967 -2.53032 0
M  V30 3525 H 336.191 1.20518 -2.90384 0
M  V30 3526 N 339.963 1.05934 -1.16686 0
M  V30 3527 C 341.211 1.78447 -0.948744 0
M  V30 3528 C 341.532 1.87813 0.524523 0
M  V30 3529 O 340.802 1.38945 1.38098 0
M  V30 3530 H 339.382 0.660971 -0.348033 0
M  V30 3531 H 342.044 1.27947 -1.47022 0
M  V30 3532 H 341.14 2.80394 -1.37061 0
M  V30 3533 N 341.441 0.965919 1.2453 0
M  V30 3534 C 342.857 0.67216 1.44756 0
M  V30 3535 C 343.057 -0.766609 1.86347 0
M  V30 3536 O 342.113 -1.5407 2.00047 0
M  V30 3537 C 343.426 1.65473 2.51076 0
M  V30 3538 C 344.974 1.66716 2.64905 0
M  V30 3539 C 345.449 2.63766 3.74421 0
M  V30 3540 N 346.94 2.62198 3.81846 0
M  V30 3541 C 347.675 3.33966 4.66106 0
M  V30 3542 N 347.171 4.15245 5.54566 0
M  V30 3543 N 348.964 3.22799 4.60171 0
M  V30 3544 H 341.115 1.89553 0.958293 0
M  V30 3545 H 343.378 0.815979 0.482579 0
M  V30 3546 H 343.084 2.68296 2.27399 0
M  V30 3547 H 342.958 1.4261 3.49202 0
M  V30 3548 H 345.345 0.646057 2.87941 0
M  V30 3549 H 345.426 1.93642 1.67142 0
M  V30 3550 H 345.07 3.6601 3.52135 0
M  V30 3551 H 345 2.34121 4.71694 0
M  V30 3552 H 347.491 2.032 3.18619 0
M  V30 3553 H 347.804 4.66898 6.15814 0
M  V30 3554 H 346.149 4.1934 5.54237 0
M  V30 3555 H 349.34 2.58764 3.90075 0
M  V30 3556 H 349.513 3.78994 5.25612 0
M  V30 3557 N 342.919 -1.39368 0.735821 0
M  V30 3558 C 344.33 -1.83313 0.354015 0
M  V30 3559 C 344.681 -1.61461 -1.11466 0
M  V30 3560 O 343.806 -1.10621 -1.85989 0
M  V30 3561 C 344.401 -3.32781 0.635769 0
M  V30 3562 C 342.96 -3.75142 0.307448 0
M  V30 3563 C 342.107 -2.62358 0.897974 0
M  V30 3564 H 345.058 -1.28349 0.933398 0
M  V30 3565 H 345.079 -3.80388 -0.0921773 0
M  V30 3566 H 344.591 -3.48654 1.70476 0
M  V30 3567 H 342.692 -3.64857 -0.755674 0
M  V30 3568 H 342.805 -4.72532 0.790583 0
M  V30 3569 H 341.169 -2.52624 0.324551 0
M  V30 3570 H 341.952 -2.81036 1.97164 0
M  V30 3571 N 344.397 -0.483516 -1.5 0
M  V30 3572 C 345.307 0.309172 -2.32554 0
M  V30 3573 C 346.323 0.984159 -1.43493 0
M  V30 3574 O 347.499 0.969399 -1.76535 0
M  V30 3575 C 344.564 1.36979 -3.18493 0
M  V30 3576 C 343.625 0.710095 -4.23387 0
M  V30 3577 C 342.858 1.72018 -5.05218 0
M  V30 3578 O 343.081 2.94813 -4.88305 0
M  V30 3579 O 342.015 1.28515 -5.8802 0
M  V30 3580 H 345.841 -0.366064 -3.01486 0
M  V30 3581 H 343.426 -0.24514 -1.47375 0
M  V30 3582 H 345.308 1.98385 -3.71781 0
M  V30 3583 H 343.983 2.02828 -2.52275 0
M  V30 3584 H 342.89 0.0567539 -3.74057 0
M  V30 3585 H 344.223 0.0943557 -4.9211 0
M  V30 3586 N 345.875 1.56104 -0.216619 0
M  V30 3587 C 346.822 2.2007 0.695531 0
M  V30 3588 C 347.792 1.15471 1.19397 0
M  V30 3589 O 348.977 1.43807 1.25396 0
M  V30 3590 C 346.117 2.88073 1.90021 0
M  V30 3591 C 345.23 4.07253 1.44113 0
M  V30 3592 C 344.365 4.63052 2.603 0
M  V30 3593 C 343.404 5.74545 2.11103 0
M  V30 3594 N 342.541 6.24656 3.20545 0
M  V30 3595 H 347.381 2.97655 0.143327 0
M  V30 3596 H 344.918 1.46982 0.0589934 0
M  V30 3597 H 346.876 3.25681 2.60745 0
M  V30 3598 H 345.506 2.13015 2.42538 0
M  V30 3599 H 344.558 3.75164 0.628999 0
M  V30 3600 H 345.87 4.8783 1.04036 0
M  V30 3601 H 345.024 5.03078 3.39113 0
M  V30 3602 H 343.763 3.81628 3.03663 0
M  V30 3603 H 342.768 5.34027 1.3075 0
M  V30 3604 H 343.993 6.57801 1.68746 0
M  V30 3605 H 341.939 5.46148 3.63399 0
M  V30 3606 H 341.856 7.00343 2.84704 0
M  V30 3607 H 343.124 6.69338 3.99508 0
M  V30 3608 N 347.353 -0.0568162 1.57498 0
M  V30 3609 C 348.283 -1.06593 2.0775 0
M  V30 3610 C 349.264 -1.39448 0.974082 0
M  V30 3611 O 350.449 -1.48815 1.24771 0
M  V30 3612 C 347.579 -2.37509 2.5339 0
M  V30 3613 C 346.533 -2.1897 3.67745 0
M  V30 3614 C 345.859 -3.55402 3.99492 0
M  V30 3615 C 347.159 -1.59859 4.97235 0
M  V30 3616 H 348.853 -0.647706 2.9231 0
M  V30 3617 H 346.399 -0.310116 1.40621 0
M  V30 3618 H 348.352 -3.08409 2.87162 0
M  V30 3619 H 347.076 -2.8134 1.65878 0
M  V30 3620 H 345.735 -1.50508 3.3428 0
M  V30 3621 H 345.383 -3.9683 3.09088 0
M  V30 3622 H 345.083 -3.43831 4.76502 0
M  V30 3623 H 346.607 -4.27708 4.35773 0
M  V30 3624 H 348.021 -2.20642 5.29141 0
M  V30 3625 H 346.418 -1.58942 5.78669 0
M  V30 3626 H 347.488 -0.561506 4.81638 0
M  V30 3627 N 348.832 -1.54138 -0.328536 0
M  V30 3628 C 350.243 -1.63395 -0.903272 0
M  V30 3629 C 350.594 -0.524828 -1.8905 0
M  V30 3630 O 349.719 0.343068 -2.13663 0
M  V30 3631 C 350.314 -2.9618 -1.64507 0
M  V30 3632 C 348.873 -3.0765 -2.1686 0
M  V30 3633 C 348.02 -2.58933 -0.992416 0
M  V30 3634 H 350.971 -1.58344 -0.106253 0
M  V30 3635 H 350.992 -2.86061 -2.50897 0
M  V30 3636 H 350.504 -3.76884 -0.926302 0
M  V30 3637 H 348.605 -2.31611 -2.91868 0
M  V30 3638 H 348.718 -4.1337 -2.42202 0
M  V30 3639 H 347.082 -2.14706 -1.37016 0
M  V30 3640 H 347.865 -3.42089 -0.288041 0
M  V30 3641 N 350.31 0.590341 -1.46126 0
M  V30 3642 C 351.587 1.35029 -1.41515 0
M  V30 3643 C 351.967 2.10888 -0.0946472 0
M  V30 3644 O 351.315 2.08998 0.923693 0
M  V30 3645 C 351.525 2.28269 -2.63997 0
M  V30 3646 C 352.873 2.90338 -3.09821 0
M  V30 3647 O 353.897 2.38585 -2.64492 0
M  V30 3648 O 352.756 3.84321 -3.88535 0
M  V30 3649 H 349.85 0.606317 -0.562413 0
M  V30 3650 H 352.396 0.611994 -1.58281 0
M  V30 3651 H 351.168 1.71591 -3.51671 0
M  V30 3652 H 350.791 3.0945 -2.49652 0
M  V30 3653 N 351.788 1.33704 0.83433 0
M  V30 3654 C 353.034 1.25603 1.59222 0
M  V30 3655 C 353.367 -0.176659 1.93395 0
M  V30 3656 O 352.642 -1.11915 1.59076 0
M  V30 3657 C 352.925 2.13576 2.89926 0
M  V30 3658 C 352.778 3.65326 2.62406 0
M  V30 3659 C 354.097 2.01238 3.91397 0
M  V30 3660 H 351.216 0.457613 0.577719 0
M  V30 3661 H 353.858 1.63848 0.961972 0
M  V30 3662 H 352.008 1.8109 3.43713 0
M  V30 3663 H 353.68 4.08124 2.15017 0
M  V30 3664 H 351.923 3.8698 1.96033 0
M  V30 3665 H 352.594 4.22232 3.55562 0
M  V30 3666 H 355.07 2.29738 3.46929 0
M  V30 3667 H 353.946 2.65036 4.80673 0
M  V30 3668 H 354.207 0.985951 4.30966 0
M  V30 3669 N 353.266 -1.05314 1.17247 0
M  V30 3670 C 354.506 -1.79869 0.970898 0
M  V30 3671 C 354.87 -1.85594 -0.491808 0
M  V30 3672 O 356.071 -2.56229 -0.812409 0
M  V30 3673 C 354.342 -3.19937 1.59295 0
M  V30 3674 S 355.901 -4.10986 1.53741 0
M  V30 3675 H 352.719 -0.61949 0.348931 0
M  V30 3676 H 355.321 -1.26368 1.49169 0
M  V30 3677 H 354.025 -3.13372 2.65003 0
M  V30 3678 H 353.556 -3.78515 1.07191 0
M  V30 3679 H 355.571 -4.93203 0.544537 0
M  V30 3680 N 354.744 -0.972509 -1.24016 0
M  V30 3681 C 355.974 -0.653853 -1.9598 0
M  V30 3682 C 356.382 0.781801 -1.72292 0
M  V30 3683 O 355.725 1.53677 -1.00644 0
M  V30 3684 C 355.787 -0.854608 -3.49194 0
M  V30 3685 C 355.451 -2.27082 -3.96589 0
M  V30 3686 C 356.448 -3.24892 -4.05883 0
M  V30 3687 C 354.133 -2.5998 -4.29786 0
M  V30 3688 C 356.127 -4.53684 -4.47716 0
M  V30 3689 C 353.814 -3.88997 -4.71301 0
M  V30 3690 C 354.812 -4.85661 -4.80232 0
M  V30 3691 O 354.5 -6.12376 -5.20818 0
M  V30 3692 H 354.232 -0.242572 -0.630979 0
M  V30 3693 H 356.786 -1.30431 -1.58673 0
M  V30 3694 H 355.016 -0.146985 -3.86421 0
M  V30 3695 H 356.705 -0.534311 -4.02368 0
M  V30 3696 H 357.471 -3.00805 -3.80449 0
M  V30 3697 H 353.35 -1.85457 -4.22051 0
M  V30 3698 H 356.894 -5.29135 -4.54601 0
M  V30 3699 H 352.791 -4.12882 -4.96184 0
M  V30 3700 H 353.559 -6.16013 -5.38953 0
M  V30 3701 N 356.222 1.38976 -0.743202 0
M  V30 3702 C 357.447 2.05161 -0.303936 0
M  V30 3703 C 357.872 1.55677 1.05576 0
M  V30 3704 O 357.23 0.704131 1.67068 0
M  V30 3705 C 357.278 3.59138 -0.324373 0
M  V30 3706 O 356.382 4.06668 0.685204 0
M  V30 3707 H 355.723 0.649815 -0.136518 0
M  V30 3708 H 358.253 1.77852 -1.01142 0
M  V30 3709 H 358.263 4.07639 -0.171618 0
M  V30 3710 H 356.938 3.94515 -1.31647 0
M  V30 3711 H 355.515 3.69561 0.497913 0
M  V30 3712 N 357.7 0.491464 1.49741 0
M  V30 3713 C 358.946 -0.0485431 2.03342 0
M  V30 3714 C 359.301 -1.35566 1.36527 0
M  V30 3715 O 358.594 -1.85262 0.488729 0
M  V30 3716 C 358.788 -0.267329 3.56399 0
M  V30 3717 C 358.617 1.01703 4.38049 0
M  V30 3718 C 357.387 1.56614 4.80417 0
M  V30 3719 C 359.585 1.91782 4.77204 0
M  V30 3720 N 357.567 2.7974 5.4646 0
M  V30 3721 C 358.938 2.99489 5.42868 0
M  V30 3722 C 360.993 1.92575 4.5915 0
M  V30 3723 C 359.696 4.08005 5.92389 0
M  V30 3724 C 361.722 3.0006 5.09626 0
M  V30 3725 C 361.084 4.06485 5.75282 0
M  V30 3726 H 357.183 0.0227779 0.781668 0
M  V30 3727 H 359.767 0.664204 1.8302 0
M  V30 3728 H 357.938 -0.949126 3.76625 0
M  V30 3729 H 359.67 -0.803492 3.96644 0
M  V30 3730 H 356.425 1.11256 4.60347 0
M  V30 3731 H 356.849 3.42323 5.84075 0
M  V30 3732 H 361.491 1.11605 4.07804 0
M  V30 3733 H 359.209 4.89779 6.42761 0
M  V30 3734 H 362.795 3.01681 4.97473 0
M  V30 3735 H 361.675 4.88287 6.13633 0
M  V30 3736 N 359.178 -1.55987 0.224894 0
M  V30 3737 C 360.424 -1.99433 -0.39973 0
M  V30 3738 C 360.779 -1.11004 -1.57149 0
M  V30 3739 O 360.072 -0.160725 -1.90925 0
M  V30 3740 C 360.266 -3.46394 -0.880106 0
M  V30 3741 C 360.095 -4.4904 0.243565 0
M  V30 3742 C 358.865 -5.00272 0.711056 0
M  V30 3743 C 361.063 -5.03195 1.06299 0
M  V30 3744 N 359.045 -5.86628 1.80944 0
M  V30 3745 C 360.416 -5.86508 2.01017 0
M  V30 3746 C 362.471 -4.8555 1.10205 0
M  V30 3747 C 361.174 -6.54062 2.99324 0
M  V30 3748 C 363.2 -5.53866 2.07332 0
M  V30 3749 C 362.562 -6.3695 3.00789 0
M  V30 3750 H 358.661 -0.773815 -0.112847 0
M  V30 3751 H 361.245 -1.91754 0.337432 0
M  V30 3752 H 359.416 -3.54515 -1.58662 0
M  V30 3753 H 361.148 -3.76752 -1.47783 0
M  V30 3754 H 357.903 -4.72655 0.29906 0
M  V30 3755 H 358.327 -6.34507 2.36073 0
M  V30 3756 H 362.969 -4.20966 0.39343 0
M  V30 3757 H 360.687 -7.17827 3.71147 0
M  V30 3758 H 364.273 -5.42178 2.11032 0
M  V30 3759 H 363.153 -6.8888 3.74718 0
M  V30 3760 N 360.656 0.0484629 -1.57525 0
M  V30 3761 C 361.902 0.744226 -1.88651 0
M  V30 3762 C 362.235 1.76029 -0.820212 0
M  V30 3763 O 361.51 1.93782 0.166985 0
M  V30 3764 C 361.793 1.43128 -3.30434 0
M  V30 3765 C 361.646 0.43005 -4.47739 0
M  V30 3766 C 362.965 2.37031 -3.70816 0
M  V30 3767 H 360.084 0.269089 -0.68612 0
M  V30 3768 H 362.726 0.00713532 -1.89999 0
M  V30 3769 H 360.876 2.05956 -3.29415 0
M  V30 3770 H 362.548 -0.194816 -4.60888 0
M  V30 3771 H 360.791 -0.252522 -4.33064 0
M  V30 3772 H 361.462 0.948874 -5.43783 0
M  V30 3773 H 363.938 1.84263 -3.73077 0
M  V30 3774 H 362.814 2.82094 -4.70865 0
M  V30 3775 H 363.075 3.22864 -3.02012 0
M  V30 3776 N 362.134 1.5431 0.320358 0
M  V30 3777 C 363.064 1.86912 1.3995 0
M  V30 3778 C 364.045 0.726211 1.53819 0
M  V30 3779 O 365.23 0.980233 1.67646 0
M  V30 3780 C 362.36 2.09932 2.7667 0
M  V30 3781 C 361.314 3.25776 2.77586 0
M  V30 3782 C 360.64 3.34173 4.17412 0
M  V30 3783 C 361.94 4.6335 2.41048 0
M  V30 3784 H 363.634 2.77292 1.12914 0
M  V30 3785 H 361.18 1.33421 0.541738 0
M  V30 3786 H 363.133 2.31324 3.52232 0
M  V30 3787 H 361.857 1.16304 3.0519 0
M  V30 3788 H 360.516 3.04276 2.04479 0
M  V30 3789 H 360.164 2.38098 4.43078 0
M  V30 3790 H 359.864 4.12033 4.18931 0
M  V30 3791 H 361.388 3.57803 4.94782 0
M  V30 3792 H 362.802 4.84602 3.06324 0
M  V30 3793 H 361.199 5.43782 2.53813 0
M  V30 3794 H 362.269 4.65381 1.36193 0
M  V30 3795 N 363.613 -0.582584 1.46437 0
M  V30 3796 C 364.576 -1.67366 1.56592 0
M  V30 3797 C 365.576 -1.54575 0.443072 0
M  V30 3798 O 366.766 -1.59191 0.707381 0
M  V30 3799 C 363.898 -3.06791 1.48634 0
M  V30 3800 H 365.091 -1.5972 2.5383 0
M  V30 3801 H 362.644 -0.800432 1.34249 0
M  V30 3802 H 363.379 -3.19993 0.526763 0
M  V30 3803 H 363.164 -3.17484 2.30101 0
M  V30 3804 H 364.654 -3.86218 1.58826 0
M  V30 3805 N 365.091 -1.34144 -0.827227 0
M  V30 3806 C 366.316 -1.29476 -1.62021 0
M  V30 3807 C 366.741 0.129292 -1.87655 0
M  V30 3808 O 366.099 1.08967 -1.449 0
M  V30 3809 C 366.147 -2.08702 -2.94068 0
M  V30 3810 O 365.251 -1.45359 -3.85933 0
M  V30 3811 H 364.592 -0.444881 -0.492927 0
M  V30 3812 H 367.122 -1.76882 -1.02829 0
M  V30 3813 H 367.132 -2.19898 -3.43669 0
M  V30 3814 H 365.807 -3.12241 -2.74734 0
M  V30 3815 H 364.384 -1.42879 -3.44442 0
M  V30 3816 N 366.569 1.04691 -1.17803 0
M  V30 3817 C 367.499 2.14494 -0.92275 0
M  V30 3818 C 368.48 1.69546 0.137179 0
M  V30 3819 O 369.665 1.94195 -0.0141108 0
M  V30 3820 C 366.795 3.44491 -0.440803 0
M  V30 3821 C 365.749 4.03031 -1.4405 0
M  V30 3822 C 365.075 5.28432 -0.81631 0
M  V30 3823 C 366.375 4.39932 -2.81527 0
M  V30 3824 H 368.069 2.36107 -1.84103 0
M  V30 3825 H 365.615 1.1347 -0.886599 0
M  V30 3826 H 367.568 4.2066 -0.249602 0
M  V30 3827 H 366.292 3.22546 0.513025 0
M  V30 3828 H 364.951 3.28937 -1.61853 0
M  V30 3829 H 364.599 5.02792 0.144511 0
M  V30 3830 H 364.299 5.68559 -1.48371 0
M  V30 3831 H 365.823 6.07284 -0.635496 0
M  V30 3832 H 367.237 5.07113 -2.67412 0
M  V30 3833 H 365.634 4.9109 -3.44892 0
M  V30 3834 H 366.704 3.50045 -3.35554 0
M  V30 3835 N 368.047 0.979072 1.23499 0
M  V30 3836 C 368.994 0.517904 2.24914 0
M  V30 3837 C 369.964 -0.442525 1.60097 0
M  V30 3838 O 371.149 -0.350365 1.87556 0
M  V30 3839 C 368.289 -0.174813 3.44657 0
M  V30 3840 C 367.402 0.825721 4.24035 0
M  V30 3841 C 366.537 0.107946 5.3109 0
M  V30 3842 C 365.576 1.09778 6.02175 0
M  V30 3843 N 364.713 0.40925 7.00906 0
M  V30 3844 H 369.553 1.38751 2.63727 0
M  V30 3845 H 367.09 0.695303 1.2963 0
M  V30 3846 H 369.048 -0.593233 4.12961 0
M  V30 3847 H 367.678 -1.0083 3.06648 0
M  V30 3848 H 366.73 1.36253 3.55161 0
M  V30 3849 H 368.042 1.58005 4.73113 0
M  V30 3850 H 367.196 -0.367904 6.05583 0
M  V30 3851 H 365.935 -0.678994 4.8295 0
M  V30 3852 H 364.94 1.5844 5.26476 0
M  V30 3853 H 366.165 1.88536 6.52404 0
M  V30 3854 H 364.111 -0.358506 6.5502 0
M  V30 3855 H 364.028 1.10226 7.47921 0
M  V30 3856 H 365.296 -0.0442557 7.79487 0
M  V30 3857 N 369.525 -1.3858 0.750561 0
M  V30 3858 C 370.774 -1.99424 0.302172 0
M  V30 3859 C 371.087 -1.60254 -1.12152 0
M  V30 3860 O 372.293 -2.14046 -1.67023 0
M  V30 3861 C 370.749 -3.56558 0.489307 0
M  V30 3862 C 370.357 -4.04682 1.92189 0
M  V30 3863 C 372.101 -4.24374 0.103478 0
M  V30 3864 C 370.008 -5.54446 2.05775 0
M  V30 3865 H 368.938 -0.746046 0.10923 0
M  V30 3866 H 371.589 -1.58383 0.92667 0
M  V30 3867 H 369.971 -3.95472 -0.204329 0
M  V30 3868 H 371.145 -3.77065 2.64875 0
M  V30 3869 H 369.46 -3.4958 2.26236 0
M  V30 3870 H 372.057 -5.34384 0.183787 0
M  V30 3871 H 372.4 -4.05468 -0.943481 0
M  V30 3872 H 372.933 -3.90688 0.748854 0
M  V30 3873 H 369.672 -5.78252 3.08714 0
M  V30 3874 H 369.192 -5.83816 1.37546 0
M  V30 3875 H 370.871 -6.20099 1.84626 0
M  V30 3876 N 371.003 -0.499398 -1.49478 0
M  V30 3877 C 372.252 0.0475259 -2.01644 0
M  V30 3878 C 372.565 1.38195 -1.38425 0
M  V30 3879 O 373.771 2.01547 -1.8191 0
M  V30 3880 C 372.227 0.135164 -3.59646 0
M  V30 3881 C 371.835 -1.19252 -4.31837 0
M  V30 3882 C 373.579 0.632538 -4.19761 0
M  V30 3883 C 371.486 -1.06713 -5.81693 0
M  V30 3884 H 370.416 0.0215349 -0.753692 0
M  V30 3885 H 373.067 -0.638577 -1.7203 0
M  V30 3886 H 371.449 0.885681 -3.85969 0
M  V30 3887 H 372.623 -1.9562 -4.17216 0
M  V30 3888 H 370.938 -1.62321 -3.83459 0
M  V30 3889 H 373.535 0.743833 -5.29501 0
M  V30 3890 H 373.878 1.63098 -3.83021 0
M  V30 3891 H 374.411 -0.0613987 -3.97753 0
M  V30 3892 H 371.15 -2.03979 -6.22955 0
M  V30 3893 H 370.67 -0.344307 -5.98811 0
M  V30 3894 H 372.349 -0.745208 -6.42694 0
M  V30 3895 N 372.481 1.55866 -0.233164 0
M  V30 3896 C 373.729 1.9821 0.394593 0
M  V30 3897 C 374.05 1.12234 1.59463 0
M  V30 3898 O 373.32 0.201981 1.94856 0
M  V30 3899 H 371.9 0.732034 0.148778 0
M  V30 3900 H 374.562 1.92107 -0.32876 0
M  V30 3901 H 373.658 3.03845 0.713063 0
M  V30 3902 N 373.959 -0.0401083 1.57549 0
M  V30 3903 C 375.375 -0.395556 1.54621 0
M  V30 3904 C 375.575 -1.77281 0.957799 0
M  V30 3905 O 374.631 -2.45888 0.574031 0
M  V30 3906 C 375.944 -0.307535 2.99123 0
M  V30 3907 C 377.492 -0.385425 3.10618 0
M  V30 3908 C 377.967 -0.326973 4.56831 0
M  V30 3909 N 379.458 -0.386102 4.61588 0
M  V30 3910 C 380.193 -0.363591 5.72246 0
M  V30 3911 N 379.689 -0.29402 6.92176 0
M  V30 3912 N 381.482 -0.412503 5.60584 0
M  V30 3913 H 373.633 0.861325 1.94152 0
M  V30 3914 H 375.896 0.326445 0.890021 0
M  V30 3915 H 375.602 0.638461 3.45856 0
M  V30 3916 H 375.476 -1.10552 3.60636 0
M  V30 3917 H 377.863 -1.32185 2.63839 0
M  V30 3918 H 377.944 0.44171 2.51957 0
M  V30 3919 H 377.588 0.605738 5.04275 0
M  V30 3920 H 377.518 -1.17207 5.13391 0
M  V30 3921 H 380.009 -0.442832 3.75296 0
M  V30 3922 H 380.322 -0.28164 7.72287 0
M  V30 3923 H 378.667 -0.260232 6.94513 0
M  V30 3924 H 381.858 -0.464769 4.65787 0
M  V30 3925 H 382.031 -0.391492 6.46816 0
M  V30 3926 N 375.437 -1.54477 -0.31217 0
M  V30 3927 C 376.367 -1.87652 -1.38957 0
M  V30 3928 C 377.348 -0.734358 -1.53431 0
M  V30 3929 O 378.533 -0.98911 -1.67123 0
M  V30 3930 C 375.663 -2.11396 -2.75552 0
M  V30 3931 C 374.617 -3.27243 -2.75855 0
M  V30 3932 C 373.943 -3.36382 -4.15633 0
M  V30 3933 C 375.243 -4.64622 -2.38587 0
M  V30 3934 H 376.937 -2.77887 -1.11442 0
M  V30 3935 H 374.483 -1.33707 -0.534655 0
M  V30 3936 H 376.436 -2.33189 -3.51 0
M  V30 3937 H 375.16 -1.17921 -3.04569 0
M  V30 3938 H 373.819 -3.05356 -2.02863 0
M  V30 3939 H 373.467 -2.40445 -4.41809 0
M  V30 3940 H 373.167 -4.14249 -4.1674 0
M  V30 3941 H 374.691 -3.60422 -4.92877 0
M  V30 3942 H 376.105 -4.86219 -3.03749 0
M  V30 3943 H 374.502 -5.45121 -2.50925 0
M  V30 3944 H 375.572 -4.66097 -1.33723 0
M  V30 3945 N 376.915 0.57481 -1.46744 0
M  V30 3946 C 377.865 1.67838 -1.54319 0
M  V30 3947 C 378.849 1.55759 -0.40346 0
M  V30 3948 O 380.041 1.6454 -0.652347 0
M  V30 3949 C 377.17 3.06624 -1.5439 0
M  V30 3950 C 376.256 3.23971 -2.73685 0
M  V30 3951 N 376.647 3.11447 -3.9854 0
M  V30 3952 C 374.945 3.5493 -2.70075 0
M  V30 3953 C 375.646 3.31011 -4.78337 0
M  V30 3954 N 374.622 3.56533 -4.10348 0
M  V30 3955 H 378.424 1.56698 -2.48642 0
M  V30 3956 H 375.938 0.779071 -1.42493 0
M  V30 3957 H 377.935 3.85839 -1.57905 0
M  V30 3958 H 376.595 3.1889 -0.611493 0
M  V30 3959 H 377.606 2.89145 -4.29669 0
M  V30 3960 H 374.283 3.73832 -1.85893 0
M  V30 3961 H 375.673 3.26445 -5.87268 0
M  V30 3962 N 378.394 1.34581 0.820102 0
M  V30 3963 C 379.64 1.28294 1.57836 0
M  V30 3964 C 379.995 -0.145099 1.91852 0
M  V30 3965 O 379.288 -1.09209 1.57429 0
M  V30 3966 C 379.482 2.10997 2.8847 0
M  V30 3967 C 379.311 3.61698 2.67216 0
M  V30 3968 C 378.081 4.3097 2.63805 0
M  V30 3969 C 380.279 4.55638 2.38534 0
M  V30 3970 N 378.261 5.67502 2.34126 0
M  V30 3971 C 379.632 5.80194 2.18574 0
M  V30 3972 C 381.687 4.44523 2.24285 0
M  V30 3973 C 380.39 6.94886 1.8581 0
M  V30 3974 C 382.416 5.5905 1.92916 0
M  V30 3975 C 381.778 6.82627 1.73782 0
M  V30 3976 H 377.877 0.524697 0.579842 0
M  V30 3977 H 380.461 1.69323 0.961139 0
M  V30 3978 H 378.632 1.7226 3.48111 0
M  V30 3979 H 380.364 1.96333 3.53886 0
M  V30 3980 H 377.119 3.83438 2.77978 0
M  V30 3981 H 377.543 6.39525 2.22118 0
M  V30 3982 H 382.185 3.49599 2.37782 0
M  V30 3983 H 379.903 7.89789 1.7105 0
M  V30 3984 H 383.489 5.52396 1.82619 0
M  V30 3985 H 382.369 7.69748 1.49861 0
M  V30 3986 N 379.872 -1.04064 1.18357 0
M  V30 3987 C 381.121 -1.76662 0.973313 0
M  V30 3988 C 381.434 -1.89154 -0.497991 0
M  V30 3989 O 382.64 -2.58606 -0.826762 0
M  V30 3990 C 381.096 -3.17624 1.69242 0
M  V30 3991 C 380.704 -3.13225 3.20303 0
M  V30 3992 C 382.448 -3.946 1.56497 0
M  V30 3993 C 380.355 -4.49046 3.84853 0
M  V30 3994 H 379.285 -0.662214 0.36054 0
M  V30 3995 H 381.936 -1.16553 1.41731 0
M  V30 3996 H 380.318 -3.78129 1.1762 0
M  V30 3997 H 381.492 -2.62172 3.78949 0
M  V30 3998 H 379.807 -2.49749 3.33189 0
M  V30 3999 H 382.404 -4.95042 2.02084 0
M  V30 4000 H 382.747 -4.13074 0.517243 0
M  V30 4001 H 383.28 -3.4067 2.05399 0
M  V30 4002 H 380.019 -4.35777 4.89672 0
M  V30 4003 H 379.539 -5.00203 3.30994 0
M  V30 4004 H 381.218 -5.17961 3.87718 0
M  V30 4005 N 381.35 -0.985608 -1.22978 0
M  V30 4006 C 382.627 -0.573599 -1.87001 0
M  V30 4007 C 383.007 0.949213 -1.88555 0
M  V30 4008 O 382.355 1.82811 -1.37086 0
M  V30 4009 C 382.565 -1.18564 -3.28243 0
M  V30 4010 C 383.913 -1.28163 -4.04796 0
M  V30 4011 O 384.937 -1.13949 -3.37482 0
M  V30 4012 O 383.796 -1.50832 -5.25273 0
M  V30 4013 H 380.89 -0.193868 -0.803955 0
M  V30 4014 H 383.436 -1.08102 -1.30813 0
M  V30 4015 H 382.208 -2.22758 -3.21706 0
M  V30 4016 H 381.831 -0.663363 -3.92027 0
M  V30 4017 N 382.828 1.3818 -0.7579 0
M  V30 4018 C 384.244 1.5353 -0.435972 0
M  V30 4019 C 384.444 1.71961 1.05032 0
M  V30 4020 O 383.5 1.73307 1.83633 0
M  V30 4021 C 384.813 2.73989 -1.23898 0
M  V30 4022 C 386.361 2.87841 -1.22949 0
M  V30 4023 C 386.836 4.11266 -2.01554 0
M  V30 4024 N 388.327 4.18352 -1.98837 0
M  V30 4025 C 389.062 5.12856 -2.5645 0
M  V30 4026 N 388.558 6.13005 -3.22794 0
M  V30 4027 N 390.351 5.05238 -2.46356 0
M  V30 4028 H 382.502 1.24467 -1.7211 0
M  V30 4029 H 384.765 0.604982 -0.729864 0
M  V30 4030 H 384.471 2.66789 -2.29165 0
M  V30 4031 H 384.345 3.67294 -0.858764 0
M  V30 4032 H 386.732 2.9452 -0.184854 0
M  V30 4033 H 386.813 1.95534 -1.64924 0
M  V30 4034 H 386.457 4.05349 -3.06031 0
M  V30 4035 H 386.387 5.02661 -1.5697 0
M  V30 4036 H 388.878 3.46628 -1.50524 0
M  V30 4037 H 389.191 6.81619 -3.64165 0
M  V30 4038 H 387.536 6.13325 -3.2689 0
M  V30 4039 H 390.727 4.25938 -1.9415 0
M  V30 4040 H 390.9 5.78707 -2.91552 0
M  V30 4041 N 384.306 0.507319 1.49211 0
M  V30 4042 C 385.216 -0.272136 2.33016 0
M  V30 4043 C 386.232 -0.961206 1.45041 0
M  V30 4044 O 387.408 -0.941191 1.78055 0
M  V30 4045 C 384.473 -1.31895 3.20631 0
M  V30 4046 C 383.534 -0.642648 4.24463 0
M  V30 4047 C 382.767 -1.63959 5.07891 0
M  V30 4048 O 382.99 -2.87007 4.92933 0
M  V30 4049 O 381.924 -1.19143 5.8999 0
M  V30 4050 H 385.75 0.413982 3.00865 0
M  V30 4051 H 383.335 0.268556 1.46966 0
M  V30 4052 H 385.217 -1.92446 3.7489 0
M  V30 4053 H 383.892 -1.98788 2.5547 0
M  V30 4054 H 382.799 0.00276252 3.741 0
M  V30 4055 H 384.132 -0.0160534 4.92197 0
M  V30 4056 N 385.784 -1.5574 0.241426 0
M  V30 4057 C 386.731 -2.21149 -0.660432 0
M  V30 4058 C 387.701 -1.17356 -1.17545 0
M  V30 4059 O 388.886 -1.45784 -1.23093 0
M  V30 4060 C 386.026 -2.91059 -1.85414 0
M  V30 4061 C 385.139 -4.09495 -1.37616 0
M  V30 4062 C 384.274 -4.67135 -2.529 0
M  V30 4063 C 383.313 -5.77831 -2.01936 0
M  V30 4064 N 382.45 -6.29677 -3.10566 0
M  V30 4065 H 387.29 -2.97845 -0.095955 0
M  V30 4066 H 384.827 -1.47057 -0.0356024 0
M  V30 4067 H 386.785 -3.29788 -2.5553 0
M  V30 4068 H 385.415 -2.16846 -2.39118 0
M  V30 4069 H 384.467 -3.76117 -0.569235 0
M  V30 4070 H 385.779 -4.89423 -0.962618 0
M  V30 4071 H 384.933 -5.08409 -3.31067 0
M  V30 4072 H 383.672 -3.86411 -2.97553 0
M  V30 4073 H 382.677 -5.36039 -1.22238 0
M  V30 4074 H 383.902 -6.60402 -1.58259 0
M  V30 4075 H 381.848 -5.5186 -3.54664 0
M  V30 4076 H 381.765 -7.04783 -2.73526 0
M  V30 4077 H 383.033 -6.75609 -3.88809 0
M  V30 4078 N 387.262 0.0317525 -1.57568 0
M  V30 4079 C 388.192 1.03274 -2.0942 0
M  V30 4080 C 389.173 1.3788 -0.996143 0
M  V30 4081 O 390.358 1.46811 -1.27122 0
M  V30 4082 C 387.488 2.33448 -2.57137 0
M  V30 4083 C 386.442 2.13091 -3.71182 0
M  V30 4084 C 385.768 3.49001 -4.05095 0
M  V30 4085 C 387.068 1.51928 -4.99715 0
M  V30 4086 H 388.762 0.60112 -2.93303 0
M  V30 4087 H 386.308 0.287705 -1.41097 0
M  V30 4088 H 388.261 3.03802 -2.92032 0
M  V30 4089 H 386.985 2.78665 -1.70333 0
M  V30 4090 H 385.644 1.45171 -3.36632 0
M  V30 4091 H 385.292 3.91862 -3.15362 0
M  V30 4092 H 384.992 3.36207 -4.81911 0
M  V30 4093 H 386.516 4.20721 -4.42522 0
M  V30 4094 H 387.93 2.12196 -5.32584 0
M  V30 4095 H 386.327 1.49716 -5.81124 0
M  V30 4096 H 387.397 0.484811 -4.8247 0
M  V30 4097 N 388.74 1.54641 0.303973 0
M  V30 4098 C 390.156 1.45788 0.649463 0
M  V30 4099 C 390.356 0.64666 1.90842 0
M  V30 4100 O 389.412 0.153183 2.52035 0
M  V30 4101 C 390.725 2.89718 0.805227 0
M  V30 4102 C 392.273 2.99742 0.901305 0
M  V30 4103 C 392.748 4.44863 1.08909 0
M  V30 4104 N 394.239 4.48559 1.15536 0
M  V30 4105 C 394.974 5.58026 1.3189 0
M  V30 4106 N 394.47 6.77422 1.45161 0
M  V30 4107 N 396.263 5.45708 1.34755 0
M  V30 4108 H 388.414 2.05854 -0.523237 0
M  V30 4109 H 390.677 0.932186 -0.172431 0
M  V30 4110 H 390.383 3.51666 -0.0489108 0
M  V30 4111 H 390.257 3.36964 1.69513 0
M  V30 4112 H 392.644 2.3791 1.74593 0
M  V30 4113 H 392.725 2.55797 -0.0125531 0
M  V30 4114 H 392.369 5.07288 0.249241 0
M  V30 4115 H 392.299 4.86436 2.01713 0
M  V30 4116 H 394.79 3.6254 1.06646 0
M  V30 4117 H 395.103 7.56604 1.57387 0
M  V30 4118 H 393.448 6.80292 1.42223 0
M  V30 4119 H 396.639 4.51378 1.23996 0
M  V30 4120 H 396.812 6.3107 1.47157 0
M  V30 4121 N 390.218 -0.567019 1.47046 0
M  V30 4122 C 391.166 -1.69593 1.59188 0
M  V30 4123 C 392.16 -1.63046 0.459609 0
M  V30 4124 O 393.366 -1.6835 0.637058 0
M  V30 4125 H 389.741 -0.560993 0.500791 0
M  V30 4126 H 391.712 -1.56488 2.54075 0
M  V30 4127 C 390.461 -3.07964 1.61411 0
M  V30 4128 H 389.784 -3.13679 2.47881 0
M  V30 4129 H 391.224 -3.86671 1.73958 0
M  V30 4130 C 389.683 -3.35123 0.34559 0
M  V30 4131 O 390.213 -3.97812 -0.557521 0
M  V30 4132 N 388.419 -2.89699 0.22864 0
M  V30 4133 H 387.966 -2.38863 0.964479 0
M  V30 4134 H 387.924 -3.08242 -0.619192 0
M  V30 4135 N 391.696 -1.35014 -0.812953 0
M  V30 4136 C 392.943 -1.27931 -1.56971 0
M  V30 4137 C 393.271 0.148034 -1.93936 0
M  V30 4138 O 392.526 1.11175 -1.61054 0
M  V30 4139 C 392.825 -2.12524 -2.87347 0
M  V30 4140 C 392.491 -3.61401 -2.6963 0
M  V30 4141 C 391.153 -4.01983 -2.64506 0
M  V30 4142 C 393.505 -4.55894 -2.52607 0
M  V30 4143 C 390.833 -5.35235 -2.40293 0
M  V30 4144 C 393.185 -5.89336 -2.29925 0
M  V30 4145 C 391.849 -6.2907 -2.23219 0
M  V30 4146 H 391.119 -0.468131 -0.574399 0
M  V30 4147 H 393.766 -1.66851 -0.939836 0
M  V30 4148 H 392.071 -1.66463 -3.54679 0
M  V30 4149 H 393.768 -2.04383 -3.45005 0
M  V30 4150 H 390.358 -3.29193 -2.74463 0
M  V30 4151 H 394.542 -4.25431 -2.55583 0
M  V30 4152 H 389.798 -5.65028 -2.33566 0
M  V30 4153 H 393.972 -6.62139 -2.15743 0
M  V30 4154 H 391.599 -7.32256 -2.04219 0
M  V30 4155 N 393.175 1.03435 -1.18907 0
M  V30 4156 C 394.424 1.76143 -0.982669 0
M  V30 4157 C 394.737 1.89416 0.487953 0
M  V30 4158 O 395.943 2.59041 0.813036 0
M  V30 4159 C 394.399 3.16722 -1.70924 0
M  V30 4160 C 394.007 3.11522 -3.21959 0
M  V30 4161 C 395.751 3.93764 -1.58588 0
M  V30 4162 C 393.658 4.46999 -3.87228 0
M  V30 4163 H 392.588 0.660292 -0.364047 0
M  V30 4164 H 395.239 1.158 -1.42347 0
M  V30 4165 H 393.621 3.775 -1.19623 0
M  V30 4166 H 394.795 2.60158 -3.80335 0
M  V30 4167 H 393.11 2.47978 -3.34508 0
M  V30 4168 H 395.707 4.93963 -2.04707 0
M  V30 4169 H 396.05 4.12794 -0.539142 0
M  V30 4170 H 396.583 3.39576 -2.07203 0
M  V30 4171 H 393.322 4.33174 -4.91976 0
M  V30 4172 H 392.842 4.98441 -3.33642 0
M  V30 4173 H 394.521 5.15898 -3.90459 0
M  V30 4174 N 394.653 0.992116 1.22453 0
M  V30 4175 C 395.583 0.561677 2.26644 0
M  V30 4176 C 396.564 -0.411055 1.65059 0
M  V30 4177 O 397.749 -0.301861 1.9184 0
M  V30 4178 C 394.879 -0.125247 3.47074 0
M  V30 4179 C 393.833 0.765948 4.21091 0
M  V30 4180 C 393.159 -0.0538484 5.34673 0
M  V30 4181 C 394.459 2.06242 4.79856 0
M  V30 4182 H 396.153 1.43259 2.62902 0
M  V30 4183 H 393.699 0.690283 1.26377 0
M  V30 4184 H 395.652 -0.437764 4.1912 0
M  V30 4185 H 394.376 -1.03069 3.0991 0
M  V30 4186 H 393.035 1.0621 3.50878 0
M  V30 4187 H 392.683 -0.960188 4.9375 0
M  V30 4188 H 392.383 0.539415 5.85119 0
M  V30 4189 H 393.907 -0.360477 6.09535 0
M  V30 4190 H 395.321 1.8139 5.43848 0
M  V30 4191 H 393.718 2.60444 5.40638 0
M  V30 4192 H 394.788 2.74167 3.99951 0
M  V30 4193 N 396.131 -1.37776 0.765217 0
M  V30 4194 C 397.094 -2.28686 0.153416 0
M  V30 4195 C 398.094 -1.47727 -0.635081 0
M  V30 4196 O 399.284 -1.68027 -0.459632 0
M  V30 4197 C 396.416 -3.31608 -0.790495 0
M  V30 4198 H 397.609 -2.84297 0.954723 0
M  V30 4199 H 395.162 -1.46932 0.53299 0
M  V30 4200 H 395.897 -2.81109 -1.61705 0
M  V30 4201 H 395.682 -3.9144 -0.227348 0
M  V30 4202 H 397.172 -3.99559 -1.21419 0
M  V30 4203 N 397.609 -0.515225 -1.4894 0
M  V30 4204 C 398.849 0.0223983 -2.04388 0
M  V30 4205 C 399.213 1.32961 -1.38511 0
M  V30 4206 O 400.414 1.95236 -1.8476 0
M  V30 4207 C 398.685 0.157056 -3.57055 0
M  V30 4208 S 400.244 0.646875 -4.34006 0
M  V30 4209 H 397.062 -0.00500662 -0.710982 0
M  V30 4210 H 399.664 -0.69243 -1.82827 0
M  V30 4211 H 398.368 -0.799412 -4.02539 0
M  V30 4212 H 397.899 0.896704 -3.83044 0
M  V30 4213 H 399.914 1.91381 -4.57808 0
M  V30 4214 N 399.087 1.5561 -0.249682 0
M  V30 4215 C 400.019 2.18834 0.681496 0
M  V30 4216 C 401.032 1.16546 1.1367 0
M  V30 4217 O 402.221 1.43397 1.06299 0
M  V30 4218 C 399.321 2.77992 1.9384 0
M  V30 4219 C 398.494 4.05725 1.63419 0
M  V30 4220 C 397.553 4.49174 2.74096 0
M  V30 4221 O 396.579 5.15492 2.41364 0
M  V30 4222 N 397.781 4.17191 4.03649 0
M  V30 4223 H 400.546 2.9937 0.140514 0
M  V30 4224 H 398.107 1.6175 -0.0697541 0
M  V30 4225 H 400.099 3.04015 2.67127 0
M  V30 4226 H 398.669 2.01596 2.38909 0
M  V30 4227 H 397.889 3.87261 0.736358 0
M  V30 4228 H 399.177 4.88999 1.40562 0
M  V30 4229 H 398.575 3.63955 4.33074 0
M  V30 4230 H 397.132 4.48043 4.73393 0
M  V30 4231 N 400.565 -0.0233959 1.57583 0
M  V30 4232 C 401.842 -0.748794 1.807 0
M  V30 4233 C 402.222 -1.9327 0.849106 0
M  V30 4234 O 401.57 -2.28247 -0.107468 0
M  V30 4235 C 401.78 -1.17651 3.28571 0
M  V30 4236 C 403.128 -1.59008 3.93702 0
M  V30 4237 O 404.152 -1.27094 3.32755 0
M  V30 4238 O 403.011 -2.18264 5.01022 0
M  V30 4239 H 400.105 -0.362578 0.743281 0
M  V30 4240 H 402.651 0.000261958 1.697 0
M  V30 4241 H 401.423 -0.331603 3.89892 0
M  V30 4242 H 401.046 -1.98541 3.44481 0
M  V30 4243 N 402.043 -1.548 -0.295768 0
M  V30 4244 C 402.953 -1.89177 -1.38742 0
M  V30 4245 C 403.969 -0.786481 -1.55211 0
M  V30 4246 O 405.145 -1.08344 -1.69775 0
M  V30 4247 C 402.21 -2.13663 -2.73036 0
M  V30 4248 C 401.271 -3.37349 -2.65508 0
M  V30 4249 C 400.504 -3.60658 -3.93398 0
M  V30 4250 O 400.727 -2.86882 -4.93006 0
M  V30 4251 O 399.661 -4.54179 -3.94975 0
M  V30 4252 H 403.487 -2.82059 -1.12589 0
M  V30 4253 H 401.072 -1.41056 -0.492295 0
M  V30 4254 H 402.954 -2.3094 -3.52484 0
M  V30 4255 H 401.629 -1.23967 -2.99022 0
M  V30 4256 H 400.536 -3.25431 -1.84514 0
M  V30 4257 H 401.869 -4.27192 -2.44474 0
M  V30 4258 N 403.521 0.559213 -1.47345 0
M  V30 4259 C 404.431 1.69388 -1.62311 0
M  V30 4260 C 405.447 1.6648 -0.505993 0
M  V30 4261 O 406.623 1.85964 -0.773262 0
M  V30 4262 C 403.688 3.05894 -1.63185 0
M  V30 4263 C 402.749 3.19885 -2.86307 0
M  V30 4264 C 401.982 4.49879 -2.87131 0
M  V30 4265 O 402.205 5.35217 -1.97229 0
M  V30 4266 O 401.139 4.67618 -3.78968 0
M  V30 4267 H 404.965 1.59706 -2.58317 0
M  V30 4268 H 402.55 0.728989 -1.30407 0
M  V30 4269 H 404.432 3.87133 -1.66451 0
M  V30 4270 H 403.107 3.15964 -0.70345 0
M  V30 4271 H 402.014 2.38052 -2.88587 0
M  V30 4272 H 403.347 3.14718 -3.78435 0
M  V30 4273 N 404.999 1.35443 0.805782 0
M  V30 4274 C 406.227 1.31878 1.59423 0
M  V30 4275 C 406.642 -0.103562 1.88516 0
M  V30 4276 O 405.999 -1.05575 1.48863 0
M  V30 4277 C 406.05 2.12426 2.92502 0
M  V30 4278 O 405.771 3.49115 2.6467 0
M  V30 4279 C 407.272 2.16455 3.86862 0
M  V30 4280 H 404.492 0.453002 0.495005 0
M  V30 4281 H 407.036 1.78309 1.00131 0
M  V30 4282 H 405.191 1.69593 3.48306 0
M  V30 4283 H 405.605 3.90957 3.49647 0
M  V30 4284 H 407.079 2.77204 4.77349 0
M  V30 4285 H 407.556 1.16352 4.23508 0
M  V30 4286 H 408.162 2.59453 3.36993 0
M  V30 4287 N 406.477 -1.02803 1.19454 0
M  V30 4288 C 407.725 -1.75869 0.995722 0
M  V30 4289 C 408.046 -1.89138 -0.474543 0
M  V30 4290 O 407.316 -1.42558 -1.34366 0
M  V30 4291 H 405.896 -0.651511 0.365435 0
M  V30 4292 H 408.558 -1.24004 1.50363 0
M  V30 4293 H 407.654 -2.76661 1.44447 0
M  V30 4294 N 407.956 -0.998596 -1.21925 0
M  V30 4295 C 409.204 -0.676325 -1.90448 0
M  V30 4296 C 409.525 0.794719 -1.78071 0
M  V30 4297 O 408.795 1.5701 -1.17152 0
M  V30 4298 H 407.375 -0.247165 -0.704925 0
M  V30 4299 H 410.037 -1.26633 -1.48156 0
M  V30 4300 H 409.133 -0.943858 -2.97486 0
M  V30 4301 N 409.434 1.37368 -0.772513 0
M  V30 4302 C 410.681 1.99673 -0.337182 0
M  V30 4303 C 411.009 1.61324 1.0865 0
M  V30 4304 O 410.264 0.851377 1.7621 0
M  V30 4305 C 410.563 3.54817 -0.428876 0
M  V30 4306 C 410.229 4.12936 -1.81092 0
M  V30 4307 C 408.891 4.28523 -2.1891 0
M  V30 4308 C 411.243 4.44801 -2.71664 0
M  V30 4309 C 408.571 4.73277 -3.46735 0
M  V30 4310 C 410.923 4.90981 -3.98899 0
M  V30 4311 C 409.587 5.04773 -4.36761 0
M  V30 4312 H 408.857 0.730656 -0.123384 0
M  V30 4313 H 411.504 1.64124 -0.986686 0
M  V30 4314 H 409.809 3.90618 0.304167 0
M  V30 4315 H 411.506 4.00933 -0.0733334 0
M  V30 4316 H 408.096 4.01233 -1.50699 0
M  V30 4317 H 412.28 4.32344 -2.43706 0
M  V30 4318 H 407.536 4.82142 -3.75964 0
M  V30 4319 H 411.71 5.14603 -4.69208 0
M  V30 4320 H 409.337 5.39211 -5.35868 0
M  V30 4321 N 410.912 0.523116 1.48665 0
M  V30 4322 C 411.875 -0.232592 2.28017 0
M  V30 4323 C 412.875 -0.874021 1.34972 0
M  V30 4324 O 414.065 -0.735132 1.57929 0
M  V30 4325 C 411.197 -1.33586 3.13636 0
M  V30 4326 H 412.39 0.464008 2.96289 0
M  V30 4327 H 409.943 0.278816 1.53793 0
M  V30 4328 H 410.678 -2.06593 2.4998 0
M  V30 4329 H 410.463 -0.881125 3.82071 0
M  V30 4330 H 411.953 -1.86759 3.73511 0
M  V30 4331 N 412.39 -1.55475 0.257931 0
M  V30 4332 C 413.667 -1.91155 -0.414629 0
M  V30 4333 C 414.047 -1.18008 -1.75035 0
M  V30 4334 O 413.395 -0.301193 -2.26506 0
M  V30 4335 C 413.605 -3.44283 -0.571859 0
M  V30 4336 C 414.953 -4.15744 -0.862678 0
M  V30 4337 O 415.977 -3.50083 -0.657314 0
M  V30 4338 O 414.836 -5.31909 -1.2544 0
M  V30 4339 H 411.93 -0.796016 -0.22425 0
M  V30 4340 H 414.476 -1.66976 0.302814 0
M  V30 4341 H 413.248 -3.89558 0.368844 0
M  V30 4342 H 412.871 -3.7436 -1.33943 0
M  V30 4343 N 413.868 0.0150385 -1.57593 0
M  V30 4344 C 415.284 0.370907 -1.5523 0
M  V30 4345 C 415.484 1.75735 -0.985882 0
M  V30 4346 O 414.54 2.44944 -0.613077 0
M  V30 4347 C 415.853 0.259908 -2.99575 0
M  V30 4348 C 417.401 0.335959 -3.11192 0
M  V30 4349 C 417.876 0.254253 -4.57294 0
M  V30 4350 N 419.367 0.312618 -4.62144 0
M  V30 4351 C 420.102 0.272505 -5.72752 0
M  V30 4352 N 419.598 0.183864 -6.92556 0
M  V30 4353 N 421.391 0.323267 -5.6117 0
M  V30 4354 H 413.542 -0.892104 -1.92757 0
M  V30 4355 H 415.805 -0.340563 -0.884715 0
M  V30 4356 H 415.511 -0.693403 -3.44797 0
M  V30 4357 H 415.385 1.048 -3.62349 0
M  V30 4358 H 417.772 1.27971 -2.65909 0
M  V30 4359 H 417.853 -0.481739 -2.51223 0
M  V30 4360 H 417.497 -0.685887 -5.03247 0
M  V30 4361 H 417.427 1.09024 -5.15191 0
M  V30 4362 H 419.918 0.38307 -3.75953 0
M  V30 4363 H 420.231 0.15874 -7.72637 0
M  V30 4364 H 418.576 0.149708 -6.94839 0
M  V30 4365 H 421.767 0.390607 -4.66467 0
M  V30 4366 H 421.94 0.288539 -6.47357 0
M  V30 4367 N 415.346 1.54954 0.287554 0
M  V30 4368 C 416.757 1.65732 0.859634 0
M  V30 4369 C 417.108 0.574767 1.87592 0
M  V30 4370 O 416.233 -0.286299 2.14498 0
M  V30 4371 C 416.828 3.00438 1.56597 0
M  V30 4372 C 415.387 3.13292 2.08627 0
M  V30 4373 C 414.534 2.61473 0.923416 0
M  V30 4374 H 417.485 1.5857 0.0642338 0
M  V30 4375 H 417.506 2.92613 2.43224 0
M  V30 4376 H 417.018 3.79207 0.826053 0
M  V30 4377 H 415.119 2.39268 2.85625 0
M  V30 4378 H 415.232 4.19647 2.31157 0
M  V30 4379 H 413.596 2.18264 1.31275 0
M  V30 4380 H 414.379 3.42733 0.197241 0
M  V30 4381 N 416.824 -0.551391 1.4764 0
M  V30 4382 C 418.072 -1.30572 1.54258 0
M  V30 4383 C 418.393 -1.93877 0.208963 0
M  V30 4384 O 417.663 -1.80234 -0.767619 0
M  V30 4385 H 416.243 -0.484894 0.568231 0
M  V30 4386 H 418.905 -0.643402 1.83974 0
M  V30 4387 H 418.001 -2.09621 2.31226 0
M  V30 4388 N 418.302 -1.35869 -0.798587 0
M  V30 4389 C 419.579 -1.20145 -1.54352 0
M  V30 4390 C 419.959 0.216161 -2.0999 0
M  V30 4391 O 419.307 1.22068 -1.93162 0
M  V30 4392 C 419.517 -2.27602 -2.64572 0
M  V30 4393 C 420.865 -2.63811 -3.32699 0
M  V30 4394 O 421.889 -2.26576 -2.74849 0
M  V30 4395 O 420.748 -3.27866 -4.37226 0
M  V30 4396 H 417.842 -0.467248 -0.682355 0
M  V30 4397 H 420.388 -1.47574 -0.837859 0
M  V30 4398 H 419.16 -3.2265 -2.21388 0
M  V30 4399 H 418.783 -2.01488 -3.42766 0
M  V30 4400 N 419.78 1.02168 -1.19998 0
M  V30 4401 C 420.713 2.10232 -0.887558 0
M  V30 4402 C 421.691 1.61827 0.158317 0
M  V30 4403 O 422.875 1.88471 0.0330249 0
M  V30 4404 C 420.002 3.37092 -0.32964 0
M  V30 4405 C 419.048 4.0438 -1.3557 0
M  V30 4406 S 419.881 4.48956 -2.91888 0
M  V30 4407 C 421.037 5.79024 -2.37658 0
M  V30 4408 H 421.27 2.36409 -1.80272 0
M  V30 4409 H 418.803 1.15211 -1.0279 0
M  V30 4410 H 420.761 4.10498 -0.0142824 0
M  V30 4411 H 419.422 3.08996 0.563941 0
M  V30 4412 H 418.615 4.95632 -0.9146 0
M  V30 4413 H 418.217 3.37176 -1.61828 0
M  V30 4414 H 420.509 6.53942 -1.77103 0
M  V30 4415 H 421.452 6.27924 -3.27287 0
M  V30 4416 H 421.86 5.35043 -1.79971 0
M  V30 4417 N 421.258 1.00505 1.21394 0
M  V30 4418 C 422.504 0.688793 1.90745 0
M  V30 4419 C 422.837 -0.778486 1.77914 0
M  V30 4420 O 422.112 -1.56433 1.15581 0
M  V30 4421 C 422.395 1.11063 3.42545 0
M  V30 4422 C 422.248 2.63737 3.64367 0
M  V30 4423 C 423.567 0.673059 4.34923 0
M  V30 4424 H 420.686 0.251702 0.692687 0
M  V30 4425 H 423.328 1.25074 1.43026 0
M  V30 4426 H 421.478 0.632508 3.83317 0
M  V30 4427 H 423.15 3.19313 3.32922 0
M  V30 4428 H 421.393 3.05248 3.08231 0
M  V30 4429 H 422.064 2.88305 4.70727 0
M  V30 4430 H 424.54 1.08392 4.01734 0
M  V30 4431 H 423.416 0.996383 5.39781 0
M  V30 4432 H 423.677 -0.425808 4.40045 0
M  V30 4433 N 422.737 -1.36956 0.779787 0
M  V30 4434 C 424.014 -1.93697 0.272156 0
M  V30 4435 C 424.394 -1.71267 -1.23413 0
M  V30 4436 O 423.742 -1.06607 -2.02107 0
M  V30 4437 C 423.952 -3.42812 0.654291 0
M  V30 4438 C 425.3 -4.19921 0.628602 0
M  V30 4439 O 426.324 -3.51209 0.594172 0
M  V30 4440 O 425.183 -5.42465 0.662864 0
M  V30 4441 H 422.277 -0.824447 0.0649286 0
M  V30 4442 H 424.823 -1.46196 0.861682 0
M  V30 4443 H 423.595 -3.52754 1.69353 0
M  V30 4444 H 423.218 -3.97582 0.0381369 0
M  V30 4445 N 424.215 -0.530993 -1.48385 0
M  V30 4446 C 425.626 -0.0907905 -1.86479 0
M  V30 4447 C 425.977 1.33213 -1.44044 0
M  V30 4448 O 425.102 1.99783 -0.831615 0
M  V30 4449 C 425.697 -0.157987 -3.38431 0
M  V30 4450 C 424.256 0.227026 -3.75715 0
M  V30 4451 C 423.403 -0.5173 -2.72432 0
M  V30 4452 H 426.354 -0.742186 -1.40276 0
M  V30 4453 H 426.375 0.630053 -3.75247 0
M  V30 4454 H 425.887 -1.19372 -3.69286 0
M  V30 4455 H 423.988 1.26486 -3.50474 0
M  V30 4456 H 424.101 -0.113288 -4.78966 0
M  V30 4457 H 422.465 0.0365527 -2.54674 0
M  V30 4458 H 423.248 -1.55368 -3.0613 0
M  V30 4459 N 425.693 1.55336 -0.266172 0
M  V30 4460 C 426.94 1.99397 0.353158 0
M  V30 4461 C 427.268 1.15451 1.56529 0
M  V30 4462 O 426.523 0.209974 1.9457 0
M  V30 4463 C 426.822 3.48606 0.787957 0
M  V30 4464 C 426.488 4.49773 -0.318541 0
M  V30 4465 C 425.15 4.77158 -0.62239 0
M  V30 4466 C 427.502 5.10212 -1.06459 0
M  V30 4467 C 424.83 5.62251 -1.67602 0
M  V30 4468 C 427.182 5.96449 -2.10788 0
M  V30 4469 C 425.846 6.22158 -2.41817 0
M  V30 4470 H 425.116 0.729644 0.12923 0
M  V30 4471 H 427.763 1.87732 -0.37802 0
M  V30 4472 H 426.068 3.57701 1.59866 0
M  V30 4473 H 427.765 3.80098 1.27775 0
M  V30 4474 H 424.355 4.2854 -0.0715925 0
M  V30 4475 H 428.539 4.89086 -0.843098 0
M  V30 4476 H 423.795 5.80419 -1.92155 0
M  V30 4477 H 427.969 6.42317 -2.69076 0
M  V30 4478 H 425.596 6.87888 -3.23596 0
M  V30 4479 N 427.171 -0.0066808 1.57599 0
M  V30 4480 C 428.121 -1.0086 2.04478 0
M  V30 4481 C 429.105 -1.30714 0.938231 0
M  V30 4482 O 430.297 -1.29924 1.20203 0
M  V30 4483 C 427.426 -2.30273 2.54615 0
M  V30 4484 C 426.512 -2.03413 3.72134 0
M  V30 4485 N 426.903 -1.46688 4.84062 0
M  V30 4486 C 425.201 -2.33589 3.79937 0
M  V30 4487 C 425.902 -1.36146 5.65543 0
M  V30 4488 N 424.878 -1.84477 5.1134 0
M  V30 4489 H 428.68 -0.564402 2.8843 0
M  V30 4490 H 426.194 -0.212521 1.61003 0
M  V30 4491 H 428.191 -3.02885 2.86472 0
M  V30 4492 H 426.851 -2.75352 1.72079 0
M  V30 4493 H 427.862 -1.14658 5.05049 0
M  V30 4494 H 424.539 -2.81589 3.08243 0
M  V30 4495 H 425.929 -0.925873 6.6549 0
M  V30 4496 N 428.649 -1.55105 -0.279332 0
M  V30 4497 C 429.877 -1.7943 -1.03017 0
M  V30 4498 C 430.292 -0.564456 -1.80165 0
M  V30 4499 O 429.649 0.466326 -1.76442 0
M  V30 4500 C 429.7 -3.0155 -1.99374 0
M  V30 4501 O 429.421 -4.19784 -1.25352 0
M  V30 4502 C 430.922 -3.3843 -2.86321 0
M  V30 4503 H 428.142 -0.597882 -0.304594 0
M  V30 4504 H 430.686 -2.02105 -0.312035 0
M  V30 4505 H 428.841 -2.81019 -2.66659 0
M  V30 4506 H 429.255 -4.88781 -1.90246 0
M  V30 4507 H 430.729 -4.27066 -3.49741 0
M  V30 4508 H 431.206 -2.57549 -3.5576 0
M  V30 4509 H 431.812 -3.61197 -2.24536 0
M  V30 4510 N 430.127 0.543554 -1.4793 0
M  V30 4511 C 431.057 1.65888 -1.64327 0
M  V30 4512 C 432.038 1.62818 -0.492383 0
M  V30 4513 O 433.223 1.80226 -0.723338 0
M  V30 4514 C 430.353 3.04506 -1.67013 0
M  V30 4515 C 429.307 3.2243 -2.81466 0
M  V30 4516 C 428.633 4.61972 -2.69233 0
M  V30 4517 C 429.933 3.06496 -4.22915 0
M  V30 4518 H 431.627 1.52421 -2.57698 0
M  V30 4519 H 429.173 0.731849 -1.24016 0
M  V30 4520 H 431.126 3.82391 -1.77074 0
M  V30 4521 H 429.85 3.18964 -0.70212 0
M  V30 4522 H 428.509 2.46957 -2.70938 0
M  V30 4523 H 428.157 4.73247 -1.7043 0
M  V30 4524 H 427.857 4.74911 -3.46025 0
M  V30 4525 H 429.381 5.41974 -2.81242 0
M  V30 4526 H 430.795 3.74186 -4.34348 0
M  V30 4527 H 429.192 3.30938 -5.006 0
M  V30 4528 H 430.262 2.03077 -4.40327 0
M  V30 4529 N 431.605 1.3629 0.791371 0
M  V30 4530 C 432.852 1.30412 1.54916 0
M  V30 4531 C 433.18 -0.117162 1.94147 0
M  V30 4532 O 432.435 -1.08599 1.62803 0
M  V30 4533 C 432.734 2.17068 2.8393 0
M  V30 4534 C 432.4 3.65645 2.63846 0
M  V30 4535 C 431.062 4.0614 2.58077 0
M  V30 4536 C 433.414 4.59855 2.45322 0
M  V30 4537 C 430.742 5.3899 2.31748 0
M  V30 4538 C 433.094 5.9292 2.2052 0
M  V30 4539 C 431.758 6.32542 2.13183 0
M  V30 4540 H 431.028 0.47721 0.566879 0
M  V30 4541 H 433.675 1.68325 0.913172 0
M  V30 4542 H 431.98 1.72085 3.51986 0
M  V30 4543 H 433.677 2.09846 3.4171 0
M  V30 4544 H 430.267 3.33518 2.69191 0
M  V30 4545 H 434.451 4.29443 2.48782 0
M  V30 4546 H 429.707 5.68672 2.24548 0
M  V30 4547 H 433.881 6.65487 2.05182 0
M  V30 4548 H 431.508 7.35412 1.92544 0
M  V30 4549 N 433.083 -1.0153 1.20538 0
M  V30 4550 C 434.331 -1.74803 1.01432 0
M  V30 4551 C 434.652 -1.8963 -0.454456 0
M  V30 4552 O 433.922 -1.43975 -1.32846 0
M  V30 4553 H 432.502 -0.647598 0.372324 0
M  V30 4554 H 435.164 -1.22402 1.5167 0
M  V30 4555 H 434.26 -2.75114 1.47373 0
M  V30 4556 N 434.561 -1.01147 -1.20859 0
M  V30 4557 C 435.81 -0.693214 -1.89413 0
M  V30 4558 C 436.123 0.779969 -1.79376 0
M  V30 4559 O 437.329 1.21057 -2.43017 0
M  V30 4560 C 435.785 -1.18949 -3.39675 0
M  V30 4561 C 435.393 -2.68921 -3.58309 0
M  V30 4562 C 437.137 -0.94642 -4.13815 0
M  V30 4563 C 435.044 -3.12056 -5.0237 0
M  V30 4564 H 433.974 -0.255595 -0.709357 0
M  V30 4565 H 436.625 -1.22349 -1.36759 0
M  V30 4566 H 435.007 -0.587228 -3.91622 0
M  V30 4567 H 436.181 -3.34652 -3.16772 0
M  V30 4568 H 434.496 -2.91314 -2.97532 0
M  V30 4569 H 437.093 -1.24417 -5.20023 0
M  V30 4570 H 437.436 0.117219 -4.16135 0
M  V30 4571 H 437.969 -1.5118 -3.67953 0
M  V30 4572 H 434.708 -4.17674 -5.05202 0
M  V30 4573 H 434.228 -2.51041 -5.44737 0
M  V30 4574 H 435.907 -3.04403 -5.70918 0
M  V30 4575 N 436.039 1.36541 -0.78704 0
M  V30 4576 C 437.002 2.28413 -0.189778 0
M  V30 4577 C 438.002 1.48719 0.611499 0
M  V30 4578 O 439.192 1.68737 0.432842 0
M  V30 4579 C 436.324 3.32824 0.737638 0
M  V30 4580 H 437.517 2.82743 -0.999831 0
M  V30 4581 H 435.07 1.46065 -0.556298 0
M  V30 4582 H 435.805 2.83646 1.57212 0
M  V30 4583 H 435.59 3.91752 0.165044 0
M  V30 4584 H 437.08 4.0144 1.15047 0
M  V30 4585 N 437.518 0.538854 1.48102 0
M  V30 4586 C 438.766 0.00798599 2.02098 0
M  V30 4587 C 439.087 -1.33922 1.41739 0
M  V30 4588 O 438.357 -1.86932 0.585934 0
M  V30 4589 H 436.937 -3.62179e-05 0.747 0
M  V30 4590 H 439.599 0.7047 1.81714 0
M  V30 4591 H 438.695 -0.0937672 3.11959 0
M  V30 4592 N 438.996 -1.55193 0.274407 0
M  V30 4593 C 439.926 -2.25471 -0.607032 0
M  V30 4594 C 440.907 -1.24461 -1.15946 0
M  V30 4595 O 442.092 -1.53179 -1.19373 0
M  V30 4596 C 439.222 -2.97526 -1.79153 0
M  V30 4597 C 438.176 -4.05459 -1.37067 0
M  V30 4598 C 437.502 -4.65084 -2.6382 0
M  V30 4599 C 438.802 -5.19691 -0.521389 0
M  V30 4600 H 440.496 -2.99393 -0.0209343 0
M  V30 4601 H 438.042 -1.43997 -0.00862866 0
M  V30 4602 H 439.995 -3.45402 -2.41404 0
M  V30 4603 H 438.719 -2.21138 -2.40344 0
M  V30 4604 H 437.378 -3.58393 -0.771355 0
M  V30 4605 H 437.026 -3.85365 -3.23268 0
M  V30 4606 H 436.726 -5.37961 -2.36372 0
M  V30 4607 H 438.25 -5.15708 -3.26921 0
M  V30 4608 H 439.664 -5.63623 -1.04889 0
M  V30 4609 H 438.061 -5.99126 -0.341825 0
M  V30 4610 H 439.131 -4.82713 0.46 0
M  V30 4611 N 440.474 -0.00167713 -1.576 0
M  V30 4612 C 441.699 0.69739 -1.95323 0
M  V30 4613 C 442.124 1.6642 -0.876706 0
M  V30 4614 O 441.482 1.80548 0.165007 0
M  V30 4615 C 441.53 1.40403 -3.32144 0
M  V30 4616 O 440.634 2.5185 -3.26566 0
M  V30 4617 H 439.975 0.185373 -0.637599 0
M  V30 4618 H 442.505 -0.0553665 -2.04525 0
M  V30 4619 H 442.515 1.76707 -3.67748 0
M  V30 4620 H 441.19 0.695167 -4.10049 0
M  V30 4621 H 439.767 2.17861 -3.0264 0
M  V30 4622 N 441.952 1.55251 0.271103 0
M  V30 4623 C 442.882 1.9127 1.33933 0
M  V30 4624 C 443.863 0.77478 1.5143 0
M  V30 4625 O 445.048 1.03307 1.64442 0
M  V30 4626 C 442.178 2.18627 2.69851 0
M  V30 4627 C 441.132 3.34442 2.67081 0
M  V30 4628 C 440.458 3.47284 4.06569 0
M  V30 4629 C 441.758 4.70784 2.26185 0
M  V30 4630 H 443.452 2.80744 1.04035 0
M  V30 4631 H 440.998 1.35077 0.499017 0
M  V30 4632 H 442.951 2.42413 3.44694 0
M  V30 4633 H 441.675 1.25955 3.01335 0
M  V30 4634 H 440.334 3.10627 1.94695 0
M  V30 4635 H 439.982 2.52074 4.35279 0
M  V30 4636 H 439.682 4.25152 4.0561 0
M  V30 4637 H 441.206 3.73363 4.83148 0
M  V30 4638 H 442.62 4.94102 2.90751 0
M  V30 4639 H 441.017 5.51582 2.36384 0
M  V30 4640 H 442.087 4.69478 1.21319 0
M  V30 4641 N 443.43 -0.535701 1.48216 0
M  V30 4642 C 444.36 -1.65014 1.65204 0
M  V30 4643 C 445.341 -1.62554 0.501011 0
M  V30 4644 O 446.526 -1.7984 0.732886 0
M  V30 4645 C 443.656 -3.03616 1.68626 0
M  V30 4646 C 442.61 -3.20932 2.83172 0
M  V30 4647 C 441.936 -4.60537 2.71679 0
M  V30 4648 C 443.236 -3.04249 4.24535 0
M  V30 4649 H 444.93 -1.51053 2.58502 0
M  V30 4650 H 442.476 -0.725262 1.24402 0
M  V30 4651 H 444.429 -3.81446 1.79099 0
M  V30 4652 H 443.153 -3.18587 0.719026 0
M  V30 4653 H 441.812 -2.45517 2.72244 0
M  V30 4654 H 441.46 -4.72336 1.72937 0
M  V30 4655 H 441.16 -4.73069 3.48538 0
M  V30 4656 H 442.684 -5.40475 2.84112 0
M  V30 4657 H 444.098 -3.71877 4.36326 0
M  V30 4658 H 442.495 -3.28278 5.02348 0
M  V30 4659 H 443.565 -2.00739 4.41397 0
M  V30 4660 N 444.908 -1.36708 -0.784132 0
M  V30 4661 C 446.156 -1.30972 -1.53918 0
M  V30 4662 C 446.477 0.109086 -1.94695 0
M  V30 4663 O 445.747 1.05048 -1.65353 0
M  V30 4664 H 444.327 -0.481819 -0.570841 0
M  V30 4665 H 446.989 -1.71063 -0.934002 0
M  V30 4666 H 446.085 -1.94061 -2.44431 0
M  V30 4667 N 446.386 1.0089 -1.21074 0
M  V30 4668 C 447.296 2.13039 -0.982425 0
M  V30 4669 C 448.312 1.73881 0.0642161 0
M  V30 4670 O 449.488 2.01012 -0.12496 0
M  V30 4671 C 446.553 3.42377 -0.545803 0
M  V30 4672 C 445.614 3.95731 -1.6642 0
M  V30 4673 C 444.847 5.18896 -1.24832 0
M  V30 4674 O 445.07 5.70273 -0.120265 0
M  V30 4675 O 444.004 5.65597 -2.05873 0
M  V30 4676 H 447.83 2.35175 -1.92163 0
M  V30 4677 H 445.415 1.1142 -0.995285 0
M  V30 4678 H 447.297 4.20244 -0.311912 0
M  V30 4679 H 445.972 3.21639 0.364727 0
M  V30 4680 H 444.879 3.19108 -1.95246 0
M  V30 4681 H 446.212 4.20872 -2.55201 0
M  V30 4682 N 447.864 1.01787 1.20321 0
M  V30 4683 C 448.774 0.598898 2.26827 0
M  V30 4684 C 449.79 -0.36418 1.70146 0
M  V30 4685 O 450.966 -0.224812 2.00141 0
M  V30 4686 C 448.031 -0.0549769 3.46656 0
M  V30 4687 C 447.092 0.954205 4.18561 0
M  V30 4688 C 446.325 0.331439 5.3267 0
M  V30 4689 O 446.548 -0.86851 5.63749 0
M  V30 4690 O 445.482 1.0488 5.92692 0
M  V30 4691 H 449.308 1.48562 2.64883 0
M  V30 4692 H 446.893 0.787434 1.26964 0
M  V30 4693 H 448.775 -0.420102 4.19301 0
M  V30 4694 H 447.45 -0.915876 3.10473 0
M  V30 4695 H 446.357 1.37072 3.48083 0
M  V30 4696 H 447.69 1.78511 4.58688 0
M  V30 4697 N 449.342 -1.36122 0.79427 0
M  V30 4698 C 450.274 -2.28683 0.153903 0
M  V30 4699 C 451.287 -1.49707 -0.639669 0
M  V30 4700 O 452.476 -1.7209 -0.474054 0
M  V30 4701 C 449.576 -3.29202 -0.804921 0
M  V30 4702 C 448.749 -4.37358 -0.060366 0
M  V30 4703 C 447.808 -5.17811 -0.935849 0
M  V30 4704 O 446.834 -5.67853 -0.391309 0
M  V30 4705 N 448.036 -5.34721 -2.25951 0
M  V30 4706 H 450.801 -2.84278 0.949008 0
M  V30 4707 H 448.362 -1.4834 0.648611 0
M  V30 4708 H 450.354 -3.79914 -1.39455 0
M  V30 4709 H 448.924 -2.74212 -1.50088 0
M  V30 4710 H 448.144 -3.87746 0.710382 0
M  V30 4711 H 449.432 -5.06777 0.45324 0
M  V30 4712 H 448.83 -4.95687 -2.72601 0
M  V30 4713 H 447.387 -5.88657 -2.79867 0
M  V30 4714 N 450.82 -0.546701 -1.47814 0
M  V30 4715 C 452.069 -0.0166497 -2.01693 0
M  V30 4716 C 452.382 1.33721 -1.42752 0
M  V30 4717 O 453.588 1.95658 -1.8823 0
M  V30 4718 C 452.044 0.0206769 -3.59894 0
M  V30 4719 C 451.652 -1.3293 -4.27824 0
M  V30 4720 C 453.396 0.498674 -4.21561 0
M  V30 4721 C 451.303 -1.25165 -5.78003 0
M  V30 4722 H 450.233 -0.0024541 -0.753996 0
M  V30 4723 H 452.884 -0.692984 -1.69912 0
M  V30 4724 H 451.266 0.76244 -3.88591 0
M  V30 4725 H 452.44 -2.08795 -4.10781 0
M  V30 4726 H 450.755 -1.74438 -3.78101 0
M  V30 4727 H 453.352 0.575 -5.31599 0
M  V30 4728 H 453.695 1.5083 -3.88016 0
M  V30 4729 H 454.228 -0.18791 -3.97356 0
M  V30 4730 H 450.967 -2.23695 -6.1615 0
M  V30 4731 H 450.487 -0.53464 -5.97412 0
M  V30 4732 H 452.166 -0.949299 -6.39998 0
M  V30 4733 N 452.299 1.55045 -0.282633 0
M  V30 4734 C 453.246 2.22822 0.601566 0
M  V30 4735 C 454.216 1.20431 1.14392 0
M  V30 4736 O 455.401 1.48996 1.19184 0
M  V30 4737 C 452.541 2.95873 1.77632 0
M  V30 4738 C 451.654 4.12999 1.26711 0
M  V30 4739 C 450.789 4.73676 2.40426 0
M  V30 4740 C 449.828 5.82981 1.86545 0
M  V30 4741 N 448.965 6.3769 2.93762 0
M  V30 4742 H 453.805 2.97995 0.0169528 0
M  V30 4743 H 451.342 1.471 -0.00339964 0
M  V30 4744 H 453.3 3.36447 2.46697 0
M  V30 4745 H 451.93 2.2311 2.33285 0
M  V30 4746 H 450.982 3.77494 0.469314 0
M  V30 4747 H 452.294 4.91803 0.832518 0
M  V30 4748 H 451.448 5.17008 3.17471 0
M  V30 4749 H 450.187 3.94164 2.87203 0
M  V30 4750 H 449.192 5.39092 1.07983 0
M  V30 4751 H 450.417 6.64366 1.40694 0
M  V30 4752 H 448.363 5.61069 3.39908 0
M  V30 4753 H 448.28 7.11788 2.54744 0
M  V30 4754 H 449.548 6.8568 3.7076 0
M  V30 4755 N 453.777 0.010035 1.57597 0
M  V30 4756 C 455.188 -0.531426 1.78977 0
M  V30 4757 C 455.539 -1.73375 0.918454 0
M  V30 4758 O 454.664 -2.16047 0.123635 0
M  V30 4759 C 455.259 -0.97086 3.24592 0
M  V30 4760 C 453.818 -1.45756 3.47033 0
M  V30 4761 C 452.965 -0.413384 2.74201 0
M  V30 4762 H 455.916 0.236166 1.56933 0
M  V30 4763 H 455.937 -1.83633 3.33255 0
M  V30 4764 H 455.449 -0.0955893 3.87982 0
M  V30 4765 H 453.55 -2.35339 2.88871 0
M  V30 4766 H 453.663 -1.4781 4.55729 0
M  V30 4767 H 452.027 -0.877266 2.39115 0
M  V30 4768 H 452.81 0.453092 3.40297 0
M  V30 4769 N 455.255 -1.55392 -0.262866 0
M  V30 4770 C 456.501 -1.76737 -0.99458 0
M  V30 4771 C 456.834 -0.572453 -1.85571 0
M  V30 4772 O 456.109 0.429732 -1.89693 0
M  V30 4773 C 456.392 -3.07824 -1.8686 0
M  V30 4774 C 456.245 -4.3769 -1.03672 0
M  V30 4775 C 457.564 -3.35021 -2.85393 0
M  V30 4776 H 454.683 -0.643005 -0.360157 0
M  V30 4777 H 457.325 -1.88126 -0.266216 0
M  V30 4778 H 455.475 -2.98245 -2.48962 0
M  V30 4779 H 457.147 -4.59238 -0.43563 0
M  V30 4780 H 455.39 -4.32461 -0.340513 0
M  V30 4781 H 456.061 -5.25759 -1.6817 0
M  V30 4782 H 458.537 -3.44458 -2.33426 0
M  V30 4783 H 457.413 -4.27989 -3.43681 0
M  V30 4784 H 457.674 -2.55153 -3.61039 0
M  V30 4785 N 456.733 0.527833 -1.48498 0
M  V30 4786 C 457.681 1.65313 -1.63628 0
M  V30 4787 C 458.675 1.6177 -0.502676 0
M  V30 4788 O 459.881 1.66601 -0.681469 0
M  V30 4789 H 456.256 0.547518 -0.515488 0
M  V30 4790 H 458.227 1.49696 -2.58135 0
M  V30 4791 C 456.976 3.03576 -1.6952 0
M  V30 4792 H 456.299 3.06997 -2.56111 0
M  V30 4793 H 457.739 3.81923 -1.84149 0
M  V30 4794 C 456.198 3.34089 -0.43432 0
M  V30 4795 O 456.728 3.99151 0.451852 0
M  V30 4796 N 454.934 2.88991 -0.305368 0
M  V30 4797 H 454.481 2.36222 -1.02747 0
M  V30 4798 H 454.439 3.09776 0.537249 0
M  V30 4799 N 458.211 1.37122 0.776871 0
M  V30 4800 C 459.622 1.28667 1.35284 0
M  V30 4801 C 459.973 -0.0680035 1.96082 0
M  V30 4802 O 459.098 -0.969743 1.93455 0
M  V30 4803 C 459.693 2.32997 2.45963 0
M  V30 4804 C 458.252 2.28191 2.99342 0
M  V30 4805 C 457.399 2.17101 1.72517 0
M  V30 4806 H 460.35 1.47819 0.577527 0
M  V30 4807 H 460.371 1.97366 3.2531 0
M  V30 4808 H 459.883 3.3158 2.01684 0
M  V30 4809 H 457.984 1.33115 3.4801 0
M  V30 4810 H 458.097 3.21397 3.55304 0
M  V30 4811 H 456.461 1.63562 1.95242 0
M  V30 4812 H 457.244 3.17591 1.30348 0
M  V30 4813 N 459.689 -1.00246 1.21608 0
M  V30 4814 C 460.935 -1.74319 1.03638 0
M  V30 4815 C 461.268 -1.89408 -0.428749 0
M  V30 4816 O 460.543 -1.43026 -1.3181 0
M  V30 4817 C 460.826 -3.15431 1.73711 0
M  V30 4818 C 460.679 -3.08049 3.27759 0
M  V30 4819 C 461.998 -4.14407 1.48173 0
M  V30 4820 H 459.117 -0.632741 0.377899 0
M  V30 4821 H 461.759 -1.16853 1.49818 0
M  V30 4822 H 459.909 -3.64493 1.34452 0
M  V30 4823 H 461.581 -2.66681 3.76403 0
M  V30 4824 H 459.824 -2.45088 3.57931 0
M  V30 4825 H 460.495 -4.07862 3.71958 0
M  V30 4826 H 462.971 -3.74061 1.82258 0
M  V30 4827 H 461.847 -5.11279 1.99713 0
M  V30 4828 H 462.108 -4.40174 0.412273 0
M  V30 4829 N 461.167 -1.02423 -1.1978 0
M  V30 4830 C 462.414 -0.717988 -1.89344 0
M  V30 4831 C 462.742 0.753036 -1.79331 0
M  V30 4832 O 461.997 1.56355 -1.17692 0
M  V30 4833 C 462.296 -1.1088 -3.39765 0
M  V30 4834 C 461.962 -2.57731 -3.6998 0
M  V30 4835 C 460.624 -2.97854 -3.77937 0
M  V30 4836 C 462.976 -3.52763 -3.83677 0
M  V30 4837 C 460.304 -4.31931 -3.97054 0
M  V30 4838 C 462.656 -4.86538 -4.04306 0
M  V30 4839 C 461.32 -5.26356 -4.10494 0
M  V30 4840 H 460.59 -0.26273 -0.692859 0
M  V30 4841 H 463.237 -1.28623 -1.41875 0
M  V30 4842 H 461.542 -0.459094 -3.89101 0
M  V30 4843 H 463.239 -0.849432 -3.919 0
M  V30 4844 H 459.829 -2.25646 -3.64393 0
M  V30 4845 H 464.013 -3.2292 -3.76877 0
M  V30 4846 H 459.269 -4.62324 -4.00083 0
M  V30 4847 H 463.443 -5.60093 -4.13846 0
M  V30 4848 H 461.07 -6.3026 -4.2506 0
M  V30 4849 N 462.645 1.35699 -0.801477 0
M  V30 4850 C 463.885 2.00741 -0.385027 0
M  V30 4851 C 464.249 1.62213 1.02718 0
M  V30 4852 O 465.45 2.19936 1.54537 0
M  V30 4853 C 463.721 3.53032 -0.557057 0
M  V30 4854 S 465.28 4.38195 -0.230272 0
M  V30 4855 H 462.098 0.695748 -0.146477 0
M  V30 4856 H 464.7 1.65378 -1.04261 0
M  V30 4857 H 463.404 3.7856 -1.58494 0
M  V30 4858 H 462.935 3.93229 0.116029 0
M  V30 4859 H 464.95 4.86748 0.963895 0
M  V30 4860 N 464.123 0.554532 1.47522 0
M  V30 4861 C 465.056 -0.242442 2.26908 0
M  V30 4862 C 466.034 -0.922722 1.33883 0
M  V30 4863 O 467.218 -0.942244 1.63261 0
M  V30 4864 C 464.345 -1.34525 3.10839 0
M  V30 4865 C 463.391 -0.773805 4.19422 0
M  V30 4866 S 464.224 0.377525 5.34168 0
M  V30 4867 C 465.38 -0.727164 6.21662 0
M  V30 4868 H 465.613 0.431218 2.94156 0
M  V30 4869 H 463.146 0.3408 1.50592 0
M  V30 4870 H 465.104 -1.97683 3.59766 0
M  V30 4871 H 463.765 -1.99073 2.42958 0
M  V30 4872 H 462.958 -1.60187 4.77866 0
M  V30 4873 H 462.56 -0.218448 3.73361 0
M  V30 4874 H 464.852 -1.61992 6.57849 0
M  V30 4875 H 465.795 -0.180135 7.07871 0
M  V30 4876 H 466.203 -1.01863 5.55233 0
M  V30 4877 N 465.601 -1.54893 0.290851 0
M  V30 4878 C 467.012 -1.85584 -0.203816 0
M  V30 4879 C 467.363 -1.21285 -1.54222 0
M  V30 4880 O 466.488 -0.506841 -2.10381 0
M  V30 4881 C 467.083 -3.367 -0.376595 0
M  V30 4882 C 465.642 -3.6746 -0.815485 0
M  V30 4883 C 464.789 -2.77178 0.0821087 0
M  V30 4884 H 467.74 -1.50208 0.512175 0
M  V30 4885 H 467.761 -3.60656 -1.21275 0
M  V30 4886 H 467.273 -3.8347 0.59767 0
M  V30 4887 H 465.374 -3.26201 -1.80066 0
M  V30 4888 H 465.487 -4.7478 -0.641905 0
M  V30 4889 H 463.851 -2.50925 -0.436895 0
M  V30 4890 H 464.634 -3.26767 1.05254 0
M  V30 4891 N 467.08 -0.0183926 -1.57589 0
M  V30 4892 C 467.99 0.982943 -2.13015 0
M  V30 4893 C 469.006 1.36443 -1.07979 0
M  V30 4894 O 470.182 1.44802 -1.3998 0
M  V30 4895 C 467.247 2.25024 -2.63752 0
M  V30 4896 C 466.308 1.93018 -3.83461 0
M  V30 4897 C 465.541 3.13706 -4.31769 0
M  V30 4898 O 465.764 4.2601 -3.79305 0
M  V30 4899 O 464.698 2.96629 -5.23732 0
M  V30 4900 H 468.524 0.541709 -2.9883 0
M  V30 4901 H 466.109 0.201565 -1.48034 0
M  V30 4902 H 467.991 2.99441 -2.96502 0
M  V30 4903 H 466.666 2.68349 -1.81026 0
M  V30 4904 H 465.573 1.16019 -3.55655 0
M  V30 4905 H 466.906 1.54516 -4.67317 0
M  V30 4906 N 468.558 1.5553 0.254621 0
M  V30 4907 C 469.468 1.92789 1.33677 0
M  V30 4908 C 470.484 0.827356 1.53071 0
M  V30 4909 O 471.66 1.12807 1.66843 0
M  V30 4910 C 468.725 2.20827 2.67275 0
M  V30 4911 C 467.786 3.4427 2.5647 0
M  V30 4912 C 467.019 3.70961 3.83697 0
M  V30 4913 O 467.242 2.99852 4.85227 0
M  V30 4914 O 466.176 4.64491 3.82794 0
M  V30 4915 H 470.002 2.84945 1.05071 0
M  V30 4916 H 467.587 1.42312 0.454723 0
M  V30 4917 H 469.469 2.40204 3.46237 0
M  V30 4918 H 468.144 1.31851 2.9563 0
M  V30 4919 H 467.051 3.30209 1.75821 0
M  V30 4920 H 468.384 4.33524 2.33062 0
M  V30 4921 N 470.036 -0.519951 1.48776 0
M  V30 4922 C 471.282 -1.27711 1.57536 0
M  V30 4923 C 471.615 -1.92547 0.252866 0
M  V30 4924 O 470.89 -1.7979 -0.742021 0
M  V30 4925 C 471.173 -2.35875 2.72094 0
M  V30 4926 C 471.026 -1.75664 4.1408 0
M  V30 4927 C 472.345 -3.37575 2.82367 0
M  V30 4928 H 469.464 -0.462971 0.573434 0
M  V30 4929 H 472.106 -0.578194 1.80989 0
M  V30 4930 H 470.256 -2.95488 2.52228 0
M  V30 4931 H 471.928 -1.20025 4.45412 0
M  V30 4932 H 470.171 -1.06154 4.20611 0
M  V30 4933 H 470.842 -2.54029 4.90075 0
M  V30 4934 H 473.318 -2.87929 3.00393 0
M  V30 4935 H 472.194 -4.1064 3.64233 0
M  V30 4936 H 472.455 -3.98743 1.90936 0
M  V30 4937 N 471.514 -1.37532 -0.769588 0
M  V30 4938 C 472.444 -1.36172 -1.89682 0
M  V30 4939 C 473.425 -0.23001 -1.68538 0
M  V30 4940 O 474.61 -0.43069 -1.89364 0
M  V30 4941 C 471.74 -1.1701 -3.26995 0
M  V30 4942 C 470.694 -2.27216 -3.62708 0
M  V30 4943 C 470.02 -1.93174 -4.98586 0
M  V30 4944 C 471.32 -3.6941 -3.69234 0
M  V30 4945 H 473.014 -2.30499 -1.91078 0
M  V30 4946 H 470.56 -1.10953 -0.917902 0
M  V30 4947 H 472.513 -1.14688 -4.05493 0
M  V30 4948 H 471.237 -0.191395 -3.26039 0
M  V30 4949 H 469.896 -2.28697 -2.86519 0
M  V30 4950 H 469.544 -0.938281 -4.94171 0
M  V30 4951 H 469.244 -2.66973 -5.23449 0
M  V30 4952 H 470.768 -1.92443 -5.79481 0
M  V30 4953 H 472.182 -3.70047 -4.37879 0
M  V30 4954 H 470.579 -4.4228 -4.05597 0
M  V30 4955 H 471.649 -4.0288 -2.69844 0
M  V30 4956 N 472.992 0.995999 -1.22138 0
M  V30 4957 C 473.924 2.08745 -0.946485 0
M  V30 4958 C 474.937 1.62633 0.0737356 0
M  V30 4959 O 476.126 1.77782 -0.159886 0
M  V30 4960 C 473.226 3.36516 -0.401305 0
M  V30 4961 C 472.399 4.11672 -1.47801 0
M  V30 4962 C 471.458 5.17728 -0.940461 0
M  V30 4963 O 470.484 5.45482 -1.62596 0
M  V30 4964 N 471.686 5.80005 0.239723 0
M  V30 4965 H 474.451 2.32908 -1.88611 0
M  V30 4966 H 472.012 1.16152 -1.12785 0
M  V30 4967 H 474.004 4.04691 -0.0270837 0
M  V30 4968 H 472.574 3.0944 0.443354 0
M  V30 4969 H 471.794 3.38171 -2.02568 0
M  V30 4970 H 473.082 4.58657 -2.20253 0
M  V30 4971 H 472.48 5.5982 0.813518 0
M  V30 4972 H 471.037 6.4943 0.555361 0
M  V30 4973 N 474.47 1.03057 1.19235 0
M  V30 4974 C 475.886 0.747947 1.40989 0
M  V30 4975 C 476.086 -0.666752 1.90149 0
M  V30 4976 O 475.142 -1.43249 2.07933 0
M  V30 4977 C 476.455 1.7855 2.41951 0
M  V30 4978 C 478.003 1.80524 2.55695 0
M  V30 4979 C 478.478 2.83243 3.59913 0
M  V30 4980 N 479.969 2.8207 3.67411 0
M  V30 4981 C 480.704 3.58204 4.47747 0
M  V30 4982 N 480.2 4.44057 5.31775 0
M  V30 4983 N 481.993 3.46738 4.42413 0
M  V30 4984 H 474.144 1.94367 0.856468 0
M  V30 4985 H 476.407 0.840412 0.438647 0
M  V30 4986 H 476.113 2.79973 2.12857 0
M  V30 4987 H 475.987 1.6092 3.41152 0
M  V30 4988 H 478.374 0.79778 2.84112 0
M  V30 4989 H 478.455 2.02229 1.56643 0
M  V30 4990 H 478.099 3.84161 3.32239 0
M  V30 4991 H 478.029 2.58795 4.5862 0
M  V30 4992 H 480.52 2.19803 3.074 0
M  V30 4993 H 480.833 4.98884 5.90199 0
M  V30 4994 H 479.178 4.48129 5.3123 0
M  V30 4995 H 482.369 2.79077 3.75811 0
M  V30 4996 H 482.542 4.06322 5.04783 0
M  V30 4997 N 475.948 -1.35272 0.808662 0
M  V30 4998 C 477.194 -1.99003 0.390581 0
M  V30 4999 C 477.527 -1.63999 -1.0401 0
M  V30 5000 O 476.802 -0.904368 -1.72196 0
M  V30 5001 C 477.085 -3.55454 0.576566 0
M  V30 5002 C 476.938 -4.00249 2.05233 0
M  V30 5003 C 478.257 -4.401 0.00354277 0
M  V30 5004 H 475.376 -0.722917 0.143388 0
M  V30 5005 H 478.018 -1.6039 1.01858 0
M  V30 5006 H 476.168 -3.88477 0.0419766 0
M  V30 5007 H 477.84 -3.77626 2.64946 0
M  V30 5008 H 476.083 -3.51082 2.54801 0
M  V30 5009 H 476.754 -5.0911 2.13333 0
M  V30 5010 H 479.23 -4.13548 0.460117 0
M  V30 5011 H 478.106 -5.48656 0.163575 0
M  V30 5012 H 478.367 -4.28444 -1.09032 0
M  V30 5013 N 477.426 -0.562348 -1.47226 0
M  V30 5014 C 478.374 0.195476 -2.31777 0
M  V30 5015 C 479.368 0.90433 -1.43242 0
M  V30 5016 O 480.574 0.825031 -1.59979 0
M  V30 5017 H 476.949 0.0819095 -0.747526 0
M  V30 5018 H 478.92 -0.536753 -2.93533 0
M  V30 5019 C 477.669 1.20902 -3.26003 0
M  V30 5020 H 476.992 0.672997 -3.94095 0
M  V30 5021 H 478.432 1.71006 -3.87986 0
M  V30 5022 C 476.891 2.25955 -2.49891 0
M  V30 5023 O 477.421 3.32969 -2.2471 0
M  V30 5024 N 475.627 2.00019 -2.1081 0
M  V30 5025 H 475.174 1.13006 -2.31489 0
M  V30 5026 H 475.132 2.70523 -1.60201 0
M  V30 5027 N 478.904 1.54736 -0.299062 0
M  V30 5028 C 480.15 2.00397 0.311244 0
M  V30 5029 C 480.483 1.18716 1.53688 0
M  V30 5030 O 479.758 0.263154 1.92712 0
M  V30 5031 C 480.041 3.53817 0.669761 0
M  V30 5032 C 479.894 4.46239 -0.564882 0
M  V30 5033 C 481.213 4.13856 1.49702 0
M  V30 5034 H 478.332 0.728493 0.111653 0
M  V30 5035 H 480.974 1.85506 -0.410774 0
M  V30 5036 H 479.124 3.66637 1.28491 0
M  V30 5037 H 480.796 4.45328 -1.20337 0
M  V30 5038 H 479.039 4.16916 -1.19849 0
M  V30 5039 H 479.71 5.5134 -0.269918 0
M  V30 5040 H 482.186 4.04461 0.977284 0
M  V30 5041 H 481.062 5.21365 1.71666 0
M  V30 5042 H 481.323 3.65608 2.48563 0
M  V30 5043 N 480.382 0.0267497 1.57577 0
M  V30 5044 C 481.314 -0.984594 2.06974 0
M  V30 5045 C 482.327 -1.29032 0.992705 0
M  V30 5046 O 483.516 -1.25539 1.26895 0
M  V30 5047 C 480.616 -2.31262 2.47732 0
M  V30 5048 C 479.789 -2.1924 3.78487 0
M  V30 5049 C 478.848 -3.34956 4.05821 0
M  V30 5050 O 477.874 -3.11948 4.76106 0
M  V30 5051 N 479.076 -4.58672 3.55809 0
M  V30 5052 H 481.841 -0.563143 2.94362 0
M  V30 5053 H 479.402 -0.160061 1.61107 0
M  V30 5054 H 481.394 -3.07496 2.63112 0
M  V30 5055 H 479.964 -2.65056 1.65723 0
M  V30 5056 H 479.184 -1.27747 3.72927 0
M  V30 5057 H 480.472 -2.08409 4.64158 0
M  V30 5058 H 479.87 -4.8026 2.98942 0
M  V30 5059 H 478.427 -5.32083 3.76472 0
M  V30 5060 N 481.861 -1.55662 -0.24637 0
M  V30 5061 C 483.272 -1.67953 -0.81539 0
M  V30 5062 C 483.623 -0.624302 -1.86002 0
M  V30 5063 O 482.748 0.229328 -2.15181 0
M  V30 5064 C 483.343 -3.04484 -1.48576 0
M  V30 5065 C 481.902 -3.18713 -2.00248 0
M  V30 5066 C 481.049 -2.6383 -0.853766 0
M  V30 5067 H 484 -1.58685 -0.0221692 0
M  V30 5068 H 484.021 -2.98959 -2.3538 0
M  V30 5069 H 483.533 -3.81264 -0.725222 0
M  V30 5070 H 481.634 -2.46757 -2.79181 0
M  V30 5071 H 481.747 -4.25628 -2.1995 0
M  V30 5072 H 480.111 -2.21667 -1.25442 0
M  V30 5073 H 480.894 -3.43135 -0.106302 0
M  V30 5074 N 483.339 0.512053 -1.4905 0
M  V30 5075 C 484.249 1.64139 -1.67617 0
M  V30 5076 C 485.265 1.64786 -0.558701 0
M  V30 5077 O 486.441 1.8341 -0.832034 0
M  V30 5078 C 483.506 3.00548 -1.72835 0
M  V30 5079 C 482.567 3.10615 -2.96339 0
M  V30 5080 C 481.8 4.40517 -3.01298 0
M  V30 5081 O 482.023 5.28671 -2.14157 0
M  V30 5082 O 480.957 4.55325 -3.93653 0
M  V30 5083 H 484.783 1.51407 -2.63267 0
M  V30 5084 H 482.368 0.687131 -1.32661 0
M  V30 5085 H 484.25 3.81641 -1.78683 0
M  V30 5086 H 482.925 3.13566 -0.803616 0
M  V30 5087 H 481.832 2.2875 -2.96014 0
M  V30 5088 H 483.165 3.0252 -3.88256 0
M  V30 5089 N 484.817 1.37938 0.762283 0
M  V30 5090 C 485.747 1.37176 1.88958 0
M  V30 5091 C 486.728 0.238945 1.68413 0
M  V30 5092 O 487.913 0.440726 1.89133 0
M  V30 5093 C 485.043 1.18742 3.2637 0
M  V30 5094 C 483.997 2.29136 3.61498 0
M  V30 5095 C 483.323 1.95816 4.97554 0
M  V30 5096 C 484.623 3.71363 3.6727 0
M  V30 5097 H 486.317 2.31509 1.89853 0
M  V30 5098 H 483.863 1.11438 0.912005 0
M  V30 5099 H 485.816 1.16837 4.04879 0
M  V30 5100 H 484.54 0.208683 3.25933 0
M  V30 5101 H 483.199 2.30213 2.85303 0
M  V30 5102 H 482.847 0.964475 4.93667 0
M  V30 5103 H 482.547 2.69745 5.22026 0
M  V30 5104 H 484.071 1.95513 5.78452 0
M  V30 5105 H 485.485 3.72364 4.35911 0
M  V30 5106 H 483.882 4.44425 4.03245 0
M  V30 5107 H 484.952 4.04305 2.67704 0
M  V30 5108 N 486.295 -0.989507 1.22664 0
M  V30 5109 C 487.541 -1.7321 1.05481 0
M  V30 5110 C 487.874 -1.89852 -0.408635 0
M  V30 5111 O 487.149 -1.44416 -1.30285 0
M  V30 5112 C 487.432 -3.1357 1.77047 0
M  V30 5113 C 487.285 -3.04555 3.31008 0
M  V30 5114 C 488.604 -4.12812 1.5256 0
M  V30 5115 H 485.723 -0.628697 0.384589 0
M  V30 5116 H 488.365 -1.15258 1.51049 0
M  V30 5117 H 486.515 -3.63046 1.3831 0
M  V30 5118 H 488.187 -2.62674 3.7921 0
M  V30 5119 H 486.43 -2.41278 3.6051 0
M  V30 5120 H 487.101 -4.03894 3.76263 0
M  V30 5121 H 489.577 -3.72106 1.86215 0
M  V30 5122 H 488.453 -5.09132 2.05124 0
M  V30 5123 H 488.714 -4.39711 0.458936 0
M  V30 5124 N 487.773 -1.03688 -1.18687 0
M  V30 5125 C 488.998 -0.757819 -1.93059 0
M  V30 5126 C 489.423 0.678353 -1.75442 0
M  V30 5127 O 488.781 1.46938 -1.06203 0
M  V30 5128 C 488.829 -1.12423 -3.42627 0
M  V30 5129 O 487.933 -0.247505 -4.11657 0
M  V30 5130 H 487.274 -0.279245 -0.602427 0
M  V30 5131 H 489.804 -1.3857 -1.5053 0
M  V30 5132 H 489.814 -1.08454 -3.93322 0
M  V30 5133 H 488.489 -2.17049 -3.54771 0
M  V30 5134 H 487.066 -0.34649 -3.71287 0
M  V30 5135 O 489.29 1.30511 -0.951271 0
M  V30 5136 H 489.981 1.84711 -0.583235 0
M  V30 END ATOM
M  V30 BEGIN BOND
M  V30 END BOND
M  V30 END CTAB
M  END
$$$$
