drugbank_target|Q9H0K1 Serine/threonine-protein kinase SIK2 (DB12010)
 OpenBabel12092121193D

  0  0  0     0  0            999 V3000
M  V30 BEGIN CTAB
M  V30 COUNTS 14522 14702 0 0 0
M  V30 BEGIN ATOM
M  V30 1 H -0.908 1.98254 -0.117106 0
M  V30 2 N 0 1.576 0 0
M  V30 3 C 0.933 2.03868 1.02534 0
M  V30 4 C 1.911 0.928543 1.3348 0
M  V30 5 O 3.095 1.19667 1.45644 0
M  V30 6 C 0.222 2.43627 2.35294 0
M  V30 7 C -0.732 3.65373 2.2001 0
M  V30 8 S 0.101 5.13292 1.52614 0
M  V30 9 C 1.257 5.56322 2.86805 0
M  V30 10 H 1.49 2.90518 0.631377 0
M  V30 11 H -0.977 1.52953 0.210867 0
M  V30 12 H 0.981 2.67203 3.11629 0
M  V30 13 H -0.358 1.57376 2.7183 0
M  V30 14 H -1.165 3.90944 3.18086 0
M  V30 15 H -1.563 3.418 1.51819 0
M  V30 16 H 0.729 5.58782 3.83104 0
M  V30 17 H 1.672 6.56266 2.65933 0
M  V30 18 H 2.08 4.83886 2.90714 0
M  V30 19 N 1.4781 -0.272755 1.55222 0
M  V30 20 C 2.7241 -1.00581 1.761 0
M  V30 21 C 3.0571 -1.85932 0.560625 0
M  V30 22 O 2.3321 -1.89416 -0.441801 0
M  V30 23 C 2.6151 -1.88816 3.06628 0
M  V30 24 C 2.4681 -1.06457 4.37021 0
M  V30 25 C 3.7871 -2.8752 3.33197 0
M  V30 26 H 0.9061 -0.364244 0.640699 0
M  V30 27 H 3.5481 -0.278189 1.87952 0
M  V30 28 H 1.6981 -2.50856 2.96654 0
M  V30 29 H 3.3701 -0.464863 4.58952 0
M  V30 30 H 1.6131 -0.368043 4.32236 0
M  V30 31 H 2.2841 -1.71514 5.24678 0
M  V30 32 H 4.7601 -2.35615 3.42965 0
M  V30 33 H 3.6361 -3.46399 4.25792 0
M  V30 34 H 3.8971 -3.62657 2.52849 0
M  V30 35 N 2.9562 -1.48159 -0.537278 0
M  V30 36 C 3.8892 -1.567 -1.65893 0
M  V30 37 C 4.8672 -0.41787 -1.57139 0
M  V30 38 O 6.0512 -0.628461 -1.77715 0
M  V30 39 C 3.1782 -1.48818 -3.04255 0
M  V30 40 C 2.2242 -2.68482 -3.31391 0
M  V30 41 S 3.0572 -4.30516 -3.1846 0
M  V30 42 C 4.2132 -4.2522 -4.59281 0
M  V30 43 H 4.4462 -2.5159 -1.58397 0
M  V30 44 H 1.9792 -1.36602 -0.719672 0
M  V30 45 H 3.9372 -1.44958 -3.84054 0
M  V30 46 H 2.5982 -0.552777 -3.09198 0
M  V30 47 H 1.7912 -2.59085 -4.32309 0
M  V30 48 H 1.3932 -2.69567 -2.59248 0
M  V30 49 H 3.6852 -3.94703 -5.5065 0
M  V30 50 H 4.6282 -5.26292 -4.73732 0
M  V30 51 H 5.0362 -3.55791 -4.38261 0
M  V30 52 N 4.4343 0.785586 -1.36625 0
M  V30 53 C 5.3973 1.87999 -1.31107 0
M  V30 54 C 6.3973 1.59316 -0.217959 0
M  V30 55 O 7.5873 1.67656 -0.472977 0
M  V30 56 C 4.7193 3.24861 -1.03334 0
M  V30 57 H 5.9123 1.94307 -2.2844 0
M  V30 58 H 3.4653 0.983813 -1.21453 0
M  V30 59 H 4.2003 3.24235 -0.0647432 0
M  V30 60 H 3.9853 3.4707 -1.82441 0
M  V30 61 H 5.4753 4.04929 -1.02088 0
M  V30 62 N 5.9124 1.20967 1.01018 0
M  V30 63 C 7.1894 0.93264 1.71934 0
M  V30 64 C 7.5694 -0.55692 2.03621 0
M  V30 65 O 6.9174 -1.52035 1.7058 0
M  V30 66 C 7.1274 1.81233 2.98254 0
M  V30 67 C 8.4754 2.05804 3.71389 0
M  V30 68 O 9.4994 1.78539 3.08225 0
M  V30 69 O 8.3584 2.51888 4.84989 0
M  V30 70 H 5.4524 0.349272 0.749625 0
M  V30 71 H 7.9984 1.31871 1.06808 0
M  V30 72 H 6.7704 2.82067 2.71208 0
M  V30 73 H 6.3934 1.42674 3.7112 0
M  V30 74 N 7.3905 -1.2043 1.01659 0
M  V30 75 C 8.6385 -1.89423 0.704522 0
M  V30 76 C 8.9595 -1.79231 -0.768197 0
M  V30 77 O 8.2295 -1.1947 -1.55254 0
M  V30 78 H 6.8095 -0.701178 0.257602 0
M  V30 79 H 9.4715 -1.4626 1.28818 0
M  V30 80 H 8.5675 -2.96052 0.987916 0
M  V30 81 N 8.8686 -0.792821 -1.36206 0
M  V30 82 C 10.2796 -0.429513 -1.81692 0
M  V30 83 C 10.6306 1.04695 -1.65932 0
M  V30 84 O 9.7556 1.81256 -1.18218 0
M  V30 85 C 10.3506 -0.772831 -3.29868 0
M  V30 86 C 8.9096 -0.462307 -3.7355 0
M  V30 87 C 8.0566 -1.00569 -2.5842 0
M  V30 88 H 11.0076 -0.985672 -1.24379 0
M  V30 89 H 11.0286 -0.0651928 -3.80444 0
M  V30 90 H 10.5406 -1.84747 -3.41307 0
M  V30 91 H 8.6416 0.604158 -3.67669 0
M  V30 92 H 8.7546 -0.985299 -4.68859 0
M  V30 93 H 7.1186 -0.428734 -2.51066 0
M  V30 94 H 7.9016 -2.08616 -2.72643 0
M  V30 95 N 10.3467 1.47872 -0.545128 0
M  V30 96 C 11.7627 1.5829 -0.204032 0
M  V30 97 C 11.9627 1.54529 1.29317 0
M  V30 98 O 11.0187 1.44232 2.07252 0
M  V30 99 C 12.3317 2.89304 -0.819987 0
M  V30 100 C 13.8797 3.02864 -0.790105 0
M  V30 101 C 14.3547 4.3656 -1.38491 0
M  V30 102 N 15.8457 4.43165 -1.34755 0
M  V30 103 C 16.5807 5.45153 -1.77753 0
M  V30 104 N 16.0767 6.54016 -2.2855 0
M  V30 105 N 17.8697 5.36125 -1.68897 0
M  V30 106 H 10.0207 1.4856 -1.51802 0
M  V30 107 H 12.2837 0.706305 -0.632327 0
M  V30 108 H 11.9897 2.97757 -1.87173 0
M  V30 109 H 11.8637 3.75957 -0.305915 0
M  V30 110 H 14.2507 2.94014 0.252913 0
M  V30 111 H 14.3317 2.17782 -1.34181 0
M  V30 112 H 13.9757 4.46164 -2.42693 0
M  V30 113 H 13.9057 5.20353 -0.808754 0
M  V30 114 H 16.3967 3.65083 -0.975855 0
M  V30 115 H 16.7097 7.27994 -2.59314 0
M  V30 116 H 15.0547 6.54938 -2.32553 0
M  V30 117 H 18.2457 4.49975 -1.28998 0
M  V30 118 H 18.4187 6.15472 -2.02726 0
M  V30 119 N 11.8248 0.280983 1.55075 0
M  V30 120 C 12.7748 -0.618585 2.19448 0
M  V30 121 C 13.7588 -1.11401 1.16098 0
M  V30 122 O 14.9508 -1.0581 1.41891 0
M  V30 123 C 12.0798 -1.79951 2.92357 0
M  V30 124 C 11.1658 -1.321 4.03002 0
M  V30 125 N 11.5568 -0.559044 5.02701 0
M  V30 126 C 9.8548 -1.60346 4.16179 0
M  V30 127 C 10.5558 -0.306722 5.80891 0
M  V30 128 N 9.5318 -0.880825 5.36416 0
M  V30 129 H 13.3338 -0.0286638 2.93886 0
M  V30 130 H 10.8478 0.0848104 1.62178 0
M  V30 131 H 12.8448 -2.45531 3.36927 0
M  V30 132 H 11.5048 -2.39333 2.19431 0
M  V30 133 H 12.5158 -0.205827 5.17491 0
M  V30 134 H 9.1928 -2.20621 3.54447 0
M  V30 135 H 10.5828 0.30391 6.71212 0
M  V30 136 N 13.3029 -1.57598 0.00835791 0
M  V30 137 C 14.2329 -2.1198 -0.979113 0
M  V30 138 C 15.2139 -1.03091 -1.35301 0
M  V30 139 O 16.3989 -1.30818 -1.43528 0
M  V30 140 C 13.5289 -2.62995 -2.26828 0
M  V30 141 C 12.4829 -3.76485 -2.03576 0
M  V30 142 C 11.8089 -4.13846 -3.38579 0
M  V30 143 C 13.1089 -5.0342 -1.39161 0
M  V30 144 H 14.8029 -2.94738 -0.526281 0
M  V30 145 H 12.3489 -1.41783 -0.251704 0
M  V30 146 H 14.3019 -2.99669 -2.96271 0
M  V30 147 H 13.0259 -1.7737 -2.7424 0
M  V30 148 H 11.6849 -3.40217 -1.36557 0
M  V30 149 H 11.3329 -3.25232 -3.83709 0
M  V30 150 H 11.0329 -4.90312 -3.23834 0
M  V30 151 H 12.5569 -4.53086 -4.09323 0
M  V30 152 H 13.9709 -5.37812 -1.98573 0
M  V30 153 H 12.3679 -5.84746 -1.34878 0
M  V30 154 H 13.4379 -4.83548 -0.361868 0
M  V30 155 N 14.781 0.264519 -1.55364 0
M  V30 156 C 15.713 1.34965 -1.85248 0
M  V30 157 C 16.726 1.45136 -0.737525 0
M  V30 158 O 17.915 1.46801 -1.01547 0
M  V30 159 C 15.015 2.73008 -2.00797 0
M  V30 160 C 14.188 2.85324 -3.31525 0
M  V30 161 C 13.247 4.04097 -3.37034 0
M  V30 162 O 12.273 3.94455 -4.10358 0
M  V30 163 N 13.475 5.16458 -2.65049 0
M  V30 164 H 16.24 1.09672 -2.78913 0
M  V30 165 H 13.801 0.454635 -1.55386 0
M  V30 166 H 15.793 3.50772 -2.01844 0
M  V30 167 H 14.363 2.91087 -1.1396 0
M  V30 168 H 13.583 1.94377 -3.42945 0
M  V30 169 H 14.871 2.9049 -4.17724 0
M  V30 170 H 14.269 5.27181 -2.05175 0
M  V30 171 H 12.826 5.92422 -2.71809 0
M  V30 172 N 16.2591 1.48442 0.529413 0
M  V30 173 C 17.6751 1.34575 0.858004 0
M  V30 174 C 17.8751 0.3572 1.98309 0
M  V30 175 O 16.9311 -0.221379 2.51528 0
M  V30 176 C 18.2441 2.74617 1.22499 0
M  V30 177 C 19.7921 2.83109 1.33484 0
M  V30 178 C 20.2671 4.23854 1.73526 0
M  V30 179 N 21.7581 4.2653 1.80628 0
M  V30 180 C 22.4931 5.32372 2.12997 0
M  V30 181 N 21.9891 6.48491 2.43786 0
M  V30 182 N 23.7821 5.19766 2.14008 0
M  V30 183 H 15.9331 2.1133 -0.212925 0
M  V30 184 H 18.1961 0.947439 -0.0326199 0
M  V30 185 H 17.9021 3.4852 0.471905 0
M  V30 186 H 17.7761 3.08177 2.17501 0
M  V30 187 H 20.1631 2.09462 2.0787 0
M  V30 188 H 20.2441 2.53168 0.366027 0
M  V30 189 H 19.8881 4.98018 0.997013 0
M  V30 190 H 19.8181 4.5124 2.71459 0
M  V30 191 H 22.3091 3.42772 1.59108 0
M  V30 192 H 22.6221 7.24993 2.67592 0
M  V30 193 H 20.9671 6.51765 2.41304 0
M  V30 194 H 24.1581 4.28066 1.89412 0
M  V30 195 H 24.3311 6.02354 2.38902 0
M  V30 196 N 17.7372 -0.778329 1.37039 0
M  V30 197 C 18.9852 -1.53361 1.31623 0
M  V30 198 C 19.3062 -1.94739 -0.100831 0
M  V30 199 O 18.5762 -1.65797 -1.04347 0
M  V30 200 H 17.1562 -0.568794 0.484234 0
M  V30 201 H 19.8182 -0.926742 1.71457 0
M  V30 202 H 18.9142 -2.43606 1.95096 0
M  V30 203 N 19.2153 -1.21501 -1.00376 0
M  V30 204 C 20.6263 -1.03146 -1.55621 0
M  V30 205 C 20.9773 0.408375 -1.91903 0
M  V30 206 O 20.1023 1.29177 -1.73616 0
M  V30 207 C 20.6973 -1.86612 -2.82775 0
M  V30 208 C 19.2563 -1.72586 -3.34501 0
M  V30 209 C 18.4033 -1.83747 -2.07683 0
M  V30 210 H 21.3543 -1.35505 -0.826081 0
M  V30 211 H 21.3753 -1.3771 -3.54706 0
M  V30 212 H 20.8873 -2.91399 -2.56336 0
M  V30 213 H 18.9883 -0.704877 -3.65872 0
M  V30 214 H 19.1013 -2.54623 -4.05837 0
M  V30 215 H 17.4653 -1.27069 -2.20739 0
M  V30 216 H 18.2483 -2.90044 -1.83655 0
M  V30 217 N 20.6934 1.19889 -1.02296 0
M  V30 218 C 21.9394 1.89701 -0.717033 0
M  V30 219 C 22.2724 1.7905 0.751989 0
M  V30 220 O 21.5474 1.17891 1.547 0
M  V30 221 C 21.8304 3.40858 -1.16136 0
M  V30 222 C 21.6834 3.60411 -2.69117 0
M  V30 223 C 23.0024 4.33876 -0.737549 0
M  V30 224 H 20.1214 0.688874 -0.261957 0
M  V30 225 H 22.7634 1.41154 -1.27183 0
M  V30 226 H 20.9134 3.82335 -0.689342 0
M  V30 227 H 22.5854 3.28145 -3.2422 0
M  V30 228 H 20.8284 3.03665 -3.0979 0
M  V30 229 H 21.4994 4.66396 -2.95261 0
M  V30 230 H 23.9754 4.00081 -1.14344 0
M  V30 231 H 22.8514 5.38242 -1.0764 0
M  V30 232 H 23.1124 4.40628 0.360436 0
M  V30 233 N 22.1715 0.800033 1.35784 0
M  V30 234 C 23.5875 0.482977 1.52117 0
M  V30 235 C 23.7875 -0.996948 1.75109 0
M  V30 236 O 22.8435 -1.78216 1.78872 0
M  V30 237 C 24.1565 1.32264 2.70049 0
M  V30 238 C 25.7045 1.31742 2.83924 0
M  V30 239 C 26.1795 2.14106 4.04874 0
M  V30 240 N 27.6705 2.11607 4.12039 0
M  V30 241 C 28.4055 2.72099 5.04727 0
M  V30 242 N 27.9015 3.41492 6.02789 0
M  V30 243 N 29.6945 2.61776 4.97423 0
M  V30 244 H 21.8455 1.75856 1.19115 0
M  V30 245 H 24.1085 0.748122 0.582252 0
M  V30 246 H 23.8145 2.37261 2.59616 0
M  V30 247 H 23.6885 0.971303 3.6448 0
M  V30 248 H 26.0755 0.275333 2.93813 0
M  V30 249 H 26.1565 1.70859 1.9037 0
M  V30 250 H 25.8005 3.18351 3.95746 0
M  V30 251 H 25.7305 1.72353 4.97596 0
M  V30 252 H 28.2215 1.61112 3.41835 0
M  V30 253 H 28.5345 3.84953 6.70098 0
M  V30 254 H 26.8795 3.45596 6.02983 0
M  V30 255 H 30.0705 2.07157 4.19766 0
M  V30 256 H 30.2435 3.0921 5.69468 0
M  V30 257 N 23.6496 -1.47581 0.552962 0
M  V30 258 C 24.8956 -2.02782 0.0273648 0
M  V30 259 C 25.2286 -1.42687 -1.31734 0
M  V30 260 O 24.5036 -0.580897 -1.85623 0
M  V30 261 C 24.7866 -3.60031 -0.0702371 0
M  V30 262 C 24.6396 -4.30566 1.30126 0
M  V30 263 C 25.9586 -4.33028 -0.785771 0
M  V30 264 H 23.0776 -0.736912 0.0114185 0
M  V30 265 H 25.7196 -1.76056 0.714432 0
M  V30 266 H 23.8696 -3.82932 -0.655382 0
M  V30 267 H 25.5416 -4.19018 1.92929 0
M  V30 268 H 23.7846 -3.91086 1.87709 0
M  V30 269 H 24.4556 -5.39114 1.18573 0
M  V30 270 H 26.9316 -4.15095 -0.288982 0
M  V30 271 H 25.8076 -5.42695 -0.823013 0
M  V30 272 H 26.0686 -4.01945 -1.841 0
M  V30 273 N 25.1277 -0.289203 -1.54924 0
M  V30 274 C 26.3757 0.322879 -1.99504 0
M  V30 275 C 26.6967 1.55313 -1.1791 0
M  V30 276 O 25.9667 1.94001 -0.272097 0
M  V30 277 H 24.5467 0.122291 -0.736922 0
M  V30 278 H 27.2087 -0.397802 -1.90797 0
M  V30 279 H 26.3047 0.603061 -3.06218 0
M  V30 280 N 26.6058 1.57591 -0.0167156 0
M  V30 281 C 27.8528 1.91283 0.664597 0
M  V30 282 C 28.1808 0.891949 1.72842 0
M  V30 283 O 27.4358 -0.100931 1.9544 0
M  V30 284 C 27.7348 3.3172 1.33029 0
M  V30 285 C 27.4008 4.4914 0.398047 0
M  V30 286 C 26.0628 4.80992 0.141421 0
M  V30 287 C 28.4148 5.20634 -0.242825 0
M  V30 288 C 25.7428 5.81703 -0.764092 0
M  V30 289 C 28.0948 6.22311 -1.13632 0
M  V30 290 C 26.7588 6.52611 -1.40196 0
M  V30 291 H 26.0288 0.699956 0.243193 0
M  V30 292 H 28.6758 1.9135 -0.0758267 0
M  V30 293 H 26.9808 3.27856 2.14517 0
M  V30 294 H 28.6778 3.55055 1.86379 0
M  V30 295 H 25.2678 4.24262 0.608238 0
M  V30 296 H 29.4518 4.96267 -0.0576019 0
M  V30 297 H 24.7078 6.03532 -0.977732 0
M  V30 298 H 28.8818 6.76834 -1.63917 0
M  V30 299 H 26.5088 7.30467 -2.10529 0
M  V30 300 N 28.0839 -0.256276 1.55502 0
M  V30 301 C 29.3139 -1.00196 1.80677 0
M  V30 302 C 29.7219 -1.79805 0.588797 0
M  V30 303 O 29.0649 -1.78055 -0.451883 0
M  V30 304 C 29.1269 -1.99515 2.99055 0
M  V30 305 C 28.7909 -1.38688 4.35448 0
M  V30 306 C 29.7879 -0.794079 5.138 0
M  V30 307 C 27.4729 -1.40906 4.82132 0
M  V30 308 C 29.4669 -0.231562 6.36979 0
M  V30 309 C 27.1539 -0.842684 6.05262 0
M  V30 310 C 28.1519 -0.254953 6.82524 0
M  V30 311 O 27.8399 0.3027 8.0333 0
M  V30 312 H 27.5719 -0.300919 0.60533 0
M  V30 313 H 30.1259 -0.287307 2.03381 0
M  V30 314 H 28.3559 -2.74785 2.72084 0
M  V30 315 H 30.0449 -2.60349 3.11405 0
M  V30 316 H 30.8109 -0.769519 4.78856 0
M  V30 317 H 26.6899 -1.85591 4.21992 0
M  V30 318 H 30.2339 0.227816 6.97228 0
M  V30 319 H 26.1309 -0.86454 6.39684 0
M  V30 320 H 26.8989 0.193662 8.18271 0
M  V30 321 N 29.562 -1.4872 -0.521534 0
M  V30 322 C 30.839 -1.4766 -1.2828 0
M  V30 323 C 31.219 -0.19292 -2.10217 0
M  V30 324 O 30.567 0.825193 -2.13079 0
M  V30 325 C 30.777 -2.74358 -2.15705 0
M  V30 326 C 32.125 -3.23028 -2.75569 0
M  V30 327 O 33.149 -2.75333 -2.25987 0
M  V30 328 O 32.008 -4.0604 -3.65778 0
M  V30 329 H 29.102 -0.590085 -0.579421 0
M  V30 330 H 31.648 -1.60963 -0.537492 0
M  V30 331 H 30.42 -3.59292 -1.54999 0
M  V30 332 H 30.043 -2.63816 -2.97467 0
M  V30 333 N 31.0401 0.771051 -1.3745 0
M  V30 334 C 32.2891 1.52491 -1.3202 0
M  V30 335 C 32.6021 1.9538 0.0927347 0
M  V30 336 O 33.8081 2.70159 0.269503 0
M  V30 337 C 32.2641 2.75366 -2.31736 0
M  V30 338 C 31.8721 2.39573 -3.78562 0
M  V30 339 C 33.6161 3.53307 -2.35318 0
M  V30 340 C 31.5231 3.58954 -4.70007 0
M  V30 341 H 30.4531 0.572506 -0.490666 0
M  V30 342 H 33.1041 0.844474 -1.62914 0
M  V30 343 H 31.4861 3.45303 -1.93861 0
M  V30 344 H 32.6601 1.77415 -4.25277 0
M  V30 345 H 30.9751 1.74805 -3.77932 0
M  V30 346 H 33.5721 4.42039 -3.00842 0
M  V30 347 H 33.9151 3.93217 -1.36698 0
M  V30 348 H 34.4481 2.90367 -2.71904 0
M  V30 349 H 31.1871 3.24125 -5.69757 0
M  V30 350 H 30.7071 4.20214 -4.27996 0
M  V30 351 H 32.3861 4.25758 -4.87175 0
M  V30 352 N 32.5182 1.22032 0.997298 0
M  V30 353 C 33.4282 1.00271 2.12092 0
M  V30 354 C 34.4442 -0.047621 1.73935 0
M  V30 355 O 35.6202 0.144136 2.00884 0
M  V30 356 C 32.6852 0.578449 3.4184 0
M  V30 357 C 31.7462 1.70189 3.94125 0
M  V30 358 C 30.9792 1.29778 5.17681 0
M  V30 359 O 31.2022 0.174676 5.70132 0
M  V30 360 O 30.1362 2.11261 5.63607 0
M  V30 361 H 33.9622 1.94398 2.3333 0
M  V30 362 H 31.5472 1.00587 1.10465 0
M  V30 363 H 33.4292 0.351998 4.19927 0
M  V30 364 H 32.1042 -0.334019 3.21972 0
M  V30 365 H 31.0112 1.98282 3.1723 0
M  V30 366 H 32.3442 2.59206 4.18417 0
M  V30 367 N 33.9963 -1.19345 1.0293 0
M  V30 368 C 35.2443 -1.88665 0.724574 0
M  V30 369 C 35.5653 -1.80036 -0.749144 0
M  V30 370 O 34.8353 -1.2111 -1.53978 0
M  V30 371 H 33.4153 -0.698406 0.265025 0
M  V30 372 H 36.0773 -1.44885 1.30362 0
M  V30 373 H 35.1733 -2.94987 1.01926 0
M  V30 374 N 35.4744 -0.807222 -1.35358 0
M  V30 375 C 36.7024 -0.400377 -2.02989 0
M  V30 376 C 37.1174 0.988859 -1.60832 0
M  V30 377 O 36.4744 1.63729 -0.806175 0
M  V30 378 C 36.5254 -0.474867 -3.58368 0
M  V30 379 O 36.2464 -1.80933 -3.98992 0
M  V30 380 C 37.7474 -0.0609112 -4.43258 0
M  V30 381 H 34.9674 -0.162587 -0.651004 0
M  V30 382 H 37.5114 -1.09102 -1.72965 0
M  V30 383 H 35.6664 0.167534 -3.87038 0
M  V30 384 H 36.0804 -1.77256 -4.9364 0
M  V30 385 H 37.5544 -0.164145 -5.51756 0
M  V30 386 H 38.0314 0.993831 -4.27808 0
M  V30 387 H 38.6374 -0.676492 -4.19885 0
M  V30 388 N 36.9525 1.47285 -0.560781 0
M  V30 389 C 37.8825 2.32857 0.173105 0
M  V30 390 C 38.8635 1.44009 0.905281 0
M  V30 391 O 40.0485 1.7286 0.885046 0
M  V30 392 C 37.1785 3.25861 1.20133 0
M  V30 393 C 36.1325 4.23978 0.585388 0
M  V30 394 C 35.4585 5.06332 1.7185 0
M  V30 395 C 36.7585 5.20242 -0.463178 0
M  V30 396 H 38.4525 2.94466 -0.541307 0
M  V30 397 H 35.9985 1.41601 -0.261764 0
M  V30 398 H 37.9515 3.84569 1.72293 0
M  V30 399 H 36.6755 2.62315 1.94573 0
M  V30 400 H 35.3345 3.66501 0.085054 0
M  V30 401 H 34.9825 4.39186 2.45203 0
M  V30 402 H 34.6825 5.72762 1.31213 0
M  V30 403 H 36.2065 5.67899 2.24329 0
M  V30 404 H 37.6205 5.73293 -0.027502 0
M  V30 405 H 36.0175 5.94896 -0.788627 0
M  V30 406 H 37.0875 4.65504 -1.35773 0
M  V30 407 N 38.4306 0.297415 1.54768 0
M  V30 408 C 39.6786 -0.312295 1.99673 0
M  V30 409 C 39.9996 -1.54686 1.18732 0
M  V30 410 O 39.2696 -1.93854 0.282382 0
M  V30 411 H 37.8496 -0.118381 0.73756 0
M  V30 412 H 40.5116 0.407915 1.90583 0
M  V30 413 H 39.6076 -0.586813 3.06534 0
M  V30 414 N 39.9087 -1.5758 0.0250728 0
M  V30 415 C 40.8557 -2.09973 -0.958129 0
M  V30 416 C 41.8257 -1.00085 -1.3256 0
M  V30 417 O 43.0107 -1.27481 -1.41962 0
M  V30 418 C 40.1507 -2.62812 -2.2366 0
M  V30 419 C 39.2637 -3.86693 -1.92594 0
M  V30 420 C 38.3987 -4.27941 -3.14707 0
M  V30 421 C 37.4377 -5.44591 -2.79442 0
M  V30 422 N 36.5747 -5.81014 -3.94167 0
M  V30 423 H 41.4147 -2.937 -0.504428 0
M  V30 424 H 38.9517 -1.45172 -0.237392 0
M  V30 425 H 40.9097 -2.91536 -2.98434 0
M  V30 426 H 39.5397 -1.81922 -2.66654 0
M  V30 427 H 38.5917 -3.64723 -1.0808 0
M  V30 428 H 39.9037 -4.71547 -1.62619 0
M  V30 429 H 39.0577 -4.58079 -3.97804 0
M  V30 430 H 37.7967 -3.41845 -3.4784 0
M  V30 431 H 36.8017 -5.1415 -1.94755 0
M  V30 432 H 38.0267 -6.32382 -2.47528 0
M  V30 433 H 35.9727 -4.97874 -4.2715 0
M  V30 434 H 35.8897 -6.60498 -3.67801 0
M  V30 435 H 37.1577 -6.15756 -4.7798 0
M  V30 436 N 41.3868 0.248026 -1.55636 0
M  V30 437 C 42.6348 0.974295 -1.77065 0
M  V30 438 C 42.9558 1.85897 -0.588849 0
M  V30 439 O 42.2258 1.91868 0.395407 0
M  V30 440 H 40.8058 0.362733 -0.653019 0
M  V30 441 H 43.4678 0.266244 -1.93073 0
M  V30 442 H 42.5638 1.59667 -2.68166 0
M  V30 443 N 42.8649 1.48995 0.513639 0
M  V30 444 C 43.8129 1.65199 1.63744 0
M  V30 445 C 44.8069 0.51809 1.61283 0
M  V30 446 O 46.0129 0.697335 1.65943 0
M  V30 447 H 42.3879 0.52069 0.542574 0
M  V30 448 H 44.3589 2.59552 1.47226 0
M  V30 449 C 43.1079 1.72409 3.01945 0
M  V30 450 H 42.4309 2.59029 3.04539 0
M  V30 451 H 43.8709 1.87785 3.80148 0
M  V30 452 C 42.3299 0.46618 3.33659 0
M  V30 453 O 42.8599 -0.413744 3.99564 0
M  V30 454 N 41.0659 0.332931 2.88687 0
M  V30 455 H 40.6129 1.04996 2.35231 0
M  V30 456 H 40.5709 -0.507665 3.10274 0
M  V30 457 N 44.343 -0.763751 1.37857 0
M  V30 458 C 45.59 -1.52257 1.33506 0
M  V30 459 C 45.918 -1.94343 -0.078022 0
M  V30 460 O 45.173 -1.64958 -1.05297 0
M  V30 461 C 45.472 -2.79499 2.22745 0
M  V30 462 C 45.138 -2.56426 3.70886 0
M  V30 463 C 43.8 -2.49842 4.11257 0
M  V30 464 C 46.152 -2.36008 4.64704 0
M  V30 465 C 43.48 -2.20841 5.43549 0
M  V30 466 C 45.832 -2.0853 5.97242 0
M  V30 467 C 44.496 -2.00396 6.36709 0
M  V30 468 H 43.766 -0.557149 0.488534 0
M  V30 469 H 46.413 -0.879073 1.70131 0
M  V30 470 H 44.718 -3.48447 1.79142 0
M  V30 471 H 46.415 -3.37413 2.16688 0
M  V30 472 H 43.005 -2.62416 3.38874 0
M  V30 473 H 47.189 -2.40079 4.34368 0
M  V30 474 H 42.445 -2.13045 5.73081 0
M  V30 475 H 46.619 -1.91732 6.69486 0
M  V30 476 H 44.246 -1.77688 7.39142 0
M  V30 477 N 45.8211 -1.22559 -0.990812 0
M  V30 478 C 46.7841 -0.998863 -2.0629 0
M  V30 479 C 47.7841 0.0354834 -1.60761 0
M  V30 480 O 48.9741 -0.203231 -1.7301 0
M  V30 481 C 46.1061 -0.509203 -3.37076 0
M  V30 482 H 47.2991 -1.95014 -2.27837 0
M  V30 483 H 44.8521 -1.04456 -1.16269 0
M  V30 484 H 45.5871 0.446335 -3.21214 0
M  V30 485 H 45.3721 -1.25547 -3.71457 0
M  V30 486 H 46.8621 -0.370888 -4.1595 0
M  V30 487 N 47.2992 1.18797 -1.03562 0
M  V30 488 C 48.5452 1.8893 -0.737113 0
M  V30 489 C 48.8782 1.79837 0.732956 0
M  V30 490 O 48.1532 1.19525 1.5344 0
M  V30 491 C 48.4362 3.39607 -1.19745 0
M  V30 492 C 48.2892 3.57537 -2.72924 0
M  V30 493 C 49.6082 4.33069 -0.783526 0
M  V30 494 H 46.7272 0.686057 -0.269249 0
M  V30 495 H 49.3692 1.39797 -1.28673 0
M  V30 496 H 47.5192 3.81583 -0.729855 0
M  V30 497 H 49.1912 3.24688 -3.27682 0
M  V30 498 H 47.4342 3.00363 -3.12993 0
M  V30 499 H 48.1052 4.63238 -3.00191 0
M  V30 500 H 50.5812 3.98846 -1.18581 0
M  V30 501 H 49.4572 5.3707 -1.13343 0
M  V30 502 H 49.7182 4.40986 0.313681 0
M  V30 503 N 48.7773 0.814389 1.34928 0
M  V30 504 C 50.0233 0.399013 1.98836 0
M  V30 505 C 50.3563 -1.03314 1.64438 0
M  V30 506 O 49.6313 -1.71811 0.911659 0
M  V30 507 C 49.9143 0.591629 3.55207 0
M  V30 508 C 49.7673 2.06928 3.99376 0
M  V30 509 C 51.0863 0.022199 4.40094 0
M  V30 510 H 48.2053 0.146451 0.722303 0
M  V30 511 H 50.8473 1.02537 1.59957 0
M  V30 512 H 48.9973 0.0584441 3.88456 0
M  V30 513 H 50.6693 2.66544 3.76499 0
M  V30 514 H 48.9123 2.56287 3.49999 0
M  V30 515 H 49.5833 2.1549 5.08201 0
M  V30 516 H 52.0593 0.477643 4.13349 0
M  V30 517 H 50.9353 0.186832 5.48582 0
M  V30 518 H 51.1963 -1.07215 4.28902 0
M  V30 519 N 50.2554 -1.46986 0.568584 0
M  V30 520 C 51.2024 -2.30153 -0.172707 0
M  V30 521 C 52.1724 -1.39759 -0.897586 0
M  V30 522 O 53.3574 -1.68716 -0.891044 0
M  V30 523 C 50.4974 -3.23952 -1.1895 0
M  V30 524 C 49.6104 -4.29441 -0.469517 0
M  V30 525 C 48.7454 -5.1038 -1.47259 0
M  V30 526 C 47.7844 -6.07632 -0.738225 0
M  V30 527 N 46.9214 -6.8149 -1.68868 0
M  V30 528 H 51.7614 -2.93019 0.542596 0
M  V30 529 H 49.2984 -1.44422 0.279401 0
M  V30 530 H 51.2564 -3.76767 -1.79173 0
M  V30 531 H 49.8864 -2.62926 -1.87269 0
M  V30 532 H 48.9384 -3.79594 0.247467 0
M  V30 533 H 50.2504 -4.98689 0.105241 0
M  V30 534 H 49.4044 -5.67402 -2.14803 0
M  V30 535 H 48.1434 -4.4106 -2.08128 0
M  V30 536 H 47.1484 -5.49778 -0.0489293 0
M  V30 537 H 48.3734 -6.78966 -0.135129 0
M  V30 538 H 46.3194 -6.14891 -2.28573 0
M  V30 539 H 46.2364 -7.46948 -1.16636 0
M  V30 540 H 47.5044 -7.43078 -2.3549 0
M  V30 541 N 51.7335 -0.305618 -1.54608 0
M  V30 542 C 52.6635 0.561482 -2.26649 0
M  V30 543 C 53.6445 1.13415 -1.26772 0
M  V30 544 O 54.8295 1.16262 -1.55553 0
M  V30 545 C 51.9595 1.73122 -3.01075 0
M  V30 546 C 50.9135 1.2887 -4.08138 0
M  V30 547 C 50.2395 2.54396 -4.70305 0
M  V30 548 C 51.5395 0.416578 -5.20636 0
M  V30 549 H 53.2335 -0.0393902 -2.99374 0
M  V30 550 H 50.7795 -0.020385 -1.43986 0
M  V30 551 H 52.7325 2.34396 -3.50195 0
M  V30 552 H 51.4565 2.3584 -2.25936 0
M  V30 553 H 50.1155 0.698991 -3.59875 0
M  V30 554 H 49.7635 3.15439 -3.918 0
M  V30 555 H 49.4635 2.25486 -5.42614 0
M  V30 556 H 50.9875 3.16464 -5.2219 0
M  V30 557 H 52.4015 0.935116 -5.65622 0
M  V30 558 H 50.7985 0.221046 -5.99693 0
M  V30 559 H 51.8685 -0.557162 -4.81688 0
M  V30 560 N 53.2116 1.57565 -0.0334293 0
M  V30 561 C 54.4596 1.91598 0.642999 0
M  V30 562 C 54.7806 0.910847 1.7242 0
M  V30 563 O 54.0506 -0.0469931 1.95844 0
M  V30 564 H 52.6306 0.707228 0.240496 0
M  V30 565 H 55.2926 1.94726 -0.0822488 0
M  V30 566 H 54.3886 2.92336 1.09298 0
M  V30 567 N 54.6897 -0.239769 1.55765 0
M  V30 568 C 56.1057 -0.588624 1.48349 0
M  V30 569 C 56.3057 -1.88005 0.72502 0
M  V30 570 O 55.3617 -2.51186 0.257269 0
M  V30 571 C 56.6747 -0.68474 2.928 0
M  V30 572 C 58.2227 -0.77659 3.03213 0
M  V30 573 C 58.6977 -0.904207 4.48986 0
M  V30 574 N 60.1887 -0.968896 4.52953 0
M  V30 575 C 60.9237 -1.08703 5.63002 0
M  V30 576 N 60.4197 -1.17026 6.82845 0
M  V30 577 N 62.2127 -1.12074 5.50814 0
M  V30 578 H 54.3637 0.607911 2.03515 0
M  V30 579 H 56.6267 0.21083 0.924259 0
M  V30 580 H 56.3327 0.194284 3.51163 0
M  V30 581 H 56.2067 -1.55435 3.43686 0
M  V30 582 H 58.5937 -1.64606 2.44926 0
M  V30 583 H 58.6747 0.118315 2.55526 0
M  V30 584 H 58.3187 -0.0392633 5.07885 0
M  V30 585 H 58.2487 -1.81426 4.9436 0
M  V30 586 H 60.7397 -0.915633 3.6664 0
M  V30 587 H 61.0527 -1.25966 7.62465 0
M  V30 588 H 59.3977 -1.13971 6.85591 0
M  V30 589 H 62.5887 -1.05226 4.5612 0
M  V30 590 H 62.7617 -1.20936 6.36615 0
M  V30 591 N 56.1678 -1.49265 -0.50573 0
M  V30 592 C 57.1178 -1.6198 -1.60457 0
M  V30 593 C 58.1018 -0.47568 -1.53708 0
M  V30 594 O 59.2938 -0.728392 -1.61318 0
M  V30 595 C 56.4228 -1.68526 -2.99089 0
M  V30 596 C 55.5088 -2.885 -3.10852 0
M  V30 597 N 55.8998 -4.12635 -2.92517 0
M  V30 598 C 54.1978 -2.86338 -3.41945 0
M  V30 599 C 54.8988 -4.93258 -3.08337 0
M  V30 600 N 53.8748 -4.26533 -3.37003 0
M  V30 601 H 57.6768 -2.55681 -1.44928 0
M  V30 602 H 55.1908 -1.45972 -0.711752 0
M  V30 603 H 57.1878 -1.75732 -3.78053 0
M  V30 604 H 55.8478 -0.759584 -3.1569 0
M  V30 605 H 56.8588 -4.42689 -2.68787 0
M  V30 606 H 53.5358 -2.03129 -3.64753 0
M  V30 607 H 54.9258 -6.01856 -2.98695 0
M  V30 608 N 57.6459 0.756429 -1.3826 0
M  V30 609 C 59.0619 1.0591 -1.19395 0
M  V30 610 C 59.2619 2.01459 -0.0406567 0
M  V30 611 O 58.3179 2.44909 0.614467 0
M  V30 612 C 59.6309 1.64191 -2.51916 0
M  V30 613 C 61.1789 1.76376 -2.58574 0
M  V30 614 C 61.6539 2.38069 -3.91264 0
M  V30 615 N 63.1449 2.45503 -3.92788 0
M  V30 616 C 63.8799 2.94126 -4.92217 0
M  V30 617 N 63.3759 3.42805 -6.02043 0
M  V30 618 N 65.1689 2.9314 -4.7961 0
M  V30 619 H 57.3199 0.122313 -2.12048 0
M  V30 620 H 59.5829 0.116892 -0.940766 0
M  V30 621 H 59.2889 1.01451 -3.3675 0
M  V30 622 H 59.1629 2.6329 -2.70108 0
M  V30 623 H 61.5499 2.38244 -1.74137 0
M  V30 624 H 61.6309 0.759894 -2.44252 0
M  V30 625 H 61.2749 1.76835 -4.76121 0
M  V30 626 H 61.2049 3.39091 -4.02895 0
M  V30 627 H 63.6959 2.1107 -3.13461 0
M  V30 628 H 64.0089 3.78354 -6.73846 0
M  V30 629 H 62.3539 3.4087 -6.05667 0
M  V30 630 H 65.5449 2.54419 -3.92923 0
M  V30 631 H 65.7179 3.30721 -5.5725 0
M  V30 632 N 59.124 1.23083 0.984299 0
M  V30 633 C 60.373 1.05466 1.71929 0
M  V30 634 C 60.686 -0.409211 1.91272 0
M  V30 635 O 61.892 -0.705226 2.62181 0
M  V30 636 C 60.348 1.83874 3.09384 0
M  V30 637 C 59.956 3.34566 2.97943 0
M  V30 638 C 61.7 1.74734 3.8687 0
M  V30 639 C 59.607 4.05381 4.30605 0
M  V30 640 H 58.537 0.391039 0.644674 0
M  V30 641 H 61.188 1.47013 1.09815 0
M  V30 642 H 59.57 1.35131 3.72231 0
M  V30 643 H 60.744 3.90767 2.44209 0
M  V30 644 H 59.059 3.44476 2.33934 0
M  V30 645 H 61.656 2.24957 4.85076 0
M  V30 646 H 61.999 0.709372 4.10212 0
M  V30 647 H 62.532 2.21067 3.30717 0
M  V30 648 H 59.271 5.09467 4.1246 0
M  V30 649 H 58.791 3.53967 4.84218 0
M  V30 650 H 60.47 4.11458 4.99311 0
M  V30 651 N 60.6021 -1.18246 1.0419 0
M  V30 652 C 61.8301 -1.92195 0.766072 0
M  V30 653 C 62.2451 -1.76247 -0.676933 0
M  V30 654 O 61.6021 -1.09293 -1.46155 0
M  V30 655 C 61.6531 -3.43568 1.12442 0
M  V30 656 O 61.3741 -3.59015 2.51078 0
M  V30 657 C 62.8751 -4.34613 0.873275 0
M  V30 658 H 60.0951 -0.610114 0.279288 0
M  V30 659 H 62.6391 -1.50007 1.38989 0
M  V30 660 H 60.7941 -3.8354 0.545542 0
M  V30 661 H 61.2081 -4.5273 2.64831 0
M  V30 662 H 62.6821 -5.39374 1.17385 0
M  V30 663 H 63.1591 -4.38781 -0.191909 0
M  V30 664 H 63.7651 -4.00341 1.43551 0
M  V30 665 N 62.0802 -0.821533 -1.34494 0
M  V30 666 C 63.0272 -0.240397 -2.29545 0
M  V30 667 C 63.9972 0.634031 -1.53523 0
M  V30 668 O 65.1822 0.575966 -1.81899 0
M  V30 669 C 62.3222 0.592869 -3.39969 0
M  V30 670 C 61.4352 -0.30365 -4.30932 0
M  V30 671 C 60.5702 0.539049 -5.28458 0
M  V30 672 C 59.6092 -0.356942 -6.11058 0
M  V30 673 N 58.7462 0.446603 -7.00678 0
M  V30 674 H 63.5862 -1.05632 -2.7865 0
M  V30 675 H 61.1232 -0.532413 -1.37127 0
M  V30 676 H 63.0812 1.09129 -4.02675 0
M  V30 677 H 61.7112 1.37392 -2.92102 0
M  V30 678 H 60.7632 -0.920276 -3.691 0
M  V30 679 H 62.0752 -0.992661 -4.88823 0
M  V30 680 H 61.2292 1.102 -5.96608 0
M  V30 681 H 59.9682 1.26157 -4.71101 0
M  V30 682 H 58.9732 -0.932047 -5.41842 0
M  V30 683 H 60.1982 -1.07755 -6.70497 0
M  V30 684 H 58.1442 1.15282 -6.45791 0
M  V30 685 H 58.0612 -0.184048 -7.55776 0
M  V30 686 H 59.3292 0.992352 -7.73158 0
M  V30 687 N 63.5583 1.46682 -0.576371 0
M  V30 688 C 64.7863 2.06798 -0.0649635 0
M  V30 689 C 65.2013 1.42612 1.23723 0
M  V30 690 O 64.5583 0.529203 1.74659 0
M  V30 691 C 64.6093 3.6132 0.114202 0
M  V30 692 O 64.3303 4.23104 -1.13644 0
M  V30 693 C 65.8313 4.38349 0.66069 0
M  V30 694 H 63.0513 0.668778 -0.0545616 0
M  V30 695 H 65.5953 1.88404 -0.795237 0
M  V30 696 H 63.7503 3.79162 0.794673 0
M  V30 697 H 64.1643 5.15894 -0.946253 0
M  V30 698 H 65.6383 5.47081 0.73526 0
M  V30 699 H 66.1153 4.05953 1.67627 0
M  V30 700 H 66.7213 4.25297 0.0152951 0
M  V30 701 N 65.0364 0.313813 1.54444 0
M  V30 702 C 65.9464 -0.565714 2.27677 0
M  V30 703 C 66.9624 -1.13754 1.31666 0
M  V30 704 O 68.1384 -1.15959 1.64668 0
M  V30 705 C 65.2034 -1.71528 3.01296 0
M  V30 706 C 64.2644 -1.17624 4.12872 0
M  V30 707 C 63.4974 -2.27102 4.8297 0
M  V30 708 O 63.7204 -3.47256 4.52514 0
M  V30 709 O 62.6544 -1.9307 5.70094 0
M  V30 710 H 66.4804 0.0287296 3.03686 0
M  V30 711 H 64.0654 0.0798312 1.49187 0
M  V30 712 H 65.9474 -2.38476 3.4743 0
M  V30 713 H 64.6224 -2.29608 2.2817 0
M  V30 714 H 63.5294 -0.472124 3.71109 0
M  V30 715 H 64.8624 -0.640695 4.88012 0
M  V30 716 N 66.5145 -1.57545 0.0417849 0
M  V30 717 C 67.7605 -1.92601 -0.635021 0
M  V30 718 C 68.0935 -0.919627 -1.71045 0
M  V30 719 O 67.3685 0.0557892 -1.9442 0
M  V30 720 C 67.6515 -3.38085 -1.23979 0
M  V30 721 C 67.5045 -4.49467 -0.173057 0
M  V30 722 C 68.8235 -3.83776 -2.15416 0
M  V30 723 H 65.9425 -0.700397 -0.229374 0
M  V30 724 H 68.5845 -1.89728 0.101633 0
M  V30 725 H 66.7345 -3.40664 -1.86762 0
M  V30 726 H 68.4065 -4.59018 0.458312 0
M  V30 727 H 66.6495 -4.30909 0.499996 0
M  V30 728 H 67.3205 -5.48323 -0.636054 0
M  V30 729 H 69.7965 -3.83013 -1.62605 0
M  V30 730 H 68.6725 -4.8624 -2.54679 0
M  V30 731 H 68.9335 -3.19998 -3.05047 0
M  V30 732 N 67.9926 0.231505 -1.5589 0
M  V30 733 C 68.9556 1.27028 -1.90779 0
M  V30 734 C 69.9556 1.40308 -0.785507 0
M  V30 735 O 71.1456 1.38744 -1.05336 0
M  V30 736 C 68.2776 2.64566 -2.14983 0
M  V30 737 H 69.4706 0.973017 -2.83677 0
M  V30 738 H 67.0236 0.471486 -1.49019 0
M  V30 739 H 67.7586 2.99406 -1.24604 0
M  V30 740 H 67.5436 2.56305 -2.96732 0
M  V30 741 H 69.0336 3.39543 -2.43105 0
M  V30 742 N 69.4707 1.49531 0.497807 0
M  V30 743 C 70.7197 1.58426 1.24837 0
M  V30 744 C 71.0327 0.277643 1.93619 0
M  V30 745 O 72.2387 0.24517 2.70391 0
M  V30 746 C 70.6947 2.79538 2.26686 0
M  V30 747 C 70.3027 4.16971 1.63828 0
M  V30 748 C 72.0467 2.97764 3.0255 0
M  V30 749 C 69.9537 5.29301 2.63807 0
M  V30 750 H 68.8837 0.58989 0.469623 0
M  V30 751 H 71.5347 1.75923 0.521857 0
M  V30 752 H 69.9167 2.55542 3.02514 0
M  V30 753 H 71.0907 4.51116 0.939711 0
M  V30 754 H 69.4057 4.04129 1.00342 0
M  V30 755 H 72.0027 3.78856 3.77323 0
M  V30 756 H 72.3457 2.08448 3.60354 0
M  V30 757 H 72.8787 3.21815 2.33838 0
M  V30 758 H 69.6177 6.20687 2.10779 0
M  V30 759 H 69.1377 4.99606 3.31894 0
M  V30 760 H 70.8167 5.58768 3.2617 0
M  V30 761 N 70.9488 -0.749086 1.3866 0
M  V30 762 C 71.8958 -1.86291 1.36251 0
M  V30 763 C 72.8658 -1.64578 0.224347 0
M  V30 764 O 74.0508 -1.86181 0.417279 0
M  V30 765 C 71.1908 -3.23644 1.19786 0
M  V30 766 C 70.3038 -3.57158 2.43027 0
M  V30 767 C 69.4388 -4.83838 2.19258 0
M  V30 768 C 68.4778 -5.10152 3.38247 0
M  V30 769 N 67.6148 -6.28029 3.13884 0
M  V30 770 H 72.4548 -1.87685 2.3147 0
M  V30 771 H 69.9918 -0.917287 1.14997 0
M  V30 772 H 71.9498 -4.0291 1.08254 0
M  V30 773 H 70.5798 -3.21566 0.282031 0
M  V30 774 H 69.6318 -2.72701 2.65214 0
M  V30 775 H 70.9438 -3.7253 3.31697 0
M  V30 776 H 70.0978 -5.71057 2.04888 0
M  V30 777 H 68.8368 -4.70614 1.2796 0
M  V30 778 H 67.8418 -4.21401 3.53131 0
M  V30 779 H 69.0668 -5.25271 4.30427 0
M  V30 780 H 67.0128 -6.1612 2.25238 0
M  V30 781 H 66.9298 -6.43922 3.96106 0
M  V30 782 H 68.1978 -7.18124 3.03179 0
M  V30 783 N 72.4269 -1.23603 -0.977757 0
M  V30 784 C 73.6759 -1.06377 -1.71368 0
M  V30 785 C 73.9889 0.399062 -1.91486 0
M  V30 786 O 75.1949 0.691312 -2.62551 0
M  V30 787 C 73.6509 -1.85512 -3.08404 0
M  V30 788 C 73.2589 -3.36141 -2.96164 0
M  V30 789 C 75.0029 -1.76783 -3.85938 0
M  V30 790 C 72.9099 -4.07659 -4.28449 0
M  V30 791 H 71.8399 -0.394452 -0.642591 0
M  V30 792 H 74.4909 -1.47594 -1.09034 0
M  V30 793 H 72.8729 -1.37103 -3.71509 0
M  V30 794 H 74.0469 -3.92056 -2.42133 0
M  V30 795 H 72.3619 -3.45712 -2.32104 0
M  V30 796 H 74.9589 -2.27526 -4.83876 0
M  V30 797 H 75.3019 -0.731116 -4.0983 0
M  V30 798 H 75.8349 -2.22818 -3.2954 0
M  V30 799 H 72.5739 -5.11648 -4.09752 0
M  V30 800 H 72.0939 -3.5653 -4.82334 0
M  V30 801 H 73.7729 -4.141 -4.97122 0
M  V30 802 N 73.905 1.17692 -1.04816 0
M  V30 803 C 75.154 1.87192 -0.751132 0
M  V30 804 C 75.467 1.8169 0.724441 0
M  V30 805 O 76.673 2.46625 1.13527 0
M  V30 806 C 75.129 3.35857 -1.29338 0
M  V30 807 C 74.737 3.4987 -2.79812 0
M  V30 808 C 76.481 4.10709 -1.07322 0
M  V30 809 C 74.388 4.92536 -3.27356 0
M  V30 810 H 73.318 0.701162 -0.277288 0
M  V30 811 H 75.969 1.32932 -1.26496 0
M  V30 812 H 74.351 3.89631 -0.707376 0
M  V30 813 H 75.525 3.06332 -3.44235 0
M  V30 814 H 73.84 2.88433 -3.00325 0
M  V30 815 H 76.437 5.15952 -1.4035 0
M  V30 816 H 76.78 4.16299 -0.0108001 0
M  V30 817 H 77.313 3.6313 -1.62423 0
M  V30 818 H 74.052 4.92119 -4.33012 0
M  V30 819 H 73.572 5.3676 -2.67673 0
M  V30 820 H 75.251 5.61288 -3.21815 0
M  V30 821 N 75.3831 0.828654 1.34056 0
M  V30 822 C 76.6601 0.341809 1.9259 0
M  V30 823 C 77.0401 -1.17158 1.75605 0
M  V30 824 O 76.3881 -1.98132 1.13824 0
M  V30 825 C 76.5981 0.777453 3.4023 0
M  V30 826 C 77.9461 0.779579 4.17382 0
M  V30 827 O 78.9701 0.7204 3.48839 0
M  V30 828 O 77.8291 0.857996 5.39723 0
M  V30 829 H 74.9231 0.0946085 0.821571 0
M  V30 830 H 77.4691 0.913827 1.42994 0
M  V30 831 H 76.2411 1.8196 3.46419 0
M  V30 832 H 75.8641 0.181444 3.97186 0
M  V30 833 N 76.8612 -1.46375 0.584142 0
M  V30 834 C 77.8082 -2.30323 -0.148286 0
M  V30 835 C 78.7782 -1.40703 -0.882713 0
M  V30 836 O 79.9632 -1.69651 -0.873099 0
M  V30 837 C 77.1032 -3.25196 -1.15507 0
M  V30 838 C 76.2162 -4.29915 -0.423943 0
M  V30 839 C 75.3512 -5.11914 -1.41838 0
M  V30 840 C 74.3902 -6.08381 -0.673736 0
M  V30 841 N 73.5272 -6.83242 -1.6163 0
M  V30 842 H 78.3672 -2.92427 0.573644 0
M  V30 843 H 75.9042 -1.44118 0.294703 0
M  V30 844 H 77.8622 -3.78646 -1.75166 0
M  V30 845 H 76.4922 -2.64898 -1.8447 0
M  V30 846 H 75.5442 -3.7931 0.287714 0
M  V30 847 H 76.8562 -4.98549 0.158128 0
M  V30 848 H 76.0102 -5.69648 -2.08773 0
M  V30 849 H 74.7492 -4.43243 -2.03438 0
M  V30 850 H 73.7542 -5.49799 0.00938483 0
M  V30 851 H 74.9792 -6.79071 -0.0631082 0
M  V30 852 H 72.9252 -6.1728 -2.22038 0
M  V30 853 H 72.8422 -7.48144 -1.08707 0
M  V30 854 H 74.1102 -7.45534 -2.27596 0
M  V30 855 N 78.3393 -0.321999 -1.54275 0
M  V30 856 C 79.5643 0.285791 -2.05422 0
M  V30 857 C 79.9893 1.45124 -1.19669 0
M  V30 858 O 79.3473 1.80132 -0.205441 0
M  V30 859 C 79.3953 0.69956 -3.53749 0
M  V30 860 O 78.4993 1.8021 -3.70942 0
M  V30 861 H 77.8403 0.0518962 -0.661969 0
M  V30 862 H 80.3703 -0.469954 -1.9913 0
M  V30 863 H 80.3803 0.982649 -3.9599 0
M  V30 864 H 79.0553 -0.152864 -4.15619 0
M  V30 865 H 77.6323 1.51794 -3.40607 0
M  V30 866 N 79.8174 1.5752 -0.0501392 0
M  V30 867 C 80.7494 2.08413 0.95376 0
M  V30 868 C 81.7624 1.01175 1.27544 0
M  V30 869 O 82.9514 1.28744 1.23641 0
M  V30 870 C 80.0514 2.51138 2.27559 0
M  V30 871 C 79.2244 3.817 2.13598 0
M  V30 872 C 78.2834 4.10749 3.28895 0
M  V30 873 O 77.3094 4.80685 3.04845 0
M  V30 874 N 78.5114 3.62579 4.5334 0
M  V30 875 H 81.2764 2.95165 0.519383 0
M  V30 876 H 78.8374 1.61327 0.136127 0
M  V30 877 H 80.8294 2.67648 3.03557 0
M  V30 878 H 79.3994 1.6964 2.62567 0
M  V30 879 H 78.6194 3.74782 1.22197 0
M  V30 880 H 79.9074 4.67201 2.01496 0
M  V30 881 H 79.3054 3.06039 4.75769 0
M  V30 882 H 77.8624 3.84329 5.26436 0
M  V30 883 N 81.2955 -0.223234 1.56011 0
M  V30 884 C 82.2255 -1.27988 1.95298 0
M  V30 885 C 83.2065 -1.48976 0.820979 0
M  V30 886 O 84.3915 -1.61188 1.08315 0
M  V30 887 C 81.5215 -2.63 2.26822 0
M  V30 888 C 80.4755 -2.56671 3.42497 0
M  V30 889 C 79.8015 -3.95697 3.59622 0
M  V30 890 C 81.1015 -2.11601 4.77517 0
M  V30 891 H 82.7955 -0.953525 2.8381 0
M  V30 892 H 80.3415 -0.457244 1.36548 0
M  V30 893 H 82.2945 -3.37077 2.52898 0
M  V30 894 H 81.0185 -2.9732 1.35161 0
M  V30 895 H 79.6775 -1.85051 3.16467 0
M  V30 896 H 79.3255 -4.27322 2.6534 0
M  V30 897 H 79.0255 -3.92345 4.37424 0
M  V30 898 H 80.5495 -4.71438 3.88044 0
M  V30 899 H 81.9635 -2.7542 5.02809 0
M  V30 900 H 80.3605 -2.19311 5.5859 0
M  V30 901 H 81.4305 -1.06824 4.72987 0
M  V30 902 N 82.7736 -1.49793 -0.48987 0
M  V30 903 C 84.0506 -1.50348 -1.25119 0
M  V30 904 C 84.4306 -0.237466 -2.0976 0
M  V30 905 O 83.7786 0.77981 -2.14782 0
M  V30 906 C 83.9886 -2.78872 -2.09837 0
M  V30 907 C 85.3366 -3.288 -2.68655 0
M  V30 908 O 86.3606 -2.80065 -2.20096 0
M  V30 909 O 85.2196 -4.13707 -3.57083 0
M  V30 910 H 82.3136 -0.602242 -0.566775 0
M  V30 911 H 84.8596 -1.62067 -0.503229 0
M  V30 912 H 83.6316 -3.62499 -1.47343 0
M  V30 913 H 83.2546 -2.70066 -2.91805 0
M  V30 914 N 84.2517 0.741722 -1.39055 0
M  V30 915 C 85.2147 1.83733 -1.37021 0
M  V30 916 C 86.2147 1.58542 -0.268534 0
M  V30 917 O 87.4047 1.66067 -0.526076 0
M  V30 918 C 84.5367 3.2141 -1.13617 0
M  V30 919 H 85.7297 1.86941 -2.34506 0
M  V30 920 H 83.2827 0.944676 -1.24521 0
M  V30 921 H 84.0177 3.23865 -0.167863 0
M  V30 922 H 83.8027 3.4109 -1.93391 0
M  V30 923 H 85.2927 4.01477 -1.14918 0
M  V30 924 N 85.7298 1.2412 0.971189 0
M  V30 925 C 86.9758 1.08041 1.71625 0
M  V30 926 C 87.3088 -0.380407 1.90438 0
M  V30 927 O 86.5838 -1.28127 1.46334 0
M  V30 928 C 86.8668 1.81682 3.10908 0
M  V30 929 C 86.7198 3.35493 2.99608 0
M  V30 930 C 88.0388 1.58671 4.10501 0
M  V30 931 H 85.1578 0.39388 0.622919 0
M  V30 932 H 87.7998 1.52743 1.13003 0
M  V30 933 H 85.9498 1.43684 3.60953 0
M  V30 934 H 87.6218 3.83068 2.57015 0
M  V30 935 H 85.8648 3.64052 2.35899 0
M  V30 936 H 86.5358 3.82217 3.98264 0
M  V30 937 H 89.0118 1.91719 3.69301 0
M  V30 938 H 87.8878 2.1266 5.06031 0
M  V30 939 H 88.1488 0.524161 4.38982 0
M  V30 940 N 87.2079 -1.17134 1.05439 0
M  V30 941 C 88.1559 -2.23289 0.651511 0
M  V30 942 C 89.1499 -1.66186 -0.328411 0
M  V30 943 O 90.3559 -1.78949 -0.194206 0
M  V30 944 H 86.7309 -0.726938 0.192523 0
M  V30 945 H 88.7019 -2.54565 1.55689 0
M  V30 946 C 87.4509 -3.47671 0.0448436 0
M  V30 947 H 86.7739 -3.91918 0.78996 0
M  V30 948 H 88.2139 -4.2353 -0.19964 0
M  V30 949 C 86.6729 -3.14453 -1.20918 0
M  V30 950 O 87.2029 -3.29459 -2.29825 0
M  V30 951 N 85.4089 -2.68657 -1.10779 0
M  V30 952 H 84.9559 -2.56646 -0.221526 0
M  V30 953 H 84.9139 -2.46804 -1.9477 0
M  V30 954 N 88.686 -0.835752 -1.33615 0
M  V30 955 C 89.616 -0.281739 -2.31794 0
M  V30 956 C 90.597 0.608833 -1.58831 0
M  V30 957 O 91.782 0.533035 -1.86741 0
M  V30 958 C 88.912 0.546612 -3.42971 0
M  V30 959 C 87.866 -0.247904 -4.27281 0
M  V30 960 C 87.192 0.704001 -5.30045 0
M  V30 961 C 88.492 -1.46324 -5.01385 0
M  V30 962 H 90.186 -1.10206 -2.78379 0
M  V30 963 H 87.732 -0.531388 -1.33837 0
M  V30 964 H 89.685 0.944467 -4.1068 0
M  V30 965 H 88.409 1.40011 -2.95067 0
M  V30 966 H 87.068 -0.627281 -3.61194 0
M  V30 967 H 86.716 1.55381 -4.78399 0
M  V30 968 H 86.416 0.176524 -5.87335 0
M  V30 969 H 87.94 1.09944 -6.0062 0
M  V30 970 H 89.354 -1.13871 -5.61877 0
M  V30 971 H 87.751 -1.92728 -5.6831 0
M  V30 972 H 88.821 -2.23467 -4.30338 0
M  V30 973 N 90.1641 1.46063 -0.591896 0
M  V30 974 C 91.0741 2.34192 0.13831 0
M  V30 975 C 92.0901 1.50305 0.876608 0
M  V30 976 O 93.2661 1.8315 0.837728 0
M  V30 977 C 90.3311 3.27656 1.13326 0
M  V30 978 C 89.3921 4.27445 0.39863 0
M  V30 979 C 88.6251 5.16443 1.34618 0
M  V30 980 O 88.8481 5.08553 2.58321 0
M  V30 981 O 87.7821 5.95843 0.851768 0
M  V30 982 H 91.6081 2.98002 -0.58552 0
M  V30 983 H 89.1931 1.45188 -0.352239 0
M  V30 984 H 91.0751 3.85291 1.70671 0
M  V30 985 H 89.7501 2.6643 1.83839 0
M  V30 986 H 88.6571 3.73471 -0.216895 0
M  V30 987 H 89.9901 4.91482 -0.265709 0
M  V30 988 N 91.6422 0.330177 1.54103 0
M  V30 989 C 92.5892 -0.532762 2.24567 0
M  V30 990 C 93.5592 -1.10635 1.23892 0
M  V30 991 O 94.7442 -1.14546 1.5259 0
M  V30 992 C 91.8842 -1.6845 3.01195 0
M  V30 993 C 90.9972 -1.13951 4.167 0
M  V30 994 C 90.1322 -2.25746 4.80845 0
M  V30 995 C 89.1712 -1.6853 5.88442 0
M  V30 996 N 88.3082 -2.74014 6.46421 0
M  V30 997 H 93.1482 0.0746905 2.97906 0
M  V30 998 H 90.6852 0.048632 1.4702 0
M  V30 999 H 92.6432 -2.36234 3.43874 0
M  V30 1000 H 91.2732 -2.26314 2.30178 0
M  V30 1001 H 90.3252 -0.35301 3.78758 0
M  V30 1002 H 91.6372 -0.680892 4.94131 0
M  V30 1003 H 90.7912 -3.01422 5.26526 0
M  V30 1004 H 89.5302 -2.74947 4.0281 0
M  V30 1005 H 88.5352 -0.913543 5.42157 0
M  V30 1006 H 89.7602 -1.20198 6.68378 0
M  V30 1007 H 87.7062 -3.22494 5.71256 0
M  V30 1008 H 87.6232 -2.32735 7.19285 0
M  V30 1009 H 88.8912 -3.49499 6.96757 0
M  V30 1010 N 93.1203 -1.57491 0.0584922 0
M  V30 1011 C 94.3693 -1.92155 -0.613146 0
M  V30 1012 C 94.6823 -0.939334 -1.71569 0
M  V30 1013 O 95.8883 -1.17829 -2.44599 0
M  V30 1014 C 94.3443 -3.41303 -1.14195 0
M  V30 1015 C 93.9523 -4.47944 -0.0711265 0
M  V30 1016 C 95.6963 -3.84988 -1.78841 0
M  V30 1017 C 93.6033 -5.88212 -0.613225 0
M  V30 1018 H 92.5333 -0.717162 -0.232796 0
M  V30 1019 H 95.1843 -1.83049 0.12857 0
M  V30 1020 H 93.5663 -3.45437 -1.93621 0
M  V30 1021 H 94.7403 -4.55408 0.702836 0
M  V30 1022 H 93.0553 -4.13644 0.478313 0
M  V30 1023 H 95.6523 -4.87159 -2.20408 0
M  V30 1024 H 95.9953 -3.21632 -2.64308 0
M  V30 1025 H 96.5283 -3.83401 -1.06059 0
M  V30 1026 H 93.2673 -6.55183 0.203978 0
M  V30 1027 H 92.7873 -5.84294 -1.35501 0
M  V30 1028 H 94.4663 -6.37687 -1.09383 0
M  V30 1029 N 94.5984 0.214957 -1.56127 0
M  V30 1030 C 95.8284 0.953707 -1.8327 0
M  V30 1031 C 96.2364 1.78181 -0.636262 0
M  V30 1032 O 95.5794 1.79191 0.404516 0
M  V30 1033 C 95.6414 1.91516 -3.0424 0
M  V30 1034 C 95.3054 1.27094 -4.38972 0
M  V30 1035 C 96.3024 0.657575 -5.15725 0
M  V30 1036 C 93.9874 1.28073 -4.85698 0
M  V30 1037 C 95.9814 0.0625968 -6.37369 0
M  V30 1038 C 93.6684 0.681914 -6.07283 0
M  V30 1039 C 94.6664 0.0739046 -6.8296 0
M  V30 1040 O 94.3544 -0.515582 -8.02245 0
M  V30 1041 H 94.0864 0.284764 -0.613095 0
M  V30 1042 H 96.6404 0.233283 -2.04071 0
M  V30 1043 H 94.8704 2.67475 -2.79274 0
M  V30 1044 H 96.5594 2.52001 -3.18198 0
M  V30 1045 H 97.3254 0.642288 -4.80728 0
M  V30 1046 H 93.2044 1.74337 -4.26764 0
M  V30 1047 H 96.7484 -0.412593 -6.96379 0
M  V30 1048 H 92.6454 0.694636 -6.41752 0
M  V30 1049 H 93.4134 -0.410544 -8.1747 0
M  V30 1050 N 96.0765 1.50051 0.48192 0
M  V30 1051 C 97.4925 1.37237 0.814756 0
M  V30 1052 C 97.6925 0.420109 1.97072 0
M  V30 1053 O 96.7485 -0.141246 2.52105 0
M  V30 1054 C 98.0615 2.78375 1.13701 0
M  V30 1055 C 99.6095 2.87213 1.2441 0
M  V30 1056 C 100.084 4.29161 1.59954 0
M  V30 1057 N 101.575 4.32061 1.66967 0
M  V30 1058 C 102.31 5.38879 1.95952 0
M  V30 1059 N 101.806 6.55918 2.23031 0
M  V30 1060 N 103.599 5.26312 1.97363 0
M  V30 1061 H 95.7505 2.10546 -0.28005 0
M  V30 1062 H 98.0135 0.945921 -0.0627454 0
M  V30 1063 H 97.7195 3.49845 0.360787 0
M  V30 1064 H 97.5935 3.14941 2.07586 0
M  V30 1065 H 99.9805 2.15969 2.01101 0
M  V30 1066 H 100.061 2.54204 0.285299 0
M  V30 1067 H 99.7055 5.00938 0.838067 0
M  V30 1068 H 99.6355 4.59648 2.56966 0
M  V30 1069 H 102.126 3.47661 1.48123 0
M  V30 1070 H 102.439 7.33139 2.44391 0
M  V30 1071 H 100.784 6.59112 2.20447 0
M  V30 1072 H 103.975 4.33876 1.75697 0
M  V30 1073 H 104.148 6.09649 2.19618 0
M  V30 1074 N 97.5546 -0.734337 1.39446 0
M  V30 1075 C 98.4646 -1.87879 1.40495 0
M  V30 1076 C 99.4806 -1.714 0.299672 0
M  V30 1077 O 100.657 -1.93991 0.541249 0
M  V30 1078 C 97.7216 -3.23477 1.24754 0
M  V30 1079 C 96.7826 -3.52344 2.45259 0
M  V30 1080 C 96.0156 -4.81473 2.30259 0
M  V30 1081 O 96.2386 -5.55237 1.30643 0
M  V30 1082 O 95.1726 -5.10254 3.19256 0
M  V30 1083 H 98.9986 -1.89949 2.36966 0
M  V30 1084 H 96.5836 -0.882243 1.20569 0
M  V30 1085 H 98.4656 -4.04509 1.18111 0
M  V30 1086 H 97.1406 -3.22176 0.313781 0
M  V30 1087 H 96.0476 -2.71396 2.57478 0
M  V30 1088 H 97.3806 -3.58426 3.37331 0
M  V30 1089 N 99.0327 -1.24633 -0.964593 0
M  V30 1090 C 100.279 -1.08949 -1.71049 0
M  V30 1091 C 100.612 0.370302 -1.90637 0
M  V30 1092 O 99.8867 1.27349 -1.47011 0
M  V30 1093 C 100.17 -1.83329 -3.0994 0
M  V30 1094 C 100.023 -3.37077 -2.97824 0
M  V30 1095 C 101.342 -1.60846 -4.09654 0
M  V30 1096 H 98.4607 -0.397178 -0.620821 0
M  V30 1097 H 101.103 -1.5334 -1.12191 0
M  V30 1098 H 99.2527 -1.45597 -3.60186 0
M  V30 1099 H 100.925 -3.84425 -2.5498 0
M  V30 1100 H 99.1677 -3.65298 -2.33965 0
M  V30 1101 H 99.8387 -3.84324 -3.96231 0
M  V30 1102 H 102.315 -1.93674 -3.68279 0
M  V30 1103 H 101.191 -2.1534 -5.04896 0
M  V30 1104 H 101.452 -0.547434 -4.38698 0
M  V30 1105 N 100.511 1.16574 -1.06058 0
M  V30 1106 C 101.443 2.2045 -0.627239 0
M  V30 1107 C 102.456 1.59752 0.313534 0
M  V30 1108 O 103.645 1.78192 0.104896 0
M  V30 1109 C 100.745 3.3875 0.100974 0
M  V30 1110 C 99.9178 4.29008 -0.852687 0
M  V30 1111 C 98.9768 5.25944 -0.164152 0
M  V30 1112 O 98.0028 5.63535 -0.801047 0
M  V30 1113 N 99.2048 5.70075 1.09518 0
M  V30 1114 H 101.97 2.58249 -1.52077 0
M  V30 1115 H 99.5308 1.3156 -0.943594 0
M  V30 1116 H 101.523 4.00638 0.57194 0
M  V30 1117 H 100.093 2.99476 0.89628 0
M  V30 1118 H 99.3128 3.64419 -1.50308 0
M  V30 1119 H 100.601 4.86195 -1.49972 0
M  V30 1120 H 99.9988 5.41624 1.6328 0
M  V30 1121 H 98.5558 6.34067 1.51006 0
M  V30 1122 N 101.989 0.842826 1.3317 0
M  V30 1123 C 103.238 0.436738 1.96915 0
M  V30 1124 C 103.551 -1.01025 1.67491 0
M  V30 1125 O 104.757 -1.5212 2.24881 0
M  V30 1126 C 103.213 0.730021 3.52418 0
M  V30 1127 C 102.821 2.19195 3.90714 0
M  V30 1128 C 104.565 0.391076 4.22695 0
M  V30 1129 C 102.472 2.42907 5.39212 0
M  V30 1130 H 101.402 0.15958 0.736919 0
M  V30 1131 H 104.053 1.03196 1.51733 0
M  V30 1132 H 102.435 0.0643755 3.95948 0
M  V30 1133 H 103.609 2.8984 3.58231 0
M  V30 1134 H 101.924 2.49425 3.33431 0
M  V30 1135 H 104.521 0.545817 5.31907 0
M  V30 1136 H 104.864 -0.666294 4.10933 0
M  V30 1137 H 105.397 1.01212 3.84709 0
M  V30 1138 H 102.136 3.47224 5.55982 0
M  V30 1139 H 101.656 1.76827 5.73142 0
M  V30 1140 H 103.335 2.2626 6.06148 0
M  V30 1141 N 103.467 -1.45747 0.599634 0
M  V30 1142 C 104.4 -2.27547 -0.172552 0
M  V30 1143 C 105.378 -1.36657 -0.881116 0
M  V30 1144 O 106.562 -1.66081 -0.891595 0
M  V30 1145 C 103.689 -3.14829 -1.24903 0
M  V30 1146 C 102.735 -4.21603 -0.644465 0
M  V30 1147 S 103.568 -5.32754 0.541606 0
M  V30 1148 C 104.724 -6.23604 -0.535656 0
M  V30 1149 H 104.957 -2.92691 0.521468 0
M  V30 1150 H 102.49 -1.49473 0.386947 0
M  V30 1151 H 104.448 -3.65675 -1.86527 0
M  V30 1152 H 103.109 -2.48965 -1.91508 0
M  V30 1153 H 102.302 -4.82566 -1.45417 0
M  V30 1154 H 101.904 -3.73857 -0.103534 0
M  V30 1155 H 104.196 -6.62519 -1.41686 0
M  V30 1156 H 105.139 -7.0809 0.0376246 0
M  V30 1157 H 105.547 -5.58103 -0.84741 0
M  V30 1158 N 104.945 -0.338344 -1.53925 0
M  V30 1159 C 105.892 0.520845 -2.24846 0
M  V30 1160 C 106.862 1.09976 -1.24477 0
M  V30 1161 O 108.047 1.13735 -1.53196 0
M  V30 1162 C 105.187 1.6685 -3.02084 0
M  V30 1163 C 104.3 1.11739 -4.17299 0
M  V30 1164 C 103.435 2.23193 -4.82036 0
M  V30 1165 C 102.474 1.65407 -5.89328 0
M  V30 1166 N 101.611 2.70582 -6.47866 0
M  V30 1167 H 106.451 -0.0904881 -2.97863 0
M  V30 1168 H 103.988 -0.0564282 -1.46992 0
M  V30 1169 H 105.946 2.34407 -3.45122 0
M  V30 1170 H 104.576 2.2509 -2.31375 0
M  V30 1171 H 103.628 0.332919 -3.7894 0
M  V30 1172 H 104.94 0.654677 -4.94485 0
M  V30 1173 H 104.094 2.98626 -5.28117 0
M  V30 1174 H 102.833 2.72807 -4.04262 0
M  V30 1175 H 101.838 0.884779 -5.42634 0
M  V30 1176 H 103.063 1.16652 -6.69006 0
M  V30 1177 H 101.009 3.1946 -5.72959 0
M  V30 1178 H 100.926 2.28917 -7.20509 0
M  V30 1179 H 102.194 3.45799 -6.98601 0
M  V30 1180 N 106.423 1.57458 -0.0668435 0
M  V30 1181 C 107.356 2.08033 0.93795 0
M  V30 1182 C 108.334 0.984321 1.29421 0
M  V30 1183 O 109.518 1.25736 1.40437 0
M  V30 1184 C 106.645 2.53388 2.24749 0
M  V30 1185 C 105.691 3.74376 2.04315 0
M  V30 1186 S 106.524 5.19303 1.30706 0
M  V30 1187 C 107.68 5.67986 2.62951 0
M  V30 1188 H 107.913 2.92935 0.50759 0
M  V30 1189 H 105.446 1.5371 0.145804 0
M  V30 1190 H 107.404 2.8018 3.00016 0
M  V30 1191 H 106.065 1.68763 2.64911 0
M  V30 1192 H 105.258 4.04083 3.01218 0
M  V30 1193 H 104.86 3.47931 1.37186 0
M  V30 1194 H 107.152 5.74528 3.5906 0
M  V30 1195 H 108.095 6.66955 2.3786 0
M  V30 1196 H 108.503 4.95781 2.69929 0
M  V30 1197 N 107.901 -0.206675 1.56239 0
M  V30 1198 C 108.831 -1.25909 1.96645 0
M  V30 1199 C 109.812 -1.48097 0.836734 0
M  V30 1200 O 110.997 -1.6003 1.10019 0
M  V30 1201 C 108.127 -2.6058 2.29599 0
M  V30 1202 C 107.081 -2.53024 3.452 0
M  V30 1203 C 106.407 -3.91861 3.63798 0
M  V30 1204 C 107.707 -2.06524 4.79734 0
M  V30 1205 H 109.401 -0.923369 2.84806 0
M  V30 1206 H 106.947 -0.442735 1.37025 0
M  V30 1207 H 108.9 -3.34375 2.56459 0
M  V30 1208 H 107.624 -2.95869 1.38307 0
M  V30 1209 H 106.283 -1.81684 3.18412 0
M  V30 1210 H 105.931 -4.24483 2.69857 0
M  V30 1211 H 105.631 -3.87683 4.4156 0
M  V30 1212 H 107.155 -4.67296 3.93022 0
M  V30 1213 H 108.569 -2.70072 5.05702 0
M  V30 1214 H 106.966 -2.13374 5.60885 0
M  V30 1215 H 108.036 -1.01802 4.74093 0
M  V30 1216 N 109.379 -1.50304 -0.473955 0
M  V30 1217 C 110.656 -1.51667 -1.23518 0
M  V30 1218 C 111.036 -0.259701 -2.09496 0
M  V30 1219 O 110.384 0.756986 -2.15597 0
M  V30 1220 C 110.594 -2.81082 -2.06868 0
M  V30 1221 C 111.942 -3.31631 -2.65153 0
M  V30 1222 O 112.966 -2.82384 -2.17113 0
M  V30 1223 O 111.825 -4.17471 -3.52675 0
M  V30 1224 H 108.919 -0.60822 -0.560355 0
M  V30 1225 H 111.465 -1.62592 -0.486011 0
M  V30 1226 H 110.237 -3.64041 -1.4349 0
M  V30 1227 H 109.86 -2.73146 -2.88924 0
M  V30 1228 N 110.857 0.726932 -1.39834 0
M  V30 1229 C 111.807 1.83232 -1.35683 0
M  V30 1230 C 112.791 1.59155 -0.236295 0
M  V30 1231 O 113.983 1.70522 -0.474488 0
M  V30 1232 C 111.112 3.21246 -1.21062 0
M  V30 1233 C 110.198 3.51125 -2.37849 0
M  V30 1234 N 110.589 3.51889 -3.63329 0
M  V30 1235 C 108.887 3.81527 -2.30982 0
M  V30 1236 C 109.588 3.79791 -4.40606 0
M  V30 1237 N 108.564 3.97971 -3.70297 0
M  V30 1238 H 112.366 1.8214 -2.30656 0
M  V30 1239 H 109.88 0.925545 -1.33444 0
M  V30 1240 H 111.877 4.00387 -1.16171 0
M  V30 1241 H 110.537 3.23572 -0.270458 0
M  V30 1242 H 111.548 3.33008 -3.96643 0
M  V30 1243 H 108.225 3.91411 -1.45272 0
M  V30 1244 H 109.615 3.86783 -5.49408 0
M  V30 1245 N 112.336 1.25143 0.95797 0
M  V30 1246 C 113.747 1.08851 1.51685 0
M  V30 1247 C 114.098 -0.33687 1.93286 0
M  V30 1248 O 113.223 -1.22644 1.7829 0
M  V30 1249 C 113.818 1.96978 2.75654 0
M  V30 1250 C 112.377 1.84881 3.27866 0
M  V30 1251 C 111.524 1.91329 2.0072 0
M  V30 1252 H 114.475 1.38478 0.77522 0
M  V30 1253 H 114.496 1.5078 3.4935 0
M  V30 1254 H 114.008 3.00712 2.45345 0
M  V30 1255 H 112.109 0.840182 3.63004 0
M  V30 1256 H 112.222 2.6951 3.96107 0
M  V30 1257 H 110.586 1.35174 2.15871 0
M  V30 1258 H 111.369 2.96661 1.72764 0
M  V30 1259 N 113.814 -1.1601 1.06675 0
M  V30 1260 C 114.764 -2.18512 0.650888 0
M  V30 1261 C 115.748 -1.57677 -0.320441 0
M  V30 1262 O 116.94 -1.76482 -0.135266 0
M  V30 1263 C 114.069 -3.43273 0.0429255 0
M  V30 1264 C 113.155 -4.11176 1.03898 0
M  V30 1265 N 113.546 -4.54672 2.216 0
M  V30 1266 C 111.844 -4.37417 0.870779 0
M  V30 1267 C 112.545 -5.07248 2.84736 0
M  V30 1268 N 111.521 -5.0037 2.12441 0
M  V30 1269 H 115.323 -2.49863 1.54745 0
M  V30 1270 H 112.837 -1.32503 0.938975 0
M  V30 1271 H 114.834 -4.16006 -0.272857 0
M  V30 1272 H 113.494 -3.13408 -0.84884 0
M  V30 1273 H 114.505 -4.4828 2.59356 0
M  V30 1274 H 111.182 -4.17488 0.0313293 0
M  V30 1275 H 112.572 -5.50912 3.84636 0
M  V30 1276 N 115.292 -0.849877 -1.32721 0
M  V30 1277 C 116.541 -0.447175 -1.96681 0
M  V30 1278 C 116.854 1.00135 -1.68025 0
M  V30 1279 O 118.06 1.50926 -2.25685 0
M  V30 1280 C 116.516 -0.7487 -3.52026 0
M  V30 1281 C 116.124 -2.21264 -3.89546 0
M  V30 1282 C 117.868 -0.413487 -4.22481 0
M  V30 1283 C 115.775 -2.45763 -5.37917 0
M  V30 1284 H 114.705 -0.163486 -0.736063 0
M  V30 1285 H 117.356 -1.03999 -1.51183 0
M  V30 1286 H 115.738 -0.0853727 -3.95908 0
M  V30 1287 H 116.912 -2.91736 -3.56689 0
M  V30 1288 H 115.227 -2.5119 -3.32103 0
M  V30 1289 H 117.824 -0.574017 -5.3161 0
M  V30 1290 H 118.167 0.644492 -4.11281 0
M  V30 1291 H 118.7 -1.03251 -3.84167 0
M  V30 1292 H 115.439 -3.50168 -5.54132 0
M  V30 1293 H 114.959 -1.79864 -5.72197 0
M  V30 1294 H 116.638 -2.29471 -6.0494 0
M  V30 1295 N 116.77 1.45427 -0.607355 0
M  V30 1296 C 118.019 2.01452 -0.100036 0
M  V30 1297 C 118.332 1.48159 1.27704 0
M  V30 1298 O 119.538 1.96159 1.87707 0
M  V30 1299 C 117.994 3.59672 -0.128158 0
M  V30 1300 C 117.602 4.21962 -1.50507 0
M  V30 1301 C 119.346 4.23262 0.323932 0
M  V30 1302 C 117.253 5.72333 -1.48959 0
M  V30 1303 H 116.183 0.75325 -0.0336299 0
M  V30 1304 H 118.834 1.66901 -0.76265 0
M  V30 1305 H 117.216 3.91411 0.601105 0
M  V30 1306 H 118.39 4.01796 -2.25602 0
M  V30 1307 H 116.705 3.70565 -1.89923 0
M  V30 1308 H 119.302 5.33522 0.354691 0
M  V30 1309 H 119.645 3.93921 1.34656 0
M  V30 1310 H 120.178 3.96239 -0.352056 0
M  V30 1311 H 116.917 6.06373 -2.48981 0
M  V30 1312 H 116.437 5.94691 -0.781214 0
M  V30 1313 H 118.116 6.35525 -1.21313 0
M  V30 1314 N 118.248 0.346503 1.53744 0
M  V30 1315 C 119.195 -0.508914 2.25119 0
M  V30 1316 C 120.165 -1.09315 1.25058 0
M  V30 1317 O 121.35 -1.12921 1.53797 0
M  V30 1318 C 118.49 -1.65246 3.02965 0
M  V30 1319 C 117.603 -1.09525 4.17886 0
M  V30 1320 C 116.738 -2.20634 4.83212 0
M  V30 1321 C 115.777 -1.62279 5.90196 0
M  V30 1322 N 114.914 -2.67143 6.49291 0
M  V30 1323 H 119.754 0.106283 2.9781 0
M  V30 1324 H 117.291 0.0642227 1.4696 0
M  V30 1325 H 119.249 -2.32574 3.4636 0
M  V30 1326 H 117.879 -2.2386 2.32565 0
M  V30 1327 H 116.931 -0.312818 3.79112 0
M  V30 1328 H 118.243 -0.628444 4.94825 0
M  V30 1329 H 117.397 -2.95821 5.29693 0
M  V30 1330 H 116.136 -2.70659 4.05703 0
M  V30 1331 H 115.141 -0.855989 5.43096 0
M  V30 1332 H 116.366 -1.13102 6.69615 0
M  V30 1333 H 114.312 -3.16417 5.74645 0
M  V30 1334 H 114.229 -2.25093 7.21713 0
M  V30 1335 H 115.497 -3.4209 7.00425 0
M  V30 1336 N 119.726 -1.57421 0.075193 0
M  V30 1337 C 120.656 -2.15942 -0.888324 0
M  V30 1338 C 121.637 -1.08737 -1.30806 0
M  V30 1339 O 122.822 -1.36787 -1.37851 0
M  V30 1340 C 119.952 -2.72379 -2.1547 0
M  V30 1341 C 118.906 -3.8478 -1.87425 0
M  V30 1342 C 118.232 -4.27834 -3.20721 0
M  V30 1343 C 119.532 -5.08869 -1.17684 0
M  V30 1344 H 121.226 -2.96705 -0.400799 0
M  V30 1345 H 118.772 -1.42723 -0.191342 0
M  V30 1346 H 120.725 -3.11965 -2.83295 0
M  V30 1347 H 119.449 -1.88841 -2.6647 0
M  V30 1348 H 118.108 -3.45703 -1.22004 0
M  V30 1349 H 117.756 -3.41214 -3.6957 0
M  V30 1350 H 117.456 -5.03605 -3.02746 0
M  V30 1351 H 118.98 -4.70039 -3.89738 0
M  V30 1352 H 120.394 -5.4575 -1.75584 0
M  V30 1353 H 118.791 -5.8994 -1.09956 0
M  V30 1354 H 119.861 -4.84648 -0.156453 0
M  V30 1355 N 121.204 0.198386 -1.56346 0
M  V30 1356 C 122.434 0.934215 -1.84271 0
M  V30 1357 C 122.842 1.77496 -0.655125 0
M  V30 1358 O 122.185 1.7961 0.385488 0
M  V30 1359 C 122.247 1.88278 -3.06254 0
M  V30 1360 C 121.911 1.22431 -4.40295 0
M  V30 1361 C 122.908 0.602839 -5.16393 0
M  V30 1362 C 120.593 1.22915 -4.87029 0
M  V30 1363 C 122.587 -0.0050083 -6.374 0
M  V30 1364 C 120.274 0.617465 -6.07973 0
M  V30 1365 C 121.272 0.00146341 -6.83 0
M  V30 1366 O 120.96 -0.600642 -8.01653 0
M  V30 1367 H 120.692 0.278245 -0.616081 0
M  V30 1368 H 123.246 0.211626 -2.04307 0
M  V30 1369 H 121.476 2.64498 -2.82095 0
M  V30 1370 H 123.165 2.48612 -3.20853 0
M  V30 1371 H 123.931 0.591265 -4.81382 0
M  V30 1372 H 119.81 1.69801 -4.28589 0
M  V30 1373 H 123.354 -0.48643 -6.95902 0
M  V30 1374 H 119.251 0.62653 -6.42452 0
M  V30 1375 H 120.019 -0.497225 -8.16988 0
M  V30 1376 N 122.682 1.50554 0.465978 0
M  V30 1377 C 123.614 1.65949 1.58093 0
M  V30 1378 C 124.627 0.540827 1.53554 0
M  V30 1379 O 125.816 0.814187 1.5885 0
M  V30 1380 C 122.916 1.63261 2.96983 0
M  V30 1381 C 122.089 2.91245 3.26336 0
M  V30 1382 C 121.148 2.8113 4.44806 0
M  V30 1383 O 120.174 3.55086 4.44862 0
M  V30 1384 N 121.376 1.95032 5.46756 0
M  V30 1385 H 124.141 2.62122 1.45301 0
M  V30 1386 H 121.702 1.48082 0.65448 0
M  V30 1387 H 123.694 1.54101 3.74212 0
M  V30 1388 H 122.264 0.748032 3.03518 0
M  V30 1389 H 121.484 3.14493 2.37672 0
M  V30 1390 H 122.772 3.76022 3.42761 0
M  V30 1391 H 122.17 1.3427 5.49534 0
M  V30 1392 H 120.727 1.91772 6.2295 0
M  V30 1393 N 124.16 -0.719506 1.40217 0
M  V30 1394 C 125.406 -1.48152 1.38488 0
M  V30 1395 C 125.739 -1.94195 -0.0141867 0
M  V30 1396 O 125.014 -1.67884 -0.982096 0
M  V30 1397 C 125.297 -2.71035 2.37091 0
M  V30 1398 C 125.15 -2.30912 3.86005 0
M  V30 1399 C 126.469 -3.73182 2.33288 0
M  V30 1400 H 123.588 -0.537395 0.504357 0
M  V30 1401 H 126.23 -0.821472 1.71324 0
M  V30 1402 H 124.38 -3.27352 2.0922 0
M  V30 1403 H 126.052 -1.80107 4.24687 0
M  V30 1404 H 124.295 -1.62958 4.02029 0
M  V30 1405 H 124.966 -3.18978 4.50508 0
M  V30 1406 H 127.442 -3.26485 2.57966 0
M  V30 1407 H 126.318 -4.56806 3.04334 0
M  V30 1408 H 126.579 -4.21202 1.34317 0
M  V30 1409 N 125.638 -1.25649 -0.95132 0
M  V30 1410 C 126.571 -1.00644 -2.04807 0
M  V30 1411 C 127.549 0.0654271 -1.62468 0
M  V30 1412 O 128.733 -0.074911 -1.88351 0
M  V30 1413 C 125.86 -0.522052 -3.34653 0
M  V30 1414 C 124.906 -1.58495 -3.95957 0
M  V30 1415 S 125.739 -3.17108 -4.31512 0
M  V30 1416 C 126.895 -2.70412 -5.64471 0
M  V30 1417 H 127.128 -1.93508 -2.25703 0
M  V30 1418 H 124.661 -1.09216 -1.09139 0
M  V30 1419 H 126.619 -0.24923 -4.09743 0
M  V30 1420 H 125.28 0.386146 -3.11717 0
M  V30 1421 H 124.473 -1.1968 -4.89584 0
M  V30 1422 H 124.075 -1.80862 -3.2736 0
M  V30 1423 H 126.367 -2.14245 -6.42733 0
M  V30 1424 H 127.31 -3.62693 -6.08161 0
M  V30 1425 H 127.718 -2.10302 -5.23864 0
M  V30 1426 N 127.117 1.15442 -1.07289 0
M  V30 1427 C 128.027 2.23786 -0.704057 0
M  V30 1428 C 129.043 1.7166 0.284413 0
M  V30 1429 O 130.219 2.00972 0.131205 0
M  V30 1430 C 127.284 3.46535 -0.106792 0
M  V30 1431 C 126.345 4.13654 -1.14842 0
M  V30 1432 C 125.578 5.30544 -0.57956 0
M  V30 1433 O 125.801 5.67187 0.604585 0
M  V30 1434 O 124.735 5.87154 -1.32414 0
M  V30 1435 H 128.561 2.57664 -1.60757 0
M  V30 1436 H 126.146 1.23152 -0.845803 0
M  V30 1437 H 128.028 4.20804 0.224048 0
M  V30 1438 H 126.703 3.14407 0.770049 0
M  V30 1439 H 125.61 3.4131 -1.5316 0
M  V30 1440 H 126.943 4.49861 -1.99714 0
M  V30 1441 N 128.595 0.856903 1.32268 0
M  V30 1442 C 129.823 0.475439 2.01363 0
M  V30 1443 C 130.238 -0.928486 1.64392 0
M  V30 1444 O 129.595 -1.60624 0.866387 0
M  V30 1445 C 129.646 0.607545 3.56358 0
M  V30 1446 O 129.367 1.95617 3.92002 0
M  V30 1447 C 130.868 0.225382 4.42727 0
M  V30 1448 H 128.088 0.186636 0.644521 0
M  V30 1449 H 130.632 1.15446 1.68797 0
M  V30 1450 H 128.787 -0.0237719 3.87393 0
M  V30 1451 H 129.201 1.95455 4.86721 0
M  V30 1452 H 130.675 0.368813 5.50767 0
M  V30 1453 H 131.152 -0.834369 4.31202 0
M  V30 1454 H 131.758 0.831864 4.17085 0
M  V30 1455 N 130.073 -1.45103 0.615059 0
M  V30 1456 C 131.02 -2.30586 -0.0993978 0
M  V30 1457 C 131.99 -1.42544 -0.852669 0
M  V30 1458 O 133.175 -1.71465 -0.836917 0
M  V30 1459 C 130.315 -3.27572 -1.08583 0
M  V30 1460 C 129.428 -4.30717 -0.332656 0
M  V30 1461 C 128.563 -5.14807 -1.30947 0
M  V30 1462 C 127.602 -6.09673 -0.544538 0
M  V30 1463 N 126.739 -6.86517 -1.47101 0
M  V30 1464 H 131.579 -2.91144 0.635542 0
M  V30 1465 H 129.116 -1.4346 0.325206 0
M  V30 1466 H 131.074 -3.82276 -1.67095 0
M  V30 1467 H 129.704 -2.68751 -1.78809 0
M  V30 1468 H 128.756 -3.78615 0.368107 0
M  V30 1469 H 130.068 -4.98102 0.263842 0
M  V30 1470 H 129.222 -5.73948 -1.96643 0
M  V30 1471 H 127.961 -4.47458 -1.9399 0
M  V30 1472 H 126.966 -5.49656 0.126003 0
M  V30 1473 H 128.191 -6.79052 0.080947 0
M  V30 1474 H 126.137 -6.21851 -2.08895 0
M  V30 1475 H 126.054 -7.50281 -0.928137 0
M  V30 1476 H 127.322 -7.50194 -2.11731 0
M  V30 1477 N 131.551 -0.354651 -1.53558 0
M  V30 1478 C 132.776 0.242153 -2.05981 0
M  V30 1479 C 133.201 1.42553 -1.2272 0
M  V30 1480 O 132.559 1.79656 -0.243604 0
M  V30 1481 C 132.607 0.624367 -3.55154 0
M  V30 1482 O 131.711 1.72301 -3.74681 0
M  V30 1483 H 131.052 0.0378432 -0.662921 0
M  V30 1484 H 133.582 -0.512087 -1.98088 0
M  V30 1485 H 133.592 0.898433 -3.97985 0
M  V30 1486 H 132.267 -0.240989 -4.15201 0
M  V30 1487 H 130.844 1.44535 -3.4375 0
M  V30 1488 N 133.029 1.57378 -0.0835403 0
M  V30 1489 C 133.962 2.09016 0.915833 0
M  V30 1490 C 134.94 0.997993 1.2837 0
M  V30 1491 O 136.124 1.27219 1.39096 0
M  V30 1492 C 133.251 2.55757 2.22049 0
M  V30 1493 C 132.297 3.76522 2.00333 0
M  V30 1494 S 133.13 5.20661 1.25191 0
M  V30 1495 C 134.286 5.70743 2.56912 0
M  V30 1496 H 134.519 2.93457 0.476492 0
M  V30 1497 H 132.052 1.53856 0.129493 0
M  V30 1498 H 134.01 2.83346 2.97027 0
M  V30 1499 H 132.671 1.71564 2.63106 0
M  V30 1500 H 131.864 4.07256 2.96916 0
M  V30 1501 H 131.466 3.49367 1.33488 0
M  V30 1502 H 133.758 5.78304 3.52946 0
M  V30 1503 H 134.701 6.6944 2.30772 0
M  V30 1504 H 135.109 4.98616 2.64655 0
M  V30 1505 N 134.507 -0.190092 1.56449 0
M  V30 1506 C 135.437 -1.23816 1.97969 0
M  V30 1507 C 136.418 -1.47201 0.852395 0
M  V30 1508 O 137.603 -1.58854 1.1171 0
M  V30 1509 C 134.733 -2.5813 2.3235 0
M  V30 1510 C 133.687 -2.49348 3.47864 0
M  V30 1511 C 133.013 -3.8798 3.67934 0
M  V30 1512 C 134.313 -2.01424 4.81898 0
M  V30 1513 H 136.007 -0.89311 2.85769 0
M  V30 1514 H 133.553 -0.428177 1.37487 0
M  V30 1515 H 135.506 -3.31637 2.59991 0
M  V30 1516 H 134.23 -2.94386 1.41438 0
M  V30 1517 H 132.889 -1.78297 3.20321 0
M  V30 1518 H 132.537 -4.21597 2.74344 0
M  V30 1519 H 132.237 -3.82978 4.45648 0
M  V30 1520 H 133.761 -4.63101 3.97957 0
M  V30 1521 H 135.175 -2.64693 5.08538 0
M  V30 1522 H 133.572 -2.07413 5.63116 0
M  V30 1523 H 134.642 -0.967677 4.75146 0
M  V30 1524 N 135.985 -1.50799 -0.457987 0
M  V30 1525 C 137.215 -1.65977 -1.23025 0
M  V30 1526 C 137.623 -0.347918 -1.85974 0
M  V30 1527 O 136.966 0.68148 -1.70592 0
M  V30 1528 C 137.028 -2.70309 -2.3701 0
M  V30 1529 C 136.692 -4.135 -1.94594 0
M  V30 1530 C 137.689 -4.98949 -1.46101 0
M  V30 1531 C 135.374 -4.5949 -2.02915 0
M  V30 1532 C 137.368 -6.28442 -1.06489 0
M  V30 1533 C 135.055 -5.88984 -1.62914 0
M  V30 1534 C 136.053 -6.73286 -1.1478 0
M  V30 1535 O 135.741 -8.00362 -0.75339 0
M  V30 1536 H 135.473 -0.56064 -0.377702 0
M  V30 1537 H 138.027 -1.97857 -0.551537 0
M  V30 1538 H 136.257 -2.337 -3.08093 0
M  V30 1539 H 137.946 -2.74574 -2.98938 0
M  V30 1540 H 138.712 -4.6463 -1.39084 0
M  V30 1541 H 134.591 -3.94009 -2.39328 0
M  V30 1542 H 138.135 -6.94194 -0.688488 0
M  V30 1543 H 134.032 -6.22822 -1.69595 0
M  V30 1544 H 134.8 -8.13744 -0.88108 0
M  V30 1545 N 137.463 0.71206 -1.40597 0
M  V30 1546 C 138.393 1.83889 -1.43899 0
M  V30 1547 C 139.374 1.67442 -0.299504 0
M  V30 1548 O 140.559 1.87421 -0.508624 0
M  V30 1549 C 137.689 3.21877 -1.30431 0
M  V30 1550 C 136.643 3.53002 -2.42019 0
M  V30 1551 C 135.969 4.90172 -2.13626 0
M  V30 1552 C 137.269 3.53643 -3.84362 0
M  V30 1553 H 138.963 1.81383 -2.38203 0
M  V30 1554 H 136.509 0.871237 -1.14654 0
M  V30 1555 H 138.462 4.00404 -1.31357 0
M  V30 1556 H 137.186 3.24968 -0.326049 0
M  V30 1557 H 135.845 2.76818 -2.40349 0
M  V30 1558 H 135.493 4.89869 -1.14182 0
M  V30 1559 H 135.193 5.11962 -2.88389 0
M  V30 1560 H 136.717 5.71028 -2.1624 0
M  V30 1561 H 138.131 4.22203 -3.87837 0
M  V30 1562 H 136.528 3.86961 -4.58673 0
M  V30 1563 H 137.598 2.52954 -4.13693 0
M  V30 1564 N 138.941 1.26152 0.944643 0
M  V30 1565 C 140.187 1.11657 1.69294 0
M  V30 1566 C 140.52 -0.339926 1.91202 0
M  V30 1567 O 139.795 -1.24994 1.49019 0
M  V30 1568 C 140.078 1.88236 3.06984 0
M  V30 1569 C 139.931 3.41772 2.92424 0
M  V30 1570 C 141.25 1.67343 4.07043 0
M  V30 1571 H 138.369 0.407004 0.614424 0
M  V30 1572 H 141.011 1.55106 1.09737 0
M  V30 1573 H 139.161 1.51308 3.57824 0
M  V30 1574 H 140.833 3.88433 2.48832 0
M  V30 1575 H 139.076 3.68974 2.28124 0
M  V30 1576 H 139.747 3.90579 3.90067 0
M  V30 1577 H 142.223 1.99509 3.65151 0
M  V30 1578 H 141.099 2.23346 5.01406 0
M  V30 1579 H 141.36 0.617158 4.37771 0
M  V30 1580 N 140.419 -1.14872 1.07899 0
M  V30 1581 C 141.647 -1.89661 0.82683 0
M  V30 1582 C 142.062 -1.78312 -0.620519 0
M  V30 1583 O 141.419 -1.13888 -1.42604 0
M  V30 1584 C 141.47 -3.39817 1.23316 0
M  V30 1585 O 141.191 -3.50845 2.62372 0
M  V30 1586 C 142.692 -4.31615 1.0111 0
M  V30 1587 H 139.912 -0.60092 0.298557 0
M  V30 1588 H 142.456 -1.4551 1.43691 0
M  V30 1589 H 140.611 -3.8161 0.667286 0
M  V30 1590 H 141.025 -4.44076 2.79101 0
M  V30 1591 H 142.499 -5.35367 1.34486 0
M  V30 1592 H 142.976 -4.39169 -0.0522168 0
M  V30 1593 H 143.582 -3.95572 1.56215 0
M  V30 1594 N 141.898 -0.863906 -1.31812 0
M  V30 1595 C 142.808 -0.318461 -2.32428 0
M  V30 1596 C 143.824 0.568496 -1.64451 0
M  V30 1597 O 145 0.46666 -1.95919 0
M  V30 1598 C 142.065 0.476355 -3.43412 0
M  V30 1599 C 141.126 -0.43784 -4.27061 0
M  V30 1600 C 140.359 0.319138 -5.32745 0
M  V30 1601 O 140.582 1.54799 -5.48993 0
M  V30 1602 O 139.516 -0.319861 -6.01049 0
M  V30 1603 H 143.342 -1.15229 -2.80991 0
M  V30 1604 H 140.927 -0.627103 -1.35602 0
M  V30 1605 H 142.809 0.927156 -4.11074 0
M  V30 1606 H 141.484 1.28683 -2.97022 0
M  V30 1607 H 140.391 -0.937013 -3.62175 0
M  V30 1608 H 141.724 -1.21375 -4.77 0
M  V30 1609 N 143.376 1.44774 -0.622745 0
M  V30 1610 C 144.606 2.06187 -0.130532 0
M  V30 1611 C 145.014 1.46547 1.19669 0
M  V30 1612 O 144.357 0.579636 1.74316 0
M  V30 1613 C 144.419 3.59437 0.0674983 0
M  V30 1614 C 144.083 4.41496 -1.18026 0
M  V30 1615 C 145.08 4.75512 -2.102 0
M  V30 1616 C 142.765 4.82007 -1.41333 0
M  V30 1617 C 144.759 5.48912 -3.23998 0
M  V30 1618 C 142.446 5.55157 -2.55429 0
M  V30 1619 C 143.444 5.88528 -3.46589 0
M  V30 1620 O 143.132 6.60191 -4.58697 0
M  V30 1621 H 142.864 0.672045 -0.0730162 0
M  V30 1622 H 145.418 1.86768 -0.854802 0
M  V30 1623 H 143.648 3.77314 0.846825 0
M  V30 1624 H 145.337 4.02642 0.513209 0
M  V30 1625 H 146.103 4.4476 -1.93425 0
M  V30 1626 H 141.982 4.55457 -0.712709 0
M  V30 1627 H 145.526 5.74877 -3.95174 0
M  V30 1628 H 141.423 5.85324 -2.72151 0
M  V30 1629 H 142.191 6.78654 -4.57571 0
M  V30 1630 N 144.854 0.36279 1.53368 0
M  V30 1631 C 145.817 -0.472679 2.24273 0
M  V30 1632 C 146.817 -1.012 1.24961 0
M  V30 1633 O 148.007 -0.898194 1.49259 0
M  V30 1634 C 145.139 -1.66039 2.97731 0
M  V30 1635 H 146.332 0.14773 2.99536 0
M  V30 1636 H 143.885 0.114434 1.55881 0
M  V30 1637 H 144.62 -2.31896 2.26704 0
M  V30 1638 H 144.405 -1.28066 3.70596 0
M  V30 1639 H 145.895 -2.25252 3.51641 0
M  V30 1640 N 146.332 -1.57332 0.0918853 0
M  V30 1641 C 147.279 -2.13847 -0.868211 0
M  V30 1642 C 148.249 -1.05618 -1.28196 0
M  V30 1643 O 149.434 -1.33387 -1.36427 0
M  V30 1644 C 146.574 -2.72062 -2.12312 0
M  V30 1645 C 145.687 -3.94514 -1.7602 0
M  V30 1646 C 144.822 -4.40903 -2.96273 0
M  V30 1647 C 143.861 -5.55953 -2.56092 0
M  V30 1648 N 142.998 -5.97209 -3.69169 0
M  V30 1649 H 147.838 -2.95575 -0.379406 0
M  V30 1650 H 145.375 -1.46048 -0.175606 0
M  V30 1651 H 147.333 -3.03931 -2.858 0
M  V30 1652 H 145.963 -1.93068 -2.58698 0
M  V30 1653 H 145.015 -3.68979 -0.925135 0
M  V30 1654 H 146.327 -4.7802 -1.42472 0
M  V30 1655 H 145.481 -4.74539 -3.78018 0
M  V30 1656 H 144.22 -3.56291 -3.33029 0
M  V30 1657 H 143.225 -5.21948 -1.72773 0
M  V30 1658 H 144.45 -6.42311 -2.20484 0
M  V30 1659 H 142.396 -5.15543 -4.05649 0
M  V30 1660 H 142.313 -6.75504 -3.39456 0
M  V30 1661 H 143.581 -6.35475 -4.51434 0
M  V30 1662 N 147.81 0.181792 -1.56548 0
M  V30 1663 C 148.758 1.24461 -1.965 0
M  V30 1664 C 149.752 1.464 -0.852261 0
M  V30 1665 O 150.958 1.47103 -1.03733 0
M  V30 1666 H 147.333 0.418138 -0.625031 0
M  V30 1667 H 149.304 0.880714 -2.85107 0
M  V30 1668 C 148.053 2.57891 -2.33212 0
M  V30 1669 H 147.376 2.41829 -3.18369 0
M  V30 1670 H 148.816 3.3097 -2.65019 0
M  V30 1671 C 147.275 3.15871 -1.17163 0
M  V30 1672 O 147.805 3.9913 -0.453708 0
M  V30 1673 N 146.011 2.74808 -0.944936 0
M  V30 1674 H 145.558 2.07205 -1.53049 0
M  V30 1675 H 145.516 3.13939 -0.170286 0
M  V30 1676 N 149.288 1.51039 0.449983 0
M  V30 1677 C 150.536 1.62759 1.19808 0
M  V30 1678 C 150.857 0.339981 1.92013 0
M  V30 1679 O 150.127 -0.643606 1.85026 0
M  V30 1680 H 148.707 0.599811 0.445237 0
M  V30 1681 H 151.369 1.87914 0.517138 0
M  V30 1682 H 150.465 2.44911 1.93455 0
M  V30 1683 N 150.766 -0.704594 1.40972 0
M  V30 1684 C 151.676 -1.84856 1.44448 0
M  V30 1685 C 152.692 -1.70726 0.335961 0
M  V30 1686 O 153.868 -1.92799 0.582276 0
M  V30 1687 C 150.933 -3.20758 1.31587 0
M  V30 1688 C 149.994 -3.47063 2.52677 0
M  V30 1689 C 149.227 -4.76481 2.4042 0
M  V30 1690 O 149.45 -5.52341 1.42391 0
M  V30 1691 O 148.384 -5.03367 3.30007 0
M  V30 1692 H 152.21 -1.8488 2.40942 0
M  V30 1693 H 149.795 -0.85647 1.22413 0
M  V30 1694 H 151.677 -4.01913 1.26665 0
M  V30 1695 H 150.352 -3.21438 0.382049 0
M  V30 1696 H 149.259 -2.65873 2.63177 0
M  V30 1697 H 150.592 -3.5119 3.44858 0
M  V30 1698 N 152.244 -1.26651 -0.937939 0
M  V30 1699 C 153.493 -1.11775 -1.67897 0
M  V30 1700 C 153.806 0.33794 -1.92659 0
M  V30 1701 O 155.012 0.607434 -2.64618 0
M  V30 1702 C 153.468 -1.9523 -3.02346 0
M  V30 1703 C 153.076 -3.45393 -2.8532 0
M  V30 1704 C 154.82 -1.88972 -3.80118 0
M  V30 1705 C 152.727 -4.21083 -4.15263 0
M  V30 1706 H 151.657 -0.414696 -0.629717 0
M  V30 1707 H 154.308 -1.50988 -1.04283 0
M  V30 1708 H 152.69 -1.48853 -3.66959 0
M  V30 1709 H 153.864 -3.99561 -2.29537 0
M  V30 1710 H 152.179 -3.52921 -2.20988 0
M  V30 1711 H 154.776 -2.42805 -4.76392 0
M  V30 1712 H 155.119 -0.86113 -4.07296 0
M  V30 1713 H 155.652 -2.33189 -3.22285 0
M  V30 1714 H 152.391 -5.24425 -3.93267 0
M  V30 1715 H 151.911 -3.71695 -4.70747 0
M  V30 1716 H 153.59 -4.29706 -4.83696 0
M  V30 1717 N 153.722 1.14298 -1.08507 0
M  V30 1718 C 154.969 1.85359 -0.815373 0
M  V30 1719 C 155.297 1.83001 0.658865 0
M  V30 1720 O 154.552 1.25655 1.50031 0
M  V30 1721 C 154.851 3.33547 -1.28379 0
M  V30 1722 C 154.517 3.56093 -2.76602 0
M  V30 1723 C 153.179 3.61955 -3.17084 0
M  V30 1724 C 155.531 3.64834 -3.72217 0
M  V30 1725 C 152.859 3.74082 -4.51973 0
M  V30 1726 C 155.211 3.78487 -5.06883 0
M  V30 1727 C 153.875 3.82598 -5.46969 0
M  V30 1728 H 153.145 0.678276 -0.298366 0
M  V30 1729 H 155.792 1.35002 -1.35819 0
M  V30 1730 H 154.097 3.86191 -0.660593 0
M  V30 1731 H 155.794 3.86959 -1.05186 0
M  V30 1732 H 152.384 3.52179 -2.4427 0
M  V30 1733 H 156.568 3.59595 -3.42061 0
M  V30 1734 H 151.824 3.75527 -4.82483 0
M  V30 1735 H 155.998 3.84193 -5.80834 0
M  V30 1736 H 153.625 3.91747 -6.51489 0
M  V30 1737 N 155.201 0.870884 1.31352 0
M  V30 1738 C 156.478 0.402907 1.91405 0
M  V30 1739 C 156.858 -1.11512 1.79244 0
M  V30 1740 O 156.206 -1.94411 1.2007 0
M  V30 1741 C 156.416 0.885301 3.37585 0
M  V30 1742 C 157.764 0.911971 4.14691 0
M  V30 1743 O 158.788 0.831016 3.46371 0
M  V30 1744 O 157.647 1.02927 5.3672 0
M  V30 1745 H 154.741 0.120698 0.818145 0
M  V30 1746 H 157.287 0.958857 1.40014 0
M  V30 1747 H 156.059 1.92889 3.40455 0
M  V30 1748 H 155.682 0.307714 3.96407 0
M  V30 1749 N 156.679 -1.44442 0.630414 0
M  V30 1750 C 157.909 -2.06115 0.141465 0
M  V30 1751 C 158.317 -1.47179 -1.1889 0
M  V30 1752 O 157.66 -0.588873 -1.74006 0
M  V30 1753 C 157.722 -3.59467 -0.0484355 0
M  V30 1754 C 157.386 -4.40864 1.20366 0
M  V30 1755 C 158.383 -4.74391 2.12719 0
M  V30 1756 C 156.068 -4.8125 1.43887 0
M  V30 1757 C 158.062 -5.47186 3.26904 0
M  V30 1758 C 155.749 -5.53795 2.5837 0
M  V30 1759 C 156.747 -5.86682 3.49705 0
M  V30 1760 O 156.435 -6.57749 4.62191 0
M  V30 1761 H 156.167 -0.671648 0.0765792 0
M  V30 1762 H 158.721 -1.86312 0.864695 0
M  V30 1763 H 156.951 -3.77758 -0.826803 0
M  V30 1764 H 158.64 -4.02909 -0.491849 0
M  V30 1765 H 159.406 -4.43728 1.95781 0
M  V30 1766 H 155.285 -4.55073 0.736853 0
M  V30 1767 H 158.829 -5.72773 3.98217 0
M  V30 1768 H 154.726 -5.83872 2.75251 0
M  V30 1769 H 155.494 -6.76217 4.61164 0
M  V30 1770 N 158.157 -0.370918 -1.53173 0
M  V30 1771 C 159.087 0.464847 -2.28826 0
M  V30 1772 C 160.068 1.07936 -1.31468 0
M  V30 1773 O 161.253 1.0956 -1.60344 0
M  V30 1774 C 158.383 1.60196 -3.08147 0
M  V30 1775 C 157.337 1.11443 -4.13237 0
M  V30 1776 C 156.663 2.3422 -4.80672 0
M  V30 1777 C 157.963 0.195384 -5.21934 0
M  V30 1778 H 159.657 -0.166329 -2.98938 0
M  V30 1779 H 157.203 -0.0814359 -1.4377 0
M  V30 1780 H 159.156 2.19332 -3.59822 0
M  V30 1781 H 157.88 2.26045 -2.35735 0
M  V30 1782 H 156.539 0.545727 -3.62515 0
M  V30 1783 H 156.187 2.98537 -4.04827 0
M  V30 1784 H 155.887 2.02269 -5.51689 0
M  V30 1785 H 157.411 2.94032 -5.35143 0
M  V30 1786 H 158.825 0.694375 -5.69079 0
M  V30 1787 H 157.222 -0.0335027 -6.00091 0
M  V30 1788 H 158.292 -0.760961 -4.78892 0
M  V30 1789 N 159.635 1.57281 -0.100228 0
M  V30 1790 C 160.598 2.13158 0.842398 0
M  V30 1791 C 161.598 1.06202 1.20738 0
M  V30 1792 O 162.788 1.32066 1.13597 0
M  V30 1793 C 159.92 2.65639 2.13655 0
M  V30 1794 H 161.113 2.97766 0.357114 0
M  V30 1795 H 158.666 1.5559 0.148823 0
M  V30 1796 H 159.401 1.84566 2.66657 0
M  V30 1797 H 159.186 3.43844 1.88451 0
M  V30 1798 H 160.676 3.08846 2.81077 0
M  V30 1799 N 161.113 -0.173488 1.56642 0
M  V30 1800 C 162.061 -1.23417 1.97157 0
M  V30 1801 C 163.055 -1.45946 0.860013 0
M  V30 1802 O 164.261 -1.46551 1.04512 0
M  V30 1803 H 160.636 -0.414818 0.62724 0
M  V30 1804 H 162.607 -0.865582 2.8557 0
M  V30 1805 C 161.356 -2.5665 2.34576 0
M  V30 1806 H 160.679 -2.40137 3.19647 0
M  V30 1807 H 162.119 -3.2956 2.6677 0
M  V30 1808 C 160.578 -3.15245 1.18836 0
M  V30 1809 O 161.108 -3.98883 0.474869 0
M  V30 1810 N 159.314 -2.74303 0.959497 0
M  V30 1811 H 158.861 -2.0639 1.54146 0
M  V30 1812 H 158.819 -3.13844 0.186932 0
M  V30 1813 N 162.591 -1.51276 -0.441967 0
M  V30 1814 C 163.541 -1.6864 -1.53442 0
M  V30 1815 C 164.525 -0.540444 -1.51552 0
M  V30 1816 O 165.717 -0.796157 -1.58083 0
M  V30 1817 C 162.846 -1.8106 -2.91672 0
M  V30 1818 C 161.932 -3.01424 -2.98336 0
M  V30 1819 N 162.323 -4.2467 -2.74752 0
M  V30 1820 C 160.621 -3.00584 -3.29493 0
M  V30 1821 C 161.322 -5.05891 -2.87139 0
M  V30 1822 N 160.298 -4.40442 -3.18609 0
M  V30 1823 H 164.1 -2.61598 -1.33954 0
M  V30 1824 H 161.614 -1.4886 -0.6492 0
M  V30 1825 H 163.611 -1.91609 -3.70259 0
M  V30 1826 H 162.271 -0.892795 -3.12185 0
M  V30 1827 H 163.282 -4.53691 -2.49769 0
M  V30 1828 H 159.959 -2.18417 -3.55809 0
M  V30 1829 H 161.349 -6.13983 -2.72899 0
M  V30 1830 N 164.069 0.697108 -1.41344 0
M  V30 1831 C 165.317 1.45426 -1.40341 0
M  V30 1832 C 165.638 1.94996 -0.0128787 0
M  V30 1833 O 164.908 1.71599 0.945027 0
M  V30 1834 H 163.488 0.539594 -0.516573 0
M  V30 1835 H 166.15 0.825201 -1.76569 0
M  V30 1836 H 165.246 2.31817 -2.08967 0
M  V30 1837 N 165.547 1.27147 0.931209 0
M  V30 1838 C 166.963 1.04475 1.20653 0
M  V30 1839 C 167.163 -0.223885 2.00252 0
M  V30 1840 O 166.219 -0.930332 2.34736 0
M  V30 1841 C 167.532 2.28209 1.95809 0
M  V30 1842 C 169.08 2.33211 2.08762 0
M  V30 1843 C 169.555 3.56665 2.87323 0
M  V30 1844 N 171.046 3.57201 2.94892 0
M  V30 1845 C 171.781 4.49395 3.56134 0
M  V30 1846 N 171.277 5.51889 4.18796 0
M  V30 1847 N 173.07 4.37026 3.53504 0
M  V30 1848 H 165.221 2.08612 0.399333 0
M  V30 1849 H 167.484 0.917312 0.239253 0
M  V30 1850 H 167.19 3.20538 1.44736 0
M  V30 1851 H 167.064 2.33247 2.96438 0
M  V30 1852 H 169.451 1.41391 2.59023 0
M  V30 1853 H 169.532 2.32178 1.07364 0
M  V30 1854 H 169.176 4.4882 2.37746 0
M  V30 1855 H 169.106 3.54948 3.88998 0
M  V30 1856 H 171.597 2.83074 2.50354 0
M  V30 1857 H 171.91 6.18409 4.63454 0
M  V30 1858 H 170.255 5.55735 4.17353 0
M  V30 1859 H 173.446 3.56166 3.03749 0
M  V30 1860 H 173.619 5.09067 4.00942 0
M  V30 1861 N 167.025 -1.13721 1.09112 0
M  V30 1862 C 167.955 -2.21148 0.749385 0
M  V30 1863 C 168.936 -1.6792 -0.271475 0
M  V30 1864 O 170.121 -1.93693 -0.140251 0
M  V30 1865 C 167.251 -3.46905 0.165659 0
M  V30 1866 C 166.205 -4.13203 1.11567 0
M  V30 1867 C 165.531 -5.33248 0.393809 0
M  V30 1868 C 166.831 -4.60912 2.45678 0
M  V30 1869 H 168.525 -2.4999 1.64758 0
M  V30 1870 H 166.071 -1.20156 0.793626 0
M  V30 1871 H 168.024 -4.21313 -0.085466 0
M  V30 1872 H 166.748 -3.17449 -0.767714 0
M  V30 1873 H 165.407 -3.40758 1.35202 0
M  V30 1874 H 165.055 -5.00054 -0.543599 0
M  V30 1875 H 164.755 -5.78552 1.02721 0
M  V30 1876 H 166.279 -6.10413 0.150908 0
M  V30 1877 H 167.693 -5.26759 2.26269 0
M  V30 1878 H 166.09 -5.16944 3.04776 0
M  V30 1879 H 167.16 -3.75603 3.06677 0
M  V30 1880 N 168.503 -0.877838 -1.30888 0
M  V30 1881 C 169.451 -0.328662 -2.30266 0
M  V30 1882 C 170.445 0.560496 -1.59859 0
M  V30 1883 O 171.651 0.445722 -1.74394 0
M  V30 1884 H 168.026 -0.0876142 -0.746879 0
M  V30 1885 H 169.997 -1.18061 -2.74051 0
M  V30 1886 C 168.746 0.448071 -3.44801 0
M  V30 1887 H 168.069 -0.226859 -3.99156 0
M  V30 1888 H 169.509 0.797541 -4.16432 0
M  V30 1889 C 167.968 1.64239 -2.94155 0
M  V30 1890 O 168.498 2.74175 -2.93583 0
M  V30 1891 N 166.704 1.47716 -2.50256 0
M  V30 1892 H 166.251 0.582821 -2.5092 0
M  V30 1893 H 166.209 2.27765 -2.16727 0
M  V30 1894 N 169.982 1.44106 -0.638065 0
M  V30 1895 C 170.892 2.34513 0.0637334 0
M  V30 1896 C 171.908 1.53018 0.828346 0
M  V30 1897 O 173.084 1.85723 0.779036 0
M  V30 1898 C 170.149 3.31095 1.02844 0
M  V30 1899 C 169.21 4.28497 0.26244 0
M  V30 1900 C 168.443 5.20465 1.1812 0
M  V30 1901 O 168.666 5.16514 2.42011 0
M  V30 1902 O 167.6 5.98251 0.661774 0
M  V30 1903 H 171.426 2.95989 -0.68003 0
M  V30 1904 H 169.011 1.43994 -0.398252 0
M  V30 1905 H 170.893 3.90526 1.58327 0
M  V30 1906 H 169.568 2.72144 1.7527 0
M  V30 1907 H 168.475 3.72592 -0.335602 0
M  V30 1908 H 169.808 4.90388 -0.421936 0
M  V30 1909 N 171.46 0.379036 1.52974 0
M  V30 1910 C 172.685 -0.209353 2.06341 0
M  V30 1911 C 173.11 -1.40583 1.24972 0
M  V30 1912 O 172.468 -1.79246 0.272155 0
M  V30 1913 C 172.516 -0.567786 3.56102 0
M  V30 1914 O 171.62 -1.66318 3.77375 0
M  V30 1915 H 170.961 -0.0272919 0.663439 0
M  V30 1916 H 173.491 0.543536 1.97248 0
M  V30 1917 H 173.501 -0.835003 3.99364 0
M  V30 1918 H 172.176 0.307013 4.14765 0
M  V30 1919 H 170.753 -1.39048 3.46006 0
M  V30 1920 N 172.938 -1.57226 0.108567 0
M  V30 1921 C 173.848 -2.18292 -0.859401 0
M  V30 1922 C 174.864 -1.15612 -1.30038 0
M  V30 1923 O 176.04 -1.48039 -1.36552 0
M  V30 1924 C 173.105 -2.762 -2.09558 0
M  V30 1925 C 172.166 -3.93881 -1.70752 0
M  V30 1926 C 171.399 -4.49018 -2.88477 0
M  V30 1927 O 171.622 -4.03068 -4.036 0
M  V30 1928 O 170.556 -5.39852 -2.66164 0
M  V30 1929 H 174.382 -3.01441 -0.369769 0
M  V30 1930 H 171.967 -1.48945 -0.1165 0
M  V30 1931 H 173.849 -3.13156 -2.81978 0
M  V30 1932 H 172.524 -1.96089 -2.57548 0
M  V30 1933 H 171.431 -3.61713 -0.954714 0
M  V30 1934 H 172.764 -4.75396 -1.27513 0
M  V30 1935 N 174.416 0.165178 -1.56732 0
M  V30 1936 C 175.379 1.18822 -1.95995 0
M  V30 1937 C 176.379 1.3685 -0.84431 0
M  V30 1938 O 177.569 1.34152 -1.11126 0
M  V30 1939 C 174.701 2.5521 -2.26011 0
M  V30 1940 H 175.894 0.851825 -2.87548 0
M  V30 1941 H 173.447 0.407857 -1.50885 0
M  V30 1942 H 174.182 2.93852 -1.37191 0
M  V30 1943 H 173.967 2.43489 -3.07336 0
M  V30 1944 H 175.457 3.28927 -2.57288 0
M  V30 1945 N 175.894 1.51508 0.433938 0
M  V30 1946 C 177.31 1.39759 0.770682 0
M  V30 1947 C 177.51 0.482594 1.95636 0
M  V30 1948 O 176.566 -0.0609691 2.52426 0
M  V30 1949 C 177.879 2.81851 1.04787 0
M  V30 1950 C 179.427 2.91025 1.1521 0
M  V30 1951 C 179.902 4.34032 1.46219 0
M  V30 1952 N 181.393 4.37154 1.53136 0
M  V30 1953 C 182.128 5.4484 1.78709 0
M  V30 1954 N 181.624 6.62682 2.02051 0
M  V30 1955 N 183.417 5.32324 1.80519 0
M  V30 1956 H 175.568 2.09548 -0.346892 0
M  V30 1957 H 177.831 0.943446 -0.0928074 0
M  V30 1958 H 177.537 3.50815 0.249304 0
M  V30 1959 H 177.411 3.21386 1.97461 0
M  V30 1960 H 179.798 2.22257 1.94128 0
M  V30 1961 H 179.879 2.54983 0.204281 0
M  V30 1962 H 179.523 5.03351 0.678274 0
M  V30 1963 H 179.453 4.6759 2.42212 0
M  V30 1964 H 181.944 3.52197 1.36987 0
M  V30 1965 H 182.257 7.40543 2.20943 0
M  V30 1966 H 180.602 6.65791 1.99366 0
M  V30 1967 H 183.793 4.39246 1.61805 0
M  V30 1968 H 183.966 6.16328 2.00111 0
M  V30 1969 N 177.372 -0.689602 1.41712 0
M  V30 1970 C 178.788 -1.00093 1.24312 0
M  V30 1971 C 178.988 -2.01036 0.136729 0
M  V30 1972 O 178.044 -2.47562 -0.496918 0
M  V30 1973 C 179.357 -1.51985 2.59463 0
M  V30 1974 C 180.905 -1.63838 2.66695 0
M  V30 1975 C 181.38 -2.1913 4.02177 0
M  V30 1976 N 182.871 -2.26483 4.04054 0
M  V30 1977 C 183.606 -2.70306 5.0569 0
M  V30 1978 N 183.102 -3.13691 6.17713 0
M  V30 1979 N 184.895 -2.69923 4.9305 0
M  V30 1980 H 177.046 -0.0210029 2.1239 0
M  V30 1981 H 179.309 -0.0718733 0.945272 0
M  V30 1982 H 179.015 -0.85269 3.41207 0
M  V30 1983 H 178.889 -2.50103 2.82362 0
M  V30 1984 H 181.276 -2.29664 1.85306 0
M  V30 1985 H 181.357 -0.642492 2.476 0
M  V30 1986 H 181.001 -1.53918 4.84016 0
M  V30 1987 H 180.931 -3.19482 4.18615 0
M  V30 1988 H 183.422 -1.95874 3.23174 0
M  V30 1989 H 183.735 -3.45773 6.9113 0
M  V30 1990 H 182.08 -3.11585 6.21241 0
M  V30 1991 H 185.271 -2.35382 4.04614 0
M  V30 1992 H 185.444 -3.03758 5.72394 0
M  V30 1993 N 178.85 -1.27639 -0.924453 0
M  V30 1994 C 179.797 -1.10644 -2.0255 0
M  V30 1995 C 180.767 -0.00658438 -1.66099 0
M  V30 1996 O 181.952 -0.16952 -1.90045 0
M  V30 1997 C 179.092 -0.76309 -3.36557 0
M  V30 1998 C 178.205 -1.94091 -3.85944 0
M  V30 1999 C 177.34 -1.53914 -5.08413 0
M  V30 2000 C 176.379 -2.68425 -5.50104 0
M  V30 2001 N 175.516 -2.28815 -6.63768 0
M  V30 2002 H 180.356 -2.04858 -2.16419 0
M  V30 2003 H 177.893 -1.01974 -1.06017 0
M  V30 2004 H 179.851 -0.544822 -4.13627 0
M  V30 2005 H 178.481 0.142102 -3.22487 0
M  V30 2006 H 177.533 -2.27162 -3.05125 0
M  V30 2007 H 178.845 -2.7998 -4.12811 0
M  V30 2008 H 177.999 -1.28231 -5.92994 0
M  V30 2009 H 176.738 -0.651391 -4.8333 0
M  V30 2010 H 175.743 -2.94819 -4.64071 0
M  V30 2011 H 176.968 -3.57826 -5.7718 0
M  V30 2012 H 174.914 -1.42495 -6.40337 0
M  V30 2013 H 174.831 -3.08242 -6.90306 0
M  V30 2014 H 176.099 -2.06387 -7.51681 0
M  V30 2015 N 180.328 1.1314 -1.09713 0
M  V30 2016 C 181.575 1.84484 -0.834987 0
M  V30 2017 C 181.903 1.83689 0.639418 0
M  V30 2018 O 181.158 1.2724 1.4869 0
M  V30 2019 C 181.457 3.32167 -1.3191 0
M  V30 2020 C 181.123 3.53139 -2.80363 0
M  V30 2021 C 179.785 3.58571 -3.20905 0
M  V30 2022 C 182.137 3.60866 -3.76065 0
M  V30 2023 C 179.465 3.69267 -4.55916 0
M  V30 2024 C 181.817 3.73089 -5.10869 0
M  V30 2025 C 180.481 3.76775 -5.50996 0
M  V30 2026 H 179.751 0.675073 -0.305544 0
M  V30 2027 H 182.398 1.33554 -1.37243 0
M  V30 2028 H 180.703 3.85469 -0.701517 0
M  V30 2029 H 182.4 3.85821 -1.09284 0
M  V30 2030 H 178.99 3.49569 -2.47991 0
M  V30 2031 H 183.174 3.55946 -3.45855 0
M  V30 2032 H 178.43 3.70388 -4.86438 0
M  V30 2033 H 182.604 3.78011 -5.84877 0
M  V30 2034 H 180.231 3.84815 -6.55608 0
M  V30 2035 N 181.806 0.884767 1.30421 0
M  V30 2036 C 183.052 0.513218 1.96819 0
M  V30 2037 C 183.407 -0.927347 1.68577 0
M  V30 2038 O 182.7 -1.64644 0.979941 0
M  V30 2039 C 182.894 0.724318 3.49983 0
M  V30 2040 C 182.723 2.18385 3.93113 0
M  V30 2041 C 181.493 2.82839 4.18725 0
M  V30 2042 C 183.691 3.15763 4.05953 0
M  V30 2043 N 181.673 4.1939 4.48314 0
M  V30 2044 C 183.044 4.37387 4.39423 0
M  V30 2045 C 185.099 3.11555 3.88379 0
M  V30 2046 C 183.802 5.55343 4.5715 0
M  V30 2047 C 185.828 4.28782 4.07308 0
M  V30 2048 C 185.19 5.49172 4.41123 0
M  V30 2049 H 181.289 0.237123 0.745182 0
M  V30 2050 H 183.873 1.14246 1.57658 0
M  V30 2051 H 182.044 0.124565 3.882 0
M  V30 2052 H 183.776 0.31969 4.03435 0
M  V30 2053 H 180.531 2.33708 4.11919 0
M  V30 2054 H 180.955 4.89911 4.67243 0
M  V30 2055 H 185.597 2.19576 3.61312 0
M  V30 2056 H 183.315 6.47826 4.8306 0
M  V30 2057 H 186.901 4.26995 3.95179 0
M  V30 2058 H 185.781 6.38371 4.55469 0
M  V30 2059 N 183.284 -1.43765 0.645699 0
M  V30 2060 C 184.216 -2.29027 -0.0890605 0
M  V30 2061 C 185.229 -1.42093 -0.794563 0
M  V30 2062 O 186.418 -1.66104 -0.653575 0
M  V30 2063 C 183.518 -3.18831 -1.14891 0
M  V30 2064 C 182.691 -4.34261 -0.523043 0
M  V30 2065 C 181.75 -5.04994 -1.47878 0
M  V30 2066 O 180.776 -5.6052 -0.990277 0
M  V30 2067 N 181.978 -5.07795 -2.81291 0
M  V30 2068 H 184.743 -2.92727 0.64272 0
M  V30 2069 H 182.304 -1.54373 0.487924 0
M  V30 2070 H 184.296 -3.63015 -1.78892 0
M  V30 2071 H 182.866 -2.56782 -1.78275 0
M  V30 2072 H 182.086 -3.93088 0.295896 0
M  V30 2073 H 183.374 -5.08728 -0.0858147 0
M  V30 2074 H 182.772 -4.64042 -3.23546 0
M  V30 2075 H 181.329 -5.55721 -3.40614 0
M  V30 2076 N 184.763 -0.387143 -1.52771 0
M  V30 2077 C 186.012 0.19697 -2.00736 0
M  V30 2078 C 186.325 1.48082 -1.27793 0
M  V30 2079 O 187.531 2.14485 -1.66458 0
M  V30 2080 C 185.987 0.401568 -3.57653 0
M  V30 2081 C 185.595 -0.868907 -4.39493 0
M  V30 2082 C 187.339 0.942164 -4.13912 0
M  V30 2083 C 185.246 -0.632705 -5.88006 0
M  V30 2084 H 184.176 0.0773827 -0.750019 0
M  V30 2085 H 186.827 -0.50921 -1.76293 0
M  V30 2086 H 185.209 1.16954 -3.78335 0
M  V30 2087 H 186.383 -1.64133 -4.30577 0
M  V30 2088 H 184.698 -1.33429 -3.94443 0
M  V30 2089 H 187.295 1.13455 -5.22525 0
M  V30 2090 H 187.638 1.9106 -3.69867 0
M  V30 2091 H 188.171 0.233814 -3.97112 0
M  V30 2092 H 184.91 -1.57208 -6.36369 0
M  V30 2093 H 184.43 0.100825 -5.99715 0
M  V30 2094 H 186.109 -0.26642 -6.46451 0
M  V30 2095 N 186.241 1.57166 -0.116904 0
M  V30 2096 C 187.171 2.18222 0.830759 0
M  V30 2097 C 188.152 1.12167 1.27877 0
M  V30 2098 O 189.337 1.40394 1.34176 0
M  V30 2099 C 186.467 2.77996 2.08172 0
M  V30 2100 C 185.421 3.89614 1.77157 0
M  V30 2101 C 184.747 4.36187 3.09265 0
M  V30 2102 C 186.047 5.1181 1.04151 0
M  V30 2103 H 187.741 2.97664 0.321992 0
M  V30 2104 H 185.287 1.4318 0.153434 0
M  V30 2105 H 187.24 3.19366 2.74924 0
M  V30 2106 H 185.964 1.9584 2.6137 0
M  V30 2107 H 184.623 3.48816 1.12796 0
M  V30 2108 H 184.271 3.50893 3.60393 0
M  V30 2109 H 183.971 5.11455 2.89288 0
M  V30 2110 H 185.495 4.80207 3.77139 0
M  V30 2111 H 186.909 5.50214 1.61052 0
M  V30 2112 H 185.306 5.92648 0.942762 0
M  V30 2113 H 186.376 4.84892 0.0279022 0
M  V30 2114 N 187.719 -0.156864 1.56817 0
M  V30 2115 C 188.944 -0.890331 1.87318 0
M  V30 2116 C 189.369 -1.74394 0.704855 0
M  V30 2117 O 188.727 -1.77972 -0.345786 0
M  V30 2118 C 188.775 -1.73102 3.16336 0
M  V30 2119 O 187.879 -2.83422 2.99576 0
M  V30 2120 H 187.22 -0.24857 0.615718 0
M  V30 2121 H 189.75 -0.150649 2.04045 0
M  V30 2122 H 189.76 -2.12803 3.48107 0
M  V30 2123 H 188.435 -1.10412 4.00976 0
M  V30 2124 H 187.012 -2.47199 2.7919 0
M  V30 2125 N 189.197 -1.51736 -0.425897 0
M  V30 2126 C 190.16 -1.73271 -1.50032 0
M  V30 2127 C 191.16 -0.602639 -1.4908 0
M  V30 2128 O 192.35 -0.87033 -1.509 0
M  V30 2129 C 189.482 -1.79969 -2.89523 0
M  V30 2130 H 190.675 -2.69172 -1.32237 0
M  V30 2131 H 188.228 -1.41899 -0.65532 0
M  V30 2132 H 188.963 -0.859241 -3.1271 0
M  V30 2133 H 188.748 -2.62109 -2.91619 0
M  V30 2134 H 190.238 -1.9843 -3.67444 0
M  V30 2135 N 190.675 0.682077 -1.42076 0
M  V30 2136 C 191.921 1.44428 -1.42367 0
M  V30 2137 C 192.254 1.94164 -0.0373056 0
M  V30 2138 O 191.529 1.70429 0.937239 0
M  V30 2139 C 191.812 2.64654 -2.44194 0
M  V30 2140 C 191.665 2.20596 -3.91991 0
M  V30 2141 C 192.984 3.66865 -2.431 0
M  V30 2142 H 190.103 0.523834 -0.518428 0
M  V30 2143 H 192.745 0.77576 -1.73442 0
M  V30 2144 H 190.895 3.2169 -2.17826 0
M  V30 2145 H 192.567 1.68783 -4.29313 0
M  V30 2146 H 190.81 1.52242 -4.06208 0
M  V30 2147 H 191.481 3.06921 -4.58807 0
M  V30 2148 H 193.957 3.19531 -2.66532 0
M  V30 2149 H 192.833 4.48577 -3.16339 0
M  V30 2150 H 193.094 4.17493 -1.45437 0
M  V30 2151 N 192.153 1.28127 0.917671 0
M  V30 2152 C 193.43 1.05761 1.64542 0
M  V30 2153 C 193.81 -0.404344 2.07191 0
M  V30 2154 O 193.158 -1.38963 1.81388 0
M  V30 2155 C 193.368 2.02857 2.83989 0
M  V30 2156 C 194.716 2.32786 3.551 0
M  V30 2157 O 195.74 2.0091 2.94132 0
M  V30 2158 O 194.599 2.87169 4.64969 0
M  V30 2159 H 191.693 0.403916 0.721652 0
M  V30 2160 H 194.239 1.39431 0.967322 0
M  V30 2161 H 193.011 3.01407 2.49538 0
M  V30 2162 H 192.634 1.69809 3.59514 0
M  V30 2163 N 193.631 -1.12557 1.10312 0
M  V30 2164 C 194.861 -1.87592 0.865617 0
M  V30 2165 C 195.269 -1.79851 -0.587389 0
M  V30 2166 O 194.612 -1.16949 -1.41664 0
M  V30 2167 C 194.674 -3.37665 1.23381 0
M  V30 2168 C 194.338 -3.69181 2.69359 0
M  V30 2169 C 195.335 -3.67652 3.67597 0
M  V30 2170 C 193.02 -3.98555 3.05711 0
M  V30 2171 C 195.014 -3.95053 5.00212 0
M  V30 2172 C 192.701 -4.25616 4.38514 0
M  V30 2173 C 193.699 -4.23851 5.35574 0
M  V30 2174 O 193.387 -4.50242 6.65986 0
M  V30 2175 H 193.119 -0.600442 0.310557 0
M  V30 2176 H 195.673 -1.4335 1.47105 0
M  V30 2177 H 193.903 -3.82454 0.571467 0
M  V30 2178 H 195.592 -3.94041 0.973994 0
M  V30 2179 H 196.358 -3.45024 3.40857 0
M  V30 2180 H 192.237 -3.99071 2.30789 0
M  V30 2181 H 195.781 -3.93591 5.75962 0
M  V30 2182 H 191.678 -4.47718 4.64994 0
M  V30 2183 H 192.446 -4.67867 6.71597 0
M  V30 2184 N 195.109 -0.891671 -1.2995 0
M  V30 2185 C 196.349 -0.520296 -1.97667 0
M  V30 2186 C 196.713 0.914797 -1.68806 0
M  V30 2187 O 197.914 1.39263 -2.29911 0
M  V30 2188 C 196.185 -0.795222 -3.48441 0
M  V30 2189 S 197.744 -0.526953 -4.35624 0
M  V30 2190 H 194.562 -0.19333 -0.684211 0
M  V30 2191 H 197.164 -1.15238 -1.57926 0
M  V30 2192 H 195.868 -1.83805 -3.66938 0
M  V30 2193 H 195.399 -0.15095 -3.9311 0
M  V30 2194 H 197.414 0.631533 -4.92165 0
M  V30 2195 N 196.587 1.43421 -0.653314 0
M  V30 2196 C 197.537 2.2792 0.060558 0
M  V30 2197 C 198.521 1.39906 0.794677 0
M  V30 2198 O 199.713 1.63536 0.677128 0
M  V30 2199 C 196.842 3.27603 1.0262 0
M  V30 2200 C 195.928 4.23104 0.290551 0
M  V30 2201 N 196.319 5.01031 -0.692967 0
M  V30 2202 C 194.617 4.42816 0.531984 0
M  V30 2203 C 195.318 5.70626 -1.12963 0
M  V30 2204 N 194.294 5.41617 -0.463867 0
M  V30 2205 H 198.096 2.85585 -0.694143 0
M  V30 2206 H 195.61 1.55126 -0.480602 0
M  V30 2207 H 197.607 3.86918 1.55242 0
M  V30 2208 H 196.267 2.71499 1.78096 0
M  V30 2209 H 197.278 5.0669 -1.07169 0
M  V30 2210 H 193.955 3.97782 1.26791 0
M  V30 2211 H 195.345 6.4318 -1.94343 0
M  V30 2212 N 198.065 0.39524 1.52563 0
M  V30 2213 C 199.313 -0.184678 2.01254 0
M  V30 2214 C 199.634 -1.46822 1.28329 0
M  V30 2215 O 198.904 -1.91666 0.405094 0
M  V30 2216 H 197.484 -0.0712355 0.743596 0
M  V30 2217 H 200.146 0.528293 1.87603 0
M  V30 2218 H 199.242 -0.390681 3.09645 0
M  V30 2219 N 199.544 -1.57102 0.125237 0
M  V30 2220 C 200.96 -1.57915 -0.231322 0
M  V30 2221 C 201.16 -1.13833 -1.66266 0
M  V30 2222 O 200.216 -0.828581 -2.38518 0
M  V30 2223 C 201.529 -3.00699 0.00766489 0
M  V30 2224 C 203.077 -3.12947 -0.0577483 0
M  V30 2225 C 203.552 -4.57742 0.153626 0
M  V30 2226 N 205.043 -4.63092 0.0998073 0
M  V30 2227 C 205.778 -5.72905 0.238174 0
M  V30 2228 N 205.274 -6.91445 0.433057 0
M  V30 2229 N 207.067 -5.6182 0.177308 0
M  V30 2230 H 199.218 -1.84055 1.06007 0
M  V30 2231 H 201.481 -0.850905 0.417929 0
M  V30 2232 H 201.187 -3.3726 0.997431 0
M  V30 2233 H 201.061 -3.70236 -0.721452 0
M  V30 2234 H 203.448 -2.7624 -1.03804 0
M  V30 2235 H 203.529 -2.4594 0.70335 0
M  V30 2236 H 203.173 -4.95149 1.13092 0
M  V30 2237 H 203.103 -5.22848 -0.627534 0
M  V30 2238 H 205.594 -3.77871 -0.047051 0
M  V30 2239 H 205.907 -7.70985 0.529332 0
M  V30 2240 H 204.252 -6.93415 0.469109 0
M  V30 2241 H 207.443 -4.68093 0.0259748 0
M  V30 2242 H 207.616 -6.47357 0.288582 0
M  V30 2243 N 201.022 0.148545 -1.56898 0
M  V30 2244 C 201.969 1.18345 -1.98149 0
M  V30 2245 C 202.939 1.42772 -0.848848 0
M  V30 2246 O 204.124 1.55132 -1.11079 0
M  V30 2247 C 201.264 2.51231 -2.36594 0
M  V30 2248 C 200.377 2.33991 -3.63142 0
M  V30 2249 C 199.512 3.59902 -3.90697 0
M  V30 2250 C 198.551 3.37692 -5.1052 0
M  V30 2251 N 197.688 4.5573 -5.34092 0
M  V30 2252 H 202.528 0.82467 -2.86362 0
M  V30 2253 H 200.065 0.395756 -1.41676 0
M  V30 2254 H 202.023 3.28713 -2.56912 0
M  V30 2255 H 200.653 2.85059 -1.51463 0
M  V30 2256 H 199.705 1.47572 -3.50609 0
M  V30 2257 H 201.017 2.13539 -4.5078 0
M  V30 2258 H 200.171 4.45813 -4.11505 0
M  V30 2259 H 198.91 3.83357 -3.01477 0
M  V30 2260 H 197.915 2.5017 -4.89587 0
M  V30 2261 H 199.14 3.15637 -6.0129 0
M  V30 2262 H 197.086 4.79361 -4.47827 0
M  V30 2263 H 197.003 4.38274 -6.15996 0
M  V30 2264 H 198.271 5.42858 -5.59397 0
M  V30 2265 N 202.5 1.5196 0.417844 0
M  V30 2266 C 203.749 1.6482 1.16264 0
M  V30 2267 C 204.062 0.379886 1.91876 0
M  V30 2268 O 205.268 0.388154 2.68711 0
M  V30 2269 C 203.724 2.91161 2.1155 0
M  V30 2270 C 203.332 4.25068 1.41495 0
M  V30 2271 C 205.076 3.13383 2.86341 0
M  V30 2272 C 202.983 5.42541 2.35379 0
M  V30 2273 H 201.913 0.613954 0.437694 0
M  V30 2274 H 204.564 1.78442 0.427871 0
M  V30 2275 H 202.946 2.71218 2.88543 0
M  V30 2276 H 204.12 4.55463 0.699263 0
M  V30 2277 H 202.435 4.0888 0.787792 0
M  V30 2278 H 205.032 3.98324 3.5671 0
M  V30 2279 H 205.375 2.27256 3.48798 0
M  V30 2280 H 205.908 3.33757 2.1645 0
M  V30 2281 H 202.647 6.30987 1.77582 0
M  V30 2282 H 202.167 5.16497 3.04945 0
M  V30 2283 H 203.846 5.75272 2.96093 0
M  V30 2284 N 203.978 -0.674533 1.42435 0
M  V30 2285 C 205.224 -1.43671 1.43131 0
M  V30 2286 C 205.557 -1.94142 0.0476021 0
M  V30 2287 O 204.832 -1.70924 -0.928188 0
M  V30 2288 C 205.115 -2.63355 2.45594 0
M  V30 2289 C 204.968 -2.18514 3.93156 0
M  V30 2290 C 206.287 -3.65571 2.45043 0
M  V30 2291 H 203.406 -0.521077 0.521198 0
M  V30 2292 H 206.048 -0.766551 1.7385 0
M  V30 2293 H 204.198 -3.2053 2.19528 0
M  V30 2294 H 205.87 -1.66504 4.30202 0
M  V30 2295 H 204.113 -1.50086 4.07009 0
M  V30 2296 H 204.784 -3.04484 4.60428 0
M  V30 2297 H 207.26 -3.18113 2.68223 0
M  V30 2298 H 206.136 -4.46893 3.18713 0
M  V30 2299 H 206.397 -4.16716 1.47649 0
M  V30 2300 N 205.456 -1.28612 -0.910864 0
M  V30 2301 C 206.406 -1.09423 -2.00026 0
M  V30 2302 C 207.39 -0.0170079 -1.60891 0
M  V30 2303 O 208.582 -0.237472 -1.754 0
M  V30 2304 C 205.711 -0.76114 -3.34756 0
M  V30 2305 C 204.797 -1.87735 -3.80285 0
M  V30 2306 N 205.188 -3.11938 -3.98156 0
M  V30 2307 C 203.486 -1.76786 -4.09467 0
M  V30 2308 C 204.187 -3.84687 -4.36338 0
M  V30 2309 N 203.163 -3.12555 -4.44759 0
M  V30 2310 H 206.965 -2.03658 -2.11898 0
M  V30 2311 H 204.479 -1.19573 -1.09891 0
M  V30 2312 H 206.476 -0.604743 -4.12491 0
M  V30 2313 H 205.136 0.173403 -3.24237 0
M  V30 2314 H 206.147 -3.47516 -3.83996 0
M  V30 2315 H 202.824 -0.905284 -4.07567 0
M  V30 2316 H 204.214 -4.91518 -4.58104 0
M  V30 2317 N 206.934 1.1197 -1.10907 0
M  V30 2318 C 208.35 1.35591 -0.841852 0
M  V30 2319 C 208.55 1.94233 0.536246 0
M  V30 2320 O 207.606 2.1717 1.28816 0
M  V30 2321 C 208.919 2.29284 -1.94549 0
M  V30 2322 C 210.467 2.42862 -1.97451 0
M  V30 2323 C 210.942 3.39873 -3.07002 0
M  V30 2324 N 212.433 3.47433 -3.06341 0
M  V30 2325 C 213.168 4.22421 -3.87748 0
M  V30 2326 N 212.664 5.00432 -4.79103 0
M  V30 2327 N 214.457 4.17876 -3.75946 0
M  V30 2328 H 206.608 0.722664 -1.99728 0
M  V30 2329 H 208.871 0.380635 -0.868229 0
M  V30 2330 H 208.577 1.93378 -2.93765 0
M  V30 2331 H 208.451 3.29452 -1.83688 0
M  V30 2332 H 210.838 2.78046 -0.988645 0
M  V30 2333 H 210.919 1.42566 -2.12388 0
M  V30 2334 H 210.563 3.05417 -4.05811 0
M  V30 2335 H 210.493 4.40011 -2.89306 0
M  V30 2336 H 212.984 2.91784 -2.40147 0
M  V30 2337 H 213.297 5.55002 -5.37766 0
M  V30 2338 H 211.642 4.99612 -4.83128 0
M  V30 2339 H 214.833 3.56016 -3.03924 0
M  V30 2340 H 215.006 4.76061 -4.39624 0
M  V30 2341 N 208.412 0.89855 1.29475 0
M  V30 2342 C 209.689 0.443416 1.90508 0
M  V30 2343 C 210.069 -1.07685 1.81569 0
M  V30 2344 O 209.417 -1.9182 1.24166 0
M  V30 2345 C 209.627 0.956708 3.35631 0
M  V30 2346 C 210.975 0.999728 4.12663 0
M  V30 2347 O 211.999 0.904299 3.4453 0
M  V30 2348 O 210.858 1.14289 5.34416 0
M  V30 2349 H 207.952 0.138025 0.815401 0
M  V30 2350 H 210.498 0.98834 1.37949 0
M  V30 2351 H 209.27 2.00067 3.36287 0
M  V30 2352 H 208.893 0.391728 3.95666 0
M  V30 2353 N 209.89 -1.43072 0.660911 0
M  V30 2354 C 210.82 -2.33497 -0.0122829 0
M  V30 2355 C 211.801 -1.49903 -0.803925 0
M  V30 2356 O 212.986 -1.78546 -0.763864 0
M  V30 2357 C 210.116 -3.33363 -0.973994 0
M  V30 2358 C 209.07 -4.27003 -0.291928 0
M  V30 2359 C 208.396 -5.16967 -1.36562 0
M  V30 2360 C 209.696 -5.15816 0.820462 0
M  V30 2361 H 211.39 -2.90038 0.742873 0
M  V30 2362 H 208.936 -1.39461 0.358688 0
M  V30 2363 H 210.889 -3.95524 -1.45392 0
M  V30 2364 H 209.613 -2.75095 -1.7604 0
M  V30 2365 H 208.272 -3.66217 0.167623 0
M  V30 2366 H 207.92 -4.55034 -2.14366 0
M  V30 2367 H 207.62 -5.80441 -0.914454 0
M  V30 2368 H 209.144 -5.82003 -1.84675 0
M  V30 2369 H 210.558 -5.71742 0.422366 0
M  V30 2370 H 208.955 -5.8805 1.19656 0
M  V30 2371 H 210.025 -4.55045 1.67518 0
M  V30 2372 N 211.368 -0.403325 -1.52352 0
M  V30 2373 C 212.315 0.425011 -2.26853 0
M  V30 2374 C 213.285 1.04598 -1.29029 0
M  V30 2375 O 214.47 1.07135 -1.57882 0
M  V30 2376 C 211.61 1.53888 -3.08889 0
M  V30 2377 C 210.723 0.939396 -4.21663 0
M  V30 2378 C 209.858 2.02547 -4.91068 0
M  V30 2379 C 208.897 1.40263 -5.95813 0
M  V30 2380 N 208.034 2.4286 -6.58759 0
M  V30 2381 H 212.874 -0.21674 -2.97211 0
M  V30 2382 H 210.411 -0.118722 -1.4662 0
M  V30 2383 H 212.369 2.19558 -3.54753 0
M  V30 2384 H 210.999 2.15074 -2.40714 0
M  V30 2385 H 210.051 0.171898 -3.80011 0
M  V30 2386 H 211.363 0.44436 -4.96817 0
M  V30 2387 H 210.517 2.75958 -5.40308 0
M  V30 2388 H 209.256 2.55415 -4.15469 0
M  V30 2389 H 208.261 0.653833 -5.45898 0
M  V30 2390 H 209.486 0.881719 -6.73352 0
M  V30 2391 H 207.432 2.94871 -5.85992 0
M  V30 2392 H 207.349 1.98152 -7.2957 0
M  V30 2393 H 208.617 3.15858 -7.12639 0
M  V30 2394 N 212.846 1.57033 -0.133567 0
M  V30 2395 C 213.809 2.14897 0.796995 0
M  V30 2396 C 214.809 1.0874 1.18458 0
M  V30 2397 O 215.999 1.34446 1.1077 0
M  V30 2398 C 213.131 2.70112 2.07973 0
M  V30 2399 H 214.324 2.98457 0.293873 0
M  V30 2400 H 211.877 1.55871 0.115787 0
M  V30 2401 H 212.612 1.9018 2.62682 0
M  V30 2402 H 212.397 3.47764 1.81115 0
M  V30 2403 H 213.887 3.14738 2.74462 0
M  V30 2404 N 214.325 -0.140222 1.56975 0
M  V30 2405 C 215.235 -1.19223 2.02047 0
M  V30 2406 C 216.251 -1.46612 0.937062 0
M  V30 2407 O 217.427 -1.58148 1.24704 0
M  V30 2408 C 214.492 -2.50414 2.39778 0
M  V30 2409 C 213.553 -2.30612 3.621 0
M  V30 2410 C 212.786 -3.55547 3.98023 0
M  V30 2411 O 213.009 -4.62004 3.34528 0
M  V30 2412 O 211.943 -3.47808 4.91237 0
M  V30 2413 H 215.769 -0.839559 2.91865 0
M  V30 2414 H 213.354 -0.349453 1.45256 0
M  V30 2415 H 215.236 -3.27747 2.64877 0
M  V30 2416 H 213.911 -2.85198 1.53114 0
M  V30 2417 H 212.818 -1.51207 3.4218 0
M  V30 2418 H 214.151 -2.00741 4.49404 0
M  V30 2419 N 215.803 -1.52179 -0.40978 0
M  V30 2420 C 216.751 -1.76086 -1.51975 0
M  V30 2421 C 217.745 -0.627964 -1.57331 0
M  V30 2422 O 218.951 -0.809993 -1.60745 0
M  V30 2423 H 215.326 -0.556829 -0.505416 0
M  V30 2424 H 217.297 -2.69077 -1.28996 0
M  V30 2425 C 216.046 -1.92799 -2.8935 0
M  V30 2426 H 215.369 -2.79392 -2.85972 0
M  V30 2427 H 216.809 -2.13527 -3.66309 0
M  V30 2428 C 215.268 -0.694923 -3.29655 0
M  V30 2429 O 215.798 0.13751 -4.01465 0
M  V30 2430 N 214.004 -0.53101 -2.85707 0
M  V30 2431 H 213.551 -1.20952 -2.27439 0
M  V30 2432 H 213.509 0.292718 -3.13034 0
M  V30 2433 N 217.281 0.66697 -1.42791 0
M  V30 2434 C 218.211 1.79218 -1.49677 0
M  V30 2435 C 219.192 1.66405 -0.352623 0
M  V30 2436 O 220.377 1.85708 -0.567993 0
M  V30 2437 C 217.507 3.17565 -1.40605 0
M  V30 2438 C 216.461 3.45124 -2.53127 0
M  V30 2439 C 215.787 4.83127 -2.29112 0
M  V30 2440 C 217.087 3.41236 -3.95418 0
M  V30 2441 H 218.781 1.73713 -2.43853 0
M  V30 2442 H 216.327 0.83432 -1.17367 0
M  V30 2443 H 218.28 3.96022 -1.44029 0
M  V30 2444 H 217.004 3.23767 -0.429271 0
M  V30 2445 H 215.663 2.69031 -2.49034 0
M  V30 2446 H 215.311 4.85988 -1.29709 0
M  V30 2447 H 215.011 5.02528 -3.04531 0
M  V30 2448 H 216.535 5.63859 -2.34297 0
M  V30 2449 H 217.949 4.09651 -4.01073 0
M  V30 2450 H 216.346 3.72173 -4.70752 0
M  V30 2451 H 217.416 2.39665 -4.21532 0
M  V30 2452 N 218.759 1.29093 0.90403 0
M  V30 2453 C 219.689 1.16401 2.02418 0
M  V30 2454 C 220.67 0.0593085 1.69997 0
M  V30 2455 O 221.855 0.238021 1.92736 0
M  V30 2456 C 218.985 0.835233 3.37107 0
M  V30 2457 C 217.939 1.89578 3.83724 0
M  V30 2458 C 217.265 1.42041 5.15489 0
M  V30 2459 C 218.565 3.30394 4.04521 0
M  V30 2460 H 220.259 2.10109 2.13295 0
M  V30 2461 H 217.805 1.01157 1.02486 0
M  V30 2462 H 219.758 0.733169 4.14973 0
M  V30 2463 H 218.482 -0.137543 3.2631 0
M  V30 2464 H 217.141 1.98715 3.08071 0
M  V30 2465 H 216.789 0.436426 5.01103 0
M  V30 2466 H 216.489 2.12964 5.4765 0
M  V30 2467 H 218.013 1.33176 5.959 0
M  V30 2468 H 219.427 3.24123 4.72882 0
M  V30 2469 H 217.824 3.99237 4.48029 0
M  V30 2470 H 218.894 3.73692 3.09002 0
M  V30 2471 N 220.237 -1.11381 1.11499 0
M  V30 2472 C 221.167 -2.19509 0.796125 0
M  V30 2473 C 222.148 -1.68458 -0.235796 0
M  V30 2474 O 223.333 -1.93947 -0.0991344 0
M  V30 2475 C 220.463 -3.46475 0.239205 0
M  V30 2476 C 219.417 -4.10744 1.20307 0
M  V30 2477 C 218.743 -5.32293 0.50683 0
M  V30 2478 C 220.043 -4.55597 2.55399 0
M  V30 2479 H 221.737 -2.46439 1.70024 0
M  V30 2480 H 219.283 -1.18446 0.818935 0
M  V30 2481 H 221.236 -4.214 0.00392006 0
M  V30 2482 H 219.96 -3.19006 -0.700206 0
M  V30 2483 H 218.619 -3.37813 1.42399 0
M  V30 2484 H 218.267 -5.01095 -0.437408 0
M  V30 2485 H 217.967 -5.76243 1.1497 0
M  V30 2486 H 219.491 -6.09956 0.280351 0
M  V30 2487 H 220.905 -5.21841 2.37391 0
M  V30 2488 H 219.302 -5.10363 3.15673 0
M  V30 2489 H 220.372 -3.69013 3.14575 0
M  V30 2490 N 221.715 -0.905404 -1.28997 0
M  V30 2491 C 222.992 -0.453513 -1.9027 0
M  V30 2492 C 223.372 1.06721 -1.82137 0
M  V30 2493 O 222.72 1.91159 -1.25182 0
M  V30 2494 C 222.93 -0.974494 -3.35119 0
M  V30 2495 C 224.278 -1.0216 -4.12127 0
M  V30 2496 O 225.302 -0.922557 -3.44046 0
M  V30 2497 O 224.161 -1.17121 -5.33802 0
M  V30 2498 H 221.255 -0.142347 -0.814657 0
M  V30 2499 H 223.801 -0.995642 -1.37423 0
M  V30 2500 H 222.573 -2.01848 -3.35221 0
M  V30 2501 H 222.196 -0.412706 -3.95452 0
M  V30 2502 N 223.193 1.4272 -0.668489 0
M  V30 2503 C 224.141 2.32586 0.0254857 0
M  V30 2504 C 225.135 1.49471 0.797176 0
M  V30 2505 O 226.341 1.65583 0.705853 0
M  V30 2506 H 222.716 0.751514 0.0270339 0
M  V30 2507 H 224.687 2.88823 -0.749936 0
M  V30 2508 C 223.436 3.3397 0.967427 0
M  V30 2509 H 222.759 3.97961 0.383048 0
M  V30 2510 H 224.199 3.9945 1.42181 0
M  V30 2511 C 222.658 2.65744 2.0708 0
M  V30 2512 O 223.188 2.48454 3.15648 0
M  V30 2513 N 221.394 2.2487 1.8407 0
M  V30 2514 H 220.941 2.39132 0.95778 0
M  V30 2515 H 220.899 1.79552 2.58086 0
M  V30 2516 N 224.671 0.411399 1.52136 0
M  V30 2517 C 225.619 -0.427633 2.28635 0
M  V30 2518 C 226.613 -1.04383 1.33419 0
M  V30 2519 O 227.819 -0.981772 1.50868 0
M  V30 2520 H 224.194 -0.156689 0.735495 0
M  V30 2521 H 226.165 0.238761 2.97443 0
M  V30 2522 C 224.914 -1.53082 3.12188 0
M  V30 2523 H 224.237 -1.06601 3.85326 0
M  V30 2524 H 225.677 -2.09167 3.68816 0
M  V30 2525 C 224.136 -2.49946 2.25895 0
M  V30 2526 O 224.666 -3.53884 1.90076 0
M  V30 2527 N 222.872 -2.2021 1.8962 0
M  V30 2528 H 222.419 -1.35719 2.18948 0
M  V30 2529 H 222.377 -2.85266 1.32176 0
M  V30 2530 N 226.149 -1.5696 0.141893 0
M  V30 2531 C 227.082 -2.12271 -0.837627 0
M  V30 2532 C 228.06 -1.04495 -1.24578 0
M  V30 2533 O 229.244 -1.32293 -1.34278 0
M  V30 2534 C 226.371 -2.63822 -2.12404 0
M  V30 2535 C 225.417 -3.83698 -1.86221 0
M  V30 2536 S 226.25 -5.24948 -1.05781 0
M  V30 2537 C 227.406 -5.79884 -2.35552 0
M  V30 2538 H 227.639 -2.95023 -0.367249 0
M  V30 2539 H 225.172 -1.54231 -0.0723014 0
M  V30 2540 H 227.13 -2.94175 -2.86307 0
M  V30 2541 H 225.791 -1.8121 -2.56557 0
M  V30 2542 H 224.984 -4.17995 -2.81596 0
M  V30 2543 H 224.586 -3.5408 -1.20429 0
M  V30 2544 H 226.878 -5.91005 -3.31239 0
M  V30 2545 H 227.821 -6.77544 -2.05767 0
M  V30 2546 H 228.229 -5.08095 -2.45967 0
M  V30 2547 N 227.627 0.131896 -1.57047 0
M  V30 2548 C 228.575 1.18146 -2.0036 0
M  V30 2549 C 229.569 1.43614 -0.898406 0
M  V30 2550 O 230.775 1.43729 -1.08361 0
M  V30 2551 H 227.15 0.398042 -0.638018 0
M  V30 2552 H 229.121 0.789564 -2.87765 0
M  V30 2553 C 227.87 2.50341 -2.41298 0
M  V30 2554 H 227.193 2.31578 -3.25902 0
M  V30 2555 H 228.633 3.22371 -2.75414 0
M  V30 2556 C 227.092 3.11984 -1.27153 0
M  V30 2557 O 227.622 3.97484 -0.580459 0
M  V30 2558 N 225.828 2.71662 -1.03189 0
M  V30 2559 H 225.375 2.02231 -1.59564 0
M  V30 2560 H 225.333 3.13238 -0.270077 0
M  V30 2561 N 229.106 1.52395 0.401703 0
M  V30 2562 C 230.355 1.66044 1.14509 0
M  V30 2563 C 230.668 0.400216 1.91462 0
M  V30 2564 O 231.874 0.416632 2.68284 0
M  V30 2565 C 230.33 2.93388 2.0845 0
M  V30 2566 C 229.938 4.26545 1.36978 0
M  V30 2567 C 231.682 3.16402 2.83001 0
M  V30 2568 C 229.589 5.45007 2.29611 0
M  V30 2569 H 228.519 0.618562 0.431158 0
M  V30 2570 H 231.17 1.78886 0.40892 0
M  V30 2571 H 229.552 2.74263 2.8565 0
M  V30 2572 H 230.726 4.56179 0.650916 0
M  V30 2573 H 229.041 4.09692 0.74438 0
M  V30 2574 H 231.638 4.02085 3.52465 0
M  V30 2575 H 231.981 2.30943 3.46368 0
M  V30 2576 H 232.514 3.36034 2.12898 0
M  V30 2577 H 229.253 6.32835 1.70879 0
M  V30 2578 H 228.773 5.19702 2.9945 0
M  V30 2579 H 230.452 5.7838 2.89974 0
M  V30 2580 N 230.584 -0.659388 1.43143 0
M  V30 2581 C 231.531 -1.77249 1.47822 0
M  V30 2582 C 232.501 -1.62818 0.328558 0
M  V30 2583 O 233.686 -1.83151 0.534838 0
M  V30 2584 C 230.826 -3.15371 1.40126 0
M  V30 2585 C 229.939 -3.4098 2.65249 0
M  V30 2586 C 229.074 -4.68915 2.49584 0
M  V30 2587 C 228.113 -4.87608 3.70006 0
M  V30 2588 N 227.25 -6.06796 3.53189 0
M  V30 2589 H 232.09 -1.72584 2.42938 0
M  V30 2590 H 229.627 -0.842297 1.20598 0
M  V30 2591 H 231.585 -3.9521 1.33659 0
M  V30 2592 H 230.215 -3.19121 0.485964 0
M  V30 2593 H 229.267 -2.55282 2.8202 0
M  V30 2594 H 230.579 -3.50681 3.54717 0
M  V30 2595 H 229.733 -5.56871 2.4079 0
M  V30 2596 H 228.472 -4.61524 1.5763 0
M  V30 2597 H 227.477 -3.9809 3.79215 0
M  V30 2598 H 228.702 -4.96834 4.62961 0
M  V30 2599 H 226.648 -6.00549 2.63965 0
M  V30 2600 H 226.565 -6.17428 4.36255 0
M  V30 2601 H 227.833 -6.9739 3.48236 0
M  V30 2602 N 232.062 -1.29571 -0.897171 0
M  V30 2603 C 233.311 -1.1706 -1.64256 0
M  V30 2604 C 233.624 0.276476 -1.93636 0
M  V30 2605 O 234.83 0.52294 -2.66416 0
M  V30 2606 C 233.286 -2.0475 -2.95982 0
M  V30 2607 C 232.894 -3.54295 -2.74187 0
M  V30 2608 C 234.638 -2.0097 -3.73914 0
M  V30 2609 C 232.545 -4.34081 -4.01656 0
M  V30 2610 H 231.475 -0.43452 -0.616205 0
M  V30 2611 H 234.126 -1.54229 -0.994268 0
M  V30 2612 H 232.508 -1.60452 -3.62038 0
M  V30 2613 H 233.682 -4.06662 -2.1671 0
M  V30 2614 H 231.997 -3.59773 -2.09648 0
M  V30 2615 H 234.594 -2.57838 -4.68427 0
M  V30 2616 H 234.937 -0.990273 -4.0435 0
M  V30 2617 H 235.47 -2.43325 -3.14703 0
M  V30 2618 H 232.209 -5.36671 -3.76384 0
M  V30 2619 H 231.729 -3.86483 -4.58684 0
M  V30 2620 H 233.408 -4.44877 -4.69781 0
M  V30 2621 N 233.54 1.10788 -1.12088 0
M  V30 2622 C 234.503 2.15207 -0.788577 0
M  V30 2623 C 235.503 1.59609 0.195317 0
M  V30 2624 O 236.693 1.74174 -0.0300193 0
M  V30 2625 C 233.825 3.4047 -0.171174 0
M  V30 2626 H 235.018 2.46116 -1.71368 0
M  V30 2627 H 232.571 1.26089 -0.923652 0
M  V30 2628 H 233.306 3.15176 0.763832 0
M  V30 2629 H 233.091 3.82109 -0.879514 0
M  V30 2630 H 234.581 4.17576 0.04496 0
M  V30 2631 N 235.018 0.912232 1.28515 0
M  V30 2632 C 236.295 0.463597 1.90027 0
M  V30 2633 C 236.675 -1.05753 1.82701 0
M  V30 2634 O 236.023 -1.90492 1.26194 0
M  V30 2635 C 236.233 0.992253 3.34597 0
M  V30 2636 C 237.581 1.04344 4.11579 0
M  V30 2637 O 238.605 0.94079 3.43551 0
M  V30 2638 O 237.464 1.1995 5.33174 0
M  V30 2639 H 234.558 0.146666 0.813891 0
M  V30 2640 H 237.104 1.00292 1.36893 0
M  V30 2641 H 235.876 2.03623 3.34146 0
M  V30 2642 H 235.499 0.433672 3.95228 0
M  V30 2643 N 236.496 -1.42363 0.676048 0
M  V30 2644 C 237.743 -2.01522 0.19883 0
M  V30 2645 C 238.071 -1.53456 -1.19505 0
M  V30 2646 O 237.326 -0.727967 -1.81657 0
M  V30 2647 C 237.625 -3.56929 0.183431 0
M  V30 2648 C 237.291 -4.24431 1.52215 0
M  V30 2649 C 235.953 -4.42585 1.8887 0
M  V30 2650 C 238.305 -4.62459 2.40377 0
M  V30 2651 C 235.633 -4.96039 3.13309 0
M  V30 2652 C 237.985 -5.17294 3.64129 0
M  V30 2653 C 236.649 -5.33661 4.00951 0
M  V30 2654 H 235.919 -0.737419 0.0727571 0
M  V30 2655 H 238.566 -1.70531 0.871281 0
M  V30 2656 H 236.871 -3.87594 -0.572532 0
M  V30 2657 H 238.568 -4.00486 -0.203035 0
M  V30 2658 H 235.158 -4.10661 1.22701 0
M  V30 2659 H 239.342 -4.48105 2.13343 0
M  V30 2660 H 234.598 -5.06896 3.41857 0
M  V30 2661 H 238.772 -5.45704 4.32644 0
M  V30 2662 H 236.399 -5.74845 4.9745 0
M  V30 2663 N 237.974 -0.419461 -1.51915 0
M  V30 2664 C 239.222 0.152637 -2.01523 0
M  V30 2665 C 239.543 1.44762 -1.30649 0
M  V30 2666 O 238.813 1.90997 -0.435535 0
M  V30 2667 H 237.393 0.0593966 -0.744635 0
M  V30 2668 H 240.055 -0.558073 -1.86739 0
M  V30 2669 H 239.151 0.341369 -3.10227 0
M  V30 2670 N 239.452 1.56882 -0.150215 0
M  V30 2671 C 240.699 1.96228 0.500093 0
M  V30 2672 C 241.027 1.03522 1.64661 0
M  V30 2673 O 240.282 0.0650683 1.95592 0
M  V30 2674 C 240.581 3.41801 1.04437 0
M  V30 2675 C 240.247 4.50897 0.0159671 0
M  V30 2676 C 238.909 4.8046 -0.266731 0
M  V30 2677 C 241.261 5.16703 -0.683192 0
M  V30 2678 C 238.589 5.73135 -1.25434 0
M  V30 2679 C 240.941 6.10441 -1.65964 0
M  V30 2680 C 239.605 6.38382 -1.95 0
M  V30 2681 H 238.875 0.718048 0.182997 0
M  V30 2682 H 241.522 1.90019 -0.237724 0
M  V30 2683 H 239.827 3.44857 1.85959 0
M  V30 2684 H 241.524 3.69573 1.55618 0
M  V30 2685 H 238.114 4.27891 0.246485 0
M  V30 2686 H 242.298 4.93993 -0.477983 0
M  V30 2687 H 237.554 5.93074 -1.48571 0
M  V30 2688 H 241.728 6.60507 -2.20689 0
M  V30 2689 H 239.355 7.09996 -2.71679 0
M  V30 2690 N 240.93 -0.123565 1.57115 0
M  V30 2691 C 242.178 -0.83051 1.84247 0
M  V30 2692 C 242.499 -1.80629 0.73471 0
M  V30 2693 O 241.769 -1.94403 -0.241688 0
M  V30 2694 H 240.349 -0.309694 0.679778 0
M  V30 2695 H 243.011 -0.111976 1.94578 0
M  V30 2696 H 242.107 -1.37852 2.80006 0
M  V30 2697 N 242.408 -1.52605 -0.393616 0
M  V30 2698 C 243.356 -1.77688 -1.50099 0
M  V30 2699 C 244.35 -0.644615 -1.56656 0
M  V30 2700 O 245.556 -0.826997 -1.59877 0
M  V30 2701 H 241.931 -0.562159 -0.499481 0
M  V30 2702 H 243.902 -2.7043 -1.26135 0
M  V30 2703 C 242.651 -1.95858 -2.87289 0
M  V30 2704 H 241.974 -2.8241 -2.82992 0
M  V30 2705 H 243.414 -2.174 -3.64024 0
M  V30 2706 C 241.873 -0.729848 -3.28899 0
M  V30 2707 O 242.403 0.0949217 -4.01588 0
M  V30 2708 N 240.609 -0.561283 -2.85128 0
M  V30 2709 H 240.156 -1.23357 -2.26143 0
M  V30 2710 H 240.114 0.2595 -3.13327 0
M  V30 2711 N 243.887 0.651787 -1.4349 0
M  V30 2712 C 245.134 1.41167 -1.45183 0
M  V30 2713 C 245.462 1.94349 -0.0766601 0
M  V30 2714 O 244.717 1.72804 0.918555 0
M  V30 2715 C 245.016 2.60914 -2.44251 0
M  V30 2716 C 244.682 2.26142 -3.9009 0
M  V30 2717 C 243.344 2.16371 -4.2981 0
M  V30 2718 C 245.696 1.98334 -4.81989 0
M  V30 2719 C 243.024 1.7695 -5.5938 0
M  V30 2720 C 245.376 1.6041 -6.11924 0
M  V30 2721 C 244.04 1.49166 -6.5062 0
M  V30 2722 H 243.31 0.516566 -0.531263 0
M  V30 2723 H 245.957 0.741099 -1.76579 0
M  V30 2724 H 244.262 3.3311 -2.06265 0
M  V30 2725 H 245.959 3.19127 -2.42815 0
M  V30 2726 H 242.549 2.34658 -3.58655 0
M  V30 2727 H 246.733 2.04803 -4.52072 0
M  V30 2728 H 241.989 1.66831 -5.88198 0
M  V30 2729 H 246.163 1.37925 -6.82605 0
M  V30 2730 H 243.79 1.1839 -7.50925 0
M  V30 2731 N 245.365 1.30045 0.890287 0
M  V30 2732 C 246.612 1.18561 1.64163 0
M  V30 2733 C 246.94 -0.260852 1.92743 0
M  V30 2734 O 246.195 -1.20376 1.54299 0
M  V30 2735 C 246.494 1.95409 2.99249 0
M  V30 2736 C 246.16 3.45066 2.90242 0
M  V30 2737 C 244.822 3.85878 2.87492 0
M  V30 2738 C 247.174 4.4039 2.78758 0
M  V30 2739 C 244.502 5.20314 2.7109 0
M  V30 2740 C 246.854 5.74928 2.63894 0
M  V30 2741 C 245.518 6.14986 2.59516 0
M  V30 2742 H 244.788 0.433846 0.600715 0
M  V30 2743 H 247.435 1.61088 1.03552 0
M  V30 2744 H 245.74 1.45501 3.63781 0
M  V30 2745 H 247.437 1.8392 3.56334 0
M  V30 2746 H 244.027 3.12631 2.93189 0
M  V30 2747 H 248.211 4.09806 2.79952 0
M  V30 2748 H 243.467 5.50449 2.66112 0
M  V30 2749 H 247.641 6.48434 2.53981 0
M  V30 2750 H 245.268 7.19104 2.46565 0
M  V30 2751 N 246.843 -1.10192 1.12674 0
M  V30 2752 C 247.79 -2.16606 0.796906 0
M  V30 2753 C 248.76 -1.64394 -0.237476 0
M  V30 2754 O 249.945 -1.90474 -0.111484 0
M  V30 2755 C 247.085 -3.44116 0.26043 0
M  V30 2756 C 246.198 -4.10268 1.35293 0
M  V30 2757 C 245.333 -5.25507 0.775621 0
M  V30 2758 C 244.372 -5.83567 1.84706 0
M  V30 2759 N 243.509 -6.90179 1.28829 0
M  V30 2760 H 248.349 -2.44163 1.70846 0
M  V30 2761 H 245.886 -1.19846 0.85295 0
M  V30 2762 H 247.844 -4.17143 -0.0686814 0
M  V30 2763 H 246.474 -3.16901 -0.614274 0
M  V30 2764 H 245.526 -3.35184 1.79877 0
M  V30 2765 H 246.838 -4.4946 2.16303 0
M  V30 2766 H 245.992 -6.05398 0.397327 0
M  V30 2767 H 244.731 -4.87656 -0.0656581 0
M  V30 2768 H 243.736 -5.02344 2.23452 0
M  V30 2769 H 244.961 -6.23482 2.69161 0
M  V30 2770 H 242.907 -6.54322 0.468881 0
M  V30 2771 H 242.824 -7.28097 2.03497 0
M  V30 2772 H 244.092 -7.73844 0.937311 0
M  V30 2773 N 248.321 -0.919034 -1.28029 0
M  V30 2774 C 249.546 -0.570357 -1.99403 0
M  V30 2775 C 249.971 0.842486 -1.68178 0
M  V30 2776 O 249.329 1.56391 -0.917141 0
M  V30 2777 C 249.377 -0.792541 -3.51783 0
M  V30 2778 O 248.481 0.145988 -4.12142 0
M  V30 2779 H 247.822 -0.220555 -0.6263 0
M  V30 2780 H 250.352 -1.23592 -1.63053 0
M  V30 2781 H 250.362 -0.704708 -4.01868 0
M  V30 2782 H 249.037 -1.82247 -3.73844 0
M  V30 2783 H 247.614 0.00897528 -3.72899 0
M  V30 2784 N 249.799 1.42003 -0.683588 0
M  V30 2785 C 251.047 2.01015 -0.209101 0
M  V30 2786 C 251.368 1.54365 1.19149 0
M  V30 2787 O 250.638 0.769083 1.80172 0
M  V30 2788 H 249.218 0.743294 -0.074315 0
M  V30 2789 H 251.88 1.73798 -0.882066 0
M  V30 2790 H 250.976 3.11343 -0.2172 0
M  V30 2791 N 251.277 0.427512 1.51691 0
M  V30 2792 C 252.187 -0.39527 2.31246 0
M  V30 2793 C 253.203 -1.03674 1.39742 0
M  V30 2794 O 254.379 -1.03425 1.72816 0
M  V30 2795 C 251.444 -1.48706 3.13189 0
M  V30 2796 C 250.505 -0.866743 4.20459 0
M  V30 2797 C 249.738 -1.90651 4.98486 0
M  V30 2798 O 249.961 -3.12733 4.77026 0
M  V30 2799 O 248.895 -1.5025 5.82845 0
M  V30 2800 H 252.721 0.253918 3.02637 0
M  V30 2801 H 250.306 0.190274 1.48183 0
M  V30 2802 H 252.188 -2.12047 3.64162 0
M  V30 2803 H 250.863 -2.12051 2.44573 0
M  V30 2804 H 249.77 -0.195544 3.73589 0
M  V30 2805 H 251.103 -0.276934 4.9142 0
M  V30 2806 N 252.755 -1.56801 0.158532 0
M  V30 2807 C 253.685 -2.20347 -0.772609 0
M  V30 2808 C 254.666 -1.15518 -1.24859 0
M  V30 2809 O 255.851 -1.43902 -1.30406 0
M  V30 2810 C 252.981 -2.83417 -2.00729 0
M  V30 2811 C 251.935 -3.94174 -1.66765 0
M  V30 2812 C 251.261 -4.44233 -2.97592 0
M  V30 2813 C 252.561 -5.14392 -0.905447 0
M  V30 2814 H 254.255 -2.98413 -0.242959 0
M  V30 2815 H 251.801 -1.43537 -0.115419 0
M  V30 2816 H 253.754 -3.26543 -2.6636 0
M  V30 2817 H 252.478 -2.02701 -2.56086 0
M  V30 2818 H 251.137 -3.51684 -1.03508 0
M  V30 2819 H 250.785 -3.60325 -3.50963 0
M  V30 2820 H 250.485 -5.18945 -2.75626 0
M  V30 2821 H 252.009 -4.90037 -3.64274 0
M  V30 2822 H 253.423 -5.5429 -1.46408 0
M  V30 2823 H 251.82 -5.9494 -0.7853 0
M  V30 2824 H 252.89 -4.84795 0.100668 0
M  V30 2825 N 254.233 0.115231 -1.57178 0
M  V30 2826 C 255.163 1.1423 -2.03651 0
M  V30 2827 C 256.144 1.42967 -0.921655 0
M  V30 2828 O 257.329 1.53343 -1.19162 0
M  V30 2829 C 254.459 2.4675 -2.44401 0
M  V30 2830 C 253.413 2.32467 -3.59365 0
M  V30 2831 C 252.739 3.69984 -3.86026 0
M  V30 2832 C 254.039 1.78203 -4.90959 0
M  V30 2833 H 255.733 0.755749 -2.89705 0
M  V30 2834 H 253.279 0.362093 -1.39373 0
M  V30 2835 H 255.232 3.18854 -2.75517 0
M  V30 2836 H 253.956 2.87302 -1.55322 0
M  V30 2837 H 252.615 1.62811 -3.28463 0
M  V30 2838 H 252.263 4.08028 -2.94147 0
M  V30 2839 H 251.963 3.61279 -4.63412 0
M  V30 2840 H 253.487 4.43587 -4.19599 0
M  V30 2841 H 254.901 2.40128 -5.20587 0
M  V30 2842 H 253.298 1.8031 -5.72371 0
M  V30 2843 H 254.368 0.739876 -4.79222 0
M  V30 2844 N 255.711 1.52812 0.385517 0
M  V30 2845 C 256.674 1.77188 1.45386 0
M  V30 2846 C 257.674 0.641953 1.4743 0
M  V30 2847 O 258.864 0.910033 1.4854 0
M  V30 2848 C 255.996 1.87582 2.8465 0
M  V30 2849 H 257.189 2.72583 1.25054 0
M  V30 2850 H 254.742 1.43586 0.617467 0
M  V30 2851 H 255.477 0.941849 3.10322 0
M  V30 2852 H 255.262 2.69748 2.84567 0
M  V30 2853 H 256.752 2.08102 3.62054 0
M  V30 2854 N 257.189 -0.644168 1.43834 0
M  V30 2855 C 258.417 -1.43147 1.49387 0
M  V30 2856 C 258.832 -1.88452 0.114583 0
M  V30 2857 O 258.189 -1.60047 -0.876989 0
M  V30 2858 C 258.24 -2.66046 2.44748 0
M  V30 2859 O 257.961 -2.22633 3.77314 0
M  V30 2860 C 259.462 -3.59311 2.59635 0
M  V30 2861 H 256.682 -0.439447 0.507077 0
M  V30 2862 H 259.226 -0.78895 1.88669 0
M  V30 2863 H 257.381 -3.26418 2.08638 0
M  V30 2864 H 257.795 -3.02216 4.28679 0
M  V30 2865 H 259.269 -4.42187 3.30416 0
M  V30 2866 H 259.746 -4.07259 1.64427 0
M  V30 2867 H 260.352 -3.04816 2.96593 0
M  V30 2868 N 258.668 -1.30515 -0.883378 0
M  V30 2869 C 259.914 -1.20617 -1.63778 0
M  V30 2870 C 260.269 0.236469 -1.90941 0
M  V30 2871 O 259.562 1.16596 -1.52039 0
M  V30 2872 C 259.756 -1.96994 -2.98209 0
M  V30 2873 C 259.585 -3.48537 -2.84169 0
M  V30 2874 C 258.355 -4.17893 -2.84067 0
M  V30 2875 C 260.553 -4.43738 -2.60001 0
M  V30 2876 N 258.535 -5.55685 -2.60936 0
M  V30 2877 C 259.906 -5.69105 -2.46007 0
M  V30 2878 C 261.961 -4.33316 -2.45239 0
M  V30 2879 C 260.664 -6.8523 -2.18752 0
M  V30 2880 C 262.69 -5.4921 -2.19369 0
M  V30 2881 C 262.052 -6.73558 -2.06153 0
M  V30 2882 H 258.151 -0.496434 -0.604216 0
M  V30 2883 H 260.735 -1.64544 -1.04083 0
M  V30 2884 H 258.906 -1.55455 -3.55933 0
M  V30 2885 H 260.638 -1.79225 -3.62851 0
M  V30 2886 H 257.393 -3.69739 -2.95956 0
M  V30 2887 H 257.817 -6.28199 -2.52378 0
M  V30 2888 H 262.459 -3.37856 -2.54191 0
M  V30 2889 H 260.177 -7.80729 -2.08537 0
M  V30 2890 H 263.763 -5.43054 -2.08766 0
M  V30 2891 H 262.643 -7.61721 -1.86416 0
M  V30 2892 N 260.146 1.09593 -1.13257 0
M  V30 2893 C 261.386 1.83349 -0.903472 0
M  V30 2894 C 261.75 1.83641 0.560351 0
M  V30 2895 O 262.951 2.53037 0.906947 0
M  V30 2896 C 261.222 3.25629 -1.47311 0
M  V30 2897 S 262.781 4.16408 -1.38382 0
M  V30 2898 H 259.599 0.632014 -0.325699 0
M  V30 2899 H 262.201 1.31817 -1.44376 0
M  V30 2900 H 260.905 3.22991 -2.53189 0
M  V30 2901 H 260.436 3.82233 -0.930689 0
M  V30 2902 H 262.451 4.94884 -0.361113 0
M  V30 2903 N 261.624 0.925811 1.2754 0
M  V30 2904 C 262.872 0.564138 1.94067 0
M  V30 2905 C 263.193 -0.897188 1.73134 0
M  V30 2906 O 262.463 -1.63573 1.07799 0
M  V30 2907 H 261.043 0.205645 0.718136 0
M  V30 2908 H 263.705 1.1778 1.55287 0
M  V30 2909 H 262.801 0.76881 3.02483 0
M  V30 2910 N 263.102 -1.41638 0.69111 0
M  V30 2911 C 264.327 -2.06148 0.227583 0
M  V30 2912 C 264.752 -1.51652 -1.11281 0
M  V30 2913 O 264.11 -0.64164 -1.69566 0
M  V30 2914 C 264.158 -3.60095 0.190858 0
M  V30 2915 O 263.262 -4.03845 -0.835664 0
M  V30 2916 H 262.603 -0.654434 0.112306 0
M  V30 2917 H 265.133 -1.81484 0.944714 0
M  V30 2918 H 265.143 -4.07995 0.020207 0
M  V30 2919 H 263.818 -3.99129 1.16915 0
M  V30 2920 H 262.395 -3.67458 -0.63473 0
M  V30 2921 N 264.58 -0.43555 -1.51462 0
M  V30 2922 C 265.991 0.0279871 -1.86679 0
M  V30 2923 C 266.342 1.42104 -1.35281 0
M  V30 2924 O 265.467 2.04667 -0.702878 0
M  V30 2925 C 266.062 0.0575626 -3.38751 0
M  V30 2926 C 264.621 0.465507 -3.7351 0
M  V30 2927 C 263.768 -0.342996 -2.75171 0
M  V30 2928 H 266.719 -0.651473 -1.44712 0
M  V30 2929 H 266.74 0.867421 -3.70481 0
M  V30 2930 H 266.252 -0.956448 -3.7613 0
M  V30 2931 H 264.353 1.48519 -3.41721 0
M  V30 2932 H 264.466 0.191546 -4.78717 0
M  V30 2933 H 262.83 0.198442 -2.53926 0
M  V30 2934 H 263.613 -1.35585 -3.15391 0
M  V30 2935 N 266.058 1.56714 -0.166846 0
M  V30 2936 C 267.469 1.83378 0.350646 0
M  V30 2937 C 267.82 1.08646 1.63372 0
M  V30 2938 O 266.945 0.338058 2.13743 0
M  V30 2939 C 267.54 3.32643 0.642963 0
M  V30 2940 C 266.099 3.59818 1.10491 0
M  V30 2941 C 265.246 2.76954 0.138411 0
M  V30 2942 H 268.197 1.53803 -0.391193 0
M  V30 2943 H 268.218 3.49878 1.49551 0
M  V30 2944 H 267.73 3.87007 -0.291055 0
M  V30 2945 H 265.831 3.1086 2.05418 0
M  V30 2946 H 265.944 4.68178 1.01716 0
M  V30 2947 H 264.308 2.4666 0.634911 0
M  V30 2948 H 265.091 3.34097 -0.789549 0
M  V30 2949 N 267.536 -0.106894 1.57237 0
M  V30 2950 C 268.766 -0.825191 1.89405 0
M  V30 2951 C 269.174 -1.73374 0.757496 0
M  V30 2952 O 268.517 -1.81552 -0.280115 0
M  V30 2953 C 268.579 -1.70102 3.1671 0
M  V30 2954 C 268.243 -0.965523 4.46684 0
M  V30 2955 C 269.24 -0.300741 5.19029 0
M  V30 2956 C 266.925 -0.943105 4.93367 0
M  V30 2957 C 268.919 0.376622 6.36286 0
M  V30 2958 C 266.606 -0.261949 6.10538 0
M  V30 2959 C 267.604 0.396748 6.81847 0
M  V30 2960 O 267.292 1.06701 7.96787 0
M  V30 2961 H 267.024 -0.241852 0.631255 0
M  V30 2962 H 269.578 -0.0921491 2.05193 0
M  V30 2963 H 267.808 -2.47601 2.97036 0
M  V30 2964 H 269.497 -2.29483 3.34802 0
M  V30 2965 H 270.263 -0.309599 4.84011 0
M  V30 2966 H 266.142 -1.44524 4.3776 0
M  V30 2967 H 269.686 0.891334 6.91882 0
M  V30 2968 H 265.583 -0.250896 6.45012 0
M  V30 2969 H 266.351 0.972707 8.127 0
M  V30 2970 N 269.014 -1.53014 -0.377408 0
M  V30 2971 C 269.977 -1.77957 -1.44444 0
M  V30 2972 C 270.977 -0.649763 -1.47087 0
M  V30 2973 O 272.167 -0.917897 -1.48055 0
M  V30 2974 C 269.299 -1.89089 -2.83651 0
M  V30 2975 H 270.492 -2.73243 -1.23606 0
M  V30 2976 H 268.045 -1.43912 -0.609844 0
M  V30 2977 H 268.78 -0.958293 -3.09818 0
M  V30 2978 H 268.565 -2.71254 -2.83132 0
M  V30 2979 H 270.055 -2.1002 -3.60945 0
M  V30 2980 N 270.492 0.636531 -1.44174 0
M  V30 2981 C 271.455 1.73063 -1.50273 0
M  V30 2982 C 272.455 1.56113 -0.385397 0
M  V30 2983 O 273.645 1.61707 -0.64781 0
M  V30 2984 C 270.777 3.12096 -1.37145 0
M  V30 2985 H 271.97 1.69031 -2.47727 0
M  V30 2986 H 269.523 0.849706 -1.31186 0
M  V30 2987 H 270.258 3.21728 -0.407636 0
M  V30 2988 H 270.043 3.25805 -2.18159 0
M  V30 2989 H 271.533 3.91846 -1.44382 0
M  V30 2990 N 271.97 1.30982 0.876444 0
M  V30 2991 C 273.381 1.18277 1.44456 0
M  V30 2992 C 273.732 -0.213265 1.95037 0
M  V30 2993 O 272.857 -1.11057 1.85729 0
M  V30 2994 C 273.452 2.1411 2.62569 0
M  V30 2995 C 272.011 2.05358 3.15444 0
M  V30 2996 C 271.158 2.03706 1.88146 0
M  V30 2997 H 274.109 1.43127 0.685584 0
M  V30 2998 H 274.13 1.72692 3.39054 0
M  V30 2999 H 273.642 3.15706 2.25724 0
M  V30 3000 H 271.743 1.06934 3.56926 0
M  V30 3001 H 271.856 2.94156 3.78166 0
M  V30 3002 H 270.22 1.48629 2.06837 0
M  V30 3003 H 271.003 3.07047 1.53547 0
M  V30 3004 N 273.449 -1.08991 1.13837 0
M  V30 3005 C 274.359 -2.19301 0.833333 0
M  V30 3006 C 275.375 -1.73026 -0.183847 0
M  V30 3007 O 276.551 -2.01395 -0.0138092 0
M  V30 3008 C 273.616 -3.45323 0.308651 0
M  V30 3009 C 272.677 -4.06255 1.38764 0
M  V30 3010 C 271.91 -5.26262 0.887896 0
M  V30 3011 O 272.133 -5.69747 -0.27287 0
M  V30 3012 O 271.067 -5.78435 1.66421 0
M  V30 3013 H 274.893 -2.47854 1.75506 0
M  V30 3014 H 272.478 -1.18012 0.916166 0
M  V30 3015 H 274.36 -4.21394 0.0216739 0
M  V30 3016 H 273.035 -3.18362 -0.585431 0
M  V30 3017 H 271.942 -3.318 1.72799 0
M  V30 3018 H 273.275 -4.37452 2.25602 0
M  V30 3019 N 274.927 -0.932562 -1.27047 0
M  V30 3020 C 276.173 -0.576412 -1.94436 0
M  V30 3021 C 276.506 0.880891 -1.73072 0
M  V30 3022 O 275.781 1.62905 -1.06264 0
M  V30 3023 C 276.064 -0.909031 -3.48437 0
M  V30 3024 C 275.917 -2.42044 -3.79123 0
M  V30 3025 C 277.236 -0.418341 -4.38107 0
M  V30 3026 H 274.355 -0.210888 -0.706184 0
M  V30 3027 H 276.997 -1.16522 -1.50075 0
M  V30 3028 H 275.147 -0.407947 -3.86352 0
M  V30 3029 H 276.819 -2.99359 -3.50973 0
M  V30 3030 H 275.062 -2.86758 -3.25503 0
M  V30 3031 H 275.733 -2.6037 -4.86736 0
M  V30 3032 H 278.209 -0.847856 -4.0737 0
M  V30 3033 H 277.085 -0.679981 -5.44672 0
M  V30 3034 H 277.346 0.681642 -4.36814 0
M  V30 3035 N 276.405 1.4127 -0.698611 0
M  V30 3036 C 277.652 2.0118 -0.230865 0
M  V30 3037 C 277.98 1.55338 1.17049 0
M  V30 3038 O 277.235 0.756775 1.80475 0
M  V30 3039 C 277.534 3.56592 -0.240192 0
M  V30 3040 C 277.2 4.21955 -1.58948 0
M  V30 3041 C 275.862 4.39524 -1.95887 0
M  V30 3042 C 278.214 4.58576 -2.47704 0
M  V30 3043 C 275.542 4.90992 -3.2116 0
M  V30 3044 C 277.894 5.11435 -3.72313 0
M  V30 3045 C 276.558 5.27215 -4.0939 0
M  V30 3046 H 275.828 0.736169 -0.0844796 0
M  V30 3047 H 278.475 1.69124 -0.8983 0
M  V30 3048 H 276.78 3.88456 0.510797 0
M  V30 3049 H 278.477 4.00758 0.139296 0
M  V30 3050 H 275.067 4.08657 -1.29219 0
M  V30 3051 H 279.251 4.44654 -2.20445 0
M  V30 3052 H 274.507 5.01393 -3.49878 0
M  V30 3053 H 278.681 5.38752 -4.4127 0
M  V30 3054 H 276.308 5.66859 -5.06533 0
M  V30 3055 N 277.883 0.443576 1.51229 0
M  V30 3056 C 278.793 -0.370721 2.31652 0
M  V30 3057 C 279.809 -1.02186 1.40833 0
M  V30 3058 O 280.985 -1.01586 1.73903 0
M  V30 3059 C 278.05 -1.45376 3.14749 0
M  V30 3060 C 277.111 -0.822099 4.21355 0
M  V30 3061 C 276.344 -1.85353 5.0048 0
M  V30 3062 O 276.567 -3.07656 4.80316 0
M  V30 3063 O 275.501 -1.4406 5.84406 0
M  V30 3064 H 279.327 0.286002 3.0235 0
M  V30 3065 H 276.912 0.20598 1.47973 0
M  V30 3066 H 278.794 -2.08173 3.66391 0
M  V30 3067 H 277.469 -2.09445 2.46809 0
M  V30 3068 H 276.376 -0.155909 3.73775 0
M  V30 3069 H 277.709 -0.224797 4.91686 0
M  V30 3070 N 279.361 -1.56624 0.175154 0
M  V30 3071 C 280.609 -1.96609 -0.467885 0
M  V30 3072 C 280.93 -1.06238 -1.63519 0
M  V30 3073 O 280.2 -0.129523 -1.95471 0
M  V30 3074 H 278.78 -0.726008 -0.175845 0
M  V30 3075 H 281.442 -1.93195 0.257234 0
M  V30 3076 H 280.538 -3.00989 -0.825342 0
M  V30 3077 N 280.839 0.0985539 -1.57292 0
M  V30 3078 C 281.771 1.14595 -1.98496 0
M  V30 3079 C 282.784 1.36512 -0.887031 0
M  V30 3080 O 283.973 1.35225 -1.16518 0
M  V30 3081 C 281.073 2.50216 -2.28572 0
M  V30 3082 C 280.246 2.48624 -3.59868 0
M  V30 3083 C 279.305 3.66146 -3.7792 0
M  V30 3084 O 278.331 3.48795 -4.49812 0
M  V30 3085 N 279.533 4.85496 -3.18235 0
M  V30 3086 H 282.298 0.795277 -2.88956 0
M  V30 3087 H 279.859 0.287579 -1.59325 0
M  V30 3088 H 281.851 3.27432 -2.37845 0
M  V30 3089 H 280.421 2.77387 -1.44136 0
M  V30 3090 H 279.641 1.56978 -3.61596 0
M  V30 3091 H 280.929 2.44635 -4.46129 0
M  V30 3092 H 280.327 5.02497 -2.59833 0
M  V30 3093 H 278.884 5.60317 -3.32999 0
M  V30 3094 N 282.317 1.53212 0.369288 0
M  V30 3095 C 283.249 1.75668 1.47219 0
M  V30 3096 C 284.262 0.637387 1.49804 0
M  V30 3097 O 285.451 0.913561 1.5335 0
M  V30 3098 C 282.551 1.81818 2.85999 0
M  V30 3099 C 281.724 3.11409 3.07153 0
M  V30 3100 C 280.783 3.08849 4.26026 0
M  V30 3101 O 279.809 3.82659 4.2138 0
M  V30 3102 N 281.011 2.29409 5.33246 0
M  V30 3103 H 283.776 2.70832 1.28337 0
M  V30 3104 H 281.337 1.51944 0.55898 0
M  V30 3105 H 283.329 1.77588 3.63655 0
M  V30 3106 H 281.899 0.939544 2.98146 0
M  V30 3107 H 281.119 3.28971 2.1719 0
M  V30 3108 H 282.407 3.97059 3.18154 0
M  V30 3109 H 281.805 1.68946 5.39883 0
M  V30 3110 H 280.362 2.31001 6.09493 0
M  V30 3111 N 283.795 -0.628877 1.44509 0
M  V30 3112 C 285.025 -1.41349 1.50678 0
M  V30 3113 C 285.433 -1.88745 0.131075 0
M  V30 3114 O 284.776 -1.61592 -0.87371 0
M  V30 3115 C 284.838 -2.66608 2.41165 0
M  V30 3116 C 284.502 -2.40993 3.88293 0
M  V30 3117 C 285.499 -2.0268 4.78766 0
M  V30 3118 C 283.184 -2.54563 4.33016 0
M  V30 3119 C 285.178 -1.78269 6.11963 0
M  V30 3120 C 282.865 -2.29766 5.6626 0
M  V30 3121 C 283.863 -1.91678 6.55552 0
M  V30 3122 O 283.551 -1.67158 7.86329 0
M  V30 3123 H 283.283 -0.439851 0.51333 0
M  V30 3124 H 285.837 -0.776084 1.90174 0
M  V30 3125 H 284.067 -3.32994 1.96601 0
M  V30 3126 H 285.756 -3.28615 2.38259 0
M  V30 3127 H 286.522 -1.91751 4.45485 0
M  V30 3128 H 282.401 -2.83179 3.63773 0
M  V30 3129 H 285.945 -1.48465 6.81619 0
M  V30 3130 H 281.842 -2.40306 5.99102 0
M  V30 3131 H 282.61 -1.81386 7.98149 0
M  V30 3132 N 285.273 -1.31445 -0.869486 0
M  V30 3133 C 286.183 -1.21097 -2.0093 0
M  V30 3134 C 287.199 -0.127584 -1.73532 0
M  V30 3135 O 288.375 -0.345477 -1.98415 0
M  V30 3136 C 285.44 -0.919378 -3.34288 0
M  V30 3137 C 284.501 -2.08971 -3.75006 0
M  V30 3138 C 283.734 -1.81194 -5.02001 0
M  V30 3139 O 283.957 -0.747296 -5.65484 0
M  V30 3140 O 282.891 -2.66883 -5.39497 0
M  V30 3141 H 286.717 -2.16883 -2.12592 0
M  V30 3142 H 284.302 -1.11189 -0.997868 0
M  V30 3143 H 286.184 -0.772625 -4.14257 0
M  V30 3144 H 284.859 0.00844772 -3.23699 0
M  V30 3145 H 283.766 -2.29187 -2.95676 0
M  V30 3146 H 285.099 -2.9998 -3.90221 0
M  V30 3147 N 286.751 1.08385 -1.14413 0
M  V30 3148 C 287.999 1.80419 -0.910679 0
M  V30 3149 C 288.32 1.86658 0.564243 0
M  V30 3150 O 287.59 1.35985 1.41014 0
M  V30 3151 H 286.17 0.668204 -0.333934 0
M  V30 3152 H 288.832 1.31037 -1.44275 0
M  V30 3153 H 287.928 2.83238 -1.31082 0
M  V30 3154 N 288.23 0.939286 1.26551 0
M  V30 3155 C 289.641 0.628782 1.75793 0
M  V30 3156 C 289.992 -0.856046 1.7654 0
M  V30 3157 O 289.117 -1.66994 1.3763 0
M  V30 3158 C 289.712 1.13465 3.19235 0
M  V30 3159 C 288.271 0.874601 3.66098 0
M  V30 3160 C 287.418 1.28667 2.45642 0
M  V30 3161 H 290.369 1.1178 1.12654 0
M  V30 3162 H 290.39 0.487609 3.77363 0
M  V30 3163 H 289.902 2.21535 3.1866 0
M  V30 3164 H 288.003 -0.191793 3.72106 0
M  V30 3165 H 288.116 1.50028 4.55004 0
M  V30 3166 H 286.48 0.705109 2.44745 0
M  V30 3167 H 287.263 2.37625 2.47769 0
M  V30 3168 N 289.708 -1.40897 0.706093 0
M  V30 3169 C 290.64 -2.29199 0.00815776 0
M  V30 3170 C 291.653 -1.45336 -0.733582 0
M  V30 3171 O 292.842 -1.68727 -0.582537 0
M  V30 3172 C 289.942 -3.23417 -1.01265 0
M  V30 3173 C 289.115 -4.36089 -0.338387 0
M  V30 3174 C 288.174 -5.10811 -1.26326 0
M  V30 3175 O 287.2 -5.64215 -0.751651 0
M  V30 3176 N 288.402 -5.19269 -2.595 0
M  V30 3177 H 291.167 -2.89738 0.766297 0
M  V30 3178 H 288.728 -1.52164 0.55296 0
M  V30 3179 H 290.72 -3.70276 -1.63334 0
M  V30 3180 H 289.29 -2.64112 -1.67223 0
M  V30 3181 H 288.51 -3.91479 0.462352 0
M  V30 3182 H 289.798 -5.08634 0.130031 0
M  V30 3183 H 289.196 -4.77347 -3.03573 0
M  V30 3184 H 287.753 -5.69667 -3.16737 0
M  V30 3185 N 291.186 -0.45159 -1.50991 0
M  V30 3186 C 292.116 0.342898 -2.30969 0
M  V30 3187 C 293.097 1.00815 -1.37005 0
M  V30 3188 O 294.282 1.00907 -1.65926 0
M  V30 3189 C 291.412 1.43637 -3.16205 0
M  V30 3190 C 290.366 0.893818 -4.18563 0
M  V30 3191 C 289.692 2.08411 -4.92411 0
M  V30 3192 C 290.992 -0.0815568 -5.22236 0
M  V30 3193 H 292.686 -0.324556 -2.97636 0
M  V30 3194 H 290.232 -0.157531 -1.43136 0
M  V30 3195 H 292.185 1.9995 -3.70942 0
M  V30 3196 H 290.909 2.13232 -2.47386 0
M  V30 3197 H 289.568 0.352798 -3.64898 0
M  V30 3198 H 289.216 2.76658 -4.20082 0
M  V30 3199 H 288.916 1.72741 -5.61636 0
M  V30 3200 H 290.44 2.65251 -5.49976 0
M  V30 3201 H 291.854 0.391742 -5.7196 0
M  V30 3202 H 290.251 -0.351551 -5.99069 0
M  V30 3203 H 291.321 -1.01374 -4.74185 0
M  V30 3204 N 292.664 1.56529 -0.183458 0
M  V30 3205 C 293.941 1.88959 0.50536 0
M  V30 3206 C 294.321 1.09523 1.80466 0
M  V30 3207 O 293.669 0.19278 2.27685 0
M  V30 3208 C 293.879 3.41162 0.73547 0
M  V30 3209 C 295.227 4.11155 1.06005 0
M  V30 3210 O 296.251 3.46548 0.823594 0
M  V30 3211 O 295.11 5.25318 1.50675 0
M  V30 3212 H 292.204 0.78441 0.261973 0
M  V30 3213 H 294.75 1.68231 -0.222802 0
M  V30 3214 H 293.522 3.90874 -0.182561 0
M  V30 3215 H 293.145 3.67543 1.51651 0
M  V30 3216 N 294.142 -0.090211 1.57342 0
M  V30 3217 C 295.391 -0.791531 1.8552 0
M  V30 3218 C 295.704 -1.79659 0.773441 0
M  V30 3219 O 296.91 -2.54616 0.942497 0
M  V30 3220 C 295.366 -1.45856 3.2902 0
M  V30 3221 C 294.974 -0.493017 4.45279 0
M  V30 3222 C 296.718 -2.14332 3.66418 0
M  V30 3223 C 294.625 -1.16491 5.79814 0
M  V30 3224 H 293.555 -0.299356 0.692027 0
M  V30 3225 H 296.206 -0.0445343 1.83446 0
M  V30 3226 H 294.588 -2.25318 3.2565 0
M  V30 3227 H 295.762 0.270464 4.60006 0
M  V30 3228 H 294.077 0.0863061 4.16311 0
M  V30 3229 H 296.674 -2.65344 4.64216 0
M  V30 3230 H 297.017 -2.93447 2.95287 0
M  V30 3231 H 297.55 -1.41724 3.71698 0
M  V30 3232 H 294.289 -0.41447 6.54188 0
M  V30 3233 H 293.809 -1.8997 5.68921 0
M  V30 3234 H 295.488 -1.69001 6.24538 0
M  V30 3235 N 295.62 -1.53406 -0.361157 0
M  V30 3236 C 296.866 -1.70999 -1.1014 0
M  V30 3237 C 297.221 -0.458425 -1.86859 0
M  V30 3238 O 296.514 0.548654 -1.83577 0
M  V30 3239 C 296.708 -2.90211 -2.08596 0
M  V30 3240 C 296.537 -4.26841 -1.41553 0
M  V30 3241 C 295.307 -4.91621 -1.16778 0
M  V30 3242 C 297.505 -5.07212 -0.850915 0
M  V30 3243 N 295.487 -6.12164 -0.461312 0
M  V30 3244 C 296.858 -6.19394 -0.274046 0
M  V30 3245 C 298.913 -4.92218 -0.750036 0
M  V30 3246 C 297.616 -7.18221 0.393868 0
M  V30 3247 C 299.642 -5.91322 -0.095894 0
M  V30 3248 C 299.004 -7.0283 0.470081 0
M  V30 3249 H 295.103 -0.678939 -0.388028 0
M  V30 3250 H 297.687 -1.90811 -0.38722 0
M  V30 3251 H 295.858 -2.71931 -2.77323 0
M  V30 3252 H 297.59 -2.96606 -2.7533 0
M  V30 3253 H 294.345 -4.50849 -1.45024 0
M  V30 3254 H 294.769 -6.76888 -0.123312 0
M  V30 3255 H 299.411 -4.06192 -1.17337 0
M  V30 3256 H 297.129 -8.03835 0.82914 0
M  V30 3257 H 300.715 -5.81797 -0.0187075 0
M  V30 3258 H 299.595 -7.782 0.968241 0
M  V30 3259 N 297.098 0.621204 -1.44841 0
M  V30 3260 C 298.323 1.41244 -1.51871 0
M  V30 3261 C 298.748 1.87519 -0.147764 0
M  V30 3262 O 298.106 1.59334 0.865 0
M  V30 3263 C 298.154 2.60221 -2.49634 0
M  V30 3264 O 297.258 3.60395 -2.00473 0
M  V30 3265 H 296.599 0.42223 -0.512463 0
M  V30 3266 H 299.129 0.757305 -1.90069 0
M  V30 3267 H 299.139 3.0764 -2.67996 0
M  V30 3268 H 297.814 2.25887 -3.4921 0
M  V30 3269 H 296.391 3.19717 -1.91925 0
M  V30 3270 N 298.576 1.31904 0.862503 0
M  V30 3271 C 299.509 1.14514 1.97388 0
M  V30 3272 C 300.487 0.0466493 1.62533 0
M  V30 3273 O 301.671 0.204484 1.87388 0
M  V30 3274 C 298.798 0.751347 3.30261 0
M  V30 3275 C 297.844 1.85395 3.84098 0
M  V30 3276 S 298.677 3.46081 4.08642 0
M  V30 3277 C 299.833 3.08655 5.44502 0
M  V30 3278 H 300.066 2.08597 2.11836 0
M  V30 3279 H 297.599 1.16475 1.01356 0
M  V30 3280 H 299.557 0.530901 4.07052 0
M  V30 3281 H 298.218 -0.170493 3.13637 0
M  V30 3282 H 297.411 1.53122 4.80177 0
M  V30 3283 H 297.013 2.02984 3.14123 0
M  V30 3284 H 299.305 2.58012 6.26447 0
M  V30 3285 H 300.248 4.03726 5.81731 0
M  V30 3286 H 300.656 2.45891 5.08132 0
M  V30 3287 N 300.054 -1.07777 1.14986 0
M  V30 3288 C 301.302 -1.79934 0.920235 0
M  V30 3289 C 301.623 -1.86955 -0.554336 0
M  V30 3290 O 300.893 -1.36731 -1.40291 0
M  V30 3291 H 299.473 -0.666424 0.337473 0
M  V30 3292 H 302.135 -1.3027 1.44968 0
M  V30 3293 H 301.231 -2.82539 1.32583 0
M  V30 3294 N 301.532 -0.945985 -1.26051 0
M  V30 3295 C 302.778 -0.597002 -1.93814 0
M  V30 3296 C 303.111 0.862484 -1.73997 0
M  V30 3297 O 302.386 1.61769 -1.07986 0
M  V30 3298 C 302.669 -0.945937 -3.47454 0
M  V30 3299 C 302.522 -2.46052 -3.76535 0
M  V30 3300 C 303.841 -0.464785 -4.37639 0
M  V30 3301 H 300.96 -0.218366 -0.703907 0
M  V30 3302 H 303.602 -1.18107 -1.48831 0
M  V30 3303 H 301.752 -0.448902 -3.85898 0
M  V30 3304 H 303.424 -3.03065 -3.47778 0
M  V30 3305 H 301.667 -2.90194 -3.22444 0
M  V30 3306 H 302.338 -2.65517 -4.83947 0
M  V30 3307 H 304.814 -0.891016 -4.06448 0
M  V30 3308 H 303.69 -0.737712 -5.4392 0
M  V30 3309 H 303.951 0.635274 -4.37512 0
M  V30 3310 N 303.011 1.40521 -0.713556 0
M  V30 3311 C 304.257 2.01221 -0.252564 0
M  V30 3312 C 304.59 1.56444 1.1506 0
M  V30 3313 O 303.865 0.783597 1.78017 0
M  V30 3314 C 304.148 3.58582 -0.330332 0
M  V30 3315 C 304.001 4.13437 -1.77173 0
M  V30 3316 C 305.32 4.39079 0.299641 0
M  V30 3317 H 302.439 0.731077 -0.0932471 0
M  V30 3318 H 305.081 1.67026 -0.905673 0
M  V30 3319 H 303.231 3.87844 0.225737 0
M  V30 3320 H 304.903 3.9498 -2.38303 0
M  V30 3321 H 303.146 3.67801 -2.3001 0
M  V30 3322 H 303.817 5.22597 -1.77755 0
M  V30 3323 H 306.293 4.15735 -0.174139 0
M  V30 3324 H 305.169 5.4848 0.214771 0
M  V30 3325 H 305.43 4.19915 1.38288 0
M  V30 3326 N 304.489 0.459591 1.5075 0
M  V30 3327 C 305.419 -0.330644 2.31147 0
M  V30 3328 C 306.4 -1.00087 1.37538 0
M  V30 3329 O 307.585 -1.00025 1.66459 0
M  V30 3330 C 304.715 -1.41958 3.16962 0
M  V30 3331 C 303.669 -0.871608 4.19031 0
M  V30 3332 C 302.995 -2.05797 4.9351 0
M  V30 3333 C 304.295 0.109251 5.22186 0
M  V30 3334 H 305.989 0.340336 2.97459 0
M  V30 3335 H 303.535 0.165119 1.4305 0
M  V30 3336 H 305.488 -1.9798 3.71997 0
M  V30 3337 H 304.212 -2.11917 2.48513 0
M  V30 3338 H 302.871 -0.333442 3.6508 0
M  V30 3339 H 302.519 -2.74427 4.21544 0
M  V30 3340 H 302.219 -1.6976 5.62544 0
M  V30 3341 H 303.743 -2.62331 5.51375 0
M  V30 3342 H 305.157 -0.361405 5.7216 0
M  V30 3343 H 303.554 0.383316 5.98875 0
M  V30 3344 H 304.624 1.03887 4.73641 0
M  V30 3345 N 305.967 -1.56429 0.191757 0
M  V30 3346 C 307.197 -2.01574 -0.452928 0
M  V30 3347 C 307.605 -1.07107 -1.55964 0
M  V30 3348 O 306.948 -0.067534 -1.83576 0
M  V30 3349 C 307.01 -3.43121 -1.07278 0
M  V30 3350 C 306.674 -4.56879 -0.105214 0
M  V30 3351 C 307.671 -5.15379 0.684149 0
M  V30 3352 C 305.356 -5.023 0.00489824 0
M  V30 3353 C 307.35 -6.17746 1.57062 0
M  V30 3354 C 305.037 -6.04511 0.894935 0
M  V30 3355 C 306.035 -6.62108 1.67637 0
M  V30 3356 O 305.723 -7.62335 2.55149 0
M  V30 3357 H 305.455 -0.665554 -0.118379 0
M  V30 3358 H 308.009 -2.03245 0.296737 0
M  V30 3359 H 306.239 -3.38425 -1.87097 0
M  V30 3360 H 307.928 -3.72093 -1.62177 0
M  V30 3361 H 308.694 -4.81157 0.609365 0
M  V30 3362 H 304.573 -4.57168 -0.593156 0
M  V30 3363 H 308.117 -6.6263 2.181 0
M  V30 3364 H 304.014 -6.38157 0.970847 0
M  V30 3365 H 304.782 -7.79741 2.48892 0
M  V30 3366 N 307.445 0.0818655 -1.57387 0
M  V30 3367 C 308.691 0.784074 -1.8703 0
M  V30 3368 C 309.024 1.77729 -0.782689 0
M  V30 3369 O 308.299 1.93384 0.208051 0
M  V30 3370 C 308.582 1.50105 -3.27323 0
M  V30 3371 C 308.435 0.524925 -4.46727 0
M  V30 3372 C 309.754 2.44843 -3.65705 0
M  V30 3373 H 306.873 0.283582 -0.680257 0
M  V30 3374 H 309.515 0.0474352 -1.89941 0
M  V30 3375 H 307.665 2.12897 -3.24972 0
M  V30 3376 H 309.337 -0.0970111 -4.61198 0
M  V30 3377 H 307.58 -0.160606 -4.33503 0
M  V30 3378 H 308.251 1.064 -5.41648 0
M  V30 3379 H 310.727 1.92135 -3.69085 0
M  V30 3380 H 309.603 2.92018 -4.64776 0
M  V30 3381 H 309.864 3.29197 -2.95096 0
M  V30 3382 N 308.923 1.53595 0.353017 0
M  V30 3383 C 309.853 1.83902 1.43883 0
M  V30 3384 C 310.834 0.693421 1.55324 0
M  V30 3385 O 312.019 0.944452 1.69687 0
M  V30 3386 C 309.149 2.04016 2.8106 0
M  V30 3387 C 308.103 3.19814 2.84434 0
M  V30 3388 C 307.429 3.25244 4.24406 0
M  V30 3389 C 308.729 4.58133 2.50822 0
M  V30 3390 H 310.423 2.74835 1.1877 0
M  V30 3391 H 307.969 1.32242 0.569917 0
M  V30 3392 H 309.922 2.238 3.57059 0
M  V30 3393 H 308.646 1.09804 3.07588 0
M  V30 3394 H 307.305 2.9987 2.10887 0
M  V30 3395 H 306.953 2.28646 4.48029 0
M  V30 3396 H 306.653 4.03054 4.27576 0
M  V30 3397 H 308.177 3.47228 5.0226 0
M  V30 3398 H 309.591 4.77995 3.16534 0
M  V30 3399 H 307.988 5.38276 2.6529 0
M  V30 3400 H 309.058 4.62387 1.46034 0
M  V30 3401 N 310.401 -0.613514 1.45168 0
M  V30 3402 C 311.647 -1.37471 1.49096 0
M  V30 3403 C 311.98 -1.93765 0.129901 0
M  V30 3404 O 311.255 -1.74707 -0.854858 0
M  V30 3405 C 311.538 -2.52701 2.56542 0
M  V30 3406 C 311.391 -2.01643 4.0207 0
M  V30 3407 C 312.71 -3.54849 2.60327 0
M  V30 3408 H 309.829 -0.498502 0.54283 0
M  V30 3409 H 312.471 -0.692125 1.76945 0
M  V30 3410 H 310.621 -3.10931 2.32926 0
M  V30 3411 H 312.293 -1.48108 4.36877 0
M  V30 3412 H 310.536 -1.32688 4.13009 0
M  V30 3413 H 311.207 -2.84681 4.72928 0
M  V30 3414 H 313.683 -3.0645 2.81474 0
M  V30 3415 H 312.559 -4.32973 3.37381 0
M  V30 3416 H 312.82 -4.10079 1.6519 0
M  V30 3417 N 311.879 -1.3236 -0.855495 0
M  V30 3418 C 313.119 -1.24187 -1.62348 0
M  V30 3419 C 313.483 0.193597 -1.91021 0
M  V30 3420 O 314.684 0.39904 -2.65822 0
M  V30 3421 C 312.955 -2.07661 -2.90881 0
M  V30 3422 S 314.514 -2.16505 -3.81669 0
M  V30 3423 H 311.332 -0.442076 -0.556857 0
M  V30 3424 H 313.934 -1.67198 -1.01317 0
M  V30 3425 H 312.638 -3.11018 -2.67761 0
M  V30 3426 H 312.169 -1.65425 -3.56929 0
M  V30 3427 H 314.184 -1.31394 -4.78487 0
M  V30 3428 N 313.357 1.07166 -1.15556 0
M  V30 3429 C 314.605 1.79443 -0.929764 0
M  V30 3430 C 314.926 1.87246 0.544414 0
M  V30 3431 O 314.196 1.37473 1.39564 0
M  V30 3432 H 312.776 0.664625 -0.341003 0
M  V30 3433 H 315.438 1.29499 -1.45657 0
M  V30 3434 H 314.534 2.81832 -1.34079 0
M  V30 3435 N 314.835 0.952656 1.25548 0
M  V30 3436 C 315.798 0.475794 2.24207 0
M  V30 3437 C 316.798 -0.419428 1.55234 0
M  V30 3438 O 317.988 -0.216994 1.72843 0
M  V30 3439 C 315.12 -0.312814 3.39462 0
M  V30 3440 H 316.313 1.34779 2.67908 0
M  V30 3441 H 313.866 0.735739 1.37901 0
M  V30 3442 H 314.601 -1.20257 3.01179 0
M  V30 3443 H 314.386 0.329404 3.90714 0
M  V30 3444 H 315.876 -0.635986 4.12729 0
M  V30 3445 N 316.313 -1.40141 0.720998 0
M  V30 3446 C 317.243 -2.33339 0.0867621 0
M  V30 3447 C 318.224 -1.53178 -0.739622 0
M  V30 3448 O 319.409 -1.81625 -0.687449 0
M  V30 3449 C 316.539 -3.37194 -0.831728 0
M  V30 3450 C 315.493 -4.27857 -0.110558 0
M  V30 3451 C 314.819 -5.22294 -1.14513 0
M  V30 3452 C 316.119 -5.11872 1.0385 0
M  V30 3453 H 317.813 -2.86626 0.865219 0
M  V30 3454 H 315.359 -1.37814 0.417516 0
M  V30 3455 H 317.312 -4.01335 -1.28485 0
M  V30 3456 H 316.036 -2.82314 -1.64214 0
M  V30 3457 H 314.695 -3.65176 0.322797 0
M  V30 3458 H 314.343 -4.63717 -1.94874 0
M  V30 3459 H 314.043 -5.83797 -0.667446 0
M  V30 3460 H 315.567 -5.89312 -1.59824 0
M  V30 3461 H 316.981 -5.69436 0.664482 0
M  V30 3462 H 315.378 -5.82445 1.4449 0
M  V30 3463 H 316.448 -4.4753 1.86668 0
M  V30 3464 N 317.792 -0.46758 -1.50504 0
M  V30 3465 C 319.203 -0.0116166 -1.86696 0
M  V30 3466 C 319.554 1.39202 -1.38265 0
M  V30 3467 O 318.679 2.0313 -0.746132 0
M  V30 3468 C 319.274 -0.0143044 -3.38797 0
M  V30 3469 C 317.833 0.386175 -3.74414 0
M  V30 3470 C 316.98 -0.401287 -2.74381 0
M  V30 3471 H 319.931 -0.682022 -1.43297 0
M  V30 3472 H 319.952 0.788641 -3.72237 0
M  V30 3473 H 319.464 -1.03602 -3.74016 0
M  V30 3474 H 317.565 1.41237 -3.44794 0
M  V30 3475 H 317.678 0.0899596 -4.79016 0
M  V30 3476 H 316.042 0.144536 -2.5429 0
M  V30 3477 H 316.825 -1.42244 -3.12444 0
M  V30 3478 N 319.27 1.56325 -0.20005 0
M  V30 3479 C 320.517 1.97719 0.437411 0
M  V30 3480 C 320.845 1.08709 1.61284 0
M  V30 3481 O 320.1 0.127261 1.95286 0
M  V30 3482 C 320.399 3.4495 0.935103 0
M  V30 3483 C 320.065 4.5072 -0.12749 0
M  V30 3484 C 318.727 4.79368 -0.419451 0
M  V30 3485 C 321.079 5.14268 -0.847231 0
M  V30 3486 C 318.407 5.68854 -1.43604 0
M  V30 3487 C 320.759 6.04852 -1.85301 0
M  V30 3488 C 319.423 6.31855 -2.15211 0
M  V30 3489 H 318.693 0.723507 0.16006 0
M  V30 3490 H 321.34 1.89166 -0.298056 0
M  V30 3491 H 319.645 3.50599 1.74894 0
M  V30 3492 H 321.342 3.74337 1.43781 0
M  V30 3493 H 317.932 4.28458 0.11023 0
M  V30 3494 H 322.116 4.92222 -0.634901 0
M  V30 3495 H 317.372 5.88047 -1.67364 0
M  V30 3496 H 321.546 6.53152 -2.41591 0
M  V30 3497 H 319.173 7.00994 -2.94129 0
M  V30 3498 N 320.748 -0.0735177 1.57428 0
M  V30 3499 C 322.025 -0.805903 1.78226 0
M  V30 3500 C 322.405 -1.95874 0.787189 0
M  V30 3501 O 321.753 -2.2779 -0.180029 0
M  V30 3502 C 321.963 -1.28045 3.24662 0
M  V30 3503 C 323.311 -1.71453 3.88444 0
M  V30 3504 O 324.335 -1.37616 3.28543 0
M  V30 3505 O 323.194 -2.34093 4.93825 0
M  V30 3506 H 320.288 -0.386041 0.73137 0
M  V30 3507 H 322.834 -0.0537269 1.69615 0
M  V30 3508 H 321.606 -0.455476 3.8864 0
M  V30 3509 H 321.229 -2.094 3.37991 0
M  V30 3510 N 322.226 -1.5378 -0.344866 0
M  V30 3511 C 323.474 -1.70625 -1.08311 0
M  V30 3512 C 323.795 -0.471447 -1.89215 0
M  V30 3513 O 323.065 0.514616 -1.8902 0
M  V30 3514 H 321.645 -0.629058 -0.402859 0
M  V30 3515 H 324.307 -1.9103 -0.386459 0
M  V30 3516 H 323.403 -2.57656 -1.76124 0
M  V30 3517 N 323.704 0.605807 -1.45491 0
M  V30 3518 C 325.115 1.18777 -1.44045 0
M  V30 3519 C 325.466 1.95471 -0.169001 0
M  V30 3520 O 324.591 2.0374 0.729324 0
M  V30 3521 C 325.186 2.16064 -2.60963 0
M  V30 3522 C 323.745 2.69633 -2.62631 0
M  V30 3523 C 322.892 1.45072 -2.36325 0
M  V30 3524 H 325.843 0.395017 -1.53705 0
M  V30 3525 H 325.864 2.9913 -2.35163 0
M  V30 3526 H 325.376 1.60217 -3.53486 0
M  V30 3527 H 323.477 3.29414 -1.74119 0
M  V30 3528 H 323.59 3.13944 -3.61906 0
M  V30 3529 H 321.954 1.74089 -1.85917 0
M  V30 3530 H 322.737 0.910899 -3.30995 0
M  V30 3531 N 325.182 1.32811 0.848464 0
M  V30 3532 C 326.41 1.26739 1.63538 0
M  V30 3533 C 326.825 -0.163484 1.88091 0
M  V30 3534 O 326.182 -1.10258 1.45429 0
M  V30 3535 C 326.233 2.03013 2.99112 0
M  V30 3536 O 325.954 3.40518 2.75643 0
M  V30 3537 C 327.455 2.04038 3.93552 0
M  V30 3538 H 324.675 0.437024 0.509167 0
M  V30 3539 H 327.219 1.75033 1.05753 0
M  V30 3540 H 325.374 1.58426 3.53525 0
M  V30 3541 H 325.788 3.79635 3.61908 0
M  V30 3542 H 327.262 2.61877 4.85926 0
M  V30 3543 H 327.739 1.0282 4.26995 0
M  V30 3544 H 328.345 2.486 3.45077 0
M  V30 3545 N 326.66 -1.06551 1.16123 0
M  V30 3546 C 327.59 -2.15935 0.88851 0
M  V30 3547 C 328.571 -1.69306 -0.164135 0
M  V30 3548 O 329.756 -1.94193 -0.0167857 0
M  V30 3549 C 326.886 -3.45149 0.385942 0
M  V30 3550 C 325.84 -4.05271 1.3762 0
M  V30 3551 C 325.166 -5.29664 0.732137 0
M  V30 3552 C 326.466 -4.44355 2.74493 0
M  V30 3553 H 328.16 -2.39006 1.80323 0
M  V30 3554 H 325.706 -1.14866 0.868435 0
M  V30 3555 H 327.659 -4.21004 0.182647 0
M  V30 3556 H 326.383 -3.21689 -0.564274 0
M  V30 3557 H 325.042 -3.3147 1.56599 0
M  V30 3558 H 324.69 -5.02499 -0.224483 0
M  V30 3559 H 324.39 -5.70848 1.39307 0
M  V30 3560 H 325.914 -6.08218 0.538802 0
M  V30 3561 H 327.328 -5.11303 2.59311 0
M  V30 3562 H 325.725 -4.96515 3.37035 0
M  V30 3563 H 326.795 -3.55339 3.29943 0
M  V30 3564 N 328.138 -0.959301 -1.25041 0
M  V30 3565 C 329.549 -0.65667 -1.74771 0
M  V30 3566 C 329.9 0.827852 -1.77879 0
M  V30 3567 O 329.025 1.64783 -1.40269 0
M  V30 3568 C 329.62 -1.1853 -3.1739 0
M  V30 3569 C 328.179 -0.932734 -3.6466 0
M  V30 3570 C 327.326 -1.32558 -2.43564 0
M  V30 3571 H 330.277 -1.13558 -1.10862 0
M  V30 3572 H 330.298 -0.547582 -3.76539 0
M  V30 3573 H 329.81 -2.26576 -3.15095 0
M  V30 3574 H 327.911 0.13257 -3.72364 0
M  V30 3575 H 328.024 -1.57248 -4.52559 0
M  V30 3576 H 326.388 -0.743956 -2.43593 0
M  V30 3577 H 327.171 -2.41537 -2.43957 0
M  V30 3578 N 329.616 1.39756 -0.72842 0
M  V30 3579 C 330.865 1.99879 -0.270407 0
M  V30 3580 C 331.178 1.58449 1.14688 0
M  V30 3581 O 332.384 2.11362 1.70407 0
M  V30 3582 C 330.84 3.57292 -0.43252 0
M  V30 3583 C 330.448 4.07688 -1.85727 0
M  V30 3584 C 332.192 4.24485 -0.0359507 0
M  V30 3585 C 330.099 5.5765 -1.96928 0
M  V30 3586 H 329.029 0.747689 -0.0973472 0
M  V30 3587 H 331.68 1.59837 -0.901355 0
M  V30 3588 H 330.062 3.95097 0.267219 0
M  V30 3589 H 331.236 3.81231 -2.58843 0
M  V30 3590 H 329.551 3.53135 -2.20646 0
M  V30 3591 H 332.148 5.34609 -0.0987484 0
M  V30 3592 H 332.491 4.03915 1.00787 0
M  V30 3593 H 333.024 3.9183 -0.686604 0
M  V30 3594 H 329.763 5.8309 -2.99476 0
M  V30 3595 H 329.283 5.8593 -1.28241 0
M  V30 3596 H 330.962 6.22957 -1.74737 0
M  V30 3597 N 331.094 0.475555 1.50254 0
M  V30 3598 C 332.024 -0.30611 2.31485 0
M  V30 3599 C 333.005 -0.986228 1.38591 0
M  V30 3600 O 334.19 -0.982541 1.67511 0
M  V30 3601 C 331.32 -1.38588 3.1845 0
M  V30 3602 C 330.274 -0.827115 4.19932 0
M  V30 3603 C 329.6 -2.00551 4.95665 0
M  V30 3604 C 330.9 0.16463 5.2204 0
M  V30 3605 H 332.594 0.371866 2.97082 0
M  V30 3606 H 330.14 0.180282 1.42867 0
M  V30 3607 H 332.093 -1.94023 3.74076 0
M  V30 3608 H 330.817 -2.09269 2.50747 0
M  V30 3609 H 329.476 -0.294702 3.65414 0
M  V30 3610 H 329.124 -2.6994 4.2443 0
M  V30 3611 H 328.824 -1.63784 5.64313 0
M  V30 3612 H 330.348 -2.56468 5.54127 0
M  V30 3613 H 331.762 -0.300699 5.72511 0
M  V30 3614 H 330.159 0.446813 5.98434 0
M  V30 3615 H 331.229 1.08905 4.72512 0
M  V30 3616 N 332.573 -1.56217 0.208337 0
M  V30 3617 C 333.989 -1.58919 -0.14729 0
M  V30 3618 C 334.189 -1.22486 -1.59998 0
M  V30 3619 O 333.245 -0.953849 -2.3379 0
M  V30 3620 C 334.558 -3.00236 0.167048 0
M  V30 3621 C 336.106 -3.12813 0.108219 0
M  V30 3622 C 336.581 -4.56284 0.396049 0
M  V30 3623 N 338.072 -4.61912 0.345142 0
M  V30 3624 C 338.807 -5.70837 0.541523 0
M  V30 3625 N 338.303 -6.88178 0.798968 0
M  V30 3626 N 340.096 -5.60091 0.474867 0
M  V30 3627 H 332.247 -1.78177 1.15614 0
M  V30 3628 H 334.51 -0.827555 0.462446 0
M  V30 3629 H 334.216 -3.31499 1.1748 0
M  V30 3630 H 334.09 -3.7354 -0.524184 0
M  V30 3631 H 336.477 -2.81354 -0.890157 0
M  V30 3632 H 336.558 -2.41866 0.832729 0
M  V30 3633 H 336.202 -4.88458 1.3918 0
M  V30 3634 H 336.132 -5.25439 -0.349502 0
M  V30 3635 H 338.623 -3.77589 0.153316 0
M  V30 3636 H 338.936 -7.67095 0.93727 0
M  V30 3637 H 337.281 -6.89953 0.836013 0
M  V30 3638 H 340.472 -4.67297 0.274064 0
M  V30 3639 H 340.645 -6.44917 0.631326 0
M  V30 3640 N 334.051 0.0651679 -1.57465 0
M  V30 3641 C 334.983 1.10359 -2.00882 0
M  V30 3642 C 335.996 1.346 -0.915788 0
M  V30 3643 O 337.185 1.32723 -1.1936 0
M  V30 3644 C 334.285 2.45312 -2.33828 0
M  V30 3645 C 333.458 2.40934 -3.65061 0
M  V30 3646 C 332.517 3.58047 -3.85602 0
M  V30 3647 O 331.543 3.39175 -4.57109 0
M  V30 3648 N 332.745 4.78637 -3.28462 0
M  V30 3649 H 335.51 0.733807 -2.90578 0
M  V30 3650 H 333.071 0.253719 -1.599 0
M  V30 3651 H 335.063 3.22314 -2.44737 0
M  V30 3652 H 333.633 2.74267 -1.49988 0
M  V30 3653 H 332.853 1.49273 -3.64844 0
M  V30 3654 H 334.141 2.35117 -4.51218 0
M  V30 3655 H 333.539 4.96872 -2.70433 0
M  V30 3656 H 332.096 5.53127 -3.44809 0
M  V30 3657 N 335.529 1.53961 0.336706 0
M  V30 3658 C 336.945 1.44378 0.680241 0
M  V30 3659 C 337.145 0.606034 1.9217 0
M  V30 3660 O 336.201 0.099688 2.52303 0
M  V30 3661 C 337.514 2.87945 0.8665 0
M  V30 3662 C 339.062 2.97763 0.964682 0
M  V30 3663 C 339.537 4.42453 1.18321 0
M  V30 3664 N 341.028 4.46008 1.25025 0
M  V30 3665 C 341.763 5.55102 1.43697 0
M  V30 3666 N 341.259 6.7419 1.59498 0
M  V30 3667 N 343.052 5.42727 1.463 0
M  V30 3668 H 335.203 2.06918 -0.479455 0
M  V30 3669 H 337.466 0.935634 -0.152619 0
M  V30 3670 H 337.172 3.51691 0.0256937 0
M  V30 3671 H 337.046 3.33293 1.76623 0
M  V30 3672 H 339.433 2.34153 1.796 0
M  V30 3673 H 339.514 2.55766 0.041708 0
M  V30 3674 H 339.158 5.06645 0.356788 0
M  V30 3675 H 339.088 4.82048 2.11985 0
M  V30 3676 H 341.579 3.60196 1.14312 0
M  V30 3677 H 341.892 7.53095 1.734 0
M  V30 3678 H 340.237 6.77123 1.56621 0
M  V30 3679 H 343.428 4.48647 1.33543 0
M  V30 3680 H 343.601 6.27806 1.6051 0
M  V30 3681 N 337.007 -0.598083 1.45811 0
M  V30 3682 C 338.253 -1.35882 1.50545 0
M  V30 3683 C 338.586 -1.93616 0.150445 0
M  V30 3684 O 337.861 -1.75604 -0.83628 0
M  V30 3685 C 338.144 -2.49966 2.59208 0
M  V30 3686 C 337.997 -1.97367 4.04186 0
M  V30 3687 C 339.316 -3.52068 2.64076 0
M  V30 3688 H 336.435 -0.492717 0.548087 0
M  V30 3689 H 339.077 -0.673319 1.77669 0
M  V30 3690 H 337.227 -3.08443 2.3621 0
M  V30 3691 H 338.899 -1.43466 4.38423 0
M  V30 3692 H 337.142 -1.283 4.14393 0
M  V30 3693 H 337.813 -2.79649 4.75921 0
M  V30 3694 H 340.289 -3.03448 2.84708 0
M  V30 3695 H 339.165 -4.2937 3.41954 0
M  V30 3696 H 339.426 -4.08304 1.69531 0
M  V30 3697 N 338.485 -1.33259 -0.841409 0
M  V30 3698 C 339.415 -1.25926 -1.96634 0
M  V30 3699 C 340.396 -0.140349 -1.6952 0
M  V30 3700 O 341.581 -0.329707 -1.91381 0
M  V30 3701 C 338.711 -0.99512 -3.32738 0
M  V30 3702 C 337.665 -2.0767 -3.74242 0
M  V30 3703 C 336.991 -1.66474 -5.08125 0
M  V30 3704 C 338.291 -3.49318 -3.88297 0
M  V30 3705 H 339.985 -2.20046 -2.03027 0
M  V30 3706 H 337.531 -1.05931 -0.975425 0
M  V30 3707 H 339.484 -0.930323 -4.11002 0
M  V30 3708 H 338.208 -0.0183004 -3.26595 0
M  V30 3709 H 336.867 -2.13187 -2.98239 0
M  V30 3710 H 336.515 -0.675012 -4.9845 0
M  V30 3711 H 336.215 -2.3885 -5.36865 0
M  V30 3712 H 337.739 -1.61455 -5.88867 0
M  V30 3713 H 339.153 -3.46316 -4.56879 0
M  V30 3714 H 337.55 -4.20158 -4.28471 0
M  V30 3715 H 338.62 -3.8801 -2.9082 0
M  V30 3716 N 339.963 1.05934 -1.16686 0
M  V30 3717 C 340.873 2.17014 -0.891183 0
M  V30 3718 C 341.889 1.73453 0.137907 0
M  V30 3719 O 343.065 2.01361 -0.039592 0
M  V30 3720 C 340.13 3.44384 -0.400099 0
M  V30 3721 C 339.191 4.02433 -1.49486 0
M  V30 3722 C 338.424 5.23723 -1.02711 0
M  V30 3723 O 338.647 5.7027 0.121716 0
M  V30 3724 O 337.581 5.7382 -1.81699 0
M  V30 3725 H 341.407 2.43113 -1.82015 0
M  V30 3726 H 338.992 1.15541 -0.947132 0
M  V30 3727 H 340.874 4.21189 -0.133392 0
M  V30 3728 H 339.549 3.19802 0.500817 0
M  V30 3729 H 338.456 3.27102 -1.81535 0
M  V30 3730 H 339.789 4.31317 -2.37121 0
M  V30 3731 N 341.441 0.965919 1.2453 0
M  V30 3732 C 342.689 0.625593 1.92174 0
M  V30 3733 C 343.01 -0.841652 1.75901 0
M  V30 3734 O 342.28 -1.60061 1.12948 0
M  V30 3735 H 340.86 0.228388 0.71123 0
M  V30 3736 H 343.522 1.2266 1.51461 0
M  V30 3737 H 342.618 0.864653 2.99884 0
M  V30 3738 N 342.919 -1.39368 0.735821 0
M  V30 3739 C 344.335 -1.54204 0.411492 0
M  V30 3740 C 344.535 -1.70268 -1.07755 0
M  V30 3741 O 343.591 -1.70364 -1.86366 0
M  V30 3742 C 344.904 -2.75925 1.19523 0
M  V30 3743 C 346.452 -2.89761 1.18354 0
M  V30 3744 C 346.927 -4.14421 1.94986 0
M  V30 3745 N 348.418 -4.21462 1.92156 0
M  V30 3746 C 349.153 -5.16871 2.48258 0
M  V30 3747 N 348.649 -6.18063 3.13001 0
M  V30 3748 N 350.442 -5.09093 2.38287 0
M  V30 3749 H 342.593 -1.27189 1.70108 0
M  V30 3750 H 344.856 -0.616517 0.720147 0
M  V30 3751 H 344.562 -2.70401 2.24892 0
M  V30 3752 H 344.436 -3.68614 0.800222 0
M  V30 3753 H 346.823 -2.94777 0.137975 0
M  V30 3754 H 346.904 -1.98133 1.61793 0
M  V30 3755 H 346.548 -4.10166 2.99543 0
M  V30 3756 H 346.478 -5.05095 1.48953 0
M  V30 3757 H 348.969 -3.48979 1.44991 0
M  V30 3758 H 349.282 -6.87326 3.53275 0
M  V30 3759 H 347.627 -6.18448 3.17091 0
M  V30 3760 H 350.818 -4.28973 1.8735 0
M  V30 3761 H 350.991 -5.83272 2.82308 0
M  V30 3762 N 344.397 -0.483516 -1.5 0
M  V30 3763 C 345.644 0.0671597 -2.02389 0
M  V30 3764 C 345.972 1.38597 -1.36459 0
M  V30 3765 O 345.227 1.89634 -0.483458 0
M  V30 3766 C 345.526 0.286226 -3.56252 0
M  V30 3767 C 345.192 -0.952416 -4.40726 0
M  V30 3768 C 343.854 -1.29199 -4.63531 0
M  V30 3769 C 346.206 -1.77655 -4.89988 0
M  V30 3770 C 343.534 -2.45553 -5.32842 0
M  V30 3771 C 345.886 -2.93147 -5.60578 0
M  V30 3772 C 344.55 -3.27505 -5.81633 0
M  V30 3773 H 343.82 0.0245755 -0.740592 0
M  V30 3774 H 346.467 -0.640124 -1.80485 0
M  V30 3775 H 344.772 1.07587 -3.76739 0
M  V30 3776 H 346.469 0.726473 -3.94365 0
M  V30 3777 H 343.059 -0.677881 -4.23205 0
M  V30 3778 H 347.243 -1.52737 -4.72213 0
M  V30 3779 H 342.499 -2.72431 -5.47349 0
M  V30 3780 H 346.673 -3.57344 -5.97727 0
M  V30 3781 H 344.3 -4.1777 -6.35116 0
M  V30 3782 N 345.875 1.56104 -0.216619 0
M  V30 3783 C 347.291 1.58995 0.13886 0
M  V30 3784 C 347.491 1.23333 1.59346 0
M  V30 3785 O 346.547 0.966234 2.33281 0
M  V30 3786 C 347.86 3.00143 -0.182968 0
M  V30 3787 C 349.408 3.12751 -0.124807 0
M  V30 3788 C 349.883 4.56068 -0.420241 0
M  V30 3789 N 351.374 4.61723 -0.369634 0
M  V30 3790 C 352.109 5.70542 -0.571789 0
M  V30 3791 N 351.605 6.87744 -0.835453 0
M  V30 3792 N 353.398 5.59831 -0.504563 0
M  V30 3793 H 345.549 1.77562 -1.16557 0
M  V30 3794 H 347.812 0.825091 -0.466828 0
M  V30 3795 H 347.518 3.30871 -1.19237 0
M  V30 3796 H 347.392 3.73813 0.504367 0
M  V30 3797 H 349.779 2.81822 0.875223 0
M  V30 3798 H 349.86 2.41421 -0.845544 0
M  V30 3799 H 349.504 4.87713 -1.41769 0
M  V30 3800 H 349.434 5.25617 0.321631 0
M  V30 3801 H 351.925 3.77502 -0.173338 0
M  V30 3802 H 352.238 7.66587 -0.977938 0
M  V30 3803 H 350.583 6.895 -0.872592 0
M  V30 3804 H 353.774 4.67145 -0.298842 0
M  V30 3805 H 353.947 6.44573 -0.665519 0
M  V30 3806 N 347.353 -0.0568162 1.57498 0
M  V30 3807 C 348.602 -0.752001 1.87157 0
M  V30 3808 C 348.915 -1.77978 0.811375 0
M  V30 3809 O 350.121 -2.52559 0.996293 0
M  V30 3810 C 348.577 -1.38844 3.3204 0
M  V30 3811 C 348.185 -0.398456 4.46225 0
M  V30 3812 C 349.929 -2.06512 3.70882 0
M  V30 3813 C 347.836 -1.04166 5.82154 0
M  V30 3814 H 346.766 -0.28461 0.698222 0
M  V30 3815 H 349.417 -0.00561272 1.83499 0
M  V30 3816 H 347.799 -2.1836 3.30356 0
M  V30 3817 H 348.973 0.367977 4.59328 0
M  V30 3818 H 347.288 0.174592 4.16034 0
M  V30 3819 H 349.885 -2.55437 4.6974 0
M  V30 3820 H 350.228 -2.87117 3.01445 0
M  V30 3821 H 350.761 -1.33808 3.7462 0
M  V30 3822 H 347.5 -0.275614 6.5492 0
M  V30 3823 H 347.02 -1.7786 5.72823 0
M  V30 3824 H 348.699 -1.55715 6.27982 0
M  V30 3825 N 348.832 -1.54138 -0.328536 0
M  V30 3826 C 350.243 -1.63395 -0.903272 0
M  V30 3827 C 350.594 -0.524828 -1.8905 0
M  V30 3828 O 349.719 0.343068 -2.13663 0
M  V30 3829 C 350.314 -2.9618 -1.64507 0
M  V30 3830 C 348.873 -3.0765 -2.1686 0
M  V30 3831 C 348.02 -2.58933 -0.992416 0
M  V30 3832 H 350.971 -1.58344 -0.106253 0
M  V30 3833 H 350.992 -2.86061 -2.50897 0
M  V30 3834 H 350.504 -3.76884 -0.926302 0
M  V30 3835 H 348.605 -2.31611 -2.91868 0
M  V30 3836 H 348.718 -4.1337 -2.42202 0
M  V30 3837 H 347.082 -2.14706 -1.37016 0
M  V30 3838 H 347.865 -3.42089 -0.288041 0
M  V30 3839 N 350.31 0.590341 -1.46126 0
M  V30 3840 C 351.54 1.37304 -1.54373 0
M  V30 3841 C 351.948 1.88332 -0.181071 0
M  V30 3842 O 351.291 1.63852 0.830559 0
M  V30 3843 C 351.353 2.6012 -2.48149 0
M  V30 3844 C 351.017 2.30613 -3.94546 0
M  V30 3845 C 352.014 1.89915 -4.83971 0
M  V30 3846 C 349.699 2.42993 -4.39613 0
M  V30 3847 C 351.693 1.61981 -6.16475 0
M  V30 3848 C 349.38 2.14672 -5.72153 0
M  V30 3849 C 350.378 1.7423 -6.60404 0
M  V30 3850 O 350.066 1.46251 -7.90485 0
M  V30 3851 H 349.798 0.426086 -0.524811 0
M  V30 3852 H 352.352 0.72539 -1.92165 0
M  V30 3853 H 350.582 3.27664 -2.05361 0
M  V30 3854 H 352.271 3.22182 -2.46887 0
M  V30 3855 H 353.037 1.79872 -4.50412 0
M  V30 3856 H 348.916 2.73435 -3.71153 0
M  V30 3857 H 352.46 1.30341 -6.85315 0
M  V30 3858 H 348.357 2.24337 -6.05263 0
M  V30 3859 H 349.125 1.6016 -8.02677 0
M  V30 3860 N 351.788 1.33704 0.83433 0
M  V30 3861 C 353.035 1.25417 1.58987 0
M  V30 3862 C 353.363 -0.178869 1.93676 0
M  V30 3863 O 352.618 -1.13723 1.59265 0
M  V30 3864 C 352.917 2.07926 2.90692 0
M  V30 3865 C 352.583 3.57066 2.75345 0
M  V30 3866 C 351.245 3.97724 2.70867 0
M  V30 3867 C 353.597 4.51817 2.59828 0
M  V30 3868 C 350.925 5.31344 2.48778 0
M  V30 3869 C 353.277 5.85604 2.39272 0
M  V30 3870 C 351.941 6.25439 2.33199 0
M  V30 3871 H 351.211 0.458934 0.581774 0
M  V30 3872 H 353.858 1.65335 0.966261 0
M  V30 3873 H 352.163 1.608 3.57282 0
M  V30 3874 H 353.86 1.98868 3.48213 0
M  V30 3875 H 350.45 3.24785 2.79665 0
M  V30 3876 H 354.634 4.21311 2.62319 0
M  V30 3877 H 349.89 5.61241 2.42526 0
M  V30 3878 H 354.064 6.58623 2.2625 0
M  V30 3879 H 351.691 7.28914 2.15843 0
M  V30 3880 N 353.266 -1.05314 1.17247 0
M  V30 3881 C 354.199 -2.12512 0.831507 0
M  V30 3882 C 355.177 -1.61351 -0.201168 0
M  V30 3883 O 356.361 -1.88317 -0.0829831 0
M  V30 3884 C 353.488 -3.37848 0.24015 0
M  V30 3885 C 352.534 -4.07832 1.24801 0
M  V30 3886 S 353.367 -4.56537 2.79882 0
M  V30 3887 C 354.523 -5.85122 2.22223 0
M  V30 3888 H 354.756 -2.41106 1.7394 0
M  V30 3889 H 352.289 -1.17896 0.996988 0
M  V30 3890 H 354.247 -4.10391 -0.0945588 0
M  V30 3891 H 352.908 -3.07392 -0.645668 0
M  V30 3892 H 352.101 -4.97883 0.78287 0
M  V30 3893 H 351.703 -3.41348 1.52831 0
M  V30 3894 H 353.995 -6.58408 1.59703 0
M  V30 3895 H 354.938 -6.36381 3.10523 0
M  V30 3896 H 355.346 -5.39626 1.65722 0
M  V30 3897 N 354.744 -0.972509 -1.24016 0
M  V30 3898 C 355.969 -0.654417 -1.96805 0
M  V30 3899 C 356.394 0.770398 -1.716 0
M  V30 3900 O 355.752 1.52361 -0.982647 0
M  V30 3901 C 355.8 -0.941031 -3.48105 0
M  V30 3902 O 354.904 -0.0289472 -4.1239 0
M  V30 3903 H 354.245 -0.24692 -0.616382 0
M  V30 3904 H 356.775 -1.30396 -1.57664 0
M  V30 3905 H 356.785 -0.87452 -3.98517 0
M  V30 3906 H 355.46 -1.97939 -3.65777 0
M  V30 3907 H 354.037 -0.149192 -3.72601 0
M  V30 3908 N 356.222 1.38976 -0.743202 0
M  V30 3909 C 357.132 2.3434 -0.110399 0
M  V30 3910 C 358.148 1.58741 0.712559 0
M  V30 3911 O 359.324 1.9099 0.639125 0
M  V30 3912 C 356.389 3.37812 0.780012 0
M  V30 3913 C 355.45 4.29263 -0.0561319 0
M  V30 3914 C 354.683 5.27793 0.791875 0
M  V30 3915 O 354.906 5.33043 2.03031 0
M  V30 3916 O 353.84 6.01512 0.216183 0
M  V30 3917 H 357.666 2.90129 -0.897714 0
M  V30 3918 H 355.251 1.40643 -0.503966 0
M  V30 3919 H 357.133 4.01194 1.28923 0
M  V30 3920 H 355.808 2.84395 1.546 0
M  V30 3921 H 354.715 3.69076 -0.611056 0
M  V30 3922 H 356.048 4.85907 -0.784531 0
M  V30 3923 N 357.7 0.491464 1.49741 0
M  V30 3924 C 358.977 -0.118984 1.95238 0
M  V30 3925 C 359.357 -1.55044 1.43264 0
M  V30 3926 O 358.705 -2.19287 0.642287 0
M  V30 3927 C 358.915 -0.0414187 3.48975 0
M  V30 3928 C 360.263 -0.220133 4.24029 0
M  V30 3929 O 361.287 -0.117055 3.56008 0
M  V30 3930 O 360.146 -0.430567 5.44801 0
M  V30 3931 H 357.24 -0.100536 0.820866 0
M  V30 3932 H 359.786 0.553322 1.60426 0
M  V30 3933 H 358.558 0.957214 3.79412 0
M  V30 3934 H 358.181 -0.754292 3.9038 0
M  V30 3935 N 359.178 -1.55987 0.224894 0
M  V30 3936 C 360.418 -2.00293 -0.407706 0
M  V30 3937 C 360.782 -1.1093 -1.56711 0
M  V30 3938 O 361.983 -1.44597 -2.26595 0
M  V30 3939 C 360.254 -3.47675 -0.82805 0
M  V30 3940 S 361.813 -4.14 -1.45429 0
M  V30 3941 H 358.631 -0.699152 -0.129256 0
M  V30 3942 H 361.233 -1.92609 0.334967 0
M  V30 3943 H 359.937 -4.10392 0.0253964 0
M  V30 3944 H 359.468 -3.59239 -1.60345 0
M  V30 3945 H 361.483 -4.13465 -2.74337 0
M  V30 3946 N 360.656 0.0484629 -1.57525 0
M  V30 3947 C 361.566 1.07241 -2.08654 0
M  V30 3948 C 362.582 1.409 -1.02095 0
M  V30 3949 O 363.758 1.50609 -1.33712 0
M  V30 3950 C 360.823 2.36008 -2.5397 0
M  V30 3951 C 359.884 2.09108 -3.7493 0
M  V30 3952 C 359.117 3.31736 -4.18075 0
M  V30 3953 O 359.34 4.41714 -3.60895 0
M  V30 3954 O 358.274 3.18576 -5.10679 0
M  V30 3955 H 362.1 0.667965 -2.96263 0
M  V30 3956 H 359.685 0.26417 -1.47046 0
M  V30 3957 H 361.567 3.11747 -2.83535 0
M  V30 3958 H 360.242 2.75786 -1.69481 0
M  V30 3959 H 359.149 1.31 -3.50414 0
M  V30 3960 H 360.482 1.74198 -4.60343 0
M  V30 3961 N 362.134 1.5431 0.320358 0
M  V30 3962 C 363.084 1.803 1.39556 0
M  V30 3963 C 364.068 0.659166 1.46778 0
M  V30 3964 O 365.26 0.91926 1.51257 0
M  V30 3965 C 362.389 2.03665 2.76361 0
M  V30 3966 C 361.475 3.24178 2.73439 0
M  V30 3967 N 361.866 4.4516 2.40137 0
M  V30 3968 C 360.164 3.25816 3.04565 0
M  V30 3969 C 360.865 5.27109 2.4603 0
M  V30 3970 N 359.841 4.64368 2.82601 0
M  V30 3971 H 363.643 2.71416 1.12742 0
M  V30 3972 H 361.157 1.53548 0.528856 0
M  V30 3973 H 363.154 2.20425 3.53862 0
M  V30 3974 H 361.814 1.13805 3.04103 0
M  V30 3975 H 362.825 4.72104 2.12927 0
M  V30 3976 H 359.502 2.46001 3.37328 0
M  V30 3977 H 360.892 6.33728 2.23246 0
M  V30 3978 N 363.613 -0.582584 1.46437 0
M  V30 3979 C 364.543 -1.70187 1.59871 0
M  V30 3980 C 365.524 -1.64066 0.449042 0
M  V30 3981 O 366.709 -1.82081 0.6753 0
M  V30 3982 C 363.839 -3.08827 1.58881 0
M  V30 3983 C 362.793 -3.29779 2.72819 0
M  V30 3984 C 362.119 -4.68947 2.5689 0
M  V30 3985 C 363.419 -3.17601 4.1464 0
M  V30 3986 H 365.113 -1.592 2.53566 0
M  V30 3987 H 362.659 -0.764472 1.22032 0
M  V30 3988 H 364.612 -3.86951 1.66873 0
M  V30 3989 H 363.336 -3.20713 0.617306 0
M  V30 3990 H 361.995 -2.54054 2.64296 0
M  V30 3991 H 361.643 -4.77599 1.57823 0
M  V30 3992 H 361.343 -4.83919 3.33312 0
M  V30 3993 H 362.867 -5.4924 2.66773 0
M  V30 3994 H 364.281 -3.8557 4.24274 0
M  V30 3995 H 362.678 -3.44094 4.9165 0
M  V30 3996 H 363.748 -2.14681 4.34788 0
M  V30 3997 N 365.091 -1.34144 -0.827227 0
M  V30 3998 C 366.34 -1.25602 -1.5782 0
M  V30 3999 C 366.653 0.173445 -1.94829 0
M  V30 4000 O 367.859 0.380984 -2.68814 0
M  V30 4001 C 366.315 -2.20151 -2.84713 0
M  V30 4002 C 365.923 -3.68331 -2.55021 0
M  V30 4003 C 367.667 -2.20508 -3.62735 0
M  V30 4004 C 365.574 -4.54762 -3.78082 0
M  V30 4005 H 364.504 -0.466573 -0.592306 0
M  V30 4006 H 367.155 -1.59283 -0.911116 0
M  V30 4007 H 365.537 -1.79417 -3.53023 0
M  V30 4008 H 366.711 -4.17577 -1.94849 0
M  V30 4009 H 365.026 -3.7038 -1.90283 0
M  V30 4010 H 367.623 -2.82306 -4.54101 0
M  V30 4011 H 367.966 -1.20322 -3.98533 0
M  V30 4012 H 368.499 -2.59664 -3.01362 0
M  V30 4013 H 365.238 -5.55867 -3.47407 0
M  V30 4014 H 364.758 -4.10254 -4.37552 0
M  V30 4015 H 366.437 -4.69153 -4.45538 0
M  V30 4016 N 366.569 1.04691 -1.17803 0
M  V30 4017 C 367.985 1.29963 -0.926379 0
M  V30 4018 C 368.185 1.97251 0.411635 0
M  V30 4019 O 367.241 2.24922 1.14744 0
M  V30 4020 C 368.554 2.16447 -2.08737 0
M  V30 4021 C 370.102 2.29814 -2.12496 0
M  V30 4022 C 370.577 3.19661 -3.27995 0
M  V30 4023 N 372.068 3.27247 -3.27816 0
M  V30 4024 C 372.803 3.96906 -4.13827 0
M  V30 4025 N 372.299 4.6895 -5.09959 0
M  V30 4026 N 374.092 3.93122 -4.01761 0
M  V30 4027 H 366.243 0.594182 -2.0392 0
M  V30 4028 H 368.506 0.324649 -0.890678 0
M  V30 4029 H 368.212 1.74304 -3.05469 0
M  V30 4030 H 368.086 3.17103 -2.04268 0
M  V30 4031 H 370.473 2.71196 -1.16347 0
M  V30 4032 H 370.554 1.2877 -2.21025 0
M  V30 4033 H 370.198 2.78991 -4.24413 0
M  V30 4034 H 370.128 4.20722 -3.16703 0
M  V30 4035 H 372.619 2.75921 -2.58217 0
M  V30 4036 H 372.932 5.19679 -5.71974 0
M  V30 4037 H 371.277 4.67875 -5.13924 0
M  V30 4038 H 374.468 3.35967 -3.2595 0
M  V30 4039 H 374.641 4.47139 -4.6901 0
M  V30 4040 N 368.047 0.979072 1.23499 0
M  V30 4041 C 369.463 0.687475 1.44034 0
M  V30 4042 C 369.663 -0.746801 1.8715 0
M  V30 4043 O 368.719 -1.51939 2.0167 0
M  V30 4044 C 370.032 1.68127 2.49307 0
M  V30 4045 C 371.58 1.69516 2.63122 0
M  V30 4046 C 372.055 2.67723 3.71603 0
M  V30 4047 N 373.546 2.66233 3.79044 0
M  V30 4048 C 374.281 3.38891 4.62537 0
M  V30 4049 N 373.777 4.21103 5.50131 0
M  V30 4050 N 375.57 3.27661 4.56721 0
M  V30 4051 H 367.721 1.90559 0.938135 0
M  V30 4052 H 369.984 0.821051 0.473897 0
M  V30 4053 H 369.69 2.70693 2.2454 0
M  V30 4054 H 369.564 1.46306 3.4767 0
M  V30 4055 H 371.951 0.676561 2.8724 0
M  V30 4056 H 372.032 1.95404 1.65079 0
M  V30 4057 H 371.676 3.69724 3.48233 0
M  V30 4058 H 371.606 2.39111 4.69184 0
M  V30 4059 H 374.097 2.06568 3.16446 0
M  V30 4060 H 374.41 4.73403 6.10827 0
M  V30 4061 H 372.755 4.25195 5.49759 0
M  V30 4062 H 375.946 2.62887 3.87309 0
M  V30 4063 H 376.119 3.84547 5.21562 0
M  V30 4064 N 369.525 -1.3858 0.750561 0
M  V30 4065 C 370.458 -2.28095 0.0693139 0
M  V30 4066 C 371.436 -1.45217 -0.731491 0
M  V30 4067 O 372.62 -1.74587 -0.71076 0
M  V30 4068 C 369.747 -3.26282 -0.90871 0
M  V30 4069 C 368.793 -4.26056 -0.194507 0
M  V30 4070 S 369.626 -5.24026 1.10257 0
M  V30 4071 C 370.782 -6.2577 0.127542 0
M  V30 4072 H 371.015 -2.85526 0.8284 0
M  V30 4073 H 368.548 -1.44536 0.543014 0
M  V30 4074 H 370.506 -3.83367 -1.46766 0
M  V30 4075 H 369.167 -2.6784 -1.64075 0
M  V30 4076 H 368.36 -4.95249 -0.93512 0
M  V30 4077 H 367.962 -3.72852 0.292837 0
M  V30 4078 H 370.254 -6.73796 -0.707516 0
M  V30 4079 H 371.197 -7.03712 0.787044 0
M  V30 4080 H 371.605 -5.63938 -0.251803 0
M  V30 4081 N 371.003 -0.499398 -1.49478 0
M  V30 4082 C 371.933 0.269244 -2.31943 0
M  V30 4083 C 372.914 0.964054 -1.40143 0
M  V30 4084 O 374.099 0.955767 -1.69052 0
M  V30 4085 C 371.229 1.33504 -3.20615 0
M  V30 4086 C 370.183 0.760202 -4.21195 0
M  V30 4087 C 369.509 1.9264 -4.98792 0
M  V30 4088 C 370.809 -0.247661 -5.21712 0
M  V30 4089 H 372.503 -0.419082 -2.96452 0
M  V30 4090 H 370.049 -0.202988 -1.42562 0
M  V30 4091 H 372.002 1.88048 -3.77115 0
M  V30 4092 H 370.726 2.05253 -2.54045 0
M  V30 4093 H 369.385 0.23653 -3.65836 0
M  V30 4094 H 369.033 2.63154 -4.28671 0
M  V30 4095 H 368.733 1.54785 -5.66847 0
M  V30 4096 H 370.257 2.4762 -5.58137 0
M  V30 4097 H 371.671 0.209579 -5.72917 0
M  V30 4098 H 370.068 -0.541962 -5.97648 0
M  V30 4099 H 371.138 -1.16409 -4.7072 0
M  V30 4100 N 372.481 1.55866 -0.233164 0
M  V30 4101 C 373.727 1.98897 0.395959 0
M  V30 4102 C 374.06 1.12091 1.58585 0
M  V30 4103 O 373.335 0.181182 1.93654 0
M  V30 4104 C 373.618 3.50658 0.819224 0
M  V30 4105 C 373.471 4.48233 -0.375109 0
M  V30 4106 C 374.79 4.07135 1.67121 0
M  V30 4107 H 371.909 0.723102 0.142451 0
M  V30 4108 H 374.551 1.87082 -0.331725 0
M  V30 4109 H 372.701 3.60857 1.43925 0
M  V30 4110 H 374.373 4.50031 -1.01341 0
M  V30 4111 H 372.616 4.21624 -1.02058 0
M  V30 4112 H 373.287 5.51988 -0.0358328 0
M  V30 4113 H 375.763 3.99952 1.14795 0
M  V30 4114 H 374.639 5.13615 1.93625 0
M  V30 4115 H 374.9 3.54736 2.63846 0
M  V30 4116 N 373.959 -0.0401083 1.57549 0
M  V30 4117 C 374.889 -1.04384 2.08869 0
M  V30 4118 C 375.87 -1.38407 0.988817 0
M  V30 4119 O 377.055 -1.47483 1.26342 0
M  V30 4120 C 374.185 -2.34808 2.55895 0
M  V30 4121 C 373.139 -2.15057 3.70047 0
M  V30 4122 C 372.465 -3.51145 4.03239 0
M  V30 4123 C 373.765 -1.54576 4.98902 0
M  V30 4124 H 375.459 -0.616666 2.92981 0
M  V30 4125 H 373.005 -0.295184 1.40942 0
M  V30 4126 H 374.958 -3.05346 2.90417 0
M  V30 4127 H 373.682 -2.79565 1.68853 0
M  V30 4128 H 372.341 -1.46954 3.35857 0
M  V30 4129 H 371.989 -3.93529 3.13279 0
M  V30 4130 H 371.689 -3.38758 4.80122 0
M  V30 4131 H 373.213 -4.23062 4.40285 0
M  V30 4132 H 374.627 -2.15017 5.31451 0
M  V30 4133 H 373.024 -1.52796 5.80322 0
M  V30 4134 H 374.094 -0.51039 4.82206 0
M  V30 4135 N 375.437 -1.54477 -0.31217 0
M  V30 4136 C 376.714 -1.63891 -1.06767 0
M  V30 4137 C 377.094 -0.480028 -2.0557 0
M  V30 4138 O 376.442 0.524487 -2.22399 0
M  V30 4139 C 376.652 -3.01402 -1.75948 0
M  V30 4140 C 378 -3.57838 -2.28554 0
M  V30 4141 O 379.024 -3.03782 -1.85998 0
M  V30 4142 O 377.883 -4.52462 -3.06497 0
M  V30 4143 H 374.977 -0.664125 -0.492816 0
M  V30 4144 H 377.523 -1.66823 -0.311149 0
M  V30 4145 H 376.295 -3.77187 -1.04144 0
M  V30 4146 H 375.918 -3.02199 -2.58383 0
M  V30 4147 N 376.915 0.57481 -1.46744 0
M  V30 4148 C 378.326 1.15695 -1.46532 0
M  V30 4149 C 378.677 1.95068 -0.210425 0
M  V30 4150 O 377.802 2.05241 0.685944 0
M  V30 4151 C 378.397 2.1048 -2.65487 0
M  V30 4152 C 376.956 2.64002 -2.68291 0
M  V30 4153 C 376.103 1.40026 -2.39349 0
M  V30 4154 H 379.054 0.362325 -1.54509 0
M  V30 4155 H 379.075 2.94074 -2.41455 0
M  V30 4156 H 378.587 1.52683 -3.56805 0
M  V30 4157 H 376.688 3.25646 -1.81067 0
M  V30 4158 H 376.801 3.06197 -3.68483 0
M  V30 4159 H 375.165 1.70106 -1.89568 0
M  V30 4160 H 375.948 0.840485 -3.32852 0
M  V30 4161 N 378.394 1.34581 0.820102 0
M  V30 4162 C 379.619 1.30333 1.61332 0
M  V30 4163 C 380.044 -0.119339 1.87721 0
M  V30 4164 O 379.402 -1.08197 1.45475 0
M  V30 4165 C 379.45 2.10258 2.92957 0
M  V30 4166 O 378.554 1.47404 3.85157 0
M  V30 4167 H 377.895 0.447488 0.490561 0
M  V30 4168 H 380.425 1.77425 1.01889 0
M  V30 4169 H 380.435 2.21718 3.42498 0
M  V30 4170 H 379.11 3.13693 2.73074 0
M  V30 4171 H 377.687 1.44703 3.43679 0
M  V30 4172 N 379.872 -1.04064 1.18357 0
M  V30 4173 C 380.819 -2.12077 0.910603 0
M  V30 4174 C 381.789 -1.65421 -0.15 0
M  V30 4175 O 382.974 -1.90797 -0.0103614 0
M  V30 4176 C 380.114 -3.42252 0.442472 0
M  V30 4177 C 379.227 -4.0252 1.5685 0
M  V30 4178 C 378.362 -5.20657 1.05309 0
M  V30 4179 C 377.401 -5.72955 2.1538 0
M  V30 4180 N 376.538 -6.8238 1.65233 0
M  V30 4181 H 381.378 -2.34764 1.83548 0
M  V30 4182 H 378.915 -1.15157 0.915279 0
M  V30 4183 H 380.873 -4.16921 0.152534 0
M  V30 4184 H 379.503 -3.19712 -0.445428 0
M  V30 4185 H 378.555 -3.25178 1.97391 0
M  V30 4186 H 379.867 -4.37362 2.39824 0
M  V30 4187 H 379.021 -6.0244 0.717677 0
M  V30 4188 H 377.76 -4.87318 0.19293 0
M  V30 4189 H 376.765 -4.89793 2.49766 0
M  V30 4190 H 377.99 -6.08337 3.01832 0
M  V30 4191 H 375.936 -6.50917 0.815064 0
M  V30 4192 H 375.853 -7.16286 2.41805 0
M  V30 4193 H 377.121 -7.67788 1.34619 0
M  V30 4194 N 381.35 -0.985608 -1.22978 0
M  V30 4195 C 382.766 -0.695104 -1.43668 0
M  V30 4196 C 382.966 0.736866 -1.87543 0
M  V30 4197 O 382.022 1.50868 -2.02473 0
M  V30 4198 C 383.335 -1.69447 -2.48412 0
M  V30 4199 C 384.883 -1.70909 -2.62219 0
M  V30 4200 C 385.358 -2.6969 -3.70178 0
M  V30 4201 N 386.849 -2.6824 -3.77626 0
M  V30 4202 C 387.584 -3.41339 -4.60733 0
M  V30 4203 N 387.08 -4.24015 -5.4789 0
M  V30 4204 N 388.873 -3.30079 -4.54977 0
M  V30 4205 H 381.024 -1.91054 -0.928016 0
M  V30 4206 H 383.287 -0.823553 -0.469536 0
M  V30 4207 H 382.993 -2.7188 -2.23102 0
M  V30 4208 H 382.867 -1.48147 -3.46889 0
M  V30 4209 H 385.254 -0.691785 -2.86877 0
M  V30 4210 H 385.335 -1.96276 -1.6404 0
M  V30 4211 H 384.979 -3.71566 -3.46268 0
M  V30 4212 H 384.909 -2.41595 -4.67909 0
M  V30 4213 H 387.4 -2.08243 -3.15346 0
M  V30 4214 H 387.713 -4.76636 -6.08308 0
M  V30 4215 H 386.058 -4.28104 -5.47496 0
M  V30 4216 H 389.249 -2.64937 -3.85909 0
M  V30 4217 H 389.422 -3.87308 -5.19516 0
M  V30 4218 N 382.828 1.3818 -0.7579 0
M  V30 4219 C 383.758 2.33027 -0.148597 0
M  V30 4220 C 384.739 1.55085 0.69875 0
M  V30 4221 O 385.924 1.83384 0.639053 0
M  V30 4222 C 383.054 3.3928 0.742034 0
M  V30 4223 C 382.008 4.28 -0.00291946 0
M  V30 4224 C 381.334 5.25146 1.00625 0
M  V30 4225 C 382.634 5.08938 -1.17385 0
M  V30 4226 H 384.328 2.84231 -0.940909 0
M  V30 4227 H 381.874 1.36659 -0.453908 0
M  V30 4228 H 383.827 4.046 1.17799 0
M  V30 4229 H 382.551 2.86569 1.56671 0
M  V30 4230 H 381.21 3.64192 -0.419504 0
M  V30 4231 H 380.858 4.68721 1.8251 0
M  V30 4232 H 380.558 5.85361 0.512428 0
M  V30 4233 H 382.082 5.93342 1.44143 0
M  V30 4234 H 383.496 5.67474 -0.815224 0
M  V30 4235 H 381.893 5.7841 -1.59882 0
M  V30 4236 H 382.963 4.42424 -1.98468 0
M  V30 4237 N 384.306 0.507319 1.49211 0
M  V30 4238 C 385.534 -0.0315749 2.06876 0
M  V30 4239 C 385.949 -1.30241 1.36685 0
M  V30 4240 O 385.306 -1.76937 0.447152 0
M  V30 4241 C 385.357 -0.282627 3.60393 0
M  V30 4242 O 385.078 0.937835 4.27944 0
M  V30 4243 C 386.579 -0.864453 4.3479 0
M  V30 4244 H 383.799 0.0233048 0.670595 0
M  V30 4245 H 386.343 0.706484 1.91909 0
M  V30 4246 H 384.498 -0.97068 3.75042 0
M  V30 4247 H 384.912 0.704567 5.19746 0
M  V30 4248 H 386.386 -0.989664 5.43056 0
M  V30 4249 H 386.863 -1.86382 3.97692 0
M  V30 4250 H 387.469 -0.213672 4.24763 0
M  V30 4251 N 385.784 -1.5574 0.241426 0
M  V30 4252 C 387.033 -1.97986 -0.385295 0
M  V30 4253 C 387.346 -1.13267 -1.59468 0
M  V30 4254 O 388.552 -1.45501 -2.2922 0
M  V30 4255 C 387.008 -3.52275 -0.736884 0
M  V30 4256 C 386.616 -4.45726 0.450796 0
M  V30 4257 C 388.36 -4.03189 -1.3281 0
M  V30 4258 C 386.267 -5.91352 0.0756662 0
M  V30 4259 H 385.197 -0.739386 -0.147731 0
M  V30 4260 H 387.848 -1.80308 0.340779 0
M  V30 4261 H 386.23 -3.65628 -1.52094 0
M  V30 4262 H 387.404 -4.44131 1.22819 0
M  V30 4263 H 385.719 -4.05264 0.956573 0
M  V30 4264 H 388.316 -5.09505 -1.62201 0
M  V30 4265 H 388.659 -3.50212 -2.25071 0
M  V30 4266 H 389.192 -3.93141 -0.607069 0
M  V30 4267 H 385.931 -6.48354 0.965272 0
M  V30 4268 H 385.451 -5.96095 -0.665635 0
M  V30 4269 H 387.13 -6.46084 -0.344075 0
M  V30 4270 N 387.262 0.0317525 -1.57568 0
M  V30 4271 C 388.225 1.01783 -2.0536 0
M  V30 4272 C 389.225 1.29203 -0.957253 0
M  V30 4273 O 390.415 1.24251 -1.22095 0
M  V30 4274 C 387.547 2.35137 -2.46827 0
M  V30 4275 H 388.74 0.605062 -2.93733 0
M  V30 4276 H 386.293 0.278514 -1.53799 0
M  V30 4277 H 387.028 2.81168 -1.61602 0
M  V30 4278 H 386.813 2.16566 -3.26866 0
M  V30 4279 H 388.303 3.05938 -2.84239 0
M  V30 4280 N 388.74 1.54641 0.303973 0
M  V30 4281 C 389.672 1.81754 1.39636 0
M  V30 4282 C 390.685 0.70035 1.46966 0
M  V30 4283 O 391.874 0.97778 1.49338 0
M  V30 4284 C 388.974 1.93785 2.7803 0
M  V30 4285 C 388.147 3.24156 2.93669 0
M  V30 4286 C 387.206 3.26641 4.12544 0
M  V30 4287 O 386.232 4.00187 4.04771 0
M  V30 4288 N 387.434 2.5182 5.23036 0
M  V30 4289 H 390.199 2.76031 1.16734 0
M  V30 4290 H 387.76 1.54178 0.494033 0
M  V30 4291 H 389.752 1.92852 3.55795 0
M  V30 4292 H 388.322 1.06515 2.93893 0
M  V30 4293 H 387.542 3.37887 2.03042 0
M  V30 4294 H 388.83 4.10195 3.01027 0
M  V30 4295 H 388.228 1.91692 5.32232 0
M  V30 4296 H 386.785 2.56644 5.99147 0
M  V30 4297 N 390.218 -0.567019 1.47046 0
M  V30 4298 C 391.467 -1.32091 1.5243 0
M  V30 4299 C 391.78 -1.94704 0.187021 0
M  V30 4300 O 392.986 -2.7124 0.118771 0
M  V30 4301 C 391.442 -2.39479 2.68659 0
M  V30 4302 C 391.05 -1.831 4.08874 0
M  V30 4303 C 392.794 -3.16111 2.83327 0
M  V30 4304 C 390.701 -2.8821 5.16419 0
M  V30 4305 H 389.631 -0.496629 0.56734 0
M  V30 4306 H 392.282 -0.603354 1.73297 0
M  V30 4307 H 390.664 -3.14105 2.41152 0
M  V30 4308 H 391.838 -1.14913 4.46242 0
M  V30 4309 H 390.153 -1.19085 3.99008 0
M  V30 4310 H 392.75 -3.94585 3.60842 0
M  V30 4311 H 393.093 -3.69686 1.91411 0
M  V30 4312 H 393.626 -2.48595 3.10556 0
M  V30 4313 H 390.365 -2.39504 6.10179 0
M  V30 4314 H 389.885 -3.54839 4.8358 0
M  V30 4315 H 391.564 -3.51881 5.42945 0
M  V30 4316 N 391.696 -1.35014 -0.812953 0
M  V30 4317 C 392.643 -1.27412 -1.92444 0
M  V30 4318 C 393.613 -0.14733 -1.65445 0
M  V30 4319 O 394.798 -0.329974 -1.87925 0
M  V30 4320 C 391.938 -1.04558 -3.28879 0
M  V30 4321 C 391.051 -2.26101 -3.68106 0
M  V30 4322 C 390.186 -1.96449 -4.9354 0
M  V30 4323 C 389.225 -3.14081 -5.25376 0
M  V30 4324 N 388.362 -2.84246 -6.41988 0
M  V30 4325 H 393.202 -2.22463 -1.98278 0
M  V30 4326 H 390.739 -1.10593 -0.969933 0
M  V30 4327 H 392.697 -0.893413 -4.07522 0
M  V30 4328 H 391.327 -0.131719 -3.22531 0
M  V30 4329 H 390.379 -2.52204 -2.84775 0
M  V30 4330 H 391.691 -3.13959 -3.87597 0
M  V30 4331 H 390.845 -1.78026 -5.79993 0
M  V30 4332 H 389.584 -1.05867 -4.76071 0
M  V30 4333 H 388.589 -3.33089 -4.37415 0
M  V30 4334 H 389.814 -4.05455 -5.44778 0
M  V30 4335 H 387.76 -1.96252 -6.25956 0
M  V30 4336 H 387.677 -3.65637 -6.61699 0
M  V30 4337 H 388.945 -2.6935 -7.31485 0
M  V30 4338 N 393.175 1.03435 -1.18907 0
M  V30 4339 C 394.085 2.15075 -0.937015 0
M  V30 4340 C 395.101 1.73706 0.101085 0
M  V30 4341 O 396.277 2.01232 -0.0822948 0
M  V30 4342 C 393.342 3.43458 -0.473057 0
M  V30 4343 C 392.403 3.99172 -1.57989 0
M  V30 4344 C 391.636 5.21427 -1.13797 0
M  V30 4345 O 391.859 5.704 0.000725941 0
M  V30 4346 O 390.793 5.69837 -1.9383 0
M  V30 4347 H 394.619 2.39198 -1.87131 0
M  V30 4348 H 392.204 1.13506 -0.971427 0
M  V30 4349 H 394.086 4.20811 -0.222702 0
M  V30 4350 H 392.761 3.20793 0.432869 0
M  V30 4351 H 391.668 3.23178 -1.88433 0
M  V30 4352 H 393.001 4.2619 -2.46217 0
M  V30 4353 N 394.653 0.992116 1.22453 0
M  V30 4354 C 395.603 0.512969 2.22155 0
M  V30 4355 C 396.587 -0.418416 1.55364 0
M  V30 4356 O 397.779 -0.245363 1.75291 0
M  V30 4357 C 394.908 -0.171822 3.4287 0
M  V30 4358 C 393.994 0.779822 4.16869 0
M  V30 4359 N 394.385 1.92734 4.6764 0
M  V30 4360 C 392.683 0.59554 4.42006 0
M  V30 4361 C 393.384 2.52458 5.24061 0
M  V30 4362 N 392.36 1.80735 5.12675 0
M  V30 4363 H 396.162 1.38817 2.5905 0
M  V30 4364 H 393.676 0.854277 1.38115 0
M  V30 4365 H 395.673 -0.532469 4.13486 0
M  V30 4366 H 394.333 -1.04317 3.07487 0
M  V30 4367 H 395.344 2.30816 4.63621 0
M  V30 4368 H 392.021 -0.229805 4.16867 0
M  V30 4369 H 393.411 3.49433 5.73887 0
M  V30 4370 N 396.131 -1.37776 0.765217 0
M  V30 4371 C 397.078 -2.30342 0.145274 0
M  V30 4372 C 398.048 -1.5077 -0.696971 0
M  V30 4373 O 399.233 -1.79362 -0.650689 0
M  V30 4374 C 396.373 -3.37227 -0.732939 0
M  V30 4375 C 395.486 -4.31819 0.125199 0
M  V30 4376 C 394.621 -5.25777 -0.757107 0
M  V30 4377 C 393.66 -6.12012 0.103963 0
M  V30 4378 N 392.797 -6.98232 -0.735953 0
M  V30 4379 H 397.637 -2.8278 0.940195 0
M  V30 4380 H 395.174 -1.39211 0.475255 0
M  V30 4381 H 397.132 -3.97818 -1.25686 0
M  V30 4382 H 395.762 -2.86171 -1.49353 0
M  V30 4383 H 394.814 -3.7259 0.766865 0
M  V30 4384 H 396.126 -4.92509 0.789683 0
M  V30 4385 H 395.28 -5.91541 -1.34776 0
M  V30 4386 H 394.019 -4.65481 -1.45529 0
M  V30 4387 H 393.024 -5.45233 0.707197 0
M  V30 4388 H 394.249 -6.74379 0.799381 0
M  V30 4389 H 392.195 -6.40472 -1.41887 0
M  V30 4390 H 392.112 -7.55891 -0.128624 0
M  V30 4391 H 393.38 -7.68393 -1.31121 0
M  V30 4392 N 397.609 -0.515225 -1.4894 0
M  V30 4393 C 398.855 0.016187 -2.03394 0
M  V30 4394 C 399.21 1.33377 -1.38666 0
M  V30 4395 O 398.503 1.84461 -0.518141 0
M  V30 4396 C 398.697 0.210595 -3.56779 0
M  V30 4397 C 398.526 -1.08659 -4.36375 0
M  V30 4398 C 397.296 -1.64237 -4.77864 0
M  V30 4399 C 399.494 -1.9935 -4.74093 0
M  V30 4400 N 397.476 -2.88398 -5.41941 0
M  V30 4401 C 398.847 -3.08088 -5.38035 0
M  V30 4402 C 400.902 -1.99856 -4.56029 0
M  V30 4403 C 399.605 -4.17377 -5.85823 0
M  V30 4404 C 401.631 -3.08129 -5.04787 0
M  V30 4405 C 400.993 -4.15586 -5.68742 0
M  V30 4406 H 397.092 -0.0352107 -0.781207 0
M  V30 4407 H 399.676 -0.693237 -1.8194 0
M  V30 4408 H 397.847 0.889088 -3.78087 0
M  V30 4409 H 399.579 0.740287 -3.97872 0
M  V30 4410 H 396.334 -1.18566 -4.58518 0
M  V30 4411 H 396.758 -3.51572 -5.78555 0
M  V30 4412 H 401.4 -1.18079 -4.05977 0
M  V30 4413 H 399.118 -4.99943 -6.34888 0
M  V30 4414 H 402.704 -3.09557 -4.92611 0
M  V30 4415 H 401.584 -4.97987 -6.05787 0
M  V30 4416 N 399.087 1.5561 -0.249682 0
M  V30 4417 C 400.02 2.17537 0.689408 0
M  V30 4418 C 400.998 1.12829 1.17083 0
M  V30 4419 O 402.182 1.41229 1.24846 0
M  V30 4420 C 399.309 2.77828 1.93725 0
M  V30 4421 C 398.355 3.95615 1.59346 0
M  V30 4422 S 399.188 5.30988 0.69367 0
M  V30 4423 C 400.344 5.94734 1.95046 0
M  V30 4424 H 400.577 2.96852 0.163142 0
M  V30 4425 H 398.11 1.54362 -0.0341166 0
M  V30 4426 H 400.068 3.13199 2.65361 0
M  V30 4427 H 398.729 1.98454 2.43465 0
M  V30 4428 H 397.922 4.364 2.52132 0
M  V30 4429 H 397.524 3.61535 0.957512 0
M  V30 4430 H 399.816 6.12419 2.89739 0
M  V30 4431 H 400.759 6.90109 1.58604 0
M  V30 4432 H 401.167 5.23832 2.10381 0
M  V30 4433 N 400.565 -0.0233959 1.57583 0
M  V30 4434 C 401.495 -1.02162 2.09965 0
M  V30 4435 C 402.476 -1.3735 1.00344 0
M  V30 4436 O 403.661 -1.46135 1.27899 0
M  V30 4437 C 400.791 -2.32081 2.58371 0
M  V30 4438 C 399.745 -2.1112 3.72307 0
M  V30 4439 C 399.071 -3.46848 4.06941 0
M  V30 4440 C 400.371 -1.49276 5.00514 0
M  V30 4441 H 402.065 -0.585557 2.93618 0
M  V30 4442 H 399.611 -0.280218 1.41247 0
M  V30 4443 H 401.564 -3.02249 2.93639 0
M  V30 4444 H 400.288 -2.77758 1.71808 0
M  V30 4445 H 398.947 -1.43384 3.37397 0
M  V30 4446 H 398.595 -3.90184 3.17436 0
M  V30 4447 H 398.295 -3.33646 4.83688 0
M  V30 4448 H 399.819 -4.18369 4.44747 0
M  V30 4449 H 401.233 -2.09368 5.33702 0
M  V30 4450 H 399.63 -1.46632 5.8191 0
M  V30 4451 H 400.7 -0.459217 4.82721 0
M  V30 4452 N 402.043 -1.548 -0.295768 0
M  V30 4453 C 403.292 -1.73538 -1.02798 0
M  V30 4454 C 403.605 -0.531159 -1.8825 0
M  V30 4455 O 404.811 -0.600458 -2.64777 0
M  V30 4456 C 403.267 -3.07051 -1.87744 0
M  V30 4457 C 402.875 -4.34968 -1.07269 0
M  V30 4458 C 404.619 -3.35146 -2.60533 0
M  V30 4459 C 402.526 -5.5953 -1.91521 0
M  V30 4460 H 401.456 -0.646794 -0.387522 0
M  V30 4461 H 404.107 -1.81278 -0.284718 0
M  V30 4462 H 402.489 -2.93289 -2.66078 0
M  V30 4463 H 403.663 -4.5958 -0.335117 0
M  V30 4464 H 401.978 -4.13847 -0.460384 0
M  V30 4465 H 404.575 -4.2541 -3.23929 0
M  V30 4466 H 404.918 -2.54255 -3.29636 0
M  V30 4467 H 405.451 -3.49902 -1.89244 0
M  V30 4468 H 402.19 -6.43103 -1.26878 0
M  V30 4469 H 401.71 -5.39096 -2.62937 0
M  V30 4470 H 403.389 -5.96982 -2.49442 0
M  V30 4471 N 403.521 0.559213 -1.47345 0
M  V30 4472 C 404.431 1.69388 -1.62311 0
M  V30 4473 C 405.447 1.6648 -0.505993 0
M  V30 4474 O 406.623 1.85964 -0.773262 0
M  V30 4475 C 403.688 3.05894 -1.63185 0
M  V30 4476 C 402.749 3.19885 -2.86307 0
M  V30 4477 C 401.982 4.49879 -2.87131 0
M  V30 4478 O 402.205 5.35217 -1.97229 0
M  V30 4479 O 401.139 4.67618 -3.78968 0
M  V30 4480 H 404.965 1.59706 -2.58317 0
M  V30 4481 H 402.55 0.728989 -1.30407 0
M  V30 4482 H 404.432 3.87133 -1.66451 0
M  V30 4483 H 403.107 3.15964 -0.70345 0
M  V30 4484 H 402.014 2.38052 -2.88587 0
M  V30 4485 H 403.347 3.14718 -3.78435 0
M  V30 4486 N 404.999 1.35443 0.805782 0
M  V30 4487 C 406.245 1.28952 1.56522 0
M  V30 4488 C 406.578 -0.135597 1.93726 0
M  V30 4489 O 405.853 -1.08516 1.61414 0
M  V30 4490 C 406.136 2.19678 2.85331 0
M  V30 4491 C 405.989 3.7081 2.54598 0
M  V30 4492 C 407.308 2.09495 3.8704 0
M  V30 4493 H 404.427 0.469764 0.567883 0
M  V30 4494 H 407.069 1.65851 0.927001 0
M  V30 4495 H 405.219 1.8834 3.39795 0
M  V30 4496 H 406.891 4.12593 2.06312 0
M  V30 4497 H 405.134 3.91051 1.8778 0
M  V30 4498 H 405.805 4.29679 3.46525 0
M  V30 4499 H 408.281 2.37045 3.41978 0
M  V30 4500 H 407.157 2.75173 4.74943 0
M  V30 4501 H 407.418 1.07714 4.28777 0
M  V30 4502 N 406.477 -1.02803 1.19454 0
M  V30 4503 C 407.888 -1.57667 0.999899 0
M  V30 4504 C 408.239 -1.91041 -0.446956 0
M  V30 4505 O 407.364 -1.70978 -1.32648 0
M  V30 4506 C 407.959 -2.86477 1.80877 0
M  V30 4507 C 406.518 -3.37911 1.65811 0
M  V30 4508 C 405.665 -2.11343 1.79526 0
M  V30 4509 H 408.616 -0.853214 1.33813 0
M  V30 4510 H 408.637 -3.57408 1.30536 0
M  V30 4511 H 408.149 -2.62155 2.86175 0
M  V30 4512 H 406.25 -3.67218 0.63102 0
M  V30 4513 H 406.363 -4.10885 2.46395 0
M  V30 4514 H 404.727 -2.23254 1.22596 0
M  V30 4515 H 405.51 -1.89461 2.86285 0
M  V30 4516 N 407.956 -0.998596 -1.21925 0
M  V30 4517 C 409.202 -0.678667 -1.91107 0
M  V30 4518 C 409.535 0.78791 -1.77498 0
M  V30 4519 O 408.81 1.57043 -1.1475 0
M  V30 4520 C 409.093 -1.09245 -3.43129 0
M  V30 4521 C 408.946 -2.61801 -3.6576 0
M  V30 4522 C 410.265 -0.649984 -4.35274 0
M  V30 4523 H 407.384 -0.248025 -0.694012 0
M  V30 4524 H 410.026 -1.24314 -1.43688 0
M  V30 4525 H 408.176 -0.612171 -3.83647 0
M  V30 4526 H 409.848 -3.17543 -3.34611 0
M  V30 4527 H 408.091 -3.03609 -3.09845 0
M  V30 4528 H 408.762 -2.85804 -4.7225 0
M  V30 4529 H 411.238 -1.0626 -4.02303 0
M  V30 4530 H 410.114 -0.967743 -5.40302 0
M  V30 4531 H 410.375 0.449139 -4.39813 0
M  V30 4532 N 409.434 1.37368 -0.772513 0
M  V30 4533 C 410.366 2.28899 -0.117502 0
M  V30 4534 C 411.379 1.4867 0.663405 0
M  V30 4535 O 412.568 1.71314 0.501372 0
M  V30 4536 C 409.668 3.2788 0.857192 0
M  V30 4537 C 408.841 4.37207 0.129938 0
M  V30 4538 C 407.9 5.16257 1.01811 0
M  V30 4539 O 406.926 5.67159 0.481601 0
M  V30 4540 N 408.128 5.31058 2.3443 0
M  V30 4541 H 410.893 2.85752 -0.903662 0
M  V30 4542 H 408.454 1.49353 -0.62493 0
M  V30 4543 H 410.446 3.77647 1.45482 0
M  V30 4544 H 409.016 2.7179 1.54432 0
M  V30 4545 H 408.236 3.88827 -0.648605 0
M  V30 4546 H 409.524 5.07434 -0.372559 0
M  V30 4547 H 408.922 4.91287 2.80452 0
M  V30 4548 H 407.479 5.84131 2.89197 0
M  V30 4549 N 410.912 0.523116 1.48665 0
M  V30 4550 C 412.328 0.180511 1.58576 0
M  V30 4551 C 412.528 -1.31597 1.52592 0
M  V30 4552 O 411.584 -2.0937 1.4114 0
M  V30 4553 C 412.897 0.776949 2.90489 0
M  V30 4554 C 414.445 0.745058 3.04003 0
M  V30 4555 C 414.92 1.31995 4.38567 0
M  V30 4556 N 416.411 1.28162 4.45117 0
M  V30 4557 C 417.146 1.6964 5.47731 0
M  V30 4558 N 416.642 2.18816 6.57337 0
M  V30 4559 N 418.435 1.6092 5.38573 0
M  V30 4560 H 410.586 1.4958 1.50797 0
M  V30 4561 H 412.849 0.621772 0.715614 0
M  V30 4562 H 412.555 1.82732 3.00503 0
M  V30 4563 H 412.429 0.25007 3.7637 0
M  V30 4564 H 414.816 -0.296532 2.93606 0
M  V30 4565 H 414.897 1.30933 2.1975 0
M  V30 4566 H 414.541 2.36043 4.49718 0
M  V30 4567 H 414.471 0.731418 5.21496 0
M  V30 4568 H 416.962 0.92155 3.66491 0
M  V30 4569 H 417.275 2.48478 7.31764 0
M  V30 4570 H 415.62 2.22805 6.58318 0
M  V30 4571 H 418.811 1.22304 4.5184 0
M  V30 4572 H 418.984 1.93567 6.18414 0
M  V30 4573 N 412.39 -1.55475 0.257931 0
M  V30 4574 C 413.801 -1.8511 -0.243135 0
M  V30 4575 C 414.152 -1.17986 -1.5676 0
M  V30 4576 O 413.277 -0.462102 -2.11409 0
M  V30 4577 C 413.872 -3.35826 -0.447929 0
M  V30 4578 C 412.431 -3.65647 -0.893245 0
M  V30 4579 C 411.578 -2.7729 0.0232965 0
M  V30 4580 H 414.529 -1.51261 0.480199 0
M  V30 4581 H 414.55 -3.58002 -1.28898 0
M  V30 4582 H 414.062 -3.84652 0.516196 0
M  V30 4583 H 412.163 -3.22308 -1.86945 0
M  V30 4584 H 412.276 -4.73312 -0.742469 0
M  V30 4585 H 410.64 -2.49942 -0.490021 0
M  V30 4586 H 411.423 -3.28926 0.982994 0
M  V30 4587 N 413.868 0.0150385 -1.57593 0
M  V30 4588 C 415.114 0.704043 -1.90187 0
M  V30 4589 C 415.447 1.74249 -0.857366 0
M  V30 4590 O 414.722 1.94092 0.125843 0
M  V30 4591 C 415.005 1.36087 -3.33395 0
M  V30 4592 C 414.858 0.334981 -4.48551 0
M  V30 4593 C 416.177 2.29112 -3.7576 0
M  V30 4594 H 413.296 0.254475 -0.691673 0
M  V30 4595 H 415.938 -0.0331678 -1.89971 0
M  V30 4596 H 414.088 1.98922 -3.3371 0
M  V30 4597 H 415.76 -0.292534 -4.60372 0
M  V30 4598 H 414.003 -0.344325 -4.32431 0
M  V30 4599 H 414.674 0.833316 -5.45674 0
M  V30 4600 H 417.15 1.76308 -3.76902 0
M  V30 4601 H 416.026 2.72043 -4.76743 0
M  V30 4602 H 416.287 3.16385 -3.08793 0
M  V30 4603 N 415.346 1.54954 0.287554 0
M  V30 4604 C 416.276 1.89839 1.35954 0
M  V30 4605 C 417.257 0.758675 1.52244 0
M  V30 4606 O 418.442 1.01557 1.65529 0
M  V30 4607 C 415.572 2.15753 2.72154 0
M  V30 4608 C 414.526 3.3159 2.70614 0
M  V30 4609 C 413.852 3.42952 4.10229 0
M  V30 4610 C 415.152 4.68359 2.31165 0
M  V30 4611 H 416.846 2.79625 1.07007 0
M  V30 4612 H 414.392 1.3454 0.513316 0
M  V30 4613 H 416.345 2.38743 3.47246 0
M  V30 4614 H 415.069 1.22752 3.02654 0
M  V30 4615 H 413.728 3.08545 1.97979 0
M  V30 4616 H 413.376 2.47443 4.37928 0
M  V30 4617 H 413.076 4.20826 4.10097 0
M  V30 4618 H 414.6 3.68218 4.87081 0
M  V30 4619 H 416.014 4.9099 2.95976 0
M  V30 4620 H 414.411 5.49044 2.42221 0
M  V30 4621 H 415.481 4.68165 1.26291 0
M  V30 4622 N 416.824 -0.551391 1.4764 0
M  V30 4623 C 418.054 -1.33163 1.57959 0
M  V30 4624 C 418.462 -1.87785 0.23094 0
M  V30 4625 O 417.805 -1.65996 -0.786825 0
M  V30 4626 C 417.867 -2.53449 2.54958 0
M  V30 4627 C 417.531 -2.20071 4.00522 0
M  V30 4628 C 418.528 -1.77017 4.88836 0
M  V30 4629 C 416.213 -2.31252 4.45901 0
M  V30 4630 C 418.207 -1.4558 6.20552 0
M  V30 4631 C 415.894 -1.99427 5.77644 0
M  V30 4632 C 416.892 -1.56659 6.64791 0
M  V30 4633 O 416.58 -1.25242 7.94084 0
M  V30 4634 H 416.312 -0.412022 0.535923 0
M  V30 4635 H 418.866 -0.674186 1.9402 0
M  V30 4636 H 417.096 -3.22104 2.13976 0
M  V30 4637 H 418.785 -3.15523 2.55343 0
M  V30 4638 H 419.551 -1.67867 4.55023 0
M  V30 4639 H 415.43 -2.63498 3.78272 0
M  V30 4640 H 418.974 -1.12125 6.8853 0
M  V30 4641 H 414.871 -2.08211 6.10998 0
M  V30 4642 H 415.639 -1.38822 8.06642 0
M  V30 4643 N 418.302 -1.35869 -0.798587 0
M  V30 4644 C 419.713 -1.26498 -1.37314 0
M  V30 4645 C 420.064 0.0991899 -1.95949 0
M  V30 4646 O 419.189 1.0004 -1.91888 0
M  V30 4647 C 419.784 -2.29054 -2.49639 0
M  V30 4648 C 418.343 -2.234 -3.02935 0
M  V30 4649 C 417.49 -2.14329 -1.75949 0
M  V30 4650 H 420.441 -1.46881 -0.600971 0
M  V30 4651 H 420.462 -1.92166 -3.28409 0
M  V30 4652 H 419.974 -3.2833 -2.06933 0
M  V30 4653 H 418.075 -1.27562 -3.50084 0
M  V30 4654 H 418.188 -3.15703 -3.60372 0
M  V30 4655 H 416.552 -1.60435 -1.9782 0
M  V30 4656 H 417.335 -3.15477 -1.35384 0
M  V30 4657 N 419.78 1.02168 -1.19998 0
M  V30 4658 C 420.712 2.10705 -0.901994 0
M  V30 4659 C 421.725 1.6244 0.108216 0
M  V30 4660 O 422.914 1.78082 -0.12214 0
M  V30 4661 C 420.014 3.37291 -0.329834 0
M  V30 4662 C 419.187 4.14714 -1.39035 0
M  V30 4663 C 418.246 5.19606 -0.830432 0
M  V30 4664 O 417.272 5.48809 -1.50989 0
M  V30 4665 N 418.474 5.79366 0.362696 0
M  V30 4666 H 421.239 2.36856 -1.83628 0
M  V30 4667 H 418.8 1.18518 -1.10296 0
M  V30 4668 H 420.792 4.04657 0.0587633 0
M  V30 4669 H 419.362 3.0843 0.508891 0
M  V30 4670 H 418.582 3.42392 -1.9535 0
M  V30 4671 H 419.87 4.63226 -2.10474 0
M  V30 4672 H 419.268 5.57968 0.932081 0
M  V30 4673 H 417.825 6.48106 0.69299 0
M  V30 4674 N 421.258 1.00505 1.21394 0
M  V30 4675 C 422.168 0.574806 2.27449 0
M  V30 4676 C 423.184 -0.382206 1.6975 0
M  V30 4677 O 424.36 -0.246027 1.99892 0
M  V30 4678 C 421.425 -0.0917414 3.46579 0
M  V30 4679 C 420.486 0.909758 4.1955 0
M  V30 4680 C 419.719 0.274924 5.32991 0
M  V30 4681 O 419.942 -0.928254 5.62796 0
M  V30 4682 O 418.876 0.985877 5.93771 0
M  V30 4683 H 422.702 1.45744 2.66444 0
M  V30 4684 H 420.287 0.773923 1.27792 0
M  V30 4685 H 422.169 -0.464551 4.18832 0
M  V30 4686 H 420.844 -0.948755 3.09484 0
M  V30 4687 H 419.751 1.33372 3.49518 0
M  V30 4688 H 421.084 1.73636 4.60555 0
M  V30 4689 N 422.737 -1.36956 0.779787 0
M  V30 4690 C 423.669 -2.28833 0.129639 0
M  V30 4691 C 424.682 -1.4902 -0.655511 0
M  V30 4692 O 425.871 -1.71578 -0.492279 0
M  V30 4693 C 422.971 -3.2833 -0.839792 0
M  V30 4694 C 422.144 -4.3727 -0.10675 0
M  V30 4695 C 421.203 -5.16789 -0.990717 0
M  V30 4696 O 420.229 -5.67406 -0.451516 0
M  V30 4697 N 421.431 -5.32294 -2.3161 0
M  V30 4698 H 424.196 -2.85268 0.918803 0
M  V30 4699 H 421.757 -1.49019 0.632841 0
M  V30 4700 H 423.749 -3.78413 -1.43477 0
M  V30 4701 H 422.319 -2.72605 -1.52988 0
M  V30 4702 H 421.539 -3.88478 0.669216 0
M  V30 4703 H 422.827 -5.07229 0.399464 0
M  V30 4704 H 422.225 -4.92768 -2.77843 0
M  V30 4705 H 420.782 -5.85656 -2.86095 0
M  V30 4706 N 424.215 -0.530993 -1.48385 0
M  V30 4707 C 425.125 0.23503 -2.3342 0
M  V30 4708 C 426.141 0.93801 -1.46552 0
M  V30 4709 O 427.317 0.912745 -1.7953 0
M  V30 4710 C 424.382 1.26778 -3.22689 0
M  V30 4711 C 423.443 0.575038 -4.25431 0
M  V30 4712 C 422.676 1.55858 -5.10435 0
M  V30 4713 O 422.899 2.79129 -4.97437 0
M  V30 4714 O 421.833 1.09742 -5.91811 0
M  V30 4715 H 425.659 -0.461794 -3.00169 0
M  V30 4716 H 423.244 -0.291903 -1.46521 0
M  V30 4717 H 425.126 1.86457 -3.77904 0
M  V30 4718 H 423.801 1.94699 -2.586 0
M  V30 4719 H 422.708 -0.0622782 -3.74048 0
M  V30 4720 H 424.041 -0.062253 -4.92161 0
M  V30 4721 N 425.693 1.55336 -0.266172 0
M  V30 4722 C 426.641 2.23587 0.641228 0
M  V30 4723 C 427.635 1.22986 1.16494 0
M  V30 4724 O 428.841 1.40943 1.1196 0
M  V30 4725 H 425.216 0.717452 0.225315 0
M  V30 4726 H 427.187 2.9837 0.0426561 0
M  V30 4727 C 425.936 2.96369 1.81826 0
M  V30 4728 H 425.259 3.73563 1.42445 0
M  V30 4729 H 426.699 3.47459 2.42998 0
M  V30 4730 C 425.158 2.0133 2.70125 0
M  V30 4731 O 425.688 1.55875 3.70224 0
M  V30 4732 N 423.894 1.6802 2.37102 0
M  V30 4733 H 423.441 2.05181 1.55751 0
M  V30 4734 H 423.399 1.047 2.96454 0
M  V30 4735 N 427.171 -0.0066808 1.57599 0
M  V30 4736 C 428.081 -1.01671 2.11424 0
M  V30 4737 C 429.097 -1.38143 1.05795 0
M  V30 4738 O 430.273 -1.47011 1.37658 0
M  V30 4739 C 427.338 -2.29192 2.60139 0
M  V30 4740 C 426.399 -1.99094 3.80342 0
M  V30 4741 C 425.632 -3.20535 4.26724 0
M  V30 4742 O 425.855 -4.3199 3.72479 0
M  V30 4743 O 424.789 -3.04924 5.18946 0
M  V30 4744 H 428.615 -0.589181 2.9793 0
M  V30 4745 H 426.2 -0.225091 1.47695 0
M  V30 4746 H 428.082 -3.0412 2.917 0
M  V30 4747 H 426.757 -2.71195 1.76733 0
M  V30 4748 H 425.664 -1.21663 3.53764 0
M  V30 4749 H 426.997 -1.61931 4.648 0
M  V30 4750 N 428.649 -1.55105 -0.279332 0
M  V30 4751 C 430.06 -1.66186 -0.850832 0
M  V30 4752 C 430.411 -0.584707 -1.87285 0
M  V30 4753 O 429.536 0.274919 -2.14647 0
M  V30 4754 C 430.131 -3.01264 -1.55001 0
M  V30 4755 C 428.69 -3.14394 -2.06963 0
M  V30 4756 C 427.837 -2.61959 -0.909536 0
M  V30 4757 H 430.788 -1.58602 -0.0558235 0
M  V30 4758 H 430.809 -2.93899 -2.41669 0
M  V30 4759 H 430.321 -3.7964 -0.805931 0
M  V30 4760 H 428.422 -2.4078 -2.84352 0
M  V30 4761 H 428.535 -4.20867 -2.28928 0
M  V30 4762 H 426.899 -2.18957 -1.30116 0
M  V30 4763 H 427.682 -3.42833 -0.179062 0
M  V30 4764 N 430.127 0.543554 -1.4793 0
M  V30 4765 C 431.352 1.32995 -1.59145 0
M  V30 4766 C 431.777 1.86472 -0.246956 0
M  V30 4767 O 431.135 1.63696 0.779324 0
M  V30 4768 C 431.183 2.46623 -2.63077 0
M  V30 4769 O 430.287 3.49261 -2.19295 0
M  V30 4770 H 429.628 0.394472 -0.534124 0
M  V30 4771 H 432.158 0.655489 -1.93816 0
M  V30 4772 H 432.168 2.93001 -2.83926 0
M  V30 4773 H 430.843 2.07059 -3.60693 0
M  V30 4774 H 429.42 3.09094 -2.08603 0
M  V30 4775 N 431.605 1.3629 0.791371 0
M  V30 4776 C 432.854 1.29742 1.54434 0
M  V30 4777 C 433.167 -0.121729 1.95221 0
M  V30 4778 O 434.373 -0.309579 2.69729 0
M  V30 4779 C 432.829 2.27623 2.78776 0
M  V30 4780 C 432.437 3.74963 2.45166 0
M  V30 4781 C 434.181 2.30047 3.56761 0
M  V30 4782 C 432.088 4.64626 3.65891 0
M  V30 4783 H 431.018 0.482113 0.579727 0
M  V30 4784 H 433.669 1.61642 0.868565 0
M  V30 4785 H 432.051 1.88714 3.48142 0
M  V30 4786 H 433.225 4.22596 1.83709 0
M  V30 4787 H 431.54 3.75295 1.80396 0
M  V30 4788 H 434.137 2.94247 4.46456 0
M  V30 4789 H 434.48 1.30846 3.95203 0
M  V30 4790 H 435.013 2.67563 2.94372 0
M  V30 4791 H 431.752 5.64883 3.32547 0
M  V30 4792 H 431.272 4.2171 4.26521 0
M  V30 4793 H 432.951 4.80801 4.32943 0
M  V30 4794 N 433.083 -1.0153 1.20538 0
M  V30 4795 C 434.331 -1.74803 1.01432 0
M  V30 4796 C 434.652 -1.8963 -0.454456 0
M  V30 4797 O 433.922 -1.43975 -1.32846 0
M  V30 4798 H 432.502 -0.647598 0.372324 0
M  V30 4799 H 435.164 -1.22402 1.5167 0
M  V30 4800 H 434.26 -2.75114 1.47373 0
M  V30 4801 N 434.561 -1.01147 -1.20859 0
M  V30 4802 C 435.471 -0.58686 -2.27141 0
M  V30 4803 C 436.487 0.373198 -1.69951 0
M  V30 4804 O 437.663 0.235423 -2.00019 0
M  V30 4805 C 434.728 0.0733602 -3.46622 0
M  V30 4806 C 433.789 -0.931995 -4.19061 0
M  V30 4807 C 433.022 -0.303186 -5.32838 0
M  V30 4808 O 433.245 0.898395 -5.63281 0
M  V30 4809 O 432.179 -1.01735 -5.9324 0
M  V30 4810 H 436.005 -1.47155 -2.65667 0
M  V30 4811 H 433.59 -0.780689 -1.2738 0
M  V30 4812 H 435.472 0.442333 -4.19072 0
M  V30 4813 H 434.147 0.932329 -3.09983 0
M  V30 4814 H 433.054 -1.35224 -3.48805 0
M  V30 4815 H 434.387 -1.76076 -4.59628 0
M  V30 4816 N 436.039 1.36541 -0.78704 0
M  V30 4817 C 437.286 1.99304 -0.358341 0
M  V30 4818 C 437.614 1.62467 1.06933 0
M  V30 4819 O 436.869 0.870019 1.75297 0
M  V30 4820 C 437.168 3.54343 -0.466485 0
M  V30 4821 C 436.834 4.10993 -1.85461 0
M  V30 4822 C 435.496 4.26177 -2.23443 0
M  V30 4823 C 437.848 4.41895 -2.76366 0
M  V30 4824 C 435.176 4.69573 -3.51736 0
M  V30 4825 C 437.528 4.86722 -4.04084 0
M  V30 4826 C 436.192 5.00112 -4.42091 0
M  V30 4827 H 435.462 0.729306 -0.131126 0
M  V30 4828 H 438.109 1.63068 -1.00404 0
M  V30 4829 H 436.414 3.90918 0.262719 0
M  V30 4830 H 438.111 4.00833 -0.115854 0
M  V30 4831 H 434.701 3.99612 -1.54946 0
M  V30 4832 H 438.885 4.29735 -2.48277 0
M  V30 4833 H 434.141 4.78127 -3.81057 0
M  V30 4834 H 438.315 5.09598 -4.7464 0
M  V30 4835 H 435.942 5.33498 -5.41557 0
M  V30 4836 N 437.518 0.538854 1.48102 0
M  V30 4837 C 438.466 -0.232325 2.31437 0
M  V30 4838 C 439.46 -0.927004 1.41785 0
M  V30 4839 O 440.666 -0.850378 1.58646 0
M  V30 4840 H 437.041 -0.0937916 0.746128 0
M  V30 4841 H 439.012 0.489986 2.9435 0
M  V30 4842 C 437.761 -1.26074 3.24038 0
M  V30 4843 H 437.084 -0.735609 3.92974 0
M  V30 4844 H 438.524 -1.77157 3.85216 0
M  V30 4845 C 436.983 -2.29902 2.46265 0
M  V30 4846 O 437.513 -3.36502 2.19384 0
M  V30 4847 N 435.719 -2.03348 2.07601 0
M  V30 4848 H 435.266 -1.16675 2.29662 0
M  V30 4849 H 435.224 -2.73038 1.55877 0
M  V30 4850 N 438.996 -1.55193 0.274407 0
M  V30 4851 C 439.906 -2.26164 -0.623473 0
M  V30 4852 C 440.922 -1.28729 -1.17068 0
M  V30 4853 O 442.098 -1.61663 -1.20112 0
M  V30 4854 C 439.163 -2.96833 -1.7914 0
M  V30 4855 C 438.224 -4.09745 -1.28093 0
M  V30 4856 C 437.457 -4.77034 -2.3932 0
M  V30 4857 O 437.68 -4.4353 -3.5866 0
M  V30 4858 O 436.614 -5.64996 -2.07516 0
M  V30 4859 H 440.44 -3.03661 -0.0485661 0
M  V30 4860 H 438.025 -1.49341 0.0418382 0
M  V30 4861 H 439.907 -3.41248 -2.4724 0
M  V30 4862 H 438.582 -2.22253 -2.35341 0
M  V30 4863 H 437.489 -3.69787 -0.566416 0
M  V30 4864 H 438.822 -4.86224 -0.764683 0
M  V30 4865 N 440.474 -0.00167713 -1.576 0
M  V30 4866 C 441.406 1.0174 -2.05382 0
M  V30 4867 C 442.419 1.30595 -0.972052 0
M  V30 4868 O 443.608 1.27542 -1.24882 0
M  V30 4869 C 440.708 2.35174 -2.44022 0
M  V30 4870 C 439.881 2.25234 -3.74951 0
M  V30 4871 C 438.94 3.4137 -4.00441 0
M  V30 4872 O 437.966 3.19483 -4.71083 0
M  V30 4873 N 439.168 4.64275 -3.48467 0
M  V30 4874 H 441.933 0.609902 -2.93428 0
M  V30 4875 H 439.494 0.185672 -1.60832 0
M  V30 4876 H 441.486 3.11643 -2.58187 0
M  V30 4877 H 440.056 2.67659 -1.61485 0
M  V30 4878 H 439.276 1.33664 -3.70847 0
M  V30 4879 H 440.564 2.15767 -4.60784 0
M  V30 4880 H 439.962 4.84955 -2.91264 0
M  V30 4881 H 438.519 5.38005 -3.67959 0
M  V30 4882 N 441.952 1.55251 0.271103 0
M  V30 4883 C 443.198 1.76207 1.00394 0
M  V30 4884 C 443.531 0.562604 1.85872 0
M  V30 4885 O 442.806 -0.439785 1.89463 0
M  V30 4886 C 443.089 3.06828 1.8849 0
M  V30 4887 C 442.942 4.37134 1.05992 0
M  V30 4888 C 444.261 3.33503 2.87165 0
M  V30 4889 H 441.38 0.641086 0.363562 0
M  V30 4890 H 444.022 1.87982 0.276189 0
M  V30 4891 H 442.172 2.96921 2.5054 0
M  V30 4892 H 443.844 4.59001 0.459978 0
M  V30 4893 H 442.087 4.32275 0.363443 0
M  V30 4894 H 442.758 5.2486 1.70955 0
M  V30 4895 H 445.234 3.43215 2.3525 0
M  V30 4896 H 444.11 4.2616 3.45946 0
M  V30 4897 H 444.371 2.53235 3.62387 0
M  V30 4898 N 443.43 -0.535701 1.48216 0
M  V30 4899 C 444.36 -1.65014 1.65204 0
M  V30 4900 C 445.341 -1.62554 0.501011 0
M  V30 4901 O 446.526 -1.7984 0.732886 0
M  V30 4902 C 443.656 -3.03616 1.68626 0
M  V30 4903 C 442.61 -3.20932 2.83172 0
M  V30 4904 C 441.936 -4.60537 2.71679 0
M  V30 4905 C 443.236 -3.04249 4.24535 0
M  V30 4906 H 444.93 -1.51053 2.58502 0
M  V30 4907 H 442.476 -0.725262 1.24402 0
M  V30 4908 H 444.429 -3.81446 1.79099 0
M  V30 4909 H 443.153 -3.18587 0.719026 0
M  V30 4910 H 441.812 -2.45517 2.72244 0
M  V30 4911 H 441.46 -4.72336 1.72937 0
M  V30 4912 H 441.16 -4.73069 3.48538 0
M  V30 4913 H 442.684 -5.40475 2.84112 0
M  V30 4914 H 444.098 -3.71877 4.36326 0
M  V30 4915 H 442.495 -3.28278 5.02348 0
M  V30 4916 H 443.565 -2.00739 4.41397 0
M  V30 4917 N 444.908 -1.36708 -0.784132 0
M  V30 4918 C 446.324 -1.17237 -1.08294 0
M  V30 4919 C 446.524 -5.93947e-05 -2.015 0
M  V30 4920 O 445.58 0.663686 -2.43622 0
M  V30 4921 C 446.893 -2.48557 -1.69233 0
M  V30 4922 C 448.441 -2.54968 -1.8155 0
M  V30 4923 C 448.916 -3.86388 -2.45904 0
M  V30 4924 N 450.407 -3.87762 -2.53367 0
M  V30 4925 C 451.142 -4.86191 -3.03983 0
M  V30 4926 N 450.638 -5.95015 -3.54866 0
M  V30 4927 N 452.431 -4.73606 -3.02743 0
M  V30 4928 H 444.582 -2.11758 -0.16501 0
M  V30 4929 H 446.845 -0.93822 -0.135822 0
M  V30 4930 H 446.551 -3.34638 -1.08215 0
M  V30 4931 H 446.425 -2.64748 -2.68679 0
M  V30 4932 H 448.812 -1.69302 -2.41704 0
M  V30 4933 H 448.893 -2.42672 -0.80895 0
M  V30 4934 H 448.537 -4.72462 -1.86392 0
M  V30 4935 H 448.467 -3.95982 -3.4714 0
M  V30 4936 H 450.958 -3.09145 -2.17343 0
M  V30 4937 H 451.271 -6.66086 -3.91854 0
M  V30 4938 H 449.616 -5.98676 -3.53003 0
M  V30 4939 H 452.807 -3.87717 -2.62284 0
M  V30 4940 H 452.98 -5.50473 -3.41881 0
M  V30 4941 N 446.386 1.0089 -1.21074 0
M  V30 4942 C 447.316 2.1145 -0.990523 0
M  V30 4943 C 448.297 1.69897 0.0831699 0
M  V30 4944 O 449.482 1.94052 -0.0758853 0
M  V30 4945 C 446.612 3.42914 -0.550177 0
M  V30 4946 C 445.566 3.98244 -1.56799 0
M  V30 4947 C 444.892 5.25568 -0.984013 0
M  V30 4948 C 446.192 4.30752 -2.95381 0
M  V30 4949 H 447.886 2.3013 -1.91521 0
M  V30 4950 H 445.432 1.10592 -0.92225 0
M  V30 4951 H 447.385 4.19653 -0.383305 0
M  V30 4952 H 446.109 3.24014 0.41015 0
M  V30 4953 H 444.768 3.23621 -1.72236 0
M  V30 4954 H 444.416 5.02998 -0.0155216 0
M  V30 4955 H 444.116 5.63551 -1.66384 0
M  V30 4956 H 445.64 6.04955 -0.828378 0
M  V30 4957 H 447.054 4.98349 -2.8341 0
M  V30 4958 H 445.451 4.79869 -3.60341 0
M  V30 4959 H 446.521 3.39192 -3.46521 0
M  V30 4960 N 447.864 1.01787 1.20321 0
M  V30 4961 C 448.797 0.533882 2.21867 0
M  V30 4962 C 449.775 -0.419361 1.57099 0
M  V30 4963 O 450.959 -0.339062 1.85426 0
M  V30 4964 C 448.086 -0.222899 3.37966 0
M  V30 4965 C 447.132 0.680091 4.21043 0
M  V30 4966 S 447.965 2.14997 4.90445 0
M  V30 4967 C 449.121 1.40339 6.09964 0
M  V30 4968 H 449.354 1.39429 2.62577 0
M  V30 4969 H 446.887 0.826867 1.30393 0
M  V30 4970 H 448.845 -0.653425 4.05266 0
M  V30 4971 H 447.506 -1.0589 2.95713 0
M  V30 4972 H 446.699 0.0964704 5.03908 0
M  V30 4973 H 446.301 1.04845 3.59004 0
M  V30 4974 H 448.593 0.68407 6.74038 0
M  V30 4975 H 449.536 2.20823 6.72787 0
M  V30 4976 H 449.944 0.905716 5.57187 0
M  V30 4977 N 449.342 -1.36122 0.79427 0
M  V30 4978 C 450.292 -2.27373 0.169017 0
M  V30 4979 C 451.276 -1.4719 -0.649913 0
M  V30 4980 O 452.468 -1.69518 -0.50919 0
M  V30 4981 C 449.597 -3.36264 -0.691455 0
M  V30 4982 C 448.683 -4.2388 0.13653 0
M  V30 4983 N 449.074 -4.91519 1.19345 0
M  V30 4984 C 447.372 -4.45921 -0.0838499 0
M  V30 4985 C 448.073 -5.56369 1.6979 0
M  V30 4986 N 447.049 -5.34204 1.00634 0
M  V30 4987 H 450.851 -2.77154 0.977897 0
M  V30 4988 H 448.365 -1.49504 0.634208 0
M  V30 4989 H 450.362 -4.00572 -1.15534 0
M  V30 4990 H 449.022 -2.88037 -1.49883 0
M  V30 4991 H 450.033 -4.9334 1.57594 0
M  V30 4992 H 446.71 -4.08518 -0.861341 0
M  V30 4993 H 448.1 -6.20368 2.58055 0
M  V30 4994 N 450.82 -0.546701 -1.47814 0
M  V30 4995 C 452.045 -0.021268 -2.07389 0
M  V30 4996 C 452.47 1.25822 -1.39822 0
M  V30 4997 O 451.828 1.75111 -0.46968 0
M  V30 4998 C 451.876 0.168502 -3.60206 0
M  V30 4999 O 450.98 1.23347 -3.93522 0
M  V30 5000 H 450.321 -0.0466108 -0.662362 0
M  V30 5001 H 452.851 -0.759387 -1.89985 0
M  V30 5002 H 452.861 0.385982 -4.0617 0
M  V30 5003 H 451.536 -0.766075 -4.08784 0
M  V30 5004 H 450.113 0.997319 -3.59316 0
M  V30 5005 N 452.299 1.55045 -0.282633 0
M  V30 5006 C 453.229 2.2579 0.595066 0
M  V30 5007 C 454.21 1.25074 1.15284 0
M  V30 5008 O 455.395 1.5381 1.18559 0
M  V30 5009 C 452.525 2.98472 1.77572 0
M  V30 5010 C 451.479 4.0618 1.34914 0
M  V30 5011 C 450.805 4.66477 2.6135 0
M  V30 5012 C 452.105 5.1996 0.493821 0
M  V30 5013 H 453.799 2.994 0.00505653 0
M  V30 5014 H 451.345 1.44 0.000992001 0
M  V30 5015 H 453.298 3.46677 2.39568 0
M  V30 5016 H 452.022 2.2241 2.39168 0
M  V30 5017 H 450.681 3.58797 0.752338 0
M  V30 5018 H 450.329 3.87074 3.2122 0
M  V30 5019 H 450.029 5.39207 2.33516 0
M  V30 5020 H 451.553 5.17435 3.24181 0
M  V30 5021 H 452.967 5.64172 1.01898 0
M  V30 5022 H 451.364 5.99299 0.310047 0
M  V30 5023 H 452.434 4.82462 -0.485593 0
M  V30 5024 N 453.777 0.010035 1.57597 0
M  V30 5025 C 455.025 -0.671371 1.90623 0
M  V30 5026 C 455.346 -1.73753 0.885151 0
M  V30 5027 O 454.616 -1.95752 -0.0760611 0
M  V30 5028 H 453.196 -0.250968 0.703579 0
M  V30 5029 H 455.858 0.0533325 1.94827 0
M  V30 5030 H 454.954 -1.13626 2.90681 0
M  V30 5031 N 455.255 -1.55392 -0.262866 0
M  V30 5032 C 456.504 -1.75679 -0.990943 0
M  V30 5033 C 456.817 -0.57097 -1.87081 0
M  V30 5034 O 458.023 -0.656486 -2.63444 0
M  V30 5035 C 456.479 -3.10964 -1.81188 0
M  V30 5036 C 456.087 -4.37146 -0.980188 0
M  V30 5037 C 457.831 -3.40597 -2.53365 0
M  V30 5038 C 455.738 -5.63466 -1.7961 0
M  V30 5039 H 454.668 -0.654868 -0.373716 0
M  V30 5040 H 457.319 -1.81841 -0.246203 0
M  V30 5041 H 455.701 -2.98867 -2.59797 0
M  V30 5042 H 456.875 -4.60187 -0.237558 0
M  V30 5043 H 455.19 -4.14731 -0.372497 0
M  V30 5044 H 457.787 -4.32186 -3.14833 0
M  V30 5045 H 458.13 -2.6119 -3.24169 0
M  V30 5046 H 458.663 -3.53838 -1.81779 0
M  V30 5047 H 455.402 -6.4565 -1.13209 0
M  V30 5048 H 454.922 -5.44552 -2.51443 0
M  V30 5049 H 456.601 -6.02139 -2.36723 0
M  V30 5050 N 456.733 0.527833 -1.48498 0
M  V30 5051 C 458.01 1.28905 -1.47115 0
M  V30 5052 C 458.39 2.10297 -0.184007 0
M  V30 5053 O 457.738 2.12728 0.834218 0
M  V30 5054 C 457.948 2.16866 -2.73441 0
M  V30 5055 C 459.296 2.76936 -3.21857 0
M  V30 5056 O 460.32 2.27152 -2.74373 0
M  V30 5057 O 459.179 3.67496 -4.04486 0
M  V30 5058 H 456.273 0.581918 -0.587623 0
M  V30 5059 H 458.819 0.544311 -1.60734 0
M  V30 5060 H 457.591 1.56521 -3.58632 0
M  V30 5061 H 457.214 2.98583 -2.62553 0
M  V30 5062 N 458.211 1.37122 0.776871 0
M  V30 5063 C 459.143 1.28342 1.89897 0
M  V30 5064 C 460.156 0.200277 1.61563 0
M  V30 5065 O 461.345 0.456012 1.72577 0
M  V30 5066 C 458.445 0.960427 3.25006 0
M  V30 5067 C 457.618 2.148 3.81025 0
M  V30 5068 C 456.677 1.79608 4.94598 0
M  V30 5069 O 455.703 2.51845 5.10454 0
M  V30 5070 N 456.905 0.737171 5.758 0
M  V30 5071 H 459.67 2.25027 1.97947 0
M  V30 5072 H 457.231 1.3068 0.955739 0
M  V30 5073 H 459.223 0.705942 3.98495 0
M  V30 5074 H 457.793 0.0823066 3.12492 0
M  V30 5075 H 457.013 2.56454 2.99374 0
M  V30 5076 H 458.301 2.9411 4.15183 0
M  V30 5077 H 457.699 0.137637 5.65533 0
M  V30 5078 H 456.256 0.542534 6.49538 0
M  V30 5079 N 459.689 -1.00246 1.21608 0
M  V30 5080 C 460.621 -2.09244 0.935401 0
M  V30 5081 C 461.634 -1.62592 -0.0823594 0
M  V30 5082 O 462.823 -1.77865 0.150456 0
M  V30 5083 C 459.923 -3.36724 0.383453 0
M  V30 5084 C 459.096 -4.1245 1.45615 0
M  V30 5085 C 458.155 -5.18219 0.912991 0
M  V30 5086 O 457.181 -5.46337 1.59701 0
M  V30 5087 N 458.383 -5.7987 -0.270478 0
M  V30 5088 H 461.148 -2.33905 1.87373 0
M  V30 5089 H 458.709 -1.16748 1.12167 0
M  V30 5090 H 460.701 -4.047 0.00562157 0
M  V30 5091 H 459.271 -3.09201 -0.459758 0
M  V30 5092 H 458.491 -3.39241 2.00772 0
M  V30 5093 H 459.779 -4.59819 2.17817 0
M  V30 5094 H 459.177 -5.59381 -0.843195 0
M  V30 5095 H 457.734 -6.49126 -0.589794 0
M  V30 5096 N 461.167 -1.02423 -1.1978 0
M  V30 5097 C 462.114 -0.601023 -2.22837 0
M  V30 5098 C 463.084 0.382801 -1.61629 0
M  V30 5099 O 464.269 0.280514 -1.88727 0
M  V30 5100 C 461.409 0.0467755 -3.45068 0
M  V30 5101 C 460.522 -0.98253 -4.20678 0
M  V30 5102 C 459.657 -0.304982 -5.30324 0
M  V30 5103 C 458.696 -1.32052 -5.97686 0
M  V30 5104 N 457.833 -0.669105 -6.98904 0
M  V30 5105 H 462.673 -1.48444 -2.58396 0
M  V30 5106 H 460.21 -0.742936 -1.2696 0
M  V30 5107 H 462.168 0.439556 -4.14878 0
M  V30 5108 H 460.798 0.893796 -3.10179 0
M  V30 5109 H 459.85 -1.49341 -3.49859 0
M  V30 5110 H 461.162 -1.75455 -4.66923 0
M  V30 5111 H 460.316 0.142893 -6.06532 0
M  V30 5112 H 459.055 0.499283 -4.85138 0
M  V30 5113 H 458.06 -1.7787 -5.20233 0
M  V30 5114 H 459.285 -2.1262 -6.44957 0
M  V30 5115 H 457.231 0.115152 -6.55899 0
M  V30 5116 H 457.148 -1.37908 -7.43315 0
M  V30 5117 H 458.416 -0.245076 -7.79115 0
M  V30 5118 N 462.645 1.35699 -0.801477 0
M  V30 5119 C 463.873 2.03157 -0.391768 0
M  V30 5120 C 464.288 1.60412 0.995668 0
M  V30 5121 O 463.645 0.799228 1.64069 0
M  V30 5122 C 463.696 3.58566 -0.459671 0
M  V30 5123 O 463.417 3.99756 -1.7924 0
M  V30 5124 C 464.918 4.4328 -0.0421205 0
M  V30 5125 H 462.138 0.651688 -0.159825 0
M  V30 5126 H 464.682 1.73426 -1.08368 0
M  V30 5127 H 462.837 3.86963 0.183939 0
M  V30 5128 H 463.251 4.94387 -1.75162 0
M  V30 5129 H 464.725 5.51821 -0.140754 0
M  V30 5130 H 465.202 4.27383 1.01196 0
M  V30 5131 H 465.808 4.20168 -0.658687 0
M  V30 5132 N 464.123 0.554532 1.47522 0
M  V30 5133 C 465.372 0.0273458 2.01681 0
M  V30 5134 C 465.685 -1.32962 1.43459 0
M  V30 5135 O 466.891 -1.94657 1.89265 0
M  V30 5136 C 465.347 -0.00159057 3.599 0
M  V30 5137 C 464.955 1.35197 4.27113 0
M  V30 5138 C 466.699 -0.476311 4.21819 0
M  V30 5139 C 464.606 1.28229 5.77331 0
M  V30 5140 H 463.536 0.00645269 0.753972 0
M  V30 5141 H 466.187 0.701985 1.69542 0
M  V30 5142 H 464.569 -0.741821 3.8899 0
M  V30 5143 H 465.743 2.1097 4.09668 0
M  V30 5144 H 464.058 1.76441 3.77171 0
M  V30 5145 H 466.655 -0.5468 5.31897 0
M  V30 5146 H 466.998 -1.4877 3.8881 0
M  V30 5147 H 467.531 0.20898 3.97251 0
M  V30 5148 H 464.27 2.26959 6.14955 0
M  V30 5149 H 463.79 0.566314 5.97121 0
M  V30 5150 H 465.469 0.983226 6.39485 0
M  V30 5151 N 465.601 -1.54893 0.290851 0
M  V30 5152 C 466.511 -2.26812 -0.59945 0
M  V30 5153 C 467.527 -1.29963 -1.15696 0
M  V30 5154 O 468.703 -1.62928 -1.18391 0
M  V30 5155 C 465.768 -2.98716 -1.75982 0
M  V30 5156 C 464.829 -4.1108 -1.2374 0
M  V30 5157 C 464.062 -4.79546 -2.34246 0
M  V30 5158 O 464.285 -4.47309 -3.53936 0
M  V30 5159 O 463.219 -5.67165 -2.01512 0
M  V30 5160 H 467.045 -3.03696 -0.0163561 0
M  V30 5161 H 464.63 -1.49289 0.0576755 0
M  V30 5162 H 466.512 -3.43851 -2.43607 0
M  V30 5163 H 465.187 -2.24737 -2.3297 0
M  V30 5164 H 464.094 -3.70367 -0.527163 0
M  V30 5165 H 465.427 -4.87007 -0.71307 0
M  V30 5166 N 467.08 -0.0183926 -1.57589 0
M  V30 5167 C 468.305 0.676634 -1.96052 0
M  V30 5168 C 468.73 1.6548 -0.894307 0
M  V30 5169 O 468.088 1.80712 0.145849 0
M  V30 5170 C 468.136 1.36872 -3.33614 0
M  V30 5171 O 467.24 2.48372 -3.29219 0
M  V30 5172 H 466.581 0.1786 -0.63953 0
M  V30 5173 H 469.111 -0.077056 -2.04455 0
M  V30 5174 H 469.121 1.72797 -3.69601 0
M  V30 5175 H 467.796 0.651636 -4.10763 0
M  V30 5176 H 466.373 2.14639 -3.04934 0
M  V30 5177 N 468.558 1.5553 0.254621 0
M  V30 5178 C 469.488 1.9268 1.31897 0
M  V30 5179 C 470.469 0.790797 1.506 0
M  V30 5180 O 471.654 1.05045 1.63337 0
M  V30 5181 C 468.784 2.21477 2.67517 0
M  V30 5182 C 467.738 3.37256 2.63519 0
M  V30 5183 C 467.064 3.51576 4.02862 0
M  V30 5184 C 468.364 4.73157 2.21179 0
M  V30 5185 H 470.058 2.81832 1.01051 0
M  V30 5186 H 467.604 1.35599 0.484662 0
M  V30 5187 H 469.557 2.46055 3.42104 0
M  V30 5188 H 468.281 1.29144 2.99982 0
M  V30 5189 H 466.94 3.12675 1.9139 0
M  V30 5190 H 466.588 2.56676 4.32581 0
M  V30 5191 H 466.288 4.2943 4.01078 0
M  V30 5192 H 467.812 3.78467 4.79161 0
M  V30 5193 H 469.226 4.97158 2.85494 0
M  V30 5194 H 467.623 5.54058 2.30521 0
M  V30 5195 H 468.693 4.70739 1.16332 0
M  V30 5196 N 470.036 -0.519951 1.48776 0
M  V30 5197 C 470.968 -1.63973 1.60142 0
M  V30 5198 C 471.981 -1.55404 0.485117 0
M  V30 5199 O 473.17 -1.61682 0.756391 0
M  V30 5200 C 470.27 -3.02676 1.52449 0
M  V30 5201 C 469.443 -3.36624 2.79291 0
M  V30 5202 C 468.502 -4.54652 2.64912 0
M  V30 5203 O 467.528 -4.57374 3.38818 0
M  V30 5204 N 468.73 -5.53432 1.75195 0
M  V30 5205 H 471.495 -1.54656 2.56713 0
M  V30 5206 H 469.056 -0.707439 1.45626 0
M  V30 5207 H 471.048 -3.79525 1.4051 0
M  V30 5208 H 469.618 -3.06018 0.638125 0
M  V30 5209 H 468.838 -2.48855 3.0572 0
M  V30 5210 H 470.126 -3.56094 3.6342 0
M  V30 5211 H 469.524 -5.54018 1.14371 0
M  V30 5212 H 468.081 -6.29459 1.69189 0
M  V30 5213 N 471.514 -1.37532 -0.769588 0
M  V30 5214 C 472.462 -1.33561 -1.90432 0
M  V30 5215 C 473.456 -0.224027 -1.67912 0
M  V30 5216 O 474.662 -0.392174 -1.75676 0
M  V30 5217 H 471.037 -0.416279 -0.626271 0
M  V30 5218 H 473.008 -2.29348 -1.90899 0
M  V30 5219 C 471.757 -1.16162 -3.27722 0
M  V30 5220 H 471.08 -2.00951 -3.45628 0
M  V30 5221 H 472.52 -1.17434 -4.07413 0
M  V30 5222 C 470.979 0.132583 -3.36639 0
M  V30 5223 O 471.509 1.11539 -3.85904 0
M  V30 5224 N 469.715 0.184013 -2.90017 0
M  V30 5225 H 469.262 -0.616415 -2.50116 0
M  V30 5226 H 469.22 1.04956 -2.96364 0
M  V30 5227 N 472.992 0.995999 -1.22138 0
M  V30 5228 C 473.939 2.08551 -0.988687 0
M  V30 5229 C 474.909 1.65864 0.0885021 0
M  V30 5230 O 476.094 1.90704 -0.0604589 0
M  V30 5231 C 473.234 3.40374 -0.569191 0
M  V30 5232 C 472.347 3.96421 -1.71681 0
M  V30 5233 C 471.482 5.1639 -1.2456 0
M  V30 5234 C 470.521 5.64567 -2.36497 0
M  V30 5235 N 469.658 6.75777 -1.90445 0
M  V30 5236 H 474.498 2.2779 -1.92135 0
M  V30 5237 H 472.035 1.1168 -0.957388 0
M  V30 5238 H 473.993 4.16068 -0.307166 0
M  V30 5239 H 472.623 3.21145 0.326462 0
M  V30 5240 H 471.675 3.17628 -2.09324 0
M  V30 5241 H 472.987 4.2816 -2.55891 0
M  V30 5242 H 472.141 5.99362 -0.940774 0
M  V30 5243 H 470.88 4.86266 -0.373662 0
M  V30 5244 H 469.885 4.80185 -2.67772 0
M  V30 5245 H 471.11 5.96716 -3.24202 0
M  V30 5246 H 469.056 6.47443 -1.05609 0
M  V30 5247 H 468.973 7.06818 -2.68223 0
M  V30 5248 H 470.241 7.62262 -1.63022 0
M  V30 5249 N 474.47 1.03057 1.19235 0
M  V30 5250 C 475.695 0.74757 1.93458 0
M  V30 5251 C 476.12 -0.687648 1.7508 0
M  V30 5252 O 475.478 -1.47499 1.05422 0
M  V30 5253 C 475.526 1.10604 3.43219 0
M  V30 5254 O 474.63 0.225671 4.11782 0
M  V30 5255 H 473.971 0.276047 0.603899 0
M  V30 5256 H 476.501 1.3777 1.51263 0
M  V30 5257 H 476.511 1.06366 3.93891 0
M  V30 5258 H 475.186 2.15165 3.55917 0
M  V30 5259 H 473.763 0.326795 3.71465 0
M  V30 5260 N 475.948 -1.35272 0.808662 0
M  V30 5261 C 477.178 -2.02652 0.401953 0
M  V30 5262 C 477.586 -1.6108 -0.992462 0
M  V30 5263 O 476.929 -0.804984 -1.65123 0
M  V30 5264 C 476.991 -3.57174 0.408246 0
M  V30 5265 C 476.655 -4.22019 1.75353 0
M  V30 5266 C 477.652 -4.43552 2.71215 0
M  V30 5267 C 475.337 -4.59093 2.03811 0
M  V30 5268 C 477.331 -5.01264 3.93717 0
M  V30 5269 C 475.018 -5.16519 3.26576 0
M  V30 5270 C 476.016 -5.37546 4.21347 0
M  V30 5271 O 475.704 -5.93761 5.41944 0
M  V30 5272 H 475.436 -0.656495 0.161216 0
M  V30 5273 H 477.99 -1.73829 1.0942 0
M  V30 5274 H 476.22 -3.85197 -0.340608 0
M  V30 5275 H 477.909 -4.05893 0.0235623 0
M  V30 5276 H 478.675 -4.15288 2.50522 0
M  V30 5277 H 474.554 -4.42039 1.30854 0
M  V30 5278 H 478.098 -5.17592 4.67701 0
M  V30 5279 H 473.995 -5.4421 3.47139 0
M  V30 5280 H 474.763 -6.1221 5.43269 0
M  V30 5281 N 477.426 -0.562348 -1.47226 0
M  V30 5282 C 478.374 0.195476 -2.31777 0
M  V30 5283 C 479.368 0.90433 -1.43242 0
M  V30 5284 O 480.574 0.825031 -1.59979 0
M  V30 5285 H 476.949 0.0819095 -0.747526 0
M  V30 5286 H 478.92 -0.536753 -2.93533 0
M  V30 5287 C 477.669 1.20902 -3.26003 0
M  V30 5288 H 476.992 0.672997 -3.94095 0
M  V30 5289 H 478.432 1.71006 -3.87986 0
M  V30 5290 C 476.891 2.25955 -2.49891 0
M  V30 5291 O 477.421 3.32969 -2.2471 0
M  V30 5292 N 475.627 2.00019 -2.1081 0
M  V30 5293 H 475.174 1.13006 -2.31489 0
M  V30 5294 H 475.132 2.70523 -1.60201 0
M  V30 5295 N 478.904 1.54736 -0.299062 0
M  V30 5296 C 479.854 2.20155 0.592932 0
M  V30 5297 C 480.838 1.1739 1.10038 0
M  V30 5298 O 482.03 1.43116 1.04147 0
M  V30 5299 C 479.159 2.94437 1.76527 0
M  V30 5300 C 478.245 4.04516 1.27388 0
M  V30 5301 N 478.636 5.03319 0.500339 0
M  V30 5302 C 476.934 4.18022 1.55478 0
M  V30 5303 C 477.635 5.81209 0.238909 0
M  V30 5304 N 476.611 5.37408 0.818163 0
M  V30 5305 H 480.413 2.93899 -0.00563596 0
M  V30 5306 H 477.927 1.62068 -0.103732 0
M  V30 5307 H 479.924 3.3977 2.41582 0
M  V30 5308 H 478.584 2.22209 2.36756 0
M  V30 5309 H 479.595 5.17696 0.145419 0
M  V30 5310 H 476.272 3.56998 2.16469 0
M  V30 5311 H 477.662 6.70812 -0.382223 0
M  V30 5312 N 480.382 0.0267497 1.57577 0
M  V30 5313 C 481.629 -0.652404 1.91703 0
M  V30 5314 C 481.957 -1.72271 0.902936 0
M  V30 5315 O 481.212 -1.955 -0.0884843 0
M  V30 5316 C 481.511 -1.30914 3.3256 0
M  V30 5317 C 481.177 -0.369441 4.49384 0
M  V30 5318 C 479.839 -0.110791 4.81072 0
M  V30 5319 C 482.191 0.275971 5.20469 0
M  V30 5320 C 479.519 0.801116 5.81205 0
M  V30 5321 C 481.871 1.17592 6.21575 0
M  V30 5322 C 480.535 1.44348 6.51705 0
M  V30 5323 H 479.805 -0.238732 0.70149 0
M  V30 5324 H 482.452 0.0880091 1.91298 0
M  V30 5325 H 480.757 -2.12425 3.29216 0
M  V30 5326 H 482.454 -1.84115 3.56234 0
M  V30 5327 H 479.044 -0.581211 4.24641 0
M  V30 5328 H 483.228 0.0892 4.9622 0
M  V30 5329 H 478.484 1.01614 6.02897 0
M  V30 5330 H 482.658 1.68223 6.75777 0
M  V30 5331 H 480.285 2.15176 7.29111 0
M  V30 5332 N 481.861 -1.55662 -0.24637 0
M  V30 5333 C 482.824 -1.89558 -1.28842 0
M  V30 5334 C 483.824 -0.772082 -1.41052 0
M  V30 5335 O 485.014 -1.04007 -1.39743 0
M  V30 5336 C 482.146 -2.12449 -2.66605 0
M  V30 5337 H 483.339 -2.82735 -1.00004 0
M  V30 5338 H 480.892 -1.48562 -0.485684 0
M  V30 5339 H 481.627 -1.21742 -3.00582 0
M  V30 5340 H 481.412 -2.94273 -2.59125 0
M  V30 5341 H 482.902 -2.39854 -3.41847 0
M  V30 5342 N 483.339 0.512053 -1.4905 0
M  V30 5343 C 484.302 1.59704 -1.64399 0
M  V30 5344 C 485.302 1.52285 -0.516317 0
M  V30 5345 O 486.492 1.55635 -0.782527 0
M  V30 5346 C 483.624 2.9935 -1.63102 0
M  V30 5347 H 484.817 1.47428 -2.61161 0
M  V30 5348 H 482.37 0.735469 -1.37915 0
M  V30 5349 H 483.105 3.17116 -0.678836 0
M  V30 5350 H 482.89 3.06144 -2.44986 0
M  V30 5351 H 484.38 3.782 -1.77072 0
M  V30 5352 N 484.817 1.37938 0.762283 0
M  V30 5353 C 486.066 1.32989 1.51647 0
M  V30 5354 C 486.379 -0.0802922 1.95435 0
M  V30 5355 O 487.585 -0.252295 2.70325 0
M  V30 5356 C 486.041 2.33485 2.73885 0
M  V30 5357 C 485.649 3.80079 2.37157 0
M  V30 5358 C 487.393 2.37563 3.51801 0
M  V30 5359 C 485.3 4.72283 3.55954 0
M  V30 5360 H 484.23 0.494301 0.56937 0
M  V30 5361 H 486.881 1.63448 0.834083 0
M  V30 5362 H 485.263 1.96056 3.44061 0
M  V30 5363 H 486.437 4.26398 1.74704 0
M  V30 5364 H 484.752 3.79037 1.72395 0
M  V30 5365 H 487.349 3.0365 4.40114 0
M  V30 5366 H 487.692 1.39199 3.92338 0
M  V30 5367 H 488.225 2.73747 2.8863 0
M  V30 5368 H 484.964 5.7181 3.2049 0
M  V30 5369 H 484.484 4.30663 4.1748 0
M  V30 5370 H 486.163 4.89876 4.22647 0
M  V30 5371 N 486.295 -0.989507 1.22664 0
M  V30 5372 C 487.525 -1.7624 1.0781 0
M  V30 5373 C 487.933 -1.85466 -0.374036 0
M  V30 5374 O 487.276 -1.32645 -1.27087 0
M  V30 5375 C 487.338 -3.21007 1.61849 0
M  V30 5376 C 487.002 -3.35316 3.10503 0
M  V30 5377 C 487.999 -3.22362 4.07896 0
M  V30 5378 C 485.684 -3.60258 3.50028 0
M  V30 5379 C 487.678 -3.34139 5.42798 0
M  V30 5380 C 485.365 -3.71676 4.85078 0
M  V30 5381 C 486.363 -3.58625 5.81272 0
M  V30 5382 O 486.051 -3.69655 7.1387 0
M  V30 5383 H 485.783 -0.560209 0.378341 0
M  V30 5384 H 488.337 -1.25252 1.62792 0
M  V30 5385 H 486.567 -3.73202 1.01279 0
M  V30 5386 H 488.256 -3.80024 1.42606 0
M  V30 5387 H 489.022 -3.03 3.78703 0
M  V30 5388 H 484.901 -3.69492 2.75675 0
M  V30 5389 H 488.445 -3.23869 6.17863 0
M  V30 5390 H 484.342 -3.90545 5.1395 0
M  V30 5391 H 485.11 -3.86507 7.21495 0
M  V30 5392 N 487.773 -1.03688 -1.18687 0
M  V30 5393 C 489.02 -0.73803 -1.88572 0
M  V30 5394 C 489.348 0.733973 -1.8012 0
M  V30 5395 O 488.603 1.55098 -1.19344 0
M  V30 5396 C 488.902 -1.14477 -3.3857 0
M  V30 5397 C 488.568 -2.61641 -3.67226 0
M  V30 5398 C 487.23 -3.01846 -3.74757 0
M  V30 5399 C 489.582 -3.56812 -3.79914 0
M  V30 5400 C 486.91 -4.36118 -3.92451 0
M  V30 5401 C 489.262 -4.90799 -3.99123 0
M  V30 5402 C 487.926 -5.3068 -4.04888 0
M  V30 5403 H 487.196 -0.270064 -0.690034 0
M  V30 5404 H 489.843 -1.3012 -1.40503 0
M  V30 5405 H 488.148 -0.500337 -3.88592 0
M  V30 5406 H 489.845 -0.89095 -3.90977 0
M  V30 5407 H 486.435 -2.29498 -3.61979 0
M  V30 5408 H 490.619 -3.26899 -3.73431 0
M  V30 5409 H 485.875 -4.66542 -3.95157 0
M  V30 5410 H 490.049 -5.64451 -4.07882 0
M  V30 5411 H 487.676 -6.34733 -4.18351 0
M  V30 5412 N 489.251 1.34841 -0.815825 0
M  V30 5413 C 490.181 2.32187 -0.247298 0
M  V30 5414 C 491.162 1.5791 0.632344 0
M  V30 5415 O 492.347 1.8593 0.560698 0
M  V30 5416 C 489.477 3.42122 0.597466 0
M  V30 5417 C 488.431 4.27602 -0.184446 0
M  V30 5418 C 487.757 5.28942 0.782609 0
M  V30 5419 C 489.057 5.03502 -1.38865 0
M  V30 5420 H 490.751 2.79985 -1.06061 0
M  V30 5421 H 488.297 1.34611 -0.511461 0
M  V30 5422 H 490.25 4.09232 1.00533 0
M  V30 5423 H 488.974 2.92956 1.44376 0
M  V30 5424 H 487.633 3.62085 -0.573592 0
M  V30 5425 H 487.281 4.7604 1.62466 0
M  V30 5426 H 486.981 5.87008 0.263695 0
M  V30 5427 H 488.505 5.98922 1.18848 0
M  V30 5428 H 489.919 5.63506 -1.05518 0
M  V30 5429 H 488.316 5.71108 -1.8427 0
M  V30 5430 H 489.386 4.33608 -2.17054 0
M  V30 5431 N 490.729 0.570148 1.46925 0
M  V30 5432 C 491.659 -0.158274 2.32963 0
M  V30 5433 C 492.64 -0.896093 1.44583 0
M  V30 5434 O 493.825 -0.874022 1.7342 0
M  V30 5435 C 490.955 -1.18055 3.26619 0
M  V30 5436 C 489.909 -0.558379 4.24342 0
M  V30 5437 C 489.235 -1.68623 5.07415 0
M  V30 5438 C 490.535 0.496295 5.19937 0
M  V30 5439 H 492.229 0.560046 2.94115 0
M  V30 5440 H 489.775 0.270775 1.41431 0
M  V30 5441 H 491.728 -1.69841 3.85658 0
M  V30 5442 H 490.452 -1.92899 2.63548 0
M  V30 5443 H 489.111 -0.0617157 3.66548 0
M  V30 5444 H 488.759 -2.42402 4.40738 0
M  V30 5445 H 488.459 -1.27564 5.73586 0
M  V30 5446 H 489.983 -2.20709 5.69315 0
M  V30 5447 H 491.397 0.0640052 5.73264 0
M  V30 5448 H 489.794 0.82649 5.94381 0
M  V30 5449 H 490.864 1.38735 4.6463 0
M  V30 5450 N 492.207 -1.54576 0.307264 0
M  V30 5451 C 493.453 -2.0056 -0.300612 0
M  V30 5452 C 493.786 -1.1953 -1.53057 0
M  V30 5453 O 493.061 -0.27337 -1.92569 0
M  V30 5454 C 493.344 -3.54167 -0.650987 0
M  V30 5455 C 493.197 -4.45933 0.588539 0
M  V30 5456 C 494.516 -4.14645 -1.47506 0
M  V30 5457 H 491.635 -0.729075 -0.107788 0
M  V30 5458 H 494.277 -1.85286 0.420606 0
M  V30 5459 H 492.427 -3.67313 -1.26544 0
M  V30 5460 H 494.099 -4.44683 1.22697 0
M  V30 5461 H 492.342 -4.16274 1.22058 0
M  V30 5462 H 493.013 -5.51189 0.299153 0
M  V30 5463 H 495.489 -4.04973 -0.955821 0
M  V30 5464 H 494.365 -5.22269 -1.68899 0
M  V30 5465 H 494.626 -3.66921 -2.4662 0
M  V30 5466 N 493.685 -0.035106 -1.57561 0
M  V30 5467 C 494.595 0.960295 -2.14046 0
M  V30 5468 C 495.611 1.3529 -1.0942 0
M  V30 5469 O 496.787 1.43309 -1.41508 0
M  V30 5470 C 493.852 2.22214 -2.66124 0
M  V30 5471 C 492.913 1.8894 -3.85487 0
M  V30 5472 C 492.146 3.09109 -4.35072 0
M  V30 5473 O 492.369 4.21963 -3.83802 0
M  V30 5474 O 491.303 2.91058 -5.26848 0
M  V30 5475 H 495.129 0.509983 -2.99387 0
M  V30 5476 H 492.714 0.185853 -1.48239 0
M  V30 5477 H 494.596 2.96279 -2.99661 0
M  V30 5478 H 493.271 2.66414 -1.83862 0
M  V30 5479 H 492.178 1.12241 -3.56865 0
M  V30 5480 H 493.511 1.49551 -4.6893 0
M  V30 5481 N 495.163 1.55791 0.238111 0
M  V30 5482 C 496.579 1.48411 0.587045 0
M  V30 5483 C 496.779 0.72702 1.87927 0
M  V30 5484 O 495.835 0.259942 2.51158 0
M  V30 5485 C 497.148 2.92873 0.681623 0
M  V30 5486 C 498.696 3.03295 0.773363 0
M  V30 5487 C 499.171 4.49082 0.899428 0
M  V30 5488 N 500.662 4.53056 0.964075 0
M  V30 5489 C 501.397 5.63117 1.08104 0
M  V30 5490 N 500.893 6.82969 1.16299 0
M  V30 5491 N 502.686 5.50933 1.11488 0
M  V30 5492 H 494.837 2.0345 -0.610076 0
M  V30 5493 H 497.1 0.924034 -0.211813 0
M  V30 5494 H 496.806 3.51142 -0.19802 0
M  V30 5495 H 496.68 3.43851 1.55069 0
M  V30 5496 H 499.067 2.45101 1.64346 0
M  V30 5497 H 499.148 2.55513 -0.121034 0
M  V30 5498 H 498.792 5.07889 0.0338586 0
M  V30 5499 H 498.722 4.94553 1.809 0
M  V30 5500 H 501.213 3.66737 0.91173 0
M  V30 5501 H 501.526 7.62598 1.25155 0
M  V30 5502 H 499.871 6.85712 1.13241 0
M  V30 5503 H 503.062 4.56231 1.0474 0
M  V30 5504 H 503.235 6.36743 1.20259 0
M  V30 5505 N 496.642 -0.504142 1.49319 0
M  V30 5506 C 497.572 -1.61473 1.68667 0
M  V30 5507 C 498.553 -1.61455 0.535378 0
M  V30 5508 O 499.738 -1.78245 0.770868 0
M  V30 5509 C 496.868 -2.99971 1.75028 0
M  V30 5510 C 495.822 -3.14854 2.89916 0
M  V30 5511 C 495.148 -4.54671 2.81387 0
M  V30 5512 C 496.448 -2.95176 4.30893 0
M  V30 5513 H 498.142 -1.45535 2.61648 0
M  V30 5514 H 495.688 -0.698711 1.25913 0
M  V30 5515 H 497.641 -3.77562 1.8715 0
M  V30 5516 H 496.365 -3.1699 0.786441 0
M  V30 5517 H 495.024 -2.39687 2.77391 0
M  V30 5518 H 494.672 -4.68562 1.82917 0
M  V30 5519 H 494.372 -4.6557 3.58494 0
M  V30 5520 H 495.896 -5.34327 2.95512 0
M  V30 5521 H 497.31 -3.62538 4.44116 0
M  V30 5522 H 495.707 -3.17549 5.09198 0
M  V30 5523 H 496.777 -1.91332 4.45556 0
M  V30 5524 N 498.12 -1.38341 -0.754957 0
M  V30 5525 C 499.067 -1.3546 -1.86867 0
M  V30 5526 C 500.037 -0.217369 -1.64672 0
M  V30 5527 O 501.222 -0.409383 -1.86356 0
M  V30 5528 C 498.362 -1.18413 -3.24149 0
M  V30 5529 C 497.475 -2.41511 -3.58185 0
M  V30 5530 C 496.61 -2.17205 -4.84763 0
M  V30 5531 C 495.649 -3.36081 -5.11582 0
M  V30 5532 N 494.786 -3.11219 -6.29354 0
M  V30 5533 H 499.626 -2.30672 -1.88664 0
M  V30 5534 H 497.163 -1.14607 -0.922154 0
M  V30 5535 H 499.121 -1.06545 -4.03366 0
M  V30 5536 H 497.751 -0.268397 -3.21682 0
M  V30 5537 H 496.803 -2.64056 -2.73822 0
M  V30 5538 H 498.115 -3.30115 -3.73932 0
M  V30 5539 H 497.269 -2.02465 -5.7192 0
M  V30 5540 H 496.008 -1.25964 -4.71152 0
M  V30 5541 H 495.013 -3.51341 -4.22894 0
M  V30 5542 H 496.238 -4.28196 -5.27091 0
M  V30 5543 H 494.184 -2.22624 -6.17069 0
M  V30 5544 H 494.101 -3.93373 -6.45596 0
M  V30 5545 H 495.369 -3.00132 -7.19403 0
M  V30 5546 N 499.598 0.982988 -1.23187 0
M  V30 5547 C 500.823 1.76455 -1.08988 0
M  V30 5548 C 501.248 1.84726 0.354691 0
M  V30 5549 O 500.606 1.30699 1.25649 0
M  V30 5550 C 500.654 3.17094 -1.71708 0
M  V30 5551 O 499.758 4.00648 -0.977477 0
M  V30 5552 H 499.099 0.542988 -0.382177 0
M  V30 5553 H 501.629 1.23413 -1.63188 0
M  V30 5554 H 501.639 3.67684 -1.76841 0
M  V30 5555 H 500.314 3.10389 -2.76823 0
M  V30 5556 H 498.891 3.59161 -1.0029 0
M  V30 5557 N 501.076 1.04316 1.18135 0
M  V30 5558 C 502.026 0.606731 2.19779 0
M  V30 5559 C 503.01 -0.352144 1.56999 0
M  V30 5560 O 504.202 -0.170795 1.76174 0
M  V30 5561 C 501.331 -0.0262443 3.4329 0
M  V30 5562 C 500.417 0.955928 4.13186 0
M  V30 5563 N 500.808 2.12395 4.59045 0
M  V30 5564 C 499.106 0.782473 4.39082 0
M  V30 5565 C 499.807 2.74458 5.12882 0
M  V30 5566 N 498.783 2.02316 5.04548 0
M  V30 5567 H 502.585 1.49679 2.5293 0
M  V30 5568 H 500.099 0.912088 1.34368 0
M  V30 5569 H 502.096 -0.356617 4.15372 0
M  V30 5570 H 500.756 -0.911811 3.11635 0
M  V30 5571 H 501.767 2.50272 4.53414 0
M  V30 5572 H 498.444 -0.0527906 4.17467 0
M  V30 5573 H 499.834 3.73459 5.5855 0
M  V30 5574 N 502.554 -1.34406 0.822964 0
M  V30 5575 C 503.97 -1.51275 0.508727 0
M  V30 5576 C 504.17 -1.76776 -0.967083 0
M  V30 5577 O 503.226 -1.81871 -1.75155 0
M  V30 5578 C 504.539 -2.67765 1.36829 0
M  V30 5579 C 506.087 -2.81647 1.36542 0
M  V30 5580 C 506.562 -4.01181 2.20947 0
M  V30 5581 N 508.053 -4.08388 2.18571 0
M  V30 5582 C 508.788 -5.00036 2.80627 0
M  V30 5583 N 508.284 -5.96906 3.51674 0
M  V30 5584 N 510.077 -4.92908 2.70181 0
M  V30 5585 H 502.228 -1.16113 1.77852 0
M  V30 5586 H 504.491 -0.56947 0.757897 0
M  V30 5587 H 504.197 -2.55551 2.41633 0
M  V30 5588 H 504.071 -3.62779 1.03303 0
M  V30 5589 H 506.458 -2.93303 0.325163 0
M  V30 5590 H 506.539 -1.87443 1.74066 0
M  V30 5591 H 506.183 -3.90286 3.25022 0
M  V30 5592 H 506.113 -4.94599 1.80774 0
M  V30 5593 H 508.604 -3.39051 1.66891 0
M  V30 5594 H 508.917 -6.63468 3.96271 0
M  V30 5595 H 507.262 -5.9703 3.5578 0
M  V30 5596 H 510.453 -4.1619 2.14251 0
M  V30 5597 H 510.626 -5.64137 3.18831 0
M  V30 5598 N 504.032 -0.577932 -1.46621 0
M  V30 5599 C 505.257 -0.0652536 -2.07297 0
M  V30 5600 C 505.682 1.22828 -1.4246 0
M  V30 5601 O 505.04 1.74075 -0.506718 0
M  V30 5602 C 505.088 0.0920589 -3.60482 0
M  V30 5603 O 504.192 1.14972 -3.96049 0
M  V30 5604 H 503.533 -0.06065 -0.661224 0
M  V30 5605 H 506.063 -0.799515 -1.88332 0
M  V30 5606 H 506.073 0.299741 -4.06897 0
M  V30 5607 H 504.748 -0.852612 -4.07067 0
M  V30 5608 H 503.325 0.920879 -3.61351 0
M  V30 5609 N 505.51 1.54411 -0.315457 0
M  V30 5610 C 506.735 2.05299 0.294496 0
M  V30 5611 C 507.16 1.19052 1.4563 0
M  V30 5612 O 506.518 0.197804 1.80218 0
M  V30 5613 C 506.566 3.5345 0.714549 0
M  V30 5614 O 505.67 3.70175 1.81781 0
M  V30 5615 H 505.011 0.661743 0.0547019 0
M  V30 5616 H 507.541 1.99327 -0.461508 0
M  V30 5617 H 507.551 3.9557 0.999426 0
M  V30 5618 H 506.226 4.1568 -0.135244 0
M  V30 5619 H 504.803 3.3996 1.53236 0
M  V30 5620 N 506.988 0.0434614 1.5754 0
M  V30 5621 C 508.235 -0.632035 1.92384 0
M  V30 5622 C 508.563 -1.71304 0.921157 0
M  V30 5623 O 507.818 -1.95583 -0.067744 0
M  V30 5624 C 508.117 -1.2738 3.3393 0
M  V30 5625 C 507.783 -0.321757 4.49751 0
M  V30 5626 C 506.445 -0.0597611 4.81163 0
M  V30 5627 C 508.797 0.331158 5.20147 0
M  V30 5628 C 506.125 0.862715 5.80322 0
M  V30 5629 C 508.477 1.24178 6.20292 0
M  V30 5630 C 507.141 1.51252 6.50138 0
M  V30 5631 H 506.411 -0.231278 0.703983 0
M  V30 5632 H 509.058 0.108294 1.91194 0
M  V30 5633 H 507.363 -2.08921 3.3145 0
M  V30 5634 H 509.06 -1.80326 3.58167 0
M  V30 5635 H 505.65 -0.53614 4.25233 0
M  V30 5636 H 509.834 0.141826 4.96097 0
M  V30 5637 H 505.09 1.08003 6.01785 0
M  V30 5638 H 509.264 1.75381 6.73954 0
M  V30 5639 H 506.891 2.22897 7.26788 0
M  V30 5640 N 508.466 -1.55915 -0.229846 0
M  V30 5641 C 509.877 -1.68809 -0.797531 0
M  V30 5642 C 510.228 -0.643995 -1.8533 0
M  V30 5643 O 509.353 0.206492 -2.15413 0
M  V30 5644 C 509.948 -3.06043 -1.45338 0
M  V30 5645 C 508.507 -3.20819 -1.96856 0
M  V30 5646 C 507.654 -2.6472 -0.825736 0
M  V30 5647 H 510.605 -1.58699 -0.00533733 0
M  V30 5648 H 510.626 -3.01438 -2.32196 0
M  V30 5649 H 510.138 -3.82012 -0.684743 0
M  V30 5650 H 508.239 -2.49704 -2.76548 0
M  V30 5651 H 508.352 -4.27937 -2.15423 0
M  V30 5652 H 506.716 -2.22985 -1.23084 0
M  V30 5653 H 507.499 -3.43229 -0.0699019 0
M  V30 5654 N 509.944 0.496216 -1.49584 0
M  V30 5655 C 511.19 1.25189 -1.59548 0
M  V30 5656 C 511.523 1.9212 -0.283466 0
M  V30 5657 O 510.798 1.80947 0.713324 0
M  V30 5658 C 511.081 2.31516 -2.75812 0
M  V30 5659 C 510.934 1.69054 -4.16822 0
M  V30 5660 C 512.253 3.3304 -2.87702 0
M  V30 5661 H 509.372 0.45379 -0.580727 0
M  V30 5662 H 512.014 0.549327 -1.81886 0
M  V30 5663 H 510.164 2.91438 -2.56897 0
M  V30 5664 H 511.836 1.12923 -4.47265 0
M  V30 5665 H 510.079 0.994485 -4.22247 0
M  V30 5666 H 510.75 2.462 -4.94054 0
M  V30 5667 H 513.226 2.83114 -3.04936 0
M  V30 5668 H 512.102 4.04794 -3.7072 0
M  V30 5669 H 512.363 3.95655 -1.97255 0
M  V30 5670 N 511.423 1.38739 0.74761 0
M  V30 5671 C 512.333 1.38696 1.89211 0
M  V30 5672 C 513.349 0.283303 1.71678 0
M  V30 5673 O 514.525 0.522713 1.94498 0
M  V30 5674 C 511.59 1.21662 3.24653 0
M  V30 5675 C 510.651 2.41886 3.54669 0
M  V30 5676 C 509.884 2.25655 4.83648 0
M  V30 5677 O 510.107 1.25339 5.56459 0
M  V30 5678 O 509.041 3.14372 5.13277 0
M  V30 5679 H 512.867 2.35143 1.92202 0
M  V30 5680 H 510.452 1.19721 0.893708 0
M  V30 5681 H 512.334 1.14246 4.05618 0
M  V30 5682 H 511.009 0.283024 3.2246 0
M  V30 5683 H 509.916 2.54877 2.73841 0
M  V30 5684 H 511.249 3.33895 3.61628 0
M  V30 5685 N 512.901 -0.976442 1.23707 0
M  V30 5686 C 513.833 -2.07212 0.979574 0
M  V30 5687 C 514.846 -1.6273 -0.0478528 0
M  V30 5688 O 516.035 -1.77506 0.18815 0
M  V30 5689 C 513.135 -3.35835 0.45479 0
M  V30 5690 C 512.308 -4.09268 1.54331 0
M  V30 5691 C 511.367 -5.16166 1.02271 0
M  V30 5692 O 510.393 -5.42827 1.71254 0
M  V30 5693 N 511.595 -5.80313 -0.147419 0
M  V30 5694 H 514.36 -2.29878 1.92292 0
M  V30 5695 H 511.921 -1.14343 1.14618 0
M  V30 5696 H 513.913 -4.04597 0.0914631 0
M  V30 5697 H 512.483 -3.10106 -0.394068 0
M  V30 5698 H 511.703 -3.34906 2.07923 0
M  V30 5699 H 512.991 -4.55095 2.27522 0
M  V30 5700 H 512.389 -5.61043 -0.724353 0
M  V30 5701 H 510.946 -6.50231 -0.451972 0
M  V30 5702 N 514.379 -1.04941 -1.1758 0
M  V30 5703 C 515.795 -0.770282 -1.39781 0
M  V30 5704 C 515.995 0.636417 -1.91186 0
M  V30 5705 O 515.051 1.39923 -2.10185 0
M  V30 5706 C 516.364 -1.82376 -2.3908 0
M  V30 5707 C 517.912 -1.84569 -2.52791 0
M  V30 5708 C 518.387 -2.88933 -3.55361 0
M  V30 5709 N 519.878 -2.8788 -3.62877 0
M  V30 5710 C 520.613 -3.65282 -4.41992 0
M  V30 5711 N 520.109 -4.52461 -5.24643 0
M  V30 5712 N 521.902 -3.53732 -4.36841 0
M  V30 5713 H 514.053 -1.95705 -0.825438 0
M  V30 5714 H 516.316 -0.847284 -0.425222 0
M  V30 5715 H 516.022 -2.83323 -2.08376 0
M  V30 5716 H 515.896 -1.66327 -3.38549 0
M  V30 5717 H 518.283 -0.842879 -2.82807 0
M  V30 5718 H 518.364 -2.04696 -1.53406 0
M  V30 5719 H 518.008 -3.89398 -3.26085 0
M  V30 5720 H 517.938 -2.66059 -4.54445 0
M  V30 5721 H 520.429 -2.24666 -3.03864 0
M  V30 5722 H 520.742 -5.08211 -5.82187 0
M  V30 5723 H 519.087 -4.56524 -5.24033 0
M  V30 5724 H 522.278 -2.85021 -3.71323 0
M  V30 5725 H 522.451 -4.14302 -4.98255 0
M  V30 5726 N 515.857 1.33968 -0.830081 0
M  V30 5727 C 516.787 2.31911 -0.271911 0
M  V30 5728 C 517.768 1.58571 0.61556 0
M  V30 5729 O 518.953 1.86514 0.540946 0
M  V30 5730 C 516.083 3.42737 0.561146 0
M  V30 5731 C 515.037 4.27383 -0.229789 0
M  V30 5732 C 514.363 5.29742 0.726463 0
M  V30 5733 C 515.663 5.02 -1.44197 0
M  V30 5734 H 517.357 2.78844 -1.09025 0
M  V30 5735 H 514.903 1.34061 -0.52571 0
M  V30 5736 H 516.856 4.10276 0.961867 0
M  V30 5737 H 515.58 2.94471 1.41261 0
M  V30 5738 H 514.239 3.61456 -0.611964 0
M  V30 5739 H 513.887 4.77736 1.57408 0
M  V30 5740 H 513.587 5.87255 0.20142 0
M  V30 5741 H 515.111 6.00149 1.12489 0
M  V30 5742 H 516.525 5.62355 -1.11488 0
M  V30 5743 H 514.922 5.69122 -1.90317 0
M  V30 5744 H 515.992 4.31281 -2.2164 0
M  V30 5745 N 517.335 0.585699 1.46312 0
M  V30 5746 C 518.612 0.00542031 1.95599 0
M  V30 5747 C 518.992 -1.45619 1.52834 0
M  V30 5748 O 518.34 -2.14759 0.780446 0
M  V30 5749 C 518.55 0.180601 3.48532 0
M  V30 5750 C 519.898 0.049979 4.24571 0
M  V30 5751 O 520.922 0.109589 3.56031 0
M  V30 5752 O 519.781 -0.0832226 5.46437 0
M  V30 5753 H 516.875 -0.0481281 0.825598 0
M  V30 5754 H 519.421 0.654227 1.56582 0
M  V30 5755 H 518.193 1.19657 3.72556 0
M  V30 5756 H 517.816 -0.504498 3.94386 0
M  V30 5757 N 518.813 -1.54241 0.323641 0
M  V30 5758 C 520.061 -2.00174 -0.278359 0
M  V30 5759 C 520.382 -1.2134 -1.52648 0
M  V30 5760 O 519.652 -0.315244 -1.93347 0
M  V30 5761 H 518.232 -0.739463 -0.105845 0
M  V30 5762 H 520.894 -1.89864 0.440204 0
M  V30 5763 H 519.99 -3.07486 -0.5347 0
M  V30 5764 N 520.291 -0.0518155 -1.57515 0
M  V30 5765 C 521.707 0.304735 -1.56664 0
M  V30 5766 C 521.907 1.71395 -1.05953 0
M  V30 5767 O 520.963 2.42123 -0.716414 0
M  V30 5768 C 522.276 0.132614 -3.00407 0
M  V30 5769 C 523.824 0.20367 -3.12337 0
M  V30 5770 C 524.299 0.0600706 -4.57961 0
M  V30 5771 N 525.79 0.116326 -4.63054 0
M  V30 5772 C 526.525 0.0293363 -5.73392 0
M  V30 5773 N 526.021 -0.110038 -6.92713 0
M  V30 5774 N 527.814 0.0849651 -5.62036 0
M  V30 5775 H 519.965 -0.973056 -1.888 0
M  V30 5776 H 522.228 -0.377781 -0.869474 0
M  V30 5777 H 521.934 -0.839019 -3.41546 0
M  V30 5778 H 521.808 0.893376 -3.66468 0
M  V30 5779 H 524.195 1.16578 -2.71097 0
M  V30 5780 H 524.276 -0.587857 -2.48954 0
M  V30 5781 H 523.92 -0.898715 -4.99886 0
M  V30 5782 H 523.85 0.87075 -5.19351 0
M  V30 5783 H 526.341 0.22327 -3.7724 0
M  V30 5784 H 526.654 -0.169104 -7.72615 0
M  V30 5785 H 524.999 -0.145132 -6.94848 0
M  V30 5786 H 528.19 0.192411 -4.67704 0
M  V30 5787 H 528.363 0.0137131 -6.47999 0
M  V30 5788 N 521.769 1.56035 0.221574 0
M  V30 5789 C 522.701 1.889 1.29805 0
M  V30 5790 C 523.714 0.777269 1.43047 0
M  V30 5791 O 524.903 1.05557 1.43945 0
M  V30 5792 C 522.003 2.0825 2.67367 0
M  V30 5793 C 521.176 3.39267 2.76073 0
M  V30 5794 C 520.235 3.48049 3.94649 0
M  V30 5795 O 519.261 4.2108 3.82988 0
M  V30 5796 N 520.463 2.79191 5.08953 0
M  V30 5797 H 523.228 2.81831 1.01938 0
M  V30 5798 H 520.789 1.5658 0.411612 0
M  V30 5799 H 522.781 2.11441 3.45072 0
M  V30 5800 H 521.351 1.21944 2.87834 0
M  V30 5801 H 520.571 3.48175 1.84846 0
M  V30 5802 H 521.859 4.25575 2.7886 0
M  V30 5803 H 521.257 2.19635 5.21322 0
M  V30 5804 H 519.814 2.88043 5.84701 0
M  V30 5805 N 523.247 -0.488276 1.49845 0
M  V30 5806 C 524.663 -0.820566 1.3689 0
M  V30 5807 C 524.863 -1.97248 0.411752 0
M  V30 5808 O 523.919 -2.52042 -0.151931 0
M  V30 5809 C 525.232 -1.1488 2.77891 0
M  V30 5810 C 526.78 -1.25626 2.86683 0
M  V30 5811 C 527.255 -1.61772 4.28479 0
M  V30 5812 N 528.746 -1.68797 4.31349 0
M  V30 5813 C 529.481 -1.98235 5.38043 0
M  V30 5814 N 528.977 -2.2581 6.54967 0
M  V30 5815 N 530.77 -1.99593 5.2547 0
M  V30 5816 H 522.921 0.271123 2.10662 0
M  V30 5817 H 525.184 0.058735 0.946179 0
M  V30 5818 H 524.89 -0.375614 3.49688 0
M  V30 5819 H 524.764 -2.08919 3.14058 0
M  V30 5820 H 527.151 -2.02014 2.15114 0
M  V30 5821 H 527.232 -0.296072 2.54081 0
M  V30 5822 H 526.876 -0.859295 5.00578 0
M  V30 5823 H 526.806 -2.58912 4.58554 0
M  V30 5824 H 529.297 -1.49595 3.4703 0
M  V30 5825 H 529.61 -2.47497 7.32096 0
M  V30 5826 H 527.955 -2.23239 6.58171 0
M  V30 5827 H 531.146 -1.77535 4.33127 0
M  V30 5828 H 531.319 -2.222 6.08713 0
M  V30 5829 N 524.725 -1.39134 -0.740242 0
M  V30 5830 C 526.141 -1.20623 -1.0451 0
M  V30 5831 C 526.341 -0.0641651 -2.01398 0
M  V30 5832 O 525.397 0.585843 -2.4561 0
M  V30 5833 C 526.71 -2.53815 -1.6124 0
M  V30 5834 C 528.258 -2.60615 -1.73346 0
M  V30 5835 C 528.733 -3.94015 -2.33486 0
M  V30 5836 N 530.224 -3.95627 -2.40902 0
M  V30 5837 C 530.959 -4.95616 -2.88361 0
M  V30 5838 N 530.455 -6.06003 -3.35756 0
M  V30 5839 N 532.248 -4.82998 -2.87523 0
M  V30 5840 H 524.399 -2.12176 -0.0975576 0
M  V30 5841 H 526.662 -0.942066 -0.105904 0
M  V30 5842 H 526.368 -3.37911 -0.975144 0
M  V30 5843 H 526.242 -2.73162 -2.6012 0
M  V30 5844 H 528.629 -1.76906 -2.36195 0
M  V30 5845 H 528.71 -2.45123 -0.731336 0
M  V30 5846 H 528.354 -4.78153 -1.71267 0
M  V30 5847 H 528.284 -4.06825 -3.34366 0
M  V30 5848 H 530.775 -3.15903 -2.07398 0
M  V30 5849 H 531.088 -6.78215 -3.70464 0
M  V30 5850 H 529.433 -6.09604 -3.33778 0
M  V30 5851 H 532.624 -3.95866 -2.49816 0
M  V30 5852 H 532.797 -5.61072 -3.24196 0
M  V30 5853 N 526.204 0.969867 -1.24223 0
M  V30 5854 C 527.615 1.52717 -1.07399 0
M  V30 5855 C 527.966 1.92956 0.355298 0
M  V30 5856 O 527.091 1.77112 1.2434 0
M  V30 5857 C 527.686 2.77521 -1.94339 0
M  V30 5858 C 526.245 3.29615 -1.81744 0
M  V30 5859 C 525.392 2.02537 -1.89405 0
M  V30 5860 H 528.343 0.788399 -1.37732 0
M  V30 5861 H 528.364 3.50773 -1.47439 0
M  V30 5862 H 527.876 2.48203 -2.98357 0
M  V30 5863 H 525.977 3.63789 -0.805505 0
M  V30 5864 H 526.09 3.98661 -2.65718 0
M  V30 5865 H 524.454 2.17151 -1.33108 0
M  V30 5866 H 525.237 1.75587 -2.94999 0
M  V30 5867 N 527.682 1.05563 1.17022 0
M  V30 5868 C 528.907 0.788437 1.91829 0
M  V30 5869 C 529.332 -0.650356 1.76499 0
M  V30 5870 O 528.69 -1.45229 1.08527 0
M  V30 5871 C 528.738 1.1786 3.40795 0
M  V30 5872 O 527.842 0.312965 4.11211 0
M  V30 5873 H 527.183 0.288794 0.597908 0
M  V30 5874 H 529.713 1.40948 1.48307 0
M  V30 5875 H 529.723 1.14697 3.91546 0
M  V30 5876 H 528.398 2.22666 3.51273 0
M  V30 5877 H 526.975 0.405515 3.70689 0
M  V30 5878 N 529.16 -1.33526 0.837174 0
M  V30 5879 C 530.388 -2.02047 0.445494 0
M  V30 5880 C 530.803 -1.62995 -0.952788 0
M  V30 5881 O 530.16 -0.842447 -1.61892 0
M  V30 5882 C 530.211 -3.57221 0.554577 0
M  V30 5883 O 529.932 -3.94863 1.89776 0
M  V30 5884 C 531.433 -4.43012 0.159634 0
M  V30 5885 H 528.653 -0.647221 0.177048 0
M  V30 5886 H 531.197 -1.70492 1.12928 0
M  V30 5887 H 529.352 -3.87315 -0.0812781 0
M  V30 5888 H 529.766 -4.89569 1.88208 0
M  V30 5889 H 531.24 -5.51253 0.28701 0
M  V30 5890 H 531.717 -4.29916 -0.898289 0
M  V30 5891 H 532.323 -4.18274 0.769855 0
M  V30 5892 N 530.638 -0.59345 -1.46 0
M  V30 5893 C 531.887 -0.0808084 -2.01538 0
M  V30 5894 C 532.2 1.29112 -1.46934 0
M  V30 5895 O 533.406 1.8957 -1.94359 0
M  V30 5896 C 531.862 -0.0938311 -3.59778 0
M  V30 5897 C 531.47 -1.46474 -4.23379 0
M  V30 5898 C 533.214 0.364306 -4.22934 0
M  V30 5899 C 531.121 -1.4349 -5.73729 0
M  V30 5900 H 530.051 -0.0264407 -0.753536 0
M  V30 5901 H 532.702 -0.746689 -1.67621 0
M  V30 5902 H 531.084 0.638427 -3.9082 0
M  V30 5903 H 532.258 -2.21758 -4.03931 0
M  V30 5904 H 530.573 -1.86379 -3.7236 0
M  V30 5905 H 533.17 0.405584 -5.3316 0
M  V30 5906 H 533.513 1.38409 -3.92618 0
M  V30 5907 H 534.046 -0.31423 -3.96557 0
M  V30 5908 H 530.785 -2.43184 -6.08722 0
M  V30 5909 H 530.305 -0.724431 -5.95409 0
M  V30 5910 H 531.984 -1.15243 -6.36654 0
M  V30 5911 N 532.116 1.54067 -0.331816 0
M  V30 5912 C 533.079 2.23275 0.517768 0
M  V30 5913 C 534.079 1.22897 1.03697 0
M  V30 5914 O 535.269 1.47419 0.928084 0
M  V30 5915 C 532.401 2.94326 1.72004 0
M  V30 5916 H 533.594 2.99773 -0.0873507 0
M  V30 5917 H 531.147 1.56079 -0.0830042 0
M  V30 5918 H 531.882 2.21986 2.36417 0
M  V30 5919 H 531.667 3.67941 1.35507 0
M  V30 5920 H 533.157 3.47031 2.32291 0
M  V30 5921 N 533.594 0.0601682 1.57485 0
M  V30 5922 C 534.504 -0.926121 2.15546 0
M  V30 5923 C 535.52 -1.33532 1.11558 0
M  V30 5924 O 536.696 -1.4104 1.4377 0
M  V30 5925 C 533.761 -2.17952 2.69625 0
M  V30 5926 C 532.822 -1.82783 3.88444 0
M  V30 5927 C 532.055 -3.02148 4.39935 0
M  V30 5928 O 532.278 -4.15803 3.90466 0
M  V30 5929 O 531.212 -2.82639 5.31412 0
M  V30 5930 H 535.038 -0.462289 3.00161 0
M  V30 5931 H 532.623 -0.162246 1.48516 0
M  V30 5932 H 534.505 -2.91474 3.04337 0
M  V30 5933 H 533.18 -2.63456 1.88077 0
M  V30 5934 H 532.087 -1.06549 3.58606 0
M  V30 5935 H 533.42 -1.42072 4.7125 0
M  V30 5936 N 535.072 -1.5615 -0.213296 0
M  V30 5937 C 536.004 -1.89586 -1.28802 0
M  V30 5938 C 537.017 -0.784844 -1.42633 0
M  V30 5939 O 538.206 -1.06319 -1.43383 0
M  V30 5940 C 535.306 -2.09665 -2.66259 0
M  V30 5941 C 534.479 -3.40726 -2.7427 0
M  V30 5942 C 533.538 -3.50137 -3.92798 0
M  V30 5943 O 532.564 -4.23105 -3.8075 0
M  V30 5944 N 533.766 -2.81886 -5.07465 0
M  V30 5945 H 536.531 -2.82368 -1.00442 0
M  V30 5946 H 534.092 -1.56796 -0.403302 0
M  V30 5947 H 536.084 -2.13268 -3.43946 0
M  V30 5948 H 534.654 -1.23469 -2.87183 0
M  V30 5949 H 533.874 -3.4915 -1.82997 0
M  V30 5950 H 535.162 -4.27048 -2.76599 0
M  V30 5951 H 534.56 -2.22397 -5.2015 0
M  V30 5952 H 533.117 -2.91139 -5.83165 0
M  V30 5953 N 536.55 0.480323 -1.50102 0
M  V30 5954 C 537.778 1.25657 -1.64371 0
M  V30 5955 C 538.193 1.86011 -0.323316 0
M  V30 5956 O 537.55 1.68803 0.693682 0
M  V30 5957 C 537.601 2.37197 -2.728 0
M  V30 5958 O 537.322 1.7932 -3.9972 0
M  V30 5959 C 538.823 3.2823 -2.9796 0
M  V30 5960 H 536.043 0.380369 -0.552775 0
M  V30 5961 H 538.587 0.574379 -1.96268 0
M  V30 5962 H 536.742 3.01208 -2.43623 0
M  V30 5963 H 537.156 2.52701 -4.59611 0
M  V30 5964 H 538.63 4.02725 -3.77513 0
M  V30 5965 H 539.107 3.86462 -2.08671 0
M  V30 5966 H 539.713 2.69964 -3.28633 0
M  V30 5967 N 538.028 1.39524 0.732853 0
M  V30 5968 C 539.274 1.37068 1.49467 0
M  V30 5969 C 539.607 -0.0327166 1.94172 0
M  V30 5970 O 538.882 -0.998071 1.66939 0
M  V30 5971 C 539.165 2.34494 2.73285 0
M  V30 5972 C 539.018 3.83784 2.34585 0
M  V30 5973 C 540.337 2.29717 3.75391 0
M  V30 5974 H 537.456 0.499206 0.542183 0
M  V30 5975 H 540.098 1.70532 0.837783 0
M  V30 5976 H 538.248 2.06087 3.29333 0
M  V30 5977 H 539.92 4.22949 1.84151 0
M  V30 5978 H 538.163 4.00455 1.66787 0
M  V30 5979 H 538.834 4.47444 3.23262 0
M  V30 5980 H 541.31 2.54839 3.28932 0
M  V30 5981 H 540.186 2.99962 4.59689 0
M  V30 5982 H 540.447 1.30291 4.22465 0
M  V30 5983 N 539.506 -0.963266 1.24736 0
M  V30 5984 C 540.469 -2.04013 1.04457 0
M  V30 5985 C 541.469 -1.608 0.000335555 0
M  V30 5986 O 542.659 -1.72515 0.241719 0
M  V30 5987 C 539.791 -3.35858 0.584162 0
M  V30 5988 H 540.984 -2.23436 2.00041 0
M  V30 5989 H 538.537 -1.13914 1.07021 0
M  V30 5990 H 539.272 -3.22128 -0.374673 0
M  V30 5991 H 539.057 -3.68568 1.3379 0
M  V30 5992 H 540.547 -4.1502 0.463451 0
M  V30 5993 N 540.985 -1.06182 -1.16461 0
M  V30 5994 C 541.932 -0.671613 -2.20812 0
M  V30 5995 C 542.902 0.331186 -1.62765 0
M  V30 5996 O 544.087 0.22033 -1.89524 0
M  V30 5997 C 541.227 -0.063029 -3.45042 0
M  V30 5998 C 540.34 -1.11587 -4.1734 0
M  V30 5999 C 539.475 -0.473546 -5.29085 0
M  V30 6000 C 538.514 -1.51 -5.93182 0
M  V30 6001 N 537.651 -0.891118 -6.96422 0
M  V30 6002 H 542.491 -1.56589 -2.53542 0
M  V30 6003 H 540.028 -0.782951 -1.24532 0
M  V30 6004 H 541.986 0.307344 -4.16066 0
M  V30 6005 H 540.616 0.794663 -3.12866 0
M  V30 6006 H 539.668 -1.60396 -3.44931 0
M  V30 6007 H 540.98 -1.90221 -4.61104 0
M  V30 6008 H 540.134 -0.0501432 -6.06679 0
M  V30 6009 H 538.873 0.344687 -4.8648 0
M  V30 6010 H 537.878 -1.94331 -5.14311 0
M  V30 6011 H 539.103 -2.33031 -6.37866 0
M  V30 6012 H 537.049 -0.0935753 -6.55933 0
M  V30 6013 H 536.966 -1.61486 -7.38551 0
M  V30 6014 H 538.234 -0.492822 -7.77941 0
M  V30 6015 N 542.463 1.3308 -0.844243 0
M  V30 6016 C 543.426 2.27403 -0.286485 0
M  V30 6017 C 544.426 1.51179 0.547872 0
M  V30 6018 O 545.616 1.70421 0.360886 0
M  V30 6019 C 542.748 3.35653 0.595813 0
M  V30 6020 H 543.941 2.78248 -1.11885 0
M  V30 6021 H 541.494 1.43574 -0.617749 0
M  V30 6022 H 542.229 2.90058 1.4504 0
M  V30 6023 H 542.014 3.921 -0.00125994 0
M  V30 6024 H 543.504 4.05958 0.979168 0
M  V30 6025 N 543.941 0.601185 1.45683 0
M  V30 6026 C 544.873 -0.159446 2.28645 0
M  V30 6027 C 545.886 -0.837882 1.39583 0
M  V30 6028 O 547.075 -0.704344 1.64016 0
M  V30 6029 C 544.175 -1.24641 3.15147 0
M  V30 6030 C 543.348 -0.656334 4.32448 0
M  V30 6031 C 542.407 -1.63337 5.00208 0
M  V30 6032 O 541.433 -1.16217 5.57209 0
M  V30 6033 N 542.635 -2.96773 4.98905 0
M  V30 6034 H 545.4 0.5524 2.94565 0
M  V30 6035 H 542.961 0.440223 1.558 0
M  V30 6036 H 544.953 -1.8997 3.57342 0
M  V30 6037 H 543.523 -1.86087 2.51178 0
M  V30 6038 H 542.743 0.174879 3.93812 0
M  V30 6039 H 544.031 -0.242211 5.08223 0
M  V30 6040 H 543.429 -3.37662 4.53873 0
M  V30 6041 H 541.986 -3.57541 5.44984 0
M  V30 6042 N 545.419 -1.53889 0.339982 0
M  V30 6043 C 546.647 -2.05271 -0.259114 0
M  V30 6044 C 547.062 -1.21517 -1.44496 0
M  V30 6045 O 546.419 -0.24966 -1.80784 0
M  V30 6046 C 546.47 -3.55092 -0.677634 0
M  V30 6047 O 546.191 -4.35667 0.461051 0
M  V30 6048 C 547.692 -4.22631 -1.33782 0
M  V30 6049 H 544.912 -0.669085 -0.0506566 0
M  V30 6050 H 547.456 -1.9852 0.490935 0
M  V30 6051 H 545.611 -3.62077 -1.37763 0
M  V30 6052 H 546.025 -5.24343 0.128144 0
M  V30 6053 H 547.499 -5.28861 -1.58145 0
M  V30 6054 H 547.976 -3.74758 -2.29027 0
M  V30 6055 H 548.582 -4.19829 -0.679957 0
M  V30 6056 N 546.897 -0.0685191 -1.57451 0
M  V30 6057 C 548.143 0.602239 -1.93652 0
M  V30 6058 C 548.476 1.6946 -0.948526 0
M  V30 6059 O 547.751 1.94487 0.022782 0
M  V30 6060 C 548.034 1.18223 -3.4014 0
M  V30 6061 C 547.887 0.0967431 -4.49696 0
M  V30 6062 C 549.206 2.08872 -3.87377 0
M  V30 6063 H 546.325 0.217453 -0.70419 0
M  V30 6064 H 548.967 -0.133821 -1.89528 0
M  V30 6065 H 547.117 1.80953 -3.43785 0
M  V30 6066 H 548.789 -0.536155 -4.58174 0
M  V30 6067 H 547.032 -0.573063 -4.29998 0
M  V30 6068 H 547.703 0.542894 -5.49324 0
M  V30 6069 H 550.179 1.56081 -3.85717 0
M  V30 6070 H 549.055 2.46389 -4.90493 0
M  V30 6071 H 549.316 2.99572 -3.25129 0
M  V30 6072 N 548.375 1.56261 0.205012 0
M  V30 6073 C 549.623 1.79684 0.925096 0
M  V30 6074 C 549.944 0.63989 1.84202 0
M  V30 6075 O 549.214 -0.342345 1.92885 0
M  V30 6076 H 547.794 0.662774 0.344587 0
M  V30 6077 H 550.456 1.93734 0.212899 0
M  V30 6078 H 549.552 2.72467 1.52211 0
M  V30 6079 N 549.853 -0.472356 1.50355 0
M  V30 6080 C 550.783 -1.57859 1.72055 0
M  V30 6081 C 551.764 -1.60283 0.569505 0
M  V30 6082 O 552.949 -1.7657 0.808503 0
M  V30 6083 C 550.079 -2.96191 1.81351 0
M  V30 6084 C 549.033 -3.08633 2.96529 0
M  V30 6085 C 548.359 -4.486 2.90968 0
M  V30 6086 C 549.659 -2.85969 4.37057 0
M  V30 6087 H 551.353 -1.39953 2.64676 0
M  V30 6088 H 548.899 -0.671846 1.27367 0
M  V30 6089 H 550.852 -3.73507 1.95117 0
M  V30 6090 H 549.576 -3.15251 0.853502 0
M  V30 6091 H 548.235 -2.33749 2.82413 0
M  V30 6092 H 547.883 -4.64577 1.92815 0
M  V30 6093 H 547.583 -4.57861 3.68289 0
M  V30 6094 H 549.107 -5.27938 3.0678 0
M  V30 6095 H 550.521 -3.53036 4.51706 0
M  V30 6096 H 548.918 -3.06677 5.15819 0
M  V30 6097 H 549.988 -1.81838 4.49514 0
M  V30 6098 N 551.331 -1.39911 -0.725443 0
M  V30 6099 C 552.742 -1.33599 -1.30415 0
M  V30 6100 C 553.093 -0.00481792 -1.96199 0
M  V30 6101 O 552.218 0.897275 -1.96921 0
M  V30 6102 C 552.813 -2.41965 -2.37146 0
M  V30 6103 C 551.372 -2.39144 -2.90667 0
M  V30 6104 C 550.519 -2.23355 -1.64341 0
M  V30 6105 H 553.47 -1.4986 -0.522267 0
M  V30 6106 H 553.491 -2.09304 -3.17761 0
M  V30 6107 H 553.003 -3.38837 -1.89238 0
M  V30 6108 H 551.104 -1.4594 -3.4283 0
M  V30 6109 H 551.217 -3.34362 -3.43131 0
M  V30 6110 H 549.581 -1.70696 -1.89037 0
M  V30 6111 H 550.364 -3.2221 -1.18471 0
M  V30 6112 N 552.809 0.956637 -1.25245 0
M  V30 6113 C 554.055 1.70352 -1.10036 0
M  V30 6114 C 554.388 1.90869 0.358156 0
M  V30 6115 O 553.663 1.47819 1.26411 0
M  V30 6116 C 553.946 3.08766 -1.85298 0
M  V30 6117 C 553.799 2.95672 -3.38966 0
M  V30 6118 C 555.118 4.08622 -1.63451 0
M  V30 6119 H 552.237 0.618279 -0.401123 0
M  V30 6120 H 554.879 1.11212 -1.54051 0
M  V30 6121 H 553.029 3.59252 -1.47887 0
M  V30 6122 H 554.701 2.52527 -3.86041 0
M  V30 6123 H 552.944 2.31634 -3.6678 0
M  V30 6124 H 553.615 3.93776 -3.86839 0
M  V30 6125 H 556.091 3.67038 -1.96015 0
M  V30 6126 H 554.967 5.03514 -2.18551 0
M  V30 6127 H 555.228 4.3834 -0.575357 0
M  V30 6128 N 554.287 1.06798 1.15896 0
M  V30 6129 C 555.515 0.808694 1.90441 0
M  V30 6130 C 555.93 -0.637506 1.77711 0
M  V30 6131 O 555.287 -1.43684 1.12522 0
M  V30 6132 C 555.338 1.20068 3.40978 0
M  V30 6133 O 555.059 2.59013 3.53333 0
M  V30 6134 C 556.56 0.96987 4.3256 0
M  V30 6135 H 553.78 0.292809 0.603742 0
M  V30 6136 H 556.324 1.42296 1.46874 0
M  V30 6137 H 554.479 0.630842 3.82229 0
M  V30 6138 H 554.893 2.7485 4.46719 0
M  V30 6139 H 556.367 1.29371 5.36626 0
M  V30 6140 H 556.844 -0.0941209 4.39099 0
M  V30 6141 H 557.45 1.52433 3.97044 0
M  V30 6142 N 555.766 -1.3263 0.851289 0
M  V30 6143 C 556.699 -2.26952 0.238318 0
M  V30 6144 C 557.677 -1.50243 -0.621757 0
M  V30 6145 O 558.861 -1.79378 -0.579298 0
M  V30 6146 C 555.988 -3.32124 -0.664178 0
M  V30 6147 C 555.034 -4.26325 0.122067 0
M  V30 6148 S 555.867 -5.14404 1.48824 0
M  V30 6149 C 557.023 -6.231 0.591372 0
M  V30 6150 H 557.256 -2.78594 1.03791 0
M  V30 6151 H 554.789 -1.4011 0.648731 0
M  V30 6152 H 556.747 -3.93197 -1.17924 0
M  V30 6153 H 555.408 -2.79273 -1.43755 0
M  V30 6154 H 554.601 -5.00821 -0.565181 0
M  V30 6155 H 554.203 -3.69652 0.568602 0
M  V30 6156 H 556.495 -6.77187 -0.205762 0
M  V30 6157 H 557.438 -6.95936 1.30687 0
M  V30 6158 H 557.846 -5.64252 0.167206 0
M  V30 6159 N 557.244 -0.608902 -1.45362 0
M  V30 6160 C 558.194 0.130616 -2.27626 0
M  V30 6161 C 559.178 0.837323 -1.37396 0
M  V30 6162 O 560.37 0.727096 -1.61376 0
M  V30 6163 C 557.499 1.12646 -3.24293 0
M  V30 6164 C 556.585 0.42052 -4.2201 0
M  V30 6165 N 556.976 -0.538569 -5.02925 0
M  V30 6166 C 555.274 0.667901 -4.40971 0
M  V30 6167 C 555.975 -0.953625 -5.7383 0
M  V30 6168 N 554.951 -0.297097 -5.42788 0
M  V30 6169 H 558.753 -0.605996 -2.87585 0
M  V30 6170 H 556.267 -0.432672 -1.5653 0
M  V30 6171 H 558.264 1.67066 -3.81961 0
M  V30 6172 H 556.924 1.86361 -2.65894 0
M  V30 6173 H 557.935 -0.915375 -5.09746 0
M  V30 6174 H 554.612 1.38963 -3.93695 0
M  V30 6175 H 556.002 -1.74473 -6.48852 0
M  V30 6176 N 558.722 1.53707 -0.348139 0
M  V30 6177 C 559.947 2.05877 0.250883 0
M  V30 6178 C 560.372 1.22115 1.43072 0
M  V30 6179 O 559.73 0.235986 1.79758 0
M  V30 6180 C 559.778 3.54886 0.639416 0
M  V30 6181 O 558.882 3.73948 1.73888 0
M  V30 6182 H 558.223 0.662754 0.040653 0
M  V30 6183 H 560.753 1.98303 -0.503685 0
M  V30 6184 H 560.763 3.97601 0.915295 0
M  V30 6185 H 559.438 4.153 -0.223386 0
M  V30 6186 H 558.015 3.43134 1.45991 0
M  V30 6187 N 560.2 0.0768682 1.57412 0
M  V30 6188 C 561.611 -0.455037 1.8107 0
M  V30 6189 C 561.962 -1.69323 0.991162 0
M  V30 6190 O 561.087 -2.15328 0.215156 0
M  V30 6191 C 561.682 -0.832316 3.28417 0
M  V30 6192 C 560.241 -1.30906 3.52903 0
M  V30 6193 C 559.388 -0.296714 2.75708 0
M  V30 6194 H 562.339 0.302514 1.5579 0
M  V30 6195 H 562.36 -1.69333 3.40744 0
M  V30 6196 H 561.872 0.0690532 3.88039 0
M  V30 6197 H 559.973 -2.22875 2.98592 0
M  V30 6198 H 560.086 -1.28348 4.61588 0
M  V30 6199 H 558.45 -0.775059 2.42621 0
M  V30 6200 H 559.233 0.597015 3.38069 0
M  V30 6201 N 561.678 -1.56367 -0.196722 0
M  V30 6202 C 562.626 -1.95304 -1.2633 0
M  V30 6203 C 563.62 -0.838252 -1.47206 0
M  V30 6204 O 564.826 -1.02325 -1.48087 0
M  V30 6205 H 561.201 -0.621013 -0.424083 0
M  V30 6206 H 563.172 -2.84254 -0.907879 0
M  V30 6207 C 561.921 -2.3074 -2.60104 0
M  V30 6208 H 561.244 -3.16047 -2.44856 0
M  V30 6209 H 562.684 -2.61849 -3.33484 0
M  V30 6210 C 561.143 -1.14143 -3.16975 0
M  V30 6211 O 561.673 -0.415602 -3.99544 0
M  V30 6212 N 559.879 -0.91867 -2.75697 0
M  V30 6213 H 559.426 -1.51065 -2.08656 0
M  V30 6214 H 559.384 -0.140321 -3.14087 0
M  V30 6215 N 563.156 0.464375 -1.50603 0
M  V30 6216 C 564.089 1.58052 -1.64605 0
M  V30 6217 C 565.067 1.54914 -0.494016 0
M  V30 6218 O 566.251 1.74438 -0.714393 0
M  V30 6219 C 563.378 2.96634 -1.63481 0
M  V30 6220 C 562.424 3.17901 -2.84325 0
M  V30 6221 S 563.257 2.97083 -4.45536 0
M  V30 6222 C 564.413 4.37994 -4.47115 0
M  V30 6223 H 564.646 1.45937 -2.59017 0
M  V30 6224 H 562.179 0.652189 -1.39949 0
M  V30 6225 H 564.137 3.76527 -1.63517 0
M  V30 6226 H 562.798 3.06134 -0.702928 0
M  V30 6227 H 561.991 4.19158 -2.79862 0
M  V30 6228 H 561.593 2.45792 -2.81891 0
M  V30 6229 H 563.885 5.30743 -4.21091 0
M  V30 6230 H 564.828 4.47499 -5.48772 0
M  V30 6231 H 565.236 4.20386 -3.76743 0
M  V30 6232 N 564.634 1.40294 0.718013 0
M  V30 6233 C 566.05 1.2227 1.02577 0
M  V30 6234 C 566.25 0.0961976 2.0127 0
M  V30 6235 O 565.306 -0.546695 2.46511 0
M  V30 6236 C 566.619 2.56348 1.57182 0
M  V30 6237 C 568.167 2.6334 1.69178 0
M  V30 6238 C 568.642 3.9768 2.27188 0
M  V30 6239 N 570.133 3.99409 2.34578 0
M  V30 6240 C 570.868 5.00141 2.8044 0
M  V30 6241 N 570.364 6.11268 3.26073 0
M  V30 6242 N 572.157 4.87511 2.79802 0
M  V30 6243 H 564.308 2.12304 0.0637899 0
M  V30 6244 H 566.571 0.943632 0.0909036 0
M  V30 6245 H 566.277 3.3942 0.921262 0
M  V30 6246 H 566.151 2.77266 2.55741 0
M  V30 6247 H 568.538 1.80641 2.33351 0
M  V30 6248 H 568.619 2.46255 0.692247 0
M  V30 6249 H 568.263 4.80817 1.63638 0
M  V30 6250 H 568.193 4.12093 3.27852 0
M  V30 6251 H 570.684 3.19162 2.02346 0
M  V30 6252 H 570.997 6.84023 3.59628 0
M  V30 6253 H 569.342 6.14837 3.24038 0
M  V30 6254 H 572.533 3.9979 2.43487 0
M  V30 6255 H 572.706 5.66158 3.15228 0
M  V30 6256 N 566.112 -0.949982 1.2575 0
M  V30 6257 C 567.042 -2.06483 1.09028 0
M  V30 6258 C 568.023 -1.701 -0.00201532 0
M  V30 6259 O 569.208 -1.93469 0.168383 0
M  V30 6260 C 566.338 -3.39899 0.71316 0
M  V30 6261 C 565.292 -3.90309 1.75621 0
M  V30 6262 C 564.618 -5.20274 1.23365 0
M  V30 6263 C 565.918 -4.16169 3.15596 0
M  V30 6264 H 567.612 -2.20731 2.02283 0
M  V30 6265 H 565.158 -1.06066 0.973964 0
M  V30 6266 H 567.111 -4.17346 0.58309 0
M  V30 6267 H 565.835 -3.25602 -0.255091 0
M  V30 6268 H 564.494 -3.15035 1.8748 0
M  V30 6269 H 564.142 -5.02351 0.255491 0
M  V30 6270 H 563.842 -5.54971 1.93082 0
M  V30 6271 H 565.366 -6.00314 1.11607 0
M  V30 6272 H 566.78 -4.84259 3.06864 0
M  V30 6273 H 565.177 -4.62131 3.82825 0
M  V30 6274 H 566.247 -3.22273 3.6231 0
M  V30 6275 N 567.59 -1.07411 -1.15328 0
M  V30 6276 C 568.52 -0.716472 -2.22236 0
M  V30 6277 C 569.501 0.296373 -1.67498 0
M  V30 6278 O 570.686 0.168989 -1.93463 0
M  V30 6279 C 567.816 -0.114142 -3.47112 0
M  V30 6280 C 566.77 -1.05421 -4.14814 0
M  V30 6281 C 566.096 -0.314604 -5.33774 0
M  V30 6282 C 567.396 -2.38808 -4.64508 0
M  V30 6283 H 569.09 -1.61029 -2.52408 0
M  V30 6284 H 566.636 -0.775702 -1.21321 0
M  V30 6285 H 568.589 0.148001 -4.2114 0
M  V30 6286 H 567.313 0.814755 -3.16274 0
M  V30 6287 H 565.972 -1.30128 -3.42728 0
M  V30 6288 H 565.62 0.617772 -4.99192 0
M  V30 6289 H 565.32 -0.941209 -5.80013 0
M  V30 6290 H 566.844 -0.0602747 -6.1057 0
M  V30 6291 H 568.258 -2.18424 -5.3006 0
M  V30 6292 H 566.655 -2.97069 -5.21412 0
M  V30 6293 H 567.725 -3.01067 -3.80114 0
M  V30 6294 N 569.068 1.32177 -0.85831 0
M  V30 6295 C 570.484 1.49873 -0.548656 0
M  V30 6296 C 570.684 1.79278 0.919874 0
M  V30 6297 O 569.74 1.86451 1.70271 0
M  V30 6298 C 571.053 2.64043 -1.4388 0
M  V30 6299 C 572.601 2.77928 -1.43961 0
M  V30 6300 C 573.076 3.95182 -2.31506 0
M  V30 6301 N 574.567 4.0245 -2.29321 0
M  V30 6302 C 575.302 4.9242 -2.93786 0
M  V30 6303 N 574.798 5.87373 -3.67376 0
M  V30 6304 N 576.591 4.85572 -2.83155 0
M  V30 6305 H 568.742 1.11357 -1.80868 0
M  V30 6306 H 571.005 0.549175 -0.772729 0
M  V30 6307 H 570.711 2.49055 -2.48324 0
M  V30 6308 H 570.585 3.59912 -1.12885 0
M  V30 6309 H 572.972 2.92338 -0.402813 0
M  V30 6310 H 573.053 1.82762 -1.78974 0
M  V30 6311 H 572.697 3.81531 -3.35256 0
M  V30 6312 H 572.627 4.89633 -1.93823 0
M  V30 6313 H 575.118 3.34507 -1.75822 0
M  V30 6314 H 575.431 6.52728 -4.13722 0
M  V30 6315 H 573.776 5.87388 -3.71484 0
M  V30 6316 H 576.967 4.10363 -2.25211 0
M  V30 6317 H 577.14 5.55486 -3.33676 0
M  V30 6318 N 570.547 0.616602 1.45037 0
M  V30 6319 C 571.772 0.120192 2.07051 0
M  V30 6320 C 572.197 -1.19008 1.45666 0
M  V30 6321 O 571.555 -1.7267 0.552692 0
M  V30 6322 C 571.603 0.00354901 3.606 0
M  V30 6323 O 570.707 -1.04431 3.98958 0
M  V30 6324 H 570.048 0.0781599 0.659384 0
M  V30 6325 H 572.578 0.849167 1.86146 0
M  V30 6326 H 572.588 -0.191754 4.07549 0
M  V30 6327 H 571.263 0.960239 4.04663 0
M  V30 6328 H 569.84 -0.824749 3.63665 0
M  V30 6329 N 572.025 -1.5352 0.356285 0
M  V30 6330 C 572.988 -2.24071 -0.482182 0
M  V30 6331 C 573.988 -1.24531 -1.01729 0
M  V30 6332 O 575.178 -1.48876 -0.904513 0
M  V30 6333 C 572.31 -2.97025 -1.67299 0
M  V30 6334 H 573.503 -2.99596 0.135031 0
M  V30 6335 H 571.056 -1.55928 0.107825 0
M  V30 6336 H 571.791 -2.25719 -2.32855 0
M  V30 6337 H 571.576 -3.7005 -1.29636 0
M  V30 6338 H 573.066 -3.50683 -2.26741 0
M  V30 6339 N 573.503 -0.0852151 -1.57369 0
M  V30 6340 C 574.433 0.874556 -2.16503 0
M  V30 6341 C 575.414 1.30111 -1.09568 0
M  V30 6342 O 576.599 1.36977 -1.37662 0
M  V30 6343 C 573.729 2.13731 -2.73745 0
M  V30 6344 C 572.683 1.84971 -3.85966 0
M  V30 6345 C 572.009 3.17991 -4.29867 0
M  V30 6346 C 573.309 1.14442 -5.09608 0
M  V30 6347 H 575.003 0.381899 -2.96954 0
M  V30 6348 H 572.549 0.18225 -1.42842 0
M  V30 6349 H 574.502 2.81302 -3.13763 0
M  V30 6350 H 573.226 2.65263 -1.90534 0
M  V30 6351 H 571.885 1.19801 -3.46473 0
M  V30 6352 H 571.533 3.6739 -3.4356 0
M  V30 6353 H 571.233 2.99534 -5.05523 0
M  V30 6354 H 572.757 3.86737 -4.72511 0
M  V30 6355 H 574.171 1.72105 -5.46857 0
M  V30 6356 H 572.568 1.06197 -5.90629 0
M  V30 6357 H 573.638 0.12559 -4.84737 0
M  V30 6358 N 574.981 1.5647 0.188427 0
M  V30 6359 C 575.911 1.98101 1.23606 0
M  V30 6360 C 576.892 0.853961 1.47111 0
M  V30 6361 O 578.077 1.11879 1.58735 0
M  V30 6362 C 575.207 2.32624 2.57882 0
M  V30 6363 C 574.161 3.48129 2.48978 0
M  V30 6364 C 573.487 3.68347 3.87588 0
M  V30 6365 C 574.787 4.82112 2.00911 0
M  V30 6366 H 576.481 2.85864 0.890068 0
M  V30 6367 H 574.027 1.37532 0.426714 0
M  V30 6368 H 575.98 2.60343 3.3136 0
M  V30 6369 H 574.704 1.41751 2.94235 0
M  V30 6370 H 573.363 3.20511 1.77956 0
M  V30 6371 H 573.011 2.74793 4.21305 0
M  V30 6372 H 572.711 4.46055 3.82503 0
M  V30 6373 H 574.235 3.98449 4.62678 0
M  V30 6374 H 575.649 5.08819 2.64151 0
M  V30 6375 H 574.046 5.63337 2.06814 0
M  V30 6376 H 575.116 4.75249 0.96262 0
M  V30 6377 N 576.459 -0.456382 1.50847 0
M  V30 6378 C 577.87 -1.03685 1.55262 0
M  V30 6379 C 578.221 -1.92779 0.364771 0
M  V30 6380 O 577.346 -2.10043 -0.52068 0
M  V30 6381 C 577.941 -1.88718 2.81374 0
M  V30 6382 C 576.5 -2.41847 2.88422 0
M  V30 6383 C 575.647 -1.20564 2.49719 0
M  V30 6384 H 578.598 -0.238399 1.56899 0
M  V30 6385 H 578.619 -2.73957 2.6406 0
M  V30 6386 H 578.131 -1.23847 3.67809 0
M  V30 6387 H 576.232 -3.10228 2.06372 0
M  V30 6388 H 576.345 -2.75947 3.9165 0
M  V30 6389 H 574.709 -1.54504 2.02486 0
M  V30 6390 H 575.492 -0.573326 3.38479 0
M  V30 6391 N 577.937 -1.40673 -0.710563 0
M  V30 6392 C 578.869 -1.37256 -1.83558 0
M  V30 6393 C 579.882 -0.277133 -1.60424 0
M  V30 6394 O 581.071 -0.537831 -1.70205 0
M  V30 6395 C 578.171 -1.1144 -3.20054 0
M  V30 6396 C 577.344 -2.32734 -3.70342 0
M  V30 6397 C 576.403 -2.03002 -4.85465 0
M  V30 6398 O 575.429 -2.75912 -4.97857 0
M  V30 6399 N 576.631 -1.01105 -5.71627 0
M  V30 6400 H 579.396 -2.34215 -1.86985 0
M  V30 6401 H 576.957 -1.35091 -0.892301 0
M  V30 6402 H 578.949 -0.895265 -3.94673 0
M  V30 6403 H 577.519 -0.231307 -3.11743 0
M  V30 6404 H 576.739 -2.70446 -2.86798 0
M  V30 6405 H 578.027 -3.13584 -4.00678 0
M  V30 6406 H 577.425 -0.407303 -5.64232 0
M  V30 6407 H 575.982 -0.85182 -6.4621 0
M  V30 6408 N 579.415 0.9433 -1.26252 0
M  V30 6409 C 580.378 2.02326 -1.07689 0
M  V30 6410 C 581.378 1.60779 -0.0259174 0
M  V30 6411 O 582.568 1.72108 -0.269134 0
M  V30 6412 C 579.7 3.34886 -0.63752 0
M  V30 6413 H 580.893 2.20225 -2.0357 0
M  V30 6414 H 578.446 1.12197 -1.08819 0
M  V30 6415 H 579.181 3.22684 0.323377 0
M  V30 6416 H 578.966 3.66393 -1.39637 0
M  V30 6417 H 580.456 4.14231 -0.529418 0
M  V30 6418 N 580.893 1.08022 1.14757 0
M  V30 6419 C 582.118 0.82895 1.90114 0
M  V30 6420 C 582.543 -0.612772 1.77839 0
M  V30 6421 O 581.901 -1.42895 1.11583 0
M  V30 6422 C 581.949 1.25062 3.38219 0
M  V30 6423 O 581.053 0.400119 4.10454 0
M  V30 6424 H 580.394 0.301412 0.591648 0
M  V30 6425 H 582.924 1.44062 1.45284 0
M  V30 6426 H 582.934 1.22977 3.89025 0
M  V30 6427 H 581.609 2.30067 3.46471 0
M  V30 6428 H 580.186 0.484052 3.69745 0
M  V30 6429 N 582.371 -1.3172 0.865308 0
M  V30 6430 C 583.319 -2.30569 0.306674 0
M  V30 6431 C 584.313 -1.59317 -0.575724 0
M  V30 6432 O 585.519 -1.73961 -0.462343 0
M  V30 6433 H 581.894 -0.747681 0.0804834 0
M  V30 6434 H 583.865 -2.75165 1.15441 0
M  V30 6435 C 582.614 -3.44358 -0.480952 0
M  V30 6436 H 581.937 -3.99354 0.18876 0
M  V30 6437 H 583.377 -4.15652 -0.837241 0
M  V30 6438 C 581.836 -2.92574 -1.67039 0
M  V30 6439 O 582.366 -2.90954 -2.76964 0
M  V30 6440 N 580.572 -2.48835 -1.50097 0
M  V30 6441 H 580.119 -2.50353 -0.606738 0
M  V30 6442 H 580.077 -2.14543 -2.29823 0
M  V30 6443 N 583.85 -0.624285 -1.44708 0
M  V30 6444 C 585.096 -0.126237 -2.02407 0
M  V30 6445 C 585.428 1.24618 -1.48943 0
M  V30 6446 O 584.704 1.82569 -0.670742 0
M  V30 6447 C 584.986 -0.105449 -3.59946 0
M  V30 6448 C 584.84 -1.50972 -4.23707 0
M  V30 6449 C 586.159 0.573629 -4.36346 0
M  V30 6450 H 583.278 -0.0473472 -0.735478 0
M  V30 6451 H 585.92 -0.799452 -1.72362 0
M  V30 6452 H 584.07 0.46783 -3.85673 0
M  V30 6453 H 585.742 -2.13136 -4.0911 0
M  V30 6454 H 583.985 -2.0656 -3.81465 0
M  V30 6455 H 584.656 -1.44727 -5.32689 0
M  V30 6456 H 587.132 0.0861787 -4.16011 0
M  V30 6457 H 586.008 0.557338 -5.46063 0
M  V30 6458 H 586.269 1.64276 -4.10446 0
M  V30 6459 N 585.328 1.53329 -0.364422 0
M  V30 6460 C 586.238 2.29414 0.490552 0
M  V30 6461 C 587.254 1.35335 1.09363 0
M  V30 6462 O 588.43 1.68391 1.10483 0
M  V30 6463 C 585.495 3.06772 1.61529 0
M  V30 6464 C 584.556 4.16516 1.03986 0
M  V30 6465 C 583.789 4.90176 2.111 0
M  V30 6466 O 584.012 4.63687 3.32191 0
M  V30 6467 O 582.946 5.76134 1.74222 0
M  V30 6468 H 586.772 3.03428 -0.12856 0
M  V30 6469 H 584.357 1.48843 -0.128837 0
M  V30 6470 H 586.239 3.55082 2.26924 0
M  V30 6471 H 584.914 2.35596 2.21983 0
M  V30 6472 H 583.821 3.7246 0.349856 0
M  V30 6473 H 585.154 4.89855 0.4799 0
M  V30 6474 N 586.806 0.0935595 1.57322 0
M  V30 6475 C 587.769 -0.851426 2.12799 0
M  V30 6476 C 588.769 -1.21187 1.0569 0
M  V30 6477 O 589.959 -1.14156 1.31583 0
M  V30 6478 C 587.091 -2.14779 2.64731 0
M  V30 6479 H 588.284 -0.369733 2.97612 0
M  V30 6480 H 585.837 -0.155417 1.55525 0
M  V30 6481 H 586.572 -2.67437 1.83434 0
M  V30 6482 H 586.357 -1.89907 3.43042 0
M  V30 6483 H 587.847 -2.82383 3.07651 0
M  V30 6484 N 588.284 -1.56567 -0.180126 0
M  V30 6485 C 589.531 -1.81492 -0.898167 0
M  V30 6486 C 589.859 -0.669225 -1.82624 0
M  V30 6487 O 589.114 0.344096 -1.92651 0
M  V30 6488 C 589.413 -3.1252 -1.73395 0
M  V30 6489 C 589.079 -4.40658 -0.955567 0
M  V30 6490 C 587.741 -4.75465 -0.740707 0
M  V30 6491 C 590.093 -5.19593 -0.408948 0
M  V30 6492 C 587.421 -5.86691 0.0320128 0
M  V30 6493 C 589.773 -6.31627 0.350638 0
M  V30 6494 C 588.437 -6.65007 0.576378 0
M  V30 6495 H 587.707 -0.664125 -0.328662 0
M  V30 6496 H 590.354 -1.908 -0.163616 0
M  V30 6497 H 588.659 -2.98515 -2.53763 0
M  V30 6498 H 590.356 -3.29013 -2.29241 0
M  V30 6499 H 586.946 -4.13352 -1.13306 0
M  V30 6500 H 591.13 -4.93104 -0.562307 0
M  V30 6501 H 586.386 -6.11016 0.216735 0
M  V30 6502 H 590.56 -6.92001 0.781497 0
M  V30 6503 H 588.187 -7.51033 1.17703 0
M  V30 6504 N 589.762 0.448376 -1.51087 0
M  V30 6505 C 590.987 1.22605 -1.6728 0
M  V30 6506 C 591.412 1.84524 -0.365045 0
M  V30 6507 O 590.77 1.6832 0.673642 0
M  V30 6508 C 590.818 2.29393 -2.78229 0
M  V30 6509 O 589.922 3.34608 -2.41063 0
M  V30 6510 H 589.263 0.359705 -0.558129 0
M  V30 6511 H 591.793 0.530903 -1.97592 0
M  V30 6512 H 591.803 2.74352 -3.01986 0
M  V30 6513 H 590.478 1.83701 -3.73131 0
M  V30 6514 H 589.055 2.95202 -2.27838 0
M  V30 6515 N 591.24 1.41047 0.703093 0
M  V30 6516 C 592.487 1.4 1.46309 0
M  V30 6517 C 592.815 0.00654574 1.94499 0
M  V30 6518 O 592.07 -0.980255 1.6938 0
M  V30 6519 C 592.369 2.34686 2.6955 0
M  V30 6520 C 592.035 3.81684 2.40058 0
M  V30 6521 C 590.697 4.21731 2.31725 0
M  V30 6522 C 593.049 4.74525 2.15581 0
M  V30 6523 C 590.377 5.52637 1.97001 0
M  V30 6524 C 592.729 6.05744 1.82366 0
M  V30 6525 C 591.393 6.44819 1.72524 0
M  V30 6526 H 590.663 0.512295 0.535382 0
M  V30 6527 H 593.31 1.73792 0.804275 0
M  V30 6528 H 591.615 1.94122 3.40329 0
M  V30 6529 H 593.312 2.31152 3.27673 0
M  V30 6530 H 589.902 3.49963 2.47435 0
M  V30 6531 H 594.086 4.44395 2.20968 0
M  V30 6532 H 589.342 5.81802 1.87928 0
M  V30 6533 H 593.516 6.77189 1.62444 0
M  V30 6534 H 591.143 7.46168 1.45385 0
M  V30 6535 N 592.718 -0.936591 1.26751 0
M  V30 6536 C 594.129 -1.49816 1.1141 0
M  V30 6537 C 594.48 -1.9383 -0.304015 0
M  V30 6538 O 593.605 -1.80346 -1.196 0
M  V30 6539 C 594.2 -2.72271 2.01629 0
M  V30 6540 C 592.759 -3.2468 1.9042 0
M  V30 6541 C 591.906 -1.97444 1.94708 0
M  V30 6542 H 594.857 -0.751604 1.39773 0
M  V30 6543 H 594.878 -3.46741 1.56688 0
M  V30 6544 H 594.39 -2.40205 3.04833 0
M  V30 6545 H 592.491 -3.61525 0.901674 0
M  V30 6546 H 592.604 -3.91476 2.76195 0
M  V30 6547 H 590.968 -2.13545 1.38818 0
M  V30 6548 H 591.751 -1.67703 2.9955 0
M  V30 6549 N 594.196 -1.08629 -1.14182 0
M  V30 6550 C 595.159 -0.722027 -2.1753 0
M  V30 6551 C 596.159 0.244305 -1.58933 0
M  V30 6552 O 597.349 0.0235545 -1.74184 0
M  V30 6553 C 594.481 -0.0663966 -3.40835 0
M  V30 6554 H 595.674 -1.63719 -2.51269 0
M  V30 6555 H 593.227 -0.884442 -1.28869 0
M  V30 6556 H 593.962 0.860389 -3.12678 0
M  V30 6557 H 593.747 -0.761598 -3.84632 0
M  V30 6558 H 595.237 0.173346 -4.1724 0
M  V30 6559 N 595.674 1.31259 -0.872281 0
M  V30 6560 C 596.899 2.0133 -0.498099 0
M  V30 6561 C 597.324 1.65031 0.902568 0
M  V30 6562 O 596.682 0.860164 1.59596 0
M  V30 6563 C 596.73 3.54411 -0.665205 0
M  V30 6564 O 595.834 4.11347 0.294473 0
M  V30 6565 H 595.175 0.633844 -0.197832 0
M  V30 6566 H 597.705 1.67402 -1.17633 0
M  V30 6567 H 597.715 4.04147 -0.559373 0
M  V30 6568 H 596.39 3.80171 -1.68651 0
M  V30 6569 H 594.967 3.72624 0.143403 0
M  V30 6570 N 597.152 0.631951 1.44375 0
M  V30 6571 C 598.4 0.136497 2.01639 0
M  V30 6572 C 598.721 -1.24637 1.49969 0
M  V30 6573 O 597.991 -1.82827 0.70363 0
M  V30 6574 H 596.571 0.0474703 0.74549 0
M  V30 6575 H 599.233 0.818837 1.76865 0
M  V30 6576 H 598.329 0.104817 3.11924 0
M  V30 6577 N 598.631 -1.53133 0.372548 0
M  V30 6578 C 599.871 -2.03267 -0.214943 0
M  V30 6579 C 600.235 -1.25362 -1.45425 0
M  V30 6580 O 601.436 -1.65536 -2.11781 0
M  V30 6581 C 599.707 -3.53985 -0.492897 0
M  V30 6582 S 601.266 -4.25977 -1.05307 0
M  V30 6583 H 598.084 -0.708289 -0.062029 0
M  V30 6584 H 600.686 -1.88539 0.517025 0
M  V30 6585 H 599.39 -4.08282 0.416442 0
M  V30 6586 H 598.921 -3.72887 -1.25375 0
M  V30 6587 H 600.936 -4.37731 -2.33679 0
M  V30 6588 N 600.109 -0.101901 -1.5727 0
M  V30 6589 C 601.041 0.884723 -2.11436 0
M  V30 6590 C 602.054 1.24149 -1.05314 0
M  V30 6591 O 603.243 1.19341 -1.3274 0
M  V30 6592 C 600.343 2.19179 -2.58484 0
M  V30 6593 C 599.516 2.00933 -3.88516 0
M  V30 6594 C 598.575 3.15213 -4.2134 0
M  V30 6595 O 597.601 2.88877 -4.90448 0
M  V30 6596 N 598.803 4.41174 -3.77288 0
M  V30 6597 H 601.568 0.422058 -2.96713 0
M  V30 6598 H 599.129 0.0830128 -1.61687 0
M  V30 6599 H 601.121 2.94593 -2.77484 0
M  V30 6600 H 599.691 2.56847 -1.7818 0
M  V30 6601 H 598.911 1.09809 -3.78597 0
M  V30 6602 H 600.199 1.86026 -4.73573 0
M  V30 6603 H 599.597 4.6545 -3.21516 0
M  V30 6604 H 598.154 5.13515 -4.01429 0
M  V30 6605 N 601.587 1.56661 0.17182 0
M  V30 6606 C 602.55 1.9549 1.19651 0
M  V30 6607 C 603.55 0.838501 1.37207 0
M  V30 6608 O 604.74 1.10556 1.34622 0
M  V30 6609 C 601.872 2.24927 2.56166 0
M  V30 6610 H 603.065 2.87184 0.864007 0
M  V30 6611 H 600.618 1.50711 0.41425 0
M  V30 6612 H 601.353 1.35944 2.94431 0
M  V30 6613 H 601.138 3.06301 2.4479 0
M  V30 6614 H 602.628 2.55891 3.30014 0
M  V30 6615 N 603.065 -0.440357 1.51323 0
M  V30 6616 C 603.975 -1.55955 1.75258 0
M  V30 6617 C 604.991 -1.61933 0.636687 0
M  V30 6618 O 606.167 -1.79231 0.918593 0
M  V30 6619 C 603.232 -2.9196 1.86977 0
M  V30 6620 C 602.293 -2.96122 3.10822 0
M  V30 6621 C 601.526 -4.2564 3.21973 0
M  V30 6622 O 601.749 -5.17851 2.39137 0
M  V30 6623 O 600.683 -4.36025 4.14929 0
M  V30 6624 H 604.509 -1.38673 2.70191 0
M  V30 6625 H 602.094 -0.623055 1.35788 0
M  V30 6626 H 603.976 -3.72682 1.96688 0
M  V30 6627 H 602.651 -3.09375 0.952307 0
M  V30 6628 H 601.558 -2.14366 3.06591 0
M  V30 6629 H 602.891 -2.83651 4.02247 0
M  V30 6630 N 604.543 -1.41418 -0.695603 0
M  V30 6631 C 605.506 -1.42988 -1.79129 0
M  V30 6632 C 606.506 -0.320514 -1.57573 0
M  V30 6633 O 607.696 -0.58039 -1.64247 0
M  V30 6634 C 604.828 -1.24122 -3.175 0
M  V30 6635 H 606.021 -2.40526 -1.7913 0
M  V30 6636 H 603.574 -1.2756 -0.903225 0
M  V30 6637 H 604.309 -0.274253 -3.23138 0
M  V30 6638 H 604.094 -2.045 -3.34547 0
M  V30 6639 H 605.584 -1.28056 -3.97481 0
M  V30 6640 N 606.021 0.929856 -1.27246 0
M  V30 6641 C 606.984 2.01172 -1.09829 0
M  V30 6642 C 607.984 1.60743 -0.0429687 0
M  V30 6643 O 609.174 1.71813 -0.287373 0
M  V30 6644 C 606.306 3.34191 -0.673003 0
M  V30 6645 H 607.499 2.18054 -2.05895 0
M  V30 6646 H 605.052 1.11036 -1.10003 0
M  V30 6647 H 605.787 3.23009 0.289134 0
M  V30 6648 H 605.572 3.64892 -1.43515 0
M  V30 6649 H 607.062 4.13646 -0.573323 0
M  V30 6650 N 607.499 1.09233 1.13605 0
M  V30 6651 C 608.746 0.827159 1.84836 0
M  V30 6652 C 609.074 -0.647199 1.83416 0
M  V30 6653 O 608.329 -1.49228 1.26608 0
M  V30 6654 C 608.628 1.305 3.32723 0
M  V30 6655 C 608.294 2.78864 3.54325 0
M  V30 6656 C 606.956 3.19382 3.59928 0
M  V30 6657 C 609.308 3.74532 3.62457 0
M  V30 6658 C 606.636 4.54346 3.71196 0
M  V30 6659 C 608.988 5.09283 3.75252 0
M  V30 6660 C 607.652 5.49394 3.79108 0
M  V30 6661 H 606.922 0.302679 0.676363 0
M  V30 6662 H 609.569 1.36676 1.34134 0
M  V30 6663 H 607.874 0.68517 3.85762 0
M  V30 6664 H 609.571 1.07648 3.86281 0
M  V30 6665 H 606.161 2.46507 3.50617 0
M  V30 6666 H 610.345 3.44343 3.57409 0
M  V30 6667 H 605.601 4.84864 3.72447 0
M  V30 6668 H 609.775 5.83269 3.80487 0
M  V30 6669 H 607.402 6.5397 3.87591 0
M  V30 6670 N 608.977 -1.30795 0.87923 0
M  V30 6671 C 609.91 -2.26396 0.286404 0
M  V30 6672 C 610.888 -1.51528 -0.589748 0
M  V30 6673 O 612.072 -1.80566 -0.541119 0
M  V30 6674 C 609.199 -3.33458 -0.593581 0
M  V30 6675 C 608.245 -4.2597 0.21247 0
M  V30 6676 S 609.078 -5.11132 1.59702 0
M  V30 6677 C 610.234 -6.21705 0.723408 0
M  V30 6678 H 610.467 -2.7633 1.09677 0
M  V30 6679 H 608 -1.38703 0.678305 0
M  V30 6680 H 609.958 -3.9561 -1.09557 0
M  V30 6681 H 608.619 -2.82259 -1.37799 0
M  V30 6682 H 607.812 -5.01907 -0.458822 0
M  V30 6683 H 607.414 -3.68363 0.646883 0
M  V30 6684 H 609.706 -6.77472 -0.0620739 0
M  V30 6685 H 610.649 -6.93007 1.4542 0
M  V30 6686 H 611.057 -5.63771 0.286855 0
M  V30 6687 N 610.455 -0.639598 -1.44038 0
M  V30 6688 C 611.365 0.0612377 -2.3452 0
M  V30 6689 C 612.381 0.826717 -1.53106 0
M  V30 6690 O 613.557 0.777059 -1.85806 0
M  V30 6691 C 610.622 1.02492 -3.31204 0
M  V30 6692 C 609.683 0.25788 -4.28525 0
M  V30 6693 C 608.916 1.17566 -5.2059 0
M  V30 6694 O 609.139 2.41461 -5.16771 0
M  V30 6695 O 608.073 0.655407 -5.98321 0
M  V30 6696 H 611.899 -0.68318 -2.95916 0
M  V30 6697 H 609.484 -0.399784 -1.43952 0
M  V30 6698 H 611.366 1.57911 -3.90694 0
M  V30 6699 H 610.041 1.7498 -2.7233 0
M  V30 6700 H 608.948 -0.339566 -3.72556 0
M  V30 6701 H 610.281 -0.427154 -4.90343 0
M  V30 6702 N 611.933 1.52934 -0.380664 0
M  V30 6703 C 612.843 2.29921 0.466192 0
M  V30 6704 C 613.859 1.36488 1.07922 0
M  V30 6705 O 615.035 1.69553 1.0869 0
M  V30 6706 C 612.1 3.08468 1.58266 0
M  V30 6707 C 611.161 4.17595 0.995627 0
M  V30 6708 C 610.394 4.92387 2.05889 0
M  V30 6709 O 610.617 4.67184 3.27254 0
M  V30 6710 O 609.551 5.77949 1.68102 0
M  V30 6711 H 613.377 3.03274 -0.160735 0
M  V30 6712 H 610.962 1.48698 -0.144617 0
M  V30 6713 H 612.844 3.57469 2.23145 0
M  V30 6714 H 611.519 2.37937 2.19471 0
M  V30 6715 H 610.426 3.72811 0.310332 0
M  V30 6716 H 611.759 4.90336 0.427918 0
M  V30 6717 N 613.412 0.11024 1.57214 0
M  V30 6718 C 614.322 -0.857077 2.18383 0
M  V30 6719 C 615.338 -1.29915 1.1575 0
M  V30 6720 O 616.514 -1.36394 1.48184 0
M  V30 6721 C 613.579 -2.09264 2.76423 0
M  V30 6722 C 612.64 -1.70333 3.94063 0
M  V30 6723 C 611.873 -2.87999 4.49324 0
M  V30 6724 O 612.096 -4.0317 4.03497 0
M  V30 6725 O 611.03 -2.6559 5.40135 0
M  V30 6726 H 614.856 -0.366561 3.0148 0
M  V30 6727 H 612.441 -0.114914 1.48957 0
M  V30 6728 H 614.323 -2.81644 3.13456 0
M  V30 6729 H 612.998 -2.57339 1.96363 0
M  V30 6730 H 611.905 -0.950864 3.61814 0
M  V30 6731 H 613.238 -1.27007 4.75531 0
M  V30 6732 N 614.89 -1.56749 -0.16351 0
M  V30 6733 C 616.13 -1.84234 -0.885271 0
M  V30 6734 C 616.494 -0.692259 -1.79086 0
M  V30 6735 O 617.695 -0.847747 -2.55082 0
M  V30 6736 C 615.966 -3.16857 -1.65337 0
M  V30 6737 S 617.525 -3.65848 -2.42282 0
M  V30 6738 H 614.343 -0.646293 -0.296354 0
M  V30 6739 H 616.945 -1.94951 -0.146365 0
M  V30 6740 H 615.649 -3.98546 -0.979266 0
M  V30 6741 H 615.18 -3.09102 -2.4335 0
M  V30 6742 H 617.195 -3.33796 -3.67143 0
M  V30 6743 N 616.368 0.432326 -1.51554 0
M  V30 6744 C 617.614 1.18309 -1.64714 0
M  V30 6745 C 617.947 1.90745 -0.364696 0
M  V30 6746 O 617.222 1.8381 0.635936 0
M  V30 6747 C 617.505 2.1961 -2.85383 0
M  V30 6748 C 617.358 1.51223 -4.23617 0
M  V30 6749 C 618.677 3.20538 -3.01569 0
M  V30 6750 H 615.796 0.428751 -0.599451 0
M  V30 6751 H 618.438 0.471689 -1.84052 0
M  V30 6752 H 616.588 2.8028 -2.69027 0
M  V30 6753 H 618.26 0.938516 -4.51652 0
M  V30 6754 H 616.503 0.814501 -4.26085 0
M  V30 6755 H 617.174 2.25024 -5.04052 0
M  V30 6756 H 619.65 2.69926 -3.16669 0
M  V30 6757 H 618.526 3.88706 -3.87555 0
M  V30 6758 H 618.787 3.86933 -2.13859 0
M  V30 6759 N 617.846 1.41785 0.688094 0
M  V30 6760 C 619.123 1.32031 1.44316 0
M  V30 6761 C 619.503 -0.0486079 2.11044 0
M  V30 6762 O 618.851 -1.06332 2.02252 0
M  V30 6763 C 619.061 2.47906 2.45649 0
M  V30 6764 C 620.409 2.89415 3.10683 0
M  V30 6765 O 621.433 2.477 2.55975 0
M  V30 6766 O 620.292 3.61573 4.09789 0
M  V30 6767 H 617.386 0.519994 0.643067 0
M  V30 6768 H 619.932 1.53765 0.71794 0
M  V30 6769 H 618.704 3.39222 1.95048 0
M  V30 6770 H 618.327 2.28089 3.25671 0
M  V30 6771 N 619.324 -0.923095 1.27737 0
M  V30 6772 C 620.552 -1.70525 1.17171 0
M  V30 6773 C 620.967 -1.86847 -0.270881 0
M  V30 6774 O 620.324 -1.38879 -1.18401 0
M  V30 6775 C 620.375 -3.10242 1.85559 0
M  V30 6776 O 620.096 -2.94683 3.24182 0
M  V30 6777 C 621.597 -4.04586 1.81176 0
M  V30 6778 H 618.817 -0.533347 0.407163 0
M  V30 6779 H 621.361 -1.15599 1.68692 0
M  V30 6780 H 619.516 -3.62014 1.3793 0
M  V30 6781 H 619.93 -3.83045 3.58297 0
M  V30 6782 H 621.404 -5.00119 2.33633 0
M  V30 6783 H 621.881 -4.3218 0.782099 0
M  V30 6784 H 622.487 -3.58741 2.2844 0
M  V30 6785 N 620.802 -1.09834 -1.13024 0
M  V30 6786 C 622.213 -0.855651 -1.65938 0
M  V30 6787 C 622.564 0.615159 -1.86307 0
M  V30 6788 O 621.689 1.47335 -1.58497 0
M  V30 6789 C 622.284 -1.5467 -3.01434 0
M  V30 6790 C 620.843 -1.35088 -3.51323 0
M  V30 6791 C 619.99 -1.6001 -2.26478 0
M  V30 6792 H 622.941 -1.25691 -0.968889 0
M  V30 6793 H 622.962 -0.982179 -3.67605 0
M  V30 6794 H 622.474 -2.61715 -2.86578 0
M  V30 6795 H 620.575 -0.30179 -3.71376 0
M  V30 6796 H 620.688 -2.0886 -4.31178 0
M  V30 6797 H 619.052 -1.02246 -2.33276 0
M  V30 6798 H 619.835 -2.68293 -2.14182 0
M  V30 6799 N 622.28 1.30327 -0.886154 0
M  V30 6800 C 623.227 2.28099 -0.352069 0
M  V30 6801 C 624.197 1.56433 0.558397 0
M  V30 6802 O 625.382 1.84492 0.486561 0
M  V30 6803 C 622.522 3.42456 0.426346 0
M  V30 6804 C 621.635 4.28938 -0.513472 0
M  V30 6805 C 620.77 5.30458 0.280657 0
M  V30 6806 C 619.809 6.0859 -0.654556 0
M  V30 6807 N 618.946 7.02022 0.104322 0
M  V30 6808 H 623.786 2.73166 -1.19097 0
M  V30 6809 H 621.323 1.34367 -0.598662 0
M  V30 6810 H 623.281 4.07518 0.893587 0
M  V30 6811 H 621.911 2.98455 1.22981 0
M  V30 6812 H 620.963 3.64173 -1.09921 0
M  V30 6813 H 622.275 4.83399 -1.2299 0
M  V30 6814 H 621.429 6.01273 0.8097 0
M  V30 6815 H 620.168 4.76693 1.03029 0
M  V30 6816 H 619.173 5.36651 -1.19522 0
M  V30 6817 H 620.398 6.64443 -1.4033 0
M  V30 6818 H 618.344 6.50645 0.836472 0
M  V30 6819 H 618.261 7.53979 -0.552453 0
M  V30 6820 H 619.529 7.77077 0.614069 0
M  V30 6821 N 623.758 0.647228 1.43697 0
M  V30 6822 C 625.004 0.158422 2.0218 0
M  V30 6823 C 625.337 -1.22233 1.50907 0
M  V30 6824 O 624.612 -1.81478 0.699702 0
M  V30 6825 C 624.895 0.1627 3.59732 0
M  V30 6826 C 624.748 1.57694 4.21251 0
M  V30 6827 C 626.067 -0.504138 4.37203 0
M  V30 6828 H 623.186 0.059042 0.734631 0
M  V30 6829 H 625.828 0.826772 1.71069 0
M  V30 6830 H 623.978 -0.406414 3.86368 0
M  V30 6831 H 625.65 2.19618 4.05667 0
M  V30 6832 H 623.893 2.12603 3.7813 0
M  V30 6833 H 624.564 1.53183 5.3032 0
M  V30 6834 H 627.04 -0.0199841 4.16095 0
M  V30 6835 H 625.916 -0.470394 5.46881 0
M  V30 6836 H 626.177 -1.57726 4.13007 0
M  V30 6837 N 625.236 -1.5273 0.388769 0
M  V30 6838 C 626.184 -2.27975 -0.461527 0
M  V30 6839 C 627.178 -1.31854 -1.06352 0
M  V30 6840 O 628.384 -1.49394 -1.00406 0
M  V30 6841 H 624.759 -0.733088 -0.16759 0
M  V30 6842 H 626.73 -2.97765 0.194579 0
M  V30 6843 C 625.479 -3.09881 -1.577 0
M  V30 6844 H 624.802 -3.83701 -1.12309 0
M  V30 6845 H 626.242 -3.6567 -2.14619 0
M  V30 6846 C 624.701 -2.22159 -2.53272 0
M  V30 6847 O 625.231 -1.84802 -3.56667 0
M  V30 6848 N 623.437 -1.8633 -2.23001 0
M  V30 6849 H 622.984 -2.16909 -1.38954 0
M  V30 6850 H 622.942 -1.27927 -2.87197 0
M  V30 6851 N 626.714 -0.118576 -1.57153 0
M  V30 6852 C 627.962 0.538461 -1.94795 0
M  V30 6853 C 628.283 1.67243 -1.00274 0
M  V30 6854 O 627.553 1.95811 -0.0589692 0
M  V30 6855 H 626.133 0.201904 -0.719197 0
M  V30 6856 H 628.795 -0.187418 -1.93997 0
M  V30 6857 H 627.891 0.933315 -2.97818 0
M  V30 6858 N 628.193 1.56834 0.155195 0
M  V30 6859 C 629.433 1.84701 0.875488 0
M  V30 6860 C 629.797 0.701747 1.78716 0
M  V30 6861 O 630.998 0.861263 2.54629 0
M  V30 6862 C 629.269 3.1773 1.63654 0
M  V30 6863 S 630.828 3.67128 2.40338 0
M  V30 6864 H 627.646 0.647856 0.292923 0
M  V30 6865 H 630.248 1.95026 0.136024 0
M  V30 6866 H 628.952 3.99059 0.958117 0
M  V30 6867 H 628.483 3.10388 2.41708 0
M  V30 6868 H 630.498 3.35739 3.65368 0
M  V30 6869 N 629.671 -0.424282 1.51781 0
M  V30 6870 C 630.601 -1.52305 1.7699 0
M  V30 6871 C 631.582 -1.5839 0.620209 0
M  V30 6872 O 632.767 -1.73908 0.864268 0
M  V30 6873 C 629.897 -2.90271 1.90683 0
M  V30 6874 C 628.851 -2.99043 3.06198 0
M  V30 6875 C 628.177 -4.39116 3.05092 0
M  V30 6876 C 629.477 -2.7192 4.45934 0
M  V30 6877 H 631.171 -1.31461 2.68995 0
M  V30 6878 H 628.717 -0.630985 1.29439 0
M  V30 6879 H 630.67 -3.6711 2.06901 0
M  V30 6880 H 629.394 -3.12376 0.953365 0
M  V30 6881 H 628.053 -2.24646 2.89706 0
M  V30 6882 H 627.701 -4.58207 2.07498 0
M  V30 6883 H 627.401 -4.45912 3.82669 0
M  V30 6884 H 628.925 -5.17911 3.2342 0
M  V30 6885 H 630.339 -3.38487 4.62709 0
M  V30 6886 H 628.736 -2.90111 5.25315 0
M  V30 6887 H 629.806 -1.67445 4.55072 0
M  V30 6888 N 631.149 -1.42148 -0.680565 0
M  V30 6889 C 632.079 -1.4796 -1.80638 0
M  V30 6890 C 633.06 -0.336728 -1.66734 0
M  V30 6891 O 634.245 -0.550247 -1.86242 0
M  V30 6892 C 631.375 -1.37569 -3.18892 0
M  V30 6893 C 630.329 -2.49823 -3.47524 0
M  V30 6894 C 629.655 -2.24491 -4.85291 0
M  V30 6895 C 630.955 -3.92144 -3.44994 0
M  V30 6896 H 632.649 -2.42184 -1.76032 0
M  V30 6897 H 630.195 -1.16566 -0.845481 0
M  V30 6898 H 632.148 -1.40243 -3.97379 0
M  V30 6899 H 630.872 -0.398357 -3.24162 0
M  V30 6900 H 629.531 -2.46455 -2.71395 0
M  V30 6901 H 629.179 -1.25066 -4.87204 0
M  V30 6902 H 628.879 -2.99722 -5.05411 0
M  V30 6903 H 630.403 -2.28906 -5.66069 0
M  V30 6904 H 631.817 -3.97145 -4.13459 0
M  V30 6905 H 630.214 -4.67179 -3.76648 0
M  V30 6906 H 631.284 -4.19225 -2.43676 0
M  V30 6907 N 632.627 0.916307 -1.28225 0
M  V30 6908 C 633.904 1.64429 -1.05936 0
M  V30 6909 C 634.284 2.07234 0.402139 0
M  V30 6910 O 633.632 1.81535 1.3877 0
M  V30 6911 C 633.842 2.83773 -2.03159 0
M  V30 6912 C 635.19 3.54852 -2.33164 0
M  V30 6913 O 636.214 2.93918 -2.01223 0
M  V30 6914 O 635.073 4.64663 -2.87664 0
M  V30 6915 H 632.167 0.721221 -0.404683 0
M  V30 6916 H 634.713 0.965838 -1.39534 0
M  V30 6917 H 633.485 2.49217 -3.01673 0
M  V30 6918 H 633.108 3.59333 -1.70192 0
M  V30 6919 N 634.105 1.10431 1.1244 0
M  V30 6920 C 635.516 0.864439 1.65482 0
M  V30 6921 C 635.867 -0.60527 1.8663 0
M  V30 6922 O 634.992 -1.46492 1.59276 0
M  V30 6923 C 635.587 1.56267 3.0061 0
M  V30 6924 C 634.146 1.3695 3.50602 0
M  V30 6925 C 633.293 1.61209 2.25626 0
M  V30 6926 H 636.244 1.26203 0.962209 0
M  V30 6927 H 636.265 1.00166 3.67079 0
M  V30 6928 H 635.777 2.63231 2.85186 0
M  V30 6929 H 633.878 0.321481 3.71211 0
M  V30 6930 H 633.991 2.11143 4.30064 0
M  V30 6931 H 632.355 1.03482 2.32731 0
M  V30 6932 H 633.138 2.69425 2.12756 0
M  V30 6933 N 635.583 -1.29855 0.893053 0
M  V30 6934 C 636.829 -1.96116 0.516349 0
M  V30 6935 C 637.162 -1.70281 -0.933695 0
M  V30 6936 O 636.437 -1.01205 -1.66096 0
M  V30 6937 C 636.72 -3.51068 0.801455 0
M  V30 6938 C 636.573 -3.86387 2.30272 0
M  V30 6939 C 637.892 -4.39186 0.283423 0
M  V30 6940 H 635.011 -0.712335 0.189072 0
M  V30 6941 H 637.653 -1.53587 1.11852 0
M  V30 6942 H 635.803 -3.87424 0.288949 0
M  V30 6943 H 637.475 -3.60012 2.88425 0
M  V30 6944 H 635.718 -3.34167 2.76613 0
M  V30 6945 H 636.389 -4.94512 2.45279 0
M  V30 6946 H 638.865 -4.09785 0.722187 0
M  V30 6947 H 637.741 -5.46505 0.512169 0
M  V30 6948 H 638.002 -4.34511 -0.815643 0
M  V30 6949 N 637.061 -0.65484 -1.43351 0
M  V30 6950 C 638.472 -0.248506 -1.85039 0
M  V30 6951 C 638.823 1.20526 -1.54816 0
M  V30 6952 O 637.948 1.92016 -0.99794 0
M  V30 6953 C 638.543 -0.444241 -3.35875 0
M  V30 6954 C 637.102 -0.0922108 -3.76287 0
M  V30 6955 C 636.249 -0.746327 -2.67068 0
M  V30 6956 H 639.2 -0.8584 -1.33481 0
M  V30 6957 H 639.221 0.309762 -3.79237 0
M  V30 6958 H 638.733 -1.50239 -3.5784 0
M  V30 6959 H 636.834 0.96328 -3.59933 0
M  V30 6960 H 636.947 -0.518807 -4.76283 0
M  V30 6961 H 635.311 -0.179416 -2.54067 0
M  V30 6962 H 636.094 -1.80754 -2.91861 0
M  V30 6963 N 638.539 1.52521 -0.396863 0
M  V30 6964 C 639.95 1.86547 0.0754868 0
M  V30 6965 C 640.301 1.31621 1.45501 0
M  V30 6966 O 639.426 0.650563 2.0639 0
M  V30 6967 C 640.021 3.38495 0.143754 0
M  V30 6968 C 638.58 3.72205 0.560413 0
M  V30 6969 C 637.727 2.75954 -0.272856 0
M  V30 6970 H 640.678 1.46323 -0.614434 0
M  V30 6971 H 640.699 3.68153 0.961425 0
M  V30 6972 H 640.211 3.78442 -0.860415 0
M  V30 6973 H 638.312 3.3783 1.57167 0
M  V30 6974 H 638.425 4.78074 0.313314 0
M  V30 6975 H 636.789 2.53339 0.263 0
M  V30 6976 H 637.572 3.1874 -1.27515 0
M  V30 6977 N 640.017 0.126909 1.57088 0
M  V30 6978 C 641.263 -0.529952 1.95753 0
M  V30 6979 C 641.596 -1.65823 1.01077 0
M  V30 6980 O 640.871 -1.94437 0.0494162 0
M  V30 6981 C 641.154 -1.05517 3.44294 0
M  V30 6982 C 641.007 0.0702253 4.49745 0
M  V30 6983 C 642.326 -1.9435 3.94862 0
M  V30 6984 H 639.445 -0.191168 0.711775 0
M  V30 6985 H 642.087 0.204071 1.88901 0
M  V30 6986 H 640.237 -1.68069 3.50264 0
M  V30 6987 H 641.909 0.705834 4.55868 0
M  V30 6988 H 640.152 0.732259 4.27575 0
M  V30 6989 H 640.823 -0.338642 5.5096 0
M  V30 6990 H 643.299 -1.41658 3.91244 0
M  V30 6991 H 642.175 -2.28015 4.993 0
M  V30 6992 H 642.436 -2.87299 3.36024 0
M  V30 6993 N 641.495 -1.56914 -0.146875 0
M  V30 6994 C 642.425 -2.01308 -1.1831 0
M  V30 6995 C 643.406 -0.892664 -1.44795 0
M  V30 6996 O 644.591 -1.16048 -1.55713 0
M  V30 6997 C 641.721 -2.3938 -2.51624 0
M  V30 6998 C 640.675 -3.54608 -2.3966 0
M  V30 6999 C 640.001 -3.78493 -3.77686 0
M  V30 7000 C 641.301 -4.87269 -1.88058 0
M  V30 7001 H 642.995 -2.88123 -0.813964 0
M  V30 7002 H 640.541 -1.38615 -0.3901 0
M  V30 7003 H 642.494 -2.69037 -3.24341 0
M  V30 7004 H 641.218 -1.49502 -2.90373 0
M  V30 7005 H 639.877 -3.25116 -1.69396 0
M  V30 7006 H 639.525 -2.85866 -4.13871 0
M  V30 7007 H 639.225 -4.56039 -3.70543 0
M  V30 7008 H 640.749 -4.10576 -4.51951 0
M  V30 7009 H 642.163 -5.15644 -2.50568 0
M  V30 7010 H 640.56 -5.68622 -1.91805 0
M  V30 7011 H 641.63 -4.77634 -0.836277 0
M  V30 7012 N 642.974 0.416227 -1.52004 0
M  V30 7013 C 644.22 1.16555 -1.6596 0
M  V30 7014 C 644.553 1.90347 -0.384906 0
M  V30 7015 O 643.828 1.84474 0.616405 0
M  V30 7016 C 644.111 2.1657 -2.87696 0
M  V30 7017 C 643.964 1.46722 -4.25197 0
M  V30 7018 C 645.283 3.17321 -3.04951 0
M  V30 7019 H 642.402 0.422369 -0.603965 0
M  V30 7020 H 645.044 0.452141 -1.84542 0
M  V30 7021 H 643.194 2.77411 -2.71985 0
M  V30 7022 H 644.866 0.89056 -4.52622 0
M  V30 7023 H 643.109 0.769263 -4.26925 0
M  V30 7024 H 643.78 2.19665 -5.0641 0
M  V30 7025 H 646.256 2.66552 -3.19514 0
M  V30 7026 H 645.132 3.84573 -3.91656 0
M  V30 7027 H 645.393 3.84643 -2.17951 0
M  V30 7028 N 644.452 1.42507 0.673017 0
M  V30 7029 C 645.868 1.25472 0.986355 0
M  V30 7030 C 646.068 0.160181 2.00862 0
M  V30 7031 O 645.124 -0.467993 2.48125 0
M  V30 7032 C 646.437 2.61219 1.48947 0
M  V30 7033 C 647.985 2.68589 1.60715 0
M  V30 7034 C 648.46 4.04707 2.14422 0
M  V30 7035 N 649.951 4.0667 2.21752 0
M  V30 7036 C 650.686 5.0881 2.64386 0
M  V30 7037 N 650.182 6.21332 3.0646 0
M  V30 7038 N 651.975 4.96166 2.64151 0
M  V30 7039 H 644.126 2.124 -0.00378532 0
M  V30 7040 H 646.389 0.946046 0.0608367 0
M  V30 7041 H 646.095 3.42179 0.812812 0
M  V30 7042 H 645.969 2.85261 2.46791 0
M  V30 7043 H 648.356 1.87974 2.27486 0
M  V30 7044 H 648.437 2.48333 0.613552 0
M  V30 7045 H 648.081 4.8578 1.48258 0
M  V30 7046 H 648.011 4.22315 3.14575 0
M  V30 7047 H 650.502 3.25438 1.92089 0
M  V30 7048 H 650.815 6.95118 3.37684 0
M  V30 7049 H 649.16 6.24835 3.04313 0
M  V30 7050 H 652.351 4.07334 2.30644 0
M  V30 7051 H 652.524 5.759 2.97057 0
M  V30 7052 N 645.93 -0.909495 1.28709 0
M  V30 7053 C 646.877 -2.01245 1.13 0
M  V30 7054 C 647.847 -1.6608 0.0259684 0
M  V30 7055 O 649.032 -1.89835 0.191687 0
M  V30 7056 C 646.172 -3.35644 0.802315 0
M  V30 7057 C 645.285 -3.83653 1.98582 0
M  V30 7058 C 644.42 -5.06582 1.59837 0
M  V30 7059 C 643.459 -5.46934 2.74827 0
M  V30 7060 N 642.596 -6.61053 2.36546 0
M  V30 7061 H 647.436 -2.14013 2.0737 0
M  V30 7062 H 644.973 -1.0482 1.03205 0
M  V30 7063 H 646.931 -4.12963 0.593057 0
M  V30 7064 H 645.561 -3.22631 -0.104457 0
M  V30 7065 H 644.613 -3.02454 2.30708 0
M  V30 7066 H 645.925 -4.09515 2.84779 0
M  V30 7067 H 645.079 -5.91457 1.35143 0
M  V30 7068 H 643.818 -4.82537 0.707753 0
M  V30 7069 H 642.823 -4.60599 3.00215 0
M  V30 7070 H 644.048 -5.72965 3.64538 0
M  V30 7071 H 641.994 -6.3863 1.49959 0
M  V30 7072 H 641.911 -6.86662 3.16277 0
M  V30 7073 H 643.179 -7.49221 2.15146 0
M  V30 7074 N 647.408 -1.11026 -1.11852 0
M  V30 7075 C 648.656 -0.854769 -1.83134 0
M  V30 7076 C 648.977 0.621375 -1.84835 0
M  V30 7077 O 648.247 1.45129 -1.31584 0
M  V30 7078 H 646.827 -0.313229 -0.678157 0
M  V30 7079 H 649.489 -1.40178 -1.35411 0
M  V30 7080 H 648.585 -1.22311 -2.87135 0
M  V30 7081 N 648.886 1.2938 -0.899927 0
M  V30 7082 C 650.126 1.97332 -0.532871 0
M  V30 7083 C 650.49 1.69385 0.904029 0
M  V30 7084 O 651.691 2.30793 1.37797 0
M  V30 7085 C 649.962 3.47927 -0.817393 0
M  V30 7086 S 651.521 4.3528 -0.55468 0
M  V30 7087 H 648.339 0.682966 -0.197683 0
M  V30 7088 H 650.941 1.57189 -1.16241 0
M  V30 7089 H 649.645 3.65761 -1.86138 0
M  V30 7090 H 649.176 3.93006 -0.175978 0
M  V30 7091 H 651.191 4.92557 0.600182 0
M  V30 7092 N 650.364 0.662433 1.43002 0
M  V30 7093 C 651.296 -0.062326 2.29115 0
M  V30 7094 C 652.309 -0.777926 1.43011 0
M  V30 7095 O 653.498 -0.634146 1.66856 0
M  V30 7096 C 650.598 -1.11163 3.2015 0
M  V30 7097 C 649.771 -0.472327 4.34842 0
M  V30 7098 C 648.83 -1.41974 5.06685 0
M  V30 7099 O 647.856 -0.924795 5.61637 0
M  V30 7100 N 649.058 -2.75345 5.11043 0
M  V30 7101 H 651.823 0.676838 2.91957 0
M  V30 7102 H 649.384 0.505907 1.53793 0
M  V30 7103 H 651.376 -1.74643 3.65078 0
M  V30 7104 H 649.946 -1.75266 2.58845 0
M  V30 7105 H 649.166 0.341751 3.92716 0
M  V30 7106 H 650.454 -0.0264381 5.08793 0
M  V30 7107 H 649.852 -3.18108 4.67786 0
M  V30 7108 H 648.409 -3.34105 5.59658 0
M  V30 7109 N 651.842 -1.52309 0.404946 0
M  V30 7110 C 653.067 -2.06666 -0.1743 0
M  V30 7111 C 653.492 -1.27341 -1.38441 0
M  V30 7112 O 652.85 -0.302539 -1.78758 0
M  V30 7113 C 652.898 -3.57014 -0.507262 0
M  V30 7114 O 652.002 -3.80144 -1.59889 0
M  V30 7115 H 651.343 -0.663807 -0.0160273 0
M  V30 7116 H 653.873 -1.96297 0.576937 0
M  V30 7117 H 653.883 -4.00724 -0.767098 0
M  V30 7118 H 652.558 -4.14184 0.377368 0
M  V30 7119 H 651.135 -3.48316 -1.33155 0
M  V30 7120 N 653.32 -0.135238 -1.57019 0
M  V30 7121 C 654.25 0.805235 -2.19176 0
M  V30 7122 C 655.231 1.2656 -1.13651 0
M  V30 7123 O 656.416 1.32528 -1.4195 0
M  V30 7124 C 653.546 2.04914 -2.80406 0
M  V30 7125 C 652.5 1.72598 -3.91655 0
M  V30 7126 C 651.826 3.04154 -4.39766 0
M  V30 7127 C 653.126 0.981709 -5.12991 0
M  V30 7128 H 654.82 0.287232 -2.98019 0
M  V30 7129 H 652.366 0.136714 -1.4335 0
M  V30 7130 H 654.319 2.71178 -3.22553 0
M  V30 7131 H 653.043 2.59067 -1.98877 0
M  V30 7132 H 651.702 1.08717 -3.50109 0
M  V30 7133 H 651.35 3.56274 -3.55075 0
M  V30 7134 H 651.05 2.83299 -5.14796 0
M  V30 7135 H 652.574 3.71509 -4.84576 0
M  V30 7136 H 653.988 1.5462 -5.52056 0
M  V30 7137 H 652.385 0.873533 -5.93708 0
M  V30 7138 H 653.455 -0.0286887 -4.84892 0
M  V30 7139 N 654.798 1.5699 0.138552 0
M  V30 7140 C 656.209 1.73171 0.697754 0
M  V30 7141 C 656.56 0.750952 1.8126 0
M  V30 7142 O 655.685 -0.080549 2.1625 0
M  V30 7143 C 656.28 3.13996 1.27248 0
M  V30 7144 C 654.839 3.3175 1.77816 0
M  V30 7145 C 653.986 2.69084 0.669991 0
M  V30 7146 H 656.937 1.5846 -0.0871979 0
M  V30 7147 H 656.958 3.14463 2.14227 0
M  V30 7148 H 656.47 3.85354 0.460855 0
M  V30 7149 H 654.571 2.65403 2.61519 0
M  V30 7150 H 654.684 4.39768 1.90107 0
M  V30 7151 H 653.048 2.29782 1.09874 0
M  V30 7152 H 653.831 3.43053 -0.130329 0
M  V30 7153 N 656.276 -0.40816 1.52223 0
M  V30 7154 C 657.501 -1.18127 1.70472 0
M  V30 7155 C 657.926 -1.83491 0.41384 0
M  V30 7156 O 657.284 -1.70047 -0.628778 0
M  V30 7157 C 657.332 -2.21935 2.84213 0
M  V30 7158 O 656.436 -3.28099 2.4985 0
M  V30 7159 H 655.777 -0.344781 0.56747 0
M  V30 7160 H 658.307 -0.478328 1.9893 0
M  V30 7161 H 658.317 -2.66248 3.09153 0
M  V30 7162 H 656.992 -1.73744 3.7787 0
M  V30 7163 H 655.569 -2.89058 2.35584 0
M  V30 7164 N 657.755 -1.42862 -0.66545 0
M  V30 7165 C 658.703 -1.47319 -1.8 0
M  V30 7166 C 659.697 -0.347963 -1.65788 0
M  V30 7167 O 660.903 -0.521406 -1.72283 0
M  V30 7168 H 657.278 -0.461588 -0.593667 0
M  V30 7169 H 659.249 -2.42876 -1.7336 0
M  V30 7170 C 657.998 -1.40152 -3.18203 0
M  V30 7171 H 657.321 -2.26035 -3.2977 0
M  V30 7172 H 658.761 -1.47331 -3.9758 0
M  V30 7173 C 657.22 -0.117493 -3.36695 0
M  V30 7174 O 657.75 0.826058 -3.93115 0
M  V30 7175 N 655.956 -0.0316218 -2.90583 0
M  V30 7176 H 655.503 -0.800247 -2.44855 0
M  V30 7177 H 655.461 0.826835 -3.03333 0
M  V30 7178 N 659.233 0.902656 -1.29189 0
M  V30 7179 C 660.166 2.00816 -1.0839 0
M  V30 7180 C 661.144 1.626 0.00335266 0
M  V30 7181 O 662.328 1.87928 -0.146765 0
M  V30 7182 C 659.455 3.32415 -0.649435 0
M  V30 7183 C 658.501 3.89617 -1.73496 0
M  V30 7184 S 659.334 4.19091 -3.33351 0
M  V30 7185 C 660.49 5.53736 -2.91766 0
M  V30 7186 H 660.723 2.18151 -2.01984 0
M  V30 7187 H 658.256 1.0489 -1.13303 0
M  V30 7188 H 660.214 4.08492 -0.405479 0
M  V30 7189 H 658.875 3.12964 0.266857 0
M  V30 7190 H 658.068 4.84658 -1.38284 0
M  V30 7191 H 657.67 3.20217 -1.93229 0
M  V30 7192 H 659.962 6.34085 -2.38627 0
M  V30 7193 H 660.905 5.93871 -3.85647 0
M  V30 7194 H 661.313 5.15453 -2.30149 0
M  V30 7195 N 660.711 1.11618 1.11262 0
M  V30 7196 C 661.644 0.719995 2.16544 0
M  V30 7197 C 662.622 -0.28471 1.60088 0
M  V30 7198 O 663.806 -0.180693 1.87632 0
M  V30 7199 C 660.933 0.0643302 3.38639 0
M  V30 7200 C 659.979 1.03448 4.13764 0
M  V30 7201 S 660.812 2.55789 4.70459 0
M  V30 7202 C 661.968 1.91529 5.95875 0
M  V30 7203 H 662.201 1.61181 2.49816 0
M  V30 7204 H 659.734 0.934401 1.22916 0
M  V30 7205 H 661.692 -0.307609 4.09346 0
M  V30 7206 H 660.353 -0.804471 3.03623 0
M  V30 7207 H 659.546 0.523188 5.01277 0
M  V30 7208 H 659.148 1.34893 3.48826 0
M  V30 7209 H 661.44 1.25286 6.65815 0
M  V30 7210 H 662.383 2.77047 6.51652 0
M  V30 7211 H 662.791 1.37468 5.47506 0
M  V30 7212 N 662.189 -1.289 0.906776 0
M  V30 7213 C 663.099 -2.31256 0.394707 0
M  V30 7214 C 664.115 -1.66231 -0.514121 0
M  V30 7215 O 665.291 -1.97347 -0.401994 0
M  V30 7216 C 662.356 -3.44792 -0.363191 0
M  V30 7217 C 661.417 -4.25391 0.578012 0
M  V30 7218 C 660.65 -5.33506 -0.143811 0
M  V30 7219 O 660.873 -5.53786 -1.36665 0
M  V30 7220 O 659.807 -5.99673 0.5173 0
M  V30 7221 H 663.633 -2.77051 1.24405 0
M  V30 7222 H 661.218 -1.33466 0.671346 0
M  V30 7223 H 663.1 -4.139 -0.791503 0
M  V30 7224 H 661.775 -3.01093 -1.18848 0
M  V30 7225 H 660.682 -3.58899 1.05558 0
M  V30 7226 H 662.015 -4.72752 1.36992 0
M  V30 7227 N 663.667 -0.670007 -1.42649 0
M  V30 7228 C 664.895 -0.19854 -2.05945 0
M  V30 7229 C 665.31 1.14243 -1.50313 0
M  V30 7230 O 664.667 1.70872 -0.641027 0
M  V30 7231 C 664.718 -0.11966 -3.61302 0
M  V30 7232 O 664.439 -1.40764 -4.1487 0
M  V30 7233 C 665.94 0.375878 -4.41704 0
M  V30 7234 H 663.16 -0.0976894 -0.663851 0
M  V30 7235 H 665.704 -0.915392 -1.82868 0
M  V30 7236 H 663.859 0.547851 -3.83507 0
M  V30 7237 H 664.273 -1.27784 -5.08696 0
M  V30 7238 H 665.747 0.379988 -5.50691 0
M  V30 7239 H 666.224 1.41028 -4.15942 0
M  V30 7240 H 666.83 -0.259727 -4.24506 0
M  V30 7241 N 665.145 1.52092 -0.413018 0
M  V30 7242 C 666.37 2.06756 0.163338 0
M  V30 7243 C 666.795 1.28073 1.37764 0
M  V30 7244 O 666.153 0.312015 1.78595 0
M  V30 7245 C 666.201 3.57278 0.488322 0
M  V30 7246 O 665.305 3.80986 1.57871 0
M  V30 7247 H 664.646 0.663882 0.0125068 0
M  V30 7248 H 667.176 1.95988 -0.587339 0
M  V30 7249 H 667.186 4.01125 0.745836 0
M  V30 7250 H 665.861 4.13978 -0.399327 0
M  V30 7251 H 664.438 3.49017 1.31306 0
M  V30 7252 N 666.623 0.143563 1.56945 0
M  V30 7253 C 667.872 -0.50835 1.95189 0
M  V30 7254 C 668.185 -1.66239 1.03073 0
M  V30 7255 O 669.391 -2.3787 1.30882 0
M  V30 7256 C 667.847 -0.955735 3.46978 0
M  V30 7257 C 667.455 0.171183 4.47673 0
M  V30 7258 C 669.199 -1.57763 3.94095 0
M  V30 7259 C 667.106 -0.294279 5.90667 0
M  V30 7260 H 666.036 -0.193679 0.728701 0
M  V30 7261 H 668.687 0.227357 1.82086 0
M  V30 7262 H 667.069 -1.7466 3.55401 0
M  V30 7263 H 668.243 0.948049 4.50942 0
M  V30 7264 H 666.558 0.701273 4.10452 0
M  V30 7265 H 669.155 -1.93745 4.98364 0
M  V30 7266 H 669.498 -2.46531 3.35452 0
M  V30 7267 H 670.031 -0.851728 3.88575 0
M  V30 7268 H 666.77 0.557939 6.53121 0
M  V30 7269 H 666.29 -1.0371 5.90766 0
M  V30 7270 H 667.969 -0.747426 6.42668 0
M  V30 7271 N 668.101 -1.57061 -0.130224 0
M  V30 7272 C 669.378 -1.75205 -0.869631 0
M  V30 7273 C 669.758 -0.716063 -1.98584 0
M  V30 7274 O 669.106 0.262032 -2.26993 0
M  V30 7275 C 669.316 -3.19835 -1.39666 0
M  V30 7276 C 670.664 -3.82011 -1.85345 0
M  V30 7277 O 671.688 -3.23368 -1.49371 0
M  V30 7278 O 670.547 -4.85064 -2.51744 0
M  V30 7279 H 667.641 -0.716977 -0.412157 0
M  V30 7280 H 670.187 -1.69311 -0.11484 0
M  V30 7281 H 668.959 -3.86745 -0.595288 0
M  V30 7282 H 668.582 -3.30222 -2.21448 0
M  V30 7283 N 669.579 0.400081 -1.52437 0
M  V30 7284 C 670.489 1.51253 -1.79331 0
M  V30 7285 C 671.505 1.60188 -0.679396 0
M  V30 7286 O 672.681 1.76733 -0.965791 0
M  V30 7287 C 669.746 2.869 -1.94652 0
M  V30 7288 C 668.807 2.87777 -3.18564 0
M  V30 7289 C 668.04 4.16954 -3.33145 0
M  V30 7290 O 668.263 5.11329 -2.52783 0
M  V30 7291 O 667.197 4.2487 -4.26343 0
M  V30 7292 H 671.023 1.31461 -2.73773 0
M  V30 7293 H 668.608 0.586834 -1.37392 0
M  V30 7294 H 670.49 3.67336 -2.065 0
M  V30 7295 H 669.165 3.06741 -1.034 0
M  V30 7296 H 668.072 2.06162 -3.12167 0
M  V30 7297 H 669.405 2.72886 -4.09627 0
M  V30 7298 N 671.057 1.43213 0.657864 0
M  V30 7299 C 672.305 1.44298 1.41501 0
M  V30 7300 C 672.626 0.0666478 1.94886 0
M  V30 7301 O 671.896 -0.897345 1.74139 0
M  V30 7302 H 670.476 0.531257 0.525143 0
M  V30 7303 H 673.138 1.78777 0.776195 0
M  V30 7304 H 672.234 2.1528 2.25966 0
M  V30 7305 N 672.536 -0.895792 1.29666 0
M  V30 7306 C 673.466 -2.01673 1.17688 0
M  V30 7307 C 674.447 -1.69955 0.0701317 0
M  V30 7308 O 675.632 -1.9258 0.250289 0
M  V30 7309 C 672.762 -3.36568 0.856681 0
M  V30 7310 C 671.716 -3.82509 1.92017 0
M  V30 7311 C 671.042 -5.14574 1.4532 0
M  V30 7312 C 672.342 -4.02409 3.32963 0
M  V30 7313 H 674.036 -2.11953 2.11463 0
M  V30 7314 H 671.582 -1.01839 1.01807 0
M  V30 7315 H 673.535 -4.14498 0.759577 0
M  V30 7316 H 672.259 -3.26391 -0.116763 0
M  V30 7317 H 670.918 -3.068 2.00673 0
M  V30 7318 H 670.566 -5.00815 0.468325 0
M  V30 7319 H 670.266 -5.46283 2.16447 0
M  V30 7320 H 671.79 -5.9504 1.36968 0
M  V30 7321 H 673.204 -4.70808 3.27127 0
M  V30 7322 H 671.601 -4.45478 4.02082 0
M  V30 7323 H 672.671 -3.06616 3.75652 0
M  V30 7324 N 674.014 -1.12206 -1.10668 0
M  V30 7325 C 674.924 -0.800686 -2.20513 0
M  V30 7326 C 675.94 0.209512 -1.72734 0
M  V30 7327 O 677.116 0.043705 -2.01353 0
M  V30 7328 C 674.181 -0.257353 -3.45744 0
M  V30 7329 C 673.242 -1.32718 -4.0827 0
M  V30 7330 C 672.475 -0.809674 -5.27522 0
M  V30 7331 O 672.698 0.35742 -5.69279 0
M  V30 7332 O 671.632 -1.57816 -5.80842 0
M  V30 7333 H 675.458 -1.71807 -2.50432 0
M  V30 7334 H 673.043 -0.898546 -1.19359 0
M  V30 7335 H 674.925 0.0408849 -4.2138 0
M  V30 7336 H 673.6 0.632627 -3.17458 0
M  V30 7337 H 672.507 -1.67855 -3.34329 0
M  V30 7338 H 673.84 -2.19083 -4.40753 0
M  V30 7339 N 675.492 1.28418 -0.913599 0
M  V30 7340 C 676.72 1.99106 -0.562536 0
M  V30 7341 C 677.135 1.68273 0.856137 0
M  V30 7342 O 676.492 0.935401 1.56705 0
M  V30 7343 C 676.543 3.5338 -0.761903 0
M  V30 7344 O 676.264 3.83127 -2.12475 0
M  V30 7345 C 677.765 4.41328 -0.417651 0
M  V30 7346 H 674.985 0.635798 -0.214481 0
M  V30 7347 H 677.529 1.63618 -1.22676 0
M  V30 7348 H 675.684 3.8713 -0.144676 0
M  V30 7349 H 676.098 4.77763 -2.16431 0
M  V30 7350 H 677.572 5.48642 -0.607919 0
M  V30 7351 H 678.049 4.34422 0.646108 0
M  V30 7352 H 678.655 4.13074 -1.01241 0
M  V30 7353 N 676.97 0.677563 1.42291 0
M  V30 7354 C 677.88 0.000962654 2.346 0
M  V30 7355 C 678.896 -0.785833 1.55244 0
M  V30 7356 O 680.072 -0.727523 1.87801 0
M  V30 7357 C 677.137 -0.936746 3.33805 0
M  V30 7358 C 676.198 -0.144173 4.29058 0
M  V30 7359 C 675.431 -1.03722 5.23524 0
M  V30 7360 O 675.654 -2.27675 5.22992 0
M  V30 7361 O 674.588 -0.496542 5.99848 0
M  V30 7362 H 678.414 0.761397 2.94001 0
M  V30 7363 H 675.999 0.43781 1.42841 0
M  V30 7364 H 677.881 -1.47497 3.94744 0
M  V30 7365 H 676.556 -1.67698 2.76874 0
M  V30 7366 H 675.463 0.438224 3.71524 0
M  V30 7367 H 676.796 0.55701 4.89038 0
M  V30 7368 N 678.448 -1.51871 0.421078 0
M  V30 7369 C 679.696 -2.01539 -0.150492 0
M  V30 7370 C 680.017 -1.30803 -1.44623 0
M  V30 7371 O 679.287 -0.437568 -1.90951 0
M  V30 7372 H 677.867 -0.744698 -0.0586041 0
M  V30 7373 H 680.529 -1.8668 0.560059 0
M  V30 7374 H 679.625 -3.10264 -0.338068 0
M  V30 7375 N 679.926 -0.151884 -1.56866 0
M  V30 7376 C 680.836 0.798876 -2.20579 0
M  V30 7377 C 681.852 1.268 -1.19154 0
M  V30 7378 O 683.028 1.32418 -1.51748 0
M  V30 7379 C 680.093 2.01861 -2.81874 0
M  V30 7380 C 679.154 1.59825 -3.9844 0
M  V30 7381 C 678.387 2.75984 -4.56802 0
M  V30 7382 O 678.61 3.92331 -4.14044 0
M  V30 7383 O 677.544 2.51175 -5.46987 0
M  V30 7384 H 681.37 0.2865 -3.02346 0
M  V30 7385 H 678.955 0.0753806 -1.4921 0
M  V30 7386 H 680.837 2.73235 -3.20813 0
M  V30 7387 H 679.512 2.52042 -2.03117 0
M  V30 7388 H 678.419 0.854601 -3.64208 0
M  V30 7389 H 679.752 1.14355 -4.78731 0
M  V30 7390 N 681.404 1.57128 0.121893 0
M  V30 7391 C 682.367 1.99197 1.13372 0
M  V30 7392 C 683.367 0.881728 1.3447 0
M  V30 7393 O 684.557 1.14783 1.31036 0
M  V30 7394 C 681.689 2.32963 2.4888 0
M  V30 7395 H 682.882 2.89788 0.772204 0
M  V30 7396 H 680.435 1.51952 0.366093 0
M  V30 7397 H 681.17 1.45243 2.89957 0
M  V30 7398 H 680.955 3.13934 2.34921 0
M  V30 7399 H 682.445 2.66261 3.21706 0
M  V30 7400 N 682.882 -0.391992 1.52647 0
M  V30 7401 C 683.792 -1.503 1.80131 0
M  V30 7402 C 684.808 -1.59825 0.687882 0
M  V30 7403 O 685.984 -1.76218 0.975149 0
M  V30 7404 C 683.049 -2.85863 1.96171 0
M  V30 7405 C 682.11 -2.86084 3.20085 0
M  V30 7406 C 681.343 -4.15181 3.35351 0
M  V30 7407 O 681.566 -5.09981 2.55491 0
M  V30 7408 O 680.5 -4.22603 4.28591 0
M  V30 7409 H 684.326 -1.30007 2.74466 0
M  V30 7410 H 681.911 -0.579539 1.37701 0
M  V30 7411 H 683.793 -3.66236 2.08445 0
M  V30 7412 H 682.468 -3.06189 1.05025 0
M  V30 7413 H 681.375 -2.04504 3.13256 0
M  V30 7414 H 682.708 -2.7071 4.11068 0
M  V30 7415 N 684.36 -1.4356 -0.65026 0
M  V30 7416 C 685.27 -1.514 -1.79207 0
M  V30 7417 C 686.286 -0.400895 -1.69319 0
M  V30 7418 O 687.462 -0.655458 -1.90436 0
M  V30 7419 C 684.527 -1.43737 -3.155 0
M  V30 7420 C 683.588 -2.65743 -3.37163 0
M  V30 7421 C 682.821 -2.58436 -4.66954 0
M  V30 7422 O 683.044 -1.63374 -5.46503 0
M  V30 7423 O 681.978 -3.48984 -4.90402 0
M  V30 7424 H 685.804 -2.47825 -1.75547 0
M  V30 7425 H 683.389 -1.25594 -0.809111 0
M  V30 7426 H 685.271 -1.41916 -3.96784 0
M  V30 7427 H 683.946 -0.504488 -3.19745 0
M  V30 7428 H 682.853 -2.73136 -2.55632 0
M  V30 7429 H 684.186 -3.58014 -3.37768 0
M  V30 7430 N 685.838 0.888903 -1.30139 0
M  V30 7431 C 687.115 1.62145 -1.094 0
M  V30 7432 C 687.495 2.08041 0.358091 0
M  V30 7433 O 686.843 1.84438 1.34888 0
M  V30 7434 C 687.053 2.794 -2.09133 0
M  V30 7435 C 688.401 3.49826 -2.40638 0
M  V30 7436 O 689.425 2.89583 -2.07412 0
M  V30 7437 O 688.284 4.58457 -2.97455 0
M  V30 7438 H 685.378 0.712475 -0.41989 0
M  V30 7439 H 687.924 0.936023 -1.41551 0
M  V30 7440 H 686.696 2.42762 -3.06891 0
M  V30 7441 H 686.319 3.55643 -1.77776 0
M  V30 7442 N 687.317 1.12792 1.10072 0
M  V30 7443 C 688.728 0.899346 1.63611 0
M  V30 7444 C 689.079 -0.565547 1.87872 0
M  V30 7445 O 688.204 -1.43081 1.62348 0
M  V30 7446 C 688.799 1.62608 2.97227 0
M  V30 7447 C 687.358 1.44356 3.47618 0
M  V30 7448 C 686.505 1.65958 2.22156 0
M  V30 7449 H 689.456 1.28216 0.935223 0
M  V30 7450 H 689.477 1.0793 3.64872 0
M  V30 7451 H 688.989 2.69221 2.79538 0
M  V30 7452 H 687.09 0.400148 3.70445 0
M  V30 7453 H 687.203 2.20218 4.25489 0
M  V30 7454 H 685.567 1.08395 2.30484 0
M  V30 7455 H 686.35 2.73877 2.06993 0
M  V30 7456 N 688.795 -1.27931 0.920396 0
M  V30 7457 C 689.758 -2.25345 0.41858 0
M  V30 7458 C 690.758 -1.54116 -0.458798 0
M  V30 7459 O 691.948 -1.72235 -0.260912 0
M  V30 7460 C 689.08 -3.38556 -0.399104 0
M  V30 7461 H 690.273 -2.71251 1.27918 0
M  V30 7462 H 687.826 -1.39728 0.700406 0
M  V30 7463 H 688.561 -2.98021 -1.27882 0
M  V30 7464 H 688.346 -3.91426 0.229863 0
M  V30 7465 H 689.836 -4.10976 -0.740817 0
M  V30 7466 N 690.273 -0.685099 -1.4193 0
M  V30 7467 C 691.223 0.00977295 -2.27998 0
M  V30 7468 C 692.207 0.763315 -1.41641 0
M  V30 7469 O 693.399 0.640532 -1.65004 0
M  V30 7470 C 690.528 0.952972 -3.29808 0
M  V30 7471 C 689.614 0.196231 -4.23646 0
M  V30 7472 N 690.005 -0.804401 -4.99363 0
M  V30 7473 C 688.303 0.433213 -4.43891 0
M  V30 7474 C 689.004 -1.25646 -5.67968 0
M  V30 7475 N 687.98 -0.5844 -5.4045 0
M  V30 7476 H 691.782 -0.757586 -2.83968 0
M  V30 7477 H 689.296 -0.515037 -1.54017 0
M  V30 7478 H 691.293 1.46585 -3.9028 0
M  V30 7479 H 689.953 1.72004 -2.75399 0
M  V30 7480 H 690.964 -1.18429 -5.04177 0
M  V30 7481 H 687.641 1.17899 -4.00507 0
M  V30 7482 H 689.031 -2.08622 -6.38691 0
M  V30 7483 N 691.751 1.51645 -0.429126 0
M  V30 7484 C 692.714 2.26116 0.374726 0
M  V30 7485 C 693.714 1.29242 0.956714 0
M  V30 7486 O 694.904 1.53022 0.832452 0
M  V30 7487 C 692.036 3.04669 1.52937 0
M  V30 7488 H 693.229 2.9861 -0.277818 0
M  V30 7489 H 690.782 1.55236 -0.182097 0
M  V30 7490 H 691.517 2.36571 2.21821 0
M  V30 7491 H 691.302 3.75814 1.11833 0
M  V30 7492 H 692.792 3.61102 2.09751 0
M  V30 7493 N 693.229 0.160201 1.56784 0
M  V30 7494 C 694.476 -0.487588 1.96542 0
M  V30 7495 C 694.804 -1.63999 1.04569 0
M  V30 7496 O 694.059 -1.95546 0.0775211 0
M  V30 7497 C 694.358 -1.02259 3.42459 0
M  V30 7498 C 694.024 0.0127436 4.50898 0
M  V30 7499 C 692.686 0.297318 4.80281 0
M  V30 7500 C 695.038 0.716078 5.16257 0
M  V30 7501 C 692.366 1.29081 5.72324 0
M  V30 7502 C 694.718 1.69847 6.09372 0
M  V30 7503 C 693.382 1.99061 6.37127 0
M  V30 7504 H 692.652 -0.178421 0.719199 0
M  V30 7505 H 695.299 0.249818 1.89864 0
M  V30 7506 H 693.604 -1.8376 3.46034 0
M  V30 7507 H 695.301 -1.53261 3.70556 0
M  V30 7508 H 691.891 -0.219235 4.28039 0
M  V30 7509 H 696.075 0.509428 4.93679 0
M  V30 7510 H 691.331 1.52344 5.92116 0
M  V30 7511 H 695.505 2.2489 6.59088 0
M  V30 7512 H 693.132 2.76194 7.08252 0
M  V30 7513 N 694.707 -1.5719 -0.113559 0
M  V30 7514 C 695.617 -2.04041 -1.15777 0
M  V30 7515 C 696.633 -0.961812 -1.45001 0
M  V30 7516 O 697.809 -1.2737 -1.56009 0
M  V30 7517 C 694.874 -2.43994 -2.46308 0
M  V30 7518 C 693.935 -3.65962 -2.24433 0
M  V30 7519 C 693.168 -4.04 -3.4874 0
M  V30 7520 O 693.391 -3.42321 -4.56259 0
M  V30 7521 O 692.325 -4.97069 -3.3942 0
M  V30 7522 H 696.151 -2.93248 -0.789899 0
M  V30 7523 H 693.736 -1.45828 -0.324748 0
M  V30 7524 H 695.618 -2.70401 -3.23204 0
M  V30 7525 H 694.293 -1.57932 -2.82558 0
M  V30 7526 H 693.2 -3.44697 -1.45377 0
M  V30 7527 H 694.533 -4.52746 -1.93084 0
M  V30 7528 N 696.185 0.383891 -1.52853 0
M  V30 7529 C 697.148 1.45197 -1.77343 0
M  V30 7530 C 698.148 1.47362 -0.643522 0
M  V30 7531 O 699.338 1.48443 -0.911613 0
M  V30 7532 C 696.47 2.8445 -1.87885 0
M  V30 7533 H 697.663 1.24764 -2.72716 0
M  V30 7534 H 695.216 0.615939 -1.43652 0
M  V30 7535 H 695.951 3.10222 -0.94515 0
M  V30 7536 H 695.736 2.8428 -2.70051 0
M  V30 7537 H 697.226 3.61832 -2.08488 0
M  V30 7538 N 697.663 1.43903 0.642637 0
M  V30 7539 C 698.91 1.46079 1.40239 0
M  V30 7540 C 699.238 0.0890335 1.94296 0
M  V30 7541 O 698.493 -0.907533 1.73385 0
M  V30 7542 C 698.792 2.45907 2.59354 0
M  V30 7543 C 698.458 3.91522 2.23654 0
M  V30 7544 C 697.12 4.31179 2.1363 0
M  V30 7545 C 699.472 4.83242 1.95261 0
M  V30 7546 C 696.8 5.60495 1.73384 0
M  V30 7547 C 699.152 6.12933 1.56511 0
M  V30 7548 C 697.816 6.51556 1.4502 0
M  V30 7549 H 697.086 0.534542 0.513172 0
M  V30 7550 H 699.733 1.77047 0.72984 0
M  V30 7551 H 698.038 2.08381 3.3179 0
M  V30 7552 H 699.735 2.44842 3.17574 0
M  V30 7553 H 696.325 3.60142 2.32369 0
M  V30 7554 H 700.509 4.53367 2.0192 0
M  V30 7555 H 695.765 5.89249 1.63082 0
M  V30 7556 H 699.939 6.83469 1.33576 0
M  V30 7557 H 697.566 7.51663 1.13606 0
M  V30 7558 N 699.141 -0.881989 1.30609 0
M  V30 7559 C 700.073 -1.99375 1.13058 0
M  V30 7560 C 701.086 -1.62636 0.0729879 0
M  V30 7561 O 702.275 -1.75621 0.319301 0
M  V30 7562 C 699.375 -3.31536 0.702651 0
M  V30 7563 C 698.548 -3.96693 1.84265 0
M  V30 7564 C 697.607 -5.07158 1.40277 0
M  V30 7565 O 696.633 -5.28628 2.11048 0
M  V30 7566 N 697.835 -5.79808 0.283449 0
M  V30 7567 H 700.6 -2.14981 2.08814 0
M  V30 7568 H 698.161 -1.05526 1.22784 0
M  V30 7569 H 700.153 -4.02804 0.391331 0
M  V30 7570 H 698.723 -3.12175 -0.162954 0
M  V30 7571 H 697.943 -3.1856 2.32192 0
M  V30 7572 H 699.231 -4.36964 2.60653 0
M  V30 7573 H 698.629 -5.64871 -0.306189 0
M  V30 7574 H 697.186 -6.51792 0.0315985 0
M  V30 7575 N 700.619 -1.13374 -1.09472 0
M  V30 7576 C 701.844 -0.918711 -1.85942 0
M  V30 7577 C 702.269 0.527225 -1.8056 0
M  V30 7578 O 701.627 1.37408 -1.18274 0
M  V30 7579 C 701.675 -1.41056 -3.31867 0
M  V30 7580 O 700.779 -0.595496 -4.08078 0
M  V30 7581 H 700.12 -0.329297 -0.576593 0
M  V30 7582 H 702.65 -1.50829 -1.38245 0
M  V30 7583 H 702.66 -1.41398 -3.82715 0
M  V30 7584 H 701.335 -2.46335 -3.35099 0
M  V30 7585 H 699.912 -0.659911 -3.67014 0
M  V30 7586 N 702.098 1.27442 -0.927168 0
M  V30 7587 C 703.326 1.98498 -0.583622 0
M  V30 7588 C 703.741 1.69171 0.838241 0
M  V30 7589 O 703.098 0.951969 1.55704 0
M  V30 7590 C 703.149 3.52552 -0.799341 0
M  V30 7591 O 702.87 3.80851 -2.16527 0
M  V30 7592 C 704.371 4.4086 -0.464436 0
M  V30 7593 H 701.591 0.633487 -0.221213 0
M  V30 7594 H 704.135 1.62308 -1.24404 0
M  V30 7595 H 702.29 3.86955 -0.185728 0
M  V30 7596 H 702.704 4.75441 -2.21487 0
M  V30 7597 H 704.178 5.47967 -0.666075 0
M  V30 7598 H 704.655 4.35082 0.599995 0
M  V30 7599 H 705.261 4.11977 -1.05617 0
M  V30 7600 N 703.576 0.692616 1.41565 0
M  V30 7601 C 704.992 0.363878 1.55397 0
M  V30 7602 C 705.192 -1.1294 1.66874 0
M  V30 7603 O 704.248 -1.91517 1.64552 0
M  V30 7604 C 705.561 1.10982 2.7947 0
M  V30 7605 C 707.109 1.09387 2.93263 0
M  V30 7606 C 707.584 1.8215 4.20221 0
M  V30 7607 N 709.075 1.79105 4.27172 0
M  V30 7608 C 709.81 2.32247 5.2426 0
M  V30 7609 N 709.306 2.93847 6.27396 0
M  V30 7610 N 711.099 2.22519 5.1618 0
M  V30 7611 H 703.25 1.66116 1.3236 0
M  V30 7612 H 705.513 0.700848 0.63837 0
M  V30 7613 H 705.219 2.1647 2.77188 0
M  V30 7614 H 705.093 0.686492 3.709 0
M  V30 7615 H 707.48 0.0472638 2.95062 0
M  V30 7616 H 707.561 1.55623 2.03015 0
M  V30 7617 H 707.205 2.86789 4.19183 0
M  V30 7618 H 707.135 1.33351 5.09436 0
M  V30 7619 H 709.626 1.34191 3.53272 0
M  V30 7620 H 709.939 3.31972 6.97864 0
M  V30 7621 H 708.284 2.97924 6.27906 0
M  V30 7622 H 711.475 1.7407 4.34531 0
M  V30 7623 H 711.648 2.64239 5.91677 0
M  V30 7624 N 705.054 -1.51416 0.437162 0
M  V30 7625 C 706.279 -2.0699 -0.130424 0
M  V30 7626 C 706.704 -1.30249 -1.35709 0
M  V30 7627 O 706.062 -0.340388 -1.78076 0
M  V30 7628 C 706.11 -3.5801 -0.43142 0
M  V30 7629 O 705.214 -3.8345 -1.5179 0
M  V30 7630 H 704.555 -0.663997 -0.00194339 0
M  V30 7631 H 707.085 -1.95029 0.618445 0
M  V30 7632 H 707.095 -4.02261 -0.681926 0
M  V30 7633 H 705.77 -4.13291 0.465137 0
M  V30 7634 H 704.347 -3.51062 -1.25737 0
M  V30 7635 N 706.532 -0.168513 -1.56696 0
M  V30 7636 C 707.78 0.476216 -1.96409 0
M  V30 7637 C 708.101 1.63968 -1.05544 0
M  V30 7638 O 707.371 1.95525 -0.121235 0
M  V30 7639 H 705.951 0.178921 -0.725256 0
M  V30 7640 H 708.613 -0.249042 -1.93302 0
M  V30 7641 H 707.709 0.838094 -3.00637 0
M  V30 7642 N 708.01 1.57248 0.105221 0
M  V30 7643 C 708.942 1.98008 1.15436 0
M  V30 7644 C 709.955 0.881236 1.36887 0
M  V30 7645 O 711.144 1.15943 1.35718 0
M  V30 7646 C 708.244 2.27509 2.51183 0
M  V30 7647 C 707.417 3.58811 2.50147 0
M  V30 7648 C 706.476 3.76365 3.67745 0
M  V30 7649 O 705.502 4.48329 3.50699 0
M  V30 7650 N 706.704 3.16174 4.86841 0
M  V30 7651 H 709.469 2.88616 0.807519 0
M  V30 7652 H 707.03 1.59202 0.29433 0
M  V30 7653 H 709.022 2.36455 3.28438 0
M  V30 7654 H 707.592 1.42959 2.77995 0
M  V30 7655 H 706.812 3.60927 1.5851 0
M  V30 7656 H 708.1 4.45088 2.46524 0
M  V30 7657 H 707.498 2.57701 5.03594 0
M  V30 7658 H 706.055 3.30621 5.61723 0
M  V30 7659 N 709.488 -0.375779 1.53054 0
M  V30 7660 C 710.904 -0.716764 1.426 0
M  V30 7661 C 711.104 -1.93651 0.556931 0
M  V30 7662 O 710.16 -2.52475 0.0354461 0
M  V30 7663 C 711.473 -0.939499 2.85646 0
M  V30 7664 C 713.021 -1.04015 2.95212 0
M  V30 7665 C 713.496 -1.29543 4.39298 0
M  V30 7666 N 714.987 -1.36335 4.42682 0
M  V30 7667 C 715.722 -1.57778 5.51266 0
M  V30 7668 N 715.218 -1.76604 6.69913 0
M  V30 7669 N 717.011 -1.60065 5.38828 0
M  V30 7670 H 709.162 0.42664 2.08071 0
M  V30 7671 H 711.425 0.128758 0.939215 0
M  V30 7672 H 711.131 -0.115189 3.51511 0
M  V30 7673 H 711.005 -1.85048 3.2869 0
M  V30 7674 H 713.392 -1.85501 2.29507 0
M  V30 7675 H 713.473 -0.106785 2.55577 0
M  V30 7676 H 713.117 -0.485611 5.05573 0
M  V30 7677 H 713.047 -2.24184 4.76497 0
M  V30 7678 H 715.538 -1.23441 3.5717 0
M  V30 7679 H 715.851 -1.9251 7.48438 0
M  V30 7680 H 714.196 -1.73802 6.72917 0
M  V30 7681 H 717.387 -1.44917 4.45103 0
M  V30 7682 H 717.56 -1.76435 6.23518 0
M  V30 7683 N 710.966 -1.44241 -0.634997 0
M  V30 7684 C 712.382 -1.28043 -0.952742 0
M  V30 7685 C 712.582 -0.21338 -2.00367 0
M  V30 7686 O 711.638 0.402042 -2.49279 0
M  V30 7687 C 712.951 -2.65076 -1.41968 0
M  V30 7688 C 714.499 -2.72755 -1.53537 0
M  V30 7689 C 714.974 -4.10249 -2.03616 0
M  V30 7690 N 716.465 -4.12406 -2.10892 0
M  V30 7691 C 717.2 -5.15641 -2.50803 0
M  V30 7692 N 716.696 -6.29239 -2.89879 0
M  V30 7693 N 718.489 -5.02995 -2.50903 0
M  V30 7694 H 710.64 -2.12315 0.060098 0
M  V30 7695 H 712.903 -0.947326 -0.0357325 0
M  V30 7696 H 712.609 -3.44213 -0.721804 0
M  V30 7697 H 712.483 -2.91704 -2.39141 0
M  V30 7698 H 714.87 -1.93939 -2.22422 0
M  V30 7699 H 714.951 -2.49872 -0.547496 0
M  V30 7700 H 714.595 -4.8954 -1.35327 0
M  V30 7701 H 714.525 -4.30507 -3.03268 0
M  V30 7702 H 717.016 -3.30417 -1.83393 0
M  V30 7703 H 717.329 -7.03827 -3.19135 0
M  V30 7704 H 715.674 -6.32683 -2.8764 0
M  V30 7705 H 718.865 -4.13306 -2.19763 0
M  V30 7706 H 719.038 -5.83574 -2.81683 0
M  V30 7707 N 712.444 0.87505 -1.31075 0
M  V30 7708 C 713.394 1.96933 -1.14898 0
M  V30 7709 C 714.378 1.60783 -0.0613703 0
M  V30 7710 O 715.57 1.74678 -0.285751 0
M  V30 7711 C 712.699 3.3253 -0.853166 0
M  V30 7712 C 711.785 3.74963 -1.98151 0
M  V30 7713 N 712.176 3.89403 -3.22799 0
M  V30 7714 C 710.474 4.04436 -1.8801 0
M  V30 7715 C 711.175 4.25563 -3.96574 0
M  V30 7716 N 710.151 4.3597 -3.24701 0
M  V30 7717 H 713.953 2.06201 -2.09424 0
M  V30 7718 H 711.467 1.06551 -1.22558 0
M  V30 7719 H 713.464 4.10666 -0.718266 0
M  V30 7720 H 712.124 3.24592 0.0839218 0
M  V30 7721 H 713.135 3.74266 -3.57974 0
M  V30 7722 H 709.812 4.04915 -1.01733 0
M  V30 7723 H 711.202 4.44375 -5.03965 0
M  V30 7724 N 713.922 1.13953 1.08869 0
M  V30 7725 C 715.15 0.92817 1.84912 0
M  V30 7726 C 715.565 -0.523197 1.81406 0
M  V30 7727 O 714.922 -1.36237 1.21432 0
M  V30 7728 C 714.973 1.41509 3.32652 0
M  V30 7729 O 714.694 2.80959 3.36145 0
M  V30 7730 C 716.195 1.243 4.25517 0
M  V30 7731 H 713.415 0.330612 0.583898 0
M  V30 7732 H 715.959 1.51349 1.37527 0
M  V30 7733 H 714.114 0.872648 3.77444 0
M  V30 7734 H 714.528 3.02704 4.28335 0
M  V30 7735 H 716.002 1.63237 5.27312 0
M  V30 7736 H 716.479 0.18532 4.38809 0
M  V30 7737 H 717.085 1.77375 3.86546 0
M  V30 7738 N 715.4 -1.26948 0.933913 0
M  V30 7739 C 716.33 -2.29017 0.45534 0
M  V30 7740 C 717.311 -1.62961 -0.487605 0
M  V30 7741 O 718.496 -1.90223 -0.391022 0
M  V30 7742 C 715.626 -3.46112 -0.287015 0
M  V30 7743 C 714.58 -4.24205 0.568682 0
M  V30 7744 C 713.906 -5.3384 -0.303206 0
M  V30 7745 C 715.206 -4.88954 1.83633 0
M  V30 7746 H 716.9 -2.69298 1.30839 0
M  V30 7747 H 714.446 -1.29459 0.630579 0
M  V30 7748 H 716.399 -4.16622 -0.6328 0
M  V30 7749 H 715.123 -3.04765 -1.17414 0
M  V30 7750 H 713.782 -3.5545 0.897261 0
M  V30 7751 H 713.43 -4.88734 -1.18947 0
M  V30 7752 H 713.13 -5.86998 0.265879 0
M  V30 7753 H 714.654 -6.0719 -0.644423 0
M  V30 7754 H 716.068 -5.51717 1.55823 0
M  V30 7755 H 714.465 -5.52198 2.34941 0
M  V30 7756 H 715.535 -4.12305 2.55211 0
M  V30 7757 N 716.879 -0.700114 -1.41195 0
M  V30 7758 C 718.104 -0.240704 -2.05998 0
M  V30 7759 C 718.529 1.10313 -1.52357 0
M  V30 7760 O 717.887 1.69154 -0.652424 0
M  V30 7761 C 717.935 -0.213783 -3.59966 0
M  V30 7762 O 717.039 0.809933 -4.04368 0
M  V30 7763 H 716.38 -0.116471 -0.653705 0
M  V30 7764 H 718.91 -0.956251 -1.80878 0
M  V30 7765 H 718.92 -0.0461852 -4.07974 0
M  V30 7766 H 717.595 -1.19454 -3.98376 0
M  V30 7767 H 716.172 0.611319 -3.67855 0
M  V30 7768 N 718.357 1.51182 -0.445186 0
M  V30 7769 C 719.267 2.31692 0.368255 0
M  V30 7770 C 720.283 1.40942 1.02036 0
M  V30 7771 O 721.459 1.74011 1.01401 0
M  V30 7772 C 718.524 3.14903 1.45041 0
M  V30 7773 C 717.585 4.21442 0.817615 0
M  V30 7774 C 716.818 5.00677 1.8482 0
M  V30 7775 O 717.041 4.80644 3.07145 0
M  V30 7776 O 715.975 5.84559 1.43438 0
M  V30 7777 H 719.801 3.0232 -0.289219 0
M  V30 7778 H 717.386 1.47951 -0.207555 0
M  V30 7779 H 719.268 3.66612 2.07783 0
M  V30 7780 H 717.943 2.47031 2.09182 0
M  V30 7781 H 716.85 3.73791 0.151931 0
M  V30 7782 H 718.183 4.9171 0.219564 0
M  V30 7783 N 719.835 0.176821 1.56605 0
M  V30 7784 C 721.081 -0.467406 1.9734 0
M  V30 7785 C 721.414 -1.62523 1.06301 0
M  V30 7786 O 720.689 -1.94182 0.11125 0
M  V30 7787 C 720.972 -0.945106 3.47476 0
M  V30 7788 C 720.825 0.213273 4.49294 0
M  V30 7789 C 722.144 -1.8169 4.00845 0
M  V30 7790 H 719.263 -0.168426 0.717497 0
M  V30 7791 H 721.905 0.264065 1.88156 0
M  V30 7792 H 720.055 -1.56841 3.55434 0
M  V30 7793 H 721.727 0.850508 4.53392 0
M  V30 7794 H 719.97 0.867918 4.25029 0
M  V30 7795 H 720.641 -0.163187 5.51759 0
M  V30 7796 H 723.117 -1.29139 3.95553 0
M  V30 7797 H 721.993 -2.12015 5.06301 0
M  V30 7798 H 722.254 -2.76463 3.44994 0
M  V30 7799 N 721.313 -1.57302 -0.09688 0
M  V30 7800 C 722.541 -1.90202 -0.814295 0
M  V30 7801 C 722.956 -0.770344 -1.72369 0
M  V30 7802 O 722.313 0.257764 -1.8067 0
M  V30 7803 C 722.364 -3.22708 -1.62916 0
M  V30 7804 O 722.085 -4.31522 -0.756343 0
M  V30 7805 C 723.586 -3.69459 -2.44979 0
M  V30 7806 H 720.806 -0.629275 -0.232925 0
M  V30 7807 H 723.35 -2.04364 -0.0746482 0
M  V30 7808 H 721.505 -3.1015 -2.32133 0
M  V30 7809 H 721.919 -5.07604 -1.32054 0
M  V30 7810 H 723.393 -4.64875 -2.9765 0
M  V30 7811 H 723.87 -2.97211 -3.23361 0
M  V30 7812 H 724.476 -3.84879 -1.80964 0
M  V30 7813 N 722.791 0.367657 -1.53252 0
M  V30 7814 C 723.739 1.47061 -1.8021 0
M  V30 7815 C 724.733 1.55539 -0.671112 0
M  V30 7816 O 725.939 1.58451 -0.854014 0
M  V30 7817 H 722.314 0.489868 -0.570555 0
M  V30 7818 H 724.285 1.21527 -2.72532 0
M  V30 7819 C 723.034 2.83924 -2.00706 0
M  V30 7820 H 722.357 2.78158 -2.87172 0
M  V30 7821 H 723.797 3.60281 -2.23547 0
M  V30 7822 C 722.256 3.27613 -0.785568 0
M  V30 7823 O 722.786 4.01691 0.0267459 0
M  V30 7824 N 720.992 2.84134 -0.609597 0
M  V30 7825 H 720.539 2.24017 -1.27178 0
M  V30 7826 H 720.497 3.13723 0.206281 0
M  V30 7827 N 724.269 1.44576 0.627338 0
M  V30 7828 C 725.201 1.47724 1.75243 0
M  V30 7829 C 726.214 0.370193 1.58535 0
M  V30 7830 O 727.403 0.636151 1.66779 0
M  V30 7831 C 724.503 1.2991 3.13012 0
M  V30 7832 C 723.676 2.5393 3.56143 0
M  V30 7833 C 722.735 2.30961 4.72804 0
M  V30 7834 O 721.761 3.04469 4.80923 0
M  V30 7835 N 722.963 1.34261 5.6476 0
M  V30 7836 H 725.728 2.44718 1.73012 0
M  V30 7837 H 723.289 1.40064 0.812022 0
M  V30 7838 H 725.281 1.12385 3.88782 0
M  V30 7839 H 723.851 0.412668 3.09864 0
M  V30 7840 H 723.071 2.86707 2.70542 0
M  V30 7841 H 724.359 3.36411 3.81713 0
M  V30 7842 H 723.757 0.735573 5.60897 0
M  V30 7843 H 722.314 1.22713 6.40144 0
M  V30 7844 N 725.747 -0.868086 1.31537 0
M  V30 7845 C 726.677 -1.99131 1.21939 0
M  V30 7846 C 727.658 -1.69768 0.106166 0
M  V30 7847 O 728.843 -1.92006 0.291081 0
M  V30 7848 C 725.973 -3.34676 0.927879 0
M  V30 7849 C 724.927 -3.7835 2.00088 0
M  V30 7850 C 724.253 -5.11375 1.56203 0
M  V30 7851 C 725.553 -3.95256 3.41424 0
M  V30 7852 H 727.247 -2.07419 2.15911 0
M  V30 7853 H 724.793 -0.996569 1.03945 0
M  V30 7854 H 726.746 -4.12793 0.847327 0
M  V30 7855 H 725.47 -3.26565 -0.0475042 0
M  V30 7856 H 724.129 -3.02474 2.07135 0
M  V30 7857 H 723.777 -4.99709 0.57445 0
M  V30 7858 H 723.477 -5.41568 2.27985 0
M  V30 7859 H 725.001 -5.92001 1.49558 0
M  V30 7860 H 726.415 -4.63764 3.3704 0
M  V30 7861 H 724.812 -4.36849 4.1144 0
M  V30 7862 H 725.882 -2.98579 3.82072 0
M  V30 7863 N 727.225 -1.14528 -1.08264 0
M  V30 7864 C 728.471 -0.91576 -1.80947 0
M  V30 7865 C 728.804 0.55623 -1.86064 0
M  V30 7866 O 728.079 1.41207 -1.33756 0
M  V30 7867 C 728.362 -1.51917 -3.26486 0
M  V30 7868 C 728.215 -3.06111 -3.2957 0
M  V30 7869 C 729.534 -1.19724 -4.23502 0
M  V30 7870 H 726.653 -0.334113 -0.656915 0
M  V30 7871 H 729.295 -1.41547 -1.26746 0
M  V30 7872 H 727.445 -1.0942 -3.72773 0
M  V30 7873 H 729.117 -3.57448 -2.91597 0
M  V30 7874 H 727.36 -3.40483 -2.688 0
M  V30 7875 H 728.031 -3.43438 -4.32151 0
M  V30 7876 H 730.507 -1.56467 -3.85561 0
M  V30 7877 H 729.383 -1.64575 -5.23647 0
M  V30 7878 H 729.644 -0.112771 -4.41956 0
M  V30 7879 N 728.703 1.26451 -0.940633 0
M  V30 7880 C 729.949 1.94065 -0.58878 0
M  V30 7881 C 730.282 1.7363 0.869853 0
M  V30 7882 O 729.557 1.073 1.62225 0
M  V30 7883 C 729.84 3.47852 -0.931199 0
M  V30 7884 C 729.693 3.77575 -2.44453 0
M  V30 7885 C 731.012 4.37832 -0.446229 0
M  V30 7886 H 728.131 0.704827 -0.21538 0
M  V30 7887 H 730.773 1.4933 -1.17475 0
M  V30 7888 H 728.923 3.86085 -0.432539 0
M  V30 7889 H 730.595 3.49059 -3.01588 0
M  V30 7890 H 728.838 3.23671 -2.88825 0
M  V30 7891 H 729.509 4.85068 -2.63464 0
M  V30 7892 H 731.985 4.06822 -0.873778 0
M  V30 7893 H 730.861 5.44228 -0.714648 0
M  V30 7894 H 731.122 4.37239 0.653815 0
M  V30 7895 N 730.181 0.707592 1.40822 0
M  V30 7896 C 731.114 -0.000859377 2.282 0
M  V30 7897 C 732.092 -0.7758 1.42899 0
M  V30 7898 O 733.276 -0.76411 1.72318 0
M  V30 7899 C 730.403 -1.00861 3.23334 0
M  V30 7900 C 729.449 -0.32543 4.25257 0
M  V30 7901 S 730.282 0.940908 5.27169 0
M  V30 7902 C 731.438 -0.0649459 6.25866 0
M  V30 7903 H 731.671 0.740207 2.87938 0
M  V30 7904 H 729.204 0.498311 1.46138 0
M  V30 7905 H 731.162 -1.58485 3.78672 0
M  V30 7906 H 729.823 -1.72233 2.62668 0
M  V30 7907 H 729.016 -1.08697 4.92139 0
M  V30 7908 H 728.618 0.178044 3.73576 0
M  V30 7909 H 730.91 -0.914377 6.71301 0
M  V30 7910 H 731.853 0.570276 7.058 0
M  V30 7911 H 732.261 -0.425098 5.62897 0
M  V30 7912 N 731.66 -1.50943 0.453197 0
M  V30 7913 C 733.071 -1.86699 -0.00619892 0
M  V30 7914 C 733.422 -1.3693 -1.40515 0
M  V30 7915 O 732.547 -0.726715 -2.03833 0
M  V30 7916 C 733.142 -3.38795 -0.018025 0
M  V30 7917 C 731.701 -3.74028 -0.421885 0
M  V30 7918 C 730.848 -2.74752 0.375087 0
M  V30 7919 H 733.799 -1.43942 0.668317 0
M  V30 7920 H 733.82 -3.71468 -0.824125 0
M  V30 7921 H 733.332 -3.74988 1.00028 0
M  V30 7922 H 731.433 -3.43431 -1.44521 0
M  V30 7923 H 731.546 -4.78908 -0.135664 0
M  V30 7924 H 729.91 -2.5414 -0.168794 0
M  V30 7925 H 730.693 -3.13787 1.39256 0
M  V30 7926 N 733.138 -0.185124 -1.56509 0
M  V30 7927 C 734.386 0.455357 -1.96903 0
M  V30 7928 C 734.707 1.62839 -1.07277 0
M  V30 7929 O 733.977 1.95385 -0.141966 0
M  V30 7930 H 732.557 0.171218 -0.727113 0
M  V30 7931 H 735.219 -0.26953 -1.93027 0
M  V30 7932 H 734.315 0.80616 -3.01509 0
M  V30 7933 N 734.616 1.57351 0.0885366 0
M  V30 7934 C 735.579 2.01557 1.09121 0
M  V30 7935 C 736.579 0.910052 1.3257 0
M  V30 7936 O 737.769 1.17537 1.28572 0
M  V30 7937 C 734.901 2.38189 2.43883 0
M  V30 7938 H 736.094 2.91361 0.710562 0
M  V30 7939 H 733.647 1.52694 0.333779 0
M  V30 7940 H 734.382 1.5136 2.86811 0
M  V30 7941 H 734.167 3.18846 2.28209 0
M  V30 7942 H 735.657 2.73025 3.15986 0
M  V30 7943 N 736.094 -0.359525 1.53444 0
M  V30 7944 C 737.342 -1.09935 1.69584 0
M  V30 7945 C 737.663 -1.89656 0.453371 0
M  V30 7946 O 736.933 -1.8852 -0.53263 0
M  V30 7947 H 735.513 -0.408843 0.625185 0
M  V30 7948 H 738.175 -0.40467 1.90653 0
M  V30 7949 H 737.271 -1.78575 2.55964 0
M  V30 7950 N 737.572 -1.44907 -0.619662 0
M  V30 7951 C 738.519 -1.52654 -1.73105 0
M  V30 7952 C 739.489 -0.373334 -1.6185 0
M  V30 7953 O 740.674 -0.585143 -1.81606 0
M  V30 7954 C 737.814 -1.48769 -3.11387 0
M  V30 7955 C 736.927 -2.74551 -3.33535 0
M  V30 7956 C 736.062 -2.62421 -4.61854 0
M  V30 7957 C 735.101 -3.83312 -4.77219 0
M  V30 7958 N 734.238 -3.69789 -5.96826 0
M  V30 7959 H 739.078 -2.47605 -1.65819 0
M  V30 7960 H 736.615 -1.22875 -0.808719 0
M  V30 7961 H 738.573 -1.44507 -3.91374 0
M  V30 7962 H 737.203 -0.573783 -3.1766 0
M  V30 7963 H 736.255 -2.88953 -2.47408 0
M  V30 7964 H 737.567 -3.64253 -3.40765 0
M  V30 7965 H 736.721 -2.56056 -5.50019 0
M  V30 7966 H 735.46 -1.70298 -4.57001 0
M  V30 7967 H 734.465 -3.90049 -3.87481 0
M  V30 7968 H 735.69 -4.76486 -4.83878 0
M  V30 7969 H 733.636 -2.80426 -5.93041 0
M  V30 7970 H 733.553 -4.53116 -6.05163 0
M  V30 7971 H 734.821 -3.67335 -6.87521 0
M  V30 7972 N 739.05 0.861098 -1.31996 0
M  V30 7973 C 740.299 1.60965 -1.21545 0
M  V30 7974 C 740.612 1.94325 0.222972 0
M  V30 7975 O 741.818 2.67757 0.449272 0
M  V30 7976 C 740.274 2.90223 -2.12834 0
M  V30 7977 C 739.882 2.64313 -3.61722 0
M  V30 7978 C 741.626 3.68229 -2.11205 0
M  V30 7979 C 739.533 3.89532 -4.44993 0
M  V30 7980 H 738.463 0.603988 -0.451348 0
M  V30 7981 H 741.114 0.951358 -1.56912 0
M  V30 7982 H 739.496 3.57475 -1.70375 0
M  V30 7983 H 740.67 2.05413 -4.12483 0
M  V30 7984 H 738.985 1.99647 -3.65418 0
M  V30 7985 H 741.582 4.61138 -2.70658 0
M  V30 7986 H 741.925 4.01466 -1.1014 0
M  V30 7987 H 742.458 3.07873 -2.51911 0
M  V30 7988 H 739.197 3.61441 -5.46846 0
M  V30 7989 H 738.717 4.47851 -3.98985 0
M  V30 7990 H 740.396 4.57334 -4.57663 0
M  V30 7991 N 740.528 1.15101 1.07655 0
M  V30 7992 C 741.775 0.923974 1.80191 0
M  V30 7993 C 742.103 -0.549065 1.86589 0
M  V30 7994 O 741.358 -1.42307 1.3434 0
M  V30 7995 C 741.657 1.47954 3.25337 0
M  V30 7996 C 741.323 2.97253 3.39044 0
M  V30 7997 C 739.985 3.38012 3.42493 0
M  V30 7998 C 742.337 3.93219 3.42094 0
M  V30 7999 C 739.665 4.73384 3.4659 0
M  V30 8000 C 742.017 5.28458 3.47728 0
M  V30 8001 C 740.681 5.68717 3.49453 0
M  V30 8002 H 739.951 0.338106 0.659367 0
M  V30 8003 H 742.598 1.43594 1.26701 0
M  V30 8004 H 740.903 0.888691 3.81588 0
M  V30 8005 H 742.6 1.27972 3.80032 0
M  V30 8006 H 739.19 2.64746 3.37057 0
M  V30 8007 H 743.374 3.62805 3.38654 0
M  V30 8008 H 738.63 5.03925 3.46222 0
M  V30 8009 H 742.804 6.02618 3.49034 0
M  V30 8010 H 740.431 6.73596 3.5238 0
M  V30 8011 N 742.006 -1.2595 0.947325 0
M  V30 8012 C 743.231 -1.98083 0.614633 0
M  V30 8013 C 743.656 -1.70013 -0.804815 0
M  V30 8014 O 743.014 -0.95175 -1.54309 0
M  V30 8015 C 743.062 -3.4993 0.870706 0
M  V30 8016 O 742.166 -4.12364 -0.0541451 0
M  V30 8017 H 741.507 -0.621232 0.234451 0
M  V30 8018 H 744.037 -1.60259 1.27193 0
M  V30 8019 H 744.047 -4.00198 0.794051 0
M  V30 8020 H 742.722 -3.69691 1.90529 0
M  V30 8021 H 741.299 -3.72826 0.0740917 0
M  V30 8022 N 743.484 -0.715051 -1.40445 0
M  V30 8023 C 744.417 -0.0112426 -2.28197 0
M  V30 8024 C 745.395 0.768211 -1.43308 0
M  V30 8025 O 746.579 0.754961 -1.72721 0
M  V30 8026 C 743.706 0.991453 -3.23864 0
M  V30 8027 C 742.752 0.302873 -4.25423 0
M  V30 8028 S 743.585 -0.968852 -5.26663 0
M  V30 8029 C 744.741 0.0317538 -6.25892 0
M  V30 8030 H 744.974 -0.755467 -2.87541 0
M  V30 8031 H 742.507 -0.506054 -1.45871 0
M  V30 8032 H 744.465 1.56475 -3.79507 0
M  V30 8033 H 743.126 1.70838 -2.63578 0
M  V30 8034 H 742.319 1.06086 -4.92709 0
M  V30 8035 H 741.921 -0.197853 -3.73476 0
M  V30 8036 H 744.213 0.878764 -6.71777 0
M  V30 8037 H 745.156 -0.607698 -7.05488 0
M  V30 8038 H 745.564 0.39524 -5.63115 0
M  V30 8039 N 744.962 1.50701 -0.461195 0
M  V30 8040 C 745.91 2.29918 0.352231 0
M  V30 8041 C 746.904 1.36778 0.999403 0
M  V30 8042 O 748.11 1.54015 0.931639 0
M  V30 8043 H 744.485 0.740249 0.132423 0
M  V30 8044 H 746.456 2.96497 -0.336424 0
M  V30 8045 C 745.205 3.17052 1.42736 0
M  V30 8046 H 744.528 3.88623 0.938747 0
M  V30 8047 H 745.968 3.75493 1.96928 0
M  V30 8048 C 744.427 2.3399 2.42384 0
M  V30 8049 O 744.957 2.01608 3.47444 0
M  V30 8050 N 743.163 1.96758 2.13857 0
M  V30 8051 H 742.71 2.23292 1.28447 0
M  V30 8052 H 742.668 1.41484 2.80766 0
M  V30 8053 N 746.441 0.193421 1.56409 0
M  V30 8054 C 747.718 -0.493318 1.89277 0
M  V30 8055 C 748.098 -1.79765 1.10669 0
M  V30 8056 O 747.446 -2.27558 0.207274 0
M  V30 8057 C 747.656 -0.713732 3.41624 0
M  V30 8058 C 749.004 -1.03385 4.11821 0
M  V30 8059 O 750.028 -0.801511 3.47065 0
M  V30 8060 O 748.887 -1.47327 5.26267 0
M  V30 8061 H 745.981 -0.256973 0.786062 0
M  V30 8062 H 748.527 0.23351 1.68086 0
M  V30 8063 H 747.299 0.207446 3.9075 0
M  V30 8064 H 746.922 -1.49308 3.68501 0
M  V30 8065 N 747.919 -1.57396 -0.0801906 0
M  V30 8066 C 749.144 -1.91437 -0.797909 0
M  V30 8067 C 749.569 -0.789075 -1.70749 0
M  V30 8068 O 748.927 0.25857 -1.79447 0
M  V30 8069 C 748.975 -3.24402 -1.57467 0
M  V30 8070 O 748.079 -3.13043 -2.68473 0
M  V30 8071 H 747.42 -0.627109 -0.218243 0
M  V30 8072 H 749.95 -2.04537 -0.050949 0
M  V30 8073 H 749.96 -3.58072 -1.95571 0
M  V30 8074 H 748.635 -4.05884 -0.907229 0
M  V30 8075 H 747.212 -2.90915 -2.33287 0
M  V30 8076 N 749.397 0.351382 -1.53633 0
M  V30 8077 C 750.808 0.927429 -1.62036 0
M  V30 8078 C 751.159 1.89809 -0.496706 0
M  V30 8079 O 750.284 2.1313 0.374749 0
M  V30 8080 C 750.879 1.68886 -2.93706 0
M  V30 8081 C 749.438 2.21404 -3.04397 0
M  V30 8082 C 748.585 1.03075 -2.57431 0
M  V30 8083 H 751.536 0.129748 -1.58169 0
M  V30 8084 H 751.557 2.55116 -2.82305 0
M  V30 8085 H 751.069 0.982149 -3.75467 0
M  V30 8086 H 749.17 2.95274 -2.27253 0
M  V30 8087 H 749.283 2.48312 -4.09729 0
M  V30 8088 H 747.647 1.40188 -2.12649 0
M  V30 8089 H 748.43 0.338793 -3.41624 0
M  V30 8090 N 750.875 1.45233 0.611969 0
M  V30 8091 C 752.1 1.52767 1.40274 0
M  V30 8092 C 752.525 0.159701 1.87421 0
M  V30 8093 O 751.883 -0.854837 1.59882 0
M  V30 8094 C 751.931 2.51286 2.58626 0
M  V30 8095 O 751.035 2.02764 3.59111 0
M  V30 8096 H 750.376 0.515141 0.418958 0
M  V30 8097 H 752.906 1.90547 0.745188 0
M  V30 8098 H 752.916 2.69949 3.05927 0
M  V30 8099 H 751.591 3.50641 2.23659 0
M  V30 8100 H 750.168 1.93957 3.18489 0
M  V30 8101 N 752.353 -0.854086 1.3245 0
M  V30 8102 C 753.283 -1.97827 1.24044 0
M  V30 8103 C 754.264 -1.69646 0.124166 0
M  V30 8104 O 755.449 -1.91687 0.31143 0
M  V30 8105 C 752.579 -3.33673 0.963324 0
M  V30 8106 C 751.533 -3.76207 2.04089 0
M  V30 8107 C 750.859 -5.0969 1.61618 0
M  V30 8108 C 752.159 -3.91612 3.45597 0
M  V30 8109 H 753.853 -2.05118 2.18099 0
M  V30 8110 H 751.399 -0.985489 1.04996 0
M  V30 8111 H 753.352 -4.11871 0.891061 0
M  V30 8112 H 752.076 -3.26597 -0.0128649 0
M  V30 8113 H 750.735 -3.0026 2.10332 0
M  V30 8114 H 750.383 -4.99072 0.627418 0
M  V30 8115 H 750.083 -5.3912 2.33717 0
M  V30 8116 H 751.607 -5.90381 1.55829 0
M  V30 8117 H 753.021 -4.60163 3.4194 0
M  V30 8118 H 751.418 -4.3246 4.16051 0
M  V30 8119 H 752.488 -2.9451 3.85217 0
M  V30 8120 N 753.831 -1.1567 -1.07043 0
M  V30 8121 C 755.108 -0.843948 -1.76456 0
M  V30 8122 C 755.488 0.659806 -2.00524 0
M  V30 8123 O 754.836 1.60518 -1.62623 0
M  V30 8124 C 755.046 -1.65822 -3.0709 0
M  V30 8125 C 756.394 -1.8664 -3.8138 0
M  V30 8126 O 757.418 -1.62624 -3.1691 0
M  V30 8127 O 756.277 -2.26884 -4.97178 0
M  V30 8128 H 753.371 -0.310677 -0.766426 0
M  V30 8129 H 755.917 -1.26266 -1.1338 0
M  V30 8130 H 754.689 -2.67902 -2.85209 0
M  V30 8131 H 754.312 -1.23605 -3.77899 0
M  V30 8132 N 755.309 1.25446 -0.953992 0
M  V30 8133 C 756.534 1.97755 -0.625129 0
M  V30 8134 C 756.959 1.70437 0.795787 0
M  V30 8135 O 756.317 0.95992 1.53803 0
M  V30 8136 C 756.365 3.49463 -0.889251 0
M  V30 8137 O 755.469 4.12387 0.0322757 0
M  V30 8138 H 754.81 0.61998 -0.237742 0
M  V30 8139 H 757.34 1.59582 -1.28041 0
M  V30 8140 H 757.35 3.99772 -0.815263 0
M  V30 8141 H 756.025 3.68676 -1.92487 0
M  V30 8142 H 754.602 3.72782 -0.0938625 0
M  V30 8143 N 756.787 0.722489 1.40064 0
M  V30 8144 C 758.033 0.265371 2.01056 0
M  V30 8145 C 758.366 -1.14062 1.57174 0
M  V30 8146 O 757.641 -1.77514 0.794916 0
M  V30 8147 C 757.924 0.353157 3.58364 0
M  V30 8148 C 757.777 1.79802 4.123 0
M  V30 8149 C 759.096 -0.271677 4.39261 0
M  V30 8150 H 756.215 0.0979002 0.730469 0
M  V30 8151 H 758.857 0.916289 1.66446 0
M  V30 8152 H 757.007 -0.201037 3.87979 0
M  V30 8153 H 758.679 2.40813 3.93455 0
M  V30 8154 H 756.922 2.32348 3.66329 0
M  V30 8155 H 757.593 1.81079 5.21454 0
M  V30 8156 H 760.069 0.200607 4.15616 0
M  V30 8157 H 758.945 -0.179843 5.48605 0
M  V30 8158 H 759.206 -1.35611 4.20787 0
M  V30 8159 N 758.265 -1.50454 0.469181 0
M  V30 8160 C 759.542 -1.9504 -0.147955 0
M  V30 8161 C 759.922 -1.40946 -1.57154 0
M  V30 8162 O 759.27 -0.609663 -2.20217 0
M  V30 8163 C 759.48 -3.48875 -0.0932198 0
M  V30 8164 C 760.828 -4.23655 -0.283056 0
M  V30 8165 O 761.852 -3.55795 -0.169892 0
M  V30 8166 O 760.711 -5.44102 -0.511396 0
M  V30 8167 H 757.805 -0.819283 -0.11271 0
M  V30 8168 H 760.351 -1.6123 0.529446 0
M  V30 8169 H 759.123 -3.80791 0.900784 0
M  V30 8170 H 758.746 -3.89217 -0.812161 0
M  V30 8171 N 759.743 -0.201713 -1.56304 0
M  V30 8172 C 760.968 0.443815 -2.02596 0
M  V30 8173 C 761.393 1.53945 -1.08086 0
M  V30 8174 O 760.751 1.81182 -0.0655056 0
M  V30 8175 C 760.799 0.971066 -3.47279 0
M  V30 8176 O 759.903 2.0836 -3.55893 0
M  V30 8177 H 759.244 0.10294 -0.655972 0
M  V30 8178 H 761.774 -0.314533 -2.02168 0
M  V30 8179 H 761.784 1.28598 -3.87204 0
M  V30 8180 H 760.459 0.169048 -4.15556 0
M  V30 8181 H 759.036 1.77683 -3.27846 0
M  V30 8182 N 761.222 1.57436 0.0718424 0
M  V30 8183 C 762.132 2.07039 1.10326 0
M  V30 8184 C 763.148 0.999918 1.424 0
M  V30 8185 O 764.324 1.31462 1.52577 0
M  V30 8186 C 761.389 2.50439 2.39752 0
M  V30 8187 C 760.45 3.71784 2.14651 0
M  V30 8188 C 759.683 4.13104 3.37906 0
M  V30 8189 O 759.906 3.54298 4.47023 0
M  V30 8190 O 758.84 5.05894 3.26121 0
M  V30 8191 H 762.666 2.95239 0.711872 0
M  V30 8192 H 760.251 1.46638 0.28597 0
M  V30 8193 H 762.133 2.78876 3.15921 0
M  V30 8194 H 760.808 1.65368 2.78271 0
M  V30 8195 H 759.715 3.48431 1.36187 0
M  V30 8196 H 761.048 4.57707 1.81012 0
M  V30 8197 N 762.7 -0.34323 1.53817 0
M  V30 8198 C 763.93 -1.10188 1.74763 0
M  V30 8199 C 764.338 -1.82829 0.486856 0
M  V30 8200 O 763.681 -1.75236 -0.551198 0
M  V30 8201 C 763.743 -2.16 2.87375 0
M  V30 8202 C 763.407 -1.62931 4.26969 0
M  V30 8203 C 764.404 -1.08147 5.08528 0
M  V30 8204 C 762.089 -1.67769 4.73454 0
M  V30 8205 C 764.083 -0.589039 6.34672 0
M  V30 8206 C 761.77 -1.18138 5.99572 0
M  V30 8207 C 762.768 -0.637979 6.80014 0
M  V30 8208 O 762.456 -0.149073 8.03762 0
M  V30 8209 H 762.188 -0.33445 0.587469 0
M  V30 8210 H 764.742 -0.401109 2.01445 0
M  V30 8211 H 762.972 -2.89637 2.56218 0
M  V30 8212 H 764.661 -2.77432 2.96287 0
M  V30 8213 H 765.427 -1.03732 4.73777 0
M  V30 8214 H 761.306 -2.09004 4.10899 0
M  V30 8215 H 764.85 -0.164233 6.97407 0
M  V30 8216 H 760.747 -1.22254 6.33817 0
M  V30 8217 H 761.515 -0.266332 8.18067 0
M  V30 8218 N 764.178 -1.45556 -0.604258 0
M  V30 8219 C 765.455 -1.40221 -1.36373 0
M  V30 8220 C 765.835 -0.0745195 -2.10968 0
M  V30 8221 O 765.183 0.943594 -2.08107 0
M  V30 8222 C 765.393 -2.61807 -2.30777 0
M  V30 8223 C 766.741 -3.07037 -2.93281 0
M  V30 8224 O 767.765 -2.62203 -2.41097 0
M  V30 8225 O 766.624 -3.8485 -3.88011 0
M  V30 8226 H 763.718 -0.556602 -0.611656 0
M  V30 8227 H 766.264 -1.57689 -0.627069 0
M  V30 8228 H 765.036 -3.50017 -1.74939 0
M  V30 8229 H 764.659 -2.46688 -3.11818 0
M  V30 8230 N 765.656 0.84705 -1.32902 0
M  V30 8231 C 766.589 1.96038 -1.1681 0
M  V30 8232 C 767.567 1.62468 -0.0656144 0
M  V30 8233 O 768.751 1.87136 -0.226339 0
M  V30 8234 C 765.878 3.29362 -0.789839 0
M  V30 8235 C 764.924 3.81908 -1.89865 0
M  V30 8236 S 765.757 4.04576 -3.50826 0
M  V30 8237 C 766.913 5.40863 -3.14989 0
M  V30 8238 H 767.146 2.09387 -2.11055 0
M  V30 8239 H 764.679 0.999896 -1.1765 0
M  V30 8240 H 766.637 4.06405 -0.578369 0
M  V30 8241 H 765.298 3.13815 0.133878 0
M  V30 8242 H 764.491 4.78357 -1.58716 0
M  V30 8243 H 764.093 3.11733 -2.06636 0
M  V30 8244 H 766.385 6.23393 -2.65306 0
M  V30 8245 H 767.328 5.7698 -4.10488 0
M  V30 8246 H 767.736 5.05228 -2.51804 0
M  V30 8247 N 767.134 1.16236 1.06428 0
M  V30 8248 C 768.382 0.941171 1.78847 0
M  V30 8249 C 768.703 -0.53248 1.87589 0
M  V30 8250 O 767.973 -1.38686 1.38358 0
M  V30 8251 H 766.553 0.345228 0.66244 0
M  V30 8252 H 769.215 1.46479 1.28569 0
M  V30 8253 H 768.311 1.35871 2.80972 0
M  V30 8254 N 768.612 -1.24939 0.960631 0
M  V30 8255 C 769.837 -1.9742 0.635608 0
M  V30 8256 C 770.262 -1.70857 -0.786737 0
M  V30 8257 O 769.62 -0.968063 -1.53291 0
M  V30 8258 C 769.668 -3.48987 0.907771 0
M  V30 8259 O 768.772 -4.12399 -0.0104053 0
M  V30 8260 H 768.113 -0.61871 0.241027 0
M  V30 8261 H 770.643 -1.58901 1.28886 0
M  V30 8262 H 770.653 -3.99334 0.836453 0
M  V30 8263 H 769.328 -3.6765 1.94439 0
M  V30 8264 H 767.905 -3.72727 0.113631 0
M  V30 8265 N 770.09 -0.729906 -1.39679 0
M  V30 8266 C 771.336 -0.27603 -2.00913 0
M  V30 8267 C 771.669 1.13227 -1.57776 0
M  V30 8268 O 770.944 1.7709 -0.804319 0
M  V30 8269 C 771.227 -0.372157 -3.58172 0
M  V30 8270 C 771.08 -1.81986 -4.11341 0
M  V30 8271 C 772.399 0.248378 -4.39399 0
M  V30 8272 H 769.518 -0.101773 -0.729939 0
M  V30 8273 H 772.16 -0.925104 -1.65957 0
M  V30 8274 H 770.31 0.180459 -3.88081 0
M  V30 8275 H 771.982 -2.42896 -3.92172 0
M  V30 8276 H 770.225 -2.34287 -3.65092 0
M  V30 8277 H 770.896 -1.83842 -5.20486 0
M  V30 8278 H 773.372 -0.222645 -4.15504 0
M  V30 8279 H 772.248 0.150746 -5.48693 0
M  V30 8280 H 772.509 1.33378 -4.21501 0
M  V30 8281 N 771.568 1.50203 -0.477153 0
M  V30 8282 C 772.5 2.26508 0.350239 0
M  V30 8283 C 773.513 1.32081 0.95176 0
M  V30 8284 O 774.702 1.57546 0.839139 0
M  V30 8285 C 771.802 3.0361 1.50579 0
M  V30 8286 C 770.975 4.25438 1.01595 0
M  V30 8287 C 770.034 4.84783 2.04626 0
M  V30 8288 O 769.06 5.45528 1.62442 0
M  V30 8289 N 770.262 4.72318 3.37485 0
M  V30 8290 H 773.027 2.98155 -0.30394 0
M  V30 8291 H 770.588 1.58938 -0.308289 0
M  V30 8292 H 772.58 3.4019 2.1921 0
M  V30 8293 H 771.15 2.34724 2.06455 0
M  V30 8294 H 770.37 3.93894 0.155316 0
M  V30 8295 H 771.658 5.04413 0.666694 0
M  V30 8296 H 771.056 4.24022 3.74462 0
M  V30 8297 H 769.613 5.13149 4.01897 0
M  V30 8298 N 773.046 0.209999 1.56195 0
M  V30 8299 C 774.462 -0.145598 1.58934 0
M  V30 8300 C 774.662 -1.59868 1.22656 0
M  V30 8301 O 773.718 -2.33689 0.956336 0
M  V30 8302 C 775.031 0.170243 3.00218 0
M  V30 8303 C 776.579 0.111548 3.12801 0
M  V30 8304 C 777.054 0.400904 4.56242 0
M  V30 8305 N 778.545 0.350058 4.61875 0
M  V30 8306 C 779.28 0.547598 5.70779 0
M  V30 8307 N 778.776 0.806291 6.88092 0
M  V30 8308 N 780.569 0.480827 5.6004 0
M  V30 8309 H 772.72 1.15804 1.78054 0
M  V30 8310 H 774.983 0.463326 0.827063 0
M  V30 8311 H 774.689 1.17833 3.31373 0
M  V30 8312 H 774.563 -0.520208 3.73596 0
M  V30 8313 H 776.95 -0.887162 2.81449 0
M  V30 8314 H 777.031 0.835302 2.41777 0
M  V30 8315 H 776.675 1.397 4.8831 0
M  V30 8316 H 776.605 -0.34391 5.25476 0
M  V30 8317 H 779.096 0.157334 3.77572 0
M  V30 8318 H 779.409 0.945433 7.66995 0
M  V30 8319 H 777.754 0.843355 6.89864 0
M  V30 8320 H 780.945 0.279037 4.67268 0
M  V30 8321 H 781.118 0.638189 6.4485 0
M  V30 8322 N 774.524 -1.57472 -0.0634922 0
M  V30 8323 C 775.801 -1.78736 -0.794538 0
M  V30 8324 C 776.181 -0.799645 -1.95369 0
M  V30 8325 O 775.529 0.165521 -2.279 0
M  V30 8326 C 775.739 -3.25471 -1.25975 0
M  V30 8327 C 777.087 -3.89528 -1.68976 0
M  V30 8328 O 778.111 -3.29412 -1.35521 0
M  V30 8329 O 776.97 -4.95305 -2.30944 0
M  V30 8330 H 774.064 -0.733813 -0.381376 0
M  V30 8331 H 776.61 -1.69646 -0.0429258 0
M  V30 8332 H 775.382 -3.88922 -0.430721 0
M  V30 8333 H 775.005 -3.39317 -2.07243 0
M  V30 8334 N 776.003 0.335068 -1.53997 0
M  V30 8335 C 776.933 1.41727 -1.85568 0
M  V30 8336 C 777.914 1.54505 -0.7115 0
M  V30 8337 O 779.099 1.68573 -0.964191 0
M  V30 8338 C 776.229 2.7866 -2.07282 0
M  V30 8339 C 775.183 2.80682 -3.23112 0
M  V30 8340 C 774.509 4.20581 -3.30175 0
M  V30 8341 C 775.809 2.45458 -4.61029 0
M  V30 8342 H 777.503 1.15555 -2.76202 0
M  V30 8343 H 775.049 0.554445 -1.32898 0
M  V30 8344 H 777.002 3.54423 -2.27952 0
M  V30 8345 H 775.726 3.06286 -1.13387 0
M  V30 8346 H 774.385 2.07373 -3.02311 0
M  V30 8347 H 774.033 4.4533 -2.33859 0
M  V30 8348 H 773.733 4.22843 -4.08016 0
M  V30 8349 H 775.257 4.98174 -3.53066 0
M  V30 8350 H 776.671 3.10934 -4.81656 0
M  V30 8351 H 775.068 2.5899 -5.41336 0
M  V30 8352 H 776.138 1.40628 -4.6406 0
M  V30 8353 N 777.481 1.45874 0.596531 0
M  V30 8354 C 778.429 1.55739 1.72766 0
M  V30 8355 C 779.423 0.426666 1.63939 0
M  V30 8356 O 780.629 0.60301 1.69599 0
M  V30 8357 H 777.004 0.489386 0.570968 0
M  V30 8358 H 778.975 2.50871 1.61575 0
M  V30 8359 C 777.724 1.55174 3.11153 0
M  V30 8360 H 777.047 2.41511 3.1861 0
M  V30 8361 H 778.487 1.66133 3.90097 0
M  V30 8362 C 776.946 0.278001 3.35751 0
M  V30 8363 O 777.476 -0.637557 3.96608 0
M  V30 8364 N 775.682 0.170227 2.90101 0
M  V30 8365 H 775.229 0.916159 2.40758 0
M  V30 8366 H 775.187 -0.68117 3.06932 0
M  V30 8367 N 778.959 -0.83999 1.33349 0
M  V30 8368 C 780.206 -1.59517 1.24742 0
M  V30 8369 C 780.534 -1.93598 -0.187077 0
M  V30 8370 O 779.789 -1.58782 -1.14398 0
M  V30 8371 C 780.088 -2.91571 2.06691 0
M  V30 8372 C 779.754 -2.76856 3.55895 0
M  V30 8373 C 778.416 -2.72551 3.96572 0
M  V30 8374 C 780.768 -2.61741 4.50712 0
M  V30 8375 C 778.096 -2.51028 5.30285 0
M  V30 8376 C 780.448 -2.41752 5.84584 0
M  V30 8377 C 779.112 -2.35848 6.24445 0
M  V30 8378 H 778.382 -0.583714 0.456463 0
M  V30 8379 H 781.029 -0.973261 1.64924 0
M  V30 8380 H 779.334 -3.57961 1.59284 0
M  V30 8381 H 781.031 -3.49053 1.9739 0
M  V30 8382 H 777.621 -2.81039 3.23597 0
M  V30 8383 H 781.805 -2.64102 4.20195 0
M  V30 8384 H 777.061 -2.44903 5.60208 0
M  V30 8385 H 781.235 -2.2904 6.57658 0
M  V30 8386 H 778.862 -2.18931 7.27993 0
M  V30 8387 N 780.437 -1.16799 -1.0581 0
M  V30 8388 C 781.367 -0.902241 -2.15364 0
M  V30 8389 C 782.348 0.153351 -1.69407 0
M  V30 8390 O 783.533 0.00442032 -1.94199 0
M  V30 8391 C 780.663 -0.407911 -3.44896 0
M  V30 8392 C 779.617 -1.40197 -4.04387 0
M  V30 8393 C 778.943 -0.765848 -5.29187 0
M  V30 8394 C 780.243 -2.77316 -4.42598 0
M  V30 8395 H 781.937 -1.81841 -2.37853 0
M  V30 8396 H 779.483 -0.875731 -1.14311 0
M  V30 8397 H 781.436 -0.20945 -4.20879 0
M  V30 8398 H 780.16 0.54378 -3.22041 0
M  V30 8399 H 778.819 -1.58707 -3.30466 0
M  V30 8400 H 778.467 0.192482 -5.02632 0
M  V30 8401 H 778.167 -1.42939 -5.69949 0
M  V30 8402 H 779.691 -0.577519 -6.07863 0
M  V30 8403 H 781.105 -2.62561 -5.09642 0
M  V30 8404 H 779.502 -3.4019 -4.94359 0
M  V30 8405 H 780.572 -3.32199 -3.53231 0
M  V30 8406 N 781.915 1.24427 -0.967243 0
M  V30 8407 C 782.825 2.29109 -0.504592 0
M  V30 8408 C 783.841 1.68495 0.434224 0
M  V30 8409 O 785.017 1.99041 0.307379 0
M  V30 8410 C 782.082 3.46133 0.198273 0
M  V30 8411 C 781.143 4.22149 -0.780313 0
M  V30 8412 C 780.376 5.33585 -0.110896 0
M  V30 8413 O 780.599 5.59676 1.10088 0
M  V30 8414 O 779.533 5.96522 -0.802823 0
M  V30 8415 H 783.359 2.708 -1.37482 0
M  V30 8416 H 780.944 1.30111 -0.73426 0
M  V30 8417 H 782.826 4.17205 0.593124 0
M  V30 8418 H 781.501 3.0642 1.04347 0
M  V30 8419 H 780.408 3.53454 -1.22561 0
M  V30 8420 H 781.741 4.65677 -1.59392 0
M  V30 8421 N 783.393 0.737304 1.3929 0
M  V30 8422 C 784.67 0.212464 1.94443 0
M  V30 8423 C 785.05 -1.28621 1.67391 0
M  V30 8424 O 784.398 -2.0529 1.00342 0
M  V30 8425 C 784.608 0.548565 3.44662 0
M  V30 8426 C 785.956 0.499177 4.21656 0
M  V30 8427 O 786.98 0.485892 3.5287 0
M  V30 8428 O 785.839 0.495739 5.44247 0
M  V30 8429 H 782.933 0.0395457 0.826054 0
M  V30 8430 H 785.479 0.816319 1.48776 0
M  V30 8431 H 784.251 1.58426 3.57795 0
M  V30 8432 H 783.874 -0.0841399 3.97511 0
M  V30 8433 N 784.871 -1.49948 0.485112 0
M  V30 8434 C 785.819 -2.30449 -0.315609 0
M  V30 8435 C 786.813 -1.38351 -0.977516 0
M  V30 8436 O 788.019 -1.55477 -0.907019 0
M  V30 8437 H 784.394 -0.742262 -0.120629 0
M  V30 8438 H 786.365 -2.95925 0.383552 0
M  V30 8439 C 785.114 -3.19283 -1.37673 0
M  V30 8440 H 784.437 -3.90067 -0.876801 0
M  V30 8441 H 785.877 -3.78579 -1.90929 0
M  V30 8442 C 784.336 -2.37817 -2.38631 0
M  V30 8443 O 784.866 -2.0711 -3.44192 0
M  V30 8444 N 783.072 -2.00135 -2.107 0
M  V30 8445 H 782.619 -2.25307 -1.24878 0
M  V30 8446 H 782.577 -1.45933 -2.7848 0
M  V30 8447 N 786.349 -0.21828 -1.56081 0
M  V30 8448 C 787.76 0.290166 -1.84431 0
M  V30 8449 C 788.111 1.59712 -1.13958 0
M  V30 8450 O 787.236 2.12516 -0.40815 0
M  V30 8451 C 787.831 0.53325 -3.34577 0
M  V30 8452 C 786.39 0.986011 -3.63256 0
M  V30 8453 C 785.537 0.0472798 -2.7726 0
M  V30 8454 H 788.488 -0.441548 -1.52434 0
M  V30 8455 H 788.509 1.37967 -3.54606 0
M  V30 8456 H 788.021 -0.418137 -3.85841 0
M  V30 8457 H 786.122 1.95087 -3.17446 0
M  V30 8458 H 786.235 0.862684 -4.71269 0
M  V30 8459 H 784.599 0.553471 -2.48614 0
M  V30 8460 H 785.382 -0.898966 -3.31321 0
M  V30 8461 N 787.827 1.57504 0.0551401 0
M  V30 8462 C 789.052 1.92682 0.767352 0
M  V30 8463 C 789.477 0.81614 1.69472 0
M  V30 8464 O 788.835 -0.229989 1.79835 0
M  V30 8465 C 788.883 3.26866 1.52286 0
M  V30 8466 O 787.987 3.17274 2.63459 0
M  V30 8467 H 787.328 0.630502 0.208238 0
M  V30 8468 H 789.858 2.04592 0.0184026 0
M  V30 8469 H 789.868 3.61138 1.8985 0
M  V30 8470 H 788.543 4.07276 0.842541 0
M  V30 8471 H 787.12 2.94589 2.2863 0
M  V30 8472 N 789.305 -0.326896 1.54172 0
M  V30 8473 C 790.235 -1.40741 1.86317 0
M  V30 8474 C 791.216 -1.54125 0.719684 0
M  V30 8475 O 792.401 -1.6806 0.973117 0
M  V30 8476 C 789.531 -2.77557 2.08757 0
M  V30 8477 C 788.485 -2.78965 3.24596 0
M  V30 8478 C 787.811 -4.18824 3.32401 0
M  V30 8479 C 789.111 -2.4301 4.62324 0
M  V30 8480 H 790.805 -1.14088 2.76811 0
M  V30 8481 H 788.351 -0.547389 1.3319 0
M  V30 8482 H 790.304 -3.53209 2.29829 0
M  V30 8483 H 789.028 -3.0568 1.15009 0
M  V30 8484 H 787.687 -2.05767 3.03406 0
M  V30 8485 H 787.335 -4.44083 2.36218 0
M  V30 8486 H 787.035 -4.20673 4.10253 0
M  V30 8487 H 788.559 -4.96294 3.55703 0
M  V30 8488 H 789.973 -3.08375 4.83299 0
M  V30 8489 H 788.37 -2.56116 5.42701 0
M  V30 8490 H 789.44 -1.38165 4.64799 0
M  V30 8491 N 790.784 -1.46188 -0.588786 0
M  V30 8492 C 791.731 -1.56292 -1.69828 0
M  V30 8493 C 792.701 -0.407581 -1.61022 0
M  V30 8494 O 793.886 -0.623532 -1.80324 0
M  V30 8495 C 791.026 -1.55341 -3.08161 0
M  V30 8496 C 790.139 -2.81564 -3.27636 0
M  V30 8497 C 789.274 -2.72158 -4.56183 0
M  V30 8498 C 788.313 -3.93348 -4.68981 0
M  V30 8499 N 787.45 -3.82365 -5.88848 0
M  V30 8500 H 792.29 -2.51066 -1.6053 0
M  V30 8501 H 789.827 -1.24562 -0.782474 0
M  V30 8502 H 791.785 -1.52776 -3.88221 0
M  V30 8503 H 790.415 -0.641034 -3.16371 0
M  V30 8504 H 789.467 -2.94136 -2.41223 0
M  V30 8505 H 790.779 -3.714 -3.32962 0
M  V30 8506 H 789.933 -2.67665 -5.44464 0
M  V30 8507 H 788.672 -1.79953 -4.53286 0
M  V30 8508 H 787.677 -3.98181 -3.7912 0
M  V30 8509 H 788.902 -4.86643 -4.73662 0
M  V30 8510 H 786.848 -2.92942 -5.86959 0
M  V30 8511 H 786.765 -4.65851 -5.95415 0
M  V30 8512 H 788.033 -3.81836 -6.79575 0
M  V30 8513 N 792.262 0.832906 -1.33792 0
M  V30 8514 C 793.539 1.57359 -1.16178 0
M  V30 8515 C 793.919 2.09372 0.269532 0
M  V30 8516 O 793.267 1.89993 1.26944 0
M  V30 8517 C 793.477 2.70279 -2.20795 0
M  V30 8518 C 794.825 3.39305 -2.55259 0
M  V30 8519 O 795.849 2.80526 -2.19508 0
M  V30 8520 O 794.708 4.45428 -3.16632 0
M  V30 8521 H 791.802 0.694025 -0.449731 0
M  V30 8522 H 794.348 0.875144 -1.45394 0
M  V30 8523 H 793.12 2.29527 -3.16911 0
M  V30 8524 H 792.743 3.47782 -1.927 0
M  V30 8525 N 793.74 1.17359 1.05189 0
M  V30 8526 C 794.989 0.956412 1.77583 0
M  V30 8527 C 795.302 -0.516018 1.88671 0
M  V30 8528 O 796.508 -0.851401 2.57805 0
M  V30 8529 C 794.964 1.66203 3.19225 0
M  V30 8530 C 794.572 3.17299 3.16267 0
M  V30 8531 C 796.316 1.52725 3.96075 0
M  V30 8532 C 794.223 3.8055 4.52698 0
M  V30 8533 H 793.153 0.354204 0.665624 0
M  V30 8534 H 795.804 1.40612 1.17901 0
M  V30 8535 H 794.186 1.14006 3.79234 0
M  V30 8536 H 795.36 3.76431 2.65776 0
M  V30 8537 H 793.675 3.3079 2.52917 0
M  V30 8538 H 796.272 1.97351 4.96947 0
M  V30 8539 H 796.615 0.477803 4.13549 0
M  V30 8540 H 797.148 2.02139 3.42614 0
M  V30 8541 H 793.887 4.85492 4.4043 0
M  V30 8542 H 793.407 3.26206 5.03339 0
M  V30 8543 H 795.086 3.82757 5.21638 0
M  V30 8544 N 795.218 -1.23913 0.973828 0
M  V30 8545 C 796.151 -2.23647 0.45355 0
M  V30 8546 C 797.129 -1.55485 -0.475724 0
M  V30 8547 O 798.313 -1.84083 -0.405689 0
M  V30 8548 C 795.44 -3.36942 -0.344594 0
M  V30 8549 C 794.486 -4.23221 0.527859 0
M  V30 8550 S 795.319 -4.97877 1.97177 0
M  V30 8551 C 796.475 -6.14627 1.18258 0
M  V30 8552 H 796.708 -2.67433 1.29873 0
M  V30 8553 H 794.241 -1.33289 0.779322 0
M  V30 8554 H 796.199 -4.02647 -0.799103 0
M  V30 8555 H 794.86 -2.91703 -1.16482 0
M  V30 8556 H 794.053 -5.03928 -0.0852555 0
M  V30 8557 H 793.655 -3.6255 0.918344 0
M  V30 8558 H 795.947 -6.76066 0.440629 0
M  V30 8559 H 796.89 -6.80311 1.96425 0
M  V30 8560 H 797.298 -5.6009 0.704256 0
M  V30 8561 N 796.696 -0.74468 -1.38897 0
M  V30 8562 C 797.626 -0.126355 -2.33158 0
M  V30 8563 C 798.607 0.713517 -1.54412 0
M  V30 8564 O 799.792 0.656523 -1.82766 0
M  V30 8565 C 796.922 0.774375 -3.38557 0
M  V30 8566 C 795.876 0.0379214 -4.27983 0
M  V30 8567 C 795.202 1.05631 -5.24162 0
M  V30 8568 C 796.502 -1.12523 -5.10035 0
M  V30 8569 H 798.196 -0.913744 -2.85116 0
M  V30 8570 H 795.742 -0.440847 -1.37086 0
M  V30 8571 H 797.695 1.21655 -4.03458 0
M  V30 8572 H 796.419 1.59399 -2.85061 0
M  V30 8573 H 795.078 -0.384733 -3.64576 0
M  V30 8574 H 794.726 1.86975 -4.66958 0
M  V30 8575 H 794.426 0.568261 -5.84846 0
M  V30 8576 H 795.95 1.49799 -5.9194 0
M  V30 8577 H 797.364 -0.761037 -5.68226 0
M  V30 8578 H 795.761 -1.54355 -5.79909 0
M  V30 8579 H 796.831 -1.94237 -4.44297 0
M  V30 8580 N 798.174 1.49689 -0.493057 0
M  V30 8581 C 799.137 2.27502 0.278485 0
M  V30 8582 C 800.137 1.33184 0.901037 0
M  V30 8583 O 801.327 1.56415 0.766801 0
M  V30 8584 C 798.459 3.10881 1.39878 0
M  V30 8585 H 799.652 2.97163 -0.404219 0
M  V30 8586 H 797.205 1.54324 -0.247774 0
M  V30 8587 H 797.94 2.45767 2.11587 0
M  V30 8588 H 797.725 3.80219 0.957924 0
M  V30 8589 H 799.215 3.69673 1.94247 0
M  V30 8590 N 799.652 0.226554 1.55963 0
M  V30 8591 C 800.6 -0.697922 2.21882 0
M  V30 8592 C 801.594 -1.19586 1.19981 0
M  V30 8593 O 802.8 -1.15511 1.38048 0
M  V30 8594 H 799.175 -0.243501 0.711485 0
M  V30 8595 H 801.146 -0.118576 2.98164 0
M  V30 8596 C 799.895 -1.89309 2.91646 0
M  V30 8597 H 799.218 -1.51906 3.69817 0
M  V30 8598 H 800.658 -2.51762 3.41162 0
M  V30 8599 C 799.117 -2.75162 1.94391 0
M  V30 8600 O 799.647 -3.74071 1.46402 0
M  V30 8601 N 797.853 -2.41302 1.61932 0
M  V30 8602 H 797.4 -1.60923 2.01151 0
M  V30 8603 H 797.358 -2.99023 0.971219 0
M  V30 8604 N 801.13 -1.57531 -0.0467866 0
M  V30 8605 C 802.062 -2.02156 -1.08007 0
M  V30 8606 C 803.075 -0.931434 -1.33522 0
M  V30 8607 O 804.264 -1.209 -1.31321 0
M  V30 8608 C 801.364 -2.36675 -2.42566 0
M  V30 8609 C 800.537 -3.67848 -2.36658 0
M  V30 8610 C 799.596 -3.89754 -3.53523 0
M  V30 8611 O 798.622 -4.61036 -3.33818 0
M  V30 8612 N 799.824 -3.34025 -4.74771 0
M  V30 8613 H 802.589 -2.91414 -0.699845 0
M  V30 8614 H 800.15 -1.60185 -0.235041 0
M  V30 8615 H 802.142 -2.48482 -3.19435 0
M  V30 8616 H 800.712 -1.53178 -2.72498 0
M  V30 8617 H 799.932 -3.66561 -1.45005 0
M  V30 8618 H 801.22 -4.53931 -2.29835 0
M  V30 8619 H 800.618 -2.76214 -4.93683 0
M  V30 8620 H 799.175 -3.51241 -5.49066 0
M  V30 8621 N 802.608 0.318715 -1.54344 0
M  V30 8622 C 804.019 0.89285 -1.63967 0
M  V30 8623 C 804.37 1.88712 -0.536855 0
M  V30 8624 O 803.495 2.13877 0.329457 0
M  V30 8625 C 804.09 1.62618 -2.97222 0
M  V30 8626 C 802.649 2.14897 -3.09025 0
M  V30 8627 C 801.796 0.975909 -2.5956 0
M  V30 8628 H 804.747 0.0961687 -1.58408 0
M  V30 8629 H 804.768 2.4907 -2.87653 0
M  V30 8630 H 804.28 0.902286 -3.77466 0
M  V30 8631 H 802.381 2.90387 -2.33465 0
M  V30 8632 H 802.494 2.39565 -4.14904 0
M  V30 8633 H 800.858 1.35646 -2.15574 0
M  V30 8634 H 801.641 0.266253 -3.42266 0
M  V30 8635 N 804.086 1.46499 0.581025 0
M  V30 8636 C 805.311 1.55708 1.37002 0
M  V30 8637 C 805.736 0.19942 1.8704 0
M  V30 8638 O 805.094 -0.820731 1.61659 0
M  V30 8639 C 805.142 2.56716 2.53238 0
M  V30 8640 O 804.246 2.10336 3.54729 0
M  V30 8641 H 803.587 0.523912 0.407937 0
M  V30 8642 H 806.117 1.92085 0.704602 0
M  V30 8643 H 806.127 2.76378 3.00132 0
M  V30 8644 H 804.802 3.55307 2.16171 0
M  V30 8645 H 803.379 2.00669 3.14303 0
M  V30 8646 N 805.565 -0.825799 1.34232 0
M  V30 8647 C 806.976 -1.39835 1.23706 0
M  V30 8648 C 807.327 -1.95709 -0.138649 0
M  V30 8649 O 806.452 -1.89833 -1.03886 0
M  V30 8650 C 807.047 -2.54203 2.23978 0
M  V30 8651 C 805.606 -3.07374 2.17251 0
M  V30 8652 C 804.753 -1.80232 2.10741 0
M  V30 8653 H 807.704 -0.630442 1.4564 0
M  V30 8654 H 807.725 -3.32214 1.8551 0
M  V30 8655 H 807.237 -2.13506 3.24094 0
M  V30 8656 H 805.338 -3.52583 1.20483 0
M  V30 8657 H 805.451 -3.6666 3.08379 0
M  V30 8658 H 803.815 -2.01012 1.56417 0
M  V30 8659 H 804.598 -1.41713 3.12686 0
M  V30 8660 N 807.043 -1.17915 -1.04565 0
M  V30 8661 C 808.459 -0.927761 -1.29864 0
M  V30 8662 C 808.659 0.409536 -1.97294 0
M  V30 8663 O 807.715 1.14505 -2.25044 0
M  V30 8664 C 809.028 -2.08967 -2.16225 0
M  V30 8665 C 810.576 -2.12741 -2.29587 0
M  V30 8666 C 811.051 -3.28335 -3.19312 0
M  V30 8667 N 812.542 -3.28164 -3.26898 0
M  V30 8668 C 813.277 -4.14249 -3.96466 0
M  V30 8669 N 812.773 -5.10457 -4.68407 0
M  V30 8670 N 814.566 -4.02179 -3.92694 0
M  V30 8671 H 806.717 -2.03983 -0.592011 0
M  V30 8672 H 808.98 -0.891023 -0.323701 0
M  V30 8673 H 808.686 -3.05654 -1.73979 0
M  V30 8674 H 808.56 -2.04606 -3.16885 0
M  V30 8675 H 810.947 -1.16636 -2.71072 0
M  V30 8676 H 811.028 -2.21162 -1.28535 0
M  V30 8677 H 810.672 -4.2471 -2.78539 0
M  V30 8678 H 810.602 -3.17151 -4.20384 0
M  V30 8679 H 813.093 -2.58511 -2.75646 0
M  V30 8680 H 813.406 -5.72526 -5.1907 0
M  V30 8681 H 811.751 -5.14422 -4.67328 0
M  V30 8682 H 814.942 -3.26308 -3.3562 0
M  V30 8683 H 815.115 -4.69486 -4.4664 0
M  V30 8684 N 808.521 1.23394 -0.980386 0
M  V30 8685 C 809.454 2.23404 -0.465404 0
M  V30 8686 C 810.432 1.55735 0.467471 0
M  V30 8687 O 811.616 1.84295 0.395921 0
M  V30 8688 C 808.743 3.3712 0.32672 0
M  V30 8689 C 807.789 4.22935 -0.550296 0
M  V30 8690 S 808.622 4.96824 -1.99814 0
M  V30 8691 C 809.778 6.13991 -1.21516 0
M  V30 8692 H 810.011 2.6674 -1.31289 0
M  V30 8693 H 807.544 1.32874 -0.78638 0
M  V30 8694 H 809.502 4.03065 0.777738 0
M  V30 8695 H 808.163 2.92317 1.14933 0
M  V30 8696 H 807.356 5.03966 0.0585298 0
M  V30 8697 H 806.958 3.62058 -0.937558 0
M  V30 8698 H 809.25 6.75822 -0.476476 0
M  V30 8699 H 810.193 6.7926 -2.0003 0
M  V30 8700 H 810.601 5.59708 -0.733949 0
M  V30 8701 N 809.999 0.752036 1.385 0
M  V30 8702 C 811.227 0.318274 2.04437 0
M  V30 8703 C 811.642 -1.05285 1.56718 0
M  V30 8704 O 810.999 -1.66844 0.73956 0
M  V30 8705 C 811.05 0.330106 3.5999 0
M  V30 8706 O 810.771 1.64712 4.05957 0
M  V30 8707 C 812.272 -0.117713 4.43144 0
M  V30 8708 H 809.492 0.136228 0.657026 0
M  V30 8709 H 812.036 1.02045 1.7722 0
M  V30 8710 H 810.191 -0.323323 3.86048 0
M  V30 8711 H 810.605 1.57225 5.0038 0
M  V30 8712 H 812.079 -0.0582735 5.51969 0
M  V30 8713 H 812.556 -1.16538 4.23457 0
M  V30 8714 H 813.162 0.506784 4.2227 0
M  V30 8715 N 811.477 -1.49425 0.500989 0
M  V30 8716 C 812.702 -2.07356 -0.0425154 0
M  V30 8717 C 813.127 -1.35887 -1.30063 0
M  V30 8718 O 812.485 -0.41561 -1.76472 0
M  V30 8719 C 812.533 -3.59518 -0.279188 0
M  V30 8720 O 811.637 -3.89542 -1.3539 0
M  V30 8721 H 810.978 -0.663482 0.0262207 0
M  V30 8722 H 813.508 -1.92231 0.700607 0
M  V30 8723 H 813.518 -4.04791 -0.5107 0
M  V30 8724 H 812.193 -4.10946 0.640009 0
M  V30 8725 H 810.77 -3.56079 -1.10734 0
M  V30 8726 N 812.955 -0.234822 -1.55841 0
M  V30 8727 C 814.366 0.270588 -1.84729 0
M  V30 8728 C 814.717 1.58494 -1.15646 0
M  V30 8729 O 813.842 2.12071 -0.430667 0
M  V30 8730 C 814.437 0.497733 -3.35124 0
M  V30 8731 C 812.996 0.947428 -3.64281 0
M  V30 8732 C 812.143 0.01787 -2.77294 0
M  V30 8733 H 815.094 -0.457691 -1.51957 0
M  V30 8734 H 815.115 1.34199 -3.56049 0
M  V30 8735 H 814.627 -0.459037 -3.85376 0
M  V30 8736 H 812.728 1.91709 -3.19497 0
M  V30 8737 H 812.841 0.812651 -4.72158 0
M  V30 8738 H 811.205 0.527071 -2.49187 0
M  V30 8739 H 811.988 -0.934056 -3.30349 0
M  V30 8740 N 814.433 1.57553 0.0384317 0
M  V30 8741 C 815.68 1.88841 0.731116 0
M  V30 8742 C 816.008 0.83093 1.75857 0
M  V30 8743 O 815.263 -0.169248 1.94967 0
M  V30 8744 C 815.562 3.26862 1.44554 0
M  V30 8745 C 815.228 4.47472 0.554946 0
M  V30 8746 C 813.89 4.80203 0.309621 0
M  V30 8747 C 816.242 5.21165 -0.0605204 0
M  V30 8748 C 813.57 5.8402 -0.560101 0
M  V30 8749 C 815.922 6.25905 -0.91789 0
M  V30 8750 C 814.586 6.57117 -1.17277 0
M  V30 8751 H 813.856 0.691018 0.267534 0
M  V30 8752 H 816.503 1.91498 -0.00883195 0
M  V30 8753 H 814.808 3.2015 2.25856 0
M  V30 8754 H 816.505 3.48316 1.98688 0
M  V30 8755 H 813.095 4.21874 0.756304 0
M  V30 8756 H 817.279 4.96164 0.116064 0
M  V30 8757 H 812.535 6.06583 -0.765974 0
M  V30 8758 H 816.709 6.82155 -1.40136 0
M  V30 8759 H 814.336 7.37385 -1.84843 0
M  V30 8760 N 815.911 -0.310526 1.54511 0
M  V30 8761 C 817.16 -1.0445 1.72549 0
M  V30 8762 C 817.473 -1.88748 0.513172 0
M  V30 8763 O 818.679 -2.65338 0.575165 0
M  V30 8764 C 817.135 -1.90665 3.05246 0
M  V30 8765 C 816.743 -1.11415 4.33925 0
M  V30 8766 C 818.487 -2.63719 3.32645 0
M  V30 8767 C 816.394 -1.96852 5.57677 0
M  V30 8768 H 815.324 -0.393676 0.643067 0
M  V30 8769 H 817.975 -0.302003 1.80998 0
M  V30 8770 H 816.357 -2.68864 2.90737 0
M  V30 8771 H 817.531 -0.378956 4.59239 0
M  V30 8772 H 815.846 -0.499853 4.13389 0
M  V30 8773 H 818.443 -3.27974 4.223 0
M  V30 8774 H 818.786 -3.32047 2.51098 0
M  V30 8775 H 819.319 -1.92574 3.48081 0
M  V30 8776 H 816.058 -1.33009 6.41864 0
M  V30 8777 H 815.578 -2.68069 5.36562 0
M  V30 8778 H 817.257 -2.55127 5.94575 0
M  V30 8779 N 817.389 -1.46805 -0.573248 0
M  V30 8780 C 818.614 -1.56433 -1.36175 0
M  V30 8781 C 819.039 -0.209336 -1.86932 0
M  V30 8782 O 818.397 0.812146 -1.62092 0
M  V30 8783 C 818.445 -2.58055 -2.51873 0
M  V30 8784 O 817.549 -2.12214 -3.53609 0
M  V30 8785 H 816.89 -0.526068 -0.405153 0
M  V30 8786 H 819.42 -1.92456 -0.694405 0
M  V30 8787 H 819.43 -2.77966 -2.98662 0
M  V30 8788 H 818.105 -3.56448 -2.14284 0
M  V30 8789 H 816.682 -2.02333 -3.13234 0
M  V30 8790 N 818.867 0.818669 -1.34668 0
M  V30 8791 C 819.797 1.94468 -1.29245 0
M  V30 8792 C 820.778 1.69257 -0.169101 0
M  V30 8793 O 821.963 1.90794 -0.362143 0
M  V30 8794 C 819.093 3.31001 -1.05145 0
M  V30 8795 C 818.047 3.70663 -2.13992 0
M  V30 8796 C 817.373 5.05226 -1.75074 0
M  V30 8797 C 818.673 3.82312 -3.55858 0
M  V30 8798 H 820.367 1.99263 -2.2346 0
M  V30 8799 H 817.913 0.957304 -1.07572 0
M  V30 8800 H 819.866 4.09364 -0.999949 0
M  V30 8801 H 818.59 3.26517 -0.0737312 0
M  V30 8802 H 817.249 2.94578 -2.18219 0
M  V30 8803 H 816.897 4.97233 -0.759518 0
M  V30 8804 H 816.597 5.32734 -2.47928 0
M  V30 8805 H 818.121 5.86042 -1.71427 0
M  V30 8806 H 819.535 4.50935 -3.5402 0
M  V30 8807 H 817.932 4.21278 -4.2737 0
M  V30 8808 H 819.002 2.84193 -3.9289 0
M  V30 8809 N 820.346 1.18468 1.03938 0
M  V30 8810 C 821.762 0.934635 1.29371 0
M  V30 8811 C 821.962 -0.399067 1.97509 0
M  V30 8812 O 821.018 -1.13309 2.25648 0
M  V30 8813 C 822.331 2.10111 2.15114 0
M  V30 8814 C 823.879 2.13955 2.28456 0
M  V30 8815 C 824.354 3.30024 3.17566 0
M  V30 8816 N 825.845 3.29893 3.25153 0
M  V30 8817 C 826.58 4.16346 3.94263 0
M  V30 8818 N 826.076 5.12934 4.65693 0
M  V30 8819 N 827.869 4.04256 3.90556 0
M  V30 8820 H 820.02 2.04294 0.581185 0
M  V30 8821 H 822.283 0.892727 0.318971 0
M  V30 8822 H 821.989 3.06572 1.72355 0
M  V30 8823 H 821.863 2.06283 3.15796 0
M  V30 8824 H 824.25 1.18072 2.7045 0
M  V30 8825 H 824.331 2.2184 1.2736 0
M  V30 8826 H 823.975 4.26181 2.76283 0
M  V30 8827 H 823.905 3.19376 4.18697 0
M  V30 8828 H 826.396 2.59969 2.74271 0
M  V30 8829 H 826.709 5.75271 5.16026 0
M  V30 8830 H 825.054 5.16893 4.64593 0
M  V30 8831 H 828.245 3.28083 3.33885 0
M  V30 8832 H 828.418 4.71848 4.44144 0
M  V30 8833 N 821.824 -1.22873 0.986916 0
M  V30 8834 C 823.235 -1.73264 0.695438 0
M  V30 8835 C 823.586 -1.79679 -0.788023 0
M  V30 8836 O 822.711 -1.43905 -1.61618 0
M  V30 8837 C 823.306 -3.14671 1.2557 0
M  V30 8838 C 821.865 -3.62492 1.01373 0
M  V30 8839 C 821.012 -2.40551 1.37951 0
M  V30 8840 H 823.963 -1.08304 1.15999 0
M  V30 8841 H 823.984 -3.75226 0.631322 0
M  V30 8842 H 823.496 -3.0997 2.33539 0
M  V30 8843 H 821.597 -3.72567 -0.0495917 0
M  V30 8844 H 821.71 -4.48944 1.67289 0
M  V30 8845 H 820.074 -2.41875 0.798033 0
M  V30 8846 H 820.857 -2.38516 2.46911 0
M  V30 8847 N 823.302 -0.75937 -1.38099 0
M  V30 8848 C 824.53 -0.329111 -2.04266 0
M  V30 8849 C 824.945 1.04453 -1.57274 0
M  V30 8850 O 824.302 1.66449 -0.748397 0
M  V30 8851 C 824.353 -0.349192 -3.5981 0
M  V30 8852 O 824.074 -1.66863 -4.05078 0
M  V30 8853 C 825.575 0.0942106 -4.432 0
M  V30 8854 H 822.795 -0.13971 -0.656294 0
M  V30 8855 H 825.339 -1.02984 -1.76677 0
M  V30 8856 H 823.494 0.302846 -3.86214 0
M  V30 8857 H 823.908 -1.59877 -4.9954 0
M  V30 8858 H 825.382 0.0290004 -5.51992 0
M  V30 8859 H 825.859 1.1429 -4.24069 0
M  V30 8860 H 826.465 -0.529171 -4.21995 0
M  V30 8861 N 824.78 1.49157 -0.508906 0
M  V30 8862 C 825.728 2.30922 0.278906 0
M  V30 8863 C 826.722 1.39889 0.955382 0
M  V30 8864 O 827.928 1.56901 0.882169 0
M  V30 8865 H 824.303 0.744087 0.108805 0
M  V30 8866 H 826.274 2.95277 -0.430583 0
M  V30 8867 C 825.023 3.21432 1.32576 0
M  V30 8868 H 824.346 3.91413 0.814634 0
M  V30 8869 H 825.786 3.81568 1.84882 0
M  V30 8870 C 824.245 2.41583 2.34817 0
M  V30 8871 O 824.775 2.1256 3.40854 0
M  V30 8872 N 822.981 2.03462 2.07489 0
M  V30 8873 H 822.528 2.27265 1.21278 0
M  V30 8874 H 822.486 1.50345 2.76123 0
M  V30 8875 N 826.258 0.243083 1.55714 0
M  V30 8876 C 827.669 -0.260788 1.8487 0
M  V30 8877 C 828.02 -1.57879 1.16485 0
M  V30 8878 O 827.145 -2.1184 0.441908 0
M  V30 8879 C 827.74 -0.479954 3.35383 0
M  V30 8880 C 826.299 -0.928096 3.64778 0
M  V30 8881 C 825.446 -0.00316416 2.773 0
M  V30 8882 H 828.397 0.465743 1.51712 0
M  V30 8883 H 828.418 -1.32308 3.56756 0
M  V30 8884 H 827.93 0.479468 3.85127 0
M  V30 8885 H 826.031 -1.90012 3.20509 0
M  V30 8886 H 826.144 -0.7876 4.72582 0
M  V30 8887 H 824.508 -0.513849 2.49463 0
M  V30 8888 H 825.291 0.951562 3.29849 0
M  V30 8889 N 827.736 -1.57571 -0.0300757 0
M  V30 8890 C 828.699 -2.05468 -1.01565 0
M  V30 8891 C 829.699 -0.958628 -1.29101 0
M  V30 8892 O 830.889 -1.22228 -1.24121 0
M  V30 8893 C 828.021 -2.47077 -2.34874 0
M  V30 8894 H 829.214 -2.93797 -0.601936 0
M  V30 8895 H 826.767 -1.53828 -0.276878 0
M  V30 8896 H 827.502 -1.61901 -2.80996 0
M  V30 8897 H 827.287 -3.27097 -2.16218 0
M  V30 8898 H 828.777 -2.84564 -3.05635 0
M  V30 8899 N 829.214 0.302327 -1.54673 0
M  V30 8900 C 830.147 1.39738 -1.80412 0
M  V30 8901 C 831.125 1.48813 -0.655241 0
M  V30 8902 O 832.309 1.65895 -0.89505 0
M  V30 8903 C 829.436 2.7766 -1.93966 0
M  V30 8904 C 828.482 2.86014 -3.16383 0
M  V30 8905 S 829.315 2.48246 -4.74483 0
M  V30 8906 C 830.471 3.88198 -4.90971 0
M  V30 8907 H 830.704 1.17696 -2.73011 0
M  V30 8908 H 828.237 0.500364 -1.46068 0
M  V30 8909 H 830.195 3.571 -2.0246 0
M  V30 8910 H 828.856 2.96971 -1.02307 0
M  V30 8911 H 828.049 3.87174 -3.22664 0
M  V30 8912 H 827.651 2.14568 -3.06328 0
M  V30 8913 H 829.943 4.83181 -4.74913 0
M  V30 8914 H 830.886 3.86887 -5.93063 0
M  V30 8915 H 831.294 3.78139 -4.19131 0
M  V30 8916 N 830.692 1.47107 0.565454 0
M  V30 8917 C 831.624 1.55024 1.6882 0
M  V30 8918 C 832.637 0.4371 1.56822 0
M  V30 8919 O 833.826 0.706315 1.63931 0
M  V30 8920 C 830.926 1.43069 3.0722 0
M  V30 8921 C 830.099 2.68807 3.45053 0
M  V30 8922 C 829.158 2.50806 4.62583 0
M  V30 8923 O 828.184 3.24593 4.67577 0
M  V30 8924 N 829.386 1.58093 5.58558 0
M  V30 8925 H 832.151 2.51836 1.62477 0
M  V30 8926 H 829.712 1.43382 0.751885 0
M  V30 8927 H 831.704 1.28773 3.83666 0
M  V30 8928 H 830.274 0.543721 3.07835 0
M  V30 8929 H 829.494 2.97923 2.58138 0
M  V30 8930 H 830.782 3.52298 3.67101 0
M  V30 8931 H 830.18 0.972807 5.57273 0
M  V30 8932 H 828.737 1.49753 6.34364 0
M  V30 8933 N 832.17 -0.811516 1.35101 0
M  V30 8934 C 833.133 -1.90467 1.27495 0
M  V30 8935 C 834.133 -1.59703 0.187516 0
M  V30 8936 O 835.323 -1.68528 0.440896 0
M  V30 8937 C 832.455 -3.26774 0.971154 0
M  V30 8938 H 833.648 -1.98631 2.2469 0
M  V30 8939 H 831.201 -1.00681 1.19553 0
M  V30 8940 H 831.936 -3.243 0.0028557 0
M  V30 8941 H 831.721 -3.50488 1.75785 0
M  V30 8942 H 833.211 -4.06804 0.943414 0
M  V30 8943 N 833.648 -1.19017 -1.03309 0
M  V30 8944 C 834.578 -0.94772 -2.13402 0
M  V30 8945 C 835.559 0.117383 -1.69694 0
M  V30 8946 O 836.744 -0.0367733 -1.94165 0
M  V30 8947 C 833.874 -0.480977 -3.43953 0
M  V30 8948 C 832.828 -1.48743 -4.01322 0
M  V30 8949 C 832.154 -0.877924 -5.27443 0
M  V30 8950 C 833.454 -2.86642 -4.36616 0
M  V30 8951 H 835.148 -1.86846 -2.33942 0
M  V30 8952 H 832.694 -0.899781 -1.12427 0
M  V30 8953 H 834.647 -0.298677 -4.2034 0
M  V30 8954 H 833.371 0.475348 -3.23122 0
M  V30 8955 H 832.03 -1.65681 -3.27025 0
M  V30 8956 H 831.678 0.0858232 -5.02927 0
M  V30 8957 H 831.378 -1.54996 -5.66789 0
M  V30 8958 H 832.902 -0.706326 -6.06501 0
M  V30 8959 H 834.316 -2.73312 -5.03958 0
M  V30 8960 H 832.713 -3.50599 -4.87032 0
M  V30 8961 H 833.783 -3.39617 -3.46105 0
M  V30 8962 N 835.127 1.22348 -0.993418 0
M  V30 8963 C 836.352 1.95666 -0.687727 0
M  V30 8964 C 836.777 1.72883 0.741161 0
M  V30 8965 O 836.135 1.00837 1.50671 0
M  V30 8966 C 836.183 3.46457 -0.99998 0
M  V30 8967 O 835.287 4.12281 -0.0989386 0
M  V30 8968 H 834.628 0.612102 -0.257346 0
M  V30 8969 H 837.158 1.55428 -1.33054 0
M  V30 8970 H 837.168 3.96976 -0.942035 0
M  V30 8971 H 835.843 3.62365 -2.04118 0
M  V30 8972 H 834.42 3.72295 -0.212413 0
M  V30 8973 N 836.605 0.766683 1.37694 0
M  V30 8974 C 837.83 0.338715 2.04615 0
M  V30 8975 C 838.255 -1.02918 1.57447 0
M  V30 8976 O 837.613 -1.65849 0.732386 0
M  V30 8977 C 837.661 0.385284 3.58536 0
M  V30 8978 O 836.765 -0.616081 4.07772 0
M  V30 8979 H 836.106 0.147527 0.647404 0
M  V30 8980 H 838.636 1.04146 1.7611 0
M  V30 8981 H 838.646 0.240782 4.07289 0
M  V30 8982 H 837.321 1.38325 3.92223 0
M  V30 8983 H 835.898 -0.435115 3.70353 0
M  V30 8984 N 838.083 -1.48885 0.516809 0
M  V30 8985 C 839.015 -2.27357 -0.290061 0
M  V30 8986 C 840.028 -1.34558 -0.916406 0
M  V30 8987 O 841.217 -1.59715 -0.797073 0
M  V30 8988 C 838.317 -3.07496 -1.42476 0
M  V30 8989 C 837.49 -4.27982 -0.902793 0
M  V30 8990 C 836.549 -4.90038 -1.91701 0
M  V30 8991 O 835.575 -5.49643 -1.47922 0
M  V30 8992 N 836.777 -4.811 -3.24843 0
M  V30 8993 H 839.542 -2.97244 0.382884 0
M  V30 8994 H 837.103 -1.58064 0.35032 0
M  V30 8995 H 839.095 -3.45882 -2.10113 0
M  V30 8996 H 837.665 -2.40115 -2.00159 0
M  V30 8997 H 836.885 -3.94167 -0.0508272 0
M  V30 8998 H 838.173 -5.06003 -0.532723 0
M  V30 8999 H 837.571 -4.33801 -3.63088 0
M  V30 9000 H 836.128 -5.23625 -3.8815 0
M  V30 9001 N 839.561 -0.251338 -1.55583 0
M  V30 9002 C 840.508 0.646337 -2.21565 0
M  V30 9003 C 841.478 1.16796 -1.18102 0
M  V30 9004 O 842.663 1.22162 -1.46564 0
M  V30 9005 C 839.803 1.83557 -2.92234 0
M  V30 9006 C 838.916 1.35006 -4.10363 0
M  V30 9007 C 838.051 2.4992 -4.68736 0
M  V30 9008 C 837.09 1.98253 -5.79105 0
M  V30 9009 N 836.227 3.06551 -6.31642 0
M  V30 9010 H 841.067 0.0769881 -2.97901 0
M  V30 9011 H 838.604 0.026238 -1.47077 0
M  V30 9012 H 840.562 2.53425 -3.31408 0
M  V30 9013 H 839.192 2.37733 -2.18364 0
M  V30 9014 H 838.244 0.545274 -3.76472 0
M  V30 9015 H 839.556 0.931435 -4.90026 0
M  V30 9016 H 838.71 3.27823 -5.10507 0
M  V30 9017 H 837.449 2.95086 -3.88298 0
M  V30 9018 H 836.454 1.18822 -5.36807 0
M  V30 9019 H 837.679 1.54051 -6.61396 0
M  V30 9020 H 835.625 3.51143 -5.54107 0
M  V30 9021 H 835.542 2.69033 -7.06511 0
M  V30 9022 H 836.81 3.84499 -6.78071 0
M  V30 9023 N 841.039 1.57585 0.0217189 0
M  V30 9024 C 842.455 1.55072 0.377484 0
M  V30 9025 C 842.655 0.978423 1.76151 0
M  V30 9026 O 841.711 0.602688 2.45202 0
M  V30 9027 C 843.024 2.99462 0.272605 0
M  V30 9028 C 844.572 3.11047 0.349148 0
M  V30 9029 C 845.047 4.57182 0.273636 0
M  V30 9030 N 846.538 4.62007 0.332206 0
M  V30 9031 C 847.273 5.72631 0.296782 0
M  V30 9032 N 846.769 6.92472 0.21322 0
M  V30 9033 N 848.562 5.61028 0.347053 0
M  V30 9034 H 840.713 1.93133 -0.883925 0
M  V30 9035 H 842.976 0.886151 -0.33681 0
M  V30 9036 H 842.682 3.45088 -0.67878 0
M  V30 9037 H 842.556 3.61901 1.06335 0
M  V30 9038 H 844.943 2.65364 1.29097 0
M  V30 9039 H 845.024 2.51425 -0.471085 0
M  V30 9040 H 844.668 5.03534 -0.664548 0
M  V30 9041 H 844.598 5.14724 1.11207 0
M  V30 9042 H 847.089 3.75788 0.399003 0
M  V30 9043 H 847.402 7.72563 0.191492 0
M  V30 9044 H 845.747 6.94769 0.179161 0
M  V30 9045 H 848.938 4.66298 0.410378 0
M  V30 9046 H 849.111 6.47229 0.315979 0
M  V30 9047 N 842.517 -0.29412 1.54831 0
M  V30 9048 C 843.427 -1.3854 1.89325 0
M  V30 9049 C 844.443 -1.55127 0.788133 0
M  V30 9050 O 845.619 -1.6966 1.08524 0
M  V30 9051 C 842.684 -2.72809 2.13954 0
M  V30 9052 C 841.745 -2.65148 3.37631 0
M  V30 9053 C 840.978 -3.93014 3.61076 0
M  V30 9054 O 841.201 -4.927 2.87406 0
M  V30 9055 O 840.135 -3.94491 4.54599 0
M  V30 9056 H 843.961 -1.12289 2.82179 0
M  V30 9057 H 841.546 -0.490793 1.41108 0
M  V30 9058 H 843.428 -3.52238 2.31315 0
M  V30 9059 H 842.103 -2.9889 1.24285 0
M  V30 9060 H 841.01 -1.84168 3.25627 0
M  V30 9061 H 842.343 -2.4402 4.27452 0
M  V30 9062 N 843.995 -1.47404 -0.557645 0
M  V30 9063 C 845.241 -1.54235 -1.31679 0
M  V30 9064 C 845.574 -0.203782 -1.93128 0
M  V30 9065 O 844.849 0.787536 -1.77843 0
M  V30 9066 C 845.132 -2.66003 -2.42723 0
M  V30 9067 C 844.985 -4.09475 -1.86145 0
M  V30 9068 C 846.304 -2.73685 -3.44652 0
M  V30 9069 H 843.423 -0.561466 -0.477415 0
M  V30 9070 H 846.065 -1.79459 -0.624067 0
M  V30 9071 H 844.215 -2.44627 -3.01811 0
M  V30 9072 H 845.887 -4.42213 -1.31321 0
M  V30 9073 H 844.13 -4.17774 -1.16823 0
M  V30 9074 H 844.801 -4.83451 -2.66418 0
M  V30 9075 H 847.277 -2.92968 -2.95481 0
M  V30 9076 H 846.153 -3.53665 -4.19777 0
M  V30 9077 H 846.414 -1.80726 -4.03473 0
M  V30 9078 N 845.473 0.80434 -1.35529 0
M  V30 9079 C 846.423 1.90565 -1.25175 0
M  V30 9080 C 847.407 1.60232 -0.146512 0
M  V30 9081 O 848.599 1.72918 -0.377943 0
M  V30 9082 C 845.728 3.2754 -1.02823 0
M  V30 9083 C 844.814 3.63932 -2.17748 0
M  V30 9084 N 845.205 3.71744 -3.42986 0
M  V30 9085 C 843.503 3.93901 -2.09184 0
M  V30 9086 C 844.204 4.03944 -4.18574 0
M  V30 9087 N 843.18 4.18146 -3.47355 0
M  V30 9088 H 846.982 1.9481 -2.20059 0
M  V30 9089 H 844.496 0.99905 -1.28034 0
M  V30 9090 H 846.493 4.06281 -0.934941 0
M  V30 9091 H 845.153 3.2458 -0.0882551 0
M  V30 9092 H 846.164 3.54765 -3.77309 0
M  V30 9093 H 842.841 3.98954 -1.23054 0
M  V30 9094 H 844.231 4.17036 -5.26811 0
M  V30 9095 N 846.951 1.19563 1.02676 0
M  V30 9096 C 847.899 0.931942 2.13114 0
M  V30 9097 C 848.893 -0.113007 1.69023 0
M  V30 9098 O 850.099 0.0364298 1.79963 0
M  V30 9099 H 846.474 0.283981 0.696318 0
M  V30 9100 H 848.445 1.86991 2.32545 0
M  V30 9101 C 847.194 0.489461 3.44238 0
M  V30 9102 H 846.517 1.28508 3.78584 0
M  V30 9103 H 847.957 0.34408 4.22602 0
M  V30 9104 C 846.416 -0.796761 3.27343 0
M  V30 9105 O 846.946 -1.85767 3.56165 0
M  V30 9106 N 845.152 -0.754824 2.80626 0
M  V30 9107 H 844.699 0.108778 2.5737 0
M  V30 9108 H 844.657 -1.6158 2.69702 0
M  V30 9109 N 848.429 -1.21819 0.999893 0
M  V30 9110 C 849.845 -1.42847 0.711824 0
M  V30 9111 C 850.045 -1.88391 -0.714928 0
M  V30 9112 O 849.101 -2.0422 -1.48494 0
M  V30 9113 C 850.414 -2.46417 1.72334 0
M  V30 9114 C 851.962 -2.60207 1.73958 0
M  V30 9115 C 852.437 -3.67005 2.73992 0
M  V30 9116 N 853.928 -3.7447 2.72628 0
M  V30 9117 C 854.663 -4.56718 3.46693 0
M  V30 9118 N 854.159 -5.42904 4.3038 0
M  V30 9119 N 855.952 -4.51094 3.35366 0
M  V30 9120 H 848.103 -0.905656 1.92124 0
M  V30 9121 H 850.366 -0.459893 0.828977 0
M  V30 9122 H 850.072 -2.19914 2.74465 0
M  V30 9123 H 849.946 -3.45137 1.52186 0
M  V30 9124 H 852.333 -2.8605 0.725217 0
M  V30 9125 H 852.414 -1.61739 1.98177 0
M  V30 9126 H 852.058 -3.41908 3.75582 0
M  V30 9127 H 851.988 -4.65058 2.4704 0
M  V30 9128 H 854.479 -3.12895 2.11909 0
M  V30 9129 H 854.792 -6.02704 4.83702 0
M  V30 9130 H 853.137 -5.42463 4.34464 0
M  V30 9131 H 856.328 -3.82791 2.69423 0
M  V30 9132 H 856.501 -5.1496 3.93344 0
M  V30 9133 N 849.908 -0.773975 -1.37286 0
M  V30 9134 C 851.133 -0.349561 -2.04433 0
M  V30 9135 C 851.558 1.02082 -1.5799 0
M  V30 9136 O 850.916 1.65458 -0.741172 0
M  V30 9137 C 850.964 -0.404292 -3.58326 0
M  V30 9138 O 850.068 0.594447 -4.08093 0
M  V30 9139 H 849.409 -0.150959 -0.646612 0
M  V30 9140 H 851.939 -1.05079 -1.75555 0
M  V30 9141 H 851.949 -0.262378 -4.07155 0
M  V30 9142 H 850.624 -1.40403 -3.91484 0
M  V30 9143 H 849.201 0.415468 -3.70578 0
M  V30 9144 N 851.386 1.48609 -0.524698 0
M  V30 9145 C 852.797 1.86516 -0.0828846 0
M  V30 9146 C 853.148 1.43478 1.33822 0
M  V30 9147 O 852.273 0.823139 2.00133 0
M  V30 9148 C 852.868 3.38495 -0.143639 0
M  V30 9149 C 851.427 3.75615 0.242951 0
M  V30 9150 C 850.574 2.72649 -0.505747 0
M  V30 9151 H 853.525 1.40589 -0.736233 0
M  V30 9152 H 853.546 3.74977 0.645955 0
M  V30 9153 H 853.058 3.69789 -1.17805 0
M  V30 9154 H 851.159 3.49935 1.27971 0
M  V30 9155 H 851.272 4.7901 -0.0929834 0
M  V30 9156 H 849.636 2.54656 0.0473482 0
M  V30 9157 H 850.419 3.06786 -1.54069 0
M  V30 9158 N 852.864 0.259585 1.55447 0
M  V30 9159 C 854.11 -0.362143 1.9954 0
M  V30 9160 C 854.443 -1.5666 1.14767 0
M  V30 9161 O 853.718 -1.93319 0.214025 0
M  V30 9162 C 854.001 -0.759588 3.51998 0
M  V30 9163 C 853.854 0.451134 4.47532 0
M  V30 9164 C 855.173 -1.60186 4.09913 0
M  V30 9165 H 852.292 -0.130157 0.725416 0
M  V30 9166 H 854.934 0.363431 1.86492 0
M  V30 9167 H 853.084 -1.3778 3.63248 0
M  V30 9168 H 854.756 1.08965 4.48246 0
M  V30 9169 H 852.999 1.092 4.19831 0
M  V30 9170 H 853.67 0.129518 5.51848 0
M  V30 9171 H 856.146 -1.0799 4.01842 0
M  V30 9172 H 855.022 -1.84879 5.16828 0
M  V30 9173 H 855.283 -2.57787 3.59163 0
M  V30 9174 N 854.342 -1.57594 -0.0133615 0
M  V30 9175 C 855.567 -1.94649 -0.715996 0
M  V30 9176 C 855.992 -0.860786 -1.67249 0
M  V30 9177 O 855.35 0.182228 -1.80382 0
M  V30 9178 C 855.398 -3.30789 -1.43566 0
M  V30 9179 O 854.502 -3.24148 -2.54955 0
M  V30 9180 H 853.843 -0.635801 -0.191449 0
M  V30 9181 H 856.373 -2.04569 0.0358478 0
M  V30 9182 H 856.383 -3.66045 -1.80208 0
M  V30 9183 H 855.058 -4.09367 -0.734263 0
M  V30 9184 H 853.635 -3.00548 -2.20739 0
M  V30 9185 N 855.82 0.285905 -1.54985 0
M  V30 9186 C 857.067 1.0192 -1.74982 0
M  V30 9187 C 857.395 1.86743 -0.543816 0
M  V30 9188 O 856.65 1.89874 0.473972 0
M  V30 9189 C 856.949 1.94193 -3.0004 0
M  V30 9190 C 856.615 1.25225 -4.33162 0
M  V30 9191 C 855.277 1.06149 -4.69346 0
M  V30 9192 C 857.629 0.760427 -5.15623 0
M  V30 9193 C 854.957 0.365991 -5.85557 0
M  V30 9194 C 857.309 0.0785787 -6.32551 0
M  V30 9195 C 855.973 -0.124002 -6.67385 0
M  V30 9196 H 855.243 0.372951 -0.640304 0
M  V30 9197 H 857.89 0.292652 -1.89251 0
M  V30 9198 H 856.195 2.73426 -2.80616 0
M  V30 9199 H 857.892 2.51029 -3.12707 0
M  V30 9200 H 854.482 1.41081 -4.04715 0
M  V30 9201 H 858.666 0.895466 -4.88155 0
M  V30 9202 H 853.922 0.198193 -6.11079 0
M  V30 9203 H 858.096 -0.310339 -6.95708 0
M  V30 9204 H 855.723 -0.664918 -7.57287 0
M  V30 9205 N 857.298 1.47698 0.54982 0
M  V30 9206 C 858.714 1.3338 0.876468 0
M  V30 9207 C 858.914 0.329837 1.98782 0
M  V30 9208 O 857.97 -0.256022 2.51199 0
M  V30 9209 C 859.283 2.72903 1.26272 0
M  V30 9210 C 860.831 2.81243 1.37373 0
M  V30 9211 C 861.306 4.21423 1.79351 0
M  V30 9212 N 862.797 4.24 1.86489 0
M  V30 9213 C 863.532 5.29386 2.20313 0
M  V30 9214 N 863.028 6.4507 2.527 0
M  V30 9215 N 864.821 5.16768 2.2115 0
M  V30 9216 H 856.972 2.11603 -0.183781 0
M  V30 9217 H 859.235 0.947798 -0.0195601 0
M  V30 9218 H 858.941 3.47836 0.519889 0
M  V30 9219 H 858.815 3.05151 2.21727 0
M  V30 9220 H 861.202 2.06577 2.10737 0
M  V30 9221 H 861.283 2.52639 0.400882 0
M  V30 9222 H 860.927 4.96597 1.06555 0
M  V30 9223 H 860.857 4.47456 2.77652 0
M  V30 9224 H 863.348 3.40547 1.63817 0
M  V30 9225 H 863.661 7.21236 2.77557 0
M  V30 9226 H 862.006 6.48377 2.50263 0
M  V30 9227 H 865.197 4.25416 1.95293 0
M  V30 9228 H 865.37 5.99004 2.4718 0
M  V30 9229 N 858.776 -0.797141 1.35954 0
M  V30 9230 C 859.686 -1.94088 1.31784 0
M  V30 9231 C 860.702 -1.72588 0.221227 0
M  V30 9232 O 861.878 -1.96256 0.452255 0
M  V30 9233 C 858.943 -3.28828 1.09878 0
M  V30 9234 C 858.004 -3.63158 2.28942 0
M  V30 9235 C 857.237 -4.91469 2.08072 0
M  V30 9236 O 857.46 -5.60616 1.05196 0
M  V30 9237 O 856.394 -5.24277 2.95664 0
M  V30 9238 H 860.22 -2.00554 2.28061 0
M  V30 9239 H 857.805 -0.936288 1.16422 0
M  V30 9240 H 859.687 -4.09473 0.995485 0
M  V30 9241 H 858.362 -3.23271 0.16659 0
M  V30 9242 H 857.269 -2.82851 2.44839 0
M  V30 9243 H 858.602 -3.7343 3.20641 0
M  V30 9244 N 860.254 -1.20106 -1.0204 0
M  V30 9245 C 861.502 -1.0069 -1.75231 0
M  V30 9246 C 861.823 0.462491 -1.89436 0
M  V30 9247 O 861.093 1.33455 -1.4341 0
M  V30 9248 H 859.673 -0.369576 -0.649171 0
M  V30 9249 H 862.335 -1.51149 -1.23044 0
M  V30 9250 H 861.431 -1.46205 -2.75736 0
M  V30 9251 N 861.732 1.21287 -1.00634 0
M  V30 9252 C 863.148 1.42467 -0.719389 0
M  V30 9253 C 863.348 1.88767 0.704927 0
M  V30 9254 O 862.404 2.05004 1.47409 0
M  V30 9255 C 863.717 2.455 -1.73639 0
M  V30 9256 C 865.265 2.59281 -1.75335 0
M  V30 9257 C 865.74 3.65547 -2.75934 0
M  V30 9258 N 867.231 3.73019 -2.74611 0
M  V30 9259 C 867.966 4.54873 -3.4911 0
M  V30 9260 N 867.462 5.40614 -4.33253 0
M  V30 9261 N 869.255 4.49309 -3.37754 0
M  V30 9262 H 861.406 0.895454 -1.92602 0
M  V30 9263 H 863.669 0.455491 -0.831404 0
M  V30 9264 H 863.375 2.18455 -2.75627 0
M  V30 9265 H 863.249 3.44325 -1.54014 0
M  V30 9266 H 865.636 2.85661 -0.740377 0
M  V30 9267 H 865.717 1.60685 -1.99032 0
M  V30 9268 H 865.361 3.39911 -3.77389 0
M  V30 9269 H 865.291 4.63741 -2.49503 0
M  V30 9270 H 867.782 3.11766 -2.13565 0
M  V30 9271 H 868.095 6.0013 -4.86892 0
M  V30 9272 H 866.44 5.40151 -4.37335 0
M  V30 9273 H 869.631 3.81357 -2.71449 0
M  V30 9274 H 869.804 5.12867 -3.9607 0
M  V30 9275 N 863.21 0.781244 1.36873 0
M  V30 9276 C 864.626 0.461968 1.52768 0
M  V30 9277 C 864.826 -1.02099 1.73719 0
M  V30 9278 O 863.882 -1.80665 1.76399 0
M  V30 9279 C 865.195 1.2853 2.71846 0
M  V30 9280 C 866.743 1.27817 2.85713 0
M  V30 9281 C 867.218 2.08506 4.07786 0
M  V30 9282 N 868.709 2.05909 4.14917 0
M  V30 9283 C 869.444 2.65118 5.08429 0
M  V30 9284 N 868.94 3.33152 6.07438 0
M  V30 9285 N 870.733 2.54896 5.00983 0
M  V30 9286 H 862.884 1.74198 1.21527 0
M  V30 9287 H 865.147 0.740027 0.592506 0
M  V30 9288 H 864.853 2.3366 2.62861 0
M  V30 9289 H 864.727 0.920981 3.65784 0
M  V30 9290 H 867.114 0.234817 2.94164 0
M  V30 9291 H 867.195 1.68219 1.92707 0
M  V30 9292 H 866.839 3.12867 4.00096 0
M  V30 9293 H 866.769 1.65479 4.99924 0
M  V30 9294 H 869.26 1.56386 3.44023 0
M  V30 9295 H 869.573 3.75681 6.75339 0
M  V30 9296 H 867.918 3.37253 6.07689 0
M  V30 9297 H 871.109 2.01352 4.22581 0
M  V30 9298 H 871.282 3.01332 5.73675 0
M  V30 9299 N 864.689 -1.48329 0.532571 0
M  V30 9300 C 865.652 -2.2816 -0.218069 0
M  V30 9301 C 866.652 -1.35526 -0.865409 0
M  V30 9302 O 867.842 -1.58394 -0.725061 0
M  V30 9303 C 864.974 -3.1448 -1.31586 0
M  V30 9304 H 866.167 -2.95987 0.482865 0
M  V30 9305 H 863.72 -1.53612 0.288603 0
M  V30 9306 H 864.455 -2.5129 -2.04997 0
M  V30 9307 H 864.24 -3.82625 -0.856779 0
M  V30 9308 H 865.73 -3.74693 -1.84377 0
M  V30 9309 N 866.167 -0.267825 -1.55308 0
M  V30 9310 C 867.392 0.357487 -2.04296 0
M  V30 9311 C 867.817 1.49222 -1.14518 0
M  V30 9312 O 867.175 1.80741 -0.142292 0
M  V30 9313 C 867.223 0.822899 -3.51085 0
M  V30 9314 O 866.327 1.93078 -3.6441 0
M  V30 9315 H 865.668 0.075025 -0.659748 0
M  V30 9316 H 868.198 -0.399996 -2.00652 0
M  V30 9317 H 868.208 1.12059 -3.92309 0
M  V30 9318 H 866.883 -0.0073562 -4.15899 0
M  V30 9319 H 865.46 1.63618 -3.35087 0
M  V30 9320 N 867.645 1.57599 0.00500368 0
M  V30 9321 C 868.922 1.81561 0.727654 0
M  V30 9322 C 869.302 0.871604 1.92266 0
M  V30 9323 O 868.65 -0.0808232 2.28357 0
M  V30 9324 C 868.86 3.29922 1.13809 0
M  V30 9325 C 870.208 3.95531 1.54403 0
M  V30 9326 O 871.232 3.34215 1.23202 0
M  V30 9327 O 870.091 5.03535 2.12402 0
M  V30 9328 H 867.185 0.747462 0.353878 0
M  V30 9329 H 869.731 1.69688 -0.0200667 0
M  V30 9330 H 868.503 3.90253 0.286078 0
M  V30 9331 H 868.126 3.46775 1.94507 0
M  V30 9332 N 869.123 -0.277682 1.55134 0
M  V30 9333 C 870.351 -1.02826 1.7954 0
M  V30 9334 C 870.766 -1.80105 0.566373 0
M  V30 9335 O 870.123 -1.76491 -0.464448 0
M  V30 9336 C 870.174 -1.99053 3.01762 0
M  V30 9337 O 869.895 -1.24906 4.19917 0
M  V30 9338 C 871.396 -2.85961 3.38735 0
M  V30 9339 H 868.616 -0.303958 0.598206 0
M  V30 9340 H 871.16 -0.309884 2.02138 0
M  V30 9341 H 869.315 -2.66359 2.81303 0
M  V30 9342 H 869.729 -1.89725 4.88983 0
M  V30 9343 H 871.203 -3.49286 4.27438 0
M  V30 9344 H 871.68 -3.55486 2.57928 0
M  V30 9345 H 872.286 -2.24152 3.61436 0
M  V30 9346 N 870.601 -1.47988 -0.541979 0
M  V30 9347 C 871.826 -1.59286 -1.32826 0
M  V30 9348 C 872.251 -0.24894 -1.86445 0
M  V30 9349 O 871.609 0.777581 -1.63778 0
M  V30 9350 C 871.657 -2.6334 -2.46343 0
M  V30 9351 O 870.761 -2.19667 -3.49028 0
M  V30 9352 H 870.102 -0.534543 -0.393903 0
M  V30 9353 H 872.632 -1.93885 -0.653427 0
M  V30 9354 H 872.642 -2.84238 -2.92699 0
M  V30 9355 H 871.317 -3.60913 -2.06675 0
M  V30 9356 H 869.894 -2.08932 -3.08872 0
M  V30 9357 N 872.079 0.78992 -1.36375 0
M  V30 9358 C 873.009 1.91683 -1.33341 0
M  V30 9359 C 873.99 1.68861 -0.204965 0
M  V30 9360 O 875.175 1.89982 -0.402531 0
M  V30 9361 C 872.305 3.28696 -1.12143 0
M  V30 9362 C 871.259 3.66041 -2.21806 0
M  V30 9363 C 870.585 5.01399 -1.85751 0
M  V30 9364 C 871.885 3.74677 -3.63888 0
M  V30 9365 H 873.579 1.94478 -2.27637 0
M  V30 9366 H 871.125 0.934271 -1.09578 0
M  V30 9367 H 873.078 4.07151 -1.08656 0
M  V30 9368 H 871.802 3.26287 -0.142974 0
M  V30 9369 H 870.461 2.89883 -2.24418 0
M  V30 9370 H 870.109 4.9551 -0.864817 0
M  V30 9371 H 869.809 5.27355 -2.59173 0
M  V30 9372 H 871.333 5.82274 -1.83819 0
M  V30 9373 H 872.747 4.43324 -3.63506 0
M  V30 9374 H 871.144 4.12118 -4.3621 0
M  V30 9375 H 872.214 2.75795 -3.9883 0
M  V30 9376 N 873.557 1.20646 1.01402 0
M  V30 9377 C 874.785 1.04389 1.78635 0
M  V30 9378 C 875.2 -0.406771 1.84366 0
M  V30 9379 O 874.557 -1.28239 1.2985 0
M  V30 9380 C 874.608 1.62378 3.22979 0
M  V30 9381 O 874.329 3.01768 3.17597 0
M  V30 9382 C 875.83 1.5111 4.1675 0
M  V30 9383 H 873.05 0.367077 0.56169 0
M  V30 9384 H 875.594 1.59789 1.27624 0
M  V30 9385 H 873.749 1.11092 3.7113 0
M  V30 9386 H 874.163 3.29331 4.08217 0
M  V30 9387 H 875.637 1.96441 5.15863 0
M  V30 9388 H 876.114 0.464011 4.36742 0
M  V30 9389 H 876.72 2.01599 3.74483 0
M  V30 9390 N 875.035 -1.20752 1.01276 0
M  V30 9391 C 875.967 -2.22798 0.537917 0
M  V30 9392 C 876.98 -1.5836 -0.377638 0
M  V30 9393 O 878.169 -1.77624 -0.176599 0
M  V30 9394 C 875.269 -3.38068 -0.237364 0
M  V30 9395 C 874.442 -4.32095 0.679161 0
M  V30 9396 C 873.501 -5.26178 -0.0478676 0
M  V30 9397 O 872.527 -5.66305 0.573366 0
M  V30 9398 N 873.729 -5.65201 -1.32396 0
M  V30 9399 H 876.494 -2.64166 1.4155 0
M  V30 9400 H 874.055 -1.35254 0.889826 0
M  V30 9401 H 876.047 -3.98009 -0.73288 0
M  V30 9402 H 874.617 -2.95622 -1.0162 0
M  V30 9403 H 873.837 -3.70179 1.35505 0
M  V30 9404 H 875.125 -4.91842 1.30263 0
M  V30 9405 H 874.523 -5.34606 -1.84968 0
M  V30 9406 H 873.08 -6.27468 -1.76428 0
M  V30 9407 N 876.513 -0.788492 -1.36457 0
M  V30 9408 C 877.761 -0.359749 -1.98872 0
M  V30 9409 C 878.082 1.07197 -1.62892 0
M  V30 9410 O 877.352 1.73875 -0.902463 0
M  V30 9411 H 875.932 -0.130029 -0.735596 0
M  V30 9412 H 878.594 -1.01033 -1.66668 0
M  V30 9413 H 877.69 -0.450835 -3.08827 0
M  V30 9414 N 877.991 1.48044 -0.54043 0
M  V30 9415 C 879.24 2.01698 -0.00809961 0
M  V30 9416 C 879.553 1.42184 1.34325 0
M  V30 9417 O 880.759 1.87398 1.96454 0
M  V30 9418 C 879.215 3.59882 0.035933 0
M  V30 9419 C 878.823 4.28384 -1.31115 0
M  V30 9420 C 880.567 4.21346 0.51654 0
M  V30 9421 C 878.474 5.78529 -1.22714 0
M  V30 9422 H 877.404 0.754 0.000742174 0
M  V30 9423 H 880.055 1.70204 -0.685775 0
M  V30 9424 H 878.437 3.88264 0.778906 0
M  V30 9425 H 879.611 4.11663 -2.07051 0
M  V30 9426 H 877.926 3.78837 -1.72834 0
M  V30 9427 H 880.523 5.31351 0.597529 0
M  V30 9428 H 880.866 3.87373 1.52473 0
M  V30 9429 H 881.399 3.97432 -0.171064 0
M  V30 9430 H 878.138 6.17093 -2.21081 0
M  V30 9431 H 877.658 5.97634 -0.50931 0
M  V30 9432 H 879.337 6.40395 -0.92216 0
M  V30 9433 N 879.47 0.276058 1.55163 0
M  V30 9434 C 880.716 -0.340959 1.99913 0
M  V30 9435 C 881.049 -1.55434 1.16422 0
M  V30 9436 O 880.324 -1.93081 0.234517 0
M  V30 9437 C 880.607 -0.722211 3.52783 0
M  V30 9438 C 880.46 0.498575 4.47028 0
M  V30 9439 C 881.779 -1.5583 4.11589 0
M  V30 9440 H 878.898 -0.122455 0.726756 0
M  V30 9441 H 881.54 0.38319 1.86096 0
M  V30 9442 H 879.69 -1.33919 3.64689 0
M  V30 9443 H 881.362 1.13713 4.47065 0
M  V30 9444 H 879.605 1.13646 4.18649 0
M  V30 9445 H 880.276 0.188041 5.5168 0
M  V30 9446 H 882.752 -1.03722 4.02965 0
M  V30 9447 H 881.628 -1.79387 5.1876 0
M  V30 9448 H 881.889 -2.53963 3.61877 0
M  V30 9449 N 880.948 -1.576 0.00335426 0
M  V30 9450 C 881.911 -2.07576 -0.971838 0
M  V30 9451 C 882.911 -0.985796 -1.27038 0
M  V30 9452 O 884.101 -1.24833 -1.21501 0
M  V30 9453 C 881.233 -2.52003 -2.29581 0
M  V30 9454 H 882.426 -2.95008 -0.539481 0
M  V30 9455 H 879.979 -1.54381 -0.244186 0
M  V30 9456 H 880.714 -1.67825 -2.77498 0
M  V30 9457 H 880.499 -3.31609 -2.09231 0
M  V30 9458 H 881.989 -2.90983 -2.99531 0
M  V30 9459 N 882.426 0.269451 -1.5528 0
M  V30 9460 C 883.673 1.00058 -1.76053 0
M  V30 9461 C 884.001 1.86156 -0.563592 0
M  V30 9462 O 883.256 1.90366 0.453806 0
M  V30 9463 C 883.555 1.91 -3.02082 0
M  V30 9464 C 883.221 1.20623 -4.34466 0
M  V30 9465 C 881.883 1.01165 -4.70446 0
M  V30 9466 C 884.235 0.705695 -5.164 0
M  V30 9467 C 881.563 0.303865 -5.85913 0
M  V30 9468 C 883.915 0.0114838 -6.32599 0
M  V30 9469 C 882.579 -0.19478 -6.67216 0
M  V30 9470 H 881.849 0.366138 -0.644223 0
M  V30 9471 H 884.496 0.272563 -1.8955 0
M  V30 9472 H 882.801 2.70435 -2.835 0
M  V30 9473 H 884.498 2.47698 -3.15352 0
M  V30 9474 H 881.088 1.36781 -4.06188 0
M  V30 9475 H 885.272 0.84364 -4.89077 0
M  V30 9476 H 880.528 0.133368 -6.11255 0
M  V30 9477 H 884.702 -0.384111 -6.9534 0
M  V30 9478 H 882.329 -0.745201 -7.56539 0
M  V30 9479 N 883.904 1.48273 0.534124 0
M  V30 9480 C 885.32 1.34302 0.862272 0
M  V30 9481 C 885.52 0.350902 1.98421 0
M  V30 9482 O 884.576 -0.229364 2.51456 0
M  V30 9483 C 885.889 2.74227 1.23371 0
M  V30 9484 C 887.437 2.82684 1.34383 0
M  V30 9485 C 887.912 4.23301 1.74871 0
M  V30 9486 N 889.403 4.25954 1.81981 0
M  V30 9487 C 890.138 5.31693 2.14686 0
M  V30 9488 N 889.634 6.47714 2.45844 0
M  V30 9489 N 891.427 5.19084 2.15657 0
M  V30 9490 H 883.578 2.11397 -0.206215 0
M  V30 9491 H 885.841 0.947537 -0.0296116 0
M  V30 9492 H 885.547 3.48368 0.482967 0
M  V30 9493 H 885.421 3.07485 2.18478 0
M  V30 9494 H 887.808 2.08801 2.08534 0
M  V30 9495 H 887.889 2.5305 0.374063 0
M  V30 9496 H 887.533 4.97699 1.01282 0
M  V30 9497 H 887.463 4.50376 2.7289 0
M  V30 9498 H 889.954 3.42266 1.60196 0
M  V30 9499 H 890.267 7.2414 2.69892 0
M  V30 9500 H 888.612 6.50995 2.43372 0
M  V30 9501 H 891.803 4.27463 1.9077 0
M  V30 9502 H 891.976 6.01592 2.40813 0
M  V30 9503 N 885.382 -0.782676 1.36792 0
M  V30 9504 C 886.314 -1.9044 1.27536 0
M  V30 9505 C 887.327 -1.61647 0.193426 0
M  V30 9506 O 888.516 -1.72769 0.448692 0
M  V30 9507 C 885.616 -3.2541 0.946641 0
M  V30 9508 C 884.789 -3.81932 2.13183 0
M  V30 9509 C 883.848 -4.95355 1.7751 0
M  V30 9510 O 882.874 -5.11517 2.49678 0
M  V30 9511 N 884.076 -5.76108 0.712755 0
M  V30 9512 H 886.841 -1.98899 2.24186 0
M  V30 9513 H 884.402 -0.96127 1.30274 0
M  V30 9514 H 886.394 -3.98791 0.689043 0
M  V30 9515 H 884.964 -3.12524 0.0690591 0
M  V30 9516 H 884.184 -3.00459 2.55183 0
M  V30 9517 H 885.472 -4.16426 2.92347 0
M  V30 9518 H 884.87 -5.65586 0.113662 0
M  V30 9519 H 883.427 -6.49762 0.514995 0
M  V30 9520 N 886.86 -1.21182 -1.00761 0
M  V30 9521 C 887.81 -0.936247 -2.0789 0
M  V30 9522 C 888.794 0.107482 -1.60541 0
M  V30 9523 O 889.986 -0.1011 -1.76711 0
M  V30 9524 C 887.115 -0.499949 -3.3964 0
M  V30 9525 C 886.201 -1.5776 -3.93666 0
M  V30 9526 N 886.592 -2.80208 -4.2109 0
M  V30 9527 C 884.89 -1.44586 -4.21913 0
M  V30 9528 C 885.591 -3.49787 -4.64784 0
M  V30 9529 N 884.567 -2.7722 -4.676 0
M  V30 9530 H 888.369 -1.86659 -2.27015 0
M  V30 9531 H 885.883 -1.10716 -1.1881 0
M  V30 9532 H 887.88 -0.283897 -4.15932 0
M  V30 9533 H 886.54 0.423659 -3.21924 0
M  V30 9534 H 887.551 -3.16776 -4.09724 0
M  V30 9535 H 884.228 -0.587346 -4.13348 0
M  V30 9536 H 885.618 -4.54615 -4.94747 0
M  V30 9537 N 888.338 1.20213 -1.01915 0
M  V30 9538 C 889.268 2.25336 -0.612023 0
M  V30 9539 C 890.249 1.65933 0.374186 0
M  V30 9540 O 891.434 1.92464 0.259053 0
M  V30 9541 C 888.564 3.47267 0.047904 0
M  V30 9542 C 887.518 4.1928 -0.859557 0
M  V30 9543 C 886.844 5.3466 -0.0652655 0
M  V30 9544 C 888.144 4.75143 -2.1688 0
M  V30 9545 H 889.838 2.59645 -1.49079 0
M  V30 9546 H 887.384 1.24808 -0.718263 0
M  V30 9547 H 889.337 4.19991 0.344294 0
M  V30 9548 H 888.061 3.12129 0.961404 0
M  V30 9549 H 886.72 3.48425 -1.13999 0
M  V30 9550 H 886.368 4.95767 0.849964 0
M  V30 9551 H 886.068 5.83772 -0.669618 0
M  V30 9552 H 887.592 6.10187 0.224612 0
M  V30 9553 H 889.006 5.39672 -1.9346 0
M  V30 9554 H 887.403 5.34702 -2.72422 0
M  V30 9555 H 888.473 3.93744 -2.83008 0
M  V30 9556 N 889.816 0.795718 1.36037 0
M  V30 9557 C 890.748 0.156336 2.28666 0
M  V30 9558 C 891.761 -0.638075 1.49775 0
M  V30 9559 O 892.95 -0.472222 1.7214 0
M  V30 9560 C 890.05 -0.801417 3.29288 0
M  V30 9561 C 889.223 -0.0557118 4.37365 0
M  V30 9562 C 888.282 -0.930338 5.1791 0
M  V30 9563 O 887.308 -0.385266 5.67895 0
M  V30 9564 N 888.51 -2.25382 5.34961 0
M  V30 9565 H 891.275 0.952033 2.84177 0
M  V30 9566 H 888.836 0.650189 1.48271 0
M  V30 9567 H 890.828 -1.39051 3.80062 0
M  V30 9568 H 889.398 -1.49796 2.74372 0
M  V30 9569 H 888.618 0.714508 3.87671 0
M  V30 9570 H 889.906 0.458633 5.06729 0
M  V30 9571 H 889.304 -2.72073 4.95977 0
M  V30 9572 H 887.861 -2.79241 5.88955 0
M  V30 9573 N 891.294 -1.47756 0.548274 0
M  V30 9574 C 892.242 -2.3158 -0.217584 0
M  V30 9575 C 893.236 -1.42372 -0.917957 0
M  V30 9576 O 894.442 -1.59184 -0.840259 0
M  V30 9577 H 890.817 -0.74671 -0.0890388 0
M  V30 9578 H 892.788 -2.94032 0.508719 0
M  V30 9579 C 891.537 -3.24834 -1.24008 0
M  V30 9580 H 890.86 -3.93435 -0.710572 0
M  V30 9581 H 892.3 -3.86336 -1.74701 0
M  V30 9582 C 890.759 -2.47724 -2.2833 0
M  V30 9583 O 891.289 -2.21522 -3.35098 0
M  V30 9584 N 889.495 -2.08891 -2.02022 0
M  V30 9585 H 889.042 -2.30401 -1.1521 0
M  V30 9586 H 889 -1.57613 -2.7204 0
M  V30 9587 N 892.772 -0.284283 -1.55015 0
M  V30 9588 C 893.702 0.592663 -2.25853 0
M  V30 9589 C 894.683 1.15151 -1.25197 0
M  V30 9590 O 895.868 1.18395 -1.53936 0
M  V30 9591 C 892.998 1.77254 -2.98661 0
M  V30 9592 C 891.952 1.34482 -4.06323 0
M  V30 9593 C 891.278 2.60853 -4.66754 0
M  V30 9594 C 892.578 0.488288 -5.20013 0
M  V30 9595 H 894.272 0.00187041 -2.994 0
M  V30 9596 H 891.818 -0.000540402 -1.44 0
M  V30 9597 H 893.771 2.39199 -3.46932 0
M  V30 9598 H 892.495 2.38931 -2.22664 0
M  V30 9599 H 891.154 0.748519 -3.58877 0
M  V30 9600 H 890.802 3.20808 -3.87416 0
M  V30 9601 H 890.502 2.32942 -5.39455 0
M  V30 9602 H 892.026 3.23631 -5.1778 0
M  V30 9603 H 893.44 1.01298 -5.6428 0
M  V30 9604 H 891.837 0.303669 -5.99331 0
M  V30 9605 H 892.907 -0.490727 -4.8241 0
M  V30 9606 N 894.251 1.57596 -0.0117121 0
M  V30 9607 C 895.214 2.08089 0.960816 0
M  V30 9608 C 896.214 0.992519 1.26514 0
M  V30 9609 O 897.404 1.25475 1.20837 0
M  V30 9610 C 894.536 2.53217 2.28241 0
M  V30 9611 H 895.729 2.9529 0.523829 0
M  V30 9612 H 893.282 1.54508 0.235995 0
M  V30 9613 H 894.017 1.69294 2.76604 0
M  V30 9614 H 893.802 3.32714 2.0747 0
M  V30 9615 H 895.292 2.92568 2.97983 0
M  V30 9616 N 895.729 -0.261212 1.5542 0
M  V30 9617 C 897.145 -0.609012 1.47524 0
M  V30 9618 C 897.345 -1.88986 0.699042 0
M  V30 9619 O 896.401 -2.51517 0.222628 0
M  V30 9620 C 897.714 -0.725025 2.91828 0
M  V30 9621 C 899.262 -0.818302 3.02114 0
M  V30 9622 C 899.737 -0.965996 4.47697 0
M  V30 9623 N 901.228 -1.03123 4.51575 0
M  V30 9624 C 901.963 -1.16451 5.6145 0
M  V30 9625 N 901.459 -1.26425 6.81167 0
M  V30 9626 N 903.252 -1.19655 5.49217 0
M  V30 9627 H 895.403 0.579807 2.04333 0
M  V30 9628 H 897.666 0.198072 0.927077 0
M  V30 9629 H 897.372 0.145871 3.51397 0
M  V30 9630 H 897.246 -1.60156 3.41511 0
M  V30 9631 H 899.633 -1.67966 2.42634 0
M  V30 9632 H 899.714 0.0830895 2.55665 0
M  V30 9633 H 899.358 -0.109251 5.07782 0
M  V30 9634 H 899.288 -1.88221 4.91813 0
M  V30 9635 H 901.779 -0.966072 3.65343 0
M  V30 9636 H 902.092 -1.36462 7.60656 0
M  V30 9637 H 900.437 -1.23408 6.83956 0
M  V30 9638 H 903.628 -1.11501 4.54626 0
M  V30 9639 H 903.801 -1.29698 6.34888 0
M  V30 9640 N 897.207 -1.48554 -0.526253 0
M  V30 9641 C 898.435 -1.60429 -1.30652 0
M  V30 9642 C 898.85 -0.265963 -1.86917 0
M  V30 9643 O 898.207 0.745262 -1.6659 0
M  V30 9644 C 898.258 -2.65377 -2.45473 0
M  V30 9645 O 897.979 -3.94017 -1.91527 0
M  V30 9646 C 899.48 -2.87726 -3.37237 0
M  V30 9647 H 896.7 -0.540817 -0.397187 0
M  V30 9648 H 899.244 -1.94409 -0.634461 0
M  V30 9649 H 897.399 -2.34246 -3.08557 0
M  V30 9650 H 897.813 -4.51623 -2.66715 0
M  V30 9651 H 899.287 -3.64951 -4.14144 0
M  V30 9652 H 899.764 -1.96688 -3.92696 0
M  V30 9653 H 900.37 -3.20176 -2.79942 0
M  V30 9654 N 898.685 0.775411 -1.37205 0
M  V30 9655 C 899.632 1.88857 -1.32671 0
M  V30 9656 C 900.602 1.64976 -0.192899 0
M  V30 9657 O 901.787 1.86944 -0.381673 0
M  V30 9658 C 898.927 3.25871 -1.13588 0
M  V30 9659 C 898.04 3.61731 -2.36167 0
M  V30 9660 C 897.175 4.87934 -2.09985 0
M  V30 9661 C 896.214 5.16514 -3.2845 0
M  V30 9662 N 895.351 6.33905 -3.01842 0
M  V30 9663 H 900.191 1.92068 -2.27846 0
M  V30 9664 H 897.728 0.939066 -1.13225 0
M  V30 9665 H 899.686 4.04903 -1.00546 0
M  V30 9666 H 898.316 3.22045 -0.220613 0
M  V30 9667 H 897.368 2.77712 -2.59962 0
M  V30 9668 H 898.68 3.78792 -3.24528 0
M  V30 9669 H 897.834 5.74863 -1.93953 0
M  V30 9670 H 896.573 4.7297 -1.18956 0
M  V30 9671 H 895.578 4.28063 -3.45025 0
M  V30 9672 H 896.803 5.33389 -4.20325 0
M  V30 9673 H 894.749 6.20306 -2.13439 0
M  V30 9674 H 894.666 6.51364 -3.83746 0
M  V30 9675 H 895.934 7.23779 -2.8942 0
M  V30 9676 N 900.163 1.21714 1.00117 0
M  V30 9677 C 901.411 1.03465 1.73607 0
M  V30 9678 C 901.732 -0.432295 1.90148 0
M  V30 9679 O 901.002 -1.31157 1.45515 0
M  V30 9680 H 899.582 0.379857 0.643209 0
M  V30 9681 H 902.244 1.53088 1.20624 0
M  V30 9682 H 901.34 1.50574 2.73375 0
M  V30 9683 N 901.641 -1.19671 1.02551 0
M  V30 9684 C 902.89 -1.88591 0.715272 0
M  V30 9685 C 903.203 -1.80274 -0.758982 0
M  V30 9686 O 904.409 -2.44413 -1.18213 0
M  V30 9687 C 902.865 -3.38264 1.22905 0
M  V30 9688 C 902.473 -3.55146 2.73084 0
M  V30 9689 C 904.217 -4.12683 0.994649 0
M  V30 9690 C 902.124 -4.98693 3.17897 0
M  V30 9691 H 901.054 -0.706326 0.263857 0
M  V30 9692 H 903.705 -1.35322 1.23936 0
M  V30 9693 H 902.087 -3.9091 0.632892 0
M  V30 9694 H 903.261 -3.12845 3.38326 0
M  V30 9695 H 901.576 -2.94112 2.94766 0
M  V30 9696 H 904.173 -5.18536 1.30478 0
M  V30 9697 H 904.516 -4.16243 -0.0686466 0
M  V30 9698 H 905.049 -3.66164 1.55464 0
M  V30 9699 H 901.788 -5.00293 4.23542 0
M  V30 9700 H 901.308 -5.4177 2.57381 0
M  V30 9701 H 902.987 -5.67327 3.11045 0
M  V30 9702 N 903.119 -0.802921 -1.35613 0
M  V30 9703 C 904.049 -0.225131 -2.32412 0
M  V30 9704 C 905.03 0.647383 -1.57299 0
M  V30 9705 O 906.215 0.578414 -1.85386 0
M  V30 9706 C 903.345 0.630085 -3.41537 0
M  V30 9707 C 902.299 -0.143635 -4.27759 0
M  V30 9708 C 901.625 0.833046 -5.28171 0
M  V30 9709 C 902.925 -1.34054 -5.04804 0
M  V30 9710 H 904.619 -1.03385 -2.80984 0
M  V30 9711 H 902.165 -0.498593 -1.35093 0
M  V30 9712 H 904.118 1.04433 -4.08254 0
M  V30 9713 H 902.842 1.47165 -2.91565 0
M  V30 9714 H 901.501 -0.539015 -3.62616 0
M  V30 9715 H 901.149 1.67001 -4.74468 0
M  V30 9716 H 900.849 0.319697 -5.8673 0
M  V30 9717 H 902.373 1.24558 -5.97761 0
M  V30 9718 H 903.787 -1.00136 -5.64487 0
M  V30 9719 H 902.184 -1.78812 -5.72841 0
M  V30 9720 H 903.254 -2.12906 -4.35659 0
M  V30 9721 N 904.597 1.47463 -0.556102 0
M  V30 9722 C 905.507 2.33785 0.195378 0
M  V30 9723 C 906.523 1.48123 0.913 0
M  V30 9724 O 907.699 1.81053 0.882141 0
M  V30 9725 C 904.764 3.24795 1.21282 0
M  V30 9726 C 903.825 4.26346 0.502747 0
M  V30 9727 C 903.058 5.13007 1.47172 0
M  V30 9728 O 903.281 5.02103 2.70646 0
M  V30 9729 O 902.215 5.93588 0.996814 0
M  V30 9730 H 906.041 2.99341 -0.512676 0
M  V30 9731 H 903.626 1.46004 -0.31673 0
M  V30 9732 H 905.508 3.81015 1.80016 0
M  V30 9733 H 904.183 2.61868 1.90282 0
M  V30 9734 H 903.09 3.73889 -0.125757 0
M  V30 9735 H 904.423 4.91984 -0.145779 0
M  V30 9736 N 906.075 0.2925 1.54862 0
M  V30 9737 C 907.005 -0.580677 2.26165 0
M  V30 9738 C 907.986 -1.14485 1.25806 0
M  V30 9739 O 909.171 -1.17577 1.54562 0
M  V30 9740 C 906.301 -1.75668 2.99596 0
M  V30 9741 C 905.255 -1.32325 4.07031 0
M  V30 9742 C 904.581 -2.58374 4.68131 0
M  V30 9743 C 905.881 -0.460703 5.20264 0
M  V30 9744 H 907.575 0.0140075 2.99397 0
M  V30 9745 H 905.121 0.00817706 1.43998 0
M  V30 9746 H 907.074 -2.37356 3.48195 0
M  V30 9747 H 905.798 -2.37747 2.23928 0
M  V30 9748 H 904.457 -0.729477 3.59269 0
M  V30 9749 H 904.105 -3.18749 3.89112 0
M  V30 9750 H 903.805 -2.30078 5.40683 0
M  V30 9751 H 905.329 -3.2088 5.19489 0
M  V30 9752 H 906.743 -0.983037 5.64809 0
M  V30 9753 H 905.14 -0.271881 5.99484 0
M  V30 9754 H 906.21 0.516304 4.82143 0
M  V30 9755 N 907.553 -1.57587 0.0200696 0
M  V30 9756 C 908.501 -2.10814 -0.982868 0
M  V30 9757 C 909.495 -1.03263 -1.34287 0
M  V30 9758 O 910.701 -1.21708 -1.32617 0
M  V30 9759 H 907.076 -0.673409 -0.334701 0
M  V30 9760 H 909.047 -2.94034 -0.50856 0
M  V30 9761 C 907.796 -2.64301 -2.25921 0
M  V30 9762 H 907.119 -3.46703 -1.99091 0
M  V30 9763 H 908.559 -3.052 -2.94328 0
M  V30 9764 C 907.018 -1.56628 -2.98277 0
M  V30 9765 O 907.548 -0.960825 -3.9004 0
M  V30 9766 N 905.754 -1.28889 -2.60453 0
M  V30 9767 H 905.301 -1.7831 -1.85912 0
M  V30 9768 H 905.259 -0.570697 -3.09177 0
M  V30 9769 N 909.032 0.252966 -1.55557 0
M  V30 9770 C 909.979 1.3131 -1.89806 0
M  V30 9771 C 910.949 1.48121 -0.751633 0
M  V30 9772 O 912.134 1.62202 -1.00474 0
M  V30 9773 C 909.274 2.66467 -2.19293 0
M  V30 9774 C 908.387 2.57714 -3.46709 0
M  V30 9775 C 907.522 3.85184 -3.65796 0
M  V30 9776 C 906.561 3.71023 -4.86835 0
M  V30 9777 N 905.698 4.90371 -5.02474 0
M  V30 9778 H 910.538 1.01402 -2.80217 0
M  V30 9779 H 908.075 0.489462 -1.38718 0
M  V30 9780 H 910.033 3.45132 -2.34392 0
M  V30 9781 H 908.663 2.94536 -1.32093 0
M  V30 9782 H 907.715 1.70651 -3.39974 0
M  V30 9783 H 909.027 2.43158 -4.35517 0
M  V30 9784 H 908.181 4.72292 -3.80822 0
M  V30 9785 H 906.92 4.0263 -2.7521 0
M  V30 9786 H 905.925 2.82299 -4.71792 0
M  V30 9787 H 907.15 3.55078 -5.78875 0
M  V30 9788 H 905.096 5.0819 -4.14824 0
M  V30 9789 H 905.013 4.78423 -5.85361 0
M  V30 9790 H 906.281 5.78995 -5.21905 0
M  V30 9791 N 910.51 1.48831 0.518367 0
M  V30 9792 C 911.756 1.57672 1.27543 0
M  V30 9793 C 912.089 0.254915 1.9252 0
M  V30 9794 O 911.364 -0.740107 1.79868 0
M  V30 9795 C 911.647 2.72345 2.35585 0
M  V30 9796 C 911.5 4.14267 1.75224 0
M  V30 9797 C 912.819 2.82726 3.37274 0
M  V30 9798 H 909.938 0.573926 0.462361 0
M  V30 9799 H 912.58 1.8105 0.576267 0
M  V30 9800 H 910.73 2.52543 2.95219 0
M  V30 9801 H 912.402 4.45539 1.19551 0
M  V30 9802 H 910.645 4.20724 1.05706 0
M  V30 9803 H 911.316 4.90345 2.53507 0
M  V30 9804 H 913.792 3.00699 2.8761 0
M  V30 9805 H 912.668 3.6467 4.10252 0
M  V30 9806 H 912.929 1.9136 3.9854 0
M  V30 9807 N 911.988 -0.768124 1.37614 0
M  V30 9808 C 912.92 -1.89076 1.29548 0
M  V30 9809 C 913.933 -1.61433 0.21056 0
M  V30 9810 O 915.122 -1.72283 0.466992 0
M  V30 9811 C 912.222 -3.24388 0.981102 0
M  V30 9812 C 911.395 -3.79649 2.17222 0
M  V30 9813 C 910.454 -4.93444 1.82754 0
M  V30 9814 O 909.48 -5.0884 2.5509 0
M  V30 9815 N 910.682 -5.75319 0.773819 0
M  V30 9816 H 913.447 -1.9651 2.26283 0
M  V30 9817 H 911.008 -0.947399 1.31286 0
M  V30 9818 H 913 -3.98038 0.731301 0
M  V30 9819 H 911.57 -3.12433 0.102203 0
M  V30 9820 H 910.79 -2.97735 2.58355 0
M  V30 9821 H 912.078 -4.13302 2.96748 0
M  V30 9822 H 911.476 -5.65433 0.173644 0
M  V30 9823 H 910.033 -6.4918 0.583882 0
M  V30 9824 N 913.466 -1.22244 -0.994698 0
M  V30 9825 C 914.396 -1.01513 -2.10279 0
M  V30 9826 C 915.377 0.0633365 -1.69982 0
M  V30 9827 O 916.562 -0.0985268 -1.9395 0
M  V30 9828 C 913.692 -0.59016 -3.42249 0
M  V30 9829 C 912.646 -1.61436 -3.96387 0
M  V30 9830 C 911.972 -1.04528 -5.24383 0
M  V30 9831 C 913.272 -3.00388 -4.27276 0
M  V30 9832 H 914.966 -1.94194 -2.2788 0
M  V30 9833 H 912.512 -0.935094 -1.09508 0
M  V30 9834 H 914.465 -0.432254 -4.19177 0
M  V30 9835 H 913.189 0.372308 -3.24471 0
M  V30 9836 H 911.848 -1.76001 -3.21589 0
M  V30 9837 H 911.496 -0.0742225 -5.02945 0
M  V30 9838 H 911.196 -1.72949 -5.61571 0
M  V30 9839 H 912.72 -0.898922 -6.03947 0
M  V30 9840 H 914.134 -2.89207 -4.95007 0
M  V30 9841 H 912.531 -3.65916 -4.75631 0
M  V30 9842 H 913.601 -3.50456 -3.35125 0
M  V30 9843 N 914.944 1.19125 -1.03184 0
M  V30 9844 C 915.874 2.24675 -0.635889 0
M  V30 9845 C 916.855 1.66321 0.356565 0
M  V30 9846 O 918.04 1.92728 0.238625 0
M  V30 9847 C 915.17 3.47298 0.011069 0
M  V30 9848 C 914.124 4.18345 -0.903979 0
M  V30 9849 C 913.45 5.34561 -0.12197 0
M  V30 9850 C 914.75 4.72816 -2.21907 0
M  V30 9851 H 916.444 2.5805 -1.51825 0
M  V30 9852 H 913.99 1.24039 -0.73146 0
M  V30 9853 H 915.943 4.20333 0.299729 0
M  V30 9854 H 914.667 3.13131 0.928245 0
M  V30 9855 H 913.326 3.47196 -1.17688 0
M  V30 9856 H 912.974 4.9664 0.797334 0
M  V30 9857 H 912.674 5.83029 -0.731498 0
M  V30 9858 H 914.198 6.10391 0.159881 0
M  V30 9859 H 915.612 5.3759 -1.99173 0
M  V30 9860 H 914.009 5.31782 -2.78078 0
M  V30 9861 H 915.079 3.9072 -2.87168 0
M  V30 9862 N 916.422 0.810101 1.35185 0
M  V30 9863 C 917.652 0.404109 2.02609 0
M  V30 9864 C 918.06 -0.990748 1.61186 0
M  V30 9865 O 917.403 -1.65038 0.80674 0
M  V30 9866 C 917.465 0.412047 3.57131 0
M  V30 9867 C 917.129 1.75802 4.21832 0
M  V30 9868 C 918.126 2.71687 4.43263 0
M  V30 9869 C 915.811 2.04299 4.58876 0
M  V30 9870 C 917.805 3.9425 5.00845 0
M  V30 9871 C 915.492 3.27125 5.16171 0
M  V30 9872 C 916.49 4.21918 5.37098 0
M  V30 9873 O 916.178 5.42576 5.93184 0
M  V30 9874 H 915.91 0.161914 0.656323 0
M  V30 9875 H 918.464 1.09605 1.73712 0
M  V30 9876 H 916.694 -0.336509 3.85233 0
M  V30 9877 H 918.383 0.0278817 4.0589 0
M  V30 9878 H 919.149 2.50964 4.15021 0
M  V30 9879 H 915.028 1.31324 4.41899 0
M  V30 9880 H 918.572 4.68251 5.17094 0
M  V30 9881 H 914.469 3.47718 5.43841 0
M  V30 9882 H 915.237 5.43921 6.11631 0
M  V30 9883 N 917.9 -1.47166 0.563914 0
M  V30 9884 C 918.81 -2.33885 -0.182977 0
M  V30 9885 C 919.826 -1.48605 -0.905132 0
M  V30 9886 O 921.002 -1.81518 -0.872527 0
M  V30 9887 C 918.067 -3.25433 -1.19558 0
M  V30 9888 C 917.128 -4.26607 -0.480129 0
M  V30 9889 C 916.361 -5.1378 -1.44449 0
M  V30 9890 O 916.584 -5.03531 -2.67979 0
M  V30 9891 O 915.518 -5.94109 -0.965321 0
M  V30 9892 H 919.344 -2.99065 0.528544 0
M  V30 9893 H 916.929 -1.45834 0.324468 0
M  V30 9894 H 918.811 -3.81964 -1.77993 0
M  V30 9895 H 917.486 -2.62873 -1.8889 0
M  V30 9896 H 916.393 -3.73817 0.145583 0
M  V30 9897 H 917.726 -4.919 0.171868 0
M  V30 9898 N 919.378 -0.300708 -1.54705 0
M  V30 9899 C 920.31 0.609179 -2.20956 0
M  V30 9900 C 921.323 1.09776 -1.20221 0
M  V30 9901 O 922.512 1.01527 -1.46815 0
M  V30 9902 C 919.612 1.84595 -2.84214 0
M  V30 9903 C 918.785 1.49991 -4.10879 0
M  V30 9904 C 917.844 2.5918 -4.57943 0
M  V30 9905 O 916.87 2.24285 -5.23149 0
M  V30 9906 N 918.072 3.89714 -4.30236 0
M  V30 9907 H 920.837 0.0420111 -2.99671 0
M  V30 9908 H 918.398 -0.122896 -1.61433 0
M  V30 9909 H 920.39 2.56988 -3.12633 0
M  V30 9910 H 918.96 2.32152 -2.09342 0
M  V30 9911 H 918.18 0.608637 -3.89473 0
M  V30 9912 H 919.468 1.24409 -4.93356 0
M  V30 9913 H 918.866 4.20874 -3.77997 0
M  V30 9914 H 917.423 4.58406 -4.63365 0
M  V30 9915 N 920.856 1.57574 -0.0284266 0
M  V30 9916 C 922.105 1.9095 0.649704 0
M  V30 9917 C 922.418 0.906421 1.7333 0
M  V30 9918 O 923.624 1.1314 2.46803 0
M  V30 9919 C 922.08 3.39061 1.20687 0
M  V30 9920 C 921.688 4.47726 0.156597 0
M  V30 9921 C 923.432 3.81505 1.86156 0
M  V30 9922 C 921.339 5.86935 0.725365 0
M  V30 9923 H 920.269 0.712589 0.24644 0
M  V30 9924 H 922.92 1.83261 -0.0936143 0
M  V30 9925 H 921.302 3.41679 2.00178 0
M  V30 9926 H 922.476 4.56667 -0.6158 0
M  V30 9927 H 920.791 4.14481 -0.399288 0
M  V30 9928 H 923.388 4.82865 2.29665 0
M  V30 9929 H 923.731 3.16529 2.70398 0
M  V30 9930 H 924.264 3.81307 1.13356 0
M  V30 9931 H 921.003 6.55453 -0.0789081 0
M  V30 9932 H 920.523 5.81602 1.46627 0
M  V30 9933 H 922.202 6.35483 1.21532 0
M  V30 9934 N 922.334 -0.244713 1.55689 0
M  V30 9935 C 923.582 -0.970525 1.77272 0
M  V30 9936 C 923.903 -1.85771 0.592804 0
M  V30 9937 O 923.173 -1.91952 -0.391323 0
M  V30 9938 H 921.753 -0.361342 0.653789 0
M  V30 9939 H 924.415 -0.262134 1.93129 0
M  V30 9940 H 923.511 -1.59096 2.68505 0
M  V30 9941 N 923.813 -1.49104 -0.510467 0
M  V30 9942 C 925.224 -1.51423 -1.09215 0
M  V30 9943 C 925.575 -0.295035 -1.93969 0
M  V30 9944 O 924.7 0.596064 -2.08029 0
M  V30 9945 C 925.295 -2.74387 -1.98739 0
M  V30 9946 C 923.854 -2.79515 -2.52088 0
M  V30 9947 C 923.001 -2.4521 -1.29488 0
M  V30 9948 H 925.952 -1.55938 -0.294807 0
M  V30 9949 H 925.973 -2.54012 -2.83298 0
M  V30 9950 H 925.485 -3.63105 -1.37026 0
M  V30 9951 H 923.586 -1.95054 -3.17466 0
M  V30 9952 H 923.699 -3.81447 -2.89887 0
M  V30 9953 H 922.063 -1.96785 -1.61703 0
M  V30 9954 H 922.846 -3.36192 -0.694978 0
M  V30 9955 N 925.291 0.760815 -1.38019 0
M  V30 9956 C 926.201 1.90526 -1.36884 0
M  V30 9957 C 927.217 1.71941 -0.266908 0
M  V30 9958 O 928.393 1.94988 -0.50413 0
M  V30 9959 C 925.458 3.25799 -1.18558 0
M  V30 9960 C 924.519 3.56961 -2.3849 0
M  V30 9961 C 923.752 4.8578 -2.21029 0
M  V30 9962 O 923.975 5.57629 -1.20023 0
M  V30 9963 O 922.909 5.16254 -3.0946 0
M  V30 9964 H 926.735 1.94437 -2.33298 0
M  V30 9965 H 924.32 0.905091 -1.18863 0
M  V30 9966 H 926.202 4.0669 -1.1037 0
M  V30 9967 H 924.877 3.22716 -0.252241 0
M  V30 9968 H 923.784 2.7626 -2.52252 0
M  V30 9969 H 925.117 3.64798 -3.30429 0
M  V30 9970 N 926.769 1.22769 0.988202 0
M  V30 9971 C 927.732 1.00325 2.06076 0
M  V30 9972 C 928.732 -0.0320618 1.60768 0
M  V30 9973 O 929.922 0.206912 1.72967 0
M  V30 9974 C 927.054 0.516376 3.36966 0
M  V30 9975 H 928.247 1.95499 2.27421 0
M  V30 9976 H 925.8 1.04704 1.16047 0
M  V30 9977 H 926.535 -0.439498 3.21308 0
M  V30 9978 H 926.32 1.26337 3.71189 0
M  V30 9979 H 927.81 0.37974 4.1587 0
M  V30 9980 N 928.247 -1.18576 1.03814 0
M  V30 9981 C 929.524 -1.8433 0.654358 0
M  V30 9982 C 929.904 -1.92504 -0.866338 0
M  V30 9983 O 929.252 -1.44904 -1.76678 0
M  V30 9984 C 929.462 -3.22778 1.32723 0
M  V30 9985 C 930.81 -3.98841 1.45641 0
M  V30 9986 O 931.834 -3.32209 1.28514 0
M  V30 9987 O 930.693 -5.18219 1.73526 0
M  V30 9988 H 927.787 -0.794766 0.228638 0
M  V30 9989 H 930.333 -1.25989 1.13687 0
M  V30 9990 H 929.105 -3.11717 2.36534 0
M  V30 9991 H 928.728 -3.88772 0.833176 0
M  V30 9992 N 929.725 -0.817259 -1.34754 0
M  V30 9993 C 931.136 -0.462215 -1.80888 0
M  V30 9994 C 931.487 1.01685 -1.67794 0
M  V30 9995 O 930.612 1.79094 -1.21468 0
M  V30 9996 C 931.207 -0.832204 -3.2842 0
M  V30 9997 C 929.766 -0.52961 -3.72655 0
M  V30 9998 C 928.913 -1.05214 -2.56564 0
M  V30 9999 H 931.864 -1.00795 -1.22581 0
M  V30 10000 H 931.885 -0.133804 -3.80265 0
M  V30 10001 H 931.397 -1.90873 -3.37919 0
M  V30 10002 H 929.498 0.537743 -3.68699 0
M  V30 10003 H 929.611 -1.06971 -4.67005 0
M  V30 10004 H 927.975 -0.473949 -2.50251 0
M  V30 10005 H 928.758 -2.135 -2.68836 0
M  V30 10006 N 931.203 1.46865 -0.571711 0
M  V30 10007 C 932.151 2.31897 0.180714 0
M  V30 10008 C 933.145 1.43815 0.895191 0
M  V30 10009 O 934.351 1.60501 0.814828 0
M  V30 10010 H 930.726 0.748032 0.077148 0
M  V30 10011 H 932.697 2.93185 -0.555432 0
M  V30 10012 C 931.446 3.26766 1.18824 0
M  V30 10013 H 930.769 3.94515 0.64789 0
M  V30 10014 H 932.209 3.89067 1.68532 0
M  V30 10015 C 930.668 2.51325 2.2436 0
M  V30 10016 O 931.198 2.26825 3.31532 0
M  V30 10017 N 929.404 2.12079 1.98673 0
M  V30 10018 H 928.951 2.32204 1.1153 0
M  V30 10019 H 928.909 1.61921 2.69498 0
M  V30 10020 N 932.681 0.308908 1.54543 0
M  V30 10021 C 933.611 -0.556657 2.26768 0
M  V30 10022 C 934.592 -1.13145 1.27013 0
M  V30 10023 O 935.777 -1.15931 1.558 0
M  V30 10024 C 932.907 -1.72481 3.01443 0
M  V30 10025 C 931.861 -1.28001 4.08411 0
M  V30 10026 C 931.187 -2.53395 4.70845 0
M  V30 10027 C 932.487 -0.405497 5.20724 0
M  V30 10028 H 934.181 0.0457618 2.99365 0
M  V30 10029 H 931.727 0.0234495 1.43981 0
M  V30 10030 H 933.68 -2.3365 3.50693 0
M  V30 10031 H 932.404 -2.35359 2.26437 0
M  V30 10032 H 931.063 -0.69133 3.60022 0
M  V30 10033 H 930.711 -3.14604 3.92471 0
M  V30 10034 H 930.411 -2.2433 5.43093 0
M  V30 10035 H 931.935 -3.15352 5.22863 0
M  V30 10036 H 933.349 -0.923076 5.6582 0
M  V30 10037 H 931.746 -0.208282 5.99738 0
M  V30 10038 H 932.816 0.567412 4.81569 0
M  V30 10039 N 934.159 -1.57557 0.0367827 0
M  V30 10040 C 935.122 -2.09591 -0.927589 0
M  V30 10041 C 936.122 -1.01252 -1.24919 0
M  V30 10042 O 937.312 -1.27382 -1.18825 0
M  V30 10043 C 934.444 -2.56816 -2.24184 0
M  V30 10044 H 935.637 -2.96086 -0.476784 0
M  V30 10045 H 933.19 -1.54864 -0.211385 0
M  V30 10046 H 933.925 -1.73673 -2.73876 0
M  V30 10047 H 933.71 -3.35973 -2.0215 0
M  V30 10048 H 935.2 -2.97271 -2.93291 0
M  V30 10049 N 935.637 0.236453 -1.55816 0
M  V30 10050 C 937.048 0.80468 -1.68469 0
M  V30 10051 C 937.399 1.85601 -0.636133 0
M  V30 10052 O 936.524 2.15323 0.215622 0
M  V30 10053 C 937.119 1.46634 -3.05424 0
M  V30 10054 C 935.678 1.98214 -3.19981 0
M  V30 10055 C 934.825 0.83695 -2.64368 0
M  V30 10056 H 937.776 0.0120647 -1.58695 0
M  V30 10057 H 937.797 2.33472 -3.00451 0
M  V30 10058 H 937.309 0.700931 -3.81718 0
M  V30 10059 H 935.41 2.77604 -2.4853 0
M  V30 10060 H 935.523 2.17235 -4.2702 0
M  V30 10061 H 933.887 1.24028 -2.22462 0
M  V30 10062 H 934.67 0.084451 -3.43196 0
M  V30 10063 N 937.115 1.49373 0.502552 0
M  V30 10064 C 938.078 1.65413 1.58654 0
M  V30 10065 C 939.078 0.526003 1.51953 0
M  V30 10066 O 940.268 0.792421 1.55133 0
M  V30 10067 C 937.4 1.65005 2.98306 0
M  V30 10068 H 938.593 2.62095 1.45762 0
M  V30 10069 H 936.146 1.38381 0.726672 0
M  V30 10070 H 936.881 0.699014 3.16677 0
M  V30 10071 H 936.666 2.46931 3.04578 0
M  V30 10072 H 938.156 1.79477 3.77065 0
M  V30 10073 N 938.594 -0.753485 1.38421 0
M  V30 10074 C 939.557 -1.84888 1.35459 0
M  V30 10075 C 940.557 -1.58764 0.255083 0
M  V30 10076 O 941.747 -1.66507 0.511978 0
M  V30 10077 C 938.879 -3.22361 1.10888 0
M  V30 10078 H 940.072 -1.88922 2.32913 0
M  V30 10079 H 937.625 -0.955199 1.23716 0
M  V30 10080 H 938.36 -3.23996 0.1404 0
M  V30 10081 H 938.145 -3.42717 1.90492 0
M  V30 10082 H 939.635 -4.02437 1.1151 0
M  V30 10083 N 940.072 -1.23292 -0.981677 0
M  V30 10084 C 941.483 -1.05936 -1.53735 0
M  V30 10085 C 941.834 0.373695 -1.92608 0
M  V30 10086 O 940.959 1.26024 -1.75917 0
M  V30 10087 C 941.554 -1.91682 -2.79363 0
M  V30 10088 C 940.113 -1.78591 -3.31334 0
M  V30 10089 C 939.26 -1.87463 -2.04335 0
M  V30 10090 H 942.211 -1.36973 -0.801505 0
M  V30 10091 H 942.232 -1.44085 -3.52164 0
M  V30 10092 H 941.744 -2.95975 -2.51039 0
M  V30 10093 H 939.845 -0.770755 -3.64541 0
M  V30 10094 H 939.958 -2.61902 -4.01179 0
M  V30 10095 H 938.322 -1.3103 -2.18411 0
M  V30 10096 H 939.105 -2.9331 -1.78394 0
M  V30 10097 N 941.55 1.18024 -1.04442 0
M  V30 10098 C 942.482 2.21294 -0.596799 0
M  V30 10099 C 943.495 1.59305 0.33552 0
M  V30 10100 O 944.684 1.7803 0.129443 0
M  V30 10101 C 941.784 3.38578 0.147648 0
M  V30 10102 C 940.957 4.30143 -0.793484 0
M  V30 10103 C 940.016 5.2612 -0.0916561 0
M  V30 10104 O 939.042 5.64586 -0.72331 0
M  V30 10105 N 940.244 5.68512 1.17364 0
M  V30 10106 H 943.009 2.6032 -1.48504 0
M  V30 10107 H 940.57 1.32847 -0.925374 0
M  V30 10108 H 942.562 3.99812 0.627098 0
M  V30 10109 H 941.132 2.98212 0.937466 0
M  V30 10110 H 940.352 3.66456 -1.45272 0
M  V30 10111 H 941.64 4.88216 -1.43258 0
M  V30 10112 H 941.038 5.39322 1.70729 0
M  V30 10113 H 939.595 6.31925 1.5973 0
M  V30 10114 N 943.028 0.824394 1.34319 0
M  V30 10115 C 943.958 0.262077 2.32025 0
M  V30 10116 C 944.939 -0.622277 1.58309 0
M  V30 10117 O 946.124 -0.548848 1.86283 0
M  V30 10118 C 943.254 -0.57567 3.42496 0
M  V30 10119 C 942.208 0.21167 4.27476 0
M  V30 10120 C 941.534 -0.748913 5.29429 0
M  V30 10121 C 942.834 1.42068 5.02607 0
M  V30 10122 H 944.528 1.07842 2.79304 0
M  V30 10123 H 942.074 0.520022 1.34282 0
M  V30 10124 H 944.027 -0.979251 4.09864 0
M  V30 10125 H 942.751 -1.42508 2.93869 0
M  V30 10126 H 941.41 0.596636 3.61712 0
M  V30 10127 H 941.058 -1.59432 4.77064 0
M  V30 10128 H 940.758 -0.226313 5.87164 0
M  V30 10129 H 942.282 -1.15032 5.99667 0
M  V30 10130 H 943.696 1.09103 5.62823 0
M  V30 10131 H 942.093 1.87903 5.69923 0
M  V30 10132 H 943.163 2.1981 4.32217 0
M  V30 10133 N 944.506 -1.46559 0.579492 0
M  V30 10134 C 945.438 -2.28383 -0.19337 0
M  V30 10135 C 946.451 -1.38324 -0.858511 0
M  V30 10136 O 947.64 -1.62952 -0.728615 0
M  V30 10137 C 944.74 -3.13262 -1.29306 0
M  V30 10138 C 943.913 -4.31426 -0.720459 0
M  V30 10139 C 942.972 -4.97728 -1.70744 0
M  V30 10140 O 941.998 -5.55423 -1.24476 0
M  V30 10141 N 943.2 -4.94445 -3.04146 0
M  V30 10142 H 945.965 -2.95353 0.508611 0
M  V30 10143 H 943.526 -1.56436 0.417046 0
M  V30 10144 H 945.518 -3.54483 -1.95254 0
M  V30 10145 H 944.088 -2.48388 -1.89795 0
M  V30 10146 H 943.308 -3.94028 0.116398 0
M  V30 10147 H 944.596 -5.07808 -0.31763 0
M  V30 10148 H 943.994 -4.4881 -3.44363 0
M  V30 10149 H 942.551 -5.39616 -3.65592 0
M  V30 10150 N 945.984 -0.3171 -1.54377 0
M  V30 10151 C 947.261 0.341348 -1.92598 0
M  V30 10152 C 947.641 1.70402 -1.24605 0
M  V30 10153 O 946.989 2.25191 -0.387448 0
M  V30 10154 C 947.199 0.440003 -3.46215 0
M  V30 10155 C 948.547 0.703327 -4.18734 0
M  V30 10156 O 949.571 0.523181 -3.52337 0
M  V30 10157 O 948.43 1.05042 -5.3631 0
M  V30 10158 H 945.524 0.193696 -0.803997 0
M  V30 10159 H 948.07 -0.366341 -1.65699 0
M  V30 10160 H 946.842 -0.517299 -3.87866 0
M  V30 10161 H 946.465 1.19553 -3.792 0
M  V30 10162 N 947.462 1.57535 -0.0451378 0
M  V30 10163 C 948.392 2.14208 0.929372 0
M  V30 10164 C 949.373 1.06221 1.32858 0
M  V30 10165 O 950.558 1.34132 1.40436 0
M  V30 10166 C 947.688 2.68217 2.20629 0
M  V30 10167 C 946.642 3.81134 1.94734 0
M  V30 10168 C 945.968 4.21636 3.28828 0
M  V30 10169 C 947.268 5.06531 1.27374 0
M  V30 10170 H 948.962 2.95886 0.457348 0
M  V30 10171 H 946.508 1.42332 0.218544 0
M  V30 10172 H 948.461 3.06502 2.89196 0
M  V30 10173 H 947.185 1.83722 2.70026 0
M  V30 10174 H 945.844 3.43312 1.28579 0
M  V30 10175 H 945.492 3.34099 3.76014 0
M  V30 10176 H 945.192 4.97736 3.12302 0
M  V30 10177 H 946.716 4.62516 3.98637 0
M  V30 10178 H 948.13 5.423 1.85967 0
M  V30 10179 H 946.527 5.87735 1.21194 0
M  V30 10180 H 947.597 4.84261 0.248913 0
M  V30 10181 N 948.94 -0.228186 1.55939 0
M  V30 10182 C 949.903 -1.26621 1.91049 0
M  V30 10183 C 950.903 -1.40141 0.788491 0
M  V30 10184 O 952.093 -1.3852 1.05631 0
M  V30 10185 C 949.225 -2.64108 2.15545 0
M  V30 10186 H 950.418 -0.966978 2.83883 0
M  V30 10187 H 947.971 -0.468313 1.49119 0
M  V30 10188 H 948.706 -2.99141 1.25241 0
M  V30 10189 H 948.491 -2.55673 2.97277 0
M  V30 10190 H 949.981 -3.39025 2.43827 0
M  V30 10191 N 950.418 -1.49637 -0.494624 0
M  V30 10192 C 951.643 -1.63431 -1.27691 0
M  V30 10193 C 952.068 -0.30813 -1.85559 0
M  V30 10194 O 951.426 0.725083 -1.66169 0
M  V30 10195 C 951.474 -2.71043 -2.3784 0
M  V30 10196 O 950.578 -2.3066 -3.41862 0
M  V30 10197 H 949.919 -0.546804 -0.376698 0
M  V30 10198 H 952.449 -1.95866 -0.591413 0
M  V30 10199 H 952.459 -2.93406 -2.83508 0
M  V30 10200 H 951.134 -3.67306 -1.95088 0
M  V30 10201 H 949.711 -2.18652 -3.02069 0
M  V30 10202 N 951.896 0.746133 -1.38819 0
M  V30 10203 C 953.121 1.54049 -1.38866 0
M  V30 10204 C 953.546 1.88092 0.0176624 0
M  V30 10205 O 952.904 1.51113 1.00173 0
M  V30 10206 C 952.952 2.8116 -2.25791 0
M  V30 10207 O 952.056 3.76623 -1.68014 0
M  V30 10208 H 951.397 0.465648 -0.473359 0
M  V30 10209 H 953.927 0.921469 -1.82675 0
M  V30 10210 H 953.937 3.30009 -2.39913 0
M  V30 10211 H 952.612 2.55713 -3.27999 0
M  V30 10212 H 951.189 3.35352 -1.63074 0
M  V30 10213 N 953.375 1.23811 0.975125 0
M  V30 10214 C 954.615 1.08517 1.73215 0
M  V30 10215 C 954.979 -0.370777 1.88386 0
M  V30 10216 O 956.18 -0.645036 2.60946 0
M  V30 10217 C 954.451 1.79649 3.08968 0
M  V30 10218 S 956.01 1.79993 4.00185 0
M  V30 10219 H 952.828 0.388256 0.595633 0
M  V30 10220 H 955.43 1.57028 1.16458 0
M  V30 10221 H 954.134 2.8471 2.95581 0
M  V30 10222 H 953.665 1.31441 3.70792 0
M  V30 10223 H 955.68 0.862294 4.8865 0
M  V30 10224 N 954.853 -1.17469 1.05066 0
M  V30 10225 C 956.264 -1.69334 0.786304 0
M  V30 10226 C 956.615 -1.83604 -0.691671 0
M  V30 10227 O 955.74 -1.52269 -1.53763 0
M  V30 10228 C 956.335 -3.07572 1.42074 0
M  V30 10229 C 954.894 -3.56609 1.20446 0
M  V30 10230 C 954.041 -2.329 1.50508 0
M  V30 10231 H 956.992 -1.02003 1.21577 0
M  V30 10232 H 957.013 -3.71352 0.829334 0
M  V30 10233 H 956.525 -2.97154 2.49642 0
M  V30 10234 H 954.626 -3.72306 0.147968 0
M  V30 10235 H 954.739 -4.39446 1.90852 0
M  V30 10236 H 953.103 -2.37305 0.925124 0
M  V30 10237 H 953.886 -2.25093 2.59207 0
M  V30 10238 N 956.331 -0.831506 -1.3388 0
M  V30 10239 C 957.263 -0.216908 -2.28171 0
M  V30 10240 C 958.276 0.598141 -1.51414 0
M  V30 10241 O 959.465 0.426416 -1.73332 0
M  V30 10242 C 956.565 0.713831 -3.31297 0
M  V30 10243 C 955.738 -0.0602673 -4.37358 0
M  V30 10244 C 954.797 0.792696 -5.20195 0
M  V30 10245 O 953.823 0.234564 -5.68716 0
M  V30 10246 N 955.025 2.11119 -5.40748 0
M  V30 10247 H 957.79 -1.02704 -2.81553 0
M  V30 10248 H 955.351 -0.689272 -1.46495 0
M  V30 10249 H 957.343 1.28925 -3.83615 0
M  V30 10250 H 955.913 1.42469 -2.78247 0
M  V30 10251 H 955.133 -0.817041 -3.8564 0
M  V30 10252 H 956.421 -0.592822 -5.05335 0
M  V30 10253 H 955.819 2.58828 -5.03016 0
M  V30 10254 H 954.376 2.63527 -5.96151 0
M  V30 10255 N 957.809 1.4625 -0.587256 0
M  V30 10256 C 958.719 2.34147 0.145744 0
M  V30 10257 C 959.735 1.50026 0.881376 0
M  V30 10258 O 960.911 1.82884 0.843539 0
M  V30 10259 C 957.976 3.27294 1.14366 0
M  V30 10260 C 957.037 4.27317 0.412199 0
M  V30 10261 C 956.27 5.16013 1.36257 0
M  V30 10262 O 956.493 5.0773 2.59934 0
M  V30 10263 O 955.427 5.95569 0.870681 0
M  V30 10264 H 959.253 2.98187 -0.576055 0
M  V30 10265 H 956.838 1.45299 -0.347628 0
M  V30 10266 H 958.72 3.84747 1.71894 0
M  V30 10267 H 957.395 2.65845 1.84684 0
M  V30 10268 H 956.302 3.73538 -0.205036 0
M  V30 10269 H 957.635 4.91564 -0.250104 0
M  V30 10270 N 959.287 0.325282 1.54207 0
M  V30 10271 C 960.197 -0.548778 2.28091 0
M  V30 10272 C 961.213 -1.12772 1.32508 0
M  V30 10273 O 962.389 -1.14732 1.65525 0
M  V30 10274 C 959.454 -1.69284 3.02562 0
M  V30 10275 C 958.515 -1.14553 4.13734 0
M  V30 10276 C 957.748 -2.23506 4.84645 0
M  V30 10277 O 957.971 -3.43884 4.55082 0
M  V30 10278 O 956.905 -1.88828 5.71513 0
M  V30 10279 H 960.731 0.0512974 3.03657 0
M  V30 10280 H 958.316 0.0909159 1.49123 0
M  V30 10281 H 960.198 -2.35887 3.49192 0
M  V30 10282 H 958.873 -2.27906 2.2987 0
M  V30 10283 H 957.78 -0.444532 3.71449 0
M  V30 10284 H 959.113 -0.60441 4.88475 0
M  V30 10285 N 960.765 -1.57509 0.0534917 0
M  V30 10286 C 962.011 -1.93068 -0.62069 0
M  V30 10287 C 962.344 -0.932313 -1.70357 0
M  V30 10288 O 961.619 0.0413393 -1.94456 0
M  V30 10289 C 961.902 -3.38997 -1.21463 0
M  V30 10290 C 961.755 -4.49583 -0.13965 0
M  V30 10291 C 963.074 -3.85366 -2.12558 0
M  V30 10292 H 960.193 -0.702083 -0.224163 0
M  V30 10293 H 962.835 -1.89647 0.115729 0
M  V30 10294 H 960.985 -3.42043 -1.84226 0
M  V30 10295 H 962.657 -4.58664 0.492411 0
M  V30 10296 H 960.9 -4.30525 0.532006 0
M  V30 10297 H 961.571 -5.48781 -0.595287 0
M  V30 10298 H 964.047 -3.8421 -1.59755 0
M  V30 10299 H 962.923 -4.8812 -2.51058 0
M  V30 10300 H 963.184 -3.22256 -3.02661 0
M  V30 10301 N 962.243 0.219913 -1.56058 0
M  V30 10302 C 963.468 0.965073 -1.83579 0
M  V30 10303 C 963.893 1.77092 -0.634024 0
M  V30 10304 O 963.251 1.76434 0.417205 0
M  V30 10305 C 963.299 1.85705 -3.09105 0
M  V30 10306 O 962.403 2.95261 -2.87914 0
M  V30 10307 H 961.744 0.273173 -0.605204 0
M  V30 10308 H 964.274 0.23273 -2.03272 0
M  V30 10309 H 964.284 2.26655 -3.39252 0
M  V30 10310 H 962.959 1.26476 -3.96203 0
M  V30 10311 H 961.536 2.58246 -2.69005 0
M  V30 10312 N 963.721 1.49897 0.486681 0
M  V30 10313 C 964.653 1.63755 1.60365 0
M  V30 10314 C 965.666 0.519614 1.54285 0
M  V30 10315 O 966.855 0.792219 1.59957 0
M  V30 10316 C 963.955 1.59153 2.99205 0
M  V30 10317 C 963.128 2.8672 3.30319 0
M  V30 10318 C 962.187 2.74974 4.48638 0
M  V30 10319 O 961.213 3.48922 4.49714 0
M  V30 10320 N 962.415 1.87479 5.49392 0
M  V30 10321 H 965.18 2.60094 1.48899 0
M  V30 10322 H 962.741 1.47166 0.674825 0
M  V30 10323 H 964.733 1.4893 3.76301 0
M  V30 10324 H 963.303 0.706133 3.0452 0
M  V30 10325 H 962.523 3.11188 2.41983 0
M  V30 10326 H 963.811 3.71262 3.47911 0
M  V30 10327 H 963.209 1.26684 5.51333 0
M  V30 10328 H 961.766 1.83169 6.25534 0
M  V30 10329 N 965.199 -0.738761 1.39212 0
M  V30 10330 C 966.131 -1.86286 1.3353 0
M  V30 10331 C 967.144 -1.6095 0.244755 0
M  V30 10332 O 968.333 -1.71254 0.50343 0
M  V30 10333 C 965.433 -3.22234 1.04969 0
M  V30 10334 C 964.606 -3.74956 2.25226 0
M  V30 10335 C 963.665 -4.89457 1.9318 0
M  V30 10336 O 962.691 -5.03314 2.65826 0
M  V30 10337 N 963.893 -5.73548 0.895679 0
M  V30 10338 H 966.658 -1.91666 2.304 0
M  V30 10339 H 964.219 -0.919338 1.33266 0
M  V30 10340 H 966.211 -3.96397 0.815566 0
M  V30 10341 H 964.781 -3.12146 0.168451 0
M  V30 10342 H 964.001 -2.92188 2.64612 0
M  V30 10343 H 965.289 -4.06914 3.05448 0
M  V30 10344 H 964.687 -5.64938 0.293541 0
M  V30 10345 H 963.244 -6.47795 0.721451 0
M  V30 10346 N 966.677 -1.24326 -0.968545 0
M  V30 10347 C 967.609 -0.992749 -2.06584 0
M  V30 10348 C 968.622 0.0374902 -1.62757 0
M  V30 10349 O 969.811 -0.199448 -1.77382 0
M  V30 10350 C 966.911 -0.476165 -3.35538 0
M  V30 10351 C 966.084 -1.56934 -4.08277 0
M  V30 10352 C 965.143 -1.05555 -5.15504 0
M  V30 10353 O 964.169 -1.74707 -5.41725 0
M  V30 10354 N 965.371 0.110465 -5.80395 0
M  V30 10355 H 968.136 -1.93752 -2.28649 0
M  V30 10356 H 965.697 -1.15344 -1.13611 0
M  V30 10357 H 967.689 -0.117223 -4.0453 0
M  V30 10358 H 966.259 0.374315 -3.10351 0
M  V30 10359 H 965.479 -2.10051 -3.33575 0
M  V30 10360 H 966.767 -2.30415 -4.53637 0
M  V30 10361 H 966.165 0.688614 -5.61493 0
M  V30 10362 H 964.722 0.41056 -6.50506 0
M  V30 10363 N 968.156 1.1691 -1.05688 0
M  V30 10364 C 969.066 2.24735 -0.67315 0
M  V30 10365 C 970.082 1.71252 0.308043 0
M  V30 10366 O 971.258 2.00772 0.158889 0
M  V30 10367 C 968.323 3.4665 -0.059026 0
M  V30 10368 C 967.384 4.15198 -1.0913 0
M  V30 10369 C 966.617 5.31292 -0.50639 0
M  V30 10370 O 966.84 5.663 0.682692 0
M  V30 10371 O 965.774 5.88923 -1.2431 0
M  V30 10372 H 969.6 2.59855 -1.57191 0
M  V30 10373 H 967.185 1.24306 -0.828751 0
M  V30 10374 H 969.067 4.20455 0.282018 0
M  V30 10375 H 967.742 3.13316 0.813304 0
M  V30 10376 H 966.649 3.43389 -1.48442 0
M  V30 10377 H 967.982 4.52571 -1.93495 0
M  V30 10378 N 969.634 0.838594 1.33437 0
M  V30 10379 C 970.859 0.446701 2.02532 0
M  V30 10380 C 971.284 -0.944275 1.62681 0
M  V30 10381 O 970.642 -1.61733 0.81927 0
M  V30 10382 C 970.69 0.574794 3.55989 0
M  V30 10383 O 969.794 -0.399063 4.10465 0
M  V30 10384 H 969.135 0.181637 0.638674 0
M  V30 10385 H 971.665 1.13335 1.70342 0
M  V30 10386 H 971.675 0.456339 4.0544 0
M  V30 10387 H 970.35 1.58921 3.8434 0
M  V30 10388 H 968.927 -0.238187 3.72139 0
M  V30 10389 N 971.112 -1.45937 0.595003 0
M  V30 10390 C 972.358 -2.0262 0.0854317 0
M  V30 10391 C 972.691 -1.46402 -1.27594 0
M  V30 10392 O 971.966 -0.633823 -1.83883 0
M  V30 10393 C 972.249 -3.60085 0.0329075 0
M  V30 10394 C 972.102 -4.26663 1.42405 0
M  V30 10395 C 973.421 -4.35101 -0.661426 0
M  V30 10396 H 970.54 -0.736282 0.0325196 0
M  V30 10397 H 973.182 -1.73938 0.764563 0
M  V30 10398 H 971.332 -3.84652 -0.545439 0
M  V30 10399 H 973.004 -4.13321 2.04851 0
M  V30 10400 H 971.247 -3.85549 1.98833 0
M  V30 10401 H 971.918 -5.35497 1.33965 0
M  V30 10402 H 974.394 -4.15753 -0.169977 0
M  V30 10403 H 973.27 -5.44829 -0.667243 0
M  V30 10404 H 973.531 -4.07053 -1.72513 0
M  V30 10405 N 972.59 -0.333456 -1.54032 0
M  V30 10406 C 973.815 0.270517 -2.05628 0
M  V30 10407 C 974.24 1.44231 -1.20744 0
M  V30 10408 O 973.598 1.79975 -0.218822 0
M  V30 10409 C 973.646 0.673251 -3.54259 0
M  V30 10410 O 972.75 1.77448 -3.72271 0
M  V30 10411 H 972.091 0.0469753 -0.662336 0
M  V30 10412 H 974.621 -0.484739 -1.98775 0
M  V30 10413 H 974.631 0.953194 -3.96709 0
M  V30 10414 H 973.306 -0.183747 -4.15494 0
M  V30 10415 H 971.883 1.49259 -3.41725 0
M  V30 10416 N 974.068 1.57479 -0.061844 0
M  V30 10417 C 975.296 1.97429 0.618837 0
M  V30 10418 C 975.711 0.939826 1.63746 0
M  V30 10419 O 975.068 -0.0747173 1.82347 0
M  V30 10420 C 975.119 3.3746 1.29628 0
M  V30 10421 O 974.84 4.36941 0.318431 0
M  V30 10422 C 976.341 3.92228 2.06572 0
M  V30 10423 H 973.561 0.649513 0.168444 0
M  V30 10424 H 976.105 2.04078 -0.131303 0
M  V30 10425 H 974.26 3.31928 1.99757 0
M  V30 10426 H 974.674 5.18313 0.803239 0
M  V30 10427 H 976.148 4.92458 2.49377 0
M  V30 10428 H 976.625 3.28231 2.91824 0
M  V30 10429 H 977.231 4.01131 1.4133 0
M  V30 10430 N 975.546 -0.211634 1.56173 0
M  V30 10431 C 976.476 -1.26533 1.96244 0
M  V30 10432 C 977.457 -1.48362 0.832028 0
M  V30 10433 O 978.642 -1.60378 1.0951 0
M  V30 10434 C 975.772 -2.61307 2.2877 0
M  V30 10435 C 974.726 -2.54119 3.44395 0
M  V30 10436 C 974.052 -3.93014 3.62552 0
M  V30 10437 C 975.352 -2.08046 4.79076 0
M  V30 10438 H 977.046 -0.932407 2.84511 0
M  V30 10439 H 974.592 -0.447084 1.36884 0
M  V30 10440 H 976.545 -3.35188 2.55396 0
M  V30 10441 H 975.269 -2.96307 1.37367 0
M  V30 10442 H 973.928 -1.82694 3.17834 0
M  V30 10443 H 973.576 -4.25338 2.68508 0
M  V30 10444 H 973.276 -3.89083 4.40327 0
M  V30 10445 H 974.8 -4.68542 3.91537 0
M  V30 10446 H 976.214 -2.71676 5.04842 0
M  V30 10447 H 974.611 -2.15154 5.60204 0
M  V30 10448 H 975.681 -1.03306 4.73768 0
M  V30 10449 N 977.024 -1.50153 -0.478725 0
M  V30 10450 C 978.435 -1.53706 -1.05978 0
M  V30 10451 C 978.786 -0.336112 -1.933 0
M  V30 10452 O 977.911 0.551803 -2.09246 0
M  V30 10453 C 978.506 -2.78541 -1.92874 0
M  V30 10454 C 977.065 -2.848 -2.46102 0
M  V30 10455 C 976.212 -2.47902 -1.24257 0
M  V30 10456 H 979.163 -1.56528 -0.261664 0
M  V30 10457 H 979.184 -2.59964 -2.77847 0
M  V30 10458 H 978.696 -3.6593 -1.29293 0
M  V30 10459 H 976.797 -2.01744 -3.13257 0
M  V30 10460 H 976.91 -3.87511 -2.81731 0
M  V30 10461 H 975.274 -2.0017 -1.57493 0
M  V30 10462 H 976.057 -3.3759 -0.62351 0
M  V30 10463 N 978.502 0.731368 -1.39602 0
M  V30 10464 C 979.465 1.8271 -1.38383 0
M  V30 10465 C 980.465 1.58338 -0.280309 0
M  V30 10466 O 981.655 1.65671 -0.538402 0
M  V30 10467 C 978.787 3.20556 -1.16002 0
M  V30 10468 H 979.98 1.85193 -2.35889 0
M  V30 10469 H 977.533 0.935396 -1.2522 0
M  V30 10470 H 978.268 3.23732 -0.191927 0
M  V30 10471 H 978.053 3.39643 -1.9592 0
M  V30 10472 H 979.543 4.00612 -1.17899 0
M  V30 10473 N 979.98 1.24838 0.961938 0
M  V30 10474 C 981.205 1.11967 1.7458 0
M  V30 10475 C 981.63 -0.323287 1.85301 0
M  V30 10476 O 980.988 -1.23412 1.32812 0
M  V30 10477 C 981.036 1.77066 3.14134 0
M  V30 10478 O 980.14 1.04534 3.98932 0
M  V30 10479 H 979.481 0.391338 0.536424 0
M  V30 10480 H 982.011 1.65259 1.20626 0
M  V30 10481 H 982.021 1.83056 3.64629 0
M  V30 10482 H 980.696 2.82052 3.05646 0
M  V30 10483 H 979.273 1.06372 3.57407 0
M  V30 10484 N 981.458 -1.16348 1.06306 0
M  V30 10485 C 982.704 -1.87158 0.781007 0
M  V30 10486 C 983.037 -1.81499 -0.690784 0
M  V30 10487 O 982.312 -1.23074 -1.50609 0
M  V30 10488 C 982.595 -3.3672 1.27639 0
M  V30 10489 C 982.448 -3.51069 2.81194 0
M  V30 10490 C 983.767 -4.31122 0.884388 0
M  V30 10491 H 980.886 -0.679586 0.285187 0
M  V30 10492 H 983.528 -1.36756 1.31901 0
M  V30 10493 H 981.678 -3.79775 0.818715 0
M  V30 10494 H 983.35 -3.16952 3.35171 0
M  V30 10495 H 981.593 -2.92976 3.19918 0
M  V30 10496 H 982.264 -4.56105 3.10921 0
M  V30 10497 H 984.74 -3.95969 1.27858 0
M  V30 10498 H 983.616 -5.34279 1.25847 0
M  V30 10499 H 983.877 -4.41598 -0.210673 0
M  V30 10500 N 982.937 -0.845659 -1.3299 0
M  V30 10501 C 983.887 -0.2557 -2.26562 0
M  V30 10502 C 984.871 0.593245 -1.49564 0
M  V30 10503 O 986.063 0.444101 -1.71338 0
M  V30 10504 C 983.192 0.562573 -3.38659 0
M  V30 10505 C 982.278 -0.298259 -4.2305 0
M  V30 10506 N 982.669 -1.38023 -4.86604 0
M  V30 10507 C 980.967 -0.0864539 -4.45916 0
M  V30 10508 C 981.668 -1.90907 -5.49481 0
M  V30 10509 N 980.644 -1.20955 -5.29973 0
M  V30 10510 H 984.446 -1.083 -2.73219 0
M  V30 10511 H 981.96 -0.690823 -1.46974 0
M  V30 10512 H 983.957 1.00157 -4.0469 0
M  V30 10513 H 982.617 1.38777 -2.93549 0
M  V30 10514 H 983.628 -1.76314 -4.86964 0
M  V30 10515 H 980.305 0.70475 -4.11509 0
M  V30 10516 H 981.695 -2.81552 -6.10064 0
M  V30 10517 N 984.415 1.45619 -0.602734 0
M  V30 10518 C 985.826 1.85814 -0.181636 0
M  V30 10519 C 986.177 1.5037 1.26029 0
M  V30 10520 O 985.302 0.928068 1.95489 0
M  V30 10521 C 985.897 3.37258 -0.322866 0
M  V30 10522 C 984.456 3.76375 0.043504 0
M  V30 10523 C 983.603 2.69585 -0.649561 0
M  V30 10524 H 986.554 1.36489 -0.809721 0
M  V30 10525 H 986.575 3.77874 0.446279 0
M  V30 10526 H 986.087 3.63024 -1.37241 0
M  V30 10527 H 984.188 3.56226 1.09241 0
M  V30 10528 H 984.301 4.77843 -0.346765 0
M  V30 10529 H 982.665 2.54549 -0.087706 0
M  V30 10530 H 983.448 2.98188 -1.70115 0
M  V30 10531 N 985.893 0.34162 1.53853 0
M  V30 10532 C 986.825 -0.550383 2.22494 0
M  V30 10533 C 987.838 -1.0655 1.23089 0
M  V30 10534 O 989.027 -0.975985 1.49455 0
M  V30 10535 C 986.127 -1.76995 2.89009 0
M  V30 10536 C 985.3 -1.39045 4.14711 0
M  V30 10537 C 984.359 -2.46947 4.64654 0
M  V30 10538 O 983.385 -2.10336 5.28912 0
M  V30 10539 N 984.587 -3.7817 4.40418 0
M  V30 10540 H 987.352 0.037456 2.99677 0
M  V30 10541 H 984.913 0.165654 1.6105 0
M  V30 10542 H 986.905 -2.48608 3.19337 0
M  V30 10543 H 985.475 -2.2652 2.15424 0
M  V30 10544 H 984.695 -0.505161 3.9095 0
M  V30 10545 H 985.983 -1.11284 4.96481 0
M  V30 10546 H 985.381 -4.10704 3.89023 0
M  V30 10547 H 983.938 -4.45959 4.75356 0
M  V30 10548 N 987.371 -1.57444 0.0701946 0
M  V30 10549 C 988.301 -2.15659 -0.895176 0
M  V30 10550 C 989.282 -1.08321 -1.31151 0
M  V30 10551 O 990.467 -1.36349 -1.38284 0
M  V30 10552 C 987.597 -2.71693 -2.16334 0
M  V30 10553 C 986.551 -3.84183 -1.88645 0
M  V30 10554 C 985.877 -4.26814 -3.22078 0
M  V30 10555 C 987.177 -5.08493 -1.19299 0
M  V30 10556 H 988.871 -2.96576 -0.410217 0
M  V30 10557 H 986.417 -1.42662 -0.195872 0
M  V30 10558 H 988.37 -3.11064 -2.84284 0
M  V30 10559 H 987.094 -1.87994 -2.67069 0
M  V30 10560 H 985.753 -3.45314 -1.23101 0
M  V30 10561 H 985.401 -3.40039 -3.70651 0
M  V30 10562 H 985.101 -5.02642 -3.04344 0
M  V30 10563 H 986.625 -4.68799 -3.91228 0
M  V30 10564 H 988.039 -5.4519 -1.77316 0
M  V30 10565 H 986.436 -5.89588 -1.11828 0
M  V30 10566 H 987.506 -4.84595 -0.171839 0
M  V30 10567 N 988.849 0.203349 -1.56283 0
M  V30 10568 C 990.074 0.945548 -1.84592 0
M  V30 10569 C 990.499 1.7641 -0.652772 0
M  V30 10570 O 989.857 1.76867 0.398468 0
M  V30 10571 C 989.905 1.82416 -3.11057 0
M  V30 10572 O 989.009 2.92191 -2.9103 0
M  V30 10573 H 988.35 0.266739 -0.608068 0
M  V30 10574 H 990.88 0.211158 -2.03507 0
M  V30 10575 H 990.89 2.23044 -3.41636 0
M  V30 10576 H 989.565 1.22267 -3.97522 0
M  V30 10577 H 988.142 2.55378 -2.71728 0
M  V30 10578 N 990.327 1.50405 0.470755 0
M  V30 10579 C 991.738 1.54266 1.05162 0
M  V30 10580 C 992.089 0.346359 1.93119 0
M  V30 10581 O 991.214 -0.540699 2.09536 0
M  V30 10582 C 991.809 2.7956 1.91394 0
M  V30 10583 C 990.368 2.86101 2.44588 0
M  V30 10584 C 989.515 2.48557 1.22941 0
M  V30 10585 H 992.466 1.56665 0.253359 0
M  V30 10586 H 992.487 2.61434 2.76464 0
M  V30 10587 H 991.999 3.66611 1.27351 0
M  V30 10588 H 990.1 2.03403 3.12183 0
M  V30 10589 H 990.213 3.88999 2.79672 0
M  V30 10590 H 988.577 2.01003 1.56429 0
M  V30 10591 H 989.36 3.37916 0.605598 0
M  V30 10592 N 991.805 -0.723954 1.39988 0
M  V30 10593 C 993.221 -1.03095 1.21834 0
M  V30 10594 C 993.421 -2.01309 0.0876647 0
M  V30 10595 O 992.477 -2.46277 -0.55714 0
M  V30 10596 C 993.79 -1.58267 2.5568 0
M  V30 10597 C 995.338 -1.70293 2.6262 0
M  V30 10598 C 995.813 -2.28872 3.96713 0
M  V30 10599 N 997.304 -2.36269 3.98411 0
M  V30 10600 C 998.039 -2.82557 4.98948 0
M  V30 10601 N 997.535 -3.28661 6.0988 0
M  V30 10602 N 999.328 -2.81866 4.86321 0
M  V30 10603 H 991.479 -0.0727891 2.12275 0
M  V30 10604 H 993.742 -0.0949029 0.943238 0
M  V30 10605 H 993.448 -0.935642 3.39026 0
M  V30 10606 H 993.322 -2.56914 2.76179 0
M  V30 10607 H 995.709 -2.34115 1.7965 0
M  V30 10608 H 995.79 -0.70268 2.45959 0
M  V30 10609 H 995.434 -1.65675 4.80119 0
M  V30 10610 H 995.364 -3.29595 4.107 0
M  V30 10611 H 997.855 -2.03697 3.18302 0
M  V30 10612 H 998.168 -3.62524 6.82493 0
M  V30 10613 H 996.513 -3.26641 6.13458 0
M  V30 10614 H 999.704 -2.45179 3.98754 0
M  V30 10615 H 999.877 -3.17626 5.64817 0
M  V30 10616 N 993.283 -1.25346 -0.955304 0
M  V30 10617 C 994.215 -1.0146 -2.0552 0
M  V30 10618 C 995.228 0.0202256 -1.62787 0
M  V30 10619 O 996.417 -0.218251 -1.77161 0
M  V30 10620 C 993.517 -0.511727 -3.35014 0
M  V30 10621 C 992.69 -1.61256 -4.0659 0
M  V30 10622 C 991.749 -1.11017 -5.14356 0
M  V30 10623 O 990.775 -1.80443 -5.39842 0
M  V30 10624 N 991.977 0.0489001 -5.80479 0
M  V30 10625 H 994.742 -1.96166 -2.26581 0
M  V30 10626 H 992.303 -1.16543 -1.12381 0
M  V30 10627 H 994.295 -0.160123 -4.04383 0
M  V30 10628 H 992.865 0.341377 -3.1073 0
M  V30 10629 H 992.085 -2.13577 -3.31328 0
M  V30 10630 H 993.373 -2.35213 -4.51168 0
M  V30 10631 H 992.771 0.629021 -5.62192 0
M  V30 10632 H 991.328 0.341542 -6.50905 0
M  V30 10633 N 994.761 1.15782 -1.06922 0
M  V30 10634 C 995.986 1.90896 -0.810771 0
M  V30 10635 C 996.411 1.77246 0.629714 0
M  V30 10636 O 995.769 1.10215 1.43953 0
M  V30 10637 C 995.817 3.39397 -1.21829 0
M  V30 10638 O 994.921 4.10818 -0.360934 0
M  V30 10639 H 994.262 0.594497 -0.295752 0
M  V30 10640 H 996.792 1.46652 -1.42669 0
M  V30 10641 H 996.802 3.90181 -1.19259 0
M  V30 10642 H 995.477 3.4865 -2.2675 0
M  V30 10643 H 994.054 3.7019 -0.448748 0
M  V30 10644 N 996.239 0.8527 1.3254 0
M  V30 10645 C 997.169 0.311234 2.31416 0
M  V30 10646 C 998.15 -0.588557 1.59593 0
M  V30 10647 O 999.335 -0.509211 1.87405 0
M  V30 10648 C 996.465 -0.502892 3.4364 0
M  V30 10649 C 995.419 0.302296 4.26931 0
M  V30 10650 C 994.745 -0.636445 5.30899 0
M  V30 10651 C 996.045 1.52697 4.99481 0
M  V30 10652 H 997.739 1.13742 2.76953 0
M  V30 10653 H 995.285 0.548389 1.33149 0
M  V30 10654 H 997.238 -0.892092 4.11849 0
M  V30 10655 H 995.962 -1.36242 2.96826 0
M  V30 10656 H 994.621 0.673226 3.60365 0
M  V30 10657 H 994.269 -1.49277 4.80339 0
M  V30 10658 H 993.969 -0.101716 5.87512 0
M  V30 10659 H 995.493 -1.02286 6.01972 0
M  V30 10660 H 996.907 1.21017 5.60382 0
M  V30 10661 H 995.304 1.9995 5.65809 0
M  V30 10662 H 996.374 2.28929 4.27457 0
M  V30 10663 N 997.718 -1.45297 0.610449 0
M  V30 10664 C 998.628 -2.34349 -0.108475 0
M  V30 10665 C 999.644 -1.51409 -0.857397 0
M  V30 10666 O 1000.82 -1.84202 -0.814337 0
M  V30 10667 C 997.885 -3.29072 -1.09144 0
M  V30 10668 C 996.946 -4.27918 -0.344165 0
M  V30 10669 C 996.179 -5.18116 -1.28031 0
M  V30 10670 O 996.402 -5.11802 -2.51824 0
M  V30 10671 O 995.336 -5.96879 -0.775821 0
M  V30 10672 H 999.162 -2.97232 0.623421 0
M  V30 10673 H 996.747 -1.44728 0.3707 0
M  V30 10674 H 998.629 -3.87433 -1.65751 0
M  V30 10675 H 997.304 -2.68749 -1.80431 0
M  V30 10676 H 996.211 -3.73164 0.264437 0
M  V30 10677 H 997.544 -4.91104 0.328275 0
M  V30 10678 N 999.196 -0.349774 -1.5367 0
M  V30 10679 C 1000.42 0.246038 -2.05432 0
M  V30 10680 C 1000.84 1.43719 -1.22435 0
M  V30 10681 O 1000.2 1.80622 -0.261166 0
M  V30 10682 C 1000.25 0.65501 -3.55516 0
M  V30 10683 O 999.968 -0.488782 -4.35365 0
M  V30 10684 C 1001.47 1.31088 -4.23475 0
M  V30 10685 H 998.689 0.0463952 -0.669394 0
M  V30 10686 H 1001.23 -0.503566 -1.98203 0
M  V30 10687 H 999.388 1.35455 -3.62947 0
M  V30 10688 H 999.802 -0.161528 -5.24251 0
M  V30 10689 H 1001.28 1.54774 -5.29857 0
M  V30 10690 H 1001.75 2.26636 -3.76208 0
M  V30 10691 H 1002.36 0.653211 -4.20254 0
M  V30 10692 N 1000.67 1.57404 -0.0785433 0
M  V30 10693 C 1001.61 2.101 0.916013 0
M  V30 10694 C 1002.62 1.03459 1.25698 0
M  V30 10695 O 1003.81 1.30954 1.21299 0
M  V30 10696 C 1000.91 2.55202 2.22992 0
M  V30 10697 C 1000.08 3.85491 2.06678 0
M  V30 10698 C 999.14 4.16614 3.21433 0
M  V30 10699 O 998.166 4.86105 2.96126 0
M  V30 10700 N 999.368 3.70697 4.46726 0
M  V30 10701 H 1002.13 2.96054 0.466059 0
M  V30 10702 H 999.694 1.61546 0.107006 0
M  V30 10703 H 1001.69 2.7308 2.9868 0
M  V30 10704 H 1000.26 1.74348 2.59464 0
M  V30 10705 H 999.476 3.76925 1.15417 0
M  V30 10706 H 1000.76 4.70759 1.93036 0
M  V30 10707 H 1000.16 3.14571 4.70172 0
M  V30 10708 H 998.719 3.93762 5.19418 0
M  V30 10709 N 1002.15 -0.195058 1.56388 0
M  V30 10710 C 1003.38 -0.930291 1.8447 0
M  V30 10711 C 1003.79 -1.77356 0.658901 0
M  V30 10712 O 1003.13 -1.79691 -0.381664 0
M  V30 10713 C 1003.19 -1.87626 3.06654 0
M  V30 10714 C 1002.86 -1.21494 4.40555 0
M  V30 10715 C 1003.86 -0.591847 5.1652 0
M  V30 10716 C 1001.54 -1.21878 4.8729 0
M  V30 10717 C 1003.53 0.0185743 6.37397 0
M  V30 10718 C 1001.22 -0.604524 6.08103 0
M  V30 10719 C 1002.22 0.0130731 6.82999 0
M  V30 10720 O 1001.91 0.617703 8.01523 0
M  V30 10721 H 1001.64 -0.276933 0.616672 0
M  V30 10722 H 1004.19 -0.207277 2.04351 0
M  V30 10723 H 1002.42 -2.63897 2.82658 0
M  V30 10724 H 1004.11 -2.47929 3.21382 0
M  V30 10725 H 1004.88 -0.581018 4.81507 0
M  V30 10726 H 1000.76 -1.68888 4.2895 0
M  V30 10727 H 1004.3 0.50124 6.95797 0
M  V30 10728 H 1000.2 -0.612855 6.42584 0
M  V30 10729 H 1000.97 0.514612 8.16881 0
M  V30 10730 N 1003.63 -1.50653 -0.462772 0
M  V30 10731 C 1004.56 -1.73056 -1.5676 0
M  V30 10732 C 1005.54 -0.579699 -1.59917 0
M  V30 10733 O 1006.73 -0.819729 -1.76051 0
M  V30 10734 C 1003.86 -1.83234 -2.9503 0
M  V30 10735 C 1002.81 -2.98488 -3.06739 0
M  V30 10736 C 1002.14 -2.93818 -4.46738 0
M  V30 10737 C 1003.44 -4.38869 -2.83181 0
M  V30 10738 H 1005.13 -2.65562 -1.38265 0
M  V30 10739 H 1002.68 -1.27792 -0.663722 0
M  V30 10740 H 1004.63 -1.97491 -3.72257 0
M  V30 10741 H 1003.35 -0.873558 -3.14701 0
M  V30 10742 H 1002.01 -2.83895 -2.31946 0
M  V30 10743 H 1001.66 -1.95769 -4.63339 0
M  V30 10744 H 1001.36 -3.71197 -4.55507 0
M  V30 10745 H 1002.88 -3.10135 -5.25974 0
M  V30 10746 H 1004.3 -4.53945 -3.50153 0
M  V30 10747 H 1002.69 -5.17762 -3.03386 0
M  V30 10748 H 1003.76 -4.50663 -1.78972 0
M  V30 10749 N 1005.11 0.71652 -1.4037 0
M  V30 10750 C 1006.04 1.84138 -1.36477 0
M  V30 10751 C 1007.05 1.6054 -0.27033 0
M  V30 10752 O 1008.24 1.70431 -0.530612 0
M  V30 10753 C 1005.34 3.20523 -1.10082 0
M  V30 10754 C 1004.52 3.71326 -2.31162 0
M  V30 10755 C 1003.57 4.86322 -2.00942 0
M  V30 10756 O 1002.6 4.99022 -2.73799 0
M  V30 10757 N 1003.8 5.72051 -0.986812 0
M  V30 10758 H 1006.57 1.87977 -2.3342 0
M  V30 10759 H 1004.13 0.89802 -1.34712 0
M  V30 10760 H 1006.12 3.95049 -0.878526 0
M  V30 10761 H 1004.69 3.11838 -0.21809 0
M  V30 10762 H 1003.91 2.87941 -2.69227 0
M  V30 10763 H 1005.2 4.02003 -3.11883 0
M  V30 10764 H 1004.6 5.64399 -0.383381 0
M  V30 10765 H 1003.15 6.46565 -0.824419 0
M  V30 10766 N 1006.59 1.25851 0.948643 0
M  V30 10767 C 1007.54 1.03437 2.03187 0
M  V30 10768 C 1008.52 -0.0307632 1.60871 0
M  V30 10769 O 1009.71 0.185296 1.76027 0
M  V30 10770 C 1006.84 0.661426 3.36868 0
M  V30 10771 C 1005.93 1.76363 3.8569 0
M  V30 10772 N 1006.32 2.9998 4.07241 0
M  V30 10773 C 1004.62 1.64552 4.14534 0
M  V30 10774 C 1005.32 3.71564 4.47566 0
M  V30 10775 N 1004.29 2.99214 4.53841 0
M  V30 10776 H 1008.1 1.97277 2.17851 0
M  V30 10777 H 1005.61 1.16258 1.13392 0
M  V30 10778 H 1007.61 0.482021 4.14104 0
M  V30 10779 H 1006.27 -0.269582 3.23579 0
M  V30 10780 H 1007.28 3.35963 3.94143 0
M  V30 10781 H 1003.95 0.783891 4.10075 0
M  V30 10782 H 1005.34 4.77702 4.72494 0
M  V30 10783 N 1008.06 -1.15214 1.07534 0
M  V30 10784 C 1009.48 -1.38031 0.801228 0
M  V30 10785 C 1009.68 -1.92556 -0.593672 0
M  V30 10786 O 1008.74 -2.1325 -1.35206 0
M  V30 10787 C 1010.05 -2.34958 1.87657 0
M  V30 10788 C 1011.6 -2.48617 1.90154 0
M  V30 10789 C 1012.07 -3.48837 2.96777 0
M  V30 10790 N 1013.56 -3.56374 2.95892 0
M  V30 10791 C 1014.3 -4.33746 3.75036 0
M  V30 10792 N 1013.79 -5.14435 4.64036 0
M  V30 10793 N 1015.59 -4.28853 3.63375 0
M  V30 10794 H 1007.74 -0.781639 1.97495 0
M  V30 10795 H 1010 -0.406243 0.856546 0
M  V30 10796 H 1009.71 -2.02013 2.87895 0
M  V30 10797 H 1009.58 -3.3476 1.73827 0
M  V30 10798 H 1011.97 -2.80859 0.905666 0
M  V30 10799 H 1012.05 -1.48808 2.08062 0
M  V30 10800 H 1011.69 -3.1733 3.96565 0
M  V30 10801 H 1011.62 -4.48406 2.76116 0
M  V30 10802 H 1014.11 -2.98784 2.31379 0
M  V30 10803 H 1014.43 -5.70722 5.21053 0
M  V30 10804 H 1012.77 -5.13734 4.68084 0
M  V30 10805 H 1015.96 -3.64882 2.93221 0
M  V30 10806 H 1016.14 -4.88903 4.25298 0
M  V30 10807 N 1009.54 -0.859717 -1.32086 0
M  V30 10808 C 1010.47 -0.323502 -2.31248 0
M  V30 10809 C 1011.45 0.580085 -1.59903 0
M  V30 10810 O 1012.64 0.499265 -1.87673 0
M  V30 10811 C 1009.77 0.484661 -3.43902 0
M  V30 10812 C 1008.72 -0.324933 -4.26765 0
M  V30 10813 C 1008.05 0.608281 -5.31229 0
M  V30 10814 C 1009.35 -1.55344 -4.98664 0
M  V30 10815 H 1011.04 -1.15209 -2.76346 0
M  V30 10816 H 1008.59 -0.555442 -1.32856 0
M  V30 10817 H 1010.54 0.870238 -4.12316 0
M  V30 10818 H 1009.27 1.34666 -2.97544 0
M  V30 10819 H 1007.92 -0.692328 -3.60003 0
M  V30 10820 H 1007.57 1.46727 -4.81124 0
M  V30 10821 H 1007.27 0.0705571 -5.87558 0
M  V30 10822 H 1008.8 0.990925 -6.02506 0
M  V30 10823 H 1010.21 -1.23987 -5.59732 0
M  V30 10824 H 1008.61 -2.02947 -5.64741 0
M  V30 10825 H 1009.68 -2.31192 -4.26237 0
M  V30 10826 N 1011.02 1.44971 -0.618145 0
M  V30 10827 C 1011.95 2.28815 0.132751 0
M  V30 10828 C 1012.97 1.40551 0.821535 0
M  V30 10829 O 1014.15 1.64827 0.685155 0
M  V30 10830 C 1011.25 3.1658 1.20955 0
M  V30 10831 C 1010.43 4.33184 0.605821 0
M  V30 10832 C 1009.49 5.0208 1.57488 0
M  V30 10833 O 1008.51 5.58528 1.09706 0
M  V30 10834 N 1009.71 5.02335 2.9093 0
M  V30 10835 H 1012.48 2.939 -0.58674 0
M  V30 10836 H 1010.04 1.55276 -0.458375 0
M  V30 10837 H 1012.03 3.59535 1.85787 0
M  V30 10838 H 1010.6 2.53333 1.83143 0
M  V30 10839 H 1009.82 3.93581 -0.220827 0
M  V30 10840 H 1011.11 5.08471 0.182883 0
M  V30 10841 H 1010.51 4.57783 3.32342 0
M  V30 10842 H 1009.07 5.49119 3.51157 0
M  V30 10843 N 1012.5 0.357919 1.53482 0
M  V30 10844 C 1013.45 -0.49217 2.25491 0
M  V30 10845 C 1014.42 -1.08382 1.25867 0
M  V30 10846 O 1015.6 -1.11775 1.54632 0
M  V30 10847 C 1012.74 -1.6299 3.04185 0
M  V30 10848 C 1011.85 -1.06416 4.18688 0
M  V30 10849 C 1010.99 -2.17037 4.84839 0
M  V30 10850 C 1010.03 -1.57889 5.91386 0
M  V30 10851 N 1009.16 -2.6231 6.51259 0
M  V30 10852 H 1014 0.128412 2.97723 0
M  V30 10853 H 1011.54 0.0751423 1.46908 0
M  V30 10854 H 1013.5 -2.29993 3.48079 0
M  V30 10855 H 1012.13 -2.22125 2.34223 0
M  V30 10856 H 1011.18 -0.284635 3.79334 0
M  V30 10857 H 1012.49 -0.591654 4.95279 0
M  V30 10858 H 1011.65 -2.91876 5.31877 0
M  V30 10859 H 1010.39 -2.67636 4.07703 0
M  V30 10860 H 1009.39 -0.815605 5.43717 0
M  V30 10861 H 1010.62 -1.08123 6.70437 0
M  V30 10862 H 1008.56 -3.12137 5.7698 0
M  V30 10863 H 1008.48 -2.19724 7.23365 0
M  V30 10864 H 1009.75 -3.36875 7.02948 0
M  V30 10865 N 1013.98 -1.5736 0.0868897 0
M  V30 10866 C 1015.39 -1.81356 -0.443499 0
M  V30 10867 C 1015.74 -1.00192 -1.68689 0
M  V30 10868 O 1014.86 -0.228863 -2.15186 0
M  V30 10869 C 1015.46 -3.28941 -0.811387 0
M  V30 10870 C 1014.02 -3.53729 -1.28656 0
M  V30 10871 C 1013.16 -2.75891 -0.279153 0
M  V30 10872 H 1016.12 -1.55594 0.312427 0
M  V30 10873 H 1016.14 -3.41815 -1.6716 0
M  V30 10874 H 1015.65 -3.87987 0.0937598 0
M  V30 10875 H 1013.75 -3.00005 -2.2097 0
M  V30 10876 H 1013.86 -4.62396 -1.25406 0
M  V30 10877 H 1012.23 -2.4311 -0.759595 0
M  V30 10878 H 1013.01 -3.37682 0.618529 0
M  V30 10879 N 1015.45 0.186762 -1.56489 0
M  V30 10880 C 1016.68 0.925916 -1.85584 0
M  V30 10881 C 1017.1 1.75708 -0.671446 0
M  V30 10882 O 1016.46 1.7728 0.379687 0
M  V30 10883 C 1016.51 1.79107 -3.12975 0
M  V30 10884 O 1015.61 2.89088 -2.94112 0
M  V30 10885 H 1014.96 0.260275 -0.610863 0
M  V30 10886 H 1017.49 0.189561 -2.0372 0
M  V30 10887 H 1017.5 2.19408 -3.43983 0
M  V30 10888 H 1016.17 1.18044 -3.98796 0
M  V30 10889 H 1014.75 2.52482 -2.74422 0
M  V30 10890 N 1016.93 1.50896 0.454776 0
M  V30 10891 C 1017.86 1.73885 1.5584 0
M  V30 10892 C 1018.84 0.588172 1.59607 0
M  V30 10893 O 1020.03 0.829054 1.75614 0
M  V30 10894 C 1017.16 1.84796 2.94054 0
M  V30 10895 C 1016.11 3.00111 3.05152 0
M  V30 10896 C 1015.44 2.96183 4.45174 0
M  V30 10897 C 1016.74 4.40365 2.80849 0
M  V30 10898 H 1018.43 2.66292 1.36854 0
M  V30 10899 H 1015.98 1.28142 0.656936 0
M  V30 10900 H 1017.93 1.99462 3.71204 0
M  V30 10901 H 1016.66 0.890235 3.14233 0
M  V30 10902 H 1015.31 2.85121 2.30438 0
M  V30 10903 H 1014.96 1.98224 4.62295 0
M  V30 10904 H 1014.66 3.73608 4.53532 0
M  V30 10905 H 1016.19 3.1292 5.24322 0
M  V30 10906 H 1017.6 4.55795 3.47741 0
M  V30 10907 H 1016 5.19363 3.00636 0
M  V30 10908 H 1017.07 4.51606 1.76579 0
M  V30 10909 N 1018.41 -0.709066 1.40748 0
M  V30 10910 C 1019.34 -1.83583 1.4429 0
M  V30 10911 C 1020.32 -1.67378 0.303067 0
M  V30 10912 O 1021.51 -1.87312 0.512612 0
M  V30 10913 C 1018.64 -3.21599 1.31116 0
M  V30 10914 C 1017.59 -3.52486 2.4277 0
M  V30 10915 C 1016.92 -4.89716 2.14668 0
M  V30 10916 C 1018.22 -3.52824 3.85113 0
M  V30 10917 H 1019.91 -1.80876 2.38588 0
M  V30 10918 H 1017.46 -0.868795 1.14839 0
M  V30 10919 H 1019.41 -4.00123 1.32209 0
M  V30 10920 H 1018.13 -3.24898 0.332965 0
M  V30 10921 H 1016.79 -2.76305 2.40937 0
M  V30 10922 H 1016.44 -4.89625 1.15224 0
M  V30 10923 H 1016.14 -5.11347 2.89478 0
M  V30 10924 H 1017.66 -5.70566 2.17455 0
M  V30 10925 H 1019.08 -4.21377 3.88734 0
M  V30 10926 H 1017.48 -3.85984 4.59496 0
M  V30 10927 H 1018.55 -2.52073 4.14231 0
M  V30 10928 N 1019.89 -1.26353 -0.941956 0
M  V30 10929 C 1021.11 -1.14731 -1.72776 0
M  V30 10930 C 1021.54 0.293766 -1.85792 0
M  V30 10931 O 1020.9 1.21284 -1.34759 0
M  V30 10932 C 1020.95 -1.82041 -3.11277 0
M  V30 10933 O 1020.05 -1.10867 -3.97218 0
M  V30 10934 H 1019.39 -0.399823 -0.53013 0
M  V30 10935 H 1021.92 -1.67157 -1.17981 0
M  V30 10936 H 1021.93 -1.88834 -3.61671 0
M  V30 10937 H 1020.61 -2.86879 -3.0112 0
M  V30 10938 H 1019.18 -1.12044 -3.55669 0
M  V30 10939 N 1021.37 1.14642 -1.08144 0
M  V30 10940 C 1022.31 2.1964 -0.708995 0
M  V30 10941 C 1023.28 1.63303 0.303512 0
M  V30 10942 O 1024.47 1.8987 0.18813 0
M  V30 10943 C 1021.61 3.44886 -0.121585 0
M  V30 10944 C 1020.72 4.15386 -1.18654 0
M  V30 10945 C 1019.86 5.28205 -0.56328 0
M  V30 10946 C 1018.9 5.90534 -1.61046 0
M  V30 10947 N 1018.03 6.94809 -1.00919 0
M  V30 10948 H 1022.87 2.50848 -1.6087 0
M  V30 10949 H 1020.41 1.23185 -0.803975 0
M  V30 10950 H 1022.37 4.16528 0.23668 0
M  V30 10951 H 1021 3.14169 0.741445 0
M  V30 10952 H 1020.05 3.42159 -1.66227 0
M  V30 10953 H 1021.36 4.57809 -1.9802 0
M  V30 10954 H 1020.52 6.06507 -0.153109 0
M  V30 10955 H 1019.26 4.86995 0.262066 0
M  V30 10956 H 1018.26 5.10938 -2.03033 0
M  V30 10957 H 1019.49 6.33819 -2.43824 0
M  V30 10958 H 1017.43 6.5568 -0.204894 0
M  V30 10959 H 1017.35 7.35704 -1.73999 0
M  V30 10960 H 1018.62 7.76992 -0.624792 0
M  V30 10961 N 1022.85 0.866709 1.31628 0
M  V30 10962 C 1023.81 0.325041 2.26883 0
M  V30 10963 C 1024.81 -0.522133 1.52087 0
M  V30 10964 O 1026 -0.331908 1.71009 0
M  V30 10965 C 1023.13 -0.538756 3.36616 0
M  V30 10966 H 1024.32 1.16592 2.76308 0
M  V30 10967 H 1021.88 0.642029 1.42505 0
M  V30 10968 H 1022.61 -1.40096 2.92478 0
M  V30 10969 H 1022.4 0.0678115 3.92041 0
M  V30 10970 H 1023.89 -0.910123 4.07562 0
M  V30 10971 N 1024.32 -1.44642 0.625825 0
M  V30 10972 C 1025.26 -2.28882 -0.120614 0
M  V30 10973 C 1026.27 -1.40985 -0.81407 0
M  V30 10974 O 1027.46 -1.65188 -0.676404 0
M  V30 10975 C 1024.56 -3.17217 -1.19274 0
M  V30 10976 C 1023.73 -4.33499 -0.582839 0
M  V30 10977 C 1022.79 -5.02908 -1.54823 0
M  V30 10978 O 1021.82 -5.59102 -1.06743 0
M  V30 10979 N 1023.02 -5.0387 -2.88262 0
M  V30 10980 H 1025.78 -2.93585 0.602318 0
M  V30 10981 H 1023.34 -1.5503 0.466604 0
M  V30 10982 H 1025.34 -3.60515 -1.83878 0
M  V30 10983 H 1023.91 -2.54301 -1.81797 0
M  V30 10984 H 1023.13 -3.93458 0.241696 0
M  V30 10985 H 1024.41 -5.08561 -0.155914 0
M  V30 10986 H 1023.81 -4.59539 -3.2991 0
M  V30 10987 H 1022.37 -5.50974 -3.4824 0
M  V30 10988 N 1025.8 -0.366053 -1.5329 0
M  V30 10989 C 1026.75 0.495319 -2.27265 0
M  V30 10990 C 1027.74 1.08298 -1.30261 0
M  V30 10991 O 1028.95 1.02613 -1.47887 0
M  V30 10992 H 1025.32 0.178454 -0.730519 0
M  V30 10993 H 1027.3 -0.150354 -2.98021 0
M  V30 10994 C 1026.04 1.62283 -3.07505 0
M  V30 10995 H 1025.37 1.17993 -3.81992 0
M  V30 10996 H 1026.81 2.20024 -3.62444 0
M  V30 10997 C 1025.27 2.56542 -2.18375 0
M  V30 10998 O 1025.8 3.59371 -1.79486 0
M  V30 10999 N 1024 2.25742 -1.82999 0
M  V30 11000 H 1023.55 1.42159 -2.14822 0
M  V30 11001 H 1023.51 2.89064 -1.2365 0
M  V30 11002 N 1027.28 1.57312 -0.0952337 0
M  V30 11003 C 1028.51 1.98697 0.57682 0
M  V30 11004 C 1028.92 0.974347 1.61716 0
M  V30 11005 O 1028.28 -0.036022 1.82464 0
M  V30 11006 C 1028.33 3.40133 1.2244 0
M  V30 11007 O 1028.05 4.37518 0.225678 0
M  V30 11008 C 1029.55 3.96522 1.98205 0
M  V30 11009 H 1026.77 0.65294 0.154629 0
M  V30 11010 H 1029.32 2.03754 -0.174562 0
M  V30 11011 H 1027.47 3.3609 1.92671 0
M  V30 11012 H 1027.89 5.199 0.693116 0
M  V30 11013 H 1029.36 4.97637 2.38875 0
M  V30 11014 H 1029.84 3.34347 2.84796 0
M  V30 11015 H 1030.44 4.04038 1.3279 0
M  V30 11016 N 1028.76 -0.17846 1.56586 0
M  V30 11017 C 1030 -0.90281 1.83381 0
M  V30 11018 C 1030.36 -1.79738 0.675139 0
M  V30 11019 O 1031.56 -2.55879 0.823368 0
M  V30 11020 C 1029.83 -1.68353 3.15265 0
M  V30 11021 S 1031.39 -2.45762 3.6352 0
M  V30 11022 H 1028.21 -0.302508 0.643436 0
M  V30 11023 H 1030.81 -0.164961 1.94803 0
M  V30 11024 H 1029.52 -1.01725 3.97593 0
M  V30 11025 H 1029.05 -2.46289 3.06766 0
M  V30 11026 H 1031.06 -3.70312 3.30278 0
M  V30 11027 N 1030.24 -1.51135 -0.446768 0
M  V30 11028 C 1031.17 -1.67949 -1.55967 0
M  V30 11029 C 1032.18 -0.560337 -1.52853 0
M  V30 11030 O 1033.37 -0.83435 -1.578 0
M  V30 11031 C 1030.47 -1.6703 -2.9488 0
M  V30 11032 C 1029.64 -2.95377 -3.22601 0
M  V30 11033 C 1028.7 -2.86772 -4.4119 0
M  V30 11034 O 1027.73 -3.60722 -4.40304 0
M  V30 11035 N 1028.93 -2.01979 -5.44228 0
M  V30 11036 H 1031.69 -2.63951 -1.41951 0
M  V30 11037 H 1029.26 -1.48903 -0.635569 0
M  V30 11038 H 1031.25 -1.58854 -3.7222 0
M  V30 11039 H 1029.82 -0.786623 -3.02541 0
M  V30 11040 H 1029.04 -3.17494 -2.33647 0
M  V30 11041 H 1030.33 -3.80356 -3.37945 0
M  V30 11042 H 1029.72 -1.41257 -5.4778 0
M  V30 11043 H 1028.28 -1.99689 -6.20457 0
M  V30 11044 N 1031.71 0.701592 -1.41122 0
M  V30 11045 C 1032.64 1.82815 -1.45262 0
M  V30 11046 C 1033.62 1.67215 -0.311939 0
M  V30 11047 O 1034.81 1.87038 -0.522538 0
M  V30 11048 C 1031.94 3.20899 -1.32819 0
M  V30 11049 C 1030.89 3.51194 -2.44636 0
M  V30 11050 C 1030.22 4.8857 -2.17263 0
M  V30 11051 C 1031.52 3.50777 -3.86979 0
M  V30 11052 H 1033.21 1.79608 -2.39544 0
M  V30 11053 H 1030.76 0.862693 -1.15298 0
M  V30 11054 H 1032.71 3.99417 -1.34329 0
M  V30 11055 H 1031.44 3.24717 -0.350191 0
M  V30 11056 H 1030.1 2.75024 -2.42399 0
M  V30 11057 H 1029.74 4.89007 -1.17819 0
M  V30 11058 H 1029.44 5.09805 -2.92186 0
M  V30 11059 H 1030.97 5.69405 -2.20478 0
M  V30 11060 H 1032.38 4.19309 -3.90964 0
M  V30 11061 H 1030.78 3.83542 -4.61536 0
M  V30 11062 H 1031.85 2.49873 -4.15562 0
M  V30 11063 N 1033.19 1.2685 0.935242 0
M  V30 11064 C 1034.42 1.15371 1.71386 0
M  V30 11065 C 1034.83 -0.293048 1.86917 0
M  V30 11066 O 1034.17 -1.212 1.38044 0
M  V30 11067 C 1034.23 1.75652 3.13666 0
M  V30 11068 C 1033.9 3.24788 3.215 0
M  V30 11069 C 1034.9 4.21525 3.04323 0
M  V30 11070 C 1032.58 3.65359 3.447 0
M  V30 11071 C 1034.57 5.56812 3.10224 0
M  V30 11072 C 1032.26 5.00778 3.50235 0
M  V30 11073 C 1033.26 5.96314 3.33014 0
M  V30 11074 O 1032.95 7.29266 3.38269 0
M  V30 11075 H 1032.68 0.40234 0.54323 0
M  V30 11076 H 1035.23 1.68083 1.18056 0
M  V30 11077 H 1033.46 1.17408 3.68446 0
M  V30 11078 H 1035.15 1.58994 3.73465 0
M  V30 11079 H 1035.92 3.91519 2.86249 0
M  V30 11080 H 1031.8 2.91479 3.57157 0
M  V30 11081 H 1035.34 6.3136 2.967 0
M  V30 11082 H 1031.24 5.30444 3.67831 0
M  V30 11083 H 1032.01 7.37616 3.54774 0
M  V30 11084 N 1034.67 -1.14067 1.0875 0
M  V30 11085 C 1035.91 -1.8684 0.828873 0
M  V30 11086 C 1036.27 -1.81235 -0.633879 0
M  V30 11087 O 1037.48 -2.49178 -1.00815 0
M  V30 11088 C 1035.75 -3.31299 1.34073 0
M  V30 11089 S 1037.31 -4.21645 1.21494 0
M  V30 11090 H 1034.12 -0.644622 0.299972 0
M  V30 11091 H 1036.73 -1.37526 1.38949 0
M  V30 11092 H 1035.43 -3.32929 2.39972 0
M  V30 11093 H 1034.96 -3.85672 0.775944 0
M  V30 11094 H 1036.98 -4.95937 0.161446 0
M  V30 11095 N 1036.15 -0.873678 -1.31166 0
M  V30 11096 C 1037.1 -0.330288 -2.28424 0
M  V30 11097 C 1038.07 0.573299 -1.55893 0
M  V30 11098 O 1039.25 0.504143 -1.84019 0
M  V30 11099 C 1036.39 0.459004 -3.42034 0
M  V30 11100 C 1035.5 -0.472519 -4.29408 0
M  V30 11101 C 1034.64 0.331261 -5.30166 0
M  V30 11102 C 1033.68 -0.596453 -6.09187 0
M  V30 11103 N 1032.81 0.171305 -7.01891 0
M  V30 11104 H 1037.65 -1.16485 -2.7429 0
M  V30 11105 H 1035.19 -0.585813 -1.34932 0
M  V30 11106 H 1037.15 0.932432 -4.06647 0
M  V30 11107 H 1035.78 1.25824 -2.97268 0
M  V30 11108 H 1034.83 -1.06441 -3.65205 0
M  V30 11109 H 1036.14 -1.18372 -4.84551 0
M  V30 11110 H 1035.3 0.867038 -6.00473 0
M  V30 11111 H 1034.04 1.07573 -4.75688 0
M  V30 11112 H 1033.04 -1.14395 -5.37767 0
M  V30 11113 H 1034.27 -1.33983 -6.65752 0
M  V30 11114 H 1032.21 0.89852 -6.49817 0
M  V30 11115 H 1032.13 -0.480481 -7.54472 0
M  V30 11116 H 1033.4 0.688192 -7.76456 0
M  V30 11117 N 1037.63 1.44308 -0.633487 0
M  V30 11118 C 1038.54 2.34492 0.0711787 0
M  V30 11119 C 1039.55 1.52754 0.8332 0
M  V30 11120 O 1040.73 1.85475 0.784929 0
M  V30 11121 C 1037.79 3.30767 1.03895 0
M  V30 11122 C 1036.85 4.28412 0.276043 0
M  V30 11123 C 1036.09 5.20087 1.19772 0
M  V30 11124 O 1036.31 5.15743 2.4365 0
M  V30 11125 O 1035.24 5.98038 0.680764 0
M  V30 11126 H 1039.07 2.96203 -0.67063 0
M  V30 11127 H 1036.66 1.4412 -0.393678 0
M  V30 11128 H 1038.54 3.90021 1.59566 0
M  V30 11129 H 1037.21 2.71586 1.76133 0
M  V30 11130 H 1036.12 3.72696 -0.32377 0
M  V30 11131 H 1037.45 4.9052 -0.406364 0
M  V30 11132 N 1039.1 0.374177 1.53094 0
M  V30 11133 C 1040.52 -0.103172 1.86415 0
M  V30 11134 C 1040.87 -1.47439 1.29446 0
M  V30 11135 O 1039.99 -2.07333 0.619853 0
M  V30 11136 C 1040.59 -0.193988 3.38244 0
M  V30 11137 C 1039.15 -0.615605 3.71332 0
M  V30 11138 C 1038.29 0.23186 2.76329 0
M  V30 11139 H 1041.24 0.592644 1.47219 0
M  V30 11140 H 1041.26 -1.01597 3.66686 0
M  V30 11141 H 1040.78 0.80414 3.79678 0
M  V30 11142 H 1038.88 -1.62165 3.3546 0
M  V30 11143 H 1038.99 -0.38425 4.77557 0
M  V30 11144 H 1037.35 -0.300579 2.5292 0
M  V30 11145 H 1038.14 1.22769 3.20597 0
M  V30 11146 N 1040.58 -1.57259 0.103575 0
M  V30 11147 C 1041.99 -1.81816 -0.424239 0
M  V30 11148 C 1042.34 -1.01976 -1.67617 0
M  V30 11149 O 1041.47 -0.251673 -2.14932 0
M  V30 11150 C 1042.06 -3.29783 -0.776453 0
M  V30 11151 C 1040.62 -3.55074 -1.24897 0
M  V30 11152 C 1039.77 -2.76172 -0.249875 0
M  V30 11153 H 1042.72 -1.55254 0.328913 0
M  V30 11154 H 1042.74 -3.43569 -1.63526 0
M  V30 11155 H 1042.25 -3.87865 0.134906 0
M  V30 11156 H 1040.36 -3.02332 -2.17775 0
M  V30 11157 H 1040.47 -4.637 -1.20495 0
M  V30 11158 H 1038.83 -2.43902 -0.733767 0
M  V30 11159 H 1039.62 -3.37007 0.65431 0
M  V30 11160 N 1042.06 0.170153 -1.56679 0
M  V30 11161 C 1043.48 0.521966 -1.50823 0
M  V30 11162 C 1043.68 1.84589 -0.808037 0
M  V30 11163 O 1042.73 2.49791 -0.368891 0
M  V30 11164 C 1044.05 0.553648 -2.95559 0
M  V30 11165 C 1045.59 0.640769 -3.06371 0
M  V30 11166 C 1046.07 0.703332 -4.52567 0
M  V30 11167 N 1047.56 0.76619 -4.56819 0
M  V30 11168 C 1048.29 0.835192 -5.67285 0
M  V30 11169 N 1047.79 0.864957 -6.87379 0
M  V30 11170 N 1049.58 0.874302 -5.55259 0
M  V30 11171 H 1041.73 -0.697952 -2.00605 0
M  V30 11172 H 1044 -0.251787 -0.913952 0
M  V30 11173 H 1043.7 -0.350498 -3.49949 0
M  V30 11174 H 1043.58 1.39973 -3.50268 0
M  V30 11175 H 1045.96 1.53534 -2.52015 0
M  V30 11176 H 1046.05 -0.232008 -2.54746 0
M  V30 11177 H 1045.69 -0.186986 -5.07556 0
M  V30 11178 H 1045.62 1.59227 -5.0195 0
M  V30 11179 H 1048.11 0.751424 -3.70354 0
M  V30 11180 H 1048.42 0.918814 -7.67318 0
M  V30 11181 H 1046.77 0.833215 -6.89987 0
M  V30 11182 H 1049.96 0.848057 -4.60354 0
M  V30 11183 H 1050.13 0.924615 -6.4137 0
M  V30 11184 N 1043.54 1.5137 0.438746 0
M  V30 11185 C 1044.76 1.68058 1.21537 0
M  V30 11186 C 1045.19 0.376787 1.84288 0
M  V30 11187 O 1044.55 -0.662911 1.68746 0
M  V30 11188 C 1044.59 2.79684 2.27616 0
M  V30 11189 O 1043.7 2.43189 3.33066 0
M  V30 11190 H 1043.04 0.560408 0.356144 0
M  V30 11191 H 1045.57 1.97926 0.518311 0
M  V30 11192 H 1045.58 3.03726 2.72423 0
M  V30 11193 H 1044.25 3.74293 1.81321 0
M  V30 11194 H 1042.83 2.29713 2.93746 0
M  V30 11195 N 1045.02 -0.694098 1.41492 0
M  V30 11196 C 1045.95 -1.82042 1.46229 0
M  V30 11197 C 1046.93 -1.67047 0.320803 0
M  V30 11198 O 1048.11 -1.86758 0.53245 0
M  V30 11199 C 1045.24 -3.2019 1.34519 0
M  V30 11200 C 1044.2 -3.49892 2.46495 0
M  V30 11201 C 1043.52 -4.87411 2.1985 0
M  V30 11202 C 1044.82 -3.4872 3.88834 0
M  V30 11203 H 1046.52 -1.78335 2.40493 0
M  V30 11204 H 1044.06 -0.856566 1.15754 0
M  V30 11205 H 1046.02 -3.98699 1.36445 0
M  V30 11206 H 1044.74 -3.24527 0.367406 0
M  V30 11207 H 1043.4 -2.73734 2.43854 0
M  V30 11208 H 1043.05 -4.88375 1.20411 0
M  V30 11209 H 1042.75 -5.08248 2.94885 0
M  V30 11210 H 1044.27 -5.68228 2.23494 0
M  V30 11211 H 1045.68 -4.1723 3.93182 0
M  V30 11212 H 1044.08 -3.81089 4.63564 0
M  V30 11213 H 1045.15 -2.47665 4.16881 0
M  V30 11214 N 1046.49 -1.27344 -0.928501 0
M  V30 11215 C 1047.4 -1.11812 -2.06241 0
M  V30 11216 C 1048.42 -0.048347 -1.73933 0
M  V30 11217 O 1049.6 -0.25467 -1.99783 0
M  V30 11218 C 1046.66 -0.766036 -3.38131 0
M  V30 11219 C 1045.72 -1.91659 -3.84142 0
M  V30 11220 C 1044.96 -1.58121 -5.09738 0
M  V30 11221 O 1045.18 -0.488742 -5.68302 0
M  V30 11222 O 1044.11 -2.42013 -5.51102 0
M  V30 11223 H 1047.94 -2.06967 -2.22258 0
M  V30 11224 H 1045.52 -1.06524 -1.04752 0
M  V30 11225 H 1047.41 -0.582982 -4.17348 0
M  V30 11226 H 1046.08 0.155998 -3.23324 0
M  V30 11227 H 1044.99 -2.1547 -3.05816 0
M  V30 11228 H 1046.32 -2.8188 -4.0349 0
M  V30 11229 N 1047.97 1.13488 -1.09353 0
M  V30 11230 C 1048.9 2.18563 -0.69012 0
M  V30 11231 C 1049.92 1.60585 0.267651 0
M  V30 11232 O 1051.11 1.78419 0.0538176 0
M  V30 11233 C 1048.21 3.389 0.00391255 0
M  V30 11234 C 1047.38 4.2639 -0.975209 0
M  V30 11235 C 1046.44 5.25258 -0.314719 0
M  V30 11236 O 1045.46 5.6101 -0.962119 0
M  V30 11237 N 1046.67 5.72978 0.931458 0
M  V30 11238 H 1049.43 2.53788 -1.59411 0
M  V30 11239 H 1046.99 1.28803 -0.980886 0
M  V30 11240 H 1048.98 4.02112 0.45696 0
M  V30 11241 H 1047.55 3.0192 0.81014 0
M  V30 11242 H 1046.77 3.59964 -1.60684 0
M  V30 11243 H 1048.06 4.817 -1.63836 0
M  V30 11244 H 1047.46 5.46078 1.477 0
M  V30 11245 H 1046.02 6.38131 1.32784 0
M  V30 11246 N 1049.45 0.880621 1.30701 0
M  V30 11247 C 1050.38 0.301443 2.27209 0
M  V30 11248 C 1051.4 -0.541533 1.53529 0
M  V30 11249 O 1052.59 -0.361791 1.74795 0
M  V30 11250 C 1049.69 -0.59038 3.33718 0
M  V30 11251 C 1048.86 0.222549 4.36833 0
M  V30 11252 C 1047.92 -0.599083 5.22779 0
M  V30 11253 O 1046.94 -0.0233267 5.69195 0
M  V30 11254 N 1048.15 -1.90904 5.48211 0
M  V30 11255 H 1050.91 1.13083 2.77547 0
M  V30 11256 H 1048.47 0.743168 1.43835 0
M  V30 11257 H 1050.46 -1.14599 3.88135 0
M  V30 11258 H 1049.03 -1.32044 2.83343 0
M  V30 11259 H 1048.25 0.959606 3.82342 0
M  V30 11260 H 1049.54 0.779965 5.02786 0
M  V30 11261 H 1048.94 -2.3998 5.12275 0
M  V30 11262 H 1047.5 -2.4122 6.05521 0
M  V30 11263 N 1050.93 -1.4397 0.641131 0
M  V30 11264 C 1051.86 -2.33458 -0.04446 0
M  V30 11265 C 1052.84 -1.48781 -0.824507 0
M  V30 11266 O 1054.03 -1.77477 -0.788397 0
M  V30 11267 C 1051.16 -3.31989 -1.01984 0
M  V30 11268 C 1050.11 -4.2656 -0.350745 0
M  V30 11269 C 1049.44 -5.15036 -1.43673 0
M  V30 11270 C 1050.74 -5.16897 0.749299 0
M  V30 11271 H 1052.43 -2.91034 0.702832 0
M  V30 11272 H 1049.98 -1.39942 0.339435 0
M  V30 11273 H 1051.93 -3.93483 -1.50828 0
M  V30 11274 H 1050.65 -2.72643 -1.79815 0
M  V30 11275 H 1049.31 -3.66413 0.117139 0
M  V30 11276 H 1048.96 -4.52037 -2.20617 0
M  V30 11277 H 1048.66 -5.79125 -0.994358 0
M  V30 11278 H 1050.18 -5.79403 -1.92678 0
M  V30 11279 H 1051.6 -5.7227 0.343534 0
M  V30 11280 H 1049.99 -5.89643 1.11541 0
M  V30 11281 H 1051.06 -4.5731 1.61232 0
M  V30 11282 N 1052.41 -0.382291 -1.52893 0
M  V30 11283 C 1053.34 0.491199 -2.23875 0
M  V30 11284 C 1054.35 1.03249 -1.25871 0
M  V30 11285 O 1055.54 0.936016 -1.5199 0
M  V30 11286 C 1052.64 1.6927 -2.936 0
M  V30 11287 C 1051.81 1.28 -4.18252 0
M  V30 11288 C 1050.87 2.34541 -4.71038 0
M  V30 11289 O 1049.9 1.96239 -5.34302 0
M  V30 11290 N 1051.1 3.6636 -4.50289 0
M  V30 11291 H 1053.87 -0.116897 -2.99472 0
M  V30 11292 H 1051.43 -0.208296 -1.60554 0
M  V30 11293 H 1053.42 2.40054 -3.25816 0
M  V30 11294 H 1051.99 2.20729 -2.21354 0
M  V30 11295 H 1051.21 0.40133 -3.92152 0
M  V30 11296 H 1052.5 0.98082 -4.99257 0
M  V30 11297 H 1051.9 4.00245 -3.99775 0
M  V30 11298 H 1050.45 4.332 -4.87013 0
M  V30 11299 N 1053.89 1.57202 -0.111913 0
M  V30 11300 C 1054.8 2.18475 0.854753 0
M  V30 11301 C 1055.81 1.15888 1.29792 0
M  V30 11302 O 1056.99 1.48329 1.36237 0
M  V30 11303 C 1054.05 2.76645 2.0897 0
M  V30 11304 C 1053.11 3.94244 1.69913 0
M  V30 11305 C 1052.35 4.49631 2.8752 0
M  V30 11306 O 1052.57 4.03926 4.02741 0
M  V30 11307 O 1051.5 5.40417 2.65015 0
M  V30 11308 H 1055.33 3.01519 0.363352 0
M  V30 11309 H 1052.91 1.4897 0.113329 0
M  V30 11310 H 1054.8 3.13755 2.81311 0
M  V30 11311 H 1053.47 1.96637 2.5713 0
M  V30 11312 H 1052.38 3.61915 0.947013 0
M  V30 11313 H 1053.71 4.75666 1.26501 0
M  V30 11314 N 1055.36 -0.161842 1.56767 0
M  V30 11315 C 1056.31 -1.20506 1.93552 0
M  V30 11316 C 1057.3 -1.39317 0.804952 0
M  V30 11317 O 1058.49 -1.41129 1.06825 0
M  V30 11318 C 1055.62 -2.54227 2.30702 0
M  V30 11319 C 1054.7 -2.3907 3.50295 0
M  V30 11320 N 1055.1 -1.93642 4.67265 0
M  V30 11321 C 1053.39 -2.69868 3.55088 0
M  V30 11322 C 1054.09 -1.91175 5.49388 0
M  V30 11323 N 1053.07 -2.33935 4.90689 0
M  V30 11324 H 1056.87 -0.845687 2.8147 0
M  V30 11325 H 1054.39 -0.370034 1.58128 0
M  V30 11326 H 1056.38 -3.29623 2.55254 0
M  V30 11327 H 1055.04 -2.90959 1.44128 0
M  V30 11328 H 1056.05 -1.63834 4.91303 0
M  V30 11329 H 1052.73 -3.10574 2.79016 0
M  V30 11330 H 1054.12 -1.57671 6.53138 0
M  V30 11331 N 1056.84 -1.516 -0.430713 0
M  V30 11332 C 1058.26 -1.39923 -0.767706 0
M  V30 11333 C 1058.46 -0.486756 -1.95532 0
M  V30 11334 O 1057.51 0.0555965 -2.52439 0
M  V30 11335 C 1058.83 -2.82074 -1.04187 0
M  V30 11336 C 1060.37 -2.9127 -1.1459 0
M  V30 11337 C 1060.85 -4.34342 -1.45295 0
M  V30 11338 N 1062.34 -4.37479 -1.52206 0
M  V30 11339 C 1063.08 -5.45219 -1.77549 0
M  V30 11340 N 1062.57 -6.6311 -2.0064 0
M  V30 11341 N 1064.36 -5.32707 -1.79386 0
M  V30 11342 H 1056.52 -2.09474 0.351351 0
M  V30 11343 H 1058.78 -0.943247 0.0948151 0
M  V30 11344 H 1058.48 -3.50868 -0.241837 0
M  V30 11345 H 1058.36 -3.21805 -1.96777 0
M  V30 11346 H 1060.75 -2.2267 -1.93655 0
M  V30 11347 H 1060.83 -2.55026 -0.198854 0
M  V30 11348 H 1060.47 -5.03494 -0.667559 0
M  V30 11349 H 1060.4 -4.68105 -2.41217 0
M  V30 11350 H 1062.89 -3.52488 -1.36237 0
M  V30 11351 H 1063.2 -7.41012 -2.19366 0
M  V30 11352 H 1061.55 -6.66214 -1.97948 0
M  V30 11353 H 1064.74 -4.39589 -1.60869 0
M  V30 11354 H 1064.91 -6.16752 -1.98799 0
M  V30 11355 N 1058.32 0.686584 -1.41858 0
M  V30 11356 C 1059.25 1.81264 -1.47193 0
M  V30 11357 C 1060.23 1.66875 -0.329657 0
M  V30 11358 O 1061.42 1.86473 -0.542347 0
M  V30 11359 C 1058.55 3.19472 -1.36216 0
M  V30 11360 C 1057.5 3.4858 -2.48347 0
M  V30 11361 C 1056.83 4.86239 -2.22432 0
M  V30 11362 C 1058.13 3.46653 -3.90678 0
M  V30 11363 H 1059.82 1.77057 -2.41436 0
M  V30 11364 H 1057.37 0.850415 -1.16206 0
M  V30 11365 H 1059.32 3.97969 -1.38558 0
M  V30 11366 H 1058.04 3.24327 -0.384611 0
M  V30 11367 H 1056.7 2.72437 -2.45303 0
M  V30 11368 H 1056.35 4.8773 -1.22999 0
M  V30 11369 H 1056.05 5.06677 -2.97577 0
M  V30 11370 H 1057.57 5.67034 -2.26505 0
M  V30 11371 H 1058.99 4.15139 -3.95389 0
M  V30 11372 H 1057.38 3.78625 -4.65578 0
M  V30 11373 H 1058.45 2.45451 -4.18189 0
M  V30 11374 N 1059.8 1.27835 0.921735 0
M  V30 11375 C 1060.73 1.06874 2.02758 0
M  V30 11376 C 1061.74 0.0229418 1.62784 0
M  V30 11377 O 1062.93 0.265145 1.7652 0
M  V30 11378 C 1060.03 0.60037 3.3354 0
M  V30 11379 C 1059.2 1.71979 4.02172 0
M  V30 11380 C 1058.26 1.24615 5.11231 0
M  V30 11381 O 1057.29 1.94692 5.34868 0
M  V30 11382 N 1058.49 0.105021 5.80405 0
M  V30 11383 H 1061.26 2.02105 2.213 0
M  V30 11384 H 1058.82 1.19481 1.09251 0
M  V30 11385 H 1060.81 0.267281 4.03816 0
M  V30 11386 H 1059.38 -0.258872 3.11526 0
M  V30 11387 H 1058.6 2.22287 3.25549 0
M  V30 11388 H 1059.89 2.47092 4.44773 0
M  V30 11389 H 1059.29 -0.479745 5.63662 0
M  V30 11390 H 1057.84 -0.168846 6.51581 0
M  V30 11391 N 1061.28 -1.12907 1.09954 0
M  V30 11392 C 1062.21 -2.18194 0.701701 0
M  V30 11393 C 1063.22 -1.60724 -0.259131 0
M  V30 11394 O 1064.41 -1.78445 -0.0443549 0
M  V30 11395 C 1061.51 -3.38897 0.0140602 0
M  V30 11396 C 1060.68 -4.25867 0.997807 0
M  V30 11397 C 1059.74 -5.25084 0.34257 0
M  V30 11398 O 1058.77 -5.60492 0.991857 0
M  V30 11399 N 1059.97 -5.73464 -0.901058 0
M  V30 11400 H 1062.73 -2.52939 1.60755 0
M  V30 11401 H 1060.3 -1.28281 0.987703 0
M  V30 11402 H 1062.29 -4.02349 -0.435628 0
M  V30 11403 H 1060.86 -3.02345 -0.794118 0
M  V30 11404 H 1060.08 -3.59107 1.6259 0
M  V30 11405 H 1061.37 -4.80825 1.66388 0
M  V30 11406 H 1060.76 -5.46854 -1.44802 0
M  V30 11407 H 1059.32 -6.38827 -1.29398 0
M  V30 11408 N 1062.75 -0.88754 -1.30232 0
M  V30 11409 C 1063.7 -0.354497 -2.28061 0
M  V30 11410 C 1064.67 0.556732 -1.56492 0
M  V30 11411 O 1065.86 0.484597 -1.84543 0
M  V30 11412 C 1063 0.422701 -3.42501 0
M  V30 11413 C 1062.11 -0.518036 -4.28883 0
M  V30 11414 C 1061.24 0.275011 -5.30488 0
M  V30 11415 C 1060.28 -0.661032 -6.0852 0
M  V30 11416 N 1059.42 0.0968509 -7.02033 0
M  V30 11417 H 1064.26 -1.19388 -2.73039 0
M  V30 11418 H 1061.8 -0.600091 -1.34303 0
M  V30 11419 H 1063.75 0.889249 -4.07613 0
M  V30 11420 H 1062.38 1.22664 -2.98586 0
M  V30 11421 H 1061.44 -1.10308 -3.64055 0
M  V30 11422 H 1062.75 -1.23504 -4.83268 0
M  V30 11423 H 1061.9 0.803301 -6.01358 0
M  V30 11424 H 1060.64 1.02522 -4.76802 0
M  V30 11425 H 1059.65 -1.20093 -5.36524 0
M  V30 11426 H 1060.87 -1.41037 -6.64293 0
M  V30 11427 H 1058.82 0.829548 -6.50734 0
M  V30 11428 H 1058.73 -0.560476 -7.5392 0
M  V30 11429 H 1060 0.6058 -7.77142 0
M  V30 11430 N 1064.23 1.43628 -0.648757 0
M  V30 11431 C 1065.65 1.56442 -0.315921 0
M  V30 11432 C 1065.85 1.63322 1.18018 0
M  V30 11433 O 1064.9 1.58585 1.96487 0
M  V30 11434 C 1066.22 2.82751 -1.02335 0
M  V30 11435 C 1067.77 2.96488 -1.00318 0
M  V30 11436 C 1068.24 4.25623 -1.69142 0
M  V30 11437 N 1069.73 4.32477 -1.65885 0
M  V30 11438 C 1070.47 5.31154 -2.16016 0
M  V30 11439 N 1069.96 6.36135 -2.74415 0
M  V30 11440 N 1071.76 5.22778 -2.06541 0
M  V30 11441 H 1063.91 1.37405 -1.61968 0
M  V30 11442 H 1066.17 0.65962 -0.680886 0
M  V30 11443 H 1065.88 2.83714 -2.07844 0
M  V30 11444 H 1065.75 3.72836 -0.572114 0
M  V30 11445 H 1068.14 2.95068 0.0434919 0
M  V30 11446 H 1068.22 2.07704 -1.49307 0
M  V30 11447 H 1067.86 4.27804 -2.73763 0
M  V30 11448 H 1067.79 5.13296 -1.17622 0
M  V30 11449 H 1070.28 3.57232 -1.23264 0
M  V30 11450 H 1070.6 7.07743 -3.10355 0
M  V30 11451 H 1068.94 6.36771 -2.78474 0
M  V30 11452 H 1072.13 4.39678 -1.60625 0
M  V30 11453 H 1072.3 5.99523 -2.45919 0
M  V30 11454 N 1065.71 0.390394 1.52688 0
M  V30 11455 C 1066.64 -0.43567 2.294 0
M  V30 11456 C 1067.62 -1.06253 1.32832 0
M  V30 11457 O 1068.81 -1.07509 1.61726 0
M  V30 11458 C 1065.94 -1.56259 3.10162 0
M  V30 11459 C 1064.89 -1.06172 4.14622 0
M  V30 11460 C 1064.22 -2.2808 4.83615 0
M  V30 11461 C 1065.52 -0.128902 5.22141 0
M  V30 11462 H 1067.21 0.204384 2.98702 0
M  V30 11463 H 1064.76 0.0997377 1.43654 0
M  V30 11464 H 1066.71 -2.14732 3.62585 0
M  V30 11465 H 1065.43 -2.23025 2.38595 0
M  V30 11466 H 1064.09 -0.499518 3.63181 0
M  V30 11467 H 1063.74 -2.93358 4.08595 0
M  V30 11468 H 1063.44 -1.95227 5.5422 0
M  V30 11469 H 1064.96 -2.87193 5.38844 0
M  V30 11470 H 1066.38 -0.621849 5.69917 0
M  V30 11471 H 1064.78 0.109919 5.99999 0
M  V30 11472 H 1065.85 0.821884 4.77884 0
M  V30 11473 N 1067.19 -1.57141 0.120249 0
M  V30 11474 C 1068.44 -1.95238 -0.537449 0
M  V30 11475 C 1068.76 -1.00361 -1.66607 0
M  V30 11476 O 1068.02 -0.0277306 -1.9568 0
M  V30 11477 C 1068.32 -3.39745 -1.10941 0
M  V30 11478 C 1067.98 -4.50785 -0.102012 0
M  V30 11479 C 1066.65 -4.80882 0.174994 0
M  V30 11480 C 1069 -5.17913 0.584462 0
M  V30 11481 C 1066.33 -5.75424 1.14474 0
M  V30 11482 C 1068.68 -6.13497 1.54284 0
M  V30 11483 C 1067.34 -6.41987 1.82782 0
M  V30 11484 H 1066.61 -0.714425 -0.196666 0
M  V30 11485 H 1069.26 -1.90438 0.201418 0
M  V30 11486 H 1067.56 -3.41246 -1.92506 0
M  V30 11487 H 1069.26 -3.66536 -1.62642 0
M  V30 11488 H 1065.85 -4.27342 -0.328097 0
M  V30 11489 H 1070.03 -4.94815 0.383625 0
M  V30 11490 H 1065.29 -5.95801 1.37226 0
M  V30 11491 H 1069.46 -6.64598 2.08044 0
M  V30 11492 H 1067.09 -7.15052 2.5808 0
M  V30 11493 N 1068.67 0.153526 -1.5685 0
M  V30 11494 C 1069.6 1.19162 -2.00805 0
M  V30 11495 C 1070.58 1.45172 -0.886518 0
M  V30 11496 O 1071.76 1.56203 -1.15387 0
M  V30 11497 C 1068.89 2.52637 -2.38311 0
M  V30 11498 C 1067.85 2.41161 -3.53589 0
M  V30 11499 C 1067.17 3.79287 -3.76889 0
M  V30 11500 C 1068.47 1.90122 -4.86468 0
M  V30 11501 H 1070.17 0.82617 -2.87776 0
M  V30 11502 H 1067.71 0.395972 -1.38449 0
M  V30 11503 H 1069.67 3.25478 -2.6766 0
M  V30 11504 H 1068.39 2.91005 -1.4827 0
M  V30 11505 H 1067.05 1.70772 -3.24395 0
M  V30 11506 H 1066.7 4.15079 -2.84109 0
M  V30 11507 H 1066.4 3.72472 -4.54465 0
M  V30 11508 H 1067.92 4.53687 -4.08657 0
M  V30 11509 H 1069.33 2.52752 -5.14577 0
M  V30 11510 H 1067.73 1.94214 -5.67804 0
M  V30 11511 H 1068.8 0.856517 -4.77275 0
M  V30 11512 N 1070.14 1.51827 0.422667 0
M  V30 11513 C 1071.08 1.70409 1.53275 0
M  V30 11514 C 1072.09 0.584584 1.51942 0
M  V30 11515 O 1073.28 0.859349 1.56453 0
M  V30 11516 C 1070.38 1.717 2.92185 0
M  V30 11517 C 1069.55 3.00472 3.17861 0
M  V30 11518 C 1068.61 2.93755 4.36571 0
M  V30 11519 O 1067.64 3.67682 4.3451 0
M  V30 11520 N 1068.84 2.10612 5.40946 0
M  V30 11521 H 1071.6 2.66176 1.37734 0
M  V30 11522 H 1069.16 1.49895 0.611799 0
M  V30 11523 H 1071.16 1.64756 3.69645 0
M  V30 11524 H 1069.73 0.834655 3.01251 0
M  V30 11525 H 1068.95 3.21171 2.28567 0
M  V30 11526 H 1070.23 3.85684 3.31851 0
M  V30 11527 H 1069.63 1.49954 5.45463 0
M  V30 11528 H 1068.19 2.09535 6.17202 0
M  V30 11529 N 1071.62 -0.679052 1.4222 0
M  V30 11530 C 1072.57 -1.79269 1.45366 0
M  V30 11531 C 1073.54 -1.63255 0.306089 0
M  V30 11532 O 1074.72 -1.8387 0.509548 0
M  V30 11533 C 1071.86 -3.17272 1.35766 0
M  V30 11534 C 1070.98 -3.44603 2.60525 0
M  V30 11535 C 1070.11 -4.7231 2.43098 0
M  V30 11536 C 1069.15 -4.92661 3.63251 0
M  V30 11537 N 1068.29 -6.11606 3.44794 0
M  V30 11538 H 1073.13 -1.75916 2.40536 0
M  V30 11539 H 1070.67 -0.858836 1.19425 0
M  V30 11540 H 1072.62 -3.97015 1.282 0
M  V30 11541 H 1071.25 -3.1976 0.441939 0
M  V30 11542 H 1070.31 -2.59144 2.78475 0
M  V30 11543 H 1071.62 -3.55536 3.49851 0
M  V30 11544 H 1070.77 -5.60136 2.33093 0
M  V30 11545 H 1069.51 -4.63652 1.51255 0
M  V30 11546 H 1068.52 -4.03278 3.73693 0
M  V30 11547 H 1069.74 -5.03167 4.5607 0
M  V30 11548 H 1067.69 -6.04129 2.55663 0
M  V30 11549 H 1067.6 -6.23381 4.27705 0
M  V30 11550 H 1068.87 -7.02122 3.38592 0
M  V30 11551 N 1073.1 -1.28322 -0.914942 0
M  V30 11552 C 1074.03 -1.07947 -2.02188 0
M  V30 11553 C 1075.05 -0.0315743 -1.62769 0
M  V30 11554 O 1076.23 -0.274503 -1.76377 0
M  V30 11555 C 1073.33 -0.61805 -3.33217 0
M  V30 11556 C 1072.51 -1.74109 -4.01254 0
M  V30 11557 C 1071.57 -1.27325 -5.10563 0
M  V30 11558 O 1070.59 -1.97526 -5.33828 0
M  V30 11559 N 1071.79 -0.1358 -5.80341 0
M  V30 11560 H 1074.56 -2.03275 -2.20225 0
M  V30 11561 H 1072.12 -1.20059 -1.08616 0
M  V30 11562 H 1074.11 -0.288693 -4.03669 0
M  V30 11563 H 1072.68 0.242348 -3.11659 0
M  V30 11564 H 1071.9 -2.2401 -3.24366 0
M  V30 11565 H 1073.19 -2.49448 -4.43456 0
M  V30 11566 H 1072.59 0.449846 -5.63909 0
M  V30 11567 H 1071.15 0.134289 -6.51662 0
M  V30 11568 N 1074.58 1.12322 -1.10551 0
M  V30 11569 C 1075.8 1.8822 -0.871093 0
M  V30 11570 C 1076.23 1.7916 0.573005 0
M  V30 11571 O 1075.59 1.14738 1.40374 0
M  V30 11572 C 1075.63 3.35349 -1.32565 0
M  V30 11573 O 1074.74 4.09461 -0.49145 0
M  V30 11574 H 1074.08 0.584787 -0.314516 0
M  V30 11575 H 1076.61 1.42039 -1.47262 0
M  V30 11576 H 1076.62 3.86189 -1.31612 0
M  V30 11577 H 1075.29 3.4126 -2.37728 0
M  V30 11578 H 1073.87 3.68575 -0.566294 0
M  V30 11579 N 1076.06 0.894434 1.2976 0
M  V30 11580 C 1076.99 0.325525 2.26877 0
M  V30 11581 C 1078 -0.525218 1.54095 0
M  V30 11582 O 1079.19 -0.343231 1.75169 0
M  V30 11583 C 1076.29 -0.554952 3.34325 0
M  V30 11584 C 1075.46 0.268868 4.36573 0
M  V30 11585 C 1074.52 -0.543601 5.23385 0
M  V30 11586 O 1073.55 0.0370454 5.69188 0
M  V30 11587 N 1074.75 -1.85079 5.50205 0
M  V30 11588 H 1077.52 1.16021 2.76332 0
M  V30 11589 H 1075.08 0.758382 1.43039 0
M  V30 11590 H 1077.07 -1.10476 3.89329 0
M  V30 11591 H 1075.64 -1.29031 2.84727 0
M  V30 11592 H 1074.86 1.0001 3.81302 0
M  V30 11593 H 1076.15 0.833248 5.01931 0
M  V30 11594 H 1075.54 -2.34533 5.14792 0
M  V30 11595 H 1074.1 -2.34784 6.08046 0
M  V30 11596 N 1077.53 -1.43282 0.656365 0
M  V30 11597 C 1078.46 -2.33492 -0.0196962 0
M  V30 11598 C 1079.45 -1.49647 -0.80868 0
M  V30 11599 O 1080.63 -1.78303 -0.769529 0
M  V30 11600 C 1077.76 -3.33052 -0.984574 0
M  V30 11601 C 1076.71 -4.26908 -0.305483 0
M  V30 11602 C 1076.04 -5.16531 -1.38202 0
M  V30 11603 C 1077.34 -5.16073 0.804081 0
M  V30 11604 H 1079.03 -2.90272 0.733661 0
M  V30 11605 H 1076.58 -1.39574 0.354259 0
M  V30 11606 H 1078.53 -3.9506 -1.46647 0
M  V30 11607 H 1077.26 -2.74535 -1.76913 0
M  V30 11608 H 1075.92 -3.66268 0.155995 0
M  V30 11609 H 1075.56 -4.54351 -2.1581 0
M  V30 11610 H 1075.26 -5.80148 -0.932878 0
M  V30 11611 H 1076.79 -5.81414 -1.86522 0
M  V30 11612 H 1078.2 -5.71873 0.404212 0
M  V30 11613 H 1076.6 -5.88427 1.17789 0
M  V30 11614 H 1077.67 -4.55574 1.66073 0
M  V30 11615 N 1079.01 -0.398486 -1.52479 0
M  V30 11616 C 1079.95 0.467426 -2.24383 0
M  V30 11617 C 1080.96 1.01908 -1.26959 0
M  V30 11618 O 1082.15 0.919843 -1.52974 0
M  V30 11619 C 1079.25 1.66146 -2.95379 0
M  V30 11620 C 1078.42 1.23557 -4.19586 0
M  V30 11621 C 1077.48 2.29532 -4.73499 0
M  V30 11622 O 1076.51 1.90561 -5.36354 0
M  V30 11623 N 1077.71 3.61564 -4.5415 0
M  V30 11624 H 1080.47 -0.148653 -2.99331 0
M  V30 11625 H 1078.03 -0.225313 -1.60325 0
M  V30 11626 H 1080.03 2.36585 -3.28344 0
M  V30 11627 H 1078.6 2.18369 -2.23682 0
M  V30 11628 H 1077.82 0.359715 -3.92555 0
M  V30 11629 H 1079.1 0.927812 -5.00269 0
M  V30 11630 H 1078.5 3.95983 -4.03998 0
M  V30 11631 H 1077.06 4.2801 -4.9158 0
M  V30 11632 N 1080.49 1.57075 -0.12858 0
M  V30 11633 C 1081.45 2.14643 0.803813 0
M  V30 11634 C 1082.45 1.08363 1.18803 0
M  V30 11635 O 1083.64 1.34093 1.11197 0
M  V30 11636 C 1080.78 2.6945 2.08829 0
M  V30 11637 H 1081.97 2.98362 0.303347 0
M  V30 11638 H 1079.52 1.55833 0.120735 0
M  V30 11639 H 1080.26 1.89345 2.63285 0
M  V30 11640 H 1080.04 3.47187 1.82218 0
M  V30 11641 H 1081.53 3.13865 2.7546 0
M  V30 11642 N 1081.97 -0.145205 1.5693 0
M  V30 11643 C 1083.2 -0.871133 1.87336 0
M  V30 11644 C 1083.61 -1.7517 0.714992 0
M  V30 11645 O 1082.95 -1.80815 -0.324304 0
M  V30 11646 C 1083.01 -1.77775 3.12468 0
M  V30 11647 C 1082.68 -1.07416 4.44197 0
M  V30 11648 C 1083.67 -0.42722 5.18142 0
M  V30 11649 C 1081.36 -1.06313 4.9092 0
M  V30 11650 C 1083.35 0.221348 6.37016 0
M  V30 11651 C 1081.04 -0.410755 6.09718 0
M  V30 11652 C 1082.04 0.230357 6.82611 0
M  V30 11653 O 1081.73 0.872389 7.99152 0
M  V30 11654 H 1081.46 -0.257174 0.62517 0
M  V30 11655 H 1084.01 -0.142159 2.04907 0
M  V30 11656 H 1082.24 -2.54771 2.9091 0
M  V30 11657 H 1083.93 -2.37579 3.29107 0
M  V30 11658 H 1084.7 -0.427536 4.83112 0
M  V30 11659 H 1080.58 -1.55156 4.34105 0
M  V30 11660 H 1084.12 0.722349 6.9385 0
M  V30 11661 H 1080.02 -0.408112 6.44209 0
M  V30 11662 H 1080.78 0.774236 8.1483 0
M  V30 11663 N 1083.45 -1.52049 -0.414609 0
M  V30 11664 C 1084.69 -1.65838 -1.16206 0
M  V30 11665 C 1085.02 -0.385623 -1.90639 0
M  V30 11666 O 1084.28 0.631214 -1.85241 0
M  V30 11667 C 1084.58 -2.82735 -2.18622 0
M  V30 11668 C 1084.24 -4.21163 -1.61037 0
M  V30 11669 C 1082.9 -4.58816 -1.45056 0
M  V30 11670 C 1085.26 -5.0745 -1.18928 0
M  V30 11671 C 1082.58 -5.8044 -0.854761 0
M  V30 11672 C 1084.94 -6.29674 -0.607686 0
M  V30 11673 C 1083.6 -6.66081 -0.434968 0
M  V30 11674 H 1082.87 -0.606845 -0.425229 0
M  V30 11675 H 1085.52 -1.86137 -0.450009 0
M  V30 11676 H 1083.82 -2.56749 -2.95952 0
M  V30 11677 H 1085.52 -2.90601 -2.76319 0
M  V30 11678 H 1082.11 -3.91488 -1.74457 0
M  V30 11679 H 1086.29 -4.78948 -1.30086 0
M  V30 11680 H 1081.55 -6.07276 -0.70891 0
M  V30 11681 H 1085.72 -6.95865 -0.272988 0
M  V30 11682 H 1083.35 -7.60195 0.0288116 0
M  V30 11683 N 1084.93 0.6715 -1.42579 0
M  V30 11684 C 1085.87 1.80623 -1.46554 0
M  V30 11685 C 1086.87 1.65934 -0.340932 0
M  V30 11686 O 1088.07 1.72502 -0.514098 0
M  V30 11687 H 1084.45 0.595619 -0.459067 0
M  V30 11688 H 1086.42 1.74388 -2.42139 0
M  V30 11689 C 1085.17 3.18794 -1.38801 0
M  V30 11690 H 1084.49 3.30725 -2.24635 0
M  V30 11691 H 1085.93 3.98201 -1.45645 0
M  V30 11692 C 1084.39 3.36742 -0.103219 0
M  V30 11693 O 1084.92 3.92761 0.842715 0
M  V30 11694 N 1083.13 2.90594 -0.0193034 0
M  V30 11695 H 1082.67 2.45192 -0.78986 0
M  V30 11696 H 1082.63 3.0298 0.839686 0
M  V30 11697 N 1086.4 1.28806 0.908124 0
M  V30 11698 C 1087.34 1.09018 2.01613 0
M  V30 11699 C 1088.35 0.0402059 1.6275 0
M  V30 11700 O 1089.54 0.283853 1.76229 0
M  V30 11701 C 1086.64 0.635712 3.32884 0
M  V30 11702 C 1085.81 1.76235 4.00325 0
M  V30 11703 C 1084.87 1.3003 5.09881 0
M  V30 11704 O 1083.9 2.00354 5.32773 0
M  V30 11705 N 1085.1 0.166575 5.80261 0
M  V30 11706 H 1087.86 2.0444 2.19144 0
M  V30 11707 H 1085.42 1.20633 1.07978 0
M  V30 11708 H 1087.42 0.310097 4.0351 0
M  V30 11709 H 1085.99 -0.225816 3.11783 0
M  V30 11710 H 1085.21 2.25727 3.23173 0
M  V30 11711 H 1086.49 2.51796 4.42127 0
M  V30 11712 H 1085.89 -0.419934 5.64139 0
M  V30 11713 H 1084.45 -0.0997281 6.51724 0
M  V30 11714 N 1087.88 -1.11734 1.11145 0
M  V30 11715 C 1088.81 -2.16847 0.710809 0
M  V30 11716 C 1089.79 -1.59966 -0.291494 0
M  V30 11717 O 1090.98 -1.87554 -0.188645 0
M  V30 11718 C 1088.1 -3.38663 0.0499744 0
M  V30 11719 C 1087.15 -4.14199 1.01693 0
M  V30 11720 S 1087.98 -4.7154 2.53793 0
M  V30 11721 C 1089.14 -5.96682 1.89001 0
M  V30 11722 H 1089.37 -2.50497 1.60121 0
M  V30 11723 H 1086.9 -1.23311 0.929182 0
M  V30 11724 H 1088.86 -4.09212 -0.324959 0
M  V30 11725 H 1087.52 -3.03279 -0.817335 0
M  V30 11726 H 1086.72 -5.01494 0.501933 0
M  V30 11727 H 1086.32 -3.49395 1.33414 0
M  V30 11728 H 1088.61 -6.6634 1.22462 0
M  V30 11729 H 1089.55 -6.52821 2.74282 0
M  V30 11730 H 1089.96 -5.48084 1.35145 0
M  V30 11731 N 1089.36 -0.901303 -1.29284 0
M  V30 11732 C 1090.29 -0.337552 -2.26701 0
M  V30 11733 C 1091.3 0.517039 -1.54371 0
M  V30 11734 O 1092.49 0.333937 -1.75349 0
M  V30 11735 C 1089.59 0.537214 -3.34615 0
M  V30 11736 C 1088.77 -0.292017 -4.36424 0
M  V30 11737 C 1087.83 0.515837 -5.23666 0
M  V30 11738 O 1086.85 -0.0672303 -5.6916 0
M  V30 11739 N 1088.05 1.82159 -5.51179 0
M  V30 11740 H 1090.82 -1.17484 -2.75713 0
M  V30 11741 H 1088.38 -0.765957 -1.42635 0
M  V30 11742 H 1090.37 1.0841 -3.8991 0
M  V30 11743 H 1088.94 1.2752 -2.85408 0
M  V30 11744 H 1088.16 -1.02031 -3.80767 0
M  V30 11745 H 1089.45 -0.859855 -5.01482 0
M  V30 11746 H 1088.85 2.318 -5.16028 0
M  V30 11747 H 1087.4 2.31556 -6.09282 0
M  V30 11748 N 1090.84 1.42931 -0.663954 0
M  V30 11749 C 1092.09 2.00904 -0.179011 0
M  V30 11750 C 1092.4 1.53056 1.21791 0
M  V30 11751 O 1093.61 2.03374 1.79865 0
M  V30 11752 C 1092.06 3.58892 -0.269198 0
M  V30 11753 C 1091.67 4.15731 -1.66949 0
M  V30 11754 C 1093.41 4.24207 0.157589 0
M  V30 11755 C 1091.32 5.66047 -1.71303 0
M  V30 11756 H 1090.25 0.75135 -0.0631623 0
M  V30 11757 H 1092.9 1.6378 -0.827556 0
M  V30 11758 H 1091.28 3.93469 0.447048 0
M  V30 11759 H 1092.46 3.92634 -2.41195 0
M  V30 11760 H 1090.77 3.62826 -2.04318 0
M  V30 11761 H 1093.37 5.34503 0.145057 0
M  V30 11762 H 1093.71 3.98901 1.19095 0
M  V30 11763 H 1094.25 3.94552 -0.507274 0
M  V30 11764 H 1090.98 5.96136 -2.72584 0
M  V30 11765 H 1090.5 5.91167 -1.01398 0
M  V30 11766 H 1092.18 6.30275 -1.46158 0
M  V30 11767 N 1092.32 0.406567 1.52266 0
M  V30 11768 C 1093.28 -0.408251 2.25535 0
M  V30 11769 C 1094.28 -0.975795 1.27808 0
M  V30 11770 O 1095.47 -0.855077 1.5177 0
M  V30 11771 C 1092.6 -1.57443 3.02365 0
M  V30 11772 H 1093.79 0.233459 2.9899 0
M  V30 11773 H 1091.35 0.159032 1.55489 0
M  V30 11774 H 1092.08 -2.25308 2.33252 0
M  V30 11775 H 1091.87 -1.17399 3.74112 0
M  V30 11776 H 1093.36 -2.15088 3.57948 0
M  V30 11777 N 1093.79 -1.57004 0.136909 0
M  V30 11778 C 1094.7 -2.19807 -0.819887 0
M  V30 11779 C 1095.72 -1.17939 -1.27932 0
M  V30 11780 O 1096.9 -1.50478 -1.3386 0
M  V30 11781 C 1093.96 -2.79935 -2.04542 0
M  V30 11782 C 1093.02 -3.96897 -1.6362 0
M  V30 11783 C 1092.26 -4.54148 -2.80331 0
M  V30 11784 O 1092.48 -4.10282 -3.96264 0
M  V30 11785 O 1091.41 -5.44565 -2.56384 0
M  V30 11786 H 1095.24 -3.02058 -0.315337 0
M  V30 11787 H 1092.82 -1.49131 -0.0896151 0
M  V30 11788 H 1094.71 -3.18191 -2.76283 0
M  V30 11789 H 1093.38 -2.00703 -2.53969 0
M  V30 11790 H 1092.29 -3.63376 -0.889316 0
M  V30 11791 H 1093.62 -4.77618 -1.18918 0
M  V30 11792 N 1095.27 0.136881 -1.57004 0
M  V30 11793 C 1096.5 0.866405 -1.88436 0
M  V30 11794 C 1096.92 1.73483 -0.727006 0
M  V30 11795 O 1096.28 1.78398 0.323094 0
M  V30 11796 C 1096.33 1.69059 -3.18514 0
M  V30 11797 O 1095.43 2.79584 -3.03161 0
M  V30 11798 H 1094.77 0.240709 -0.618834 0
M  V30 11799 H 1097.3 0.124653 -2.0422 0
M  V30 11800 H 1097.31 2.08353 -3.50789 0
M  V30 11801 H 1095.99 1.05296 -4.0235 0
M  V30 11802 H 1094.57 2.43623 -2.82315 0
M  V30 11803 N 1096.75 1.52266 0.40654 0
M  V30 11804 C 1097.98 1.70598 1.17945 0
M  V30 11805 C 1098.4 0.415793 1.83447 0
M  V30 11806 O 1097.76 -0.626968 1.70114 0
M  V30 11807 C 1097.81 2.84449 2.21633 0
M  V30 11808 O 1096.91 2.50199 3.27833 0
M  V30 11809 H 1096.25 0.567837 0.344177 0
M  V30 11810 H 1098.78 1.98981 0.476211 0
M  V30 11811 H 1098.79 3.09436 2.65919 0
M  V30 11812 H 1097.47 3.78055 1.73341 0
M  V30 11813 H 1096.04 2.35892 2.88807 0
M  V30 11814 N 1098.23 -0.663929 1.42933 0
M  V30 11815 C 1099.46 -1.44981 1.47187 0
M  V30 11816 C 1099.87 -1.89009 0.0850091 0
M  V30 11817 O 1099.21 -1.59413 -0.912855 0
M  V30 11818 C 1099.27 -2.72409 2.34592 0
M  V30 11819 C 1098.94 -2.5039 3.82301 0
M  V30 11820 C 1099.93 -2.14295 4.73681 0
M  V30 11821 C 1097.62 -2.65047 4.2668 0
M  V30 11822 C 1099.61 -1.93139 6.07434 0
M  V30 11823 C 1097.3 -2.43506 5.60489 0
M  V30 11824 C 1098.3 -2.07607 6.50683 0
M  V30 11825 O 1097.98 -1.86284 7.82019 0
M  V30 11826 H 1097.72 -0.452238 0.502451 0
M  V30 11827 H 1100.27 -0.822228 1.88225 0
M  V30 11828 H 1098.5 -3.37689 1.88422 0
M  V30 11829 H 1100.19 -3.34327 2.30174 0
M  V30 11830 H 1100.96 -2.02557 4.40676 0
M  V30 11831 H 1096.83 -2.91966 3.56759 0
M  V30 11832 H 1100.38 -1.65042 6.77796 0
M  V30 11833 H 1096.28 -2.54844 5.93064 0
M  V30 11834 H 1097.04 -2.00795 7.93488 0
M  V30 11835 N 1099.71 -1.29285 -0.901281 0
M  V30 11836 C 1101.12 -1.15499 -1.46686 0
M  V30 11837 C 1101.47 0.250446 -1.94595 0
M  V30 11838 O 1100.59 1.14581 -1.83576 0
M  V30 11839 C 1101.19 -2.0906 -2.66607 0
M  V30 11840 C 1099.75 -1.99301 -3.19306 0
M  V30 11841 C 1098.89 -2.00079 -1.91999 0
M  V30 11842 H 1101.85 -1.41793 -0.712773 0
M  V30 11843 H 1101.87 -1.6619 -3.42288 0
M  V30 11844 H 1101.38 -3.11341 -2.31707 0
M  V30 11845 H 1099.48 -1.00103 -3.58901 0
M  V30 11846 H 1099.59 -2.86885 -3.8371 0
M  V30 11847 H 1097.96 -1.44655 -2.09636 0
M  V30 11848 H 1098.74 -3.04061 -1.59379 0
M  V30 11849 N 1101.18 1.11143 -1.11736 0
M  V30 11850 C 1102.12 2.1705 -0.736325 0
M  V30 11851 C 1103.13 1.61116 0.233528 0
M  V30 11852 O 1104.32 1.78493 0.0159602 0
M  V30 11853 C 1101.42 3.38832 -0.067974 0
M  V30 11854 C 1100.59 4.24226 -1.06543 0
M  V30 11855 C 1099.65 5.24472 -0.426063 0
M  V30 11856 O 1098.68 5.58843 -1.0809 0
M  V30 11857 N 1099.88 5.74825 0.809711 0
M  V30 11858 H 1102.64 2.50349 -1.64758 0
M  V30 11859 H 1100.2 1.26693 -1.00799 0
M  V30 11860 H 1102.2 4.02991 0.371563 0
M  V30 11861 H 1100.77 3.0357 0.745917 0
M  V30 11862 H 1099.99 3.56475 -1.68283 0
M  V30 11863 H 1101.27 4.78117 -1.74016 0
M  V30 11864 H 1100.67 5.49088 1.36084 0
M  V30 11865 H 1099.23 6.40804 1.19218 0
M  V30 11866 N 1102.66 0.908147 1.28804 0
M  V30 11867 C 1104.07 0.585727 1.77274 0
M  V30 11868 C 1104.42 -0.898842 1.744 0
M  V30 11869 O 1103.55 -1.70301 1.33516 0
M  V30 11870 C 1104.14 1.05647 3.21907 0
M  V30 11871 C 1102.7 0.785066 3.68122 0
M  V30 11872 C 1101.85 1.22638 2.48707 0
M  V30 11873 H 1104.8 1.09 1.15346 0
M  V30 11874 H 1104.82 0.395442 3.7844 0
M  V30 11875 H 1104.33 2.13698 3.23967 0
M  V30 11876 H 1102.44 -0.282477 3.71528 0
M  V30 11877 H 1102.55 1.38888 4.58527 0
M  V30 11878 H 1100.91 0.645217 2.46392 0
M  V30 11879 H 1101.7 2.31512 2.5349 0
M  V30 11880 N 1104.14 -1.42577 0.671525 0
M  V30 11881 C 1105.37 -2.06442 0.199152 0
M  V30 11882 C 1105.79 -1.50104 -1.1336 0
M  V30 11883 O 1105.15 -0.618211 -1.70434 0
M  V30 11884 C 1105.2 -3.60323 0.141215 0
M  V30 11885 O 1104.3 -4.02655 -0.891238 0
M  V30 11886 H 1103.64 -0.655919 0.103277 0
M  V30 11887 H 1106.17 -1.82768 0.919614 0
M  V30 11888 H 1106.18 -4.07984 -0.0360209 0
M  V30 11889 H 1104.86 -4.00702 1.11403 0
M  V30 11890 H 1103.43 -3.66549 -0.685309 0
M  V30 11891 N 1105.62 -0.414636 -1.52048 0
M  V30 11892 C 1106.55 0.443601 -2.24866 0
M  V30 11893 C 1107.56 1.00556 -1.28032 0
M  V30 11894 O 1108.75 0.903566 -1.53941 0
M  V30 11895 C 1105.85 1.63004 -2.97124 0
M  V30 11896 C 1105.03 1.191 -4.20873 0
M  V30 11897 C 1104.08 2.24497 -4.75907 0
M  V30 11898 O 1103.11 1.84861 -5.38345 0
M  V30 11899 N 1104.31 3.56727 -4.57959 0
M  V30 11900 H 1107.08 -0.180393 -2.99157 0
M  V30 11901 H 1104.64 -0.242305 -1.60077 0
M  V30 11902 H 1106.63 2.33089 -3.30835 0
M  V30 11903 H 1105.2 2.15984 -2.25986 0
M  V30 11904 H 1104.42 0.318059 -3.92915 0
M  V30 11905 H 1105.71 0.874699 -5.01225 0
M  V30 11906 H 1105.11 3.91675 -4.08175 0
M  V30 11907 H 1103.66 4.22772 -4.96092 0
M  V30 11908 N 1107.1 1.56929 -0.145233 0
M  V30 11909 C 1108.03 2.13796 0.826078 0
M  V30 11910 C 1109.04 1.08697 1.21197 0
M  V30 11911 O 1110.23 1.3598 1.15635 0
M  V30 11912 C 1107.33 2.6443 2.11967 0
M  V30 11913 C 1106.5 3.9391 1.90142 0
M  V30 11914 C 1105.56 4.29872 3.03474 0
M  V30 11915 O 1104.59 4.98227 2.75242 0
M  V30 11916 N 1105.79 3.8931 4.30602 0
M  V30 11917 H 1108.56 2.97764 0.340073 0
M  V30 11918 H 1106.12 1.61854 0.0383928 0
M  V30 11919 H 1108.11 2.85502 2.86829 0
M  V30 11920 H 1106.68 1.85196 2.51836 0
M  V30 11921 H 1105.9 3.81481 0.993268 0
M  V30 11922 H 1107.19 4.78523 1.72896 0
M  V30 11923 H 1106.58 3.34229 4.56407 0
M  V30 11924 H 1105.14 4.15438 5.0225 0
M  V30 11925 N 1108.58 -0.128553 1.57075 0
M  V30 11926 C 1109.51 -1.15953 2.02675 0
M  V30 11927 C 1110.49 -1.43743 0.909501 0
M  V30 11928 O 1111.67 -1.54348 1.17857 0
M  V30 11929 C 1108.8 -2.48813 2.423 0
M  V30 11930 C 1107.76 -2.35506 3.57381 0
M  V30 11931 C 1107.08 -3.73243 3.82875 0
M  V30 11932 C 1108.38 -1.82359 4.89431 0
M  V30 11933 H 1110.08 -0.780283 2.89054 0
M  V30 11934 H 1107.62 -0.373896 1.39061 0
M  V30 11935 H 1109.57 -3.21179 2.72804 0
M  V30 11936 H 1108.3 -2.88609 1.52881 0
M  V30 11937 H 1106.96 -1.6559 3.27071 0
M  V30 11938 H 1106.61 -4.10507 2.90677 0
M  V30 11939 H 1106.31 -3.65195 4.60333 0
M  V30 11940 H 1107.83 -4.47128 4.15823 0
M  V30 11941 H 1109.24 -2.44533 5.18533 0
M  V30 11942 H 1107.64 -1.85156 5.70822 0
M  V30 11943 H 1108.71 -0.780478 4.78578 0
M  V30 11944 N 1110.05 -1.5248 -0.398459 0
M  V30 11945 C 1111.46 -1.59107 -0.976817 0
M  V30 11946 C 1111.82 -0.438104 -1.91246 0
M  V30 11947 O 1110.94 0.440111 -2.11877 0
M  V30 11948 C 1111.54 -2.88373 -1.77838 0
M  V30 11949 C 1110.09 -2.97445 -2.30659 0
M  V30 11950 C 1109.24 -2.5414 -1.10942 0
M  V30 11951 H 1112.19 -1.57695 -0.178324 0
M  V30 11952 H 1112.21 -2.74327 -2.63676 0
M  V30 11953 H 1111.73 -3.72269 -1.09714 0
M  V30 11954 H 1109.83 -2.18066 -3.02123 0
M  V30 11955 H 1109.94 -4.019 -2.60794 0
M  V30 11956 H 1108.3 -2.08237 -1.46661 0
M  V30 11957 H 1109.09 -3.40421 -0.443684 0
M  V30 11958 N 1111.53 0.65634 -1.43283 0
M  V30 11959 C 1112.46 1.78101 -1.51004 0
M  V30 11960 C 1113.44 1.66138 -0.36498 0
M  V30 11961 O 1114.63 1.85281 -0.581778 0
M  V30 11962 C 1111.76 3.16511 -1.42961 0
M  V30 11963 C 1110.71 3.43233 -2.55685 0
M  V30 11964 C 1110.04 4.81411 -2.32696 0
M  V30 11965 C 1111.34 3.38288 -3.97943 0
M  V30 11966 H 1113.03 1.71896 -2.45137 0
M  V30 11967 H 1110.58 0.825575 -1.17984 0
M  V30 11968 H 1112.53 3.94941 -1.46968 0
M  V30 11969 H 1111.25 3.23439 -0.45332 0
M  V30 11970 H 1109.91 2.67173 -2.51026 0
M  V30 11971 H 1109.56 4.85011 -1.33317 0
M  V30 11972 H 1109.26 5.00251 -3.08257 0
M  V30 11973 H 1110.79 5.62102 -2.38481 0
M  V30 11974 H 1112.2 4.06659 -4.04106 0
M  V30 11975 H 1110.6 3.68664 -4.73505 0
M  V30 11976 H 1111.67 2.36525 -4.23301 0
M  V30 11977 N 1113.01 1.29761 0.894412 0
M  V30 11978 C 1114.42 1.16275 1.46072 0
M  V30 11979 C 1114.77 -0.240123 1.94725 0
M  V30 11980 O 1113.9 -1.13606 1.84181 0
M  V30 11981 C 1114.49 2.10471 2.65494 0
M  V30 11982 C 1113.05 2.00992 3.18244 0
M  V30 11983 C 1112.2 2.01094 1.90936 0
M  V30 11984 H 1115.15 1.42169 0.705243 0
M  V30 11985 H 1115.17 1.68003 3.41402 0
M  V30 11986 H 1114.68 3.12566 2.30053 0
M  V30 11987 H 1112.78 1.02005 3.58365 0
M  V30 11988 H 1112.9 2.88916 3.82184 0
M  V30 11989 H 1111.26 1.45764 2.08866 0
M  V30 11990 H 1112.04 3.04902 1.57764 0
M  V30 11991 N 1114.49 -1.10549 1.12324 0
M  V30 11992 C 1115.9 -1.34508 0.85905 0
M  V30 11993 C 1116.1 -1.94901 -0.511468 0
M  V30 11994 O 1115.16 -2.18793 -1.2604 0
M  V30 11995 C 1116.47 -2.26788 1.97453 0
M  V30 11996 C 1118.02 -2.40328 2.00528 0
M  V30 11997 C 1118.5 -3.35936 3.11305 0
M  V30 11998 N 1119.99 -3.43504 3.1074 0
M  V30 11999 C 1120.72 -4.17449 3.93096 0
M  V30 12000 N 1120.22 -4.9429 4.85437 0
M  V30 12001 N 1122.01 -4.13055 3.81237 0
M  V30 12002 H 1114.16 -0.697171 2.00632 0
M  V30 12003 H 1116.42 -0.369548 0.873005 0
M  V30 12004 H 1116.13 -1.89621 2.96204 0
M  V30 12005 H 1116 -3.27086 1.87869 0
M  V30 12006 H 1118.39 -2.76765 1.02397 0
M  V30 12007 H 1118.47 -1.39849 2.14186 0
M  V30 12008 H 1118.12 -3.00225 4.09667 0
M  V30 12009 H 1118.05 -4.36291 2.94886 0
M  V30 12010 H 1120.54 -2.88702 2.43843 0
M  V30 12011 H 1120.85 -5.48109 5.4479 0
M  V30 12012 H 1119.2 -4.93419 4.89452 0
M  V30 12013 H 1122.39 -3.52117 3.08433 0
M  V30 12014 H 1122.56 -4.70424 4.45651 0
M  V30 12015 N 1115.97 -0.914965 -1.28321 0
M  V30 12016 C 1116.9 -0.361578 -2.2633 0
M  V30 12017 C 1117.91 0.500637 -1.54911 0
M  V30 12018 O 1119.1 0.31532 -1.75693 0
M  V30 12019 C 1116.2 0.501693 -3.35166 0
M  V30 12020 C 1115.37 -0.338289 -4.3609 0
M  V30 12021 C 1114.43 0.460267 -5.24183 0
M  V30 12022 O 1113.46 -0.127594 -5.69057 0
M  V30 12023 N 1114.66 1.76302 -5.5308 0
M  V30 12024 H 1117.42 -1.20402 -2.74451 0
M  V30 12025 H 1114.99 -0.781042 -1.41814 0
M  V30 12026 H 1116.98 1.04268 -3.91037 0
M  V30 12027 H 1115.55 1.24485 -2.86744 0
M  V30 12028 H 1114.77 -1.06064 -3.79663 0
M  V30 12029 H 1116.06 -0.912996 -5.00542 0
M  V30 12030 H 1115.45 2.26314 -5.18458 0
M  V30 12031 H 1114.01 2.25081 -6.11704 0
M  V30 12032 N 1117.44 1.42219 -0.679077 0
M  V30 12033 C 1118.35 2.346 -0.00345919 0
M  V30 12034 C 1119.37 1.55327 0.784181 0
M  V30 12035 O 1120.55 1.87878 0.725524 0
M  V30 12036 C 1117.61 3.33905 0.933194 0
M  V30 12037 C 1116.67 4.29073 0.139607 0
M  V30 12038 C 1115.9 5.23634 1.03165 0
M  V30 12039 O 1116.13 5.23234 2.27119 0
M  V30 12040 O 1115.06 5.99901 0.490159 0
M  V30 12041 H 1118.89 2.9392 -0.764525 0
M  V30 12042 H 1116.47 1.42794 -0.439329 0
M  V30 12043 H 1118.35 3.949 1.47077 0
M  V30 12044 H 1117.03 2.77052 1.67404 0
M  V30 12045 H 1115.94 3.71478 -0.442177 0
M  V30 12046 H 1117.27 4.88979 -0.562214 0
M  V30 12047 N 1118.92 0.422693 1.51826 0
M  V30 12048 C 1120.15 -0.147744 2.06372 0
M  V30 12049 C 1120.56 -1.37714 1.29152 0
M  V30 12050 O 1119.92 -1.7917 0.347046 0
M  V30 12051 C 1119.97 -0.484642 3.58237 0
M  V30 12052 O 1119.69 0.695944 4.32537 0
M  V30 12053 C 1121.19 -1.10734 4.29247 0
M  V30 12054 H 1118.41 -0.0144047 0.670845 0
M  V30 12055 H 1120.96 0.597558 1.95575 0
M  V30 12056 H 1119.11 -1.17984 3.68997 0
M  V30 12057 H 1119.53 0.411471 5.22884 0
M  V30 12058 H 1121 -1.29318 5.36639 0
M  V30 12059 H 1121.48 -2.08429 3.86593 0
M  V30 12060 H 1122.08 -0.451958 4.22892 0
M  V30 12061 N 1120.4 -1.5685 0.153553 0
M  V30 12062 C 1121.81 -1.83074 -0.36618 0
M  V30 12063 C 1122.16 -1.07257 -1.64288 0
M  V30 12064 O 1121.29 -0.319925 -2.14022 0
M  V30 12065 C 1121.88 -3.32086 -0.671142 0
M  V30 12066 C 1120.44 -3.58868 -1.13537 0
M  V30 12067 C 1119.59 -2.76827 -0.161887 0
M  V30 12068 H 1122.54 -1.54129 0.378139 0
M  V30 12069 H 1122.56 -3.48598 -1.52512 0
M  V30 12070 H 1122.07 -3.8724 0.258234 0
M  V30 12071 H 1120.17 -3.09107 -2.08047 0
M  V30 12072 H 1120.29 -4.67299 -1.05682 0
M  V30 12073 H 1118.65 -2.46112 -0.6558 0
M  V30 12074 H 1119.43 -3.34755 0.761195 0
M  V30 12075 N 1121.88 0.120221 -1.57141 0
M  V30 12076 C 1123.29 0.677497 -1.73974 0
M  V30 12077 C 1123.64 1.80371 -0.772055 0
M  V30 12078 O 1122.76 2.16329 0.0553062 0
M  V30 12079 C 1123.36 1.23575 -3.1546 0
M  V30 12080 C 1121.92 1.73933 -3.33803 0
M  V30 12081 C 1121.07 0.638542 -2.69848 0
M  V30 12082 H 1124.02 -0.105685 -1.58348 0
M  V30 12083 H 1124.04 2.10542 -3.16942 0
M  V30 12084 H 1123.55 0.415851 -3.85866 0
M  V30 12085 H 1121.65 2.58404 -2.68437 0
M  V30 12086 H 1121.76 1.84961 -4.41957 0
M  V30 12087 H 1120.13 1.07185 -2.31049 0
M  V30 12088 H 1120.91 -0.170356 -3.42877 0
M  V30 12089 N 1123.36 1.52689 0.390367 0
M  V30 12090 C 1124.77 1.59623 0.968366 0
M  V30 12091 C 1125.12 0.44824 1.91011 0
M  V30 12092 O 1124.24 -0.428868 2.12108 0
M  V30 12093 C 1124.84 2.89312 1.76306 0
M  V30 12094 C 1123.4 2.98664 2.29079 0
M  V30 12095 C 1122.54 2.54725 1.09593 0
M  V30 12096 H 1125.5 1.57787 0.169959 0
M  V30 12097 H 1125.52 2.75721 2.62217 0
M  V30 12098 H 1125.03 3.72846 1.07738 0
M  V30 12099 H 1123.13 2.19665 3.00962 0
M  V30 12100 H 1123.24 4.03277 2.58659 0
M  V30 12101 H 1121.61 2.09012 1.45554 0
M  V30 12102 H 1122.39 3.40651 0.425625 0
M  V30 12103 N 1124.83 -0.648732 1.43629 0
M  V30 12104 C 1126.06 -1.44117 1.49148 0
M  V30 12105 C 1126.48 -1.87767 0.111952 0
M  V30 12106 O 1125.84 -1.57655 -0.895249 0
M  V30 12107 C 1125.89 -2.64938 2.44623 0
M  V30 12108 O 1124.99 -3.64155 1.93559 0
M  V30 12109 H 1124.34 -0.431933 0.504312 0
M  V30 12110 H 1126.87 -0.793439 1.88589 0
M  V30 12111 H 1126.88 -3.12698 2.62076 0
M  V30 12112 H 1125.55 -2.3251 3.44836 0
M  V30 12113 H 1124.13 -3.23322 1.85789 0
M  V30 12114 N 1126.31 -1.30234 -0.887518 0
M  V30 12115 C 1127.24 -1.12212 -1.99853 0
M  V30 12116 C 1128.26 -0.0660929 -1.62666 0
M  V30 12117 O 1129.45 -0.311853 -1.75755 0
M  V30 12118 C 1126.55 -0.688591 -3.31831 0
M  V30 12119 C 1125.72 -1.82581 -3.97471 0
M  V30 12120 C 1124.78 -1.38126 -5.07748 0
M  V30 12121 O 1123.8 -2.08805 -5.29518 0
M  V30 12122 N 1125.01 -0.258868 -5.79923 0
M  V30 12123 H 1127.77 -2.07901 -2.15864 0
M  V30 12124 H 1125.33 -1.22336 -1.06045 0
M  V30 12125 H 1127.32 -0.374252 -4.02966 0
M  V30 12126 H 1125.89 0.176185 -3.12103 0
M  V30 12127 H 1125.11 -2.3084 -3.19541 0
M  V30 12128 H 1126.4 -2.58798 -4.38065 0
M  V30 12129 H 1125.8 0.330131 -5.64736 0
M  V30 12130 H 1124.36 -0.00396813 -6.518 0
M  V30 12131 N 1127.79 1.09952 -1.12909 0
M  V30 12132 C 1128.72 2.16257 -0.759305 0
M  V30 12133 C 1129.74 1.61355 0.216427 0
M  V30 12134 O 1130.92 1.785 -0.00297224 0
M  V30 12135 C 1128.02 3.38741 -0.103908 0
M  V30 12136 C 1127.2 4.23072 -1.11037 0
M  V30 12137 C 1126.26 5.23991 -0.481667 0
M  V30 12138 O 1125.28 5.57665 -1.14011 0
M  V30 12139 N 1126.48 5.75652 0.748698 0
M  V30 12140 H 1129.25 2.48588 -1.67405 0
M  V30 12141 H 1126.81 1.25617 -1.02137 0
M  V30 12142 H 1128.8 4.03362 0.328799 0
M  V30 12143 H 1127.37 3.04344 0.713677 0
M  V30 12144 H 1126.59 3.5467 -1.72054 0
M  V30 12145 H 1127.88 4.76244 -1.79078 0
M  V30 12146 H 1127.28 5.505 1.30253 0
M  V30 12147 H 1125.84 6.42033 1.12415 0
M  V30 12148 N 1129.27 0.921757 1.27833 0
M  V30 12149 C 1130.23 0.420978 2.25301 0
M  V30 12150 C 1131.23 -0.457158 1.54165 0
M  V30 12151 O 1132.42 -0.259079 1.72263 0
M  V30 12152 C 1129.55 -0.395501 3.38598 0
M  V30 12153 H 1130.75 1.28206 2.71115 0
M  V30 12154 H 1128.3 0.701893 1.39654 0
M  V30 12155 H 1129.03 -1.27565 2.98157 0
M  V30 12156 H 1128.82 0.234029 3.91401 0
M  V30 12157 H 1130.31 -0.736444 4.11055 0
M  V30 12158 N 1130.75 -1.41857 0.686609 0
M  V30 12159 C 1132.16 -1.84439 0.289662 0
M  V30 12160 C 1132.51 -1.57462 -1.17047 0
M  V30 12161 O 1131.63 -1.04046 -1.89745 0
M  V30 12162 C 1132.23 -3.34802 0.518948 0
M  V30 12163 C 1130.79 -3.75988 0.176007 0
M  V30 12164 C 1129.93 -2.65339 0.805632 0
M  V30 12165 H 1132.89 -1.31536 0.88792 0
M  V30 12166 H 1132.91 -3.79833 -0.225209 0
M  V30 12167 H 1132.42 -3.54405 1.58173 0
M  V30 12168 H 1130.52 -3.61989 -0.882865 0
M  V30 12169 H 1130.63 -4.75009 0.624772 0
M  V30 12170 H 1129 -2.53605 0.235966 0
M  V30 12171 H 1129.78 -2.87762 1.8721 0
M  V30 12172 N 1132.22 -0.430739 -1.51599 0
M  V30 12173 C 1133.64 0.0339139 -1.86669 0
M  V30 12174 C 1133.99 1.42533 -1.34829 0
M  V30 12175 O 1133.11 2.04889 -0.696376 0
M  V30 12176 C 1133.71 0.0683174 -3.38731 0
M  V30 12177 C 1132.27 0.477363 -3.73361 0
M  V30 12178 C 1131.41 -0.334258 -2.75278 0
M  V30 12179 H 1134.36 -0.646875 -1.44918 0
M  V30 12180 H 1134.38 0.879179 -3.70204 0
M  V30 12181 H 1133.9 -0.944501 -3.76432 0
M  V30 12182 H 1132 1.49603 -3.41247 0
M  V30 12183 H 1132.11 0.206744 -4.78654 0
M  V30 12184 H 1130.47 0.206503 -2.53861 0
M  V30 12185 H 1131.26 -1.34583 -3.1582 0
M  V30 12186 N 1133.7 1.56767 -0.161869 0
M  V30 12187 C 1134.95 1.96594 0.485496 0
M  V30 12188 C 1135.28 1.04743 1.63887 0
M  V30 12189 O 1134.53 0.079602 1.95538 0
M  V30 12190 C 1134.83 3.42567 1.01894 0
M  V30 12191 C 1134.5 4.50897 -0.0175419 0
M  V30 12192 C 1133.16 4.80249 -0.302429 0
M  V30 12193 C 1135.51 5.16181 -0.721572 0
M  V30 12194 C 1132.84 5.72187 -1.2969 0
M  V30 12195 C 1135.19 6.09191 -1.70496 0
M  V30 12196 C 1133.86 6.36915 -1.99739 0
M  V30 12197 H 1133.13 0.719388 0.177656 0
M  V30 12198 H 1135.77 1.89837 -0.251839 0
M  V30 12199 H 1134.08 3.4623 1.83391 0
M  V30 12200 H 1135.77 3.70719 1.52867 0
M  V30 12201 H 1132.36 4.28062 0.21468 0
M  V30 12202 H 1136.55 4.93624 -0.514681 0
M  V30 12203 H 1131.8 5.91953 -1.52974 0
M  V30 12204 H 1135.98 6.58849 -2.25591 0
M  V30 12205 H 1133.61 7.07958 -2.76948 0
M  V30 12206 N 1135.18 -0.111886 1.57202 0
M  V30 12207 C 1136.41 -0.836317 1.89791 0
M  V30 12208 C 1136.83 -1.72304 0.754513 0
M  V30 12209 O 1136.19 -1.78889 -0.294672 0
M  V30 12210 C 1136.24 -1.63971 3.21164 0
M  V30 12211 O 1135.34 -2.74726 3.0757 0
M  V30 12212 H 1134.68 -0.230833 0.622585 0
M  V30 12213 H 1137.21 -0.0921478 2.04392 0
M  V30 12214 H 1137.22 -2.02746 3.54059 0
M  V30 12215 H 1135.9 -0.98882 4.03974 0
M  V30 12216 H 1134.47 -2.39101 2.86156 0
M  V30 12217 N 1136.66 -1.52894 -0.382264 0
M  V30 12218 C 1137.59 -1.81122 -1.47367 0
M  V30 12219 C 1138.57 -0.663653 -1.56619 0
M  V30 12220 O 1139.75 -0.911898 -1.71459 0
M  V30 12221 C 1136.88 -1.98615 -2.84902 0
M  V30 12222 C 1135.84 -3.14328 -2.90485 0
M  V30 12223 C 1135.16 -3.17086 -4.30535 0
M  V30 12224 C 1136.46 -4.53263 -2.59519 0
M  V30 12225 H 1138.16 -2.72518 -1.23993 0
M  V30 12226 H 1135.7 -1.3113 -0.595049 0
M  V30 12227 H 1137.66 -2.16946 -3.61265 0
M  V30 12228 H 1136.38 -1.03915 -3.09628 0
M  V30 12229 H 1135.04 -2.95791 -2.16572 0
M  V30 12230 H 1134.69 -2.20055 -4.52311 0
M  V30 12231 H 1134.39 -3.94821 -4.3519 0
M  V30 12232 H 1135.91 -3.3758 -5.08795 0
M  V30 12233 H 1137.33 -4.71867 -3.25598 0
M  V30 12234 H 1135.72 -5.33115 -2.75514 0
M  V30 12235 H 1136.79 -4.59516 -1.54831 0
M  V30 12236 N 1138.14 0.641106 -1.43971 0
M  V30 12237 C 1139.37 1.42829 -1.49692 0
M  V30 12238 C 1139.78 1.88427 -0.118594 0
M  V30 12239 O 1139.14 1.60234 0.873581 0
M  V30 12240 C 1139.19 2.65524 -2.45314 0
M  V30 12241 O 1138.91 2.2183 -3.77787 0
M  V30 12242 C 1140.41 3.58758 -2.60399 0
M  V30 12243 H 1137.63 0.438367 -0.508011 0
M  V30 12244 H 1140.17 0.784933 -1.88836 0
M  V30 12245 H 1138.33 3.25973 -2.09332 0
M  V30 12246 H 1138.74 3.01303 -4.29321 0
M  V30 12247 H 1140.22 4.41483 -3.31357 0
M  V30 12248 H 1140.69 4.06909 -1.65294 0
M  V30 12249 H 1141.3 3.04184 -2.97241 0
M  V30 12250 N 1139.62 1.30703 0.880598 0
M  V30 12251 C 1140.55 1.1327 1.99255 0
M  V30 12252 C 1141.56 0.0747186 1.62628 0
M  V30 12253 O 1142.75 0.321169 1.75587 0
M  V30 12254 C 1139.85 0.706179 3.31461 0
M  V30 12255 C 1139.02 1.84687 3.96497 0
M  V30 12256 C 1138.08 1.40817 5.07008 0
M  V30 12257 O 1137.11 2.1161 5.28403 0
M  V30 12258 N 1138.31 0.289619 5.79777 0
M  V30 12259 H 1141.07 2.09043 2.14759 0
M  V30 12260 H 1138.64 1.22896 1.05395 0
M  V30 12261 H 1140.63 0.395617 4.02762 0
M  V30 12262 H 1139.2 -0.159631 3.12192 0
M  V30 12263 H 1138.42 2.32531 3.18312 0
M  V30 12264 H 1139.71 2.61117 4.36687 0
M  V30 12265 H 1139.1 -0.300177 5.64903 0
M  V30 12266 H 1137.66 0.0385346 6.51789 0
M  V30 12267 N 1141.09 -1.09351 1.1349 0
M  V30 12268 C 1142.5 -1.63035 0.909746 0
M  V30 12269 C 1142.86 -1.88229 -0.553573 0
M  V30 12270 O 1141.98 -1.63256 -1.42044 0
M  V30 12271 C 1142.58 -2.96186 1.64497 0
M  V30 12272 C 1141.13 -3.46692 1.46566 0
M  V30 12273 C 1140.28 -2.21095 1.67369 0
M  V30 12274 H 1143.23 -0.92704 1.28809 0
M  V30 12275 H 1143.25 -3.64177 1.10251 0
M  V30 12276 H 1142.77 -2.77818 2.70996 0
M  V30 12277 H 1140.87 -3.70183 0.423728 0
M  V30 12278 H 1140.98 -4.24078 2.22923 0
M  V30 12279 H 1139.34 -2.29789 1.0986 0
M  V30 12280 H 1140.13 -2.05245 2.7519 0
M  V30 12281 N 1142.57 -0.928524 -1.27343 0
M  V30 12282 C 1143.5 -0.445627 -2.29208 0
M  V30 12283 C 1144.48 0.494508 -1.62753 0
M  V30 12284 O 1145.67 0.399082 -1.90055 0
M  V30 12285 C 1142.8 0.301684 -3.45987 0
M  V30 12286 C 1141.75 -0.550695 -4.24442 0
M  V30 12287 C 1141.08 0.325833 -5.33706 0
M  V30 12288 C 1142.38 -1.81559 -4.89728 0
M  V30 12289 H 1144.07 -1.29696 -2.69851 0
M  V30 12290 H 1141.62 -0.625085 -1.29725 0
M  V30 12291 H 1143.57 0.650455 -4.1635 0
M  V30 12292 H 1142.29 1.18705 -3.04264 0
M  V30 12293 H 1140.95 -0.882185 -3.55827 0
M  V30 12294 H 1140.6 1.21018 -4.88225 0
M  V30 12295 H 1140.3 -0.240994 -5.87106 0
M  V30 12296 H 1141.83 0.670156 -6.06911 0
M  V30 12297 H 1143.24 -1.53483 -5.52373 0
M  V30 12298 H 1141.64 -2.32598 -5.53189 0
M  V30 12299 H 1142.71 -2.53461 -4.13383 0
M  V30 12300 N 1144.05 1.41491 -0.694123 0
M  V30 12301 C 1145.27 2.06099 -0.23197 0
M  V30 12302 C 1145.7 1.51888 1.10958 0
M  V30 12303 O 1145.06 0.645247 1.69429 0
M  V30 12304 C 1145.11 3.60053 -0.198522 0
M  V30 12305 O 1144.21 4.04021 0.827067 0
M  V30 12306 H 1143.55 0.654193 -0.113699 0
M  V30 12307 H 1146.08 1.81282 -0.948575 0
M  V30 12308 H 1146.09 4.0799 -0.0288904 0
M  V30 12309 H 1144.77 3.98879 -1.17764 0
M  V30 12310 H 1143.34 3.67593 0.626908 0
M  V30 12311 N 1145.53 0.438773 1.51369 0
M  V30 12312 C 1146.94 -0.0240139 1.86685 0
M  V30 12313 C 1147.29 -1.41816 1.35583 0
M  V30 12314 O 1146.41 -2.04517 0.707232 0
M  V30 12315 C 1147.01 -0.0503527 3.38763 0
M  V30 12316 C 1145.57 -0.457556 3.73609 0
M  V30 12317 C 1144.72 0.348852 2.75097 0
M  V30 12318 H 1147.67 0.654552 1.44573 0
M  V30 12319 H 1147.69 -0.859534 3.70665 0
M  V30 12320 H 1147.2 0.964451 3.75925 0
M  V30 12321 H 1145.3 -1.47791 3.42036 0
M  V30 12322 H 1145.41 -0.181357 4.78757 0
M  V30 12323 H 1143.78 -0.193037 2.53967 0
M  V30 12324 H 1144.56 1.36256 3.15102 0
M  V30 12325 N 1147.01 -1.56678 0.170181 0
M  V30 12326 C 1148.25 -1.9714 -0.475767 0
M  V30 12327 C 1148.58 -1.05611 -1.62972 0
M  V30 12328 O 1147.86 -0.103017 -1.94227 0
M  V30 12329 C 1148.14 -3.47072 -0.959828 0
M  V30 12330 C 1148 -4.4938 0.194225 0
M  V30 12331 C 1149.31 -4.00071 -1.83387 0
M  V30 12332 H 1146.43 -0.716776 -0.171466 0
M  V30 12333 H 1149.08 -1.88266 0.256086 0
M  V30 12334 H 1147.23 -3.54766 -1.58346 0
M  V30 12335 H 1148.9 -4.53748 0.83128 0
M  V30 12336 H 1147.14 -4.25393 0.849893 0
M  V30 12337 H 1147.81 -5.51685 -0.186575 0
M  V30 12338 H 1150.29 -3.95002 -1.30815 0
M  V30 12339 H 1149.16 -5.05398 -2.14159 0
M  V30 12340 H 1149.42 -3.43819 -2.77923 0
M  V30 12341 N 1148.48 0.103547 -1.57259 0
M  V30 12342 C 1149.41 1.12714 -2.04494 0
M  V30 12343 C 1150.39 1.42278 -0.932255 0
M  V30 12344 O 1151.58 1.52453 -1.20298 0
M  V30 12345 C 1148.71 2.44927 -2.46228 0
M  V30 12346 C 1147.66 2.2979 -3.61082 0
M  V30 12347 C 1146.99 3.67105 -3.88765 0
M  V30 12348 C 1148.29 1.7455 -4.9227 0
M  V30 12349 H 1149.98 0.734198 -2.90258 0
M  V30 12350 H 1147.53 0.351725 -1.39638 0
M  V30 12351 H 1149.48 3.16798 -2.77879 0
M  V30 12352 H 1148.21 2.8614 -1.57453 0
M  V30 12353 H 1146.87 1.60366 -3.29664 0
M  V30 12354 H 1146.51 4.05831 -2.97171 0
M  V30 12355 H 1146.21 3.57825 -4.66084 0
M  V30 12356 H 1147.74 4.40456 -4.22884 0
M  V30 12357 H 1149.15 2.36253 -5.22358 0
M  V30 12358 H 1147.55 1.76051 -5.73695 0
M  V30 12359 H 1148.62 0.704242 -4.79759 0
M  V30 12360 N 1149.96 1.53094 0.37415 0
M  V30 12361 C 1150.87 1.81872 1.48188 0
M  V30 12362 C 1151.89 0.706487 1.59012 0
M  V30 12363 O 1153.06 0.995648 1.75068 0
M  V30 12364 C 1150.13 1.99494 2.83554 0
M  V30 12365 C 1149.19 3.23402 2.82329 0
M  V30 12366 C 1148.42 3.40174 4.11239 0
M  V30 12367 O 1148.65 2.61425 5.06965 0
M  V30 12368 O 1147.58 4.33493 4.17573 0
M  V30 12369 H 1151.41 2.75965 1.26795 0
M  V30 12370 H 1148.99 1.38368 0.56343 0
M  V30 12371 H 1150.87 2.12705 3.63778 0
M  V30 12372 H 1149.55 1.08591 3.04942 0
M  V30 12373 H 1148.45 3.15621 2.00834 0
M  V30 12374 H 1149.79 4.14199 2.65894 0
M  V30 12375 N 1151.44 -0.633461 1.44309 0
M  V30 12376 C 1152.85 -1.21504 1.41752 0
M  V30 12377 C 1153.2 -1.95758 0.131667 0
M  V30 12378 O 1152.33 -2.02311 -0.768072 0
M  V30 12379 C 1152.92 -2.21005 2.56792 0
M  V30 12380 C 1151.48 -2.74596 2.57438 0
M  V30 12381 C 1150.63 -1.49555 2.33513 0
M  V30 12382 H 1153.58 -0.424277 1.52923 0
M  V30 12383 H 1153.6 -3.03563 2.29412 0
M  V30 12384 H 1153.11 -1.66934 3.50364 0
M  V30 12385 H 1151.21 -3.32676 1.67801 0
M  V30 12386 H 1151.33 -3.20794 3.55849 0
M  V30 12387 H 1149.69 -1.77605 1.82561 0
M  V30 12388 H 1150.47 -0.973899 3.29196 0
M  V30 12389 N 1152.92 -1.31168 -0.873655 0
M  V30 12390 C 1154.14 -1.23728 -1.66452 0
M  V30 12391 C 1154.57 0.194869 -1.87088 0
M  V30 12392 O 1153.93 1.1397 -1.40998 0
M  V30 12393 C 1153.97 -1.98285 -3.0119 0
M  V30 12394 O 1153.08 -1.31767 -3.90783 0
M  V30 12395 H 1152.42 -0.427362 -0.508191 0
M  V30 12396 H 1154.95 -1.73176 -1.08955 0
M  V30 12397 H 1154.96 -2.0774 -3.51153 0
M  V30 12398 H 1153.63 -3.02437 -2.8549 0
M  V30 12399 H 1152.21 -1.3074 -3.4923 0
M  V30 12400 N 1154.4 1.08748 -1.14068 0
M  V30 12401 C 1155.62 1.85353 -0.930532 0
M  V30 12402 C 1156.05 1.80892 0.515717 0
M  V30 12403 O 1155.4 1.19146 1.36652 0
M  V30 12404 C 1155.45 3.30962 -1.43167 0
M  V30 12405 O 1154.56 4.0769 -0.621468 0
M  V30 12406 H 1153.9 0.574485 -0.332962 0
M  V30 12407 H 1156.43 1.37282 -1.51707 0
M  V30 12408 H 1156.44 3.81807 -1.43832 0
M  V30 12409 H 1155.11 3.33524 -2.48464 0
M  V30 12410 H 1153.69 3.66587 -0.683267 0
M  V30 12411 N 1155.87 0.935264 1.26849 0
M  V30 12412 C 1156.78 0.446122 2.30319 0
M  V30 12413 C 1157.8 -0.476965 1.67335 0
M  V30 12414 O 1158.98 -0.357934 1.98194 0
M  V30 12415 C 1156.04 -0.286297 3.45516 0
M  V30 12416 C 1155.1 0.672626 4.23998 0
M  V30 12417 C 1154.34 -0.0249345 5.33694 0
M  V30 12418 O 1154.56 -1.24296 5.56693 0
M  V30 12419 O 1153.49 0.650752 5.98372 0
M  V30 12420 H 1157.32 1.30546 2.74211 0
M  V30 12421 H 1154.9 0.70091 1.31938 0
M  V30 12422 H 1156.79 -0.699109 4.1556 0
M  V30 12423 H 1155.46 -1.12112 3.03665 0
M  V30 12424 H 1154.37 1.13527 3.56458 0
M  V30 12425 H 1155.7 1.47489 4.69583 0
M  V30 12426 N 1157.35 -1.41121 0.701616 0
M  V30 12427 C 1158.28 -2.292 0.000880842 0
M  V30 12428 C 1159.3 -1.45102 -0.738192 0
M  V30 12429 O 1160.49 -1.68541 -0.587891 0
M  V30 12430 C 1157.59 -3.23094 -1.02292 0
M  V30 12431 C 1156.76 -4.35979 -0.352231 0
M  V30 12432 C 1155.82 -5.10408 -1.27947 0
M  V30 12433 O 1154.84 -5.63974 -0.769561 0
M  V30 12434 N 1156.05 -5.18442 -2.61147 0
M  V30 12435 H 1158.81 -2.8998 0.757094 0
M  V30 12436 H 1156.37 -1.52339 0.548126 0
M  V30 12437 H 1158.36 -3.69755 -1.64509 0
M  V30 12438 H 1156.93 -2.6358 -1.68061 0
M  V30 12439 H 1156.15 -3.91624 0.44992 0
M  V30 12440 H 1157.44 -5.08673 0.113882 0
M  V30 12441 H 1156.84 -4.76381 -3.05087 0
M  V30 12442 H 1155.4 -5.68659 -3.18544 0
M  V30 12443 N 1158.83 -0.446794 -1.51134 0
M  V30 12444 C 1159.76 0.405311 -2.24572 0
M  V30 12445 C 1160.74 1.01679 -1.26886 0
M  V30 12446 O 1161.93 1.05743 -1.56047 0
M  V30 12447 C 1159.05 1.56573 -3.00338 0
M  V30 12448 C 1158.1 1.07401 -4.12756 0
M  V30 12449 S 1158.93 0.00835038 -5.35499 0
M  V30 12450 C 1160.09 1.17321 -6.14806 0
M  V30 12451 H 1160.32 -0.218143 -2.96499 0
M  V30 12452 H 1157.85 -0.231405 -1.52656 0
M  V30 12453 H 1159.81 2.23092 -3.44587 0
M  V30 12454 H 1158.47 2.16062 -2.27982 0
M  V30 12455 H 1157.67 1.94204 -4.65082 0
M  V30 12456 H 1157.27 0.486906 -3.70817 0
M  V30 12457 H 1159.56 2.08972 -6.44466 0
M  V30 12458 H 1160.5 0.689723 -7.04733 0
M  V30 12459 H 1160.91 1.41605 -5.4645 0
M  V30 12460 N 1160.31 1.56586 -0.178487 0
M  V30 12461 C 1161.24 2.155 0.780543 0
M  V30 12462 C 1162.25 1.11244 1.18864 0
M  V30 12463 O 1163.44 1.38403 1.12725 0
M  V30 12464 C 1160.54 2.68867 2.0631 0
M  V30 12465 C 1159.72 3.97854 1.81744 0
M  V30 12466 C 1158.77 4.36213 2.94287 0
M  V30 12467 O 1157.8 5.03954 2.64612 0
M  V30 12468 N 1159 3.98356 4.22247 0
M  V30 12469 H 1161.77 2.98419 0.276836 0
M  V30 12470 H 1159.33 1.61899 0.00405241 0
M  V30 12471 H 1161.32 2.91522 2.80708 0
M  V30 12472 H 1159.89 1.90496 2.47851 0
M  V30 12473 H 1159.11 3.83502 0.912127 0
M  V30 12474 H 1160.4 4.82083 1.62707 0
M  V30 12475 H 1159.8 3.43835 4.49215 0
M  V30 12476 H 1158.35 4.25998 4.93325 0
M  V30 12477 N 1161.79 -0.095206 1.57312 0
M  V30 12478 C 1163.02 -0.811092 1.90013 0
M  V30 12479 C 1163.42 -1.72807 0.770359 0
M  V30 12480 O 1162.77 -1.81755 -0.266615 0
M  V30 12481 C 1162.83 -1.67744 3.17966 0
M  V30 12482 C 1162.49 -0.932301 4.47389 0
M  V30 12483 C 1163.49 -0.262161 5.19239 0
M  V30 12484 C 1161.18 -0.906414 4.94054 0
M  V30 12485 C 1163.17 0.423898 6.35989 0
M  V30 12486 C 1160.86 -0.216569 6.10716 0
M  V30 12487 C 1161.85 0.447408 6.81533 0
M  V30 12488 O 1161.54 1.12619 7.95972 0
M  V30 12489 H 1161.27 -0.237154 0.633035 0
M  V30 12490 H 1163.83 -0.0768976 2.05256 0
M  V30 12491 H 1162.06 -2.45387 2.98868 0
M  V30 12492 H 1163.75 -2.26988 3.36498 0
M  V30 12493 H 1164.51 -0.273621 4.84228 0
M  V30 12494 H 1160.39 -1.41267 4.38822 0
M  V30 12495 H 1163.94 0.942727 6.91201 0
M  V30 12496 H 1159.83 -0.202955 6.45181 0
M  V30 12497 H 1160.6 1.03308 8.11954 0
M  V30 12498 N 1163.26 -1.53291 -0.366026 0
M  V30 12499 C 1164.49 -1.73665 -1.13381 0
M  V30 12500 C 1164.91 -0.464284 -1.8228 0
M  V30 12501 O 1164.27 0.581645 -1.71717 0
M  V30 12502 C 1164.32 -2.90225 -2.14013 0
M  V30 12503 O 1163.42 -2.58803 -3.21084 0
M  V30 12504 H 1162.77 -0.576762 -0.329 0
M  V30 12505 H 1165.3 -2.00174 -0.423287 0
M  V30 12506 H 1165.31 -3.16378 -2.57622 0
M  V30 12507 H 1163.98 -3.82518 -1.63257 0
M  V30 12508 H 1162.56 -2.43466 -2.82451 0
M  V30 12509 N 1164.74 0.6258 -1.44643 0
M  V30 12510 C 1166.15 1.20751 -1.42394 0
M  V30 12511 C 1166.5 1.95685 -0.142047 0
M  V30 12512 O 1165.63 2.02715 0.757332 0
M  V30 12513 C 1166.22 2.1964 -2.57961 0
M  V30 12514 C 1164.78 2.73227 -2.5889 0
M  V30 12515 C 1163.93 1.48315 -2.34303 0
M  V30 12516 H 1166.88 0.416162 -1.53146 0
M  V30 12517 H 1166.9 3.02342 -2.31019 0
M  V30 12518 H 1166.41 1.65073 -3.51244 0
M  V30 12519 H 1164.52 3.31782 -1.69563 0
M  V30 12520 H 1164.63 3.18902 -3.57545 0
M  V30 12521 H 1162.99 1.76634 -1.83501 0
M  V30 12522 H 1163.78 0.956427 -3.29708 0
M  V30 12523 N 1166.22 1.31629 0.866686 0
M  V30 12524 C 1167.47 1.21503 1.61998 0
M  V30 12525 C 1167.8 -0.226044 1.93182 0
M  V30 12526 O 1167.05 -1.17573 1.56445 0
M  V30 12527 C 1167.35 2.00775 2.95676 0
M  V30 12528 C 1167.02 3.50245 2.83971 0
M  V30 12529 C 1165.68 3.91 2.80485 0
M  V30 12530 C 1168.03 4.45347 2.70769 0
M  V30 12531 C 1165.36 5.25119 2.61661 0
M  V30 12532 C 1167.71 5.79595 2.53481 0
M  V30 12533 C 1166.37 6.19567 2.48381 0
M  V30 12534 H 1165.64 0.44461 0.592792 0
M  V30 12535 H 1168.29 1.62929 1.00629 0
M  V30 12536 H 1166.6 1.52039 3.61097 0
M  V30 12537 H 1168.29 1.90318 3.52959 0
M  V30 12538 H 1164.88 3.17869 2.87502 0
M  V30 12539 H 1169.07 4.14789 2.72514 0
M  V30 12540 H 1164.32 5.5516 2.5614 0
M  V30 12541 H 1168.5 6.5291 2.42243 0
M  V30 12542 H 1166.12 7.23434 2.33554 0
M  V30 12543 N 1167.7 -1.08142 1.14644 0
M  V30 12544 C 1168.63 -2.17139 0.858667 0
M  V30 12545 C 1169.61 -1.69064 -0.187452 0
M  V30 12546 O 1170.8 -1.94151 -0.0435458 0
M  V30 12547 C 1167.93 -3.45648 0.33834 0
M  V30 12548 C 1166.88 -4.07129 1.32021 0
M  V30 12549 C 1166.21 -5.30623 0.659075 0
M  V30 12550 C 1167.51 -4.48095 2.68343 0
M  V30 12551 H 1169.2 -2.41468 1.77012 0
M  V30 12552 H 1166.75 -1.16052 0.852523 0
M  V30 12553 H 1168.7 -4.21216 0.124611 0
M  V30 12554 H 1167.42 -3.2088 -0.608553 0
M  V30 12555 H 1166.08 -3.33596 1.52016 0
M  V30 12556 H 1165.73 -5.02142 -0.293711 0
M  V30 12557 H 1165.43 -5.72714 1.31427 0
M  V30 12558 H 1166.95 -6.08903 0.454933 0
M  V30 12559 H 1168.37 -5.14828 2.5224 0
M  V30 12560 H 1166.76 -5.01113 3.30161 0
M  V30 12561 H 1167.83 -3.59852 3.25015 0
M  V30 12562 N 1169.18 -0.941978 -1.26351 0
M  V30 12563 C 1170.4 -0.606231 -1.98342 0
M  V30 12564 C 1170.83 0.812014 -1.6967 0
M  V30 12565 O 1170.19 1.54712 -0.9452 0
M  V30 12566 C 1170.23 -0.855864 -3.50296 0
M  V30 12567 O 1169.34 0.0716251 -4.12338 0
M  V30 12568 H 1168.68 -0.231815 -0.62222 0
M  V30 12569 H 1171.21 -1.26513 -1.60797 0
M  V30 12570 H 1171.22 -0.777079 -4.00531 0
M  V30 12571 H 1169.89 -1.8896 -3.70496 0
M  V30 12572 H 1168.47 -0.0582866 -3.72854 0
M  V30 12573 N 1170.66 1.40747 -0.709091 0
M  V30 12574 C 1171.59 2.29196 -0.0130359 0
M  V30 12575 C 1172.6 1.45491 0.730487 0
M  V30 12576 O 1173.79 1.6885 0.578944 0
M  V30 12577 C 1170.89 3.23632 1.00577 0
M  V30 12578 C 1170.06 4.3616 0.329105 0
M  V30 12579 C 1169.12 5.11079 1.25239 0
M  V30 12580 O 1168.15 5.64374 0.739641 0
M  V30 12581 N 1169.35 5.1982 2.58394 0
M  V30 12582 H 1172.11 2.89574 -0.772462 0
M  V30 12583 H 1169.68 1.52046 -0.556197 0
M  V30 12584 H 1171.67 3.70622 1.62546 0
M  V30 12585 H 1170.24 2.64467 1.66661 0
M  V30 12586 H 1169.46 3.9138 -0.470683 0
M  V30 12587 H 1170.75 5.08605 -0.140856 0
M  V30 12588 H 1170.14 4.77992 3.02556 0
M  V30 12589 H 1168.7 5.7034 3.15524 0
M  V30 12590 N 1172.13 0.454803 1.50895 0
M  V30 12591 C 1173.36 -0.103785 2.06339 0
M  V30 12592 C 1173.77 -1.35494 1.32053 0
M  V30 12593 O 1173.11 -1.79758 0.37852 0
M  V30 12594 C 1173.18 -0.474076 3.5636 0
M  V30 12595 C 1172.84 0.672736 4.52021 0
M  V30 12596 C 1173.84 1.55003 4.96256 0
M  V30 12597 C 1171.52 0.858435 4.9491 0
M  V30 12598 C 1173.52 2.59757 5.82069 0
M  V30 12599 C 1171.2 1.90922 5.8051 0
M  V30 12600 C 1172.2 2.77717 6.23989 0
M  V30 12601 O 1171.89 3.80989 7.07886 0
M  V30 12602 H 1171.62 -0.0035531 0.675991 0
M  V30 12603 H 1174.18 0.637816 1.95246 0
M  V30 12604 H 1172.41 -1.26863 3.65298 0
M  V30 12605 H 1174.09 -0.965845 3.94241 0
M  V30 12606 H 1174.86 1.41818 4.63802 0
M  V30 12607 H 1170.74 0.192384 4.60598 0
M  V30 12608 H 1174.28 3.27535 6.15927 0
M  V30 12609 H 1170.18 2.04121 6.12376 0
M  V30 12610 H 1170.95 3.7778 7.26102 0
M  V30 12611 N 1173.61 -1.56489 0.186789 0
M  V30 12612 C 1174.54 -2.15911 -0.769104 0
M  V30 12613 C 1175.56 -1.11872 -1.18273 0
M  V30 12614 O 1176.75 -1.38999 -1.1199 0
M  V30 12615 C 1173.85 -2.69957 -2.04882 0
M  V30 12616 C 1173.02 -3.98812 -1.79631 0
M  V30 12617 C 1172.08 -4.37767 -2.9197 0
M  V30 12618 O 1171.1 -5.0535 -2.61935 0
M  V30 12619 N 1172.31 -4.0059 -4.20128 0
M  V30 12620 H 1175.07 -2.98561 -0.261007 0
M  V30 12621 H 1172.63 -1.61899 0.00453357 0
M  V30 12622 H 1174.62 -2.93006 -2.79158 0
M  V30 12623 H 1173.19 -1.91808 -2.46837 0
M  V30 12624 H 1172.41 -3.8398 -0.891776 0
M  V30 12625 H 1173.7 -4.82939 -1.60148 0
M  V30 12626 H 1173.1 -3.46213 -4.47385 0
M  V30 12627 H 1171.66 -4.28608 -4.91059 0
M  V30 12628 N 1175.09 0.086862 -1.5736 0
M  V30 12629 C 1176 1.12297 -2.05977 0
M  V30 12630 C 1177.02 1.43347 -0.986284 0
M  V30 12631 O 1178.19 1.53825 -1.3 0
M  V30 12632 C 1175.26 2.42131 -2.4814 0
M  V30 12633 C 1174.32 2.18189 -3.69719 0
M  V30 12634 C 1173.55 3.41833 -4.09861 0
M  V30 12635 O 1173.77 4.50383 -3.50016 0
M  V30 12636 O 1172.71 3.30934 -5.02759 0
M  V30 12637 H 1176.53 0.740012 -2.94546 0
M  V30 12638 H 1174.12 0.29995 -1.46358 0
M  V30 12639 H 1176 3.18568 -2.75848 0
M  V30 12640 H 1174.68 2.79837 -1.62705 0
M  V30 12641 H 1173.58 1.39506 -3.47115 0
M  V30 12642 H 1174.92 1.85372 -4.55959 0
M  V30 12643 N 1176.57 1.53483 0.357892 0
M  V30 12644 C 1177.5 1.75257 1.46151 0
M  V30 12645 C 1178.48 0.601167 1.51079 0
M  V30 12646 O 1179.66 0.834661 1.69014 0
M  V30 12647 C 1176.79 1.8383 2.84472 0
M  V30 12648 C 1175.84 3.05866 2.97234 0
M  V30 12649 S 1176.67 4.65225 2.6519 0
M  V30 12650 C 1177.82 4.76657 4.05646 0
M  V30 12651 H 1178.06 2.6859 1.27462 0
M  V30 12652 H 1175.59 1.44169 0.552697 0
M  V30 12653 H 1177.55 1.89454 3.64167 0
M  V30 12654 H 1176.21 0.915345 3.00467 0
M  V30 12655 H 1175.4 3.08497 3.98555 0
M  V30 12656 H 1175 2.98393 2.25471 0
M  V30 12657 H 1177.3 4.57185 4.99988 0
M  V30 12658 H 1178.24 5.7873 4.08016 0
M  V30 12659 H 1178.65 4.05226 3.93004 0
M  V30 12660 N 1178.05 -0.61812 1.44973 0
M  V30 12661 C 1178.98 -1.74299 1.48837 0
M  V30 12662 C 1179.99 -1.58296 0.38028 0
M  V30 12663 O 1181.18 -1.66371 0.646757 0
M  V30 12664 C 1178.28 -3.12179 1.31901 0
M  V30 12665 C 1177.45 -3.54519 2.56193 0
M  V30 12666 C 1176.51 -4.71324 2.33966 0
M  V30 12667 O 1175.54 -4.78975 3.07525 0
M  V30 12668 N 1176.74 -5.63894 1.37854 0
M  V30 12669 H 1179.5 -1.7145 2.45815 0
M  V30 12670 H 1177.07 -0.803087 1.40578 0
M  V30 12671 H 1179.06 -3.88059 1.14858 0
M  V30 12672 H 1177.63 -3.09595 0.43239 0
M  V30 12673 H 1176.85 -2.68711 2.88423 0
M  V30 12674 H 1178.14 -3.79563 3.38835 0
M  V30 12675 H 1177.53 -5.60418 0.771273 0
M  V30 12676 H 1176.09 -6.3935 1.26787 0
M  V30 12677 N 1179.52 -1.32087 -0.859693 0
M  V30 12678 C 1180.45 -1.23204 -1.98351 0
M  V30 12679 C 1181.43 -0.116974 -1.69697 0
M  V30 12680 O 1182.62 -0.303301 -1.91817 0
M  V30 12681 C 1179.75 -0.949171 -3.34078 0
M  V30 12682 C 1178.7 -2.02493 -3.77069 0
M  V30 12683 C 1178.03 -1.59455 -5.1037 0
M  V30 12684 C 1179.33 -3.43934 -3.93074 0
M  V30 12685 H 1181.02 -2.17227 -2.0604 0
M  V30 12686 H 1178.57 -1.04577 -0.989931 0
M  V30 12687 H 1180.52 -0.873594 -4.12245 0
M  V30 12688 H 1179.25 0.0267095 -3.26589 0
M  V30 12689 H 1177.91 -2.09057 -3.01149 0
M  V30 12690 H 1177.55 -0.606256 -4.99333 0
M  V30 12691 H 1177.25 -2.31429 -5.40106 0
M  V30 12692 H 1178.78 -1.53325 -5.91036 0
M  V30 12693 H 1180.19 -3.39986 -4.61608 0
M  V30 12694 H 1178.59 -4.14214 -4.3422 0
M  V30 12695 H 1179.66 -3.83965 -2.9614 0
M  V30 12696 N 1181 1.07532 -1.15215 0
M  V30 12697 C 1181.93 2.14598 -0.805006 0
M  V30 12698 C 1182.95 1.61778 0.182152 0
M  V30 12699 O 1184.14 1.78453 -0.040834 0
M  V30 12700 C 1181.24 3.38444 -0.175736 0
M  V30 12701 C 1180.41 4.20621 -1.19986 0
M  V30 12702 C 1179.47 5.22851 -0.592705 0
M  V30 12703 O 1178.49 5.55121 -1.25815 0
M  V30 12704 N 1179.7 5.7711 0.626425 0
M  V30 12705 H 1182.46 2.44981 -1.7264 0
M  V30 12706 H 1180.02 1.23423 -1.04778 0
M  V30 12707 H 1182.01 4.03969 0.243166 0
M  V30 12708 H 1180.58 3.0579 0.64896 0
M  V30 12709 H 1179.8 3.50941 -1.79539 0
M  V30 12710 H 1181.09 4.72339 -1.89139 0
M  V30 12711 H 1180.49 5.53139 1.18546 0
M  V30 12712 H 1179.05 6.44273 0.98771 0
M  V30 12713 N 1182.48 0.948665 1.2585 0
M  V30 12714 C 1183.89 0.641829 1.75321 0
M  V30 12715 C 1184.24 -0.842903 1.77171 0
M  V30 12716 O 1183.37 -1.65967 1.38867 0
M  V30 12717 C 1183.96 1.15835 3.18383 0
M  V30 12718 C 1182.52 0.901784 3.65438 0
M  V30 12719 C 1181.67 1.30489 2.44679 0
M  V30 12720 H 1184.62 1.12614 1.1182 0
M  V30 12721 H 1184.64 0.515639 3.7699 0
M  V30 12722 H 1184.15 2.23897 3.17004 0
M  V30 12723 H 1182.25 -0.164135 3.72238 0
M  V30 12724 H 1182.37 1.53405 4.53876 0
M  V30 12725 H 1180.73 0.723278 2.44215 0
M  V30 12726 H 1181.51 2.3946 2.45996 0
M  V30 12727 N 1183.96 -1.40369 0.716545 0
M  V30 12728 C 1184.89 -2.33365 0.0793533 0
M  V30 12729 C 1185.87 -1.52943 -0.744482 0
M  V30 12730 O 1187.05 -1.81406 -0.693212 0
M  V30 12731 C 1184.18 -3.36928 -0.842429 0
M  V30 12732 C 1183.14 -4.2782 -0.124142 0
M  V30 12733 C 1182.46 -5.21928 -1.1617 0
M  V30 12734 C 1183.76 -5.12199 1.02224 0
M  V30 12735 H 1185.46 -2.86899 0.856115 0
M  V30 12736 H 1183 -1.37946 0.413138 0
M  V30 12737 H 1184.96 -4.00925 -1.29759 0
M  V30 12738 H 1183.68 -2.81791 -1.6511 0
M  V30 12739 H 1182.34 -3.65277 0.311201 0
M  V30 12740 H 1181.99 -4.63096 -1.96345 0
M  V30 12741 H 1181.69 -5.83582 -0.685978 0
M  V30 12742 H 1183.21 -5.88802 -1.61694 0
M  V30 12743 H 1184.63 -5.69644 0.646399 0
M  V30 12744 H 1183.02 -5.82901 1.4264 0
M  V30 12745 H 1184.09 -4.4812 1.85246 0
M  V30 12746 N 1185.44 -0.462799 -1.50652 0
M  V30 12747 C 1186.85 -0.00568907 -1.86699 0
M  V30 12748 C 1187.2 1.39641 -1.37822 0
M  V30 12749 O 1186.32 2.03366 -0.739679 0
M  V30 12750 C 1186.92 -0.00354783 -3.388 0
M  V30 12751 C 1185.48 0.398061 -3.74289 0
M  V30 12752 C 1184.62 -0.392574 -2.74507 0
M  V30 12753 H 1187.58 -0.677469 -1.43513 0
M  V30 12754 H 1187.6 0.800456 -3.71985 0
M  V30 12755 H 1187.11 -1.02414 -3.74344 0
M  V30 12756 H 1185.21 1.42331 -3.44344 0
M  V30 12757 H 1185.32 0.105168 -4.78985 0
M  V30 12758 H 1183.69 0.152608 -2.54242 0
M  V30 12759 H 1184.47 -1.41252 -3.12894 0
M  V30 12760 N 1186.91 1.56388 -0.195085 0
M  V30 12761 C 1188.14 2.02406 0.452399 0
M  V30 12762 C 1188.56 1.07432 1.54402 0
M  V30 12763 O 1187.92 0.0578246 1.81208 0
M  V30 12764 C 1187.97 3.46864 0.985778 0
M  V30 12765 O 1187.07 3.55007 2.09867 0
M  V30 12766 H 1186.42 0.65553 0.105719 0
M  V30 12767 H 1188.95 2.02299 -0.30596 0
M  V30 12768 H 1188.96 3.86655 1.30238 0
M  V30 12769 H 1187.63 4.15481 0.186662 0
M  V30 12770 H 1186.21 3.2709 1.79071 0
M  V30 12771 N 1188.39 -0.0785156 1.57404 0
M  V30 12772 C 1189.62 -0.792042 1.9114 0
M  V30 12773 C 1190.04 -1.71458 0.790408 0
M  V30 12774 O 1189.39 -1.80959 -0.236662 0
M  V30 12775 C 1189.44 -1.59138 3.24588 0
M  V30 12776 O 1189.16 -0.705931 4.32375 0
M  V30 12777 C 1190.67 -2.4065 3.72293 0
M  V30 12778 H 1187.89 -0.225566 0.63195 0
M  V30 12779 H 1190.43 -0.0507929 2.04437 0
M  V30 12780 H 1188.58 -2.28498 3.12838 0
M  V30 12781 H 1189 -1.26121 5.09111 0
M  V30 12782 H 1190.47 -2.92204 4.68317 0
M  V30 12783 H 1190.95 -3.1987 3.00965 0
M  V30 12784 H 1191.56 -1.7646 3.86965 0
M  V30 12785 N 1189.87 -1.5367 -0.349747 0
M  V30 12786 C 1191.1 -1.74858 -1.11532 0
M  V30 12787 C 1191.52 -0.483591 -1.81777 0
M  V30 12788 O 1190.88 0.563399 -1.72324 0
M  V30 12789 C 1190.93 -2.92479 -2.10923 0
M  V30 12790 O 1190.03 -2.62194 -3.18321 0
M  V30 12791 H 1189.37 -0.580219 -0.322865 0
M  V30 12792 H 1191.9 -2.00611 -0.402033 0
M  V30 12793 H 1191.91 -3.19093 -2.54252 0
M  V30 12794 H 1190.59 -3.84228 -1.59191 0
M  V30 12795 H 1189.16 -2.46448 -2.79853 0
M  V30 12796 N 1191.35 0.610423 -1.45298 0
M  V30 12797 C 1192.6 1.3668 -1.48872 0
M  V30 12798 C 1192.92 1.94562 -0.130686 0
M  V30 12799 O 1192.19 1.76996 0.839607 0
M  V30 12800 H 1190.77 0.507393 -0.548235 0
M  V30 12801 H 1193.43 0.716997 -1.81232 0
M  V30 12802 H 1192.53 2.18766 -2.22593 0
M  V30 12803 N 1192.83 1.32541 0.852676 0
M  V30 12804 C 1194.24 1.20863 1.42299 0
M  V30 12805 C 1194.59 -0.178051 1.9539 0
M  V30 12806 O 1193.71 -1.07689 1.87702 0
M  V30 12807 C 1194.31 2.18811 2.58664 0
M  V30 12808 C 1192.87 2.11015 3.11689 0
M  V30 12809 C 1192.01 2.07067 1.84441 0
M  V30 12810 H 1194.97 1.44341 0.659657 0
M  V30 12811 H 1194.99 1.78779 3.35884 0
M  V30 12812 H 1194.5 3.19726 2.19993 0
M  V30 12813 H 1192.6 1.13354 3.54939 0
M  V30 12814 H 1192.71 3.00929 3.72799 0
M  V30 12815 H 1191.08 1.52335 2.04123 0
M  V30 12816 H 1191.86 3.09767 1.47984 0
M  V30 12817 N 1194.3 -1.0692 1.15784 0
M  V30 12818 C 1195.72 -1.31707 0.901408 0
M  V30 12819 C 1195.92 -1.96429 -0.449203 0
M  V30 12820 O 1194.98 -2.22692 -1.19015 0
M  V30 12821 C 1196.29 -2.20391 2.04568 0
M  V30 12822 C 1197.84 -2.33827 2.08072 0
M  V30 12823 C 1198.31 -3.25862 3.21835 0
M  V30 12824 N 1199.8 -3.33444 3.21511 0
M  V30 12825 C 1200.54 -4.04731 4.06177 0
M  V30 12826 N 1200.03 -4.78596 5.00917 0
M  V30 12827 N 1201.83 -4.00717 3.94185 0
M  V30 12828 H 1193.98 -0.632989 2.02749 0
M  V30 12829 H 1196.24 -0.341587 0.88432 0
M  V30 12830 H 1195.95 -1.80102 3.02087 0
M  V30 12831 H 1195.82 -3.20943 1.9818 0
M  V30 12832 H 1198.21 -2.73367 1.11151 0
M  V30 12833 H 1198.29 -1.32964 2.18527 0
M  V30 12834 H 1197.93 -2.8704 4.19012 0
M  V30 12835 H 1197.86 -4.26689 3.08617 0
M  V30 12836 H 1200.35 -2.80798 2.52905 0
M  V30 12837 H 1200.67 -5.30499 5.61952 0
M  V30 12838 H 1199.01 -4.77598 5.04902 0
M  V30 12839 H 1202.2 -3.42126 3.1948 0
M  V30 12840 H 1202.38 -4.56008 4.60392 0
M  V30 12841 N 1195.78 -0.955326 -1.25345 0
M  V30 12842 C 1196.75 -0.480564 -2.24105 0
M  V30 12843 C 1197.75 0.416123 -1.55322 0
M  V30 12844 O 1198.94 0.213315 -1.72889 0
M  V30 12845 C 1196.07 0.305589 -3.39528 0
M  V30 12846 H 1197.26 -1.35349 -2.6762 0
M  V30 12847 H 1194.81 -0.738673 -1.37744 0
M  V30 12848 H 1195.55 1.19615 -3.01434 0
M  V30 12849 H 1195.33 -0.337719 -3.90643 0
M  V30 12850 H 1196.82 0.627201 -4.12863 0
M  V30 12851 N 1197.26 1.39987 -0.723979 0
M  V30 12852 C 1198.22 2.29041 -0.0854583 0
M  V30 12853 C 1199.22 1.45777 0.678657 0
M  V30 12854 O 1200.41 1.66588 0.509311 0
M  V30 12855 C 1197.55 3.29115 0.88859 0
M  V30 12856 H 1198.74 2.87006 -0.869903 0
M  V30 12857 H 1196.29 1.48449 -0.489136 0
M  V30 12858 H 1197.03 2.76184 1.69979 0
M  V30 12859 H 1196.81 3.90593 0.343454 0
M  V30 12860 H 1198.3 3.95778 1.33227 0
M  V30 12861 N 1198.74 0.470782 1.50404 0
M  V30 12862 C 1200.15 0.0155901 1.86693 0
M  V30 12863 C 1200.5 -1.38908 1.38561 0
M  V30 12864 O 1199.63 -2.02971 0.750454 0
M  V30 12865 C 1200.22 0.0215152 3.38793 0
M  V30 12866 C 1198.78 -0.378206 3.74495 0
M  V30 12867 C 1197.93 0.407126 2.74295 0
M  V30 12868 H 1200.88 0.68507 1.43152 0
M  V30 12869 H 1200.9 -0.780717 3.72404 0
M  V30 12870 H 1200.41 1.04397 3.73795 0
M  V30 12871 H 1198.51 -1.40503 3.45094 0
M  V30 12872 H 1198.63 -0.0797643 4.79034 0
M  V30 12873 H 1196.99 -0.139123 2.5432 0
M  V30 12874 H 1197.77 1.42909 3.12141 0
M  V30 12875 N 1200.22 -1.56282 0.203376 0
M  V30 12876 C 1201.63 -1.84146 -0.307752 0
M  V30 12877 C 1201.98 -1.12429 -1.60792 0
M  V30 12878 O 1201.1 -0.387852 -2.12896 0
M  V30 12879 C 1201.7 -3.34053 -0.565152 0
M  V30 12880 C 1200.26 -3.62298 -1.02063 0
M  V30 12881 C 1199.41 -2.77202 -0.0737343 0
M  V30 12882 H 1202.36 -1.52848 0.426983 0
M  V30 12883 H 1202.38 -3.53273 -1.41345 0
M  V30 12884 H 1201.89 -3.86222 0.381301 0
M  V30 12885 H 1199.99 -3.1557 -1.98107 0
M  V30 12886 H 1200.1 -4.70424 -0.907614 0
M  V30 12887 H 1198.47 -2.48074 -0.577169 0
M  V30 12888 H 1199.25 -3.32164 0.86731 0
M  V30 12889 N 1201.7 0.070167 -1.57444 0
M  V30 12890 C 1202.63 1.08351 -2.06839 0
M  V30 12891 C 1203.61 1.40269 -0.962224 0
M  V30 12892 O 1204.79 1.49867 -1.23505 0
M  V30 12893 C 1201.92 2.39649 -2.51368 0
M  V30 12894 C 1200.88 2.22079 -3.65875 0
M  V30 12895 C 1200.2 3.58776 -3.96464 0
M  V30 12896 C 1201.5 1.64069 -4.95862 0
M  V30 12897 H 1203.2 0.672465 -2.9175 0
M  V30 12898 H 1200.74 0.322027 -1.40353 0
M  V30 12899 H 1202.69 3.10833 -2.84537 0
M  V30 12900 H 1201.42 2.82736 -1.63487 0
M  V30 12901 H 1200.08 1.53337 -3.32992 0
M  V30 12902 H 1199.73 3.99436 -3.05712 0
M  V30 12903 H 1199.43 3.47859 -4.7357 0
M  V30 12904 H 1200.95 4.31387 -4.32131 0
M  V30 12905 H 1202.36 2.2512 -5.27251 0
M  V30 12906 H 1200.76 1.63843 -5.773 0
M  V30 12907 H 1201.83 0.60232 -4.81145 0
M  V30 12908 N 1203.17 1.53854 0.341593 0
M  V30 12909 C 1204.58 1.62623 0.917093 0
M  V30 12910 C 1204.94 0.508781 1.89488 0
M  V30 12911 O 1204.06 -0.361171 2.13365 0
M  V30 12912 C 1204.66 2.94775 1.67012 0
M  V30 12913 C 1203.21 3.058 2.19461 0
M  V30 12914 C 1202.36 2.58082 1.01433 0
M  V30 12915 H 1205.31 1.58248 0.119674 0
M  V30 12916 H 1205.33 2.83924 2.53313 0
M  V30 12917 H 1204.85 3.76085 0.958221 0
M  V30 12918 H 1202.95 2.29128 2.93821 0
M  V30 12919 H 1203.06 4.11302 2.45698 0
M  V30 12920 H 1201.42 2.13537 1.38831 0
M  V30 12921 H 1202.21 3.41833 0.317033 0
M  V30 12922 N 1204.65 -0.602709 1.4562 0
M  V30 12923 C 1205.88 -1.3881 1.53426 0
M  V30 12924 C 1206.29 -1.88046 0.16851 0
M  V30 12925 O 1205.65 -1.62493 -0.830791 0
M  V30 12926 C 1205.7 -2.58927 2.52268 0
M  V30 12927 O 1205.42 -2.11735 3.83536 0
M  V30 12928 C 1206.92 -3.51728 2.69819 0
M  V30 12929 H 1204.14 -0.424744 0.519455 0
M  V30 12930 H 1206.69 -0.73459 1.90851 0
M  V30 12931 H 1204.84 -3.20309 2.17902 0
M  V30 12932 H 1205.26 -2.89814 4.37159 0
M  V30 12933 H 1206.73 -4.32542 3.42945 0
M  V30 12934 H 1207.21 -4.02383 1.76024 0
M  V30 12935 H 1207.81 -2.96196 3.05202 0
M  V30 12936 N 1206.13 -1.32992 -0.845635 0
M  V30 12937 C 1207.06 -1.18513 -1.96182 0
M  V30 12938 C 1208.07 -0.11781 -1.62373 0
M  V30 12939 O 1209.26 -0.36761 -1.74674 0
M  V30 12940 C 1206.36 -0.793812 -3.29472 0
M  V30 12941 C 1205.54 -1.95134 -3.91461 0
M  V30 12942 C 1204.6 -1.54209 -5.03096 0
M  V30 12943 O 1203.62 -2.25545 -5.22607 0
M  V30 12944 N 1204.82 -0.443235 -5.78805 0
M  V30 12945 H 1207.59 -2.14663 -2.09141 0
M  V30 12946 H 1205.15 -1.25648 -1.02099 0
M  V30 12947 H 1207.14 -0.502263 -4.01571 0
M  V30 12948 H 1205.71 0.0768031 -3.12506 0
M  V30 12949 H 1204.93 -2.40889 -3.12035 0
M  V30 12950 H 1206.22 -2.72604 -4.2961 0
M  V30 12951 H 1205.62 0.150298 -5.655 0
M  V30 12952 H 1204.17 -0.211331 -6.51457 0
M  V30 12953 N 1207.61 1.06304 -1.1635 0
M  V30 12954 C 1208.54 2.15745 -0.893103 0
M  V30 12955 C 1209.52 1.69341 0.160531 0
M  V30 12956 O 1210.7 1.94196 0.0126526 0
M  V30 12957 C 1207.83 3.45066 -0.393287 0
M  V30 12958 C 1206.79 4.04978 -1.38482 0
M  V30 12959 C 1206.11 5.29507 -0.743409 0
M  V30 12960 C 1207.41 4.4377 -2.75438 0
M  V30 12961 H 1209.11 2.38622 -1.80831 0
M  V30 12962 H 1206.65 1.14681 -0.870878 0
M  V30 12963 H 1208.61 4.20964 -0.191607 0
M  V30 12964 H 1207.33 3.21808 0.557426 0
M  V30 12965 H 1205.99 3.31136 -1.57304 0
M  V30 12966 H 1205.64 5.02545 0.213787 0
M  V30 12967 H 1205.34 5.7055 -1.40521 0
M  V30 12968 H 1206.86 6.08102 -0.551746 0
M  V30 12969 H 1208.28 5.1075 -2.60398 0
M  V30 12970 H 1206.67 4.95797 -3.38091 0
M  V30 12971 H 1207.74 3.54636 -3.30699 0
M  V30 12972 N 1209.09 0.96196 1.24836 0
M  V30 12973 C 1210.02 0.445329 2.24832 0
M  V30 12974 C 1211.03 -0.442797 1.56663 0
M  V30 12975 O 1212.22 -0.249896 1.76742 0
M  V30 12976 C 1209.32 -0.376953 3.36797 0
M  V30 12977 C 1208.49 0.499908 4.34534 0
M  V30 12978 C 1207.55 -0.265402 5.2553 0
M  V30 12979 O 1206.58 0.338707 5.68191 0
M  V30 12980 N 1207.78 -1.55654 5.59243 0
M  V30 12981 H 1210.54 1.30505 2.69793 0
M  V30 12982 H 1208.11 0.833137 1.38818 0
M  V30 12983 H 1210.1 -0.896831 3.94638 0
M  V30 12984 H 1208.67 -1.13757 2.91167 0
M  V30 12985 H 1207.89 1.20082 3.75465 0
M  V30 12986 H 1209.18 1.09814 4.96808 0
M  V30 12987 H 1208.57 -2.06916 5.265 0
M  V30 12988 H 1207.13 -2.02223 6.19636 0
M  V30 12989 N 1210.56 -1.39601 0.731392 0
M  V30 12990 C 1211.5 -2.29147 0.0494974 0
M  V30 12991 C 1212.51 -1.46635 -0.707248 0
M  V30 12992 O 1213.7 -1.6975 -0.552008 0
M  V30 12993 C 1210.8 -3.25191 -0.954152 0
M  V30 12994 C 1209.97 -4.36629 -0.259674 0
M  V30 12995 C 1209.03 -5.13007 -1.17092 0
M  V30 12996 O 1208.06 -5.65479 -0.64976 0
M  V30 12997 N 1209.26 -5.23865 -2.50092 0
M  V30 12998 H 1212.02 -2.88308 0.818433 0
M  V30 12999 H 1209.58 -1.51142 0.580316 0
M  V30 13000 H 1211.58 -3.73161 -1.56629 0
M  V30 13001 H 1210.15 -2.67085 -1.62432 0
M  V30 13002 H 1209.37 -3.90582 0.532888 0
M  V30 13003 H 1210.65 -5.08317 0.221753 0
M  V30 13004 H 1210.05 -4.82745 -2.94913 0
M  V30 13005 H 1208.61 -5.75288 -3.0641 0
M  V30 13006 N 1212.04 -0.478751 -1.50152 0
M  V30 13007 C 1212.97 0.347829 -2.26545 0
M  V30 13008 C 1213.99 0.950354 -1.32182 0
M  V30 13009 O 1215.18 0.837462 -1.57635 0
M  V30 13010 C 1212.28 1.50255 -3.0377 0
M  V30 13011 C 1211.45 1.01142 -4.25546 0
M  V30 13012 C 1210.51 2.0411 -4.85 0
M  V30 13013 O 1209.53 1.61862 -5.45701 0
M  V30 13014 N 1210.74 3.36982 -4.72677 0
M  V30 13015 H 1213.5 -0.307113 -2.98122 0
M  V30 13016 H 1211.06 -0.309981 -1.58905 0
M  V30 13017 H 1213.05 2.18848 -3.40423 0
M  V30 13018 H 1211.62 2.06205 -2.34943 0
M  V30 13019 H 1210.84 0.151124 -3.9391 0
M  V30 13020 H 1212.13 0.661326 -5.04484 0
M  V30 13021 H 1211.53 3.74011 -4.2442 0
M  V30 13022 H 1210.09 4.0135 -5.13577 0
M  V30 13023 N 1213.52 1.56172 -0.211661 0
M  V30 13024 C 1214.45 2.17107 0.734657 0
M  V30 13025 C 1215.47 1.1374 1.16478 0
M  V30 13026 O 1216.65 1.40763 1.09764 0
M  V30 13027 C 1213.75 2.73182 2.00561 0
M  V30 13028 C 1212.93 4.0162 1.73264 0
M  V30 13029 C 1211.99 4.42357 2.84968 0
M  V30 13030 O 1211.01 5.09453 2.53863 0
M  V30 13031 N 1212.21 4.07223 4.13702 0
M  V30 13032 H 1214.98 2.98939 0.213475 0
M  V30 13033 H 1212.54 1.61872 -0.0302898 0
M  V30 13034 H 1214.53 2.97411 2.74461 0
M  V30 13035 H 1213.1 1.9571 2.43754 0
M  V30 13036 H 1212.32 3.85351 0.830575 0
M  V30 13037 H 1213.61 4.85426 1.52445 0
M  V30 13038 H 1213.01 3.53286 4.4182 0
M  V30 13039 H 1211.57 4.36366 4.84178 0
M  V30 13040 N 1215 -0.0618163 1.57479 0
M  V30 13041 C 1216.41 -0.612461 1.76368 0
M  V30 13042 C 1216.76 -1.77381 0.838466 0
M  V30 13043 O 1215.89 -2.16386 0.0250211 0
M  V30 13044 C 1216.48 -1.11782 3.19829 0
M  V30 13045 C 1215.04 -1.61424 3.40028 0
M  V30 13046 C 1214.19 -0.53795 2.72032 0
M  V30 13047 H 1217.14 0.164382 1.57846 0
M  V30 13048 H 1217.16 -1.98634 3.24538 0
M  V30 13049 H 1216.67 -0.272353 3.87143 0
M  V30 13050 H 1214.77 -2.48263 2.77842 0
M  V30 13051 H 1214.88 -1.68431 4.48517 0
M  V30 13052 H 1213.25 -0.985355 2.34868 0
M  V30 13053 H 1214.03 0.297495 3.42009 0
M  V30 13054 N 1216.48 -1.54033 -0.333429 0
M  V30 13055 C 1217.89 -1.63107 -0.908455 0
M  V30 13056 C 1218.24 -0.518823 -1.89216 0
M  V30 13057 O 1217.36 0.34985 -2.13553 0
M  V30 13058 C 1217.96 -2.95657 -1.65447 0
M  V30 13059 C 1216.52 -3.0696 -2.17836 0
M  V30 13060 C 1215.66 -2.58617 -1.00063 0
M  V30 13061 H 1218.62 -1.58309 -0.11128 0
M  V30 13062 H 1218.64 -2.85263 -2.51804 0
M  V30 13063 H 1218.15 -3.76588 -0.938263 0
M  V30 13064 H 1216.25 -2.30683 -2.92602 0
M  V30 13065 H 1216.36 -4.12599 -2.43513 0
M  V30 13066 H 1214.73 -2.1427 -1.37697 0
M  V30 13067 H 1215.51 -3.41996 -0.298901 0
M  V30 13068 N 1217.95 0.594978 -1.45938 0
M  V30 13069 C 1219.37 1.17703 -1.44924 0
M  V30 13070 C 1219.72 1.9534 -0.183522 0
M  V30 13071 O 1218.84 2.04276 0.714163 0
M  V30 13072 C 1219.44 2.14119 -2.62561 0
M  V30 13073 C 1218 2.67674 -2.64627 0
M  V30 13074 C 1217.14 1.43312 -2.37397 0
M  V30 13075 H 1220.09 0.383583 -1.53995 0
M  V30 13076 H 1220.11 2.97374 -2.3738 0
M  V30 13077 H 1219.63 1.57586 -3.54667 0
M  V30 13078 H 1217.73 3.28111 -1.76562 0
M  V30 13079 H 1217.84 3.11246 -3.64229 0
M  V30 13080 H 1216.2 1.72702 -1.87206 0
M  V30 13081 H 1216.99 0.886276 -3.31663 0
M  V30 13082 N 1219.43 1.33438 0.838571 0
M  V30 13083 C 1220.84 1.22366 1.41009 0
M  V30 13084 C 1221.19 -0.157317 1.95568 0
M  V30 13085 O 1220.32 -1.05692 1.88834 0
M  V30 13086 C 1220.91 2.21542 2.56329 0
M  V30 13087 C 1219.47 2.14309 3.09433 0
M  V30 13088 C 1218.62 2.09012 1.82235 0
M  V30 13089 H 1221.57 1.45032 0.64431 0
M  V30 13090 H 1221.59 1.82332 3.33969 0
M  V30 13091 H 1221.1 3.22042 2.16589 0
M  V30 13092 H 1219.21 1.17113 3.53717 0
M  V30 13093 H 1219.32 3.04866 3.69586 0
M  V30 13094 H 1217.68 1.54492 2.02495 0
M  V30 13095 H 1218.47 3.11319 1.4469 0
M  V30 13096 N 1220.91 -1.05686 1.16912 0
M  V30 13097 C 1222.32 -1.60059 0.961153 0
M  V30 13098 C 1222.67 -1.89894 -0.493409 0
M  V30 13099 O 1221.8 -1.67692 -1.36778 0
M  V30 13100 C 1222.39 -2.90803 1.73837 0
M  V30 13101 C 1220.95 -3.41854 1.57522 0
M  V30 13102 C 1220.1 -2.15658 1.74319 0
M  V30 13103 H 1223.05 -0.885592 1.31693 0
M  V30 13104 H 1223.07 -3.60485 1.21781 0
M  V30 13105 H 1222.58 -2.69056 2.79697 0
M  V30 13106 H 1220.68 -3.68647 0.541284 0
M  V30 13107 H 1220.8 -4.16771 2.36302 0
M  V30 13108 H 1219.16 -2.26177 1.17115 0
M  V30 13109 H 1219.94 -1.96386 2.8158 0
M  V30 13110 N 1222.39 -0.968567 -1.24324 0
M  V30 13111 C 1223.8 -0.66964 -1.74278 0
M  V30 13112 C 1224.15 0.81461 -1.7849 0
M  V30 13113 O 1223.28 1.63736 -1.4149 0
M  V30 13114 C 1223.87 -1.20885 -3.165 0
M  V30 13115 C 1222.43 -0.959808 -3.63957 0
M  V30 13116 C 1221.58 -1.34365 -2.42573 0
M  V30 13117 H 1224.53 -1.14379 -1.10015 0
M  V30 13118 H 1224.55 -0.57555 -3.76122 0
M  V30 13119 H 1224.06 -2.28912 -3.13402 0
M  V30 13120 H 1222.16 0.104894 -3.72452 0
M  V30 13121 H 1222.27 -1.60606 -4.51378 0
M  V30 13122 H 1220.64 -0.762039 -2.43033 0
M  V30 13123 H 1221.42 -2.43343 -2.42155 0
M  V30 13124 N 1223.87 1.39211 -0.738786 0
M  V30 13125 C 1225.28 1.83237 -0.357916 0
M  V30 13126 C 1225.63 1.61698 1.11123 0
M  V30 13127 O 1224.75 1.11017 1.85753 0
M  V30 13128 C 1225.35 3.32645 -0.64285 0
M  V30 13129 C 1223.91 3.75076 -0.315432 0
M  V30 13130 C 1223.05 2.62166 -0.903556 0
M  V30 13131 H 1226.01 1.2815 -0.936127 0
M  V30 13132 H 1226.03 3.80407 0.0840812 0
M  V30 13133 H 1225.54 3.4829 -1.71218 0
M  V30 13134 H 1223.64 3.65017 0.747907 0
M  V30 13135 H 1223.75 4.72363 -0.800638 0
M  V30 13136 H 1222.12 2.52554 -0.329927 0
M  V30 13137 H 1222.9 2.80616 -1.97761 0
M  V30 13138 N 1225.34 0.486708 1.49896 0
M  V30 13139 C 1226.76 0.0353906 1.86666 0
M  V30 13140 C 1227.11 -1.3743 1.40026 0
M  V30 13141 O 1226.23 -2.02163 0.77194 0
M  V30 13142 C 1226.83 0.0574475 3.38751 0
M  V30 13143 C 1225.39 -0.338464 3.74875 0
M  V30 13144 C 1224.53 0.436196 2.73848 0
M  V30 13145 H 1227.48 0.700215 1.42417 0
M  V30 13146 H 1227.5 -0.741175 3.73212 0
M  V30 13147 H 1227.02 1.08356 3.72667 0
M  V30 13148 H 1225.12 -1.36835 3.46565 0
M  V30 13149 H 1225.23 -0.0289519 4.79091 0
M  V30 13150 H 1223.59 -0.112141 2.54453 0
M  V30 13151 H 1224.38 1.46212 3.10608 0
M  V30 13152 N 1226.82 -1.56058 0.219941 0
M  V30 13153 C 1228.23 -1.84462 -0.288203 0
M  V30 13154 C 1228.59 -1.14128 -1.59591 0
M  V30 13155 O 1227.71 -0.410411 -2.12473 0
M  V30 13156 C 1228.31 -3.34634 -0.529689 0
M  V30 13157 C 1226.86 -3.63361 -0.982145 0
M  V30 13158 C 1226.01 -2.77265 -0.0443292 0
M  V30 13159 H 1228.96 -1.52387 0.44317 0
M  V30 13160 H 1228.98 -3.54752 -1.3759 0
M  V30 13161 H 1228.5 -3.85796 0.422243 0
M  V30 13162 H 1226.6 -3.17653 -1.94749 0
M  V30 13163 H 1226.71 -4.71361 -0.857668 0
M  V30 13164 H 1225.07 -2.48672 -0.550825 0
M  V30 13165 H 1225.86 -3.31225 0.902491 0
M  V30 13166 N 1228.3 0.053464 -1.57509 0
M  V30 13167 C 1229.71 0.603099 -1.76691 0
M  V30 13168 C 1230.06 1.76934 -0.847861 0
M  V30 13169 O 1229.19 2.16369 -0.0364962 0
M  V30 13170 C 1229.78 1.10084 -3.20417 0
M  V30 13171 C 1228.34 1.59618 -3.4088 0
M  V30 13172 C 1227.49 0.523516 -2.72313 0
M  V30 13173 H 1230.44 -0.172751 -1.57757 0
M  V30 13174 H 1230.46 1.9691 -3.25587 0
M  V30 13175 H 1229.97 0.251818 -3.87282 0
M  V30 13176 H 1228.07 2.46786 -2.79155 0
M  V30 13177 H 1228.19 1.6605 -4.49404 0
M  V30 13178 H 1226.55 0.972886 -2.35387 0
M  V30 13179 H 1227.33 -0.315629 -3.41846 0
M  V30 13180 N 1229.78 1.54207 0.325255 0
M  V30 13181 C 1231.2 1.44879 0.669492 0
M  V30 13182 C 1231.4 0.620298 1.91715 0
M  V30 13183 O 1230.45 0.118435 2.52222 0
M  V30 13184 C 1231.76 2.88581 0.845077 0
M  V30 13185 C 1233.31 2.98472 0.942527 0
M  V30 13186 C 1233.79 4.4332 1.15029 0
M  V30 13187 N 1235.28 4.46925 1.21707 0
M  V30 13188 C 1236.01 5.56155 1.39568 0
M  V30 13189 N 1235.51 6.75357 1.54483 0
M  V30 13190 N 1237.3 5.43799 1.42263 0
M  V30 13191 H 1229.45 2.06556 -0.494819 0
M  V30 13192 H 1231.72 0.934474 -0.159568 0
M  V30 13193 H 1231.42 3.517 -0.000442996 0
M  V30 13194 H 1231.3 3.34596 1.74141 0
M  V30 13195 H 1233.68 2.35481 1.77855 0
M  V30 13196 H 1233.76 2.5579 0.0226995 0
M  V30 13197 H 1233.41 5.06896 0.319127 0
M  V30 13198 H 1233.34 4.8361 2.08397 0
M  V30 13199 H 1235.83 3.61036 1.11632 0
M  V30 13200 H 1236.14 7.54363 1.67799 0
M  V30 13201 H 1234.49 6.78268 1.51584 0
M  V30 13202 H 1237.68 4.49627 1.30205 0
M  V30 13203 H 1237.85 6.28982 1.5584 0
M  V30 13204 N 1231.26 -0.58723 1.46251 0
M  V30 13205 C 1232.19 -1.71103 1.52501 0
M  V30 13206 C 1233.2 -1.57454 0.413772 0
M  V30 13207 O 1234.39 -1.64962 0.681902 0
M  V30 13208 C 1231.49 -3.0931 1.38493 0
M  V30 13209 C 1230.66 -3.49005 2.63655 0
M  V30 13210 C 1229.72 -4.66255 2.43911 0
M  V30 13211 O 1228.75 -4.72344 3.17616 0
M  V30 13212 N 1229.95 -5.60843 1.49784 0
M  V30 13213 H 1232.72 -1.66198 2.49396 0
M  V30 13214 H 1230.28 -0.773087 1.4225 0
M  V30 13215 H 1232.27 -3.85535 1.23064 0
M  V30 13216 H 1230.84 -3.08608 0.497963 0
M  V30 13217 H 1230.06 -2.62533 2.94058 0
M  V30 13218 H 1231.35 -3.72291 3.4681 0
M  V30 13219 H 1230.75 -5.58656 0.889972 0
M  V30 13220 H 1229.3 -6.36517 1.4032 0
M  V30 13221 N 1232.74 -1.33881 -0.831482 0
M  V30 13222 C 1234.15 -1.23112 -1.40358 0
M  V30 13223 C 1234.5 0.146944 -1.95649 0
M  V30 13224 O 1233.62 1.04689 -1.89391 0
M  V30 13225 C 1234.22 -2.22899 -2.5515 0
M  V30 13226 C 1232.78 -2.15946 -3.08292 0
M  V30 13227 C 1231.92 -2.09975 -1.81124 0
M  V30 13228 H 1234.87 -1.45372 -0.63661 0
M  V30 13229 H 1234.9 -1.841 -3.32997 0
M  V30 13230 H 1234.41 -3.23186 -2.14878 0
M  V30 13231 H 1232.51 -1.18987 -3.53091 0
M  V30 13232 H 1232.62 -3.06822 -3.67964 0
M  V30 13233 H 1230.99 -1.55564 -2.01673 0
M  V30 13234 H 1231.77 -3.12082 -1.43037 0
M  V30 13235 N 1234.21 1.05064 -1.1747 0
M  V30 13236 C 1235.46 1.77737 -0.961979 0
M  V30 13237 C 1235.78 1.88198 0.510551 0
M  V30 13238 O 1235.05 1.39968 1.37062 0
M  V30 13239 H 1233.63 0.658366 -0.352935 0
M  V30 13240 H 1236.29 1.26851 -1.47969 0
M  V30 13241 H 1235.39 2.79368 -1.39141 0
M  V30 13242 N 1235.69 0.975146 1.23809 0
M  V30 13243 C 1236.65 0.516157 2.23312 0
M  V30 13244 C 1237.65 -0.39136 1.55965 0
M  V30 13245 O 1238.84 -0.185783 1.73206 0
M  V30 13246 C 1235.98 -0.251534 3.39971 0
M  V30 13247 H 1237.17 1.3959 2.65433 0
M  V30 13248 H 1234.72 0.760493 1.36551 0
M  V30 13249 H 1235.46 -1.14805 3.03299 0
M  V30 13250 H 1235.24 0.399825 3.90056 0
M  V30 13251 H 1236.73 -0.561438 4.13809 0
M  V30 13252 N 1237.17 -1.38817 0.746158 0
M  V30 13253 C 1238.13 -2.28876 0.121886 0
M  V30 13254 C 1239.13 -1.46838 -0.655379 0
M  V30 13255 O 1240.32 -1.67377 -0.482744 0
M  V30 13256 C 1237.45 -3.30487 -0.836118 0
M  V30 13257 H 1238.65 -2.85586 0.915453 0
M  V30 13258 H 1236.2 -1.47652 0.512691 0
M  V30 13259 H 1236.94 -2.78853 -1.65563 0
M  V30 13260 H 1236.72 -3.9109 -0.281271 0
M  V30 13261 H 1238.21 -3.97848 -1.26914 0
M  V30 13262 N 1238.65 -0.49465 -1.49636 0
M  V30 13263 C 1240.06 -0.0452894 -1.86645 0
M  V30 13264 C 1240.41 1.36686 -1.40753 0
M  V30 13265 O 1239.53 2.01751 -0.78265 0
M  V30 13266 C 1240.13 -0.0754115 -3.38716 0
M  V30 13267 C 1238.69 0.318579 -3.75049 0
M  V30 13268 C 1237.84 -0.450712 -2.73613 0
M  V30 13269 H 1240.79 -0.707758 -1.42044 0
M  V30 13270 H 1240.81 0.721372 -3.73599 0
M  V30 13271 H 1240.32 -1.10331 -3.72087 0
M  V30 13272 H 1238.42 1.34995 -3.47285 0
M  V30 13273 H 1238.53 0.00354416 -4.791 0
M  V30 13274 H 1236.9 0.0986455 -2.54509 0
M  V30 13275 H 1237.68 -1.47857 -3.09828 0
M  V30 13276 N 1240.13 1.55939 -0.228214 0
M  V30 13277 C 1241.09 2.1932 0.665681 0
M  V30 13278 C 1242.09 1.15699 1.11671 0
M  V30 13279 O 1243.28 1.40893 1.02444 0
M  V30 13280 C 1240.41 2.82185 1.9127 0
M  V30 13281 H 1241.6 2.99687 0.112986 0
M  V30 13282 H 1239.16 1.56285 0.0213865 0
M  V30 13283 H 1239.89 2.05706 2.5071 0
M  V30 13284 H 1239.68 3.58073 1.5977 0
M  V30 13285 H 1241.17 3.30748 2.54942 0
M  V30 13286 N 1241.6 -0.0451101 1.57535 0
M  V30 13287 C 1243.02 -0.59372 1.77008 0
M  V30 13288 C 1243.37 -1.76482 0.857233 0
M  V30 13289 O 1242.49 -2.16347 0.0479703 0
M  V30 13290 C 1243.09 -1.08383 3.20996 0
M  V30 13291 C 1241.65 -1.57808 3.41721 0
M  V30 13292 C 1240.79 -0.509067 2.72587 0
M  V30 13293 H 1243.74 0.181114 1.57663 0
M  V30 13294 H 1243.76 -1.95181 3.26626 0
M  V30 13295 H 1243.28 -0.231276 3.8741 0
M  V30 13296 H 1241.38 -2.45302 2.8046 0
M  V30 13297 H 1241.49 -1.63664 4.50279 0
M  V30 13298 H 1239.85 -0.960389 2.359 0
M  V30 13299 H 1240.64 0.333753 3.41674 0
M  V30 13300 N 1243.08 -1.54377 -0.317073 0
M  V30 13301 C 1244.01 -1.8721 -1.39552 0
M  V30 13302 C 1244.99 -0.729483 -1.53664 0
M  V30 13303 O 1246.18 -0.983799 -1.67437 0
M  V30 13304 C 1243.31 -2.1052 -2.76222 0
M  V30 13305 C 1242.26 -3.26366 -2.76892 0
M  V30 13306 C 1241.59 -3.35061 -4.16699 0
M  V30 13307 C 1242.89 -4.63862 -2.40061 0
M  V30 13308 H 1244.58 -2.77532 -1.12323 0
M  V30 13309 H 1242.13 -1.33536 -0.538897 0
M  V30 13310 H 1244.08 -2.32073 -3.51739 0
M  V30 13311 H 1242.81 -1.16953 -3.04942 0
M  V30 13312 H 1241.46 -3.0471 -2.03831 0
M  V30 13313 H 1241.11 -2.39041 -4.4257 0
M  V30 13314 H 1240.81 -4.12923 -4.18053 0
M  V30 13315 H 1242.34 -3.58856 -4.94019 0
M  V30 13316 H 1243.75 -4.85252 -3.05292 0
M  V30 13317 H 1242.15 -5.44321 -2.52655 0
M  V30 13318 H 1243.22 -4.6567 -1.35202 0
M  V30 13319 N 1244.56 0.579466 -1.4656 0
M  V30 13320 C 1245.49 1.70291 -1.53406 0
M  V30 13321 C 1246.51 1.57232 -0.422116 0
M  V30 13322 O 1247.69 1.64598 -0.69064 0
M  V30 13323 C 1244.79 3.08572 -1.40131 0
M  V30 13324 C 1243.97 3.47602 -2.65502 0
M  V30 13325 C 1243.03 4.64955 -2.4638 0
M  V30 13326 O 1242.05 4.70653 -3.20116 0
M  V30 13327 N 1243.25 5.60041 -1.52756 0
M  V30 13328 H 1246.02 1.64873 -2.50274 0
M  V30 13329 H 1243.58 0.765533 -1.42658 0
M  V30 13330 H 1245.57 3.84877 -1.25106 0
M  V30 13331 H 1244.14 3.0834 -0.514322 0
M  V30 13332 H 1243.36 2.60969 -2.95446 0
M  V30 13333 H 1244.65 3.70446 -3.48779 0
M  V30 13334 H 1244.05 5.58176 -0.919587 0
M  V30 13335 H 1242.61 6.35764 -1.43693 0
M  V30 13336 N 1246.04 1.3432 0.824371 0
M  V30 13337 C 1247.29 1.26595 1.5805 0
M  V30 13338 C 1247.61 -0.164471 1.93803 0
M  V30 13339 O 1246.87 -1.12537 1.60106 0
M  V30 13340 C 1247.17 2.1008 2.89139 0
M  V30 13341 C 1246.83 3.59102 2.72684 0
M  V30 13342 C 1245.5 3.99726 2.67904 0
M  V30 13343 C 1247.85 4.53736 2.56463 0
M  V30 13344 C 1245.18 5.33178 2.44822 0
M  V30 13345 C 1247.53 5.87366 2.34913 0
M  V30 13346 C 1246.19 6.27155 2.28544 0
M  V30 13347 H 1245.46 0.463245 0.578347 0
M  V30 13348 H 1248.11 1.66048 0.953948 0
M  V30 13349 H 1246.41 1.6345 3.56078 0
M  V30 13350 H 1248.11 2.01451 3.46726 0
M  V30 13351 H 1244.7 3.26855 2.77244 0
M  V30 13352 H 1248.88 4.23248 2.5918 0
M  V30 13353 H 1244.14 5.63028 2.38348 0
M  V30 13354 H 1248.31 6.60286 2.21349 0
M  V30 13355 H 1245.94 7.30498 2.1042 0
M  V30 13356 N 1247.52 -1.0444 1.18026 0
M  V30 13357 C 1248.74 -1.81772 0.998684 0
M  V30 13358 C 1249.17 -1.82682 -0.448225 0
M  V30 13359 O 1248.52 -1.24136 -1.32136 0
M  V30 13360 C 1248.57 -3.2542 1.55352 0
M  V30 13361 O 1247.68 -4.05103 0.772351 0
M  V30 13362 H 1247.02 -0.561731 0.354054 0
M  V30 13363 H 1249.55 -1.31557 1.56697 0
M  V30 13364 H 1249.56 -3.76206 1.57903 0
M  V30 13365 H 1248.23 -3.24073 2.60672 0
M  V30 13366 H 1246.81 -3.63798 0.818852 0
M  V30 13367 N 1248.99 -0.981699 -1.2329 0
M  V30 13368 C 1250.22 -0.668399 -1.95489 0
M  V30 13369 C 1250.63 0.768976 -1.72868 0
M  V30 13370 O 1249.98 1.52925 -1.01783 0
M  V30 13371 C 1250.04 -0.880535 -3.4855 0
M  V30 13372 C 1249.7 -2.30023 -3.9489 0
M  V30 13373 C 1250.7 -3.27899 -4.03458 0
M  V30 13374 C 1248.38 -2.63167 -4.27842 0
M  V30 13375 C 1250.38 -4.56999 -4.44332 0
M  V30 13376 C 1248.06 -3.92489 -4.68397 0
M  V30 13377 C 1249.06 -4.89216 -4.76609 0
M  V30 13378 O 1248.75 -6.16229 -5.16253 0
M  V30 13379 H 1248.48 -0.247255 -0.629159 0
M  V30 13380 H 1251.04 -1.31606 -1.57699 0
M  V30 13381 H 1249.27 -0.175698 -3.86301 0
M  V30 13382 H 1250.96 -0.564198 -4.0196 0
M  V30 13383 H 1251.72 -3.03624 -3.78203 0
M  V30 13384 H 1247.6 -1.88588 -4.20661 0
M  V30 13385 H 1251.14 -5.32498 -4.50656 0
M  V30 13386 H 1247.04 -4.16558 -4.93102 0
M  V30 13387 H 1247.81 -6.20001 -5.34361 0
M  V30 13388 N 1250.47 1.3842 -0.753509 0
M  V30 13389 C 1251.4 2.29039 -0.0859463 0
M  V30 13390 C 1252.42 1.47742 0.68383 0
M  V30 13391 O 1253.61 1.70607 0.524933 0
M  V30 13392 C 1250.71 3.26668 0.902296 0
M  V30 13393 C 1249.88 4.36986 0.190178 0
M  V30 13394 C 1248.94 5.14805 1.08916 0
M  V30 13395 O 1247.96 5.66441 0.559715 0
M  V30 13396 N 1249.17 5.27777 2.41726 0
M  V30 13397 H 1251.93 2.8697 -0.864196 0
M  V30 13398 H 1249.49 1.502 -0.604288 0
M  V30 13399 H 1251.48 3.75606 1.50672 0
M  V30 13400 H 1250.05 2.69636 1.58163 0
M  V30 13401 H 1249.27 3.89684 -0.594959 0
M  V30 13402 H 1250.56 5.07899 -0.302594 0
M  V30 13403 H 1249.96 4.87376 2.87196 0
M  V30 13404 H 1248.52 5.8009 2.97219 0
M  V30 13405 N 1251.95 0.502579 1.49372 0
M  V30 13406 C 1253.18 -0.0381429 2.06865 0
M  V30 13407 C 1253.59 -1.30674 1.36271 0
M  V30 13408 O 1252.95 -1.77078 0.441532 0
M  V30 13409 C 1253 -0.294068 3.60302 0
M  V30 13410 O 1252.72 0.924244 4.2824 0
M  V30 13411 C 1254.22 -0.878253 4.34513 0
M  V30 13412 H 1251.44 0.0211756 0.670666 0
M  V30 13413 H 1253.99 0.700387 1.92132 0
M  V30 13414 H 1252.14 -0.982583 3.74732 0
M  V30 13415 H 1252.56 0.688062 5.19967 0
M  V30 13416 H 1254.03 -1.0069 5.42739 0
M  V30 13417 H 1254.51 -1.87643 3.97098 0
M  V30 13418 H 1255.11 -0.227157 4.24693 0
M  V30 13419 N 1253.43 -1.55816 0.23648 0
M  V30 13420 C 1254.67 -2.0059 -0.39281 0
M  V30 13421 C 1255.03 -1.12092 -1.55883 0
M  V30 13422 O 1256.23 -1.46277 -2.25514 0
M  V30 13423 C 1254.5 -3.48281 -0.80219 0
M  V30 13424 S 1256.06 -4.15069 -1.42348 0
M  V30 13425 H 1252.88 -0.700093 -0.124057 0
M  V30 13426 H 1255.48 -1.92355 0.349272 0
M  V30 13427 H 1254.19 -4.10362 0.0558941 0
M  V30 13428 H 1253.72 -3.60421 -1.57671 0
M  V30 13429 H 1255.73 -4.15493 -2.71257 0
M  V30 13430 N 1254.91 0.036755 -1.57557 0
M  V30 13431 C 1255.82 1.05687 -2.09446 0
M  V30 13432 C 1256.83 1.40137 -1.03139 0
M  V30 13433 O 1258.01 1.49611 -1.34828 0
M  V30 13434 C 1255.07 2.34114 -2.55717 0
M  V30 13435 C 1254.13 2.06316 -3.76473 0
M  V30 13436 C 1253.37 3.2862 -4.20529 0
M  V30 13437 O 1253.59 4.3902 -3.64167 0
M  V30 13438 O 1252.52 3.14772 -5.13033 0
M  V30 13439 H 1256.35 0.64593 -2.96751 0
M  V30 13440 H 1253.94 0.253235 -1.47238 0
M  V30 13441 H 1255.82 3.09631 -2.85844 0
M  V30 13442 H 1254.49 2.74519 -1.71526 0
M  V30 13443 H 1253.4 1.28392 -3.51378 0
M  V30 13444 H 1254.73 1.70772 -4.61625 0
M  V30 13445 N 1256.39 1.54543 0.308881 0
M  V30 13446 C 1257.32 1.87947 1.38557 0
M  V30 13447 C 1258.3 0.737622 1.53275 0
M  V30 13448 O 1259.48 0.992664 1.66913 0
M  V30 13449 C 1256.61 2.11982 2.75102 0
M  V30 13450 C 1255.57 3.2783 2.75158 0
M  V30 13451 C 1254.89 3.37266 4.14917 0
M  V30 13452 C 1256.19 4.65129 2.37598 0
M  V30 13453 H 1257.89 2.78123 1.1085 0
M  V30 13454 H 1255.43 1.3382 0.531808 0
M  V30 13455 H 1257.38 2.33935 3.50503 0
M  V30 13456 H 1256.11 1.18569 3.04317 0
M  V30 13457 H 1254.77 3.05787 2.02212 0
M  V30 13458 H 1254.42 2.41384 4.41296 0
M  V30 13459 H 1254.12 4.15135 4.15857 0
M  V30 13460 H 1255.64 3.61471 4.92109 0
M  V30 13461 H 1257.05 4.86865 3.02714 0
M  V30 13462 H 1255.45 5.45653 2.49765 0
M  V30 13463 H 1256.52 4.6638 1.32731 0
M  V30 13464 N 1257.86 -0.571685 1.46866 0
M  V30 13465 C 1259.27 -1.15383 1.46778 0
M  V30 13466 C 1259.63 -1.95023 0.214576 0
M  V30 13467 O 1258.75 -2.05386 -0.681574 0
M  V30 13468 C 1259.35 -2.09915 2.65935 0
M  V30 13469 C 1257.9 -2.6343 2.68852 0
M  V30 13470 C 1257.05 -1.39517 2.39646 0
M  V30 13471 H 1260 -0.359036 1.54585 0
M  V30 13472 H 1260.02 -2.9356 2.42081 0
M  V30 13473 H 1259.54 -1.51923 3.57129 0
M  V30 13474 H 1257.64 -3.2526 1.8176 0
M  V30 13475 H 1257.75 -3.05412 3.69134 0
M  V30 13476 H 1256.11 -1.69702 1.8993 0
M  V30 13477 H 1256.9 -0.833399 3.33031 0
M  V30 13478 N 1259.34 -1.34755 -0.817236 0
M  V30 13479 C 1260.57 -1.30676 -1.61054 0
M  V30 13480 C 1260.99 0.115343 -1.87746 0
M  V30 13481 O 1260.35 1.07887 -1.45705 0
M  V30 13482 C 1260.4 -2.10881 -2.92509 0
M  V30 13483 O 1259.5 -1.48223 -3.84842 0
M  V30 13484 H 1258.84 -0.448531 -0.489608 0
M  V30 13485 H 1261.37 -1.77642 -1.01512 0
M  V30 13486 H 1261.38 -2.22446 -3.42026 0
M  V30 13487 H 1260.06 -3.14274 -2.72406 0
M  V30 13488 H 1258.63 -1.45434 -3.4337 0
M  V30 13489 N 1260.82 1.03812 -1.18578 0
M  V30 13490 C 1261.78 2.10049 -0.91718 0
M  V30 13491 C 1262.78 1.60498 0.0985122 0
M  V30 13492 O 1263.97 1.73674 -0.135213 0
M  V30 13493 C 1261.1 3.38813 -0.376599 0
M  V30 13494 H 1262.3 2.3531 -1.85927 0
M  V30 13495 H 1259.85 1.20277 -0.998156 0
M  V30 13496 H 1260.59 3.19216 0.571983 0
M  V30 13497 H 1260.37 3.76096 -1.10881 0
M  V30 13498 H 1261.86 4.17084 -0.207453 0
M  V30 13499 N 1262.3 0.988223 1.22768 0
M  V30 13500 C 1263.26 0.539813 2.22752 0
M  V30 13501 C 1264.26 -0.374796 1.56371 0
M  V30 13502 O 1265.45 -0.167402 1.73394 0
M  V30 13503 C 1262.58 -0.215461 3.40218 0
M  V30 13504 H 1263.78 1.42397 2.63938 0
M  V30 13505 H 1261.33 0.774933 1.35737 0
M  V30 13506 H 1262.06 -1.11581 3.045 0
M  V30 13507 H 1261.85 0.441173 3.8961 0
M  V30 13508 H 1263.34 -0.517517 4.14381 0
M  V30 13509 N 1263.78 -1.38018 0.760839 0
M  V30 13510 C 1265 -2.04757 0.330038 0
M  V30 13511 C 1265.43 -1.57009 -1.03585 0
M  V30 13512 O 1264.78 -0.725349 -1.66158 0
M  V30 13513 C 1264.83 -3.58696 0.370082 0
M  V30 13514 O 1263.94 -4.07507 -0.633361 0
M  V30 13515 H 1263.28 -0.648023 0.144782 0
M  V30 13516 H 1265.81 -1.7655 1.03399 0
M  V30 13517 H 1265.82 -4.07387 0.223515 0
M  V30 13518 H 1264.49 -3.92806 1.36661 0
M  V30 13519 H 1263.07 -3.70165 -0.45081 0
M  V30 13520 N 1265.25 -0.510493 -1.49103 0
M  V30 13521 C 1266.66 -0.0650831 -1.86587 0
M  V30 13522 C 1267.02 1.35185 -1.42195 0
M  V30 13523 O 1266.14 2.0091 -0.804004 0
M  V30 13524 C 1266.74 -0.111333 -3.38617 0
M  V30 13525 C 1265.29 0.278782 -3.75366 0
M  V30 13526 C 1264.44 -0.479707 -2.73119 0
M  V30 13527 H 1267.39 -0.722784 -1.41285 0
M  V30 13528 H 1267.41 0.681706 -3.74343 0
M  V30 13529 H 1266.93 -1.14271 -3.70896 0
M  V30 13530 H 1265.03 1.31304 -3.48698 0
M  V30 13531 H 1265.14 -0.047271 -4.79077 0
M  V30 13532 H 1263.5 0.0716459 -2.54599 0
M  V30 13533 H 1264.29 -1.51135 -3.08242 0
M  V30 13534 N 1266.73 1.55688 -0.24474 0
M  V30 13535 C 1267.69 2.20014 0.642382 0
M  V30 13536 C 1268.69 1.16877 1.10437 0
M  V30 13537 O 1269.88 1.41972 1.00943 0
M  V30 13538 C 1267.02 2.84198 1.88267 0
M  V30 13539 H 1268.21 2.9979 0.0811937 0
M  V30 13540 H 1265.76 1.56299 0.00480917 0
M  V30 13541 H 1266.5 2.08354 2.48514 0
M  V30 13542 H 1266.28 3.59747 1.55963 0
M  V30 13543 H 1267.77 3.33434 2.5142 0
M  V30 13544 N 1268.21 -0.0283989 1.57574 0
M  V30 13545 C 1269.62 -0.574912 1.77628 0
M  V30 13546 C 1269.97 -1.75563 0.875903 0
M  V30 13547 O 1269.1 -2.16284 0.0709141 0
M  V30 13548 C 1269.69 -1.04972 3.22128 0
M  V30 13549 C 1268.25 -1.54175 3.43376 0
M  V30 13550 C 1267.4 -0.480127 2.73112 0
M  V30 13551 H 1270.35 0.197826 1.57462 0
M  V30 13552 H 1270.37 -1.91705 3.28678 0
M  V30 13553 H 1269.88 -0.190173 3.87634 0
M  V30 13554 H 1267.98 -2.42313 2.83046 0
M  V30 13555 H 1268.1 -1.58879 4.51989 0
M  V30 13556 H 1266.46 -0.935314 2.36905 0
M  V30 13557 H 1267.24 0.369973 3.41301 0
M  V30 13558 N 1269.69 -1.54705 -0.300681 0
M  V30 13559 C 1270.96 -1.6468 -1.05546 0
M  V30 13560 C 1271.34 -0.495292 -2.05207 0
M  V30 13561 O 1270.69 0.507944 -2.22783 0
M  V30 13562 C 1270.9 -3.02702 -1.73703 0
M  V30 13563 C 1272.25 -3.59527 -2.25888 0
M  V30 13564 O 1273.27 -3.05156 -1.83735 0
M  V30 13565 O 1272.13 -4.54727 -3.03126 0
M  V30 13566 H 1269.23 -0.667769 -0.487867 0
M  V30 13567 H 1271.77 -1.6705 -0.298743 0
M  V30 13568 H 1270.55 -3.7795 -1.01338 0
M  V30 13569 H 1270.17 -3.0411 -2.5613 0
M  V30 13570 N 1271.17 0.563888 -1.47167 0
M  V30 13571 C 1272.4 1.34498 -1.56825 0
M  V30 13572 C 1272.8 1.87974 -0.215011 0
M  V30 13573 O 1272.15 1.65323 0.80087 0
M  V30 13574 C 1272.21 2.55602 -2.528 0
M  V30 13575 C 1271.87 2.23459 -3.98642 0
M  V30 13576 C 1272.87 1.81155 -4.87318 0
M  V30 13577 C 1270.56 2.35024 -4.43925 0
M  V30 13578 C 1272.55 1.50835 -6.19296 0
M  V30 13579 C 1270.24 2.04317 -5.75932 0
M  V30 13580 C 1271.23 1.6229 -6.63439 0
M  V30 13581 O 1270.92 1.31969 -7.92994 0
M  V30 13582 H 1270.65 0.416551 -0.532411 0
M  V30 13583 H 1273.21 0.690611 -1.93442 0
M  V30 13584 H 1271.44 3.23907 -2.11237 0
M  V30 13585 H 1273.13 3.17677 -2.52659 0
M  V30 13586 H 1273.89 1.71719 -4.53583 0
M  V30 13587 H 1269.77 2.66696 -3.76024 0
M  V30 13588 H 1273.32 1.17958 -6.87555 0
M  V30 13589 H 1269.21 2.13383 -6.09211 0
M  V30 13590 H 1269.98 1.45656 -8.05436 0
M  V30 13591 N 1272.64 1.35187 0.810078 0
M  V30 13592 C 1274.06 1.25329 1.38381 0
M  V30 13593 C 1274.41 -0.115799 1.95858 0
M  V30 13594 O 1273.53 -1.01663 1.91033 0
M  V30 13595 C 1274.13 2.2693 2.51572 0
M  V30 13596 C 1272.69 2.20824 3.04818 0
M  V30 13597 C 1271.83 2.1283 1.7776 0
M  V30 13598 H 1274.78 1.46366 0.613402 0
M  V30 13599 H 1274.8 1.89375 3.30026 0
M  V30 13600 H 1274.32 3.26563 2.09709 0
M  V30 13601 H 1272.42 1.24589 3.51153 0
M  V30 13602 H 1272.53 3.12637 3.63036 0
M  V30 13603 H 1270.89 1.58752 1.99173 0
M  V30 13604 H 1271.68 3.14318 1.38054 0
M  V30 13605 N 1274.12 -1.03182 1.19127 0
M  V30 13606 C 1275.35 -1.80165 1.01726 0
M  V30 13607 C 1275.77 -1.83742 -0.434095 0
M  V30 13608 O 1275.12 -1.27932 -1.30152 0
M  V30 13609 C 1275.17 -3.25354 1.57566 0
M  V30 13610 O 1274.89 -3.22042 2.9702 0
M  V30 13611 C 1276.4 -4.18948 1.44906 0
M  V30 13612 H 1273.62 -0.567078 0.358698 0
M  V30 13613 H 1276.16 -1.29982 1.57877 0
M  V30 13614 H 1274.31 -3.72738 1.0557 0
M  V30 13615 H 1274.73 -4.13061 3.23235 0
M  V30 13616 H 1276.2 -5.18723 1.88762 0
M  V30 13617 H 1276.68 -4.37383 0.399125 0
M  V30 13618 H 1277.29 -3.77435 1.96018 0
M  V30 13619 N 1275.6 -0.99472 -1.22242 0
M  V30 13620 C 1277.01 -0.706456 -1.72818 0
M  V30 13621 C 1277.36 0.776566 -1.80177 0
M  V30 13622 O 1276.49 1.60698 -1.44931 0
M  V30 13623 C 1277.08 -1.27571 -3.13865 0
M  V30 13624 C 1275.64 -1.03679 -3.61839 0
M  V30 13625 C 1274.79 -1.3948 -2.39668 0
M  V30 13626 H 1277.74 -1.16687 -1.07564 0
M  V30 13627 H 1277.76 -0.655202 -3.74816 0
M  V30 13628 H 1277.27 -2.35508 -3.08476 0
M  V30 13629 H 1275.37 0.0258679 -3.72591 0
M  V30 13630 H 1275.49 -1.70145 -4.4787 0
M  V30 13631 H 1273.85 -0.813418 -2.41362 0
M  V30 13632 H 1274.63 -2.48425 -2.36939 0
M  V30 13633 N 1277.08 1.37613 -0.768148 0
M  V30 13634 C 1278.32 2.0162 -0.335961 0
M  V30 13635 C 1278.68 1.59659 1.06644 0
M  V30 13636 O 1279.88 2.16102 1.59854 0
M  V30 13637 C 1278.15 3.54285 -0.470802 0
M  V30 13638 S 1279.71 4.38627 -0.123347 0
M  V30 13639 H 1276.53 0.699113 -0.129467 0
M  V30 13640 H 1279.13 1.67871 -1.00197 0
M  V30 13641 H 1277.84 3.82313 -1.49215 0
M  V30 13642 H 1277.37 3.92829 0.211886 0
M  V30 13643 H 1279.38 4.84253 1.0823 0
M  V30 13644 N 1278.56 0.518393 1.4883 0
M  V30 13645 C 1279.49 -0.287642 2.27388 0
M  V30 13646 C 1280.5 -0.914974 1.34655 0
M  V30 13647 O 1281.69 -0.795373 1.598 0
M  V30 13648 C 1278.79 -1.42149 3.07647 0
M  V30 13649 C 1277.96 -0.898238 4.28078 0
M  V30 13650 C 1277.02 -1.91179 4.90242 0
M  V30 13651 O 1276.05 -1.47337 5.498 0
M  V30 13652 N 1277.25 -3.24331 4.81445 0
M  V30 13653 H 1280.02 0.386047 2.97203 0
M  V30 13654 H 1277.58 0.352002 1.58027 0
M  V30 13655 H 1279.57 -2.09745 3.46106 0
M  V30 13656 H 1278.14 -1.99903 2.40328 0
M  V30 13657 H 1277.36 -0.0466326 3.94172 0
M  V30 13658 H 1278.65 -0.527338 5.0606 0
M  V30 13659 H 1278.04 -3.62627 4.34187 0
M  V30 13660 H 1276.6 -3.87593 5.24037 0
M  V30 13661 N 1280.03 -1.55556 0.252993 0
M  V30 13662 C 1281.26 -2.03196 -0.37348 0
M  V30 13663 C 1281.67 -1.13145 -1.51641 0
M  V30 13664 O 1281.02 -0.139519 -1.83169 0
M  V30 13665 C 1281.08 -3.47066 -0.937308 0
M  V30 13666 C 1280.74 -4.5694 0.0741513 0
M  V30 13667 C 1281.74 -5.12297 0.885862 0
M  V30 13668 C 1279.42 -5.01894 0.202003 0
M  V30 13669 C 1281.42 -6.11107 1.81182 0
M  V30 13670 C 1279.1 -6.00534 1.13146 0
M  V30 13671 C 1280.1 -6.5502 1.93489 0
M  V30 13672 O 1279.79 -7.51735 2.84868 0
M  V30 13673 H 1279.52 -0.669687 -0.092171 0
M  V30 13674 H 1282.08 -2.01924 0.376264 0
M  V30 13675 H 1280.31 -3.45507 -1.73672 0
M  V30 13676 H 1282 -3.78171 -1.47451 0
M  V30 13677 H 1282.76 -4.78395 0.797707 0
M  V30 13678 H 1278.64 -4.59144 -0.413301 0
M  V30 13679 H 1282.18 -6.53561 2.43935 0
M  V30 13680 H 1278.08 -6.33856 1.22052 0
M  V30 13681 H 1278.85 -7.69373 2.79298 0
M  V30 13682 N 1281.51 0.0200419 -1.57587 0
M  V30 13683 C 1282.92 0.565484 -1.7793 0
M  V30 13684 C 1283.27 1.75096 -0.885201 0
M  V30 13685 O 1282.4 2.16243 -0.0823831 0
M  V30 13686 C 1282.99 1.03263 -3.2268 0
M  V30 13687 C 1281.55 1.52352 -3.44189 0
M  V30 13688 C 1280.7 0.465637 -2.73363 0
M  V30 13689 H 1283.65 -0.206174 -1.57355 0
M  V30 13690 H 1283.67 1.89959 -3.2969 0
M  V30 13691 H 1283.18 0.169613 -3.87729 0
M  V30 13692 H 1281.29 2.40809 -2.84327 0
M  V30 13693 H 1281.4 1.5648 -4.52825 0
M  V30 13694 H 1279.76 0.922738 -2.37398 0
M  V30 13695 H 1280.55 -0.388068 -3.411 0
M  V30 13696 N 1282.99 1.54862 0.292472 0
M  V30 13697 C 1284.24 1.74807 1.02813 0
M  V30 13698 C 1284.57 0.536935 1.8663 0
M  V30 13699 O 1283.84 -0.465854 1.88839 0
M  V30 13700 C 1284.13 3.04202 1.927 0
M  V30 13701 C 1283.98 4.35631 1.12006 0
M  V30 13702 C 1285.3 3.29514 2.91734 0
M  V30 13703 H 1282.42 0.636015 0.372362 0
M  V30 13704 H 1285.06 1.87583 0.302069 0
M  V30 13705 H 1283.21 2.9344 2.54608 0
M  V30 13706 H 1284.88 4.58323 0.52319 0
M  V30 13707 H 1283.13 4.31733 0.42298 0
M  V30 13708 H 1283.8 5.22454 1.78172 0
M  V30 13709 H 1286.27 3.39941 2.39957 0
M  V30 13710 H 1285.15 4.21352 3.51786 0
M  V30 13711 H 1285.41 2.48216 3.65843 0
M  V30 13712 N 1284.47 -0.556076 1.47464 0
M  V30 13713 C 1285.75 -1.31689 1.44628 0
M  V30 13714 C 1286.13 -2.10609 0.143841 0
M  V30 13715 O 1285.47 -2.11097 -0.874662 0
M  V30 13716 C 1285.68 -2.22045 2.69253 0
M  V30 13717 C 1287.03 -2.83028 3.16513 0
M  V30 13718 O 1288.06 -2.32346 2.69988 0
M  V30 13719 O 1286.91 -3.75148 3.97399 0
M  V30 13720 H 1284.01 -0.593026 0.576411 0
M  V30 13721 H 1286.55 -0.574885 1.59666 0
M  V30 13722 H 1285.33 -1.63337 3.5558 0
M  V30 13723 H 1284.95 -3.03539 2.56807 0
M  V30 13724 N 1285.95 -1.35615 -0.802897 0
M  V30 13725 C 1287.2 -1.28839 -1.55708 0
M  V30 13726 C 1287.52 0.135906 -1.94526 0
M  V30 13727 O 1286.79 1.07317 -1.6389 0
M  V30 13728 H 1285.37 -0.473906 -0.577427 0
M  V30 13729 H 1288.03 -1.69759 -0.957487 0
M  V30 13730 H 1287.12 -1.90675 -2.47082 0
M  V30 13731 N 1287.43 1.02549 -1.19673 0
M  V30 13732 C 1288.39 2.09064 -0.939407 0
M  V30 13733 C 1289.39 1.60593 0.0814837 0
M  V30 13734 O 1290.58 1.73521 -0.153626 0
M  V30 13735 C 1287.71 3.38395 -0.412513 0
M  V30 13736 H 1288.9 2.33325 -1.88413 0
M  V30 13737 H 1286.46 1.19211 -1.01086 0
M  V30 13738 H 1287.19 3.19805 0.538094 0
M  V30 13739 H 1286.98 3.74898 -1.14863 0
M  V30 13740 H 1288.47 4.16841 -0.251678 0
M  V30 13741 N 1288.9 1.00119 1.21713 0
M  V30 13742 C 1289.84 0.516633 2.23301 0
M  V30 13743 C 1290.85 -0.392732 1.57992 0
M  V30 13744 O 1292.04 -0.19354 1.77448 0
M  V30 13745 C 1289.14 -0.269612 3.37826 0
M  V30 13746 C 1288.31 0.637898 4.32723 0
M  V30 13747 C 1287.37 -0.0980745 5.26109 0
M  V30 13748 O 1286.4 0.519302 5.66826 0
M  V30 13749 N 1287.6 -1.37783 5.63911 0
M  V30 13750 H 1290.36 1.39022 2.65505 0
M  V30 13751 H 1287.92 0.87688 1.36097 0
M  V30 13752 H 1289.92 -0.770826 3.97291 0
M  V30 13753 H 1288.49 -1.04436 2.94638 0
M  V30 13754 H 1287.71 1.31966 3.71455 0
M  V30 13755 H 1288.99 1.25564 4.93063 0
M  V30 13756 H 1288.39 -1.90061 5.32817 0
M  V30 13757 H 1286.95 -1.82407 6.25756 0
M  V30 13758 N 1290.38 -1.37203 0.775435 0
M  V30 13759 C 1291.31 -2.28873 0.122374 0
M  V30 13760 C 1292.33 -1.48811 -0.660239 0
M  V30 13761 O 1293.52 -1.7142 -0.497724 0
M  V30 13762 C 1290.62 -3.28062 -0.850212 0
M  V30 13763 C 1289.79 -4.37234 -0.120633 0
M  V30 13764 C 1288.85 -5.16472 -1.00712 0
M  V30 13765 O 1287.87 -5.6726 -0.469528 0
M  V30 13766 N 1289.08 -5.31556 -2.33299 0
M  V30 13767 H 1291.84 -2.85559 0.909741 0
M  V30 13768 H 1289.4 -1.49219 0.628107 0
M  V30 13769 H 1291.39 -3.77956 -1.44678 0
M  V30 13770 H 1289.96 -2.72118 -1.53853 0
M  V30 13771 H 1289.18 -3.88688 0.656879 0
M  V30 13772 H 1290.47 -5.07354 0.383358 0
M  V30 13773 H 1289.87 -4.91883 -2.79406 0
M  V30 13774 H 1288.43 -5.84745 -2.87953 0
M  V30 13775 N 1291.86 -0.526279 -1.48553 0
M  V30 13776 C 1293.08 0.00731432 -2.07399 0
M  V30 13777 C 1293.51 1.27737 -1.38075 0
M  V30 13778 O 1292.87 1.75741 -0.445503 0
M  V30 13779 C 1292.92 0.218126 -3.5994 0
M  V30 13780 O 1292.02 1.28759 -3.91784 0
M  V30 13781 H 1291.36 -0.0374784 -0.662941 0
M  V30 13782 H 1293.89 -0.733133 -1.91014 0
M  V30 13783 H 1293.9 0.44192 -4.056 0
M  V30 13784 H 1292.58 -0.709668 -4.09801 0
M  V30 13785 H 1291.15 1.04674 -3.57907 0
M  V30 13786 N 1293.34 1.5542 -0.261239 0
M  V30 13787 C 1294.61 1.91243 0.41056 0
M  V30 13788 C 1294.99 1.1838 1.74784 0
M  V30 13789 O 1294.34 0.306013 2.26442 0
M  V30 13790 C 1294.55 3.44404 0.56453 0
M  V30 13791 C 1295.9 4.15927 0.853827 0
M  V30 13792 O 1296.92 3.50222 0.649861 0
M  V30 13793 O 1295.78 5.32175 1.24308 0
M  V30 13794 H 1292.88 0.796491 0.222555 0
M  V30 13795 H 1295.42 1.66912 -0.306367 0
M  V30 13796 H 1294.2 3.89478 -0.377134 0
M  V30 13797 H 1293.82 3.74644 1.33145 0
M  V30 13798 N 1294.82 -0.0116844 1.57596 0
M  V30 13799 C 1295.75 -1.00599 2.10718 0
M  V30 13800 C 1296.73 -1.36601 1.01362 0
M  V30 13801 O 1297.91 -1.4518 1.28982 0
M  V30 13802 C 1295.04 -2.30155 2.60089 0
M  V30 13803 C 1294 -2.08347 3.73866 0
M  V30 13804 C 1293.32 -3.43814 4.09507 0
M  V30 13805 C 1294.62 -1.45552 5.01609 0
M  V30 13806 H 1296.32 -0.563721 2.94045 0
M  V30 13807 H 1293.86 -0.269714 1.41452 0
M  V30 13808 H 1295.81 -3.00058 2.95877 0
M  V30 13809 H 1294.54 -2.76473 1.73868 0
M  V30 13810 H 1293.2 -1.40872 3.38453 0
M  V30 13811 H 1292.85 -3.87814 3.20326 0
M  V30 13812 H 1292.55 -3.30043 4.86154 0
M  V30 13813 H 1294.07 -4.15052 4.47844 0
M  V30 13814 H 1295.48 -2.05396 5.35243 0
M  V30 13815 H 1293.88 -1.42304 5.82983 0
M  V30 13816 H 1294.95 -0.423331 4.83049 0
M  V30 13817 N 1296.29 -1.55015 -0.284256 0
M  V30 13818 C 1297.52 -1.79102 -1.03586 0
M  V30 13819 C 1297.94 -0.558733 -1.80343 0
M  V30 13820 O 1297.29 0.471925 -1.76293 0
M  V30 13821 C 1297.34 -3.00915 -2.0033 0
M  V30 13822 O 1297.07 -4.19384 -1.26685 0
M  V30 13823 C 1298.57 -3.3752 -2.87394 0
M  V30 13824 H 1295.79 -0.596912 -0.306491 0
M  V30 13825 H 1298.33 -2.02005 -0.31845 0
M  V30 13826 H 1296.49 -2.80171 -2.67549 0
M  V30 13827 H 1296.9 -4.88175 -1.91796 0
M  V30 13828 H 1298.37 -4.25953 -3.51095 0
M  V30 13829 H 1298.85 -2.56418 -3.56576 0
M  V30 13830 H 1299.46 -3.60483 -2.25682 0
M  V30 13831 N 1297.77 0.548248 -1.47757 0
M  V30 13832 C 1299.02 1.30243 -1.54535 0
M  V30 13833 C 1299.34 1.93832 -0.213089 0
M  V30 13834 O 1298.61 1.80397 0.763782 0
M  V30 13835 H 1297.19 0.483684 -0.569262 0
M  V30 13836 H 1299.85 0.639485 -1.8411 0
M  V30 13837 H 1298.95 2.09128 -2.31672 0
M  V30 13838 N 1299.25 1.36039 0.795694 0
M  V30 13839 C 1300.66 1.2679 1.37044 0
M  V30 13840 C 1301.01 -0.0950192 1.9597 0
M  V30 13841 O 1300.14 -0.996311 1.921 0
M  V30 13842 C 1300.73 2.29585 2.49151 0
M  V30 13843 C 1299.29 2.24044 3.02458 0
M  V30 13844 C 1298.44 2.14703 1.75493 0
M  V30 13845 H 1301.39 1.47009 0.597843 0
M  V30 13846 H 1301.41 1.92864 3.27999 0
M  V30 13847 H 1300.92 3.28769 2.06234 0
M  V30 13848 H 1299.02 1.28307 3.49812 0
M  V30 13849 H 1299.14 3.1647 3.597 0
M  V30 13850 H 1297.5 1.60856 1.97478 0
M  V30 13851 H 1298.28 3.15765 1.34713 0
M  V30 13852 N 1300.73 -1.01913 1.20215 0
M  V30 13853 C 1302.01 -1.7262 0.919867 0
M  V30 13854 C 1302.39 -2.03203 -0.572001 0
M  V30 13855 O 1301.73 -1.69448 -1.53296 0
M  V30 13856 C 1301.94 -2.9959 1.79016 0
M  V30 13857 C 1303.29 -3.72905 2.03045 0
M  V30 13858 O 1304.32 -3.0954 1.76249 0
M  V30 13859 O 1303.17 -4.86844 2.48285 0
M  V30 13860 H 1300.27 -0.752194 0.343705 0
M  V30 13861 H 1302.81 -1.07783 1.31076 0
M  V30 13862 H 1301.59 -2.73292 2.80048 0
M  V30 13863 H 1301.21 -3.72168 1.39918 0
M  V30 13864 N 1302.21 -1.00763 -1.2118 0
M  V30 13865 C 1303.45 -0.700238 -1.92031 0
M  V30 13866 C 1303.81 0.755344 -1.76518 0
M  V30 13867 O 1305.01 1.17484 -2.41766 0
M  V30 13868 C 1303.28 -1.11294 -3.3963 0
M  V30 13869 S 1304.84 -0.926151 -4.28915 0
M  V30 13870 H 1301.66 -0.255559 -0.663484 0
M  V30 13871 H 1304.26 -1.29301 -1.46634 0
M  V30 13872 H 1302.97 -2.16838 -3.48439 0
M  V30 13873 H 1302.5 -0.51257 -3.90047 0
M  V30 13874 H 1304.51 0.175301 -4.9589 0
M  V30 13875 N 1303.68 1.3679 -0.7827 0
M  V30 13876 C 1305.1 1.82006 -0.41603 0
M  V30 13877 C 1305.45 1.65151 1.05922 0
M  V30 13878 O 1304.57 1.1687 1.82127 0
M  V30 13879 C 1305.17 3.30432 -0.748353 0
M  V30 13880 C 1303.73 3.73883 -0.4346 0
M  V30 13881 C 1302.87 2.59159 -0.986505 0
M  V30 13882 H 1305.82 1.25107 -0.976423 0
M  V30 13883 H 1305.84 3.80482 -0.036985 0
M  V30 13884 H 1305.36 3.42667 -1.82212 0
M  V30 13885 H 1303.46 3.67211 0.631401 0
M  V30 13886 H 1303.57 4.69577 -0.950511 0
M  V30 13887 H 1301.93 2.51377 -0.410108 0
M  V30 13888 H 1302.72 2.74182 -2.06589 0
M  V30 13889 N 1305.16 0.53415 1.48272 0
M  V30 13890 C 1306.58 0.192291 1.58437 0
M  V30 13891 C 1306.78 -1.3046 1.53566 0
M  V30 13892 O 1305.83 -2.08316 1.42692 0
M  V30 13893 C 1307.15 0.798515 2.89904 0
M  V30 13894 C 1308.7 0.76763 3.03441 0
M  V30 13895 C 1309.17 1.3525 4.37574 0
M  V30 13896 N 1310.66 1.31466 4.44152 0
M  V30 13897 C 1311.4 1.73706 5.46456 0
M  V30 13898 N 1310.89 2.23695 6.55692 0
M  V30 13899 N 1312.69 1.64918 5.37363 0
M  V30 13900 H 1304.84 1.50696 1.49681 0
M  V30 13901 H 1307.1 0.627073 0.710973 0
M  V30 13902 H 1306.81 1.8496 2.99136 0
M  V30 13903 H 1306.68 0.278033 3.76174 0
M  V30 13904 H 1309.07 -0.274704 2.93819 0
M  V30 13905 H 1309.15 1.32562 2.18771 0
M  V30 13906 H 1308.79 2.39379 4.47951 0
M  V30 13907 H 1308.72 0.770153 5.20938 0
M  V30 13908 H 1311.21 0.948761 3.65796 0
M  V30 13909 H 1311.53 2.5391 7.29897 0
M  V30 13910 H 1309.87 2.27691 6.56644 0
M  V30 13911 H 1313.06 1.25658 4.50919 0
M  V30 13912 H 1313.23 1.98157 6.16958 0
M  V30 13913 N 1306.64 -1.55279 0.269478 0
M  V30 13914 C 1307.87 -2.04334 -0.355313 0
M  V30 13915 C 1308.29 -1.14677 -1.491 0
M  V30 13916 O 1307.65 -0.144215 -1.80726 0
M  V30 13917 C 1307.7 -3.51172 -0.819162 0
M  V30 13918 O 1306.8 -3.64615 -1.9269 0
M  V30 13919 H 1306.14 -0.659827 -0.0743229 0
M  V30 13920 H 1308.67 -2.00609 0.402131 0
M  V30 13921 H 1308.68 -3.92428 -1.11642 0
M  V30 13922 H 1307.36 -4.15898 0.0117821 0
M  V30 13923 H 1305.93 -3.35261 -1.63261 0
M  V30 13924 N 1308.12 0.00332656 -1.576 0
M  V30 13925 C 1309.53 0.546581 -1.7852 0
M  V30 13926 C 1309.88 1.74147 -0.903722 0
M  V30 13927 O 1309.01 2.16144 -0.105314 0
M  V30 13928 C 1309.6 0.998344 -3.23757 0
M  V30 13929 C 1308.16 1.48693 -3.45785 0
M  V30 13930 C 1307.31 0.436617 -2.73841 0
M  V30 13931 H 1310.26 -0.222852 -1.57128 0
M  V30 13932 H 1310.28 1.86452 -3.31686 0
M  V30 13933 H 1309.79 0.128479 -3.87887 0
M  V30 13934 H 1307.89 2.3778 -2.86865 0
M  V30 13935 H 1308 1.51668 -4.5446 0
M  V30 13936 H 1306.37 0.897506 -2.38363 0
M  V30 13937 H 1307.15 -0.424225 -3.40669 0
M  V30 13938 N 1309.6 1.55164 0.276031 0
M  V30 13939 C 1310.84 1.7528 1.00604 0
M  V30 13940 C 1311.17 0.555256 1.86928 0
M  V30 13941 O 1310.44 -0.429917 1.91124 0
M  V30 13942 H 1309.02 0.646377 0.374441 0
M  V30 13943 H 1311.68 1.92562 0.300992 0
M  V30 13944 H 1310.77 2.65245 1.64473 0
M  V30 13945 N 1311.07 -0.540404 1.48045 0
M  V30 13946 C 1312 -1.65538 1.6468 0
M  V30 13947 C 1312.99 -1.62713 0.495847 0
M  V30 13948 O 1314.17 -1.80072 0.727172 0
M  V30 13949 C 1311.3 -3.0415 1.67661 0
M  V30 13950 C 1310.25 -3.2183 2.82152 0
M  V30 13951 C 1309.58 -4.61397 2.70216 0
M  V30 13952 C 1310.88 -3.05596 4.23567 0
M  V30 13953 H 1312.57 -1.51873 2.58021 0
M  V30 13954 H 1310.12 -0.729208 1.24171 0
M  V30 13955 H 1312.07 -3.82013 1.77887 0
M  V30 13956 H 1310.8 -3.18814 0.708907 0
M  V30 13957 H 1309.46 -2.4638 2.71463 0
M  V30 13958 H 1309.1 -4.72883 1.71437 0
M  V30 13959 H 1308.8 -4.74174 3.47035 0
M  V30 13960 H 1310.33 -5.41374 2.82395 0
M  V30 13961 H 1311.74 -3.73261 4.35143 0
M  V30 13962 H 1310.14 -3.29871 5.01303 0
M  V30 13963 H 1311.21 -2.0214 4.40758 0
M  V30 13964 N 1312.55 -1.36459 -0.788468 0
M  V30 13965 C 1313.48 -1.26727 -1.90979 0
M  V30 13966 C 1314.5 -0.186572 -1.61727 0
M  V30 13967 O 1315.69 -0.441364 -1.72957 0
M  V30 13968 C 1312.79 -0.932838 -3.25809 0
M  V30 13969 C 1311.96 -2.11562 -3.82832 0
M  V30 13970 C 1311.02 -1.75409 -4.96103 0
M  V30 13971 O 1310.04 -2.47508 -5.1257 0
M  V30 13972 N 1311.25 -0.688327 -5.76405 0
M  V30 13973 H 1314.01 -2.2334 -1.99848 0
M  V30 13974 H 1311.57 -1.29865 -0.966784 0
M  V30 13975 H 1313.56 -0.672131 -3.9908 0
M  V30 13976 H 1312.13 -0.0558103 -3.1255 0
M  V30 13977 H 1311.35 -2.53907 -3.01538 0
M  V30 13978 H 1312.64 -2.9058 -4.17661 0
M  V30 13979 H 1312.04 -0.0896854 -5.65629 0
M  V30 13980 H 1310.6 -0.487446 -6.49975 0
M  V30 13981 N 1314.03 1.01274 -1.20754 0
M  V30 13982 C 1314.94 2.1335 -0.975656 0
M  V30 13983 C 1315.96 1.7386 0.0697364 0
M  V30 13984 O 1317.13 2.01051 -0.118578 0
M  V30 13985 C 1314.2 3.42548 -0.534931 0
M  V30 13986 C 1313.26 3.96257 -1.65163 0
M  V30 13987 C 1312.49 5.19289 -1.23184 0
M  V30 13988 O 1312.71 5.70309 -0.102158 0
M  V30 13989 O 1311.65 5.66248 -2.04076 0
M  V30 13990 H 1315.47 2.35783 -1.91415 0
M  V30 13991 H 1313.06 1.11736 -0.991743 0
M  V30 13992 H 1314.94 4.20341 -0.298568 0
M  V30 13993 H 1313.62 3.21521 0.374937 0
M  V30 13994 H 1312.52 3.19726 -1.94232 0
M  V30 13995 H 1313.86 4.2168 -2.53864 0
M  V30 13996 N 1315.51 1.01404 1.20644 0
M  V30 13997 C 1316.47 0.586941 2.21557 0
M  V30 13998 C 1317.47 -0.341543 1.57131 0
M  V30 13999 O 1318.66 -0.130585 1.7371 0
M  V30 14000 C 1315.79 -0.143248 3.40599 0
M  V30 14001 H 1316.99 1.47964 2.60858 0
M  V30 14002 H 1314.54 0.803551 1.34063 0
M  V30 14003 H 1315.28 -1.05097 3.06798 0
M  V30 14004 H 1315.06 0.523716 3.88587 0
M  V30 14005 H 1316.55 -0.429504 4.15385 0
M  V30 14006 N 1316.99 -1.36373 0.789944 0
M  V30 14007 C 1318.4 -1.81783 0.425677 0
M  V30 14008 C 1318.75 -1.65711 -1.05045 0
M  V30 14009 O 1317.87 -1.17835 -1.81505 0
M  V30 14010 C 1318.47 -3.3003 0.765866 0
M  V30 14011 C 1317.03 -3.73647 0.454421 0
M  V30 14012 C 1316.18 -2.58632 1.00023 0
M  V30 14013 H 1319.13 -1.24587 0.983044 0
M  V30 14014 H 1319.15 -3.80457 0.0571624 0
M  V30 14015 H 1318.66 -3.41696 1.84026 0
M  V30 14016 H 1316.76 -3.67541 -0.611918 0
M  V30 14017 H 1316.87 -4.69066 0.975401 0
M  V30 14018 H 1315.24 -2.51156 0.423434 0
M  V30 14019 H 1316.02 -2.73083 2.0804 0
M  V30 14020 N 1318.47 -0.542005 -1.47987 0
M  V30 14021 C 1319.69 -0.0146835 -2.07395 0
M  V30 14022 C 1320.12 1.26266 -1.39422 0
M  V30 14023 O 1319.47 1.75259 -0.464118 0
M  V30 14024 C 1319.52 0.179937 -3.60151 0
M  V30 14025 O 1318.63 1.24596 -3.93128 0
M  V30 14026 H 1317.97 -0.0445076 -0.662507 0
M  V30 14027 H 1320.5 -0.753352 -1.90226 0
M  V30 14028 H 1320.51 0.398876 -4.06046 0
M  V30 14029 H 1319.18 -0.753093 -4.09025 0
M  V30 14030 H 1317.76 1.00872 -3.58997 0
M  V30 14031 N 1319.94 1.55134 -0.277709 0
M  V30 14032 C 1321.17 2.04519 0.344472 0
M  V30 14033 C 1321.59 1.15466 1.4849 0
M  V30 14034 O 1320.95 0.153798 1.80646 0
M  V30 14035 C 1321 3.51602 0.800527 0
M  V30 14036 O 1320.1 3.65632 1.90754 0
M  V30 14037 H 1319.44 0.660212 0.0708226 0
M  V30 14038 H 1321.97 2.00393 -0.412764 0
M  V30 14039 H 1321.98 3.93015 1.09559 0
M  V30 14040 H 1320.66 4.15886 -0.033838 0
M  V30 14041 H 1319.24 3.36122 1.61481 0
M  V30 14042 N 1321.42 0.00503138 1.57599 0
M  V30 14043 C 1322.65 -0.688609 1.94786 0
M  V30 14044 C 1323.06 -1.67558 0.878698 0
M  V30 14045 O 1322.4 -1.83083 -0.150486 0
M  V30 14046 C 1322.46 -1.47183 3.2799 0
M  V30 14047 C 1322.13 -0.64589 4.52413 0
M  V30 14048 C 1323.13 0.0685859 5.19855 0
M  V30 14049 C 1320.81 -0.590379 4.98818 0
M  V30 14050 C 1322.8 0.827505 6.32006 0
M  V30 14051 C 1320.49 0.172262 6.10857 0
M  V30 14052 C 1321.49 0.879932 6.77308 0
M  V30 14053 O 1321.18 1.63012 7.87199 0
M  V30 14054 H 1320.91 -0.196416 0.646836 0
M  V30 14055 H 1323.46 0.0537933 2.0533 0
M  V30 14056 H 1321.69 -2.25883 3.13869 0
M  V30 14057 H 1323.38 -2.05129 3.50253 0
M  V30 14058 H 1324.15 0.0348834 4.84987 0
M  V30 14059 H 1320.03 -1.13074 4.46918 0
M  V30 14060 H 1323.57 1.3804 6.83806 0
M  V30 14061 H 1319.47 0.207767 6.45166 0
M  V30 14062 H 1320.24 1.54736 8.03741 0
M  V30 14063 N 1322.9 -1.55308 -0.267798 0
M  V30 14064 C 1324.18 -1.66881 -1.02029 0
M  V30 14065 C 1324.56 -0.538708 -2.04111 0
M  V30 14066 O 1323.9 0.460575 -2.2381 0
M  V30 14067 C 1324.11 -3.06318 -1.67243 0
M  V30 14068 C 1325.46 -3.64237 -2.18212 0
M  V30 14069 O 1326.49 -3.08984 -1.77221 0
M  V30 14070 O 1325.35 -4.61055 -2.93413 0
M  V30 14071 H 1322.44 -0.677967 -0.473593 0
M  V30 14072 H 1324.99 -1.67646 -0.263242 0
M  V30 14073 H 1323.76 -3.80015 -0.932985 0
M  V30 14074 H 1323.38 -3.09475 -2.49622 0
M  V30 14075 N 1324.38 0.532545 -1.4833 0
M  V30 14076 C 1325.79 1.11451 -1.49785 0
M  V30 14077 C 1326.14 1.94386 -0.266207 0
M  V30 14078 O 1325.26 2.07121 0.62688 0
M  V30 14079 C 1325.86 2.0279 -2.71407 0
M  V30 14080 C 1324.42 2.56209 -2.75742 0
M  V30 14081 C 1323.57 1.33114 -2.43261 0
M  V30 14082 H 1326.52 0.317924 -1.55483 0
M  V30 14083 H 1326.54 2.87038 -2.49779 0
M  V30 14084 H 1326.05 1.42401 -3.61031 0
M  V30 14085 H 1324.15 3.20327 -1.9032 0
M  V30 14086 H 1324.26 2.95518 -3.77102 0
M  V30 14087 H 1322.63 1.64607 -1.94362 0
M  V30 14088 H 1323.41 0.744809 -3.35123 0
M  V30 14089 N 1325.86 1.36875 0.78122 0
M  V30 14090 C 1326.79 1.34559 1.9083 0
M  V30 14091 C 1327.77 0.215713 1.68727 0
M  V30 14092 O 1328.95 0.41462 1.89722 0
M  V30 14093 C 1326.08 1.14233 3.27976 0
M  V30 14094 C 1325.04 2.24132 3.64621 0
M  V30 14095 C 1324.36 1.8894 5.00206 0
M  V30 14096 C 1325.66 3.66266 3.72353 0
M  V30 14097 H 1327.36 2.28871 1.93025 0
M  V30 14098 H 1324.9 1.10171 0.927275 0
M  V30 14099 H 1326.85 1.11246 4.06451 0
M  V30 14100 H 1325.58 0.163747 3.26189 0
M  V30 14101 H 1324.24 2.26259 2.88448 0
M  V30 14102 H 1323.89 0.896351 4.94949 0
M  V30 14103 H 1323.59 2.62525 5.25694 0
M  V30 14104 H 1325.11 1.87523 5.81092 0
M  V30 14105 H 1326.52 3.66321 4.41001 0
M  V30 14106 H 1324.92 4.38825 4.09332 0
M  V30 14107 H 1325.99 4.00578 2.7325 0
M  V30 14108 N 1327.33 -1.00632 1.21289 0
M  V30 14109 C 1328.3 -2.07543 0.972548 0
M  V30 14110 C 1329.3 -1.60703 -0.0559244 0
M  V30 14111 O 1330.49 -1.73255 0.181213 0
M  V30 14112 C 1327.62 -3.37696 0.466297 0
M  V30 14113 H 1328.81 -2.30298 1.92101 0
M  V30 14114 H 1326.36 -1.17588 1.02969 0
M  V30 14115 H 1327.1 -3.2062 -0.487148 0
M  V30 14116 H 1326.88 -3.73024 1.20813 0
M  V30 14117 H 1328.37 -4.16388 0.317962 0
M  V30 14118 N 1328.81 -1.02043 -1.20104 0
M  V30 14119 C 1329.74 -0.614421 -2.25271 0
M  V30 14120 C 1330.72 0.37242 -1.65973 0
M  V30 14121 O 1331.91 0.257005 -1.92492 0
M  V30 14122 C 1329.04 0.0442085 -3.47272 0
M  V30 14123 C 1327.99 -0.864019 -4.19188 0
M  V30 14124 C 1327.32 -0.0709551 -5.34653 0
M  V30 14125 C 1328.62 -2.17385 -4.74912 0
M  V30 14126 H 1330.31 -1.49355 -2.59487 0
M  V30 14127 H 1327.86 -0.719591 -1.24731 0
M  V30 14128 H 1329.81 0.339825 -4.20028 0
M  V30 14129 H 1328.53 0.958082 -3.12231 0
M  V30 14130 H 1327.19 -1.1437 -3.48303 0
M  V30 14131 H 1326.84 0.844688 -4.95857 0
M  V30 14132 H 1326.54 -0.67583 -5.83701 0
M  V30 14133 H 1328.07 0.218118 -6.1021 0
M  V30 14134 H 1329.48 -1.94034 -5.39466 0
M  V30 14135 H 1327.88 -2.72991 -5.34412 0
M  V30 14136 H 1328.95 -2.83427 -3.93443 0
M  V30 14137 N 1330.29 1.35952 -0.797165 0
M  V30 14138 C 1331.52 2.0381 -0.38421 0
M  V30 14139 C 1331.94 1.597 0.993854 0
M  V30 14140 O 1331.3 0.769148 1.64176 0
M  V30 14141 C 1331.35 3.57589 -0.465054 0
M  V30 14142 O 1330.45 4.09043 0.525095 0
M  V30 14143 H 1329.79 0.643957 -0.161912 0
M  V30 14144 H 1332.32 1.73746 -1.08043 0
M  V30 14145 H 1332.33 4.06651 -0.331448 0
M  V30 14146 H 1331.01 3.89045 -1.47027 0
M  V30 14147 H 1329.58 3.7123 0.352509 0
M  V30 14148 N 1331.77 0.549846 1.47697 0
M  V30 14149 C 1332.68 -0.205286 2.337 0
M  V30 14150 C 1333.69 -0.919271 1.47734 0
M  V30 14151 O 1334.87 -0.889808 1.80678 0
M  V30 14152 C 1331.94 -1.22658 3.24278 0
M  V30 14153 C 1331 -0.520815 4.26129 0
M  V30 14154 C 1330.23 -1.49345 5.12378 0
M  V30 14155 O 1330.45 -2.72772 5.00951 0
M  V30 14156 O 1329.39 -1.02197 5.93161 0
M  V30 14157 H 1333.21 0.499982 2.99556 0
M  V30 14158 H 1330.8 0.310538 1.46137 0
M  V30 14159 H 1332.68 -1.8163 3.80248 0
M  V30 14160 H 1331.35 -1.9139 2.61059 0
M  V30 14161 H 1330.26 0.109906 3.73939 0
M  V30 14162 H 1331.59 0.124922 4.92041 0
M  V30 14163 N 1333.25 -1.54984 0.285932 0
M  V30 14164 C 1334.18 -2.25916 -0.590259 0
M  V30 14165 C 1335.16 -1.25319 -1.15018 0
M  V30 14166 O 1336.34 -1.54062 -1.18231 0
M  V30 14167 C 1333.47 -2.98849 -1.76936 0
M  V30 14168 C 1332.43 -4.06466 -1.3405 0
M  V30 14169 C 1331.75 -4.67032 -2.60356 0
M  V30 14170 C 1333.05 -5.20064 -0.482754 0
M  V30 14171 H 1334.75 -2.994 0.00131571 0
M  V30 14172 H 1332.29 -1.44 0.00207281 0
M  V30 14173 H 1334.25 -3.47186 -2.3883 0
M  V30 14174 H 1332.97 -2.22918 -2.38694 0
M  V30 14175 H 1331.63 -3.58957 -0.7447 0
M  V30 14176 H 1331.28 -3.87757 -3.20396 0
M  V30 14177 H 1330.98 -5.39703 -2.32368 0
M  V30 14178 H 1332.5 -5.18124 -3.23079 0
M  V30 14179 H 1333.91 -5.64387 -1.00697 0
M  V30 14180 H 1332.31 -5.99363 -0.297291 0
M  V30 14181 H 1333.38 -4.82358 0.495861 0
M  V30 14182 N 1334.72 -0.0133892 -1.57594 0
M  V30 14183 C 1336.14 0.527615 -1.7909 0
M  V30 14184 C 1336.49 1.73179 -0.922142 0
M  V30 14185 O 1335.61 2.1602 -0.128233 0
M  V30 14186 C 1336.21 0.963949 -3.24798 0
M  V30 14187 C 1334.77 1.45017 -3.47343 0
M  V30 14188 C 1333.91 0.407548 -2.74289 0
M  V30 14189 H 1336.86 -0.239505 -1.56882 0
M  V30 14190 H 1336.88 1.82924 -3.33645 0
M  V30 14191 H 1336.4 0.0873315 -3.88002 0
M  V30 14192 H 1334.5 2.34724 -2.89371 0
M  V30 14193 H 1334.61 1.4684 -4.56043 0
M  V30 14194 H 1332.97 0.872174 -2.39301 0
M  V30 14195 H 1333.76 -0.460333 -3.402 0
M  V30 14196 N 1336.2 1.55448 0.259558 0
M  V30 14197 C 1337.45 1.76337 0.987396 0
M  V30 14198 C 1337.77 0.57505 1.86328 0
M  V30 14199 O 1337.04 -0.409621 1.9157 0
M  V30 14200 H 1335.62 0.650312 0.367565 0
M  V30 14201 H 1338.28 1.9287 0.280551 0
M  V30 14202 H 1337.38 2.66975 1.61651 0
M  V30 14203 N 1337.68 -0.524672 1.4861 0
M  V30 14204 C 1338.61 -1.63782 1.66426 0
M  V30 14205 C 1339.59 -1.62177 0.513077 0
M  V30 14206 O 1340.78 -1.7929 0.74623 0
M  V30 14207 C 1337.91 -3.02354 1.70877 0
M  V30 14208 C 1336.86 -3.18819 2.85549 0
M  V30 14209 C 1336.19 -4.58506 2.75094 0
M  V30 14210 C 1337.49 -3.01086 4.26784 0
M  V30 14211 H 1339.18 -1.49127 2.59618 0
M  V30 14212 H 1336.73 -0.715997 1.24938 0
M  V30 14213 H 1338.68 -3.80105 1.81929 0
M  V30 14214 H 1337.4 -3.18044 0.742682 0
M  V30 14215 H 1336.06 -2.43487 2.74061 0
M  V30 14216 H 1335.71 -4.71038 1.76443 0
M  V30 14217 H 1335.41 -4.70466 3.52044 0
M  V30 14218 H 1336.93 -5.38348 2.88121 0
M  V30 14219 H 1338.35 -3.68624 4.39077 0
M  V30 14220 H 1336.75 -3.24536 5.04774 0
M  V30 14221 H 1337.82 -1.97454 4.42877 0
M  V30 14222 N 1339.16 -1.37287 -0.77395 0
M  V30 14223 C 1340.41 -1.32374 -1.53243 0
M  V30 14224 C 1340.73 0.0924284 -1.9428 0
M  V30 14225 O 1339.99 1.06517 -1.64173 0
M  V30 14226 C 1340.29 -2.20667 -2.81142 0
M  V30 14227 C 1339.95 -3.68975 -2.59168 0
M  V30 14228 C 1338.62 -4.09394 -2.52884 0
M  V30 14229 C 1340.97 -4.62941 -2.39447 0
M  V30 14230 C 1338.3 -5.41897 -2.24865 0
M  V30 14231 C 1340.65 -5.9568 -2.12952 0
M  V30 14232 C 1339.31 -6.35205 -2.05111 0
M  V30 14233 H 1338.58 -0.48439 -0.560756 0
M  V30 14234 H 1341.23 -1.69475 -0.891663 0
M  V30 14235 H 1339.53 -1.76553 -3.49766 0
M  V30 14236 H 1341.23 -2.1418 -3.3901 0
M  V30 14237 H 1337.82 -3.36919 -2.64922 0
M  V30 14238 H 1342 -4.32576 -2.43293 0
M  V30 14239 H 1337.26 -5.71486 -2.17288 0
M  V30 14240 H 1341.43 -6.68046 -1.9669 0
M  V30 14241 H 1339.06 -7.37804 -1.83163 0
M  V30 14242 N 1340.64 0.999871 -1.21821 0
M  V30 14243 C 1341.91 1.71135 -0.947213 0
M  V30 14244 C 1342.29 2.04087 0.539601 0
M  V30 14245 O 1341.64 1.71866 1.5058 0
M  V30 14246 C 1341.85 2.96704 -1.8376 0
M  V30 14247 C 1343.2 3.69627 -2.08952 0
M  V30 14248 O 1344.22 3.06697 -1.81151 0
M  V30 14249 O 1343.08 4.82832 -2.55999 0
M  V30 14250 H 1340.18 0.746631 -0.355628 0
M  V30 14251 H 1342.72 1.05684 -1.32774 0
M  V30 14252 H 1341.49 2.68802 -2.84361 0
M  V30 14253 H 1341.12 3.69894 -1.45821 0
M  V30 14254 N 1342.11 1.02678 1.19562 0
M  V30 14255 C 1343.35 0.7307 1.90893 0
M  V30 14256 C 1343.72 -0.727166 1.77697 0
M  V30 14257 O 1344.92 -1.13623 2.43605 0
M  V30 14258 C 1343.19 1.16683 3.37816 0
M  V30 14259 S 1344.75 0.994271 4.27387 0
M  V30 14260 H 1341.57 0.266082 0.659334 0
M  V30 14261 H 1344.17 1.31617 1.44558 0
M  V30 14262 H 1342.87 2.22354 3.44945 0
M  V30 14263 H 1342.4 0.574559 3.89182 0
M  V30 14264 H 1344.42 -0.0963871 4.96106 0
M  V30 14265 N 1343.59 -1.35528 0.804364 0
M  V30 14266 C 1344.5 -2.33616 0.214663 0
M  V30 14267 C 1345.52 -1.61757 -0.64115 0
M  V30 14268 O 1346.69 -1.93647 -0.553424 0
M  V30 14269 C 1343.76 -3.40951 -0.628778 0
M  V30 14270 C 1342.82 -4.28587 0.247269 0
M  V30 14271 C 1342.05 -5.30796 -0.556012 0
M  V30 14272 O 1342.28 -5.41557 -1.79088 0
M  V30 14273 O 1341.21 -6.01878 0.0519437 0
M  V30 14274 H 1345.04 -2.85843 1.02605 0
M  V30 14275 H 1342.62 -1.38259 0.566108 0
M  V30 14276 H 1344.5 -4.06538 -1.10926 0
M  V30 14277 H 1343.18 -2.90999 -1.4178 0
M  V30 14278 H 1342.09 -3.65988 0.774835 0
M  V30 14279 H 1343.42 -4.81931 1.00017 0
M  V30 14280 N 1345.07 -0.557671 -1.47404 0
M  V30 14281 C 1346 0.237612 -2.2696 0
M  V30 14282 C 1346.98 0.919871 -1.34079 0
M  V30 14283 O 1348.17 0.938767 -1.63461 0
M  V30 14284 C 1345.29 1.33863 -3.11124 0
M  V30 14285 C 1344.34 0.764877 -4.19585 0
M  V30 14286 S 1345.17 -0.388893 -5.34086 0
M  V30 14287 C 1346.33 0.713932 -6.21815 0
M  V30 14288 H 1346.56 -0.437477 -2.94064 0
M  V30 14289 H 1344.09 -0.344004 -1.50519 0
M  V30 14290 H 1346.05 1.96917 -3.60186 0
M  V30 14291 H 1344.71 1.98556 -2.43381 0
M  V30 14292 H 1343.91 1.5917 -4.78206 0
M  V30 14293 H 1343.51 0.210502 -3.73407 0
M  V30 14294 H 1345.8 1.60592 -6.58192 0
M  V30 14295 H 1346.74 0.165069 -7.07908 0
M  V30 14296 H 1347.15 1.00681 -5.55449 0
M  V30 14297 N 1346.55 1.54831 -0.294147 0
M  V30 14298 C 1347.48 2.26226 0.57827 0
M  V30 14299 C 1348.46 1.25928 1.14351 0
M  V30 14300 O 1349.65 1.54687 1.17412 0
M  V30 14301 C 1346.78 2.99783 1.75349 0
M  V30 14302 C 1345.73 4.07171 1.31892 0
M  V30 14303 C 1345.06 4.68406 2.57876 0
M  V30 14304 C 1346.36 5.20313 0.455167 0
M  V30 14305 H 1348.05 2.99395 -0.0171936 0
M  V30 14306 H 1345.6 1.43997 -0.00970944 0
M  V30 14307 H 1347.55 3.48448 2.36986 0
M  V30 14308 H 1346.27 2.24181 2.37509 0
M  V30 14309 H 1344.93 3.59346 0.725653 0
M  V30 14310 H 1344.58 3.89451 3.18335 0
M  V30 14311 H 1344.28 5.40927 2.29502 0
M  V30 14312 H 1345.8 5.1983 3.20327 0
M  V30 14313 H 1347.22 5.64913 0.977026 0
M  V30 14314 H 1345.61 5.99512 0.265501 0
M  V30 14315 H 1346.68 4.82088 -0.521434 0
M  V30 14316 N 1348.03 0.0217466 1.57585 0
M  V30 14317 C 1349.3 -0.696733 1.8277 0
M  V30 14318 C 1349.68 -1.90759 0.904112 0
M  V30 14319 O 1349.03 -2.28461 -0.0420522 0
M  V30 14320 C 1349.24 -1.08193 3.31806 0
M  V30 14321 C 1350.59 -1.47667 3.98095 0
M  V30 14322 O 1351.61 -1.17511 3.36258 0
M  V30 14323 O 1350.47 -2.03825 5.07068 0
M  V30 14324 H 1347.57 -0.341141 0.75336 0
M  V30 14325 H 1350.11 0.0488652 1.6963 0
M  V30 14326 H 1348.89 -0.219799 3.90682 0
M  V30 14327 H 1348.51 -1.88593 3.50026 0
M  V30 14328 N 1349.51 -1.55583 -0.251311 0
M  V30 14329 C 1350.47 -1.89148 -1.29443 0
M  V30 14330 C 1351.47 -0.7676 -1.41296 0
M  V30 14331 O 1352.66 -1.03563 -1.40073 0
M  V30 14332 C 1349.79 -2.11601 -2.67279 0
M  V30 14333 H 1350.98 -2.82416 -1.00901 0
M  V30 14334 H 1348.54 -1.48407 -0.490398 0
M  V30 14335 H 1349.27 -1.20787 -3.00967 0
M  V30 14336 H 1349.06 -2.93449 -2.60058 0
M  V30 14337 H 1350.55 -2.38768 -3.42607 0
M  V30 14338 N 1350.98 0.516783 -1.48886 0
M  V30 14339 C 1352.23 1.27375 -1.57808 0
M  V30 14340 C 1352.56 1.92492 -0.256963 0
M  V30 14341 O 1351.84 1.79947 0.738193 0
M  V30 14342 C 1352.12 2.35295 -2.72595 0
M  V30 14343 C 1351.97 1.74783 -4.14453 0
M  V30 14344 C 1353.29 3.36973 -2.83085 0
M  V30 14345 H 1350.41 0.46175 -0.574418 0
M  V30 14346 H 1353.05 0.57434 -1.81111 0
M  V30 14347 H 1351.2 2.94951 -2.52857 0
M  V30 14348 H 1352.88 1.19076 -4.45666 0
M  V30 14349 H 1351.12 1.05258 -4.20836 0
M  V30 14350 H 1351.79 2.52985 -4.90615 0
M  V30 14351 H 1354.27 2.87289 -3.01005 0
M  V30 14352 H 1353.14 4.09864 -3.65106 0
M  V30 14353 H 1353.4 3.98336 -1.91784 0
M  V30 14354 N 1352.46 1.37696 0.766659 0
M  V30 14355 C 1353.74 1.23715 1.51506 0
M  V30 14356 C 1354.12 -0.167091 2.10438 0
M  V30 14357 O 1353.47 -1.17526 1.95959 0
M  V30 14358 C 1353.68 2.33715 2.59188 0
M  V30 14359 C 1355.02 2.71504 3.26451 0
M  V30 14360 O 1356.05 2.32929 2.69486 0
M  V30 14361 O 1354.91 3.37981 4.29454 0
M  V30 14362 H 1352 0.483046 0.671264 0
M  V30 14363 H 1354.55 1.49489 0.803188 0
M  V30 14364 H 1353.32 3.27729 2.13797 0
M  V30 14365 H 1352.94 2.09433 3.3797 0
M  V30 14366 N 1353.94 -0.993397 1.22349 0
M  V30 14367 C 1355.35 -1.54739 1.04465 0
M  V30 14368 C 1355.7 -1.92243 -0.392057 0
M  V30 14369 O 1354.83 -1.74707 -1.27697 0
M  V30 14370 C 1355.42 -2.81179 1.89007 0
M  V30 14371 C 1353.98 -3.33023 1.75421 0
M  V30 14372 C 1353.13 -2.06114 1.85505 0
M  V30 14373 H 1356.08 -0.814539 1.36202 0
M  V30 14374 H 1356.1 -3.53523 1.40718 0
M  V30 14375 H 1355.61 -2.53851 2.93566 0
M  V30 14376 H 1353.71 -3.6526 0.735935 0
M  V30 14377 H 1353.83 -4.03659 2.58062 0
M  V30 14378 H 1352.19 -2.19651 1.2894 0
M  V30 14379 H 1352.97 -1.81184 2.91594 0
M  V30 14380 N 1355.42 -1.03311 -1.19015 0
M  V30 14381 C 1356.35 -0.575655 -2.21853 0
M  V30 14382 C 1357.36 0.350705 -1.58978 0
M  V30 14383 O 1358.55 0.146425 -1.77898 0
M  V30 14384 C 1355.65 0.179949 -3.38422 0
M  V30 14385 C 1354.82 -0.752403 -4.3088 0
M  V30 14386 C 1353.88 -0.0414484 -5.26184 0
M  V30 14387 O 1352.91 -0.669403 -5.6525 0
M  V30 14388 N 1354.11 1.22783 -5.67366 0
M  V30 14389 H 1356.88 -1.46013 -2.61726 0
M  V30 14390 H 1354.44 -0.912655 -1.33724 0
M  V30 14391 H 1356.43 0.66522 -3.99195 0
M  V30 14392 H 1355 0.965879 -2.97304 0
M  V30 14393 H 1354.22 -1.41768 -3.67825 0
M  V30 14394 H 1355.51 -1.38592 -4.89561 0
M  V30 14395 H 1354.91 1.75867 -5.37668 0
M  V30 14396 H 1353.46 1.65752 -6.30372 0
M  V30 14397 N 1356.9 1.35099 -0.81154 0
M  V30 14398 C 1357.85 2.27139 -0.197958 0
M  V30 14399 C 1358.83 1.48006 0.631116 0
M  V30 14400 O 1360.02 1.70152 0.487562 0
M  V30 14401 C 1357.15 3.37118 0.648577 0
M  V30 14402 C 1356.24 4.23672 -0.190498 0
M  V30 14403 N 1356.63 4.89959 -1.25594 0
M  V30 14404 C 1354.93 4.45992 0.0270572 0
M  V30 14405 C 1355.63 5.54161 -1.76862 0
M  V30 14406 N 1354.6 5.32879 -1.07428 0
M  V30 14407 H 1358.4 2.75886 -1.01311 0
M  V30 14408 H 1355.92 1.48685 -0.653195 0
M  V30 14409 H 1357.92 4.0201 1.10423 0
M  V30 14410 H 1356.58 2.89922 1.46202 0
M  V30 14411 H 1357.59 4.91293 -1.63864 0
M  V30 14412 H 1354.26 4.09582 0.809248 0
M  V30 14413 H 1355.65 6.17032 -2.65935 0
M  V30 14414 N 1358.37 0.56548 1.47106 0
M  V30 14415 C 1359.32 -0.190542 2.31818 0
M  V30 14416 C 1360.32 -0.901279 1.43434 0
M  V30 14417 O 1361.52 -0.821625 1.60154 0
M  V30 14418 H 1357.9 -0.0803183 0.747698 0
M  V30 14419 H 1359.87 0.542999 2.93418 0
M  V30 14420 C 1358.62 -1.20208 3.2626 0
M  V30 14421 H 1357.94 -0.664608 3.94237 0
M  V30 14422 H 1359.38 -1.7018 3.88349 0
M  V30 14423 C 1357.84 -2.25423 2.50372 0
M  V30 14424 O 1358.37 -3.3249 2.25418 0
M  V30 14425 N 1356.57 -1.9957 2.11235 0
M  V30 14426 H 1356.12 -1.12513 2.31729 0
M  V30 14427 H 1356.08 -2.70182 1.60777 0
M  V30 14428 N 1359.85 -1.54672 0.302354 0
M  V30 14429 C 1361.1 -1.99771 -0.305919 0
M  V30 14430 C 1361.42 -1.19225 -1.54306 0
M  V30 14431 O 1360.69 -0.288569 -1.93763 0
M  V30 14432 H 1359.27 -0.737934 -0.116026 0
M  V30 14433 H 1361.93 -1.90452 0.413997 0
M  V30 14434 H 1361.03 -3.06719 -0.577024 0
M  V30 14435 N 1361.33 -0.0301034 -1.57571 0
M  V30 14436 C 1362.56 0.657533 -1.95857 0
M  V30 14437 C 1362.97 1.66138 -0.905244 0
M  V30 14438 O 1362.31 1.83299 0.12134 0
M  V30 14439 C 1362.37 1.41946 -3.3029 0
M  V30 14440 C 1362.04 0.573834 -4.53383 0
M  V30 14441 C 1363.03 -0.151282 -5.1968 0
M  V30 14442 C 1360.72 0.510947 -4.99695 0
M  V30 14443 C 1362.71 -0.927947 -6.30609 0
M  V30 14444 C 1360.4 -0.269422 -6.10506 0
M  V30 14445 C 1361.4 -0.987575 -6.75822 0
M  V30 14446 O 1361.09 -1.75515 -7.84506 0
M  V30 14447 H 1360.82 0.1861 -0.649879 0
M  V30 14448 H 1363.37 -0.0864526 -2.05218 0
M  V30 14449 H 1361.6 2.20861 -3.17423 0
M  V30 14450 H 1363.29 1.9953 -3.53472 0
M  V30 14451 H 1364.06 -0.112036 -4.84871 0
M  V30 14452 H 1359.94 1.05949 -4.4866 0
M  V30 14453 H 1363.48 -1.48901 -6.81524 0
M  V30 14454 H 1359.38 -0.310381 -6.44753 0
M  V30 14455 H 1360.15 -1.67503 -8.01177 0
M  V30 14456 N 1362.81 1.55714 0.243056 0
M  V30 14457 C 1364.05 1.77989 0.971993 0
M  V30 14458 C 1364.39 0.596038 1.84827 0
M  V30 14459 O 1363.66 -0.40554 1.90225 0
M  V30 14460 C 1363.95 3.10178 1.82925 0
M  V30 14461 C 1363.8 4.38974 0.9809 0
M  V30 14462 C 1365.12 3.38628 2.81103 0
M  V30 14463 H 1362.24 0.64754 0.35194 0
M  V30 14464 H 1364.88 1.88449 0.242237 0
M  V30 14465 H 1363.03 3.01392 2.45143 0
M  V30 14466 H 1364.7 4.59756 0.377113 0
M  V30 14467 H 1362.94 4.3286 0.285414 0
M  V30 14468 H 1363.61 5.27858 1.61461 0
M  V30 14469 H 1366.09 3.47403 2.29021 0
M  V30 14470 H 1364.97 4.32331 3.38203 0
M  V30 14471 H 1365.23 2.5973 3.57761 0
M  V30 14472 N 1364.29 -0.50888 1.49158 0
M  V30 14473 C 1365.22 -1.62008 1.68154 0
M  V30 14474 C 1366.2 -1.61624 0.53025 0
M  V30 14475 O 1367.38 -1.78489 0.765205 0
M  V30 14476 C 1364.51 -3.00525 1.74075 0
M  V30 14477 C 1363.47 -3.15773 2.88915 0
M  V30 14478 C 1362.79 -4.55562 2.79942 0
M  V30 14479 C 1364.09 -2.96542 4.29953 0
M  V30 14480 H 1365.79 -1.46365 2.61185 0
M  V30 14481 H 1363.33 -0.702705 1.2569 0
M  V30 14482 H 1365.29 -3.78154 1.8595 0
M  V30 14483 H 1364.01 -3.17238 0.776373 0
M  V30 14484 H 1362.67 -2.40567 2.76628 0
M  V30 14485 H 1362.32 -4.6914 1.81429 0
M  V30 14486 H 1362.02 -4.66706 3.57015 0
M  V30 14487 H 1363.54 -5.35262 2.93814 0
M  V30 14488 H 1364.95 -3.63947 4.42963 0
M  V30 14489 H 1363.35 -3.19164 5.08187 0
M  V30 14490 H 1364.42 -1.92745 4.44946 0
M  V30 14491 N 1365.76 -1.381 -0.759346 0
M  V30 14492 C 1367.01 -1.3419 -1.52055 0
M  V30 14493 C 1367.34 0.0697657 -1.94075 0
M  V30 14494 O 1366.62 1.02975 -1.65004 0
M  V30 14495 C 1366.9 -2.29236 -2.7771 0
M  V30 14496 C 1366.75 -3.79237 -2.41866 0
M  V30 14497 C 1368.07 -2.22511 -3.79706 0
M  V30 14498 H 1365.19 -0.488768 -0.551611 0
M  V30 14499 H 1367.83 -1.68902 -0.870174 0
M  V30 14500 H 1365.98 -1.99764 -3.33206 0
M  V30 14501 H 1367.66 -4.19358 -1.92189 0
M  V30 14502 H 1365.9 -3.97199 -1.74399 0
M  V30 14503 H 1366.57 -4.41193 -3.31742 0
M  V30 14504 H 1369.05 -2.48516 -3.33735 0
M  V30 14505 H 1367.92 -2.91134 -4.6533 0
M  V30 14506 H 1368.18 -1.22206 -4.24874 0
M  V30 14507 N 1367.24 0.986894 -1.22875 0
M  V30 14508 C 1368.19 2.09935 -1.00151 0
M  V30 14509 C 1369.18 1.69303 0.0573751 0
M  V30 14510 O 1370.39 1.79746 -0.0955781 0
M  V30 14511 H 1366.77 0.686605 -0.306721 0
M  V30 14512 H 1368.74 2.26271 -1.94535 0
M  V30 14513 C 1367.49 3.42442 -0.602374 0
M  V30 14514 H 1366.81 3.74154 -1.40886 0
M  V30 14515 H 1368.25 4.21242 -0.482836 0
M  V30 14516 C 1366.71 3.29785 0.688707 0
M  V30 14517 O 1367.24 3.6208 1.73957 0
M  V30 14518 N 1365.44 2.82956 0.662152 0
M  V30 14519 H 1364.99 2.56873 -0.193337 0
M  V30 14520 H 1364.95 2.74869 1.52625 0
M  V30 14521 O 1368.76 1.16517 1.1183 0
M  V30 14522 H 1369.45 0.897764 1.71639 0
M  V30 END ATOM
M  V30 BEGIN BOND
M  V30 END BOND
M  V30 END CTAB
M  END
$$$$
