drugbank_target|P50440 Glycine amidinotransferase, mitochondrial (DB00129; DB00145; DB02068; DB02530; DB04185; DB04454)
 OpenBabel12092119293D

  0  0  0     0  0            999 V3000
M  V30 BEGIN CTAB
M  V30 COUNTS 6768 6864 0 0 0
M  V30 BEGIN ATOM
M  V30 1 H -0.908 1.98254 -0.117106 0
M  V30 2 N 0 1.576 0 0
M  V30 3 C 0.933 2.03868 1.02534 0
M  V30 4 C 1.911 0.928543 1.3348 0
M  V30 5 O 3.095 1.19667 1.45644 0
M  V30 6 C 0.222 2.43627 2.35294 0
M  V30 7 C -0.732 3.65373 2.2001 0
M  V30 8 S 0.101 5.13292 1.52614 0
M  V30 9 C 1.257 5.56322 2.86805 0
M  V30 10 H 1.49 2.90518 0.631377 0
M  V30 11 H -0.977 1.52953 0.210867 0
M  V30 12 H 0.981 2.67203 3.11629 0
M  V30 13 H -0.358 1.57376 2.7183 0
M  V30 14 H -1.165 3.90944 3.18086 0
M  V30 15 H -1.563 3.418 1.51819 0
M  V30 16 H 0.729 5.58782 3.83104 0
M  V30 17 H 1.672 6.56266 2.65933 0
M  V30 18 H 2.08 4.83886 2.90714 0
M  V30 19 N 1.4781 -0.272755 1.55222 0
M  V30 20 C 2.4081 -1.34136 1.91127 0
M  V30 21 C 3.3891 -1.51513 0.773168 0
M  V30 22 O 4.5741 -1.64552 1.03132 0
M  V30 23 C 1.7041 -2.70083 2.1834 0
M  V30 24 C 0.6581 -2.67437 3.34158 0
M  V30 25 C -0.0159 -4.06938 3.46851 0
M  V30 26 C 1.2841 -2.26686 4.70543 0
M  V30 27 H 2.9781 -1.04333 2.80633 0
M  V30 28 H 0.5241 -0.500454 1.35024 0
M  V30 29 H 2.4771 -3.44952 2.42046 0
M  V30 30 H 1.2011 -3.01469 1.25634 0
M  V30 31 H -0.1399 -1.95026 3.1042 0
M  V30 32 H -0.4919 -4.35547 2.51611 0
M  V30 33 H -0.7919 -4.06062 4.2472 0
M  V30 34 H 0.7321 -4.83545 3.72849 0
M  V30 35 H 2.1461 -2.91277 4.93792 0
M  V30 36 H 0.5431 -2.36971 5.5133 0
M  V30 37 H 1.6131 -1.21818 4.69349 0
M  V30 38 N 2.9562 -1.48159 -0.537278 0
M  V30 39 C 4.3722 -1.34118 -0.865129 0
M  V30 40 C 4.5722 -0.346678 -1.98495 0
M  V30 41 O 3.6282 0.234715 -2.51407 0
M  V30 42 C 4.9412 -2.73963 -1.23954 0
M  V30 43 C 6.4892 -2.82397 -1.34984 0
M  V30 44 C 6.9642 -4.22928 -1.75772 0
M  V30 45 N 8.4552 -4.25566 -1.82887 0
M  V30 46 C 9.1902 -5.31235 -2.15817 0
M  V30 47 N 8.6862 -6.47189 -2.47222 0
M  V30 48 N 10.4792 -5.18624 -2.16761 0
M  V30 49 H 2.6302 -2.1144 0.201715 0
M  V30 50 H 4.8932 -0.947598 0.0275949 0
M  V30 51 H 4.5992 -3.48264 -0.490381 0
M  V30 52 H 4.4732 -3.0702 -2.19132 0
M  V30 53 H 6.8602 -2.08356 -2.08978 0
M  V30 54 H 6.9412 -2.5297 -0.379448 0
M  V30 55 H 6.5852 -4.97482 -1.02341 0
M  V30 56 H 6.5152 -4.49794 -2.73848 0
M  V30 57 H 9.0062 -3.41924 -1.60924 0
M  V30 58 H 9.3192 -7.23564 -2.71433 0
M  V30 59 H 7.6642 -6.50476 -2.44757 0
M  V30 60 H 10.8552 -4.27056 -1.91679 0
M  V30 61 H 11.0282 -6.01078 -2.42093 0
M  V30 62 N 4.4343 0.785586 -1.36625 0
M  V30 63 C 5.6803 1.54591 -1.31261 0
M  V30 64 C 6.0133 1.93906 0.106823 0
M  V30 65 O 5.2883 1.63007 1.06108 0
M  V30 66 C 5.5713 2.82038 -2.23889 0
M  V30 67 C 5.4243 2.49066 -3.74548 0
M  V30 68 C 6.7433 3.83887 -2.15217 0
M  V30 69 H 3.8623 0.560846 -0.478143 0
M  V30 70 H 6.5043 0.902278 -1.67209 0
M  V30 71 H 4.6543 3.36961 -1.93363 0
M  V30 72 H 6.3263 2.00164 -4.15611 0
M  V30 73 H 4.5693 1.81954 -3.93796 0
M  V30 74 H 5.2403 3.40109 -4.34776 0
M  V30 75 H 7.7163 3.38421 -2.42096 0
M  V30 76 H 6.5923 4.70806 -2.82193 0
M  V30 77 H 6.8533 4.27131 -1.14068 0
M  V30 78 N 5.9124 1.20967 1.01018 0
M  V30 79 C 7.3284 0.965905 1.27053 0
M  V30 80 C 7.5284 -0.350785 1.98423 0
M  V30 81 O 6.5844 -1.07773 2.28344 0
M  V30 82 C 7.8974 2.15294 2.09926 0
M  V30 83 C 9.4454 2.19463 2.23171 0
M  V30 84 C 9.9204 3.3767 3.09424 0
M  V30 85 N 11.4114 3.37724 3.17012 0
M  V30 86 C 12.1464 4.25837 3.83993 0
M  V30 87 N 11.6424 5.24138 4.53047 0
M  V30 88 N 13.4354 4.1366 3.80581 0
M  V30 89 H 5.5864 2.0565 0.531194 0
M  V30 90 H 7.8494 0.90024 0.297106 0
M  V30 91 H 7.5554 3.10684 1.64828 0
M  V30 92 H 7.4294 2.13923 3.10672 0
M  V30 93 H 9.8164 1.24632 2.6749 0
M  V30 94 H 9.8974 2.2488 1.21912 0
M  V30 95 H 9.5414 4.32791 2.65808 0
M  V30 96 H 9.4714 3.29491 4.10784 0
M  V30 97 H 11.9624 2.6658 2.6785 0
M  V30 98 H 12.2754 5.87684 5.01844 0
M  V30 99 H 10.6204 5.28068 4.5185 0
M  V30 100 H 13.8114 3.36127 3.25785 0
M  V30 101 H 13.9844 4.82538 4.32505 0
M  V30 102 N 7.3905 -1.2043 1.01659 0
M  V30 103 C 8.6305 -1.91507 0.714456 0
M  V30 104 C 8.9945 -1.77073 -0.742237 0
M  V30 105 O 10.1955 -2.42631 -1.15688 0
M  V30 106 C 8.4665 -3.38795 1.13809 0
M  V30 107 S 10.0255 -4.28216 0.957925 0
M  V30 108 H 6.8435 -0.661571 0.260471 0
M  V30 109 H 9.4455 -1.45671 1.30384 0
M  V30 110 H 8.1495 -3.46822 2.19415 0
M  V30 111 H 7.6805 -3.89656 0.541474 0
M  V30 112 H 9.6955 -4.96007 -0.138531 0
M  V30 113 N 8.8686 -0.792821 -1.36206 0
M  V30 114 C 9.7986 -0.207853 -2.32573 0
M  V30 115 C 10.7796 0.659055 -1.56813 0
M  V30 116 O 11.9646 0.592176 -1.84951 0
M  V30 117 C 9.0946 0.655449 -3.41059 0
M  V30 118 C 8.0486 -0.111842 -4.27854 0
M  V30 119 C 7.3746 0.872274 -5.27537 0
M  V30 120 C 8.6746 -1.30299 -5.05786 0
M  V30 121 H 10.3686 -1.01294 -2.81744 0
M  V30 122 H 7.9146 -0.48854 -1.3546 0
M  V30 123 H 9.8676 1.07464 -4.07467 0
M  V30 124 H 8.5916 1.49328 -2.90463 0
M  V30 125 H 7.2506 -0.512053 -3.63006 0
M  V30 126 H 6.8986 1.70523 -4.73214 0
M  V30 127 H 6.5986 0.363291 -5.86476 0
M  V30 128 H 8.1226 1.28996 -5.96818 0
M  V30 129 H 9.5366 -0.959379 -5.65216 0
M  V30 130 H 7.9336 -1.7455 -5.74154 0
M  V30 131 H 9.0036 -2.09663 -4.37229 0
M  V30 132 N 10.3467 1.47872 -0.545128 0
M  V30 133 C 11.7627 1.5829 -0.204032 0
M  V30 134 C 11.9627 1.54529 1.29317 0
M  V30 135 O 11.0187 1.44232 2.07252 0
M  V30 136 C 12.3317 2.89304 -0.819987 0
M  V30 137 C 13.8797 3.02864 -0.790105 0
M  V30 138 C 14.3547 4.3656 -1.38491 0
M  V30 139 N 15.8457 4.43165 -1.34755 0
M  V30 140 C 16.5807 5.45153 -1.77753 0
M  V30 141 N 16.0767 6.54016 -2.2855 0
M  V30 142 N 17.8697 5.36125 -1.68897 0
M  V30 143 H 10.0207 1.4856 -1.51802 0
M  V30 144 H 12.2837 0.706305 -0.632327 0
M  V30 145 H 11.9897 2.97757 -1.87173 0
M  V30 146 H 11.8637 3.75957 -0.305915 0
M  V30 147 H 14.2507 2.94014 0.252913 0
M  V30 148 H 14.3317 2.17782 -1.34181 0
M  V30 149 H 13.9757 4.46164 -2.42693 0
M  V30 150 H 13.9057 5.20353 -0.808754 0
M  V30 151 H 16.3967 3.65083 -0.975855 0
M  V30 152 H 16.7097 7.27994 -2.59314 0
M  V30 153 H 15.0547 6.54938 -2.32553 0
M  V30 154 H 18.2457 4.49975 -1.28998 0
M  V30 155 H 18.4187 6.15472 -2.02726 0
M  V30 156 N 11.8248 0.280983 1.55075 0
M  V30 157 C 13.0728 -0.333455 1.9933 0
M  V30 158 C 13.3938 -1.55937 1.17085 0
M  V30 159 O 12.6638 -1.94143 0.261805 0
M  V30 160 H 11.2438 -0.126197 0.736263 0
M  V30 161 H 13.9058 0.387678 1.91005 0
M  V30 162 H 13.0018 -0.619292 3.05894 0
M  V30 163 N 13.3029 -1.57598 0.00835791 0
M  V30 164 C 14.5509 -1.90551 -0.6734 0
M  V30 165 C 14.8719 -0.883301 -1.73847 0
M  V30 166 O 14.1419 0.0781442 -1.95744 0
M  V30 167 H 12.7219 -0.703312 -0.251717 0
M  V30 168 H 15.3839 -1.94833 0.0512592 0
M  V30 169 H 14.4799 -2.9056 -1.13935 0
M  V30 170 N 14.781 0.264519 -1.55364 0
M  V30 171 C 16.006 1.01726 -1.80739 0
M  V30 172 C 16.431 1.78836 -0.583044 0
M  V30 173 O 15.789 1.75167 0.467566 0
M  V30 174 C 15.837 1.94482 -3.03659 0
M  V30 175 O 14.941 3.03386 -2.7934 0
M  V30 176 H 14.282 0.290395 -0.597132 0
M  V30 177 H 16.812 0.290854 -2.02522 0
M  V30 178 H 16.822 2.36278 -3.32621 0
M  V30 179 H 15.497 1.37772 -3.92418 0
M  V30 180 H 14.074 2.65844 -2.61498 0
M  V30 181 N 16.2591 1.48442 0.529413 0
M  V30 182 C 17.6751 1.34575 0.858004 0
M  V30 183 C 17.8751 0.3572 1.98309 0
M  V30 184 O 16.9311 -0.221379 2.51528 0
M  V30 185 C 18.2441 2.74617 1.22499 0
M  V30 186 C 19.7921 2.83109 1.33484 0
M  V30 187 C 20.2671 4.23854 1.73526 0
M  V30 188 N 21.7581 4.2653 1.80628 0
M  V30 189 C 22.4931 5.32372 2.12997 0
M  V30 190 N 21.9891 6.48491 2.43786 0
M  V30 191 N 23.7821 5.19766 2.14008 0
M  V30 192 H 15.9331 2.1133 -0.212925 0
M  V30 193 H 18.1961 0.947439 -0.0326199 0
M  V30 194 H 17.9021 3.4852 0.471905 0
M  V30 195 H 17.7761 3.08177 2.17501 0
M  V30 196 H 20.1631 2.09462 2.0787 0
M  V30 197 H 20.2441 2.53168 0.366027 0
M  V30 198 H 19.8881 4.98018 0.997013 0
M  V30 199 H 19.8181 4.5124 2.71459 0
M  V30 200 H 22.3091 3.42772 1.59108 0
M  V30 201 H 22.6221 7.24993 2.67592 0
M  V30 202 H 20.9671 6.51765 2.41304 0
M  V30 203 H 24.1581 4.28066 1.89412 0
M  V30 204 H 24.3311 6.02354 2.38902 0
M  V30 205 N 17.7372 -0.778329 1.37039 0
M  V30 206 C 18.9852 -1.53361 1.31623 0
M  V30 207 C 19.3062 -1.94739 -0.100831 0
M  V30 208 O 18.5762 -1.65797 -1.04347 0
M  V30 209 H 17.1562 -0.568794 0.484234 0
M  V30 210 H 19.8182 -0.926742 1.71457 0
M  V30 211 H 18.9142 -2.43606 1.95096 0
M  V30 212 N 19.2153 -1.21501 -1.00376 0
M  V30 213 C 20.1783 -0.976927 -2.07337 0
M  V30 214 C 21.1783 0.0525322 -1.60714 0
M  V30 215 O 22.3683 -0.184869 -1.73216 0
M  V30 216 C 19.5003 -0.473423 -3.37597 0
M  V30 217 H 20.6933 -1.92587 -2.29892 0
M  V30 218 H 18.2463 -1.03217 -1.17371 0
M  V30 219 H 18.9813 0.480379 -3.20722 0
M  V30 220 H 18.7663 -1.216 -3.72768 0
M  V30 221 H 20.2563 -0.32675 -4.1632 0
M  V30 222 N 20.6934 1.19889 -1.02296 0
M  V30 223 C 21.6034 2.26571 -0.608508 0
M  V30 224 C 22.6194 1.70299 0.356964 0
M  V30 225 O 23.7954 2.00235 0.216326 0
M  V30 226 C 20.8604 3.46677 0.0402814 0
M  V30 227 C 19.9214 4.18153 -0.97194 0
M  V30 228 C 19.1544 5.32525 -0.354016 0
M  V30 229 O 19.3774 5.64112 0.844604 0
M  V30 230 O 18.3114 5.92242 -1.07391 0
M  V30 231 H 22.1374 2.64251 -1.49684 0
M  V30 232 H 19.7224 1.26629 -0.792809 0
M  V30 233 H 21.6044 4.19475 0.402324 0
M  V30 234 H 20.2794 3.10858 0.902707 0
M  V30 235 H 19.1864 3.47499 -1.38546 0
M  V30 236 H 20.5194 4.57927 -1.80454 0
M  V30 237 N 22.1715 0.800033 1.35784 0
M  V30 238 C 23.1345 0.211565 2.28221 0
M  V30 239 C 24.1345 -0.59728 1.49296 0
M  V30 240 O 25.3245 -0.416721 1.69142 0
M  V30 241 C 22.4565 -0.705846 3.33513 0
M  V30 242 H 23.6495 1.02677 2.81776 0
M  V30 243 H 21.2025 0.570211 1.45528 0
M  V30 244 H 21.9375 -1.54498 2.85133 0
M  V30 245 H 21.7225 -0.127655 3.91892 0
M  V30 246 H 23.2125 -1.11211 4.02519 0
M  V30 247 N 23.6496 -1.47581 0.552962 0
M  V30 248 C 24.8956 -2.02782 0.0273648 0
M  V30 249 C 25.2286 -1.42687 -1.31734 0
M  V30 250 O 24.5036 -0.580897 -1.85623 0
M  V30 251 C 24.7866 -3.60031 -0.0702371 0
M  V30 252 C 24.6396 -4.30566 1.30126 0
M  V30 253 C 25.9586 -4.33028 -0.785771 0
M  V30 254 H 23.0776 -0.736912 0.0114185 0
M  V30 255 H 25.7196 -1.76056 0.714432 0
M  V30 256 H 23.8696 -3.82932 -0.655382 0
M  V30 257 H 25.5416 -4.19018 1.92929 0
M  V30 258 H 23.7846 -3.91086 1.87709 0
M  V30 259 H 24.4556 -5.39114 1.18573 0
M  V30 260 H 26.9316 -4.15095 -0.288982 0
M  V30 261 H 25.8076 -5.42695 -0.823013 0
M  V30 262 H 26.0686 -4.01945 -1.841 0
M  V30 263 N 25.1277 -0.289203 -1.54924 0
M  V30 264 C 26.0777 0.606939 -2.19773 0
M  V30 265 C 27.0617 1.10783 -1.16687 0
M  V30 266 O 28.2537 1.05057 -1.4245 0
M  V30 267 C 25.3827 1.78398 -2.93307 0
M  V30 268 C 24.4687 1.29961 -4.03697 0
M  V30 269 N 24.8597 0.532377 -5.0299 0
M  V30 270 C 23.1577 1.58136 -4.17024 0
M  V30 271 C 23.8587 0.275912 -5.81045 0
M  V30 272 N 22.8347 0.852365 -5.36876 0
M  V30 273 H 26.6367 0.0130779 -2.93897 0
M  V30 274 H 24.1507 -0.09341 -1.62131 0
M  V30 275 H 26.1477 2.43741 -3.38225 0
M  V30 276 H 24.8077 2.38166 -2.20697 0
M  V30 277 H 25.8187 0.17838 -5.17593 0
M  V30 278 H 22.4957 2.18738 -3.55612 0
M  V30 279 H 23.8857 -0.339502 -6.71042 0
M  V30 280 N 26.6058 1.57591 -0.0167156 0
M  V30 281 C 27.8358 1.95292 0.674149 0
M  V30 282 C 28.2438 0.891097 1.66901 0
M  V30 283 O 27.5868 -0.136908 1.83189 0
M  V30 284 C 27.6488 3.29072 1.44747 0
M  V30 285 C 27.3128 4.52879 0.612331 0
M  V30 286 C 28.3098 5.1979 -0.107126 0
M  V30 287 C 25.9948 4.99242 0.553381 0
M  V30 288 C 27.9888 6.31375 -0.874339 0
M  V30 289 C 25.6758 6.10713 -0.217546 0
M  V30 290 C 26.6738 6.76637 -0.930123 0
M  V30 291 O 26.3618 7.85969 -1.68844 0
M  V30 292 H 26.0938 0.648275 0.191615 0
M  V30 293 H 28.6478 2.05284 -0.0690148 0
M  V30 294 H 26.8778 3.15535 2.2355 0
M  V30 295 H 28.5668 3.51764 2.02526 0
M  V30 296 H 29.3328 4.84948 -0.0708392 0
M  V30 297 H 25.2118 4.47744 1.09757 0
M  V30 298 H 28.7558 6.82764 -1.43106 0
M  V30 299 H 24.6528 6.44994 -0.255593 0
M  V30 300 H 25.4208 8.02571 -1.6069 0
M  V30 301 N 28.0839 -0.256276 1.55502 0
M  V30 302 C 29.3329 -0.983486 1.76098 0
M  V30 303 C 29.6459 -1.86837 0.578896 0
M  V30 304 O 30.8519 -2.63163 0.667648 0
M  V30 305 C 29.3079 -1.79868 3.1173 0
M  V30 306 C 28.9159 -0.961648 4.37557 0
M  V30 307 C 30.6599 -2.51919 3.41668 0
M  V30 308 C 28.5669 -1.77219 5.64223 0
M  V30 309 H 27.4969 -0.370936 0.656447 0
M  V30 310 H 30.1479 -0.238492 1.81944 0
M  V30 311 H 28.5299 -2.58527 2.99966 0
M  V30 312 H 29.7039 -0.218048 4.60284 0
M  V30 313 H 28.0189 -0.354913 4.14885 0
M  V30 314 H 30.6159 -3.12998 4.33516 0
M  V30 315 H 30.9589 -3.23059 2.62562 0
M  V30 316 H 31.4919 -1.80278 3.54605 0
M  V30 317 H 28.2309 -1.10471 6.46124 0
M  V30 318 H 27.7509 -2.49132 5.45613 0
M  V30 319 H 29.4299 -2.34169 6.03137 0
M  V30 320 N 29.562 -1.4872 -0.521534 0
M  V30 321 C 30.81 -1.56857 -1.27437 0
M  V30 322 C 31.131 -0.247982 -1.93417 0
M  V30 323 O 30.401 0.731151 -1.81744 0
M  V30 324 H 28.981 -0.577885 -0.473347 0
M  V30 325 H 31.643 -1.85233 -0.606205 0
M  V30 326 H 30.739 -2.35402 -2.0492 0
M  V30 327 N 31.0401 0.771051 -1.3745 0
M  V30 328 C 32.2651 1.56529 -1.36065 0
M  V30 329 C 32.6901 1.88029 0.0515859 0
M  V30 330 O 32.0481 1.49282 1.02882 0
M  V30 331 C 32.0961 2.85187 -2.20683 0
M  V30 332 O 31.2001 3.79593 -1.61193 0
M  V30 333 H 30.5411 0.47411 -0.464883 0
M  V30 334 H 33.0711 0.954269 -1.80983 0
M  V30 335 H 33.0811 3.34283 -2.33921 0
M  V30 336 H 31.7561 2.61588 -3.23334 0
M  V30 337 H 30.3331 3.38239 -1.56999 0
M  V30 338 N 32.5182 1.22032 0.997298 0
M  V30 339 C 33.9342 0.979326 1.26021 0
M  V30 340 C 34.1342 -0.32972 1.98784 0
M  V30 341 O 33.1902 -1.05345 2.29475 0
M  V30 342 C 34.5032 2.17509 2.07631 0
M  V30 343 C 36.0512 2.21817 2.2083 0
M  V30 344 C 36.5262 3.40933 3.05825 0
M  V30 345 N 38.0172 3.41067 3.13412 0
M  V30 346 C 38.7522 4.29885 3.79455 0
M  V30 347 N 38.2482 5.28914 4.47462 0
M  V30 348 N 40.0412 4.17673 3.76173 0
M  V30 349 H 32.1922 2.06202 0.509352 0
M  V30 350 H 34.4552 0.90334 0.287541 0
M  V30 351 H 34.1612 3.12415 1.61524 0
M  V30 352 H 34.0352 2.17206 3.08385 0
M  V30 353 H 36.4222 1.27462 2.66153 0
M  V30 354 H 36.5032 2.2616 1.1952 0
M  V30 355 H 36.1472 4.35586 2.61203 0
M  V30 356 H 36.0772 3.33829 4.07266 0
M  V30 357 H 38.5682 2.69406 2.65007 0
M  V30 358 H 38.8812 5.92973 4.95583 0
M  V30 359 H 37.2262 5.32831 4.46224 0
M  V30 360 H 40.4172 3.39564 3.22202 0
M  V30 361 H 40.5902 4.87098 4.27363 0
M  V30 362 N 33.9963 -1.19345 1.0293 0
M  V30 363 C 34.9263 -2.2481 0.631105 0
M  V30 364 C 35.9073 -1.66245 -0.360104 0
M  V30 365 O 37.0923 -1.92677 -0.242726 0
M  V30 366 C 34.2223 -3.47295 -0.0184607 0
M  V30 367 C 33.1763 -4.18536 0.895073 0
M  V30 368 C 32.5023 -5.34586 0.110592 0
M  V30 369 C 33.8023 -4.73287 2.209 0
M  V30 370 H 35.4963 -2.58372 1.51275 0
M  V30 371 H 33.0423 -1.24194 0.728818 0
M  V30 372 H 34.9953 -4.20268 -0.308675 0
M  V30 373 H 33.7193 -3.12933 -0.934907 0
M  V30 374 H 32.3783 -3.47446 1.16949 0
M  V30 375 H 32.0263 -4.96469 -0.807902 0
M  V30 376 H 31.7263 -5.83183 0.719087 0
M  V30 377 H 33.2503 -6.10355 -0.172871 0
M  V30 378 H 34.6643 -5.38013 1.98028 0
M  V30 379 H 33.0613 -5.32373 2.76946 0
M  V30 380 H 34.1313 -3.91331 2.86336 0
M  V30 381 N 35.4744 -0.807222 -1.35358 0
M  V30 382 C 36.7224 -0.387122 -1.98358 0
M  V30 383 C 37.0434 1.04942 -1.64354 0
M  V30 384 O 36.3134 1.72615 -0.926339 0
M  V30 385 H 34.8934 -0.140154 -0.733734 0
M  V30 386 H 37.5554 -1.0332 -1.6526 0
M  V30 387 H 36.6514 -0.493352 -3.08176 0
M  V30 388 N 36.9525 1.47285 -0.560781 0
M  V30 389 C 38.3685 1.58065 -0.22081 0
M  V30 390 C 38.5685 1.55892 1.27671 0
M  V30 391 O 37.6245 1.46422 2.0571 0
M  V30 392 C 38.9375 2.88418 -0.850625 0
M  V30 393 C 40.4855 3.02009 -0.822184 0
M  V30 394 C 40.9605 4.35066 -1.43113 0
M  V30 395 N 42.4515 4.41711 -1.39448 0
M  V30 396 C 43.1865 5.43237 -1.83525 0
M  V30 397 N 42.6825 6.51555 -2.35474 0
M  V30 398 N 44.4755 5.34304 -1.74574 0
M  V30 399 H 36.6265 1.46941 -1.53369 0
M  V30 400 H 38.8895 0.699558 -0.639783 0
M  V30 401 H 38.5955 2.95755 -1.9032 0
M  V30 402 H 38.4695 3.75612 -0.345773 0
M  V30 403 H 40.8565 2.94266 0.221714 0
M  V30 404 H 40.9375 2.16347 -1.36483 0
M  V30 405 H 40.5815 4.43565 -2.47412 0
M  V30 406 H 40.5115 5.19465 -0.863899 0
M  V30 407 H 43.0025 3.64027 -1.01452 0
M  V30 408 H 43.3155 7.25203 -2.67021 0
M  V30 409 H 41.6605 6.52435 -2.39487 0
M  V30 410 H 44.8515 4.48581 -1.33763 0
M  V30 411 H 45.0245 6.13288 -2.09242 0
M  V30 412 N 38.4306 0.297415 1.54768 0
M  V30 413 C 39.6586 -0.315623 2.04478 0
M  V30 414 C 40.0736 -1.47792 1.17486 0
M  V30 415 O 39.4306 -1.81404 0.19971 0
M  V30 416 C 39.4816 -0.7753 3.53088 0
M  V30 417 O 39.2026 0.340732 4.36773 0
M  V30 418 C 40.7036 -1.45386 4.18781 0
M  V30 419 H 37.9236 -0.0690887 0.667434 0
M  V30 420 H 40.4676 0.436003 1.99798 0
M  V30 421 H 38.6226 -1.47696 3.58141 0
M  V30 422 H 39.0366 -0.0165035 5.24497 0
M  V30 423 H 40.5106 -1.72669 5.24299 0
M  V30 424 H 40.9876 -2.39275 3.68299 0
M  V30 425 H 41.5936 -0.795475 4.17795 0
M  V30 426 N 39.9087 -1.5758 0.0250728 0
M  V30 427 C 40.8387 -2.13007 -0.956575 0
M  V30 428 C 41.8197 -1.0452 -1.342 0
M  V30 429 O 43.0047 -1.32332 -1.42133 0
M  V30 430 C 40.1347 -2.65386 -2.24026 0
M  V30 431 C 39.0887 -3.78623 -1.99571 0
M  V30 432 C 38.4147 -4.17414 -3.3417 0
M  V30 433 C 39.7147 -5.04867 -1.33814 0
M  V30 434 H 41.4087 -2.9528 -0.494991 0
M  V30 435 H 38.9547 -1.42042 -0.236651 0
M  V30 436 H 40.9077 -3.02794 -2.93076 0
M  V30 437 H 39.6317 -1.80268 -2.72343 0
M  V30 438 H 38.2907 -3.41646 -1.32941 0
M  V30 439 H 37.9387 -3.29284 -3.80238 0
M  V30 440 H 37.6387 -4.93719 -3.18615 0
M  V30 441 H 39.1627 -4.57402 -4.04495 0
M  V30 442 H 40.5767 -5.39888 -1.92857 0
M  V30 443 H 38.9737 -5.86144 -1.28669 0
M  V30 444 H 40.0437 -4.83904 -0.310561 0
M  V30 445 N 41.3868 0.248026 -1.55636 0
M  V30 446 C 42.6148 0.993808 -1.81469 0
M  V30 447 C 43.0298 1.78991 -0.60064 0
M  V30 448 O 42.3868 1.77345 0.430682 0
M  V30 449 C 42.4378 1.93258 -3.05506 0
M  V30 450 O 42.1588 1.16869 -4.22224 0
M  V30 451 C 43.6598 2.79444 -3.4413 0
M  V30 452 H 40.8798 0.292486 -0.603898 0
M  V30 453 H 43.4238 0.271253 -2.02693 0
M  V30 454 H 41.5788 2.60943 -2.86335 0
M  V30 455 H 41.9928 1.80359 -4.92515 0
M  V30 456 H 43.4668 3.41066 -4.34026 0
M  V30 457 H 43.9438 3.50499 -2.64665 0
M  V30 458 H 44.5498 2.17214 -3.65648 0
M  V30 459 N 42.8649 1.48995 0.513639 0
M  V30 460 C 44.1129 1.57531 1.26604 0
M  V30 461 C 44.4339 0.258236 1.93283 0
M  V30 462 O 43.7039 -0.721502 1.8213 0
M  V30 463 H 42.2839 0.580387 0.470276 0
M  V30 464 H 44.9459 1.85552 0.596373 0
M  V30 465 H 44.0419 2.36486 2.03669 0
M  V30 466 N 44.343 -0.763751 1.37857 0
M  V30 467 C 45.589 -1.52396 1.3471 0
M  V30 468 C 45.944 -1.92288 -0.0656435 0
M  V30 469 O 45.237 -1.6181 -1.02606 0
M  V30 470 C 45.431 -2.79499 2.22745 0
M  V30 471 C 45.26 -2.52031 3.72438 0
M  V30 472 C 44.03 -2.45759 4.4151 0
M  V30 473 C 46.228 -2.19489 4.65112 0
M  V30 474 N 44.21 -2.1046 5.76697 0
M  V30 475 C 45.581 -1.94396 5.88736 0
M  V30 476 C 47.636 -2.05712 4.53417 0
M  V30 477 C 46.339 -1.56917 7.01975 0
M  V30 478 C 48.365 -1.69634 5.66549 0
M  V30 479 C 47.727 -1.45407 6.89229 0
M  V30 480 H 43.826 -0.55765 0.548225 0
M  V30 481 H 46.41 -0.890302 1.73152 0
M  V30 482 H 44.581 -3.4069 1.86507 0
M  V30 483 H 46.313 -3.45465 2.10798 0
M  V30 484 H 43.068 -2.61885 3.94605 0
M  V30 485 H 43.492 -1.95484 6.48163 0
M  V30 486 H 48.134 -2.23123 3.59133 0
M  V30 487 H 45.852 -1.38246 7.96187 0
M  V30 488 H 49.438 -1.59621 5.59475 0
M  V30 489 H 48.318 -1.17904 7.75286 0
M  V30 490 N 45.8211 -1.22559 -0.990812 0
M  V30 491 C 47.0671 -1.05297 -1.73322 0
M  V30 492 C 47.4001 0.410655 -1.89808 0
M  V30 493 O 46.6751 1.30439 -1.44277 0
M  V30 494 C 46.9581 -1.76713 -3.13759 0
M  V30 495 C 46.8111 -3.30684 -3.04907 0
M  V30 496 C 48.1301 -1.52121 -4.12974 0
M  V30 497 H 45.2491 -0.38392 -0.629106 0
M  V30 498 H 47.8911 -1.50926 -1.15418 0
M  V30 499 H 46.0411 -1.37924 -3.63193 0
M  V30 500 H 47.7131 -3.7893 -2.63077 0
M  V30 501 H 45.9561 -3.60253 -2.41661 0
M  V30 502 H 46.6271 -3.75833 -4.04294 0
M  V30 503 H 49.1031 -1.85819 -3.72304 0
M  V30 504 H 47.9791 -2.04582 -5.0935 0
M  V30 505 H 48.2401 -0.454257 -4.3976 0
M  V30 506 N 47.2992 1.18797 -1.03562 0
M  V30 507 C 48.2312 2.21731 -0.580337 0
M  V30 508 C 49.2442 1.59051 0.347349 0
M  V30 509 O 50.4332 1.77929 0.142669 0
M  V30 510 C 47.5332 3.38459 0.172805 0
M  V30 511 C 46.7062 4.3072 -0.761496 0
M  V30 512 C 45.7652 5.26174 -0.0525547 0
M  V30 513 O 44.7912 5.65108 -0.681333 0
M  V30 514 N 45.9932 5.67624 1.21586 0
M  V30 515 H 48.7582 2.61417 -1.46565 0
M  V30 516 H 46.3192 1.33531 -0.915476 0
M  V30 517 H 48.3112 3.99335 0.656793 0
M  V30 518 H 46.8812 2.97507 0.959602 0
M  V30 519 H 46.1012 3.67525 -1.42544 0
M  V30 520 H 47.3892 4.89267 -1.39626 0
M  V30 521 H 46.7872 5.38038 1.74732 0
M  V30 522 H 45.3442 6.30721 1.64421 0
M  V30 523 N 48.7773 0.814389 1.34928 0
M  V30 524 C 50.1933 0.499084 1.51596 0
M  V30 525 C 50.3933 -0.978319 1.76157 0
M  V30 526 O 49.4493 -1.76309 1.80752 0
M  V30 527 C 50.7623 1.35121 2.68631 0
M  V30 528 C 52.3103 1.34746 2.82511 0
M  V30 529 C 52.7853 2.18388 4.0258 0
M  V30 530 N 54.2763 2.15966 4.09772 0
M  V30 531 C 55.0113 2.77437 5.01813 0
M  V30 532 N 54.5073 3.47866 5.99134 0
M  V30 533 N 56.3003 2.67037 4.94619 0
M  V30 534 H 48.4513 1.7711 1.17243 0
M  V30 535 H 50.7143 0.754256 0.574284 0
M  V30 536 H 50.4203 2.40001 2.57085 0
M  V30 537 H 50.2943 1.00991 3.63429 0
M  V30 538 H 52.6813 0.30648 2.93504 0
M  V30 539 H 52.7623 1.72869 1.88547 0
M  V30 540 H 52.4063 3.2253 3.92347 0
M  V30 541 H 52.3363 1.77621 4.9574 0
M  V30 542 H 54.8273 1.64729 3.40107 0
M  V30 543 H 55.1403 3.92038 6.65977 0
M  V30 544 H 53.4853 3.51972 5.99284 0
M  V30 545 H 56.6763 2.11597 4.17546 0
M  V30 546 H 56.8493 3.15232 5.66156 0
M  V30 547 N 50.2554 -1.46986 0.568584 0
M  V30 548 C 51.4834 -2.0683 0.0539956 0
M  V30 549 C 51.8984 -1.41953 -1.24478 0
M  V30 550 O 51.2554 -0.519933 -1.74937 0
M  V30 551 C 51.3064 -3.61254 -0.133362 0
M  V30 552 O 51.0274 -4.237 1.11399 0
M  V30 553 C 52.5284 -4.37992 -0.683927 0
M  V30 554 H 49.7484 -0.669058 0.0510141 0
M  V30 555 H 52.2924 -1.88824 0.785234 0
M  V30 556 H 50.4474 -3.78735 -0.81477 0
M  V30 557 H 50.8614 -5.16388 0.91888 0
M  V30 558 H 52.3354 -5.46684 -0.764263 0
M  V30 559 H 52.8124 -4.05058 -1.69778 0
M  V30 560 H 53.4184 -4.25283 -0.0378494 0
M  V30 561 N 51.7335 -0.305618 -1.54608 0
M  V30 562 C 52.9805 0.302298 -2.00231 0
M  V30 563 C 53.3085 1.5354 -1.19398 0
M  V30 564 O 52.5635 1.93973 -0.259423 0
M  V30 565 C 52.8625 0.698983 -3.50498 0
M  V30 566 C 52.5285 -0.432903 -4.48817 0
M  V30 567 C 51.1905 -0.743622 -4.75419 0
M  V30 568 C 53.5425 -1.19409 -5.07337 0
M  V30 569 C 50.8705 -1.81857 -5.57804 0
M  V30 570 C 53.2225 -2.25899 -5.90891 0
M  V30 571 C 51.8865 -2.57572 -6.15803 0
M  V30 572 H 51.1565 0.110619 -0.732697 0
M  V30 573 H 53.8035 -0.425674 -1.86709 0
M  V30 574 H 52.1085 1.50711 -3.61654 0
M  V30 575 H 53.8055 1.1806 -3.83227 0
M  V30 576 H 50.3955 -0.18063 -4.28219 0
M  V30 577 H 54.5795 -0.967295 -4.86782 0
M  V30 578 H 49.8355 -2.06864 -5.75341 0
M  V30 579 H 54.0095 -2.85335 -6.35261 0
M  V30 580 H 51.6365 -3.40998 -6.7943 0
M  V30 581 N 53.2116 1.57565 -0.0334293 0
M  V30 582 C 54.1436 2.0739 0.975811 0
M  V30 583 C 55.1566 0.998166 1.2861 0
M  V30 584 O 56.3456 1.27426 1.25 0
M  V30 585 C 53.4456 2.4871 2.30209 0
M  V30 586 C 52.6186 3.79413 2.17634 0
M  V30 587 C 51.6776 4.07237 3.33233 0
M  V30 588 O 50.7036 4.77425 3.09927 0
M  V30 589 N 51.9056 3.5775 4.5716 0
M  V30 590 H 54.6706 2.94598 0.55066 0
M  V30 591 H 52.2316 1.61173 0.15323 0
M  V30 592 H 54.2236 2.64413 3.06378 0
M  V30 593 H 52.7936 1.66845 2.64351 0
M  V30 594 H 52.0136 3.73465 1.26165 0
M  V30 595 H 53.3016 4.65038 2.0644 0
M  V30 596 H 52.6996 3.00976 4.78989 0
M  V30 597 H 51.2566 3.78724 5.30482 0
M  V30 598 N 54.6897 -0.239769 1.55765 0
M  V30 599 C 55.9147 -0.988373 1.82335 0
M  V30 600 C 56.3397 -1.77886 0.611421 0
M  V30 601 O 55.6977 -1.75889 -0.439639 0
M  V30 602 C 55.7457 -1.89627 3.06715 0
M  V30 603 O 54.8497 -2.98904 2.84131 0
M  V30 604 H 54.1907 -0.280858 0.601677 0
M  V30 605 H 56.7207 -0.258597 2.02959 0
M  V30 606 H 56.7307 -2.30957 3.36338 0
M  V30 607 H 55.4057 -1.31511 3.9456 0
M  V30 608 H 53.9827 -2.61651 2.65694 0
M  V30 609 N 56.1678 -1.49265 -0.50573 0
M  V30 610 C 57.3958 -1.62215 -1.28429 0
M  V30 611 C 57.8108 -0.291697 -1.86533 0
M  V30 612 O 57.1678 0.722233 -1.67601 0
M  V30 613 C 57.2188 -2.68735 -2.41793 0
M  V30 614 O 56.9398 -3.96619 -1.86078 0
M  V30 615 C 58.4408 -2.92346 -3.3324 0
M  V30 616 H 55.6608 -0.546239 -0.389697 0
M  V30 617 H 58.2048 -1.95265 -0.607609 0
M  V30 618 H 56.3598 -2.38476 -3.053 0
M  V30 619 H 56.7738 -4.55256 -2.60465 0
M  V30 620 H 58.2478 -3.70623 -4.09075 0
M  V30 621 H 58.7248 -2.02081 -3.89948 0
M  V30 622 H 59.3308 -3.24003 -2.75503 0
M  V30 623 N 57.6459 0.756429 -1.3826 0
M  V30 624 C 58.5779 1.87971 -1.31147 0
M  V30 625 C 59.5909 1.61248 -0.224239 0
M  V30 626 O 60.7799 1.71881 -0.481581 0
M  V30 627 C 57.8799 3.23545 -1.00857 0
M  V30 628 C 57.0529 3.77794 -2.20432 0
M  V30 629 C 56.1119 4.91877 -1.86931 0
M  V30 630 O 55.1379 5.06659 -2.59395 0
M  V30 631 N 56.3399 5.74643 -0.822568 0
M  V30 632 H 59.1049 1.94585 -2.2794 0
M  V30 633 H 56.6659 0.936234 -1.32084 0
M  V30 634 H 58.6579 3.97403 -0.765021 0
M  V30 635 H 57.2279 3.12335 -0.128687 0
M  V30 636 H 56.4479 2.95534 -2.6087 0
M  V30 637 H 57.7359 4.10771 -3.00241 0
M  V30 638 H 57.1339 5.65266 -0.221575 0
M  V30 639 H 55.6909 6.48661 -0.638899 0
M  V30 640 N 59.124 1.23083 0.984299 0
M  V30 641 C 60.087 1.00979 2.05757 0
M  V30 642 C 61.087 -0.0269573 1.60777 0
M  V30 643 O 62.277 0.212403 1.729 0
M  V30 644 C 59.409 0.527072 3.36801 0
M  V30 645 H 60.602 1.9622 2.26799 0
M  V30 646 H 58.155 1.05072 1.15714 0
M  V30 647 H 58.89 -0.429294 3.21446 0
M  V30 648 H 58.675 1.27515 3.70786 0
M  V30 649 H 60.165 0.392942 4.15747 0
M  V30 650 N 60.6021 -1.18246 1.0419 0
M  V30 651 C 61.5651 -2.20128 0.638452 0
M  V30 652 C 62.5651 -1.57885 -0.304805 0
M  V30 653 O 63.7551 -1.73967 -0.0900369 0
M  V30 654 C 60.8871 -3.4084 -0.0637751 0
M  V30 655 H 62.0801 -2.57336 1.54007 0
M  V30 656 H 59.6331 -1.32152 0.834598 0
M  V30 657 H 60.3681 -3.09166 -0.979136 0
M  V30 658 H 60.1531 -3.8726 0.614198 0
M  V30 659 H 61.6431 -4.16274 -0.332512 0
M  V30 660 N 62.0802 -0.821533 -1.34494 0
M  V30 661 C 63.3082 -0.421884 -2.02553 0
M  V30 662 C 63.7232 0.971745 -1.61872 0
M  V30 663 O 63.0802 1.62864 -0.823496 0
M  V30 664 C 63.1312 -0.51285 -3.57844 0
M  V30 665 O 62.8522 -1.85155 -3.97051 0
M  V30 666 C 64.3532 -0.107921 -4.43169 0
M  V30 667 H 61.5732 -0.169482 -0.649243 0
M  V30 668 H 64.1172 -1.1093 -1.71798 0
M  V30 669 H 62.2722 0.126474 -3.87193 0
M  V30 670 H 62.6862 -1.82482 -4.91732 0
M  V30 671 H 64.1602 -0.222657 -5.51551 0
M  V30 672 H 64.6372 0.948401 -4.28838 0
M  V30 673 H 65.2432 -0.720989 -4.19144 0
M  V30 674 N 63.5583 1.46682 -0.576371 0
M  V30 675 C 64.5213 2.28707 0.150239 0
M  V30 676 C 65.5213 1.38035 0.824794 0
M  V30 677 O 66.7113 1.60476 0.677719 0
M  V30 678 C 63.8433 3.18248 1.22192 0
M  V30 679 H 65.0363 2.94423 -0.570521 0
M  V30 680 H 62.5893 1.52688 -0.334078 0
M  V30 681 H 63.3243 2.57265 1.97447 0
M  V30 682 H 63.1093 3.85 0.742812 0
M  V30 683 H 64.5993 3.80001 1.73172 0
M  V30 684 N 65.0364 0.313813 1.54444 0
M  V30 685 C 66.2614 -0.296681 2.05267 0
M  V30 686 C 66.6864 -1.45757 1.18897 0
M  V30 687 O 66.0444 -1.80239 0.195886 0
M  V30 688 C 66.0924 -0.71831 3.53373 0
M  V30 689 O 65.1964 -1.82175 3.69981 0
M  V30 690 H 64.5374 -0.0554061 0.661684 0
M  V30 691 H 67.0674 0.459387 1.99376 0
M  V30 692 H 67.0774 -1.00364 3.95463 0
M  V30 693 H 65.7524 0.130821 4.15694 0
M  V30 694 H 64.3294 -1.53598 3.39797 0
M  V30 695 N 66.5145 -1.57545 0.0417849 0
M  V30 696 C 67.7395 -1.97035 -0.647455 0
M  V30 697 C 68.1645 -0.918775 -1.64135 0
M  V30 698 O 67.5225 0.119006 -1.80909 0
M  V30 699 C 67.5705 -3.35609 -1.31905 0
M  V30 700 O 66.6745 -3.3287 -2.43457 0
M  V30 701 H 66.0155 -0.64211 -0.169086 0
M  V30 702 H 68.5455 -2.04318 0.107399 0
M  V30 703 H 68.5555 -3.72126 -1.67291 0
M  V30 704 H 67.2305 -4.11685 -0.590586 0
M  V30 705 H 65.8075 -3.08087 -2.10088 0
M  V30 706 N 67.9926 0.231505 -1.5589 0
M  V30 707 C 69.4086 0.580748 -1.48659 0
M  V30 708 C 69.6086 1.87617 -0.73498 0
M  V30 709 O 68.6646 2.51046 -0.270586 0
M  V30 710 C 69.9776 0.669202 -2.93159 0
M  V30 711 C 71.5256 0.760499 -3.03621 0
M  V30 712 C 72.0006 0.880383 -4.49459 0
M  V30 713 N 73.4916 0.944861 -4.53461 0
M  V30 714 C 74.2266 1.05716 -5.63571 0
M  V30 715 N 73.7226 1.13403 -6.83456 0
M  V30 716 N 75.5156 1.09152 -5.514 0
M  V30 717 H 67.6666 -0.618695 -2.03189 0
M  V30 718 H 69.9296 -0.215728 -0.923128 0
M  V30 719 H 69.6356 -0.212904 -3.51055 0
M  V30 720 H 69.5096 1.5361 -3.44505 0
M  V30 721 H 71.8966 1.63305 -2.45796 0
M  V30 722 H 71.9776 -0.131864 -2.5546 0
M  V30 723 H 71.6216 0.0123284 -5.07899 0
M  V30 724 H 71.5516 1.78802 -4.95316 0
M  V30 725 H 74.0426 0.896176 -3.6712 0
M  V30 726 H 74.3556 1.21921 -7.63122 0
M  V30 727 H 72.7006 1.10333 -6.86186 0
M  V30 728 H 75.8916 1.02805 -4.56671 0
M  V30 729 H 76.0646 1.17558 -6.37247 0
M  V30 730 N 69.4707 1.49531 0.497807 0
M  V30 731 C 70.4187 1.66926 1.61983 0
M  V30 732 C 71.4127 0.535167 1.60724 0
M  V30 733 O 72.6187 0.714896 1.65195 0
M  V30 734 H 68.9937 0.526415 0.537021 0
M  V30 735 H 70.9647 2.61098 1.44465 0
M  V30 736 C 69.7137 1.75602 3.00099 0
M  V30 737 H 69.0367 2.62244 3.01775 0
M  V30 738 H 70.4767 1.91807 3.78135 0
M  V30 739 C 68.9357 0.501543 3.33146 0
M  V30 740 O 69.4657 -0.371342 3.9998 0
M  V30 741 N 67.6717 0.363531 2.88317 0
M  V30 742 H 67.2187 1.07485 2.34104 0
M  V30 743 H 67.1767 -0.474728 3.10795 0
M  V30 744 N 70.9488 -0.749086 1.3866 0
M  V30 745 C 72.1738 -1.54344 1.38538 0
M  V30 746 C 72.5988 -1.88088 -0.0216655 0
M  V30 747 O 71.9568 -1.50899 -1.00494 0
M  V30 748 C 72.0048 -2.8164 2.25192 0
M  V30 749 O 71.1088 -3.7698 1.67212 0
M  V30 750 H 70.4498 -0.466654 0.472367 0
M  V30 751 H 72.9798 -0.925355 1.82478 0
M  V30 752 H 72.9898 -3.30519 2.3921 0
M  V30 753 H 71.6648 -2.56411 3.27454 0
M  V30 754 H 70.2418 -3.35699 1.6236 0
M  V30 755 N 72.4269 -1.23603 -0.977757 0
M  V30 756 C 73.6669 -1.08148 -1.73446 0
M  V30 757 C 74.0309 0.374785 -1.88307 0
M  V30 758 O 75.2319 0.650588 -2.60808 0
M  V30 759 C 73.5029 -1.78991 -3.0935 0
M  V30 760 S 75.0619 -1.79141 -4.00567 0
M  V30 761 H 71.8799 -0.386987 -0.596458 0
M  V30 762 H 74.4819 -1.5678 -1.16792 0
M  V30 763 H 73.1859 -2.8408 -2.96187 0
M  V30 764 H 72.7169 -1.30651 -3.71071 0
M  V30 765 H 74.7319 -0.851892 -4.88833 0
M  V30 766 N 73.905 1.17692 -1.04816 0
M  V30 767 C 74.868 2.19787 -0.650117 0
M  V30 768 C 75.868 1.58044 0.296427 0
M  V30 769 O 77.058 1.74012 0.0808097 0
M  V30 770 C 74.19 3.40869 0.0456987 0
M  V30 771 H 75.383 2.56516 -1.5537 0
M  V30 772 H 72.936 1.31708 -0.841594 0
M  V30 773 H 73.671 3.09681 0.962726 0
M  V30 774 H 73.456 3.86928 -0.634727 0
M  V30 775 H 74.946 4.16445 0.310432 0
M  V30 776 N 75.3831 0.828654 1.34056 0
M  V30 777 C 76.3461 0.259927 2.27721 0
M  V30 778 C 77.3461 -0.565478 1.50529 0
M  V30 779 O 78.5361 -0.38075 1.69988 0
M  V30 780 C 75.6681 -0.634944 3.34935 0
M  V30 781 H 76.8611 1.0863 2.79534 0
M  V30 782 H 74.4141 0.600951 1.44285 0
M  V30 783 H 75.1491 -1.48416 2.88346 0
M  V30 784 H 74.9341 -0.0444999 3.92075 0
M  V30 785 H 76.4241 -1.02648 4.04788 0
M  V30 786 N 76.8612 -1.46375 0.584142 0
M  V30 787 C 78.1382 -1.956 0.0033388 0
M  V30 788 C 78.5182 -1.52679 -1.45782 0
M  V30 789 O 77.8662 -0.77816 -2.14842 0
M  V30 790 C 78.0762 -3.48551 0.176891 0
M  V30 791 C 79.4242 -4.24576 0.0454609 0
M  V30 792 O 80.4482 -3.56043 0.105801 0
M  V30 793 O 79.3072 -5.46427 -0.0890376 0
M  V30 794 H 76.4012 -0.825547 -0.0490066 0
M  V30 795 H 78.9472 -1.56652 0.65256 0
M  V30 796 H 77.7192 -3.72683 1.1926 0
M  V30 797 H 77.3422 -3.94332 -0.508695 0
M  V30 798 N 78.3393 -0.321999 -1.54275 0
M  V30 799 C 79.6163 0.335232 -1.92706 0
M  V30 800 C 79.9963 1.70006 -1.25145 0
M  V30 801 O 79.3443 2.25067 -0.394596 0
M  V30 802 C 79.5543 0.429008 -3.46353 0
M  V30 803 C 80.9023 0.690029 -4.18956 0
M  V30 804 O 81.9263 0.511992 -3.52501 0
M  V30 805 O 80.7853 1.03338 -5.36641 0
M  V30 806 H 77.8793 0.191143 -0.804608 0
M  V30 807 H 80.4253 -0.3716 -1.65581 0
M  V30 808 H 79.1973 -0.529611 -3.87699 0
M  V30 809 H 78.8203 1.18348 -3.79578 0
M  V30 810 N 79.8174 1.5752 -0.0501392 0
M  V30 811 C 80.7644 2.1147 0.924603 0
M  V30 812 C 81.7344 1.02182 1.30951 0
M  V30 813 O 82.9194 1.29723 1.39916 0
M  V30 814 C 80.0594 2.66337 2.19451 0
M  V30 815 C 79.1724 3.89708 1.86418 0
M  V30 816 C 78.3074 4.32893 3.07859 0
M  V30 817 C 77.3464 5.48967 2.70742 0
M  V30 818 N 76.4834 5.87211 3.84874 0
M  V30 819 H 81.3234 2.94465 0.457639 0
M  V30 820 H 78.8604 1.45531 0.214266 0
M  V30 821 H 80.8184 2.96247 2.93758 0
M  V30 822 H 79.4484 1.86141 2.63726 0
M  V30 823 H 78.5004 3.66396 1.02264 0
M  V30 824 H 79.8124 4.74074 1.55096 0
M  V30 825 H 78.9664 4.6435 3.90466 0
M  V30 826 H 77.7054 3.47336 3.42358 0
M  V30 827 H 76.7104 5.17183 1.86551 0
M  V30 828 H 77.9354 6.3624 2.37436 0
M  V30 829 H 75.8814 5.04607 4.19175 0
M  V30 830 H 75.7984 6.66266 3.57247 0
M  V30 831 H 77.0664 6.23282 4.68123 0
M  V30 832 N 81.2955 -0.223234 1.56011 0
M  V30 833 C 82.2585 -1.26014 1.9145 0
M  V30 834 C 83.2585 -1.3989 0.792937 0
M  V30 835 O 84.4485 -1.38184 1.0607 0
M  V30 836 C 81.5805 -2.63422 2.16383 0
M  V30 837 H 82.7735 -0.95796 2.84189 0
M  V30 838 H 80.3265 -0.463576 1.49267 0
M  V30 839 H 81.0615 -2.98741 1.2619 0
M  V30 840 H 80.8465 -2.54728 2.98088 0
M  V30 841 H 82.3365 -3.38249 2.44903 0
M  V30 842 N 82.7736 -1.49793 -0.48987 0
M  V30 843 C 84.0016 -1.63568 -1.26701 0
M  V30 844 C 84.4166 -0.311465 -1.86213 0
M  V30 845 O 83.7736 0.704416 -1.68357 0
M  V30 846 C 83.8246 -2.71284 -2.38929 0
M  V30 847 O 83.5456 -3.9857 -1.81861 0
M  V30 848 C 85.0466 -2.95864 -3.3012 0
M  V30 849 H 82.2666 -0.550342 -0.383881 0
M  V30 850 H 84.8106 -1.95898 -0.586864 0
M  V30 851 H 82.9656 -2.417 -3.02753 0
M  V30 852 H 83.3796 -4.57993 -2.55622 0
M  V30 853 H 84.8536 -3.74941 -4.05121 0
M  V30 854 H 85.3306 -2.06206 -3.87783 0
M  V30 855 H 85.9366 -3.26907 -2.72051 0
M  V30 856 N 84.2517 0.741722 -1.39055 0
M  V30 857 C 85.1617 1.88621 -1.39496 0
M  V30 858 C 86.1777 1.71557 -0.290578 0
M  V30 859 O 87.3537 1.94275 -0.530954 0
M  V30 860 C 84.4187 3.24134 -1.23037 0
M  V30 861 C 83.4797 3.5364 -2.43387 0
M  V30 862 C 82.7127 4.82687 -2.27703 0
M  V30 863 O 82.9357 5.55922 -1.27696 0
M  V30 864 O 81.8697 5.1194 -3.16545 0
M  V30 865 H 85.6957 1.91203 -2.35956 0
M  V30 866 H 83.2807 0.888625 -1.20099 0
M  V30 867 H 85.1627 4.0513 -1.15964 0
M  V30 868 H 83.8377 3.22337 -0.296691 0
M  V30 869 H 82.7447 2.72758 -2.56035 0
M  V30 870 H 84.0777 3.60209 -3.35425 0
M  V30 871 N 85.7298 1.2412 0.971189 0
M  V30 872 C 87.1408 1.07236 1.52831 0
M  V30 873 C 87.4918 -0.357352 1.92918 0
M  V30 874 O 86.6168 -1.24528 1.76979 0
M  V30 875 C 87.2118 1.94043 2.77728 0
M  V30 876 C 85.7708 1.81394 3.29808 0
M  V30 877 C 84.9178 1.89189 2.02738 0
M  V30 878 H 87.8688 1.37648 0.789864 0
M  V30 879 H 87.8898 1.47066 3.5093 0
M  V30 880 H 87.4018 2.98093 2.4852 0
M  V30 881 H 85.5028 0.801634 3.63874 0
M  V30 882 H 85.6158 2.65294 3.98944 0
M  V30 883 H 83.9798 1.32877 2.17292 0
M  V30 884 H 84.7628 2.94812 1.759 0
M  V30 885 N 87.2079 -1.17134 1.05439 0
M  V30 886 C 88.1379 -2.2342 0.678649 0
M  V30 887 C 89.1189 -1.66971 -0.32476 0
M  V30 888 O 90.3039 -1.93149 -0.201802 0
M  V30 889 C 87.4339 -3.47256 0.0552099 0
M  V30 890 C 86.3879 -4.16543 0.98365 0
M  V30 891 C 85.7139 -5.34231 0.223961 0
M  V30 892 C 87.0139 -4.68495 2.3089 0
M  V30 893 H 88.7079 -2.55105 1.56722 0
M  V30 894 H 86.2539 -1.2262 0.754998 0
M  V30 895 H 88.2069 -4.20828 -0.21946 0
M  V30 896 H 86.9309 -3.14846 -0.868319 0
M  V30 897 H 85.5899 -3.44887 1.24293 0
M  V30 898 H 85.2379 -4.98071 -0.702412 0
M  V30 899 H 84.9379 -5.81527 0.842627 0
M  V30 900 H 86.4619 -6.10585 -0.0433671 0
M  V30 901 H 87.8759 -5.33691 2.09396 0
M  V30 902 H 86.2729 -5.26379 2.88176 0
M  V30 903 H 87.3429 -3.85169 2.94572 0
M  V30 904 N 88.686 -0.835752 -1.33615 0
M  V30 905 C 90.097 -0.487099 -1.80234 0
M  V30 906 C 90.448 0.993627 -1.69179 0
M  V30 907 O 89.573 1.77403 -1.23924 0
M  V30 908 C 90.168 -0.877385 -3.27242 0
M  V30 909 C 88.727 -0.580915 -3.7189 0
M  V30 910 C 87.874 -1.0874 -2.5509 0
M  V30 911 H 90.825 -1.02474 -1.2118 0
M  V30 912 H 90.846 -0.186195 -3.80044 0
M  V30 913 H 90.358 -1.95512 -3.35256 0
M  V30 914 H 88.459 0.486881 -3.69405 0
M  V30 915 H 88.572 -1.13396 -4.65487 0
M  V30 916 H 86.936 -0.508392 -2.49575 0
M  V30 917 H 87.719 -2.17184 -2.65868 0
M  V30 918 N 90.1641 1.46063 -0.591896 0
M  V30 919 C 91.1111 2.30399 0.136069 0
M  V30 920 C 92.0811 1.41169 0.875238 0
M  V30 921 O 93.2661 1.70112 0.86409 0
M  V30 922 C 90.4061 3.25804 1.13781 0
M  V30 923 C 89.5191 4.30134 0.401137 0
M  V30 924 C 88.6541 5.12659 1.39121 0
M  V30 925 C 87.6931 6.0873 0.641462 0
M  V30 926 N 86.8301 6.8409 1.58004 0
M  V30 927 H 91.6701 2.92118 -0.589144 0
M  V30 928 H 89.2071 1.43959 -0.302342 0
M  V30 929 H 91.1651 3.79569 1.73156 0
M  V30 930 H 89.7951 2.65872 1.83062 0
M  V30 931 H 88.8471 3.79152 -0.307826 0
M  V30 932 H 90.1591 4.98458 -0.184565 0
M  V30 933 H 89.3131 5.70747 2.05749 0
M  V30 934 H 88.0521 4.44316 2.01084 0
M  V30 935 H 87.0571 5.49786 -0.0385419 0
M  V30 936 H 88.2821 6.79095 0.0270945 0
M  V30 937 H 86.2281 6.18449 2.18761 0
M  V30 938 H 86.1451 7.48709 1.04738 0
M  V30 939 H 87.4131 7.4673 2.23639 0
M  V30 940 N 91.6422 0.330177 1.54103 0
M  V30 941 C 92.9192 -0.325007 1.92881 0
M  V30 942 C 93.2992 -1.6934 1.26045 0
M  V30 943 O 92.6472 -2.24855 0.406526 0
M  V30 944 C 92.8572 -0.410634 3.46576 0
M  V30 945 C 94.2052 -0.667801 4.19316 0
M  V30 946 O 95.2292 -0.49329 3.52768 0
M  V30 947 O 94.0882 -1.00491 5.37181 0
M  V30 948 H 91.1822 -0.186873 0.80561 0
M  V30 949 H 93.7282 0.380376 1.65382 0
M  V30 950 H 92.5002 0.550164 3.87413 0
M  V30 951 H 92.1232 -1.16333 3.802 0
M  V30 952 N 93.1203 -1.57491 0.0584922 0
M  V30 953 C 94.3603 -1.94851 -0.617458 0
M  V30 954 C 94.7243 -0.937165 -1.67575 0
M  V30 955 O 95.9253 -1.19795 -2.40629 0
M  V30 956 C 94.1963 -3.36955 -1.19147 0
M  V30 957 S 95.7553 -3.96277 -1.8844 0
M  V30 958 H 92.5733 -0.681539 -0.202547 0
M  V30 959 H 95.1753 -1.95073 0.129176 0
M  V30 960 H 93.8793 -4.08355 -0.409215 0
M  V30 961 H 93.4103 -3.40245 -1.97476 0
M  V30 962 H 95.4253 -3.82099 -3.16568 0
M  V30 963 N 94.5984 0.214957 -1.56127 0
M  V30 964 C 96.0094 0.781386 -1.69562 0
M  V30 965 C 96.3604 1.84707 -0.66165 0
M  V30 966 O 95.4854 2.156 0.185927 0
M  V30 967 C 96.0804 1.42411 -3.07416 0
M  V30 968 C 94.6394 1.93786 -3.22683 0
M  V30 969 C 93.7864 0.800438 -2.65496 0
M  V30 970 H 96.7374 -0.00980633 -1.58697 0
M  V30 971 H 96.7584 2.29309 -3.0364 0
M  V30 972 H 96.2704 0.64826 -3.82648 0
M  V30 973 H 94.3714 2.74152 -2.52332 0
M  V30 974 H 94.4844 2.1133 -4.29973 0
M  V30 975 H 92.8484 1.2095 -2.2415 0
M  V30 976 H 93.6314 0.0371471 -3.4328 0
M  V30 977 N 96.0765 1.50051 0.48192 0
M  V30 978 C 97.3225 1.60736 1.2366 0
M  V30 979 C 97.6555 0.301786 1.91841 0
M  V30 980 O 96.9305 -0.696025 1.8162 0
M  V30 981 C 97.2135 2.78009 2.28874 0
M  V30 982 C 97.0665 4.18416 1.65069 0
M  V30 983 C 98.3855 2.90867 3.30279 0
M  V30 984 H 95.5045 0.585031 0.448228 0
M  V30 985 H 98.1465 1.82402 0.531946 0
M  V30 986 H 96.2965 2.59667 2.88973 0
M  V30 987 H 97.9685 4.48322 1.0865 0
M  V30 988 H 96.2115 4.23177 0.954148 0
M  V30 989 H 96.8825 4.96381 2.41474 0
M  V30 990 H 99.3585 3.07623 2.80191 0
M  V30 991 H 98.2345 3.74566 4.01238 0
M  V30 992 H 98.4955 2.01021 3.93755 0
M  V30 993 N 97.5546 -0.734337 1.39446 0
M  V30 994 C 98.7796 -1.52866 1.40167 0
M  V30 995 C 99.2046 -1.881 -0.00171513 0
M  V30 996 O 98.5626 -1.51957 -0.988879 0
M  V30 997 C 98.6106 -2.79235 2.28167 0
M  V30 998 O 97.7146 -3.75185 1.71201 0
M  V30 999 H 97.0556 -0.461618 0.477289 0
M  V30 1000 H 99.5856 -0.905949 1.8345 0
M  V30 1001 H 99.5956 -3.27963 2.42702 0
M  V30 1002 H 98.2706 -2.52923 3.30156 0
M  V30 1003 H 96.8476 -3.33958 1.65912 0
M  V30 1004 N 99.0327 -1.24633 -0.964593 0
M  V30 1005 C 100.258 -1.11596 -1.74818 0
M  V30 1006 C 100.683 0.32723 -1.85232 0
M  V30 1007 O 100.041 1.23695 -1.32549 0
M  V30 1008 C 100.089 -1.76397 -3.1451 0
M  V30 1009 O 99.1927 -1.03685 -3.99153 0
M  V30 1010 H 98.5337 -0.390196 -0.537255 0
M  V30 1011 H 101.064 -1.65002 -1.20977 0
M  V30 1012 H 101.074 -1.8228 -3.65018 0
M  V30 1013 H 99.7487 -2.81401 -3.06246 0
M  V30 1014 H 98.3257 -1.05611 -3.57632 0
M  V30 1015 N 100.511 1.16574 -1.06058 0
M  V30 1016 C 101.741 1.90675 -0.795397 0
M  V30 1017 C 102.149 1.77547 0.653735 0
M  V30 1018 O 101.492 1.11611 1.45907 0
M  V30 1019 C 101.554 3.42011 -1.10764 0
M  V30 1020 C 101.218 3.78924 -2.55471 0
M  V30 1021 C 102.215 3.81042 -3.53699 0
M  V30 1022 C 99.8998 4.09626 -2.90708 0
M  V30 1023 C 101.894 4.13346 -4.85205 0
M  V30 1024 C 99.5808 4.41597 -4.22416 0
M  V30 1025 C 100.579 4.43436 -5.19474 0
M  V30 1026 O 100.267 4.74649 -6.48817 0
M  V30 1027 H 99.9988 0.611554 -0.288058 0
M  V30 1028 H 102.553 1.48711 -1.41683 0
M  V30 1029 H 100.783 3.84312 -0.429128 0
M  V30 1030 H 102.472 3.97384 -0.827077 0
M  V30 1031 H 103.238 3.57437 -3.27817 0
M  V30 1032 H 99.1168 4.07361 -2.15819 0
M  V30 1033 H 102.661 4.14696 -5.60957 0
M  V30 1034 H 98.5578 4.64667 -4.48056 0
M  V30 1035 H 99.3258 4.9247 -6.5377 0
M  V30 1036 N 101.989 0.842826 1.3317 0
M  V30 1037 C 102.937 0.267495 2.31057 0
M  V30 1038 C 103.931 -0.602682 1.58316 0
M  V30 1039 O 105.137 -0.491803 1.73151 0
M  V30 1040 H 101.512 0.0677813 0.748939 0
M  V30 1041 H 103.483 1.10754 2.77085 0
M  V30 1042 C 102.232 -0.539331 3.43492 0
M  V30 1043 H 101.555 0.12095 3.99617 0
M  V30 1044 H 102.995 -0.90767 4.14171 0
M  V30 1045 C 101.454 -1.71981 2.89697 0
M  V30 1046 O 101.984 -2.81862 2.86211 0
M  V30 1047 N 100.19 -1.54299 2.46252 0
M  V30 1048 H 99.7369 -0.649143 2.49287 0
M  V30 1049 H 99.6949 -2.33431 2.10612 0
M  V30 1050 N 103.467 -1.45747 0.599634 0
M  V30 1051 C 104.377 -2.34262 -0.125888 0
M  V30 1052 C 105.393 -1.50768 -0.868625 0
M  V30 1053 O 106.569 -1.83592 -0.828003 0
M  V30 1054 C 103.634 -3.28252 -1.11587 0
M  V30 1055 C 102.695 -4.27651 -0.375956 0
M  V30 1056 C 101.928 -5.1715 -1.31877 0
M  V30 1057 O 102.151 -5.09916 -2.55621 0
M  V30 1058 O 101.085 -5.96286 -0.820157 0
M  V30 1059 H 104.911 -2.97688 0.601315 0
M  V30 1060 H 102.496 -1.44999 0.359934 0
M  V30 1061 H 104.378 -3.86191 -1.68626 0
M  V30 1062 H 103.053 -2.67401 -1.82424 0
M  V30 1063 H 101.96 -3.7335 0.236698 0
M  V30 1064 H 103.293 -4.91334 0.29177 0
M  V30 1065 N 104.945 -0.338344 -1.53925 0
M  V30 1066 C 106.191 0.252842 -2.01822 0
M  V30 1067 C 106.546 1.48612 -1.22197 0
M  V30 1068 O 105.839 1.89238 -0.299892 0
M  V30 1069 C 106.033 0.62448 -3.51902 0
M  V30 1070 C 105.862 -0.571235 -4.46057 0
M  V30 1071 C 104.632 -1.07493 -4.93734 0
M  V30 1072 C 106.83 -1.42807 -4.94076 0
M  V30 1073 N 104.812 -2.23351 -5.71828 0
M  V30 1074 C 106.183 -2.43362 -5.70241 0
M  V30 1075 C 108.238 -1.45412 -4.76193 0
M  V30 1076 C 106.941 -3.46346 -6.30426 0
M  V30 1077 C 108.967 -2.47274 -5.37224 0
M  V30 1078 C 108.329 -3.46555 -6.13253 0
M  V30 1079 H 104.428 0.0559669 -0.779995 0
M  V30 1080 H 107.012 -0.476732 -1.88773 0
M  V30 1081 H 105.183 1.32317 -3.65167 0
M  V30 1082 H 106.915 1.19841 -3.86549 0
M  V30 1083 H 103.67 -0.643848 -4.69203 0
M  V30 1084 H 104.094 -2.81834 -6.15548 0
M  V30 1085 H 108.736 -0.700171 -4.16962 0
M  V30 1086 H 106.454 -4.22638 -6.88769 0
M  V30 1087 H 110.04 -2.50109 -5.25297 0
M  V30 1088 H 108.92 -4.24083 -6.59638 0
M  V30 1089 N 106.423 1.57458 -0.0668435 0
M  V30 1090 C 107.7 1.8469 0.644132 0
M  V30 1091 C 108.08 0.958343 1.88093 0
M  V30 1092 O 107.428 0.0233579 2.28488 0
M  V30 1093 C 107.638 3.34767 0.986509 0
M  V30 1094 C 108.986 4.02159 1.36212 0
M  V30 1095 O 110.01 3.39484 1.07839 0
M  V30 1096 O 108.869 5.12694 1.89227 0
M  V30 1097 H 105.963 0.762816 0.319437 0
M  V30 1098 H 108.509 1.6942 -0.0973986 0
M  V30 1099 H 107.281 3.91151 0.107883 0
M  V30 1100 H 106.904 3.55281 1.78497 0
M  V30 1101 N 107.901 -0.206675 1.56239 0
M  V30 1102 C 109.312 -0.772383 1.69974 0
M  V30 1103 C 109.663 -1.84353 0.671436 0
M  V30 1104 O 108.788 -2.15695 -0.174491 0
M  V30 1105 C 109.383 -1.40779 3.08167 0
M  V30 1106 C 107.942 -1.92072 3.23706 0
M  V30 1107 C 107.089 -0.786347 2.65917 0
M  V30 1108 H 110.04 0.0182223 1.5869 0
M  V30 1109 H 110.061 -2.27696 3.04852 0
M  V30 1110 H 109.573 -0.627958 3.82986 0
M  V30 1111 H 107.674 -2.7281 2.53782 0
M  V30 1112 H 107.787 -2.09046 4.31087 0
M  V30 1113 H 106.151 -1.1976 2.24788 0
M  V30 1114 H 106.934 -0.0189416 3.43295 0
M  V30 1115 N 109.379 -1.50304 -0.473955 0
M  V30 1116 C 110.309 -1.71886 -1.58042 0
M  V30 1117 C 111.29 -0.567799 -1.60344 0
M  V30 1118 O 112.475 -0.806623 -1.76656 0
M  V30 1119 C 109.605 -1.81036 -2.96384 0
M  V30 1120 C 108.559 -2.962 -3.08949 0
M  V30 1121 C 107.885 -2.9049 -4.48909 0
M  V30 1122 C 109.185 -4.36752 -2.86434 0
M  V30 1123 H 110.879 -2.64527 -1.40234 0
M  V30 1124 H 108.425 -1.27295 -0.673201 0
M  V30 1125 H 110.378 -1.94719 -3.73714 0
M  V30 1126 H 109.102 -0.850147 -3.15341 0
M  V30 1127 H 107.761 -2.82164 -2.3405 0
M  V30 1128 H 107.409 -1.92321 -4.64781 0
M  V30 1129 H 107.109 -3.67802 -4.58253 0
M  V30 1130 H 108.633 -3.06218 -5.28264 0
M  V30 1131 H 110.047 -4.5133 -3.53517 0
M  V30 1132 H 108.444 -5.15493 -3.07225 0
M  V30 1133 H 109.514 -4.49321 -1.82316 0
M  V30 1134 N 110.857 0.726932 -1.39834 0
M  V30 1135 C 111.767 1.87131 -1.41489 0
M  V30 1136 C 112.783 1.71239 -0.308757 0
M  V30 1137 O 113.959 1.93701 -0.551529 0
M  V30 1138 C 111.024 3.22811 -1.26468 0
M  V30 1139 C 110.085 3.51039 -2.47124 0
M  V30 1140 C 109.318 4.80245 -2.3281 0
M  V30 1141 O 109.541 5.54537 -1.33585 0
M  V30 1142 O 108.475 5.08554 -3.21957 0
M  V30 1143 H 112.301 1.8869 -2.3797 0
M  V30 1144 H 109.886 0.875837 -1.21035 0
M  V30 1145 H 111.768 4.03877 -1.20255 0
M  V30 1146 H 110.443 3.22005 -0.330862 0
M  V30 1147 H 109.35 2.70027 -2.58914 0
M  V30 1148 H 110.683 3.56632 -3.39227 0
M  V30 1149 N 112.336 1.25143 0.95797 0
M  V30 1150 C 113.246 1.06968 2.08794 0
M  V30 1151 C 114.262 0.00773911 1.73998 0
M  V30 1152 O 115.438 0.207972 2.00323 0
M  V30 1153 C 112.503 0.68691 3.39827 0
M  V30 1154 C 111.564 1.82641 3.88511 0
M  V30 1155 C 110.797 1.46181 5.1329 0
M  V30 1156 O 111.02 0.355971 5.69288 0
M  V30 1157 O 109.954 2.29085 5.566 0
M  V30 1158 H 113.78 2.01723 2.27027 0
M  V30 1159 H 111.365 1.04051 1.07209 0
M  V30 1160 H 113.247 0.485417 4.18595 0
M  V30 1161 H 111.922 -0.231417 3.22872 0
M  V30 1162 H 110.829 2.08274 3.10762 0
M  V30 1163 H 112.162 2.72386 4.09959 0
M  V30 1164 N 113.814 -1.1601 1.06675 0
M  V30 1165 C 115.06 -1.86909 0.786945 0
M  V30 1166 C 115.393 -1.81717 -0.685018 0
M  V30 1167 O 114.668 -1.23551 -1.50218 0
M  V30 1168 C 114.951 -3.36313 1.28707 0
M  V30 1169 C 114.804 -3.50175 2.82308 0
M  V30 1170 C 116.123 -4.3084 0.898071 0
M  V30 1171 H 113.242 -0.678677 0.287343 0
M  V30 1172 H 115.884 -1.36336 1.32334 0
M  V30 1173 H 114.034 -3.79513 0.830768 0
M  V30 1174 H 115.706 -3.15886 3.36175 0
M  V30 1175 H 113.949 -2.91959 3.20847 0
M  V30 1176 H 114.62 -4.55116 3.12368 0
M  V30 1177 H 117.096 -3.95561 1.29114 0
M  V30 1178 H 115.972 -5.33876 1.27543 0
M  V30 1179 H 116.233 -4.41662 -0.196651 0
M  V30 1180 N 115.292 -0.849877 -1.32721 0
M  V30 1181 C 116.541 -0.447175 -1.96681 0
M  V30 1182 C 116.854 1.00135 -1.68025 0
M  V30 1183 O 118.06 1.50926 -2.25685 0
M  V30 1184 C 116.516 -0.7487 -3.52026 0
M  V30 1185 C 116.124 -2.21264 -3.89546 0
M  V30 1186 C 117.868 -0.413487 -4.22481 0
M  V30 1187 C 115.775 -2.45763 -5.37917 0
M  V30 1188 H 114.705 -0.163486 -0.736063 0
M  V30 1189 H 117.356 -1.03999 -1.51183 0
M  V30 1190 H 115.738 -0.0853727 -3.95908 0
M  V30 1191 H 116.912 -2.91736 -3.56689 0
M  V30 1192 H 115.227 -2.5119 -3.32103 0
M  V30 1193 H 117.824 -0.574017 -5.3161 0
M  V30 1194 H 118.167 0.644492 -4.11281 0
M  V30 1195 H 118.7 -1.03251 -3.84167 0
M  V30 1196 H 115.439 -3.50168 -5.54132 0
M  V30 1197 H 114.959 -1.79864 -5.72197 0
M  V30 1198 H 116.638 -2.29471 -6.0494 0
M  V30 1199 N 116.77 1.45427 -0.607355 0
M  V30 1200 C 118.016 2.0254 -0.102607 0
M  V30 1201 C 118.349 1.47478 1.26348 0
M  V30 1202 O 117.624 0.64939 1.83339 0
M  V30 1203 C 117.907 3.60044 -0.0634347 0
M  V30 1204 C 117.76 4.2544 -1.46017 0
M  V30 1205 C 119.079 4.35646 0.624514 0
M  V30 1206 H 116.198 0.73598 -0.0387607 0
M  V30 1207 H 118.84 1.73284 -0.779282 0
M  V30 1208 H 116.99 3.85101 0.512808 0
M  V30 1209 H 118.662 4.11569 -2.08347 0
M  V30 1210 H 116.905 3.83849 -2.02094 0
M  V30 1211 H 117.576 5.34342 -1.385 0
M  V30 1212 H 120.052 4.15882 0.134723 0
M  V30 1213 H 118.928 5.45376 0.621028 0
M  V30 1214 H 119.189 4.08501 1.69055 0
M  V30 1215 N 118.248 0.346503 1.53744 0
M  V30 1216 C 119.496 -0.248612 2.00565 0
M  V30 1217 C 119.817 -1.5083 1.23593 0
M  V30 1218 O 119.087 -1.92858 0.343912 0
M  V30 1219 H 117.667 -0.0948564 0.740953 0
M  V30 1220 H 120.329 0.468341 1.89189 0
M  V30 1221 H 119.425 -0.488994 3.08245 0
M  V30 1222 N 119.726 -1.57421 0.075193 0
M  V30 1223 C 121.142 -1.57099 -0.281444 0
M  V30 1224 C 121.342 -1.08486 -1.69803 0
M  V30 1225 O 120.398 -0.752279 -2.41033 0
M  V30 1226 C 121.711 -3.00571 -0.0880041 0
M  V30 1227 C 123.259 -3.12605 -0.157281 0
M  V30 1228 C 123.734 -4.57999 0.0079207 0
M  V30 1229 N 125.225 -4.63176 -0.0475725 0
M  V30 1230 C 125.96 -5.73373 0.0557876 0
M  V30 1231 N 125.456 -6.92473 0.21286 0
M  V30 1232 N 127.249 -5.621 -0.00152098 0
M  V30 1233 H 119.4 -1.87335 1.00098 0
M  V30 1234 H 121.663 -0.86377 0.390646 0
M  V30 1235 H 121.369 -3.40262 0.889629 0
M  V30 1236 H 121.243 -3.67754 -0.838875 0
M  V30 1237 H 123.63 -2.72798 -1.1254 0
M  V30 1238 H 123.711 -2.48053 0.62475 0
M  V30 1239 H 123.355 -4.98496 0.972824 0
M  V30 1240 H 123.285 -5.20586 -0.793556 0
M  V30 1241 H 125.776 -3.7753 -0.167244 0
M  V30 1242 H 126.089 -7.72279 0.283781 0
M  V30 1243 H 124.434 -6.94556 0.248267 0
M  V30 1244 H 127.625 -4.67938 -0.122958 0
M  V30 1245 H 127.798 -6.47948 0.0824844 0
M  V30 1246 N 121.204 0.198386 -1.56346 0
M  V30 1247 C 122.167 1.22952 -1.93431 0
M  V30 1248 C 123.167 1.38611 -0.815092 0
M  V30 1249 O 124.357 1.36479 -1.08255 0
M  V30 1250 C 121.489 2.59946 -2.20546 0
M  V30 1251 H 122.682 0.912626 -2.85677 0
M  V30 1252 H 120.235 0.43977 -1.49986 0
M  V30 1253 H 120.97 2.96696 -1.30927 0
M  V30 1254 H 120.755 2.49953 -3.02102 0
M  V30 1255 H 122.245 3.3431 -2.50253 0
M  V30 1256 N 122.682 1.50554 0.465978 0
M  V30 1257 C 123.592 1.72585 1.58907 0
M  V30 1258 C 124.608 0.60911 1.6299 0
M  V30 1259 O 125.784 0.88804 1.80765 0
M  V30 1260 C 122.849 1.81995 2.95091 0
M  V30 1261 C 121.91 3.05751 3.01355 0
M  V30 1262 C 121.143 3.14702 4.31043 0
M  V30 1263 O 121.366 2.30313 5.21835 0
M  V30 1264 O 120.3 4.07468 4.43005 0
M  V30 1265 H 124.126 2.67799 1.43239 0
M  V30 1266 H 121.711 1.34711 0.646013 0
M  V30 1267 H 123.593 1.90335 3.75966 0
M  V30 1268 H 122.268 0.899659 3.10947 0
M  V30 1269 H 121.175 3.02908 2.19539 0
M  V30 1270 H 122.508 3.97375 2.90437 0
M  V30 1271 N 124.16 -0.719506 1.40217 0
M  V30 1272 C 125.108 -1.85493 1.40339 0
M  V30 1273 C 126.102 -1.66995 0.284415 0
M  V30 1274 O 127.308 -1.74148 0.455252 0
M  V30 1275 H 123.683 -0.610857 0.438586 0
M  V30 1276 H 125.654 -1.82506 2.36081 0
M  V30 1277 C 124.403 -3.23321 1.27901 0
M  V30 1278 H 123.726 -3.38159 2.1328 0
M  V30 1279 H 125.166 -4.02914 1.32045 0
M  V30 1280 C 123.625 -3.36898 -0.0111355 0
M  V30 1281 O 124.155 -3.89674 -0.975538 0
M  V30 1282 N 122.361 -2.90492 -0.0793393 0
M  V30 1283 H 121.908 -2.47731 0.706183 0
M  V30 1284 H 121.866 -2.99955 -0.942038 0
M  V30 1285 N 125.638 -1.25649 -0.95132 0
M  V30 1286 C 126.601 -1.06399 -2.03007 0
M  V30 1287 C 127.601 -0.0156794 -1.60792 0
M  V30 1288 O 128.791 -0.25817 -1.72276 0
M  V30 1289 C 125.923 -0.616184 -3.35285 0
M  V30 1290 H 127.116 -2.02164 -2.21517 0
M  V30 1291 H 124.669 -1.08103 -1.12887 0
M  V30 1292 H 125.404 0.343917 -3.22471 0
M  V30 1293 H 125.189 -1.37301 -3.67275 0
M  V30 1294 H 126.679 -0.503032 -4.14559 0
M  V30 1295 N 127.117 1.15442 -1.07289 0
M  V30 1296 C 128.357 1.8788 -0.805012 0
M  V30 1297 C 128.721 1.80413 0.656907 0
M  V30 1298 O 129.922 2.47874 1.0398 0
M  V30 1299 C 128.193 3.3298 -1.29843 0
M  V30 1300 S 129.752 4.23158 -1.16114 0
M  V30 1301 H 126.57 0.64839 -0.291739 0
M  V30 1302 H 129.172 1.39285 -1.37186 0
M  V30 1303 H 127.876 3.35958 -2.35712 0
M  V30 1304 H 127.407 3.86629 -0.726767 0
M  V30 1305 H 129.422 4.96103 -0.0982778 0
M  V30 1306 N 128.595 0.856903 1.32268 0
M  V30 1307 C 129.841 0.462069 1.97466 0
M  V30 1308 C 130.174 -0.980298 1.67642 0
M  V30 1309 O 129.449 -1.68824 0.965858 0
M  V30 1310 C 129.732 0.704336 3.53145 0
M  V30 1311 C 129.585 2.19529 3.9259 0
M  V30 1312 C 130.904 0.1622 4.39801 0
M  V30 1313 H 128.023 0.169357 0.717278 0
M  V30 1314 H 130.665 1.07574 1.56614 0
M  V30 1315 H 128.815 0.181999 3.88073 0
M  V30 1316 H 130.487 2.78387 3.67829 0
M  V30 1317 H 128.73 2.67292 3.41668 0
M  V30 1318 H 129.401 2.31549 5.01088 0
M  V30 1319 H 131.877 0.608905 4.11621 0
M  V30 1320 H 130.753 0.361265 5.4771 0
M  V30 1321 H 131.014 -0.935158 4.32096 0
M  V30 1322 N 130.073 -1.45103 0.615059 0
M  V30 1323 C 131.484 -1.85654 0.197383 0
M  V30 1324 C 131.835 -1.51433 -1.24749 0
M  V30 1325 O 130.96 -0.944608 -1.94695 0
M  V30 1326 C 131.555 -3.36972 0.351448 0
M  V30 1327 C 130.114 -3.76398 -0.011593 0
M  V30 1328 C 129.261 -2.69024 0.672394 0
M  V30 1329 H 132.212 -1.35797 0.821263 0
M  V30 1330 H 132.233 -3.78239 -0.414227 0
M  V30 1331 H 131.745 -3.61847 1.40314 0
M  V30 1332 H 129.846 -3.5714 -1.06217 0
M  V30 1333 H 129.959 -4.77532 0.387265 0
M  V30 1334 H 128.323 -2.54465 0.109284 0
M  V30 1335 H 129.106 -2.96735 1.72636 0
M  V30 1336 N 131.551 -0.354651 -1.53558 0
M  V30 1337 C 132.962 0.126902 -1.86268 0
M  V30 1338 C 133.313 1.49075 -1.27558 0
M  V30 1339 O 132.438 2.08105 -0.5934 0
M  V30 1340 C 133.033 0.237046 -3.3797 0
M  V30 1341 C 131.592 0.662842 -3.70518 0
M  V30 1342 C 130.739 -0.196652 -2.76602 0
M  V30 1343 H 133.69 -0.573849 -1.47962 0
M  V30 1344 H 133.711 1.06259 -3.65362 0
M  V30 1345 H 133.223 -0.755725 -3.80671 0
M  V30 1346 H 131.324 1.66424 -3.33367 0
M  V30 1347 H 131.437 0.445034 -4.77029 0
M  V30 1348 H 129.801 0.332763 -2.52517 0
M  V30 1349 H 130.584 -1.18676 -3.22135 0
M  V30 1350 N 133.029 1.57378 -0.0835403 0
M  V30 1351 C 134.276 1.9393 0.58287 0
M  V30 1352 C 134.604 0.964455 1.68904 0
M  V30 1353 O 133.859 -0.0179474 1.95692 0
M  V30 1354 C 134.158 3.37063 1.1884 0
M  V30 1355 C 133.824 4.50424 0.207194 0
M  V30 1356 C 132.486 4.81159 -0.0627115 0
M  V30 1357 C 134.838 5.19136 -0.463426 0
M  V30 1358 C 132.166 5.77939 -1.01012 0
M  V30 1359 C 134.518 6.16931 -1.39924 0
M  V30 1360 C 133.182 6.46078 -1.67749 0
M  V30 1361 H 132.452 0.70964 0.213287 0
M  V30 1362 H 135.099 1.90856 -0.156916 0
M  V30 1363 H 133.404 3.3666 2.00418 0
M  V30 1364 H 135.101 3.6264 1.71153 0
M  V30 1365 H 131.691 4.2646 0.427747 0
M  V30 1366 H 135.875 4.95576 -0.268034 0
M  V30 1367 H 131.131 5.98842 -1.23283 0
M  V30 1368 H 135.305 6.69273 -1.92476 0
M  V30 1369 H 132.932 7.2088 -2.41321 0
M  V30 1370 N 134.507 -0.190092 1.56449 0
M  V30 1371 C 135.735 -0.925772 1.85033 0
M  V30 1372 C 136.15 -1.76638 0.666658 0
M  V30 1373 O 135.507 -1.78822 -0.364565 0
M  V30 1374 C 135.558 -1.81786 3.12468 0
M  V30 1375 O 135.279 -1.01118 4.26271 0
M  V30 1376 C 136.78 -2.6648 3.54265 0
M  V30 1377 H 134 -0.269872 0.614337 0
M  V30 1378 H 136.544 -0.195837 2.0356 0
M  V30 1379 H 134.699 -2.50136 2.95822 0
M  V30 1380 H 135.113 -1.61956 4.98869 0
M  V30 1381 H 136.587 -3.24722 4.46385 0
M  V30 1382 H 137.064 -3.40434 2.77491 0
M  V30 1383 H 137.67 -2.03493 3.73458 0
M  V30 1384 N 135.985 -1.50799 -0.457987 0
M  V30 1385 C 137.234 -1.6168 -1.20593 0
M  V30 1386 C 137.547 -0.32888 -1.92815 0
M  V30 1387 O 138.753 -0.316773 -2.69646 0
M  V30 1388 C 137.209 -2.8545 -2.19195 0
M  V30 1389 C 136.817 -4.21168 -1.52715 0
M  V30 1390 C 138.561 -3.05681 -2.94549 0
M  V30 1391 C 136.468 -5.3611 -2.4968 0
M  V30 1392 H 135.398 -0.602134 -0.453818 0
M  V30 1393 H 138.049 -1.77245 -0.475031 0
M  V30 1394 H 136.431 -2.63472 -2.95632 0
M  V30 1395 H 137.605 -4.53449 -0.819775 0
M  V30 1396 H 135.92 -4.06648 -0.895922 0
M  V30 1397 H 138.517 -3.88727 -3.67145 0
M  V30 1398 H 138.86 -2.17929 -3.54701 0
M  V30 1399 H 139.393 -3.27901 -2.25223 0
M  V30 1400 H 136.132 -6.26057 -1.94249 0
M  V30 1401 H 135.652 -5.0823 -3.18532 0
M  V30 1402 H 137.331 -5.6722 -3.11241 0
M  V30 1403 N 137.463 0.71206 -1.40597 0
M  V30 1404 C 138.373 1.8562 -1.43466 0
M  V30 1405 C 139.389 1.70902 -0.326902 0
M  V30 1406 O 140.565 1.93105 -0.572043 0
M  V30 1407 C 137.63 3.21451 -1.29884 0
M  V30 1408 C 136.691 3.48398 -2.50833 0
M  V30 1409 C 135.924 4.77749 -2.3789 0
M  V30 1410 O 136.147 5.53089 -1.39459 0
M  V30 1411 O 135.081 5.05111 -3.27333 0
M  V30 1412 H 138.907 1.86155 -2.39958 0
M  V30 1413 H 136.492 0.86295 -1.21957 0
M  V30 1414 H 138.374 4.02579 -1.24531 0
M  V30 1415 H 137.049 3.21636 -0.364997 0
M  V30 1416 H 135.956 2.67265 -2.61763 0
M  V30 1417 H 137.289 3.53014 -3.4299 0
M  V30 1418 N 138.941 1.26152 0.944643 0
M  V30 1419 C 140.187 1.11657 1.69294 0
M  V30 1420 C 140.52 -0.339926 1.91202 0
M  V30 1421 O 139.795 -1.24994 1.49019 0
M  V30 1422 C 140.078 1.88236 3.06984 0
M  V30 1423 C 139.931 3.41772 2.92424 0
M  V30 1424 C 141.25 1.67343 4.07043 0
M  V30 1425 H 138.369 0.407004 0.614424 0
M  V30 1426 H 141.011 1.55106 1.09737 0
M  V30 1427 H 139.161 1.51308 3.57824 0
M  V30 1428 H 140.833 3.88433 2.48832 0
M  V30 1429 H 139.076 3.68974 2.28124 0
M  V30 1430 H 139.747 3.90579 3.90067 0
M  V30 1431 H 142.223 1.99509 3.65151 0
M  V30 1432 H 141.099 2.23346 5.01406 0
M  V30 1433 H 141.36 0.617158 4.37771 0
M  V30 1434 N 140.419 -1.14872 1.07899 0
M  V30 1435 C 141.366 -2.19791 0.704319 0
M  V30 1436 C 142.336 -1.63238 -0.306987 0
M  V30 1437 O 143.521 -1.8983 -0.192171 0
M  V30 1438 C 140.661 -3.44911 0.114244 0
M  V30 1439 C 139.774 -4.15637 1.1777 0
M  V30 1440 C 138.909 -5.28324 0.552037 0
M  V30 1441 C 137.948 -5.90875 1.59789 0
M  V30 1442 N 137.085 -6.95022 0.994404 0
M  V30 1443 H 141.925 -2.5119 1.60336 0
M  V30 1444 H 139.462 -1.23356 0.801352 0
M  V30 1445 H 141.42 -4.16477 -0.245544 0
M  V30 1446 H 140.05 -3.14011 -0.74813 0
M  V30 1447 H 139.102 -3.42512 1.65499 0
M  V30 1448 H 140.414 -4.5823 1.97046 0
M  V30 1449 H 139.568 -6.06538 0.1402 0
M  V30 1450 H 138.307 -4.86939 -0.272431 0
M  V30 1451 H 137.312 -5.11369 2.01945 0
M  V30 1452 H 138.537 -6.34337 2.42474 0
M  V30 1453 H 136.483 -6.55722 0.190939 0
M  V30 1454 H 136.4 -7.36073 1.72432 0
M  V30 1455 H 137.668 -7.77123 0.608253 0
M  V30 1456 N 141.898 -0.863906 -1.31812 0
M  V30 1457 C 142.861 -0.320212 -2.26952 0
M  V30 1458 C 143.861 0.525369 -1.51975 0
M  V30 1459 O 145.051 0.335547 -1.70938 0
M  V30 1460 C 142.183 0.545919 -3.365 0
M  V30 1461 H 143.376 -1.16004 -2.76556 0
M  V30 1462 H 140.929 -0.638995 -1.42641 0
M  V30 1463 H 141.664 1.40718 -2.92179 0
M  V30 1464 H 141.449 -0.0594674 -3.92055 0
M  V30 1465 H 142.939 0.918796 -4.07367 0
M  V30 1466 N 143.376 1.44774 -0.622745 0
M  V30 1467 C 144.324 2.32387 0.0994683 0
M  V30 1468 C 145.318 1.46859 0.844326 0
M  V30 1469 O 146.524 1.63254 0.758174 0
M  V30 1470 H 142.899 0.750273 0.0509291 0
M  V30 1471 H 144.87 2.91062 -0.65767 0
M  V30 1472 C 143.619 3.30723 1.07319 0
M  V30 1473 H 142.942 3.96541 0.509462 0
M  V30 1474 H 144.382 3.94725 1.54817 0
M  V30 1475 C 142.841 2.59021 2.15429 0
M  V30 1476 O 143.371 2.38286 3.23393 0
M  V30 1477 N 141.577 2.189 1.91131 0
M  V30 1478 H 141.124 2.35964 1.03337 0
M  V30 1479 H 141.082 1.71251 2.63668 0
M  V30 1480 N 144.854 0.36279 1.53368 0
M  V30 1481 C 146.082 -0.228613 2.05633 0
M  V30 1482 C 146.497 -1.42676 1.23649 0
M  V30 1483 O 145.854 -1.80394 0.27647 0
M  V30 1484 C 145.905 -0.624845 3.56059 0
M  V30 1485 O 145.626 0.525675 4.34935 0
M  V30 1486 C 147.127 -1.27493 4.24571 0
M  V30 1487 H 144.347 -0.0407183 0.669763 0
M  V30 1488 H 146.891 0.520352 1.97769 0
M  V30 1489 H 145.046 -1.32373 3.64083 0
M  V30 1490 H 145.46 0.205969 5.24095 0
M  V30 1491 H 146.934 -1.50277 5.31151 0
M  V30 1492 H 147.411 -2.23439 3.78116 0
M  V30 1493 H 148.017 -0.617558 4.20792 0
M  V30 1494 N 146.332 -1.57332 0.0918853 0
M  V30 1495 C 147.562 -1.98286 -0.580205 0
M  V30 1496 C 147.97 -0.969713 -1.6246 0
M  V30 1497 O 147.313 0.0493501 -1.83634 0
M  V30 1498 C 147.375 -3.35603 -1.28882 0
M  V30 1499 C 147.039 -4.55285 -0.395559 0
M  V30 1500 C 148.036 -5.18687 0.355002 0
M  V30 1501 C 145.721 -5.01314 -0.314556 0
M  V30 1502 C 147.715 -6.26484 1.17458 0
M  V30 1503 C 145.402 -6.08979 0.508677 0
M  V30 1504 C 146.4 -6.71429 1.2519 0
M  V30 1505 O 146.088 -7.77018 2.06151 0
M  V30 1506 H 145.82 -0.656678 -0.160466 0
M  V30 1507 H 148.374 -2.04721 0.16688 0
M  V30 1508 H 146.604 -3.25842 -2.08241 0
M  V30 1509 H 148.293 -3.61026 -1.85512 0
M  V30 1510 H 149.059 -4.84058 0.302134 0
M  V30 1511 H 144.938 -4.5247 -0.882697 0
M  V30 1512 H 148.482 -6.75159 1.75518 0
M  V30 1513 H 144.379 -6.4304 0.563037 0
M  V30 1514 H 145.147 -7.93991 1.98799 0
M  V30 1515 N 147.81 0.181792 -1.56548 0
M  V30 1516 C 148.72 1.24538 -1.98815 0
M  V30 1517 C 149.736 1.49045 -0.897861 0
M  V30 1518 O 150.912 1.61399 -1.20467 0
M  V30 1519 C 147.977 2.56683 -2.33055 0
M  V30 1520 C 147.038 2.40131 -3.55859 0
M  V30 1521 C 146.271 3.65975 -3.88456 0
M  V30 1522 O 146.494 4.70711 -3.22161 0
M  V30 1523 O 145.428 3.6071 -4.81842 0
M  V30 1524 H 149.254 0.916647 -2.89536 0
M  V30 1525 H 146.839 0.387842 -1.44278 0
M  V30 1526 H 148.721 3.34655 -2.56094 0
M  V30 1527 H 147.396 2.89157 -1.45498 0
M  V30 1528 H 146.303 1.60226 -3.38051 0
M  V30 1529 H 147.636 2.12585 -4.43924 0
M  V30 1530 N 149.288 1.51039 0.449983 0
M  V30 1531 C 150.235 1.71439 1.54523 0
M  V30 1532 C 151.205 0.555871 1.56522 0
M  V30 1533 O 152.39 0.788871 1.73728 0
M  V30 1534 C 149.53 1.83384 2.92343 0
M  V30 1535 C 148.643 3.10873 2.9997 0
M  V30 1536 C 147.778 3.13488 4.28834 0
M  V30 1537 C 146.817 4.35343 4.30282 0
M  V30 1538 N 145.954 4.35579 5.5065 0
M  V30 1539 H 150.794 2.64934 1.36433 0
M  V30 1540 H 148.331 1.31312 0.662982 0
M  V30 1541 H 150.289 1.88291 3.72293 0
M  V30 1542 H 148.919 0.933086 3.0902 0
M  V30 1543 H 147.971 3.15336 2.12761 0
M  V30 1544 H 149.283 4.00814 2.96901 0
M  V30 1545 H 148.437 3.17241 5.17149 0
M  V30 1546 H 147.176 2.21414 4.34543 0
M  V30 1547 H 146.181 4.3178 3.40362 0
M  V30 1548 H 147.406 5.28668 4.26248 0
M  V30 1549 H 145.352 3.46369 5.57104 0
M  V30 1550 H 145.269 5.19313 5.49409 0
M  V30 1551 H 146.537 4.43507 6.41032 0
M  V30 1552 N 150.766 -0.704594 1.40972 0
M  V30 1553 C 151.996 -1.49138 1.42974 0
M  V30 1554 C 152.404 -1.89175 0.0308406 0
M  V30 1555 O 151.747 -1.56734 -0.958138 0
M  V30 1556 C 151.809 -2.79016 2.26694 0
M  V30 1557 C 151.473 -2.61236 3.74973 0
M  V30 1558 C 152.47 -2.27773 4.67349 0
M  V30 1559 C 150.155 -2.77158 4.18914 0
M  V30 1560 C 152.149 -2.10457 6.01653 0
M  V30 1561 C 149.836 -2.59459 5.53285 0
M  V30 1562 C 150.834 -2.26158 6.4447 0
M  V30 1563 O 150.522 -2.08605 7.76363 0
M  V30 1564 H 150.254 -0.466443 0.489292 0
M  V30 1565 H 152.808 -0.8758 1.85793 0
M  V30 1566 H 151.038 -3.42947 1.78673 0
M  V30 1567 H 152.727 -3.40782 2.20504 0
M  V30 1568 H 153.493 -2.15095 4.34694 0
M  V30 1569 H 149.372 -3.02064 3.48251 0
M  V30 1570 H 152.916 -1.84387 6.72791 0
M  V30 1571 H 148.813 -2.71725 5.85522 0
M  V30 1572 H 149.581 -2.23439 7.87412 0
M  V30 1573 N 152.244 -1.26651 -0.937939 0
M  V30 1574 C 153.49 -1.13562 -1.68746 0
M  V30 1575 C 153.845 0.317241 -1.89767 0
M  V30 1576 O 153.138 1.22939 -1.46957 0
M  V30 1577 C 153.332 -1.84168 -3.06295 0
M  V30 1578 C 153.161 -3.36171 -2.98696 0
M  V30 1579 C 151.931 -4.05468 -3.01535 0
M  V30 1580 C 154.129 -4.32312 -2.78588 0
M  V30 1581 N 152.111 -5.44118 -2.84269 0
M  V30 1582 C 153.482 -5.58159 -2.69924 0
M  V30 1583 C 155.537 -4.22524 -2.63396 0
M  V30 1584 C 154.24 -6.75335 -2.47618 0
M  V30 1585 C 156.266 -5.39411 -2.42466 0
M  V30 1586 C 155.628 -6.64208 -2.34536 0
M  V30 1587 H 151.727 -0.470361 -0.624728 0
M  V30 1588 H 154.311 -1.59982 -1.10968 0
M  V30 1589 H 152.482 -1.40219 -3.62206 0
M  V30 1590 H 154.214 -1.63674 -3.70126 0
M  V30 1591 H 150.969 -3.56854 -3.11372 0
M  V30 1592 H 151.393 -6.1693 -2.78795 0
M  V30 1593 H 156.035 -3.26771 -2.68292 0
M  V30 1594 H 153.753 -7.71182 -2.41463 0
M  V30 1595 H 157.339 -5.33711 -2.31611 0
M  V30 1596 H 156.219 -7.53129 -2.18555 0
M  V30 1597 N 153.722 1.14298 -1.08507 0
M  V30 1598 C 155.133 1.66926 -0.836227 0
M  V30 1599 C 155.484 1.85576 0.63686 0
M  V30 1600 O 154.609 1.56767 1.49175 0
M  V30 1601 C 155.204 3.03219 -1.51142 0
M  V30 1602 C 153.763 3.52876 -1.30979 0
M  V30 1603 C 152.91 2.2833 -1.57356 0
M  V30 1604 H 155.861 0.983491 -1.24552 0
M  V30 1605 H 155.882 3.68726 -0.939211 0
M  V30 1606 H 155.394 2.89612 -2.58353 0
M  V30 1607 H 153.495 3.71703 -0.258429 0
M  V30 1608 H 153.608 4.33586 -2.03814 0
M  V30 1609 H 151.972 2.34454 -0.995164 0
M  V30 1610 H 152.755 2.17298 -2.65775 0
M  V30 1611 N 155.201 0.870884 1.31352 0
M  V30 1612 C 156.448 0.482273 1.96673 0
M  V30 1613 C 156.776 -0.965638 1.68836 0
M  V30 1614 O 156.031 -1.69514 0.977937 0
M  V30 1615 C 156.33 0.687157 3.50732 0
M  V30 1616 C 155.996 2.108 3.9859 0
M  V30 1617 C 154.658 2.49656 4.1137 0
M  V30 1618 C 157.01 3.03459 4.23748 0
M  V30 1619 C 154.338 3.80412 4.46659 0
M  V30 1620 C 156.69 4.3373 4.60501 0
M  V30 1621 C 155.354 4.725 4.71487 0
M  V30 1622 H 154.624 0.176476 0.719679 0
M  V30 1623 H 157.271 1.10405 1.56471 0
M  V30 1624 H 155.576 -0.0177476 3.91796 0
M  V30 1625 H 157.273 0.366284 3.99324 0
M  V30 1626 H 153.863 1.79633 3.8914 0
M  V30 1627 H 158.047 2.74665 4.13368 0
M  V30 1628 H 153.303 4.1021 4.53362 0
M  V30 1629 H 157.477 5.05578 4.78919 0
M  V30 1630 H 155.104 5.73859 4.98588 0
M  V30 1631 N 156.679 -1.44442 0.630414 0
M  V30 1632 C 157.909 -2.06115 0.141465 0
M  V30 1633 C 158.317 -1.47179 -1.1889 0
M  V30 1634 O 157.66 -0.588873 -1.74006 0
M  V30 1635 C 157.722 -3.59467 -0.0484355 0
M  V30 1636 C 157.386 -4.40864 1.20366 0
M  V30 1637 C 158.383 -4.74391 2.12719 0
M  V30 1638 C 156.068 -4.8125 1.43887 0
M  V30 1639 C 158.062 -5.47186 3.26904 0
M  V30 1640 C 155.749 -5.53795 2.5837 0
M  V30 1641 C 156.747 -5.86682 3.49705 0
M  V30 1642 O 156.435 -6.57749 4.62191 0
M  V30 1643 H 156.167 -0.671648 0.0765792 0
M  V30 1644 H 158.721 -1.86312 0.864695 0
M  V30 1645 H 156.951 -3.77758 -0.826803 0
M  V30 1646 H 158.64 -4.02909 -0.491849 0
M  V30 1647 H 159.406 -4.43728 1.95781 0
M  V30 1648 H 155.285 -4.55073 0.736853 0
M  V30 1649 H 158.829 -5.72773 3.98217 0
M  V30 1650 H 154.726 -5.83872 2.75251 0
M  V30 1651 H 155.494 -6.76217 4.61164 0
M  V30 1652 N 158.157 -0.370918 -1.53173 0
M  V30 1653 C 159.089 0.507823 -2.23503 0
M  V30 1654 C 160.102 1.04182 -1.251 0
M  V30 1655 O 161.291 0.947286 -1.5129 0
M  V30 1656 C 158.391 1.71447 -2.92334 0
M  V30 1657 C 157.564 1.31105 -4.17289 0
M  V30 1658 C 156.623 2.38035 -4.69282 0
M  V30 1659 O 155.649 2.00204 -5.32829 0
M  V30 1660 N 156.851 3.69697 -4.47554 0
M  V30 1661 H 159.616 -0.0946382 -2.99551 0
M  V30 1662 H 157.177 -0.196358 -1.60705 0
M  V30 1663 H 159.169 2.42469 -3.24023 0
M  V30 1664 H 157.739 2.22368 -2.19707 0
M  V30 1665 H 156.959 0.430462 -3.91843 0
M  V30 1666 H 158.247 1.0179 -4.98514 0
M  V30 1667 H 157.645 4.03205 -3.9679 0
M  V30 1668 H 156.202 4.36807 -4.8378 0
M  V30 1669 N 159.635 1.57281 -0.100228 0
M  V30 1670 C 160.582 2.14305 0.856858 0
M  V30 1671 C 161.552 1.06296 1.27634 0
M  V30 1672 O 162.737 1.34109 1.35718 0
M  V30 1673 C 159.877 2.73184 2.10866 0
M  V30 1674 C 158.99 3.95442 1.73925 0
M  V30 1675 C 158.125 4.42468 2.93931 0
M  V30 1676 C 157.164 5.57303 2.5314 0
M  V30 1677 N 156.301 5.99158 3.65997 0
M  V30 1678 H 161.141 2.95772 0.363726 0
M  V30 1679 H 158.678 1.46139 0.167858 0
M  V30 1680 H 160.636 3.05442 2.84185 0
M  V30 1681 H 159.266 1.94437 2.57671 0
M  V30 1682 H 158.318 3.69464 0.905554 0
M  V30 1683 H 159.63 4.78769 1.39935 0
M  V30 1684 H 158.784 4.76537 3.75496 0
M  V30 1685 H 157.523 3.58052 3.31134 0
M  V30 1686 H 156.528 5.22857 1.70003 0
M  V30 1687 H 157.753 6.43471 2.17075 0
M  V30 1688 H 155.699 5.17687 4.02909 0
M  V30 1689 H 155.616 6.77295 3.35869 0
M  V30 1690 H 156.884 6.3786 4.48057 0
M  V30 1691 N 161.113 -0.173488 1.56642 0
M  V30 1692 C 162.045 -1.23935 1.92802 0
M  V30 1693 C 163.058 -1.40589 0.820889 0
M  V30 1694 O 164.247 -1.40631 1.09933 0
M  V30 1695 C 161.347 -2.60837 2.16373 0
M  V30 1696 C 160.52 -2.6551 3.47596 0
M  V30 1697 C 159.579 -3.8376 3.60021 0
M  V30 1698 O 158.605 -3.69859 4.32658 0
M  V30 1699 N 159.807 -5.00127 2.94709 0
M  V30 1700 H 162.572 -0.932236 2.84832 0
M  V30 1701 H 160.133 -0.363268 1.57772 0
M  V30 1702 H 162.125 -3.38407 2.21952 0
M  V30 1703 H 160.695 -2.83948 1.30738 0
M  V30 1704 H 159.915 -1.74052 3.53694 0
M  V30 1705 H 161.203 -2.65641 4.33949 0
M  V30 1706 H 160.601 -5.14322 2.35563 0
M  V30 1707 H 159.158 -5.75567 3.05886 0
M  V30 1708 N 162.591 -1.51276 -0.441967 0
M  V30 1709 C 163.839 -1.63392 -1.18943 0
M  V30 1710 C 164.16 -0.350159 -1.9183 0
M  V30 1711 O 163.43 0.633784 -1.85364 0
M  V30 1712 H 162.01 -0.602164 -0.442049 0
M  V30 1713 H 164.672 -1.88186 -0.507165 0
M  V30 1714 H 163.768 -2.45934 -1.92154 0
M  V30 1715 N 164.069 0.697108 -1.41344 0
M  V30 1716 C 165.317 1.45426 -1.40341 0
M  V30 1717 C 165.638 1.94996 -0.0128787 0
M  V30 1718 O 164.908 1.71599 0.945027 0
M  V30 1719 H 163.488 0.539594 -0.516573 0
M  V30 1720 H 166.15 0.825201 -1.76569 0
M  V30 1721 H 165.246 2.31817 -2.08967 0
M  V30 1722 N 165.547 1.27147 0.931209 0
M  V30 1723 C 166.497 1.06227 2.01742 0
M  V30 1724 C 167.481 -0.00859065 1.60898 0
M  V30 1725 O 168.673 0.209537 1.75755 0
M  V30 1726 C 165.802 0.707787 3.35924 0
M  V30 1727 C 164.888 1.81661 3.83223 0
M  V30 1728 N 165.279 3.05564 4.03069 0
M  V30 1729 C 163.577 1.70249 4.12227 0
M  V30 1730 C 164.278 3.77697 4.42403 0
M  V30 1731 N 163.254 3.0544 4.49675 0
M  V30 1732 H 167.056 2.00261 2.15111 0
M  V30 1733 H 164.57 1.1781 1.11779 0
M  V30 1734 H 166.567 0.539043 4.134 0
M  V30 1735 H 165.227 -0.224964 3.2392 0
M  V30 1736 H 166.238 3.41363 3.89476 0
M  V30 1737 H 162.915 0.840329 4.08956 0
M  V30 1738 H 164.305 4.84168 4.65866 0
M  V30 1739 N 167.025 -1.13721 1.09112 0
M  V30 1740 C 168.255 -1.88499 0.845671 0
M  V30 1741 C 168.663 -1.79218 -0.606432 0
M  V30 1742 O 168.006 -1.1544 -1.42896 0
M  V30 1743 C 168.068 -3.38954 1.19793 0
M  V30 1744 C 167.732 -3.72018 2.65428 0
M  V30 1745 C 168.729 -3.7153 3.63677 0
M  V30 1746 C 166.414 -4.01775 3.01467 0
M  V30 1747 C 168.408 -4.00336 4.95994 0
M  V30 1748 C 166.095 -4.30243 4.33975 0
M  V30 1749 C 167.093 -4.29508 5.31048 0
M  V30 1750 O 166.781 -4.5728 6.61173 0
M  V30 1751 H 166.513 -0.603702 0.304171 0
M  V30 1752 H 169.067 -1.44903 1.45576 0
M  V30 1753 H 167.297 -3.83039 0.530871 0
M  V30 1754 H 168.986 -3.95052 0.932146 0
M  V30 1755 H 169.752 -3.4862 3.37179 0
M  V30 1756 H 165.631 -4.01496 2.26544 0
M  V30 1757 H 169.175 -3.99678 5.71755 0
M  V30 1758 H 165.072 -4.52625 4.60219 0
M  V30 1759 H 165.84 -4.74964 6.66597 0
M  V30 1760 N 168.503 -0.877838 -1.30888 0
M  V30 1761 C 169.75 -0.492696 -1.96415 0
M  V30 1762 C 170.078 0.956671 -1.69346 0
M  V30 1763 O 169.333 1.68993 -0.986913 0
M  V30 1764 C 169.632 -0.705748 -3.50363 0
M  V30 1765 C 169.298 -2.1291 -3.97467 0
M  V30 1766 C 167.96 -2.51834 -4.1004 0
M  V30 1767 C 170.312 -3.05702 -4.22132 0
M  V30 1768 C 167.64 -3.82775 -4.44635 0
M  V30 1769 C 169.992 -4.36166 -4.58194 0
M  V30 1770 C 168.656 -4.74993 -4.68975 0
M  V30 1771 H 167.926 -0.18029 -0.718733 0
M  V30 1772 H 170.573 -1.11233 -1.55883 0
M  V30 1773 H 168.878 -0.00303058 -3.918 0
M  V30 1774 H 170.575 -0.387456 -3.99124 0
M  V30 1775 H 167.165 -1.81694 -3.88182 0
M  V30 1776 H 171.349 -2.76853 -4.11906 0
M  V30 1777 H 166.605 -4.12609 -4.51181 0
M  V30 1778 H 170.779 -5.08111 -4.76231 0
M  V30 1779 H 168.406 -5.76495 -4.95537 0
M  V30 1780 N 169.982 1.44106 -0.638065 0
M  V30 1781 C 171.393 1.85316 -0.226894 0
M  V30 1782 C 171.744 1.53399 1.22324 0
M  V30 1783 O 170.869 0.975463 1.93167 0
M  V30 1784 C 171.464 3.3637 -0.405013 0
M  V30 1785 C 170.023 3.76369 -0.0482902 0
M  V30 1786 C 169.17 2.67921 -0.715108 0
M  V30 1787 H 172.121 1.34474 -0.842764 0
M  V30 1788 H 172.142 3.7885 0.354 0
M  V30 1789 H 171.654 3.59569 -1.46053 0
M  V30 1790 H 169.755 3.58784 1.00522 0
M  V30 1791 H 169.868 4.76856 -0.463187 0
M  V30 1792 H 168.232 2.54259 -0.149753 0
M  V30 1793 H 169.015 2.93951 -1.77335 0
M  V30 1794 N 171.46 0.379036 1.52974 0
M  V30 1795 C 172.407 -0.461048 2.26148 0
M  V30 1796 C 173.377 -1.06637 1.27349 0
M  V30 1797 O 174.562 -1.09633 1.56157 0
M  V30 1798 C 171.702 -1.58782 3.06402 0
M  V30 1799 C 170.815 -1.00636 4.20115 0
M  V30 1800 C 169.95 -2.10334 4.87784 0
M  V30 1801 C 168.989 -1.49724 5.93506 0
M  V30 1802 N 168.126 -2.5331 6.54812 0
M  V30 1803 H 172.966 0.169429 2.97518 0
M  V30 1804 H 170.503 0.0953806 1.4679 0
M  V30 1805 H 172.461 -2.25174 3.51215 0
M  V30 1806 H 171.091 -2.18876 2.37261 0
M  V30 1807 H 170.143 -0.232332 3.7969 0
M  V30 1808 H 171.455 -0.523343 4.96047 0
M  V30 1809 H 170.609 -2.84519 5.35849 0
M  V30 1810 H 169.348 -2.61992 4.11353 0
M  V30 1811 H 168.353 -0.740598 5.44789 0
M  V30 1812 H 169.578 -0.988732 6.71864 0
M  V30 1813 H 167.524 -3.04156 5.81227 0
M  V30 1814 H 167.441 -2.09734 7.26325 0
M  V30 1815 H 168.709 -3.27155 7.07524 0
M  V30 1816 N 172.938 -1.57226 0.108567 0
M  V30 1817 C 174.215 -1.86333 -0.594939 0
M  V30 1818 C 174.595 -1.00788 -1.85486 0
M  V30 1819 O 173.943 -0.0839293 -2.28346 0
M  V30 1820 C 174.153 -3.37265 -0.897405 0
M  V30 1821 C 175.501 -4.05629 -1.25501 0
M  V30 1822 O 176.525 -3.42224 -0.987998 0
M  V30 1823 O 175.384 -5.17531 -1.75567 0
M  V30 1824 H 172.478 -0.771018 -0.2991 0
M  V30 1825 H 175.024 -1.69102 0.142283 0
M  V30 1826 H 173.796 -3.913 -0.00413806 0
M  V30 1827 H 173.419 -3.59889 -1.69014 0
M  V30 1828 N 174.416 0.165178 -1.56732 0
M  V30 1829 C 175.366 1.20917 -1.93295 0
M  V30 1830 C 176.35 1.39488 -0.801985 0
M  V30 1831 O 177.542 1.41356 -1.06525 0
M  V30 1832 C 174.671 2.54718 -2.3016 0
M  V30 1833 C 173.757 2.39815 -3.49785 0
M  V30 1834 N 174.148 1.94637 -4.66851 0
M  V30 1835 C 172.446 2.70623 -3.54513 0
M  V30 1836 C 173.147 1.92344 -5.4898 0
M  V30 1837 N 172.123 2.34978 -4.9019 0
M  V30 1838 H 175.925 0.851675 -2.81289 0
M  V30 1839 H 173.439 0.373399 -1.58049 0
M  V30 1840 H 175.436 3.30165 -2.54552 0
M  V30 1841 H 174.096 2.91265 -1.43508 0
M  V30 1842 H 175.107 1.6488 -4.90953 0
M  V30 1843 H 171.784 3.11167 -2.78354 0
M  V30 1844 H 173.174 1.5906 -6.52801 0
M  V30 1845 N 175.894 1.51508 0.433938 0
M  V30 1846 C 176.824 1.76016 1.53429 0
M  V30 1847 C 177.805 0.610112 1.58782 0
M  V30 1848 O 178.99 0.853177 1.74455 0
M  V30 1849 C 176.12 1.88831 2.9148 0
M  V30 1850 C 175.074 3.04288 3.00987 0
M  V30 1851 C 174.4 3.0229 4.4105 0
M  V30 1852 C 175.7 4.44193 2.74754 0
M  V30 1853 H 177.394 2.68152 1.33171 0
M  V30 1854 H 174.94 1.29035 0.639214 0
M  V30 1855 H 176.893 2.04559 3.6842 0
M  V30 1856 H 175.617 0.933455 3.12976 0
M  V30 1857 H 174.276 2.8827 2.26486 0
M  V30 1858 H 173.924 2.04576 4.59519 0
M  V30 1859 H 173.624 3.79822 4.4834 0
M  V30 1860 H 175.148 3.20116 5.1996 0
M  V30 1861 H 176.562 4.60544 3.41426 0
M  V30 1862 H 174.959 5.23457 2.9345 0
M  V30 1863 H 176.029 4.53996 1.70339 0
M  V30 1864 N 177.372 -0.689602 1.41712 0
M  V30 1865 C 178.319 -1.80345 1.44029 0
M  V30 1866 C 179.289 -1.63478 0.293948 0
M  V30 1867 O 180.474 -1.84244 0.495869 0
M  V30 1868 C 177.614 -3.18272 1.33405 0
M  V30 1869 C 176.727 -3.46529 2.57956 0
M  V30 1870 C 175.862 -4.74103 2.39582 0
M  V30 1871 C 174.901 -4.95347 3.5958 0
M  V30 1872 N 174.038 -6.14151 3.40239 0
M  V30 1873 H 178.878 -1.77698 2.39222 0
M  V30 1874 H 176.415 -0.867688 1.18784 0
M  V30 1875 H 178.373 -3.97956 1.25246 0
M  V30 1876 H 177.003 -3.2008 0.418164 0
M  V30 1877 H 176.055 -2.61207 2.76542 0
M  V30 1878 H 177.367 -3.58126 3.47199 0
M  V30 1879 H 176.521 -5.61853 2.28924 0
M  V30 1880 H 175.26 -4.64763 1.47805 0
M  V30 1881 H 174.265 -4.06044 3.70686 0
M  V30 1882 H 175.49 -5.06542 4.52318 0
M  V30 1883 H 173.436 -6.06013 2.51167 0
M  V30 1884 H 173.353 -6.26543 4.23061 0
M  V30 1885 H 174.621 -7.04619 3.33365 0
M  V30 1886 N 178.85 -1.27639 -0.924453 0
M  V30 1887 C 179.797 -1.10644 -2.0255 0
M  V30 1888 C 180.767 -0.00658438 -1.66099 0
M  V30 1889 O 181.952 -0.16952 -1.90045 0
M  V30 1890 C 179.092 -0.76309 -3.36557 0
M  V30 1891 C 178.205 -1.94091 -3.85944 0
M  V30 1892 C 177.34 -1.53914 -5.08413 0
M  V30 1893 C 176.379 -2.68425 -5.50104 0
M  V30 1894 N 175.516 -2.28815 -6.63768 0
M  V30 1895 H 180.356 -2.04858 -2.16419 0
M  V30 1896 H 177.893 -1.01974 -1.06017 0
M  V30 1897 H 179.851 -0.544822 -4.13627 0
M  V30 1898 H 178.481 0.142102 -3.22487 0
M  V30 1899 H 177.533 -2.27162 -3.05125 0
M  V30 1900 H 178.845 -2.7998 -4.12811 0
M  V30 1901 H 177.999 -1.28231 -5.92994 0
M  V30 1902 H 176.738 -0.651391 -4.8333 0
M  V30 1903 H 175.743 -2.94819 -4.64071 0
M  V30 1904 H 176.968 -3.57826 -5.7718 0
M  V30 1905 H 174.914 -1.42495 -6.40337 0
M  V30 1906 H 174.831 -3.08242 -6.90306 0
M  V30 1907 H 176.099 -2.06387 -7.51681 0
M  V30 1908 N 180.328 1.1314 -1.09713 0
M  V30 1909 C 181.291 2.16831 -0.742751 0
M  V30 1910 C 182.291 1.59159 0.229129 0
M  V30 1911 O 183.481 1.74199 0.00693237 0
M  V30 1912 C 180.613 3.40756 -0.0989168 0
M  V30 1913 H 181.806 2.49695 -1.66109 0
M  V30 1914 H 179.359 1.2802 -0.896699 0
M  V30 1915 H 180.094 3.13485 0.830514 0
M  V30 1916 H 179.879 3.83888 -0.798265 0
M  V30 1917 H 181.369 4.17386 0.133524 0
M  V30 1918 N 181.806 0.884767 1.30421 0
M  V30 1919 C 183.052 0.503851 1.96441 0
M  V30 1920 C 183.385 -0.944518 1.69684 0
M  V30 1921 O 182.66 -1.66737 1.00145 0
M  V30 1922 C 182.943 0.779085 3.51571 0
M  V30 1923 C 182.796 2.27807 3.87846 0
M  V30 1924 C 184.115 0.255452 4.39358 0
M  V30 1925 H 181.234 0.184533 0.713524 0
M  V30 1926 H 183.876 1.10872 1.54297 0
M  V30 1927 H 182.026 0.264274 3.876 0
M  V30 1928 H 183.698 2.86127 3.61841 0
M  V30 1929 H 181.941 2.74479 3.35922 0
M  V30 1930 H 182.612 2.42125 4.96064 0
M  V30 1931 H 185.088 0.696079 4.10236 0
M  V30 1932 H 183.964 0.477361 5.4682 0
M  V30 1933 H 184.225 -0.843293 4.33983 0
M  V30 1934 N 183.284 -1.43765 0.645699 0
M  V30 1935 C 184.247 -2.29163 -0.0409488 0
M  V30 1936 C 185.247 -1.41813 -0.757996 0
M  V30 1937 O 186.437 -1.63527 -0.600382 0
M  V30 1938 C 183.569 -3.23716 -1.06869 0
M  V30 1939 H 184.762 -2.91366 0.710345 0
M  V30 1940 H 182.315 -1.5092 0.406547 0
M  V30 1941 H 183.05 -2.66393 -1.84947 0
M  V30 1942 H 182.835 -3.88105 -0.558277 0
M  V30 1943 H 184.325 -3.87831 -1.54845 0
M  V30 1944 N 184.763 -0.387143 -1.52771 0
M  V30 1945 C 185.673 0.456442 -2.30117 0
M  V30 1946 C 186.689 1.07342 -1.36944 0
M  V30 1947 O 187.865 1.07971 -1.70013 0
M  V30 1948 C 184.93 1.56957 -3.09136 0
M  V30 1949 C 183.991 0.977916 -4.18014 0
M  V30 1950 C 183.224 2.038 -4.93256 0
M  V30 1951 O 183.447 3.25271 -4.68567 0
M  V30 1952 O 182.381 1.6565 -5.78657 0
M  V30 1953 H 186.207 -0.17359 -3.03203 0
M  V30 1954 H 183.792 -0.150919 -1.48636 0
M  V30 1955 H 185.674 2.21628 -3.58412 0
M  V30 1956 H 184.349 2.18461 -2.38865 0
M  V30 1957 H 183.256 0.294525 -3.72939 0
M  V30 1958 H 184.589 0.407128 -4.90513 0
M  V30 1959 N 186.241 1.57166 -0.116904 0
M  V30 1960 C 187.49 1.94298 0.541407 0
M  V30 1961 C 187.803 1.00236 1.67964 0
M  V30 1962 O 189.009 1.26826 2.40057 0
M  V30 1963 C 187.465 3.45306 1.01449 0
M  V30 1964 C 187.073 4.47899 -0.0951738 0
M  V30 1965 C 188.817 3.91361 1.6443 0
M  V30 1966 C 186.724 5.90083 0.394491 0
M  V30 1967 H 185.654 0.725308 0.206019 0
M  V30 1968 H 188.305 1.82446 -0.196419 0
M  V30 1969 H 186.687 3.52385 1.80667 0
M  V30 1970 H 187.861 4.52486 -0.871374 0
M  V30 1971 H 186.176 4.11583 -0.631505 0
M  V30 1972 H 188.773 4.95004 2.02176 0
M  V30 1973 H 189.116 3.3122 2.52189 0
M  V30 1974 H 189.649 3.87073 0.917559 0
M  V30 1975 H 186.388 6.53974 -0.447004 0
M  V30 1976 H 185.908 5.88921 1.13722 0
M  V30 1977 H 187.587 6.41307 0.856399 0
M  V30 1978 N 187.719 -0.156864 1.56817 0
M  V30 1979 C 188.629 -1.2136 2.00771 0
M  V30 1980 C 189.645 -1.47598 0.921459 0
M  V30 1981 O 190.821 -1.59462 1.2302 0
M  V30 1982 C 187.886 -2.52943 2.37109 0
M  V30 1983 C 186.947 -2.34439 3.59634 0
M  V30 1984 C 186.18 -3.59748 3.94229 0
M  V30 1985 O 186.403 -4.65526 3.29609 0
M  V30 1986 O 185.337 -3.52998 4.8752 0
M  V30 1987 H 189.163 -0.870468 2.90958 0
M  V30 1988 H 186.748 -0.36484 1.44877 0
M  V30 1989 H 188.63 -3.30538 2.61386 0
M  V30 1990 H 187.305 -2.86806 1.5008 0
M  V30 1991 H 186.212 -1.54828 3.40557 0
M  V30 1992 H 187.545 -2.05496 4.4725 0
M  V30 1993 N 189.197 -1.51736 -0.425897 0
M  V30 1994 C 190.107 -1.76738 -1.54275 0
M  V30 1995 C 191.123 -0.65211 -1.61318 0
M  V30 1996 O 192.299 -0.935654 -1.78346 0
M  V30 1997 C 189.364 -1.89755 -2.90162 0
M  V30 1998 C 188.425 -3.13633 -2.93143 0
M  V30 1999 C 187.658 -3.2602 -4.22548 0
M  V30 2000 O 187.881 -2.44067 -5.15546 0
M  V30 2001 O 186.815 -4.19071 -4.32046 0
M  V30 2002 H 190.641 -2.71502 -1.36089 0
M  V30 2003 H 188.226 -1.36376 -0.610069 0
M  V30 2004 H 190.108 -2.00236 -3.70788 0
M  V30 2005 H 188.783 -0.981785 -3.08452 0
M  V30 2006 H 187.69 -3.08622 -2.11431 0
M  V30 2007 H 189.023 -4.04936 -2.798 0
M  V30 2008 N 190.675 0.682077 -1.42076 0
M  V30 2009 C 191.608 1.80666 -1.3941 0
M  V30 2010 C 192.586 1.60518 -0.25939 0
M  V30 2011 O 193.77 1.83088 -0.448456 0
M  V30 2012 C 190.897 3.17556 -1.17796 0
M  V30 2013 C 189.943 3.56468 -2.34164 0
M  V30 2014 S 190.776 3.59729 -3.96681 0
M  V30 2015 C 191.932 4.99323 -3.77395 0
M  V30 2016 H 192.165 1.82652 -2.34575 0
M  V30 2017 H 189.698 0.852062 -1.2876 0
M  V30 2018 H 191.656 3.96575 -1.06012 0
M  V30 2019 H 190.317 3.13164 -0.242279 0
M  V30 2020 H 189.51 4.5595 -2.1477 0
M  V30 2021 H 189.112 2.84792 -2.42425 0
M  V30 2022 H 191.404 5.87202 -3.37935 0
M  V30 2023 H 192.347 5.23763 -4.76527 0
M  V30 2024 H 192.755 4.71498 -3.10403 0
M  V30 2025 N 192.153 1.28127 0.917671 0
M  V30 2026 C 193.393 1.163 1.68088 0
M  V30 2027 C 193.757 -0.284515 1.8988 0
M  V30 2028 O 194.958 -0.525413 2.63615 0
M  V30 2029 C 193.229 1.93546 3.00457 0
M  V30 2030 S 194.788 1.98048 3.91564 0
M  V30 2031 H 191.606 0.415005 0.577315 0
M  V30 2032 H 194.208 1.62173 1.09179 0
M  V30 2033 H 192.912 2.97888 2.82295 0
M  V30 2034 H 192.443 1.48207 3.64415 0
M  V30 2035 H 194.458 1.08415 4.84211 0
M  V30 2036 N 193.631 -1.12557 1.10312 0
M  V30 2037 C 194.579 -2.20325 0.745629 0
M  V30 2038 C 195.573 -1.67429 -0.25763 0
M  V30 2039 O 196.779 -1.79612 -0.118132 0
M  V30 2040 H 193.154 -0.718118 0.223182 0
M  V30 2041 H 195.125 -2.47733 1.66346 0
M  V30 2042 C 193.874 -3.47168 0.192262 0
M  V30 2043 H 193.197 -3.88215 0.955475 0
M  V30 2044 H 194.637 -4.23995 -0.0198274 0
M  V30 2045 C 193.096 -3.19298 -1.07472 0
M  V30 2046 O 193.626 -3.3891 -2.15645 0
M  V30 2047 N 191.832 -2.73113 -0.992847 0
M  V30 2048 H 191.379 -2.57354 -0.112474 0
M  V30 2049 H 191.337 -2.54842 -1.84127 0
M  V30 2050 N 195.109 -0.891671 -1.2995 0
M  V30 2051 C 196.358 -0.509521 -1.95158 0
M  V30 2052 C 196.671 0.947388 -1.71125 0
M  V30 2053 O 197.877 1.43669 -2.30372 0
M  V30 2054 C 196.333 -0.860315 -3.49466 0
M  V30 2055 C 195.941 -2.33545 -3.8231 0
M  V30 2056 C 197.685 -0.547687 -4.20952 0
M  V30 2057 C 195.592 -2.62752 -5.29826 0
M  V30 2058 H 194.522 -0.18682 -0.730489 0
M  V30 2059 H 197.173 -1.08756 -1.47798 0
M  V30 2060 H 195.555 -0.211285 -3.95436 0
M  V30 2061 H 196.729 -3.02936 -3.47227 0
M  V30 2062 H 195.044 -2.61629 -3.23944 0
M  V30 2063 H 197.641 -0.742854 -5.29515 0
M  V30 2064 H 197.984 0.51332 -4.13123 0
M  V30 2065 H 198.517 -1.1542 -3.80688 0
M  V30 2066 H 195.256 -3.6762 -5.42712 0
M  V30 2067 H 194.776 -1.97977 -5.66185 0
M  V30 2068 H 196.455 -2.48601 -5.97333 0
M  V30 2069 N 196.587 1.43421 -0.653314 0
M  V30 2070 C 197.517 2.33487 0.0246656 0
M  V30 2071 C 198.498 1.49475 0.811863 0
M  V30 2072 O 199.683 1.78139 0.773322 0
M  V30 2073 C 196.813 3.32841 0.99166 0
M  V30 2074 C 195.767 4.26842 0.314568 0
M  V30 2075 C 195.093 5.16236 1.39302 0
M  V30 2076 C 196.393 5.16243 -0.793095 0
M  V30 2077 H 198.087 2.90427 -0.727481 0
M  V30 2078 H 195.633 1.39649 -0.351287 0
M  V30 2079 H 197.586 3.94747 1.47487 0
M  V30 2080 H 196.31 2.74158 1.77497 0
M  V30 2081 H 194.969 3.663 -0.148199 0
M  V30 2082 H 194.617 4.53891 2.16776 0
M  V30 2083 H 194.317 5.79948 0.945223 0
M  V30 2084 H 195.841 5.81015 1.87759 0
M  V30 2085 H 197.255 5.71958 -0.392039 0
M  V30 2086 H 195.652 5.88676 -1.16536 0
M  V30 2087 H 196.722 4.55927 -1.65103 0
M  V30 2088 N 198.065 0.39524 1.52563 0
M  V30 2089 C 199.012 -0.437036 2.26624 0
M  V30 2090 C 199.982 -1.05281 1.28472 0
M  V30 2091 O 201.167 -1.07971 1.57311 0
M  V30 2092 C 198.307 -1.55524 3.08069 0
M  V30 2093 C 197.42 -0.961745 4.21158 0
M  V30 2094 C 196.555 -2.05149 4.89987 0
M  V30 2095 C 195.594 -1.4342 5.95061 0
M  V30 2096 N 194.731 -2.46351 6.57462 0
M  V30 2097 H 199.571 0.200976 2.97322 0
M  V30 2098 H 197.108 0.110944 1.46681 0
M  V30 2099 H 199.066 -2.21437 3.53584 0
M  V30 2100 H 197.696 -2.16348 2.3957 0
M  V30 2101 H 196.748 -0.192048 3.79915 0
M  V30 2102 H 198.06 -0.470701 4.96574 0
M  V30 2103 H 197.214 -2.78819 5.38837 0
M  V30 2104 H 195.953 -2.57615 4.14109 0
M  V30 2105 H 194.958 -0.682774 5.45544 0
M  V30 2106 H 196.183 -0.917416 6.72875 0
M  V30 2107 H 194.129 -2.97975 5.8442 0
M  V30 2108 H 194.046 -2.02019 7.28508 0
M  V30 2109 H 195.314 -3.19633 7.10954 0
M  V30 2110 N 199.544 -1.57102 0.125237 0
M  V30 2111 C 200.772 -1.99761 -0.538797 0
M  V30 2112 C 201.187 -1.00503 -1.59827 0
M  V30 2113 O 200.544 0.00119474 -1.825 0
M  V30 2114 C 200.595 -3.42408 -1.15927 0
M  V30 2115 O 200.316 -4.37869 -0.142143 0
M  V30 2116 C 201.817 -4.00232 -1.90602 0
M  V30 2117 H 199.037 -0.655772 -0.14214 0
M  V30 2118 H 201.581 -2.03383 0.213413 0
M  V30 2119 H 199.736 -3.39706 -1.86223 0
M  V30 2120 H 200.15 -5.21128 -0.593775 0
M  V30 2121 H 201.624 -5.02105 -2.29335 0
M  V30 2122 H 202.101 -3.39721 -2.78363 0
M  V30 2123 H 202.707 -4.06499 -1.25055 0
M  V30 2124 N 201.022 0.148545 -1.56898 0
M  V30 2125 C 201.932 1.20293 -2.01412 0
M  V30 2126 C 202.948 1.47107 -0.929273 0
M  V30 2127 O 204.124 1.58807 -1.23863 0
M  V30 2128 C 201.189 2.51682 -2.38447 0
M  V30 2129 C 200.25 2.32529 -3.60872 0
M  V30 2130 C 199.483 3.57653 -3.96132 0
M  V30 2131 O 199.706 4.63771 -3.32073 0
M  V30 2132 O 198.64 3.50408 -4.89385 0
M  V30 2133 H 202.466 0.855025 -2.91416 0
M  V30 2134 H 200.051 0.357151 -1.45068 0
M  V30 2135 H 201.933 3.29147 -2.63135 0
M  V30 2136 H 200.608 2.86006 -1.51599 0
M  V30 2137 H 199.515 1.53019 -3.41373 0
M  V30 2138 H 200.848 2.03121 -4.48333 0
M  V30 2139 N 202.5 1.5196 0.417844 0
M  V30 2140 C 203.748 1.65263 1.16329 0
M  V30 2141 C 204.069 0.380634 1.91249 0
M  V30 2142 O 203.339 -0.604214 1.86349 0
M  V30 2143 H 201.919 0.60912 0.432414 0
M  V30 2144 H 204.581 1.88969 0.477162 0
M  V30 2145 H 203.677 2.4896 1.88217 0
M  V30 2146 N 203.978 -0.674533 1.42435 0
M  V30 2147 C 205.224 -1.43671 1.43131 0
M  V30 2148 C 205.557 -1.94142 0.0476021 0
M  V30 2149 O 204.832 -1.70924 -0.928188 0
M  V30 2150 C 205.115 -2.63355 2.45594 0
M  V30 2151 C 204.968 -2.18514 3.93156 0
M  V30 2152 C 206.287 -3.65571 2.45043 0
M  V30 2153 H 203.406 -0.521077 0.521198 0
M  V30 2154 H 206.048 -0.766551 1.7385 0
M  V30 2155 H 204.198 -3.2053 2.19528 0
M  V30 2156 H 205.87 -1.66504 4.30202 0
M  V30 2157 H 204.113 -1.50086 4.07009 0
M  V30 2158 H 204.784 -3.04484 4.60428 0
M  V30 2159 H 207.26 -3.18113 2.68223 0
M  V30 2160 H 206.136 -4.46893 3.18713 0
M  V30 2161 H 206.397 -4.16716 1.47649 0
M  V30 2162 N 205.456 -1.28612 -0.910864 0
M  V30 2163 C 206.684 -1.18792 -1.69399 0
M  V30 2164 C 207.099 0.253039 -1.87097 0
M  V30 2165 O 206.456 1.17071 -1.40003 0
M  V30 2166 C 206.507 -1.88511 -3.08457 0
M  V30 2167 O 206.228 -3.26979 -2.91576 0
M  V30 2168 C 207.729 -1.85029 -4.02839 0
M  V30 2169 H 204.949 -0.412233 -0.529438 0
M  V30 2170 H 207.493 -1.69788 -1.13984 0
M  V30 2171 H 205.648 -1.41379 -3.60681 0
M  V30 2172 H 206.062 -3.61936 -3.79608 0
M  V30 2173 H 207.536 -2.38395 -4.97867 0
M  V30 2174 H 208.013 -0.823303 -4.31414 0
M  V30 2175 H 208.619 -2.31853 -3.56545 0
M  V30 2176 N 206.934 1.1197 -1.10907 0
M  V30 2177 C 208.18 1.8386 -0.855773 0
M  V30 2178 C 208.513 1.84134 0.617103 0
M  V30 2179 O 207.788 1.29041 1.45529 0
M  V30 2180 C 208.071 3.31305 -1.411 0
M  V30 2181 C 207.924 3.39456 -2.9511 0
M  V30 2182 C 209.243 4.2721 -1.05736 0
M  V30 2183 H 206.362 0.667545 -0.312334 0
M  V30 2184 H 209.004 1.31331 -1.37303 0
M  V30 2185 H 207.154 3.76169 -0.97105 0
M  V30 2186 H 208.826 3.03191 -3.47668 0
M  V30 2187 H 207.069 2.79849 -3.31462 0
M  V30 2188 H 207.74 4.43209 -3.29044 0
M  V30 2189 H 210.216 3.90497 -1.43706 0
M  V30 2190 H 209.092 5.28775 -1.47269 0
M  V30 2191 H 209.353 4.42088 0.0325958 0
M  V30 2192 N 208.412 0.89855 1.29475 0
M  V30 2193 C 209.828 0.594483 1.48115 0
M  V30 2194 C 210.028 -0.86431 1.82022 0
M  V30 2195 O 209.084 -1.64457 1.91599 0
M  V30 2196 C 210.397 1.51932 2.59494 0
M  V30 2197 C 211.945 1.5244 2.7337 0
M  V30 2198 C 212.42 2.43548 3.87877 0
M  V30 2199 N 213.911 2.41589 3.95208 0
M  V30 2200 C 214.646 3.08789 4.83153 0
M  V30 2201 N 214.142 3.85265 5.75798 0
M  V30 2202 N 215.935 2.97952 4.76635 0
M  V30 2203 H 208.086 1.84207 1.05742 0
M  V30 2204 H 210.349 0.789251 0.525154 0
M  V30 2205 H 210.055 2.55865 2.41301 0
M  V30 2206 H 209.929 1.23899 3.56271 0
M  V30 2207 H 212.316 0.492518 2.90961 0
M  V30 2208 H 212.397 1.8451 1.77172 0
M  V30 2209 H 212.041 3.46829 3.71041 0
M  V30 2210 H 211.971 2.08788 4.83441 0
M  V30 2211 H 214.462 1.86025 3.28943 0
M  V30 2212 H 214.775 4.33598 6.39697 0
M  V30 2213 H 213.12 3.89371 5.75687 0
M  V30 2214 H 216.311 2.37723 4.03244 0
M  V30 2215 H 216.484 3.50599 5.44962 0
M  V30 2216 N 209.89 -1.43072 0.660911 0
M  V30 2217 C 211.306 -1.56169 0.329173 0
M  V30 2218 C 211.506 -1.64317 -1.16629 0
M  V30 2219 O 210.562 -1.60245 -1.95135 0
M  V30 2220 C 211.875 -2.81873 1.04729 0
M  V30 2221 C 213.423 -2.95627 1.02828 0
M  V30 2222 C 213.898 -4.24174 1.72744 0
M  V30 2223 N 215.389 -4.31055 1.69545 0
M  V30 2224 C 216.124 -5.29304 2.20511 0
M  V30 2225 N 215.62 -6.33786 2.79799 0
M  V30 2226 N 217.413 -5.21008 2.10966 0
M  V30 2227 H 209.564 -1.36027 1.63127 0
M  V30 2228 H 211.827 -0.653823 0.686454 0
M  V30 2229 H 211.533 -2.81942 2.10242 0
M  V30 2230 H 211.407 -3.72338 0.603702 0
M  V30 2231 H 213.794 -2.95094 -0.0184742 0
M  V30 2232 H 213.875 -2.06431 1.51063 0
M  V30 2233 H 213.519 -4.25467 2.7738 0
M  V30 2234 H 213.449 -5.1228 1.2197 0
M  V30 2235 H 215.94 -3.56174 1.26288 0
M  V30 2236 H 216.253 -7.05086 3.16344 0
M  V30 2237 H 214.598 -6.34387 2.83863 0
M  V30 2238 H 217.789 -4.38301 1.64347 0
M  V30 2239 H 217.962 -5.97416 2.50993 0
M  V30 2240 N 211.368 -0.403325 -1.52352 0
M  V30 2241 C 212.779 0.0675782 -1.86578 0
M  V30 2242 C 213.13 1.44941 -1.32236 0
M  V30 2243 O 212.255 2.06112 -0.659307 0
M  V30 2244 C 212.85 0.129404 -3.38553 0
M  V30 2245 C 211.409 0.544629 -3.72439 0
M  V30 2246 C 210.556 -0.284551 -2.75836 0
M  V30 2247 H 213.507 -0.620631 -1.46061 0
M  V30 2248 H 213.528 0.94581 -3.68558 0
M  V30 2249 H 213.04 -0.87645 -3.78074 0
M  V30 2250 H 211.141 1.55734 -3.38493 0
M  V30 2251 H 211.254 0.293046 -4.78203 0
M  V30 2252 H 209.618 0.252258 -2.53448 0
M  V30 2253 H 210.401 -1.28865 -3.18196 0
M  V30 2254 N 212.846 1.57033 -0.133567 0
M  V30 2255 C 214.123 1.87256 0.56522 0
M  V30 2256 C 214.503 1.03726 1.83859 0
M  V30 2257 O 213.851 0.120247 2.28183 0
M  V30 2258 C 214.061 3.3865 0.843636 0
M  V30 2259 C 215.409 4.07574 1.19032 0
M  V30 2260 O 216.433 3.43752 0.933429 0
M  V30 2261 O 215.292 5.20259 1.67312 0
M  V30 2262 H 212.386 0.775678 0.286796 0
M  V30 2263 H 214.932 1.68855 -0.169168 0
M  V30 2264 H 213.704 3.91257 -0.0581149 0
M  V30 2265 H 213.327 3.62532 1.63268 0
M  V30 2266 N 214.325 -0.140222 1.56975 0
M  V30 2267 C 215.736 -0.699596 1.73097 0
M  V30 2268 C 216.087 -1.8134 0.749022 0
M  V30 2269 O 215.212 -2.16241 -0.0828503 0
M  V30 2270 C 215.807 -1.27582 3.1386 0
M  V30 2271 C 214.366 -1.78169 3.31561 0
M  V30 2272 C 213.513 -0.672855 2.69013 0
M  V30 2273 H 216.464 0.0855115 1.58469 0
M  V30 2274 H 216.485 -2.14561 3.14235 0
M  V30 2275 H 215.997 -0.464955 3.85305 0
M  V30 2276 H 214.098 -2.61801 2.65124 0
M  V30 2277 H 214.211 -1.90574 4.39566 0
M  V30 2278 H 212.575 -1.10118 2.29665 0
M  V30 2279 H 213.358 0.126679 3.43066 0
M  V30 2280 N 215.803 -1.52179 -0.40978 0
M  V30 2281 C 217.052 -1.65434 -1.15388 0
M  V30 2282 C 217.365 -0.390056 -1.91671 0
M  V30 2283 O 218.571 -0.402399 -2.68501 0
M  V30 2284 C 217.027 -2.92279 -2.10003 0
M  V30 2285 C 216.635 -4.25813 -1.39239 0
M  V30 2286 C 218.379 -3.14897 -2.84675 0
M  V30 2287 C 216.286 -5.43782 -2.32498 0
M  V30 2288 H 215.216 -0.616267 -0.434432 0
M  V30 2289 H 217.867 -1.78666 -0.418401 0
M  V30 2290 H 216.249 -2.72744 -2.871 0
M  V30 2291 H 217.423 -4.55828 -0.675099 0
M  V30 2292 H 215.738 -4.09292 -0.766097 0
M  V30 2293 H 218.335 -4.0021 -3.54593 0
M  V30 2294 H 218.678 -2.29103 -3.47588 0
M  V30 2295 H 219.211 -3.34901 -2.14677 0
M  V30 2296 H 215.95 -6.3192 -1.74233 0
M  V30 2297 H 215.47 -5.18106 -3.02201 0
M  V30 2298 H 217.149 -5.76834 -2.93038 0
M  V30 2299 N 217.281 0.66697 -1.42791 0
M  V30 2300 C 218.558 1.4234 -1.34159 0
M  V30 2301 C 218.938 2.11093 0.0172729 0
M  V30 2302 O 218.286 2.03808 1.03318 0
M  V30 2303 C 218.496 2.41942 -2.51526 0
M  V30 2304 C 219.844 3.06353 -2.93995 0
M  V30 2305 O 220.868 2.52269 -2.51473 0
M  V30 2306 O 219.727 4.04376 -3.67617 0
M  V30 2307 H 216.821 0.635277 -0.529483 0
M  V30 2308 H 219.367 0.695034 -1.54814 0
M  V30 2309 H 218.139 1.89991 -3.42081 0
M  V30 2310 H 217.762 3.22249 -2.32898 0
M  V30 2311 N 218.759 1.29093 0.90403 0
M  V30 2312 C 220.005 1.17996 1.65676 0
M  V30 2313 C 220.36 -0.266816 1.90541 0
M  V30 2314 O 219.653 -1.19 1.50165 0
M  V30 2315 C 219.847 1.92224 3.01305 0
M  V30 2316 C 219.676 3.43972 2.89678 0
M  V30 2317 C 218.446 4.1332 2.90679 0
M  V30 2318 C 220.644 4.39546 2.67028 0
M  V30 2319 N 218.626 5.51463 2.69743 0
M  V30 2320 C 219.997 5.65119 2.5503 0
M  V30 2321 C 222.052 4.29359 2.52101 0
M  V30 2322 C 220.755 6.81663 2.29626 0
M  V30 2323 C 222.781 5.4565 2.28079 0
M  V30 2324 C 222.143 6.70193 2.16843 0
M  V30 2325 H 218.242 0.486759 0.612037 0
M  V30 2326 H 220.826 1.62868 1.06688 0
M  V30 2327 H 218.997 1.49773 3.58361 0
M  V30 2328 H 220.729 1.73429 3.65656 0
M  V30 2329 H 217.484 3.64984 3.01801 0
M  V30 2330 H 217.908 6.24105 2.6234 0
M  V30 2331 H 222.55 3.33769 2.59534 0
M  V30 2332 H 220.268 7.77313 2.20932 0
M  V30 2333 H 223.854 5.39664 2.1738 0
M  V30 2334 H 222.734 7.58659 1.98511 0
M  V30 2335 N 220.237 -1.11381 1.11499 0
M  V30 2336 C 221.462 -1.87475 0.887019 0
M  V30 2337 C 221.887 -1.79639 -0.557796 0
M  V30 2338 O 221.245 -1.15924 -1.39396 0
M  V30 2339 C 221.293 -3.34213 1.35403 0
M  V30 2340 O 220.397 -4.0903 0.526146 0
M  V30 2341 H 219.738 -0.582099 0.319463 0
M  V30 2342 H 222.268 -1.40785 1.48461 0
M  V30 2343 H 222.278 -3.8506 1.34881 0
M  V30 2344 H 220.953 -3.39232 2.40612 0
M  V30 2345 H 219.53 -3.68082 0.597522 0
M  V30 2346 N 221.715 -0.905404 -1.28997 0
M  V30 2347 C 222.645 -0.404212 -2.29975 0
M  V30 2348 C 223.626 0.523784 -1.61835 0
M  V30 2349 O 224.811 0.433298 -1.89304 0
M  V30 2350 C 221.941 0.364042 -3.45387 0
M  V30 2351 C 220.895 -0.474048 -4.25367 0
M  V30 2352 C 220.221 0.422045 -5.33032 0
M  V30 2353 C 221.521 -1.72696 -4.92923 0
M  V30 2354 H 223.215 -1.24807 -2.72146 0
M  V30 2355 H 220.761 -0.601585 -1.30832 0
M  V30 2356 H 222.714 0.725447 -4.15109 0
M  V30 2357 H 221.438 1.24174 -3.02074 0
M  V30 2358 H 220.097 -0.81786 -3.57361 0
M  V30 2359 H 219.745 1.29804 -4.85963 0
M  V30 2360 H 219.445 -0.135057 -5.87445 0
M  V30 2361 H 220.969 0.779517 -6.05604 0
M  V30 2362 H 222.383 -1.43495 -5.55051 0
M  V30 2363 H 220.78 -2.22582 -5.57295 0
M  V30 2364 H 221.85 -2.45964 -4.17887 0
M  V30 2365 N 223.193 1.4272 -0.668489 0
M  V30 2366 C 224.14 2.30796 0.0137489 0
M  V30 2367 C 225.11 1.4561 0.799177 0
M  V30 2368 O 226.295 1.74453 0.772702 0
M  V30 2369 C 223.435 3.31377 0.963507 0
M  V30 2370 C 222.548 4.31655 0.172569 0
M  V30 2371 C 221.683 5.19312 1.1175 0
M  V30 2372 C 220.722 6.11274 0.317886 0
M  V30 2373 N 219.859 6.91504 1.2152 0
M  V30 2374 H 224.699 2.88585 -0.743161 0
M  V30 2375 H 222.236 1.42154 -0.378226 0
M  V30 2376 H 224.194 3.88214 1.52792 0
M  V30 2377 H 222.824 2.75202 1.68712 0
M  V30 2378 H 221.876 3.76988 -0.508374 0
M  V30 2379 H 223.188 4.96779 -0.448527 0
M  V30 2380 H 222.342 5.80851 1.75206 0
M  V30 2381 H 221.081 4.5435 1.77249 0
M  V30 2382 H 220.086 5.48809 -0.329918 0
M  V30 2383 H 221.311 6.78283 -0.332917 0
M  V30 2384 H 219.257 6.29176 1.85671 0
M  V30 2385 H 219.174 7.53209 0.649036 0
M  V30 2386 H 220.442 7.57535 1.83742 0
M  V30 2387 N 224.671 0.411399 1.52136 0
M  V30 2388 C 225.901 -0.16284 2.05957 0
M  V30 2389 C 226.309 -1.3922 1.28119 0
M  V30 2390 O 225.652 -1.80768 0.326881 0
M  V30 2391 C 225.714 -0.575946 3.54856 0
M  V30 2392 C 225.378 0.542998 4.53763 0
M  V30 2393 C 226.375 1.40726 5.00492 0
M  V30 2394 C 224.06 0.716337 4.97166 0
M  V30 2395 C 226.054 2.4298 5.8927 0
M  V30 2396 C 223.741 1.74218 5.8574 0
M  V30 2397 C 224.739 2.59731 6.31687 0
M  V30 2398 O 224.427 3.60558 7.18507 0
M  V30 2399 H 224.159 -0.0229125 0.675612 0
M  V30 2400 H 226.713 0.581634 1.96993 0
M  V30 2401 H 224.943 -1.37274 3.61515 0
M  V30 2402 H 226.632 -1.07836 3.91313 0
M  V30 2403 H 227.398 1.28476 4.67674 0
M  V30 2404 H 223.277 0.0603857 4.6096 0
M  V30 2405 H 226.821 3.0976 6.25055 0
M  V30 2406 H 222.718 1.86498 6.17971 0
M  V30 2407 H 223.486 3.56829 7.36624 0
M  V30 2408 N 226.149 -1.5696 0.141893 0
M  V30 2409 C 227.096 -2.16501 -0.799737 0
M  V30 2410 C 228.066 -1.09643 -1.24771 0
M  V30 2411 O 229.251 -1.3766 -1.32115 0
M  V30 2412 C 226.391 -2.78679 -2.03549 0
M  V30 2413 C 225.504 -3.99914 -1.6338 0
M  V30 2414 C 224.639 -4.50106 -2.82096 0
M  V30 2415 C 223.678 -5.63819 -2.38275 0
M  V30 2416 N 222.815 -6.08651 -3.49983 0
M  V30 2417 H 227.655 -2.96632 -0.285179 0
M  V30 2418 H 225.192 -1.46533 -0.129053 0
M  V30 2419 H 227.15 -3.1287 -2.75986 0
M  V30 2420 H 225.78 -2.012 -2.52425 0
M  V30 2421 H 224.832 -3.71735 -0.807279 0
M  V30 2422 H 226.144 -4.82311 -1.27192 0
M  V30 2423 H 225.298 -4.86325 -3.62729 0
M  V30 2424 H 224.037 -3.66706 -3.21525 0
M  V30 2425 H 223.042 -5.2718 -1.56081 0
M  V30 2426 H 224.267 -6.49 -1.99938 0
M  V30 2427 H 222.213 -5.28188 -3.89042 0
M  V30 2428 H 222.13 -6.85961 -3.17794 0
M  V30 2429 H 223.398 -6.49515 -4.30988 0
M  V30 2430 N 227.627 0.131896 -1.57047 0
M  V30 2431 C 228.855 0.856461 -1.88341 0
M  V30 2432 C 229.27 1.74042 -0.731757 0
M  V30 2433 O 228.627 1.80051 0.297945 0
M  V30 2434 C 228.678 1.70064 -3.18999 0
M  V30 2435 O 228.399 0.852278 -4.2973 0
M  V30 2436 C 229.9 2.53148 -3.63911 0
M  V30 2437 H 227.12 0.246885 -0.62393 0
M  V30 2438 H 229.664 0.120152 -2.04147 0
M  V30 2439 H 227.819 2.38984 -3.04902 0
M  V30 2440 H 228.233 1.43329 -5.04537 0
M  V30 2441 H 229.707 3.07931 -4.58129 0
M  V30 2442 H 230.184 3.29901 -2.89935 0
M  V30 2443 H 230.79 1.89492 -3.80753 0
M  V30 2444 N 229.106 1.52395 0.401703 0
M  V30 2445 C 230.517 1.58899 0.980202 0
M  V30 2446 C 230.868 0.434032 1.91339 0
M  V30 2447 O 229.993 -0.444619 2.11783 0
M  V30 2448 C 230.588 2.87994 1.78451 0
M  V30 2449 C 229.147 2.96953 2.31292 0
M  V30 2450 C 228.294 2.53903 1.11483 0
M  V30 2451 H 231.245 1.57657 0.18168 0
M  V30 2452 H 231.266 2.73765 2.64259 0
M  V30 2453 H 230.778 3.72035 1.10506 0
M  V30 2454 H 228.879 2.17422 3.02586 0
M  V30 2455 H 228.992 4.01344 2.61649 0
M  V30 2456 H 227.356 2.07925 1.47104 0
M  V30 2457 H 228.139 3.40326 0.450928 0
M  V30 2458 N 230.584 -0.659388 1.43143 0
M  V30 2459 C 231.861 -1.41627 1.34912 0
M  V30 2460 C 232.241 -2.11099 -0.00607785 0
M  V30 2461 O 231.589 -2.04353 -1.02236 0
M  V30 2462 C 231.799 -2.40604 2.52805 0
M  V30 2463 C 233.147 -3.04789 2.95616 0
M  V30 2464 O 234.171 -2.50932 2.52807 0
M  V30 2465 O 233.03 -4.02421 3.69756 0
M  V30 2466 H 230.124 -0.63246 0.532844 0
M  V30 2467 H 232.67 -0.686814 1.5518 0
M  V30 2468 H 231.442 -1.88174 3.43083 0
M  V30 2469 H 231.065 -3.21009 2.34604 0
M  V30 2470 N 232.062 -1.29571 -0.897171 0
M  V30 2471 C 233.309 -1.17689 -1.6479 0
M  V30 2472 C 233.637 0.27107 -1.92602 0
M  V30 2473 O 232.892 1.21193 -1.53658 0
M  V30 2474 C 233.191 -1.9382 -3.00281 0
M  V30 2475 C 232.857 -3.43522 -2.92068 0
M  V30 2476 C 231.519 -3.84348 -2.89535 0
M  V30 2477 C 233.871 -4.38906 -2.81089 0
M  V30 2478 C 231.199 -5.18869 -2.73846 0
M  V30 2479 C 233.551 -5.73521 -2.66939 0
M  V30 2480 C 232.215 -6.13601 -2.62774 0
M  V30 2481 H 231.485 -0.430654 -0.603008 0
M  V30 2482 H 234.132 -1.60536 -1.04404 0
M  V30 2483 H 232.437 -1.4357 -3.64547 0
M  V30 2484 H 234.134 -1.82028 -3.57305 0
M  V30 2485 H 230.724 -3.11072 -2.94842 0
M  V30 2486 H 234.908 -4.08315 -2.82121 0
M  V30 2487 H 230.164 -5.4903 -2.69027 0
M  V30 2488 H 234.338 -6.47078 -2.57416 0
M  V30 2489 H 231.965 -7.17786 -2.50375 0
M  V30 2490 N 233.54 1.10788 -1.12088 0
M  V30 2491 C 234.45 2.20599 -0.798338 0
M  V30 2492 C 235.466 1.72712 0.21135 0
M  V30 2493 O 236.642 2.01348 0.0458477 0
M  V30 2494 C 233.707 3.45771 -0.253674 0
M  V30 2495 C 232.768 4.08411 -1.32283 0
M  V30 2496 C 232.001 5.27608 -0.80406 0
M  V30 2497 O 232.224 5.69241 0.363478 0
M  V30 2498 O 231.158 5.8101 -1.57198 0
M  V30 2499 H 234.984 2.50614 -1.7154 0
M  V30 2500 H 232.569 1.19454 -0.897275 0
M  V30 2501 H 234.451 4.21376 0.0453691 0
M  V30 2502 H 233.126 3.1739 0.636005 0
M  V30 2503 H 232.033 3.34507 -1.67499 0
M  V30 2504 H 233.366 4.40986 -2.18614 0
M  V30 2505 N 235.018 0.912232 1.28515 0
M  V30 2506 C 236.243 0.559774 1.99703 0
M  V30 2507 C 236.668 -0.851393 1.67729 0
M  V30 2508 O 236.026 -1.56875 0.908834 0
M  V30 2509 C 236.074 0.773874 3.52198 0
M  V30 2510 O 235.178 -0.167842 4.12058 0
M  V30 2511 H 234.519 0.21723 0.627461 0
M  V30 2512 H 237.049 1.22725 1.63706 0
M  V30 2513 H 237.059 0.683386 4.02236 0
M  V30 2514 H 235.734 1.80261 3.74805 0
M  V30 2515 H 234.311 -0.0287509 3.72889 0
M  V30 2516 N 236.496 -1.42363 0.676048 0
M  V30 2517 C 237.724 -2.05859 0.207268 0
M  V30 2518 C 238.139 -1.50796 -1.13605 0
M  V30 2519 O 237.496 -0.648265 -1.70598 0
M  V30 2520 C 237.547 -3.61248 0.134975 0
M  V30 2521 O 237.268 -4.1427 1.42521 0
M  V30 2522 C 238.769 -4.41859 -0.357151 0
M  V30 2523 H 235.989 -0.663431 0.100503 0
M  V30 2524 H 238.533 -1.82479 0.923136 0
M  V30 2525 H 236.688 -3.83735 -0.531588 0
M  V30 2526 H 237.102 -5.0815 1.29939 0
M  V30 2527 H 238.576 -5.50847 -0.356641 0
M  V30 2528 H 239.053 -4.16536 -1.39264 0
M  V30 2529 H 239.659 -4.24392 0.27772 0
M  V30 2530 N 237.974 -0.419461 -1.51915 0
M  V30 2531 C 239.222 0.152637 -2.01523 0
M  V30 2532 C 239.543 1.44762 -1.30649 0
M  V30 2533 O 238.813 1.90997 -0.435535 0
M  V30 2534 H 237.393 0.0593966 -0.744635 0
M  V30 2535 H 240.055 -0.558073 -1.86739 0
M  V30 2536 H 239.151 0.341369 -3.10227 0
M  V30 2537 N 239.452 1.56882 -0.150215 0
M  V30 2538 C 240.382 2.19935 0.784284 0
M  V30 2539 C 241.363 1.14854 1.25469 0
M  V30 2540 O 242.548 1.43209 1.31168 0
M  V30 2541 C 239.678 2.82349 2.02229 0
M  V30 2542 C 238.632 3.93285 1.68853 0
M  V30 2543 C 237.958 4.42649 2.99944 0
M  V30 2544 C 239.258 5.13904 0.932714 0
M  V30 2545 H 240.952 2.9828 0.258781 0
M  V30 2546 H 238.498 1.43473 0.123029 0
M  V30 2547 H 240.451 3.25126 2.68088 0
M  V30 2548 H 239.175 2.0134 2.57157 0
M  V30 2549 H 237.834 3.5113 1.05371 0
M  V30 2550 H 237.482 3.58458 3.52869 0
M  V30 2551 H 237.182 5.17476 2.78374 0
M  V30 2552 H 238.706 4.88099 3.66868 0
M  V30 2553 H 240.12 5.53506 1.49345 0
M  V30 2554 H 238.517 5.94515 0.81684 0
M  V30 2555 H 239.587 4.84842 -0.0749568 0
M  V30 2556 N 240.93 -0.123565 1.57115 0
M  V30 2557 C 242.16 -0.845233 1.88519 0
M  V30 2558 C 242.568 -1.74168 0.739064 0
M  V30 2559 O 241.911 -1.81244 -0.299355 0
M  V30 2560 C 241.973 -1.73452 3.14888 0
M  V30 2561 C 241.637 -1.01285 4.45635 0
M  V30 2562 C 242.634 -0.355774 5.18681 0
M  V30 2563 C 240.319 -0.99538 4.92339 0
M  V30 2564 C 242.313 0.309114 6.3665 0
M  V30 2565 C 240 -0.32669 6.10226 0
M  V30 2566 C 240.998 0.324406 6.82229 0
M  V30 2567 O 240.686 0.982437 7.97874 0
M  V30 2568 H 240.418 -0.248534 0.628655 0
M  V30 2569 H 242.972 -0.113907 2.05084 0
M  V30 2570 H 241.202 -2.50737 2.94394 0
M  V30 2571 H 242.891 -2.33021 3.32349 0
M  V30 2572 H 243.657 -0.360918 4.83655 0
M  V30 2573 H 239.536 -1.49159 4.36202 0
M  V30 2574 H 243.08 0.8179 6.92789 0
M  V30 2575 H 238.977 -0.319294 6.4471 0
M  V30 2576 H 239.745 0.886454 8.13686 0
M  V30 2577 N 242.408 -1.52605 -0.393616 0
M  V30 2578 C 243.633 -1.71592 -1.16495 0
M  V30 2579 C 244.058 -0.43133 -1.83088 0
M  V30 2580 O 243.416 0.612523 -1.7064 0
M  V30 2581 C 243.464 -2.86318 -2.19213 0
M  V30 2582 O 242.568 -2.52969 -3.257 0
M  V30 2583 H 241.909 -0.570734 -0.33935 0
M  V30 2584 H 244.439 -1.99377 -0.459324 0
M  V30 2585 H 244.449 -3.1168 -2.63286 0
M  V30 2586 H 243.124 -3.79511 -1.7013 0
M  V30 2587 H 241.701 -2.38332 -2.86797 0
M  V30 2588 N 243.887 0.651787 -1.4349 0
M  V30 2589 C 244.85 1.74647 -1.48429 0
M  V30 2590 C 245.85 1.56513 -0.368817 0
M  V30 2591 O 247.04 1.62385 -0.630623 0
M  V30 2592 C 244.172 3.13533 -1.33827 0
M  V30 2593 H 245.365 1.71649 -2.4592 0
M  V30 2594 H 242.918 0.863573 -1.30277 0
M  V30 2595 H 243.653 3.22142 -0.37349 0
M  V30 2596 H 243.438 3.28101 -2.14691 0
M  V30 2597 H 244.928 3.93356 -1.40218 0
M  V30 2598 N 245.365 1.30045 0.890287 0
M  V30 2599 C 246.298 1.10301 1.99772 0
M  V30 2600 C 247.276 0.0121631 1.62595 0
M  V30 2601 O 248.46 0.16469 1.87779 0
M  V30 2602 C 245.587 0.681125 3.31781 0
M  V30 2603 C 244.633 1.77206 3.87944 0
M  V30 2604 S 245.466 3.37335 4.15891 0
M  V30 2605 C 246.622 2.97036 5.50927 0
M  V30 2606 H 246.855 2.04057 2.16213 0
M  V30 2607 H 244.388 1.14299 1.03804 0
M  V30 2608 H 246.346 0.444439 4.08087 0
M  V30 2609 H 245.007 -0.236981 3.13205 0
M  V30 2610 H 244.2 1.42903 4.83316 0
M  V30 2611 H 243.802 1.96275 3.18358 0
M  V30 2612 H 246.094 2.44666 6.31779 0
M  V30 2613 H 247.037 3.91296 5.90164 0
M  V30 2614 H 247.445 2.35057 5.13233 0
M  V30 2615 N 246.843 -1.10192 1.12674 0
M  V30 2616 C 248.254 -1.63707 0.897604 0
M  V30 2617 C 248.605 -1.87812 -0.567546 0
M  V30 2618 O 247.73 -1.62196 -1.43253 0
M  V30 2619 C 248.325 -2.974 1.62292 0
M  V30 2620 C 246.884 -3.47772 1.43986 0
M  V30 2621 C 246.031 -2.22332 1.65722 0
M  V30 2622 H 248.982 -0.936587 1.28116 0
M  V30 2623 H 249.003 -3.64986 1.07541 0
M  V30 2624 H 248.515 -2.79824 2.68924 0
M  V30 2625 H 246.616 -3.70487 0.396206 0
M  V30 2626 H 246.729 -4.25723 2.19765 0
M  V30 2627 H 245.093 -2.30599 1.08149 0
M  V30 2628 H 245.876 -2.07285 2.73657 0
M  V30 2629 N 248.321 -0.919034 -1.28029 0
M  V30 2630 C 249.737 -0.617972 -1.4715 0
M  V30 2631 C 249.937 0.835242 -1.83374 0
M  V30 2632 O 248.993 1.61388 -1.94191 0
M  V30 2633 C 250.306 -1.56041 -2.57044 0
M  V30 2634 C 251.854 -1.56769 -2.7091 0
M  V30 2635 C 252.329 -2.49688 -3.83953 0
M  V30 2636 N 253.82 -2.47845 -3.91314 0
M  V30 2637 C 254.555 -3.16437 -4.78179 0
M  V30 2638 N 254.051 -3.94376 -5.69596 0
M  V30 2639 N 255.844 -3.05498 -4.71834 0
M  V30 2640 H 247.995 -1.85866 -1.02798 0
M  V30 2641 H 250.258 -0.797506 -0.512531 0
M  V30 2642 H 249.964 -2.59671 -2.372 0
M  V30 2643 H 249.838 -1.29551 -3.54255 0
M  V30 2644 H 252.225 -0.538745 -2.90141 0
M  V30 2645 H 252.306 -1.87305 -1.74214 0
M  V30 2646 H 251.95 -3.52688 -3.65477 0
M  V30 2647 H 251.88 -2.16453 -4.80058 0
M  V30 2648 H 254.371 -1.91234 -3.25941 0
M  V30 2649 H 254.684 -4.43721 -6.32718 0
M  V30 2650 H 253.029 -3.98481 -5.69419 0
M  V30 2651 H 256.22 -2.44108 -3.99411 0
M  V30 2652 H 256.393 -3.59225 -5.39316 0
M  V30 2653 N 249.799 1.42003 -0.683588 0
M  V30 2654 C 251.076 1.95112 -0.138075 0
M  V30 2655 C 251.456 1.62359 1.34918 0
M  V30 2656 O 250.804 0.924311 2.08971 0
M  V30 2657 C 251.014 3.46505 -0.416581 0
M  V30 2658 C 252.362 4.23254 -0.337834 0
M  V30 2659 O 253.386 3.54468 -0.35082 0
M  V30 2660 O 252.245 5.45743 -0.287596 0
M  V30 2661 H 249.339 0.826961 -0.00797996 0
M  V30 2662 H 251.885 1.51784 -0.758924 0
M  V30 2663 H 250.657 3.63582 -1.4465 0
M  V30 2664 H 250.28 3.969 0.235839 0
M  V30 2665 N 251.277 0.427512 1.51691 0
M  V30 2666 C 252.526 -0.143679 2.01188 0
M  V30 2667 C 252.839 -1.44642 1.31674 0
M  V30 2668 O 254.045 -2.09997 1.72086 0
M  V30 2669 C 252.501 -0.306602 3.58592 0
M  V30 2670 C 252.109 0.985125 4.37035 0
M  V30 2671 C 253.853 -0.832091 4.16265 0
M  V30 2672 C 251.76 0.788382 5.86122 0
M  V30 2673 H 250.69 -0.0574701 0.751807 0
M  V30 2674 H 253.341 0.555772 1.74881 0
M  V30 2675 H 251.723 -1.06882 3.81303 0
M  V30 2676 H 252.897 1.75492 4.26074 0
M  V30 2677 H 251.212 1.4384 3.90767 0
M  V30 2678 H 253.809 -0.995617 5.25349 0
M  V30 2679 H 254.152 -1.81186 3.74803 0
M  V30 2680 H 254.685 -0.128444 3.97593 0
M  V30 2681 H 251.424 1.74025 6.31978 0
M  V30 2682 H 250.944 0.0582143 5.99772 0
M  V30 2683 H 252.623 0.437722 6.45518 0
M  V30 2684 N 252.755 -1.56801 0.158532 0
M  V30 2685 C 253.685 -2.20347 -0.772609 0
M  V30 2686 C 254.666 -1.15518 -1.24859 0
M  V30 2687 O 255.851 -1.43902 -1.30406 0
M  V30 2688 C 252.981 -2.83417 -2.00729 0
M  V30 2689 C 251.935 -3.94174 -1.66765 0
M  V30 2690 C 251.261 -4.44233 -2.97592 0
M  V30 2691 C 252.561 -5.14392 -0.905447 0
M  V30 2692 H 254.255 -2.98413 -0.242959 0
M  V30 2693 H 251.801 -1.43537 -0.115419 0
M  V30 2694 H 253.754 -3.26543 -2.6636 0
M  V30 2695 H 252.478 -2.02701 -2.56086 0
M  V30 2696 H 251.137 -3.51684 -1.03508 0
M  V30 2697 H 250.785 -3.60325 -3.50963 0
M  V30 2698 H 250.485 -5.18945 -2.75626 0
M  V30 2699 H 252.009 -4.90037 -3.64274 0
M  V30 2700 H 253.423 -5.5429 -1.46408 0
M  V30 2701 H 251.82 -5.9494 -0.7853 0
M  V30 2702 H 252.89 -4.84795 0.100668 0
M  V30 2703 N 254.233 0.115231 -1.57178 0
M  V30 2704 C 255.482 0.820945 -1.84237 0
M  V30 2705 C 255.795 1.80866 -0.744761 0
M  V30 2706 O 257.001 2.56083 -0.901871 0
M  V30 2707 C 255.457 1.51072 -3.26658 0
M  V30 2708 C 255.065 0.563795 -4.44438 0
M  V30 2709 C 256.809 2.20134 -3.62962 0
M  V30 2710 C 254.716 1.25701 -5.77887 0
M  V30 2711 H 253.646 0.310328 -0.687177 0
M  V30 2712 H 256.297 0.0737134 -1.83352 0
M  V30 2713 H 254.679 2.30471 -3.22024 0
M  V30 2714 H 255.853 -0.197247 -4.60378 0
M  V30 2715 H 254.168 -0.0200638 -4.16395 0
M  V30 2716 H 256.765 2.72696 -4.59936 0
M  V30 2717 H 257.108 2.98107 -2.90582 0
M  V30 2718 H 257.641 1.47619 -3.69396 0
M  V30 2719 H 254.38 0.518493 -6.53446 0
M  V30 2720 H 253.9 1.98997 -5.65827 0
M  V30 2721 H 255.579 1.78915 -6.2177 0
M  V30 2722 N 255.711 1.52812 0.385517 0
M  V30 2723 C 256.957 1.68275 1.13188 0
M  V30 2724 C 257.29 0.423179 1.89533 0
M  V30 2725 O 256.565 -0.579113 1.85679 0
M  V30 2726 C 256.848 2.92001 2.1073 0
M  V30 2727 C 256.701 4.28067 1.38125 0
M  V30 2728 C 258.02 3.11283 3.11113 0
M  V30 2729 H 255.139 0.612352 0.410115 0
M  V30 2730 H 257.781 1.85415 0.414869 0
M  V30 2731 H 255.931 2.77519 2.71874 0
M  V30 2732 H 257.603 4.54324 0.799187 0
M  V30 2733 H 255.846 4.28388 0.683092 0
M  V30 2734 H 256.517 5.10733 2.09417 0
M  V30 2735 H 258.993 3.2482 2.6006 0
M  V30 2736 H 257.869 3.99325 3.76605 0
M  V30 2737 H 258.13 2.25656 3.80173 0
M  V30 2738 N 257.189 -0.644168 1.43834 0
M  V30 2739 C 258.435 -1.40603 1.46146 0
M  V30 2740 C 258.768 -1.93997 0.0887717 0
M  V30 2741 O 258.043 -1.72854 -0.891724 0
M  V30 2742 C 258.326 -2.58086 2.51124 0
M  V30 2743 C 258.179 -2.10126 3.97702 0
M  V30 2744 C 259.498 -3.60291 2.52742 0
M  V30 2745 H 256.617 -0.509905 0.532134 0
M  V30 2746 H 259.259 -0.729502 1.75437 0
M  V30 2747 H 257.409 -3.15801 2.26278 0
M  V30 2748 H 259.081 -1.57342 4.33637 0
M  V30 2749 H 257.324 -1.41419 4.10101 0
M  V30 2750 H 257.995 -2.94649 4.66783 0
M  V30 2751 H 260.471 -3.12352 2.7491 0
M  V30 2752 H 259.347 -4.40032 3.28121 0
M  V30 2753 H 259.608 -4.1349 1.56455 0
M  V30 2754 N 258.668 -1.30515 -0.883378 0
M  V30 2755 C 259.916 -1.19194 -1.63209 0
M  V30 2756 C 260.237 0.253205 -1.93349 0
M  V30 2757 O 259.507 1.17025 -1.57105 0
M  V30 2758 H 258.087 -0.438148 -0.605009 0
M  V30 2759 H 260.749 -1.63663 -1.05832 0
M  V30 2760 H 259.845 -1.75396 -2.58153 0
M  V30 2761 N 260.146 1.09593 -1.13257 0
M  V30 2762 C 261.094 2.18271 -0.803783 0
M  V30 2763 C 262.088 1.68054 0.213148 0
M  V30 2764 O 263.294 1.79862 0.0704699 0
M  V30 2765 H 259.669 0.711949 -0.242143 0
M  V30 2766 H 261.64 2.43235 -1.72856 0
M  V30 2767 C 260.389 3.46536 -0.28424 0
M  V30 2768 H 259.712 3.85545 -1.05807 0
M  V30 2769 H 261.152 4.23899 -0.0925945 0
M  V30 2770 C 259.611 3.22036 0.989684 0
M  V30 2771 O 260.141 3.44509 2.06584 0
M  V30 2772 N 258.347 2.7565 0.920086 0
M  V30 2773 H 257.894 2.57562 0.0442019 0
M  V30 2774 H 257.852 2.59635 1.77306 0
M  V30 2775 N 261.624 0.925811 1.2754 0
M  V30 2776 C 262.534 0.428993 2.30644 0
M  V30 2777 C 263.55 -0.489387 1.66976 0
M  V30 2778 O 264.726 -0.372653 1.97922 0
M  V30 2779 C 261.791 -0.311967 3.45294 0
M  V30 2780 C 260.852 0.641098 4.24486 0
M  V30 2781 C 260.085 -0.0645955 5.33661 0
M  V30 2782 O 260.308 -1.28429 5.55754 0
M  V30 2783 O 259.242 0.606265 5.98839 0
M  V30 2784 H 263.068 1.28504 2.75173 0
M  V30 2785 H 260.653 0.691086 1.32455 0
M  V30 2786 H 262.535 -0.729972 4.15029 0
M  V30 2787 H 261.21 -1.14365 3.02824 0
M  V30 2788 H 260.117 1.10874 3.57292 0
M  V30 2789 H 261.45 1.43995 4.70666 0
M  V30 2790 N 263.102 -1.41638 0.69111 0
M  V30 2791 C 264.351 -2.00526 0.217318 0
M  V30 2792 C 264.664 -1.55353 -1.18848 0
M  V30 2793 O 265.87 -2.06769 -1.75951 0
M  V30 2794 C 264.326 -3.58313 0.337639 0
M  V30 2795 C 263.934 -4.12469 1.74852 0
M  V30 2796 C 265.678 -4.24431 -0.0766066 0
M  V30 2797 C 263.585 -5.62675 1.82074 0
M  V30 2798 H 262.515 -0.750008 0.0774893 0
M  V30 2799 H 265.166 -1.6217 0.858661 0
M  V30 2800 H 263.548 -3.9425 -0.371879 0
M  V30 2801 H 264.722 -3.8796 2.48644 0
M  V30 2802 H 263.037 -3.58861 2.11205 0
M  V30 2803 H 265.634 -5.34683 -0.0430284 0
M  V30 2804 H 265.977 -4.01101 -1.1146 0
M  V30 2805 H 266.51 -3.93512 0.582476 0
M  V30 2806 H 263.249 -5.90826 2.83911 0
M  V30 2807 H 262.769 -5.89124 1.12661 0
M  V30 2808 H 264.448 -6.27371 1.58159 0
M  V30 2809 N 264.58 -0.43555 -1.51462 0
M  V30 2810 C 265.829 0.133007 -2.01261 0
M  V30 2811 C 266.142 1.43942 -1.32439 0
M  V30 2812 O 267.348 2.09081 -1.73198 0
M  V30 2813 C 265.804 0.287581 -3.58749 0
M  V30 2814 C 265.412 -1.00829 -4.36506 0
M  V30 2815 C 267.156 0.810004 -4.167 0
M  V30 2816 C 265.063 -0.819454 -5.85695 0
M  V30 2817 H 263.993 0.0534822 -0.752101 0
M  V30 2818 H 266.644 -0.565038 -1.74584 0
M  V30 2819 H 265.026 1.04859 -3.81865 0
M  V30 2820 H 266.2 -1.77749 -4.25138 0
M  V30 2821 H 264.515 -1.45911 -3.89999 0
M  V30 2822 H 267.112 0.967743 -5.2587 0
M  V30 2823 H 267.455 1.79196 -3.75758 0
M  V30 2824 H 267.988 0.107357 -3.97655 0
M  V30 2825 H 264.727 -1.77374 -6.31046 0
M  V30 2826 H 264.247 -0.0900208 -5.99732 0
M  V30 2827 H 265.926 -0.471949 -6.45276 0
M  V30 2828 N 266.058 1.56714 -0.166846 0
M  V30 2829 C 266.968 2.21331 0.777791 0
M  V30 2830 C 267.984 1.20358 1.25658 0
M  V30 2831 O 269.16 1.53005 1.30964 0
M  V30 2832 C 266.225 2.83787 1.99163 0
M  V30 2833 C 265.286 3.99947 1.56016 0
M  V30 2834 C 264.519 4.59415 2.71613 0
M  V30 2835 O 264.742 4.17769 3.88362 0
M  V30 2836 O 263.676 5.49359 2.45945 0
M  V30 2837 H 267.502 3.02605 0.257636 0
M  V30 2838 H 265.087 1.49275 0.0611393 0
M  V30 2839 H 266.969 3.23405 2.70161 0
M  V30 2840 H 265.644 2.05513 2.50092 0
M  V30 2841 H 264.551 3.65007 0.819809 0
M  V30 2842 H 265.884 4.79801 1.09782 0
M  V30 2843 N 267.536 -0.106894 1.57237 0
M  V30 2844 C 268.499 -1.11466 2.0027 0
M  V30 2845 C 269.499 -1.33623 0.894519 0
M  V30 2846 O 270.689 -1.29935 1.16028 0
M  V30 2847 C 267.821 -2.46646 2.35327 0
M  V30 2848 H 269.014 -0.744516 2.90512 0
M  V30 2849 H 266.567 -0.351576 1.52295 0
M  V30 2850 H 267.302 -2.88558 1.48003 0
M  V30 2851 H 267.087 -2.31915 3.16161 0
M  V30 2852 H 268.577 -3.19151 2.69318 0
M  V30 2853 N 269.014 -1.53014 -0.377408 0
M  V30 2854 C 270.425 -1.60438 -0.954798 0
M  V30 2855 C 270.776 -0.464418 -1.90624 0
M  V30 2856 O 269.901 0.41087 -2.12464 0
M  V30 2857 C 270.496 -2.90797 -1.73847 0
M  V30 2858 C 269.055 -3.00595 -2.26538 0
M  V30 2859 C 268.202 -2.55645 -1.07429 0
M  V30 2860 H 271.153 -1.57926 -0.156575 0
M  V30 2861 H 271.174 -2.77935 -2.5987 0
M  V30 2862 H 270.686 -3.73746 -1.04574 0
M  V30 2863 H 268.787 -2.22208 -2.99089 0
M  V30 2864 H 268.9 -4.05456 -2.5523 0
M  V30 2865 H 267.264 -2.10239 -1.43777 0
M  V30 2866 H 268.047 -3.41 -0.396728 0
M  V30 2867 N 270.492 0.636531 -1.44174 0
M  V30 2868 C 271.425 1.76139 -1.45087 0
M  V30 2869 C 272.403 1.59611 -0.310326 0
M  V30 2870 O 273.587 1.81568 -0.506477 0
M  V30 2871 C 270.714 3.13648 -1.27839 0
M  V30 2872 C 269.76 3.48838 -2.45386 0
M  V30 2873 S 270.593 3.46927 -4.07924 0
M  V30 2874 C 271.749 4.87064 -3.9309 0
M  V30 2875 H 271.982 1.75096 -2.40268 0
M  V30 2876 H 269.515 0.810666 -1.31406 0
M  V30 2877 H 271.473 3.93002 -1.18575 0
M  V30 2878 H 270.134 3.12235 -0.341787 0
M  V30 2879 H 269.327 4.48886 -2.29167 0
M  V30 2880 H 268.929 2.76935 -2.51362 0
M  V30 2881 H 271.221 5.76153 -3.56446 0
M  V30 2882 H 272.164 5.08337 -4.92949 0
M  V30 2883 H 272.572 4.61384 -3.25246 0
M  V30 2884 N 271.97 1.30982 0.876444 0
M  V30 2885 C 272.933 1.18054 1.96459 0
M  V30 2886 C 273.933 0.109399 1.60427 0
M  V30 2887 O 275.123 0.358173 1.70478 0
M  V30 2888 C 272.255 0.810616 3.31122 0
M  V30 2889 H 273.448 2.14735 2.09354 0
M  V30 2890 H 271.001 1.145 1.06392 0
M  V30 2891 H 271.736 -0.155322 3.23928 0
M  V30 2892 H 271.521 1.58481 3.58645 0
M  V30 2893 H 273.011 0.743876 4.10921 0
M  V30 2894 N 273.449 -1.08991 1.13837 0
M  V30 2895 C 274.695 -1.81699 0.91417 0
M  V30 2896 C 275.05 -1.84264 -0.553594 0
M  V30 2897 O 274.343 -1.30313 -1.4046 0
M  V30 2898 C 274.537 -3.27042 1.44147 0
M  V30 2899 C 274.366 -3.38637 2.95897 0
M  V30 2900 C 273.136 -3.50177 3.64286 0
M  V30 2901 C 275.334 -3.30791 3.93804 0
M  V30 2902 N 273.316 -3.50501 5.04006 0
M  V30 2903 C 274.687 -3.38037 5.19741 0
M  V30 2904 C 276.742 -3.14488 3.86007 0
M  V30 2905 C 275.445 -3.30659 6.38793 0
M  V30 2906 C 277.471 -3.08438 5.04599 0
M  V30 2907 C 276.833 -3.1628 6.29402 0
M  V30 2908 H 272.932 -0.678967 0.387979 0
M  V30 2909 H 275.516 -1.30224 1.4474 0
M  V30 2910 H 273.687 -3.76976 0.935091 0
M  V30 2911 H 275.419 -3.87785 1.1578 0
M  V30 2912 H 272.174 -3.53815 3.1482 0
M  V30 2913 H 272.598 -3.54236 5.76928 0
M  V30 2914 H 277.24 -3.07291 2.90399 0
M  V30 2915 H 274.958 -3.36618 7.34652 0
M  V30 2916 H 278.544 -2.96952 5.0031 0
M  V30 2917 H 277.424 -3.1162 7.19627 0
M  V30 2918 N 274.927 -0.932562 -1.27047 0
M  V30 2919 C 276.343 -0.633544 -1.46487 0
M  V30 2920 C 276.543 0.815746 -1.84249 0
M  V30 2921 O 275.599 1.59319 -1.95892 0
M  V30 2922 C 276.912 -1.58758 -2.55375 0
M  V30 2923 C 278.46 -1.59634 -2.69232 0
M  V30 2924 C 278.935 -2.53747 -3.81283 0
M  V30 2925 N 280.426 -2.51982 -3.88664 0
M  V30 2926 C 281.161 -3.21491 -4.74796 0
M  V30 2927 N 280.657 -4.00395 -5.65381 0
M  V30 2928 N 282.45 -3.10485 -4.68568 0
M  V30 2929 H 274.601 -1.86946 -1.00821 0
M  V30 2930 H 276.864 -0.802897 -0.504044 0
M  V30 2931 H 276.57 -2.62172 -2.34432 0
M  V30 2932 H 276.444 -1.33301 -3.52861 0
M  V30 2933 H 278.831 -0.569488 -2.89553 0
M  V30 2934 H 278.912 -1.89142 -1.72218 0
M  V30 2935 H 278.556 -3.56545 -3.61715 0
M  V30 2936 H 278.486 -2.21532 -4.77735 0
M  V30 2937 H 280.977 -1.94681 -3.23895 0
M  V30 2938 H 281.29 -4.50406 -6.27976 0
M  V30 2939 H 279.635 -4.04498 -5.65161 0
M  V30 2940 H 282.826 -2.48331 -3.96799 0
M  V30 2941 H 282.999 -3.64925 -5.35475 0
M  V30 2942 N 276.405 1.4127 -0.698611 0
M  V30 2943 C 277.63 2.06024 -0.238512 0
M  V30 2944 C 278.055 1.5224 1.10475 0
M  V30 2945 O 277.413 0.650623 1.69223 0
M  V30 2946 C 277.461 3.59988 -0.209952 0
M  V30 2947 O 276.565 4.04282 0.814235 0
M  V30 2948 H 275.906 0.653829 -0.115775 0
M  V30 2949 H 278.436 1.8098 -0.954326 0
M  V30 2950 H 278.446 4.07979 -0.0418436 0
M  V30 2951 H 277.121 3.98503 -1.1903 0
M  V30 2952 H 275.698 3.6779 0.615234 0
M  V30 2953 N 277.883 0.443576 1.51229 0
M  V30 2954 C 279.299 0.0962001 1.5931 0
M  V30 2955 C 279.499 -1.39501 1.45402 0
M  V30 2956 O 278.555 -2.16557 1.29843 0
M  V30 2957 C 279.868 0.621875 2.94199 0
M  V30 2958 C 281.416 0.582865 3.07525 0
M  V30 2959 C 281.891 1.08562 4.44948 0
M  V30 2960 N 283.382 1.04387 4.51284 0
M  V30 2961 C 284.117 1.40368 5.55954 0
M  V30 2962 N 283.613 1.83664 6.68011 0
M  V30 2963 N 285.406 1.32145 5.46346 0
M  V30 2964 H 277.557 1.41376 1.58514 0
M  V30 2965 H 279.82 0.582965 0.747567 0
M  V30 2966 H 279.526 1.66546 3.09767 0
M  V30 2967 H 279.4 0.0502125 3.77167 0
M  V30 2968 H 281.787 -0.451749 2.91622 0
M  V30 2969 H 281.868 1.191 2.26382 0
M  V30 2970 H 281.512 2.11873 4.61598 0
M  V30 2971 H 281.442 0.453956 5.2464 0
M  V30 2972 H 283.933 0.725986 3.70861 0
M  V30 2973 H 284.246 2.0934 7.43906 0
M  V30 2974 H 282.591 1.87596 6.69203 0
M  V30 2975 H 285.782 0.981808 4.57688 0
M  V30 2976 H 285.955 1.60514 6.27805 0
M  V30 2977 N 279.361 -1.56624 0.175154 0
M  V30 2978 C 280.608 -1.96999 -0.468811 0
M  V30 2979 C 280.936 -1.06129 -1.62994 0
M  V30 2980 O 280.191 -0.0961771 -1.95464 0
M  V30 2981 C 280.49 -3.43419 -0.989864 0
M  V30 2982 C 280.156 -4.50866 0.0557687 0
M  V30 2983 C 278.818 -4.79975 0.343134 0
M  V30 2984 C 281.17 -5.15551 0.765308 0
M  V30 2985 C 278.498 -5.71066 1.34536 0
M  V30 2986 C 280.85 -6.07724 1.75654 0
M  V30 2987 C 279.514 -6.35199 2.05132 0
M  V30 2988 H 278.784 -0.720869 -0.17155 0
M  V30 2989 H 281.431 -1.89616 0.267924 0
M  V30 2990 H 279.736 -3.47772 -1.80449 0
M  V30 2991 H 281.433 -3.72002 -1.49719 0
M  V30 2992 H 278.023 -4.28229 -0.178381 0
M  V30 2993 H 282.207 -4.9317 0.556513 0
M  V30 2994 H 277.463 -5.90635 1.57988 0
M  V30 2995 H 281.637 -6.56912 2.31169 0
M  V30 2996 H 279.264 -7.05584 2.8294 0
M  V30 2997 N 280.839 0.0985539 -1.57292 0
M  V30 2998 C 282.086 0.802678 -1.85912 0
M  V30 2999 C 282.414 1.78901 -0.763186 0
M  V30 3000 O 281.669 1.94178 0.243559 0
M  V30 3001 C 281.968 1.56927 -3.21105 0
M  V30 3002 C 281.634 0.725376 -4.45027 0
M  V30 3003 C 280.296 0.492726 -4.78671 0
M  V30 3004 C 282.648 0.138493 -5.21016 0
M  V30 3005 C 279.976 -0.336727 -5.85733 0
M  V30 3006 C 282.328 -0.678264 -6.28953 0
M  V30 3007 C 280.992 -0.921039 -6.61115 0
M  V30 3008 H 280.262 0.293721 -0.680301 0
M  V30 3009 H 282.909 0.0642841 -1.91392 0
M  V30 3010 H 281.214 2.37914 -3.11294 0
M  V30 3011 H 282.911 2.11841 -3.40477 0
M  V30 3012 H 279.501 0.916815 -4.18679 0
M  V30 3013 H 283.685 0.305404 -4.95359 0
M  V30 3014 H 278.941 -0.533836 -6.09065 0
M  V30 3015 H 283.115 -1.1399 -6.87007 0
M  V30 3016 H 280.742 -1.56556 -7.43905 0
M  V30 3017 N 282.317 1.53212 0.369288 0
M  V30 3018 C 283.227 1.82342 1.47609 0
M  V30 3019 C 284.243 0.711532 1.58787 0
M  V30 3020 O 285.419 1.0012 1.74751 0
M  V30 3021 C 282.484 2.00393 2.8292 0
M  V30 3022 C 281.545 3.24297 2.81301 0
M  V30 3023 C 280.778 3.41478 4.10157 0
M  V30 3024 O 281.001 2.63033 5.06132 0
M  V30 3025 O 279.935 4.34817 4.16194 0
M  V30 3026 H 283.761 2.76366 1.25918 0
M  V30 3027 H 281.346 1.38547 0.559034 0
M  V30 3028 H 283.228 2.13859 3.63101 0
M  V30 3029 H 281.903 1.09559 3.04596 0
M  V30 3030 H 280.81 3.16257 1.99831 0
M  V30 3031 H 282.143 4.15041 2.64578 0
M  V30 3032 N 283.795 -0.628877 1.44509 0
M  V30 3033 C 285.025 -1.41349 1.50678 0
M  V30 3034 C 285.433 -1.88745 0.131075 0
M  V30 3035 O 284.776 -1.61592 -0.87371 0
M  V30 3036 C 284.838 -2.66608 2.41165 0
M  V30 3037 C 284.502 -2.40993 3.88293 0
M  V30 3038 C 285.499 -2.0268 4.78766 0
M  V30 3039 C 283.184 -2.54563 4.33016 0
M  V30 3040 C 285.178 -1.78269 6.11963 0
M  V30 3041 C 282.865 -2.29766 5.6626 0
M  V30 3042 C 283.863 -1.91678 6.55552 0
M  V30 3043 O 283.551 -1.67158 7.86329 0
M  V30 3044 H 283.283 -0.439851 0.51333 0
M  V30 3045 H 285.837 -0.776084 1.90174 0
M  V30 3046 H 284.067 -3.32994 1.96601 0
M  V30 3047 H 285.756 -3.28615 2.38259 0
M  V30 3048 H 286.522 -1.91751 4.45485 0
M  V30 3049 H 282.401 -2.83179 3.63773 0
M  V30 3050 H 285.945 -1.48465 6.81619 0
M  V30 3051 H 281.842 -2.40306 5.99102 0
M  V30 3052 H 282.61 -1.81386 7.98149 0
M  V30 3053 N 285.273 -1.31445 -0.869486 0
M  V30 3054 C 286.689 -1.10113 -1.15531 0
M  V30 3055 C 286.889 0.128087 -2.01092 0
M  V30 3056 O 285.945 0.817276 -2.38908 0
M  V30 3057 C 287.258 -2.37291 -1.84698 0
M  V30 3058 C 288.806 -2.42906 -1.97397 0
M  V30 3059 C 289.281 -3.69967 -2.69979 0
M  V30 3060 N 290.772 -3.70864 -2.77514 0
M  V30 3061 C 291.507 -4.65875 -3.34287 0
M  V30 3062 N 291.003 -5.71242 -3.91988 0
M  V30 3063 N 292.796 -4.53394 -3.3225 0
M  V30 3064 H 284.947 -2.1028 -0.299347 0
M  V30 3065 H 287.21 -0.927683 -0.195214 0
M  V30 3066 H 286.916 -3.27078 -1.29278 0
M  V30 3067 H 286.79 -2.47125 -2.84972 0
M  V30 3068 H 289.177 -1.53588 -2.51982 0
M  V30 3069 H 289.258 -2.37036 -0.961643 0
M  V30 3070 H 288.902 -4.59652 -2.16062 0
M  V30 3071 H 288.832 -3.73103 -3.7162 0
M  V30 3072 H 291.323 -2.94697 -2.36563 0
M  V30 3073 H 291.636 -6.39817 -4.33421 0
M  V30 3074 H 289.981 -5.75015 -3.90362 0
M  V30 3075 H 293.172 -3.70252 -2.8641 0
M  V30 3076 H 293.345 -5.27617 -3.76197 0
M  V30 3077 N 286.751 1.08385 -1.14413 0
M  V30 3078 C 287.714 2.13486 -0.834048 0
M  V30 3079 C 288.714 1.59988 0.161418 0
M  V30 3080 O 289.904 1.74071 -0.0669575 0
M  V30 3081 C 287.036 3.4003 -0.243354 0
M  V30 3082 H 288.229 2.42425 -1.7655 0
M  V30 3083 H 285.782 1.24101 -0.950189 0
M  V30 3084 H 286.517 3.16726 0.696807 0
M  V30 3085 H 286.302 3.80157 -0.960367 0
M  V30 3086 H 287.792 4.17577 -0.0436242 0
M  V30 3087 N 288.23 0.939286 1.26551 0
M  V30 3088 C 289.46 0.601663 1.97645 0
M  V30 3089 C 289.868 -0.827206 1.70159 0
M  V30 3090 O 289.211 -1.56291 0.965338 0
M  V30 3091 C 289.273 0.761725 3.51337 0
M  V30 3092 C 288.937 2.16487 4.0247 0
M  V30 3093 C 289.934 3.14016 4.14355 0
M  V30 3094 C 287.619 2.48494 4.36527 0
M  V30 3095 C 289.613 4.41654 4.59587 0
M  V30 3096 C 287.3 3.76364 4.81449 0
M  V30 3097 C 288.298 4.72758 4.92939 0
M  V30 3098 O 287.986 5.98352 5.36871 0
M  V30 3099 H 287.718 0.225758 0.637189 0
M  V30 3100 H 290.272 1.26178 1.62075 0
M  V30 3101 H 288.502 0.0444808 3.86674 0
M  V30 3102 H 290.191 0.427442 4.03643 0
M  V30 3103 H 290.957 2.90613 3.8829 0
M  V30 3104 H 286.836 1.74202 4.26819 0
M  V30 3105 H 290.38 5.16896 4.68471 0
M  V30 3106 H 286.277 3.99582 5.06956 0
M  V30 3107 H 287.045 6.01507 5.55096 0
M  V30 3108 N 289.708 -1.40897 0.706093 0
M  V30 3109 C 291.124 -1.55042 0.37869 0
M  V30 3110 C 291.324 -1.67944 -1.11342 0
M  V30 3111 O 290.38 -1.66372 -1.89938 0
M  V30 3112 C 291.693 -2.78398 1.13643 0
M  V30 3113 C 293.241 -2.92206 1.12181 0
M  V30 3114 C 293.716 -4.18463 1.86152 0
M  V30 3115 N 295.207 -4.25443 1.83173 0
M  V30 3116 C 295.942 -5.2202 2.37239 0
M  V30 3117 N 295.438 -6.24563 2.99821 0
M  V30 3118 N 297.231 -5.14033 2.27435 0
M  V30 3119 H 289.382 -1.30769 1.67372 0
M  V30 3120 H 291.645 -0.631653 0.706907 0
M  V30 3121 H 291.351 -2.7511 2.19106 0
M  V30 3122 H 291.225 -3.70228 0.721853 0
M  V30 3123 H 293.612 -2.95004 0.0754171 0
M  V30 3124 H 293.693 -2.01521 1.57554 0
M  V30 3125 H 293.337 -4.16427 2.90776 0
M  V30 3126 H 293.267 -5.08141 1.38206 0
M  V30 3127 H 295.758 -3.51976 1.37556 0
M  V30 3128 H 296.071 -6.94665 3.38616 0
M  V30 3129 H 294.416 -6.25035 3.03902 0
M  V30 3130 H 297.607 -4.3285 1.78208 0
M  V30 3131 H 297.78 -5.89129 2.69873 0
M  V30 3132 N 291.186 -0.45159 -1.50991 0
M  V30 3133 C 292.411 0.110667 -2.07105 0
M  V30 3134 C 292.836 1.3446 -1.31538 0
M  V30 3135 O 292.194 1.77743 -0.357365 0
M  V30 3136 C 292.242 0.397238 -3.58405 0
M  V30 3137 O 291.346 1.48124 -3.84881 0
M  V30 3138 H 290.687 -0.00439271 -0.663985 0
M  V30 3139 H 293.217 -0.637026 -1.9443 0
M  V30 3140 H 293.227 0.64351 -4.02893 0
M  V30 3141 H 291.902 -0.504553 -4.12828 0
M  V30 3142 H 290.479 1.22381 -3.52246 0
M  V30 3143 N 292.664 1.56529 -0.183458 0
M  V30 3144 C 293.913 1.96419 0.458511 0
M  V30 3145 C 294.226 1.0727 1.63562 0
M  V30 3146 O 295.432 1.36893 2.34462 0
M  V30 3147 C 293.888 3.49298 0.867122 0
M  V30 3148 C 293.496 4.47092 -0.285057 0
M  V30 3149 C 295.24 3.97983 1.47683 0
M  V30 3150 C 293.147 5.91225 0.143862 0
M  V30 3151 H 292.077 0.733394 0.175071 0
M  V30 3152 H 294.728 1.81448 -0.273624 0
M  V30 3153 H 293.11 3.59731 1.65559 0
M  V30 3154 H 294.284 4.48383 -1.0625 0
M  V30 3155 H 292.599 4.08535 -0.805503 0
M  V30 3156 H 295.196 5.03134 1.80999 0
M  V30 3157 H 295.539 3.41618 2.37914 0
M  V30 3158 H 296.072 3.90617 0.752562 0
M  V30 3159 H 292.811 6.5149 -0.723974 0
M  V30 3160 H 292.331 5.93214 0.886413 0
M  V30 3161 H 294.01 6.44362 0.583628 0
M  V30 3162 N 294.142 -0.090211 1.57342 0
M  V30 3163 C 295.391 -0.791531 1.8552 0
M  V30 3164 C 295.704 -1.79659 0.773441 0
M  V30 3165 O 296.91 -2.54616 0.942497 0
M  V30 3166 C 295.366 -1.45856 3.2902 0
M  V30 3167 C 294.974 -0.493017 4.45279 0
M  V30 3168 C 296.718 -2.14332 3.66418 0
M  V30 3169 C 294.625 -1.16491 5.79814 0
M  V30 3170 H 293.555 -0.299356 0.692027 0
M  V30 3171 H 296.206 -0.0445343 1.83446 0
M  V30 3172 H 294.588 -2.25318 3.2565 0
M  V30 3173 H 295.762 0.270464 4.60006 0
M  V30 3174 H 294.077 0.0863061 4.16311 0
M  V30 3175 H 296.674 -2.65344 4.64216 0
M  V30 3176 H 297.017 -2.93447 2.95287 0
M  V30 3177 H 297.55 -1.41724 3.71698 0
M  V30 3178 H 294.289 -0.41447 6.54188 0
M  V30 3179 H 293.809 -1.8997 5.68921 0
M  V30 3180 H 295.488 -1.69001 6.24538 0
M  V30 3181 N 295.62 -1.53406 -0.361157 0
M  V30 3182 C 296.567 -1.80156 -1.44265 0
M  V30 3183 C 297.537 -0.646183 -1.53015 0
M  V30 3184 O 298.722 -0.888818 -1.68833 0
M  V30 3185 C 295.862 -2.00116 -2.81154 0
M  V30 3186 C 294.975 -3.27833 -2.81335 0
M  V30 3187 C 294.11 -3.37957 -4.09828 0
M  V30 3188 C 293.149 -4.59689 -4.04168 0
M  V30 3189 N 292.286 -4.66942 -5.24318 0
M  V30 3190 H 297.126 -2.72438 -1.20754 0
M  V30 3191 H 294.663 -1.34954 -0.585296 0
M  V30 3192 H 296.621 -2.09677 -3.60682 0
M  V30 3193 H 295.251 -1.11167 -3.03054 0
M  V30 3194 H 294.303 -3.27204 -1.94014 0
M  V30 3195 H 295.615 -4.17442 -2.73027 0
M  V30 3196 H 294.769 -3.46853 -4.97773 0
M  V30 3197 H 293.508 -2.46372 -4.20894 0
M  V30 3198 H 292.513 -4.50889 -3.14609 0
M  V30 3199 H 293.738 -5.5262 -3.947 0
M  V30 3200 H 291.684 -3.7826 -5.35962 0
M  V30 3201 H 291.601 -5.50462 -5.18197 0
M  V30 3202 H 292.869 -4.80127 -6.14084 0
M  V30 3203 N 297.098 0.621204 -1.44841 0
M  V30 3204 C 298.375 1.38 -1.38619 0
M  V30 3205 C 298.755 2.11041 -0.0498935 0
M  V30 3206 O 298.103 2.06992 0.967816 0
M  V30 3207 C 298.313 2.33817 -2.59096 0
M  V30 3208 C 299.661 2.96844 -3.03593 0
M  V30 3209 O 300.685 2.44141 -2.59371 0
M  V30 3210 O 299.544 3.92476 -3.80296 0
M  V30 3211 H 296.638 0.61811 -0.549426 0
M  V30 3212 H 299.184 0.645429 -1.56947 0
M  V30 3213 H 297.956 1.79012 -3.47952 0
M  V30 3214 H 297.579 3.14676 -2.43032 0
M  V30 3215 N 298.576 1.31904 0.862503 0
M  V30 3216 C 299.806 1.24817 1.64634 0
M  V30 3217 C 300.214 -0.187579 1.88268 0
M  V30 3218 O 299.557 -1.13253 1.44635 0
M  V30 3219 C 299.619 1.92996 3.03303 0
M  V30 3220 C 299.283 3.42336 3.02746 0
M  V30 3221 C 300.28 4.37956 2.80162 0
M  V30 3222 C 297.965 3.84147 3.2363 0
M  V30 3223 C 299.959 5.73361 2.78453 0
M  V30 3224 C 297.646 5.19663 3.21549 0
M  V30 3225 C 298.644 6.14081 2.98988 0
M  V30 3226 O 298.332 7.47118 2.96766 0
M  V30 3227 H 298.064 0.432222 0.519769 0
M  V30 3228 H 300.618 1.7445 1.08427 0
M  V30 3229 H 298.848 1.37922 3.61268 0
M  V30 3230 H 300.537 1.79723 3.63943 0
M  V30 3231 H 301.303 4.06981 2.63802 0
M  V30 3232 H 297.182 3.11083 3.40218 0
M  V30 3233 H 300.726 6.4703 2.60763 0
M  V30 3234 H 296.623 5.5027 3.37451 0
M  V30 3235 H 297.391 7.56382 3.12775 0
M  V30 3236 N 300.054 -1.07777 1.14986 0
M  V30 3237 C 301.301 -1.8029 0.922056 0
M  V30 3238 C 301.629 -1.86531 -0.55105 0
M  V30 3239 O 300.884 -1.34189 -1.42449 0
M  V30 3240 C 301.183 -3.25495 1.47608 0
M  V30 3241 C 300.849 -3.39361 2.96893 0
M  V30 3242 C 299.511 -3.42852 3.37647 0
M  V30 3243 C 301.863 -3.42512 3.92854 0
M  V30 3244 C 299.191 -3.47094 4.73015 0
M  V30 3245 C 301.543 -3.4829 5.28088 0
M  V30 3246 C 300.207 -3.50058 5.68345 0
M  V30 3247 H 299.477 -0.659727 0.337404 0
M  V30 3248 H 302.124 -1.26854 1.43459 0
M  V30 3249 H 300.429 -3.81683 0.88463 0
M  V30 3250 H 302.126 -3.80168 1.27568 0
M  V30 3251 H 298.716 -3.37339 2.64387 0
M  V30 3252 H 302.9 -3.3904 3.62444 0
M  V30 3253 H 298.156 -3.46758 5.03556 0
M  V30 3254 H 302.33 -3.49675 6.02246 0
M  V30 3255 H 299.957 -3.53097 6.73221 0
M  V30 3256 N 301.532 -0.945985 -1.26051 0
M  V30 3257 C 302.482 -0.430164 -2.23905 0
M  V30 3258 C 303.466 0.47579 -1.53704 0
M  V30 3259 O 304.658 0.310252 -1.7426 0
M  V30 3260 C 301.787 0.298957 -3.41996 0
M  V30 3261 C 300.873 -0.624566 -4.19476 0
M  V30 3262 N 301.264 -1.75245 -4.74471 0
M  V30 3263 C 299.562 -0.431082 -4.43912 0
M  V30 3264 C 300.263 -2.32834 -5.3307 0
M  V30 3265 N 299.239 -1.61583 -5.1903 0
M  V30 3266 H 303.041 -1.29107 -2.64024 0
M  V30 3267 H 300.555 -0.802428 -1.41191 0
M  V30 3268 H 302.552 0.685565 -4.11225 0
M  V30 3269 H 301.212 1.15657 -3.03403 0
M  V30 3270 H 302.223 -2.13449 -4.71868 0
M  V30 3271 H 298.9 0.384364 -4.15727 0
M  V30 3272 H 300.29 -3.27893 -5.86461 0
M  V30 3273 N 303.011 1.40521 -0.713556 0
M  V30 3274 C 304.427 1.54839 -0.386907 0
M  V30 3275 C 304.627 1.68532 1.1045 0
M  V30 3276 O 303.683 1.67377 1.89053 0
M  V30 3277 C 304.996 2.77792 -1.15118 0
M  V30 3278 C 306.544 2.91607 -1.13729 0
M  V30 3279 C 307.019 4.1747 -1.88368 0
M  V30 3280 N 308.51 4.24466 -1.85427 0
M  V30 3281 C 309.245 5.20755 -2.40004 0
M  V30 3282 N 308.741 6.22965 -3.03129 0
M  V30 3283 N 310.534 5.1282 -2.30158 0
M  V30 3284 H 302.685 1.29879 -1.68063 0
M  V30 3285 H 304.948 0.627896 -0.710247 0
M  V30 3286 H 304.654 2.73944 -2.20561 0
M  V30 3287 H 304.528 3.6984 -0.741477 0
M  V30 3288 H 306.915 2.94959 -0.0910608 0
M  V30 3289 H 306.996 2.00682 -1.5862 0
M  V30 3290 H 306.64 4.1488 -2.9298 0
M  V30 3291 H 306.57 5.074 -1.40898 0
M  V30 3292 H 309.061 3.51241 -1.3942 0
M  V30 3293 H 309.374 6.92859 -3.42295 0
M  V30 3294 H 307.719 6.23415 -3.07212 0
M  V30 3295 H 310.91 4.31899 -1.80501 0
M  V30 3296 H 311.083 5.87689 -2.72993 0
M  V30 3297 N 304.489 0.459591 1.5075 0
M  V30 3298 C 305.737 -0.0991532 2.01857 0
M  V30 3299 C 306.058 -1.41247 1.34441 0
M  V30 3300 O 305.328 -1.89775 0.486022 0
M  V30 3301 H 303.908 -0.039633 0.745948 0
M  V30 3302 H 306.57 0.607387 1.85194 0
M  V30 3303 H 305.666 -0.258998 3.11023 0
M  V30 3304 N 305.967 -1.56429 0.191757 0
M  V30 3305 C 306.93 -2.17707 -0.716688 0
M  V30 3306 C 307.93 -1.13061 -1.14341 0
M  V30 3307 O 309.12 -1.38464 -1.05704 0
M  V30 3308 C 306.252 -2.77644 -1.97804 0
M  V30 3309 H 307.445 -2.99342 -0.1829 0
M  V30 3310 H 304.998 -1.56193 -0.0578566 0
M  V30 3311 H 305.733 -1.99799 -2.55443 0
M  V30 3312 H 305.518 -3.54246 -1.68083 0
M  V30 3313 H 307.008 -3.24708 -2.62592 0
M  V30 3314 N 307.445 0.0818655 -1.57387 0
M  V30 3315 C 308.392 1.09834 -2.0299 0
M  V30 3316 C 309.362 1.39043 -0.908639 0
M  V30 3317 O 310.547 1.50282 -1.17559 0
M  V30 3318 C 307.687 2.40971 -2.47037 0
M  V30 3319 C 306.8 2.18379 -3.7274 0
M  V30 3320 C 305.935 3.43008 -4.0561 0
M  V30 3321 C 304.974 3.15736 -5.24383 0
M  V30 3322 N 304.111 4.32667 -5.52941 0
M  V30 3323 H 308.951 0.702472 -2.89602 0
M  V30 3324 H 306.488 0.33531 -1.43227 0
M  V30 3325 H 308.446 3.1752 -2.70623 0
M  V30 3326 H 307.076 2.78379 -1.63417 0
M  V30 3327 H 306.128 1.32569 -3.56552 0
M  V30 3328 H 307.44 1.94227 -4.59431 0
M  V30 3329 H 306.594 4.27958 -4.30043 0
M  V30 3330 H 305.333 3.70225 -3.17466 0
M  V30 3331 H 304.338 2.2918 -4.99757 0
M  V30 3332 H 305.563 2.8985 -6.14136 0
M  V30 3333 H 303.509 4.59935 -4.67756 0
M  V30 3334 H 303.426 4.11753 -6.34031 0
M  V30 3335 H 304.694 5.18644 -5.81918 0
M  V30 3336 N 308.923 1.53595 0.353017 0
M  V30 3337 C 310.169 1.71581 1.09232 0
M  V30 3338 C 310.524 0.468328 1.86613 0
M  V30 3339 O 309.817 -0.538911 1.83865 0
M  V30 3340 C 310.011 2.91313 2.07054 0
M  V30 3341 C 309.84 4.27585 1.39287 0
M  V30 3342 C 308.61 4.92233 1.1417 0
M  V30 3343 C 310.808 5.07656 0.824005 0
M  V30 3344 N 308.79 6.124 0.428841 0
M  V30 3345 C 310.161 6.19531 0.241195 0
M  V30 3346 C 312.216 4.92609 0.723922 0
M  V30 3347 C 310.919 7.18002 -0.431952 0
M  V30 3348 C 312.945 5.91365 0.0645334 0
M  V30 3349 C 312.307 7.02571 -0.507347 0
M  V30 3350 H 308.406 0.680987 0.384422 0
M  V30 3351 H 310.99 1.91013 0.377096 0
M  V30 3352 H 309.161 2.73398 2.75877 0
M  V30 3353 H 310.893 2.98062 2.73753 0
M  V30 3354 H 307.648 4.51612 1.42631 0
M  V30 3355 H 308.072 6.76944 0.0874131 0
M  V30 3356 H 312.714 4.06808 1.15181 0
M  V30 3357 H 310.432 8.03384 -0.871758 0
M  V30 3358 H 314.018 5.81799 -0.0121469 0
M  V30 3359 H 312.898 7.77675 -1.0095 0
M  V30 3360 N 310.401 -0.613514 1.45168 0
M  V30 3361 C 311.629 -1.39946 1.5239 0
M  V30 3362 C 312.044 -1.88167 0.154531 0
M  V30 3363 O 311.401 -1.61872 -0.842843 0
M  V30 3364 C 311.452 -2.60795 2.50337 0
M  V30 3365 O 311.173 -2.1458 3.81952 0
M  V30 3366 C 312.674 -3.53723 2.67198 0
M  V30 3367 H 309.894 -0.428593 0.516284 0
M  V30 3368 H 312.438 -0.748753 1.903 0
M  V30 3369 H 310.593 -3.21919 2.15515 0
M  V30 3370 H 311.007 -2.93055 4.34993 0
M  V30 3371 H 312.481 -4.35079 3.39721 0
M  V30 3372 H 312.958 -4.0368 1.73029 0
M  V30 3373 H 313.564 -2.98456 3.02992 0
M  V30 3374 N 311.879 -1.3236 -0.855495 0
M  V30 3375 C 313.107 -1.2587 -1.64208 0
M  V30 3376 C 313.522 0.173457 -1.88002 0
M  V30 3377 O 312.879 1.11027 -1.44842 0
M  V30 3378 C 312.93 -2.01424 -3.00184 0
M  V30 3379 O 312.651 -3.39051 -2.77445 0
M  V30 3380 C 314.152 -2.01948 -3.94629 0
M  V30 3381 H 311.372 -0.434318 -0.511477 0
M  V30 3382 H 313.916 -1.74469 -1.0668 0
M  V30 3383 H 312.071 -1.56549 -3.5436 0
M  V30 3384 H 312.485 -3.77711 -3.63916 0
M  V30 3385 H 313.959 -2.59297 -4.87308 0
M  V30 3386 H 314.436 -1.00554 -4.27534 0
M  V30 3387 H 315.042 -2.46767 -3.4639 0
M  V30 3388 N 313.357 1.07166 -1.15556 0
M  V30 3389 C 314.32 2.12589 -0.856644 0
M  V30 3390 C 315.32 1.6015 0.14444 0
M  V30 3391 O 316.51 1.7399 -0.0854163 0
M  V30 3392 C 313.642 3.39753 -0.279405 0
M  V30 3393 H 314.835 2.40539 -1.79112 0
M  V30 3394 H 312.388 1.23086 -0.963298 0
M  V30 3395 H 313.123 3.17447 0.663174 0
M  V30 3396 H 312.908 3.79117 -1.00063 0
M  V30 3397 H 314.398 4.17507 -0.0879113 0
M  V30 3398 N 314.835 0.952656 1.25548 0
M  V30 3399 C 316.246 0.647392 1.75116 0
M  V30 3400 C 316.597 -0.837274 1.77438 0
M  V30 3401 O 315.722 -1.65525 1.39393 0
M  V30 3402 C 316.317 1.16845 3.18014 0
M  V30 3403 C 314.876 0.913382 3.6515 0
M  V30 3404 C 314.023 1.31265 2.44264 0
M  V30 3405 H 316.974 1.12968 1.11462 0
M  V30 3406 H 316.995 0.527606 3.76824 0
M  V30 3407 H 316.507 2.24902 3.16292 0
M  V30 3408 H 314.608 -0.152316 3.72289 0
M  V30 3409 H 314.721 1.54845 4.53387 0
M  V30 3410 H 313.085 0.731028 2.43984 0
M  V30 3411 H 313.868 2.40239 2.45234 0
M  V30 3412 N 316.313 -1.40141 0.720998 0
M  V30 3413 C 317.26 -2.30688 0.071919 0
M  V30 3414 C 318.23 -1.48476 -0.744584 0
M  V30 3415 O 319.415 -1.77201 -0.707423 0
M  V30 3416 C 316.555 -3.34724 -0.839855 0
M  V30 3417 C 315.668 -4.31998 -0.0122438 0
M  V30 3418 C 314.803 -5.23102 -0.923995 0
M  V30 3419 C 313.842 -6.12033 -0.0907969 0
M  V30 3420 N 312.979 -6.95537 -0.957718 0
M  V30 3421 H 317.819 -2.85628 0.849755 0
M  V30 3422 H 315.356 -1.40653 0.430726 0
M  V30 3423 H 317.314 -3.93618 -1.38279 0
M  V30 3424 H 315.944 -2.81274 -1.58381 0
M  V30 3425 H 314.996 -3.74841 0.64794 0
M  V30 3426 H 316.308 -4.94772 0.632595 0
M  V30 3427 H 315.462 -5.86953 -1.53527 0
M  V30 3428 H 314.201 -4.60615 -1.60264 0
M  V30 3429 H 313.206 -5.47207 0.533377 0
M  V30 3430 H 314.431 -6.76581 0.584428 0
M  V30 3431 H 312.377 -6.35633 -1.62192 0
M  V30 3432 H 312.294 -7.55099 -0.36904 0
M  V30 3433 H 313.562 -7.63832 -1.555 0
M  V30 3434 N 317.792 -0.46758 -1.50504 0
M  V30 3435 C 319.203 -0.0116166 -1.86696 0
M  V30 3436 C 319.554 1.39202 -1.38265 0
M  V30 3437 O 318.679 2.0313 -0.746132 0
M  V30 3438 C 319.274 -0.0143044 -3.38797 0
M  V30 3439 C 317.833 0.386175 -3.74414 0
M  V30 3440 C 316.98 -0.401287 -2.74381 0
M  V30 3441 H 319.931 -0.682022 -1.43297 0
M  V30 3442 H 319.952 0.788641 -3.72237 0
M  V30 3443 H 319.464 -1.03602 -3.74016 0
M  V30 3444 H 317.565 1.41237 -3.44794 0
M  V30 3445 H 317.678 0.0899596 -4.79016 0
M  V30 3446 H 316.042 0.144536 -2.5429 0
M  V30 3447 H 316.825 -1.42244 -3.12444 0
M  V30 3448 N 319.27 1.56325 -0.20005 0
M  V30 3449 C 320.498 2.02105 0.442874 0
M  V30 3450 C 320.913 1.08014 1.5485 0
M  V30 3451 O 320.27 0.0858797 1.82298 0
M  V30 3452 C 320.321 3.47549 0.994583 0
M  V30 3453 O 320.042 4.38049 -0.0669322 0
M  V30 3454 C 321.543 4.0887 1.7129 0
M  V30 3455 H 318.763 0.661807 0.110691 0
M  V30 3456 H 321.307 2.02134 -0.310207 0
M  V30 3457 H 319.462 3.48204 1.69803 0
M  V30 3458 H 319.876 5.23368 0.344462 0
M  V30 3459 H 321.35 5.12475 2.05118 0
M  V30 3460 H 321.827 3.52615 2.61838 0
M  V30 3461 H 322.433 4.12002 1.05518 0
M  V30 3462 N 320.748 -0.0735177 1.57428 0
M  V30 3463 C 321.681 -1.11932 1.98863 0
M  V30 3464 C 322.659 -1.37666 0.865266 0
M  V30 3465 O 323.843 -1.51068 1.12742 0
M  V30 3466 C 320.97 -2.46403 2.32386 0
M  V30 3467 C 320.016 -2.36815 3.54713 0
M  V30 3468 S 320.849 -1.76392 5.05614 0
M  V30 3469 C 322.005 -3.12444 5.42337 0
M  V30 3470 H 322.238 -0.766212 2.87257 0
M  V30 3471 H 319.771 -0.281987 1.51803 0
M  V30 3472 H 321.729 -3.23755 2.52375 0
M  V30 3473 H 320.39 -2.78876 1.44524 0
M  V30 3474 H 319.583 -3.35977 3.7568 0
M  V30 3475 H 319.185 -1.67598 3.34345 0
M  V30 3476 H 321.477 -4.08753 5.40303 0
M  V30 3477 H 322.42 -2.96258 6.43146 0
M  V30 3478 H 322.828 -3.1297 4.69798 0
M  V30 3479 N 322.226 -1.5378 -0.344866 0
M  V30 3480 C 323.189 -1.80981 -1.40637 0
M  V30 3481 C 324.189 -0.680816 -1.45676 0
M  V30 3482 O 325.379 -0.949095 -1.46075 0
M  V30 3483 C 322.511 -1.95063 -2.79577 0
M  V30 3484 H 323.704 -2.75803 -1.17783 0
M  V30 3485 H 321.257 -1.45173 -0.579181 0
M  V30 3486 H 321.992 -1.02379 -3.07716 0
M  V30 3487 H 321.777 -2.77198 -2.77315 0
M  V30 3488 H 323.267 -2.17629 -3.56409 0
M  V30 3489 N 323.704 0.605807 -1.45491 0
M  V30 3490 C 324.981 1.36522 -1.40075 0
M  V30 3491 C 325.361 2.10976 -0.0722744 0
M  V30 3492 O 324.709 2.08007 0.945808 0
M  V30 3493 C 324.919 2.31056 -2.61561 0
M  V30 3494 C 326.267 2.93608 -3.06724 0
M  V30 3495 O 327.291 2.41376 -2.61946 0
M  V30 3496 O 326.15 3.88421 -3.84437 0
M  V30 3497 H 323.244 0.612248 -0.555951 0
M  V30 3498 H 325.79 0.628747 -1.57623 0
M  V30 3499 H 324.562 1.75311 -3.49831 0
M  V30 3500 H 324.185 3.12081 -2.46356 0
M  V30 3501 N 325.182 1.32811 0.848464 0
M  V30 3502 C 326.092 1.24278 1.98978 0
M  V30 3503 C 327.108 0.155176 1.73307 0
M  V30 3504 O 328.284 0.376999 1.9784 0
M  V30 3505 C 325.349 0.972444 3.32783 0
M  V30 3506 C 324.41 2.14911 3.71634 0
M  V30 3507 C 323.643 1.89157 4.99054 0
M  V30 3508 O 323.866 0.837165 5.64223 0
M  V30 3509 O 322.8 2.75433 5.35183 0
M  V30 3510 H 326.626 2.20238 2.09115 0
M  V30 3511 H 324.211 1.12762 0.980052 0
M  V30 3512 H 326.093 0.838432 4.12975 0
M  V30 3513 H 324.768 0.043051 3.23671 0
M  V30 3514 H 323.675 2.33862 2.91992 0
M  V30 3515 H 325.008 3.06151 3.85399 0
M  V30 3516 N 326.66 -1.06551 1.16123 0
M  V30 3517 C 327.59 -2.15935 0.88851 0
M  V30 3518 C 328.571 -1.69306 -0.164135 0
M  V30 3519 O 329.756 -1.94193 -0.0167857 0
M  V30 3520 C 326.886 -3.45149 0.385942 0
M  V30 3521 C 325.84 -4.05271 1.3762 0
M  V30 3522 C 325.166 -5.29664 0.732137 0
M  V30 3523 C 326.466 -4.44355 2.74493 0
M  V30 3524 H 328.16 -2.39006 1.80323 0
M  V30 3525 H 325.706 -1.14866 0.868435 0
M  V30 3526 H 327.659 -4.21004 0.182647 0
M  V30 3527 H 326.383 -3.21689 -0.564274 0
M  V30 3528 H 325.042 -3.3147 1.56599 0
M  V30 3529 H 324.69 -5.02499 -0.224483 0
M  V30 3530 H 324.39 -5.70848 1.39307 0
M  V30 3531 H 325.914 -6.08218 0.538802 0
M  V30 3532 H 327.328 -5.11303 2.59311 0
M  V30 3533 H 325.725 -4.96515 3.37035 0
M  V30 3534 H 326.795 -3.55339 3.29943 0
M  V30 3535 N 328.138 -0.959301 -1.25041 0
M  V30 3536 C 329.368 -0.63303 -1.96663 0
M  V30 3537 C 329.776 0.800031 -1.71453 0
M  V30 3538 O 329.119 1.54736 -0.99008 0
M  V30 3539 C 329.181 -0.817523 -3.50081 0
M  V30 3540 C 328.845 -2.22863 -3.98975 0
M  V30 3541 C 329.842 -3.20569 -4.09306 0
M  V30 3542 C 327.527 -2.55407 -4.32519 0
M  V30 3543 C 329.521 -4.4891 -4.52503 0
M  V30 3544 C 327.208 -3.83976 -4.754 0
M  V30 3545 C 328.206 -4.8054 -4.85356 0
M  V30 3546 O 327.894 -6.06817 -5.27284 0
M  V30 3547 H 327.626 -0.235866 -0.633516 0
M  V30 3548 H 330.18 -1.2874 -1.60047 0
M  V30 3549 H 328.41 -0.105992 -3.86555 0
M  V30 3550 H 330.099 -0.491604 -4.02912 0
M  V30 3551 H 330.865 -2.96753 -3.83618 0
M  V30 3552 H 326.744 -1.8097 -4.23994 0
M  V30 3553 H 330.288 -5.24283 -4.60188 0
M  V30 3554 H 326.185 -4.07596 -5.00535 0
M  V30 3555 H 326.953 -6.10262 -5.45457 0
M  V30 3556 N 329.616 1.39756 -0.72842 0
M  V30 3557 C 330.564 2.32485 -0.0731849 0
M  V30 3558 C 331.558 1.52717 0.733063 0
M  V30 3559 O 332.764 1.68428 0.634988 0
M  V30 3560 H 329.139 0.751984 -0.00486469 0
M  V30 3561 H 331.11 2.85382 -0.871761 0
M  V30 3562 C 329.859 3.37773 0.824908 0
M  V30 3563 H 329.182 3.99227 0.213915 0
M  V30 3564 H 330.622 4.05121 1.25111 0
M  V30 3565 C 329.081 2.74287 1.95622 0
M  V30 3566 O 329.611 2.61618 3.04826 0
M  V30 3567 N 327.817 2.32475 1.74367 0
M  V30 3568 H 327.364 2.4298 0.855494 0
M  V30 3569 H 327.322 1.90337 2.50238 0
M  V30 3570 N 331.094 0.475555 1.50254 0
M  V30 3571 C 332.026 -0.352649 2.26471 0
M  V30 3572 C 333.039 -0.953165 1.3198 0
M  V30 3573 O 334.228 -0.840815 1.57457 0
M  V30 3574 C 331.328 -1.50902 3.0345 0
M  V30 3575 C 330.501 -1.02047 4.25329 0
M  V30 3576 C 329.56 -2.05142 4.84565 0
M  V30 3577 O 328.586 -1.63023 5.45355 0
M  V30 3578 N 329.788 -3.37987 4.71959 0
M  V30 3579 H 332.553 0.300767 2.98187 0
M  V30 3580 H 330.114 0.306598 1.5897 0
M  V30 3581 H 332.106 -2.19572 3.39956 0
M  V30 3582 H 330.676 -2.06705 2.34504 0
M  V30 3583 H 329.896 -0.159507 3.93877 0
M  V30 3584 H 331.184 -0.672061 5.04342 0
M  V30 3585 H 330.582 -3.74913 4.23623 0
M  V30 3586 H 329.139 -4.02443 5.12721 0
M  V30 3587 N 332.573 -1.56217 0.208337 0
M  V30 3588 C 333.85 -1.89739 -0.475234 0
M  V30 3589 C 334.23 -1.1238 -1.78701 0
M  V30 3590 O 333.578 -0.228979 -2.2735 0
M  V30 3591 C 333.788 -3.42289 -0.681101 0
M  V30 3592 C 335.136 -4.12789 -0.994507 0
M  V30 3593 O 336.16 -3.47814 -0.768357 0
M  V30 3594 O 335.019 -5.27649 -1.42299 0
M  V30 3595 H 332.113 -0.788478 -0.249461 0
M  V30 3596 H 334.659 -1.67855 0.249538 0
M  V30 3597 H 333.431 -3.90534 0.244722 0
M  V30 3598 H 333.054 -3.69909 -1.45785 0
M  V30 3599 N 334.051 0.0651679 -1.57465 0
M  V30 3600 C 335.281 0.774683 -1.91526 0
M  V30 3601 C 335.689 1.71305 -0.803196 0
M  V30 3602 O 335.032 1.82231 0.231881 0
M  V30 3603 C 335.094 1.61645 -3.21109 0
M  V30 3604 C 334.758 0.846753 -4.49087 0
M  V30 3605 C 335.755 0.163024 -5.19644 0
M  V30 3606 C 333.44 0.811966 -4.95694 0
M  V30 3607 C 335.434 -0.54519 -6.35064 0
M  V30 3608 C 333.121 0.0999836 -6.11018 0
M  V30 3609 C 334.119 -0.577388 -6.80555 0
M  V30 3610 O 333.807 -1.27789 -7.93678 0
M  V30 3611 H 333.539 0.225031 -0.637446 0
M  V30 3612 H 336.093 0.0377134 -2.05365 0
M  V30 3613 H 334.323 2.39638 -3.03497 0
M  V30 3614 H 336.012 2.20525 -3.40769 0
M  V30 3615 H 336.778 0.181163 -4.84662 0
M  V30 3616 H 332.657 1.32867 -4.41438 0
M  V30 3617 H 336.201 -1.07446 -6.89276 0
M  V30 3618 H 332.098 0.0797945 -6.45451 0
M  V30 3619 H 332.866 -1.18784 -8.09835 0
M  V30 3620 N 335.529 1.53961 0.336706 0
M  V30 3621 C 336.94 1.62914 0.911925 0
M  V30 3622 C 337.291 0.514795 1.89326 0
M  V30 3623 O 336.416 -0.354395 2.13478 0
M  V30 3624 C 337.011 2.95304 1.66076 0
M  V30 3625 C 335.57 3.06496 2.18489 0
M  V30 3626 C 334.717 2.58403 1.00613 0
M  V30 3627 H 337.668 1.58285 0.114649 0
M  V30 3628 H 337.689 2.84727 2.5241 0
M  V30 3629 H 337.201 3.76387 0.946276 0
M  V30 3630 H 335.302 2.3006 2.93092 0
M  V30 3631 H 335.415 4.1208 2.44391 0
M  V30 3632 H 333.779 2.13977 1.38152 0
M  V30 3633 H 334.562 3.41932 0.306179 0
M  V30 3634 N 337.007 -0.598083 1.45811 0
M  V30 3635 C 338.256 -1.35295 1.49594 0
M  V30 3636 C 338.569 -1.95057 0.145679 0
M  V30 3637 O 339.775 -2.71431 0.0612099 0
M  V30 3638 C 338.231 -2.45124 2.63519 0
M  V30 3639 C 337.839 -1.91732 4.04899 0
M  V30 3640 C 339.583 -3.2205 2.76558 0
M  V30 3641 C 337.49 -2.991 5.1019 0
M  V30 3642 H 336.42 -0.508552 0.556679 0
M  V30 3643 H 339.071 -0.639977 1.71978 0
M  V30 3644 H 337.453 -3.19149 2.34435 0
M  V30 3645 H 338.627 -1.24352 4.43704 0
M  V30 3646 H 336.942 -1.27522 3.96393 0
M  V30 3647 H 339.539 -4.0215 3.52391 0
M  V30 3648 H 339.882 -3.73663 1.83526 0
M  V30 3649 H 340.415 -2.55127 3.05213 0
M  V30 3650 H 337.154 -2.52393 6.04961 0
M  V30 3651 H 336.674 -3.65017 4.75944 0
M  V30 3652 H 338.353 -3.63318 5.35359 0
M  V30 3653 N 338.485 -1.33259 -0.841409 0
M  V30 3654 C 339.435 -1.19872 -1.93945 0
M  V30 3655 C 340.419 -0.102269 -1.60575 0
M  V30 3656 O 341.611 -0.330114 -1.73894 0
M  V30 3657 C 338.74 -0.937517 -3.30251 0
M  V30 3658 C 337.826 -2.07629 -3.69799 0
M  V30 3659 N 338.217 -3.32604 -3.81062 0
M  V30 3660 C 336.515 -1.98242 -3.9952 0
M  V30 3661 C 337.216 -4.07275 -4.15333 0
M  V30 3662 N 336.192 -3.35691 -4.27566 0
M  V30 3663 H 339.994 -2.14604 -2.00805 0
M  V30 3664 H 337.508 -1.2523 -1.03398 0
M  V30 3665 H 339.505 -0.822545 -4.08705 0
M  V30 3666 H 338.165 0.00128798 -3.247 0
M  V30 3667 H 339.176 -3.67382 -3.65035 0
M  V30 3668 H 335.853 -1.12005 -4.02195 0
M  V30 3669 H 337.243 -5.1511 -4.31406 0
M  V30 3670 N 339.963 1.05934 -1.16686 0
M  V30 3671 C 341.188 1.83029 -0.975455 0
M  V30 3672 C 341.613 1.82096 0.471452 0
M  V30 3673 O 340.971 1.22443 1.33706 0
M  V30 3674 C 341.019 3.27372 -1.51195 0
M  V30 3675 O 340.123 4.06054 -0.720701 0
M  V30 3676 H 339.464 0.566194 -0.346872 0
M  V30 3677 H 341.994 1.33541 -1.55009 0
M  V30 3678 H 342.004 3.78186 -1.53099 0
M  V30 3679 H 340.679 3.27366 -2.56523 0
M  V30 3680 H 339.256 3.64812 -0.772458 0
M  V30 3681 N 341.441 0.965919 1.2453 0
M  V30 3682 C 342.687 0.62776 1.92839 0
M  V30 3683 C 343.02 -0.834694 1.75347 0
M  V30 3684 O 342.295 -1.60031 1.10546 0
M  V30 3685 C 342.578 1.00109 3.45905 0
M  V30 3686 C 342.431 2.52011 3.72573 0
M  V30 3687 C 343.75 0.53435 4.36844 0
M  V30 3688 H 340.869 0.229537 0.700344 0
M  V30 3689 H 343.511 1.2046 1.46933 0
M  V30 3690 H 341.661 0.510238 3.85135 0
M  V30 3691 H 343.333 3.08559 3.42912 0
M  V30 3692 H 341.576 2.95287 3.17786 0
M  V30 3693 H 342.247 2.73183 4.79661 0
M  V30 3694 H 344.723 0.955565 4.04979 0
M  V30 3695 H 343.599 0.824152 5.42678 0
M  V30 3696 H 343.86 -0.565589 4.38467 0
M  V30 3697 N 342.919 -1.39368 0.735821 0
M  V30 3698 C 343.829 -2.34395 0.0979693 0
M  V30 3699 C 344.845 -1.58361 -0.720968 0
M  V30 3700 O 346.021 -1.90648 -0.649245 0
M  V30 3701 C 343.086 -3.37393 -0.797916 0
M  V30 3702 C 342.147 -4.29287 0.0333662 0
M  V30 3703 C 341.38 -5.27365 -0.819854 0
M  V30 3704 O 341.603 -5.31959 -2.05855 0
M  V30 3705 O 340.537 -6.01389 -0.248079 0
M  V30 3706 H 344.363 -2.90601 0.882315 0
M  V30 3707 H 341.948 -1.40909 0.4965 0
M  V30 3708 H 343.83 -4.00505 -1.31048 0
M  V30 3709 H 342.505 -2.83571 -1.56106 0
M  V30 3710 H 341.412 -3.69395 0.591475 0
M  V30 3711 H 342.745 -4.86317 0.758752 0
M  V30 3712 N 344.397 -0.483516 -1.5 0
M  V30 3713 C 345.674 0.129337 -1.95172 0
M  V30 3714 C 346.054 1.55802 -1.4244 0
M  V30 3715 O 345.402 2.19625 -0.630649 0
M  V30 3716 C 345.612 0.0599251 -3.48949 0
M  V30 3717 C 346.96 0.242617 -4.23906 0
M  V30 3718 O 347.984 0.135933 -3.55941 0
M  V30 3719 O 346.843 0.459454 -5.44565 0
M  V30 3720 H 343.937 0.104887 -0.820322 0
M  V30 3721 H 346.483 -0.544807 -1.60717 0
M  V30 3722 H 345.255 -0.937079 -3.79914 0
M  V30 3723 H 344.878 0.774984 -3.89974 0
M  V30 3724 N 345.875 1.56104 -0.216619 0
M  V30 3725 C 347.291 1.58995 0.13886 0
M  V30 3726 C 347.491 1.23333 1.59346 0
M  V30 3727 O 346.547 0.966234 2.33281 0
M  V30 3728 C 347.86 3.00143 -0.182968 0
M  V30 3729 C 349.408 3.12751 -0.124807 0
M  V30 3730 C 349.883 4.56068 -0.420241 0
M  V30 3731 N 351.374 4.61723 -0.369634 0
M  V30 3732 C 352.109 5.70542 -0.571789 0
M  V30 3733 N 351.605 6.87744 -0.835453 0
M  V30 3734 N 353.398 5.59831 -0.504563 0
M  V30 3735 H 345.549 1.77562 -1.16557 0
M  V30 3736 H 347.812 0.825091 -0.466828 0
M  V30 3737 H 347.518 3.30871 -1.19237 0
M  V30 3738 H 347.392 3.73813 0.504367 0
M  V30 3739 H 349.779 2.81822 0.875223 0
M  V30 3740 H 349.86 2.41421 -0.845544 0
M  V30 3741 H 349.504 4.87713 -1.41769 0
M  V30 3742 H 349.434 5.25617 0.321631 0
M  V30 3743 H 351.925 3.77502 -0.173338 0
M  V30 3744 H 352.238 7.66587 -0.977938 0
M  V30 3745 H 350.583 6.895 -0.872592 0
M  V30 3746 H 353.774 4.67145 -0.298842 0
M  V30 3747 H 353.947 6.44573 -0.665519 0
M  V30 3748 N 347.353 -0.0568162 1.57498 0
M  V30 3749 C 348.303 -1.07315 2.01166 0
M  V30 3750 C 349.287 -1.33632 0.896171 0
M  V30 3751 O 350.479 -1.33682 1.16009 0
M  V30 3752 C 347.608 -2.38257 2.47161 0
M  V30 3753 C 346.694 -2.1515 3.65474 0
M  V30 3754 N 347.085 -1.62014 4.7915 0
M  V30 3755 C 345.383 -2.45559 3.72313 0
M  V30 3756 C 346.084 -1.54069 5.60926 0
M  V30 3757 N 345.06 -2.00652 5.05213 0
M  V30 3758 H 348.862 -0.655878 2.86488 0
M  V30 3759 H 346.376 -0.263635 1.60246 0
M  V30 3760 H 348.373 -3.11845 2.76691 0
M  V30 3761 H 347.033 -2.80687 1.63232 0
M  V30 3762 H 348.044 -1.30667 5.01145 0
M  V30 3763 H 344.721 -2.91253 2.99129 0
M  V30 3764 H 346.111 -1.13712 6.62208 0
M  V30 3765 N 348.832 -1.54138 -0.328536 0
M  V30 3766 C 349.779 -1.83176 -1.40411 0
M  V30 3767 C 350.749 -0.678494 -1.5161 0
M  V30 3768 O 351.934 -0.92443 -1.6691 0
M  V30 3769 C 349.074 -2.06035 -2.76846 0
M  V30 3770 C 348.187 -3.33727 -2.74318 0
M  V30 3771 C 347.322 -3.46574 -4.02567 0
M  V30 3772 C 346.361 -4.68159 -3.94327 0
M  V30 3773 N 345.498 -4.77959 -5.14296 0
M  V30 3774 H 350.338 -2.74938 -1.14948 0
M  V30 3775 H 347.875 -1.36166 -0.556538 0
M  V30 3776 H 349.833 -2.1728 -3.56153 0
M  V30 3777 H 348.463 -1.1757 -3.00628 0
M  V30 3778 H 347.515 -3.31246 -1.8703 0
M  V30 3779 H 348.827 -4.23139 -2.64111 0
M  V30 3780 H 347.981 -3.57333 -4.90304 0
M  V30 3781 H 346.72 -2.55245 -4.15574 0
M  V30 3782 H 345.725 -4.57461 -3.04974 0
M  V30 3783 H 346.95 -5.60868 -3.82889 0
M  V30 3784 H 344.896 -3.89544 -5.27818 0
M  V30 3785 H 344.813 -5.6133 -5.06404 0
M  V30 3786 H 346.081 -4.93044 -6.03761 0
M  V30 3787 N 350.31 0.590341 -1.46126 0
M  V30 3788 C 351.24 1.71032 -1.58966 0
M  V30 3789 C 352.221 1.64302 -0.440335 0
M  V30 3790 O 353.406 1.82436 -0.665634 0
M  V30 3791 C 350.536 3.09665 -1.57241 0
M  V30 3792 C 349.49 3.31221 -2.71066 0
M  V30 3793 C 348.816 4.70303 -2.54399 0
M  V30 3794 C 350.116 3.19796 -4.1295 0
M  V30 3795 H 351.81 1.60543 -2.52718 0
M  V30 3796 H 349.356 0.770933 -1.21625 0
M  V30 3797 H 351.309 3.87831 -1.64819 0
M  V30 3798 H 350.033 3.21036 -0.600289 0
M  V30 3799 H 348.692 2.55452 -2.62944 0
M  V30 3800 H 348.34 4.78429 -1.55288 0
M  V30 3801 H 348.04 4.85679 -3.30741 0
M  V30 3802 H 349.564 5.50647 -2.63857 0
M  V30 3803 H 350.978 3.87815 -4.22223 0
M  V30 3804 H 349.375 3.46696 -4.89818 0
M  V30 3805 H 350.445 2.16983 -4.33643 0
M  V30 3806 N 351.788 1.33704 0.83433 0
M  V30 3807 C 352.751 1.24244 1.92603 0
M  V30 3808 C 353.751 0.160383 1.59998 0
M  V30 3809 O 354.941 0.412228 1.69252 0
M  V30 3810 C 352.073 0.91555 3.28376 0
M  V30 3811 H 353.266 2.21287 2.02416 0
M  V30 3812 H 350.819 1.17827 1.02696 0
M  V30 3813 H 351.554 -0.0521886 3.24258 0
M  V30 3814 H 351.339 1.69811 3.53422 0
M  V30 3815 H 352.829 0.874231 4.08347 0
M  V30 3816 N 353.266 -1.05314 1.17247 0
M  V30 3817 C 354.229 -2.112 0.890357 0
M  V30 3818 C 355.229 -1.60359 -0.118943 0
M  V30 3819 O 356.419 -1.73833 0.113086 0
M  V30 3820 C 353.551 -3.39266 0.333422 0
M  V30 3821 H 354.744 -2.37659 1.82916 0
M  V30 3822 H 352.297 -1.21538 0.982758 0
M  V30 3823 H 353.032 -3.18462 -0.612587 0
M  V30 3824 H 352.817 -3.77477 1.06082 0
M  V30 3825 H 354.307 -4.17315 0.154322 0
M  V30 3826 N 354.744 -0.972509 -1.24016 0
M  V30 3827 C 355.676 -0.464375 -2.24446 0
M  V30 3828 C 356.689 0.4295 -1.57032 0
M  V30 3829 O 357.878 0.234902 -1.76948 0
M  V30 3830 C 354.978 0.348385 -3.37105 0
M  V30 3831 C 354.151 -0.53673 -4.34094 0
M  V30 3832 C 353.21 0.220838 -5.25736 0
M  V30 3833 O 352.236 -0.386867 -5.67884 0
M  V30 3834 N 353.438 1.50907 -5.60542 0
M  V30 3835 H 356.203 -1.32788 -2.68677 0
M  V30 3836 H 353.764 -0.844877 -1.38107 0
M  V30 3837 H 355.756 0.863341 -3.95384 0
M  V30 3838 H 354.326 1.11285 -2.92121 0
M  V30 3839 H 353.546 -1.23261 -3.74433 0
M  V30 3840 H 354.834 -1.14022 -4.95859 0
M  V30 3841 H 354.232 2.02444 -5.28236 0
M  V30 3842 H 352.789 1.96962 -6.21329 0
M  V30 3843 N 356.222 1.38976 -0.743202 0
M  V30 3844 C 357.47 1.99948 -0.29417 0
M  V30 3845 C 357.791 1.59279 1.12495 0
M  V30 3846 O 357.061 0.844808 1.76748 0
M  V30 3847 H 355.641 0.739473 -0.105774 0
M  V30 3848 H 358.303 1.699 -0.954986 0
M  V30 3849 H 357.399 3.10142 -0.349056 0
M  V30 3850 N 357.7 0.491464 1.49741 0
M  V30 3851 C 358.647 -0.292027 2.28945 0
M  V30 3852 C 359.617 -0.968973 1.34908 0
M  V30 3853 O 360.802 -0.97748 1.6386 0
M  V30 3854 C 357.942 -1.35617 3.17336 0
M  V30 3855 C 357.055 -0.691957 4.26422 0
M  V30 3856 C 356.19 -1.73572 5.02042 0
M  V30 3857 C 355.229 -1.05286 6.02977 0
M  V30 3858 N 354.366 -2.0404 6.71798 0
M  V30 3859 H 359.206 0.389654 2.95442 0
M  V30 3860 H 356.743 0.204003 1.45679 0
M  V30 3861 H 358.701 -1.98502 3.66951 0
M  V30 3862 H 357.331 -2.00674 2.52844 0
M  V30 3863 H 356.383 0.0499523 3.80367 0
M  V30 3864 H 357.695 -0.153946 4.98562 0
M  V30 3865 H 356.849 -2.43987 5.55478 0
M  V30 3866 H 355.588 -2.30757 4.29654 0
M  V30 3867 H 354.593 -0.334446 5.48782 0
M  V30 3868 H 355.818 -0.487636 6.77347 0
M  V30 3869 H 353.764 -2.60205 6.02187 0
M  V30 3870 H 353.681 -1.55279 7.39881 0
M  V30 3871 H 354.949 -2.73772 7.29842 0
M  V30 3872 N 359.178 -1.55987 0.224894 0
M  V30 3873 C 360.425 -1.9839 -0.4059 0
M  V30 3874 C 360.753 -1.11261 -1.59535 0
M  V30 3875 O 360.008 -0.158314 -1.95059 0
M  V30 3876 C 360.307 -3.46394 -0.880106 0
M  V30 3877 C 359.973 -4.5046 0.19918 0
M  V30 3878 C 358.635 -4.7864 0.495661 0
M  V30 3879 C 360.987 -5.12855 0.928939 0
M  V30 3880 C 358.315 -5.66497 1.52636 0
M  V30 3881 C 360.667 -6.01828 1.949 0
M  V30 3882 C 359.331 -6.28351 2.25236 0
M  V30 3883 H 358.601 -0.725961 -0.148529 0
M  V30 3884 H 361.248 -1.88668 0.328113 0
M  V30 3885 H 359.553 -3.53337 -1.69294 0
M  V30 3886 H 361.25 -3.76577 -1.37808 0
M  V30 3887 H 357.84 -4.28579 -0.0420526 0
M  V30 3888 H 362.024 -4.9115 0.713129 0
M  V30 3889 H 357.28 -5.8531 1.76698 0
M  V30 3890 H 361.454 -6.49225 2.51951 0
M  V30 3891 H 359.081 -6.96226 3.05244 0
M  V30 3892 N 360.656 0.0484629 -1.57525 0
M  V30 3893 C 361.902 0.744226 -1.88651 0
M  V30 3894 C 362.235 1.76029 -0.820212 0
M  V30 3895 O 361.51 1.93782 0.166985 0
M  V30 3896 C 361.793 1.43128 -3.30434 0
M  V30 3897 C 361.646 0.43005 -4.47739 0
M  V30 3898 C 362.965 2.37031 -3.70816 0
M  V30 3899 H 360.084 0.269089 -0.68612 0
M  V30 3900 H 362.726 0.00713532 -1.89999 0
M  V30 3901 H 360.876 2.05956 -3.29415 0
M  V30 3902 H 362.548 -0.194816 -4.60888 0
M  V30 3903 H 360.791 -0.252522 -4.33064 0
M  V30 3904 H 361.462 0.948874 -5.43783 0
M  V30 3905 H 363.938 1.84263 -3.73077 0
M  V30 3906 H 362.814 2.82094 -4.70865 0
M  V30 3907 H 363.075 3.22864 -3.02012 0
M  V30 3908 N 362.134 1.5431 0.320358 0
M  V30 3909 C 363.362 1.76636 1.07738 0
M  V30 3910 C 363.777 0.51649 1.81598 0
M  V30 3911 O 363.134 -0.512942 1.75143 0
M  V30 3912 C 363.185 2.96158 2.07299 0
M  V30 3913 O 362.906 4.16313 1.36438 0
M  V30 3914 C 364.407 3.3072 2.95193 0
M  V30 3915 H 361.627 0.589597 0.320339 0
M  V30 3916 H 364.171 2.01207 0.36551 0
M  V30 3917 H 362.326 2.73851 2.74016 0
M  V30 3918 H 362.74 4.83565 2.03138 0
M  V30 3919 H 364.214 4.17643 3.60941 0
M  V30 3920 H 364.691 2.48026 3.62463 0
M  V30 3921 H 365.297 3.55117 2.34034 0
M  V30 3922 N 363.613 -0.582584 1.46437 0
M  V30 3923 C 364.841 -1.36682 1.55324 0
M  V30 3924 C 365.256 -1.87796 0.194409 0
M  V30 3925 O 364.613 -1.63623 -0.808318 0
M  V30 3926 C 364.664 -2.55426 2.55812 0
M  V30 3927 O 364.385 -2.0643 3.86417 0
M  V30 3928 C 365.886 -3.47976 2.74641 0
M  V30 3929 H 363.106 -0.417545 0.525259 0
M  V30 3930 H 365.65 -0.708219 1.91845 0
M  V30 3931 H 363.805 -3.17275 2.22295 0
M  V30 3932 H 364.219 -2.83762 4.41111 0
M  V30 3933 H 365.693 -4.27775 3.48874 0
M  V30 3934 H 366.17 -3.99919 1.81553 0
M  V30 3935 H 366.776 -2.91962 3.09255 0
M  V30 3936 N 365.091 -1.34144 -0.827227 0
M  V30 3937 C 366.001 -1.27428 -1.96975 0
M  V30 3938 C 367.017 -0.182728 -1.73038 0
M  V30 3939 O 368.193 -0.408426 -1.97215 0
M  V30 3940 C 365.258 -1.02526 -3.31194 0
M  V30 3941 C 364.319 -2.20796 -3.68168 0
M  V30 3942 C 363.552 -1.97073 -4.95982 0
M  V30 3943 O 363.775 -0.926822 -5.6282 0
M  V30 3944 O 362.709 -2.83912 -5.30733 0
M  V30 3945 H 366.535 -2.23537 -2.05584 0
M  V30 3946 H 364.12 -1.14307 -0.961989 0
M  V30 3947 H 366.002 -0.904026 -4.11589 0
M  V30 3948 H 364.677 -0.0945389 -3.23562 0
M  V30 3949 H 363.584 -2.38477 -2.88235 0
M  V30 3950 H 364.917 -3.12243 -3.8048 0
M  V30 3951 N 366.569 1.04691 -1.17803 0
M  V30 3952 C 367.816 1.77782 -0.969532 0
M  V30 3953 C 368.144 1.87926 0.501401 0
M  V30 3954 O 367.399 1.37918 1.38842 0
M  V30 3955 C 367.698 3.21467 -1.56186 0
M  V30 3956 C 367.364 3.3137 -3.05786 0
M  V30 3957 C 366.026 3.3378 -3.46619 0
M  V30 3958 C 368.378 3.31976 -4.01797 0
M  V30 3959 C 365.706 3.34431 -4.82051 0
M  V30 3960 C 368.058 3.34167 -5.37136 0
M  V30 3961 C 366.722 3.34866 -5.77426 0
M  V30 3962 H 365.992 0.650549 -0.354777 0
M  V30 3963 H 368.639 1.23006 -1.46772 0
M  V30 3964 H 366.944 3.79203 -0.985515 0
M  V30 3965 H 368.641 3.76652 -1.37602 0
M  V30 3966 H 365.231 3.3021 -2.73238 0
M  V30 3967 H 369.415 3.29311 -3.71306 0
M  V30 3968 H 364.671 3.33285 -5.12573 0
M  V30 3969 H 368.845 3.33585 -6.11305 0
M  V30 3970 H 366.472 3.35124 -6.82346 0
M  V30 3971 N 368.047 0.979072 1.23499 0
M  V30 3972 C 368.957 0.526431 2.28617 0
M  V30 3973 C 369.973 -0.418126 1.68901 0
M  V30 3974 O 371.149 -0.288372 1.99325 0
M  V30 3975 C 368.214 -0.165235 3.46306 0
M  V30 3976 C 367.275 0.82056 4.21385 0
M  V30 3977 C 366.508 0.161807 5.33455 0
M  V30 3978 O 366.731 -1.04742 5.60701 0
M  V30 3979 O 365.665 0.859708 5.95729 0
M  V30 3980 H 369.491 1.4006 2.69475 0
M  V30 3981 H 367.076 0.746643 1.29405 0
M  V30 3982 H 368.958 -0.553287 4.17752 0
M  V30 3983 H 367.633 -1.01419 3.07402 0
M  V30 3984 H 366.54 1.25929 3.52268 0
M  V30 3985 H 367.873 1.63828 4.64135 0
M  V30 3986 N 369.525 -1.3858 0.750561 0
M  V30 3987 C 370.936 -1.82927 0.373438 0
M  V30 3988 C 371.287 -1.62634 -1.09748 0
M  V30 3989 O 370.412 -1.12588 -1.84805 0
M  V30 3990 C 371.007 -3.32088 0.671029 0
M  V30 3991 C 369.566 -3.74795 0.34722 0
M  V30 3992 C 368.713 -2.61391 0.92575 0
M  V30 3993 H 371.664 -1.27351 0.946958 0
M  V30 3994 H 371.685 -3.80465 -0.0518269 0
M  V30 3995 H 371.197 -3.46826 1.74164 0
M  V30 3996 H 369.298 -3.65638 -0.716933 0
M  V30 3997 H 369.411 -4.71667 0.840656 0
M  V30 3998 H 367.775 -2.52265 0.351327 0
M  V30 3999 H 368.558 -2.78929 2.00133 0
M  V30 4000 N 371.003 -0.499398 -1.49478 0
M  V30 4001 C 372.243 0.0440751 -2.04352 0
M  V30 4002 C 372.607 1.34423 -1.37093 0
M  V30 4003 O 373.808 1.97184 -1.82679 0
M  V30 4004 C 372.079 0.194918 -3.56868 0
M  V30 4005 S 373.638 0.69287 -4.33295 0
M  V30 4006 H 370.456 0.00253458 -0.710995 0
M  V30 4007 H 373.058 -0.673 -1.83551 0
M  V30 4008 H 371.762 -0.756672 -4.03364 0
M  V30 4009 H 371.293 0.93728 -3.82071 0
M  V30 4010 H 373.308 1.96226 -4.55752 0
M  V30 4011 N 372.481 1.55866 -0.233164 0
M  V30 4012 C 373.728 1.98603 0.395374 0
M  V30 4013 C 374.056 1.12105 1.58942 0
M  V30 4014 O 373.311 0.168656 1.94972 0
M  V30 4015 C 373.61 3.46856 0.861724 0
M  V30 4016 C 373.276 4.50348 -0.223066 0
M  V30 4017 C 371.938 4.78371 -0.521038 0
M  V30 4018 C 374.29 5.12355 -0.956124 0
M  V30 4019 C 371.618 5.6568 -1.55638 0
M  V30 4020 C 373.97 6.00786 -1.98089 0
M  V30 4021 C 372.634 6.27148 -2.28565 0
M  V30 4022 H 371.904 0.726739 0.144677 0
M  V30 4023 H 374.551 1.88491 -0.338114 0
M  V30 4024 H 372.856 3.5423 1.67418 0
M  V30 4025 H 374.553 3.77302 1.35809 0
M  V30 4026 H 371.143 4.28596 0.0193234 0
M  V30 4027 H 375.327 4.90765 -0.739166 0
M  V30 4028 H 370.583 5.84365 -1.798 0
M  V30 4029 H 374.757 6.4788 -2.55391 0
M  V30 4030 H 372.384 6.94597 -3.08932 0
M  V30 4031 N 373.959 -0.0401083 1.57549 0
M  V30 4032 C 375.236 -0.767917 1.79896 0
M  V30 4033 C 375.616 -1.9416 0.82856 0
M  V30 4034 O 374.964 -2.2812 -0.131671 0
M  V30 4035 C 375.174 -1.2113 3.27305 0
M  V30 4036 C 376.522 -1.63175 3.91994 0
M  V30 4037 O 377.546 -1.30616 3.31388 0
M  V30 4038 O 376.405 -2.23565 4.98679 0
M  V30 4039 H 373.499 -0.370441 0.739393 0
M  V30 4040 H 376.045 -0.017737 1.69691 0
M  V30 4041 H 374.817 -0.372937 3.89519 0
M  V30 4042 H 374.44 -2.02183 3.42356 0
M  V30 4043 N 375.437 -1.54477 -0.31217 0
M  V30 4044 C 376.4 -1.83923 -1.36766 0
M  V30 4045 C 377.4 -0.711563 -1.44199 0
M  V30 4046 O 378.59 -0.979866 -1.44029 0
M  V30 4047 C 375.722 -2.0095 -2.75376 0
M  V30 4048 H 376.915 -2.78239 -1.11906 0
M  V30 4049 H 374.468 -1.46369 -0.548257 0
M  V30 4050 H 375.203 -1.08883 -3.05475 0
M  V30 4051 H 374.988 -2.83018 -2.71373 0
M  V30 4052 H 376.478 -2.2514 -3.51713 0
M  V30 4053 N 376.915 0.57481 -1.46744 0
M  V30 4054 C 377.878 1.66533 -1.57478 0
M  V30 4055 C 378.878 1.54338 -0.451263 0
M  V30 4056 O 380.068 1.58814 -0.715813 0
M  V30 4057 C 377.2 3.05999 -1.50259 0
M  V30 4058 H 378.393 1.58372 -2.54673 0
M  V30 4059 H 375.946 0.793301 -1.34672 0
M  V30 4060 H 376.681 3.19709 -0.543725 0
M  V30 4061 H 376.466 3.16259 -2.31781 0
M  V30 4062 H 377.956 3.8537 -1.60872 0
M  V30 4063 N 378.394 1.34581 0.820102 0
M  V30 4064 C 379.671 1.17675 1.56244 0
M  V30 4065 C 380.051 -0.249541 2.0962 0
M  V30 4066 O 379.399 -1.25125 1.91196 0
M  V30 4067 C 379.609 2.23364 2.6816 0
M  V30 4068 C 380.957 2.58485 3.36854 0
M  V30 4069 O 381.981 2.22175 2.78418 0
M  V30 4070 O 380.84 3.20868 4.42386 0
M  V30 4071 H 377.934 0.456333 0.689702 0
M  V30 4072 H 380.48 1.46222 0.861231 0
M  V30 4073 H 379.252 3.19087 2.26493 0
M  V30 4074 H 378.875 1.96009 3.45928 0
M  V30 4075 N 379.872 -1.04064 1.18357 0
M  V30 4076 C 381.119 -1.77265 0.978947 0
M  V30 4077 C 381.447 -1.88189 -0.491428 0
M  V30 4078 O 380.702 -1.38653 -1.38108 0
M  V30 4079 C 381.001 -3.20634 1.57888 0
M  V30 4080 C 380.667 -3.29743 3.07539 0
M  V30 4081 C 379.329 -3.31937 3.48384 0
M  V30 4082 C 381.681 -3.29841 4.03552 0
M  V30 4083 C 379.009 -3.3187 4.83818 0
M  V30 4084 C 381.361 -3.31313 5.38901 0
M  V30 4085 C 380.025 -3.31799 5.79194 0
M  V30 4086 H 379.295 -0.648659 0.358222 0
M  V30 4087 H 381.942 -1.22225 1.47422 0
M  V30 4088 H 380.247 -3.78675 1.00561 0
M  V30 4089 H 381.944 -3.75917 1.39598 0
M  V30 4090 H 378.534 -3.28757 2.74986 0
M  V30 4091 H 382.718 -3.27337 3.73047 0
M  V30 4092 H 377.974 -3.30562 5.14333 0
M  V30 4093 H 382.148 -3.30338 6.13066 0
M  V30 4094 H 379.775 -3.315 6.84114 0
M  V30 4095 N 381.35 -0.985608 -1.22978 0
M  V30 4096 C 382.599 -0.652881 -1.90841 0
M  V30 4097 C 382.912 0.817842 -1.77681 0
M  V30 4098 O 384.118 1.26185 -2.40395 0
M  V30 4099 C 382.574 -1.11717 -3.42122 0
M  V30 4100 C 382.182 -2.6126 -3.63933 0
M  V30 4101 C 383.926 -0.85843 -4.1573 0
M  V30 4102 C 381.833 -3.0133 -5.08876 0
M  V30 4103 H 380.763 -0.240491 -0.714619 0
M  V30 4104 H 383.414 -1.1942 -1.39324 0
M  V30 4105 H 381.796 -0.504027 -3.92779 0
M  V30 4106 H 382.97 -3.27858 -3.23799 0
M  V30 4107 H 381.285 -2.84937 -3.03644 0
M  V30 4108 H 383.882 -1.13359 -5.22546 0
M  V30 4109 H 384.225 0.205461 -4.15793 0
M  V30 4110 H 384.758 -1.43341 -3.71077 0
M  V30 4111 H 381.497 -4.06864 -5.13947 0
M  V30 4112 H 381.017 -2.3943 -5.49939 0
M  V30 4113 H 382.696 -2.92224 -5.77247 0
M  V30 4114 N 382.828 1.3818 -0.7579 0
M  V30 4115 C 384.244 1.5353 -0.435972 0
M  V30 4116 C 384.444 1.71961 1.05032 0
M  V30 4117 O 383.5 1.73307 1.83633 0
M  V30 4118 C 384.813 2.73989 -1.23898 0
M  V30 4119 C 386.361 2.87841 -1.22949 0
M  V30 4120 C 386.836 4.11266 -2.01554 0
M  V30 4121 N 388.327 4.18352 -1.98837 0
M  V30 4122 C 389.062 5.12856 -2.5645 0
M  V30 4123 N 388.558 6.13005 -3.22794 0
M  V30 4124 N 390.351 5.05238 -2.46356 0
M  V30 4125 H 382.502 1.24467 -1.7211 0
M  V30 4126 H 384.765 0.604982 -0.729864 0
M  V30 4127 H 384.471 2.66789 -2.29165 0
M  V30 4128 H 384.345 3.67294 -0.858764 0
M  V30 4129 H 386.732 2.9452 -0.184854 0
M  V30 4130 H 386.813 1.95534 -1.64924 0
M  V30 4131 H 386.457 4.05349 -3.06031 0
M  V30 4132 H 386.387 5.02661 -1.5697 0
M  V30 4133 H 388.878 3.46628 -1.50524 0
M  V30 4134 H 389.191 6.81619 -3.64165 0
M  V30 4135 H 387.536 6.13325 -3.2689 0
M  V30 4136 H 390.727 4.25938 -1.9415 0
M  V30 4137 H 390.9 5.78707 -2.91552 0
M  V30 4138 N 384.306 0.507319 1.49211 0
M  V30 4139 C 385.269 -0.256763 2.27757 0
M  V30 4140 C 386.269 -0.888287 1.34038 0
M  V30 4141 O 387.459 -0.751841 1.5714 0
M  V30 4142 C 384.591 -1.36905 3.12202 0
M  V30 4143 H 385.784 0.432557 2.96764 0
M  V30 4144 H 383.337 0.262488 1.5408 0
M  V30 4145 H 384.072 -2.09233 2.47775 0
M  V30 4146 H 383.857 -0.921599 3.81115 0
M  V30 4147 H 385.347 -1.9071 3.7151 0
M  V30 4148 N 385.784 -1.5574 0.241426 0
M  V30 4149 C 387.032 -1.98417 -0.384075 0
M  V30 4150 C 387.353 -1.13078 -1.58866 0
M  V30 4151 O 386.623 -0.212312 -1.94746 0
M  V30 4152 H 385.203 -0.732813 -0.144894 0
M  V30 4153 H 387.865 -1.9193 0.338943 0
M  V30 4154 H 386.961 -3.04219 -0.696939 0
M  V30 4155 N 387.262 0.0317525 -1.57568 0
M  V30 4156 C 388.678 0.38735 -1.54828 0
M  V30 4157 C 388.878 1.7677 -0.967187 0
M  V30 4158 O 387.934 2.45581 -0.587063 0
M  V30 4159 C 389.247 0.291667 -2.99282 0
M  V30 4160 C 390.795 0.368946 -3.10818 0
M  V30 4161 C 391.27 0.302741 -4.56998 0
M  V30 4162 N 392.761 0.361617 -4.61786 0
M  V30 4163 C 393.496 0.333238 -5.72431 0
M  V30 4164 N 392.992 0.257308 -6.92322 0
M  V30 4165 N 394.785 0.382769 -5.60795 0
M  V30 4166 H 386.936 -0.871609 -1.93692 0
M  V30 4167 H 389.199 -0.331161 -0.888277 0
M  V30 4168 H 388.905 -0.656794 -3.45513 0
M  V30 4169 H 388.779 1.08638 -3.61217 0
M  V30 4170 H 391.166 1.30784 -2.64536 0
M  V30 4171 H 391.247 -0.455066 -2.5172 0
M  V30 4172 H 390.891 -0.632473 -5.03947 0
M  V30 4173 H 390.821 1.14482 -5.14005 0
M  V30 4174 H 393.312 0.422923 -3.75526 0
M  V30 4175 H 393.625 0.24068 -7.72425 0
M  V30 4176 H 391.97 0.223396 -6.94641 0
M  V30 4177 H 395.161 0.44006 -4.66027 0
M  V30 4178 H 395.334 0.357184 -6.47015 0
M  V30 4179 N 388.74 1.54641 0.303973 0
M  V30 4180 C 390.017 1.64455 1.05896 0
M  V30 4181 C 390.397 0.490923 2.05312 0
M  V30 4182 O 389.745 -0.512685 2.22674 0
M  V30 4183 C 389.955 3.02331 1.74347 0
M  V30 4184 C 391.303 3.59045 2.26653 0
M  V30 4185 O 392.327 3.04764 1.84384 0
M  V30 4186 O 391.186 4.54081 3.04093 0
M  V30 4187 H 388.28 0.666729 0.489287 0
M  V30 4188 H 390.826 1.66986 0.302298 0
M  V30 4189 H 389.598 3.77734 1.02142 0
M  V30 4190 H 389.221 3.03565 2.56777 0
M  V30 4191 N 390.218 -0.567019 1.47046 0
M  V30 4192 C 391.467 -1.32091 1.5243 0
M  V30 4193 C 391.78 -1.94704 0.187021 0
M  V30 4194 O 392.986 -2.7124 0.118771 0
M  V30 4195 C 391.442 -2.39479 2.68659 0
M  V30 4196 C 391.05 -1.831 4.08874 0
M  V30 4197 C 392.794 -3.16111 2.83327 0
M  V30 4198 C 390.701 -2.8821 5.16419 0
M  V30 4199 H 389.631 -0.496629 0.56734 0
M  V30 4200 H 392.282 -0.603354 1.73297 0
M  V30 4201 H 390.664 -3.14105 2.41152 0
M  V30 4202 H 391.838 -1.14913 4.46242 0
M  V30 4203 H 390.153 -1.19085 3.99008 0
M  V30 4204 H 392.75 -3.94585 3.60842 0
M  V30 4205 H 393.093 -3.69686 1.91411 0
M  V30 4206 H 393.626 -2.48595 3.10556 0
M  V30 4207 H 390.365 -2.39504 6.10179 0
M  V30 4208 H 389.885 -3.54839 4.8358 0
M  V30 4209 H 391.564 -3.51881 5.42945 0
M  V30 4210 N 391.696 -1.35014 -0.812953 0
M  V30 4211 C 392.943 -1.27931 -1.56971 0
M  V30 4212 C 393.271 0.148034 -1.93936 0
M  V30 4213 O 392.526 1.11175 -1.61054 0
M  V30 4214 C 392.825 -2.12524 -2.87347 0
M  V30 4215 C 392.491 -3.61401 -2.6963 0
M  V30 4216 C 391.153 -4.01983 -2.64506 0
M  V30 4217 C 393.505 -4.55894 -2.52607 0
M  V30 4218 C 390.833 -5.35235 -2.40293 0
M  V30 4219 C 393.185 -5.89336 -2.29925 0
M  V30 4220 C 391.849 -6.2907 -2.23219 0
M  V30 4221 H 391.119 -0.468131 -0.574399 0
M  V30 4222 H 393.766 -1.66851 -0.939836 0
M  V30 4223 H 392.071 -1.66463 -3.54679 0
M  V30 4224 H 393.768 -2.04383 -3.45005 0
M  V30 4225 H 390.358 -3.29193 -2.74463 0
M  V30 4226 H 394.542 -4.25431 -2.55583 0
M  V30 4227 H 389.798 -5.65028 -2.33566 0
M  V30 4228 H 393.972 -6.62139 -2.15743 0
M  V30 4229 H 391.599 -7.32256 -2.04219 0
M  V30 4230 N 393.175 1.03435 -1.18907 0
M  V30 4231 C 394.138 2.09756 -0.923844 0
M  V30 4232 C 395.138 1.60528 0.093416 0
M  V30 4233 O 396.328 1.73631 -0.140727 0
M  V30 4234 C 393.46 3.38692 -0.387354 0
M  V30 4235 H 394.653 2.34719 -1.86674 0
M  V30 4236 H 392.206 1.19959 -1.00197 0
M  V30 4237 H 392.941 3.19396 0.561845 0
M  V30 4238 H 392.726 3.75742 -1.12074 0
M  V30 4239 H 394.216 4.17016 -0.220694 0
M  V30 4240 N 394.653 0.992116 1.22453 0
M  V30 4241 C 395.585 0.500024 2.23679 0
M  V30 4242 C 396.598 -0.404463 1.57696 0
M  V30 4243 O 397.787 -0.206722 1.77299 0
M  V30 4244 C 394.887 -0.294711 3.37616 0
M  V30 4245 C 394.06 0.605723 4.33186 0
M  V30 4246 C 393.119 -0.13717 5.26021 0
M  V30 4247 O 392.145 0.477164 5.67196 0
M  V30 4248 N 393.347 -1.4197 5.62872 0
M  V30 4249 H 396.112 1.37045 2.66531 0
M  V30 4250 H 393.673 0.866741 1.36745 0
M  V30 4251 H 395.665 -0.800329 3.96707 0
M  V30 4252 H 394.235 -1.06623 2.93854 0
M  V30 4253 H 393.455 1.29202 3.72425 0
M  V30 4254 H 394.743 1.21896 4.93983 0
M  V30 4255 H 394.141 -1.94015 5.31389 0
M  V30 4256 H 392.698 -1.87052 6.24383 0
M  V30 4257 N 396.131 -1.37776 0.765217 0
M  V30 4258 C 397.547 -1.53297 0.444108 0
M  V30 4259 C 397.747 -1.72515 -1.04119 0
M  V30 4260 O 396.803 -1.74278 -1.82711 0
M  V30 4261 C 398.116 -2.73328 1.25349 0
M  V30 4262 C 399.664 -2.87185 1.24473 0
M  V30 4263 C 400.139 -4.10191 2.03733 0
M  V30 4264 N 401.63 -4.17291 2.01053 0
M  V30 4265 C 402.365 -5.11488 2.59166 0
M  V30 4266 N 401.861 -6.11285 3.26041 0
M  V30 4267 N 403.654 -5.03924 2.49032 0
M  V30 4268 H 395.805 -1.23552 1.72768 0
M  V30 4269 H 398.068 -0.601103 0.733062 0
M  V30 4270 H 397.774 -2.6557 2.30577 0
M  V30 4271 H 397.648 -3.66834 0.87823 0
M  V30 4272 H 400.035 -2.94418 0.20047 0
M  V30 4273 H 400.116 -1.94657 1.65959 0
M  V30 4274 H 399.76 -4.0372 3.08176 0
M  V30 4275 H 399.69 -5.01821 1.59633 0
M  V30 4276 H 402.181 -3.45825 1.5236 0
M  V30 4277 H 402.494 -6.79678 3.67774 0
M  V30 4278 H 400.839 -6.11583 3.30138 0
M  V30 4279 H 404.03 -4.24902 1.96407 0
M  V30 4280 H 404.203 -5.77152 2.94617 0
M  V30 4281 N 397.609 -0.515225 -1.4894 0
M  V30 4282 C 398.834 0.022727 -2.07388 0
M  V30 4283 C 399.259 1.2876 -1.37122 0
M  V30 4284 O 398.617 1.76067 -0.432431 0
M  V30 4285 C 398.665 0.244869 -3.59768 0
M  V30 4286 O 397.769 1.31667 -3.90817 0
M  V30 4287 H 397.11 -0.0325506 -0.663202 0
M  V30 4288 H 399.64 -0.718918 -1.91553 0
M  V30 4289 H 399.65 0.47205 -4.0526 0
M  V30 4290 H 398.325 -0.679194 -4.10317 0
M  V30 4291 H 396.902 1.07331 -3.5712 0
M  V30 4292 N 399.087 1.5561 -0.249682 0
M  V30 4293 C 400.019 2.18834 0.681496 0
M  V30 4294 C 401.032 1.16546 1.1367 0
M  V30 4295 O 402.221 1.43397 1.06299 0
M  V30 4296 C 399.321 2.77992 1.9384 0
M  V30 4297 C 398.494 4.05725 1.63419 0
M  V30 4298 C 397.553 4.49174 2.74096 0
M  V30 4299 O 396.579 5.15492 2.41364 0
M  V30 4300 N 397.781 4.17191 4.03649 0
M  V30 4301 H 400.546 2.9937 0.140514 0
M  V30 4302 H 398.107 1.6175 -0.0697541 0
M  V30 4303 H 400.099 3.04015 2.67127 0
M  V30 4304 H 398.669 2.01596 2.38909 0
M  V30 4305 H 397.889 3.87261 0.736358 0
M  V30 4306 H 399.177 4.88999 1.40562 0
M  V30 4307 H 398.575 3.63955 4.33074 0
M  V30 4308 H 397.132 4.48043 4.73393 0
M  V30 4309 N 400.565 -0.0233959 1.57583 0
M  V30 4310 C 401.811 -0.714119 1.89811 0
M  V30 4311 C 402.144 -1.74702 0.848113 0
M  V30 4312 O 401.419 -1.94023 -0.136135 0
M  V30 4313 C 401.702 -1.37853 3.32669 0
M  V30 4314 C 401.555 -0.358764 4.48367 0
M  V30 4315 C 402.874 -2.31101 3.7454 0
M  V30 4316 H 399.993 -0.25814 0.690314 0
M  V30 4317 H 402.635 0.0230927 1.89986 0
M  V30 4318 H 400.785 -2.00689 3.3265 0
M  V30 4319 H 402.457 0.268115 4.6052 0
M  V30 4320 H 400.7 0.321387 4.32608 0
M  V30 4321 H 401.371 -0.862242 5.45224 0
M  V30 4322 H 403.847 -1.78304 3.75961 0
M  V30 4323 H 402.723 -2.74567 4.75294 0
M  V30 4324 H 402.984 -3.18018 3.0711 0
M  V30 4325 N 402.043 -1.548 -0.295768 0
M  V30 4326 C 403.271 -1.78327 -1.04914 0
M  V30 4327 C 403.686 -0.545316 -1.80753 0
M  V30 4328 O 403.043 0.485013 -1.75937 0
M  V30 4329 C 403.094 -2.99418 -2.02561 0
M  V30 4330 O 402.815 -4.18431 -1.29798 0
M  V30 4331 C 404.316 -3.35375 -2.89895 0
M  V30 4332 H 401.536 -0.594618 -0.310918 0
M  V30 4333 H 404.08 -2.01763 -0.333454 0
M  V30 4334 H 402.235 -2.78175 -2.69624 0
M  V30 4335 H 402.649 -4.86736 -1.95419 0
M  V30 4336 H 404.123 -4.23332 -3.54251 0
M  V30 4337 H 404.6 -2.53761 -3.58472 0
M  V30 4338 H 405.206 -3.58796 -2.28355 0
M  V30 4339 N 403.521 0.559213 -1.47345 0
M  V30 4340 C 404.469 1.68747 -1.60085 0
M  V30 4341 C 405.463 1.628 -0.46825 0
M  V30 4342 O 406.669 1.68009 -0.645977 0
M  V30 4343 H 403.044 0.558329 -0.503759 0
M  V30 4344 H 405.015 1.55138 -2.54902 0
M  V30 4345 C 403.764 3.07103 -1.63042 0
M  V30 4346 H 403.087 3.12361 -2.49541 0
M  V30 4347 H 404.527 3.85743 -1.76006 0
M  V30 4348 C 402.986 3.34935 -0.363357 0
M  V30 4349 O 403.516 3.98102 0.536416 0
M  V30 4350 N 401.722 2.89574 -0.244 0
M  V30 4351 H 401.269 2.38348 -0.977133 0
M  V30 4352 H 401.227 3.08566 0.602836 0
M  V30 4353 N 404.999 1.35443 0.805782 0
M  V30 4354 C 406.229 1.31687 1.59192 0
M  V30 4355 C 406.637 -0.10756 1.88894 0
M  V30 4356 O 405.98 -1.07017 1.49309 0
M  V30 4357 C 406.042 2.05686 2.94845 0
M  V30 4358 C 405.706 3.54868 2.87954 0
M  V30 4359 C 406.703 4.49444 2.61335 0
M  V30 4360 C 404.388 3.97528 3.07046 0
M  V30 4361 C 406.382 5.84655 2.53885 0
M  V30 4362 C 404.069 5.32833 2.99219 0
M  V30 4363 C 405.067 6.26209 2.72674 0
M  V30 4364 O 404.755 7.59032 2.64811 0
M  V30 4365 H 404.487 0.453878 0.50097 0
M  V30 4366 H 407.041 1.78892 1.0093 0
M  V30 4367 H 405.271 1.5312 3.55093 0
M  V30 4368 H 406.96 1.94998 3.55993 0
M  V30 4369 H 407.726 4.17804 2.46303 0
M  V30 4370 H 403.605 3.25233 3.26718 0
M  V30 4371 H 407.149 6.57508 2.33086 0
M  V30 4372 H 403.046 5.64087 3.13809 0
M  V30 4373 H 403.814 7.68967 2.80413 0
M  V30 4374 N 406.477 -1.02803 1.19454 0
M  V30 4375 C 407.407 -2.12999 0.956758 0
M  V30 4376 C 408.388 -1.69743 -0.110188 0
M  V30 4377 O 409.573 -1.94148 0.0450038 0
M  V30 4378 C 406.703 -3.43746 0.495553 0
M  V30 4379 C 405.657 -4.00688 1.50443 0
M  V30 4380 C 404.983 -5.27067 0.900275 0
M  V30 4381 C 406.283 -4.35397 2.8849 0
M  V30 4382 H 407.977 -2.33148 1.87836 0
M  V30 4383 H 405.523 -1.12045 0.904539 0
M  V30 4384 H 407.476 -4.2021 0.316493 0
M  V30 4385 H 406.2 -3.23321 -0.461646 0
M  V30 4386 H 404.859 -3.2632 1.67065 0
M  V30 4387 H 404.507 -5.02959 -0.064503 0
M  V30 4388 H 404.207 -5.66127 1.57397 0
M  V30 4389 H 405.731 -6.06196 0.73203 0
M  V30 4390 H 407.145 -5.02795 2.75446 0
M  V30 4391 H 405.542 -4.85541 3.52661 0
M  V30 4392 H 406.612 -3.44662 3.41081 0
M  V30 4393 N 407.956 -0.998596 -1.21925 0
M  V30 4394 C 409.204 -0.676325 -1.90448 0
M  V30 4395 C 409.525 0.794719 -1.78071 0
M  V30 4396 O 408.795 1.5701 -1.17152 0
M  V30 4397 H 407.375 -0.247165 -0.704925 0
M  V30 4398 H 410.037 -1.26633 -1.48156 0
M  V30 4399 H 409.133 -0.943858 -2.97486 0
M  V30 4400 N 409.434 1.37368 -0.772513 0
M  V30 4401 C 410.683 1.98918 -0.333861 0
M  V30 4402 C 410.996 1.62017 1.09589 0
M  V30 4403 O 412.202 2.16676 1.63596 0
M  V30 4404 C 410.658 3.55735 -0.545971 0
M  V30 4405 C 410.266 4.01573 -1.98603 0
M  V30 4406 C 412.01 4.24156 -0.170979 0
M  V30 4407 C 409.917 5.51102 -2.1457 0
M  V30 4408 H 408.847 0.744214 -0.121085 0
M  V30 4409 H 411.498 1.56888 -0.95175 0
M  V30 4410 H 409.88 3.95748 0.141387 0
M  V30 4411 H 411.054 3.72803 -2.7084 0
M  V30 4412 H 409.369 3.45937 -2.31769 0
M  V30 4413 H 411.966 5.34024 -0.26878 0
M  V30 4414 H 412.309 4.06917 0.878855 0
M  V30 4415 H 412.842 3.89447 -0.810914 0
M  V30 4416 H 409.581 5.73268 -3.17875 0
M  V30 4417 H 409.101 5.81554 -1.46817 0
M  V30 4418 H 410.78 6.17083 -1.94468 0
M  V30 4419 N 410.912 0.523116 1.48665 0
M  V30 4420 C 411.822 -0.247406 2.33292 0
M  V30 4421 C 412.838 -0.945769 1.46052 0
M  V30 4422 O 414.014 -0.922253 1.79043 0
M  V30 4423 C 411.079 -1.28487 3.22012 0
M  V30 4424 C 410.14 -0.597592 4.2512 0
M  V30 4425 C 409.373 -1.58563 5.09601 0
M  V30 4426 O 409.596 -2.81763 4.95949 0
M  V30 4427 O 408.53 -1.12879 5.91221 0
M  V30 4428 H 412.356 0.445869 3.00409 0
M  V30 4429 H 409.941 0.284128 1.46673 0
M  V30 4430 H 411.823 -1.88459 3.7691 0
M  V30 4431 H 410.498 -1.96068 2.57564 0
M  V30 4432 H 409.405 0.0424407 3.74076 0
M  V30 4433 H 410.738 0.0361517 4.92187 0
M  V30 4434 N 412.39 -1.55475 0.257931 0
M  V30 4435 C 413.636 -2.00237 -0.357338 0
M  V30 4436 C 413.991 -1.14313 -1.54759 0
M  V30 4437 O 413.284 -0.201187 -1.90541 0
M  V30 4438 C 413.478 -3.48183 -0.806433 0
M  V30 4439 C 413.307 -4.48422 0.338758 0
M  V30 4440 C 412.077 -4.98651 0.817011 0
M  V30 4441 C 414.275 -5.00827 1.16949 0
M  V30 4442 N 412.257 -5.82658 1.93346 0
M  V30 4443 C 413.628 -5.82113 2.13413 0
M  V30 4444 C 415.683 -4.83104 1.2048 0
M  V30 4445 C 414.386 -6.47566 3.13131 0
M  V30 4446 C 416.412 -5.49343 2.19034 0
M  V30 4447 C 415.774 -6.30427 3.14232 0
M  V30 4448 H 411.873 -0.776034 -0.0964083 0
M  V30 4449 H 414.457 -1.90995 0.37803 0
M  V30 4450 H 412.628 -3.57801 -1.51107 0
M  V30 4451 H 414.36 -3.79802 -1.39758 0
M  V30 4452 H 411.115 -4.71914 0.39925 0
M  V30 4453 H 411.539 -6.29356 2.49478 0
M  V30 4454 H 416.181 -4.20036 0.482634 0
M  V30 4455 H 413.899 -7.09793 3.8629 0
M  V30 4456 H 417.485 -5.37579 2.22485 0
M  V30 4457 H 416.365 -6.80777 3.89246 0
M  V30 4458 N 413.868 0.0150385 -1.57593 0
M  V30 4459 C 414.801 1.04475 -2.0288 0
M  V30 4460 C 415.779 1.3436 -0.915764 0
M  V30 4461 O 416.963 1.46779 -1.18271 0
M  V30 4462 C 414.09 2.37608 -2.41371 0
M  V30 4463 C 413.136 2.23487 -3.63257 0
M  V30 4464 S 413.969 1.57505 -5.11813 0
M  V30 4465 C 415.125 2.921 -5.5356 0
M  V30 4466 H 415.358 0.65907 -2.89903 0
M  V30 4467 H 412.891 0.225452 -1.52745 0
M  V30 4468 H 414.849 3.14165 -2.64217 0
M  V30 4469 H 413.51 2.7332 -1.54775 0
M  V30 4470 H 412.703 3.21802 -3.87891 0
M  V30 4471 H 412.305 1.55074 -3.40335 0
M  V30 4472 H 414.597 3.88419 -5.55101 0
M  V30 4473 H 415.54 2.72184 -6.53698 0
M  V30 4474 H 415.948 2.95318 -4.8109 0
M  V30 4475 N 415.346 1.54954 0.287554 0
M  V30 4476 C 416.762 1.46469 0.633964 0
M  V30 4477 C 416.962 0.666865 1.90145 0
M  V30 4478 O 416.018 0.179906 2.51858 0
M  V30 4479 C 417.331 2.90556 0.774454 0
M  V30 4480 C 418.879 3.00681 0.869462 0
M  V30 4481 C 419.354 4.45993 1.04184 0
M  V30 4482 N 420.845 4.4976 1.10772 0
M  V30 4483 C 421.58 5.59393 1.25964 0
M  V30 4484 N 421.076 6.78923 1.37968 0
M  V30 4485 N 422.869 5.47107 1.28959 0
M  V30 4486 H 415.02 2.05288 -0.545041 0
M  V30 4487 H 417.283 0.930305 -0.182308 0
M  V30 4488 H 416.989 3.51594 -0.086207 0
M  V30 4489 H 416.863 3.38743 1.6593 0
M  V30 4490 H 419.25 2.39749 1.7206 0
M  V30 4491 H 419.331 2.55769 -0.0396831 0
M  V30 4492 H 418.975 5.07524 0.195422 0
M  V30 4493 H 418.905 4.88548 1.96542 0
M  V30 4494 H 421.396 3.63651 1.02794 0
M  V30 4495 H 421.709 7.58231 1.49353 0
M  V30 4496 H 420.054 6.81763 1.34999 0
M  V30 4497 H 423.245 4.52668 1.19202 0
M  V30 4498 H 423.418 6.32595 1.40455 0
M  V30 4499 N 416.824 -0.551391 1.4764 0
M  V30 4500 C 418.24 -0.877887 1.33287 0
M  V30 4501 C 418.44 -1.98817 0.327721 0
M  V30 4502 O 417.496 -2.51171 -0.258695 0
M  V30 4503 C 418.809 -1.26563 2.72768 0
M  V30 4504 C 420.357 -1.37673 2.81097 0
M  V30 4505 C 420.832 -1.79799 4.21232 0
M  V30 4506 N 422.323 -1.8694 4.23802 0
M  V30 4507 C 423.058 -2.20876 5.29151 0
M  V30 4508 N 422.554 -2.53386 6.448 0
M  V30 4509 N 424.347 -2.217 5.16532 0
M  V30 4510 H 416.498 0.18153 2.11623 0
M  V30 4511 H 418.761 0.0185514 0.947818 0
M  V30 4512 H 418.467 -0.523591 3.47781 0
M  V30 4513 H 418.341 -2.22052 3.04915 0
M  V30 4514 H 420.728 -2.10956 2.06353 0
M  V30 4515 H 420.809 -0.40357 2.52596 0
M  V30 4516 H 420.453 -1.07083 4.96483 0
M  V30 4517 H 420.383 -2.78128 4.4716 0
M  V30 4518 H 422.874 -1.64179 3.40373 0
M  V30 4519 H 423.187 -2.78325 7.20941 0
M  V30 4520 H 421.532 -2.50953 6.48111 0
M  V30 4521 H 424.723 -1.95745 4.25207 0
M  V30 4522 H 424.896 -2.47818 5.98741 0
M  V30 4523 N 418.302 -1.35869 -0.798587 0
M  V30 4524 C 419.252 -1.25982 -1.90033 0
M  V30 4525 C 420.236 -0.153303 -1.60168 0
M  V30 4526 O 421.428 -0.38527 -1.72756 0
M  V30 4527 C 418.557 -1.04211 -3.27101 0
M  V30 4528 C 417.643 -2.19289 -3.63006 0
M  V30 4529 N 418.034 -3.44559 -3.70287 0
M  V30 4530 C 416.332 -2.10852 -3.93011 0
M  V30 4531 C 417.033 -4.20283 -4.02166 0
M  V30 4532 N 416.009 -3.49124 -4.16669 0
M  V30 4533 H 419.811 -2.20883 -1.93876 0
M  V30 4534 H 417.325 -1.28457 -0.993614 0
M  V30 4535 H 419.322 -0.952155 -4.05881 0
M  V30 4536 H 417.982 -0.102013 -3.2454 0
M  V30 4537 H 418.993 -3.7881 -3.53162 0
M  V30 4538 H 415.67 -1.24744 -3.98428 0
M  V30 4539 H 417.06 -5.28575 -4.14799 0
M  V30 4540 N 419.78 1.02168 -1.19998 0
M  V30 4541 C 420.71 2.12488 -0.96804 0
M  V30 4542 C 421.691 1.69799 0.101185 0
M  V30 4543 O 422.876 1.94121 -0.0552993 0
M  V30 4544 C 420.006 3.43479 -0.513776 0
M  V30 4545 C 418.96 3.99884 -1.52566 0
M  V30 4546 C 418.286 5.26582 -0.928214 0
M  V30 4547 C 419.586 4.33861 -2.90795 0
M  V30 4548 H 421.28 2.32149 -1.89069 0
M  V30 4549 H 418.826 1.11564 -0.910468 0
M  V30 4550 H 420.779 4.20036 -0.338774 0
M  V30 4551 H 419.503 3.23561 0.444493 0
M  V30 4552 H 418.162 3.25429 -1.68794 0
M  V30 4553 H 417.81 5.02986 0.0378289 0
M  V30 4554 H 417.51 5.65284 -1.60397 0
M  V30 4555 H 419.034 6.05799 -0.764167 0
M  V30 4556 H 420.448 5.01327 -2.78109 0
M  V30 4557 H 418.845 4.83664 -3.55231 0
M  V30 4558 H 419.915 3.42848 -3.42904 0
M  V30 4559 N 421.258 1.00505 1.21394 0
M  V30 4560 C 422.221 0.570459 2.21987 0
M  V30 4561 C 423.221 -0.353211 1.56873 0
M  V30 4562 O 424.411 -0.14349 1.73608 0
M  V30 4563 C 421.543 -0.168555 3.40483 0
M  V30 4564 H 422.736 1.46021 2.6195 0
M  V30 4565 H 420.289 0.793565 1.34656 0
M  V30 4566 H 421.024 -1.07374 3.06009 0
M  V30 4567 H 420.809 0.494823 3.88965 0
M  V30 4568 H 422.299 -0.460362 4.15055 0
M  V30 4569 N 422.737 -1.36956 0.779787 0
M  V30 4570 C 424.148 -1.82094 0.412156 0
M  V30 4571 C 424.499 -1.64926 -1.06273 0
M  V30 4572 O 423.624 -1.16483 -1.82375 0
M  V30 4573 C 424.219 -3.3059 0.741319 0
M  V30 4574 C 422.778 -3.73974 0.426641 0
M  V30 4575 C 421.925 -2.59368 0.980987 0
M  V30 4576 H 424.876 -1.25314 0.973758 0
M  V30 4577 H 424.897 -3.80489 0.028887 0
M  V30 4578 H 424.409 -3.43054 1.81482 0
M  V30 4579 H 422.51 -3.67076 -0.639215 0
M  V30 4580 H 422.623 -4.69778 0.940515 0
M  V30 4581 H 420.987 -2.51463 0.404757 0
M  V30 4582 H 421.77 -2.74621 2.06005 0
M  V30 4583 N 424.215 -0.530993 -1.48385 0
M  V30 4584 C 425.492 0.0671788 -1.95485 0
M  V30 4585 C 425.872 1.51191 -1.47324 0
M  V30 4586 O 425.22 2.17507 -0.700202 0
M  V30 4587 C 425.43 -0.0511206 -3.48963 0
M  V30 4588 C 426.778 0.107632 -4.24464 0
M  V30 4589 O 427.802 0.0226248 -3.56193 0
M  V30 4590 O 426.661 0.285972 -5.45751 0
M  V30 4591 H 423.755 0.0787365 -0.823243 0
M  V30 4592 H 426.301 -0.595662 -1.58902 0
M  V30 4593 H 425.073 -1.05747 -3.7674 0
M  V30 4594 H 424.696 0.650525 -3.92242 0
M  V30 4595 N 425.693 1.55336 -0.266172 0
M  V30 4596 C 426.923 2.03506 0.356239 0
M  V30 4597 C 427.331 1.14426 1.50676 0
M  V30 4598 O 426.674 0.155043 1.83045 0
M  V30 4599 C 426.736 3.47848 0.90785 0
M  V30 4600 C 426.4 4.56861 -0.112888 0
M  V30 4601 C 427.397 5.11528 -0.929264 0
M  V30 4602 C 425.082 5.01704 -0.244546 0
M  V30 4603 C 427.076 6.09549 -1.86357 0
M  V30 4604 C 424.763 5.99553 -1.18234 0
M  V30 4605 C 425.761 6.53356 -1.99036 0
M  V30 4606 O 425.449 7.49293 -2.91231 0
M  V30 4607 H 425.181 0.670444 0.08649 0
M  V30 4608 H 427.735 2.01598 -0.39337 0
M  V30 4609 H 425.965 3.46967 1.70737 0
M  V30 4610 H 427.654 3.79407 1.44239 0
M  V30 4611 H 428.42 4.77701 -0.838237 0
M  V30 4612 H 424.299 4.59477 0.374359 0
M  V30 4613 H 427.843 6.51469 -2.49467 0
M  V30 4614 H 423.74 6.32799 -1.27421 0
M  V30 4615 H 424.508 7.66978 -2.8581 0
M  V30 4616 N 427.171 -0.0066808 1.57599 0
M  V30 4617 C 428.587 -0.36267 1.55425 0
M  V30 4618 C 428.787 -1.75209 0.995187 0
M  V30 4619 O 427.843 -2.44616 0.626058 0
M  V30 4620 C 429.156 -0.244017 2.99708 0
M  V30 4621 C 430.704 -0.319451 3.11366 0
M  V30 4622 C 431.179 -0.229998 4.57422 0
M  V30 4623 N 432.67 -0.288105 4.62303 0
M  V30 4624 C 433.405 -0.242127 5.72889 0
M  V30 4625 N 432.901 -0.147133 6.92644 0
M  V30 4626 N 434.694 -0.293502 5.61333 0
M  V30 4627 H 426.845 0.902314 1.92281 0
M  V30 4628 H 429.108 0.34525 0.882896 0
M  V30 4629 H 428.814 0.711678 3.44424 0
M  V30 4630 H 428.688 -1.02877 3.629 0
M  V30 4631 H 431.075 -1.26559 2.66584 0
M  V30 4632 H 431.156 0.495055 2.50964 0
M  V30 4633 H 430.8 0.712566 5.02877 0
M  V30 4634 H 430.73 -1.0629 5.15761 0
M  V30 4635 H 433.221 -0.363126 3.76151 0
M  V30 4636 H 433.534 -0.117763 7.7271 0
M  V30 4637 H 431.879 -0.112857 6.94908 0
M  V30 4638 H 435.07 -0.365864 4.66668 0
M  V30 4639 H 435.243 -0.254204 6.47501 0
M  V30 4640 N 428.649 -1.55105 -0.279332 0
M  V30 4641 C 429.895 -1.75672 -1.01327 0
M  V30 4642 C 430.228 -0.552739 -1.86168 0
M  V30 4643 O 429.503 0.449827 -1.89227 0
M  V30 4644 C 429.786 -3.05825 -1.90114 0
M  V30 4645 C 429.639 -4.36565 -1.08309 0
M  V30 4646 C 430.958 -3.31975 -2.8893 0
M  V30 4647 H 428.077 -0.639149 -0.366957 0
M  V30 4648 H 430.719 -1.87833 -0.286154 0
M  V30 4649 H 428.869 -2.95588 -2.52111 0
M  V30 4650 H 430.541 -4.58751 -0.484314 0
M  V30 4651 H 428.784 -4.32076 -0.386362 0
M  V30 4652 H 429.455 -5.23946 -1.73737 0
M  V30 4653 H 431.931 -3.41963 -2.37067 0
M  V30 4654 H 430.807 -4.2432 -3.48201 0
M  V30 4655 H 431.068 -2.51309 -3.63725 0
M  V30 4656 N 430.127 0.543554 -1.4793 0
M  V30 4657 C 431.077 1.64527 -1.57844 0
M  V30 4658 C 432.061 1.54869 -0.436408 0
M  V30 4659 O 433.253 1.63119 -0.687101 0
M  V30 4660 C 430.382 3.03281 -1.6086 0
M  V30 4661 C 429.468 3.18093 -2.80495 0
M  V30 4662 N 429.859 3.02923 -4.05057 0
M  V30 4663 C 428.157 3.49121 -2.77543 0
M  V30 4664 C 428.858 3.20791 -4.85251 0
M  V30 4665 N 427.834 3.47749 -4.17818 0
M  V30 4666 H 431.636 1.51388 -2.5191 0
M  V30 4667 H 429.15 0.748671 -1.44113 0
M  V30 4668 H 431.147 3.82403 -1.66054 0
M  V30 4669 H 429.807 3.17521 -0.678996 0
M  V30 4670 H 430.818 2.79966 -4.35705 0
M  V30 4671 H 427.495 3.69804 -1.93781 0
M  V30 4672 H 428.885 3.13915 -5.9406 0
M  V30 4673 N 431.605 1.3629 0.791371 0
M  V30 4674 C 432.854 1.29742 1.54434 0
M  V30 4675 C 433.167 -0.121729 1.95221 0
M  V30 4676 O 434.373 -0.309579 2.69729 0
M  V30 4677 C 432.829 2.27623 2.78776 0
M  V30 4678 C 432.437 3.74963 2.45166 0
M  V30 4679 C 434.181 2.30047 3.56761 0
M  V30 4680 C 432.088 4.64626 3.65891 0
M  V30 4681 H 431.018 0.482113 0.579727 0
M  V30 4682 H 433.669 1.61642 0.868565 0
M  V30 4683 H 432.051 1.88714 3.48142 0
M  V30 4684 H 433.225 4.22596 1.83709 0
M  V30 4685 H 431.54 3.75295 1.80396 0
M  V30 4686 H 434.137 2.94247 4.46456 0
M  V30 4687 H 434.48 1.30846 3.95203 0
M  V30 4688 H 435.013 2.67563 2.94372 0
M  V30 4689 H 431.752 5.64883 3.32547 0
M  V30 4690 H 431.272 4.2171 4.26521 0
M  V30 4691 H 432.951 4.80801 4.32943 0
M  V30 4692 N 433.083 -1.0153 1.20538 0
M  V30 4693 C 434.332 -1.74558 1.01057 0
M  V30 4694 C 434.645 -1.90168 -0.457756 0
M  V30 4695 O 435.851 -2.60301 -0.771722 0
M  V30 4696 C 434.307 -3.13963 1.75941 0
M  V30 4697 C 433.915 -3.06361 3.26875 0
M  V30 4698 C 435.659 -3.91191 1.64832 0
M  V30 4699 C 433.566 -4.40782 3.94291 0
M  V30 4700 H 432.496 -0.654417 0.374505 0
M  V30 4701 H 435.147 -1.13521 1.44171 0
M  V30 4702 H 433.529 -3.75549 1.25614 0
M  V30 4703 H 434.703 -2.54074 3.84425 0
M  V30 4704 H 433.018 -2.42625 3.38411 0
M  V30 4705 H 435.615 -4.90644 2.12539 0
M  V30 4706 H 435.958 -4.11884 0.604745 0
M  V30 4707 H 436.491 -3.36236 2.12579 0
M  V30 4708 H 433.23 -4.25292 4.98805 0
M  V30 4709 H 432.75 -4.9307 3.41529 0
M  V30 4710 H 434.429 -5.09621 3.98617 0
M  V30 4711 N 434.561 -1.01147 -1.20859 0
M  V30 4712 C 435.786 -0.716698 -1.94623 0
M  V30 4713 C 436.211 0.715415 -1.73964 0
M  V30 4714 O 435.569 1.49157 -1.03062 0
M  V30 4715 C 435.617 -1.0513 -3.44935 0
M  V30 4716 O 434.721 -0.160131 -4.12089 0
M  V30 4717 H 434.062 -0.266404 -0.608214 0
M  V30 4718 H 436.592 -1.35346 -1.53436 0
M  V30 4719 H 436.602 -1.00086 -3.95533 0
M  V30 4720 H 435.277 -2.09475 -3.59295 0
M  V30 4721 H 433.854 -0.267657 -3.71938 0
M  V30 4722 N 436.039 1.36541 -0.78704 0
M  V30 4723 C 437.286 1.99304 -0.358341 0
M  V30 4724 C 437.614 1.62467 1.06933 0
M  V30 4725 O 436.869 0.870019 1.75297 0
M  V30 4726 C 437.168 3.54343 -0.466485 0
M  V30 4727 C 436.834 4.10993 -1.85461 0
M  V30 4728 C 435.496 4.26177 -2.23443 0
M  V30 4729 C 437.848 4.41895 -2.76366 0
M  V30 4730 C 435.176 4.69573 -3.51736 0
M  V30 4731 C 437.528 4.86722 -4.04084 0
M  V30 4732 C 436.192 5.00112 -4.42091 0
M  V30 4733 H 435.462 0.729306 -0.131126 0
M  V30 4734 H 438.109 1.63068 -1.00404 0
M  V30 4735 H 436.414 3.90918 0.262719 0
M  V30 4736 H 438.111 4.00833 -0.115854 0
M  V30 4737 H 434.701 3.99612 -1.54946 0
M  V30 4738 H 438.885 4.29735 -2.48277 0
M  V30 4739 H 434.141 4.78127 -3.81057 0
M  V30 4740 H 438.315 5.09598 -4.7464 0
M  V30 4741 H 435.942 5.33498 -5.41557 0
M  V30 4742 N 437.518 0.538854 1.48102 0
M  V30 4743 C 438.465 -0.219042 2.29758 0
M  V30 4744 C 439.435 -0.925562 1.37922 0
M  V30 4745 O 440.62 -0.924855 1.66886 0
M  V30 4746 C 437.76 -1.25452 3.2149 0
M  V30 4747 C 436.873 -0.555943 4.28408 0
M  V30 4748 C 436.008 -1.57512 5.0731 0
M  V30 4749 C 435.047 -0.860498 6.06021 0
M  V30 4750 N 434.184 -1.82564 6.77949 0
M  V30 4751 H 439.024 0.483449 2.94052 0
M  V30 4752 H 436.561 0.250247 1.44956 0
M  V30 4753 H 438.519 -1.86727 3.7308 0
M  V30 4754 H 437.149 -1.92528 2.591 0
M  V30 4755 H 436.201 0.170938 3.80016 0
M  V30 4756 H 437.513 0.00474616 4.988 0
M  V30 4757 H 436.667 -2.26191 5.62959 0
M  V30 4758 H 435.406 -2.16972 4.36778 0
M  V30 4759 H 434.411 -0.159686 5.49568 0
M  V30 4760 H 435.636 -0.271897 6.78555 0
M  V30 4761 H 433.582 -2.40915 6.10161 0
M  V30 4762 H 433.499 -1.31662 7.44447 0
M  V30 4763 H 434.767 -2.50414 7.38182 0
M  V30 4764 N 438.996 -1.55193 0.274407 0
M  V30 4765 C 440.273 -1.91584 -0.394331 0
M  V30 4766 C 440.653 -1.19858 -1.73774 0
M  V30 4767 O 440.001 -0.3252 -2.26174 0
M  V30 4768 C 440.211 -3.4487 -0.535311 0
M  V30 4769 C 441.559 -4.16636 -0.818534 0
M  V30 4770 O 442.583 -3.5076 -0.620146 0
M  V30 4771 O 441.442 -5.33209 -1.19792 0
M  V30 4772 H 438.536 -0.798349 -0.215794 0
M  V30 4773 H 441.082 -1.66646 0.320507 0
M  V30 4774 H 439.854 -3.89145 0.410141 0
M  V30 4775 H 439.477 -3.75759 -1.29964 0
M  V30 4776 N 440.474 -0.00167713 -1.576 0
M  V30 4777 C 441.885 0.54091 -1.78693 0
M  V30 4778 C 442.236 1.7386 -0.909247 0
M  V30 4779 O 441.361 2.16109 -0.112176 0
M  V30 4780 C 441.956 0.98806 -3.24072 0
M  V30 4781 C 440.515 1.47594 -3.46256 0
M  V30 4782 C 439.662 0.42792 -2.73978 0
M  V30 4783 H 442.613 -0.22784 -1.57056 0
M  V30 4784 H 442.634 1.85398 -3.32277 0
M  V30 4785 H 442.146 0.116164 -3.87926 0
M  V30 4786 H 440.247 2.36868 -2.87618 0
M  V30 4787 H 440.36 1.50225 -4.54939 0
M  V30 4788 H 438.724 0.889934 -2.38647 0
M  V30 4789 H 439.507 -0.435038 -3.40532 0
M  V30 4790 N 441.952 1.55251 0.271103 0
M  V30 4791 C 442.9 1.89054 1.35504 0
M  V30 4792 C 443.894 0.767064 1.51038 0
M  V30 4793 O 445.1 0.951429 1.528 0
M  V30 4794 H 441.475 0.600072 0.45323 0
M  V30 4795 H 443.446 2.79598 1.04247 0
M  V30 4796 C 442.195 2.18068 2.70817 0
M  V30 4797 H 441.518 3.04005 2.59656 0
M  V30 4798 H 442.958 2.4564 3.45597 0
M  V30 4799 C 441.417 0.988901 3.2206 0
M  V30 4800 O 441.947 0.224501 4.01072 0
M  V30 4801 N 440.153 0.786085 2.79766 0
M  V30 4802 H 439.7 1.40937 2.15626 0
M  V30 4803 H 439.658 -0.00969349 3.14399 0
M  V30 4804 N 443.43 -0.535701 1.48216 0
M  V30 4805 C 444.841 -1.11769 1.49548 0
M  V30 4806 C 445.192 -1.94442 0.26207 0
M  V30 4807 O 444.317 -2.06987 -0.631287 0
M  V30 4808 C 444.912 -2.03367 2.70975 0
M  V30 4809 C 443.471 -2.56795 2.75196 0
M  V30 4810 C 442.618 -1.33631 2.42977 0
M  V30 4811 H 445.569 -0.321232 1.55415 0
M  V30 4812 H 445.59 -2.87569 2.49167 0
M  V30 4813 H 445.102 -1.43169 3.60727 0
M  V30 4814 H 443.203 -3.20731 1.89638 0
M  V30 4815 H 443.316 -2.9632 3.76472 0
M  V30 4816 H 441.68 -1.6502 1.94012 0
M  V30 4817 H 442.463 -0.75194 3.34964 0
M  V30 4818 N 444.908 -1.36708 -0.784132 0
M  V30 4819 C 445.841 -1.25827 -1.90375 0
M  V30 4820 C 446.819 -0.141331 -1.61985 0
M  V30 4821 O 448.003 -0.313389 -1.85877 0
M  V30 4822 C 445.13 -0.942621 -3.25319 0
M  V30 4823 C 444.176 -2.07474 -3.72635 0
M  V30 4824 S 445.009 -3.69317 -3.8777 0
M  V30 4825 C 446.165 -3.39876 -5.25581 0
M  V30 4826 H 446.398 -2.20593 -1.99314 0
M  V30 4827 H 443.931 -1.22186 -0.943926 0
M  V30 4828 H 445.889 -0.767321 -4.03265 0
M  V30 4829 H 444.55 -0.0126566 -3.14097 0
M  V30 4830 H 443.743 -1.80858 -4.70432 0
M  V30 4831 H 443.345 -2.20953 -3.01754 0
M  V30 4832 H 445.637 -2.94097 -6.10339 0
M  V30 4833 H 446.58 -4.36956 -5.57203 0
M  V30 4834 H 446.988 -2.75098 -4.92931 0
M  V30 4835 N 446.386 1.0089 -1.21074 0
M  V30 4836 C 447.336 2.0799 -0.934034 0
M  V30 4837 C 448.32 1.60529 0.10919 0
M  V30 4838 O 449.512 1.76722 -0.0992198 0
M  V30 4839 C 446.641 3.39693 -0.496334 0
M  V30 4840 C 445.727 3.93833 -1.57341 0
M  V30 4841 N 446.118 4.21388 -2.7976 0
M  V30 4842 C 444.416 4.22067 -1.44137 0
M  V30 4843 C 445.117 4.65156 -3.49292 0
M  V30 4844 N 444.093 4.67895 -2.76722 0
M  V30 4845 H 447.895 2.27213 -1.86417 0
M  V30 4846 H 445.409 1.18927 -1.10589 0
M  V30 4847 H 447.406 4.15962 -0.279471 0
M  V30 4848 H 446.066 3.21879 0.427084 0
M  V30 4849 H 447.077 4.10061 -3.1634 0
M  V30 4850 H 443.754 4.1341 -0.582947 0
M  V30 4851 H 445.144 4.95231 -4.54088 0
M  V30 4852 N 447.864 1.01787 1.20321 0
M  V30 4853 C 449.113 0.703249 1.89043 0
M  V30 4854 C 449.426 -0.770445 1.79787 0
M  V30 4855 O 450.632 -1.19767 2.43656 0
M  V30 4856 C 449.088 1.20749 3.3904 0
M  V30 4857 C 448.696 2.70817 3.56878 0
M  V30 4858 C 450.44 0.968352 4.13308 0
M  V30 4859 C 448.347 3.14716 5.00708 0
M  V30 4860 H 447.277 0.259354 0.707991 0
M  V30 4861 H 449.928 1.23072 1.36108 0
M  V30 4862 H 448.31 0.607989 3.91305 0
M  V30 4863 H 449.484 3.36327 3.14993 0
M  V30 4864 H 447.799 2.92888 2.95983 0
M  V30 4865 H 450.396 1.27173 5.19356 0
M  V30 4866 H 450.739 -0.095149 4.16191 0
M  V30 4867 H 451.272 1.53129 3.67146 0
M  V30 4868 H 448.011 4.20347 5.02979 0
M  V30 4869 H 447.531 2.53927 5.43398 0
M  V30 4870 H 449.21 3.07426 5.69296 0
M  V30 4871 N 449.342 -1.36122 0.79427 0
M  V30 4872 C 450.619 -1.93398 0.292685 0
M  V30 4873 C 450.999 -1.72567 -1.21589 0
M  V30 4874 O 450.347 -1.08745 -2.00965 0
M  V30 4875 C 450.557 -3.42099 0.690614 0
M  V30 4876 C 451.905 -4.19231 0.673105 0
M  V30 4877 O 452.929 -3.50559 0.631389 0
M  V30 4878 O 451.788 -5.41732 0.720362 0
M  V30 4879 H 448.882 -0.823712 0.0736693 0
M  V30 4880 H 451.428 -1.45273 0.87714 0
M  V30 4881 H 450.2 -3.50938 1.73085 0
M  V30 4882 H 449.823 -3.97519 0.0803036 0
M  V30 4883 N 450.82 -0.546701 -1.47814 0
M  V30 4884 C 451.783 0.196287 -2.28358 0
M  V30 4885 C 452.783 0.852437 -1.36346 0
M  V30 4886 O 453.973 0.709913 -1.59078 0
M  V30 4887 C 451.105 1.28579 -3.15722 0
M  V30 4888 H 452.298 -0.511086 -2.95513 0
M  V30 4889 H 449.851 -0.303248 -1.5333 0
M  V30 4890 H 450.586 2.0259 -2.53235 0
M  V30 4891 H 450.371 0.820229 -3.83425 0
M  V30 4892 H 451.861 1.80793 -3.76435 0
M  V30 4893 N 452.299 1.55045 -0.282633 0
M  V30 4894 C 453.527 2.04168 0.33512 0
M  V30 4895 C 453.942 1.16071 1.48906 0
M  V30 4896 O 453.299 0.182391 1.81586 0
M  V30 4897 C 453.35 3.52332 0.808957 0
M  V30 4898 O 453.071 4.37078 -0.299038 0
M  V30 4899 C 454.572 4.17375 1.49375 0
M  V30 4900 H 451.792 0.666744 0.0754543 0
M  V30 4901 H 454.336 2.00205 -0.416918 0
M  V30 4902 H 452.491 3.56715 1.51106 0
M  V30 4903 H 452.905 5.24458 0.0665514 0
M  V30 4904 H 454.379 5.22627 1.77664 0
M  V30 4905 H 454.856 3.65999 2.42778 0
M  V30 4906 H 455.462 4.17016 0.835305 0
M  V30 4907 N 453.777 0.010035 1.57597 0
M  V30 4908 C 455.024 -0.6727 1.91 0
M  V30 4909 C 455.352 -1.73219 0.884614 0
M  V30 4910 O 454.607 -1.95395 -0.109215 0
M  V30 4911 C 454.906 -1.34434 3.31153 0
M  V30 4912 C 454.572 -0.417083 4.48967 0
M  V30 4913 C 453.234 -0.161809 4.80928 0
M  V30 4914 C 455.586 0.220753 5.20732 0
M  V30 4915 C 452.914 0.739426 5.82022 0
M  V30 4916 C 455.266 1.10993 6.22787 0
M  V30 4917 C 453.93 1.37428 6.532 0
M  V30 4918 H 453.2 -0.246158 0.698918 0
M  V30 4919 H 455.847 0.0677145 1.9138 0
M  V30 4920 H 454.152 -2.15905 3.26944 0
M  V30 4921 H 455.849 -1.87883 3.54261 0
M  V30 4922 H 452.439 -0.626217 4.24001 0
M  V30 4923 H 456.623 0.0365643 4.96287 0
M  V30 4924 H 451.879 0.952139 6.03941 0
M  V30 4925 H 456.053 1.61046 6.77523 0
M  V30 4926 H 453.68 2.0743 7.31353 0
M  V30 4927 N 455.255 -1.55392 -0.262866 0
M  V30 4928 C 456.203 -1.8977 -1.345 0
M  V30 4929 C 457.197 -0.775063 -1.50629 0
M  V30 4930 O 458.403 -0.959519 -1.52293 0
M  V30 4931 H 454.778 -0.602467 -0.450041 0
M  V30 4932 H 456.749 -2.80147 -1.02762 0
M  V30 4933 C 455.498 -2.19501 -2.69657 0
M  V30 4934 H 454.821 -3.05378 -2.5804 0
M  V30 4935 H 456.261 -2.47469 -3.44289 0
M  V30 4936 C 454.72 -1.00597 -3.21531 0
M  V30 4937 O 455.25 -0.245768 -4.00947 0
M  V30 4938 N 453.456 -0.800911 -2.79345 0
M  V30 4939 H 453.003 -1.42079 -2.14875 0
M  V30 4940 H 452.961 -0.00697996 -3.14399 0
M  V30 4941 N 456.733 0.527833 -1.48498 0
M  V30 4942 C 457.982 1.28003 -1.55878 0
M  V30 4943 C 458.295 1.9414 -0.238577 0
M  V30 4944 O 459.501 2.7083 -0.190643 0
M  V30 4945 C 457.957 2.32272 -2.74914 0
M  V30 4946 C 457.565 1.72196 -4.13585 0
M  V30 4947 C 459.309 3.08488 -2.91608 0
M  V30 4948 C 457.216 2.74417 -5.23879 0
M  V30 4949 H 456.146 0.481413 -0.580308 0
M  V30 4950 H 458.797 0.557195 -1.74836 0
M  V30 4951 H 457.179 3.07601 -2.49395 0
M  V30 4952 H 458.353 1.03041 -4.49132 0
M  V30 4953 H 456.668 1.08464 -4.02025 0
M  V30 4954 H 459.265 3.84879 -3.71177 0
M  V30 4955 H 459.608 3.64481 -2.01145 0
M  V30 4956 H 460.141 2.40274 -3.17038 0
M  V30 4957 H 456.88 2.23242 -6.16314 0
M  V30 4958 H 456.4 3.41893 -4.92818 0
M  V30 4959 H 458.079 3.37362 -5.52083 0
M  V30 4960 N 458.211 1.37122 0.776871 0
M  V30 4961 C 459.46 1.31373 1.53049 0
M  V30 4962 C 459.773 -0.101016 1.95339 0
M  V30 4963 O 460.979 -0.280953 2.70042 0
M  V30 4964 C 459.435 2.30567 2.76346 0
M  V30 4965 C 459.043 3.77543 2.41175 0
M  V30 4966 C 460.787 2.33818 3.54301 0
M  V30 4967 C 458.694 4.68481 3.60943 0
M  V30 4968 H 457.624 0.488234 0.574581 0
M  V30 4969 H 460.275 1.62554 0.851372 0
M  V30 4970 H 458.657 1.92396 3.46121 0
M  V30 4971 H 459.831 4.24521 1.79216 0
M  V30 4972 H 458.146 3.77187 1.76405 0
M  V30 4973 H 460.743 2.98965 4.4331 0
M  V30 4974 H 461.086 1.3503 3.93793 0
M  V30 4975 H 461.619 2.7067 2.91518 0
M  V30 4976 H 458.358 5.68378 3.26537 0
M  V30 4977 H 457.878 4.2621 4.22025 0
M  V30 4978 H 459.557 4.85366 4.27819 0
M  V30 4979 N 459.689 -1.00246 1.21608 0
M  V30 4980 C 460.937 -1.73717 1.0328 0
M  V30 4981 C 461.258 -1.90102 -0.434318 0
M  V30 4982 O 460.528 -1.45376 -1.31311 0
M  V30 4983 H 459.108 -0.643613 0.379172 0
M  V30 4984 H 461.77 -1.20787 1.52959 0
M  V30 4985 H 460.866 -2.73535 1.50283 0
M  V30 4986 N 461.167 -1.02423 -1.1978 0
M  V30 4987 C 462.578 -0.748389 -1.71044 0
M  V30 4988 C 462.929 0.732398 -1.82017 0
M  V30 4989 O 462.054 1.57116 -1.48807 0
M  V30 4990 C 462.649 -1.35187 -3.1066 0
M  V30 4991 C 461.208 -1.12472 -3.59203 0
M  V30 4992 C 460.355 -1.45283 -2.36195 0
M  V30 4993 H 463.306 -1.19275 -1.04686 0
M  V30 4994 H 463.327 -0.746408 -3.73107 0
M  V30 4995 H 462.839 -2.4296 -3.02642 0
M  V30 4996 H 460.94 -0.0649983 -3.72543 0
M  V30 4997 H 461.053 -1.81016 -4.43588 0
M  V30 4998 H 459.417 -0.872034 -2.39307 0
M  V30 4999 H 460.2 -2.54129 -2.30811 0
M  V30 5000 N 462.645 1.35699 -0.801477 0
M  V30 5001 C 463.893 1.9852 -0.37871 0
M  V30 5002 C 464.214 1.63907 1.05638 0
M  V30 5003 O 463.484 0.919013 1.73006 0
M  V30 5004 H 462.064 0.734322 -0.137042 0
M  V30 5005 H 464.726 1.65697 -1.02619 0
M  V30 5006 H 463.822 3.08382 -0.480284 0
M  V30 5007 N 464.123 0.554532 1.47522 0
M  V30 5008 C 465.372 0.0273458 2.01681 0
M  V30 5009 C 465.685 -1.32962 1.43459 0
M  V30 5010 O 466.891 -1.94657 1.89265 0
M  V30 5011 C 465.347 -0.00159057 3.599 0
M  V30 5012 C 464.955 1.35197 4.27113 0
M  V30 5013 C 466.699 -0.476311 4.21819 0
M  V30 5014 C 464.606 1.28229 5.77331 0
M  V30 5015 H 463.536 0.00645269 0.753972 0
M  V30 5016 H 466.187 0.701985 1.69542 0
M  V30 5017 H 464.569 -0.741821 3.8899 0
M  V30 5018 H 465.743 2.1097 4.09668 0
M  V30 5019 H 464.058 1.76441 3.77171 0
M  V30 5020 H 466.655 -0.5468 5.31897 0
M  V30 5021 H 466.998 -1.4877 3.8881 0
M  V30 5022 H 467.531 0.20898 3.97251 0
M  V30 5023 H 464.27 2.26959 6.14955 0
M  V30 5024 H 463.79 0.566314 5.97121 0
M  V30 5025 H 465.469 0.983226 6.39485 0
M  V30 5026 N 465.601 -1.54893 0.290851 0
M  V30 5027 C 466.847 -2.0023 -0.321867 0
M  V30 5028 C 467.18 -1.179 -1.54316 0
M  V30 5029 O 466.455 -0.25293 -1.92848 0
M  V30 5030 C 466.738 -3.53456 -0.688515 0
M  V30 5031 C 466.591 -4.46532 0.541209 0
M  V30 5032 C 467.91 -4.13057 -1.51895 0
M  V30 5033 H 465.029 -0.727891 -0.115515 0
M  V30 5034 H 467.671 -1.85722 0.400931 0
M  V30 5035 H 465.821 -3.6595 -1.30433 0
M  V30 5036 H 467.493 -4.4596 1.17973 0
M  V30 5037 H 465.736 -4.17545 1.17636 0
M  V30 5038 H 466.407 -5.51475 0.240675 0
M  V30 5039 H 468.883 -4.03937 -0.99872 0
M  V30 5040 H 467.759 -5.20448 -1.74429 0
M  V30 5041 H 468.02 -3.64284 -2.50498 0
M  V30 5042 N 467.08 -0.0183926 -1.57589 0
M  V30 5043 C 468.01 0.965596 -2.12599 0
M  V30 5044 C 468.991 1.34641 -1.0395 0
M  V30 5045 O 470.176 1.42693 -1.31729 0
M  V30 5046 C 467.306 2.25149 -2.64434 0
M  V30 5047 C 466.26 2.01175 -3.77773 0
M  V30 5048 C 465.586 3.35937 -4.15994 0
M  V30 5049 C 466.886 1.35953 -5.04296 0
M  V30 5050 H 468.58 0.507504 -2.95067 0
M  V30 5051 H 466.126 0.242671 -1.41941 0
M  V30 5052 H 468.079 2.94357 -3.01549 0
M  V30 5053 H 466.803 2.73105 -1.79112 0
M  V30 5054 H 465.462 1.34388 -3.4108 0
M  V30 5055 H 465.11 3.81631 -3.27669 0
M  V30 5056 H 464.81 3.20705 -4.92364 0
M  V30 5057 H 466.334 4.0643 -4.55683 0
M  V30 5058 H 467.748 1.95144 -5.39065 0
M  V30 5059 H 466.145 1.31152 -5.85593 0
M  V30 5060 H 467.215 0.331071 -4.83768 0
M  V30 5061 N 468.558 1.5553 0.254621 0
M  V30 5062 C 469.783 1.81383 1.00573 0
M  V30 5063 C 470.208 0.594419 1.78461 0
M  V30 5064 O 469.566 -0.456403 1.75461 0
M  V30 5065 C 469.614 3.04892 1.92545 0
M  V30 5066 O 468.718 2.81266 3.01601 0
M  V30 5067 H 468.059 0.598969 0.286587 0
M  V30 5068 H 470.589 2.02703 0.277952 0
M  V30 5069 H 470.599 3.34119 2.34155 0
M  V30 5070 H 469.274 3.93287 1.3527 0
M  V30 5071 H 467.851 2.63185 2.64174 0
M  V30 5072 N 470.036 -0.519951 1.48776 0
M  V30 5073 C 470.984 -1.64443 1.64503 0
M  V30 5074 C 471.978 -1.61501 0.511248 0
M  V30 5075 O 473.184 -1.66238 0.690294 0
M  V30 5076 H 469.559 -0.544776 0.518385 0
M  V30 5077 H 471.53 -1.48325 2.58925 0
M  V30 5078 C 470.279 -3.02673 1.71127 0
M  V30 5079 H 469.602 -3.05635 2.57735 0
M  V30 5080 H 471.042 -3.80941 1.86172 0
M  V30 5081 C 469.501 -3.33854 0.452032 0
M  V30 5082 O 470.031 -3.99385 -0.430678 0
M  V30 5083 N 468.237 -2.88825 0.32069 0
M  V30 5084 H 467.784 -2.35674 1.03998 0
M  V30 5085 H 467.742 -3.10056 -0.520814 0
M  V30 5086 N 471.514 -1.37532 -0.769588 0
M  V30 5087 C 472.925 -1.29382 -1.346 0
M  V30 5088 C 473.276 0.0576039 -1.96115 0
M  V30 5089 O 472.401 0.95947 -1.93967 0
M  V30 5090 C 472.996 -2.34298 -2.44724 0
M  V30 5091 C 471.555 -2.29776 -2.98128 0
M  V30 5092 C 470.702 -2.18013 -1.71364 0
M  V30 5093 H 473.653 -1.48123 -0.56968 0
M  V30 5094 H 473.674 -1.99089 -3.24259 0
M  V30 5095 H 473.186 -3.32645 -1.99922 0
M  V30 5096 H 471.287 -1.34959 -3.47299 0
M  V30 5097 H 471.4 -3.23276 -3.53595 0
M  V30 5098 H 469.764 -1.64595 -1.94372 0
M  V30 5099 H 470.547 -3.18278 -1.28662 0
M  V30 5100 N 472.992 0.995999 -1.22138 0
M  V30 5101 C 474.269 1.70834 -0.952642 0
M  V30 5102 C 474.649 2.04257 0.533119 0
M  V30 5103 O 473.997 1.72343 1.50034 0
M  V30 5104 C 474.207 2.96119 -1.84701 0
M  V30 5105 C 475.555 3.68962 -2.10124 0
M  V30 5106 O 476.579 3.0612 -1.82124 0
M  V30 5107 O 475.438 4.82017 -2.57531 0
M  V30 5108 H 472.532 0.745498 -0.357997 0
M  V30 5109 H 475.078 1.05262 -1.33109 0
M  V30 5110 H 473.85 2.67898 -2.85213 0
M  V30 5111 H 473.473 3.6943 -1.46995 0
M  V30 5112 N 474.47 1.03057 1.19235 0
M  V30 5113 C 475.886 0.747947 1.40989 0
M  V30 5114 C 476.086 -0.666752 1.90149 0
M  V30 5115 O 475.142 -1.43249 2.07933 0
M  V30 5116 C 476.455 1.7855 2.41951 0
M  V30 5117 C 478.003 1.80524 2.55695 0
M  V30 5118 C 478.478 2.83243 3.59913 0
M  V30 5119 N 479.969 2.8207 3.67411 0
M  V30 5120 C 480.704 3.58204 4.47747 0
M  V30 5121 N 480.2 4.44057 5.31775 0
M  V30 5122 N 481.993 3.46738 4.42413 0
M  V30 5123 H 474.144 1.94367 0.856468 0
M  V30 5124 H 476.407 0.840412 0.438647 0
M  V30 5125 H 476.113 2.79973 2.12857 0
M  V30 5126 H 475.987 1.6092 3.41152 0
M  V30 5127 H 478.374 0.79778 2.84112 0
M  V30 5128 H 478.455 2.02229 1.56643 0
M  V30 5129 H 478.099 3.84161 3.32239 0
M  V30 5130 H 478.029 2.58795 4.5862 0
M  V30 5131 H 480.52 2.19803 3.074 0
M  V30 5132 H 480.833 4.98884 5.90199 0
M  V30 5133 H 479.178 4.48129 5.3123 0
M  V30 5134 H 482.369 2.79077 3.75811 0
M  V30 5135 H 482.542 4.06322 5.04783 0
M  V30 5136 N 475.948 -1.35272 0.808662 0
M  V30 5137 C 477.359 -1.81179 0.450688 0
M  V30 5138 C 477.71 -1.67143 -1.02751 0
M  V30 5139 O 476.835 -1.20325 -1.79864 0
M  V30 5140 C 477.43 -3.28943 0.811275 0
M  V30 5141 C 475.989 -3.72985 0.505871 0
M  V30 5142 C 475.136 -2.57229 1.03578 0
M  V30 5143 H 478.087 -1.2322 1.00012 0
M  V30 5144 H 478.108 -3.80342 0.109588 0
M  V30 5145 H 477.62 -3.39127 1.88718 0
M  V30 5146 H 475.721 -3.68349 -0.561209 0
M  V30 5147 H 475.834 -4.67677 1.03995 0
M  V30 5148 H 474.198 -2.50548 0.458005 0
M  V30 5149 H 474.981 -2.7019 2.11784 0
M  V30 5150 N 477.426 -0.562348 -1.47226 0
M  V30 5151 C 478.666 -0.0426374 -2.04356 0
M  V30 5152 C 479.03 1.28487 -1.42671 0
M  V30 5153 O 480.231 1.89259 -1.90878 0
M  V30 5154 C 478.502 0.0433826 -3.57374 0
M  V30 5155 S 480.061 0.508472 -4.35844 0
M  V30 5156 H 476.879 -0.0276234 -0.710463 0
M  V30 5157 H 479.481 -0.750245 -1.80531 0
M  V30 5158 H 478.185 -0.927072 -3.99792 0
M  V30 5159 H 477.716 0.774387 -3.85703 0
M  V30 5160 H 479.731 1.76719 -4.63665 0
M  V30 5161 N 478.904 1.54736 -0.299062 0
M  V30 5162 C 479.854 2.20155 0.592932 0
M  V30 5163 C 480.838 1.1739 1.10038 0
M  V30 5164 O 482.03 1.43116 1.04147 0
M  V30 5165 C 479.159 2.94437 1.76527 0
M  V30 5166 C 478.245 4.04516 1.27388 0
M  V30 5167 N 478.636 5.03319 0.500339 0
M  V30 5168 C 476.934 4.18022 1.55478 0
M  V30 5169 C 477.635 5.81209 0.238909 0
M  V30 5170 N 476.611 5.37408 0.818163 0
M  V30 5171 H 480.413 2.93899 -0.00563596 0
M  V30 5172 H 477.927 1.62068 -0.103732 0
M  V30 5173 H 479.924 3.3977 2.41582 0
M  V30 5174 H 478.584 2.22209 2.36756 0
M  V30 5175 H 479.595 5.17696 0.145419 0
M  V30 5176 H 476.272 3.56998 2.16469 0
M  V30 5177 H 477.662 6.70812 -0.382223 0
M  V30 5178 N 480.382 0.0267497 1.57577 0
M  V30 5179 C 481.314 -0.984594 2.06974 0
M  V30 5180 C 482.327 -1.29032 0.992705 0
M  V30 5181 O 483.516 -1.25539 1.26895 0
M  V30 5182 C 480.616 -2.31262 2.47732 0
M  V30 5183 C 479.789 -2.1924 3.78487 0
M  V30 5184 C 478.848 -3.34956 4.05821 0
M  V30 5185 O 477.874 -3.11948 4.76106 0
M  V30 5186 N 479.076 -4.58672 3.55809 0
M  V30 5187 H 481.841 -0.563143 2.94362 0
M  V30 5188 H 479.402 -0.160061 1.61107 0
M  V30 5189 H 481.394 -3.07496 2.63112 0
M  V30 5190 H 479.964 -2.65056 1.65723 0
M  V30 5191 H 479.184 -1.27747 3.72927 0
M  V30 5192 H 480.472 -2.08409 4.64158 0
M  V30 5193 H 479.87 -4.8026 2.98942 0
M  V30 5194 H 478.427 -5.32083 3.76472 0
M  V30 5195 N 481.861 -1.55662 -0.24637 0
M  V30 5196 C 483.11 -1.7672 -0.972254 0
M  V30 5197 C 483.423 -0.59078 -1.86465 0
M  V30 5198 O 484.629 -0.684391 -2.62732 0
M  V30 5199 C 483.085 -3.12869 -1.7788 0
M  V30 5200 C 482.693 -4.38161 -0.933768 0
M  V30 5201 C 484.437 -3.43265 -2.49738 0
M  V30 5202 C 482.344 -5.6534 -1.73623 0
M  V30 5203 H 481.274 -0.658795 -0.366749 0
M  V30 5204 H 483.925 -1.82092 -0.226902 0
M  V30 5205 H 482.307 -3.01606 -2.56612 0
M  V30 5206 H 483.481 -4.60413 -0.188736 0
M  V30 5207 H 481.796 -4.15102 -0.328488 0
M  V30 5208 H 484.393 -4.35501 -3.10231 0
M  V30 5209 H 484.736 -2.64614 -3.2138 0
M  V30 5210 H 485.269 -3.55746 -1.78016 0
M  V30 5211 H 482.008 -6.46814 -1.06354 0
M  V30 5212 H 481.528 -5.47188 -2.45653 0
M  V30 5213 H 483.207 -6.04616 -2.30323 0
M  V30 5214 N 483.339 0.512053 -1.4905 0
M  V30 5215 C 484.616 1.27337 -1.48474 0
M  V30 5216 C 484.996 2.1009 -0.206301 0
M  V30 5217 O 484.344 2.136 0.811609 0
M  V30 5218 C 484.554 2.13954 -2.75726 0
M  V30 5219 C 485.902 2.73507 -3.24776 0
M  V30 5220 O 486.926 2.24229 -2.76767 0
M  V30 5221 O 485.785 3.63186 -4.08361 0
M  V30 5222 H 482.879 0.575652 -0.593762 0
M  V30 5223 H 485.425 0.527232 -1.61302 0
M  V30 5224 H 484.197 1.52709 -3.60272 0
M  V30 5225 H 483.82 2.95782 -2.65705 0
M  V30 5226 N 484.817 1.37938 0.762283 0
M  V30 5227 C 485.747 1.37176 1.88958 0
M  V30 5228 C 486.728 0.238945 1.68413 0
M  V30 5229 O 487.913 0.440726 1.89133 0
M  V30 5230 C 485.043 1.18742 3.2637 0
M  V30 5231 C 483.997 2.29136 3.61498 0
M  V30 5232 C 483.323 1.95816 4.97554 0
M  V30 5233 C 484.623 3.71363 3.6727 0
M  V30 5234 H 486.317 2.31509 1.89853 0
M  V30 5235 H 483.863 1.11438 0.912005 0
M  V30 5236 H 485.816 1.16837 4.04879 0
M  V30 5237 H 484.54 0.208683 3.25933 0
M  V30 5238 H 483.199 2.30213 2.85303 0
M  V30 5239 H 482.847 0.964475 4.93667 0
M  V30 5240 H 482.547 2.69745 5.22026 0
M  V30 5241 H 484.071 1.95513 5.78452 0
M  V30 5242 H 485.485 3.72364 4.35911 0
M  V30 5243 H 483.882 4.44425 4.03245 0
M  V30 5244 H 484.952 4.04305 2.67704 0
M  V30 5245 N 486.295 -0.989507 1.22664 0
M  V30 5246 C 487.542 -1.72953 1.05325 0
M  V30 5247 C 487.87 -1.90104 -0.411168 0
M  V30 5248 O 487.125 -1.44386 -1.32103 0
M  V30 5249 C 487.424 -3.13649 1.71345 0
M  V30 5250 C 487.09 -3.16403 3.21248 0
M  V30 5251 C 485.752 -3.16862 3.62149 0
M  V30 5252 C 488.104 -3.12428 4.17179 0
M  V30 5253 C 485.432 -3.11051 4.97458 0
M  V30 5254 C 487.784 -3.08159 5.52468 0
M  V30 5255 C 486.448 -3.06935 5.92746 0
M  V30 5256 H 485.718 -0.632881 0.385412 0
M  V30 5257 H 488.365 -1.15863 1.52473 0
M  V30 5258 H 486.67 -3.74069 1.16532 0
M  V30 5259 H 488.367 -3.69658 1.55416 0
M  V30 5260 H 484.957 -3.16798 2.88682 0
M  V30 5261 H 489.141 -3.11221 3.86595 0
M  V30 5262 H 484.397 -3.0845 5.27891 0
M  V30 5263 H 488.571 -3.04039 6.26525 0
M  V30 5264 H 486.198 -3.02186 6.97558 0
M  V30 5265 N 487.773 -1.03688 -1.18687 0
M  V30 5266 C 488.72 -0.624624 -2.22187 0
M  V30 5267 C 489.69 0.365636 -1.62026 0
M  V30 5268 O 490.875 0.260481 -1.89014 0
M  V30 5269 C 488.015 0.0101738 -3.45099 0
M  V30 5270 C 487.128 -1.02709 -4.19613 0
M  V30 5271 C 486.263 -0.361213 -5.2997 0
M  V30 5272 C 485.302 -1.38384 -5.96252 0
M  V30 5273 N 484.439 -0.743196 -6.98155 0
M  V30 5274 H 489.279 -1.51176 -2.56807 0
M  V30 5275 H 486.816 -0.75636 -1.26165 0
M  V30 5276 H 488.774 0.395528 -4.15321 0
M  V30 5277 H 487.404 0.860848 -3.1111 0
M  V30 5278 H 486.456 -1.53043 -3.48256 0
M  V30 5279 H 487.768 -1.80398 -4.65036 0
M  V30 5280 H 486.922 0.0785537 -6.06649 0
M  V30 5281 H 485.661 0.447799 -4.8564 0
M  V30 5282 H 484.666 -1.83378 -5.18317 0
M  V30 5283 H 485.891 -2.19448 -6.42666 0
M  V30 5284 H 483.837 0.0455789 -6.55984 0
M  V30 5285 H 483.754 -1.45784 -7.41811 0
M  V30 5286 H 485.022 -0.327698 -7.78811 0
M  V30 5287 N 489.251 1.34841 -0.815825 0
M  V30 5288 C 490.198 2.29644 -0.230664 0
M  V30 5289 C 491.168 1.53253 0.640533 0
M  V30 5290 O 492.353 1.81653 0.583672 0
M  V30 5291 C 489.493 3.39715 0.607275 0
M  V30 5292 C 488.606 4.31056 -0.28538 0
M  V30 5293 C 487.741 5.28225 0.561446 0
M  V30 5294 C 486.78 6.11204 -0.331035 0
M  V30 5295 N 485.917 7.00483 0.476302 0
M  V30 5296 H 490.757 2.79095 -1.0445 0
M  V30 5297 H 488.294 1.37351 -0.526595 0
M  V30 5298 H 490.252 4.02208 1.10835 0
M  V30 5299 H 488.882 2.91517 1.38629 0
M  V30 5300 H 487.934 3.69487 -0.904621 0
M  V30 5301 H 489.246 4.89239 -0.97193 0
M  V30 5302 H 488.4 5.96135 1.12728 0
M  V30 5303 H 487.139 4.70562 1.28153 0
M  V30 5304 H 486.144 5.42232 -0.909069 0
M  V30 5305 H 487.369 6.70947 -1.04912 0
M  V30 5306 H 485.315 6.45296 1.18019 0
M  V30 5307 H 485.232 7.55847 -0.152008 0
M  V30 5308 H 486.5 7.7273 1.02512 0
M  V30 5309 N 490.729 0.570148 1.46925 0
M  V30 5310 C 491.692 -0.159933 2.28641 0
M  V30 5311 C 492.692 -0.830638 1.37685 0
M  V30 5312 O 493.882 -0.684516 1.60187 0
M  V30 5313 C 491.014 -1.2354 3.17727 0
M  V30 5314 H 492.207 0.558035 2.94662 0
M  V30 5315 H 489.76 0.327603 1.52828 0
M  V30 5316 H 490.495 -1.98535 2.56426 0
M  V30 5317 H 490.28 -0.759125 3.84681 0
M  V30 5318 H 491.77 -1.74782 3.79264 0
M  V30 5319 N 492.207 -1.54576 0.307264 0
M  V30 5320 C 493.455 -1.99867 -0.299574 0
M  V30 5321 C 493.776 -1.19714 -1.53927 0
M  V30 5322 O 493.046 -0.29472 -1.9367 0
M  V30 5323 H 491.626 -0.738299 -0.113683 0
M  V30 5324 H 494.288 -1.9032 0.420042 0
M  V30 5325 H 493.384 -3.06901 -0.567283 0
M  V30 5326 N 493.685 -0.035106 -1.57561 0
M  V30 5327 C 494.931 0.637362 -1.93156 0
M  V30 5328 C 495.286 1.69391 -0.912392 0
M  V30 5329 O 494.579 1.91469 0.070735 0
M  V30 5330 C 494.773 1.29149 -3.3325 0
M  V30 5331 C 494.602 0.29983 -4.48699 0
M  V30 5332 C 493.372 -0.102454 -5.05196 0
M  V30 5333 C 495.57 -0.448297 -5.12342 0
M  V30 5334 N 493.552 -1.08866 -6.0417 0
M  V30 5335 C 494.923 -1.28807 -6.06472 0
M  V30 5336 C 496.978 -0.508351 -4.95298 0
M  V30 5337 C 495.681 -2.18248 -6.85391 0
M  V30 5338 C 497.707 -1.39013 -5.7483 0
M  V30 5339 C 497.069 -2.21766 -6.6858 0
M  V30 5340 H 493.168 0.205358 -0.754554 0
M  V30 5341 H 495.752 -0.103682 -1.94424 0
M  V30 5342 H 493.923 2.00264 -3.3279 0
M  V30 5343 H 495.655 1.92147 -3.56177 0
M  V30 5344 H 492.41 0.273223 -4.72811 0
M  V30 5345 H 492.834 -1.57817 -6.58348 0
M  V30 5346 H 497.476 0.117197 -4.22638 0
M  V30 5347 H 495.194 -2.81855 -7.57353 0
M  V30 5348 H 498.78 -1.44096 -5.63673 0
M  V30 5349 H 497.66 -2.88892 -7.29048 0
M  V30 5350 N 495.163 1.55791 0.238111 0
M  V30 5351 C 496.391 1.82098 0.982233 0
M  V30 5352 C 496.806 0.612025 1.78605 0
M  V30 5353 O 496.163 -0.419381 1.77616 0
M  V30 5354 C 496.214 3.0673 1.91309 0
M  V30 5355 O 495.935 4.2296 1.14179 0
M  V30 5356 C 497.436 3.45903 2.77248 0
M  V30 5357 H 494.656 0.605748 0.288635 0
M  V30 5358 H 497.2 2.02862 0.258341 0
M  V30 5359 H 495.355 2.87991 2.59114 0
M  V30 5360 H 495.769 4.93653 1.7722 0
M  V30 5361 H 497.243 4.36189 3.38295 0
M  V30 5362 H 497.72 2.66891 3.48806 0
M  V30 5363 H 498.326 3.67024 2.14881 0
M  V30 5364 N 496.642 -0.504142 1.49319 0
M  V30 5365 C 497.891 -1.25507 1.57895 0
M  V30 5366 C 498.204 -1.93735 0.269433 0
M  V30 5367 O 499.41 -2.70492 0.233706 0
M  V30 5368 C 497.866 -2.27869 2.78574 0
M  V30 5369 C 497.474 -1.65594 4.16272 0
M  V30 5370 C 499.218 -3.0381 2.96479 0
M  V30 5371 C 497.125 -2.66048 5.28178 0
M  V30 5372 H 496.055 -0.47212 0.587894 0
M  V30 5373 H 498.706 -0.52931 1.757 0
M  V30 5374 H 497.088 -3.03594 2.54257 0
M  V30 5375 H 498.262 -0.958826 4.50714 0
M  V30 5376 H 496.577 -1.02055 4.037 0
M  V30 5377 H 499.174 -3.78925 3.77253 0
M  V30 5378 H 499.517 -3.61235 2.06918 0
M  V30 5379 H 500.05 -2.352 3.20821 0
M  V30 5380 H 496.789 -2.13408 6.19788 0
M  V30 5381 H 496.309 -3.34009 4.98195 0
M  V30 5382 H 497.988 -3.28536 5.57381 0
M  V30 5383 N 498.12 -1.38341 -0.754957 0
M  V30 5384 C 499.369 -1.33791 -1.5094 0
M  V30 5385 C 499.682 0.0699267 -1.95475 0
M  V30 5386 O 500.888 0.237956 -2.70455 0
M  V30 5387 C 499.344 -2.34934 -2.72643 0
M  V30 5388 C 498.952 -3.81332 -2.35138 0
M  V30 5389 C 500.696 -2.39425 -3.50536 0
M  V30 5390 C 498.603 -4.74164 -3.53444 0
M  V30 5391 H 497.533 -0.497314 -0.566741 0
M  V30 5392 H 500.184 -1.63888 -0.825403 0
M  V30 5393 H 498.566 -1.97878 -3.43017 0
M  V30 5394 H 499.74 -4.27319 -1.7244 0
M  V30 5395 H 498.055 -3.79946 -1.70382 0
M  V30 5396 H 500.652 -3.0598 -4.38498 0
M  V30 5397 H 500.995 -1.41278 -3.91594 0
M  V30 5398 H 501.528 -2.75274 -2.87174 0
M  V30 5399 H 498.267 -5.73501 -3.17453 0
M  V30 5400 H 497.787 -4.3287 -4.15191 0
M  V30 5401 H 499.466 -4.92111 -4.20043 0
M  V30 5402 N 499.598 0.982988 -1.23187 0
M  V30 5403 C 500.826 1.75921 -1.08901 0
M  V30 5404 C 501.241 1.85341 0.359719 0
M  V30 5405 O 500.598 1.33072 1.24892 0
M  V30 5406 C 500.649 3.18742 -1.70545 0
M  V30 5407 O 500.37 3.09814 -3.09753 0
M  V30 5408 C 501.871 4.1277 -1.61667 0
M  V30 5409 H 499.091 0.552166 -0.381252 0
M  V30 5410 H 501.635 1.23516 -1.62985 0
M  V30 5411 H 499.79 3.68182 -1.20501 0
M  V30 5412 H 500.204 3.99703 -3.39614 0
M  V30 5413 H 501.678 5.10697 -2.09506 0
M  V30 5414 H 502.155 4.3542 -0.575009 0
M  V30 5415 H 502.761 3.69232 -2.11064 0
M  V30 5416 N 501.076 1.04316 1.18135 0
M  V30 5417 C 502.487 0.775505 1.69832 0
M  V30 5418 C 502.838 -0.703348 1.8316 0
M  V30 5419 O 501.963 -1.54729 1.51287 0
M  V30 5420 C 502.558 1.40112 3.0847 0
M  V30 5421 C 501.117 1.18172 3.57368 0
M  V30 5422 C 500.264 1.49022 2.33854 0
M  V30 5423 H 503.215 1.20925 1.02775 0
M  V30 5424 H 503.236 0.805672 3.71873 0
M  V30 5425 H 502.748 2.47744 2.98738 0
M  V30 5426 H 500.849 0.124258 3.72393 0
M  V30 5427 H 500.962 1.8805 4.40652 0
M  V30 5428 H 499.326 0.909995 2.37889 0
M  V30 5429 H 500.109 2.57768 2.26738 0
M  V30 5430 N 502.554 -1.34406 0.822964 0
M  V30 5431 C 503.965 -1.8069 0.469879 0
M  V30 5432 C 504.316 -1.68223 -1.00972 0
M  V30 5433 O 503.441 -1.22226 -1.78577 0
M  V30 5434 C 504.036 -3.28064 0.846118 0
M  V30 5435 C 502.595 -3.72428 0.545402 0
M  V30 5436 C 501.742 -2.56116 1.06301 0
M  V30 5437 H 504.693 -1.22153 1.01313 0
M  V30 5438 H 504.714 -3.80205 0.149922 0
M  V30 5439 H 504.226 -3.37107 1.92304 0
M  V30 5440 H 502.327 -3.68924 -0.522109 0
M  V30 5441 H 502.44 -4.66548 1.0895 0
M  V30 5442 H 500.804 -2.50048 0.484554 0
M  V30 5443 H 501.587 -2.67928 2.14638 0
M  V30 5444 N 504.032 -0.577932 -1.46621 0
M  V30 5445 C 505.26 -0.0671642 -2.06791 0
M  V30 5446 C 505.675 1.23571 -1.42743 0
M  V30 5447 O 505.032 1.74602 -0.531062 0
M  V30 5448 C 505.083 0.110357 -3.61332 0
M  V30 5449 O 504.804 -1.14095 -4.22982 0
M  V30 5450 C 506.305 0.656025 -4.38419 0
M  V30 5451 H 503.525 -0.0552732 -0.66872 0
M  V30 5452 H 506.069 -0.797242 -1.8832 0
M  V30 5453 H 504.224 0.790637 -3.79246 0
M  V30 5454 H 504.638 -0.951742 -5.15793 0
M  V30 5455 H 506.112 0.729438 -5.47159 0
M  V30 5456 H 506.589 1.67195 -4.06131 0
M  V30 5457 H 507.195 0.0107692 -4.25299 0
M  V30 5458 N 505.51 1.54411 -0.315457 0
M  V30 5459 C 506.921 1.85885 0.174265 0
M  V30 5460 C 507.272 1.23723 1.52273 0
M  V30 5461 O 506.397 0.540246 2.09548 0
M  V30 5462 C 506.992 3.37257 0.322981 0
M  V30 5463 C 505.551 3.68711 0.756922 0
M  V30 5464 C 504.698 2.77013 -0.126195 0
M  V30 5465 H 507.649 1.49374 -0.536007 0
M  V30 5466 H 507.67 3.62539 1.15522 0
M  V30 5467 H 507.182 3.82471 -0.658602 0
M  V30 5468 H 505.283 3.29024 1.74854 0
M  V30 5469 H 505.396 4.75741 0.566291 0
M  V30 5470 H 503.76 2.51588 0.39692 0
M  V30 5471 H 504.543 3.25051 -1.1044 0
M  V30 5472 N 506.988 0.0434614 1.5754 0
M  V30 5473 C 508.237 -0.631454 1.91561 0
M  V30 5474 C 508.55 -1.72457 0.92292 0
M  V30 5475 O 509.756 -2.45712 1.15489 0
M  V30 5476 C 508.212 -1.17447 3.40197 0
M  V30 5477 C 507.82 -0.113867 4.47855 0
M  V30 5478 C 509.564 -1.82507 3.83264 0
M  V30 5479 C 507.471 -0.669326 5.876 0
M  V30 5480 H 506.401 -0.239629 0.714908 0
M  V30 5481 H 509.052 0.111097 1.83163 0
M  V30 5482 H 507.434 -1.96909 3.43574 0
M  V30 5483 H 508.608 0.659348 4.56058 0
M  V30 5484 H 506.923 0.438821 4.14081 0
M  V30 5485 H 509.52 -2.25047 4.85034 0
M  V30 5486 H 509.863 -2.67365 3.19095 0
M  V30 5487 H 510.396 -1.09712 3.82372 0
M  V30 5488 H 507.135 0.141449 6.55347 0
M  V30 5489 H 506.655 -1.4107 5.82974 0
M  V30 5490 H 508.334 -1.15463 6.36614 0
M  V30 5491 N 508.466 -1.55915 -0.229846 0
M  V30 5492 C 509.715 -1.77742 -0.953455 0
M  V30 5493 C 510.028 -0.610524 -1.85828 0
M  V30 5494 O 511.234 -0.712219 -2.61992 0
M  V30 5495 C 509.69 -3.14738 -1.74551 0
M  V30 5496 C 509.298 -4.39126 -0.887242 0
M  V30 5497 C 511.042 -3.45895 -2.46084 0
M  V30 5498 C 508.949 -5.67149 -1.67617 0
M  V30 5499 H 507.879 -0.662648 -0.359741 0
M  V30 5500 H 510.53 -1.82322 -0.207576 0
M  V30 5501 H 508.912 -3.04311 -2.53399 0
M  V30 5502 H 510.086 -4.60588 -0.139892 0
M  V30 5503 H 508.401 -4.15427 -0.284443 0
M  V30 5504 H 510.998 -4.38767 -3.05594 0
M  V30 5505 H 511.341 -2.68007 -3.18556 0
M  V30 5506 H 511.874 -3.57614 -1.74233 0
M  V30 5507 H 508.613 -6.47906 -0.994881 0
M  V30 5508 H 508.133 -5.49763 -2.39836 0
M  V30 5509 H 509.812 -6.07025 -2.23898 0
M  V30 5510 N 509.944 0.496216 -1.49584 0
M  V30 5511 C 511.355 1.07765 -1.52459 0
M  V30 5512 C 511.706 1.93679 -0.31353 0
M  V30 5513 O 510.831 2.08588 0.576186 0
M  V30 5514 C 511.426 1.96111 -2.76271 0
M  V30 5515 C 509.985 2.49409 -2.81908 0
M  V30 5516 C 509.132 1.27142 -2.46435 0
M  V30 5517 H 512.083 0.279914 -1.56212 0
M  V30 5518 H 512.104 2.80862 -2.56704 0
M  V30 5519 H 511.616 1.33555 -3.64396 0
M  V30 5520 H 509.717 3.1559 -1.98074 0
M  V30 5521 H 509.83 2.86234 -3.84196 0
M  V30 5522 H 508.194 1.59818 -1.98319 0
M  V30 5523 H 508.977 0.662866 -3.3684 0
M  V30 5524 N 511.423 1.38739 0.74761 0
M  V30 5525 C 512.7 1.25791 1.49786 0
M  V30 5526 C 513.08 -0.138075 2.10648 0
M  V30 5527 O 512.428 -1.14815 1.9756 0
M  V30 5528 C 512.638 2.37265 2.55942 0
M  V30 5529 C 513.986 2.75978 3.22679 0
M  V30 5530 O 515.01 2.36621 2.6625 0
M  V30 5531 O 513.869 3.43867 4.24756 0
M  V30 5532 H 510.963 0.492251 0.664543 0
M  V30 5533 H 513.509 1.50582 0.782511 0
M  V30 5534 H 512.281 3.30644 2.0926 0
M  V30 5535 H 511.904 2.14071 3.35051 0
M  V30 5536 N 512.901 -0.976442 1.23707 0
M  V30 5537 C 514.178 -1.69296 0.979699 0
M  V30 5538 C 514.558 -2.0508 -0.500555 0
M  V30 5539 O 513.906 -1.74708 -1.47273 0
M  V30 5540 C 514.116 -2.93143 1.89389 0
M  V30 5541 C 515.464 -3.65572 2.15968 0
M  V30 5542 O 516.488 -3.03184 1.86971 0
M  V30 5543 O 515.347 -4.77859 2.65167 0
M  V30 5544 H 512.441 -0.739708 0.369812 0
M  V30 5545 H 514.987 -1.03131 1.34767 0
M  V30 5546 H 513.759 -2.63327 2.89439 0
M  V30 5547 H 513.382 -3.67044 1.52854 0
M  V30 5548 N 514.379 -1.04941 -1.1758 0
M  V30 5549 C 515.329 -0.618378 -2.19454 0
M  V30 5550 C 516.313 0.343813 -1.57184 0
M  V30 5551 O 517.505 0.16145 -1.76262 0
M  V30 5552 C 514.634 0.00803847 -3.43299 0
M  V30 5553 C 513.72 -0.977827 -4.12673 0
M  V30 5554 N 514.111 -2.14826 -4.57912 0
M  V30 5555 C 512.409 -0.805748 -4.38661 0
M  V30 5556 C 513.11 -2.77174 -5.11419 0
M  V30 5557 N 512.086 -2.04989 -5.03468 0
M  V30 5558 H 515.888 -1.51018 -2.52132 0
M  V30 5559 H 513.402 -0.919201 -1.33882 0
M  V30 5560 H 515.399 0.334584 -4.15555 0
M  V30 5561 H 514.059 0.895272 -3.12114 0
M  V30 5562 H 515.07 -2.52673 -4.52081 0
M  V30 5563 H 511.747 0.0306506 -4.17489 0
M  V30 5564 H 513.137 -3.76416 -5.56562 0
M  V30 5565 N 515.857 1.33968 -0.830081 0
M  V30 5566 C 517.268 1.80439 -0.479455 0
M  V30 5567 C 517.619 1.68756 1.00079 0
M  V30 5568 O 516.744 1.23171 1.77927 0
M  V30 5569 C 517.339 3.27611 -0.863505 0
M  V30 5570 C 515.898 3.72133 -0.565145 0
M  V30 5571 C 515.045 2.55549 -1.07657 0
M  V30 5572 H 517.996 1.21614 -1.0196 0
M  V30 5573 H 518.017 3.8012 -0.170083 0
M  V30 5574 H 517.529 3.36082 -1.94089 0
M  V30 5575 H 515.63 3.69196 0.502536 0
M  V30 5576 H 515.743 4.65963 -1.11422 0
M  V30 5577 H 514.107 2.49788 -0.497807 0
M  V30 5578 H 514.89 2.66786 -2.16055 0
M  V30 5579 N 517.335 0.585699 1.46312 0
M  V30 5580 C 518.265 -0.133556 2.33118 0
M  V30 5581 C 519.246 -0.880707 1.45525 0
M  V30 5582 O 520.431 -0.855579 1.74337 0
M  V30 5583 C 517.561 -1.14585 3.27853 0
M  V30 5584 C 516.515 -0.513341 4.2491 0
M  V30 5585 C 515.841 -1.63231 5.09175 0
M  V30 5586 C 517.141 0.551413 5.19381 0
M  V30 5587 H 518.835 0.59121 2.93505 0
M  V30 5588 H 516.381 0.285761 1.41136 0
M  V30 5589 H 518.334 -1.65741 3.87438 0
M  V30 5590 H 517.058 -1.90093 2.65579 0
M  V30 5591 H 515.717 -0.0228349 3.66593 0
M  V30 5592 H 515.365 -2.37713 4.43285 0
M  V30 5593 H 515.065 -1.21473 5.74907 0
M  V30 5594 H 516.589 -2.14658 5.71624 0
M  V30 5595 H 518.003 0.124804 5.73164 0
M  V30 5596 H 516.4 0.889486 5.93471 0
M  V30 5597 H 517.47 1.43655 4.63132 0
M  V30 5598 N 518.813 -1.54241 0.323641 0
M  V30 5599 C 520.059 -2.01572 -0.272089 0
M  V30 5600 C 520.414 -1.20774 -1.49771 0
M  V30 5601 O 519.707 -0.281821 -1.89516 0
M  V30 5602 C 519.901 -3.5129 -0.658031 0
M  V30 5603 C 519.73 -4.46582 0.528645 0
M  V30 5604 C 518.5 -4.94737 1.02777 0
M  V30 5605 C 520.698 -4.95416 1.38086 0
M  V30 5606 N 518.68 -5.73933 2.17885 0
M  V30 5607 C 520.051 -5.72537 2.3791 0
M  V30 5608 C 522.106 -4.77559 1.40861 0
M  V30 5609 C 520.809 -6.33702 3.40314 0
M  V30 5610 C 522.835 -5.39559 2.42136 0
M  V30 5611 C 522.197 -6.16532 3.40688 0
M  V30 5612 H 518.296 -0.779425 -0.0634072 0
M  V30 5613 H 520.88 -1.8922 0.458697 0
M  V30 5614 H 519.051 -3.63888 -1.35795 0
M  V30 5615 H 520.783 -3.85388 -1.23524 0
M  V30 5616 H 517.538 -4.69796 0.599046 0
M  V30 5617 H 517.962 -6.18209 2.75947 0
M  V30 5618 H 522.604 -4.17611 0.660352 0
M  V30 5619 H 520.322 -6.9277 4.16047 0
M  V30 5620 H 523.908 -5.27659 2.45086 0
M  V30 5621 H 522.788 -6.63655 4.1777 0
M  V30 5622 N 520.291 -0.0518155 -1.57515 0
M  V30 5623 C 521.224 0.957758 -2.07129 0
M  V30 5624 C 522.202 1.30355 -0.971927 0
M  V30 5625 O 523.386 1.41631 -1.2439 0
M  V30 5626 C 520.513 2.27157 -2.51232 0
M  V30 5627 C 519.559 2.07879 -3.72409 0
M  V30 5628 S 520.392 1.35656 -5.18033 0
M  V30 5629 C 521.548 2.68359 -5.65451 0
M  V30 5630 H 521.781 0.53552 -2.92437 0
M  V30 5631 H 519.314 0.160465 -1.53564 0
M  V30 5632 H 521.272 3.02676 -2.77304 0
M  V30 5633 H 519.933 2.66509 -1.66228 0
M  V30 5634 H 519.126 3.05061 -4.01191 0
M  V30 5635 H 518.728 1.40499 -3.46606 0
M  V30 5636 H 521.02 3.64526 -5.71076 0
M  V30 5637 H 521.963 2.44213 -6.64654 0
M  V30 5638 H 522.371 2.74647 -4.93183 0
M  V30 5639 N 521.769 1.56035 0.221574 0
M  V30 5640 C 522.994 1.83476 0.967026 0
M  V30 5641 C 523.419 0.632139 1.7716 0
M  V30 5642 O 522.777 -0.419082 1.7639 0
M  V30 5643 C 522.825 3.08907 1.86034 0
M  V30 5644 O 521.929 2.876 2.95567 0
M  V30 5645 H 521.27 0.604913 0.273817 0
M  V30 5646 H 523.8 2.03247 0.234893 0
M  V30 5647 H 523.81 3.3901 2.27016 0
M  V30 5648 H 522.485 3.96068 1.26898 0
M  V30 5649 H 521.062 2.6873 2.58532 0
M  V30 5650 N 523.247 -0.488276 1.49845 0
M  V30 5651 C 524.472 -1.26997 1.63971 0
M  V30 5652 C 524.897 -1.85427 0.315994 0
M  V30 5653 O 524.255 -1.66475 -0.718032 0
M  V30 5654 C 524.303 -2.36689 2.72049 0
M  V30 5655 O 523.407 -3.40882 2.32107 0
M  V30 5656 H 522.748 -0.374376 0.548396 0
M  V30 5657 H 525.278 -0.583104 1.96115 0
M  V30 5658 H 525.288 -2.82262 2.94605 0
M  V30 5659 H 523.963 -1.93529 3.68129 0
M  V30 5660 H 522.54 -3.01139 2.19931 0
M  V30 5661 N 524.725 -1.39134 -0.740242 0
M  V30 5662 C 525.672 -1.37434 -1.8542 0
M  V30 5663 C 526.642 -0.234822 -1.64432 0
M  V30 5664 O 527.827 -0.429125 -1.85912 0
M  V30 5665 C 524.967 -1.21844 -3.22875 0
M  V30 5666 C 524.08 -2.45296 -3.55603 0
M  V30 5667 C 523.215 -2.22334 -4.82432 0
M  V30 5668 C 522.254 -3.41488 -5.07988 0
M  V30 5669 N 521.391 -3.17877 -6.26018 0
M  V30 5670 H 526.231 -2.3266 -1.86207 0
M  V30 5671 H 523.768 -1.15578 -0.909946 0
M  V30 5672 H 525.726 -1.10818 -4.02213 0
M  V30 5673 H 524.356 -0.3025 -3.21379 0
M  V30 5674 H 523.408 -2.66945 -2.71006 0
M  V30 5675 H 524.72 -3.34063 -3.7041 0
M  V30 5676 H 523.874 -2.0852 -5.69741 0
M  V30 5677 H 522.613 -1.30954 -4.6979 0
M  V30 5678 H 521.618 -3.55807 -4.19144 0
M  V30 5679 H 522.843 -4.33763 -5.22519 0
M  V30 5680 H 520.789 -2.29156 -6.14673 0
M  V30 5681 H 520.706 -4.00198 -6.41387 0
M  V30 5682 H 521.974 -3.07746 -7.16179 0
M  V30 5683 N 526.204 0.969867 -1.24223 0
M  V30 5684 C 527.45 1.71582 -1.09231 0
M  V30 5685 C 527.805 1.88898 0.365432 0
M  V30 5686 O 527.098 1.43781 1.2664 0
M  V30 5687 C 527.292 3.10883 -1.76314 0
M  V30 5688 C 527.121 3.07155 -3.2846 0
M  V30 5689 C 525.891 3.11757 -3.97663 0
M  V30 5690 C 528.089 2.895 -4.25082 0
M  V30 5691 N 526.071 2.98025 -5.36707 0
M  V30 5692 C 527.442 2.84041 -5.51109 0
M  V30 5693 C 529.497 2.74064 -4.15684 0
M  V30 5694 C 528.2 2.64725 -6.68815 0
M  V30 5695 C 530.226 2.56115 -5.33066 0
M  V30 5696 C 529.588 2.51363 -6.58024 0
M  V30 5697 H 525.687 0.636496 -0.454309 0
M  V30 5698 H 528.271 1.15004 -1.57106 0
M  V30 5699 H 526.442 3.65657 -1.30955 0
M  V30 5700 H 528.174 3.74171 -1.54201 0
M  V30 5701 H 524.929 3.20352 -3.48814 0
M  V30 5702 H 525.353 2.94405 -6.09635 0
M  V30 5703 H 529.995 2.76521 -3.19837 0
M  V30 5704 H 527.713 2.61011 -7.64787 0
M  V30 5705 H 531.299 2.45119 -5.27644 0
M  V30 5706 H 530.179 2.37651 -7.47323 0
M  V30 5707 N 527.682 1.05563 1.17022 0
M  V30 5708 C 528.612 0.681026 2.23348 0
M  V30 5709 C 529.593 -0.322983 1.67005 0
M  V30 5710 O 530.778 -0.199746 1.9317 0
M  V30 5711 C 527.908 0.0589053 3.4725 0
M  V30 5712 C 526.862 0.988082 4.16438 0
M  V30 5713 C 526.188 0.229646 5.34207 0
M  V30 5714 C 527.488 2.31388 4.68249 0
M  V30 5715 H 529.182 1.56993 2.54938 0
M  V30 5716 H 526.728 0.756302 1.2254 0
M  V30 5717 H 528.681 -0.214982 4.20851 0
M  V30 5718 H 527.405 -0.864968 3.14938 0
M  V30 5719 H 526.064 1.24659 3.44754 0
M  V30 5720 H 525.712 -0.697111 4.98146 0
M  V30 5721 H 525.412 0.848815 5.81437 0
M  V30 5722 H 526.936 -0.0368694 6.10589 0
M  V30 5723 H 528.35 2.09964 5.33468 0
M  V30 5724 H 526.747 2.88736 5.26072 0
M  V30 5725 H 527.817 2.94982 3.84855 0
M  V30 5726 N 529.16 -1.33526 0.837174 0
M  V30 5727 C 530.385 -2.0258 0.444545 0
M  V30 5728 C 530.81 -1.6258 -0.946006 0
M  V30 5729 O 530.168 -0.817548 -1.6182 0
M  V30 5730 C 530.216 -3.5605 0.571006 0
M  V30 5731 O 529.32 -4.10422 -0.403431 0
M  V30 5732 H 528.661 -0.638866 0.180958 0
M  V30 5733 H 531.191 -1.70462 1.13154 0
M  V30 5734 H 531.201 -4.05488 0.452024 0
M  V30 5735 H 529.876 -3.84509 1.58512 0
M  V30 5736 H 528.453 -3.72113 -0.242147 0
M  V30 5737 N 530.638 -0.59345 -1.46 0
M  V30 5738 C 531.571 0.182196 -2.27472 0
M  V30 5739 C 532.549 0.886901 -1.36282 0
M  V30 5740 O 533.733 0.898627 -1.65701 0
M  V30 5741 C 530.86 1.26236 -3.14296 0
M  V30 5742 C 529.906 0.662331 -4.21326 0
M  V30 5743 S 530.739 -0.519017 -5.32979 0
M  V30 5744 C 531.895 0.562086 -6.23371 0
M  V30 5745 H 532.128 -0.509056 -2.92909 0
M  V30 5746 H 529.661 -0.380607 -1.49635 0
M  V30 5747 H 531.619 1.88075 -3.64881 0
M  V30 5748 H 530.28 1.92562 -2.48151 0
M  V30 5749 H 529.473 1.47461 -4.81945 0
M  V30 5750 H 529.075 0.119381 -3.73809 0
M  V30 5751 H 531.367 1.44494 -6.61912 0
M  V30 5752 H 532.31 -0.00760776 -7.081 0
M  V30 5753 H 532.718 0.871061 -5.57739 0
M  V30 5754 N 532.116 1.54067 -0.331816 0
M  V30 5755 C 533.064 2.26105 0.54582 0
M  V30 5756 C 534.058 1.27816 1.11173 0
M  V30 5757 O 535.264 1.45565 1.05882 0
M  V30 5758 H 531.639 0.726363 0.194683 0
M  V30 5759 H 533.61 2.98282 -0.083931 0
M  V30 5760 C 532.359 3.03814 1.69092 0
M  V30 5761 H 531.682 3.79269 1.26473 0
M  V30 5762 H 533.122 3.57453 2.28043 0
M  V30 5763 C 531.581 2.12606 2.61343 0
M  V30 5764 O 532.111 1.71437 3.6328 0
M  V30 5765 N 530.317 1.77925 2.29763 0
M  V30 5766 H 529.864 2.11602 1.46909 0
M  V30 5767 H 529.822 1.1718 2.91747 0
M  V30 5768 N 533.594 0.0601682 1.57485 0
M  V30 5769 C 534.84 -0.612501 1.93329 0
M  V30 5770 C 535.173 -1.6996 0.939526 0
M  V30 5771 O 534.448 -1.94472 -0.0330957 0
M  V30 5772 C 534.731 -1.20025 3.39508 0
M  V30 5773 C 534.584 -0.12059 4.49638 0
M  V30 5774 C 535.903 -2.10923 3.86264 0
M  V30 5775 H 533.022 -0.221185 0.703027 0
M  V30 5776 H 535.664 0.123768 1.89596 0
M  V30 5777 H 533.814 -1.82774 3.42821 0
M  V30 5778 H 535.486 0.51185 4.58452 0
M  V30 5779 H 533.729 0.550251 4.30296 0
M  V30 5780 H 534.4 -0.572019 5.49028 0
M  V30 5781 H 536.876 -1.58124 3.84884 0
M  V30 5782 H 535.752 -2.48987 4.8918 0
M  V30 5783 H 536.013 -3.01292 3.23536 0
M  V30 5784 N 535.072 -1.5615 -0.213296 0
M  V30 5785 C 536.002 -1.96109 -1.26742 0
M  V30 5786 C 536.983 -0.830448 -1.48451 0
M  V30 5787 O 538.168 -1.09339 -1.60495 0
M  V30 5788 C 535.298 -2.28492 -2.61551 0
M  V30 5789 C 534.252 -3.44124 -2.54485 0
M  V30 5790 C 533.578 -3.62134 -3.93399 0
M  V30 5791 C 534.878 -4.78855 -2.08556 0
M  V30 5792 H 536.572 -2.84412 -0.935434 0
M  V30 5793 H 534.118 -1.36836 -0.44854 0
M  V30 5794 H 536.071 -2.55039 -3.3546 0
M  V30 5795 H 534.795 -1.37052 -2.96453 0
M  V30 5796 H 533.454 -3.17639 -1.83033 0
M  V30 5797 H 533.102 -2.68055 -4.25623 0
M  V30 5798 H 532.802 -4.39913 -3.89551 0
M  V30 5799 H 534.326 -3.91038 -4.68958 0
M  V30 5800 H 535.74 -5.04552 -2.72213 0
M  V30 5801 H 534.137 -5.59975 -2.1575 0
M  V30 5802 H 535.207 -4.73657 -1.03811 0
M  V30 5803 N 536.55 0.480323 -1.50102 0
M  V30 5804 C 537.483 1.59789 -1.62919 0
M  V30 5805 C 538.461 1.55429 -0.477557 0
M  V30 5806 O 539.645 1.75186 -0.695851 0
M  V30 5807 C 536.772 2.98351 -1.60325 0
M  V30 5808 C 535.818 3.20899 -2.80938 0
M  V30 5809 S 536.651 3.01791 -4.4236 0
M  V30 5810 C 537.807 4.42712 -4.42444 0
M  V30 5811 H 538.04 1.48676 -2.57454 0
M  V30 5812 H 535.573 0.666996 -1.3925 0
M  V30 5813 H 537.531 3.7824 -1.59514 0
M  V30 5814 H 536.192 3.06862 -0.670419 0
M  V30 5815 H 535.385 4.22102 -2.75401 0
M  V30 5816 H 534.987 2.48768 -2.79268 0
M  V30 5817 H 537.279 5.3518 -4.15438 0
M  V30 5818 H 538.222 4.53294 -5.43995 0
M  V30 5819 H 538.63 4.24359 -3.72263 0
M  V30 5820 N 538.028 1.39524 0.732853 0
M  V30 5821 C 538.958 1.41153 1.86005 0
M  V30 5822 C 539.939 0.274614 1.67869 0
M  V30 5823 O 541.124 0.480745 1.88155 0
M  V30 5824 C 538.254 1.25638 3.23778 0
M  V30 5825 C 537.208 2.36752 3.56556 0
M  V30 5826 C 536.534 2.06326 4.93289 0
M  V30 5827 C 537.834 3.79069 3.5931 0
M  V30 5828 H 539.528 2.35484 1.84899 0
M  V30 5829 H 537.074 1.13348 0.888162 0
M  V30 5830 H 539.027 1.25398 4.0231 0
M  V30 5831 H 537.751 0.277772 3.25417 0
M  V30 5832 H 536.41 2.36213 2.80355 0
M  V30 5833 H 536.058 1.06897 4.9151 0
M  V30 5834 H 535.758 2.80757 5.16187 0
M  V30 5835 H 537.282 2.07739 5.74175 0
M  V30 5836 H 538.696 3.81526 4.27914 0
M  V30 5837 H 537.093 4.52878 3.93728 0
M  V30 5838 H 538.163 4.09893 2.59068 0
M  V30 5839 N 539.506 -0.963266 1.24736 0
M  V30 5840 C 540.783 -1.68248 0.9976 0
M  V30 5841 C 541.163 -2.05599 -0.478776 0
M  V30 5842 O 540.511 -1.7626 -1.45412 0
M  V30 5843 C 540.721 -2.91118 1.92487 0
M  V30 5844 C 542.069 -3.63261 2.19833 0
M  V30 5845 O 543.093 -3.01184 1.90176 0
M  V30 5846 O 541.952 -4.75019 2.7022 0
M  V30 5847 H 539.046 -0.735744 0.377637 0
M  V30 5848 H 541.592 -1.01696 1.35853 0
M  V30 5849 H 540.364 -2.60242 2.92215 0
M  V30 5850 H 539.987 -3.65402 1.56738 0
M  V30 5851 N 540.985 -1.06182 -1.16461 0
M  V30 5852 C 541.895 -0.682671 -2.24448 0
M  V30 5853 C 542.911 0.30078 -1.71381 0
M  V30 5854 O 544.087 0.150376 -2.00838 0
M  V30 5855 C 541.152 -0.0737202 -3.46622 0
M  V30 5856 C 540.213 -1.10889 -4.14731 0
M  V30 5857 C 539.446 -0.528908 -5.31073 0
M  V30 5858 O 539.669 0.65868 -5.66584 0
M  V30 5859 O 538.603 -1.26805 -5.88391 0
M  V30 5860 H 542.429 -1.58291 -2.59187 0
M  V30 5861 H 540.014 -0.834013 -1.23954 0
M  V30 5862 H 541.896 0.264192 -4.20571 0
M  V30 5863 H 540.571 0.800015 -3.13658 0
M  V30 5864 H 539.478 -1.49896 -3.42756 0
M  V30 5865 H 540.811 -1.95412 -4.51747 0
M  V30 5866 N 542.463 1.3308 -0.844243 0
M  V30 5867 C 543.41 2.29104 -0.279323 0
M  V30 5868 C 544.38 1.54577 0.607882 0
M  V30 5869 O 545.565 1.8285 0.545009 0
M  V30 5870 C 542.705 3.40927 0.53508 0
M  V30 5871 C 541.818 4.30354 -0.376749 0
M  V30 5872 C 540.953 5.29297 0.449276 0
M  V30 5873 C 539.992 6.10365 -0.460606 0
M  V30 5874 N 539.129 7.01335 0.327612 0
M  V30 5875 H 543.969 2.76817 -1.10346 0
M  V30 5876 H 541.506 1.36203 -0.555611 0
M  V30 5877 H 543.464 4.04469 1.02278 0
M  V30 5878 H 542.094 2.94391 1.32414 0
M  V30 5879 H 541.146 3.67485 -0.982791 0
M  V30 5880 H 542.458 4.87067 -1.07549 0
M  V30 5881 H 541.612 5.98392 1.00058 0
M  V30 5882 H 540.351 4.73174 1.18143 0
M  V30 5883 H 539.356 5.40182 -1.02388 0
M  V30 5884 H 540.581 6.68571 -1.1912 0
M  V30 5885 H 538.527 6.47655 1.04305 0
M  V30 5886 H 538.444 7.55355 -0.3123 0
M  V30 5887 H 539.712 7.74731 0.86098 0
M  V30 5888 N 543.941 0.601185 1.45683 0
M  V30 5889 C 545.357 0.264315 1.57396 0
M  V30 5890 C 545.557 -1.23324 1.59353 0
M  V30 5891 O 544.613 -2.01594 1.52039 0
M  V30 5892 C 545.926 0.929839 2.85962 0
M  V30 5893 C 547.474 0.905156 2.99626 0
M  V30 5894 C 547.949 1.55057 4.30954 0
M  V30 5895 N 549.44 1.51576 4.37697 0
M  V30 5896 C 550.175 1.98436 5.37969 0
M  V30 5897 N 549.671 2.53352 6.44813 0
M  V30 5898 N 551.464 1.89242 5.29286 0
M  V30 5899 H 543.615 1.57363 1.42656 0
M  V30 5900 H 545.878 0.658831 0.681649 0
M  V30 5901 H 545.584 1.98404 2.90394 0
M  V30 5902 H 545.458 0.449224 3.74515 0
M  V30 5903 H 547.845 -0.14048 2.94765 0
M  V30 5904 H 547.926 1.42397 2.12501 0
M  V30 5905 H 547.57 2.5955 4.36573 0
M  V30 5906 H 547.5 1.00682 5.16886 0
M  V30 5907 H 549.991 1.11452 3.61091 0
M  V30 5908 H 550.304 2.86918 7.17564 0
M  V30 5909 H 548.649 2.57388 6.45582 0
M  V30 5910 H 551.84 1.46083 4.44722 0
M  V30 5911 H 552.013 2.26075 6.07284 0
M  V30 5912 N 545.419 -1.53889 0.339982 0
M  V30 5913 C 546.665 -2.01152 -0.258003 0
M  V30 5914 C 546.998 -1.22749 -1.50487 0
M  V30 5915 O 546.273 -0.314156 -1.91946 0
M  V30 5916 C 546.556 -3.55468 -0.575717 0
M  V30 5917 C 546.409 -4.44584 0.682996 0
M  V30 5918 C 547.728 -4.1768 -1.38677 0
M  V30 5919 H 544.847 -0.731198 -0.0922992 0
M  V30 5920 H 547.489 -1.84352 0.459814 0
M  V30 5921 H 545.639 -3.69914 -1.18725 0
M  V30 5922 H 547.311 -4.41981 1.32102 0
M  V30 5923 H 545.554 -4.13592 1.3086 0
M  V30 5924 H 546.225 -5.5043 0.416001 0
M  V30 5925 H 548.701 -4.0691 -0.869705 0
M  V30 5926 H 547.577 -5.25734 -1.57783 0
M  V30 5927 H 547.838 -3.72069 -2.38782 0
M  V30 5928 N 546.897 -0.0685191 -1.57451 0
M  V30 5929 C 547.83 0.935736 -2.08133 0
M  V30 5930 C 548.808 1.29317 -0.985698 0
M  V30 5931 O 549.992 1.40304 -1.25886 0
M  V30 5932 C 547.119 2.2448 -2.53627 0
M  V30 5933 C 546.165 2.03917 -3.74593 0
M  V30 5934 S 546.998 1.30154 -5.19442 0
M  V30 5935 C 548.154 2.62346 -5.68265 0
M  V30 5936 H 548.387 0.504473 -2.92989 0
M  V30 5937 H 545.92 0.144169 -1.53725 0
M  V30 5938 H 547.878 2.99718 -2.80499 0
M  V30 5939 H 546.539 2.64731 -1.69045 0
M  V30 5940 H 545.732 3.00788 -4.04404 0
M  V30 5941 H 545.334 1.36815 -3.48077 0
M  V30 5942 H 547.626 3.58448 -5.7491 0
M  V30 5943 H 548.569 2.3715 -6.67207 0
M  V30 5944 H 548.977 2.69401 -4.96068 0
M  V30 5945 N 548.375 1.56261 0.205012 0
M  V30 5946 C 549.621 1.80306 0.9283 0
M  V30 5947 C 549.954 0.640932 1.83319 0
M  V30 5948 O 549.229 -0.359032 1.91158 0
M  V30 5949 C 549.512 3.14547 1.75306 0
M  V30 5950 C 549.365 4.41236 0.873562 0
M  V30 5951 C 550.684 3.45382 2.72762 0
M  V30 5952 H 547.803 0.655929 0.336044 0
M  V30 5953 H 550.445 1.88984 0.196211 0
M  V30 5954 H 548.595 3.0728 2.37721 0
M  V30 5955 H 550.267 4.60539 0.264887 0
M  V30 5956 H 548.51 4.33427 0.179773 0
M  V30 5957 H 549.181 5.31639 1.48541 0
M  V30 5958 H 551.657 3.52884 2.20481 0
M  V30 5959 H 550.533 4.40449 3.2756 0
M  V30 5960 H 550.794 2.68377 3.51321 0
M  V30 5961 N 549.853 -0.472356 1.50355 0
M  V30 5962 C 551.13 -1.23356 1.51798 0
M  V30 5963 C 551.51 -2.09469 0.26193 0
M  V30 5964 O 550.858 -2.15677 -0.754691 0
M  V30 5965 C 551.068 -2.06568 2.81302 0
M  V30 5966 C 552.416 -2.648 3.31913 0
M  V30 5967 O 553.44 -2.16812 2.82614 0
M  V30 5968 O 552.299 -3.52231 4.17846 0
M  V30 5969 H 549.393 -0.559707 0.608816 0
M  V30 5970 H 551.939 -0.48428 1.62643 0
M  V30 5971 H 550.711 -1.43103 3.64194 0
M  V30 5972 H 550.334 -2.88633 2.73454 0
M  V30 5973 N 551.331 -1.39911 -0.725443 0
M  V30 5974 C 552.294 -1.39156 -1.82121 0
M  V30 5975 C 553.294 -0.287018 -1.58218 0
M  V30 5976 O 554.484 -0.545421 -1.65441 0
M  V30 5977 C 551.616 -1.1736 -3.20062 0
M  V30 5978 H 552.809 -2.36672 -1.84191 0
M  V30 5979 H 550.362 -1.25615 -0.930079 0
M  V30 5980 H 551.097 -0.205648 -3.23647 0
M  V30 5981 H 550.882 -1.97358 -3.3881 0
M  V30 5982 H 552.372 -1.19596 -4.00108 0
M  V30 5983 N 552.809 0.956637 -1.25245 0
M  V30 5984 C 553.757 2.0743 -1.0524 0
M  V30 5985 C 554.751 1.69392 0.0160725 0
M  V30 5986 O 555.957 1.7946 -0.139382 0
M  V30 5987 H 552.332 0.678921 -0.323373 0
M  V30 5988 H 554.303 2.2146 -1.99995 0
M  V30 5989 C 553.052 3.40872 -0.685702 0
M  V30 5990 H 552.375 3.70607 -1.49968 0
M  V30 5991 H 553.815 4.19939 -0.585415 0
M  V30 5992 C 552.274 3.31367 0.608082 0
M  V30 5993 O 552.804 3.66214 1.65076 0
M  V30 5994 N 551.01 2.84486 0.592955 0
M  V30 5995 H 550.557 2.56326 -0.25592 0
M  V30 5996 H 550.515 2.78509 1.45877 0
M  V30 5997 N 554.287 1.06798 1.15896 0
M  V30 5998 C 555.197 0.694564 2.24083 0
M  V30 5999 C 556.213 -0.291687 1.71538 0
M  V30 6000 O 557.389 -0.139723 2.00915 0
M  V30 6001 C 554.454 0.0921014 3.46578 0
M  V30 6002 C 553.515 1.13087 4.14137 0
M  V30 6003 C 552.748 0.557064 5.30785 0
M  V30 6004 O 552.971 -0.628623 5.66925 0
M  V30 6005 O 551.905 1.29924 5.8771 0
M  V30 6006 H 555.731 1.59663 2.58344 0
M  V30 6007 H 553.316 0.840575 1.2351 0
M  V30 6008 H 555.198 -0.241884 4.20705 0
M  V30 6009 H 553.873 -0.78337 3.14078 0
M  V30 6010 H 552.78 1.51712 3.41957 0
M  V30 6011 H 554.113 1.97805 4.50704 0
M  V30 6012 N 555.766 -1.3263 0.851289 0
M  V30 6013 C 557.012 -1.9766 0.453694 0
M  V30 6014 C 557.345 -1.67225 -0.987396 0
M  V30 6015 O 556.62 -0.958693 -1.69232 0
M  V30 6016 C 556.903 -3.5344 0.68936 0
M  V30 6017 C 556.756 -3.93517 2.17862 0
M  V30 6018 C 558.075 -4.39866 0.143555 0
M  V30 6019 H 555.194 -0.717989 0.166314 0
M  V30 6020 H 557.836 -1.57068 1.06909 0
M  V30 6021 H 555.986 -3.88147 0.165546 0
M  V30 6022 H 557.658 -3.69006 2.76826 0
M  V30 6023 H 555.901 -3.42798 2.65841 0
M  V30 6024 H 556.572 -5.02065 2.29422 0
M  V30 6025 H 559.048 -4.11875 0.591451 0
M  V30 6026 H 557.924 -5.47858 0.338043 0
M  V30 6027 H 558.185 -4.31696 -0.953466 0
M  V30 6028 N 557.244 -0.608902 -1.45362 0
M  V30 6029 C 558.655 -0.189511 -1.85736 0
M  V30 6030 C 559.006 1.2539 -1.50903 0
M  V30 6031 O 558.131 1.95094 -0.936347 0
M  V30 6032 C 558.726 -0.33716 -3.37118 0
M  V30 6033 C 557.285 0.0275487 -3.7639 0
M  V30 6034 C 556.432 -0.660983 -2.69307 0
M  V30 6035 H 559.383 -0.815499 -1.36144 0
M  V30 6036 H 559.404 0.430257 -3.7806 0
M  V30 6037 H 558.916 -1.38779 -3.62439 0
M  V30 6038 H 557.017 1.0773 -3.56686 0
M  V30 6039 H 557.13 -0.367018 -4.77692 0
M  V30 6040 H 555.494 -0.0984958 -2.54509 0
M  V30 6041 H 556.277 -1.71377 -2.97464 0
M  V30 6042 N 558.722 1.53707 -0.348139 0
M  V30 6043 C 559.971 2.0017 0.247992 0
M  V30 6044 C 560.284 1.23983 1.51286 0
M  V30 6045 O 561.49 1.60946 2.18652 0
M  V30 6046 C 559.946 3.56515 0.492459 0
M  V30 6047 C 559.554 4.41562 -0.756777 0
M  V30 6048 C 561.298 4.11381 1.0472 0
M  V30 6049 C 559.205 5.89426 -0.482856 0
M  V30 6050 H 558.135 0.747806 0.0964452 0
M  V30 6051 H 560.786 1.77532 -0.464179 0
M  V30 6052 H 559.168 3.75236 1.26545 0
M  V30 6053 H 560.342 4.34615 -1.53122 0
M  V30 6054 H 558.657 3.97711 -1.23348 0
M  V30 6055 H 561.254 5.19468 1.26717 0
M  V30 6056 H 561.597 3.64885 2.00411 0
M  V30 6057 H 562.13 3.96389 0.334801 0
M  V30 6058 H 558.869 6.40164 -1.40962 0
M  V30 6059 H 558.389 5.99264 0.253416 0
M  V30 6060 H 560.068 6.4692 -0.101816 0
M  V30 6061 N 560.2 0.0768682 1.57412 0
M  V30 6062 C 561.132 -0.918248 2.10002 0
M  V30 6063 C 562.145 -1.25808 1.03325 0
M  V30 6064 O 563.334 -1.21438 1.30824 0
M  V30 6065 C 560.434 -2.23263 2.54964 0
M  V30 6066 C 559.607 -2.07088 3.8527 0
M  V30 6067 C 558.666 -3.21876 4.16272 0
M  V30 6068 O 557.692 -2.96643 4.8579 0
M  V30 6069 N 558.894 -4.4712 3.70221 0
M  V30 6070 H 561.659 -0.469209 2.96004 0
M  V30 6071 H 559.22 -0.108725 1.61535 0
M  V30 6072 H 561.212 -2.9897 2.72762 0
M  V30 6073 H 559.782 -2.59649 1.74072 0
M  V30 6074 H 559.002 -1.15818 3.76802 0
M  V30 6075 H 560.29 -1.93537 4.70554 0
M  V30 6076 H 559.688 -4.70506 3.1407 0
M  V30 6077 H 558.245 -5.19837 3.93209 0
M  V30 6078 N 561.678 -1.56367 -0.196722 0
M  V30 6079 C 562.625 -1.94417 -1.24382 0
M  V30 6080 C 563.595 -0.804543 -1.45315 0
M  V30 6081 O 564.78 -1.06256 -1.58475 0
M  V30 6082 C 561.92 -2.28757 -2.58388 0
M  V30 6083 C 561.033 -3.55775 -2.45047 0
M  V30 6084 C 560.168 -3.79445 -3.71746 0
M  V30 6085 C 559.207 -4.99894 -3.53231 0
M  V30 6086 N 558.344 -5.19826 -4.71938 0
M  V30 6087 H 563.184 -2.83691 -0.912338 0
M  V30 6088 H 560.721 -1.40392 -0.439135 0
M  V30 6089 H 562.679 -2.46682 -3.36457 0
M  V30 6090 H 561.309 -1.42625 -2.89582 0
M  V30 6091 H 560.361 -3.45905 -1.58284 0
M  V30 6092 H 561.673 -4.44 -2.27299 0
M  V30 6093 H 560.827 -3.97601 -4.58256 0
M  V30 6094 H 559.566 -2.89546 -3.92446 0
M  V30 6095 H 558.571 -4.81662 -2.65107 0
M  V30 6096 H 559.796 -5.913 -3.33978 0
M  V30 6097 H 557.742 -4.32875 -4.92905 0
M  V30 6098 H 557.659 -6.02228 -4.57009 0
M  V30 6099 H 558.927 -5.42439 -5.59803 0
M  V30 6100 N 563.156 0.464375 -1.50603 0
M  V30 6101 C 564.089 1.58052 -1.64605 0
M  V30 6102 C 565.067 1.54914 -0.494016 0
M  V30 6103 O 566.251 1.74438 -0.714393 0
M  V30 6104 C 563.378 2.96634 -1.63481 0
M  V30 6105 C 562.424 3.17901 -2.84325 0
M  V30 6106 S 563.257 2.97083 -4.45536 0
M  V30 6107 C 564.413 4.37994 -4.47115 0
M  V30 6108 H 564.646 1.45937 -2.59017 0
M  V30 6109 H 562.179 0.652189 -1.39949 0
M  V30 6110 H 564.137 3.76527 -1.63517 0
M  V30 6111 H 562.798 3.06134 -0.702928 0
M  V30 6112 H 561.991 4.19158 -2.79862 0
M  V30 6113 H 561.593 2.45792 -2.81891 0
M  V30 6114 H 563.885 5.30743 -4.21091 0
M  V30 6115 H 564.828 4.47499 -5.48772 0
M  V30 6116 H 565.236 4.20386 -3.76743 0
M  V30 6117 N 564.634 1.40294 0.718013 0
M  V30 6118 C 565.881 1.3844 1.47786 0
M  V30 6119 C 566.209 -0.0140838 1.94495 0
M  V30 6120 O 565.464 -0.998165 1.68331 0
M  V30 6121 C 565.763 2.31814 2.72024 0
M  V30 6122 C 565.429 3.79117 2.44093 0
M  V30 6123 C 564.091 4.19249 2.36185 0
M  V30 6124 C 566.443 4.72212 2.20602 0
M  V30 6125 C 563.771 5.50516 2.02851 0
M  V30 6126 C 566.123 6.03775 1.88781 0
M  V30 6127 C 564.787 6.42953 1.79354 0
M  V30 6128 H 564.057 0.506588 0.540786 0
M  V30 6129 H 566.704 1.72929 0.822663 0
M  V30 6130 H 565.009 1.90501 3.42369 0
M  V30 6131 H 566.706 2.27664 3.30106 0
M  V30 6132 H 563.296 3.47318 2.51133 0
M  V30 6133 H 567.48 4.42026 2.25669 0
M  V30 6134 H 562.736 5.79776 1.94088 0
M  V30 6135 H 566.91 6.75428 1.69617 0
M  V30 6136 H 564.537 7.44584 1.53291 0
M  V30 6137 N 566.112 -0.949982 1.2575 0
M  V30 6138 C 567.022 -2.08109 1.08295 0
M  V30 6139 C 568.038 -1.7399 0.0188181 0
M  V30 6140 O 569.214 -2.00187 0.220724 0
M  V30 6141 C 566.279 -3.39383 0.708534 0
M  V30 6142 C 565.34 -3.8734 1.85111 0
M  V30 6143 C 564.573 -5.12349 1.49447 0
M  V30 6144 O 564.796 -5.6905 0.392212 0
M  V30 6145 O 563.73 -5.5513 2.32624 0
M  V30 6146 H 567.556 -2.25738 2.03165 0
M  V30 6147 H 565.141 -1.06545 1.04731 0
M  V30 6148 H 567.023 -4.18277 0.512061 0
M  V30 6149 H 565.698 -3.23013 -0.210854 0
M  V30 6150 H 564.605 -3.09429 2.10248 0
M  V30 6151 H 565.938 -4.08216 2.74991 0
M  V30 6152 N 567.59 -1.07411 -1.15328 0
M  V30 6153 C 568.537 -0.694995 -2.20087 0
M  V30 6154 C 569.507 0.313904 -1.63107 0
M  V30 6155 O 570.692 0.200216 -1.89747 0
M  V30 6156 C 567.832 -0.0996218 -3.44956 0
M  V30 6157 C 566.945 -1.16007 -4.16133 0
M  V30 6158 C 566.08 -0.529636 -5.28553 0
M  V30 6159 C 565.119 -1.57283 -5.91548 0
M  V30 6160 N 564.256 -0.964932 -6.95438 0
M  V30 6161 H 569.096 -1.5927 -2.51867 0
M  V30 6162 H 566.633 -0.796115 -1.23695 0
M  V30 6163 H 568.591 0.263197 -4.16369 0
M  V30 6164 H 567.221 0.761435 -3.13691 0
M  V30 6165 H 566.273 -1.64045 -3.4321 0
M  V30 6166 H 567.585 -1.95101 -4.59061 0
M  V30 6167 H 566.739 -0.114487 -6.06592 0
M  V30 6168 H 565.478 0.29307 -4.86819 0
M  V30 6169 H 564.483 -1.99775 -5.12221 0
M  V30 6170 H 565.708 -2.39783 -6.35359 0
M  V30 6171 H 563.654 -0.16314 -6.55797 0
M  V30 6172 H 563.571 -1.69311 -7.36797 0
M  V30 6173 H 564.839 -0.575305 -7.77374 0
M  V30 6174 N 569.068 1.32177 -0.85831 0
M  V30 6175 C 569.998 2.31282 -0.321041 0
M  V30 6176 C 570.979 1.59841 0.581786 0
M  V30 6177 O 572.164 1.87619 0.501262 0
M  V30 6178 C 569.294 3.4385 0.48832 0
M  V30 6179 C 568.248 4.26799 -0.320391 0
M  V30 6180 C 567.574 5.31164 0.613934 0
M  V30 6181 C 568.874 4.98829 -1.54813 0
M  V30 6182 H 570.568 2.76469 -1.14915 0
M  V30 6183 H 568.114 1.32916 -0.554028 0
M  V30 6184 H 570.067 4.12224 0.874626 0
M  V30 6185 H 568.791 2.97401 1.34983 0
M  V30 6186 H 567.45 3.60077 -0.688497 0
M  V30 6187 H 567.098 4.80967 1.47239 0
M  V30 6188 H 566.798 5.8755 0.0768097 0
M  V30 6189 H 568.322 6.024 0.997336 0
M  V30 6190 H 569.736 5.59864 -1.23392 0
M  V30 6191 H 568.133 5.64957 -2.02346 0
M  V30 6192 H 569.203 4.26483 -2.30739 0
M  V30 6193 N 570.547 0.616602 1.45037 0
M  V30 6194 C 571.795 0.115103 2.01772 0
M  V30 6195 C 572.116 -1.2622 1.48639 0
M  V30 6196 O 571.386 -1.83563 0.684199 0
M  V30 6197 H 569.966 0.0395607 0.745952 0
M  V30 6198 H 572.628 0.800032 1.77723 0
M  V30 6199 H 571.724 0.0717274 3.12018 0
M  V30 6200 N 572.025 -1.5352 0.356285 0
M  V30 6201 C 573.274 -2.00298 -0.237373 0
M  V30 6202 C 573.587 -1.24784 -1.50627 0
M  V30 6203 O 574.793 -1.62103 -2.17795 0
M  V30 6204 C 573.249 -3.56771 -0.473545 0
M  V30 6205 C 572.857 -4.41154 0.780183 0
M  V30 6206 C 574.601 -4.1193 -1.02537 0
M  V30 6207 C 572.508 -5.89161 0.514108 0
M  V30 6208 H 571.438 -0.748307 -0.092478 0
M  V30 6209 H 574.089 -1.77283 0.473588 0
M  V30 6210 H 572.471 -3.75902 -1.24553 0
M  V30 6211 H 573.645 -4.33797 1.55425 0
M  V30 6212 H 571.96 -3.97052 1.25455 0
M  V30 6213 H 574.557 -5.20133 -1.2396 0
M  V30 6214 H 574.9 -3.65943 -1.98473 0
M  V30 6215 H 575.433 -3.96561 -0.313775 0
M  V30 6216 H 572.172 -6.39408 1.44355 0
M  V30 6217 H 571.692 -5.9939 -0.221632 0
M  V30 6218 H 573.371 -6.46857 0.136122 0
M  V30 6219 N 573.503 -0.0852151 -1.57369 0
M  V30 6220 C 574.731 0.58946 -1.98325 0
M  V30 6221 C 575.146 1.62333 -0.96403 0
M  V30 6222 O 574.503 1.82438 0.0476395 0
M  V30 6223 C 574.554 1.24604 -3.39347 0
M  V30 6224 O 574.275 0.253532 -4.37366 0
M  V30 6225 C 575.776 2.00726 -3.95252 0
M  V30 6226 H 572.996 0.158783 -0.651942 0
M  V30 6227 H 575.54 -0.161584 -2.03861 0
M  V30 6228 H 573.695 1.94808 -3.34856 0
M  V30 6229 H 574.109 0.726207 -5.19448 0
M  V30 6230 H 575.583 2.42039 -4.96106 0
M  V30 6231 H 576.06 2.86919 -3.32527 0
M  V30 6232 H 576.666 1.3536 -4.03185 0
M  V30 6233 N 574.981 1.5647 0.188427 0
M  V30 6234 C 576.209 1.85131 0.923803 0
M  V30 6235 C 576.624 0.668537 1.76567 0
M  V30 6236 O 575.981 -0.362662 1.7886 0
M  V30 6237 C 576.032 3.12661 1.81453 0
M  V30 6238 O 575.753 4.26378 1.00665 0
M  V30 6239 C 577.254 3.54548 2.66103 0
M  V30 6240 H 574.474 0.614624 0.269218 0
M  V30 6241 H 577.018 2.03581 0.193671 0
M  V30 6242 H 575.173 2.96088 2.49821 0
M  V30 6243 H 575.587 4.99041 1.61425 0
M  V30 6244 H 577.061 4.4673 3.24247 0
M  V30 6245 H 577.538 2.77853 3.40139 0
M  V30 6246 H 578.144 3.73674 2.03096 0
M  V30 6247 N 576.459 -0.456382 1.50847 0
M  V30 6248 C 577.708 -1.2042 1.61808 0
M  V30 6249 C 578.021 -1.9278 0.330932 0
M  V30 6250 O 579.227 -2.69612 0.319643 0
M  V30 6251 C 577.683 -2.18891 2.85683 0
M  V30 6252 C 577.291 -1.52267 4.2133 0
M  V30 6253 C 579.035 -2.94224 3.05994 0
M  V30 6254 C 576.942 -2.4911 5.36375 0
M  V30 6255 H 575.872 -0.453177 0.602616 0
M  V30 6256 H 578.523 -0.473144 1.77295 0
M  V30 6257 H 576.905 -2.95351 2.63787 0
M  V30 6258 H 578.079 -0.814949 4.53536 0
M  V30 6259 H 576.394 -0.891594 4.06743 0
M  V30 6260 H 578.991 -3.66732 3.89117 0
M  V30 6261 H 579.334 -3.54469 2.18306 0
M  V30 6262 H 579.867 -2.24874 3.28141 0
M  V30 6263 H 576.606 -1.93582 6.26264 0
M  V30 6264 H 576.126 -3.17991 5.08569 0
M  V30 6265 H 577.805 -3.10637 5.67551 0
M  V30 6266 N 577.937 -1.40673 -0.710563 0
M  V30 6267 C 578.884 -1.41336 -1.82463 0
M  V30 6268 C 579.854 -0.269648 -1.63897 0
M  V30 6269 O 581.039 -0.468463 -1.8496 0
M  V30 6270 C 578.179 -1.28665 -3.20218 0
M  V30 6271 C 577.292 -2.52784 -3.5032 0
M  V30 6272 C 576.427 -2.32517 -4.77608 0
M  V30 6273 C 575.466 -3.52187 -5.0063 0
M  V30 6274 N 574.603 -3.31084 -6.19135 0
M  V30 6275 H 579.443 -2.36558 -1.8123 0
M  V30 6276 H 576.98 -1.17483 -0.885226 0
M  V30 6277 H 578.938 -1.19324 -3.99772 0
M  V30 6278 H 577.568 -0.370602 -3.20666 0
M  V30 6279 H 576.62 -2.72634 -2.65283 0
M  V30 6280 H 577.932 -3.41845 -3.63241 0
M  V30 6281 H 577.086 -2.20558 -5.65189 0
M  V30 6282 H 575.825 -1.40889 -4.66906 0
M  V30 6283 H 574.83 -3.64617 -4.11502 0
M  V30 6284 H 576.055 -4.44749 -5.13201 0
M  V30 6285 H 574.001 -2.42143 -6.09674 0
M  V30 6286 H 573.918 -4.13713 -6.32754 0
M  V30 6287 H 575.186 -3.22868 -7.0949 0
M  V30 6288 N 579.415 0.9433 -1.26252 0
M  V30 6289 C 580.661 1.69175 -1.11837 0
M  V30 6290 C 580.994 1.91238 0.337891 0
M  V30 6291 O 580.269 1.49152 1.24836 0
M  V30 6292 C 580.552 3.06783 -1.88563 0
M  V30 6293 C 580.405 2.9206 -3.42083 0
M  V30 6294 C 581.724 4.06865 -1.67776 0
M  V30 6295 H 578.843 0.61399 -0.407658 0
M  V30 6296 H 581.485 1.09572 -1.55222 0
M  V30 6297 H 579.635 3.57663 -1.51689 0
M  V30 6298 H 581.307 2.48419 -3.88698 0
M  V30 6299 H 579.55 2.27731 -3.69217 0
M  V30 6300 H 580.221 3.89651 -3.90994 0
M  V30 6301 H 582.697 3.64939 -1.99897 0
M  V30 6302 H 581.573 5.01168 -2.23879 0
M  V30 6303 H 581.834 4.37705 -0.621816 0
M  V30 6304 N 580.893 1.08022 1.14757 0
M  V30 6305 C 581.841 0.701088 2.21783 0
M  V30 6306 C 582.835 -0.291311 1.66876 0
M  V30 6307 O 584.041 -0.154296 1.79337 0
M  V30 6308 H 580.416 0.208668 0.722469 0
M  V30 6309 H 582.387 1.61321 2.51034 0
M  V30 6310 C 581.136 0.122278 3.47485 0
M  V30 6311 H 580.459 0.877065 3.90061 0
M  V30 6312 H 581.899 -0.105248 4.23869 0
M  V30 6313 C 580.358 -1.13883 3.17068 0
M  V30 6314 O 580.888 -2.22429 3.34497 0
M  V30 6315 N 579.094 -1.04767 2.71058 0
M  V30 6316 H 578.641 -0.164302 2.57075 0
M  V30 6317 H 578.599 -1.89224 2.51081 0
M  V30 6318 N 582.371 -1.3172 0.865308 0
M  V30 6319 C 583.62 -1.96145 0.470098 0
M  V30 6320 C 583.933 -1.69182 -0.981674 0
M  V30 6321 O 585.139 -2.27431 -1.48281 0
M  V30 6322 C 583.595 -3.51129 0.789732 0
M  V30 6323 C 583.203 -3.86938 2.25795 0
M  V30 6324 C 584.947 -4.2197 0.462765 0
M  V30 6325 C 582.854 -5.35012 2.52024 0
M  V30 6326 H 581.784 -0.734105 0.172065 0
M  V30 6327 H 584.435 -1.49959 1.05757 0
M  V30 6328 H 582.817 -3.95781 0.131571 0
M  V30 6329 H 583.991 -3.5326 2.95879 0
M  V30 6330 H 582.306 -3.29149 2.55049 0
M  V30 6331 H 584.903 -5.30904 0.636019 0
M  V30 6332 H 585.246 -4.12005 -0.59645 0
M  V30 6333 H 585.779 -3.82936 1.07727 0
M  V30 6334 H 582.518 -5.50008 3.56611 0
M  V30 6335 H 582.038 -5.70058 1.8653 0
M  V30 6336 H 583.717 -6.0222 2.36515 0
M  V30 6337 N 583.85 -0.624285 -1.44708 0
M  V30 6338 C 585.266 -0.289322 -1.56956 0
M  V30 6339 C 585.466 1.20773 -1.61295 0
M  V30 6340 O 584.522 1.9915 -1.55227 0
M  V30 6341 C 585.835 -0.975215 -2.84447 0
M  V30 6342 C 587.383 -0.952709 -2.98148 0
M  V30 6343 C 587.858 -1.61893 -4.28433 0
M  V30 6344 N 589.349 -1.5852 -4.35231 0
M  V30 6345 C 590.084 -2.06969 -5.34744 0
M  V30 6346 N 589.58 -2.63579 -6.40701 0
M  V30 6347 N 591.373 -1.97638 -5.26209 0
M  V30 6348 H 583.524 -1.59612 -1.40135 0
M  V30 6349 H 585.787 -0.669592 -0.671081 0
M  V30 6350 H 585.493 -2.02999 -2.87201 0
M  V30 6351 H 585.367 -0.508749 -3.73753 0
M  V30 6352 H 587.754 0.093568 -2.94952 0
M  V30 6353 H 587.835 -1.4576 -2.10209 0
M  V30 6354 H 587.479 -2.66463 -4.32389 0
M  V30 6355 H 587.409 -1.08893 -5.15218 0
M  V30 6356 H 589.899 -1.17183 -3.59272 0
M  V30 6357 H 590.213 -2.98298 -7.12908 0
M  V30 6358 H 588.558 -2.67626 -6.41406 0
M  V30 6359 H 591.749 -1.5314 -4.42341 0
M  V30 6360 H 591.922 -2.35708 -6.03611 0
M  V30 6361 N 585.328 1.53329 -0.364422 0
M  V30 6362 C 586.276 2.27212 0.497737 0
M  V30 6363 C 587.27 1.30146 1.08437 0
M  V30 6364 O 588.476 1.47778 1.0277 0
M  V30 6365 H 584.851 0.730329 0.179232 0
M  V30 6366 H 586.822 2.98037 -0.147182 0
M  V30 6367 C 585.571 3.07333 1.6261 0
M  V30 6368 H 584.894 3.81866 1.184 0
M  V30 6369 H 586.334 3.62209 2.20409 0
M  V30 6370 C 584.793 2.18102 2.56775 0
M  V30 6371 O 585.323 1.79104 3.59562 0
M  V30 6372 N 583.529 1.82759 2.25937 0
M  V30 6373 H 583.076 2.14671 1.42387 0
M  V30 6374 H 583.034 1.23342 2.89196 0
M  V30 6375 N 586.806 0.0935595 1.57322 0
M  V30 6376 C 587.769 -0.851426 2.12799 0
M  V30 6377 C 588.769 -1.21187 1.0569 0
M  V30 6378 O 589.959 -1.14156 1.31583 0
M  V30 6379 C 587.091 -2.14779 2.64731 0
M  V30 6380 H 588.284 -0.369733 2.97612 0
M  V30 6381 H 585.837 -0.155417 1.55525 0
M  V30 6382 H 586.572 -2.67437 1.83434 0
M  V30 6383 H 586.357 -1.89907 3.43042 0
M  V30 6384 H 587.847 -2.82383 3.07651 0
M  V30 6385 N 588.284 -1.56567 -0.180126 0
M  V30 6386 C 589.232 -1.96632 -1.24251 0
M  V30 6387 C 590.226 -0.853818 -1.46309 0
M  V30 6388 O 591.432 -1.0389 -1.46993 0
M  V30 6389 H 587.807 -0.625476 -0.417473 0
M  V30 6390 H 589.778 -2.85201 -0.877679 0
M  V30 6391 C 588.527 -2.33486 -2.57642 0
M  V30 6392 H 587.85 -3.18626 -2.4149 0
M  V30 6393 H 589.29 -2.65371 -3.30688 0
M  V30 6394 C 587.749 -1.17499 -3.15746 0
M  V30 6395 O 588.279 -0.457956 -3.99081 0
M  V30 6396 N 586.485 -0.94786 -2.74707 0
M  V30 6397 H 586.032 -1.53269 -2.07042 0
M  V30 6398 H 585.99 -0.173626 -3.1392 0
M  V30 6399 N 589.762 0.448376 -1.51087 0
M  V30 6400 C 590.987 1.22605 -1.6728 0
M  V30 6401 C 591.412 1.84524 -0.365045 0
M  V30 6402 O 590.77 1.6832 0.673642 0
M  V30 6403 C 590.818 2.29393 -2.78229 0
M  V30 6404 O 589.922 3.34608 -2.41063 0
M  V30 6405 H 589.263 0.359705 -0.558129 0
M  V30 6406 H 591.793 0.530903 -1.97592 0
M  V30 6407 H 591.803 2.74352 -3.01986 0
M  V30 6408 H 590.478 1.83701 -3.73131 0
M  V30 6409 H 589.055 2.95202 -2.27838 0
M  V30 6410 N 591.24 1.41047 0.703093 0
M  V30 6411 C 592.17 1.45067 1.82969 0
M  V30 6412 C 593.151 0.31016 1.67248 0
M  V30 6413 O 594.336 0.520548 1.87093 0
M  V30 6414 C 591.466 1.32478 3.2104 0
M  V30 6415 C 590.42 2.44262 3.51454 0
M  V30 6416 C 589.746 2.16742 4.88801 0
M  V30 6417 C 591.046 3.86606 3.51189 0
M  V30 6418 H 592.74 2.39353 1.79863 0
M  V30 6419 H 590.286 1.15206 0.863919 0
M  V30 6420 H 592.239 1.33904 3.99559 0
M  V30 6421 H 590.963 0.346735 3.24754 0
M  V30 6422 H 589.622 2.42107 2.75282 0
M  V30 6423 H 589.27 1.17299 4.89132 0
M  V30 6424 H 588.97 2.91643 5.10116 0
M  V30 6425 H 590.494 2.19872 5.69639 0
M  V30 6426 H 591.908 3.90517 4.19725 0
M  V30 6427 H 590.305 4.61128 3.84033 0
M  V30 6428 H 591.375 4.15296 2.50315 0
M  V30 6429 N 592.718 -0.936591 1.26751 0
M  V30 6430 C 593.966 -1.67998 1.12343 0
M  V30 6431 C 594.287 -1.92137 -0.332938 0
M  V30 6432 O 593.557 -1.52132 -1.23421 0
M  V30 6433 H 592.137 -0.622609 0.412756 0
M  V30 6434 H 594.799 -1.12509 1.59147 0
M  V30 6435 H 593.895 -2.65185 1.64571 0
M  V30 6436 N 594.196 -1.08629 -1.14182 0
M  V30 6437 C 595.444 -0.815731 -1.84906 0
M  V30 6438 C 595.765 0.660441 -1.83475 0
M  V30 6439 O 595.035 1.47888 -1.28476 0
M  V30 6440 H 593.615 -0.298773 -0.684648 0
M  V30 6441 H 596.277 -1.37274 -1.38354 0
M  V30 6442 H 595.373 -1.16193 -2.89665 0
M  V30 6443 N 595.674 1.31259 -0.872281 0
M  V30 6444 C 596.922 1.96233 -0.483409 0
M  V30 6445 C 597.243 1.69276 0.968012 0
M  V30 6446 O 596.513 1.00943 1.67891 0
M  V30 6447 H 595.093 0.726025 -0.175774 0
M  V30 6448 H 597.755 1.60024 -1.11258 0
M  V30 6449 H 596.851 3.05403 -0.643075 0
M  V30 6450 N 597.152 0.631951 1.44375 0
M  V30 6451 C 598.399 0.136767 2.02038 0
M  V30 6452 C 598.727 -1.24168 1.49709 0
M  V30 6453 O 597.982 -1.83809 0.671763 0
M  V30 6454 C 598.281 0.0735861 3.57324 0
M  V30 6455 C 597.947 1.39092 4.28911 0
M  V30 6456 C 596.609 1.75171 4.48184 0
M  V30 6457 C 598.961 2.26042 4.69632 0
M  V30 6458 C 596.289 2.97907 5.05439 0
M  V30 6459 C 598.641 3.4805 5.28246 0
M  V30 6460 C 597.305 3.84351 5.45738 0
M  V30 6461 H 596.575 0.0500466 0.739308 0
M  V30 6462 H 599.222 0.818429 1.7313 0
M  V30 6463 H 597.527 -0.691449 3.8565 0
M  V30 6464 H 599.224 -0.326091 3.99672 0
M  V30 6465 H 595.814 1.10015 4.1424 0
M  V30 6466 H 599.998 1.99463 4.54454 0
M  V30 6467 H 595.254 3.26108 5.17169 0
M  V30 6468 H 599.428 4.15658 5.5875 0
M  V30 6469 H 597.055 4.79538 5.8987 0
M  V30 6470 N 598.631 -1.53133 0.372548 0
M  V30 6471 C 599.581 -2.22733 -0.487218 0
M  V30 6472 C 600.565 -1.22506 -1.04312 0
M  V30 6473 O 601.757 -1.47923 -0.972005 0
M  V30 6474 C 598.886 -3.02524 -1.62278 0
M  V30 6475 C 597.972 -4.10133 -1.07943 0
M  V30 6476 N 598.363 -5.05133 -0.259629 0
M  V30 6477 C 596.661 -4.24964 -1.35356 0
M  V30 6478 C 597.362 -5.81687 0.0386656 0
M  V30 6479 N 596.338 -5.40699 -0.560827 0
M  V30 6480 H 600.14 -2.93538 0.145853 0
M  V30 6481 H 597.654 -1.61389 0.180938 0
M  V30 6482 H 599.651 -3.50909 -2.25096 0
M  V30 6483 H 598.311 -2.33252 -2.25884 0
M  V30 6484 H 599.322 -5.178 0.101746 0
M  V30 6485 H 595.999 -3.66919 -1.9919 0
M  V30 6486 H 597.389 -6.68224 0.701841 0
M  V30 6487 N 600.109 -0.101901 -1.5727 0
M  V30 6488 C 601.349 0.563489 -1.96479 0
M  V30 6489 C 601.713 1.64926 -0.983021 0
M  V30 6490 O 602.914 2.37234 -1.26386 0
M  V30 6491 C 601.185 1.09809 -3.40113 0
M  V30 6492 S 602.744 1.7744 -4.01323 0
M  V30 6493 H 599.562 0.183675 -0.686866 0
M  V30 6494 H 602.164 -0.182922 -1.94642 0
M  V30 6495 H 600.868 0.296447 -4.09328 0
M  V30 6496 H 600.399 1.88018 -3.45562 0
M  V30 6497 H 602.414 3.0591 -3.90683 0
M  V30 6498 N 601.587 1.56661 0.17182 0
M  V30 6499 C 602.833 1.8313 0.88516 0
M  V30 6500 C 603.188 0.682376 1.79893 0
M  V30 6501 O 602.481 -0.321215 1.88888 0
M  V30 6502 C 602.675 3.13435 1.71736 0
M  V30 6503 C 602.504 4.40892 0.885659 0
M  V30 6504 C 601.274 5.02177 0.560939 0
M  V30 6505 C 603.472 5.13797 0.227454 0
M  V30 6506 N 601.454 6.13229 -0.286953 0
M  V30 6507 C 602.825 6.18127 -0.481625 0
M  V30 6508 C 604.88 4.97687 0.145567 0
M  V30 6509 C 603.583 7.08092 -1.26482 0
M  V30 6510 C 605.609 5.88096 -0.624298 0
M  V30 6511 C 604.971 6.91888 -1.32174 0
M  V30 6512 H 601.07 0.721107 0.302536 0
M  V30 6513 H 603.654 1.94104 0.152178 0
M  V30 6514 H 601.825 3.03653 2.42176 0
M  V30 6515 H 603.557 3.27903 2.37196 0
M  V30 6516 H 600.312 4.65145 0.890902 0
M  V30 6517 H 600.736 6.73359 -0.701193 0
M  V30 6518 H 605.378 4.17451 0.670426 0
M  V30 6519 H 603.096 7.87774 -1.80103 0
M  V30 6520 H 606.682 5.77702 -0.689321 0
M  V30 6521 H 605.562 7.60637 -1.90791 0
M  V30 6522 N 603.065 -0.440357 1.51323 0
M  V30 6523 C 604.293 -1.21255 1.67645 0
M  V30 6524 C 604.708 -1.85088 0.37252 0
M  V30 6525 O 604.065 -1.70582 -0.648683 0
M  V30 6526 C 604.116 -2.29881 2.78993 0
M  V30 6527 O 603.837 -1.68659 4.04334 0
M  V30 6528 C 605.338 -3.20214 3.06558 0
M  V30 6529 H 602.558 -0.36558 0.562666 0
M  V30 6530 H 605.102 -0.52214 1.97722 0
M  V30 6531 H 603.257 -2.94643 2.51524 0
M  V30 6532 H 603.671 -2.40426 4.6615 0
M  V30 6533 H 605.145 -3.92575 3.88058 0
M  V30 6534 H 605.622 -3.80794 2.18844 0
M  V30 6535 H 606.228 -2.61156 3.35675 0
M  V30 6536 N 604.543 -1.41418 -0.695603 0
M  V30 6537 C 605.783 -1.42241 -1.46788 0
M  V30 6538 C 606.147 -0.0300827 -1.91976 0
M  V30 6539 O 607.348 0.0868914 -2.6866 0
M  V30 6540 C 605.619 -2.4011 -2.6473 0
M  V30 6541 S 607.178 -2.59462 -3.53871 0
M  V30 6542 H 603.996 -0.503893 -0.50161 0
M  V30 6543 H 606.598 -1.77855 -0.811654 0
M  V30 6544 H 605.302 -3.40073 -2.29736 0
M  V30 6545 H 604.833 -2.05849 -3.35246 0
M  V30 6546 H 606.848 -1.862 -4.59939 0
M  V30 6547 N 606.021 0.929856 -1.27246 0
M  V30 6548 C 607.298 1.65544 -1.04186 0
M  V30 6549 C 607.678 2.06796 0.424097 0
M  V30 6550 O 607.026 1.80053 1.40688 0
M  V30 6551 C 607.236 2.85912 -2.00138 0
M  V30 6552 C 608.584 3.57305 -2.29387 0
M  V30 6553 O 609.608 2.96036 -1.98094 0
M  V30 6554 O 608.467 4.67688 -2.82719 0
M  V30 6555 H 605.561 0.725473 -0.397011 0
M  V30 6556 H 608.107 0.980583 -1.38501 0
M  V30 6557 H 606.879 2.52403 -2.99013 0
M  V30 6558 H 606.502 3.61118 -1.66371 0
M  V30 6559 N 607.499 1.09233 1.13605 0
M  V30 6560 C 608.745 0.828385 1.8511 0
M  V30 6561 C 609.078 -0.64437 1.83198 0
M  V30 6562 O 608.353 -1.47428 1.26867 0
M  V30 6563 C 608.636 1.36167 3.33363 0
M  V30 6564 C 608.489 2.90038 3.438 0
M  V30 6565 C 609.808 0.993819 4.28732 0
M  V30 6566 H 606.927 0.30239 0.672108 0
M  V30 6567 H 609.569 1.35339 1.33355 0
M  V30 6568 H 607.719 0.9151 3.77569 0
M  V30 6569 H 609.391 3.43128 3.08319 0
M  V30 6570 H 607.634 3.27271 2.84739 0
M  V30 6571 H 608.305 3.22428 4.48045 0
M  V30 6572 H 610.781 1.37893 3.92587 0
M  V30 6573 H 609.657 1.39403 5.30903 0
M  V30 6574 H 609.918 -0.0982206 4.41991 0
M  V30 6575 N 608.977 -1.30795 0.87923 0
M  V30 6576 C 610.393 -1.48981 0.57243 0
M  V30 6577 C 610.593 -1.80719 -0.891236 0
M  V30 6578 O 609.649 -1.89136 -1.67283 0
M  V30 6579 C 610.962 -2.61721 1.48063 0
M  V30 6580 C 612.51 -2.75603 1.48365 0
M  V30 6581 C 612.985 -3.91449 2.37763 0
M  V30 6582 N 614.476 -3.98751 2.35695 0
M  V30 6583 C 615.211 -4.87684 3.01583 0
M  V30 6584 N 614.707 -5.81454 3.76674 0
M  V30 6585 N 616.5 -4.81005 2.90844 0
M  V30 6586 H 608.651 -1.08465 1.82617 0
M  V30 6587 H 610.914 -0.536813 0.781368 0
M  V30 6588 H 610.62 -2.45073 2.52254 0
M  V30 6589 H 610.494 -3.58071 1.18596 0
M  V30 6590 H 612.881 -2.9166 0.44927 0
M  V30 6591 H 612.962 -1.79891 1.81859 0
M  V30 6592 H 612.606 -3.76149 3.41283 0
M  V30 6593 H 612.536 -4.86487 2.01589 0
M  V30 6594 H 615.027 -3.31668 1.81121 0
M  V30 6595 H 615.34 -6.46063 4.24054 0
M  V30 6596 H 613.685 -5.81403 3.80782 0
M  V30 6597 H 616.876 -4.06728 2.31711 0
M  V30 6598 H 617.049 -5.50107 3.42471 0
M  V30 6599 N 610.455 -0.639598 -1.44038 0
M  V30 6600 C 611.871 -0.305953 -1.5664 0
M  V30 6601 C 612.071 1.19055 -1.62567 0
M  V30 6602 O 611.127 1.97492 -1.57331 0
M  V30 6603 C 612.44 -1.00533 -2.83397 0
M  V30 6604 C 613.988 -0.984278 -2.97121 0
M  V30 6605 C 614.463 -1.66428 -4.26691 0
M  V30 6606 N 615.954 -1.63127 -4.33525 0
M  V30 6607 C 616.689 -2.12629 -5.32519 0
M  V30 6608 N 616.185 -2.70359 -6.3787 0
M  V30 6609 N 617.978 -2.03208 -5.24083 0
M  V30 6610 H 610.129 -1.6109 -1.38434 0
M  V30 6611 H 612.392 -0.676672 -0.663942 0
M  V30 6612 H 612.098 -2.06034 -2.85032 0
M  V30 6613 H 611.972 -0.548362 -3.73193 0
M  V30 6614 H 614.359 0.0622792 -2.95034 0
M  V30 6615 H 614.44 -1.47981 -2.08651 0
M  V30 6616 H 614.084 -2.71034 -4.29538 0
M  V30 6617 H 614.014 -1.14351 -5.14034 0
M  V30 6618 H 616.505 -1.20987 -3.58009 0
M  V30 6619 H 616.818 -3.05842 -7.09704 0
M  V30 6620 H 615.163 -2.74414 -6.38531 0
M  V30 6621 H 618.354 -1.57823 -4.40692 0
M  V30 6622 H 618.527 -2.42097 -6.01077 0
M  V30 6623 N 611.933 1.52934 -0.380664 0
M  V30 6624 C 613.349 1.59571 -0.0302429 0
M  V30 6625 C 613.549 1.39509 1.45394 0
M  V30 6626 O 612.605 1.20777 2.21741 0
M  V30 6627 C 613.918 2.96519 -0.499691 0
M  V30 6628 C 615.466 3.09672 -0.455204 0
M  V30 6629 C 615.941 4.49056 -0.900703 0
M  V30 6630 N 617.432 4.55215 -0.856367 0
M  V30 6631 C 618.167 5.61282 -1.17259 0
M  V30 6632 N 617.663 6.75035 -1.55885 0
M  V30 6633 N 619.456 5.51343 -1.0944 0
M  V30 6634 H 611.607 1.64224 -1.347 0
M  V30 6635 H 613.87 0.771033 -0.551554 0
M  V30 6636 H 613.576 3.16388 -1.53595 0
M  V30 6637 H 613.45 3.77052 0.105789 0
M  V30 6638 H 615.837 2.89504 0.571949 0
M  V30 6639 H 615.918 2.31113 -1.09638 0
M  V30 6640 H 615.562 4.69964 -1.92604 0
M  V30 6641 H 615.492 5.26068 -0.236629 0
M  V30 6642 H 617.983 3.73546 -0.572013 0
M  V30 6643 H 618.296 7.51926 -1.784 0
M  V30 6644 H 616.641 6.76388 -1.59764 0
M  V30 6645 H 619.832 4.61356 -0.791713 0
M  V30 6646 H 620.005 6.33905 -1.34417 0
M  V30 6647 N 613.412 0.11024 1.57214 0
M  V30 6648 C 614.66 -0.548783 1.94506 0
M  V30 6649 C 614.981 -1.67772 0.99386 0
M  V30 6650 O 614.251 -1.9584 0.0485841 0
M  V30 6651 H 612.831 -0.205715 0.718116 0
M  V30 6652 H 615.493 0.177127 1.94093 0
M  V30 6653 H 614.589 -0.949096 2.97319 0
M  V30 6654 N 614.89 -1.56749 -0.16351 0
M  V30 6655 C 616.118 -1.86577 -0.894233 0
M  V30 6656 C 616.533 -0.696543 -1.75481 0
M  V30 6657 O 615.89 0.334161 -1.79415 0
M  V30 6658 C 615.941 -3.15508 -1.76456 0
M  V30 6659 O 615.662 -4.27926 -0.938685 0
M  V30 6660 C 617.163 -3.58737 -2.60428 0
M  V30 6661 H 614.383 -0.618829 -0.259405 0
M  V30 6662 H 616.927 -2.03863 -0.161259 0
M  V30 6663 H 615.082 -3.00025 -2.45079 0
M  V30 6664 H 615.496 -5.01546 -1.53465 0
M  V30 6665 H 616.97 -4.51832 -3.17099 0
M  V30 6666 H 617.447 -2.83229 -3.35675 0
M  V30 6667 H 618.053 -3.76858 -1.97125 0
M  V30 6668 N 616.368 0.432326 -1.51554 0
M  V30 6669 C 617.298 1.53242 -1.76179 0
M  V30 6670 C 618.279 1.58717 -0.611801 0
M  V30 6671 O 619.464 1.74364 -0.855033 0
M  V30 6672 C 616.594 2.91278 -1.89141 0
M  V30 6673 C 615.548 3.00663 -3.04608 0
M  V30 6674 C 614.874 4.40728 -3.02759 0
M  V30 6675 C 616.174 2.74281 -4.44485 0
M  V30 6676 H 617.868 1.32886 -2.68294 0
M  V30 6677 H 615.414 0.637841 -1.29103 0
M  V30 6678 H 617.367 3.68203 -2.04951 0
M  V30 6679 H 616.091 3.12877 -0.936785 0
M  V30 6680 H 614.75 2.26179 -2.88511 0
M  V30 6681 H 614.398 4.59301 -2.05065 0
M  V30 6682 H 614.098 4.47936 -3.80299 0
M  V30 6683 H 615.622 5.19619 -3.20669 0
M  V30 6684 H 617.036 3.40936 -4.60907 0
M  V30 6685 H 615.433 2.92893 -5.23769 0
M  V30 6686 H 616.503 1.69856 -4.54177 0
M  V30 6687 N 617.846 1.41785 0.688094 0
M  V30 6688 C 618.778 1.40159 1.81351 0
M  V30 6689 C 619.791 0.30262 1.59963 0
M  V30 6690 O 620.98 0.564841 1.69327 0
M  V30 6691 C 618.08 1.16517 3.1824 0
M  V30 6692 C 617.253 2.38597 3.66593 0
M  V30 6693 C 616.312 2.10699 4.82174 0
M  V30 6694 O 615.338 2.83798 4.93404 0
M  V30 6695 N 616.54 1.10187 5.69947 0
M  V30 6696 H 619.305 2.3716 1.83236 0
M  V30 6697 H 616.866 1.36494 0.870697 0
M  V30 6698 H 618.858 0.957941 3.93199 0
M  V30 6699 H 617.428 0.280873 3.11336 0
M  V30 6700 H 616.648 2.74974 2.82459 0
M  V30 6701 H 617.936 3.19919 3.95638 0
M  V30 6702 H 617.334 0.497016 5.63512 0
M  V30 6703 H 615.891 0.954518 6.44773 0
M  V30 6704 N 619.324 -0.923095 1.27737 0
M  V30 6705 C 620.549 -1.71054 1.17283 0
M  V30 6706 C 620.974 -1.86208 -0.266153 0
M  V30 6707 O 620.332 -1.36545 -1.1927 0
M  V30 6708 C 620.38 -3.0854 1.86642 0
M  V30 6709 O 619.484 -3.95528 1.16752 0
M  V30 6710 H 618.825 -0.524136 0.407649 0
M  V30 6711 H 621.355 -1.15487 1.6889 0
M  V30 6712 H 621.365 -3.58828 1.94182 0
M  V30 6713 H 620.04 -2.96828 2.91317 0
M  V30 6714 H 618.617 -3.53967 1.17312 0
M  V30 6715 N 620.802 -1.09834 -1.13024 0
M  V30 6716 C 622.032 -0.857657 -1.87957 0
M  V30 6717 C 622.44 0.595008 -1.796 0
M  V30 6718 O 621.783 1.42158 -1.16347 0
M  V30 6719 C 621.845 -1.21949 -3.38185 0
M  V30 6720 C 621.509 -2.67791 -3.7032 0
M  V30 6721 C 622.506 -3.66036 -3.69207 0
M  V30 6722 C 620.191 -3.04019 -3.99847 0
M  V30 6723 C 622.185 -4.98533 -3.9717 0
M  V30 6724 C 619.872 -4.36706 -4.27471 0
M  V30 6725 C 620.87 -5.33772 -4.26118 0
M  V30 6726 O 620.558 -6.64072 -4.53061 0
M  V30 6727 H 620.29 -0.308009 -0.601753 0
M  V30 6728 H 622.844 -1.46496 -1.43973 0
M  V30 6729 H 621.074 -0.555249 -3.82693 0
M  V30 6730 H 622.763 -0.957281 -3.9445 0
M  V30 6731 H 623.529 -3.39392 -3.46465 0
M  V30 6732 H 619.408 -2.29096 -4.00045 0
M  V30 6733 H 622.952 -5.74288 -3.96029 0
M  V30 6734 H 618.849 -4.63091 -4.49685 0
M  V30 6735 H 619.617 -6.69608 -4.7071 0
M  V30 6736 N 622.28 1.30327 -0.886154 0
M  V30 6737 C 623.21 2.30549 -0.370028 0
M  V30 6738 C 624.191 1.61039 0.547751 0
M  V30 6739 O 625.376 1.8864 0.461353 0
M  V30 6740 C 622.506 3.44808 0.415275 0
M  V30 6741 C 621.46 4.26024 -0.41085 0
M  V30 6742 C 620.786 5.32347 0.501128 0
M  V30 6743 C 622.086 4.95433 -1.65359 0
M  V30 6744 H 623.78 2.73969 -1.20754 0
M  V30 6745 H 621.326 1.3171 -0.582097 0
M  V30 6746 H 623.279 4.13986 0.78699 0
M  V30 6747 H 622.003 3.00197 1.28644 0
M  V30 6748 H 620.662 3.58535 -0.764719 0
M  V30 6749 H 620.31 4.83982 1.37004 0
M  V30 6750 H 620.01 5.87581 -0.0478356 0
M  V30 6751 H 621.534 6.0438 0.869333 0
M  V30 6752 H 622.948 5.5712 -1.35239 0
M  V30 6753 H 621.345 5.60537 -2.14284 0
M  V30 6754 H 622.415 4.21493 -2.39733 0
M  V30 6755 N 623.758 0.647228 1.43697 0
M  V30 6756 C 625.035 0.0883758 1.954 0
M  V30 6757 C 625.415 -1.39006 1.58873 0
M  V30 6758 O 624.763 -2.11255 0.87083 0
M  V30 6759 C 624.973 0.328263 3.47453 0
M  V30 6760 C 626.321 0.230009 4.23977 0
M  V30 6761 O 627.345 0.260496 3.55246 0
M  V30 6762 O 626.204 0.148615 5.46298 0
M  V30 6763 H 623.298 -0.0130683 0.826897 0
M  V30 6764 H 625.844 0.72005 1.53666 0
M  V30 6765 H 624.616 1.3535 3.67146 0
M  V30 6766 H 624.239 -0.336772 3.96171 0
M  V30 6767 O 625.275 -1.52523 0.530952 0
M  V30 6768 H 625.966 -1.93688 0.0212942 0
M  V30 END ATOM
M  V30 BEGIN BOND
M  V30 END BOND
M  V30 END CTAB
M  END
$$$$
