drugbank_target|P14867 Gamma-aminobutyric acid receptor subunit alpha-1 (DB00186; DB00189; DB00228; DB00231; DB00237; DB00241; DB00252; DB00292; DB00306; DB00312; DB00349; DB00371; DB00402; DB00404; DB00463; DB00475; DB00543; DB00546; DB00555; DB00603; DB00628; DB00659; DB00683; DB00690; DB00753; DB00794; DB00801; DB00818; DB00829; DB00842; DB00897; DB01028; DB01043; DB01068; DB01107; DB01159; DB01189; DB01205; DB01215; DB01236; DB01437; DB01489; DB01511; DB01544; DB01545; DB01553; DB01558; DB01559; DB01587; DB01588; DB01589; DB01594; DB01595; DB01708; DB01956; DB09017; DB09118; DB09166; DB11582; DB11859; DB11901; DB12404; DB12537; DB13335; DB13437; DB13643; DB13837; DB13872; DB14028; DB14672; DB14715; DB14719; DB15489)
 OpenBabel12092119403D

  0  0  0     0  0            999 V3000
M  V30 BEGIN CTAB
M  V30 COUNTS 7334 7430 0 0 0
M  V30 BEGIN ATOM
M  V30 1 H -0.908 1.98254 -0.117106 0
M  V30 2 N 0 1.576 0 0
M  V30 3 C 0.933 2.03868 1.02534 0
M  V30 4 C 1.911 0.928543 1.3348 0
M  V30 5 O 3.095 1.19667 1.45644 0
M  V30 6 C 0.222 2.43627 2.35294 0
M  V30 7 C -0.732 3.65373 2.2001 0
M  V30 8 S 0.101 5.13292 1.52614 0
M  V30 9 C 1.257 5.56322 2.86805 0
M  V30 10 H 1.49 2.90518 0.631377 0
M  V30 11 H -0.977 1.52953 0.210867 0
M  V30 12 H 0.981 2.67203 3.11629 0
M  V30 13 H -0.358 1.57376 2.7183 0
M  V30 14 H -1.165 3.90944 3.18086 0
M  V30 15 H -1.563 3.418 1.51819 0
M  V30 16 H 0.729 5.58782 3.83104 0
M  V30 17 H 1.672 6.56266 2.65933 0
M  V30 18 H 2.08 4.83886 2.90714 0
M  V30 19 N 1.4781 -0.272755 1.55222 0
M  V30 20 C 2.8941 -0.619959 1.47067 0
M  V30 21 C 3.0941 -1.895 0.684978 0
M  V30 22 O 2.1501 -2.51675 0.203931 0
M  V30 23 C 3.4631 -0.746693 2.91282 0
M  V30 24 C 5.0111 -0.840731 3.01497 0
M  V30 25 C 5.4861 -0.99924 4.46967 0
M  V30 26 N 6.9771 -1.06476 4.50796 0
M  V30 27 C 7.7121 -1.20621 5.6057 0
M  V30 28 N 7.2081 -1.31483 6.80209 0
M  V30 29 N 9.0011 -1.23733 5.48312 0
M  V30 30 H 1.1521 0.564606 2.04758 0
M  V30 31 H 3.4151 0.191177 0.928523 0
M  V30 32 H 3.1211 0.119753 3.51496 0
M  V30 33 H 2.9951 -1.6269 3.40311 0
M  V30 34 H 5.3821 -1.69764 2.41379 0
M  V30 35 H 5.4631 0.0640874 2.5572 0
M  V30 36 H 5.1071 -0.146984 5.07687 0
M  V30 37 H 5.0371 -1.91871 4.90401 0
M  V30 38 H 7.5281 -0.993196 3.64615 0
M  V30 39 H 7.8411 -1.42111 7.59621 0
M  V30 40 H 6.1861 -1.28487 6.8302 0
M  V30 41 H 9.3771 -1.14877 4.53785 0
M  V30 42 H 9.5501 -1.34412 6.33906 0
M  V30 43 N 2.9562 -1.48159 -0.537278 0
M  V30 44 C 3.9032 -1.62138 -1.64256 0
M  V30 45 C 4.8732 -0.463668 -1.59497 0
M  V30 46 O 6.0582 -0.686241 -1.78032 0
M  V30 47 C 3.1982 -1.66028 -3.02537 0
M  V30 48 C 2.3112 -2.92855 -3.17585 0
M  V30 49 C 1.4462 -2.87952 -4.46382 0
M  V30 50 C 0.4852 -4.09516 -4.54932 0
M  V30 51 N -0.3778 -4.02733 -5.75109 0
M  V30 52 H 4.4622 -2.56529 -1.51647 0
M  V30 53 H 1.9992 -1.27224 -0.738414 0
M  V30 54 H 3.9572 -1.66265 -3.82638 0
M  V30 55 H 2.5872 -0.751331 -3.13934 0
M  V30 56 H 1.6392 -3.02395 -2.30784 0
M  V30 57 H 2.9512 -3.82822 -3.19764 0
M  V30 58 H 2.1052 -2.8655 -5.34765 0
M  V30 59 H 0.8442 -1.95702 -4.46712 0
M  V30 60 H -0.1508 -4.11201 -3.64957 0
M  V30 61 H 1.0742 -5.02917 -4.56346 0
M  V30 62 H -0.9798 -3.13299 -5.76351 0
M  V30 63 H -1.0628 -4.86397 -5.78752 0
M  V30 64 H 0.2052 -4.05379 -6.65799 0
M  V30 65 N 4.4343 0.785586 -1.36625 0
M  V30 66 C 5.6593 1.57963 -1.34397 0
M  V30 67 C 6.0843 1.87964 0.071526 0
M  V30 68 O 5.4423 1.48182 1.0446 0
M  V30 69 C 5.4903 2.87511 -2.17646 0
M  V30 70 O 4.5943 3.81281 -1.57158 0
M  V30 71 H 3.9353 0.479014 -0.459828 0
M  V30 72 H 6.4653 0.973411 -1.79961 0
M  V30 73 H 6.4753 3.36745 -2.30362 0
M  V30 74 H 5.1503 2.65002 -3.20541 0
M  V30 75 H 3.7273 3.39885 -1.53403 0
M  V30 76 N 5.9124 1.20967 1.01018 0
M  V30 77 C 7.3234 1.02319 1.56165 0
M  V30 78 C 7.6744 -0.418546 1.91684 0
M  V30 79 O 6.7994 -1.30096 1.72928 0
M  V30 80 C 7.3944 1.85109 2.8376 0
M  V30 81 C 5.9534 1.70809 3.35412 0
M  V30 82 C 5.1004 1.82643 2.08655 0
M  V30 83 H 8.0514 1.35065 0.833255 0
M  V30 84 H 8.0724 1.35827 3.55431 0
M  V30 85 H 7.5844 2.90035 2.57878 0
M  V30 86 H 5.6854 0.685464 3.66241 0
M  V30 87 H 5.7984 2.52467 4.07182 0
M  V30 88 H 4.1624 1.25896 2.21409 0
M  V30 89 H 4.9454 2.89066 1.85191 0
M  V30 90 N 7.3905 -1.2043 1.01659 0
M  V30 91 C 8.6385 -1.89423 0.704522 0
M  V30 92 C 8.9595 -1.79231 -0.768197 0
M  V30 93 O 8.2295 -1.1947 -1.55254 0
M  V30 94 H 6.8095 -0.701178 0.257602 0
M  V30 95 H 9.4715 -1.4626 1.28818 0
M  V30 96 H 8.5675 -2.96052 0.987916 0
M  V30 97 N 8.8686 -0.792821 -1.36206 0
M  V30 98 C 9.7986 -0.207853 -2.32573 0
M  V30 99 C 10.7796 0.659055 -1.56813 0
M  V30 100 O 11.9646 0.592176 -1.84951 0
M  V30 101 C 9.0946 0.655449 -3.41059 0
M  V30 102 C 8.0486 -0.111842 -4.27854 0
M  V30 103 C 7.3746 0.872274 -5.27537 0
M  V30 104 C 8.6746 -1.30299 -5.05786 0
M  V30 105 H 10.3686 -1.01294 -2.81744 0
M  V30 106 H 7.9146 -0.48854 -1.3546 0
M  V30 107 H 9.8676 1.07464 -4.07467 0
M  V30 108 H 8.5916 1.49328 -2.90463 0
M  V30 109 H 7.2506 -0.512053 -3.63006 0
M  V30 110 H 6.8986 1.70523 -4.73214 0
M  V30 111 H 6.5986 0.363291 -5.86476 0
M  V30 112 H 8.1226 1.28996 -5.96818 0
M  V30 113 H 9.5366 -0.959379 -5.65216 0
M  V30 114 H 7.9336 -1.7455 -5.74154 0
M  V30 115 H 9.0036 -2.09663 -4.37229 0
M  V30 116 N 10.3467 1.47872 -0.545128 0
M  V30 117 C 11.5717 2.07391 -0.0190611 0
M  V30 118 C 11.9967 1.39688 1.25971 0
M  V30 119 O 11.3547 0.467816 1.7516 0
M  V30 120 C 11.4027 3.60188 0.172335 0
M  V30 121 O 10.5067 3.9339 1.23766 0
M  V30 122 H 9.8477 0.662411 -0.0459059 0
M  V30 123 H 12.3777 1.90066 -0.757365 0
M  V30 124 H 12.3877 4.06129 0.390305 0
M  V30 125 H 11.0627 4.08865 -0.761725 0
M  V30 126 H 9.6397 3.5921 1.00114 0
M  V30 127 N 11.8248 0.280983 1.55075 0
M  V30 128 C 13.1018 -0.386207 1.91749 0
M  V30 129 C 13.4818 -1.73264 1.20594 0
M  V30 130 O 12.8298 -2.26034 0.334784 0
M  V30 131 C 13.0398 -0.520687 3.45094 0
M  V30 132 C 14.3878 -0.800865 4.16979 0
M  V30 133 O 15.4118 -0.605271 3.5102 0
M  V30 134 O 14.2708 -1.1753 5.33712 0
M  V30 135 H 11.3648 -0.212408 0.799257 0
M  V30 136 H 13.9108 0.327568 1.66509 0
M  V30 137 H 12.6828 0.426633 3.88967 0
M  V30 138 H 12.3058 -1.2837 3.76307 0
M  V30 139 N 13.3029 -1.57598 0.00835791 0
M  V30 140 C 14.5429 -1.92788 -0.679136 0
M  V30 141 C 14.9069 -0.883378 -1.70471 0
M  V30 142 O 16.1079 -1.12079 -2.44319 0
M  V30 143 C 14.3789 -3.32994 -1.29807 0
M  V30 144 S 15.9379 -3.90082 -2.00952 0
M  V30 145 H 12.7559 -0.67475 -0.224127 0
M  V30 146 H 15.3579 -1.95385 0.0670497 0
M  V30 147 H 14.0619 -4.06846 -0.538922 0
M  V30 148 H 13.5929 -3.33791 -2.082 0
M  V30 149 H 15.6079 -3.71834 -3.28563 0
M  V30 150 N 14.781 0.264519 -1.55364 0
M  V30 151 C 15.711 1.33121 -1.91836 0
M  V30 152 C 16.692 1.51101 -0.781192 0
M  V30 153 O 17.877 1.64003 -1.04003 0
M  V30 154 C 15.007 2.68921 -2.19769 0
M  V30 155 C 13.961 2.65661 -3.35571 0
M  V30 156 C 13.287 4.05093 -3.49004 0
M  V30 157 C 14.587 2.24187 -4.71739 0
M  V30 158 H 16.281 1.02844 -2.81182 0
M  V30 159 H 13.827 0.493286 -1.35287 0
M  V30 160 H 15.78 3.43663 -2.43872 0
M  V30 161 H 14.504 3.00799 -1.27231 0
M  V30 162 H 13.163 1.93377 -3.1145 0
M  V30 163 H 12.811 4.34206 -2.53917 0
M  V30 164 H 12.511 4.03804 -4.26868 0
M  V30 165 H 14.035 4.81561 -3.75408 0
M  V30 166 H 15.449 2.88654 -4.9533 0
M  V30 167 H 13.846 2.34044 -5.52579 0
M  V30 168 H 14.916 1.19327 -4.69988 0
M  V30 169 N 16.2591 1.48442 0.529413 0
M  V30 170 C 17.5051 1.57699 1.28463 0
M  V30 171 C 17.8601 0.247913 1.90796 0
M  V30 172 O 17.1531 -0.749279 1.76342 0
M  V30 173 C 17.3471 2.6523 2.39558 0
M  V30 174 C 17.1761 4.08464 1.88114 0
M  V30 175 C 15.9461 4.75596 1.70693 0
M  V30 176 C 18.1441 4.94613 1.40935 0
M  V30 177 N 16.1261 6.03245 1.13881 0
M  V30 178 C 17.4971 6.12511 0.960734 0
M  V30 179 C 19.5521 4.80833 1.29243 0
M  V30 180 C 18.2551 7.18149 0.406792 0
M  V30 181 C 20.2811 5.86593 0.752487 0
M  V30 182 C 19.6431 7.037 0.313946 0
M  V30 183 H 15.7421 0.631608 0.46108 0
M  V30 184 H 18.3261 1.85325 0.596886 0
M  V30 185 H 16.4971 2.39425 3.05827 0
M  V30 186 H 18.2291 2.64169 3.06589 0
M  V30 187 H 14.9841 4.31938 1.94232 0
M  V30 188 H 15.4081 6.71324 0.874831 0
M  V30 189 H 20.0501 3.90635 1.61754 0
M  V30 190 H 17.7681 8.0807 0.0693671 0
M  V30 191 H 21.3541 5.77985 0.665192 0
M  V30 192 H 20.2341 7.8414 -0.0973632 0
M  V30 193 N 17.7372 -0.778329 1.37039 0
M  V30 194 C 18.7002 -1.87301 1.32102 0
M  V30 195 C 19.7002 -1.59198 0.226405 0
M  V30 196 O 20.8902 -1.67403 0.481861 0
M  V30 197 C 18.0222 -3.24309 1.05055 0
M  V30 198 H 19.2152 -1.93093 2.29467 0
M  V30 199 H 16.7682 -0.977358 1.21973 0
M  V30 200 H 17.5032 -3.24196 0.0819373 0
M  V30 201 H 17.2882 -3.46098 1.84279 0
M  V30 202 H 18.7782 -4.04382 1.04234 0
M  V30 203 N 19.2153 -1.21501 -1.00376 0
M  V30 204 C 20.4613 -1.04457 -1.74529 0
M  V30 205 C 20.8163 0.417386 -1.87818 0
M  V30 206 O 20.1093 1.30556 -1.40234 0
M  V30 207 C 20.3033 -1.67673 -3.15627 0
M  V30 208 C 20.1323 -3.19865 -3.16096 0
M  V30 209 C 18.9023 -3.88915 -3.22604 0
M  V30 210 C 21.1003 -4.16936 -3.01112 0
M  V30 211 N 19.0823 -5.28284 -3.12712 0
M  V30 212 C 20.4533 -5.43066 -2.99131 0
M  V30 213 C 22.5083 -4.07968 -2.85423 0
M  V30 214 C 21.2113 -6.6126 -2.83068 0
M  V30 215 C 23.2373 -5.258 -2.70718 0
M  V30 216 C 22.5993 -6.50842 -2.69414 0
M  V30 217 H 18.6983 -0.436584 -0.648782 0
M  V30 218 H 21.2823 -1.53875 -1.19293 0
M  V30 219 H 19.4533 -1.20822 -3.6913 0
M  V30 220 H 21.1853 -1.43824 -3.78281 0
M  V30 221 H 17.9403 -3.39847 -3.2985 0
M  V30 222 H 18.3643 -6.01284 -3.11105 0
M  V30 223 H 23.0063 -3.1209 -2.85236 0
M  V30 224 H 20.7243 -7.57298 -2.82002 0
M  V30 225 H 24.3103 -5.20683 -2.59577 0
M  V30 226 H 23.1903 -7.40485 -2.5817 0
M  V30 227 N 20.6934 1.19889 -1.02296 0
M  V30 228 C 21.9424 1.88743 -0.711257 0
M  V30 229 C 22.2554 1.80112 0.762817 0
M  V30 230 O 23.4614 2.44161 1.18733 0
M  V30 231 C 21.9174 3.38525 -1.22185 0
M  V30 232 C 21.5254 3.55727 -2.72328 0
M  V30 233 C 23.2694 4.12893 -0.985864 0
M  V30 234 C 21.1764 4.99369 -3.16835 0
M  V30 235 H 20.1064 0.706885 -0.262353 0
M  V30 236 H 22.7574 1.35586 -1.23648 0
M  V30 237 H 21.1394 3.91044 -0.624571 0
M  V30 238 H 22.3134 3.13564 -3.3766 0
M  V30 239 H 20.6284 2.94739 -2.9414 0
M  V30 240 H 23.2254 5.18813 -1.29374 0
M  V30 241 H 23.5684 4.16228 0.0775055 0
M  V30 242 H 24.1014 3.66494 -1.54684 0
M  V30 243 H 20.8404 5.01193 -4.22476 0
M  V30 244 H 20.3604 5.42317 -2.56228 0
M  V30 245 H 22.0394 5.67988 -3.09837 0
M  V30 246 N 22.1715 0.800033 1.35784 0
M  V30 247 C 23.1015 0.220184 2.3246 0
M  V30 248 C 24.0825 -0.65073 1.57161 0
M  V30 249 O 25.2675 -0.582359 1.85263 0
M  V30 250 C 22.3975 -0.637353 3.41402 0
M  V30 251 C 21.3515 0.134531 4.27789 0
M  V30 252 C 20.6775 -0.844285 5.27992 0
M  V30 253 C 21.9775 1.32979 5.05088 0
M  V30 254 H 23.6715 1.02787 2.81203 0
M  V30 255 H 21.2175 0.495717 1.35199 0
M  V30 256 H 23.1705 -1.05302 4.08031 0
M  V30 257 H 21.8945 -1.47785 2.91251 0
M  V30 258 H 20.5535 0.531296 3.6273 0
M  V30 259 H 20.2015 -1.68011 4.74111 0
M  V30 260 H 19.9015 -0.332184 5.8666 0
M  V30 261 H 21.4255 -1.2583 5.97494 0
M  V30 262 H 22.8395 0.98934 5.64699 0
M  V30 263 H 21.2365 1.77593 5.7322 0
M  V30 264 H 22.3065 2.11978 4.36111 0
M  V30 265 N 23.6496 -1.47581 0.552962 0
M  V30 266 C 24.5796 -2.32762 -0.185451 0
M  V30 267 C 25.5606 -1.43527 -0.912905 0
M  V30 268 O 26.7456 -1.72388 -0.894201 0
M  V30 269 C 23.8756 -3.25219 -1.21859 0
M  V30 270 C 22.8296 -4.23661 -0.607864 0
M  V30 271 C 22.1556 -5.05413 -1.74533 0
M  V30 272 C 23.4556 -5.20481 0.435582 0
M  V30 273 H 25.1496 -2.94749 0.525684 0
M  V30 274 H 22.6956 -1.41738 0.254251 0
M  V30 275 H 24.6486 -3.8365 -1.7433 0
M  V30 276 H 23.3726 -2.61279 -1.95961 0
M  V30 277 H 22.0316 -3.66451 -0.104489 0
M  V30 278 H 21.6796 -4.3788 -2.47529 0
M  V30 279 H 21.3796 -5.72059 -1.34249 0
M  V30 280 H 22.9036 -5.66701 -2.27338 0
M  V30 281 H 24.3176 -5.733 -0.00290157 0
M  V30 282 H 22.7146 -5.95305 0.757067 0
M  V30 283 H 23.7846 -4.66217 1.33303 0
M  V30 284 N 25.1277 -0.289203 -1.54924 0
M  V30 285 C 26.0577 0.58549 -2.2604 0
M  V30 286 C 27.0387 1.14753 -1.25562 0
M  V30 287 O 28.2237 1.17906 -1.54311 0
M  V30 288 C 25.3537 1.76305 -2.99222 0
M  V30 289 C 24.3077 1.33191 -4.06748 0
M  V30 290 C 23.6337 2.5937 -4.6758 0
M  V30 291 C 24.9337 0.471775 -5.20165 0
M  V30 292 H 26.6277 -0.00763532 -2.99399 0
M  V30 293 H 24.1737 -0.00511229 -1.43999 0
M  V30 294 H 26.1267 2.38097 -3.47689 0
M  V30 295 H 24.8507 2.38223 -2.23422 0
M  V30 296 H 23.5097 0.737121 -3.59113 0
M  V30 297 H 23.1577 3.19576 -3.88433 0
M  V30 298 H 22.8577 2.31228 -5.40192 0
M  V30 299 H 24.3817 3.21985 -5.18804 0
M  V30 300 H 25.7957 0.995056 -5.64599 0
M  V30 301 H 24.1927 0.284639 -5.99425 0
M  V30 302 H 25.2627 -0.506041 -4.82252 0
M  V30 303 N 26.6058 1.57591 -0.0167156 0
M  V30 304 C 27.8308 1.9598 0.67872 0
M  V30 305 C 28.2558 0.892546 1.65575 0
M  V30 306 O 27.6138 -0.147772 1.80697 0
M  V30 307 C 27.6618 3.33468 1.37227 0
M  V30 308 O 26.7658 3.28954 2.48722 0
M  V30 309 H 26.1068 0.639339 0.17928 0
M  V30 310 H 28.6368 2.04463 -0.0748802 0
M  V30 311 H 28.6468 3.69417 1.7319 0
M  V30 312 H 27.3218 4.10694 0.656007 0
M  V30 313 H 25.8988 3.04705 2.14963 0
M  V30 314 N 28.0839 -0.256276 1.55502 0
M  V30 315 C 29.3119 -1.00342 1.8094 0
M  V30 316 C 29.7269 -1.79307 0.59114 0
M  V30 317 O 29.0839 -1.77114 -0.440081 0
M  V30 318 C 29.1349 -1.94875 3.04476 0
M  V30 319 O 28.8559 -1.19107 4.21598 0
M  V30 320 C 30.3569 -2.81266 3.42644 0
M  V30 321 H 27.5769 -0.295685 0.602338 0
M  V30 322 H 30.1209 -0.281998 2.02546 0
M  V30 323 H 28.2759 -2.62457 2.84947 0
M  V30 324 H 28.6899 -1.82969 4.91551 0
M  V30 325 H 30.1639 -3.43362 4.32211 0
M  V30 326 H 30.6409 -3.51897 2.62802 0
M  V30 327 H 31.2469 -2.1915 3.64491 0
M  V30 328 N 29.562 -1.4872 -0.521534 0
M  V30 329 C 30.492 -1.66771 -1.63431 0
M  V30 330 C 31.473 -0.516499 -1.62069 0
M  V30 331 O 32.658 -0.750013 -1.79132 0
M  V30 332 C 29.788 -1.71515 -3.01993 0
M  V30 333 C 28.742 -2.86222 -3.18216 0
M  V30 334 C 28.068 -2.76061 -4.57924 0
M  V30 335 C 29.368 -4.27419 -3.00184 0
M  V30 336 H 31.062 -2.59932 -1.48579 0
M  V30 337 H 28.608 -1.25089 -0.713358 0
M  V30 338 H 30.561 -1.82731 -3.7972 0
M  V30 339 H 29.285 -0.749393 -3.17886 0
M  V30 340 H 27.944 -2.74575 -2.42908 0
M  V30 341 H 27.592 -1.77437 -4.70665 0
M  V30 342 H 27.292 -3.53037 -4.69722 0
M  V30 343 H 28.816 -2.89256 -5.37739 0
M  V30 344 H 30.23 -4.39855 -3.67697 0
M  V30 345 H 28.627 -5.05458 -3.2347 0
M  V30 346 H 29.697 -4.43293 -1.96518 0
M  V30 347 N 31.0401 0.771051 -1.3745 0
M  V30 348 C 32.2681 1.56015 -1.35893 0
M  V30 349 C 32.6831 1.88718 0.0555523 0
M  V30 350 O 32.0401 1.51502 1.01752 0
M  V30 351 C 32.0911 2.87001 -2.19801 0
M  V30 352 O 31.8121 2.557 -3.55738 0
M  V30 353 C 33.3131 3.81228 -2.26231 0
M  V30 354 H 30.5331 0.483317 -0.465453 0
M  V30 355 H 33.0771 0.955611 -1.80799 0
M  V30 356 H 31.2321 3.43877 -1.78402 0
M  V30 357 H 31.6461 3.39584 -3.99729 0
M  V30 358 H 33.1201 4.70139 -2.89263 0
M  V30 359 H 33.5971 4.20409 -1.27093 0
M  V30 360 H 34.2031 3.30281 -2.67945 0
M  V30 361 N 32.5182 1.22032 0.997298 0
M  V30 362 C 33.7662 1.04016 1.73278 0
M  V30 363 C 34.0872 -0.426255 1.90284 0
M  V30 364 O 33.3572 -1.30694 1.45931 0
M  V30 365 H 31.9372 0.381897 0.642 0
M  V30 366 H 34.5992 1.5347 1.20137 0
M  V30 367 H 33.6952 1.51441 2.72896 0
M  V30 368 N 33.9963 -1.19345 1.0293 0
M  V30 369 C 35.4123 -1.41069 0.746446 0
M  V30 370 C 35.6123 -1.90078 -0.668776 0
M  V30 371 O 34.6683 -2.0778 -1.4347 0
M  V30 372 C 35.9813 -2.42141 1.78292 0
M  V30 373 C 37.5293 -2.55887 1.80252 0
M  V30 374 C 38.0043 -3.60214 2.8286 0
M  V30 375 N 39.4953 -3.67711 2.81679 0
M  V30 376 C 40.2303 -4.48128 3.57727 0
M  V30 377 N 39.7263 -5.32248 4.43491 0
M  V30 378 N 41.5193 -4.42782 3.46267 0
M  V30 379 H 33.6703 -0.858536 1.94275 0
M  V30 380 H 35.9333 -0.439541 0.839945 0
M  V30 381 H 35.6393 -2.13155 2.79746 0
M  V30 382 H 35.5133 -3.41323 1.60557 0
M  V30 383 H 37.9003 -2.84196 0.794757 0
M  V30 384 H 37.9813 -1.56858 2.02062 0
M  V30 385 H 37.6253 -3.32647 3.83807 0
M  V30 386 H 37.5553 -4.58895 2.58307 0
M  V30 387 H 40.0463 -3.07634 2.19476 0
M  V30 388 H 40.3593 -5.90729 4.98256 0
M  V30 389 H 38.7043 -5.31707 4.47564 0
M  V30 390 H 41.8953 -3.76107 2.78677 0
M  V30 391 H 42.0683 -5.05215 4.05785 0
M  V30 392 N 35.4744 -0.807222 -1.35358 0
M  V30 393 C 36.6994 -0.399309 -2.0352 0
M  V30 394 C 37.1244 0.981986 -1.60433 0
M  V30 395 O 36.4824 1.63601 -0.781299 0
M  V30 396 C 36.5304 -0.491552 -3.57234 0
M  V30 397 O 35.6344 0.494754 -4.09421 0
M  V30 398 H 34.9754 -0.166682 -0.642739 0
M  V30 399 H 37.5054 -1.09328 -1.72941 0
M  V30 400 H 37.5154 -0.361588 -4.06395 0
M  V30 401 H 36.1904 -1.49907 -3.87944 0
M  V30 402 H 34.7674 0.324977 -3.71481 0
M  V30 403 N 36.9525 1.47285 -0.560781 0
M  V30 404 C 38.1825 2.06555 -0.0429638 0
M  V30 405 C 38.5905 1.41339 1.25777 0
M  V30 406 O 37.9335 0.505182 1.76617 0
M  V30 407 C 37.9955 3.58827 0.219887 0
M  V30 408 C 37.6595 4.46105 -0.991944 0
M  V30 409 C 38.6565 4.84 -1.89843 0
M  V30 410 C 36.3415 4.87567 -1.20762 0
M  V30 411 C 38.3355 5.6216 -3.00425 0
M  V30 412 C 36.0225 5.65491 -2.31653 0
M  V30 413 C 37.0205 6.02699 -3.21315 0
M  V30 414 O 36.7085 6.79052 -4.30283 0
M  V30 415 H 36.4405 0.674537 -0.0444468 0
M  V30 416 H 38.9945 1.90225 -0.774818 0
M  V30 417 H 37.2245 3.73383 1.00609 0
M  V30 418 H 38.9135 4.00103 0.683522 0
M  V30 419 H 39.6795 4.52564 -1.74387 0
M  V30 420 H 35.5585 4.5807 -0.518893 0
M  V30 421 H 39.1025 5.9112 -3.70436 0
M  V30 422 H 34.9995 5.9634 -2.47081 0
M  V30 423 H 35.7675 6.9745 -4.28376 0
M  V30 424 N 38.4306 0.297415 1.54768 0
M  V30 425 C 39.6786 -0.312295 1.99673 0
M  V30 426 C 39.9996 -1.54686 1.18732 0
M  V30 427 O 39.2696 -1.93854 0.282382 0
M  V30 428 H 37.8496 -0.118381 0.73756 0
M  V30 429 H 40.5116 0.407915 1.90583 0
M  V30 430 H 39.6076 -0.586813 3.06534 0
M  V30 431 N 39.9087 -1.5758 0.0250728 0
M  V30 432 C 40.8407 -2.06869 -0.986796 0
M  V30 433 C 41.8537 -0.991332 -1.29137 0
M  V30 434 O 43.0427 -1.26761 -1.25674 0
M  V30 435 C 40.1427 -2.47486 -2.31525 0
M  V30 436 C 39.3157 -3.78253 -2.19643 0
M  V30 437 C 38.3747 -4.05464 -3.35388 0
M  V30 438 O 37.4007 -4.75774 -3.12454 0
M  V30 439 N 38.6027 -3.55321 -4.59051 0
M  V30 440 H 41.3677 -2.94302 -0.566276 0
M  V30 441 H 38.9287 -1.6109 -0.161776 0
M  V30 442 H 40.9207 -2.62785 -3.07776 0
M  V30 443 H 39.4907 -1.65441 -2.65232 0
M  V30 444 H 38.7107 -3.7279 -1.28144 0
M  V30 445 H 39.9987 -4.63936 -2.08903 0
M  V30 446 H 39.3967 -2.98431 -4.80578 0
M  V30 447 H 37.9537 -3.75905 -5.32483 0
M  V30 448 N 41.3868 0.248026 -1.55636 0
M  V30 449 C 42.7978 0.817177 -1.67866 0
M  V30 450 C 43.1488 1.86069 -0.622322 0
M  V30 451 O 42.2738 2.15157 0.231618 0
M  V30 452 C 42.8688 1.489 -3.04326 0
M  V30 453 C 41.4278 2.00587 -3.185 0
M  V30 454 C 40.5748 0.856573 -2.63739 0
M  V30 455 H 43.5258 0.0238579 -1.58682 0
M  V30 456 H 43.5468 2.35698 -2.98708 0
M  V30 457 H 43.0588 0.729279 -3.81186 0
M  V30 458 H 41.1598 2.79443 -2.4646 0
M  V30 459 H 41.2728 2.20402 -4.25393 0
M  V30 460 H 39.6368 1.25678 -2.21534 0
M  V30 461 H 40.4198 0.109953 -3.43124 0
M  V30 462 N 42.8649 1.48995 0.513639 0
M  V30 463 C 44.0899 1.61792 1.29762 0
M  V30 464 C 44.5149 0.284475 1.85936 0
M  V30 465 O 43.8729 -0.746185 1.65232 0
M  V30 466 C 43.9209 2.67993 2.41272 0
M  V30 467 O 43.0249 2.26287 3.44772 0
M  V30 468 H 42.3659 0.541963 0.38363 0
M  V30 469 H 44.8959 1.95097 0.616307 0
M  V30 470 H 44.9059 2.89772 2.87221 0
M  V30 471 H 43.5809 3.64791 1.9975 0
M  V30 472 H 42.1579 2.14788 3.04829 0
M  V30 473 N 44.343 -0.763751 1.37857 0
M  V30 474 C 45.273 -1.89103 1.36975 0
M  V30 475 C 46.254 -1.68439 0.237152 0
M  V30 476 O 47.439 -1.8918 0.438713 0
M  V30 477 C 44.569 -3.26496 1.18395 0
M  V30 478 C 43.523 -3.61741 2.28751 0
M  V30 479 C 42.849 -4.97762 1.95286 0
M  V30 480 C 44.149 -3.67665 3.70972 0
M  V30 481 H 45.843 -1.90099 2.31307 0
M  V30 482 H 43.389 -0.91319 1.11341 0
M  V30 483 H 45.342 -4.05003 1.16406 0
M  V30 484 H 44.066 -3.25955 0.205215 0
M  V30 485 H 42.725 -2.85547 2.29909 0
M  V30 486 H 42.373 -4.93769 0.959221 0
M  V30 487 H 42.073 -5.22313 2.69189 0
M  V30 488 H 43.597 -5.7866 1.94898 0
M  V30 489 H 45.011 -4.36307 3.719 0
M  V30 490 H 43.408 -4.03718 4.43995 0
M  V30 491 H 44.478 -2.68134 4.0402 0
M  V30 492 N 45.8211 -1.22559 -0.990812 0
M  V30 493 C 46.7531 -0.955325 -2.08342 0
M  V30 494 C 47.7661 0.0668408 -1.62663 0
M  V30 495 O 48.9551 -0.167421 -1.77713 0
M  V30 496 C 46.0551 -0.415566 -3.36342 0
M  V30 497 C 45.2281 -1.49544 -4.11042 0
M  V30 498 C 44.2871 -0.962399 -5.17324 0
M  V30 499 O 43.3131 -1.64907 -5.44788 0
M  V30 500 N 44.5151 0.215134 -5.80101 0
M  V30 501 H 47.2801 -1.89596 -2.32106 0
M  V30 502 H 44.8411 -1.13276 -1.15673 0
M  V30 503 H 46.8331 -0.0442386 -4.04676 0
M  V30 504 H 45.4031 0.430232 -3.09625 0
M  V30 505 H 44.6231 -2.04 -3.37309 0
M  V30 506 H 45.9111 -2.22195 -4.57719 0
M  V30 507 H 45.3091 0.789779 -5.6016 0
M  V30 508 H 43.8661 0.527826 -6.49659 0
M  V30 509 N 47.2992 1.18797 -1.03562 0
M  V30 510 C 48.5762 1.84469 -0.650434 0
M  V30 511 C 48.9562 1.92319 0.870433 0
M  V30 512 O 48.3042 1.44528 1.76986 0
M  V30 513 C 48.5142 3.2306 -1.32036 0
M  V30 514 C 49.8622 3.9915 -1.44792 0
M  V30 515 O 50.8862 3.32481 -1.27806 0
M  V30 516 O 49.7452 5.18587 -1.72423 0
M  V30 517 H 46.8392 0.795251 -0.226946 0
M  V30 518 H 49.3852 1.26231 -1.13419 0
M  V30 519 H 48.1572 3.1222 -2.3587 0
M  V30 520 H 47.7802 3.88949 -0.8249 0
M  V30 521 N 48.7773 0.814389 1.34928 0
M  V30 522 C 49.6873 0.231978 2.3345 0
M  V30 523 C 50.7033 -0.629139 1.62228 0
M  V30 524 O 51.8793 -0.539052 1.94052 0
M  V30 525 C 48.9443 -0.603482 3.41407 0
M  V30 526 C 48.0053 0.279037 4.28392 0
M  V30 527 C 47.2383 -0.516643 5.31193 0
M  V30 528 O 47.4613 -1.75068 5.4287 0
M  V30 529 O 46.3953 0.0965652 6.01823 0
M  V30 530 H 50.2213 1.04721 2.85074 0
M  V30 531 H 47.8063 0.576343 1.37836 0
M  V30 532 H 49.6883 -1.07908 4.0735 0
M  V30 533 H 48.3633 -1.39618 2.92042 0
M  V30 534 H 47.2703 0.801948 3.65403 0
M  V30 535 H 48.6033 1.03588 4.81176 0
M  V30 536 N 50.2554 -1.46986 0.568584 0
M  V30 537 C 51.1854 -2.32946 -0.160753 0
M  V30 538 C 52.1664 -1.44487 -0.897631 0
M  V30 539 O 53.3514 -1.73327 -0.875867 0
M  V30 540 C 50.4814 -3.26494 -1.18403 0
M  V30 541 C 49.4354 -4.24282 -0.562895 0
M  V30 542 C 48.7614 -5.07236 -1.69163 0
M  V30 543 C 50.0614 -5.19989 0.490761 0
M  V30 544 H 51.7554 -2.94175 0.556916 0
M  V30 545 H 49.3014 -1.4146 0.26927 0
M  V30 546 H 51.2544 -3.85477 -1.70251 0
M  V30 547 H 49.9784 -2.63343 -1.93179 0
M  V30 548 H 48.6374 -3.66541 -0.0656164 0
M  V30 549 H 48.2854 -4.4048 -2.42871 0
M  V30 550 H 47.9854 -5.7345 -1.28174 0
M  V30 551 H 49.5094 -5.6908 -2.21314 0
M  V30 552 H 50.9234 -5.73271 0.0579047 0
M  V30 553 H 49.3204 -5.94469 0.820165 0
M  V30 554 H 50.3904 -4.64777 1.3824 0
M  V30 555 N 51.7335 -0.305618 -1.54608 0
M  V30 556 C 52.6805 0.568421 -2.23691 0
M  V30 557 C 53.6505 1.12592 -1.22116 0
M  V30 558 O 54.8355 1.16959 -1.50749 0
M  V30 559 C 51.9755 1.7322 -2.98477 0
M  V30 560 C 51.0885 1.20566 -4.14835 0
M  V30 561 C 50.2235 2.33368 -4.77193 0
M  V30 562 C 49.2625 1.7787 -5.85686 0
M  V30 563 N 48.3995 2.84263 -6.4198 0
M  V30 564 H 53.2395 -0.0272867 -2.97988 0
M  V30 565 H 50.7765 -0.0252363 -1.47078 0
M  V30 566 H 52.7345 2.41675 -3.40072 0
M  V30 567 H 51.3645 2.29947 -2.26548 0
M  V30 568 H 50.4165 0.413223 -3.78149 0
M  V30 569 H 51.7285 0.759417 -4.92985 0
M  V30 570 H 50.8825 3.09761 -5.21664 0
M  V30 571 H 49.6215 2.8132 -3.98385 0
M  V30 572 H 48.6265 0.99968 -5.40635 0
M  V30 573 H 49.8515 1.30816 -6.66381 0
M  V30 574 H 47.7975 3.31541 -5.66053 0
M  V30 575 H 47.7145 2.44149 -7.15491 0
M  V30 576 H 48.9825 3.6054 -6.91109 0
M  V30 577 N 53.2116 1.57565 -0.0334293 0
M  V30 578 C 54.4886 1.83282 0.683163 0
M  V30 579 C 54.8686 0.91823 1.90084 0
M  V30 580 O 54.2166 -0.025113 2.28486 0
M  V30 581 C 54.4266 3.32599 1.0573 0
M  V30 582 C 55.7746 3.99179 1.44711 0
M  V30 583 O 56.7986 3.3712 1.15015 0
M  V30 584 O 55.6576 5.08565 2.0006 0
M  V30 585 H 52.7516 0.755869 0.335546 0
M  V30 586 H 55.2976 1.69589 -0.0614402 0
M  V30 587 H 54.0696 3.90834 0.190828 0
M  V30 588 H 53.6926 3.51415 1.85993 0
M  V30 589 N 54.6897 -0.239769 1.55765 0
M  V30 590 C 55.6377 -1.31668 1.91745 0
M  V30 591 C 56.6317 -1.49462 0.797338 0
M  V30 592 O 57.8377 -1.50852 0.982021 0
M  V30 593 H 54.2127 -0.441048 0.609082 0
M  V30 594 H 56.1837 -0.985923 2.81642 0
M  V30 595 C 54.9327 -2.66368 2.2348 0
M  V30 596 H 54.2557 -2.53478 3.09175 0
M  V30 597 H 55.6957 -3.40578 2.52553 0
M  V30 598 C 54.1547 -3.20002 1.05359 0
M  V30 599 O 54.6847 -4.00538 0.305261 0
M  V30 600 N 52.8907 -2.78126 0.842292 0
M  V30 601 H 52.4377 -2.12742 1.45253 0
M  V30 602 H 52.3957 -3.14354 0.053652 0
M  V30 603 N 56.1678 -1.49265 -0.50573 0
M  V30 604 C 57.3958 -1.62215 -1.28429 0
M  V30 605 C 57.8108 -0.291697 -1.86533 0
M  V30 606 O 57.1678 0.722233 -1.67601 0
M  V30 607 C 57.2188 -2.68735 -2.41793 0
M  V30 608 O 56.9398 -3.96619 -1.86078 0
M  V30 609 C 58.4408 -2.92346 -3.3324 0
M  V30 610 H 55.6608 -0.546239 -0.389697 0
M  V30 611 H 58.2048 -1.95265 -0.607609 0
M  V30 612 H 56.3598 -2.38476 -3.053 0
M  V30 613 H 56.7738 -4.55256 -2.60465 0
M  V30 614 H 58.2478 -3.70623 -4.09075 0
M  V30 615 H 58.7248 -2.02081 -3.89948 0
M  V30 616 H 59.3308 -3.24003 -2.75503 0
M  V30 617 N 57.6459 0.756429 -1.3826 0
M  V30 618 C 58.8739 1.54565 -1.3754 0
M  V30 619 C 59.2889 1.88767 0.0355331 0
M  V30 620 O 58.6459 1.52572 1.0014 0
M  V30 621 C 58.6969 2.84654 -2.22833 0
M  V30 622 O 58.4179 2.51912 -3.5843 0
M  V30 623 C 59.9189 3.78807 -2.30261 0
M  V30 624 H 57.1389 0.478353 -0.470553 0
M  V30 625 H 59.6829 0.936381 -1.81803 0
M  V30 626 H 57.8379 3.41965 -1.8204 0
M  V30 627 H 58.2519 3.35325 -4.03308 0
M  V30 628 H 59.7259 4.67045 -2.94233 0
M  V30 629 H 60.2029 4.19038 -1.31545 0
M  V30 630 H 60.8089 3.2742 -2.71433 0
M  V30 631 N 59.124 1.23083 0.984299 0
M  V30 632 C 60.37 1.06214 1.72761 0
M  V30 633 C 60.703 -0.400584 1.90024 0
M  V30 634 O 59.978 -1.29672 1.44967 0
M  V30 635 C 60.261 1.78375 3.12817 0
M  V30 636 C 60.114 3.32296 3.03149 0
M  V30 637 C 61.433 1.54309 4.12161 0
M  V30 638 H 58.552 0.387251 0.627061 0
M  V30 639 H 61.194 1.51536 1.14616 0
M  V30 640 H 59.344 1.39848 3.62457 0
M  V30 641 H 61.016 3.8032 2.61064 0
M  V30 642 H 59.259 3.6153 2.39747 0
M  V30 643 H 59.93 3.77972 4.02295 0
M  V30 644 H 62.406 1.87791 3.71314 0
M  V30 645 H 61.282 2.07281 5.08258 0
M  V30 646 H 61.543 0.477572 4.39513 0
M  V30 647 N 60.6021 -1.18246 1.0419 0
M  V30 648 C 61.8491 -1.88257 0.746017 0
M  V30 649 C 62.1771 -1.80429 -0.726331 0
M  V30 650 O 61.4321 -1.2 -1.54591 0
M  V30 651 C 61.7311 -3.38082 1.15911 0
M  V30 652 C 61.3971 -3.66114 2.63195 0
M  V30 653 C 60.0591 -3.73474 3.03432 0
M  V30 654 C 62.4111 -3.78398 3.5842 0
M  V30 655 C 59.7391 -3.90599 4.37778 0
M  V30 656 C 62.0911 -3.97039 4.92487 0
M  V30 657 C 60.7551 -4.02635 5.32392 0
M  V30 658 H 60.0251 -0.688883 0.272987 0
M  V30 659 H 62.6721 -1.3995 1.30715 0
M  V30 660 H 60.9771 -3.88377 0.516806 0
M  V30 661 H 62.6741 -3.90596 0.907516 0
M  V30 662 H 59.2641 -3.61003 2.3103 0
M  V30 663 H 63.4481 -3.72042 3.28479 0
M  V30 664 H 58.7041 -3.93175 4.68213 0
M  V30 665 H 62.8781 -4.05486 5.66175 0
M  V30 666 H 60.5051 -4.15657 6.36501 0
M  V30 667 N 62.0802 -0.821533 -1.34494 0
M  V30 668 C 63.3082 -0.421884 -2.02553 0
M  V30 669 C 63.7232 0.971745 -1.61872 0
M  V30 670 O 63.0802 1.62864 -0.823496 0
M  V30 671 C 63.1312 -0.51285 -3.57844 0
M  V30 672 O 62.8522 -1.85155 -3.97051 0
M  V30 673 C 64.3532 -0.107921 -4.43169 0
M  V30 674 H 61.5732 -0.169482 -0.649243 0
M  V30 675 H 64.1172 -1.1093 -1.71798 0
M  V30 676 H 62.2722 0.126474 -3.87193 0
M  V30 677 H 62.6862 -1.82482 -4.91732 0
M  V30 678 H 64.1602 -0.222657 -5.51551 0
M  V30 679 H 64.6372 0.948401 -4.28838 0
M  V30 680 H 65.2432 -0.720989 -4.19144 0
M  V30 681 N 63.5583 1.46682 -0.576371 0
M  V30 682 C 64.9743 1.57822 -0.237562 0
M  V30 683 C 65.1743 1.57237 1.26011 0
M  V30 684 O 64.2303 1.48596 2.04146 0
M  V30 685 C 65.5433 2.87499 -0.881168 0
M  V30 686 C 67.0913 3.01119 -0.85417 0
M  V30 687 C 67.5663 4.33524 -1.4772 0
M  V30 688 N 69.0573 4.40207 -1.44125 0
M  V30 689 C 69.7923 5.4126 -1.89276 0
M  V30 690 N 69.2883 6.49021 -2.42371 0
M  V30 691 N 71.0813 5.32422 -1.80231 0
M  V30 692 H 63.2323 1.45306 -1.54919 0
M  V30 693 H 65.4953 0.692733 -0.647167 0
M  V30 694 H 65.2013 2.9372 -1.93447 0
M  V30 695 H 65.0753 3.75224 -0.385592 0
M  V30 696 H 67.4623 2.94485 0.190491 0
M  V30 697 H 67.5433 2.14887 -1.3877 0
M  V30 698 H 67.1873 4.40916 -2.52103 0
M  V30 699 H 67.1173 5.1852 -0.918947 0
M  V30 700 H 69.6083 3.62931 -1.05307 0
M  V30 701 H 69.9213 7.2233 -2.74698 0
M  V30 702 H 68.2663 6.49858 -2.46393 0
M  V30 703 H 71.4573 4.47137 -1.38514 0
M  V30 704 H 71.6303 6.11034 -2.15735 0
M  V30 705 N 65.0364 0.313813 1.54444 0
M  V30 706 C 66.2854 -0.292519 1.99568 0
M  V30 707 C 66.5984 -1.54011 1.20582 0
M  V30 708 O 67.8044 -2.22183 1.56035 0
M  V30 709 C 66.2604 -0.571752 3.55329 0
M  V30 710 C 65.8684 0.658229 4.43138 0
M  V30 711 C 67.6124 -1.13857 4.08946 0
M  V30 712 C 65.5194 0.351439 5.90355 0
M  V30 713 H 64.4494 -0.113079 0.745472 0
M  V30 714 H 67.1004 0.424518 1.78522 0
M  V30 715 H 65.4824 -1.34872 3.72325 0
M  V30 716 H 66.6564 1.43403 4.37918 0
M  V30 717 H 64.9714 1.14458 4.0036 0
M  V30 718 H 67.5684 -1.38257 5.16516 0
M  V30 719 H 67.9114 -2.08489 3.6033 0
M  V30 720 H 68.4444 -0.423015 3.95544 0
M  V30 721 H 65.1834 1.26667 6.43145 0
M  V30 722 H 64.7034 -0.386842 5.98551 0
M  V30 723 H 66.3824 -0.0423134 6.46986 0
M  V30 724 N 66.5145 -1.57545 0.0417849 0
M  V30 725 C 67.4445 -2.14009 -0.933929 0
M  V30 726 C 68.4255 -1.05938 -1.33083 0
M  V30 727 O 69.6105 -1.33833 -1.40721 0
M  V30 728 C 66.7405 -2.67747 -2.21199 0
M  V30 729 C 65.6945 -3.80718 -1.95544 0
M  V30 730 C 65.0205 -4.20935 -3.29724 0
M  V30 731 C 66.3205 -5.06258 -1.28452 0
M  V30 732 H 68.0145 -2.95788 -0.463645 0
M  V30 733 H 65.5605 -1.42285 -0.221573 0
M  V30 734 H 67.5135 -3.05886 -2.89848 0
M  V30 735 H 66.2375 -1.83147 -2.70416 0
M  V30 736 H 64.8965 -3.43037 -1.2931 0
M  V30 737 H 64.5445 -3.33298 -3.76724 0
M  V30 738 H 64.2445 -4.9707 -3.13361 0
M  V30 739 H 65.7685 -4.61666 -3.9962 0
M  V30 740 H 67.1825 -5.41903 -1.8712 0
M  V30 741 H 65.5795 -5.87475 -1.22445 0
M  V30 742 H 66.6495 -4.84207 -0.259219 0
M  V30 743 N 67.9926 0.231505 -1.5589 0
M  V30 744 C 69.2696 0.981096 -1.69215 0
M  V30 745 C 69.6496 2.02799 -0.586164 0
M  V30 746 O 68.9976 2.24823 0.408253 0
M  V30 747 C 69.2076 1.60054 -3.10135 0
M  V30 748 C 70.5556 2.09658 -3.69227 0
M  V30 749 O 71.5796 1.69967 -3.13033 0
M  V30 750 O 70.4386 2.8258 -4.67772 0
M  V30 751 H 67.5326 0.457653 -0.688827 0
M  V30 752 H 70.0786 0.224073 -1.68214 0
M  V30 753 H 68.8506 0.844105 -3.82087 0
M  V30 754 H 68.4736 2.42336 -3.15212 0
M  V30 755 N 69.4707 1.49531 0.497807 0
M  V30 756 C 70.8867 1.36365 0.829266 0
M  V30 757 C 71.0867 0.399184 1.97506 0
M  V30 758 O 70.1427 -0.167977 2.51941 0
M  V30 759 C 71.4557 2.77153 1.16647 0
M  V30 760 C 73.0037 2.85877 1.27449 0
M  V30 761 C 73.4787 4.2744 1.64497 0
M  V30 762 N 74.9697 4.30265 1.7154 0
M  V30 763 C 75.7047 5.3677 2.01656 0
M  V30 764 N 75.2007 6.53516 2.29976 0
M  V30 765 N 76.9937 5.24189 2.02934 0
M  V30 766 H 69.1447 2.10831 -0.257703 0
M  V30 767 H 71.4077 0.946534 -0.0527091 0
M  V30 768 H 71.1137 3.49442 0.397872 0
M  V30 769 H 70.9877 3.12722 2.10915 0
M  V30 770 H 73.3747 2.13824 2.0338 0
M  V30 771 H 73.4557 2.53887 0.312244 0
M  V30 772 H 73.0997 5.00021 0.891151 0
M  V30 773 H 73.0297 4.56896 2.61827 0
M  V30 774 H 75.5207 3.4607 1.51802 0
M  V30 775 H 75.8337 7.30506 2.52153 0
M  V30 776 H 74.1787 6.56737 2.27425 0
M  V30 777 H 77.3697 4.31988 1.80289 0
M  V30 778 H 77.5427 6.07286 2.26071 0
M  V30 779 N 70.9488 -0.749086 1.3866 0
M  V30 780 C 71.8788 -1.8764 1.38973 0
M  V30 781 C 72.8598 -1.68178 0.255004 0
M  V30 782 O 74.0448 -1.88704 0.458754 0
M  V30 783 C 71.1748 -3.25222 1.21851 0
M  V30 784 C 70.1288 -3.59295 2.32575 0
M  V30 785 C 69.4548 -4.95663 2.00555 0
M  V30 786 C 70.7548 -3.63709 3.7485 0
M  V30 787 H 72.4488 -1.87635 2.3331 0
M  V30 788 H 69.9948 -0.901329 1.12303 0
M  V30 789 H 71.9478 -4.03746 1.20695 0
M  V30 790 H 70.6718 -3.25719 0.239775 0
M  V30 791 H 69.3308 -2.83093 2.32925 0
M  V30 792 H 68.9788 -4.92724 1.01154 0
M  V30 793 H 68.6788 -5.19429 2.74714 0
M  V30 794 H 70.2028 -5.7656 2.01024 0
M  V30 795 H 71.6168 -4.32338 3.76506 0
M  V30 796 H 70.0138 -3.98986 4.48252 0
M  V30 797 H 71.0838 -2.63834 4.06841 0
M  V30 798 N 72.4269 -1.23603 -0.977757 0
M  V30 799 C 73.3569 -1.04401 -2.0886 0
M  V30 800 C 74.3379 0.0399052 -1.70053 0
M  V30 801 O 75.5229 -0.125246 -1.93796 0
M  V30 802 C 72.6529 -0.637269 -3.41403 0
M  V30 803 C 71.6069 -1.66883 -3.94124 0
M  V30 804 C 70.9329 -1.11745 -5.22893 0
M  V30 805 C 72.2329 -3.06247 -4.23096 0
M  V30 806 H 73.9269 -1.97316 -2.25182 0
M  V30 807 H 71.4729 -0.950096 -1.08209 0
M  V30 808 H 73.4259 -0.48998 -4.18542 0
M  V30 809 H 72.1499 0.327557 -3.24953 0
M  V30 810 H 70.8089 -1.80416 -3.19133 0
M  V30 811 H 70.4569 -0.143527 -5.02795 0
M  V30 812 H 70.1569 -1.80672 -5.59134 0
M  V30 813 H 71.6809 -0.982067 -6.02651 0
M  V30 814 H 73.0949 -2.96001 -4.90975 0
M  V30 815 H 71.4919 -3.72436 -4.70544 0
M  V30 816 H 72.5619 -3.55041 -3.30263 0
M  V30 817 N 73.905 1.17692 -1.04816 0
M  V30 818 C 75.182 1.83768 -0.669963 0
M  V30 819 C 75.562 1.93232 0.849986 0
M  V30 820 O 74.91 1.46397 1.75443 0
M  V30 821 C 75.12 3.21641 -1.35455 0
M  V30 822 C 76.468 3.97592 -1.49017 0
M  V30 823 O 77.492 3.31107 -1.31326 0
M  V30 824 O 76.351 5.16729 -1.77914 0
M  V30 825 H 73.445 0.792799 -0.235368 0
M  V30 826 H 75.991 1.25021 -1.14751 0
M  V30 827 H 74.763 3.097 -2.39168 0
M  V30 828 H 74.386 3.88052 -0.866107 0
M  V30 829 N 75.3831 0.828654 1.34056 0
M  V30 830 C 76.6311 0.41863 1.97717 0
M  V30 831 C 76.9521 -1.02314 1.66002 0
M  V30 832 O 76.2221 -1.71119 0.953683 0
M  V30 833 H 74.8021 0.151809 0.731412 0
M  V30 834 H 77.4641 1.05936 1.63596 0
M  V30 835 H 76.5601 0.542318 3.07352 0
M  V30 836 N 76.8612 -1.46375 0.584142 0
M  V30 837 C 78.0912 -2.06461 0.0758195 0
M  V30 838 C 78.4992 -1.43322 -1.23512 0
M  V30 839 O 77.8422 -0.533216 -1.75791 0
M  V30 840 C 77.9042 -3.59131 -0.162773 0
M  V30 841 C 77.5682 -4.4447 1.06279 0
M  V30 842 C 78.5652 -4.80918 1.97519 0
M  V30 843 C 76.2502 -4.85584 1.28504 0
M  V30 844 C 78.2442 -5.57309 3.09331 0
M  V30 845 C 75.9312 -5.61734 2.4062 0
M  V30 846 C 76.9292 -5.9751 3.30863 0
M  V30 847 O 76.6172 -6.72121 4.41032 0
M  V30 848 H 76.3492 -0.673745 0.0551725 0
M  V30 849 H 78.9032 -1.88969 0.804984 0
M  V30 850 H 77.1332 -3.74936 -0.946565 0
M  V30 851 H 78.8222 -4.0114 -0.619782 0
M  V30 852 H 79.5882 -4.49732 1.81565 0
M  V30 853 H 75.4672 -4.57187 0.591702 0
M  V30 854 H 79.0112 -5.85152 3.79793 0
M  V30 855 H 74.9082 -5.92334 2.56537 0
M  V30 856 H 75.6762 -6.90547 4.39417 0
M  V30 857 N 78.3393 -0.321999 -1.54275 0
M  V30 858 C 79.6163 0.335232 -1.92706 0
M  V30 859 C 79.9963 1.70006 -1.25145 0
M  V30 860 O 79.3443 2.25067 -0.394596 0
M  V30 861 C 79.5543 0.429008 -3.46353 0
M  V30 862 C 80.9023 0.690029 -4.18956 0
M  V30 863 O 81.9263 0.511992 -3.52501 0
M  V30 864 O 80.7853 1.03338 -5.36641 0
M  V30 865 H 77.8793 0.191143 -0.804608 0
M  V30 866 H 80.4253 -0.3716 -1.65581 0
M  V30 867 H 79.1973 -0.529611 -3.87699 0
M  V30 868 H 78.8203 1.18348 -3.79578 0
M  V30 869 N 79.8174 1.5752 -0.0501392 0
M  V30 870 C 80.7654 2.12651 0.942459 0
M  V30 871 C 81.7594 1.05807 1.32292 0
M  V30 872 O 82.9654 1.24217 1.3027 0
M  V30 873 H 79.3404 0.679673 0.321789 0
M  V30 874 H 81.3114 2.94951 0.452356 0
M  V30 875 C 80.0604 2.68565 2.20836 0
M  V30 876 H 79.3834 3.50439 1.92439 0
M  V30 877 H 80.8234 3.10761 2.8845 0
M  V30 878 C 79.2824 1.62291 2.95234 0
M  V30 879 O 79.8124 1.03508 3.88135 0
M  V30 880 N 78.0184 1.33836 2.57946 0
M  V30 881 H 77.5654 1.81826 1.82475 0
M  V30 882 H 77.5234 0.629595 3.08032 0
M  V30 883 N 81.2955 -0.223234 1.56011 0
M  V30 884 C 82.7115 -0.572856 1.48965 0
M  V30 885 C 82.9115 -1.87225 0.74492 0
M  V30 886 O 81.9675 -2.50899 0.283896 0
M  V30 887 C 83.2805 -0.653646 2.9351 0
M  V30 888 C 84.8285 -0.744386 3.0402 0
M  V30 889 C 85.3035 -0.856535 4.49919 0
M  V30 890 N 86.7945 -0.9208 4.53955 0
M  V30 891 C 87.5295 -1.02726 5.64123 0
M  V30 892 N 87.0255 -1.09777 6.84047 0
M  V30 893 N 88.8185 -1.06226 5.51971 0
M  V30 894 H 80.9695 0.629462 2.02858 0
M  V30 895 H 83.2325 0.220621 0.921971 0
M  V30 896 H 82.9385 0.231518 3.50937 0
M  V30 897 H 82.8125 -1.51781 3.45315 0
M  V30 898 H 85.1995 -1.61999 2.46658 0
M  V30 899 H 85.2805 0.14541 2.55386 0
M  V30 900 H 84.9245 0.0146069 5.07898 0
M  V30 901 H 84.8545 -1.76172 4.96257 0
M  V30 902 H 87.3455 -0.876694 3.6759 0
M  V30 903 H 87.6585 -1.17872 7.63758 0
M  V30 904 H 86.0035 -1.06693 6.86762 0
M  V30 905 H 89.1945 -1.00382 4.5721 0
M  V30 906 H 89.3675 -1.14177 6.37862 0
M  V30 907 N 82.7736 -1.49793 -0.48987 0
M  V30 908 C 83.7036 -1.70201 -1.59856 0
M  V30 909 C 84.6846 -0.55076 -1.60937 0
M  V30 910 O 85.8696 -0.787841 -1.77501 0
M  V30 911 C 82.9996 -1.77882 -2.98287 0
M  V30 912 C 81.9536 -2.92907 -3.12073 0
M  V30 913 C 81.2796 -2.85712 -4.51965 0
M  V30 914 C 82.5796 -4.3369 -2.91051 0
M  V30 915 H 84.2736 -2.63025 -1.43032 0
M  V30 916 H 81.8196 -1.26574 -0.686664 0
M  V30 917 H 83.7726 -1.90744 -3.75759 0
M  V30 918 H 82.4966 -0.816653 -3.16225 0
M  V30 919 H 81.1556 -2.79665 -2.37029 0
M  V30 920 H 80.8036 -1.8738 -4.66795 0
M  V30 921 H 80.5036 -3.62921 -4.62128 0
M  V30 922 H 82.0276 -3.00598 -5.31482 0
M  V30 923 H 83.4416 -4.47555 -3.58284 0
M  V30 924 H 81.8386 -5.12205 -3.12675 0
M  V30 925 H 82.9086 -4.47362 -1.87071 0
M  V30 926 N 84.2517 0.741722 -1.39055 0
M  V30 927 C 85.6677 1.04638 -1.20512 0
M  V30 928 C 85.8677 2.01405 -0.0620218 0
M  V30 929 O 84.9237 2.45547 0.588457 0
M  V30 930 C 86.2367 1.6151 -2.53643 0
M  V30 931 C 87.7847 1.73623 -2.6043 0
M  V30 932 C 88.2597 2.33906 -3.93767 0
M  V30 933 N 89.7507 2.41323 -3.9537 0
M  V30 934 C 90.4857 2.88888 -4.95309 0
M  V30 935 N 89.9817 3.36401 -6.05645 0
M  V30 936 N 91.7747 2.88037 -4.82692 0
M  V30 937 H 83.9257 0.0998155 -2.12165 0
M  V30 938 H 86.1887 0.106907 -0.941953 0
M  V30 939 H 85.8947 0.978739 -3.37807 0
M  V30 940 H 85.7687 2.60411 -2.72885 0
M  V30 941 H 88.1557 2.36384 -1.76655 0
M  V30 942 H 88.2367 0.733945 -2.45045 0
M  V30 943 H 87.8807 1.71776 -4.7797 0
M  V30 944 H 87.8107 3.34799 -4.06469 0
M  V30 945 H 90.3017 2.07734 -3.15682 0
M  V30 946 H 90.6147 3.71186 -6.77821 0
M  V30 947 H 88.9597 3.34427 -6.09248 0
M  V30 948 H 92.1507 2.50237 -3.95599 0
M  V30 949 H 92.3237 3.24792 -5.60726 0
M  V30 950 N 85.7298 1.2412 0.971189 0
M  V30 951 C 87.1408 1.07236 1.52831 0
M  V30 952 C 87.4918 -0.357352 1.92918 0
M  V30 953 O 86.6168 -1.24528 1.76979 0
M  V30 954 C 87.2118 1.94043 2.77728 0
M  V30 955 C 85.7708 1.81394 3.29808 0
M  V30 956 C 84.9178 1.89189 2.02738 0
M  V30 957 H 87.8688 1.37648 0.789864 0
M  V30 958 H 87.8898 1.47066 3.5093 0
M  V30 959 H 87.4018 2.98093 2.4852 0
M  V30 960 H 85.5028 0.801634 3.63874 0
M  V30 961 H 85.6158 2.65294 3.98944 0
M  V30 962 H 83.9798 1.32877 2.17292 0
M  V30 963 H 84.7628 2.94812 1.759 0
M  V30 964 N 87.2079 -1.17134 1.05439 0
M  V30 965 C 88.4559 -1.87085 0.764429 0
M  V30 966 C 88.7769 -1.81584 -0.710787 0
M  V30 967 O 88.0469 -1.24349 -1.51374 0
M  V30 968 H 86.6269 -0.692627 0.279779 0
M  V30 969 H 89.2889 -1.42087 1.33406 0
M  V30 970 H 88.3849 -2.92759 1.0816 0
M  V30 971 N 88.686 -0.835752 -1.33615 0
M  V30 972 C 89.616 -0.281739 -2.31794 0
M  V30 973 C 90.597 0.608833 -1.58831 0
M  V30 974 O 91.782 0.533035 -1.86741 0
M  V30 975 C 88.912 0.546612 -3.42971 0
M  V30 976 C 87.866 -0.247904 -4.27281 0
M  V30 977 C 87.192 0.704001 -5.30045 0
M  V30 978 C 88.492 -1.46324 -5.01385 0
M  V30 979 H 90.186 -1.10206 -2.78379 0
M  V30 980 H 87.732 -0.531388 -1.33837 0
M  V30 981 H 89.685 0.944467 -4.1068 0
M  V30 982 H 88.409 1.40011 -2.95067 0
M  V30 983 H 87.068 -0.627281 -3.61194 0
M  V30 984 H 86.716 1.55381 -4.78399 0
M  V30 985 H 86.416 0.176524 -5.87335 0
M  V30 986 H 87.94 1.09944 -6.0062 0
M  V30 987 H 89.354 -1.13871 -5.61877 0
M  V30 988 H 87.751 -1.92728 -5.6831 0
M  V30 989 H 88.821 -2.23467 -4.30338 0
M  V30 990 N 90.1641 1.46063 -0.591896 0
M  V30 991 C 91.4121 2.01938 -0.0808391 0
M  V30 992 C 91.7331 1.46475 1.28725 0
M  V30 993 O 91.0031 0.652944 1.84698 0
M  V30 994 H 89.5831 0.746516 -0.0268938 0
M  V30 995 H 92.2451 1.79055 -0.769752 0
M  V30 996 H 91.3411 3.12094 -0.0187578 0
M  V30 997 N 91.6422 0.330177 1.54103 0
M  V30 998 C 92.5522 -0.541534 2.28264 0
M  V30 999 C 93.5682 -1.12351 1.32866 0
M  V30 1000 O 94.7442 -1.14206 1.65888 0
M  V30 1001 C 91.8092 -1.68322 3.03098 0
M  V30 1002 C 90.8702 -1.13238 4.14096 0
M  V30 1003 C 90.1032 -2.21966 4.85352 0
M  V30 1004 O 90.3262 -3.42437 4.56172 0
M  V30 1005 O 89.2602 -1.87013 5.7211 0
M  V30 1006 H 93.0862 0.060938 3.03639 0
M  V30 1007 H 90.6712 0.09565 1.49093 0
M  V30 1008 H 92.5532 -2.34777 3.49939 0
M  V30 1009 H 91.2282 -2.27176 2.30593 0
M  V30 1010 H 90.1352 -0.432736 3.71589 0
M  V30 1011 H 91.4682 -0.588898 4.88664 0
M  V30 1012 N 93.1203 -1.57491 0.0584922 0
M  V30 1013 C 94.5363 -1.56792 -0.298091 0
M  V30 1014 C 94.7363 -1.06679 -1.70944 0
M  V30 1015 O 93.7923 -0.726672 -2.41818 0
M  V30 1016 C 95.1053 -3.00461 -0.119879 0
M  V30 1017 C 96.6533 -3.1242 -0.190428 0
M  V30 1018 C 97.1283 -4.57982 -0.0406567 0
M  V30 1019 N 98.6193 -4.63099 -0.0966958 0
M  V30 1020 C 99.3543 -5.734 -0.00502943 0
M  V30 1021 N 98.8503 -6.9266 0.139402 0
M  V30 1022 N 100.643 -5.62067 -0.0611391 0
M  V30 1023 H 92.7943 -1.88386 0.98105 0
M  V30 1024 H 95.0573 -0.867865 0.381463 0
M  V30 1025 H 94.7633 -3.41187 0.85349 0
M  V30 1026 H 94.6373 -3.66843 -0.877833 0
M  V30 1027 H 97.0243 -2.71589 -1.15427 0
M  V30 1028 H 97.1053 -2.48702 0.598405 0
M  V30 1029 H 96.7493 -4.995 0.919897 0
M  V30 1030 H 96.6793 -5.19715 -0.848727 0
M  V30 1031 H 99.1703 -3.77331 -0.207277 0
M  V30 1032 H 99.4833 -7.72536 0.201855 0
M  V30 1033 H 97.8283 -6.94781 0.174586 0
M  V30 1034 H 101.019 -4.67782 -0.172583 0
M  V30 1035 H 101.192 -6.47999 0.0137562 0
M  V30 1036 N 94.5984 0.214957 -1.56127 0
M  V30 1037 C 95.8444 0.939762 -1.79712 0
M  V30 1038 C 96.1774 1.83723 -0.629247 0
M  V30 1039 O 95.4524 1.90925 0.371197 0
M  V30 1040 C 95.7354 1.77306 -3.13424 0
M  V30 1041 C 95.5884 0.90164 -4.40671 0
M  V30 1042 C 96.9074 2.74956 -3.43638 0
M  V30 1043 H 94.0264 0.340214 -0.653776 0
M  V30 1044 H 96.6684 0.20824 -1.88855 0
M  V30 1045 H 94.8184 2.39673 -3.0576 0
M  V30 1046 H 96.4904 0.294206 -4.60361 0
M  V30 1047 H 94.7334 0.207368 -4.33304 0
M  V30 1048 H 95.4044 1.51923 -5.30682 0
M  V30 1049 H 97.8804 2.22724 -3.51473 0
M  V30 1050 H 96.7564 3.30358 -4.38355 0
M  V30 1051 H 97.0174 3.53023 -2.66134 0
M  V30 1052 N 96.0765 1.50051 0.48192 0
M  V30 1053 C 97.3045 1.64237 1.25832 0
M  V30 1054 C 97.7195 0.321336 1.86045 0
M  V30 1055 O 97.0765 -0.695478 1.68729 0
M  V30 1056 C 97.1275 2.72548 2.37487 0
M  V30 1057 O 96.8485 3.99529 1.79745 0
M  V30 1058 C 98.3495 2.9761 3.28547 0
M  V30 1059 H 95.5695 0.55237 0.380957 0
M  V30 1060 H 98.1135 1.96207 0.576467 0
M  V30 1061 H 96.2685 2.43303 3.01467 0
M  V30 1062 H 96.6825 4.59342 2.5319 0
M  V30 1063 H 98.1565 3.77084 4.03127 0
M  V30 1064 H 98.6335 2.0826 3.86684 0
M  V30 1065 H 99.2395 3.28345 2.70314 0
M  V30 1066 N 97.5546 -0.734337 1.39446 0
M  V30 1067 C 98.4646 -1.87879 1.40495 0
M  V30 1068 C 99.4806 -1.714 0.299672 0
M  V30 1069 O 100.657 -1.93991 0.541249 0
M  V30 1070 C 97.7216 -3.23477 1.24754 0
M  V30 1071 C 96.7826 -3.52344 2.45259 0
M  V30 1072 C 96.0156 -4.81473 2.30259 0
M  V30 1073 O 96.2386 -5.55237 1.30643 0
M  V30 1074 O 95.1726 -5.10254 3.19256 0
M  V30 1075 H 98.9986 -1.89949 2.36966 0
M  V30 1076 H 96.5836 -0.882243 1.20569 0
M  V30 1077 H 98.4656 -4.04509 1.18111 0
M  V30 1078 H 97.1406 -3.22176 0.313781 0
M  V30 1079 H 96.0476 -2.71396 2.57478 0
M  V30 1080 H 97.3806 -3.58426 3.37331 0
M  V30 1081 N 99.0327 -1.24633 -0.964593 0
M  V30 1082 C 100.279 -1.08949 -1.71049 0
M  V30 1083 C 100.612 0.370302 -1.90637 0
M  V30 1084 O 99.8867 1.27349 -1.47011 0
M  V30 1085 C 100.17 -1.83329 -3.0994 0
M  V30 1086 C 100.023 -3.37077 -2.97824 0
M  V30 1087 C 101.342 -1.60846 -4.09654 0
M  V30 1088 H 98.4607 -0.397178 -0.620821 0
M  V30 1089 H 101.103 -1.5334 -1.12191 0
M  V30 1090 H 99.2527 -1.45597 -3.60186 0
M  V30 1091 H 100.925 -3.84425 -2.5498 0
M  V30 1092 H 99.1677 -3.65298 -2.33965 0
M  V30 1093 H 99.8387 -3.84324 -3.96231 0
M  V30 1094 H 102.315 -1.93674 -3.68279 0
M  V30 1095 H 101.191 -2.1534 -5.04896 0
M  V30 1096 H 101.452 -0.547434 -4.38698 0
M  V30 1097 N 100.511 1.16574 -1.06058 0
M  V30 1098 C 101.458 2.20883 -0.669263 0
M  V30 1099 C 102.428 1.62729 0.332918 0
M  V30 1100 O 103.613 1.895 0.222346 0
M  V30 1101 C 100.753 3.45049 -0.0593572 0
M  V30 1102 C 99.8658 4.17458 -1.11143 0
M  V30 1103 C 99.0008 5.29135 -0.467916 0
M  V30 1104 C 98.0398 5.93343 -1.50369 0
M  V30 1105 N 97.1768 6.96516 -0.883706 0
M  V30 1106 H 102.017 2.53709 -1.5632 0
M  V30 1107 H 99.5538 1.24616 -0.781625 0
M  V30 1108 H 101.512 4.16033 0.311771 0
M  V30 1109 H 100.142 3.12781 0.797992 0
M  V30 1110 H 99.1938 3.45101 -1.60029 0
M  V30 1111 H 100.506 4.61307 -1.89731 0
M  V30 1112 H 99.6598 6.06684 -0.0436871 0
M  V30 1113 H 98.3988 4.86443 0.349864 0
M  V30 1114 H 97.4038 5.14517 -1.93784 0
M  V30 1115 H 98.6288 6.38114 -2.32352 0
M  V30 1116 H 96.5748 6.55943 -0.086595 0
M  V30 1117 H 96.4918 7.38723 -1.607 0
M  V30 1118 H 97.7598 7.77993 -0.484543 0
M  V30 1119 N 101.989 0.842826 1.3317 0
M  V30 1120 C 103.217 0.454055 2.01856 0
M  V30 1121 C 103.632 -0.94587 1.63397 0
M  V30 1122 O 102.989 -1.61534 0.849302 0
M  V30 1123 C 103.04 0.569715 3.56982 0
M  V30 1124 O 102.761 1.91448 3.94055 0
M  V30 1125 C 104.262 0.178412 4.42941 0
M  V30 1126 H 101.482 0.17979 0.646465 0
M  V30 1127 H 104.026 1.1365 1.70012 0
M  V30 1128 H 102.181 -0.0648587 3.87346 0
M  V30 1129 H 102.595 1.90282 4.88767 0
M  V30 1130 H 104.069 0.310376 5.51127 0
M  V30 1131 H 104.546 -0.880056 4.30293 0
M  V30 1132 H 105.152 0.787579 4.17944 0
M  V30 1133 N 103.467 -1.45747 0.599634 0
M  V30 1134 C 104.744 -1.95585 0.0240846 0
M  V30 1135 C 105.124 -1.54217 -1.44154 0
M  V30 1136 O 104.472 -0.800903 -2.14004 0
M  V30 1137 C 104.682 -3.48344 0.21385 0
M  V30 1138 C 106.03 -4.24504 0.0904902 0
M  V30 1139 O 107.054 -3.55911 0.143558 0
M  V30 1140 O 105.913 -5.46491 -0.0310766 0
M  V30 1141 H 103.007 -0.82602 -0.0402478 0
M  V30 1142 H 105.553 -1.55951 0.669139 0
M  V30 1143 H 104.325 -3.71397 1.23206 0
M  V30 1144 H 103.948 -3.9485 -0.466842 0
M  V30 1145 N 104.945 -0.338344 -1.53925 0
M  V30 1146 C 106.194 0.260732 -2.00008 0
M  V30 1147 C 106.507 1.52073 -1.23017 0
M  V30 1148 O 107.713 2.19672 -1.5955 0
M  V30 1149 C 106.169 0.51515 -3.56194 0
M  V30 1150 C 105.777 -0.728645 -4.42035 0
M  V30 1151 C 107.521 1.07337 -4.10706 0
M  V30 1152 C 105.428 -0.445315 -5.89721 0
M  V30 1153 H 104.358 0.101205 -0.747177 0
M  V30 1154 H 107.009 -0.452866 -1.77824 0
M  V30 1155 H 105.391 1.28932 -3.74423 0
M  V30 1156 H 106.565 -1.50352 -4.35581 0
M  V30 1157 H 104.88 -1.20813 -3.98489 0
M  V30 1158 H 107.477 1.30022 -5.18651 0
M  V30 1159 H 107.82 2.0273 -3.63602 0
M  V30 1160 H 108.353 0.360034 -3.96167 0
M  V30 1161 H 105.092 -1.36883 -6.41049 0
M  V30 1162 H 104.612 0.291569 -5.99091 0
M  V30 1163 H 106.291 -0.0606218 -6.46972 0
M  V30 1164 N 106.423 1.57458 -0.0668435 0
M  V30 1165 C 107.67 1.93301 0.603406 0
M  V30 1166 C 107.998 0.946486 1.69917 0
M  V30 1167 O 107.253 -0.0387021 1.95662 0
M  V30 1168 C 107.552 3.35784 1.22409 0
M  V30 1169 C 107.218 4.50179 0.254955 0
M  V30 1170 C 105.88 4.81199 -0.0116746 0
M  V30 1171 C 108.232 5.19598 -0.408338 0
M  V30 1172 C 105.56 5.78978 -0.94877 0
M  V30 1173 C 107.912 6.18381 -1.33372 0
M  V30 1174 C 106.576 6.47821 -1.60887 0
M  V30 1175 H 105.846 0.707338 0.220802 0
M  V30 1176 H 108.493 1.91012 -0.136665 0
M  V30 1177 H 106.798 3.34515 2.03978 0
M  V30 1178 H 108.495 3.60804 1.74989 0
M  V30 1179 H 105.085 4.25983 0.472954 0
M  V30 1180 H 109.269 4.95832 -0.215456 0
M  V30 1181 H 104.525 6.00115 -1.16925 0
M  V30 1182 H 108.699 6.71277 -1.85367 0
M  V30 1183 H 106.326 7.23399 -2.33661 0
M  V30 1184 N 107.901 -0.206675 1.56239 0
M  V30 1185 C 109.147 -0.930218 1.80208 0
M  V30 1186 C 109.48 -1.83387 0.638981 0
M  V30 1187 O 108.755 -1.91119 -0.361066 0
M  V30 1188 C 109.038 -1.75641 3.1436 0
M  V30 1189 C 108.891 -0.878257 4.41142 0
M  V30 1190 C 110.21 -2.73129 3.45092 0
M  V30 1191 H 107.329 -0.336742 0.655571 0
M  V30 1192 H 109.971 -0.198222 1.88963 0
M  V30 1193 H 108.121 -2.38048 3.07027 0
M  V30 1194 H 109.793 -0.269787 4.6051 0
M  V30 1195 H 108.036 -0.184385 4.33408 0
M  V30 1196 H 108.707 -1.49106 5.3148 0
M  V30 1197 H 111.183 -2.20856 3.52649 0
M  V30 1198 H 110.059 -3.28028 4.40101 0
M  V30 1199 H 110.32 -3.51606 2.68003 0
M  V30 1200 N 109.379 -1.50304 -0.473955 0
M  V30 1201 C 110.607 -1.64902 -1.24959 0
M  V30 1202 C 111.022 -0.331198 -1.85872 0
M  V30 1203 O 110.379 0.68652 -1.69095 0
M  V30 1204 C 110.43 -2.73803 -2.36038 0
M  V30 1205 O 110.151 -4.00477 -1.77624 0
M  V30 1206 C 111.652 -2.99349 -3.26964 0
M  V30 1207 H 108.872 -0.554383 -0.378022 0
M  V30 1208 H 111.416 -1.9651 -0.566054 0
M  V30 1209 H 109.571 -2.44898 -3.00173 0
M  V30 1210 H 109.985 -4.60678 -2.5075 0
M  V30 1211 H 111.459 -3.79217 -4.01121 0
M  V30 1212 H 111.936 -2.10307 -3.85574 0
M  V30 1213 H 112.542 -3.29774 -2.68569 0
M  V30 1214 N 110.857 0.726932 -1.39834 0
M  V30 1215 C 112.082 1.52121 -1.40976 0
M  V30 1216 C 112.507 1.88098 -0.00826029 0
M  V30 1217 O 111.865 1.52479 0.980807 0
M  V30 1218 C 111.913 2.78021 -2.29644 0
M  V30 1219 O 111.017 3.74272 -1.73188 0
M  V30 1220 H 110.358 0.45908 -0.479731 0
M  V30 1221 H 112.888 0.896207 -1.83927 0
M  V30 1222 H 112.898 3.26671 -2.44438 0
M  V30 1223 H 111.573 2.51169 -3.31492 0
M  V30 1224 H 110.15 3.33073 -1.6768 0
M  V30 1225 N 112.336 1.25143 0.95797 0
M  V30 1226 C 113.583 1.09692 1.70217 0
M  V30 1227 C 113.911 -0.362654 1.91089 0
M  V30 1228 O 113.166 -1.28386 1.47701 0
M  V30 1229 C 113.465 1.79272 3.09187 0
M  V30 1230 C 113.131 3.29196 3.08125 0
M  V30 1231 C 111.793 3.70096 3.07543 0
M  V30 1232 C 114.145 4.24995 3.0171 0
M  V30 1233 C 111.473 5.05213 2.9829 0
M  V30 1234 C 113.825 5.60132 2.93999 0
M  V30 1235 C 112.489 6.00365 2.9175 0
M  V30 1236 H 111.759 0.401393 0.622868 0
M  V30 1237 H 114.406 1.55372 1.11945 0
M  V30 1238 H 112.711 1.26014 3.70982 0
M  V30 1239 H 114.408 1.64773 3.65583 0
M  V30 1240 H 110.998 2.96651 3.09348 0
M  V30 1241 H 115.182 3.9439 3.01281 0
M  V30 1242 H 110.438 5.35569 2.94916 0
M  V30 1243 H 114.612 6.3406 2.87996 0
M  V30 1244 H 112.239 7.05023 2.84336 0
M  V30 1245 N 113.814 -1.1601 1.06675 0
M  V30 1246 C 115.062 -1.86264 0.784229 0
M  V30 1247 C 115.383 -1.82328 -0.691488 0
M  V30 1248 O 114.653 -1.25947 -1.50047 0
M  V30 1249 H 113.233 -0.689621 0.28711 0
M  V30 1250 H 115.895 -1.40664 1.34906 0
M  V30 1251 H 114.991 -2.91595 1.11259 0
M  V30 1252 N 115.292 -0.849877 -1.32721 0
M  V30 1253 C 116.703 -0.506188 -1.79707 0
M  V30 1254 C 117.054 0.975627 -1.70223 0
M  V30 1255 O 116.179 1.76078 -1.25799 0
M  V30 1256 C 116.774 -0.912044 -3.26293 0
M  V30 1257 C 115.333 -0.620326 -3.71253 0
M  V30 1258 C 114.48 -1.11439 -2.53922 0
M  V30 1259 H 117.431 -1.03754 -1.20087 0
M  V30 1260 H 117.452 -0.226493 -3.79825 0
M  V30 1261 H 116.964 -1.99057 -3.33164 0
M  V30 1262 H 115.065 0.447674 -3.69901 0
M  V30 1263 H 115.178 -1.18327 -4.64258 0
M  V30 1264 H 113.542 -0.534834 -2.49021 0
M  V30 1265 H 114.325 -2.19992 -2.6355 0
M  V30 1266 N 116.77 1.45427 -0.607355 0
M  V30 1267 C 118.016 2.0254 -0.102607 0
M  V30 1268 C 118.349 1.47478 1.26348 0
M  V30 1269 O 117.624 0.64939 1.83339 0
M  V30 1270 C 117.907 3.60044 -0.0634347 0
M  V30 1271 C 117.76 4.2544 -1.46017 0
M  V30 1272 C 119.079 4.35646 0.624514 0
M  V30 1273 H 116.198 0.73598 -0.0387607 0
M  V30 1274 H 118.84 1.73284 -0.779282 0
M  V30 1275 H 116.99 3.85101 0.512808 0
M  V30 1276 H 118.662 4.11569 -2.08347 0
M  V30 1277 H 116.905 3.83849 -2.02094 0
M  V30 1278 H 117.576 5.34342 -1.385 0
M  V30 1279 H 120.052 4.15882 0.134723 0
M  V30 1280 H 118.928 5.45376 0.621028 0
M  V30 1281 H 119.189 4.08501 1.69055 0
M  V30 1282 N 118.248 0.346503 1.53744 0
M  V30 1283 C 119.473 -0.253074 2.0585 0
M  V30 1284 C 119.898 -1.43202 1.21962 0
M  V30 1285 O 119.256 -1.79783 0.234073 0
M  V30 1286 C 119.304 -0.643193 3.54817 0
M  V30 1287 O 118.408 -1.74286 3.73762 0
M  V30 1288 H 117.749 -0.0413583 0.662711 0
M  V30 1289 H 120.279 0.501574 1.98357 0
M  V30 1290 H 120.289 -0.919526 3.97503 0
M  V30 1291 H 118.964 0.218966 4.15323 0
M  V30 1292 H 117.541 -1.46356 3.42979 0
M  V30 1293 N 119.726 -1.57421 0.075193 0
M  V30 1294 C 121.003 -1.85029 -0.634329 0
M  V30 1295 C 121.383 -0.968305 -1.87582 0
M  V30 1296 O 120.731 -0.0354749 -2.28472 0
M  V30 1297 C 120.941 -3.35286 -0.968742 0
M  V30 1298 C 122.289 -4.02875 -1.34077 0
M  V30 1299 O 123.313 -3.40051 -1.06037 0
M  V30 1300 O 122.172 -5.13691 -1.86506 0
M  V30 1301 H 119.266 -0.7645 -0.315387 0
M  V30 1302 H 121.812 -1.69366 0.106382 0
M  V30 1303 H 120.584 -3.91203 -0.0871376 0
M  V30 1304 H 120.207 -3.56223 -1.7661 0
M  V30 1305 N 121.204 0.198386 -1.56346 0
M  V30 1306 C 122.154 1.2499 -1.90687 0
M  V30 1307 C 123.138 1.41158 -0.772217 0
M  V30 1308 O 124.33 1.43584 -1.03502 0
M  V30 1309 C 121.459 2.59542 -2.24706 0
M  V30 1310 C 120.545 2.47181 -3.44619 0
M  V30 1311 N 120.936 2.04495 -4.62618 0
M  V30 1312 C 119.234 2.78082 -3.48692 0
M  V30 1313 C 119.935 2.03945 -5.44776 0
M  V30 1314 N 118.911 2.45323 -4.85095 0
M  V30 1315 H 122.713 0.911149 -2.7942 0
M  V30 1316 H 120.227 0.40684 -1.57221 0
M  V30 1317 H 122.224 3.3549 -2.47491 0
M  V30 1318 H 120.884 2.94244 -1.37298 0
M  V30 1319 H 121.895 1.75256 -4.87345 0
M  V30 1320 H 118.572 3.17002 -2.71691 0
M  V30 1321 H 119.962 1.72872 -6.4928 0
M  V30 1322 N 122.682 1.50554 0.465978 0
M  V30 1323 C 123.959 1.5232 1.22712 0
M  V30 1324 C 124.339 0.270807 2.09356 0
M  V30 1325 O 123.687 -0.745541 2.15995 0
M  V30 1326 C 123.897 2.82175 2.05374 0
M  V30 1327 C 125.245 3.33033 2.6339 0
M  V30 1328 O 126.269 2.83531 2.15612 0
M  V30 1329 O 125.128 4.19336 3.50456 0
M  V30 1330 H 122.222 0.611183 0.557122 0
M  V30 1331 H 124.768 1.62847 0.477381 0
M  V30 1332 H 123.54 3.64797 1.41558 0
M  V30 1333 H 123.163 2.74675 2.87471 0
M  V30 1334 N 124.16 -0.719506 1.40217 0
M  V30 1335 C 125.093 -1.84298 1.34571 0
M  V30 1336 C 126.071 -1.61149 0.216741 0
M  V30 1337 O 127.255 -1.84212 0.399756 0
M  V30 1338 C 124.382 -3.20568 1.09335 0
M  V30 1339 C 123.428 -3.62551 2.24631 0
M  V30 1340 S 124.261 -3.7012 3.87004 0
M  V30 1341 C 125.417 -5.09154 3.64024 0
M  V30 1342 H 125.65 -1.88807 2.2965 0
M  V30 1343 H 123.183 -0.885901 1.26456 0
M  V30 1344 H 125.141 -3.99246 0.954602 0
M  V30 1345 H 123.802 -3.13696 0.159164 0
M  V30 1346 H 122.995 -4.61483 2.02606 0
M  V30 1347 H 122.597 -2.91119 2.34789 0
M  V30 1348 H 124.889 -5.95955 3.22248 0
M  V30 1349 H 125.832 -5.36213 4.62473 0
M  V30 1350 H 126.24 -4.79562 2.97793 0
M  V30 1351 N 125.638 -1.25649 -0.95132 0
M  V30 1352 C 126.548 -1.08073 -2.08224 0
M  V30 1353 C 127.564 -0.0169666 -1.73992 0
M  V30 1354 O 128.74 -0.218593 -2.0021 0
M  V30 1355 C 125.805 -0.704922 -3.39458 0
M  V30 1356 C 124.866 -1.84699 -3.87537 0
M  V30 1357 C 124.099 -1.48902 -5.12508 0
M  V30 1358 O 124.322 -0.386156 -5.69091 0
M  V30 1359 O 123.256 -2.32033 -5.55378 0
M  V30 1360 H 127.082 -2.02924 -2.25954 0
M  V30 1361 H 124.667 -1.04618 -1.06656 0
M  V30 1362 H 126.549 -0.507609 -4.18332 0
M  V30 1363 H 125.224 0.214291 -3.2299 0
M  V30 1364 H 124.131 -2.09919 -3.09653 0
M  V30 1365 H 125.464 -2.74557 -4.08509 0
M  V30 1366 N 127.117 1.15442 -1.07289 0
M  V30 1367 C 128.347 1.89821 -0.815576 0
M  V30 1368 C 128.755 1.7823 0.634867 0
M  V30 1369 O 128.098 1.13152 1.44715 0
M  V30 1370 C 128.16 3.40817 -1.14385 0
M  V30 1371 C 127.824 3.76193 -2.59476 0
M  V30 1372 C 128.821 3.77269 -3.57721 0
M  V30 1373 C 126.506 4.0652 -2.95037 0
M  V30 1374 C 128.5 4.08176 -4.89562 0
M  V30 1375 C 126.187 4.37092 -4.27076 0
M  V30 1376 C 127.185 4.37902 -5.24148 0
M  V30 1377 O 126.873 4.67741 -6.53815 0
M  V30 1378 H 126.605 0.608465 -0.294528 0
M  V30 1379 H 129.159 1.472 -1.43252 0
M  V30 1380 H 127.389 3.83835 -0.469865 0
M  V30 1381 H 129.078 3.96485 -0.869179 0
M  V30 1382 H 129.844 3.5394 -3.3159 0
M  V30 1383 H 125.723 4.05049 -2.20128 0
M  V30 1384 H 129.267 4.08723 -5.65324 0
M  V30 1385 H 125.164 4.59889 -4.5296 0
M  V30 1386 H 125.932 4.85509 -6.58957 0
M  V30 1387 N 128.595 0.856903 1.32268 0
M  V30 1388 C 129.823 0.475439 2.01363 0
M  V30 1389 C 130.238 -0.928486 1.64392 0
M  V30 1390 O 129.595 -1.60624 0.866387 0
M  V30 1391 C 129.646 0.607545 3.56358 0
M  V30 1392 O 129.367 1.95617 3.92002 0
M  V30 1393 C 130.868 0.225382 4.42727 0
M  V30 1394 H 128.088 0.186636 0.644521 0
M  V30 1395 H 130.632 1.15446 1.68797 0
M  V30 1396 H 128.787 -0.0237719 3.87393 0
M  V30 1397 H 129.201 1.95455 4.86721 0
M  V30 1398 H 130.675 0.368813 5.50767 0
M  V30 1399 H 131.152 -0.834369 4.31202 0
M  V30 1400 H 131.758 0.831864 4.17085 0
M  V30 1401 N 130.073 -1.45103 0.615059 0
M  V30 1402 C 131.322 -2.01396 0.110718 0
M  V30 1403 C 131.635 -1.48834 -1.26916 0
M  V30 1404 O 132.841 -1.97152 -1.86664 0
M  V30 1405 C 131.297 -3.59599 0.14723 0
M  V30 1406 C 130.905 -4.21158 1.52743 0
M  V30 1407 C 132.649 -4.23428 -0.30148 0
M  V30 1408 C 130.556 -5.71535 1.51992 0
M  V30 1409 H 129.486 -0.753061 0.0376241 0
M  V30 1410 H 132.137 -1.66494 0.77149 0
M  V30 1411 H 130.519 -3.91724 -0.580339 0
M  V30 1412 H 131.693 -4.00594 2.2773 0
M  V30 1413 H 130.008 -3.69552 1.91886 0
M  V30 1414 H 132.605 -5.33703 -0.326392 0
M  V30 1415 H 132.948 -3.94629 -1.32565 0
M  V30 1416 H 133.481 -3.96047 0.373065 0
M  V30 1417 H 130.22 -6.05044 2.52193 0
M  V30 1418 H 129.74 -5.94268 0.81274 0
M  V30 1419 H 131.419 -6.34873 1.24681 0
M  V30 1420 N 131.551 -0.354651 -1.53558 0
M  V30 1421 C 132.828 0.294281 -1.93374 0
M  V30 1422 C 133.208 1.67313 -1.28723 0
M  V30 1423 O 132.556 2.24179 -0.442247 0
M  V30 1424 C 132.766 0.355445 -3.47185 0
M  V30 1425 C 134.114 0.601007 -4.20325 0
M  V30 1426 O 135.138 0.437106 -3.53508 0
M  V30 1427 O 133.997 0.919322 -5.38712 0
M  V30 1428 H 131.091 0.174033 -0.808481 0
M  V30 1429 H 133.637 -0.406638 -1.64756 0
M  V30 1430 H 132.409 -0.611729 -3.86489 0
M  V30 1431 H 132.032 1.1027 -3.82003 0
M  V30 1432 N 133.029 1.57378 -0.0835403 0
M  V30 1433 C 134.275 1.94217 0.583733 0
M  V30 1434 C 134.608 0.964653 1.68547 0
M  V30 1435 O 133.883 -0.00422258 1.945 0
M  V30 1436 C 134.166 3.41253 1.14972 0
M  V30 1437 C 134.019 4.49768 0.0538277 0
M  V30 1438 C 135.338 3.89352 2.05166 0
M  V30 1439 H 132.457 0.706233 0.210724 0
M  V30 1440 H 135.099 1.89392 -0.1519 0
M  V30 1441 H 133.249 3.45496 1.77665 0
M  V30 1442 H 134.921 4.57641 -0.579851 0
M  V30 1443 H 133.164 4.29432 -0.614068 0
M  V30 1444 H 133.835 5.49817 0.490452 0
M  V30 1445 H 136.311 3.87189 1.52393 0
M  V30 1446 H 135.187 4.92822 2.41698 0
M  V30 1447 H 135.448 3.27973 2.96456 0
M  V30 1448 N 134.507 -0.190092 1.56449 0
M  V30 1449 C 135.754 -0.909705 1.80916 0
M  V30 1450 C 136.082 -1.83047 0.657583 0
M  V30 1451 O 135.337 -1.92428 -0.356356 0
M  V30 1452 C 135.636 -1.75382 3.1141 0
M  V30 1453 C 135.302 -0.983606 4.40041 0
M  V30 1454 C 133.964 -0.770967 4.74984 0
M  V30 1455 C 136.316 -0.442024 5.19322 0
M  V30 1456 C 133.644 -0.0053448 5.867 0
M  V30 1457 C 135.996 0.310412 6.31838 0
M  V30 1458 C 134.66 0.534023 6.6536 0
M  V30 1459 H 133.93 -0.332885 0.662019 0
M  V30 1460 H 136.577 -0.175762 1.90692 0
M  V30 1461 H 134.882 -2.55659 2.96893 0
M  V30 1462 H 136.579 -2.31331 3.27547 0
M  V30 1463 H 133.169 -1.15936 4.12622 0
M  V30 1464 H 137.353 -0.593693 4.92736 0
M  V30 1465 H 132.609 0.177825 6.11141 0
M  V30 1466 H 136.783 0.737419 6.92485 0
M  V30 1467 H 134.41 1.12918 7.51767 0
M  V30 1468 N 135.985 -1.50799 -0.457987 0
M  V30 1469 C 137.232 -1.62442 -1.20908 0
M  V30 1470 C 137.56 -0.330865 -1.91665 0
M  V30 1471 O 136.815 0.68401 -1.83357 0
M  V30 1472 C 137.114 -2.76358 -2.2663 0
M  V30 1473 C 136.78 -4.16378 -1.73033 0
M  V30 1474 C 135.442 -4.54473 -1.58138 0
M  V30 1475 C 137.794 -5.03836 -1.33413 0
M  V30 1476 C 135.122 -5.77754 -1.02065 0
M  V30 1477 C 137.474 -6.27676 -0.78778 0
M  V30 1478 C 136.138 -6.64562 -0.625561 0
M  V30 1479 H 135.408 -0.594417 -0.442435 0
M  V30 1480 H 138.055 -1.84772 -0.503136 0
M  V30 1481 H 136.36 -2.48167 -3.03184 0
M  V30 1482 H 138.057 -2.82568 -2.84528 0
M  V30 1483 H 134.647 -3.86331 -1.85598 0
M  V30 1484 H 138.831 -4.75026 -1.4375 0
M  V30 1485 H 134.087 -6.04997 -0.882547 0
M  V30 1486 H 138.261 -6.94797 -0.472177 0
M  V30 1487 H 135.888 -7.59965 -0.188926 0
M  V30 1488 N 137.463 0.71206 -1.40597 0
M  V30 1489 C 138.879 1.02058 -1.22704 0
M  V30 1490 C 139.079 2.01228 -0.104729 0
M  V30 1491 O 138.135 2.4674 0.53624 0
M  V30 1492 C 139.448 1.56094 -2.57012 0
M  V30 1493 C 140.996 1.6806 -2.64054 0
M  V30 1494 C 141.471 2.25501 -3.9864 0
M  V30 1495 N 142.962 2.32882 -4.004 0
M  V30 1496 C 143.697 2.78317 -5.01325 0
M  V30 1497 N 143.193 3.23478 -6.12645 0
M  V30 1498 N 144.986 2.77733 -4.88693 0
M  V30 1499 H 137.137 0.0547896 -2.12329 0
M  V30 1500 H 139.4 0.0869027 -0.944008 0
M  V30 1501 H 139.106 0.906865 -3.39807 0
M  V30 1502 H 138.98 2.54564 -2.78347 0
M  V30 1503 H 141.367 2.32583 -1.81629 0
M  V30 1504 H 141.448 0.681802 -2.46546 0
M  V30 1505 H 141.092 1.61598 -4.81506 0
M  V30 1506 H 141.022 3.26102 -4.13479 0
M  V30 1507 H 143.513 2.00991 -3.20017 0
M  V30 1508 H 143.826 3.56725 -6.85542 0
M  V30 1509 H 142.171 3.21429 -6.16205 0
M  V30 1510 H 145.362 2.4179 -4.00818 0
M  V30 1511 H 145.535 3.12826 -5.67489 0
M  V30 1512 N 138.941 1.26152 0.944643 0
M  V30 1513 C 139.873 1.03199 2.04652 0
M  V30 1514 C 140.886 -0.00642356 1.62799 0
M  V30 1515 O 142.075 0.233263 1.76969 0
M  V30 1516 C 139.175 0.540111 3.34568 0
M  V30 1517 C 138.348 1.64697 4.05208 0
M  V30 1518 C 137.407 1.15374 5.13396 0
M  V30 1519 O 136.433 1.85013 5.38293 0
M  V30 1520 N 137.635 0.00031529 5.805 0
M  V30 1521 H 140.4 1.9808 2.2491 0
M  V30 1522 H 137.961 1.17491 1.11389 0
M  V30 1523 H 139.953 0.194401 4.04233 0
M  V30 1524 H 138.523 -0.315021 3.11009 0
M  V30 1525 H 137.743 2.16379 3.29506 0
M  V30 1526 H 139.031 2.3903 4.49157 0
M  V30 1527 H 138.429 -0.581336 5.62705 0
M  V30 1528 H 136.986 -0.286346 6.51171 0
M  V30 1529 N 140.419 -1.14872 1.07899 0
M  V30 1530 C 141.644 -1.90202 0.826926 0
M  V30 1531 C 142.069 -1.77774 -0.614664 0
M  V30 1532 O 141.427 -1.11431 -1.43013 0
M  V30 1533 C 141.475 -3.38352 1.24702 0
M  V30 1534 O 140.579 -4.10497 0.39575 0
M  V30 1535 H 139.92 -0.591968 0.300782 0
M  V30 1536 H 142.45 -1.45437 1.43907 0
M  V30 1537 H 142.46 -3.89156 1.22563 0
M  V30 1538 H 141.135 -3.46715 2.29698 0
M  V30 1539 H 139.712 -3.69796 0.480117 0
M  V30 1540 N 141.898 -0.863906 -1.31812 0
M  V30 1541 C 143.144 -0.481841 -1.9761 0
M  V30 1542 C 143.499 0.954048 -1.6708 0
M  V30 1543 O 142.792 1.66182 -0.953624 0
M  V30 1544 C 142.986 -0.668547 -3.51091 0
M  V30 1545 C 142.815 -2.12103 -3.96538 0
M  V30 1546 C 141.585 -2.76141 -4.23171 0
M  V30 1547 C 143.783 -3.09265 -4.10925 0
M  V30 1548 N 141.765 -4.12205 -4.54929 0
M  V30 1549 C 143.136 -4.30341 -4.46326 0
M  V30 1550 C 145.191 -3.05337 -3.93286 0
M  V30 1551 C 143.894 -5.48 -4.65928 0
M  V30 1552 C 145.92 -4.22248 -4.14078 0
M  V30 1553 C 145.282 -5.42085 -4.49804 0
M  V30 1554 H 141.381 -0.225238 -0.74886 0
M  V30 1555 H 143.965 -1.11723 -1.59455 0
M  V30 1556 H 142.136 -0.0627898 -3.88349 0
M  V30 1557 H 143.868 -0.255467 -4.03893 0
M  V30 1558 H 140.623 -2.27125 -4.15585 0
M  V30 1559 H 141.047 -4.82416 -4.74978 0
M  V30 1560 H 145.689 -2.138 -3.64759 0
M  V30 1561 H 143.407 -6.40059 -4.93305 0
M  V30 1562 H 146.993 -4.20654 -4.01922 0
M  V30 1563 H 145.873 -6.31044 -4.65567 0
M  V30 1564 N 143.376 1.44774 -0.622745 0
M  V30 1565 C 144.323 2.30635 0.0871679 0
M  V30 1566 C 145.293 1.42994 0.845097 0
M  V30 1567 O 146.478 1.71907 0.827812 0
M  V30 1568 C 143.618 3.28144 1.06844 0
M  V30 1569 C 142.731 4.30888 0.309809 0
M  V30 1570 C 141.866 5.15494 1.28215 0
M  V30 1571 C 140.905 6.09953 0.512198 0
M  V30 1572 N 140.042 6.87287 1.43458 0
M  V30 1573 H 144.882 2.90803 -0.650974 0
M  V30 1574 H 142.419 1.43286 -0.33281 0
M  V30 1575 H 144.377 3.83157 1.65066 0
M  V30 1576 H 143.007 2.69695 1.77382 0
M  V30 1577 H 142.059 3.78414 -0.388181 0
M  V30 1578 H 143.371 4.97955 -0.290254 0
M  V30 1579 H 142.525 5.74983 1.93596 0
M  V30 1580 H 141.264 4.48481 1.91614 0
M  V30 1581 H 140.269 5.49581 -0.155151 0
M  V30 1582 H 141.494 6.78999 -0.116958 0
M  V30 1583 H 139.44 6.2295 2.05594 0
M  V30 1584 H 139.357 7.50763 0.888335 0
M  V30 1585 H 140.625 7.51306 2.07749 0
M  V30 1586 N 144.854 0.36279 1.53368 0
M  V30 1587 C 146.131 -0.284021 1.93527 0
M  V30 1588 C 146.511 -1.66628 1.29608 0
M  V30 1589 O 145.859 -2.23942 0.45413 0
M  V30 1590 C 146.069 -0.337028 3.47369 0
M  V30 1591 C 147.417 -0.578708 4.20638 0
M  V30 1592 O 148.441 -0.418352 3.53735 0
M  V30 1593 O 147.3 -0.89074 5.39192 0
M  V30 1594 H 144.394 -0.169743 0.809393 0
M  V30 1595 H 146.94 0.41537 1.64538 0
M  V30 1596 H 145.712 0.632217 3.86159 0
M  V30 1597 H 145.335 -1.08243 3.82582 0
M  V30 1598 N 146.332 -1.57332 0.0918853 0
M  V30 1599 C 147.242 -2.17368 -0.882505 0
M  V30 1600 C 148.258 -1.14226 -1.31257 0
M  V30 1601 O 149.434 -1.46582 -1.38115 0
M  V30 1602 C 146.499 -2.73962 -2.12476 0
M  V30 1603 C 145.56 -3.92048 -1.7492 0
M  V30 1604 C 144.793 -4.45933 -2.93223 0
M  V30 1605 O 145.016 -3.98764 -4.07852 0
M  V30 1606 O 143.95 -5.36999 -2.71875 0
M  V30 1607 H 147.776 -3.01031 -0.40172 0
M  V30 1608 H 145.361 -1.48813 -0.132291 0
M  V30 1609 H 147.243 -3.10147 -2.85283 0
M  V30 1610 H 145.918 -1.93347 -2.59613 0
M  V30 1611 H 144.825 -3.6068 -0.993025 0
M  V30 1612 H 146.158 -4.74017 -1.32548 0
M  V30 1613 N 147.81 0.181792 -1.56548 0
M  V30 1614 C 149.226 0.53316 -1.50431 0
M  V30 1615 C 149.426 1.85184 -0.794297 0
M  V30 1616 O 148.482 2.50058 -0.350318 0
M  V30 1617 C 149.795 0.575597 -2.9514 0
M  V30 1618 C 151.343 0.663519 -3.05886 0
M  V30 1619 C 151.818 0.736946 -4.52032 0
M  V30 1620 N 153.309 0.800118 -4.56237 0
M  V30 1621 C 154.044 0.877327 -5.66649 0
M  V30 1622 N 153.54 0.916016 -6.86718 0
M  V30 1623 N 155.333 0.915542 -5.54594 0
M  V30 1624 H 147.484 -0.683025 -2.01118 0
M  V30 1625 H 149.747 -0.244988 -0.915797 0
M  V30 1626 H 149.453 -0.324482 -3.502 0
M  V30 1627 H 149.327 1.42572 -3.49218 0
M  V30 1628 H 151.714 1.55403 -2.50867 0
M  V30 1629 H 151.795 -0.21307 -2.54911 0
M  V30 1630 H 151.439 -0.149262 -5.07681 0
M  V30 1631 H 151.369 1.62953 -5.00753 0
M  V30 1632 H 153.86 0.778926 -3.69785 0
M  V30 1633 H 154.173 0.975813 -7.66614 0
M  V30 1634 H 152.518 0.884469 -6.89349 0
M  V30 1635 H 155.709 0.882245 -4.59711 0
M  V30 1636 H 155.882 0.972253 -6.40665 0
M  V30 1637 N 149.288 1.51039 0.449983 0
M  V30 1638 C 150.218 1.74379 1.55288 0
M  V30 1639 C 151.199 0.593236 1.5942 0
M  V30 1640 O 152.384 0.834625 1.7535 0
M  V30 1641 C 149.514 1.85728 2.93466 0
M  V30 1642 C 148.468 3.01078 3.04197 0
M  V30 1643 C 147.794 2.97595 4.44231 0
M  V30 1644 C 149.094 4.41254 2.7945 0
M  V30 1645 H 150.788 2.66725 1.36008 0
M  V30 1646 H 148.334 1.2835 0.652864 0
M  V30 1647 H 150.287 2.0064 3.70569 0
M  V30 1648 H 149.011 0.900207 3.13949 0
M  V30 1649 H 147.67 2.85851 2.29531 0
M  V30 1650 H 147.318 1.99691 4.61663 0
M  V30 1651 H 147.018 3.75046 4.52343 0
M  V30 1652 H 148.542 3.14583 5.23326 0
M  V30 1653 H 149.956 4.56897 3.46292 0
M  V30 1654 H 148.353 5.20315 2.98985 0
M  V30 1655 H 149.423 4.52164 1.75144 0
M  V30 1656 N 150.766 -0.704594 1.40972 0
M  V30 1657 C 151.713 -1.81862 1.42109 0
M  V30 1658 C 152.683 -1.63781 0.276593 0
M  V30 1659 O 153.868 -1.84759 0.4763 0
M  V30 1660 C 151.008 -3.19669 1.30022 0
M  V30 1661 C 150.121 -3.49246 2.54267 0
M  V30 1662 C 149.256 -4.76618 2.3454 0
M  V30 1663 C 148.295 -4.99133 3.54306 0
M  V30 1664 N 147.432 -6.17726 3.33706 0
M  V30 1665 H 152.272 -1.80226 2.37324 0
M  V30 1666 H 149.809 -0.880238 1.17857 0
M  V30 1667 H 151.767 -3.99263 1.21018 0
M  V30 1668 H 150.397 -3.20506 0.384192 0
M  V30 1669 H 149.449 -2.64125 2.73756 0
M  V30 1670 H 150.761 -3.61788 3.43381 0
M  V30 1671 H 149.915 -5.64249 2.22952 0
M  V30 1672 H 148.654 -4.66305 1.42867 0
M  V30 1673 H 147.659 -4.09953 3.66359 0
M  V30 1674 H 148.884 -5.11311 4.4692 0
M  V30 1675 H 146.83 -6.08642 2.44725 0
M  V30 1676 H 146.747 -6.30995 4.16391 0
M  V30 1677 H 148.015 -7.08115 3.25873 0
M  V30 1678 N 152.244 -1.26651 -0.937939 0
M  V30 1679 C 153.491 -1.12387 -1.6845 0
M  V30 1680 C 153.819 0.332208 -1.91642 0
M  V30 1681 O 153.074 1.2602 -1.49725 0
M  V30 1682 C 153.373 -1.84168 -3.06295 0
M  V30 1683 C 153.039 -3.34056 -3.02849 0
M  V30 1684 C 151.701 -3.74942 -3.01616 0
M  V30 1685 C 154.053 -4.29741 -2.9491 0
M  V30 1686 C 151.381 -5.09894 -2.90215 0
M  V30 1687 C 153.733 -5.64738 -2.8505 0
M  V30 1688 C 152.397 -6.0493 -2.82162 0
M  V30 1689 H 151.667 -0.411252 -0.616403 0
M  V30 1690 H 154.314 -1.57134 -1.09459 0
M  V30 1691 H 152.619 -1.319 -3.6893 0
M  V30 1692 H 154.316 -1.70569 -3.62915 0
M  V30 1693 H 150.906 -3.01534 -3.0459 0
M  V30 1694 H 155.09 -3.99133 -2.94969 0
M  V30 1695 H 150.346 -5.40194 -2.86358 0
M  V30 1696 H 154.52 -6.38561 -2.77872 0
M  V30 1697 H 152.147 -7.09457 -2.73084 0
M  V30 1698 N 153.722 1.14298 -1.08507 0
M  V30 1699 C 154.669 2.19414 -0.715965 0
M  V30 1700 C 155.639 1.63399 0.298326 0
M  V30 1701 O 156.824 1.89929 0.182101 0
M  V30 1702 C 153.964 3.44845 -0.132534 0
M  V30 1703 C 153.077 4.15007 -1.19973 0
M  V30 1704 C 152.212 5.28024 -0.580048 0
M  V30 1705 C 151.251 5.9002 -1.62921 0
M  V30 1706 N 150.388 6.94485 -1.03125 0
M  V30 1707 H 155.228 2.50336 -1.61666 0
M  V30 1708 H 152.765 1.2293 -0.807882 0
M  V30 1709 H 154.723 4.16601 0.223454 0
M  V30 1710 H 153.353 3.14403 0.731467 0
M  V30 1711 H 152.405 3.41629 -1.67313 0
M  V30 1712 H 153.717 4.57178 -1.99473 0
M  V30 1713 H 152.871 6.06455 -0.172364 0
M  V30 1714 H 151.61 4.87076 0.246603 0
M  V30 1715 H 150.615 5.10291 -2.04654 0
M  V30 1716 H 151.84 6.33042 -2.45835 0
M  V30 1717 H 149.786 6.55612 -0.225711 0
M  V30 1718 H 149.703 7.35148 -1.76334 0
M  V30 1719 H 150.971 7.7679 -0.649458 0
M  V30 1720 N 155.201 0.870884 1.31352 0
M  V30 1721 C 156.449 0.48132 1.96285 0
M  V30 1722 C 156.77 -0.969813 1.69173 0
M  V30 1723 O 156.04 -1.67998 1.00764 0
M  V30 1724 H 154.62 0.175002 0.726212 0
M  V30 1725 H 157.282 1.11087 1.60143 0
M  V30 1726 H 156.378 0.639825 3.05471 0
M  V30 1727 N 156.679 -1.44442 0.630414 0
M  V30 1728 C 158.09 -1.85434 0.217063 0
M  V30 1729 C 158.441 -1.52748 -1.23136 0
M  V30 1730 O 157.566 -0.965205 -1.93682 0
M  V30 1731 C 158.161 -3.36581 0.387168 0
M  V30 1732 C 156.72 -3.76389 0.0283297 0
M  V30 1733 C 155.867 -2.68296 0.700889 0
M  V30 1734 H 158.818 -1.34919 0.83562 0
M  V30 1735 H 158.839 -3.78657 -0.374086 0
M  V30 1736 H 158.351 -3.60339 1.44144 0
M  V30 1737 H 156.452 -3.58246 -1.02423 0
M  V30 1738 H 156.565 -4.77095 0.437892 0
M  V30 1739 H 154.929 -2.54335 0.136267 0
M  V30 1740 H 155.712 -2.94887 1.75774 0
M  V30 1741 N 158.157 -0.370918 -1.53173 0
M  V30 1742 C 159.09 0.516727 -2.22273 0
M  V30 1743 C 160.068 1.07877 -1.21661 0
M  V30 1744 O 161.252 1.13389 -1.50583 0
M  V30 1745 C 158.379 1.71346 -2.92161 0
M  V30 1746 C 157.425 1.27838 -4.0689 0
M  V30 1747 S 158.258 0.275217 -5.34792 0
M  V30 1748 C 159.414 1.47816 -6.08195 0
M  V30 1749 H 159.647 -0.0701054 -2.97217 0
M  V30 1750 H 157.18 -0.155038 -1.5362 0
M  V30 1751 H 159.138 2.39988 -3.3304 0
M  V30 1752 H 157.799 2.27156 -2.16931 0
M  V30 1753 H 156.992 2.17141 -4.54825 0
M  V30 1754 H 156.594 0.671105 -3.6793 0
M  V30 1755 H 158.886 2.40831 -6.33251 0
M  V30 1756 H 159.829 1.04008 -7.0042 0
M  V30 1757 H 160.237 1.68663 -5.38714 0
M  V30 1758 N 159.635 1.57281 -0.100228 0
M  V30 1759 C 160.863 1.98879 0.570509 0
M  V30 1760 C 161.278 0.979476 1.61405 0
M  V30 1761 O 160.635 -0.0302288 1.82475 0
M  V30 1762 C 160.686 3.4052 1.2136 0
M  V30 1763 O 160.407 4.37588 0.211786 0
M  V30 1764 C 161.908 3.97149 1.96945 0
M  V30 1765 H 159.128 0.653428 0.152555 0
M  V30 1766 H 161.672 2.03697 -0.18103 0
M  V30 1767 H 159.827 3.367 1.91603 0
M  V30 1768 H 160.241 5.20118 0.676607 0
M  V30 1769 H 161.715 4.98393 2.37294 0
M  V30 1770 H 162.192 3.3525 2.83733 0
M  V30 1771 H 162.798 4.04458 1.31506 0
M  V30 1772 N 161.113 -0.173488 1.56642 0
M  V30 1773 C 162.359 -0.891784 1.8214 0
M  V30 1774 C 162.692 -1.8199 0.677736 0
M  V30 1775 O 161.967 -1.91842 -0.320446 0
M  V30 1776 C 162.25 -1.68933 3.18015 0
M  V30 1777 C 162.103 -0.784487 4.42906 0
M  V30 1778 C 163.422 -2.65748 3.50808 0
M  V30 1779 H 160.541 -0.322761 0.662567 0
M  V30 1780 H 163.183 -0.158095 1.89341 0
M  V30 1781 H 161.333 -2.31482 3.12007 0
M  V30 1782 H 163.005 -0.172046 4.60979 0
M  V30 1783 H 161.248 -0.0924117 4.33702 0
M  V30 1784 H 161.919 -1.37799 5.34524 0
M  V30 1785 H 164.395 -2.13327 3.57255 0
M  V30 1786 H 163.271 -3.18619 4.4696 0
M  V30 1787 H 163.532 -3.45842 2.75401 0
M  V30 1788 N 162.591 -1.51276 -0.441967 0
M  V30 1789 C 163.521 -1.752 -1.54361 0
M  V30 1790 C 164.502 -0.601682 -1.59103 0
M  V30 1791 O 165.687 -0.843913 -1.74905 0
M  V30 1792 C 162.817 -1.87282 -2.92477 0
M  V30 1793 C 161.771 -3.02687 -3.02596 0
M  V30 1794 C 161.097 -2.99947 -4.42647 0
M  V30 1795 C 162.397 -4.4273 -2.77106 0
M  V30 1796 H 164.091 -2.67442 -1.34592 0
M  V30 1797 H 161.637 -1.28694 -0.646048 0
M  V30 1798 H 163.59 -2.02602 -3.695 0
M  V30 1799 H 162.314 -0.916844 -3.13467 0
M  V30 1800 H 160.973 -2.87065 -2.28012 0
M  V30 1801 H 160.621 -2.02136 -4.60597 0
M  V30 1802 H 160.321 -3.77439 -4.50348 0
M  V30 1803 H 161.845 -3.17354 -5.2165 0
M  V30 1804 H 163.259 -4.58727 -3.43864 0
M  V30 1805 H 161.656 -5.21893 -2.96222 0
M  V30 1806 H 162.726 -4.53087 -1.72744 0
M  V30 1807 N 164.069 0.697108 -1.41344 0
M  V30 1808 C 165.485 1.00751 -1.2378 0
M  V30 1809 C 165.685 2.01105 -0.126066 0
M  V30 1810 O 164.741 2.47295 0.51004 0
M  V30 1811 C 166.054 1.53359 -2.58653 0
M  V30 1812 C 167.602 1.6525 -2.65822 0
M  V30 1813 C 168.077 2.2126 -4.01009 0
M  V30 1814 N 169.568 2.28622 -4.02847 0
M  V30 1815 C 170.303 2.72984 -5.04249 0
M  V30 1816 N 169.799 3.16962 -6.16041 0
M  V30 1817 N 171.592 2.72534 -4.91611 0
M  V30 1818 H 163.743 0.0322662 -2.12375 0
M  V30 1819 H 166.006 0.0768853 -0.944877 0
M  V30 1820 H 165.712 0.870773 -3.4075 0
M  V30 1821 H 165.586 2.51597 -2.81032 0
M  V30 1822 H 167.973 2.30644 -1.84086 0
M  V30 1823 H 168.054 0.655614 -2.47256 0
M  V30 1824 H 167.698 1.56482 -4.83193 0
M  V30 1825 H 167.628 3.21698 -4.16915 0
M  V30 1826 H 170.119 1.97585 -3.22131 0
M  V30 1827 H 170.432 3.49434 -6.89287 0
M  V30 1828 H 168.777 3.14875 -6.1958 0
M  V30 1829 H 171.968 2.37525 -4.0336 0
M  V30 1830 H 172.141 3.06789 -5.70775 0
M  V30 1831 N 165.547 1.27147 0.931209 0
M  V30 1832 C 166.477 1.12081 2.04842 0
M  V30 1833 C 167.458 0.0232364 1.70084 0
M  V30 1834 O 168.643 0.197085 1.93197 0
M  V30 1835 C 165.773 0.76354 3.38803 0
M  V30 1836 C 164.727 1.81396 3.87659 0
M  V30 1837 C 164.053 1.31075 5.18385 0
M  V30 1838 C 165.353 3.21739 4.11438 0
M  V30 1839 H 167.047 2.05537 2.17703 0
M  V30 1840 H 164.593 0.989603 1.04608 0
M  V30 1841 H 166.546 0.644982 4.16435 0
M  V30 1842 H 165.27 -0.206727 3.25945 0
M  V30 1843 H 163.929 1.92136 3.12217 0
M  V30 1844 H 163.577 0.330037 5.01916 0
M  V30 1845 H 163.277 2.013 5.52044 0
M  V30 1846 H 164.801 1.20506 5.98591 0
M  V30 1847 H 166.215 3.14019 4.79651 0
M  V30 1848 H 164.612 3.89644 4.56397 0
M  V30 1849 H 165.682 3.67054 3.16859 0
M  V30 1850 N 167.025 -1.13721 1.09112 0
M  V30 1851 C 167.973 -2.21103 0.722219 0
M  V30 1852 C 168.967 -1.67147 -0.275374 0
M  V30 1853 O 170.173 -1.79477 -0.137176 0
M  V30 1854 H 166.548 -0.720445 0.215553 0
M  V30 1855 H 168.519 -2.49483 1.63709 0
M  V30 1856 C 167.268 -3.47352 0.15543 0
M  V30 1857 H 166.591 -3.89206 0.914246 0
M  V30 1858 H 168.031 -4.2395 -0.0647967 0
M  V30 1859 C 166.49 -3.1814 -1.10852 0
M  V30 1860 O 167.02 -3.36604 -2.19227 0
M  V30 1861 N 165.226 -2.72045 -1.02176 0
M  V30 1862 H 164.773 -2.57221 -0.139764 0
M  V30 1863 H 164.731 -2.52875 -1.8682 0
M  V30 1864 N 168.503 -0.877838 -1.30888 0
M  V30 1865 C 169.451 -0.328662 -2.30266 0
M  V30 1866 C 170.445 0.560496 -1.59859 0
M  V30 1867 O 171.651 0.445722 -1.74394 0
M  V30 1868 H 168.026 -0.0876142 -0.746879 0
M  V30 1869 H 169.997 -1.18061 -2.74051 0
M  V30 1870 C 168.746 0.448071 -3.44801 0
M  V30 1871 H 168.069 -0.226859 -3.99156 0
M  V30 1872 H 169.509 0.797541 -4.16432 0
M  V30 1873 C 167.968 1.64239 -2.94155 0
M  V30 1874 O 168.498 2.74175 -2.93583 0
M  V30 1875 N 166.704 1.47716 -2.50256 0
M  V30 1876 H 166.251 0.582821 -2.5092 0
M  V30 1877 H 166.209 2.27765 -2.16727 0
M  V30 1878 N 169.982 1.44106 -0.638065 0
M  V30 1879 C 170.912 2.33448 0.0494287 0
M  V30 1880 C 171.893 1.48606 0.827672 0
M  V30 1881 O 173.078 1.77308 0.792173 0
M  V30 1882 C 170.208 3.31771 1.02691 0
M  V30 1883 C 169.162 4.26485 0.359823 0
M  V30 1884 C 168.488 5.14729 1.44769 0
M  V30 1885 C 169.788 5.17056 -0.738296 0
M  V30 1886 H 171.482 2.91183 -0.696636 0
M  V30 1887 H 169.028 1.40014 -0.336456 0
M  V30 1888 H 170.981 3.93161 1.51666 0
M  V30 1889 H 169.705 2.7226 1.80395 0
M  V30 1890 H 168.364 3.66437 -0.10934 0
M  V30 1891 H 168.012 4.51566 2.21578 0
M  V30 1892 H 167.712 5.78913 1.00668 0
M  V30 1893 H 169.236 5.78991 1.93911 0
M  V30 1894 H 170.65 5.72342 -0.331354 0
M  V30 1895 H 169.047 5.89879 -1.10286 0
M  V30 1896 H 170.117 4.57652 -1.60258 0
M  V30 1897 N 171.46 0.379036 1.52974 0
M  V30 1898 C 172.393 -0.504932 2.22544 0
M  V30 1899 C 173.371 -1.0723 1.22231 0
M  V30 1900 O 174.555 -1.12589 1.51182 0
M  V30 1901 C 171.682 -1.69794 2.93066 0
M  V30 1902 C 170.728 -1.25678 4.07563 0
M  V30 1903 S 171.561 -0.246852 5.34931 0
M  V30 1904 C 172.717 -1.44588 6.08971 0
M  V30 1905 H 172.95 0.0858666 2.97176 0
M  V30 1906 H 170.483 0.163183 1.53535 0
M  V30 1907 H 172.441 -2.38219 3.34308 0
M  V30 1908 H 171.102 -2.26002 2.18133 0
M  V30 1909 H 170.295 -2.14725 4.5597 0
M  V30 1910 H 169.897 -0.651584 3.6828 0
M  V30 1911 H 172.189 -2.37469 6.34519 0
M  V30 1912 H 173.132 -1.00292 7.00962 0
M  V30 1913 H 173.54 -1.65804 5.39601 0
M  V30 1914 N 172.938 -1.57226 0.108567 0
M  V30 1915 C 173.901 -2.13602 -0.831082 0
M  V30 1916 C 174.901 -1.06841 -1.20173 0
M  V30 1917 O 176.091 -1.32666 -1.12895 0
M  V30 1918 C 173.223 -2.66769 -2.12243 0
M  V30 1919 H 174.416 -2.97951 -0.341317 0
M  V30 1920 H 171.969 -1.55667 -0.14057 0
M  V30 1921 H 172.704 -1.85977 -2.65675 0
M  V30 1922 H 172.489 -3.44839 -1.86625 0
M  V30 1923 H 173.979 -3.10332 -2.79435 0
M  V30 1924 N 174.416 0.165178 -1.56732 0
M  V30 1925 C 175.641 0.900253 -1.86843 0
M  V30 1926 C 176.066 1.74766 -0.695596 0
M  V30 1927 O 175.424 1.77786 0.35522 0
M  V30 1928 C 175.472 1.74777 -3.15413 0
M  V30 1929 O 174.576 2.85007 -2.98068 0
M  V30 1930 H 173.917 0.251832 -0.614391 0
M  V30 1931 H 176.447 0.161468 -2.03962 0
M  V30 1932 H 176.457 2.14646 -3.46974 0
M  V30 1933 H 175.132 1.12537 -4.00385 0
M  V30 1934 H 173.709 2.48676 -2.77875 0
M  V30 1935 N 175.894 1.51508 0.433938 0
M  V30 1936 C 176.841 1.73068 1.52696 0
M  V30 1937 C 177.811 0.572441 1.55924 0
M  V30 1938 O 178.996 0.807253 1.72882 0
M  V30 1939 C 176.136 1.86474 2.90381 0
M  V30 1940 C 175.249 3.14037 2.96656 0
M  V30 1941 C 174.384 3.18019 4.25485 0
M  V30 1942 C 173.423 4.39882 4.2564 0
M  V30 1943 N 172.56 4.41394 5.45999 0
M  V30 1944 H 177.4 2.66366 1.33615 0
M  V30 1945 H 174.937 1.32008 0.649018 0
M  V30 1946 H 176.895 1.92229 3.70275 0
M  V30 1947 H 175.525 0.965809 3.08013 0
M  V30 1948 H 174.577 3.17575 2.09404 0
M  V30 1949 H 175.889 4.0394 2.92633 0
M  V30 1950 H 175.043 3.22708 5.13755 0
M  V30 1951 H 173.782 2.2601 4.3217 0
M  V30 1952 H 172.787 4.35366 3.35763 0
M  V30 1953 H 174.012 5.33159 4.20617 0
M  V30 1954 H 171.958 3.52258 5.53399 0
M  V30 1955 H 171.875 5.25111 5.4387 0
M  V30 1956 H 173.143 4.50281 6.36292 0
M  V30 1957 N 177.372 -0.689602 1.41712 0
M  V30 1958 C 178.621 -1.44534 1.40686 0
M  V30 1959 C 178.934 -1.95588 0.0213352 0
M  V30 1960 O 180.14 -2.71271 -0.111534 0
M  V30 1961 C 178.596 -2.61387 2.47396 0
M  V30 1962 C 178.204 -2.17094 3.91885 0
M  V30 1963 C 179.948 -3.38986 2.55517 0
M  V30 1964 C 177.855 -3.3094 4.90135 0
M  V30 1965 H 176.785 -0.542925 0.52321 0
M  V30 1966 H 179.436 -0.748054 1.6756 0
M  V30 1967 H 177.818 -3.33412 2.13664 0
M  V30 1968 H 178.992 -1.52318 4.34897 0
M  V30 1969 H 177.307 -1.52473 3.8748 0
M  V30 1970 H 179.904 -4.23747 3.26102 0
M  V30 1971 H 180.247 -3.84578 1.59391 0
M  V30 1972 H 180.78 -2.74021 2.8837 0
M  V30 1973 H 177.519 -2.90355 5.87685 0
M  V30 1974 H 177.039 -3.94546 4.51767 0
M  V30 1975 H 178.718 -3.9663 5.11169 0
M  V30 1976 N 178.85 -1.27639 -0.924453 0
M  V30 1977 C 180.096 -1.15345 -1.67532 0
M  V30 1978 C 180.451 0.297096 -1.90092 0
M  V30 1979 O 179.744 1.21374 -1.48253 0
M  V30 1980 C 179.938 -1.87407 -3.04325 0
M  V30 1981 C 179.767 -3.3932 -2.95114 0
M  V30 1982 C 178.537 -4.08644 -2.97218 0
M  V30 1983 C 180.735 -4.35242 -2.73987 0
M  V30 1984 N 178.717 -5.47102 -2.78482 0
M  V30 1985 C 180.088 -5.6099 -2.63988 0
M  V30 1986 C 182.143 -4.25294 -2.589 0
M  V30 1987 C 180.846 -6.77924 -2.40442 0
M  V30 1988 C 182.872 -5.41952 -2.36731 0
M  V30 1989 C 182.234 -6.66658 -2.27478 0
M  V30 1990 H 178.333 -0.47696 -0.619704 0
M  V30 1991 H 180.917 -1.6115 -1.09265 0
M  V30 1992 H 179.088 -1.44053 -3.60699 0
M  V30 1993 H 180.82 -1.6759 -3.68369 0
M  V30 1994 H 177.575 -3.60136 -3.07569 0
M  V30 1995 H 177.999 -6.19852 -2.72236 0
M  V30 1996 H 182.641 -3.29598 -2.64811 0
M  V30 1997 H 180.359 -7.73699 -2.3327 0
M  V30 1998 H 183.945 -5.36137 -2.25938 0
M  V30 1999 H 182.825 -7.55405 -2.10555 0
M  V30 2000 N 180.328 1.1314 -1.09713 0
M  V30 2001 C 181.556 1.88321 -0.856898 0
M  V30 2002 C 181.971 1.79276 0.592073 0
M  V30 2003 O 181.328 1.16142 1.40774 0
M  V30 2004 C 181.379 3.37812 -1.28706 0
M  V30 2005 O 181.1 3.46627 -2.67921 0
M  V30 2006 C 182.601 4.29952 -1.07964 0
M  V30 2007 H 179.821 0.596094 -0.308079 0
M  V30 2008 H 182.365 1.43205 -1.45988 0
M  V30 2009 H 180.52 3.805 -0.727912 0
M  V30 2010 H 180.934 4.39579 -2.8613 0
M  V30 2011 H 182.408 5.33159 -1.42986 0
M  V30 2012 H 182.885 4.39196 -0.0176577 0
M  V30 2013 H 183.491 3.93036 -1.62489 0
M  V30 2014 N 181.806 0.884767 1.30421 0
M  V30 2015 C 183.217 0.553656 1.78302 0
M  V30 2016 C 183.568 -0.930153 1.7275 0
M  V30 2017 O 182.693 -1.72681 1.30423 0
M  V30 2018 C 183.288 0.998234 3.2376 0
M  V30 2019 C 181.847 0.71854 3.69478 0
M  V30 2020 C 180.994 1.18132 2.50879 0
M  V30 2021 H 183.945 1.06901 1.17294 0
M  V30 2022 H 183.966 0.327118 3.79091 0
M  V30 2023 H 183.478 2.0782 3.27769 0
M  V30 2024 H 181.579 -0.349444 3.70958 0
M  V30 2025 H 181.692 1.30595 4.60958 0
M  V30 2026 H 180.056 0.600669 2.47516 0
M  V30 2027 H 180.839 2.26902 2.57624 0
M  V30 2028 N 183.284 -1.43765 0.645699 0
M  V30 2029 C 184.561 -1.9541 0.0862963 0
M  V30 2030 C 184.941 -1.58725 -1.39175 0
M  V30 2031 O 184.289 -0.868581 -2.11348 0
M  V30 2032 C 184.499 -3.47488 0.324565 0
M  V30 2033 C 185.847 -4.24001 0.225497 0
M  V30 2034 O 186.871 -3.55274 0.256715 0
M  V30 2035 O 185.73 -5.46313 0.142801 0
M  V30 2036 H 182.824 -0.826882 -0.0139483 0
M  V30 2037 H 185.37 -1.53743 0.718415 0
M  V30 2038 H 184.142 -3.67289 1.3496 0
M  V30 2039 H 183.765 -3.96135 -0.340987 0
M  V30 2040 N 184.763 -0.387143 -1.52771 0
M  V30 2041 C 185.991 0.195869 -2.05971 0
M  V30 2042 C 186.406 1.40691 -1.25903 0
M  V30 2043 O 185.763 1.79931 -0.305134 0
M  V30 2044 C 185.814 0.56812 -3.57008 0
M  V30 2045 O 185.535 -0.594803 -4.34043 0
M  V30 2046 C 187.036 1.20723 -4.26545 0
M  V30 2047 H 184.256 0.0300578 -0.670326 0
M  V30 2048 H 186.8 -0.551749 -1.96916 0
M  V30 2049 H 184.955 1.26564 -3.66143 0
M  V30 2050 H 185.369 -0.289322 -5.23701 0
M  V30 2051 H 186.843 1.41807 -5.33474 0
M  V30 2052 H 187.32 2.17395 -3.81623 0
M  V30 2053 H 187.926 0.550535 -4.21722 0
M  V30 2054 N 186.241 1.57166 -0.116904 0
M  V30 2055 C 187.488 1.95123 0.541603 0
M  V30 2056 C 187.816 1.00006 1.6682 0
M  V30 2057 O 187.071 0.0235658 1.95686 0
M  V30 2058 C 187.37 3.39508 1.11664 0
M  V30 2059 C 187.036 4.50762 0.111606 0
M  V30 2060 C 185.698 4.80918 -0.164758 0
M  V30 2061 C 188.05 5.18036 -0.573438 0
M  V30 2062 C 185.378 5.75666 -1.13249 0
M  V30 2063 C 187.73 6.13824 -1.52978 0
M  V30 2064 C 186.394 6.42374 -1.81415 0
M  V30 2065 H 185.664 0.714005 0.198187 0
M  V30 2066 H 188.311 1.9048 -0.197365 0
M  V30 2067 H 186.616 3.40835 1.93232 0
M  V30 2068 H 188.313 3.66189 1.63422 0
M  V30 2069 H 184.903 4.27272 0.337192 0
M  V30 2070 H 189.087 4.94896 -0.373092 0
M  V30 2071 H 184.343 5.96092 -1.35958 0
M  V30 2072 H 188.517 6.65039 -2.06629 0
M  V30 2073 H 186.144 7.15599 -2.56557 0
M  V30 2074 N 187.719 -0.156864 1.56817 0
M  V30 2075 C 188.966 -0.871125 1.82805 0
M  V30 2076 C 189.294 -1.81611 0.696262 0
M  V30 2077 O 188.549 -1.93141 -0.315459 0
M  V30 2078 C 188.848 -1.68737 3.1506 0
M  V30 2079 C 188.514 -0.890045 4.42028 0
M  V30 2080 C 187.176 -0.670042 4.76512 0
M  V30 2081 C 189.528 -0.331769 5.20143 0
M  V30 2082 C 186.856 0.119104 5.86579 0
M  V30 2083 C 189.208 0.444365 6.31037 0
M  V30 2084 C 187.872 0.675035 6.64078 0
M  V30 2085 H 187.142 -0.318767 0.668931 0
M  V30 2086 H 189.789 -0.135274 1.91022 0
M  V30 2087 H 188.094 -2.49304 3.0225 0
M  V30 2088 H 189.791 -2.24331 3.3238 0
M  V30 2089 H 186.381 -1.07157 4.14988 0
M  V30 2090 H 190.565 -0.489043 4.93885 0
M  V30 2091 H 185.821 0.307417 6.10627 0
M  V30 2092 H 189.995 0.884139 6.90765 0
M  V30 2093 H 187.622 1.28839 7.49203 0
M  V30 2094 N 189.197 -1.51736 -0.425897 0
M  V30 2095 C 190.147 -1.70258 -1.51645 0
M  V30 2096 C 191.131 -0.556488 -1.5097 0
M  V30 2097 O 192.323 -0.812879 -1.5723 0
M  V30 2098 C 189.452 -1.84143 -2.89735 0
M  V30 2099 C 188.538 -3.04572 -2.95122 0
M  V30 2100 N 188.929 -4.2756 -2.70233 0
M  V30 2101 C 187.227 -3.04061 -3.26286 0
M  V30 2102 C 187.928 -5.08908 -2.81757 0
M  V30 2103 N 186.904 -4.43797 -3.13919 0
M  V30 2104 H 190.706 -2.63004 -1.31172 0
M  V30 2105 H 188.22 -1.4954 -0.633375 0
M  V30 2106 H 190.217 -1.95525 -3.68206 0
M  V30 2107 H 188.877 -0.925857 -3.1122 0
M  V30 2108 H 189.888 -4.56315 -2.44943 0
M  V30 2109 H 186.565 -2.22179 -3.53473 0
M  V30 2110 H 187.955 -6.16843 -2.66372 0
M  V30 2111 N 190.675 0.682077 -1.42076 0
M  V30 2112 C 191.623 1.81707 -1.45208 0
M  V30 2113 C 192.617 1.66183 -0.328591 0
M  V30 2114 O 193.823 1.7288 -0.501264 0
M  V30 2115 H 190.198 0.599014 -0.454628 0
M  V30 2116 H 192.169 1.76183 -2.40836 0
M  V30 2117 C 190.918 3.19816 -1.36428 0
M  V30 2118 H 190.241 3.32385 -2.22171 0
M  V30 2119 H 191.681 3.99272 -1.42681 0
M  V30 2120 C 190.14 3.36809 -0.078191 0
M  V30 2121 O 190.67 3.92124 0.87188 0
M  V30 2122 N 188.876 2.906 0.00229266 0
M  V30 2123 H 188.423 2.45772 -0.771616 0
M  V30 2124 H 188.381 3.02347 0.862179 0
M  V30 2125 N 192.153 1.28127 0.917671 0
M  V30 2126 C 193.401 1.14825 1.66312 0
M  V30 2127 C 193.722 -0.304379 1.9261 0
M  V30 2128 O 192.992 -1.21149 1.53947 0
M  V30 2129 H 191.572 0.421953 0.616413 0
M  V30 2130 H 194.234 1.608 1.10134 0
M  V30 2131 H 193.33 1.68489 2.62712 0
M  V30 2132 N 193.631 -1.12557 1.10312 0
M  V30 2133 C 194.578 -2.18247 0.750781 0
M  V30 2134 C 195.548 -1.63853 -0.272293 0
M  V30 2135 O 196.733 -1.90195 -0.151862 0
M  V30 2136 C 193.873 -3.44591 0.187379 0
M  V30 2137 C 192.986 -4.13046 1.2656 0
M  V30 2138 C 192.121 -5.27034 0.663978 0
M  V30 2139 C 191.16 -5.87353 1.72287 0
M  V30 2140 N 190.297 -6.92757 1.1416 0
M  V30 2141 H 195.137 -2.47732 1.65628 0
M  V30 2142 H 192.674 -1.21629 0.827337 0
M  V30 2143 H 194.632 -4.16904 -0.157148 0
M  V30 2144 H 193.262 -3.15527 -0.681355 0
M  V30 2145 H 192.314 -3.38924 1.72727 0
M  V30 2146 H 193.626 -4.53947 2.06721 0
M  V30 2147 H 192.78 -6.06104 0.268824 0
M  V30 2148 H 191.519 -4.87407 -0.169082 0
M  V30 2149 H 190.524 -5.06971 2.12746 0
M  V30 2150 H 191.749 -6.29051 2.55875 0
M  V30 2151 H 189.695 -6.5517 0.329984 0
M  V30 2152 H 189.612 -7.3225 1.88007 0
M  V30 2153 H 190.88 -7.75658 0.772956 0
M  V30 2154 N 195.109 -0.891671 -1.2995 0
M  V30 2155 C 196.056 -0.361736 -2.27948 0
M  V30 2156 C 197.026 0.551761 -1.56668 0
M  V30 2157 O 198.211 0.478736 -1.84696 0
M  V30 2158 C 195.351 0.411825 -3.42634 0
M  V30 2159 C 194.464 -0.531651 -4.28716 0
M  V30 2160 C 193.599 0.258167 -5.30572 0
M  V30 2161 C 192.638 -0.680349 -6.08307 0
M  V30 2162 N 191.775 0.0745613 -7.0206 0
M  V30 2163 H 196.615 -1.20254 -2.72659 0
M  V30 2164 H 194.152 -0.604352 -1.34112 0
M  V30 2165 H 196.11 0.876304 -4.07893 0
M  V30 2166 H 194.74 1.21715 -2.98974 0
M  V30 2167 H 193.792 -1.11463 -3.63703 0
M  V30 2168 H 195.104 -1.25038 -4.82874 0
M  V30 2169 H 194.258 0.784204 -6.0161 0
M  V30 2170 H 192.997 1.01008 -4.77126 0
M  V30 2171 H 192.002 -1.21796 -5.3614 0
M  V30 2172 H 193.227 -1.43145 -6.63842 0
M  V30 2173 H 191.173 0.808883 -6.50994 0
M  V30 2174 H 191.09 -0.584409 -7.53738 0
M  V30 2175 H 192.358 0.581123 -7.77331 0
M  V30 2176 N 196.587 1.43421 -0.653314 0
M  V30 2177 C 197.812 2.06678 -0.172846 0
M  V30 2178 C 198.237 1.48648 1.15262 0
M  V30 2179 O 197.595 0.596457 1.71208 0
M  V30 2180 C 197.643 3.60474 -0.0953184 0
M  V30 2181 O 196.747 4.01487 0.942442 0
M  V30 2182 H 196.088 0.657181 -0.0949155 0
M  V30 2183 H 198.618 1.83925 -0.896265 0
M  V30 2184 H 198.628 4.07905 0.0879728 0
M  V30 2185 H 197.303 4.02088 -1.06291 0
M  V30 2186 H 195.88 3.65646 0.731932 0
M  V30 2187 N 198.065 0.39524 1.52563 0
M  V30 2188 C 199.311 -0.185318 2.01952 0
M  V30 2189 C 199.644 -1.45964 1.28095 0
M  V30 2190 O 198.919 -1.90689 0.38315 0
M  V30 2191 C 199.202 -0.447193 3.57312 0
M  V30 2192 C 199.055 0.842828 4.41833 0
M  V30 2193 C 200.374 -1.23529 4.22408 0
M  V30 2194 H 197.493 -0.0658788 0.73405 0
M  V30 2195 H 200.135 0.525975 1.82575 0
M  V30 2196 H 198.285 -1.05312 3.73954 0
M  V30 2197 H 199.957 1.4795 4.36931 0
M  V30 2198 H 198.2 1.45686 4.08605 0
M  V30 2199 H 198.871 0.614165 5.48573 0
M  V30 2200 H 201.347 -0.722445 4.0978 0
M  V30 2201 H 200.223 -1.38727 5.3108 0
M  V30 2202 H 200.484 -2.25213 3.80436 0
M  V30 2203 N 199.544 -1.57102 0.125237 0
M  V30 2204 C 200.507 -2.14471 -0.80838 0
M  V30 2205 C 201.507 -1.0811 -1.19033 0
M  V30 2206 O 202.697 -1.33856 -1.11482 0
M  V30 2207 C 199.829 -2.69005 -2.09402 0
M  V30 2208 H 201.022 -2.98297 -0.309696 0
M  V30 2209 H 198.575 -1.55807 -0.124051 0
M  V30 2210 H 199.31 -1.88785 -2.63687 0
M  V30 2211 H 199.095 -3.46799 -1.82957 0
M  V30 2212 H 200.585 -3.13278 -2.76128 0
M  V30 2213 N 201.022 0.148545 -1.56898 0
M  V30 2214 C 201.972 1.1886 -1.94567 0
M  V30 2215 C 202.956 1.3863 -0.816735 0
M  V30 2216 O 204.148 1.40218 -1.08018 0
M  V30 2217 C 201.277 2.52262 -2.32849 0
M  V30 2218 C 200.363 2.36092 -3.52309 0
M  V30 2219 N 200.754 1.89674 -4.6889 0
M  V30 2220 C 199.052 2.66848 -3.57363 0
M  V30 2221 C 199.753 1.86511 -5.50989 0
M  V30 2222 N 198.729 2.29766 -4.92655 0
M  V30 2223 H 202.531 0.821793 -2.82177 0
M  V30 2224 H 200.045 0.356615 -1.58436 0
M  V30 2225 H 202.042 3.27447 -2.58039 0
M  V30 2226 H 200.702 2.89727 -1.46589 0
M  V30 2227 H 201.713 1.59663 -4.92674 0
M  V30 2228 H 198.39 3.08198 -2.81639 0
M  V30 2229 H 199.78 1.52128 -6.54452 0
M  V30 2230 N 202.5 1.5196 0.417844 0
M  V30 2231 C 203.448 1.75278 1.52907 0
M  V30 2232 C 204.442 0.619611 1.57662 0
M  V30 2233 O 205.648 0.801457 1.61173 0
M  V30 2234 H 202.023 0.554141 0.508362 0
M  V30 2235 H 203.994 2.68389 1.30422 0
M  V30 2236 C 202.743 1.91262 2.90369 0
M  V30 2237 H 202.066 2.77872 2.8745 0
M  V30 2238 H 203.506 2.11581 3.67436 0
M  V30 2239 C 201.965 0.677431 3.30019 0
M  V30 2240 O 202.495 -0.158799 4.01386 0
M  V30 2241 N 200.701 0.515851 2.85985 0
M  V30 2242 H 200.248 1.19744 2.28077 0
M  V30 2243 H 200.206 -0.309315 3.12875 0
M  V30 2244 N 203.978 -0.674533 1.42435 0
M  V30 2245 C 204.911 -1.79924 1.40366 0
M  V30 2246 C 205.889 -1.60378 0.267899 0
M  V30 2247 O 207.073 -1.82847 0.458159 0
M  V30 2248 C 204.2 -3.16927 1.19478 0
M  V30 2249 C 203.246 -3.55221 2.36051 0
M  V30 2250 S 204.079 -3.5762 3.98583 0
M  V30 2251 C 205.235 -4.97315 3.80038 0
M  V30 2252 H 205.468 -1.81405 2.35541 0
M  V30 2253 H 203.001 -0.845221 1.29211 0
M  V30 2254 H 204.959 -3.96007 1.08114 0
M  V30 2255 H 203.62 -3.13031 0.258883 0
M  V30 2256 H 202.813 -4.54804 2.17185 0
M  V30 2257 H 202.415 -2.83502 2.43932 0
M  V30 2258 H 204.707 -5.85401 3.41045 0
M  V30 2259 H 205.65 -5.21228 4.79298 0
M  V30 2260 H 206.058 -4.69845 3.12899 0
M  V30 2261 N 205.456 -1.28612 -0.910864 0
M  V30 2262 C 206.684 -1.18792 -1.69399 0
M  V30 2263 C 207.099 0.253039 -1.87097 0
M  V30 2264 O 206.456 1.17071 -1.40003 0
M  V30 2265 C 206.507 -1.88511 -3.08457 0
M  V30 2266 O 206.228 -3.26979 -2.91576 0
M  V30 2267 C 207.729 -1.85029 -4.02839 0
M  V30 2268 H 204.949 -0.412233 -0.529438 0
M  V30 2269 H 207.493 -1.69788 -1.13984 0
M  V30 2270 H 205.648 -1.41379 -3.60681 0
M  V30 2271 H 206.062 -3.61936 -3.79608 0
M  V30 2272 H 207.536 -2.38395 -4.97867 0
M  V30 2273 H 208.013 -0.823303 -4.31414 0
M  V30 2274 H 208.619 -2.31853 -3.56545 0
M  V30 2275 N 206.934 1.1197 -1.10907 0
M  V30 2276 C 207.867 2.16998 -0.706192 0
M  V30 2277 C 208.845 1.59903 0.294897 0
M  V30 2278 O 210.029 1.87513 0.192636 0
M  V30 2279 C 207.156 3.38673 -0.0427664 0
M  V30 2280 C 206.202 4.14414 -1.00811 0
M  V30 2281 S 207.035 4.72079 -2.52789 0
M  V30 2282 C 208.191 5.97083 -1.87731 0
M  V30 2283 H 208.424 2.50837 -1.59587 0
M  V30 2284 H 205.957 1.23508 -0.926555 0
M  V30 2285 H 207.915 4.09142 0.333668 0
M  V30 2286 H 206.576 3.03105 0.823788 0
M  V30 2287 H 205.769 5.016 -0.491259 0
M  V30 2288 H 205.371 3.49678 -1.3267 0
M  V30 2289 H 207.663 6.66599 -1.21044 0
M  V30 2290 H 208.606 6.53403 -2.72892 0
M  V30 2291 H 209.014 5.4837 -1.33979 0
M  V30 2292 N 208.412 0.89855 1.29475 0
M  V30 2293 C 209.823 0.572537 1.77705 0
M  V30 2294 C 210.174 -0.911778 1.73727 0
M  V30 2295 O 209.299 -1.71288 1.32247 0
M  V30 2296 C 209.894 1.03252 3.22683 0
M  V30 2297 C 208.453 0.757687 3.68695 0
M  V30 2298 C 207.6 1.20787 2.49612 0
M  V30 2299 H 210.551 1.08139 1.16153 0
M  V30 2300 H 210.572 0.367307 3.78723 0
M  V30 2301 H 210.084 2.11285 3.25546 0
M  V30 2302 H 208.185 -0.310079 3.71308 0
M  V30 2303 H 208.298 1.35476 4.59547 0
M  V30 2304 H 206.662 0.626888 2.46865 0
M  V30 2305 H 207.445 2.29622 2.55203 0
M  V30 2306 N 209.89 -1.43072 0.660911 0
M  V30 2307 C 210.838 -2.32569 -0.0378199 0
M  V30 2308 C 211.832 -1.49046 -0.805092 0
M  V30 2309 O 213.038 -1.65206 -0.714624 0
M  V30 2310 H 209.413 -0.75136 -0.031019 0
M  V30 2311 H 211.384 -2.89216 0.734609 0
M  V30 2312 C 210.133 -3.33453 -0.985124 0
M  V30 2313 H 209.456 -3.97752 -0.404147 0
M  V30 2314 H 210.896 -3.98691 -1.44297 0
M  V30 2315 C 209.355 -2.64642 -2.08486 0
M  V30 2316 O 209.885 -2.46776 -3.16961 0
M  V30 2317 N 208.091 -2.23891 -1.8526 0
M  V30 2318 H 207.638 -2.38621 -0.970449 0
M  V30 2319 H 207.596 -1.78181 -2.59034 0
M  V30 2320 N 211.368 -0.403325 -1.52352 0
M  V30 2321 C 212.315 0.425011 -2.26853 0
M  V30 2322 C 213.285 1.04598 -1.29029 0
M  V30 2323 O 214.47 1.07135 -1.57882 0
M  V30 2324 C 211.61 1.53888 -3.08889 0
M  V30 2325 C 210.723 0.939396 -4.21663 0
M  V30 2326 C 209.858 2.02547 -4.91068 0
M  V30 2327 C 208.897 1.40263 -5.95813 0
M  V30 2328 N 208.034 2.4286 -6.58759 0
M  V30 2329 H 212.874 -0.21674 -2.97211 0
M  V30 2330 H 210.411 -0.118722 -1.4662 0
M  V30 2331 H 212.369 2.19558 -3.54753 0
M  V30 2332 H 210.999 2.15074 -2.40714 0
M  V30 2333 H 210.051 0.171898 -3.80011 0
M  V30 2334 H 211.363 0.44436 -4.96817 0
M  V30 2335 H 210.517 2.75958 -5.40308 0
M  V30 2336 H 209.256 2.55415 -4.15469 0
M  V30 2337 H 208.261 0.653833 -5.45898 0
M  V30 2338 H 209.486 0.881719 -6.73352 0
M  V30 2339 H 207.432 2.94871 -5.85992 0
M  V30 2340 H 207.349 1.98152 -7.2957 0
M  V30 2341 H 208.617 3.15858 -7.12639 0
M  V30 2342 N 212.846 1.57033 -0.133567 0
M  V30 2343 C 213.776 2.1909 0.807567 0
M  V30 2344 C 214.757 1.13517 1.26681 0
M  V30 2345 O 215.942 1.41809 1.32679 0
M  V30 2346 C 213.072 2.80188 2.05212 0
M  V30 2347 C 212.026 3.91471 1.73015 0
M  V30 2348 C 211.352 4.39443 3.04622 0
M  V30 2349 C 212.652 5.12886 0.987168 0
M  V30 2350 H 214.346 2.97988 0.290403 0
M  V30 2351 H 211.892 1.43335 0.138239 0
M  V30 2352 H 213.845 3.22264 2.71521 0
M  V30 2353 H 212.569 1.98601 2.59278 0
M  V30 2354 H 211.228 3.49993 1.0909 0
M  V30 2355 H 210.876 3.54695 3.56651 0
M  V30 2356 H 210.576 5.14495 2.83847 0
M  V30 2357 H 212.1 4.8418 3.72024 0
M  V30 2358 H 213.514 5.51891 1.55208 0
M  V30 2359 H 211.911 5.93615 0.87985 0
M  V30 2360 H 212.981 4.84894 -0.0235286 0
M  V30 2361 N 214.325 -0.140222 1.56975 0
M  V30 2362 C 215.255 -1.17456 2.01808 0
M  V30 2363 C 216.236 -1.44415 0.898794 0
M  V30 2364 O 217.421 -1.5522 1.16707 0
M  V30 2365 C 214.551 -2.50607 2.40444 0
M  V30 2366 C 213.505 -2.38155 3.55621 0
M  V30 2367 C 212.831 -3.76078 3.80091 0
M  V30 2368 C 214.131 -1.85991 4.88062 0
M  V30 2369 H 215.825 -0.801743 2.88466 0
M  V30 2370 H 213.371 -0.38422 1.38779 0
M  V30 2371 H 215.324 -3.23197 2.7041 0
M  V30 2372 H 214.048 -2.89737 1.50732 0
M  V30 2373 H 212.707 -1.68016 3.25832 0
M  V30 2374 H 212.355 -4.12656 2.87618 0
M  V30 2375 H 212.055 -3.68606 4.57606 0
M  V30 2376 H 213.579 -4.50206 4.12488 0
M  V30 2377 H 214.993 -2.4838 5.16701 0
M  V30 2378 H 213.39 -1.89393 5.6943 0
M  V30 2379 H 214.46 -0.816023 4.77984 0
M  V30 2380 N 215.803 -1.52179 -0.40978 0
M  V30 2381 C 217.219 -1.40968 -0.74835 0
M  V30 2382 C 217.419 -0.513657 -1.94843 0
M  V30 2383 O 216.475 0.0208026 -2.52491 0
M  V30 2384 C 217.788 -2.83483 -1.0029 0
M  V30 2385 C 219.336 -2.92821 -1.10565 0
M  V30 2386 C 219.811 -4.36303 -1.39296 0
M  V30 2387 N 221.302 -4.39535 -1.46162 0
M  V30 2388 C 222.037 -5.47614 -1.70018 0
M  V30 2389 N 221.533 -6.65812 -1.91483 0
M  V30 2390 N 223.326 -5.35129 -1.72027 0
M  V30 2391 H 215.477 -2.0897 0.380186 0
M  V30 2392 H 217.74 -0.94185 0.107805 0
M  V30 2393 H 217.446 -3.51168 -0.193461 0
M  V30 2394 H 217.32 -3.24487 -1.92323 0
M  V30 2395 H 219.707 -2.25318 -1.90568 0
M  V30 2396 H 219.788 -2.55276 -0.16369 0
M  V30 2397 H 219.432 -5.04366 -0.598109 0
M  V30 2398 H 219.362 -4.71385 -2.34743 0
M  V30 2399 H 221.853 -3.54332 -1.31367 0
M  V30 2400 H 222.166 -7.43964 -2.09134 0
M  V30 2401 H 220.511 -6.68879 -1.88749 0
M  V30 2402 H 223.702 -4.41764 -1.54796 0
M  V30 2403 H 223.875 -6.19433 -1.9028 0
M  V30 2404 N 217.281 0.66697 -1.42791 0
M  V30 2405 C 218.53 1.42278 -1.42968 0
M  V30 2406 C 218.843 1.9553 -0.0524489 0
M  V30 2407 O 220.049 2.71414 0.068363 0
M  V30 2408 C 218.505 2.57418 -2.51524 0
M  V30 2409 C 218.113 2.10832 -3.9529 0
M  V30 2410 C 219.857 3.34878 -2.60877 0
M  V30 2411 C 217.764 3.23101 -4.95338 0
M  V30 2412 H 216.694 0.534533 -0.531781 0
M  V30 2413 H 219.345 0.721302 -1.68729 0
M  V30 2414 H 217.727 3.29971 -2.18941 0
M  V30 2415 H 218.901 1.4538 -4.37266 0
M  V30 2416 H 217.216 1.46289 -3.89857 0
M  V30 2417 H 219.813 4.18505 -3.32802 0
M  V30 2418 H 220.156 3.81993 -1.6549 0
M  V30 2419 H 220.689 2.69398 -2.92693 0
M  V30 2420 H 217.428 2.80969 -5.9223 0
M  V30 2421 H 216.948 3.87309 -4.57987 0
M  V30 2422 H 218.627 3.88447 -5.17415 0
M  V30 2423 N 218.759 1.29093 0.90403 0
M  V30 2424 C 219.987 1.19689 1.68766 0
M  V30 2425 C 220.402 -0.243113 1.87228 0
M  V30 2426 O 219.759 -1.16326 1.40621 0
M  V30 2427 C 219.81 1.90144 3.07453 0
M  V30 2428 O 219.531 3.2852 2.89838 0
M  V30 2429 C 221.032 1.87162 4.01852 0
M  V30 2430 H 218.252 0.415035 0.527244 0
M  V30 2431 H 220.796 1.7039 1.13082 0
M  V30 2432 H 218.951 1.43289 3.59926 0
M  V30 2433 H 219.365 3.63944 3.77684 0
M  V30 2434 H 220.839 2.41032 4.96596 0
M  V30 2435 H 221.316 0.84617 4.30972 0
M  V30 2436 H 221.922 2.33741 3.5531 0
M  V30 2437 N 220.237 -1.11381 1.11499 0
M  V30 2438 C 221.147 -2.21019 0.786628 0
M  V30 2439 C 222.163 -1.72597 -0.220507 0
M  V30 2440 O 223.339 -2.01321 -0.0565251 0
M  V30 2441 C 220.404 -3.459 0.235333 0
M  V30 2442 C 219.465 -4.09107 1.30115 0
M  V30 2443 C 218.698 -5.28027 0.776068 0
M  V30 2444 O 218.921 -5.6904 -0.393661 0
M  V30 2445 O 217.855 -5.81835 1.54114 0
M  V30 2446 H 221.681 -2.51521 1.70209 0
M  V30 2447 H 219.266 -1.19928 0.890928 0
M  V30 2448 H 221.148 -4.21346 -0.067715 0
M  V30 2449 H 219.823 -3.17049 -0.652828 0
M  V30 2450 H 218.73 -3.35391 1.65722 0
M  V30 2451 H 220.063 -4.42139 2.16273 0
M  V30 2452 N 221.715 -0.905404 -1.28997 0
M  V30 2453 C 222.992 -0.453513 -1.9027 0
M  V30 2454 C 223.372 1.06721 -1.82137 0
M  V30 2455 O 222.72 1.91159 -1.25182 0
M  V30 2456 C 222.93 -0.974494 -3.35119 0
M  V30 2457 C 224.278 -1.0216 -4.12127 0
M  V30 2458 O 225.302 -0.922557 -3.44046 0
M  V30 2459 O 224.161 -1.17121 -5.33802 0
M  V30 2460 H 221.255 -0.142347 -0.814657 0
M  V30 2461 H 223.801 -0.995642 -1.37423 0
M  V30 2462 H 222.573 -2.01848 -3.35221 0
M  V30 2463 H 222.196 -0.412706 -3.95452 0
M  V30 2464 N 223.193 1.4272 -0.668489 0
M  V30 2465 C 224.441 2.01226 -0.187769 0
M  V30 2466 C 224.762 1.53092 1.2078 0
M  V30 2467 O 224.032 0.74993 1.80977 0
M  V30 2468 H 222.612 0.744041 -0.0664272 0
M  V30 2469 H 225.274 1.74723 -0.863583 0
M  V30 2470 H 224.37 3.11556 -0.184166 0
M  V30 2471 N 224.671 0.411399 1.52136 0
M  V30 2472 C 225.899 -0.163076 2.06256 0
M  V30 2473 C 226.314 -1.3867 1.28125 0
M  V30 2474 O 225.671 -1.79423 0.333721 0
M  V30 2475 C 225.722 -0.511252 3.57867 0
M  V30 2476 O 225.443 0.66378 4.33042 0
M  V30 2477 C 226.944 -1.13921 4.28412 0
M  V30 2478 H 224.164 -0.0193897 0.67072 0
M  V30 2479 H 226.708 0.583007 1.96013 0
M  V30 2480 H 224.863 -1.20723 3.6811 0
M  V30 2481 H 225.277 0.372601 5.23175 0
M  V30 2482 H 226.751 -1.33302 5.35663 0
M  V30 2483 H 227.228 -2.11296 3.85033 0
M  V30 2484 H 227.834 -0.483373 4.22544 0
M  V30 2485 N 226.149 -1.5696 0.141893 0
M  V30 2486 C 227.079 -2.19516 -0.795936 0
M  V30 2487 C 228.06 -1.14187 -1.26077 0
M  V30 2488 O 229.245 -1.42511 -1.31925 0
M  V30 2489 C 226.375 -2.81272 -2.03723 0
M  V30 2490 C 225.329 -3.92384 -1.70936 0
M  V30 2491 C 224.655 -4.41052 -3.02287 0
M  V30 2492 C 225.955 -5.13403 -0.959954 0
M  V30 2493 H 227.649 -2.98138 -0.274596 0
M  V30 2494 H 225.195 -1.43406 -0.130636 0
M  V30 2495 H 227.148 -3.237 -2.69808 0
M  V30 2496 H 225.872 -1.99973 -2.58221 0
M  V30 2497 H 224.531 -3.50566 -1.07232 0
M  V30 2498 H 224.179 -3.56582 -3.54765 0
M  V30 2499 H 223.879 -5.15993 -2.81114 0
M  V30 2500 H 225.403 -4.86146 -3.69451 0
M  V30 2501 H 226.817 -5.52706 -1.52279 0
M  V30 2502 H 225.214 -5.94073 -0.848357 0
M  V30 2503 H 226.284 -4.84875 0.0492434 0
M  V30 2504 N 227.627 0.131896 -1.57047 0
M  V30 2505 C 228.557 1.16384 -2.02428 0
M  V30 2506 C 229.538 1.43936 -0.90644 0
M  V30 2507 O 230.723 1.54599 -1.17528 0
M  V30 2508 C 227.853 2.49328 -2.4177 0
M  V30 2509 C 226.807 2.36266 -3.56879 0
M  V30 2510 C 226.133 3.74057 -3.8208 0
M  V30 2511 C 227.433 1.834 -4.89042 0
M  V30 2512 H 229.127 0.786433 -2.88887 0
M  V30 2513 H 226.673 0.376855 -1.38981 0
M  V30 2514 H 228.626 3.21759 -2.7212 0
M  V30 2515 H 227.35 2.88934 -1.52266 0
M  V30 2516 H 226.009 1.66286 -3.26718 0
M  V30 2517 H 225.657 4.11125 -2.89803 0
M  V30 2518 H 225.357 3.66174 -4.59554 0
M  V30 2519 H 226.881 4.48012 -4.1487 0
M  V30 2520 H 228.295 2.45636 -5.18011 0
M  V30 2521 H 226.692 1.8637 -5.70426 0
M  V30 2522 H 227.762 0.790662 -4.7841 0
M  V30 2523 N 229.106 1.52395 0.401703 0
M  V30 2524 C 230.336 1.70429 1.1678 0
M  V30 2525 C 230.744 0.416702 1.84554 0
M  V30 2526 O 230.087 -0.617697 1.73003 0
M  V30 2527 C 230.149 2.78919 2.26814 0
M  V30 2528 C 229.813 4.20437 1.79113 0
M  V30 2529 C 230.81 5.04028 1.27482 0
M  V30 2530 C 228.495 4.66704 1.85722 0
M  V30 2531 C 230.489 6.31961 0.830913 0
M  V30 2532 C 228.176 5.94625 1.40942 0
M  V30 2533 C 229.174 6.77082 0.897128 0
M  V30 2534 O 228.862 8.02607 0.455822 0
M  V30 2535 H 228.594 0.574272 0.356634 0
M  V30 2536 H 231.148 1.99767 0.477724 0
M  V30 2537 H 229.378 2.44973 2.99207 0
M  V30 2538 H 231.067 2.8548 2.88541 0
M  V30 2539 H 231.833 4.69471 1.21744 0
M  V30 2540 H 227.712 4.0262 2.24539 0
M  V30 2541 H 231.256 6.96271 0.430368 0
M  V30 2542 H 227.153 6.28688 1.46362 0
M  V30 2543 H 227.921 8.16453 0.578457 0
M  V30 2544 N 230.584 -0.659388 1.43143 0
M  V30 2545 C 231.812 -1.44723 1.47861 0
M  V30 2546 C 232.227 -1.88563 0.0945886 0
M  V30 2547 O 231.584 -1.59108 -0.893915 0
M  V30 2548 C 231.635 -2.68627 2.41913 0
M  V30 2549 O 231.356 -2.26623 3.74932 0
M  V30 2550 C 232.857 -3.62045 2.55809 0
M  V30 2551 H 230.077 -0.444801 0.502387 0
M  V30 2552 H 232.621 -0.808916 1.87821 0
M  V30 2553 H 230.776 -3.28613 2.05164 0
M  V30 2554 H 231.19 -3.06745 4.2545 0
M  V30 2555 H 232.664 -4.45666 3.25708 0
M  V30 2556 H 233.141 -4.08981 1.60099 0
M  V30 2557 H 233.747 -3.07944 2.93344 0
M  V30 2558 N 232.062 -1.29571 -0.897171 0
M  V30 2559 C 232.995 -1.0924 -2.00354 0
M  V30 2560 C 233.973 -0.00354011 -1.626 0
M  V30 2561 O 235.157 -0.15473 -1.87864 0
M  V30 2562 C 232.284 -0.66352 -3.32137 0
M  V30 2563 C 231.33 -1.75146 -3.88878 0
M  V30 2564 S 232.163 -3.35124 -4.17674 0
M  V30 2565 C 233.319 -2.9411 -5.52494 0
M  V30 2566 H 233.552 -2.02907 -2.17292 0
M  V30 2567 H 231.085 -1.13746 -1.04408 0
M  V30 2568 H 233.043 -0.422791 -4.08317 0
M  V30 2569 H 231.704 0.253588 -3.13075 0
M  V30 2570 H 230.897 -1.40337 -4.84068 0
M  V30 2571 H 230.499 -1.94584 -3.19395 0
M  V30 2572 H 232.791 -2.41312 -6.33068 0
M  V30 2573 H 233.734 -3.88161 -5.9223 0
M  V30 2574 H 234.142 -2.32332 -5.14473 0
M  V30 2575 N 233.54 1.10788 -1.12088 0
M  V30 2576 C 234.956 1.34691 -0.856186 0
M  V30 2577 C 235.156 1.94791 0.515615 0
M  V30 2578 O 234.212 2.18524 1.26505 0
M  V30 2579 C 235.525 2.27208 -1.9697 0
M  V30 2580 C 237.073 2.40755 -2.00016 0
M  V30 2581 C 237.548 3.36598 -3.1059 0
M  V30 2582 N 239.039 3.44164 -3.10008 0
M  V30 2583 C 239.774 4.18284 -3.92206 0
M  V30 2584 N 239.27 4.95322 -4.84384 0
M  V30 2585 N 241.063 4.13865 -3.80357 0
M  V30 2586 H 233.214 0.70144 -2.00483 0
M  V30 2587 H 235.477 0.371405 -0.872217 0
M  V30 2588 H 235.183 1.90251 -2.958 0
M  V30 2589 H 235.057 3.27485 -1.87172 0
M  V30 2590 H 237.444 2.76982 -1.01808 0
M  V30 2591 H 237.525 1.40305 -2.13888 0
M  V30 2592 H 237.169 3.01096 -4.09028 0
M  V30 2593 H 237.099 4.36918 -2.93956 0
M  V30 2594 H 239.59 2.8922 -2.43228 0
M  V30 2595 H 239.903 5.49267 -5.43623 0
M  V30 2596 H 238.248 4.94459 -4.884 0
M  V30 2597 H 241.439 3.52773 -3.07683 0
M  V30 2598 H 241.612 4.71372 -4.44649 0
M  V30 2599 N 235.018 0.912232 1.28515 0
M  V30 2600 C 235.948 0.416403 2.29757 0
M  V30 2601 C 236.929 -0.515194 1.6211 0
M  V30 2602 O 238.114 -0.423253 1.89532 0
M  V30 2603 C 235.244 -0.34572 3.45575 0
M  V30 2604 C 234.198 0.496599 4.25109 0
M  V30 2605 C 233.524 -0.393771 5.33248 0
M  V30 2606 C 234.824 1.75307 4.92001 0
M  V30 2607 H 236.518 1.26249 2.7148 0
M  V30 2608 H 234.064 0.608515 1.30511 0
M  V30 2609 H 236.017 -0.703422 4.15488 0
M  V30 2610 H 234.741 -1.2257 3.02728 0
M  V30 2611 H 233.4 0.8368 3.56922 0
M  V30 2612 H 233.048 -1.27225 4.86644 0
M  V30 2613 H 232.748 0.166209 5.87365 0
M  V30 2614 H 234.272 -0.747389 6.06009 0
M  V30 2615 H 235.686 1.46437 5.54283 0
M  V30 2616 H 234.083 2.25534 5.56106 0
M  V30 2617 H 235.153 2.48176 4.16577 0
M  V30 2618 N 236.496 -1.42363 0.676048 0
M  V30 2619 C 237.724 -2.05859 0.207268 0
M  V30 2620 C 238.139 -1.50796 -1.13605 0
M  V30 2621 O 237.496 -0.648265 -1.70598 0
M  V30 2622 C 237.547 -3.61248 0.134975 0
M  V30 2623 O 237.268 -4.1427 1.42521 0
M  V30 2624 C 238.769 -4.41859 -0.357151 0
M  V30 2625 H 235.989 -0.663431 0.100503 0
M  V30 2626 H 238.533 -1.82479 0.923136 0
M  V30 2627 H 236.688 -3.83735 -0.531588 0
M  V30 2628 H 237.102 -5.0815 1.29939 0
M  V30 2629 H 238.576 -5.50847 -0.356641 0
M  V30 2630 H 239.053 -4.16536 -1.39264 0
M  V30 2631 H 239.659 -4.24392 0.27772 0
M  V30 2632 N 237.974 -0.419461 -1.51915 0
M  V30 2633 C 239.22 0.153166 -2.02221 0
M  V30 2634 C 239.553 1.43907 -1.30401 0
M  V30 2635 O 238.828 1.90055 -0.413438 0
M  V30 2636 C 239.111 0.390291 -3.57979 0
M  V30 2637 C 238.964 -0.913014 -4.40436 0
M  V30 2638 C 240.283 1.16794 -4.2432 0
M  V30 2639 H 237.402 0.0541924 -0.735005 0
M  V30 2640 H 240.044 -0.554955 -1.81715 0
M  V30 2641 H 238.194 0.993491 -3.75582 0
M  V30 2642 H 239.866 -1.54882 -4.34522 0
M  V30 2643 H 238.109 -1.52168 -4.06236 0
M  V30 2644 H 238.78 -0.701361 -5.47526 0
M  V30 2645 H 241.256 0.657161 -4.10878 0
M  V30 2646 H 240.132 1.3026 -5.3322 0
M  V30 2647 H 240.393 2.19132 -3.83971 0
M  V30 2648 N 239.452 1.56882 -0.150215 0
M  V30 2649 C 240.868 1.58263 0.20617 0
M  V30 2650 C 241.068 1.16464 1.64434 0
M  V30 2651 O 240.124 0.866422 2.3717 0
M  V30 2652 C 241.437 3.00649 -0.0555025 0
M  V30 2653 C 242.985 3.12999 0.00795388 0
M  V30 2654 C 243.46 4.5744 -0.226429 0
M  V30 2655 N 244.951 4.62875 -0.173469 0
M  V30 2656 C 245.686 5.72454 -0.329288 0
M  V30 2657 N 245.182 6.90669 -0.543005 0
M  V30 2658 N 246.975 5.61467 -0.266666 0
M  V30 2659 H 239.126 1.82345 -1.08922 0
M  V30 2660 H 241.389 0.844149 -0.431413 0
M  V30 2661 H 241.095 3.3563 -1.05096 0
M  V30 2662 H 240.969 3.71337 0.66246 0
M  V30 2663 H 243.356 2.77857 0.993966 0
M  V30 2664 H 243.437 2.4479 -0.742388 0
M  V30 2665 H 243.081 4.93287 -1.20956 0
M  V30 2666 H 243.011 5.2378 0.544274 0
M  V30 2667 H 245.502 3.77898 -0.0130709 0
M  V30 2668 H 245.815 7.70045 -0.651922 0
M  V30 2669 H 244.16 6.92581 -0.579366 0
M  V30 2670 H 247.351 4.67992 -0.100441 0
M  V30 2671 H 247.524 6.46816 -0.391535 0
M  V30 2672 N 240.93 -0.123565 1.57115 0
M  V30 2673 C 241.893 -1.13583 1.99076 0
M  V30 2674 C 242.893 -1.34564 0.880296 0
M  V30 2675 O 244.083 -1.31158 1.14644 0
M  V30 2676 C 241.215 -2.49128 2.32698 0
M  V30 2677 H 242.408 -0.775287 2.89706 0
M  V30 2678 H 239.961 -0.36771 1.51913 0
M  V30 2679 H 240.696 -2.90111 1.44934 0
M  V30 2680 H 240.481 -2.35255 3.13684 0
M  V30 2681 H 241.971 -3.2199 2.65918 0
M  V30 2682 N 242.408 -1.52605 -0.393616 0
M  V30 2683 C 243.318 -1.79971 -1.50492 0
M  V30 2684 C 244.334 -0.686181 -1.59899 0
M  V30 2685 O 245.51 -0.973274 -1.76322 0
M  V30 2686 C 242.575 -1.95867 -2.86072 0
M  V30 2687 C 241.636 -3.19781 -2.86424 0
M  V30 2688 C 240.869 -3.34909 -4.15538 0
M  V30 2689 O 241.092 -2.54948 -5.10253 0
M  V30 2690 O 240.026 -4.28141 -4.23059 0
M  V30 2691 H 243.852 -2.74328 -1.30299 0
M  V30 2692 H 241.437 -1.3764 -0.581005 0
M  V30 2693 H 243.319 -2.08056 -3.66457 0
M  V30 2694 H 241.994 -1.04699 -3.063 0
M  V30 2695 H 240.901 -3.13038 -2.04837 0
M  V30 2696 H 242.234 -4.1078 -2.71147 0
M  V30 2697 N 243.887 0.651787 -1.4349 0
M  V30 2698 C 245.127 1.42345 -1.46688 0
M  V30 2699 C 245.491 1.91793 -0.0891023 0
M  V30 2700 O 246.692 2.688 0.00423594 0
M  V30 2701 C 244.963 2.57221 -2.48137 0
M  V30 2702 S 246.522 3.45725 -2.70221 0
M  V30 2703 H 243.34 0.485878 -0.51908 0
M  V30 2704 H 245.942 0.756578 -1.80267 0
M  V30 2705 H 244.646 2.1917 -3.46976 0
M  V30 2706 H 244.177 3.28757 -2.16061 0
M  V30 2707 H 246.192 4.53996 -2.00255 0
M  V30 2708 N 245.365 1.30045 0.890287 0
M  V30 2709 C 246.776 1.16738 1.45702 0
M  V30 2710 C 247.127 -0.233939 1.948 0
M  V30 2711 O 246.252 -1.13021 1.84541 0
M  V30 2712 C 246.847 2.11313 2.64825 0
M  V30 2713 C 245.406 2.02001 3.17604 0
M  V30 2714 C 244.553 2.01699 1.90296 0
M  V30 2715 H 247.504 1.42392 0.700726 0
M  V30 2716 H 247.525 1.69086 3.40867 0
M  V30 2717 H 247.037 3.13294 2.2906 0
M  V30 2718 H 245.138 1.03142 3.5804 0
M  V30 2719 H 245.251 2.90128 3.81264 0
M  V30 2720 H 243.615 1.46427 2.08402 0
M  V30 2721 H 244.398 3.05402 1.56795 0
M  V30 2722 N 246.843 -1.10192 1.12674 0
M  V30 2723 C 247.776 -2.15847 0.740625 0
M  V30 2724 C 248.754 -1.60352 -0.269421 0
M  V30 2725 O 249.938 -1.87796 -0.16278 0
M  V30 2726 C 247.065 -3.38562 0.096641 0
M  V30 2727 C 246.111 -4.12758 1.07391 0
M  V30 2728 S 246.944 -4.67997 2.60267 0
M  V30 2729 C 248.1 -5.94021 1.97206 0
M  V30 2730 H 248.333 -2.48266 1.63558 0
M  V30 2731 H 245.866 -1.22019 0.946087 0
M  V30 2732 H 247.824 -4.09621 -0.268535 0
M  V30 2733 H 246.485 -3.04377 -0.775462 0
M  V30 2734 H 245.678 -5.00755 0.570997 0
M  V30 2735 H 245.28 -3.47523 1.38216 0
M  V30 2736 H 247.572 -6.64589 1.31634 0
M  V30 2737 H 248.515 -6.48979 2.83253 0
M  V30 2738 H 248.923 -5.46169 1.42686 0
M  V30 2739 N 248.321 -0.919034 -1.28029 0
M  V30 2740 C 249.271 -0.382574 -2.24767 0
M  V30 2741 C 250.255 0.508286 -1.52661 0
M  V30 2742 O 251.447 0.347145 -1.73562 0
M  V30 2743 C 248.576 0.371432 -3.41285 0
M  V30 2744 C 247.662 -0.535449 -4.20706 0
M  V30 2745 N 248.053 -1.65141 -4.78082 0
M  V30 2746 C 246.351 -0.336824 -4.44726 0
M  V30 2747 C 247.052 -2.21475 -5.37888 0
M  V30 2748 N 246.028 -1.50537 -5.22341 0
M  V30 2749 H 249.83 -1.23477 -2.66703 0
M  V30 2750 H 247.344 -0.772299 -1.42861 0
M  V30 2751 H 249.341 0.772638 -4.09678 0
M  V30 2752 H 248.001 1.22066 -3.00882 0
M  V30 2753 H 249.012 -2.03392 -4.7629 0
M  V30 2754 H 245.689 0.47246 -4.14818 0
M  V30 2755 H 247.079 -3.15379 -5.93284 0
M  V30 2756 N 249.799 1.42003 -0.683588 0
M  V30 2757 C 250.729 2.33487 -0.024866 0
M  V30 2758 C 251.71 1.51163 0.779975 0
M  V30 2759 O 252.895 1.79739 0.735362 0
M  V30 2760 C 250.025 3.3487 0.920836 0
M  V30 2761 C 248.979 4.27414 0.223958 0
M  V30 2762 C 248.305 5.19074 1.2832 0
M  V30 2763 C 249.605 5.14445 -0.90242 0
M  V30 2764 H 251.299 2.88819 -0.788921 0
M  V30 2765 H 248.845 1.38873 -0.38083 0
M  V30 2766 H 250.798 3.97787 1.39081 0
M  V30 2767 H 249.522 2.77861 1.71642 0
M  V30 2768 H 248.181 3.65904 -0.225864 0
M  V30 2769 H 247.829 4.58387 2.071 0
M  V30 2770 H 247.529 5.81822 0.821995 0
M  V30 2771 H 249.053 5.84867 1.75392 0
M  V30 2772 H 250.467 5.70998 -0.513272 0
M  V30 2773 H 248.864 5.86072 -1.28997 0
M  V30 2774 H 249.934 4.52322 -1.74737 0
M  V30 2775 N 251.277 0.427512 1.51691 0
M  V30 2776 C 252.187 -0.39527 2.31246 0
M  V30 2777 C 253.203 -1.03674 1.39742 0
M  V30 2778 O 254.379 -1.03425 1.72816 0
M  V30 2779 C 251.444 -1.48706 3.13189 0
M  V30 2780 C 250.505 -0.866743 4.20459 0
M  V30 2781 C 249.738 -1.90651 4.98486 0
M  V30 2782 O 249.961 -3.12733 4.77026 0
M  V30 2783 O 248.895 -1.5025 5.82845 0
M  V30 2784 H 252.721 0.253918 3.02637 0
M  V30 2785 H 250.306 0.190274 1.48183 0
M  V30 2786 H 252.188 -2.12047 3.64162 0
M  V30 2787 H 250.863 -2.12051 2.44573 0
M  V30 2788 H 249.77 -0.195544 3.73589 0
M  V30 2789 H 251.103 -0.276934 4.9142 0
M  V30 2790 N 252.755 -1.56801 0.158532 0
M  V30 2791 C 254.032 -1.88131 -0.535357 0
M  V30 2792 C 254.412 -1.06638 -1.82186 0
M  V30 2793 O 253.76 -0.156533 -2.27963 0
M  V30 2794 C 253.97 -3.39949 -0.789653 0
M  V30 2795 C 255.318 -4.09416 -1.12533 0
M  V30 2796 O 256.342 -3.45194 -0.878622 0
M  V30 2797 O 255.201 -5.22855 -1.59014 0
M  V30 2798 H 252.295 -0.780143 -0.27442 0
M  V30 2799 H 254.841 -1.68564 0.19601 0
M  V30 2800 H 253.613 -3.91115 0.120353 0
M  V30 2801 H 253.236 -3.65084 -1.57479 0
M  V30 2802 N 254.233 0.115231 -1.57178 0
M  V30 2803 C 255.48 0.822351 -1.8505 0
M  V30 2804 C 255.808 1.79701 -0.744168 0
M  V30 2805 O 255.063 1.93909 0.26414 0
M  V30 2806 C 255.362 1.60324 -3.19423 0
M  V30 2807 C 255.028 0.772536 -4.44233 0
M  V30 2808 C 253.69 0.543468 -4.78121 0
M  V30 2809 C 256.042 0.193746 -5.2084 0
M  V30 2810 C 253.37 -0.274583 -5.86057 0
M  V30 2811 C 255.722 -0.611517 -6.29637 0
M  V30 2812 C 254.386 -0.850867 -6.62055 0
M  V30 2813 H 253.656 0.30092 -0.677147 0
M  V30 2814 H 256.303 0.0845802 -1.91313 0
M  V30 2815 H 254.608 2.41203 -3.08753 0
M  V30 2816 H 256.305 2.1544 -3.38211 0
M  V30 2817 H 252.895 0.96117 -4.17683 0
M  V30 2818 H 257.079 0.357926 -4.95008 0
M  V30 2819 H 252.335 -0.469206 -6.09597 0
M  V30 2820 H 256.509 -1.06697 -6.88178 0
M  V30 2821 H 254.136 -1.48657 -7.45523 0
M  V30 2822 N 255.711 1.52812 0.385517 0
M  V30 2823 C 257.122 1.5993 0.963293 0
M  V30 2824 C 257.473 0.454302 1.90868 0
M  V30 2825 O 256.598 -0.422132 2.12243 0
M  V30 2826 C 257.193 2.89871 1.75387 0
M  V30 2827 C 255.752 2.99389 2.28129 0
M  V30 2828 C 254.899 2.55071 1.08783 0
M  V30 2829 H 257.85 1.5784 0.164948 0
M  V30 2830 H 257.871 2.76553 2.61341 0
M  V30 2831 H 257.383 3.73186 1.06554 0
M  V30 2832 H 255.484 2.20619 3.00263 0
M  V30 2833 H 255.597 4.04096 2.57377 0
M  V30 2834 H 253.961 2.09473 1.4489 0
M  V30 2835 H 254.744 3.40785 0.414807 0
M  V30 2836 N 257.189 -0.644168 1.43834 0
M  V30 2837 C 258.122 -1.76906 1.44151 0
M  V30 2838 C 259.1 -1.59774 0.301857 0
M  V30 2839 O 260.284 -1.81834 0.496841 0
M  V30 2840 C 257.411 -3.14321 1.26174 0
M  V30 2841 C 256.457 -3.50134 2.43533 0
M  V30 2842 S 257.29 -3.49085 4.06079 0
M  V30 2843 C 258.446 -4.89142 3.90501 0
M  V30 2844 H 258.679 -1.76368 2.39336 0
M  V30 2845 H 256.212 -0.817624 1.30974 0
M  V30 2846 H 258.17 -3.93625 1.16489 0
M  V30 2847 H 256.831 -3.12412 0.325224 0
M  V30 2848 H 256.024 -4.50095 2.26783 0
M  V30 2849 H 255.626 -2.78264 2.4989 0
M  V30 2850 H 257.918 -5.78036 3.53385 0
M  V30 2851 H 258.861 -5.10945 4.90246 0
M  V30 2852 H 259.269 -4.63102 3.22795 0
M  V30 2853 N 258.668 -1.30515 -0.883378 0
M  V30 2854 C 259.945 -1.10086 -1.6168 0
M  V30 2855 C 260.325 0.349269 -2.08191 0
M  V30 2856 O 259.673 1.34105 -1.85008 0
M  V30 2857 C 259.883 -2.10315 -2.78511 0
M  V30 2858 C 261.231 -2.42119 -3.48803 0
M  V30 2859 O 262.255 -2.08638 -2.88702 0
M  V30 2860 O 261.114 -2.99396 -4.57192 0
M  V30 2861 H 258.208 -0.422907 -0.710689 0
M  V30 2862 H 260.754 -1.41947 -0.930015 0
M  V30 2863 H 259.526 -3.07917 -2.41459 0
M  V30 2864 H 259.149 -1.79282 -3.54886 0
M  V30 2865 N 260.146 1.09593 -1.13257 0
M  V30 2866 C 261.109 2.14359 -0.811358 0
M  V30 2867 C 262.109 1.59808 0.178377 0
M  V30 2868 O 263.299 1.74132 -0.0484911 0
M  V30 2869 C 260.431 3.40269 -0.207276 0
M  V30 2870 H 261.624 2.44284 -1.73969 0
M  V30 2871 H 259.177 1.25102 -0.936973 0
M  V30 2872 H 259.912 3.15969 0.73036 0
M  V30 2873 H 259.697 3.81154 -0.919992 0
M  V30 2874 H 261.187 4.176 0.000667944 0
M  V30 2875 N 261.624 0.925811 1.2754 0
M  V30 2876 C 262.574 0.394488 2.24561 0
M  V30 2877 C 263.558 -0.500183 1.52928 0
M  V30 2878 O 264.75 -0.337936 1.73744 0
M  V30 2879 C 261.879 -0.353328 3.41477 0
M  V30 2880 C 260.965 0.557752 4.20416 0
M  V30 2881 N 261.356 1.67674 4.77199 0
M  V30 2882 C 259.654 0.360404 4.44541 0
M  V30 2883 C 260.355 2.24324 5.36706 0
M  V30 2884 N 259.331 1.53305 5.21535 0
M  V30 2885 H 263.133 1.2489 2.66045 0
M  V30 2886 H 260.647 0.779864 1.4245 0
M  V30 2887 H 262.644 -0.7509 4.10082 0
M  V30 2888 H 261.304 -1.20469 3.01525 0
M  V30 2889 H 262.315 2.05915 4.75204 0
M  V30 2890 H 258.992 -0.450454 4.15063 0
M  V30 2891 H 260.382 3.18521 5.91603 0
M  V30 2892 N 263.102 -1.41638 0.69111 0
M  V30 2893 C 264.065 -2.29178 0.0319786 0
M  V30 2894 C 265.065 -1.44153 -0.712496 0
M  V30 2895 O 266.255 -1.65354 -0.548053 0
M  V30 2896 C 263.387 -3.26952 -0.965161 0
M  V30 2897 H 264.58 -2.88959 0.802681 0
M  V30 2898 H 262.133 -1.4955 0.454356 0
M  V30 2899 H 262.868 -2.72142 -1.76378 0
M  V30 2900 H 262.653 -3.89685 -0.434522 0
M  V30 2901 H 264.143 -3.92561 -1.42428 0
M  V30 2902 N 264.58 -0.43555 -1.51462 0
M  V30 2903 C 265.82 0.130708 -2.03982 0
M  V30 2904 C 266.184 1.40117 -1.31268 0
M  V30 2905 O 267.385 2.04755 -1.74152 0
M  V30 2906 C 265.656 0.346102 -3.5572 0
M  V30 2907 S 267.215 0.876022 -4.29967 0
M  V30 2908 H 264.033 0.0326881 -0.710248 0
M  V30 2909 H 266.635 -0.594544 -1.8624 0
M  V30 2910 H 265.339 -0.584911 -4.0621 0
M  V30 2911 H 264.87 1.09849 -3.77752 0
M  V30 2912 H 266.885 2.15379 -4.47019 0
M  V30 2913 N 266.058 1.56714 -0.166846 0
M  V30 2914 C 267.469 1.83378 0.350646 0
M  V30 2915 C 267.82 1.08646 1.63372 0
M  V30 2916 O 266.945 0.338058 2.13743 0
M  V30 2917 C 267.54 3.32643 0.642963 0
M  V30 2918 C 266.099 3.59818 1.10491 0
M  V30 2919 C 265.246 2.76954 0.138411 0
M  V30 2920 H 268.197 1.53803 -0.391193 0
M  V30 2921 H 268.218 3.49878 1.49551 0
M  V30 2922 H 267.73 3.87007 -0.291055 0
M  V30 2923 H 265.831 3.1086 2.05418 0
M  V30 2924 H 265.944 4.68178 1.01716 0
M  V30 2925 H 264.308 2.4666 0.634911 0
M  V30 2926 H 265.091 3.34097 -0.789549 0
M  V30 2927 N 267.536 -0.106894 1.57237 0
M  V30 2928 C 268.466 -1.13148 2.04254 0
M  V30 2929 C 269.447 -1.42476 0.929224 0
M  V30 2930 O 270.632 -1.52709 1.19973 0
M  V30 2931 C 267.762 -2.4545 2.45706 0
M  V30 2932 C 266.716 -2.30558 3.60592 0
M  V30 2933 C 266.042 -3.67931 3.87983 0
M  V30 2934 C 267.342 -1.75597 4.91897 0
M  V30 2935 H 269.036 -0.740374 2.90101 0
M  V30 2936 H 266.582 -0.354696 1.39563 0
M  V30 2937 H 268.535 -3.17389 2.77205 0
M  V30 2938 H 267.259 -2.86475 1.56843 0
M  V30 2939 H 265.918 -1.61067 3.29322 0
M  V30 2940 H 265.566 -4.06462 2.96306 0
M  V30 2941 H 265.266 -3.58817 4.65322 0
M  V30 2942 H 266.79 -4.41356 4.21945 0
M  V30 2943 H 268.204 -2.37364 5.21854 0
M  V30 2944 H 266.601 -1.77272 5.73319 0
M  V30 2945 H 267.671 -0.714451 4.79608 0
M  V30 2946 N 269.014 -1.53014 -0.377408 0
M  V30 2947 C 269.961 -1.78616 -1.46168 0
M  V30 2948 C 270.931 -0.629917 -1.53692 0
M  V30 2949 O 272.116 -0.870861 -1.69766 0
M  V30 2950 C 269.256 -1.97123 -2.8326 0
M  V30 2951 C 268.369 -3.24831 -2.84796 0
M  V30 2952 C 267.504 -3.33591 -4.13389 0
M  V30 2953 C 266.543 -4.55377 -4.09021 0
M  V30 2954 N 265.68 -4.61355 -5.29241 0
M  V30 2955 H 270.52 -2.71142 -1.23637 0
M  V30 2956 H 268.057 -1.34326 -0.599577 0
M  V30 2957 H 270.015 -2.05839 -3.62886 0
M  V30 2958 H 268.645 -1.07946 -3.04216 0
M  V30 2959 H 267.697 -3.25128 -1.97474 0
M  V30 2960 H 269.009 -4.14523 -2.77439 0
M  V30 2961 H 268.163 -3.41554 -5.01424 0
M  V30 2962 H 266.902 -2.41894 -4.23484 0
M  V30 2963 H 265.907 -4.47527 -3.19373 0
M  V30 2964 H 267.132 -5.48402 -4.00539 0
M  V30 2965 H 265.078 -3.72554 -5.39944 0
M  V30 2966 H 264.995 -5.44935 -5.24006 0
M  V30 2967 H 266.263 -4.73586 -6.19141 0
M  V30 2968 N 270.492 0.636531 -1.44174 0
M  V30 2969 C 271.739 1.39619 -1.46672 0
M  V30 2970 C 272.067 1.94257 -0.0972691 0
M  V30 2971 O 271.322 1.73768 0.900175 0
M  V30 2972 C 271.621 2.58309 -2.47005 0
M  V30 2973 C 271.287 2.21992 -3.92467 0
M  V30 2974 C 269.949 2.118 -4.32081 0
M  V30 2975 C 272.301 1.9321 -4.84065 0
M  V30 2976 C 269.629 1.71007 -5.61225 0
M  V30 2977 C 271.981 1.53911 -6.13591 0
M  V30 2978 C 270.645 1.42257 -6.52165 0
M  V30 2979 H 269.915 0.510902 -0.536712 0
M  V30 2980 H 272.562 0.722328 -1.77355 0
M  V30 2981 H 270.867 3.30903 -2.09786 0
M  V30 2982 H 272.564 3.16533 -2.46186 0
M  V30 2983 H 269.154 2.30841 -3.61124 0
M  V30 2984 H 273.338 1.99997 -4.54219 0
M  V30 2985 H 268.594 1.60583 -5.89935 0
M  V30 2986 H 272.768 1.30677 -6.8403 0
M  V30 2987 H 270.395 1.10419 -7.52138 0
M  V30 2988 N 271.97 1.30982 0.876444 0
M  V30 2989 C 273.218 1.20058 1.62575 0
M  V30 2990 C 273.539 -0.242947 1.93481 0
M  V30 2991 O 272.809 -1.1619 1.57724 0
M  V30 2992 H 271.389 0.44135 0.602677 0
M  V30 2993 H 274.051 1.64222 1.04962 0
M  V30 2994 H 273.147 1.76762 2.57219 0
M  V30 2995 N 273.449 -1.08991 1.13837 0
M  V30 2996 C 274.674 -1.85551 0.926585 0
M  V30 2997 C 275.099 -1.80782 -0.519566 0
M  V30 2998 O 274.457 -1.18855 -1.36906 0
M  V30 2999 C 274.505 -3.31266 1.42462 0
M  V30 3000 O 273.609 -4.07822 0.612789 0
M  V30 3001 H 272.95 -0.575192 0.331738 0
M  V30 3002 H 275.48 -1.37604 1.51414 0
M  V30 3003 H 275.49 -3.82112 1.43019 0
M  V30 3004 H 274.165 -3.34052 2.47754 0
M  V30 3005 H 272.742 -3.66731 0.675463 0
M  V30 3006 N 274.927 -0.932562 -1.27047 0
M  V30 3007 C 276.157 -0.591173 -1.97961 0
M  V30 3008 C 276.565 0.836219 -1.69717 0
M  V30 3009 O 275.908 1.56801 -0.957036 0
M  V30 3010 C 275.97 -0.743082 -3.51736 0
M  V30 3011 C 275.634 -2.1435 -4.03613 0
M  V30 3012 C 276.631 -3.11815 -4.16014 0
M  V30 3013 C 274.316 -2.46175 -4.37839 0
M  V30 3014 C 276.31 -4.39211 -4.61923 0
M  V30 3015 C 273.997 -3.73806 -4.83438 0
M  V30 3016 C 274.995 -4.70137 -4.95439 0
M  V30 3017 O 274.683 -5.95496 -5.40037 0
M  V30 3018 H 274.415 -0.222375 -0.638377 0
M  V30 3019 H 276.969 -1.25317 -1.62742 0
M  V30 3020 H 275.199 -0.0239739 -3.86693 0
M  V30 3021 H 276.888 -0.40603 -4.03864 0
M  V30 3022 H 277.654 -2.88549 -3.89826 0
M  V30 3023 H 273.533 -1.71936 -4.27737 0
M  V30 3024 H 277.077 -5.14404 -4.71205 0
M  V30 3025 H 272.974 -3.96888 -5.09068 0
M  V30 3026 H 273.742 -5.98554 -5.58279 0
M  V30 3027 N 276.405 1.4127 -0.698611 0
M  V30 3028 C 277.368 2.29158 -0.044132 0
M  V30 3029 C 278.368 1.44529 0.704841 0
M  V30 3030 O 279.558 1.65643 0.539276 0
M  V30 3031 C 276.69 3.27459 0.947809 0
M  V30 3032 H 277.883 2.88529 -0.817994 0
M  V30 3033 H 275.436 1.49307 -0.46228 0
M  V30 3034 H 276.171 2.73073 1.74933 0
M  V30 3035 H 275.956 3.8991 0.41385 0
M  V30 3036 H 277.446 3.93311 1.40344 0
M  V30 3037 N 277.883 0.443576 1.51229 0
M  V30 3038 C 279.113 -0.119117 2.06256 0
M  V30 3039 C 279.521 -1.36471 1.31043 0
M  V30 3040 O 278.864 -1.80034 0.365151 0
M  V30 3041 C 278.926 -0.500546 3.55998 0
M  V30 3042 C 278.59 0.639125 4.52509 0
M  V30 3043 C 279.587 1.51311 4.97394 0
M  V30 3044 C 277.272 0.821632 4.95535 0
M  V30 3045 C 279.266 2.55425 5.83984 0
M  V30 3046 C 276.953 1.86603 5.81913 0
M  V30 3047 C 277.951 2.73072 6.26036 0
M  V30 3048 O 277.639 3.75718 7.10698 0
M  V30 3049 H 277.371 -0.00857665 0.675946 0
M  V30 3050 H 279.925 0.623288 1.95715 0
M  V30 3051 H 278.155 -1.29575 3.64345 0
M  V30 3052 H 279.844 -0.995116 3.93513 0
M  V30 3053 H 280.61 1.38367 4.64844 0
M  V30 3054 H 276.489 0.158149 4.60729 0
M  V30 3055 H 280.033 3.22949 6.18344 0
M  V30 3056 H 275.93 1.99564 6.13876 0
M  V30 3057 H 276.698 3.72374 7.2889 0
M  V30 3058 N 279.361 -1.56624 0.175154 0
M  V30 3059 C 280.589 -2.01374 -0.474971 0
M  V30 3060 C 281.004 -1.05537 -1.56548 0
M  V30 3061 O 280.361 -0.0568668 -1.82411 0
M  V30 3062 C 280.412 -3.45923 -1.04975 0
M  V30 3063 O 280.133 -4.381 -0.00276605 0
M  V30 3064 C 281.634 -4.06093 -1.77773 0
M  V30 3065 H 278.854 -0.659962 -0.121206 0
M  V30 3066 H 281.398 -2.02601 0.27801 0
M  V30 3067 H 279.553 -3.45458 -1.75321 0
M  V30 3068 H 279.967 -5.22753 -0.427681 0
M  V30 3069 H 281.441 -5.09147 -2.13245 0
M  V30 3070 H 281.918 -3.48405 -2.67414 0
M  V30 3071 H 282.524 -4.10272 -1.12059 0
M  V30 3072 N 280.839 0.0985539 -1.57292 0
M  V30 3073 C 282.255 0.45267 -1.53046 0
M  V30 3074 C 282.455 1.80713 -0.891342 0
M  V30 3075 O 281.511 2.4785 -0.482375 0
M  V30 3076 C 282.824 0.418341 -2.97776 0
M  V30 3077 C 284.372 0.500443 -3.08973 0
M  V30 3078 C 284.847 0.496297 -4.55303 0
M  V30 3079 N 286.338 0.557151 -4.59837 0
M  V30 3080 C 287.073 0.575726 -5.70502 0
M  V30 3081 N 286.569 0.550714 -6.90608 0
M  V30 3082 N 288.362 0.620277 -5.58667 0
M  V30 3083 H 280.513 -0.788673 -1.97215 0
M  V30 3084 H 282.776 -0.293188 -0.901524 0
M  V30 3085 H 282.482 -0.509659 -3.47988 0
M  V30 3086 H 282.356 1.2386 -3.56284 0
M  V30 3087 H 284.743 1.41886 -2.58751 0
M  V30 3088 H 284.824 -0.347894 -2.53423 0
M  V30 3089 H 284.468 -0.418162 -5.06176 0
M  V30 3090 H 284.398 1.3618 -5.08687 0
M  V30 3091 H 286.889 0.581816 -3.73394 0
M  V30 3092 H 287.202 0.568075 -7.70709 0
M  V30 3093 H 285.547 0.517816 -6.93068 0
M  V30 3094 H 288.738 0.637322 -4.63741 0
M  V30 3095 H 288.911 0.631283 -6.44918 0
M  V30 3096 N 282.317 1.53212 0.369288 0
M  V30 3097 C 283.28 1.7872 1.43498 0
M  V30 3098 C 284.28 0.657554 1.46741 0
M  V30 3099 O 285.47 0.925736 1.47566 0
M  V30 3100 C 282.602 1.90591 2.82645 0
M  V30 3101 H 283.795 2.73894 1.22156 0
M  V30 3102 H 281.348 1.44233 0.602203 0
M  V30 3103 H 282.083 0.974709 3.09306 0
M  V30 3104 H 281.868 2.72751 2.8169 0
M  V30 3105 H 283.358 2.11931 3.59826 0
M  V30 3106 N 283.795 -0.628877 1.44509 0
M  V30 3107 C 284.705 -1.7694 1.54044 0
M  V30 3108 C 285.721 -1.68705 0.425987 0
M  V30 3109 O 286.897 -1.89442 0.683656 0
M  V30 3110 C 283.962 -3.13332 1.48405 0
M  V30 3111 C 283.023 -3.33181 2.70719 0
M  V30 3112 C 282.256 -4.63067 2.6534 0
M  V30 3113 O 282.479 -5.44017 1.71469 0
M  V30 3114 O 281.413 -4.85167 3.56226 0
M  V30 3115 H 285.239 -1.71848 2.50403 0
M  V30 3116 H 282.824 -0.790378 1.26781 0
M  V30 3117 H 284.706 -3.94634 1.47791 0
M  V30 3118 H 283.381 -3.1896 0.551898 0
M  V30 3119 H 282.288 -2.51549 2.769 0
M  V30 3120 H 283.621 -3.32416 3.62988 0
M  V30 3121 N 285.273 -1.31445 -0.869486 0
M  V30 3122 C 286.519 -1.21337 -1.62496 0
M  V30 3123 C 286.852 0.227872 -1.92858 0
M  V30 3124 O 286.127 1.16094 -1.56053 0
M  V30 3125 C 286.41 -2.05814 -2.95487 0
M  V30 3126 C 286.263 -3.5824 -2.72 0
M  V30 3127 C 287.582 -1.9079 -3.96594 0
M  V30 3128 H 284.701 -0.442135 -0.589649 0
M  V30 3129 H 287.343 -1.6124 -1.00507 0
M  V30 3130 H 285.493 -1.71913 -3.48394 0
M  V30 3131 H 287.165 -4.0228 -2.25762 0
M  V30 3132 H 285.408 -3.81647 -2.06224 0
M  V30 3133 H 286.079 -4.12657 -3.66631 0
M  V30 3134 H 288.555 -2.20459 -3.52898 0
M  V30 3135 H 287.431 -2.52199 -4.87531 0
M  V30 3136 H 287.692 -0.871341 -4.33428 0
M  V30 3137 N 286.751 1.08385 -1.14413 0
M  V30 3138 C 287.997 1.81044 -0.913834 0
M  V30 3139 C 288.33 1.86004 0.558209 0
M  V30 3140 O 287.605 1.33606 1.4135 0
M  V30 3141 C 287.888 3.26648 -1.51569 0
M  V30 3142 C 287.741 3.29895 -3.0576 0
M  V30 3143 C 289.06 4.23629 -1.19273 0
M  V30 3144 H 286.179 0.65727 -0.333414 0
M  V30 3145 H 288.821 1.26896 -1.41412 0
M  V30 3146 H 286.971 3.72889 -1.09023 0
M  V30 3147 H 288.643 2.91977 -3.57137 0
M  V30 3148 H 286.886 2.69163 -3.40197 0
M  V30 3149 H 287.557 4.32516 -3.42977 0
M  V30 3150 H 290.033 3.85727 -1.56057 0
M  V30 3151 H 288.909 5.23822 -1.64017 0
M  V30 3152 H 289.17 4.41968 -0.108068 0
M  V30 3153 N 288.23 0.939286 1.26551 0
M  V30 3154 C 289.46 0.601663 1.97645 0
M  V30 3155 C 289.868 -0.827206 1.70159 0
M  V30 3156 O 289.211 -1.56291 0.965338 0
M  V30 3157 C 289.273 0.761725 3.51337 0
M  V30 3158 C 288.937 2.16487 4.0247 0
M  V30 3159 C 289.934 3.14016 4.14355 0
M  V30 3160 C 287.619 2.48494 4.36527 0
M  V30 3161 C 289.613 4.41654 4.59587 0
M  V30 3162 C 287.3 3.76364 4.81449 0
M  V30 3163 C 288.298 4.72758 4.92939 0
M  V30 3164 O 287.986 5.98352 5.36871 0
M  V30 3165 H 287.718 0.225758 0.637189 0
M  V30 3166 H 290.272 1.26178 1.62075 0
M  V30 3167 H 288.502 0.0444808 3.86674 0
M  V30 3168 H 290.191 0.427442 4.03643 0
M  V30 3169 H 290.957 2.90613 3.8829 0
M  V30 3170 H 286.836 1.74202 4.26819 0
M  V30 3171 H 290.38 5.16896 4.68471 0
M  V30 3172 H 286.277 3.99582 5.06956 0
M  V30 3173 H 287.045 6.01507 5.55096 0
M  V30 3174 N 289.708 -1.40897 0.706093 0
M  V30 3175 C 290.618 -2.3455 0.0482286 0
M  V30 3176 C 291.634 -1.56796 -0.754396 0
M  V30 3177 O 292.81 -1.89228 -0.689538 0
M  V30 3178 C 289.875 -3.35625 -0.869303 0
M  V30 3179 C 288.936 -4.29261 -0.0576994 0
M  V30 3180 C 288.169 -5.25508 -0.931531 0
M  V30 3181 O 288.392 -5.27472 -2.17092 0
M  V30 3182 O 287.326 -6.00727 -0.375587 0
M  V30 3183 H 291.152 -2.92407 0.820476 0
M  V30 3184 H 288.737 -1.4193 0.4665 0
M  V30 3185 H 290.619 -3.97635 -1.39514 0
M  V30 3186 H 289.294 -2.80196 -1.62086 0
M  V30 3187 H 288.201 -3.70566 0.512988 0
M  V30 3188 H 289.534 -4.87817 0.655426 0
M  V30 3189 N 291.186 -0.45159 -1.50991 0
M  V30 3190 C 292.432 0.102439 -2.03142 0
M  V30 3191 C 292.787 1.39138 -1.32884 0
M  V30 3192 O 292.08 1.86493 -0.439438 0
M  V30 3193 C 292.274 0.361728 -3.55565 0
M  V30 3194 C 292.103 -0.900535 -4.40591 0
M  V30 3195 C 290.873 -1.43821 -4.844 0
M  V30 3196 C 293.071 -1.79063 -4.82121 0
M  V30 3197 N 291.053 -2.65153 -5.53685 0
M  V30 3198 C 292.424 -2.84991 -5.50618 0
M  V30 3199 C 294.479 -1.80334 -4.64095 0
M  V30 3200 C 293.182 -3.92155 -6.02998 0
M  V30 3201 C 295.208 -2.86442 -5.17402 0
M  V30 3202 C 294.57 -3.9109 -5.85857 0
M  V30 3203 H 290.669 -0.00204537 -0.781997 0
M  V30 3204 H 293.253 -0.615446 -1.84717 0
M  V30 3205 H 291.424 1.04865 -3.73976 0
M  V30 3206 H 293.156 0.908372 -3.94374 0
M  V30 3207 H 289.911 -0.990117 -4.63135 0
M  V30 3208 H 290.335 -3.26717 -5.92946 0
M  V30 3209 H 294.977 -1.00753 -4.1062 0
M  V30 3210 H 292.695 -4.72565 -6.55521 0
M  V30 3211 H 296.281 -2.88386 -5.05297 0
M  V30 3212 H 295.161 -4.71845 -6.26364 0
M  V30 3213 N 292.664 1.56529 -0.183458 0
M  V30 3214 C 293.892 2.01623 0.464285 0
M  V30 3215 C 294.307 1.06366 1.55986 0
M  V30 3216 O 293.664 0.0665398 1.82379 0
M  V30 3217 C 293.715 3.46475 1.03139 0
M  V30 3218 O 293.436 4.38095 -0.0204675 0
M  V30 3219 C 294.937 4.0703 1.75617 0
M  V30 3220 H 292.157 0.660596 0.117704 0
M  V30 3221 H 294.701 2.02451 -0.288751 0
M  V30 3222 H 292.856 3.46383 1.73486 0
M  V30 3223 H 293.27 5.22973 0.399952 0
M  V30 3224 H 294.744 5.10271 2.10542 0
M  V30 3225 H 295.221 3.49819 2.65563 0
M  V30 3226 H 295.827 4.1086 1.09882 0
M  V30 3227 N 294.142 -0.090211 1.57342 0
M  V30 3228 C 295.558 -0.444547 1.53284 0
M  V30 3229 C 295.758 -1.80238 0.900914 0
M  V30 3230 O 294.814 -2.4759 0.495513 0
M  V30 3231 C 296.127 -0.402543 2.97993 0
M  V30 3232 C 297.675 -0.48405 3.09234 0
M  V30 3233 C 298.15 -0.472144 4.5556 0
M  V30 3234 N 299.641 -0.532757 4.60126 0
M  V30 3235 C 300.376 -0.545462 5.708 0
M  V30 3236 N 299.872 -0.514082 6.9089 0
M  V30 3237 N 301.665 -0.59064 5.58988 0
M  V30 3238 H 293.816 0.799121 1.96794 0
M  V30 3239 H 296.079 0.297965 0.899956 0
M  V30 3240 H 295.785 0.528106 3.47712 0
M  V30 3241 H 295.659 -1.21969 3.56936 0
M  V30 3242 H 298.046 -1.40512 2.595 0
M  V30 3243 H 298.127 0.361328 2.53235 0
M  V30 3244 H 297.771 0.445 5.05947 0
M  V30 3245 H 297.701 -1.3348 5.09402 0
M  V30 3246 H 300.192 -0.562006 3.73698 0
M  V30 3247 H 300.505 -0.527195 7.71 0
M  V30 3248 H 298.85 -0.481054 6.93333 0
M  V30 3249 H 302.041 -0.61272 4.64073 0
M  V30 3250 H 302.214 -0.597073 6.45243 0
M  V30 3251 N 295.62 -1.53406 -0.361157 0
M  V30 3252 C 296.53 -1.83122 -1.4664 0
M  V30 3253 C 297.546 -0.719943 -1.58407 0
M  V30 3254 O 298.722 -1.01046 -1.74218 0
M  V30 3255 C 295.787 -2.01891 -2.81853 0
M  V30 3256 C 294.848 -3.25784 -2.79577 0
M  V30 3257 C 294.081 -3.43648 -4.0834 0
M  V30 3258 O 294.304 -2.65714 -5.0473 0
M  V30 3259 O 293.238 -4.37018 -4.13883 0
M  V30 3260 H 297.064 -2.7703 -1.24451 0
M  V30 3261 H 294.649 -1.38841 -0.551678 0
M  V30 3262 H 296.531 -2.15782 -3.61962 0
M  V30 3263 H 295.206 -1.11173 -3.0401 0
M  V30 3264 H 294.113 -3.17312 -1.98151 0
M  V30 3265 H 295.446 -4.16439 -2.62373 0
M  V30 3266 N 297.098 0.621204 -1.44841 0
M  V30 3267 C 298.509 1.20298 -1.42777 0
M  V30 3268 C 298.86 1.95639 -0.148259 0
M  V30 3269 O 297.985 2.02955 0.750892 0
M  V30 3270 C 298.58 2.1882 -2.58657 0
M  V30 3271 C 297.139 2.72403 -2.59756 0
M  V30 3272 C 296.286 1.4757 -2.34773 0
M  V30 3273 H 299.237 0.411297 -1.53278 0
M  V30 3274 H 299.258 3.01607 -2.31977 0
M  V30 3275 H 298.77 1.63957 -3.51766 0
M  V30 3276 H 296.871 3.31242 -1.70615 0
M  V30 3277 H 296.984 3.17765 -3.58556 0
M  V30 3278 H 295.348 1.76051 -1.8406 0
M  V30 3279 H 296.131 0.945954 -3.3001 0
M  V30 3280 N 298.576 1.31904 0.862503 0
M  V30 3281 C 299.539 1.20131 1.95195 0
M  V30 3282 C 300.539 0.126409 1.60302 0
M  V30 3283 O 301.729 0.376234 1.70089 0
M  V30 3284 C 298.861 0.845691 3.30244 0
M  V30 3285 H 300.054 2.16943 2.07064 0
M  V30 3286 H 297.607 1.15622 1.05172 0
M  V30 3287 H 298.342 -0.120957 3.24074 0
M  V30 3288 H 298.127 1.62276 3.56944 0
M  V30 3289 H 299.617 0.787418 4.10109 0
M  V30 3290 N 300.054 -1.07777 1.14986 0
M  V30 3291 C 301.47 -1.32373 0.891596 0
M  V30 3292 C 301.67 -1.9609 -0.463788 0
M  V30 3293 O 300.726 -2.21801 -1.20667 0
M  V30 3294 C 302.039 -2.21905 2.02925 0
M  V30 3295 C 303.587 -2.35367 2.06329 0
M  V30 3296 C 304.062 -3.28245 3.19405 0
M  V30 3297 N 305.553 -3.35824 3.19024 0
M  V30 3298 C 306.288 -4.07739 4.03158 0
M  V30 3299 N 305.784 -4.82306 4.97346 0
M  V30 3300 N 307.577 -4.03635 3.91197 0
M  V30 3301 H 299.728 -0.648039 2.02273 0
M  V30 3302 H 301.991 -0.348149 0.881757 0
M  V30 3303 H 301.697 -1.82342 3.0074 0
M  V30 3304 H 301.571 -3.22407 1.95789 0
M  V30 3305 H 303.958 -2.74186 1.09116 0
M  V30 3306 H 304.039 -1.34585 2.17533 0
M  V30 3307 H 303.683 -2.90146 4.16867 0
M  V30 3308 H 303.613 -4.28971 3.05437 0
M  V30 3309 H 306.104 -2.8267 2.50811 0
M  V30 3310 H 306.417 -5.34661 5.57994 0
M  V30 3311 H 304.762 -4.81337 5.01338 0
M  V30 3312 H 307.953 -3.44491 3.16928 0
M  V30 3313 H 308.126 -4.59417 4.5699 0
M  V30 3314 N 301.532 -0.945985 -1.26051 0
M  V30 3315 C 302.757 -0.612525 -1.98149 0
M  V30 3316 C 303.182 0.806623 -1.69927 0
M  V30 3317 O 302.54 1.54411 -0.950108 0
M  V30 3318 C 302.588 -0.866981 -3.50023 0
M  V30 3319 O 301.692 0.0585333 -4.12358 0
M  V30 3320 H 301.033 -0.23379 -0.621481 0
M  V30 3321 H 303.563 -1.27023 -1.60395 0
M  V30 3322 H 303.573 -0.789792 -4.00283 0
M  V30 3323 H 302.248 -1.90135 -3.69894 0
M  V30 3324 H 300.825 -0.0701241 -3.72834 0
M  V30 3325 N 303.011 1.40521 -0.713556 0
M  V30 3326 C 304.257 2.01221 -0.252564 0
M  V30 3327 C 304.59 1.56444 1.1506 0
M  V30 3328 O 303.865 0.783597 1.78017 0
M  V30 3329 C 304.148 3.58582 -0.330332 0
M  V30 3330 C 304.001 4.13437 -1.77173 0
M  V30 3331 C 305.32 4.39079 0.299641 0
M  V30 3332 H 302.439 0.731077 -0.0932471 0
M  V30 3333 H 305.081 1.67026 -0.905673 0
M  V30 3334 H 303.231 3.87844 0.225737 0
M  V30 3335 H 304.903 3.9498 -2.38303 0
M  V30 3336 H 303.146 3.67801 -2.3001 0
M  V30 3337 H 303.817 5.22597 -1.77755 0
M  V30 3338 H 306.293 4.15735 -0.174139 0
M  V30 3339 H 305.169 5.4848 0.214771 0
M  V30 3340 H 305.43 4.19915 1.38288 0
M  V30 3341 N 304.489 0.459591 1.5075 0
M  V30 3342 C 305.735 -0.0994966 2.02556 0
M  V30 3343 C 306.068 -1.40399 1.3417 0
M  V30 3344 O 305.343 -1.88892 0.463683 0
M  V30 3345 C 305.626 -0.295242 3.58888 0
M  V30 3346 C 305.479 1.02947 4.37861 0
M  V30 3347 C 306.798 -1.05502 4.27267 0
M  V30 3348 H 303.917 -0.034686 0.736183 0
M  V30 3349 H 306.559 0.602938 1.8018 0
M  V30 3350 H 304.709 -0.893563 3.78084 0
M  V30 3351 H 306.381 1.66348 4.30263 0
M  V30 3352 H 304.624 1.62885 4.02058 0
M  V30 3353 H 305.295 0.846281 5.45474 0
M  V30 3354 H 307.771 -0.547993 4.12476 0
M  V30 3355 H 306.647 -1.16077 5.36486 0
M  V30 3356 H 306.908 -2.08875 3.89645 0
M  V30 3357 N 305.967 -1.56429 0.191757 0
M  V30 3358 C 307.213 -1.97777 -0.448554 0
M  V30 3359 C 307.546 -1.07847 -1.61501 0
M  V30 3360 O 306.821 -0.129774 -1.94067 0
M  V30 3361 C 307.104 -3.48362 -0.911906 0
M  V30 3362 C 306.957 -4.4907 0.256136 0
M  V30 3363 C 308.276 -4.02561 -1.77857 0
M  V30 3364 H 305.395 -0.719071 -0.161572 0
M  V30 3365 H 308.037 -1.87896 0.282007 0
M  V30 3366 H 306.187 -3.56914 -1.53442 0
M  V30 3367 H 307.859 -4.5256 0.893733 0
M  V30 3368 H 306.102 -4.24181 0.908436 0
M  V30 3369 H 306.773 -5.51889 -0.11053 0
M  V30 3370 H 309.249 -3.96767 -1.25359 0
M  V30 3371 H 308.125 -5.08301 -2.07174 0
M  V30 3372 H 308.386 -3.47616 -2.73158 0
M  V30 3373 N 307.445 0.0818655 -1.57387 0
M  V30 3374 C 308.408 1.08265 -2.02018 0
M  V30 3375 C 309.408 1.32183 -0.915664 0
M  V30 3376 O 310.598 1.28073 -1.18081 0
M  V30 3377 C 307.73 2.42871 -2.39221 0
M  V30 3378 H 308.923 0.698204 -2.91659 0
M  V30 3379 H 306.476 0.327303 -1.52835 0
M  V30 3380 H 307.211 2.86167 -1.52575 0
M  V30 3381 H 306.996 2.26855 -3.19811 0
M  V30 3382 H 308.486 3.14826 -2.74362 0
M  V30 3383 N 308.923 1.53595 0.353017 0
M  V30 3384 C 309.833 1.83897 1.45667 0
M  V30 3385 C 310.849 0.728334 1.58023 0
M  V30 3386 O 312.025 1.01968 1.73679 0
M  V30 3387 C 309.09 2.03383 2.80778 0
M  V30 3388 C 308.151 3.27262 2.77845 0
M  V30 3389 C 307.384 3.45809 4.06512 0
M  V30 3390 O 307.607 2.68387 5.03314 0
M  V30 3391 O 306.541 4.39207 4.11559 0
M  V30 3392 H 310.367 2.77686 1.2298 0
M  V30 3393 H 307.952 1.39132 0.544308 0
M  V30 3394 H 309.834 2.17698 3.60812 0
M  V30 3395 H 308.509 1.12783 3.03417 0
M  V30 3396 H 307.416 3.18359 1.96465 0
M  V30 3397 H 308.749 4.17824 2.60161 0
M  V30 3398 N 310.401 -0.613514 1.45168 0
M  V30 3399 C 311.678 -1.37263 1.39349 0
M  V30 3400 C 312.058 -2.11012 0.0610848 0
M  V30 3401 O 311.406 -2.07502 -0.956825 0
M  V30 3402 C 311.616 -2.3244 2.60332 0
M  V30 3403 C 312.964 -2.9523 3.05163 0
M  V30 3404 O 313.988 -2.42762 2.60663 0
M  V30 3405 O 312.847 -3.90454 3.82372 0
M  V30 3406 H 309.941 -0.615188 0.552696 0
M  V30 3407 H 312.487 -0.637097 1.57287 0
M  V30 3408 H 311.259 -1.77164 3.48896 0
M  V30 3409 H 310.882 -3.13383 2.44698 0
M  V30 3410 N 311.879 -1.3236 -0.855495 0
M  V30 3411 C 313.127 -1.22629 -1.60644 0
M  V30 3412 C 313.448 0.212136 -1.93843 0
M  V30 3413 O 312.718 1.13666 -1.59552 0
M  V30 3414 H 311.298 -0.450882 -0.595579 0
M  V30 3415 H 313.96 -1.65871 -1.02337 0
M  V30 3416 H 313.056 -1.80832 -2.54374 0
M  V30 3417 N 313.357 1.07166 -1.15556 0
M  V30 3418 C 314.582 1.84053 -0.955988 0
M  V30 3419 C 315.007 1.81586 0.490739 0
M  V30 3420 O 314.365 1.21018 1.34997 0
M  V30 3421 C 314.413 3.28957 -1.47714 0
M  V30 3422 O 313.517 4.06795 -0.677593 0
M  V30 3423 H 312.858 0.569842 -0.340847 0
M  V30 3424 H 315.388 1.35178 -1.53584 0
M  V30 3425 H 315.398 3.79788 -1.4908 0
M  V30 3426 H 314.073 3.30068 -2.53037 0
M  V30 3427 H 312.65 3.6561 -0.733721 0
M  V30 3428 N 314.835 0.952656 1.25548 0
M  V30 3429 C 316.251 0.656769 1.4546 0
M  V30 3430 C 316.451 -0.78633 1.85524 0
M  V30 3431 O 315.507 -1.56183 1.98402 0
M  V30 3432 C 316.82 1.62801 2.52817 0
M  V30 3433 C 318.368 1.63897 2.66659 0
M  V30 3434 C 318.843 2.5978 3.77198 0
M  V30 3435 N 320.334 2.58133 3.84606 0
M  V30 3436 C 321.069 3.29003 4.69621 0
M  V30 3437 N 320.565 4.09339 5.58939 0
M  V30 3438 N 322.358 3.179 4.63569 0
M  V30 3439 H 314.509 1.88526 0.978344 0
M  V30 3440 H 316.772 0.810815 0.491206 0
M  V30 3441 H 316.478 2.65869 2.30232 0
M  V30 3442 H 316.352 1.38898 3.50695 0
M  V30 3443 H 318.739 0.615481 2.8861 0
M  V30 3444 H 318.82 1.91858 1.69187 0
M  V30 3445 H 318.464 3.62254 3.55997 0
M  V30 3446 H 318.394 2.29105 4.7415 0
M  V30 3447 H 320.885 1.99809 3.20757 0
M  V30 3448 H 321.198 4.6034 6.20731 0
M  V30 3449 H 319.543 4.13438 5.58654 0
M  V30 3450 H 322.734 2.54612 3.92798 0
M  V30 3451 H 322.907 3.73398 5.29602 0
M  V30 3452 N 316.313 -1.40141 0.720998 0
M  V30 3453 C 317.243 -2.33339 0.0867621 0
M  V30 3454 C 318.224 -1.53178 -0.739622 0
M  V30 3455 O 319.409 -1.81625 -0.687449 0
M  V30 3456 C 316.539 -3.37194 -0.831728 0
M  V30 3457 C 315.493 -4.27857 -0.110558 0
M  V30 3458 C 314.819 -5.22294 -1.14513 0
M  V30 3459 C 316.119 -5.11872 1.0385 0
M  V30 3460 H 317.813 -2.86626 0.865219 0
M  V30 3461 H 315.359 -1.37814 0.417516 0
M  V30 3462 H 317.312 -4.01335 -1.28485 0
M  V30 3463 H 316.036 -2.82314 -1.64214 0
M  V30 3464 H 314.695 -3.65176 0.322797 0
M  V30 3465 H 314.343 -4.63717 -1.94874 0
M  V30 3466 H 314.043 -5.83797 -0.667446 0
M  V30 3467 H 315.567 -5.89312 -1.59824 0
M  V30 3468 H 316.981 -5.69436 0.664482 0
M  V30 3469 H 315.378 -5.82445 1.4449 0
M  V30 3470 H 316.448 -4.4753 1.86668 0
M  V30 3471 N 317.792 -0.46758 -1.50504 0
M  V30 3472 C 318.74 0.342482 -2.30065 0
M  V30 3473 C 319.734 0.993596 -1.37201 0
M  V30 3474 O 320.94 0.925102 -1.54408 0
M  V30 3475 H 317.315 0.129283 -0.740803 0
M  V30 3476 H 319.286 -0.34899 -2.96352 0
M  V30 3477 C 318.035 1.4139 -3.17654 0
M  V30 3478 H 317.358 0.922264 -3.89017 0
M  V30 3479 H 318.798 1.95335 -3.76325 0
M  V30 3480 C 317.257 2.4139 -2.35016 0
M  V30 3481 O 317.787 3.46586 -2.03079 0
M  V30 3482 N 315.993 2.13021 -1.97662 0
M  V30 3483 H 315.54 1.27499 -2.23834 0
M  V30 3484 H 315.498 2.80164 -1.42673 0
M  V30 3485 N 319.27 1.56325 -0.20005 0
M  V30 3486 C 320.202 2.16555 0.750771 0
M  V30 3487 C 321.215 1.12871 1.1732 0
M  V30 3488 O 322.404 1.39943 1.10807 0
M  V30 3489 C 319.504 2.71684 2.02586 0
M  V30 3490 C 318.677 4.00321 1.76244 0
M  V30 3491 C 317.736 4.40227 2.88248 0
M  V30 3492 O 316.762 5.07552 2.57642 0
M  V30 3493 N 317.964 4.04138 4.16717 0
M  V30 3494 H 320.729 2.98772 0.235685 0
M  V30 3495 H 318.29 1.6189 -0.0182594 0
M  V30 3496 H 320.282 2.95363 2.76664 0
M  V30 3497 H 318.852 1.93893 2.45202 0
M  V30 3498 H 318.072 3.84723 0.85919 0
M  V30 3499 H 319.36 4.84279 1.56048 0
M  V30 3500 H 318.758 3.49993 4.44434 0
M  V30 3501 H 317.315 4.32756 4.87407 0
M  V30 3502 N 320.748 -0.0735177 1.57428 0
M  V30 3503 C 321.978 -0.78483 1.91112 0
M  V30 3504 C 322.386 -1.71729 0.7941 0
M  V30 3505 O 321.729 -1.82105 -0.241542 0
M  V30 3506 C 321.791 -1.63346 3.20247 0
M  V30 3507 C 321.455 -0.870557 4.48632 0
M  V30 3508 C 322.452 -0.19058 5.19551 0
M  V30 3509 C 320.137 -0.838242 4.95256 0
M  V30 3510 C 322.131 0.511503 6.35344 0
M  V30 3511 C 319.818 -0.132386 6.10957 0
M  V30 3512 C 320.816 0.541288 6.80852 0
M  V30 3513 O 320.504 1.23578 7.94345 0
M  V30 3514 H 320.236 -0.228408 0.636244 0
M  V30 3515 H 322.79 -0.0486039 2.05342 0
M  V30 3516 H 321.02 -2.41245 3.02222 0
M  V30 3517 H 322.709 -2.22329 3.39595 0
M  V30 3518 H 323.475 -0.206864 4.84559 0
M  V30 3519 H 319.354 -1.35206 4.40727 0
M  V30 3520 H 322.898 1.03789 6.89836 0
M  V30 3521 H 318.795 -0.114023 6.45399 0
M  V30 3522 H 319.563 1.14487 8.10454 0
M  V30 3523 N 322.226 -1.5378 -0.344866 0
M  V30 3524 C 323.503 -1.61589 -1.10219 0
M  V30 3525 C 323.883 -0.436316 -2.06542 0
M  V30 3526 O 323.231 0.571543 -2.21237 0
M  V30 3527 C 323.441 -2.97602 -1.82301 0
M  V30 3528 C 324.789 -3.5291 -2.36093 0
M  V30 3529 O 325.813 -2.99768 -1.924 0
M  V30 3530 O 324.672 -4.45859 -3.16026 0
M  V30 3531 H 321.766 -0.653522 -0.506792 0
M  V30 3532 H 324.312 -1.66126 -0.346465 0
M  V30 3533 H 323.084 -3.74893 -1.12121 0
M  V30 3534 H 322.707 -2.9665 -2.64735 0
M  V30 3535 N 323.704 0.605807 -1.45491 0
M  V30 3536 C 324.634 1.72709 -1.57143 0
M  V30 3537 C 325.615 1.6476 -0.422884 0
M  V30 3538 O 326.8 1.83132 -0.646247 0
M  V30 3539 C 323.93 3.11316 -1.53948 0
M  V30 3540 C 322.884 3.34077 -2.67537 0
M  V30 3541 C 322.21 4.72975 -2.49397 0
M  V30 3542 C 323.51 3.24158 -4.09535 0
M  V30 3543 H 325.204 1.63214 -2.51001 0
M  V30 3544 H 322.75 0.78379 -1.208 0
M  V30 3545 H 324.703 3.89557 -1.60696 0
M  V30 3546 H 323.427 3.21655 -0.566205 0
M  V30 3547 H 322.086 2.58227 -2.6022 0
M  V30 3548 H 321.734 4.8005 -1.50205 0
M  V30 3549 H 321.434 4.8916 -3.25571 0
M  V30 3550 H 322.958 5.53414 -2.58002 0
M  V30 3551 H 324.372 3.92271 -4.18086 0
M  V30 3552 H 322.769 3.51872 -4.86113 0
M  V30 3553 H 323.839 2.2157 -4.31317 0
M  V30 3554 N 325.182 1.32811 0.848464 0
M  V30 3555 C 326.112 1.24882 1.97299 0
M  V30 3556 C 327.093 0.131357 1.69592 0
M  V30 3557 O 328.278 0.319553 1.91553 0
M  V30 3558 C 325.408 0.97746 3.33261 0
M  V30 3559 C 324.362 2.05682 3.75338 0
M  V30 3560 C 323.688 1.63777 5.09 0
M  V30 3561 C 324.988 3.47254 3.90144 0
M  V30 3562 H 326.682 2.18966 2.04191 0
M  V30 3563 H 324.228 1.05413 0.981029 0
M  V30 3564 H 326.181 0.908513 4.1149 0
M  V30 3565 H 324.905 0.000980011 3.266 0
M  V30 3566 H 323.564 2.11603 2.99366 0
M  V30 3567 H 323.212 0.648569 4.98801 0
M  V30 3568 H 322.912 2.36 5.38124 0
M  V30 3569 H 324.436 1.5833 5.89715 0
M  V30 3570 H 325.85 3.43888 4.58709 0
M  V30 3571 H 324.247 4.1788 4.30693 0
M  V30 3572 H 325.317 3.86462 2.92874 0
M  V30 3573 N 326.66 -1.06551 1.16123 0
M  V30 3574 C 327.908 -1.78947 0.939267 0
M  V30 3575 C 328.229 -1.87532 -0.534476 0
M  V30 3576 O 327.499 -1.38211 -1.38833 0
M  V30 3577 H 326.079 -0.662807 0.344523 0
M  V30 3578 H 328.741 -1.28725 1.46342 0
M  V30 3579 H 327.837 -2.81117 1.35572 0
M  V30 3580 N 328.138 -0.959301 -1.25041 0
M  V30 3581 C 329.07 -0.440543 -2.24926 0
M  V30 3582 C 330.083 0.446131 -1.56568 0
M  V30 3583 O 331.272 0.253657 -1.76689 0
M  V30 3584 C 328.372 0.38412 -3.36716 0
M  V30 3585 C 327.545 -0.490658 -4.34639 0
M  V30 3586 C 326.604 0.276587 -5.25473 0
M  V30 3587 O 325.63 -0.326614 -5.68262 0
M  V30 3588 N 326.832 1.56844 -5.5891 0
M  V30 3589 H 329.597 -1.29931 -2.70071 0
M  V30 3590 H 327.158 -0.830181 -1.38995 0
M  V30 3591 H 329.15 0.905228 -3.94446 0
M  V30 3592 H 327.72 1.14377 -2.90924 0
M  V30 3593 H 326.94 -1.19282 -3.7572 0
M  V30 3594 H 328.228 -1.08756 -4.97041 0
M  V30 3595 H 327.626 2.08036 -5.26059 0
M  V30 3596 H 326.183 2.03541 -6.19205 0
M  V30 3597 N 329.616 1.39756 -0.72842 0
M  V30 3598 C 330.844 2.04948 -0.283528 0
M  V30 3599 C 331.259 1.54908 1.0793 0
M  V30 3600 O 330.616 0.711135 1.68075 0
M  V30 3601 C 330.667 3.60498 -0.268957 0
M  V30 3602 O 330.388 4.08695 -1.57798 0
M  V30 3603 C 331.889 4.4288 0.192912 0
M  V30 3604 H 329.109 0.659243 -0.125056 0
M  V30 3605 H 331.653 1.78927 -0.990226 0
M  V30 3606 H 329.808 3.85444 0.388801 0
M  V30 3607 H 330.222 5.02977 -1.48709 0
M  V30 3608 H 331.696 5.51791 0.151952 0
M  V30 3609 H 332.173 4.21418 1.23708 0
M  V30 3610 H 332.779 4.23069 -0.435039 0
M  V30 3611 N 331.094 0.475555 1.50254 0
M  V30 3612 C 332.34 -0.0780073 2.0265 0
M  V30 3613 C 332.673 -1.38968 1.35652 0
M  V30 3614 O 331.948 -1.8839 0.483691 0
M  V30 3615 C 332.231 -0.257161 3.59181 0
M  V30 3616 C 332.084 1.07585 4.36744 0
M  V30 3617 C 333.403 -1.00965 4.28362 0
M  V30 3618 H 330.522 -0.0268758 0.73651 0
M  V30 3619 H 333.164 0.622015 1.7953 0
M  V30 3620 H 331.314 -0.853412 3.79011 0
M  V30 3621 H 332.986 1.70902 4.28474 0
M  V30 3622 H 331.229 1.6714 4.00308 0
M  V30 3623 H 331.9 0.904088 5.44546 0
M  V30 3624 H 334.376 -0.504214 4.13034 0
M  V30 3625 H 333.252 -1.10381 5.37687 0
M  V30 3626 H 333.513 -2.04731 3.91839 0
M  V30 3627 N 332.573 -1.56217 0.208337 0
M  V30 3628 C 333.85 -1.89739 -0.475234 0
M  V30 3629 C 334.23 -1.1238 -1.78701 0
M  V30 3630 O 333.578 -0.228979 -2.2735 0
M  V30 3631 C 333.788 -3.42289 -0.681101 0
M  V30 3632 C 335.136 -4.12789 -0.994507 0
M  V30 3633 O 336.16 -3.47814 -0.768357 0
M  V30 3634 O 335.019 -5.27649 -1.42299 0
M  V30 3635 H 332.113 -0.788478 -0.249461 0
M  V30 3636 H 334.659 -1.67855 0.249538 0
M  V30 3637 H 333.431 -3.90534 0.244722 0
M  V30 3638 H 333.054 -3.69909 -1.45785 0
M  V30 3639 N 334.051 0.0651679 -1.57465 0
M  V30 3640 C 335.276 0.779605 -1.9219 0
M  V30 3641 C 335.701 1.69988 -0.805333 0
M  V30 3642 O 335.059 1.79685 0.241435 0
M  V30 3643 C 335.107 1.54364 -3.2589 0
M  V30 3644 O 334.211 2.65474 -3.1559 0
M  V30 3645 H 333.552 0.212249 -0.629163 0
M  V30 3646 H 336.082 0.0314294 -2.04576 0
M  V30 3647 H 336.092 1.92146 -3.59922 0
M  V30 3648 H 334.767 0.868457 -4.06732 0
M  V30 3649 H 333.344 2.30501 -2.93128 0
M  V30 3650 N 335.529 1.53961 0.336706 0
M  V30 3651 C 336.777 1.71197 1.07405 0
M  V30 3652 C 337.098 0.481475 1.88962 0
M  V30 3653 O 336.368 -0.504585 1.8929 0
M  V30 3654 H 334.948 0.631185 0.399517 0
M  V30 3655 H 337.61 1.91232 0.376323 0
M  V30 3656 H 336.706 2.58587 1.74755 0
M  V30 3657 N 337.007 -0.598083 1.45811 0
M  V30 3658 C 338.256 -1.35295 1.49594 0
M  V30 3659 C 338.569 -1.95057 0.145679 0
M  V30 3660 O 339.775 -2.71431 0.0612099 0
M  V30 3661 C 338.231 -2.45124 2.63519 0
M  V30 3662 C 337.839 -1.91732 4.04899 0
M  V30 3663 C 339.583 -3.2205 2.76558 0
M  V30 3664 C 337.49 -2.991 5.1019 0
M  V30 3665 H 336.42 -0.508552 0.556679 0
M  V30 3666 H 339.071 -0.639977 1.71978 0
M  V30 3667 H 337.453 -3.19149 2.34435 0
M  V30 3668 H 338.627 -1.24352 4.43704 0
M  V30 3669 H 336.942 -1.27522 3.96393 0
M  V30 3670 H 339.539 -4.0215 3.52391 0
M  V30 3671 H 339.882 -3.73663 1.83526 0
M  V30 3672 H 340.415 -2.55127 3.05213 0
M  V30 3673 H 337.154 -2.52393 6.04961 0
M  V30 3674 H 336.674 -3.65017 4.75944 0
M  V30 3675 H 338.353 -3.63318 5.35359 0
M  V30 3676 N 338.485 -1.33259 -0.841409 0
M  V30 3677 C 339.731 -1.24757 -1.59886 0
M  V30 3678 C 340.064 0.186913 -1.93298 0
M  V30 3679 O 339.339 1.12757 -1.5848 0
M  V30 3680 C 339.622 -2.12036 -2.91055 0
M  V30 3681 C 339.475 -3.63929 -2.6434 0
M  V30 3682 C 340.794 -1.9916 -3.92458 0
M  V30 3683 H 337.913 -0.454542 -0.580138 0
M  V30 3684 H 340.555 -1.63335 -0.970647 0
M  V30 3685 H 338.705 -1.79265 -3.44669 0
M  V30 3686 H 340.377 -4.06978 -2.17178 0
M  V30 3687 H 338.62 -3.85935 -1.98082 0
M  V30 3688 H 339.291 -4.20341 -3.57796 0
M  V30 3689 H 341.767 -2.27895 -3.48143 0
M  V30 3690 H 340.643 -2.62484 -4.82072 0
M  V30 3691 H 340.904 -0.963082 -4.31482 0
M  V30 3692 N 339.963 1.05934 -1.16686 0
M  V30 3693 C 340.895 2.13468 -0.834503 0
M  V30 3694 C 341.908 1.62013 0.15984 0
M  V30 3695 O 343.097 1.7838 -0.0654228 0
M  V30 3696 C 340.197 3.3817 -0.222361 0
M  V30 3697 C 339.37 4.18928 -1.25771 0
M  V30 3698 C 338.429 5.21985 -0.664703 0
M  V30 3699 O 337.455 5.53334 -1.33453 0
M  V30 3700 N 338.657 5.77919 0.546834 0
M  V30 3701 H 341.422 2.42578 -1.75999 0
M  V30 3702 H 338.983 1.21967 -1.06469 0
M  V30 3703 H 340.975 4.04266 0.187472 0
M  V30 3704 H 339.545 3.06655 0.606758 0
M  V30 3705 H 338.765 3.48433 -1.84358 0
M  V30 3706 H 340.053 4.69687 -1.95631 0
M  V30 3707 H 339.451 5.54721 1.10912 0
M  V30 3708 H 338.008 6.45573 0.898829 0
M  V30 3709 N 341.441 0.965919 1.2453 0
M  V30 3710 C 342.666 0.643971 1.97149 0
M  V30 3711 C 343.091 -0.779487 1.71189 0
M  V30 3712 O 342.449 -1.5288 0.974553 0
M  V30 3713 C 342.497 0.922557 3.48599 0
M  V30 3714 O 341.601 0.00707672 4.12399 0
M  V30 3715 H 340.942 0.243647 0.617683 0
M  V30 3716 H 343.472 1.29558 1.58353 0
M  V30 3717 H 343.482 0.853373 3.98976 0
M  V30 3718 H 342.157 1.95996 3.66822 0
M  V30 3719 H 340.734 0.12943 3.72675 0
M  V30 3720 N 342.919 -1.39368 0.735821 0
M  V30 3721 C 344.144 -2.05319 0.293052 0
M  V30 3722 C 344.569 -1.55115 -1.064 0
M  V30 3723 O 343.927 -0.695261 -1.67439 0
M  V30 3724 C 343.975 -3.59305 0.305323 0
M  V30 3725 O 343.079 -4.06299 -0.706761 0
M  V30 3726 H 342.42 -0.650529 0.13307 0
M  V30 3727 H 344.95 -1.78386 1.00197 0
M  V30 3728 H 344.96 -4.07724 0.149997 0
M  V30 3729 H 343.635 -3.95207 1.29553 0
M  V30 3730 H 342.212 -3.69292 -0.517504 0
M  V30 3731 N 344.397 -0.483516 -1.5 0
M  V30 3732 C 345.625 0.0644831 -2.06799 0
M  V30 3733 C 346.04 1.32399 -1.34596 0
M  V30 3734 O 345.397 1.77626 -0.418946 0
M  V30 3735 C 345.448 0.339927 -3.59898 0
M  V30 3736 O 345.169 -0.869635 -4.29382 0
M  V30 3737 C 346.67 0.933515 -4.33359 0
M  V30 3738 H 343.89 -0.0126333 -0.670881 0
M  V30 3739 H 346.434 -0.675864 -1.93009 0
M  V30 3740 H 344.589 1.03022 -3.7345 0
M  V30 3741 H 345.003 -0.62179 -5.20801 0
M  V30 3742 H 346.477 1.07593 -5.41413 0
M  V30 3743 H 346.954 1.92685 -3.94676 0
M  V30 3744 H 347.56 0.281221 -4.24369 0
M  V30 3745 N 345.875 1.56104 -0.216619 0
M  V30 3746 C 347.123 1.97781 0.415593 0
M  V30 3747 C 347.444 1.10536 1.60645 0
M  V30 3748 O 346.714 0.181303 1.95059 0
M  V30 3749 H 345.294 0.730415 0.156534 0
M  V30 3750 H 347.956 1.92445 -0.308366 0
M  V30 3751 H 347.052 3.03072 0.74525 0
M  V30 3752 N 347.353 -0.0568162 1.57498 0
M  V30 3753 C 348.263 -1.08346 2.08083 0
M  V30 3754 C 349.279 -1.41439 1.01346 0
M  V30 3755 O 350.455 -1.51316 1.32912 0
M  V30 3756 C 347.52 -2.37352 2.52715 0
M  V30 3757 C 346.581 -2.11093 3.73816 0
M  V30 3758 C 345.814 -3.33949 4.1631 0
M  V30 3759 O 346.037 -4.43622 3.58547 0
M  V30 3760 O 344.971 -3.21279 5.08983 0
M  V30 3761 H 348.797 -0.683667 2.95905 0
M  V30 3762 H 346.382 -0.271965 1.46904 0
M  V30 3763 H 348.264 -3.13246 2.81877 0
M  V30 3764 H 346.939 -2.76681 1.68016 0
M  V30 3765 H 345.846 -1.32856 3.49714 0
M  V30 3766 H 347.179 -1.76637 4.59413 0
M  V30 3767 N 348.832 -1.54138 -0.328536 0
M  V30 3768 C 350.062 -1.75807 -1.08516 0
M  V30 3769 C 350.47 -0.50428 -1.82356 0
M  V30 3770 O 349.813 0.534451 -1.75754 0
M  V30 3771 C 349.875 -2.89423 -2.13248 0
M  V30 3772 C 349.539 -4.28504 -1.5885 0
M  V30 3773 C 350.536 -5.09536 -1.03289 0
M  V30 3774 C 348.221 -4.75034 -1.63243 0
M  V30 3775 C 350.215 -6.35206 -0.52845 0
M  V30 3776 C 347.902 -6.00672 -1.12411 0
M  V30 3777 C 348.9 -6.80592 -0.573062 0
M  V30 3778 O 348.588 -8.03867 -0.0723692 0
M  V30 3779 H 348.32 -0.590633 -0.328829 0
M  V30 3780 H 350.874 -2.01819 -0.381868 0
M  V30 3781 H 349.104 -2.5897 -2.87178 0
M  V30 3782 H 350.793 -2.98921 -2.74592 0
M  V30 3783 H 351.559 -4.74745 -0.99206 0
M  V30 3784 H 347.438 -4.12875 -2.05074 0
M  V30 3785 H 350.982 -6.97532 -0.0976774 0
M  V30 3786 H 346.879 -6.34955 -1.162 0
M  V30 3787 H 347.647 -8.18283 -0.188258 0
M  V30 3788 N 350.31 0.590341 -1.46126 0
M  V30 3789 C 351.556 1.35082 -1.51264 0
M  V30 3790 C 351.889 1.93534 -0.160711 0
M  V30 3791 O 351.164 1.76045 0.826956 0
M  V30 3792 C 351.447 2.48588 -2.6053 0
M  V30 3793 C 351.3 1.95221 -4.05227 0
M  V30 3794 C 352.619 3.50662 -2.6594 0
M  V30 3795 H 349.738 0.489803 -0.550692 0
M  V30 3796 H 352.38 0.663887 -1.78024 0
M  V30 3797 H 350.53 3.07186 -2.37843 0
M  V30 3798 H 352.202 1.41139 -4.39178 0
M  V30 3799 H 350.445 1.26101 -4.15068 0
M  V30 3800 H 351.116 2.77121 -4.77397 0
M  V30 3801 H 353.592 3.01934 -2.86313 0
M  V30 3802 H 352.468 4.27551 -3.44226 0
M  V30 3803 H 352.729 4.07399 -1.71694 0
M  V30 3804 N 351.788 1.33704 0.83433 0
M  V30 3805 C 353.034 1.25603 1.59222 0
M  V30 3806 C 353.367 -0.176659 1.93395 0
M  V30 3807 O 352.642 -1.11915 1.59076 0
M  V30 3808 C 352.925 2.13576 2.89926 0
M  V30 3809 C 352.778 3.65326 2.62406 0
M  V30 3810 C 354.097 2.01238 3.91397 0
M  V30 3811 H 351.216 0.457613 0.577719 0
M  V30 3812 H 353.858 1.63848 0.961972 0
M  V30 3813 H 352.008 1.8109 3.43713 0
M  V30 3814 H 353.68 4.08124 2.15017 0
M  V30 3815 H 351.923 3.8698 1.96033 0
M  V30 3816 H 352.594 4.22232 3.55562 0
M  V30 3817 H 355.07 2.29738 3.46929 0
M  V30 3818 H 353.946 2.65036 4.80673 0
M  V30 3819 H 354.207 0.985951 4.30966 0
M  V30 3820 N 353.266 -1.05314 1.17247 0
M  V30 3821 C 354.199 -2.12512 0.831507 0
M  V30 3822 C 355.177 -1.61351 -0.201168 0
M  V30 3823 O 356.361 -1.88317 -0.0829831 0
M  V30 3824 C 353.488 -3.37848 0.24015 0
M  V30 3825 C 352.534 -4.07832 1.24801 0
M  V30 3826 S 353.367 -4.56537 2.79882 0
M  V30 3827 C 354.523 -5.85122 2.22223 0
M  V30 3828 H 354.756 -2.41106 1.7394 0
M  V30 3829 H 352.289 -1.17896 0.996988 0
M  V30 3830 H 354.247 -4.10391 -0.0945588 0
M  V30 3831 H 352.908 -3.07392 -0.645668 0
M  V30 3832 H 352.101 -4.97883 0.78287 0
M  V30 3833 H 351.703 -3.41348 1.52831 0
M  V30 3834 H 353.995 -6.58408 1.59703 0
M  V30 3835 H 354.938 -6.36381 3.10523 0
M  V30 3836 H 355.346 -5.39626 1.65722 0
M  V30 3837 N 354.744 -0.972509 -1.24016 0
M  V30 3838 C 355.972 -0.654803 -1.96265 0
M  V30 3839 C 356.387 0.776708 -1.72083 0
M  V30 3840 O 355.744 1.52171 -1.00748 0
M  V30 3841 C 355.795 -0.92592 -3.49441 0
M  V30 3842 O 355.516 -2.30116 -3.72798 0
M  V30 3843 C 357.017 -0.623068 -4.38899 0
M  V30 3844 H 354.237 -0.243907 -0.6251 0
M  V30 3845 H 356.781 -1.30175 -1.57717 0
M  V30 3846 H 354.936 -0.325108 -3.86033 0
M  V30 3847 H 355.35 -2.38483 -4.67147 0
M  V30 3848 H 356.824 -0.863189 -5.45209 0
M  V30 3849 H 357.301 0.442754 -4.36963 0
M  V30 3850 H 357.907 -1.204 -4.07902 0
M  V30 3851 N 356.222 1.38976 -0.743202 0
M  V30 3852 C 357.45 2.04636 -0.30525 0
M  V30 3853 C 357.865 1.56044 1.06281 0
M  V30 3854 O 357.222 0.728921 1.67311 0
M  V30 3855 C 357.273 3.60193 -0.307177 0
M  V30 3856 O 356.994 4.06998 -1.62124 0
M  V30 3857 C 358.495 4.4306 0.145928 0
M  V30 3858 H 355.715 0.65788 -0.132041 0
M  V30 3859 H 358.259 1.77866 -1.00915 0
M  V30 3860 H 356.414 3.85835 0.347898 0
M  V30 3861 H 356.828 5.01371 -1.54036 0
M  V30 3862 H 358.302 5.51921 0.0934183 0
M  V30 3863 H 358.779 4.22706 1.19231 0
M  V30 3864 H 359.385 4.22584 -0.479886 0
M  V30 3865 N 357.7 0.491464 1.49741 0
M  V30 3866 C 358.65 -0.311086 2.25868 0
M  V30 3867 C 359.634 -0.943857 1.30308 0
M  V30 3868 O 360.826 -0.853035 1.55088 0
M  V30 3869 C 357.955 -1.38059 3.14316 0
M  V30 3870 C 357.041 -0.754541 4.17334 0
M  V30 3871 N 357.432 0.137216 5.05614 0
M  V30 3872 C 355.73 -1.01621 4.34269 0
M  V30 3873 C 356.431 0.494614 5.79593 0
M  V30 3874 N 355.407 -0.135169 5.43432 0
M  V30 3875 H 359.209 0.37555 2.91491 0
M  V30 3876 H 356.723 0.306917 1.59473 0
M  V30 3877 H 358.72 -1.96891 3.67477 0
M  V30 3878 H 357.38 -2.06901 2.50244 0
M  V30 3879 H 358.391 0.50741 5.15408 0
M  V30 3880 H 355.068 -1.69808 3.81407 0
M  V30 3881 H 356.458 1.2236 6.60665 0
M  V30 3882 N 359.178 -1.55987 0.224894 0
M  V30 3883 C 360.425 -1.9839 -0.4059 0
M  V30 3884 C 360.753 -1.11261 -1.59535 0
M  V30 3885 O 360.008 -0.158314 -1.95059 0
M  V30 3886 C 360.307 -3.46394 -0.880106 0
M  V30 3887 C 359.973 -4.5046 0.19918 0
M  V30 3888 C 358.635 -4.7864 0.495661 0
M  V30 3889 C 360.987 -5.12855 0.928939 0
M  V30 3890 C 358.315 -5.66497 1.52636 0
M  V30 3891 C 360.667 -6.01828 1.949 0
M  V30 3892 C 359.331 -6.28351 2.25236 0
M  V30 3893 H 358.601 -0.725961 -0.148529 0
M  V30 3894 H 361.248 -1.88668 0.328113 0
M  V30 3895 H 359.553 -3.53337 -1.69294 0
M  V30 3896 H 361.25 -3.76577 -1.37808 0
M  V30 3897 H 357.84 -4.28579 -0.0420526 0
M  V30 3898 H 362.024 -4.9115 0.713129 0
M  V30 3899 H 357.28 -5.8531 1.76698 0
M  V30 3900 H 361.454 -6.49225 2.51951 0
M  V30 3901 H 359.081 -6.96226 3.05244 0
M  V30 3902 N 360.656 0.0484629 -1.57525 0
M  V30 3903 C 361.606 1.06246 -2.01732 0
M  V30 3904 C 362.59 1.33155 -0.903245 0
M  V30 3905 O 363.782 1.33065 -1.16717 0
M  V30 3906 C 360.911 2.36943 -2.48421 0
M  V30 3907 C 359.997 2.13208 -3.6661 0
M  V30 3908 N 360.388 1.5947 -4.80003 0
M  V30 3909 C 358.686 2.43581 -3.7361 0
M  V30 3910 C 359.387 1.51092 -5.61735 0
M  V30 3911 N 358.363 1.9797 -5.0627 0
M  V30 3912 H 362.165 0.640675 -2.86832 0
M  V30 3913 H 359.679 0.255134 -1.60383 0
M  V30 3914 H 361.676 3.10374 -2.78341 0
M  V30 3915 H 360.336 2.79818 -1.64718 0
M  V30 3916 H 361.347 1.28008 -5.01831 0
M  V30 3917 H 358.024 2.89662 -3.00669 0
M  V30 3918 H 359.414 1.10199 -6.62801 0
M  V30 3919 N 362.134 1.5431 0.320358 0
M  V30 3920 C 363.064 1.86912 1.3995 0
M  V30 3921 C 364.045 0.726211 1.53819 0
M  V30 3922 O 365.23 0.980233 1.67646 0
M  V30 3923 C 362.36 2.09932 2.7667 0
M  V30 3924 C 361.314 3.25776 2.77586 0
M  V30 3925 C 360.64 3.34173 4.17412 0
M  V30 3926 C 361.94 4.6335 2.41048 0
M  V30 3927 H 363.634 2.77292 1.12914 0
M  V30 3928 H 361.18 1.33421 0.541738 0
M  V30 3929 H 363.133 2.31324 3.52232 0
M  V30 3930 H 361.857 1.16304 3.0519 0
M  V30 3931 H 360.516 3.04276 2.04479 0
M  V30 3932 H 360.164 2.38098 4.43078 0
M  V30 3933 H 359.864 4.12033 4.18931 0
M  V30 3934 H 361.388 3.57803 4.94782 0
M  V30 3935 H 362.802 4.84602 3.06324 0
M  V30 3936 H 361.199 5.43782 2.53813 0
M  V30 3937 H 362.269 4.65381 1.36193 0
M  V30 3938 N 363.613 -0.582584 1.46437 0
M  V30 3939 C 364.56 -1.69164 1.5701 0
M  V30 3940 C 365.53 -1.60847 0.414403 0
M  V30 3941 O 366.715 -1.80058 0.631171 0
M  V30 3942 C 363.855 -3.075 1.56646 0
M  V30 3943 C 362.968 -3.2644 2.82951 0
M  V30 3944 C 362.103 -4.55026 2.7409 0
M  V30 3945 C 361.142 -4.6731 3.95333 0
M  V30 3946 N 360.279 -5.87221 3.84858 0
M  V30 3947 H 365.119 -1.59464 2.51744 0
M  V30 3948 H 362.656 -0.777186 1.24893 0
M  V30 3949 H 364.614 -3.8757 1.5442 0
M  V30 3950 H 363.244 -3.16096 0.654439 0
M  V30 3951 H 362.296 -2.39974 2.95155 0
M  V30 3952 H 363.608 -3.31385 3.72808 0
M  V30 3953 H 362.762 -5.43324 2.6997 0
M  V30 3954 H 361.501 -4.52519 1.81873 0
M  V30 3955 H 360.506 -3.77429 3.99784 0
M  V30 3956 H 361.731 -4.71595 4.88646 0
M  V30 3957 H 359.677 -5.85712 2.95427 0
M  V30 3958 H 359.594 -5.93435 4.6837 0
M  V30 3959 H 360.862 -6.7795 3.84713 0
M  V30 3960 N 365.091 -1.34144 -0.827227 0
M  V30 3961 C 366.507 -1.13732 -1.11969 0
M  V30 3962 C 366.707 0.0640463 -2.01398 0
M  V30 3963 O 365.763 0.740856 -2.41387 0
M  V30 3964 C 367.076 -2.43047 -1.77055 0
M  V30 3965 C 368.624 -2.49063 -1.89569 0
M  V30 3966 C 369.099 -3.78369 -2.58072 0
M  V30 3967 N 370.59 -3.79505 -2.65575 0
M  V30 3968 C 371.325 -4.76274 -3.19297 0
M  V30 3969 N 370.821 -5.83424 -3.73616 0
M  V30 3970 N 372.614 -4.63735 -3.17658 0
M  V30 3971 H 364.765 -2.11126 -0.232296 0
M  V30 3972 H 367.028 -0.933424 -0.165602 0
M  V30 3973 H 366.734 -3.31025 -1.18807 0
M  V30 3974 H 366.608 -2.56066 -2.76966 0
M  V30 3975 H 368.995 -1.61527 -2.46968 0
M  V30 3976 H 369.076 -2.39975 -0.885745 0
M  V30 3977 H 368.72 -4.66293 -2.01329 0
M  V30 3978 H 368.65 -3.84737 -3.59562 0
M  V30 3979 H 371.141 -3.02074 -2.27068 0
M  V30 3980 H 371.454 -6.53282 -4.12846 0
M  V30 3981 H 369.799 -5.87143 -3.71871 0
M  V30 3982 H 372.99 -3.79177 -2.74486 0
M  V30 3983 H 373.163 -5.39318 -3.59221 0
M  V30 3984 N 366.569 1.04691 -1.17803 0
M  V30 3985 C 367.516 2.12557 -0.899343 0
M  V30 3986 C 368.486 1.65339 0.158771 0
M  V30 3987 O 369.671 1.90789 0.0204797 0
M  V30 3988 C 366.811 3.42481 -0.424315 0
M  V30 3989 C 365.924 4.03346 -1.54713 0
M  V30 3990 C 365.059 5.21208 -1.02546 0
M  V30 3991 C 364.098 5.74089 -2.12339 0
M  V30 3992 N 363.235 6.83247 -1.61612 0
M  V30 3993 H 368.075 2.35734 -1.823 0
M  V30 3994 H 365.612 1.1564 -0.909159 0
M  V30 3995 H 367.57 4.16996 -0.130421 0
M  V30 3996 H 366.2 3.19471 0.462377 0
M  V30 3997 H 365.252 3.2622 -1.95664 0
M  V30 3998 H 366.564 4.38628 -2.37501 0
M  V30 3999 H 365.718 6.02812 -0.685718 0
M  V30 4000 H 364.457 4.87414 -0.167084 0
M  V30 4001 H 363.462 4.91111 -2.47165 0
M  V30 4002 H 364.687 6.0993 -2.98601 0
M  V30 4003 H 362.633 6.5134 -0.780533 0
M  V30 4004 H 362.55 7.17559 -2.38003 0
M  V30 4005 H 363.818 7.68491 -1.30545 0
M  V30 4006 N 368.047 0.979072 1.23499 0
M  V30 4007 C 369.296 0.642751 1.91185 0
M  V30 4008 C 369.609 -0.827253 1.77245 0
M  V30 4009 O 370.815 -1.27458 2.39722 0
M  V30 4010 C 369.271 1.09901 3.42709 0
M  V30 4011 C 368.879 2.59327 3.65313 0
M  V30 4012 C 370.623 0.836371 4.16179 0
M  V30 4013 C 368.53 2.98627 5.10467 0
M  V30 4014 H 367.46 0.236698 0.715884 0
M  V30 4015 H 370.111 1.1868 1.39955 0
M  V30 4016 H 368.493 0.48319 3.93041 0
M  V30 4017 H 369.667 3.26136 3.25533 0
M  V30 4018 H 367.982 2.83323 3.05151 0
M  V30 4019 H 370.579 1.10586 5.23139 0
M  V30 4020 H 370.922 -0.227509 4.15678 0
M  V30 4021 H 371.455 1.41371 3.71832 0
M  V30 4022 H 368.194 4.04133 5.16098 0
M  V30 4023 H 367.714 2.3651 5.51201 0
M  V30 4024 H 369.393 2.89159 5.78788 0
M  V30 4025 N 369.525 -1.3858 0.750561 0
M  V30 4026 C 370.773 -1.99789 0.30477 0
M  V30 4027 C 371.094 -1.59874 -1.11649 0
M  V30 4028 O 370.364 -0.85417 -1.76297 0
M  V30 4029 H 368.944 -0.738902 0.109694 0
M  V30 4030 H 371.606 -1.69391 0.963983 0
M  V30 4031 H 370.702 -3.09952 0.365499 0
M  V30 4032 N 371.003 -0.499398 -1.49478 0
M  V30 4033 C 372.233 0.0424839 -2.06556 0
M  V30 4034 C 372.641 1.31514 -1.36018 0
M  V30 4035 O 371.984 1.78555 -0.431718 0
M  V30 4036 C 372.046 0.368074 -3.57611 0
M  V30 4037 C 371.71 -0.806631 -4.49825 0
M  V30 4038 C 372.707 -1.69667 -4.91436 0
M  V30 4039 C 370.392 -1.00498 -4.92144 0
M  V30 4040 C 372.386 -2.76923 -5.74101 0
M  V30 4041 C 370.073 -2.08072 -5.74586 0
M  V30 4042 C 371.071 -2.96119 -6.15469 0
M  V30 4043 O 370.759 -4.01836 -6.96264 0
M  V30 4044 H 370.491 -0.0165165 -0.675798 0
M  V30 4045 H 373.045 -0.695497 -1.93267 0
M  V30 4046 H 371.275 1.15963 -3.68903 0
M  V30 4047 H 372.964 0.848381 -3.96935 0
M  V30 4048 H 373.73 -1.55524 -4.59388 0
M  V30 4049 H 369.609 -0.329036 -4.59824 0
M  V30 4050 H 373.153 -3.45676 -6.05932 0
M  V30 4051 H 369.05 -2.22211 -6.06047 0
M  V30 4052 H 369.818 -3.9917 -7.14567 0
M  V30 4053 N 372.481 1.55866 -0.233164 0
M  V30 4054 C 373.728 1.98603 0.395374 0
M  V30 4055 C 374.056 1.12105 1.58942 0
M  V30 4056 O 373.311 0.168656 1.94972 0
M  V30 4057 C 373.61 3.46856 0.861724 0
M  V30 4058 C 373.276 4.50348 -0.223066 0
M  V30 4059 C 371.938 4.78371 -0.521038 0
M  V30 4060 C 374.29 5.12355 -0.956124 0
M  V30 4061 C 371.618 5.6568 -1.55638 0
M  V30 4062 C 373.97 6.00786 -1.98089 0
M  V30 4063 C 372.634 6.27148 -2.28565 0
M  V30 4064 H 371.904 0.726739 0.144677 0
M  V30 4065 H 374.551 1.88491 -0.338114 0
M  V30 4066 H 372.856 3.5423 1.67418 0
M  V30 4067 H 374.553 3.77302 1.35809 0
M  V30 4068 H 371.143 4.28596 0.0193234 0
M  V30 4069 H 375.327 4.90765 -0.739166 0
M  V30 4070 H 370.583 5.84365 -1.798 0
M  V30 4071 H 374.757 6.4788 -2.55391 0
M  V30 4072 H 372.384 6.94597 -3.08932 0
M  V30 4073 N 373.959 -0.0401083 1.57549 0
M  V30 4074 C 375.205 -0.734211 1.89043 0
M  V30 4075 C 375.538 -1.75591 0.829535 0
M  V30 4076 O 374.813 -1.93868 -0.156706 0
M  V30 4077 C 375.096 -1.41374 3.31188 0
M  V30 4078 C 374.949 -0.406299 4.47961 0
M  V30 4079 C 376.268 -2.35061 3.72068 0
M  V30 4080 H 373.387 -0.265447 0.687537 0
M  V30 4081 H 376.029 0.00294087 1.9 0
M  V30 4082 H 374.179 -2.04206 3.30503 0
M  V30 4083 H 375.851 0.219255 4.60779 0
M  V30 4084 H 374.094 0.275485 4.32924 0
M  V30 4085 H 374.765 -0.920022 5.44279 0
M  V30 4086 H 377.241 -1.82282 3.74049 0
M  V30 4087 H 376.117 -2.79593 4.72355 0
M  V30 4088 H 376.378 -3.21258 3.0372 0
M  V30 4089 N 375.437 -1.54477 -0.31217 0
M  V30 4090 C 376.686 -1.72438 -1.04633 0
M  V30 4091 C 376.999 -0.511163 -1.88803 0
M  V30 4092 O 378.205 -0.572341 -2.65399 0
M  V30 4093 C 376.661 -3.05043 -1.9099 0
M  V30 4094 C 376.269 -4.33806 -1.11877 0
M  V30 4095 C 378.013 -3.32364 -2.64073 0
M  V30 4096 C 375.92 -5.57467 -1.97445 0
M  V30 4097 H 374.85 -0.642647 -0.394361 0
M  V30 4098 H 377.501 -1.80966 -0.303929 0
M  V30 4099 H 375.883 -2.90451 -2.69173 0
M  V30 4100 H 377.057 -4.59199 -0.383843 0
M  V30 4101 H 375.372 -4.13336 -0.504252 0
M  V30 4102 H 377.969 -4.21951 -3.28423 0
M  V30 4103 H 378.312 -2.50745 -3.32314 0
M  V30 4104 H 378.845 -3.47875 -1.92944 0
M  V30 4105 H 375.584 -6.41722 -1.33692 0
M  V30 4106 H 375.104 -5.36277 -2.6864 0
M  V30 4107 H 376.783 -5.94303 -2.5576 0
M  V30 4108 N 376.915 0.57481 -1.46744 0
M  V30 4109 C 377.847 1.69804 -1.53946 0
M  V30 4110 C 378.86 1.57098 -0.427106 0
M  V30 4111 O 380.049 1.64378 -0.695863 0
M  V30 4112 C 377.149 3.08125 -1.4111 0
M  V30 4113 C 376.322 3.46757 -2.66605 0
M  V30 4114 C 375.381 4.6417 -2.47855 0
M  V30 4115 O 374.407 4.69634 -3.21609 0
M  V30 4116 N 375.609 5.59553 -1.54534 0
M  V30 4117 H 378.374 1.64077 -2.50796 0
M  V30 4118 H 375.935 0.761 -1.429 0
M  V30 4119 H 377.927 3.84478 -1.26328 0
M  V30 4120 H 376.497 3.08175 -0.524109 0
M  V30 4121 H 375.717 2.6003 -2.96274 0
M  V30 4122 H 377.005 3.69337 -3.49954 0
M  V30 4123 H 376.403 5.57881 -0.937304 0
M  V30 4124 H 374.96 6.35304 -1.45711 0
M  V30 4125 N 378.394 1.34581 0.820102 0
M  V30 4126 C 379.622 1.3018 1.60813 0
M  V30 4127 C 380.037 -0.123551 1.88395 0
M  V30 4128 O 379.394 -1.07148 1.47735 0
M  V30 4129 C 379.445 2.09312 2.94739 0
M  V30 4130 O 379.166 3.46288 2.68358 0
M  V30 4131 C 380.667 2.1234 3.89136 0
M  V30 4132 H 377.887 0.447726 0.499782 0
M  V30 4133 H 380.431 1.77237 1.02017 0
M  V30 4134 H 378.586 1.65889 3.50085 0
M  V30 4135 H 379 3.87227 3.53774 0
M  V30 4136 H 380.474 2.72126 4.80262 0
M  V30 4137 H 380.951 1.11854 4.24718 0
M  V30 4138 H 381.557 2.55864 3.39726 0
M  V30 4139 N 379.872 -1.04064 1.18357 0
M  V30 4140 C 381.102 -1.80654 1.00238 0
M  V30 4141 C 381.51 -1.83713 -0.452362 0
M  V30 4142 O 380.853 -1.27135 -1.32599 0
M  V30 4143 C 380.915 -3.27582 1.48088 0
M  V30 4144 C 380.579 -3.48184 2.96002 0
M  V30 4145 C 381.576 -3.39372 3.93856 0
M  V30 4146 C 379.261 -3.7478 3.34433 0
M  V30 4147 C 381.255 -3.5686 5.28138 0
M  V30 4148 C 378.942 -3.91915 4.68877 0
M  V30 4149 C 379.94 -3.82956 5.65539 0
M  V30 4150 O 379.628 -3.996 6.97549 0
M  V30 4151 H 379.36 -0.575751 0.354241 0
M  V30 4152 H 381.914 -1.32044 1.57333 0
M  V30 4153 H 380.144 -3.77161 0.853588 0
M  V30 4154 H 381.833 -3.8573 1.2636 0
M  V30 4155 H 382.599 -3.18789 3.65511 0
M  V30 4156 H 378.478 -3.80852 2.59756 0
M  V30 4157 H 382.022 -3.49783 6.03571 0
M  V30 4158 H 377.919 -4.11992 4.96923 0
M  V30 4159 H 378.687 -4.1676 7.04452 0
M  V30 4160 N 381.35 -0.985608 -1.22978 0
M  V30 4161 C 382.28 -0.549649 -2.26939 0
M  V30 4162 C 383.261 0.419803 -1.64838 0
M  V30 4163 O 384.446 0.31203 -1.91677 0
M  V30 4164 C 381.576 0.143652 -3.47003 0
M  V30 4165 C 380.53 -0.743606 -4.21491 0
M  V30 4166 C 379.856 0.0822027 -5.34637 0
M  V30 4167 C 381.156 -2.03694 -4.80943 0
M  V30 4168 H 382.85 -1.41862 -2.63658 0
M  V30 4169 H 380.396 -0.683571 -1.26741 0
M  V30 4170 H 382.349 0.459985 -4.18882 0
M  V30 4171 H 381.073 1.04711 -3.09359 0
M  V30 4172 H 379.732 -1.04347 -3.51436 0
M  V30 4173 H 379.38 0.986359 -4.93234 0
M  V30 4174 H 379.08 -0.508377 -5.85397 0
M  V30 4175 H 380.604 0.392797 -6.09335 0
M  V30 4176 H 382.018 -1.78504 -5.44802 0
M  V30 4177 H 380.415 -2.57573 -5.42011 0
M  V30 4178 H 381.485 -2.72042 -4.01399 0
M  V30 4179 N 382.828 1.3818 -0.7579 0
M  V30 4180 C 384.239 1.82726 -0.383134 0
M  V30 4181 C 384.59 1.63214 1.08884 0
M  V30 4182 O 383.715 1.13566 1.84205 0
M  V30 4183 C 384.31 3.31728 -0.688631 0
M  V30 4184 C 382.869 3.74606 -0.367091 0
M  V30 4185 C 382.016 2.60896 -0.939599 0
M  V30 4186 H 384.967 1.26847 -0.953699 0
M  V30 4187 H 384.988 3.80487 0.0316492 0
M  V30 4188 H 384.5 3.45898 -1.76001 0
M  V30 4189 H 382.601 3.66013 0.697532 0
M  V30 4190 H 382.714 4.71215 -0.865658 0
M  V30 4191 H 381.078 2.52075 -0.3647 0
M  V30 4192 H 381.861 2.77864 -2.0161 0
M  V30 4193 N 384.306 0.507319 1.49211 0
M  V30 4194 C 385.546 -0.0332372 2.04373 0
M  V30 4195 C 385.91 -1.33694 1.37804 0
M  V30 4196 O 387.111 -1.96213 1.83722 0
M  V30 4197 C 385.382 -0.17599 3.56966 0
M  V30 4198 S 386.941 -0.669882 4.33657 0
M  V30 4199 H 383.759 0.00123603 0.710999 0
M  V30 4200 H 386.361 0.682725 1.83191 0
M  V30 4201 H 385.065 0.778053 4.02957 0
M  V30 4202 H 384.596 -0.917005 3.82563 0
M  V30 4203 H 386.611 -1.93806 4.56786 0
M  V30 4204 N 385.784 -1.5574 0.241426 0
M  V30 4205 C 387.033 -1.97986 -0.385295 0
M  V30 4206 C 387.346 -1.13267 -1.59468 0
M  V30 4207 O 388.552 -1.45501 -2.2922 0
M  V30 4208 C 387.008 -3.52275 -0.736884 0
M  V30 4209 C 386.616 -4.45726 0.450796 0
M  V30 4210 C 388.36 -4.03189 -1.3281 0
M  V30 4211 C 386.267 -5.91352 0.0756662 0
M  V30 4212 H 385.197 -0.739386 -0.147731 0
M  V30 4213 H 387.848 -1.80308 0.340779 0
M  V30 4214 H 386.23 -3.65628 -1.52094 0
M  V30 4215 H 387.404 -4.44131 1.22819 0
M  V30 4216 H 385.719 -4.05264 0.956573 0
M  V30 4217 H 388.316 -5.09505 -1.62201 0
M  V30 4218 H 388.659 -3.50212 -2.25071 0
M  V30 4219 H 389.192 -3.93141 -0.607069 0
M  V30 4220 H 385.931 -6.48354 0.965272 0
M  V30 4221 H 385.451 -5.96095 -0.665635 0
M  V30 4222 H 387.13 -6.46084 -0.344075 0
M  V30 4223 N 387.262 0.0317525 -1.57568 0
M  V30 4224 C 388.195 1.06621 -2.0176 0
M  V30 4225 C 389.173 1.35323 -0.901462 0
M  V30 4226 O 390.357 1.48025 -1.16708 0
M  V30 4227 C 387.484 2.40155 -2.38837 0
M  V30 4228 C 386.53 2.27327 -3.60867 0
M  V30 4229 S 387.363 1.62925 -5.10113 0
M  V30 4230 C 388.519 2.97955 -5.5043 0
M  V30 4231 H 388.752 0.689781 -2.89187 0
M  V30 4232 H 386.285 0.24164 -1.52497 0
M  V30 4233 H 388.243 3.1695 -2.6087 0
M  V30 4234 H 386.904 2.74946 -1.51867 0
M  V30 4235 H 386.097 3.25898 -3.84456 0
M  V30 4236 H 385.699 1.58675 -3.38671 0
M  V30 4237 H 387.991 3.94285 -5.5095 0
M  V30 4238 H 388.934 2.79102 -6.50775 0
M  V30 4239 H 389.342 3.00404 -4.77931 0
M  V30 4240 N 388.74 1.54641 0.303973 0
M  V30 4241 C 389.968 1.77768 1.05858 0
M  V30 4242 C 390.383 0.535722 1.8104 0
M  V30 4243 O 389.74 -0.494337 1.75677 0
M  V30 4244 C 389.791 2.9834 2.04146 0
M  V30 4245 O 389.512 4.17736 1.32015 0
M  V30 4246 C 391.013 3.33832 2.91669 0
M  V30 4247 H 388.233 0.592961 0.314067 0
M  V30 4248 H 390.777 2.01583 0.344149 0
M  V30 4249 H 388.932 2.76742 2.71096 0
M  V30 4250 H 389.346 4.85693 1.97998 0
M  V30 4251 H 390.82 4.21448 3.56491 0
M  V30 4252 H 391.297 2.51857 3.59812 0
M  V30 4253 H 391.903 3.57579 2.30254 0
M  V30 4254 N 390.218 -0.567019 1.47046 0
M  V30 4255 C 391.464 -1.32658 1.53394 0
M  V30 4256 C 391.797 -1.93254 0.19148 0
M  V30 4257 O 391.072 -1.77338 -0.798844 0
M  V30 4258 C 391.355 -2.44412 2.64452 0
M  V30 4259 C 391.208 -1.88749 4.08282 0
M  V30 4260 C 392.527 -3.46387 2.71485 0
M  V30 4261 H 389.646 -0.48098 0.558415 0
M  V30 4262 H 392.288 -0.635481 1.79058 0
M  V30 4263 H 390.438 -3.03363 2.427 0
M  V30 4264 H 392.11 -1.34134 4.41368 0
M  V30 4265 H 390.353 -1.19481 4.17021 0
M  V30 4266 H 391.024 -2.69491 4.81745 0
M  V30 4267 H 393.5 -2.9734 2.91081 0
M  V30 4268 H 392.376 -4.2202 3.50985 0
M  V30 4269 H 392.637 -4.04616 1.78153 0
M  V30 4270 N 391.696 -1.35014 -0.812953 0
M  V30 4271 C 392.945 -1.27269 -1.56479 0
M  V30 4272 C 393.258 0.152771 -1.95002 0
M  V30 4273 O 394.464 0.352451 -2.69203 0
M  V30 4274 C 392.92 -2.23159 -2.82362 0
M  V30 4275 C 392.528 -3.71016 -2.511 0
M  V30 4276 C 394.272 -2.24342 -3.60376 0
M  V30 4277 C 392.179 -4.58746 -3.73237 0
M  V30 4278 H 391.109 -0.472829 -0.587324 0
M  V30 4279 H 393.76 -1.6024 -0.894171 0
M  V30 4280 H 392.142 -1.83151 -3.51101 0
M  V30 4281 H 393.316 -4.1962 -1.90409 0
M  V30 4282 H 391.631 -3.72378 -1.86343 0
M  V30 4283 H 394.228 -2.87107 -4.51081 0
M  V30 4284 H 394.571 -1.24542 -3.97234 0
M  V30 4285 H 395.104 -2.62846 -2.98591 0
M  V30 4286 H 391.843 -5.59521 -3.41492 0
M  V30 4287 H 391.363 -4.14871 -4.33176 0
M  V30 4288 H 393.042 -4.73852 -4.40537 0
M  V30 4289 N 393.175 1.03435 -1.18907 0
M  V30 4290 C 394.105 2.13503 -0.945448 0
M  V30 4291 C 395.086 1.69682 0.119189 0
M  V30 4292 O 396.271 1.94169 -0.034707 0
M  V30 4293 C 393.401 3.44004 -0.477316 0
M  V30 4294 C 392.355 4.0148 -1.48316 0
M  V30 4295 C 391.681 5.27537 -0.872311 0
M  V30 4296 C 392.981 4.36921 -2.86177 0
M  V30 4297 H 394.675 2.34141 -1.86597 0
M  V30 4298 H 392.221 1.12523 -0.898584 0
M  V30 4299 H 394.174 4.20372 -0.294204 0
M  V30 4300 H 392.898 3.23072 0.478786 0
M  V30 4301 H 391.557 3.27201 -1.65332 0
M  V30 4302 H 391.205 5.02917 0.0911752 0
M  V30 4303 H 390.905 5.66954 -1.54393 0
M  V30 4304 H 392.429 6.06576 -0.699871 0
M  V30 4305 H 393.843 5.04248 -2.72776 0
M  V30 4306 H 392.24 4.87405 -3.50081 0
M  V30 4307 H 393.31 3.46466 -3.39248 0
M  V30 4308 N 394.653 0.992116 1.22453 0
M  V30 4309 C 395.878 0.685644 1.95739 0
M  V30 4310 C 396.303 -0.743 1.72804 0
M  V30 4311 O 395.661 -1.50778 1.00676 0
M  V30 4312 C 395.709 0.996293 3.46564 0
M  V30 4313 O 394.813 0.0945512 4.12292 0
M  V30 4314 H 394.154 0.256694 0.612376 0
M  V30 4315 H 396.684 1.32888 1.5557 0
M  V30 4316 H 396.694 0.93781 3.97076 0
M  V30 4317 H 395.369 2.03733 3.62582 0
M  V30 4318 H 393.946 0.208451 3.72317 0
M  V30 4319 N 396.131 -1.37776 0.765217 0
M  V30 4320 C 397.063 -2.28958 0.105361 0
M  V30 4321 C 398.076 -1.48316 -0.67128 0
M  V30 4322 O 399.265 -1.71046 -0.51045 0
M  V30 4323 C 396.365 -3.27421 -0.874569 0
M  V30 4324 C 395.538 -4.37132 -0.153123 0
M  V30 4325 C 394.597 -5.1571 -1.04547 0
M  V30 4326 O 393.623 -5.66896 -0.511672 0
M  V30 4327 N 394.825 -5.29808 -2.37243 0
M  V30 4328 H 397.59 -2.86227 0.888495 0
M  V30 4329 H 395.151 -1.49682 0.617 0
M  V30 4330 H 397.143 -3.7687 -1.47483 0
M  V30 4331 H 395.713 -2.70967 -1.55871 0
M  V30 4332 H 394.933 -3.89166 0.627975 0
M  V30 4333 H 396.221 -5.07625 0.345643 0
M  V30 4334 H 395.619 -4.89793 -2.83054 0
M  V30 4335 H 394.176 -5.82589 -2.9229 0
M  V30 4336 N 397.609 -0.515225 -1.4894 0
M  V30 4337 C 398.855 0.0242508 -2.02785 0
M  V30 4338 C 399.188 1.35323 -1.39289 0
M  V30 4339 O 398.463 1.87041 -0.533469 0
M  V30 4340 C 398.746 0.16184 -3.59736 0
M  V30 4341 C 398.599 -1.19127 -4.33738 0
M  V30 4342 C 399.918 0.895719 -4.30888 0
M  V30 4343 H 397.037 0.00733914 -0.736963 0
M  V30 4344 H 399.679 -0.669395 -1.77818 0
M  V30 4345 H 397.829 0.752624 -3.8114 0
M  V30 4346 H 399.501 -1.82202 -4.23792 0
M  V30 4347 H 397.744 -1.77695 -3.95736 0
M  V30 4348 H 398.415 -1.04815 -5.41957 0
M  V30 4349 H 400.891 0.394528 -4.14225 0
M  V30 4350 H 399.767 0.960859 -5.40425 0
M  V30 4351 H 400.028 1.9427 -3.97129 0
M  V30 4352 N 399.087 1.5561 -0.249682 0
M  V30 4353 C 400.312 2.03865 0.381305 0
M  V30 4354 C 400.737 1.12769 1.50548 0
M  V30 4355 O 400.095 0.121189 1.80895 0
M  V30 4356 C 400.143 3.50101 0.863816 0
M  V30 4357 O 399.247 3.62132 1.97318 0
M  V30 4358 H 398.588 0.658827 0.0827194 0
M  V30 4359 H 401.118 2.01105 -0.376552 0
M  V30 4360 H 401.128 3.90975 1.1663 0
M  V30 4361 H 399.803 4.1588 0.0411816 0
M  V30 4362 H 398.38 3.33155 1.67517 0
M  V30 4363 N 400.565 -0.0233959 1.57583 0
M  V30 4364 C 401.812 -0.713063 1.8953 0
M  V30 4365 C 402.14 -1.75056 0.847673 0
M  V30 4366 O 401.395 -1.95119 -0.150636 0
M  V30 4367 C 401.694 -1.41428 3.28227 0
M  V30 4368 C 401.36 -0.512222 4.47981 0
M  V30 4369 C 400.022 -0.263785 4.80476 0
M  V30 4370 C 402.374 0.110248 5.21083 0
M  V30 4371 C 399.702 0.615804 5.83459 0
M  V30 4372 C 402.054 0.977573 6.25001 0
M  V30 4373 C 400.718 1.23542 6.55968 0
M  V30 4374 H 399.988 -0.260928 0.69354 0
M  V30 4375 H 402.635 0.0271047 1.91481 0
M  V30 4376 H 400.94 -2.22791 3.22291 0
M  V30 4377 H 402.637 -1.95355 3.50196 0
M  V30 4378 H 399.227 -0.716013 4.22577 0
M  V30 4379 H 403.411 -0.0687137 4.96252 0
M  V30 4380 H 398.667 0.82382 6.05824 0
M  V30 4381 H 402.841 1.46638 6.80786 0
M  V30 4382 H 400.468 1.91871 7.35588 0
M  V30 4383 N 402.043 -1.548 -0.295768 0
M  V30 4384 C 403.289 -1.75517 -1.02789 0
M  V30 4385 C 403.644 -0.537266 -1.84746 0
M  V30 4386 O 402.937 0.470299 -1.85738 0
M  V30 4387 C 403.131 -2.98797 -1.961 0
M  V30 4388 C 402.96 -4.3246 -1.23321 0
M  V30 4389 C 401.73 -4.96131 -0.95822 0
M  V30 4390 C 403.928 -5.10365 -0.635024 0
M  V30 4391 N 401.91 -6.1357 -0.201257 0
M  V30 4392 C 403.281 -6.19999 -0.0110937 0
M  V30 4393 C 405.336 -4.94957 -0.540594 0
M  V30 4394 C 404.039 -7.15904 0.698136 0
M  V30 4395 C 406.065 -5.91197 0.154992 0
M  V30 4396 C 405.427 -7.00203 0.767752 0
M  V30 4397 H 401.526 -0.694786 -0.358882 0
M  V30 4398 H 404.11 -1.92281 -0.305943 0
M  V30 4399 H 402.281 -2.83448 -2.6554 0
M  V30 4400 H 404.013 -3.08017 -2.62502 0
M  V30 4401 H 400.768 -4.56595 -1.25771 0
M  V30 4402 H 401.192 -6.76802 0.16389 0
M  V30 4403 H 405.834 -4.10803 -1.00003 0
M  V30 4404 H 403.552 -7.99595 1.16933 0
M  V30 4405 H 407.138 -5.81353 0.228069 0
M  V30 4406 H 406.018 -7.73393 1.29743 0
M  V30 4407 N 403.521 0.559213 -1.47345 0
M  V30 4408 C 404.451 1.67622 -1.62558 0
M  V30 4409 C 405.432 1.63331 -0.475087 0
M  V30 4410 O 406.617 1.80983 -0.704182 0
M  V30 4411 C 403.747 3.0626 -1.63774 0
M  V30 4412 C 402.701 3.25397 -2.7803 0
M  V30 4413 C 402.027 4.64801 -2.64318 0
M  V30 4414 C 403.327 3.10965 -4.19641 0
M  V30 4415 H 405.021 1.55146 -2.56067 0
M  V30 4416 H 402.567 0.744961 -1.23233 0
M  V30 4417 H 404.52 3.84247 -1.73008 0
M  V30 4418 H 403.244 3.1969 -0.66825 0
M  V30 4419 H 401.903 2.49817 -2.68304 0
M  V30 4420 H 401.551 4.75028 -1.65401 0
M  V30 4421 H 401.251 4.78555 -3.40968 0
M  V30 4422 H 402.775 5.44926 -2.75478 0
M  V30 4423 H 404.189 3.78772 -4.30354 0
M  V30 4424 H 402.586 3.36229 -4.97062 0
M  V30 4425 H 403.656 2.07736 -4.38148 0
M  V30 4426 N 404.999 1.35443 0.805782 0
M  V30 4427 C 405.947 1.28465 1.93906 0
M  V30 4428 C 406.941 0.17943 1.68447 0
M  V30 4429 O 408.147 0.345459 1.76654 0
M  V30 4430 H 404.522 0.399528 0.637088 0
M  V30 4431 H 406.493 2.24206 1.96912 0
M  V30 4432 C 405.242 1.07432 3.30687 0
M  V30 4433 H 404.565 1.91716 3.50835 0
M  V30 4434 H 406.005 1.06591 4.10383 0
M  V30 4435 C 404.464 -0.22179 3.36169 0
M  V30 4436 O 404.994 -1.21731 3.82811 0
M  V30 4437 N 403.2 -0.260841 2.89427 0
M  V30 4438 H 402.747 0.549884 2.51663 0
M  V30 4439 H 402.705 -1.12777 2.93477 0
M  V30 4440 N 406.477 -1.02803 1.19454 0
M  V30 4441 C 407.893 -1.28473 0.946937 0
M  V30 4442 C 408.093 -1.97881 -0.380202 0
M  V30 4443 O 407.149 -2.26719 -1.11151 0
M  V30 4444 C 408.462 -2.13099 2.12154 0
M  V30 4445 C 410.01 -2.26404 2.16126 0
M  V30 4446 C 410.485 -3.14402 3.33039 0
M  V30 4447 N 411.976 -3.21991 3.32981 0
M  V30 4448 C 412.711 -3.90272 4.20089 0
M  V30 4449 N 412.207 -4.60777 5.17355 0
M  V30 4450 N 414 -3.8668 4.07964 0
M  V30 4451 H 406.151 -0.561665 2.04839 0
M  V30 4452 H 408.414 -0.310438 0.89573 0
M  V30 4453 H 408.12 -1.69422 3.08203 0
M  V30 4454 H 407.994 -3.13813 2.09287 0
M  V30 4455 H 410.381 -2.69311 1.20647 0
M  V30 4456 H 410.462 -1.25237 2.23045 0
M  V30 4457 H 410.106 -2.72204 4.28798 0
M  V30 4458 H 410.036 -4.1563 3.23356 0
M  V30 4459 H 412.527 -2.71778 2.62574 0
M  V30 4460 H 412.84 -5.10513 5.80169 0
M  V30 4461 H 411.185 -4.5964 5.21302 0
M  V30 4462 H 414.376 -3.30739 3.31254 0
M  V30 4463 H 414.549 -4.39621 4.76064 0
M  V30 4464 N 407.956 -0.998596 -1.21925 0
M  V30 4465 C 408.866 -0.562736 -2.27751 0
M  V30 4466 C 409.882 0.391203 -1.69545 0
M  V30 4467 O 411.058 0.256625 -1.99758 0
M  V30 4468 C 408.123 0.11012 -3.46525 0
M  V30 4469 C 407.184 -0.887495 -4.20026 0
M  V30 4470 C 406.417 -0.246654 -5.3313 0
M  V30 4471 O 406.64 0.958088 -5.62296 0
M  V30 4472 O 405.574 -0.954374 -5.94286 0
M  V30 4473 H 409.4 -1.44329 -2.67213 0
M  V30 4474 H 406.985 -0.767135 -1.28201 0
M  V30 4475 H 408.867 0.486756 -4.18579 0
M  V30 4476 H 407.542 0.965154 -3.08976 0
M  V30 4477 H 406.449 -1.31517 -3.5022 0
M  V30 4478 H 407.782 -1.71191 -4.6147 0
M  V30 4479 N 409.434 1.37368 -0.772513 0
M  V30 4480 C 410.659 2.0447 -0.347386 0
M  V30 4481 C 411.084 1.57882 1.0225 0
M  V30 4482 O 410.442 0.73941 1.65537 0
M  V30 4483 C 410.49 3.58369 -0.400479 0
M  V30 4484 O 409.594 4.0803 0.598789 0
M  V30 4485 H 408.935 0.646773 -0.15027 0
M  V30 4486 H 411.465 1.75667 -1.04892 0
M  V30 4487 H 411.475 4.07183 -0.258045 0
M  V30 4488 H 410.15 3.91633 -1.39986 0
M  V30 4489 H 408.727 3.70534 0.419411 0
M  V30 4490 N 410.912 0.523116 1.48665 0
M  V30 4491 C 412.158 -0.0134963 2.02796 0
M  V30 4492 C 412.491 -1.34582 1.40004 0
M  V30 4493 O 411.766 -1.86756 0.543381 0
M  V30 4494 C 412.049 -0.14276 3.59817 0
M  V30 4495 C 411.902 1.21425 4.331 0
M  V30 4496 C 413.221 -0.872856 4.31357 0
M  V30 4497 H 410.34 -0.00343074 0.736992 0
M  V30 4498 H 412.982 0.678816 1.7746 0
M  V30 4499 H 411.132 -0.732401 3.81534 0
M  V30 4500 H 412.804 1.84447 4.2282 0
M  V30 4501 H 411.047 1.79791 3.94788 0
M  V30 4502 H 411.718 1.07687 5.41394 0
M  V30 4503 H 414.194 -0.372555 4.14429 0
M  V30 4504 H 413.07 -0.932185 5.40927 0
M  V30 4505 H 413.331 -1.92161 3.98154 0
M  V30 4506 N 412.39 -1.55475 0.257931 0
M  V30 4507 C 413.801 -1.8511 -0.243135 0
M  V30 4508 C 414.152 -1.17986 -1.5676 0
M  V30 4509 O 413.277 -0.462102 -2.11409 0
M  V30 4510 C 413.872 -3.35826 -0.447929 0
M  V30 4511 C 412.431 -3.65647 -0.893245 0
M  V30 4512 C 411.578 -2.7729 0.0232965 0
M  V30 4513 H 414.529 -1.51261 0.480199 0
M  V30 4514 H 414.55 -3.58002 -1.28898 0
M  V30 4515 H 414.062 -3.84652 0.516196 0
M  V30 4516 H 412.163 -3.22308 -1.86945 0
M  V30 4517 H 412.276 -4.73312 -0.742469 0
M  V30 4518 H 410.64 -2.49942 -0.490021 0
M  V30 4519 H 411.423 -3.28926 0.982994 0
M  V30 4520 N 413.868 0.0150385 -1.57593 0
M  V30 4521 C 414.831 0.995996 -2.06428 0
M  V30 4522 C 415.831 1.2818 -0.970903 0
M  V30 4523 O 417.021 1.22949 -1.23406 0
M  V30 4524 C 414.153 2.32506 -2.49307 0
M  V30 4525 H 415.346 0.573873 -2.94358 0
M  V30 4526 H 412.899 0.262186 -1.54085 0
M  V30 4527 H 413.634 2.79438 -1.64575 0
M  V30 4528 H 413.419 2.13087 -3.29145 0
M  V30 4529 H 414.909 3.02906 -2.87468 0
M  V30 4530 N 415.346 1.54954 0.287554 0
M  V30 4531 C 416.762 1.46469 0.633964 0
M  V30 4532 C 416.962 0.666865 1.90145 0
M  V30 4533 O 416.018 0.179906 2.51858 0
M  V30 4534 C 417.331 2.90556 0.774454 0
M  V30 4535 C 418.879 3.00681 0.869462 0
M  V30 4536 C 419.354 4.45993 1.04184 0
M  V30 4537 N 420.845 4.4976 1.10772 0
M  V30 4538 C 421.58 5.59393 1.25964 0
M  V30 4539 N 421.076 6.78923 1.37968 0
M  V30 4540 N 422.869 5.47107 1.28959 0
M  V30 4541 H 415.02 2.05288 -0.545041 0
M  V30 4542 H 417.283 0.930305 -0.182308 0
M  V30 4543 H 416.989 3.51594 -0.086207 0
M  V30 4544 H 416.863 3.38743 1.6593 0
M  V30 4545 H 419.25 2.39749 1.7206 0
M  V30 4546 H 419.331 2.55769 -0.0396831 0
M  V30 4547 H 418.975 5.07524 0.195422 0
M  V30 4548 H 418.905 4.88548 1.96542 0
M  V30 4549 H 421.396 3.63651 1.02794 0
M  V30 4550 H 421.709 7.58231 1.49353 0
M  V30 4551 H 420.054 6.81763 1.34999 0
M  V30 4552 H 423.245 4.52668 1.19202 0
M  V30 4553 H 423.418 6.32595 1.40455 0
M  V30 4554 N 416.824 -0.551391 1.4764 0
M  V30 4555 C 418.052 -1.33357 1.58189 0
M  V30 4556 C 418.467 -1.87342 0.234199 0
M  V30 4557 O 417.824 -1.65301 -0.77343 0
M  V30 4558 C 417.875 -2.49942 2.61173 0
M  V30 4559 O 417.596 -1.98187 3.90709 0
M  V30 4560 C 419.097 -3.42072 2.8196 0
M  V30 4561 H 416.317 -0.40631 0.533998 0
M  V30 4562 H 418.861 -0.667367 1.93304 0
M  V30 4563 H 417.016 -3.12489 2.28975 0
M  V30 4564 H 417.43 -2.74342 4.47031 0
M  V30 4565 H 418.904 -4.20278 3.57869 0
M  V30 4566 H 419.381 -3.95978 1.89995 0
M  V30 4567 H 419.987 -2.85336 3.15378 0
M  V30 4568 N 418.302 -1.35869 -0.798587 0
M  V30 4569 C 419.548 -1.2978 -1.55836 0
M  V30 4570 C 419.881 0.125322 -1.93795 0
M  V30 4571 O 419.156 1.07658 -1.61987 0
M  V30 4572 C 419.439 -2.21188 -2.84162 0
M  V30 4573 C 419.292 -3.72155 -2.52628 0
M  V30 4574 C 420.611 -2.11545 -3.85923 0
M  V30 4575 H 417.73 -0.472769 -0.565383 0
M  V30 4576 H 420.372 -1.66341 -0.918192 0
M  V30 4577 H 418.522 -1.90139 -3.38791 0
M  V30 4578 H 420.194 -4.13682 -2.04121 0
M  V30 4579 H 418.437 -3.92042 -1.85704 0
M  V30 4580 H 419.108 -4.31511 -3.44242 0
M  V30 4581 H 421.584 -2.38855 -3.40716 0
M  V30 4582 H 420.46 -2.77688 -4.73477 0
M  V30 4583 H 420.721 -1.09987 -4.282 0
M  V30 4584 N 419.78 1.02168 -1.19998 0
M  V30 4585 C 421.027 1.75685 -1.00702 0
M  V30 4586 C 421.355 1.88947 0.461426 0
M  V30 4587 O 420.61 1.40832 1.35885 0
M  V30 4588 C 420.909 3.18081 -1.62969 0
M  V30 4589 C 420.575 3.24809 -3.12746 0
M  V30 4590 C 419.237 3.26352 -3.53621 0
M  V30 4591 C 421.589 3.23379 -4.08749 0
M  V30 4592 C 418.917 3.2413 -4.89036 0
M  V30 4593 C 421.269 3.22698 -5.44104 0
M  V30 4594 C 419.933 3.22542 -5.84399 0
M  V30 4595 H 419.203 0.642877 -0.368496 0
M  V30 4596 H 421.85 1.19865 -1.49348 0
M  V30 4597 H 420.155 3.77027 -1.06573 0
M  V30 4598 H 421.852 3.73648 -1.45561 0
M  V30 4599 H 418.442 3.2434 -2.80181 0
M  V30 4600 H 422.626 3.21361 -3.78207 0
M  V30 4601 H 417.882 3.22338 -5.19527 0
M  V30 4602 H 422.056 3.20543 -6.18244 0
M  V30 4603 H 419.683 3.20575 -6.89301 0
M  V30 4604 N 421.258 1.00505 1.21394 0
M  V30 4605 C 422.506 0.686415 1.90086 0
M  V30 4606 C 422.827 -0.785264 1.7849 0
M  V30 4607 O 422.097 -1.56387 1.17983 0
M  V30 4608 H 420.677 0.2509 0.703604 0
M  V30 4609 H 423.339 1.27417 1.47482 0
M  V30 4610 H 422.435 0.959621 2.96981 0
M  V30 4611 N 422.737 -1.36956 0.779787 0
M  V30 4612 C 423.983 -1.99787 0.348281 0
M  V30 4613 C 424.316 -1.61756 -1.07465 0
M  V30 4614 O 423.591 -0.867639 -1.74075 0
M  V30 4615 C 423.874 -3.56597 0.50104 0
M  V30 4616 C 423.727 -4.04513 1.96697 0
M  V30 4617 C 425.046 -4.40008 -0.0898097 0
M  V30 4618 H 422.165 -0.725796 0.128022 0
M  V30 4619 H 424.807 -1.62514 0.984331 0
M  V30 4620 H 422.957 -3.88479 -0.0404347 0
M  V30 4621 H 424.629 -3.83161 2.56876 0
M  V30 4622 H 422.872 -3.56408 2.47297 0
M  V30 4623 H 423.543 -5.1352 2.02486 0
M  V30 4624 H 426.019 -4.14431 0.372293 0
M  V30 4625 H 424.895 -5.4888 0.0471605 0
M  V30 4626 H 425.156 -4.26035 -1.18096 0
M  V30 4627 N 424.215 -0.530993 -1.48385 0
M  V30 4628 C 425.443 -0.00134122 -2.069 0
M  V30 4629 C 425.858 1.2805 -1.3874 0
M  V30 4630 O 425.215 1.76204 -0.475244 0
M  V30 4631 C 425.266 0.225256 -3.60798 0
M  V30 4632 O 424.987 -1.0058 -4.26398 0
M  V30 4633 C 426.488 0.795172 -4.3611 0
M  V30 4634 H 423.708 -0.0339704 -0.67014 0
M  V30 4635 H 426.252 -0.736926 -1.90761 0
M  V30 4636 H 424.407 0.910891 -3.76539 0
M  V30 4637 H 424.821 -0.787165 -5.1856 0
M  V30 4638 H 426.295 0.903143 -5.44562 0
M  V30 4639 H 426.772 1.80031 -4.00606 0
M  V30 4640 H 427.378 0.146069 -4.25049 0
M  V30 4641 N 425.693 1.55336 -0.266172 0
M  V30 4642 C 426.921 2.03801 0.356756 0
M  V30 4643 C 427.336 1.14485 1.50129 0
M  V30 4644 O 426.693 0.163121 1.8177 0
M  V30 4645 C 426.744 3.51455 0.846281 0
M  V30 4646 O 426.465 4.37371 -0.252663 0
M  V30 4647 C 427.966 4.15767 1.53794 0
M  V30 4648 H 425.186 0.665906 0.0825218 0
M  V30 4649 H 427.73 2.00636 -0.39566 0
M  V30 4650 H 425.885 3.55092 1.54881 0
M  V30 4651 H 426.299 5.24358 0.122173 0
M  V30 4652 H 427.773 5.20714 1.83198 0
M  V30 4653 H 428.25 3.63404 2.46646 0
M  V30 4654 H 428.856 4.16107 0.879488 0
M  V30 4655 N 427.171 -0.0066808 1.57599 0
M  V30 4656 C 428.417 -0.693947 1.90558 0
M  V30 4657 C 428.75 -1.73792 0.866594 0
M  V30 4658 O 428.025 -1.94156 -0.115548 0
M  V30 4659 C 428.308 -1.34317 3.34112 0
M  V30 4660 C 428.161 -0.311189 4.48722 0
M  V30 4661 C 429.48 -2.27116 3.7697 0
M  V30 4662 H 426.599 -0.250803 0.693013 0
M  V30 4663 H 429.241 0.043242 1.89951 0
M  V30 4664 H 427.391 -1.9715 3.3476 0
M  V30 4665 H 429.063 0.316944 4.6021 0
M  V30 4666 H 427.306 0.367253 4.32243 0
M  V30 4667 H 427.977 -0.804366 5.46108 0
M  V30 4668 H 430.453 -1.74306 3.77831 0
M  V30 4669 H 429.329 -2.69511 4.78179 0
M  V30 4670 H 429.59 -3.14743 3.10466 0
M  V30 4671 N 428.649 -1.55105 -0.279332 0
M  V30 4672 C 429.579 -1.90557 -1.34945 0
M  V30 4673 C 430.56 -0.766738 -1.51839 0
M  V30 4674 O 431.745 -1.02434 -1.64988 0
M  V30 4675 C 428.875 -2.17193 -2.71006 0
M  V30 4676 C 427.829 -3.33021 -2.68851 0
M  V30 4677 C 427.155 -3.45123 -4.08405 0
M  V30 4678 C 428.455 -4.69578 -2.28678 0
M  V30 4679 H 430.149 -2.80188 -1.05522 0
M  V30 4680 H 427.695 -1.34811 -0.506173 0
M  V30 4681 H 429.648 -2.40581 -3.45975 0
M  V30 4682 H 428.372 -1.24355 -3.01999 0
M  V30 4683 H 427.031 -3.0959 -1.9634 0
M  V30 4684 H 426.679 -2.49762 -4.3661 0
M  V30 4685 H 426.379 -4.22995 -4.07859 0
M  V30 4686 H 427.903 -3.70796 -4.85121 0
M  V30 4687 H 429.317 -4.92553 -2.93368 0
M  V30 4688 H 427.714 -5.5032 -2.39306 0
M  V30 4689 H 428.784 -4.68828 -1.23807 0
M  V30 4690 N 430.127 0.543554 -1.4793 0
M  V30 4691 C 431.355 1.32516 -1.58894 0
M  V30 4692 C 431.77 1.87215 -0.244131 0
M  V30 4693 O 431.127 1.65709 0.764652 0
M  V30 4694 C 431.178 2.48554 -2.62494 0
M  V30 4695 O 430.899 1.96112 -3.91755 0
M  V30 4696 C 432.4 3.40572 -2.8377 0
M  V30 4697 H 429.62 0.403472 -0.536145 0
M  V30 4698 H 432.164 0.657106 -1.93655 0
M  V30 4699 H 430.319 3.1127 -2.30629 0
M  V30 4700 H 430.733 2.71967 -4.4848 0
M  V30 4701 H 432.207 4.18375 -3.60093 0
M  V30 4702 H 432.684 3.94965 -1.92092 0
M  V30 4703 H 433.29 2.8366 -3.16887 0
M  V30 4704 N 431.605 1.3629 0.791371 0
M  V30 4705 C 432.538 1.24816 1.9104 0
M  V30 4706 C 433.516 0.132739 1.62057 0
M  V30 4707 O 434.7 0.303527 1.8604 0
M  V30 4708 C 431.827 0.925355 3.25814 0
M  V30 4709 C 430.873 2.05495 3.7373 0
M  V30 4710 S 431.706 3.67255 3.89723 0
M  V30 4711 C 432.862 3.37084 5.27376 0
M  V30 4712 H 433.095 2.19533 2.00481 0
M  V30 4713 H 430.628 1.21684 0.950393 0
M  V30 4714 H 432.586 0.745924 4.03666 0
M  V30 4715 H 431.247 -0.00400098 3.141 0
M  V30 4716 H 430.44 1.7836 4.71385 0
M  V30 4717 H 430.042 2.1935 3.02922 0
M  V30 4718 H 432.334 2.90856 6.1189 0
M  V30 4719 H 433.277 4.33995 5.59512 0
M  V30 4720 H 433.685 2.7248 4.94383 0
M  V30 4721 N 433.083 -1.0153 1.20538 0
M  V30 4722 C 434.311 -1.78746 1.04199 0
M  V30 4723 C 434.726 -1.84323 -0.408733 0
M  V30 4724 O 434.083 -1.29714 -1.28377 0
M  V30 4725 C 434.134 -3.23152 1.62035 0
M  V30 4726 O 433.855 -3.17918 3.0143 0
M  V30 4727 C 435.356 -4.16911 1.50666 0
M  V30 4728 H 432.576 -0.56208 0.366479 0
M  V30 4729 H 435.12 -1.27794 1.59653 0
M  V30 4730 H 433.275 -3.71248 1.10697 0
M  V30 4731 H 433.689 -4.08567 3.28897 0
M  V30 4732 H 435.163 -5.16072 1.95892 0
M  V30 4733 H 435.64 -4.36791 0.459363 0
M  V30 4734 H 436.246 -3.74698 2.01201 0
M  V30 4735 N 434.561 -1.01147 -1.20859 0
M  V30 4736 C 435.789 -0.716911 -1.94082 0
M  V30 4737 C 436.204 0.721568 -1.74467 0
M  V30 4738 O 435.561 1.48889 -1.05539 0
M  V30 4739 C 435.612 -1.03662 -3.46318 0
M  V30 4740 O 435.333 -2.4186 -3.65288 0
M  V30 4741 C 436.834 -0.762386 -4.36695 0
M  V30 4742 H 434.054 -0.26367 -0.617024 0
M  V30 4743 H 436.598 -1.35127 -1.53496 0
M  V30 4744 H 434.753 -0.447757 -3.84804 0
M  V30 4745 H 435.167 -2.53224 -4.59323 0
M  V30 4746 H 436.641 -1.03621 -5.42187 0
M  V30 4747 H 437.118 0.303514 -4.3815 0
M  V30 4748 H 437.724 -1.33316 -4.03865 0
M  V30 4749 N 436.039 1.36541 -0.78704 0
M  V30 4750 C 436.969 2.32659 -0.197992 0
M  V30 4751 C 437.95 1.56533 0.665697 0
M  V30 4752 O 439.135 1.84698 0.60001 0
M  V30 4753 C 436.265 3.40778 0.669901 0
M  V30 4754 C 435.219 4.27897 -0.0937039 0
M  V30 4755 C 434.545 5.27163 0.894629 0
M  V30 4756 C 435.845 5.06334 -1.28154 0
M  V30 4757 H 437.539 2.82171 -1.00099 0
M  V30 4758 H 435.085 1.35665 -0.482793 0
M  V30 4759 H 437.038 4.07008 1.09191 0
M  V30 4760 H 435.762 2.89827 1.50558 0
M  V30 4761 H 434.421 3.6322 -0.49666 0
M  V30 4762 H 434.069 4.72486 1.72527 0
M  V30 4763 H 433.769 5.86317 0.388149 0
M  V30 4764 H 435.293 5.96266 1.31525 0
M  V30 4765 H 436.707 5.65617 -0.93541 0
M  V30 4766 H 435.104 5.74888 -1.72115 0
M  V30 4767 H 436.174 4.38114 -2.07807 0
M  V30 4768 N 437.518 0.538854 1.48102 0
M  V30 4769 C 438.743 0.0102694 2.07397 0
M  V30 4770 C 439.168 -1.26562 1.39153 0
M  V30 4771 O 438.526 -1.75357 0.460387 0
M  V30 4772 C 438.574 -0.187602 3.60112 0
M  V30 4773 O 437.678 -1.25432 3.92862 0
M  V30 4774 H 437.019 0.0430975 0.6626 0
M  V30 4775 H 439.549 0.749301 1.90385 0
M  V30 4776 H 439.559 -0.407517 4.0596 0
M  V30 4777 H 438.234 0.744386 4.09184 0
M  V30 4778 H 436.811 -1.01636 3.58782 0
M  V30 4779 N 438.996 -1.55193 0.274407 0
M  V30 4780 C 440.245 -1.98758 -0.343213 0
M  V30 4781 C 440.558 -1.16624 -1.5703 0
M  V30 4782 O 441.764 -1.5033 -2.26082 0
M  V30 4783 C 440.22 -3.53759 -0.661996 0
M  V30 4784 C 439.828 -4.4467 0.54524 0
M  V30 4785 C 441.572 -4.05916 -1.24228 0
M  V30 4786 C 439.479 -5.91058 0.201084 0
M  V30 4787 H 438.409 -0.742353 -0.132014 0
M  V30 4788 H 441.06 -1.79545 0.378948 0
M  V30 4789 H 439.442 -3.68772 -1.44304 0
M  V30 4790 H 440.616 -4.41426 1.32212 0
M  V30 4791 H 438.931 -4.03143 1.04232 0
M  V30 4792 H 441.528 -5.12831 -1.51357 0
M  V30 4793 H 441.871 -3.54908 -2.17592 0
M  V30 4794 H 442.404 -3.9434 -0.523542 0
M  V30 4795 H 439.143 -6.46161 1.10258 0
M  V30 4796 H 438.663 -5.97373 -0.539045 0
M  V30 4797 H 440.342 -6.46669 -0.206954 0
M  V30 4798 N 440.474 -0.00167713 -1.576 0
M  V30 4799 C 441.699 0.69739 -1.95323 0
M  V30 4800 C 442.124 1.6642 -0.876706 0
M  V30 4801 O 441.482 1.80548 0.165007 0
M  V30 4802 C 441.53 1.40403 -3.32144 0
M  V30 4803 O 440.634 2.5185 -3.26566 0
M  V30 4804 H 439.975 0.185373 -0.637599 0
M  V30 4805 H 442.505 -0.0553665 -2.04525 0
M  V30 4806 H 442.515 1.76707 -3.67748 0
M  V30 4807 H 441.19 0.695167 -4.10049 0
M  V30 4808 H 439.767 2.17861 -3.0264 0
M  V30 4809 N 441.952 1.55251 0.271103 0
M  V30 4810 C 442.915 1.87484 1.31842 0
M  V30 4811 C 443.915 0.749545 1.42262 0
M  V30 4812 O 445.105 1.01771 1.4138 0
M  V30 4813 C 442.237 2.0818 2.69951 0
M  V30 4814 H 443.43 2.81108 1.0449 0
M  V30 4815 H 440.983 1.47771 0.509258 0
M  V30 4816 H 441.718 1.16944 3.02481 0
M  V30 4817 H 441.503 2.90114 2.63774 0
M  V30 4818 H 442.993 2.34385 3.4562 0
M  V30 4819 N 443.43 -0.535701 1.48216 0
M  V30 4820 C 444.846 -0.863701 1.3421 0
M  V30 4821 C 445.046 -1.98458 0.34879 0
M  V30 4822 O 444.102 -2.51432 -0.23204 0
M  V30 4823 C 445.415 -1.23662 2.74095 0
M  V30 4824 C 446.963 -1.34683 2.82541 0
M  V30 4825 C 447.438 -1.75322 4.23115 0
M  V30 4826 N 448.929 -1.82434 4.2576 0
M  V30 4827 C 449.664 -2.15252 5.31464 0
M  V30 4828 N 449.16 -2.46533 6.47452 0
M  V30 4829 N 450.953 -2.16209 5.18855 0
M  V30 4830 H 443.104 0.203965 2.11418 0
M  V30 4831 H 445.367 0.0286033 0.947568 0
M  V30 4832 H 445.073 -0.486674 3.48316 0
M  V30 4833 H 444.947 -2.18805 3.07253 0
M  V30 4834 H 447.334 -2.08756 2.08579 0
M  V30 4835 H 447.415 -0.376756 2.5301 0
M  V30 4836 H 447.059 -1.01812 4.97591 0
M  V30 4837 H 446.989 -2.7337 4.50085 0
M  V30 4838 H 449.48 -1.6056 3.42095 0
M  V30 4839 H 449.793 -2.70662 7.23852 0
M  V30 4840 H 448.138 -2.44065 6.50736 0
M  V30 4841 H 451.329 -1.91224 4.2726 0
M  V30 4842 H 451.502 -2.41453 6.01335 0
M  V30 4843 N 444.908 -1.36708 -0.784132 0
M  V30 4844 C 445.856 -1.31533 -1.91838 0
M  V30 4845 C 446.85 -0.206205 -1.6814 0
M  V30 4846 O 448.056 -0.373519 -1.76082 0
M  V30 4847 H 444.431 -0.409613 -0.630651 0
M  V30 4848 H 446.402 -2.2731 -1.9332 0
M  V30 4849 C 445.151 -1.12679 -3.28936 0
M  V30 4850 H 444.474 -1.97274 -3.4774 0
M  V30 4851 H 445.914 -1.13106 -4.08636 0
M  V30 4852 C 444.373 0.168281 -3.36479 0
M  V30 4853 O 444.903 1.15625 -3.84699 0
M  V30 4854 N 443.109 0.214762 -2.89805 0
M  V30 4855 H 442.656 -0.589852 -2.50756 0
M  V30 4856 H 442.614 1.08094 -2.95234 0
M  V30 4857 N 446.386 1.0089 -1.21074 0
M  V30 4858 C 447.611 1.78727 -1.05221 0
M  V30 4859 C 448.036 1.83932 0.393795 0
M  V30 4860 O 447.394 1.28004 1.28393 0
M  V30 4861 C 447.442 3.20665 -1.64944 0
M  V30 4862 O 446.546 4.02632 -0.892273 0
M  V30 4863 H 445.887 0.550973 -0.370574 0
M  V30 4864 H 448.417 1.26847 -1.60534 0
M  V30 4865 H 448.427 3.71352 -1.69002 0
M  V30 4866 H 447.102 3.16191 -2.70177 0
M  V30 4867 H 445.679 3.61207 -0.926492 0
M  V30 4868 N 447.864 1.01787 1.20321 0
M  V30 4869 C 448.794 0.609625 2.25401 0
M  V30 4870 C 449.775 -0.375951 1.65893 0
M  V30 4871 O 450.96 -0.261101 1.92437 0
M  V30 4872 C 448.09 -0.0515995 3.47262 0
M  V30 4873 C 447.044 0.855095 4.19371 0
M  V30 4874 C 446.37 0.0595757 5.34667 0
M  V30 4875 C 447.67 2.16374 4.75373 0
M  V30 4876 H 449.364 1.48803 2.59804 0
M  V30 4877 H 446.91 0.716934 1.24884 0
M  V30 4878 H 448.863 -0.348764 4.19954 0
M  V30 4879 H 447.587 -0.964726 3.12027 0
M  V30 4880 H 446.246 1.13628 3.48546 0
M  V30 4881 H 445.894 -0.85524 4.95676 0
M  V30 4882 H 445.594 0.663406 5.83843 0
M  V30 4883 H 447.118 -0.231105 6.10162 0
M  V30 4884 H 448.532 1.92885 5.39878 0
M  V30 4885 H 446.929 2.71853 5.34991 0
M  V30 4886 H 447.999 2.82589 3.94045 0
M  V30 4887 N 449.342 -1.36122 0.79427 0
M  V30 4888 C 450.753 -1.81646 0.431446 0
M  V30 4889 C 451.104 -1.66043 -1.04518 0
M  V30 4890 O 450.229 -1.1841 -1.8113 0
M  V30 4891 C 450.824 -3.29785 0.776341 0
M  V30 4892 C 449.383 -3.73501 0.466282 0
M  V30 4893 C 448.53 -2.58313 1.00844 0
M  V30 4894 H 451.481 -1.24274 0.986995 0
M  V30 4895 H 451.502 -3.80437 0.0692413 0
M  V30 4896 H 451.014 -3.4111 1.8511 0
M  V30 4897 H 449.115 -3.67733 -0.600245 0
M  V30 4898 H 449.228 -4.68754 0.990288 0
M  V30 4899 H 447.592 -2.5102 0.431406 0
M  V30 4900 H 448.375 -2.72421 2.08906 0
M  V30 4901 N 450.82 -0.546701 -1.47814 0
M  V30 4902 C 451.767 0.206854 -2.29871 0
M  V30 4903 C 452.737 0.918235 -1.38411 0
M  V30 4904 O 453.922 0.915991 -1.67375 0
M  V30 4905 C 451.062 1.23746 -3.22151 0
M  V30 4906 C 450.175 0.533216 -4.28697 0
M  V30 4907 C 449.31 1.5482 -5.08138 0
M  V30 4908 C 448.349 0.828347 -6.06469 0
M  V30 4909 N 447.486 1.78966 -6.78908 0
M  V30 4910 H 452.326 -0.499037 -2.93792 0
M  V30 4911 H 449.863 -0.25793 -1.44821 0
M  V30 4912 H 451.821 1.84746 -3.74065 0
M  V30 4913 H 450.451 1.91151 -2.60117 0
M  V30 4914 H 449.503 -0.191089 -3.7992 0
M  V30 4915 H 450.815 -0.0311987 -4.9879 0
M  V30 4916 H 449.969 2.23202 -5.6415 0
M  V30 4917 H 448.708 2.14652 -4.37922 0
M  V30 4918 H 447.713 0.130539 -5.49645 0
M  V30 4919 H 448.938 0.235907 -6.7869 0
M  V30 4920 H 446.884 2.37675 -6.1143 0
M  V30 4921 H 446.801 1.27712 -7.45135 0
M  V30 4922 H 448.069 2.46496 -7.395 0
M  V30 4923 N 452.299 1.55045 -0.282633 0
M  V30 4924 C 453.545 2.00056 0.332481 0
M  V30 4925 C 453.878 1.1708 1.54939 0
M  V30 4926 O 453.153 0.2427 1.9298 0
M  V30 4927 C 453.436 3.53086 0.70725 0
M  V30 4928 C 453.289 4.46813 -0.517521 0
M  V30 4929 C 454.608 4.12245 1.54084 0
M  V30 4930 H 451.727 0.727268 0.119373 0
M  V30 4931 H 454.369 1.85932 -0.391076 0
M  V30 4932 H 452.519 3.65253 1.32372 0
M  V30 4933 H 454.191 4.46579 -1.15607 0
M  V30 4934 H 452.434 4.18163 -1.1542 0
M  V30 4935 H 453.105 5.51595 -0.211426 0
M  V30 4936 H 455.581 4.03401 1.02013 0
M  V30 4937 H 454.457 5.19515 1.77186 0
M  V30 4938 H 454.718 3.62951 2.52427 0
M  V30 4939 N 453.777 0.010035 1.57597 0
M  V30 4940 C 454.74 -0.963029 2.07986 0
M  V30 4941 C 455.74 -1.26619 0.991173 0
M  V30 4942 O 456.93 -1.2097 1.25347 0
M  V30 4943 C 454.062 -2.2851 2.52974 0
M  V30 4944 H 455.255 -0.526971 2.95234 0
M  V30 4945 H 452.808 -0.237639 1.54483 0
M  V30 4946 H 453.543 -2.76784 1.69 0
M  V30 4947 H 453.328 -2.07824 3.32493 0
M  V30 4948 H 454.818 -2.98294 2.9225 0
M  V30 4949 N 455.255 -1.55392 -0.262866 0
M  V30 4950 C 456.485 -1.80251 -1.00961 0
M  V30 4951 C 456.893 -0.58117 -1.80053 0
M  V30 4952 O 456.236 0.459427 -1.77862 0
M  V30 4953 C 456.298 -2.98207 -2.00781 0
M  V30 4954 C 455.962 -4.34856 -1.40533 0
M  V30 4955 C 456.959 -5.13459 -0.815853 0
M  V30 4956 C 454.644 -4.8153 -1.42948 0
M  V30 4957 C 456.638 -6.36875 -0.258562 0
M  V30 4958 C 454.325 -6.04899 -0.868334 0
M  V30 4959 C 455.323 -6.8241 -0.283884 0
M  V30 4960 O 455.011 -8.03451 0.268644 0
M  V30 4961 H 454.743 -0.604049 -0.303482 0
M  V30 4962 H 457.297 -2.03257 -0.295926 0
M  V30 4963 H 455.527 -2.70917 -2.75936 0
M  V30 4964 H 457.216 -3.10299 -2.61667 0
M  V30 4965 H 457.982 -4.78526 -0.789812 0
M  V30 4966 H 453.861 -4.21201 -1.87378 0
M  V30 4967 H 457.405 -6.97318 0.198257 0
M  V30 4968 H 453.302 -6.39312 -0.891649 0
M  V30 4969 H 454.07 -8.18346 0.158974 0
M  V30 4970 N 456.733 0.527833 -1.48498 0
M  V30 4971 C 457.696 1.61439 -1.62696 0
M  V30 4972 C 458.696 1.52824 -0.500136 0
M  V30 4973 O 459.886 1.56456 -0.765976 0
M  V30 4974 C 457.018 3.01063 -1.59918 0
M  V30 4975 H 458.211 1.50189 -2.59583 0
M  V30 4976 H 455.764 0.750055 -1.37127 0
M  V30 4977 H 456.499 3.17818 -0.645163 0
M  V30 4978 H 456.284 3.08725 -2.41726 0
M  V30 4979 H 457.774 3.80057 -1.73051 0
M  V30 4980 N 458.211 1.37122 0.776871 0
M  V30 4981 C 459.439 1.3523 1.5659 0
M  V30 4982 C 459.854 -0.0635518 1.88693 0
M  V30 4983 O 459.211 -1.02394 1.51069 0
M  V30 4984 C 459.262 2.18583 2.8793 0
M  V30 4985 O 458.983 3.5465 2.57206 0
M  V30 4986 C 460.484 2.24612 3.82183 0
M  V30 4987 H 457.704 0.4634 0.485285 0
M  V30 4988 H 460.248 1.80392 0.963266 0
M  V30 4989 H 458.403 1.76943 3.4463 0
M  V30 4990 H 458.817 3.98286 3.41275 0
M  V30 4991 H 460.291 2.87267 4.71361 0
M  V30 4992 H 460.768 1.25309 4.20944 0
M  V30 4993 H 461.374 2.66543 3.31414 0
M  V30 4994 N 459.689 -1.00246 1.21608 0
M  V30 4995 C 460.652 -2.07233 0.979133 0
M  V30 4996 C 461.652 -1.6072 -0.0508219 0
M  V30 4997 O 462.842 -1.73196 0.186712 0
M  V30 4998 C 459.974 -3.37546 0.477016 0
M  V30 4999 H 461.167 -2.29687 1.92831 0
M  V30 5000 H 458.72 -1.17261 1.03342 0
M  V30 5001 H 459.455 -3.20773 -0.476966 0
M  V30 5002 H 459.24 -3.72638 1.21997 0
M  V30 5003 H 460.73 -4.16285 0.331181 0
M  V30 5004 N 461.167 -1.02423 -1.1978 0
M  V30 5005 C 462.1 -0.545641 -2.21581 0
M  V30 5006 C 463.078 0.411024 -1.57319 0
M  V30 5007 O 464.262 0.329223 -1.85603 0
M  V30 5008 C 461.389 0.204973 -3.38079 0
M  V30 5009 C 460.435 -0.70241 -4.20676 0
M  V30 5010 S 461.268 -2.17595 -4.89298 0
M  V30 5011 C 462.424 -1.43572 -6.09211 0
M  V30 5012 H 462.657 -1.4082 -2.61834 0
M  V30 5013 H 460.19 -0.833771 -1.29952 0
M  V30 5014 H 462.148 0.631924 -4.05607 0
M  V30 5015 H 460.809 1.0432 -2.9627 0
M  V30 5016 H 460.002 -0.123193 -5.03849 0
M  V30 5017 H 459.604 -1.06747 -3.58442 0
M  V30 5018 H 461.896 -0.719806 -6.73665 0
M  V30 5019 H 462.839 -2.24388 -6.71607 0
M  V30 5020 H 463.247 -0.935252 -5.56699 0
M  V30 5021 N 462.645 1.35699 -0.801477 0
M  V30 5022 C 463.922 1.9324 -0.302937 0
M  V30 5023 C 464.302 1.73209 1.20672 0
M  V30 5024 O 463.65 1.09809 2.00385 0
M  V30 5025 C 463.86 3.41728 -0.708747 0
M  V30 5026 C 465.208 4.18868 -0.695328 0
M  V30 5027 O 466.232 3.5022 -0.649971 0
M  V30 5028 O 465.091 5.41342 -0.749081 0
M  V30 5029 H 462.185 0.82331 -0.0780367 0
M  V30 5030 H 464.731 1.44806 -0.884832 0
M  V30 5031 H 463.503 3.50015 -1.74944 0
M  V30 5032 H 463.126 3.97471 -0.101384 0
M  V30 5033 N 464.123 0.554532 1.47522 0
M  V30 5034 C 465.369 0.0377449 2.03365 0
M  V30 5035 C 465.724 -1.29654 1.42154 0
M  V30 5036 O 465.017 -1.83022 0.566865 0
M  V30 5037 C 465.211 -0.115927 3.57212 0
M  V30 5038 C 465.04 1.20191 4.33341 0
M  V30 5039 C 463.81 1.76849 4.73342 0
M  V30 5040 C 466.008 2.11849 4.68641 0
M  V30 5041 N 463.99 3.02665 5.34104 0
M  V30 5042 C 465.361 3.22245 5.29677 0
M  V30 5043 C 467.416 2.11876 4.5057 0
M  V30 5044 C 466.119 4.32763 5.74551 0
M  V30 5045 C 468.145 3.21405 4.9644 0
M  V30 5046 C 467.507 4.30519 5.57523 0
M  V30 5047 H 463.606 0.0559107 0.779999 0
M  V30 5048 H 466.19 0.741232 1.80038 0
M  V30 5049 H 464.361 -0.788533 3.80311 0
M  V30 5050 H 466.093 -0.634538 3.99695 0
M  V30 5051 H 462.848 1.30681 4.55214 0
M  V30 5052 H 463.272 3.66788 5.69031 0
M  V30 5053 H 467.914 1.28801 4.02704 0
M  V30 5054 H 465.632 5.166 6.2141 0
M  V30 5055 H 469.218 3.22509 4.8423 0
M  V30 5056 H 468.098 5.13873 5.92371 0
M  V30 5057 N 465.601 -1.54893 0.290851 0
M  V30 5058 C 466.848 -1.99933 -0.321391 0
M  V30 5059 C 467.176 -1.17927 -1.54672 0
M  V30 5060 O 466.431 -0.240902 -1.94212 0
M  V30 5061 C 466.73 -3.49815 -0.732397 0
M  V30 5062 C 466.396 -4.4921 0.390056 0
M  V30 5063 C 465.058 -4.76107 0.698223 0
M  V30 5064 C 467.41 -5.08453 1.14562 0
M  V30 5065 C 464.738 -5.59514 1.76526 0
M  V30 5066 C 467.09 -5.9302 2.2025 0
M  V30 5067 C 465.754 -6.18232 2.51684 0
M  V30 5068 H 465.024 -0.731608 -0.117605 0
M  V30 5069 H 467.671 -1.87107 0.407839 0
M  V30 5070 H 465.976 -3.60199 -1.54155 0
M  V30 5071 H 467.673 -3.82083 -1.21712 0
M  V30 5072 H 464.263 -4.28372 0.13976 0
M  V30 5073 H 468.447 -4.87683 0.920801 0
M  V30 5074 H 463.703 -5.77289 2.01364 0
M  V30 5075 H 467.877 -6.37955 2.7926 0
M  V30 5076 H 465.504 -6.82653 3.34499 0
M  V30 5077 N 467.08 -0.0183926 -1.57589 0
M  V30 5078 C 468.329 0.66185 -1.90532 0
M  V30 5079 C 468.642 1.73904 -0.895366 0
M  V30 5080 O 469.848 2.47518 -1.11566 0
M  V30 5081 C 468.304 1.22844 -3.38286 0
M  V30 5082 C 467.912 0.185103 -4.47617 0
M  V30 5083 C 469.656 1.88581 -3.80312 0
M  V30 5084 C 467.563 0.762723 -5.86461 0
M  V30 5085 H 466.493 0.250972 -0.711006 0
M  V30 5086 H 469.144 -0.0819435 -1.83317 0
M  V30 5087 H 467.526 2.0235 -3.40398 0
M  V30 5088 H 468.7 -0.58671 -4.5705 0
M  V30 5089 H 467.015 -0.372889 -4.14727 0
M  V30 5090 H 469.612 2.32735 -4.81392 0
M  V30 5091 H 469.955 2.72408 -3.14801 0
M  V30 5092 H 470.488 1.15782 -3.80578 0
M  V30 5093 H 467.227 -0.0371713 -6.55489 0
M  V30 5094 H 466.747 1.50327 -5.80656 0
M  V30 5095 H 468.426 1.25576 -6.34697 0
M  V30 5096 N 468.558 1.5553 0.254621 0
M  V30 5097 C 469.521 1.88872 1.29846 0
M  V30 5098 C 470.521 0.764591 1.41459 0
M  V30 5099 O 471.711 1.03265 1.40293 0
M  V30 5100 C 468.843 2.11032 2.67728 0
M  V30 5101 H 470.036 2.82201 1.01502 0
M  V30 5102 H 467.589 1.48303 0.493556 0
M  V30 5103 H 468.324 1.20146 3.01223 0
M  V30 5104 H 468.109 2.92895 2.60682 0
M  V30 5105 H 469.599 2.38038 3.43115 0
M  V30 5106 N 470.036 -0.519951 1.48776 0
M  V30 5107 C 471.282 -1.27711 1.57536 0
M  V30 5108 C 471.615 -1.92547 0.252866 0
M  V30 5109 O 470.89 -1.7979 -0.742021 0
M  V30 5110 C 471.173 -2.35875 2.72094 0
M  V30 5111 C 471.026 -1.75664 4.1408 0
M  V30 5112 C 472.345 -3.37575 2.82367 0
M  V30 5113 H 469.464 -0.462971 0.573434 0
M  V30 5114 H 472.106 -0.578194 1.80989 0
M  V30 5115 H 470.256 -2.95488 2.52228 0
M  V30 5116 H 471.928 -1.20025 4.45412 0
M  V30 5117 H 470.171 -1.06154 4.20611 0
M  V30 5118 H 470.842 -2.54029 4.90075 0
M  V30 5119 H 473.318 -2.87929 3.00393 0
M  V30 5120 H 472.194 -4.1064 3.64233 0
M  V30 5121 H 472.455 -3.98743 1.90936 0
M  V30 5122 N 471.514 -1.37532 -0.769588 0
M  V30 5123 C 472.754 -1.34261 -1.54122 0
M  V30 5124 C 473.118 0.0717222 -1.91866 0
M  V30 5125 O 474.319 0.22918 -2.67821 0
M  V30 5126 C 472.59 -2.2574 -2.77086 0
M  V30 5127 S 474.149 -2.40339 -3.67127 0
M  V30 5128 H 470.967 -0.476595 -0.527615 0
M  V30 5129 H 473.569 -1.73303 -0.90479 0
M  V30 5130 H 472.273 -3.27417 -2.4744 0
M  V30 5131 H 471.804 -1.87789 -3.45686 0
M  V30 5132 H 473.819 -1.61558 -4.69163 0
M  V30 5133 N 472.992 0.995999 -1.22138 0
M  V30 5134 C 474.222 1.76809 -1.06874 0
M  V30 5135 C 474.63 1.85265 0.383866 0
M  V30 5136 O 473.973 1.31969 1.27789 0
M  V30 5137 C 474.035 3.2186 -1.60144 0
M  V30 5138 C 473.699 3.36958 -3.0872 0
M  V30 5139 C 474.696 3.2452 -4.0618 0
M  V30 5140 C 472.381 3.62109 -3.48112 0
M  V30 5141 C 474.375 3.37013 -5.41019 0
M  V30 5142 C 472.062 3.74243 -4.831 0
M  V30 5143 C 473.06 3.61702 -5.79362 0
M  V30 5144 O 472.748 3.73436 -7.119 0
M  V30 5145 H 472.48 0.562207 -0.375365 0
M  V30 5146 H 475.034 1.26113 -1.62125 0
M  V30 5147 H 473.264 3.73734 -0.992981 0
M  V30 5148 H 474.953 3.80775 -1.40589 0
M  V30 5149 H 475.719 3.05004 -3.77091 0
M  V30 5150 H 471.598 3.70949 -2.73712 0
M  V30 5151 H 475.142 3.27141 -6.16137 0
M  V30 5152 H 471.039 3.93266 -5.11872 0
M  V30 5153 H 471.807 3.90328 -7.19435 0
M  V30 5154 N 474.47 1.03057 1.19235 0
M  V30 5155 C 475.433 0.617418 2.20727 0
M  V30 5156 C 476.433 -0.319856 1.57587 0
M  V30 5157 O 477.623 -0.106633 1.73873 0
M  V30 5158 C 474.755 -0.096296 3.40764 0
M  V30 5159 H 475.948 1.51544 2.58794 0
M  V30 5160 H 473.501 0.821949 1.32942 0
M  V30 5161 H 474.236 -1.00859 3.08217 0
M  V30 5162 H 474.021 0.577217 3.87828 0
M  V30 5163 H 475.511 -0.372219 4.15938 0
M  V30 5164 N 475.948 -1.35272 0.808662 0
M  V30 5165 C 477.195 -1.98709 0.390003 0
M  V30 5166 C 477.523 -1.64148 -1.04335 0
M  V30 5167 O 476.778 -0.897797 -1.73891 0
M  V30 5168 C 477.077 -3.53556 0.522798 0
M  V30 5169 C 476.743 -4.0799 1.91977 0
M  V30 5170 C 475.405 -4.22568 2.30195 0
M  V30 5171 C 477.757 -4.37442 2.83361 0
M  V30 5172 C 475.085 -4.63918 3.59162 0
M  V30 5173 C 477.437 -4.80232 4.11776 0
M  V30 5174 C 476.101 -4.93016 4.49991 0
M  V30 5175 H 475.371 -0.727127 0.142712 0
M  V30 5176 H 478.018 -1.6145 1.02985 0
M  V30 5177 H 476.323 -3.91287 -0.200494 0
M  V30 5178 H 478.02 -4.00598 0.179608 0
M  V30 5179 H 474.61 -3.97096 1.61284 0
M  V30 5180 H 478.794 -4.25731 2.55083 0
M  V30 5181 H 474.05 -4.72005 3.88615 0
M  V30 5182 H 478.224 -5.01982 4.82687 0
M  V30 5183 H 475.851 -5.24814 5.49976 0
M  V30 5184 N 477.426 -0.562348 -1.47226 0
M  V30 5185 C 478.672 -0.0402761 -2.0276 0
M  V30 5186 C 479.005 1.30823 -1.43523 0
M  V30 5187 O 478.28 1.85249 -0.592705 0
M  V30 5188 C 478.563 0.047311 -3.60069 0
M  V30 5189 C 478.416 -1.32865 -4.29729 0
M  V30 5190 C 479.735 0.758182 -4.3352 0
M  V30 5191 H 476.854 -0.0161105 -0.736824 0
M  V30 5192 H 479.496 -0.725628 -1.75598 0
M  V30 5193 H 477.646 0.630986 -3.83342 0
M  V30 5194 H 479.318 -1.95593 -4.17781 0
M  V30 5195 H 477.561 -1.90195 -3.89882 0
M  V30 5196 H 478.232 -1.22004 -5.38349 0
M  V30 5197 H 480.708 0.262546 -4.15271 0
M  V30 5198 H 479.584 0.78844 -5.43208 0
M  V30 5199 H 479.845 1.81537 -4.03109 0
M  V30 5200 N 478.904 1.54736 -0.299062 0
M  V30 5201 C 480.151 2.00101 0.310784 0
M  V30 5202 C 480.479 1.18746 1.54045 0
M  V30 5203 O 479.734 0.251198 1.94081 0
M  V30 5204 C 480.033 3.50199 0.713835 0
M  V30 5205 C 479.699 4.48997 -0.413873 0
M  V30 5206 C 478.361 4.7573 -0.723462 0
M  V30 5207 C 480.713 5.07839 -1.17257 0
M  V30 5208 C 478.041 5.5857 -1.79491 0
M  V30 5209 C 480.393 5.91844 -2.23392 0
M  V30 5210 C 479.057 6.16889 -2.54959 0
M  V30 5211 H 478.327 0.732221 0.113724 0
M  V30 5212 H 480.974 1.86888 -0.417756 0
M  V30 5213 H 479.279 3.61012 1.52243 0
M  V30 5214 H 480.976 3.82723 1.19684 0
M  V30 5215 H 477.566 4.28292 -0.162476 0
M  V30 5216 H 481.75 4.87188 -0.946651 0
M  V30 5217 H 477.006 5.76213 -2.04423 0
M  V30 5218 H 481.18 6.36465 -2.8264 0
M  V30 5219 H 478.807 6.80869 -3.38114 0
M  V30 5220 N 480.382 0.0267497 1.57577 0
M  V30 5221 C 481.607 -0.666227 1.96408 0
M  V30 5222 C 482.032 -1.65004 0.903071 0
M  V30 5223 O 481.39 -1.80787 -0.136263 0
M  V30 5224 C 481.438 -1.35101 3.34335 0
M  V30 5225 O 480.542 -2.46623 3.30531 0
M  V30 5226 H 479.883 -0.175206 0.640468 0
M  V30 5227 H 482.413 0.0878977 2.04411 0
M  V30 5228 H 482.423 -1.70834 3.70513 0
M  V30 5229 H 481.098 -0.629844 4.11103 0
M  V30 5230 H 479.675 -2.13019 3.06068 0
M  V30 5231 N 481.861 -1.55662 -0.24637 0
M  V30 5232 C 482.824 -1.89558 -1.28842 0
M  V30 5233 C 483.824 -0.772082 -1.41052 0
M  V30 5234 O 485.014 -1.04007 -1.39743 0
M  V30 5235 C 482.146 -2.12449 -2.66605 0
M  V30 5236 H 483.339 -2.82735 -1.00004 0
M  V30 5237 H 480.892 -1.48562 -0.485684 0
M  V30 5238 H 481.627 -1.21742 -3.00582 0
M  V30 5239 H 481.412 -2.94273 -2.59125 0
M  V30 5240 H 482.902 -2.39854 -3.41847 0
M  V30 5241 N 483.339 0.512053 -1.4905 0
M  V30 5242 C 484.269 1.62365 -1.67809 0
M  V30 5243 C 485.25 1.61737 -0.526809 0
M  V30 5244 O 486.435 1.78651 -0.761404 0
M  V30 5245 C 483.565 3.00895 -1.73435 0
M  V30 5246 C 482.519 3.16387 -2.88242 0
M  V30 5247 C 481.845 4.56157 -2.78971 0
M  V30 5248 C 483.145 2.97457 -4.29321 0
M  V30 5249 H 484.839 1.46921 -2.60873 0
M  V30 5250 H 482.385 0.705379 -1.2554 0
M  V30 5251 H 484.338 3.78549 -1.85145 0
M  V30 5252 H 483.062 3.17403 -0.769619 0
M  V30 5253 H 481.721 2.41155 -2.76116 0
M  V30 5254 H 481.369 4.69525 -1.8043 0
M  V30 5255 H 481.069 4.67465 -3.5602 0
M  V30 5256 H 482.593 5.35886 -2.92675 0
M  V30 5257 H 484.007 3.64888 -4.42187 0
M  V30 5258 H 482.404 3.20245 -5.07507 0
M  V30 5259 H 483.474 1.93692 -4.44535 0
M  V30 5260 N 484.817 1.37938 0.762283 0
M  V30 5261 C 486.066 1.32989 1.51647 0
M  V30 5262 C 486.379 -0.0802922 1.95435 0
M  V30 5263 O 487.585 -0.252295 2.70325 0
M  V30 5264 C 486.041 2.33485 2.73885 0
M  V30 5265 C 485.649 3.80079 2.37157 0
M  V30 5266 C 487.393 2.37563 3.51801 0
M  V30 5267 C 485.3 4.72283 3.55954 0
M  V30 5268 H 484.23 0.494301 0.56937 0
M  V30 5269 H 486.881 1.63448 0.834083 0
M  V30 5270 H 485.263 1.96056 3.44061 0
M  V30 5271 H 486.437 4.26398 1.74704 0
M  V30 5272 H 484.752 3.79037 1.72395 0
M  V30 5273 H 487.349 3.0365 4.40114 0
M  V30 5274 H 487.692 1.39199 3.92338 0
M  V30 5275 H 488.225 2.73747 2.8863 0
M  V30 5276 H 484.964 5.7181 3.2049 0
M  V30 5277 H 484.484 4.30663 4.1748 0
M  V30 5278 H 486.163 4.89876 4.22647 0
M  V30 5279 N 486.295 -0.989507 1.22664 0
M  V30 5280 C 487.205 -2.11449 1.01619 0
M  V30 5281 C 488.221 -1.73962 -0.036545 0
M  V30 5282 O 489.397 -2.00788 0.156924 0
M  V30 5283 C 486.462 -3.41465 0.600204 0
M  V30 5284 C 485.523 -3.93033 1.72695 0
M  V30 5285 C 484.756 -5.16844 1.33071 0
M  V30 5286 O 484.979 -5.7001 0.210975 0
M  V30 5287 O 483.913 -5.6225 2.14845 0
M  V30 5288 H 487.739 -2.32088 1.9588 0
M  V30 5289 H 485.324 -1.09823 1.01289 0
M  V30 5290 H 487.206 -4.19695 0.37873 0
M  V30 5291 H 485.881 -3.22178 -0.313511 0
M  V30 5292 H 484.788 -3.15961 2.00298 0
M  V30 5293 H 486.121 -4.16758 2.61865 0
M  V30 5294 N 487.773 -1.03688 -1.18687 0
M  V30 5295 C 489.02 -0.73803 -1.88572 0
M  V30 5296 C 489.348 0.733973 -1.8012 0
M  V30 5297 O 488.603 1.55098 -1.19344 0
M  V30 5298 C 488.902 -1.14477 -3.3857 0
M  V30 5299 C 488.568 -2.61641 -3.67226 0
M  V30 5300 C 487.23 -3.01846 -3.74757 0
M  V30 5301 C 489.582 -3.56812 -3.79914 0
M  V30 5302 C 486.91 -4.36118 -3.92451 0
M  V30 5303 C 489.262 -4.90799 -3.99123 0
M  V30 5304 C 487.926 -5.3068 -4.04888 0
M  V30 5305 H 487.196 -0.270064 -0.690034 0
M  V30 5306 H 489.843 -1.3012 -1.40503 0
M  V30 5307 H 488.148 -0.500337 -3.88592 0
M  V30 5308 H 489.845 -0.89095 -3.90977 0
M  V30 5309 H 486.435 -2.29498 -3.61979 0
M  V30 5310 H 490.619 -3.26899 -3.73431 0
M  V30 5311 H 485.875 -4.66542 -3.95157 0
M  V30 5312 H 490.049 -5.64451 -4.07882 0
M  V30 5313 H 487.676 -6.34733 -4.18351 0
M  V30 5314 N 489.251 1.34841 -0.815825 0
M  V30 5315 C 490.214 2.27959 -0.238185 0
M  V30 5316 C 491.214 1.49983 0.579816 0
M  V30 5317 O 492.404 1.69617 0.396953 0
M  V30 5318 C 489.536 3.34314 0.666876 0
M  V30 5319 H 490.729 2.80558 -1.05958 0
M  V30 5320 H 488.282 1.44852 -0.587156 0
M  V30 5321 H 489.017 2.86916 1.5116 0
M  V30 5322 H 488.802 3.92014 0.0819106 0
M  V30 5323 H 490.292 4.0379 1.06506 0
M  V30 5324 N 490.729 0.570148 1.46925 0
M  V30 5325 C 491.957 0.0561966 2.06824 0
M  V30 5326 C 492.372 -1.24326 1.42086 0
M  V30 5327 O 491.729 -1.74882 0.521794 0
M  V30 5328 C 491.78 -0.129517 3.61268 0
M  V30 5329 O 491.501 1.1185 4.23581 0
M  V30 5330 C 493.002 -0.679266 4.38065 0
M  V30 5331 H 490.222 0.0517261 0.669003 0
M  V30 5332 H 492.766 0.787243 1.8874 0
M  V30 5333 H 490.921 -0.810739 3.78822 0
M  V30 5334 H 491.335 0.924375 5.1629 0
M  V30 5335 H 492.809 -0.758445 5.46765 0
M  V30 5336 H 493.286 -1.69346 4.05239 0
M  V30 5337 H 493.892 -0.0333237 4.25287 0
M  V30 5338 N 492.207 -1.54576 0.307264 0
M  V30 5339 C 493.453 -2.0056 -0.300612 0
M  V30 5340 C 493.786 -1.1953 -1.53057 0
M  V30 5341 O 493.061 -0.27337 -1.92569 0
M  V30 5342 C 493.344 -3.54167 -0.650987 0
M  V30 5343 C 493.197 -4.45933 0.588539 0
M  V30 5344 C 494.516 -4.14645 -1.47506 0
M  V30 5345 H 491.635 -0.729075 -0.107788 0
M  V30 5346 H 494.277 -1.85286 0.420606 0
M  V30 5347 H 492.427 -3.67313 -1.26544 0
M  V30 5348 H 494.099 -4.44683 1.22697 0
M  V30 5349 H 492.342 -4.16274 1.22058 0
M  V30 5350 H 493.013 -5.51189 0.299153 0
M  V30 5351 H 495.489 -4.04973 -0.955821 0
M  V30 5352 H 494.365 -5.22269 -1.68899 0
M  V30 5353 H 494.626 -3.66921 -2.4662 0
M  V30 5354 N 493.685 -0.035106 -1.57561 0
M  V30 5355 C 494.633 0.962707 -2.11742 0
M  V30 5356 C 495.627 1.33296 -1.0454 0
M  V30 5357 O 496.833 1.31449 -1.22968 0
M  V30 5358 H 493.208 0.32826 -0.676572 0
M  V30 5359 H 495.179 0.48048 -2.94506 0
M  V30 5360 C 493.928 2.23388 -2.66445 0
M  V30 5361 H 493.251 1.95774 -3.48587 0
M  V30 5362 H 494.691 2.91402 -3.07995 0
M  V30 5363 C 493.15 2.96769 -1.59467 0
M  V30 5364 O 493.68 3.89105 -0.998 0
M  V30 5365 N 491.886 2.59212 -1.31369 0
M  V30 5366 H 491.433 1.84202 -1.80076 0
M  V30 5367 H 491.391 3.08618 -0.600173 0
M  V30 5368 N 495.163 1.55791 0.238111 0
M  V30 5369 C 496.393 1.81834 0.980809 0
M  V30 5370 C 496.801 0.609741 1.79106 0
M  V30 5371 O 496.144 -0.431073 1.78571 0
M  V30 5372 C 496.206 3.01363 1.96011 0
M  V30 5373 C 495.87 4.37037 1.33597 0
M  V30 5374 C 496.867 5.14692 0.734063 0
M  V30 5375 C 494.552 4.83743 1.3527 0
M  V30 5376 C 496.546 6.37206 0.157208 0
M  V30 5377 C 494.233 6.06204 0.77199 0
M  V30 5378 C 495.231 6.82775 0.175282 0
M  V30 5379 O 494.919 8.02922 -0.396432 0
M  V30 5380 H 494.651 0.6088 0.293834 0
M  V30 5381 H 497.205 2.03702 0.263552 0
M  V30 5382 H 495.435 2.75273 2.71591 0
M  V30 5383 H 497.124 3.14422 2.56697 0
M  V30 5384 H 497.89 4.79722 0.713582 0
M  V30 5385 H 493.769 4.24129 1.80653 0
M  V30 5386 H 497.313 6.96915 -0.30917 0
M  V30 5387 H 493.21 6.4065 0.789828 0
M  V30 5388 H 493.978 8.17989 -0.289145 0
M  V30 5389 N 496.642 -0.504142 1.49319 0
M  V30 5390 C 497.889 -1.25846 1.58647 0
M  V30 5391 C 498.217 -1.92592 0.27177 0
M  V30 5392 O 497.472 -1.81167 -0.74007 0
M  V30 5393 C 497.771 -2.35021 2.69258 0
M  V30 5394 C 497.437 -1.85755 4.1086 0
M  V30 5395 C 496.099 -1.72038 4.49395 0
M  V30 5396 C 498.451 -1.48844 4.99495 0
M  V30 5397 C 495.779 -1.19783 5.74342 0
M  V30 5398 C 498.131 -0.980422 6.24956 0
M  V30 5399 C 496.795 -0.829622 6.62324 0
M  V30 5400 H 496.065 -0.460505 0.580531 0
M  V30 5401 H 498.712 -0.559716 1.83138 0
M  V30 5402 H 497.017 -3.10672 2.38726 0
M  V30 5403 H 498.714 -2.93083 2.73685 0
M  V30 5404 H 495.304 -1.9739 3.80441 0
M  V30 5405 H 499.488 -1.5829 4.70381 0
M  V30 5406 H 494.744 -1.06817 6.01997 0
M  V30 5407 H 498.918 -0.685608 6.93017 0
M  V30 5408 H 496.545 -0.42253 7.59025 0
M  V30 5409 N 498.12 -1.38341 -0.754957 0
M  V30 5410 C 499.348 -1.37704 -1.54419 0
M  V30 5411 C 499.763 0.0335243 -1.8877 0
M  V30 5412 O 499.12 0.999773 -1.52679 0
M  V30 5413 C 499.171 -2.23136 -2.84416 0
M  V30 5414 O 498.892 -3.58697 -2.51531 0
M  V30 5415 C 500.393 -2.30664 -3.78562 0
M  V30 5416 H 497.613 -0.471061 -0.477852 0
M  V30 5417 H 500.157 -1.81902 -0.934446 0
M  V30 5418 H 498.312 -1.82403 -3.41772 0
M  V30 5419 H 498.726 -4.03665 -3.34896 0
M  V30 5420 H 500.2 -2.9473 -4.66732 0
M  V30 5421 H 500.677 -1.3199 -4.18898 0
M  V30 5422 H 501.283 -2.71781 -3.27131 0
M  V30 5423 N 499.598 0.982988 -1.23187 0
M  V30 5424 C 500.545 2.07491 -1.01075 0
M  V30 5425 C 501.515 1.65949 0.070905 0
M  V30 5426 O 502.7 1.90629 -0.0806822 0
M  V30 5427 C 499.84 3.39751 -0.605261 0
M  V30 5428 C 498.953 3.94578 -1.75876 0
M  V30 5429 C 498.088 5.15039 -1.3003 0
M  V30 5430 C 497.127 5.62027 -2.42472 0
M  V30 5431 N 496.264 6.73719 -1.97602 0
M  V30 5432 H 501.104 2.25739 -1.9454 0
M  V30 5433 H 498.641 1.10659 -0.969179 0
M  V30 5434 H 500.599 4.15719 -0.351279 0
M  V30 5435 H 499.229 3.21473 0.292382 0
M  V30 5436 H 498.281 3.1539 -2.12681 0
M  V30 5437 H 499.593 4.25422 -2.60418 0
M  V30 5438 H 498.747 5.9833 -1.00429 0
M  V30 5439 H 497.486 4.85843 -0.425216 0
M  V30 5440 H 496.491 4.77318 -2.7285 0
M  V30 5441 H 497.716 5.93244 -3.30512 0
M  V30 5442 H 495.662 6.46287 -1.1247 0
M  V30 5443 H 495.579 7.03934 -2.75705 0
M  V30 5444 H 496.847 7.6049 -1.71098 0
M  V30 5445 N 501.076 1.04316 1.18135 0
M  V30 5446 C 502.492 0.762858 1.40188 0
M  V30 5447 C 502.692 -0.646547 1.90846 0
M  V30 5448 O 501.748 -1.41036 2.0944 0
M  V30 5449 C 503.061 1.81106 2.40044 0
M  V30 5450 C 504.609 1.83226 2.53766 0
M  V30 5451 C 505.084 2.87044 3.56889 0
M  V30 5452 N 506.575 2.85951 3.64398 0
M  V30 5453 C 507.31 3.62932 4.43923 0
M  V30 5454 N 506.806 4.49672 5.27036 0
M  V30 5455 N 508.599 3.51411 4.38711 0
M  V30 5456 H 500.75 1.95264 0.835805 0
M  V30 5457 H 503.013 0.845017 0.429709 0
M  V30 5458 H 502.719 2.82214 2.09876 0
M  V30 5459 H 502.593 1.64529 3.39426 0
M  V30 5460 H 504.98 0.827869 2.8325 0
M  V30 5461 H 505.061 2.03879 1.54489 0
M  V30 5462 H 504.705 3.87663 3.28145 0
M  V30 5463 H 504.635 2.63645 4.5585 0
M  V30 5464 H 507.126 2.23051 3.05052 0
M  V30 5465 H 507.439 5.05116 5.84874 0
M  V30 5466 H 505.784 4.53738 5.26447 0
M  V30 5467 H 508.975 2.83047 3.72829 0
M  V30 5468 H 509.148 4.11654 5.00445 0
M  V30 5469 N 502.554 -1.34406 0.822964 0
M  V30 5470 C 503.802 -1.97892 0.410245 0
M  V30 5471 C 504.123 -1.65567 -1.03017 0
M  V30 5472 O 503.393 -0.94642 -1.71522 0
M  V30 5473 H 501.973 -0.732049 0.148707 0
M  V30 5474 H 504.635 -1.64043 1.05242 0
M  V30 5475 H 503.731 -3.07579 0.529284 0
M  V30 5476 N 504.032 -0.577932 -1.46621 0
M  V30 5477 C 505.262 -0.0670668 -2.06491 0
M  V30 5478 C 505.67 1.24119 -1.42798 0
M  V30 5479 O 505.013 1.76016 -0.525759 0
M  V30 5480 C 505.075 0.177995 -3.59059 0
M  V30 5481 C 504.739 -1.04394 -4.44917 0
M  V30 5482 C 505.736 -1.95479 -4.81751 0
M  V30 5483 C 503.421 -1.26444 -4.86125 0
M  V30 5484 C 505.415 -3.06965 -5.58615 0
M  V30 5485 C 503.102 -2.38237 -5.62749 0
M  V30 5486 C 504.1 -3.28327 -5.98908 0
M  V30 5487 O 503.788 -4.38179 -6.73984 0
M  V30 5488 H 503.52 -0.0523159 -0.673973 0
M  V30 5489 H 506.074 -0.796966 -1.89308 0
M  V30 5490 H 504.304 0.962451 -3.74531 0
M  V30 5491 H 505.993 0.636782 -4.00874 0
M  V30 5492 H 506.759 -1.79657 -4.50498 0
M  V30 5493 H 502.638 -0.572316 -4.57434 0
M  V30 5494 H 506.182 -3.77309 -5.86757 0
M  V30 5495 H 502.079 -2.54023 -5.93416 0
M  V30 5496 H 502.847 -4.36486 -6.92403 0
M  V30 5497 N 505.51 1.54411 -0.315457 0
M  V30 5498 C 506.473 2.22713 0.54142 0
M  V30 5499 C 507.473 1.2179 1.04995 0
M  V30 5500 O 508.663 1.46426 0.943667 0
M  V30 5501 C 505.795 2.92485 1.75116 0
M  V30 5502 H 506.988 2.99849 -0.0555508 0
M  V30 5503 H 504.541 1.56159 -0.0664453 0
M  V30 5504 H 505.276 2.19466 2.38758 0
M  V30 5505 H 505.061 3.66483 1.39401 0
M  V30 5506 H 506.551 3.44548 2.35959 0
M  V30 5507 N 506.988 0.0434614 1.5754 0
M  V30 5508 C 508.234 -0.627109 1.93491 0
M  V30 5509 C 508.589 -1.68904 0.921362 0
M  V30 5510 O 507.882 -1.91504 -0.0605799 0
M  V30 5511 C 508.076 -1.2738 3.3393 0
M  V30 5512 C 507.905 -0.27603 4.48852 0
M  V30 5513 C 506.675 0.129244 5.05135 0
M  V30 5514 C 508.873 0.475462 5.12098 0
M  V30 5515 N 506.855 1.12068 6.03584 0
M  V30 5516 C 508.226 1.32021 6.05781 0
M  V30 5517 C 510.281 0.534611 4.95022 0
M  V30 5518 C 508.984 2.2188 6.84223 0
M  V30 5519 C 511.01 1.42059 5.74085 0
M  V30 5520 C 510.372 2.25309 6.67394 0
M  V30 5521 H 506.471 -0.201354 0.755633 0
M  V30 5522 H 509.055 0.113991 1.94366 0
M  V30 5523 H 507.226 -1.98496 3.33847 0
M  V30 5524 H 508.958 -1.90255 3.57191 0
M  V30 5525 H 505.713 -0.248145 4.72949 0
M  V30 5526 H 506.137 1.61306 6.57502 0
M  V30 5527 H 510.779 -0.0947817 4.22694 0
M  V30 5528 H 508.497 2.85868 7.55847 0
M  V30 5529 H 512.083 1.47083 5.62901 0
M  V30 5530 H 510.963 2.92754 7.27506 0
M  V30 5531 N 508.466 -1.55915 -0.229846 0
M  V30 5532 C 509.743 -1.6932 -0.979295 0
M  V30 5533 C 510.123 -0.588321 -2.02736 0
M  V30 5534 O 509.471 0.40586 -2.24867 0
M  V30 5535 C 509.681 -3.10305 -1.59724 0
M  V30 5536 C 511.029 -3.6945 -2.09264 0
M  V30 5537 O 512.053 -3.13214 -1.69633 0
M  V30 5538 O 510.912 -4.68072 -2.82082 0
M  V30 5539 H 508.006 -0.689314 -0.456919 0
M  V30 5540 H 510.552 -1.68238 -0.222283 0
M  V30 5541 H 509.324 -3.82177 -0.840039 0
M  V30 5542 H 508.947 -3.1547 -2.42001 0
M  V30 5543 N 509.944 0.496216 -1.49584 0
M  V30 5544 C 511.192 1.24756 -1.58998 0
M  V30 5545 C 511.513 1.92968 -0.280775 0
M  V30 5546 O 510.783 1.82959 0.700198 0
M  V30 5547 H 509.363 0.463471 -0.585836 0
M  V30 5548 H 512.025 0.574678 -1.86235 0
M  V30 5549 H 511.121 2.00895 -2.38847 0
M  V30 5550 N 511.423 1.38739 0.74761 0
M  V30 5551 C 512.37 1.36449 1.86146 0
M  V30 5552 C 513.34 0.226098 1.64554 0
M  V30 5553 O 514.525 0.41926 1.86137 0
M  V30 5554 C 511.665 1.2013 3.23516 0
M  V30 5555 C 510.778 2.43407 3.56899 0
M  V30 5556 C 509.913 2.19773 4.83605 0
M  V30 5557 C 508.952 3.3879 5.09792 0
M  V30 5558 N 508.089 3.14553 6.27695 0
M  V30 5559 H 512.929 2.3167 1.87438 0
M  V30 5560 H 510.466 1.15094 0.916063 0
M  V30 5561 H 512.424 1.08683 4.02795 0
M  V30 5562 H 511.054 0.285453 3.21535 0
M  V30 5563 H 510.106 2.65504 2.72418 0
M  V30 5564 H 511.418 3.32094 3.72176 0
M  V30 5565 H 510.572 2.05496 5.70838 0
M  V30 5566 H 509.311 1.28461 4.70478 0
M  V30 5567 H 508.316 3.53579 4.21025 0
M  V30 5568 H 509.541 4.30986 5.24812 0
M  V30 5569 H 507.487 2.25893 6.1588 0
M  V30 5570 H 507.404 3.96791 6.435 0
M  V30 5571 H 508.672 3.03943 7.17801 0
M  V30 5572 N 512.901 -0.976442 1.23707 0
M  V30 5573 C 514.126 -1.75875 1.09922 0
M  V30 5574 C 514.551 -1.84911 -0.34489 0
M  V30 5575 O 513.909 -1.31363 -1.24954 0
M  V30 5576 C 513.957 -3.16179 1.73388 0
M  V30 5577 O 513.061 -4.00124 0.99871 0
M  V30 5578 H 512.402 -0.540954 0.385052 0
M  V30 5579 H 514.932 -1.22546 1.6384 0
M  V30 5580 H 514.942 -3.66741 1.78788 0
M  V30 5581 H 513.617 -3.08917 2.78466 0
M  V30 5582 H 512.194 -3.58624 1.02193 0
M  V30 5583 N 514.379 -1.04941 -1.1758 0
M  V30 5584 C 515.625 -0.759112 -1.88057 0
M  V30 5585 C 515.958 0.711918 -1.8068 0
M  V30 5586 O 515.233 1.52035 -1.21308 0
M  V30 5587 C 515.516 -1.237 -3.38187 0
M  V30 5588 C 515.369 -2.77078 -3.54327 0
M  V30 5589 C 516.688 -0.834014 -4.32125 0
M  V30 5590 H 513.807 -0.277237 -0.682868 0
M  V30 5591 H 516.449 -1.30296 -1.38286 0
M  V30 5592 H 514.599 -0.774337 -3.80705 0
M  V30 5593 H 516.271 -3.31449 -3.20842 0
M  V30 5594 H 514.514 -3.16477 -2.96689 0
M  V30 5595 H 515.185 -3.05577 -4.59703 0
M  V30 5596 H 517.661 -1.23228 -3.97434 0
M  V30 5597 H 516.537 -1.19603 -5.35711 0
M  V30 5598 H 516.798 0.262195 -4.41322 0
M  V30 5599 N 515.857 1.33968 -0.830081 0
M  V30 5600 C 517.103 1.98357 -0.422191 0
M  V30 5601 C 517.436 1.65633 1.01387 0
M  V30 5602 O 516.711 0.931648 1.70735 0
M  V30 5603 C 516.994 3.54492 -0.633043 0
M  V30 5604 C 516.847 3.96934 -2.11574 0
M  V30 5605 C 518.166 4.40039 -0.0735584 0
M  V30 5606 H 515.285 0.720544 -0.154871 0
M  V30 5607 H 517.927 1.58749 -1.04397 0
M  V30 5608 H 516.077 3.88361 -0.103775 0
M  V30 5609 H 517.749 3.73363 -2.7092 0
M  V30 5610 H 515.992 3.46984 -2.60354 0
M  V30 5611 H 516.663 5.05651 -2.21406 0
M  V30 5612 H 519.139 4.12764 -0.52585 0
M  V30 5613 H 518.015 5.48327 -0.250841 0
M  V30 5614 H 518.276 4.30124 1.02202 0
M  V30 5615 N 517.335 0.585699 1.46312 0
M  V30 5616 C 518.746 0.159938 1.86014 0
M  V30 5617 C 519.097 -1.27775 1.48889 0
M  V30 5618 O 518.222 -1.96559 0.90519 0
M  V30 5619 C 518.817 0.283485 3.37612 0
M  V30 5620 C 517.376 -0.0874256 3.76298 0
M  V30 5621 C 516.523 0.618055 2.70325 0
M  V30 5622 H 519.474 0.793737 1.37425 0
M  V30 5623 H 519.495 -0.490348 3.77327 0
M  V30 5624 H 519.007 1.32995 3.64601 0
M  V30 5625 H 517.108 -1.13391 3.54927 0
M  V30 5626 H 517.221 0.290975 4.78216 0
M  V30 5627 H 515.585 0.057993 2.54634 0
M  V30 5628 H 516.368 1.66623 3.00153 0
M  V30 5629 N 518.813 -1.54241 0.323641 0
M  V30 5630 C 519.723 -2.28033 -0.551205 0
M  V30 5631 C 520.739 -1.32388 -1.12913 0
M  V30 5632 O 521.915 -1.65403 -1.14908 0
M  V30 5633 C 518.98 -3.02382 -1.69606 0
M  V30 5634 C 518.041 -4.13612 -1.14993 0
M  V30 5635 C 517.274 -4.84407 -2.24022 0
M  V30 5636 O 517.497 -4.54716 -3.44368 0
M  V30 5637 O 516.431 -5.71312 -1.89436 0
M  V30 5638 H 520.257 -3.03662 0.048066 0
M  V30 5639 H 517.842 -1.49133 0.0893289 0
M  V30 5640 H 519.724 -3.48941 -2.36259 0
M  V30 5641 H 518.399 -2.29628 -2.28151 0
M  V30 5642 H 517.306 -3.71402 -0.448484 0
M  V30 5643 H 518.639 -4.8841 -0.609608 0
M  V30 5644 N 520.291 -0.0518155 -1.57515 0
M  V30 5645 C 521.238 0.922352 -2.11569 0
M  V30 5646 C 522.208 1.30842 -1.02321 0
M  V30 5647 O 523.393 1.39778 -1.29872 0
M  V30 5648 C 520.533 2.19167 -2.6657 0
M  V30 5649 C 519.646 1.86003 -3.89906 0
M  V30 5650 C 518.781 3.07398 -4.33221 0
M  V30 5651 C 517.82 2.70158 -5.49255 0
M  V30 5652 N 516.957 3.84248 -5.8762 0
M  V30 5653 H 521.797 0.454506 -2.94514 0
M  V30 5654 H 519.334 0.212718 -1.45554 0
M  V30 5655 H 521.292 2.93443 -2.96559 0
M  V30 5656 H 519.922 2.63528 -1.86421 0
M  V30 5657 H 518.974 1.01874 -3.66505 0
M  V30 5658 H 520.286 1.54592 -4.74239 0
M  V30 5659 H 519.44 3.89972 -4.64765 0
M  V30 5660 H 518.179 3.41988 -3.477 0
M  V30 5661 H 517.184 1.86001 -5.17382 0
M  V30 5662 H 518.409 2.36759 -6.36492 0
M  V30 5663 H 516.355 4.18638 -5.05053 0
M  V30 5664 H 516.272 3.56538 -6.66646 0
M  V30 5665 H 517.54 4.6746 -6.2378 0
M  V30 5666 N 521.769 1.56035 0.221574 0
M  V30 5667 C 523.18 1.69229 0.788567 0
M  V30 5668 C 523.531 0.653814 1.84986 0
M  V30 5669 O 522.656 -0.195065 2.15519 0
M  V30 5670 C 523.251 3.06809 1.43713 0
M  V30 5671 C 521.81 3.21858 1.95152 0
M  V30 5672 C 520.957 2.65155 0.811685 0
M  V30 5673 H 523.908 1.587 -0.00307894 0
M  V30 5674 H 523.929 3.02666 2.30594 0
M  V30 5675 H 523.441 3.82369 0.664475 0
M  V30 5676 H 521.542 2.51167 2.7522 0
M  V30 5677 H 521.655 4.29073 2.1315 0
M  V30 5678 H 520.019 2.23635 1.21899 0
M  V30 5679 H 520.802 3.43261 0.0516987 0
M  V30 5680 N 523.247 -0.488276 1.49845 0
M  V30 5681 C 524.194 -1.58836 1.67451 0
M  V30 5682 C 525.164 -1.57886 0.515857 0
M  V30 5683 O 526.349 -1.75679 0.744403 0
M  V30 5684 C 523.489 -2.96915 1.75885 0
M  V30 5685 C 522.602 -3.07784 3.03138 0
M  V30 5686 C 521.737 -4.36673 3.02473 0
M  V30 5687 C 520.776 -4.41222 4.24252 0
M  V30 5688 N 519.913 -5.61557 4.21424 0
M  V30 5689 H 524.753 -1.43131 2.61376 0
M  V30 5690 H 522.29 -0.696186 1.29583 0
M  V30 5691 H 524.248 -3.76965 1.78755 0
M  V30 5692 H 522.878 -3.11295 0.85414 0
M  V30 5693 H 521.93 -2.20717 3.09819 0
M  V30 5694 H 523.242 -3.07005 3.93128 0
M  V30 5695 H 522.396 -5.25055 3.03977 0
M  V30 5696 H 521.135 -4.40037 2.10283 0
M  V30 5697 H 520.14 -3.5124 4.22978 0
M  V30 5698 H 521.365 -4.39564 5.17649 0
M  V30 5699 H 519.311 -5.65738 3.32078 0
M  V30 5700 H 519.228 -5.62447 5.05163 0
M  V30 5701 H 520.496 -6.52111 4.2705 0
M  V30 5702 N 524.725 -1.39134 -0.740242 0
M  V30 5703 C 525.672 -1.37434 -1.8542 0
M  V30 5704 C 526.642 -0.234822 -1.64432 0
M  V30 5705 O 527.827 -0.429125 -1.85912 0
M  V30 5706 C 524.967 -1.21844 -3.22875 0
M  V30 5707 C 524.08 -2.45296 -3.55603 0
M  V30 5708 C 523.215 -2.22334 -4.82432 0
M  V30 5709 C 522.254 -3.41488 -5.07988 0
M  V30 5710 N 521.391 -3.17877 -6.26018 0
M  V30 5711 H 526.231 -2.3266 -1.86207 0
M  V30 5712 H 523.768 -1.15578 -0.909946 0
M  V30 5713 H 525.726 -1.10818 -4.02213 0
M  V30 5714 H 524.356 -0.3025 -3.21379 0
M  V30 5715 H 523.408 -2.66945 -2.71006 0
M  V30 5716 H 524.72 -3.34063 -3.7041 0
M  V30 5717 H 523.874 -2.0852 -5.69741 0
M  V30 5718 H 522.613 -1.30954 -4.6979 0
M  V30 5719 H 521.618 -3.55807 -4.19144 0
M  V30 5720 H 522.843 -4.33763 -5.22519 0
M  V30 5721 H 520.789 -2.29156 -6.14673 0
M  V30 5722 H 520.706 -4.00198 -6.41387 0
M  V30 5723 H 521.974 -3.07746 -7.16179 0
M  V30 5724 N 526.204 0.969867 -1.24223 0
M  V30 5725 C 527.45 1.7151 -1.08223 0
M  V30 5726 C 527.783 1.90478 0.37838 0
M  V30 5727 O 527.058 1.4647 1.27971 0
M  V30 5728 C 527.341 3.10714 -1.82013 0
M  V30 5729 C 527.194 2.9925 -3.35811 0
M  V30 5730 C 528.513 4.10332 -1.59108 0
M  V30 5731 H 525.632 0.622499 -0.394543 0
M  V30 5732 H 528.274 1.1284 -1.52863 0
M  V30 5733 H 526.424 3.608 -1.44068 0
M  V30 5734 H 528.096 2.56608 -3.83341 0
M  V30 5735 H 526.339 2.35512 -3.64303 0
M  V30 5736 H 527.01 3.97857 -3.82641 0
M  V30 5737 H 529.486 3.69097 -1.92111 0
M  V30 5738 H 528.362 5.05804 -2.13198 0
M  V30 5739 H 528.623 4.38926 -0.528832 0
M  V30 5740 N 527.682 1.05563 1.17022 0
M  V30 5741 C 528.629 0.659893 2.21165 0
M  V30 5742 C 529.599 -0.339813 1.62587 0
M  V30 5743 O 530.784 -0.230378 1.89404 0
M  V30 5744 C 527.924 0.0447297 3.45071 0
M  V30 5745 C 527.037 1.09372 4.17926 0
M  V30 5746 C 526.172 0.445481 5.29329 0
M  V30 5747 C 525.211 1.47852 5.93975 0
M  V30 5748 N 524.348 0.854172 6.96885 0
M  V30 5749 H 529.188 1.55243 2.54369 0
M  V30 5750 H 526.725 0.776336 1.24946 0
M  V30 5751 H 528.683 -0.329404 4.15898 0
M  V30 5752 H 527.313 -0.811244 3.1244 0
M  V30 5753 H 526.365 1.58564 3.45777 0
M  V30 5754 H 527.677 1.87773 4.62107 0
M  V30 5755 H 526.831 0.0179688 6.06697 0
M  V30 5756 H 525.57 -0.370481 4.86291 0
M  V30 5757 H 524.575 1.91601 5.15334 0
M  V30 5758 H 525.8 2.29645 6.39093 0
M  V30 5759 H 523.746 0.0587882 6.55974 0
M  V30 5760 H 523.663 1.57567 7.39397 0
M  V30 5761 H 524.931 0.451559 7.78191 0
M  V30 5762 N 529.16 -1.33526 0.837174 0
M  V30 5763 C 530.437 -1.92369 0.354065 0
M  V30 5764 C 530.817 -1.76348 -1.16038 0
M  V30 5765 O 530.165 -1.15083 -1.97403 0
M  V30 5766 C 530.375 -3.39728 0.799101 0
M  V30 5767 C 531.723 -4.16877 0.806139 0
M  V30 5768 O 532.747 -3.48373 0.742597 0
M  V30 5769 O 531.606 -5.39166 0.892345 0
M  V30 5770 H 528.7 -0.820952 0.0998378 0
M  V30 5771 H 531.246 -1.42409 0.922913 0
M  V30 5772 H 530.018 -3.45254 1.84162 0
M  V30 5773 H 529.641 -3.97062 0.206731 0
M  V30 5774 N 530.638 -0.59345 -1.46 0
M  V30 5775 C 532.049 -0.169801 -1.85926 0
M  V30 5776 C 532.4 1.26984 -1.49565 0
M  V30 5777 O 531.525 1.96076 -0.915602 0
M  V30 5778 C 532.12 -0.301385 -3.37457 0
M  V30 5779 C 530.679 0.0674684 -3.7634 0
M  V30 5780 C 529.826 -0.632383 -2.69993 0
M  V30 5781 H 532.777 -0.801014 -1.37002 0
M  V30 5782 H 532.798 0.470331 -3.77582 0
M  V30 5783 H 532.31 -1.34927 -3.63891 0
M  V30 5784 H 530.411 1.11507 -3.55523 0
M  V30 5785 H 530.524 -0.316332 -4.78055 0
M  V30 5786 H 528.888 -0.0714961 -2.546 0
M  V30 5787 H 529.671 -1.68212 -2.99265 0
M  V30 5788 N 532.116 1.54067 -0.331816 0
M  V30 5789 C 533.046 2.27569 0.522932 0
M  V30 5790 C 534.027 1.28679 1.11247 0
M  V30 5791 O 535.212 1.57504 1.13605 0
M  V30 5792 C 532.342 3.0397 1.67987 0
M  V30 5793 C 531.296 4.10267 1.21924 0
M  V30 5794 C 530.622 4.74555 2.46377 0
M  V30 5795 C 531.922 5.21268 0.32815 0
M  V30 5796 H 533.616 2.99264 -0.0901977 0
M  V30 5797 H 531.162 1.4393 -0.044821 0
M  V30 5798 H 533.115 3.54123 2.28418 0
M  V30 5799 H 531.839 2.29906 2.31971 0
M  V30 5800 H 530.498 3.61009 0.637809 0
M  V30 5801 H 530.146 3.97098 3.08743 0
M  V30 5802 H 529.846 5.46363 2.16243 0
M  V30 5803 H 531.37 5.27487 3.07555 0
M  V30 5804 H 532.784 5.67128 0.838978 0
M  V30 5805 H 531.181 5.99982 0.119228 0
M  V30 5806 H 532.251 4.80673 -0.638839 0
M  V30 5807 N 533.594 0.0601682 1.57485 0
M  V30 5808 C 534.843 -0.611101 1.9222 0
M  V30 5809 C 535.156 -1.71469 0.941159 0
M  V30 5810 O 536.362 -2.44473 1.18089 0
M  V30 5811 C 534.818 -1.13832 3.41424 0
M  V30 5812 C 534.426 -0.0663596 4.47951 0
M  V30 5813 C 536.17 -1.78432 3.85178 0
M  V30 5814 C 534.077 -0.606965 5.88277 0
M  V30 5815 H 533.007 -0.232033 0.71741 0
M  V30 5816 H 535.658 0.130518 1.83035 0
M  V30 5817 H 534.04 -1.93254 3.45643 0
M  V30 5818 H 535.214 0.707682 4.55333 0
M  V30 5819 H 533.529 0.482715 4.13593 0
M  V30 5820 H 536.126 -2.1989 4.87394 0
M  V30 5821 H 536.469 -2.63966 3.21913 0
M  V30 5822 H 537.002 -1.05651 3.83514 0
M  V30 5823 H 533.741 0.21095 6.5516 0
M  V30 5824 H 533.261 -1.34879 5.84438 0
M  V30 5825 H 534.94 -1.08704 6.37803 0
M  V30 5826 N 535.072 -1.5615 -0.213296 0
M  V30 5827 C 536.019 -1.93086 -1.26437 0
M  V30 5828 C 536.989 -0.789086 -1.4616 0
M  V30 5829 O 538.174 -1.04569 -1.59593 0
M  V30 5830 C 535.314 -2.26003 -2.608 0
M  V30 5831 C 534.427 -3.53156 -2.48807 0
M  V30 5832 C 533.562 -3.7548 -3.7575 0
M  V30 5833 C 532.601 -4.96119 -3.58514 0
M  V30 5834 N 531.738 -5.14791 -4.77425 0
M  V30 5835 H 536.578 -2.82707 -0.942376 0
M  V30 5836 H 534.115 -1.39919 -0.454001 0
M  V30 5837 H 536.073 -2.431 -3.39055 0
M  V30 5838 H 534.703 -1.39546 -2.91079 0
M  V30 5839 H 533.755 -3.44207 -1.61944 0
M  V30 5840 H 535.067 -4.41565 -2.31996 0
M  V30 5841 H 534.221 -3.92718 -4.62447 0
M  V30 5842 H 532.96 -2.85368 -3.95495 0
M  V30 5843 H 531.965 -4.78823 -2.70201 0
M  V30 5844 H 533.19 -5.87724 -3.40231 0
M  V30 5845 H 531.136 -4.27623 -4.97468 0
M  V30 5846 H 531.053 -5.97347 -4.63371 0
M  V30 5847 H 532.321 -5.36471 -5.65525 0
M  V30 5848 N 536.55 0.480323 -1.50102 0
M  V30 5849 C 537.497 1.57946 -1.6829 0
M  V30 5850 C 538.467 1.57611 -0.524223 0
M  V30 5851 O 539.652 1.75282 -0.753709 0
M  V30 5852 C 536.792 2.95978 -1.77457 0
M  V30 5853 C 535.905 3.06173 -3.04766 0
M  V30 5854 C 535.04 4.35063 -3.04784 0
M  V30 5855 C 534.079 4.38966 -4.26586 0
M  V30 5856 N 533.216 5.59314 -4.24396 0
M  V30 5857 H 538.056 1.41743 -2.62131 0
M  V30 5858 H 535.593 0.689304 -1.2995 0
M  V30 5859 H 537.551 3.76011 -1.80752 0
M  V30 5860 H 536.181 3.10837 -0.870637 0
M  V30 5861 H 535.233 2.19071 -3.10986 0
M  V30 5862 H 536.545 3.04916 -3.9475 0
M  V30 5863 H 535.699 5.23436 -3.06757 0
M  V30 5864 H 534.438 4.38915 -2.12614 0
M  V30 5865 H 533.443 3.48992 -4.24835 0
M  V30 5866 H 534.668 4.36813 -5.19972 0
M  V30 5867 H 532.614 5.63969 -3.35074 0
M  V30 5868 H 532.531 5.5976 -5.08138 0
M  V30 5869 H 533.799 6.49837 -4.30502 0
M  V30 5870 N 538.028 1.39524 0.732853 0
M  V30 5871 C 538.976 1.38563 1.86824 0
M  V30 5872 C 539.97 0.268467 1.67259 0
M  V30 5873 O 541.176 0.438613 1.74574 0
M  V30 5874 H 537.551 0.432737 0.615014 0
M  V30 5875 H 539.522 2.34328 1.84751 0
M  V30 5876 C 538.271 1.2481 3.24527 0
M  V30 5877 H 537.594 2.10044 3.40179 0
M  V30 5878 H 539.034 1.28194 4.04156 0
M  V30 5879 C 537.493 -0.0432825 3.36872 0
M  V30 5880 O 538.023 -1.01268 3.88726 0
M  V30 5881 N 536.229 -0.107055 2.90403 0
M  V30 5882 H 535.776 0.682512 2.48394 0
M  V30 5883 H 535.734 -0.970618 2.99042 0
M  V30 5884 N 539.506 -0.963266 1.24736 0
M  V30 5885 C 540.454 -2.07985 1.04139 0
M  V30 5886 C 541.448 -1.69381 -0.0250556 0
M  V30 5887 O 542.654 -1.79531 0.129863 0
M  V30 5888 H 539.029 -0.680627 0.319768 0
M  V30 5889 H 541 -2.22517 1.98818 0
M  V30 5890 C 539.749 -3.4123 0.667615 0
M  V30 5891 H 539.072 -3.71397 1.48 0
M  V30 5892 H 540.512 -4.20244 0.563136 0
M  V30 5893 C 538.971 -3.3104 -0.625647 0
M  V30 5894 O 539.501 -3.65334 -1.67016 0
M  V30 5895 N 537.707 -2.84168 -0.608033 0
M  V30 5896 H 537.254 -2.56458 0.242323 0
M  V30 5897 H 537.212 -2.77732 -1.47352 0
M  V30 5898 N 540.985 -1.06182 -1.16461 0
M  V30 5899 C 542.213 -0.798583 -1.90867 0
M  V30 5900 C 542.628 0.646921 -1.77371 0
M  V30 5901 O 541.985 1.44279 -1.11758 0
M  V30 5902 C 542.036 -1.18258 -3.4161 0
M  V30 5903 O 541.757 -2.57135 -3.54701 0
M  V30 5904 C 543.258 -0.946917 -4.33069 0
M  V30 5905 H 540.478 -0.289603 -0.605286 0
M  V30 5906 H 543.022 -1.41515 -1.47627 0
M  V30 5907 H 541.177 -0.610562 -3.82558 0
M  V30 5908 H 541.591 -2.72477 -4.4817 0
M  V30 5909 H 543.065 -1.26523 -5.37304 0
M  V30 5910 H 543.542 0.117406 -4.39043 0
M  V30 5911 H 544.148 -1.50326 -3.97847 0
M  V30 5912 N 542.463 1.3308 -0.844243 0
M  V30 5913 C 543.693 2.01515 -0.455541 0
M  V30 5914 C 544.101 1.63655 0.949406 0
M  V30 5915 O 543.444 0.84848 1.62931 0
M  V30 5916 C 543.506 3.55967 -0.502801 0
M  V30 5917 C 543.17 4.17222 -1.86481 0
M  V30 5918 C 544.167 4.36205 -2.8288 0
M  V30 5919 C 541.852 4.53528 -2.15911 0
M  V30 5920 C 543.846 4.90649 -4.06869 0
M  V30 5921 C 541.533 5.07679 -3.40155 0
M  V30 5922 C 542.531 5.26186 -4.35451 0
M  V30 5923 O 542.219 5.79183 -5.57496 0
M  V30 5924 H 541.951 0.65199 -0.178565 0
M  V30 5925 H 544.505 1.70867 -1.1399 0
M  V30 5926 H 542.735 3.85965 0.23836 0
M  V30 5927 H 544.424 4.05688 -0.131169 0
M  V30 5928 H 545.19 4.085 -2.61444 0
M  V30 5929 H 541.069 4.38414 -1.42528 0
M  V30 5930 H 544.613 5.0501 -4.81259 0
M  V30 5931 H 540.51 5.34815 -3.61446 0
M  V30 5932 H 541.278 5.97591 -5.5931 0
M  V30 5933 N 543.941 0.601185 1.45683 0
M  V30 5934 C 544.904 -0.111398 2.28929 0
M  V30 5935 C 545.904 -0.801246 1.39416 0
M  V30 5936 O 547.094 -0.650383 1.61603 0
M  V30 5937 C 544.226 -1.16773 3.20276 0
M  V30 5938 H 545.419 0.620412 2.93413 0
M  V30 5939 H 542.972 0.359946 1.52099 0
M  V30 5940 H 543.707 -1.93051 2.60579 0
M  V30 5941 H 543.492 -0.677358 3.86205 0
M  V30 5942 H 544.982 -1.66698 3.82886 0
M  V30 5943 N 545.419 -1.53889 0.339982 0
M  V30 5944 C 546.83 -1.86139 -0.144671 0
M  V30 5945 C 547.181 -1.2613 -1.50285 0
M  V30 5946 O 546.306 -0.573515 -2.08662 0
M  V30 5947 C 546.901 -3.37728 -0.269285 0
M  V30 5948 C 545.46 -3.69868 -0.698168 0
M  V30 5949 C 544.607 -2.76777 0.170249 0
M  V30 5950 H 547.558 -1.48503 0.559704 0
M  V30 5951 H 547.579 -3.64331 -1.0974 0
M  V30 5952 H 547.091 -3.81375 0.719366 0
M  V30 5953 H 545.192 -3.31764 -1.69597 0
M  V30 5954 H 545.305 -4.76582 -0.490533 0
M  V30 5955 H 543.669 -2.52188 -0.356844 0
M  V30 5956 H 544.452 -3.23253 1.15597 0
M  V30 5957 N 546.897 -0.0685191 -1.57451 0
M  V30 5958 C 548.125 0.610462 -1.97689 0
M  V30 5959 C 548.54 1.63346 -0.946758 0
M  V30 5960 O 547.897 1.82377 0.0669868 0
M  V30 5961 C 547.948 1.28196 -3.38006 0
M  V30 5962 O 547.669 0.299906 -4.37072 0
M  V30 5963 C 549.17 2.04907 -3.931 0
M  V30 5964 H 546.39 0.165689 -0.650222 0
M  V30 5965 H 548.934 -0.139953 -2.04021 0
M  V30 5966 H 547.089 1.98348 -3.32771 0
M  V30 5967 H 547.503 0.78126 -5.18649 0
M  V30 5968 H 548.977 2.47287 -4.93511 0
M  V30 5969 H 549.454 2.9043 -3.29465 0
M  V30 5970 H 550.06 1.39629 -4.01726 0
M  V30 5971 N 548.375 1.56261 0.205012 0
M  V30 5972 C 549.338 1.92908 1.23771 0
M  V30 5973 C 550.338 0.809208 1.38955 0
M  V30 5974 O 551.528 1.07676 1.36936 0
M  V30 5975 C 548.66 2.19442 2.60879 0
M  V30 5976 H 549.853 2.85287 0.924728 0
M  V30 5977 H 547.406 1.49798 0.446125 0
M  V30 5978 H 548.141 1.29668 2.97248 0
M  V30 5979 H 547.926 3.0104 2.51232 0
M  V30 5980 H 549.416 2.48833 3.35368 0
M  V30 5981 N 549.853 -0.472356 1.50355 0
M  V30 5982 C 551.081 -1.24784 1.65035 0
M  V30 5983 C 551.496 -1.85837 0.333176 0
M  V30 5984 O 550.853 -1.69168 -0.68472 0
M  V30 5985 C 550.904 -2.35747 2.74054 0
M  V30 5986 O 550.625 -1.77197 4.00665 0
M  V30 5987 C 552.126 -3.26645 2.99696 0
M  V30 5988 H 549.346 -0.377432 0.554785 0
M  V30 5989 H 551.89 -0.563962 1.9657 0
M  V30 5990 H 550.045 -2.99912 2.45217 0
M  V30 5991 H 550.459 -2.5026 4.60945 0
M  V30 5992 H 551.933 -4.00718 3.79644 0
M  V30 5993 H 552.41 -3.8535 2.10718 0
M  V30 5994 H 553.016 -2.68218 3.3006 0
M  V30 5995 N 551.331 -1.39911 -0.725443 0
M  V30 5996 C 552.556 -1.41137 -1.5197 0
M  V30 5997 C 552.981 -0.010262 -1.88097 0
M  V30 5998 O 552.339 0.979184 -1.52583 0
M  V30 5999 C 552.387 -2.2994 -2.77777 0
M  V30 6000 O 551.491 -1.73586 -3.74088 0
M  V30 6001 H 550.832 -0.480219 -0.458569 0
M  V30 6002 H 553.362 -1.84023 -0.894249 0
M  V30 6003 H 553.372 -2.44785 -3.26411 0
M  V30 6004 H 552.047 -3.31759 -2.50816 0
M  V30 6005 H 550.624 -1.68035 -3.32894 0
M  V30 6006 N 552.809 0.956637 -1.25245 0
M  V30 6007 C 554.039 1.7332 -1.12445 0
M  V30 6008 C 554.447 1.86392 0.324732 0
M  V30 6009 O 553.79 1.35967 1.23526 0
M  V30 6010 C 553.852 3.16603 -1.70303 0
M  V30 6011 C 553.516 3.26966 -3.19284 0
M  V30 6012 C 554.513 3.11434 -4.16299 0
M  V30 6013 C 552.198 3.50851 -3.59456 0
M  V30 6014 C 554.192 3.1963 -5.51467 0
M  V30 6015 C 551.879 3.58684 -4.94761 0
M  V30 6016 C 552.877 3.43087 -5.90576 0
M  V30 6017 O 552.565 3.50598 -7.2342 0
M  V30 6018 H 552.297 0.549981 -0.393061 0
M  V30 6019 H 554.851 1.20892 -1.66055 0
M  V30 6020 H 553.081 3.70385 -1.11138 0
M  V30 6021 H 554.77 3.76109 -1.52632 0
M  V30 6022 H 555.536 2.92853 -3.86604 0
M  V30 6023 H 551.415 3.62053 -2.85375 0
M  V30 6024 H 554.959 3.07373 -6.26233 0
M  V30 6025 H 550.856 3.76782 -5.24124 0
M  V30 6026 H 551.624 3.67242 -7.31489 0
M  V30 6027 N 554.287 1.06798 1.15896 0
M  V30 6028 C 555.515 0.808694 1.90441 0
M  V30 6029 C 555.93 -0.637506 1.77711 0
M  V30 6030 O 555.287 -1.43684 1.12522 0
M  V30 6031 C 555.338 1.20068 3.40978 0
M  V30 6032 O 555.059 2.59013 3.53333 0
M  V30 6033 C 556.56 0.96987 4.3256 0
M  V30 6034 H 553.78 0.292809 0.603742 0
M  V30 6035 H 556.324 1.42296 1.46874 0
M  V30 6036 H 554.479 0.630842 3.82229 0
M  V30 6037 H 554.893 2.7485 4.46719 0
M  V30 6038 H 556.367 1.29371 5.36626 0
M  V30 6039 H 556.844 -0.0941209 4.39099 0
M  V30 6040 H 557.45 1.52433 3.97044 0
M  V30 6041 N 555.766 -1.3263 0.851289 0
M  V30 6042 C 557.177 -1.79653 0.5081 0
M  V30 6043 C 557.528 -1.70327 -0.973815 0
M  V30 6044 O 556.653 -1.25986 -1.75944 0
M  V30 6045 C 557.248 -3.26196 0.915515 0
M  V30 6046 C 555.807 -3.71187 0.624277 0
M  V30 6047 C 554.954 -2.53804 1.11709 0
M  V30 6048 H 557.905 -1.19976 1.03882 0
M  V30 6049 H 557.926 -3.79801 0.230535 0
M  V30 6050 H 557.438 -3.32952 1.99411 0
M  V30 6051 H 555.539 -3.69948 -0.443737 0
M  V30 6052 H 555.652 -4.64132 1.18821 0
M  V30 6053 H 554.016 -2.48964 0.537484 0
M  V30 6054 H 554.799 -2.63315 2.20272 0
M  V30 6055 N 557.244 -0.608902 -1.45362 0
M  V30 6056 C 558.192 0.121639 -2.32282 0
M  V30 6057 C 559.186 0.858301 -1.46046 0
M  V30 6058 O 560.392 0.773718 -1.62523 0
M  V30 6059 H 556.767 0.058086 -0.749753 0
M  V30 6060 H 558.738 -0.629866 -2.91677 0
M  V30 6061 C 557.487 1.1047 -3.29684 0
M  V30 6062 H 556.81 0.547278 -3.96036 0
M  V30 6063 H 558.25 1.58576 -3.9323 0
M  V30 6064 C 556.709 2.17891 -2.56954 0
M  V30 6065 O 557.239 3.25652 -2.35189 0
M  V30 6066 N 555.445 1.93211 -2.17066 0
M  V30 6067 H 554.992 1.05584 -2.34967 0
M  V30 6068 H 554.95 2.6529 -1.68727 0
M  V30 6069 N 558.722 1.53707 -0.348139 0
M  V30 6070 C 559.652 2.28111 0.498766 0
M  V30 6071 C 560.633 1.29851 1.09876 0
M  V30 6072 O 561.818 1.587 1.11928 0
M  V30 6073 C 558.948 3.05735 1.64753 0
M  V30 6074 C 557.902 4.11537 1.17565 0
M  V30 6075 C 557.228 4.77142 2.4133 0
M  V30 6076 C 558.528 5.21587 0.272844 0
M  V30 6077 H 560.222 2.99152 -0.121934 0
M  V30 6078 H 557.768 1.43875 -0.0600842 0
M  V30 6079 H 559.721 3.56526 2.24649 0
M  V30 6080 H 558.445 2.32354 2.2952 0
M  V30 6081 H 557.104 3.61665 0.599483 0
M  V30 6082 H 556.752 4.0035 3.04514 0
M  V30 6083 H 556.452 5.48626 2.10436 0
M  V30 6084 H 557.976 5.30719 3.01943 0
M  V30 6085 H 559.39 5.67986 0.778779 0
M  V30 6086 H 557.787 6.00074 0.0555849 0
M  V30 6087 H 558.857 4.79969 -0.689785 0
M  V30 6088 N 560.2 0.0768682 1.57412 0
M  V30 6089 C 561.163 -0.873949 2.11884 0
M  V30 6090 C 562.163 -1.22301 1.04398 0
M  V30 6091 O 563.353 -1.15545 1.30365 0
M  V30 6092 C 560.485 -2.17575 2.62438 0
M  V30 6093 H 561.678 -0.401278 2.97203 0
M  V30 6094 H 559.231 -0.171904 1.55352 0
M  V30 6095 H 559.966 -2.69368 1.80587 0
M  V30 6096 H 559.751 -1.93534 3.41009 0
M  V30 6097 H 561.241 -2.85631 3.04639 0
M  V30 6098 N 561.678 -1.56367 -0.196722 0
M  V30 6099 C 563.094 -1.49916 -0.54749 0
M  V30 6100 C 563.294 -0.77659 -1.85934 0
M  V30 6101 O 562.35 -0.32644 -2.50381 0
M  V30 6102 C 563.663 -2.94577 -0.603734 0
M  V30 6103 C 565.211 -3.05239 -0.692677 0
M  V30 6104 C 565.686 -4.51308 -0.780046 0
M  V30 6105 N 567.177 -4.55453 -0.843616 0
M  V30 6106 C 567.912 -5.65786 -0.931358 0
M  V30 6107 N 567.408 -6.85812 -0.981503 0
M  V30 6108 N 569.201 -5.53695 -0.968421 0
M  V30 6109 H 561.352 -2.01761 0.663803 0
M  V30 6110 H 563.615 -0.918094 0.236238 0
M  V30 6111 H 563.321 -3.50494 0.29105 0
M  V30 6112 H 563.195 -3.47841 -1.45898 0
M  V30 6113 H 565.582 -2.49372 -1.57789 0
M  V30 6114 H 565.663 -2.55103 0.188736 0
M  V30 6115 H 565.307 -5.078 0.100811 0
M  V30 6116 H 565.237 -4.99176 -1.67724 0
M  V30 6117 H 567.728 -3.69025 -0.814176 0
M  V30 6118 H 568.041 -7.65648 -1.04892 0
M  V30 6119 H 566.386 -6.88474 -0.950208 0
M  V30 6120 H 569.577 -4.58848 -0.926072 0
M  V30 6121 H 569.75 -6.39708 -1.03334 0
M  V30 6122 N 563.156 0.464375 -1.50603 0
M  V30 6123 C 564.404 1.21356 -1.61608 0
M  V30 6124 C 564.725 1.92329 -0.321643 0
M  V30 6125 O 563.995 1.84403 0.661232 0
M  V30 6126 H 562.575 0.45094 -0.595535 0
M  V30 6127 H 565.237 0.535046 -1.87412 0
M  V30 6128 H 564.333 1.95783 -2.43054 0
M  V30 6129 N 564.634 1.40294 0.718013 0
M  V30 6130 C 565.911 1.2894 1.47084 0
M  V30 6131 C 566.291 -0.0933625 2.10893 0
M  V30 6132 O 565.639 -1.10598 1.99951 0
M  V30 6133 C 565.849 2.4264 2.50852 0
M  V30 6134 C 567.197 2.8276 3.16752 0
M  V30 6135 O 568.221 2.42215 2.61171 0
M  V30 6136 O 567.08 3.528 4.17366 0
M  V30 6137 H 564.174 0.506236 0.653952 0
M  V30 6138 H 566.72 1.52208 0.750394 0
M  V30 6139 H 565.492 3.35009 2.022 0
M  V30 6140 H 565.115 2.21129 3.30435 0
M  V30 6141 N 566.112 -0.949982 1.2575 0
M  V30 6142 C 567.523 -1.50989 1.09815 0
M  V30 6143 C 567.874 -1.93497 -0.324556 0
M  V30 6144 O 566.999 -1.79068 -1.21506 0
M  V30 6145 C 567.594 -2.74394 1.98729 0
M  V30 6146 C 566.153 -3.26682 1.86965 0
M  V30 6147 C 565.3 -1.99498 1.92603 0
M  V30 6148 H 568.251 -0.766387 1.38968 0
M  V30 6149 H 568.272 -3.48383 1.53001 0
M  V30 6150 H 567.784 -2.43425 3.02268 0
M  V30 6151 H 565.885 -3.62461 0.863279 0
M  V30 6152 H 565.998 -3.94383 2.72027 0
M  V30 6153 H 564.362 -2.15005 1.36546 0
M  V30 6154 H 565.145 -1.70871 2.97755 0
M  V30 6155 N 567.59 -1.07411 -1.15328 0
M  V30 6156 C 568.838 -0.796073 -1.85761 0
M  V30 6157 C 569.159 0.679864 -1.82764 0
M  V30 6158 O 568.429 1.49242 -1.269 0
M  V30 6159 H 567.009 -0.291495 -0.687779 0
M  V30 6160 H 569.671 -1.35799 -1.39802 0
M  V30 6161 H 568.767 -1.13114 -2.90881 0
M  V30 6162 N 569.068 1.32177 -0.85831 0
M  V30 6163 C 569.998 2.31282 -0.321041 0
M  V30 6164 C 570.979 1.59841 0.581786 0
M  V30 6165 O 572.164 1.87619 0.501262 0
M  V30 6166 C 569.294 3.4385 0.48832 0
M  V30 6167 C 568.248 4.26799 -0.320391 0
M  V30 6168 C 567.574 5.31164 0.613934 0
M  V30 6169 C 568.874 4.98829 -1.54813 0
M  V30 6170 H 570.568 2.76469 -1.14915 0
M  V30 6171 H 568.114 1.32916 -0.554028 0
M  V30 6172 H 570.067 4.12224 0.874626 0
M  V30 6173 H 568.791 2.97401 1.34983 0
M  V30 6174 H 567.45 3.60077 -0.688497 0
M  V30 6175 H 567.098 4.80967 1.47239 0
M  V30 6176 H 566.798 5.8755 0.0768097 0
M  V30 6177 H 568.322 6.024 0.997336 0
M  V30 6178 H 569.736 5.59864 -1.23392 0
M  V30 6179 H 568.133 5.64957 -2.02346 0
M  V30 6180 H 569.203 4.26483 -2.30739 0
M  V30 6181 N 570.547 0.616602 1.45037 0
M  V30 6182 C 571.51 -0.0871112 2.29034 0
M  V30 6183 C 572.51 -0.786414 1.40258 0
M  V30 6184 O 573.7 -0.633207 1.62284 0
M  V30 6185 C 570.832 -1.13369 3.21497 0
M  V30 6186 H 572.025 0.651497 2.92738 0
M  V30 6187 H 569.578 0.376058 1.51709 0
M  V30 6188 H 570.313 -1.90277 2.62612 0
M  V30 6189 H 570.098 -0.636358 3.86902 0
M  V30 6190 H 571.588 -1.62627 3.84633 0
M  V30 6191 N 572.025 -1.5352 0.356285 0
M  V30 6192 C 573.253 -2.05534 -0.237328 0
M  V30 6193 C 573.668 -1.23043 -1.43199 0
M  V30 6194 O 573.025 -0.268821 -1.80509 0
M  V30 6195 C 573.076 -3.55791 -0.639933 0
M  V30 6196 O 572.797 -4.35154 0.507233 0
M  V30 6197 C 574.298 -4.24027 -1.29292 0
M  V30 6198 H 571.518 -0.669585 -0.0435572 0
M  V30 6199 H 574.062 -1.97988 0.511963 0
M  V30 6200 H 572.217 -3.63518 -1.33915 0
M  V30 6201 H 572.631 -5.24178 0.18375 0
M  V30 6202 H 574.105 -5.30509 -1.52527 0
M  V30 6203 H 574.582 -3.77166 -2.25039 0
M  V30 6204 H 575.188 -4.20527 -0.63539 0
M  V30 6205 N 573.503 -0.0852151 -1.57369 0
M  V30 6206 C 574.752 0.580443 -1.93168 0
M  V30 6207 C 575.065 1.6995 -0.968319 0
M  V30 6208 O 576.271 2.42564 -1.21963 0
M  V30 6209 C 574.727 1.08386 -3.43192 0
M  V30 6210 C 574.335 -0.00491388 -4.48 0
M  V30 6211 C 576.079 1.72281 -3.87968 0
M  V30 6212 C 573.986 0.513299 -5.89168 0
M  V30 6213 H 572.916 0.22059 -0.72101 0
M  V30 6214 H 575.567 -0.159621 -1.82804 0
M  V30 6215 H 573.949 1.8773 -3.48674 0
M  V30 6216 H 575.123 -0.780032 -4.5415 0
M  V30 6217 H 573.438 -0.548453 -4.12772 0
M  V30 6218 H 576.035 2.12108 -4.9083 0
M  V30 6219 H 576.378 2.58811 -3.26071 0
M  V30 6220 H 576.911 0.995359 -3.85146 0
M  V30 6221 H 573.65 -0.315153 -6.54742 0
M  V30 6222 H 573.17 1.25564 -5.8651 0
M  V30 6223 H 574.849 0.985433 -6.39451 0
M  V30 6224 N 574.981 1.5647 0.188427 0
M  V30 6225 C 575.944 1.9421 1.21718 0
M  V30 6226 C 576.944 0.823901 1.38089 0
M  V30 6227 O 578.134 1.09122 1.35787 0
M  V30 6228 C 575.266 2.22197 2.58537 0
M  V30 6229 H 576.459 2.86252 0.894418 0
M  V30 6230 H 574.012 1.50263 0.430211 0
M  V30 6231 H 574.747 1.32814 2.95856 0
M  V30 6232 H 574.532 3.03688 2.48025 0
M  V30 6233 H 576.022 2.52376 3.3271 0
M  V30 6234 N 576.459 -0.456382 1.50847 0
M  V30 6235 C 577.406 -1.55249 1.70782 0
M  V30 6236 C 578.376 -1.56757 0.549231 0
M  V30 6237 O 579.561 -1.74061 0.7815 0
M  V30 6238 C 576.701 -2.93118 1.82143 0
M  V30 6239 C 575.814 -3.01285 3.09598 0
M  V30 6240 C 574.949 -4.30159 3.11667 0
M  V30 6241 C 573.988 -4.32124 4.33515 0
M  V30 6242 N 573.125 -5.52492 4.3324 0
M  V30 6243 H 577.965 -1.37555 2.64353 0
M  V30 6244 H 575.502 -0.668543 1.3103 0
M  V30 6245 H 577.46 -3.73088 1.86711 0
M  V30 6246 H 576.09 -3.09413 0.919978 0
M  V30 6247 H 575.142 -2.14096 3.14431 0
M  V30 6248 H 576.454 -2.98597 3.99551 0
M  V30 6249 H 575.608 -5.18489 3.15046 0
M  V30 6250 H 574.347 -4.35477 2.1957 0
M  V30 6251 H 573.352 -3.42189 4.30333 0
M  V30 6252 H 574.577 -4.28485 5.26856 0
M  V30 6253 H 572.523 -5.58567 3.44004 0
M  V30 6254 H 572.44 -5.51605 5.16979 0
M  V30 6255 H 573.708 -6.42906 4.40786 0
M  V30 6256 N 577.937 -1.40673 -0.710563 0
M  V30 6257 C 579.162 -1.42741 -1.50465 0
M  V30 6258 C 579.587 -0.0302116 -1.88076 0
M  V30 6259 O 578.945 0.962945 -1.53613 0
M  V30 6260 C 578.993 -2.32873 -2.75322 0
M  V30 6261 O 578.097 -1.77544 -3.72226 0
M  V30 6262 H 577.438 -0.485056 -0.45345 0
M  V30 6263 H 579.968 -1.84961 -0.874681 0
M  V30 6264 H 579.978 -2.48233 -3.23797 0
M  V30 6265 H 578.653 -3.34401 -2.47283 0
M  V30 6266 H 577.23 -1.71556 -3.31093 0
M  V30 6267 N 579.415 0.9433 -1.26252 0
M  V30 6268 C 580.378 2.02326 -1.07689 0
M  V30 6269 C 581.378 1.60779 -0.0259174 0
M  V30 6270 O 582.568 1.72108 -0.269134 0
M  V30 6271 C 579.7 3.34886 -0.63752 0
M  V30 6272 H 580.893 2.20225 -2.0357 0
M  V30 6273 H 578.446 1.12197 -1.08819 0
M  V30 6274 H 579.181 3.22684 0.323377 0
M  V30 6275 H 578.966 3.66393 -1.39637 0
M  V30 6276 H 580.456 4.14231 -0.529418 0
M  V30 6277 N 580.893 1.08022 1.14757 0
M  V30 6278 C 582.121 0.828847 1.89572 0
M  V30 6279 C 582.536 -0.618621 1.78377 0
M  V30 6280 O 581.893 -1.42482 1.1404 0
M  V30 6281 C 581.944 1.23677 3.39685 0
M  V30 6282 O 581.665 2.62746 3.50566 0
M  V30 6283 C 583.166 1.01569 4.31507 0
M  V30 6284 H 580.386 0.299196 0.600602 0
M  V30 6285 H 582.93 1.43846 1.45357 0
M  V30 6286 H 581.085 0.671347 3.81539 0
M  V30 6287 H 581.499 2.79573 4.43778 0
M  V30 6288 H 582.973 1.35055 5.35223 0
M  V30 6289 H 583.45 -0.0475433 4.39174 0
M  V30 6290 H 584.056 1.56636 3.95405 0
M  V30 6291 N 582.371 -1.3172 0.865308 0
M  V30 6292 C 583.62 -1.96145 0.470098 0
M  V30 6293 C 583.933 -1.69182 -0.981674 0
M  V30 6294 O 585.139 -2.27431 -1.48281 0
M  V30 6295 C 583.595 -3.51129 0.789732 0
M  V30 6296 C 583.203 -3.86938 2.25795 0
M  V30 6297 C 584.947 -4.2197 0.462765 0
M  V30 6298 C 582.854 -5.35012 2.52024 0
M  V30 6299 H 581.784 -0.734105 0.172065 0
M  V30 6300 H 584.435 -1.49959 1.05757 0
M  V30 6301 H 582.817 -3.95781 0.131571 0
M  V30 6302 H 583.991 -3.5326 2.95879 0
M  V30 6303 H 582.306 -3.29149 2.55049 0
M  V30 6304 H 584.903 -5.30904 0.636019 0
M  V30 6305 H 585.246 -4.12005 -0.59645 0
M  V30 6306 H 585.779 -3.82936 1.07727 0
M  V30 6307 H 582.518 -5.50008 3.56611 0
M  V30 6308 H 582.038 -5.70058 1.8653 0
M  V30 6309 H 583.717 -6.0222 2.36515 0
M  V30 6310 N 583.85 -0.624285 -1.44708 0
M  V30 6311 C 584.76 0.0861083 -2.34442 0
M  V30 6312 C 585.776 0.84291 -1.5222 0
M  V30 6313 O 586.952 0.796723 -1.84971 0
M  V30 6314 C 584.017 1.05999 -3.30099 0
M  V30 6315 C 583.077 0.303316 -4.28227 0
M  V30 6316 C 582.311 1.23081 -5.19314 0
M  V30 6317 O 582.534 2.46929 -5.14181 0
M  V30 6318 O 581.468 0.71883 -5.97592 0
M  V30 6319 H 585.293 -0.651756 -2.96624 0
M  V30 6320 H 582.879 -0.384493 -1.44368 0
M  V30 6321 H 584.76 1.62046 -3.88997 0
M  V30 6322 H 583.436 1.77859 -2.70459 0
M  V30 6323 H 582.343 -0.300033 -3.72895 0
M  V30 6324 H 583.676 -0.375123 -4.90768 0
M  V30 6325 N 585.328 1.53329 -0.364422 0
M  V30 6326 C 586.739 1.86345 0.115039 0
M  V30 6327 C 587.09 1.28505 1.4826 0
M  V30 6328 O 586.215 0.606639 2.07723 0
M  V30 6329 C 586.81 3.38114 0.215522 0
M  V30 6330 C 585.369 3.70932 0.639237 0
M  V30 6331 C 584.516 2.76471 -0.214261 0
M  V30 6332 H 587.467 1.47593 -0.583258 0
M  V30 6333 H 587.488 3.66031 1.0393 0
M  V30 6334 H 587 3.80182 -0.779948 0
M  V30 6335 H 585.101 3.3442 1.64298 0
M  V30 6336 H 585.214 4.77302 0.41465 0
M  V30 6337 H 583.578 2.52724 0.316678 0
M  V30 6338 H 584.361 3.21373 -1.20725 0
M  V30 6339 N 586.806 0.0935595 1.57322 0
M  V30 6340 C 587.753 -0.865935 2.1394 0
M  V30 6341 C 588.723 -1.28083 1.05754 0
M  V30 6342 O 589.908 -1.36285 1.33533 0
M  V30 6343 C 587.048 -2.12023 2.72287 0
M  V30 6344 C 586.161 -1.756 3.94701 0
M  V30 6345 C 585.296 -2.95804 4.41218 0
M  V30 6346 C 584.335 -2.555 5.56225 0
M  V30 6347 N 583.472 -3.68534 5.97601 0
M  V30 6348 H 588.312 -0.376261 2.95615 0
M  V30 6349 H 585.849 -0.174052 1.46067 0
M  V30 6350 H 587.807 -2.85477 3.04235 0
M  V30 6351 H 586.437 -2.58492 1.93343 0
M  V30 6352 H 585.489 -0.921208 3.69077 0
M  V30 6353 H 586.801 -1.41964 4.78171 0
M  V30 6354 H 585.955 -3.77513 4.74941 0
M  V30 6355 H 584.694 -3.32649 3.56645 0
M  V30 6356 H 583.699 -1.72218 5.22131 0
M  V30 6357 H 584.924 -2.19801 6.42545 0
M  V30 6358 H 582.87 -4.051 5.15974 0
M  V30 6359 H 582.787 -3.38737 6.75865 0
M  V30 6360 H 584.055 -4.50757 6.35955 0
M  V30 6361 N 588.284 -1.56567 -0.180126 0
M  V30 6362 C 589.194 -1.98947 -1.24327 0
M  V30 6363 C 590.21 -0.899446 -1.4895 0
M  V30 6364 O 591.386 -1.20639 -1.61271 0
M  V30 6365 C 588.451 -2.33328 -2.56435 0
M  V30 6366 C 587.512 -3.56114 -2.39752 0
M  V30 6367 C 586.745 -3.88845 -3.65561 0
M  V30 6368 O 586.968 -3.22662 -4.70368 0
M  V30 6369 O 585.902 -4.82226 -3.60197 0
M  V30 6370 H 589.728 -2.89634 -0.913565 0
M  V30 6371 H 587.313 -1.44319 -0.386306 0
M  V30 6372 H 589.195 -2.5645 -3.34382 0
M  V30 6373 H 587.87 -1.45806 -2.89002 0
M  V30 6374 H 586.777 -3.38221 -1.59866 0
M  V30 6375 H 588.11 -4.4415 -2.12113 0
M  V30 6376 N 589.762 0.448376 -1.51087 0
M  V30 6377 C 591.008 1.20049 -1.6345 0
M  V30 6378 C 591.341 1.91121 -0.344444 0
M  V30 6379 O 590.616 1.83125 0.655396 0
M  V30 6380 C 590.899 2.22624 -2.83038 0
M  V30 6381 C 590.752 1.55708 -4.21989 0
M  V30 6382 C 592.071 3.23718 -2.98152 0
M  V30 6383 H 589.19 0.435085 -0.59487 0
M  V30 6384 H 591.832 0.491183 -1.83541 0
M  V30 6385 H 589.982 2.83117 -2.66039 0
M  V30 6386 H 591.654 0.986367 -4.50631 0
M  V30 6387 H 589.897 0.859647 -4.25197 0
M  V30 6388 H 590.568 2.30357 -5.01637 0
M  V30 6389 H 593.044 2.73269 -3.13788 0
M  V30 6390 H 591.92 3.92795 -3.83411 0
M  V30 6391 H 592.181 3.89179 -2.09743 0
M  V30 6392 N 591.24 1.41047 0.703093 0
M  V30 6393 C 592.187 1.42302 1.81711 0
M  V30 6394 C 593.157 0.278336 1.63751 0
M  V30 6395 O 594.342 0.478266 1.84709 0
M  V30 6396 C 591.482 1.30362 3.19531 0
M  V30 6397 C 590.595 2.54638 3.48975 0
M  V30 6398 C 589.73 2.35047 4.76368 0
M  V30 6399 C 588.769 3.54837 4.98756 0
M  V30 6400 N 587.906 3.34363 6.1737 0
M  V30 6401 H 592.746 2.37516 1.79973 0
M  V30 6402 H 590.283 1.1795 0.878983 0
M  V30 6403 H 592.241 1.21443 3.99134 0
M  V30 6404 H 590.871 0.387602 3.20464 0
M  V30 6405 H 589.923 2.74037 2.63833 0
M  V30 6406 H 591.235 3.43766 3.61423 0
M  V30 6407 H 590.389 2.23552 5.64012 0
M  V30 6408 H 589.128 1.43363 4.66153 0
M  V30 6409 H 588.133 3.66795 4.09563 0
M  V30 6410 H 589.358 4.47464 5.10835 0
M  V30 6411 H 587.304 2.45373 6.08382 0
M  V30 6412 H 587.221 4.17063 6.30551 0
M  V30 6413 H 588.489 3.26626 7.07768 0
M  V30 6414 N 592.718 -0.936591 1.26751 0
M  V30 6415 C 594.129 -1.49816 1.1141 0
M  V30 6416 C 594.48 -1.9383 -0.304015 0
M  V30 6417 O 593.605 -1.80346 -1.196 0
M  V30 6418 C 594.2 -2.72271 2.01629 0
M  V30 6419 C 592.759 -3.2468 1.9042 0
M  V30 6420 C 591.906 -1.97444 1.94708 0
M  V30 6421 H 594.857 -0.751604 1.39773 0
M  V30 6422 H 594.878 -3.46741 1.56688 0
M  V30 6423 H 594.39 -2.40205 3.04833 0
M  V30 6424 H 592.491 -3.61525 0.901674 0
M  V30 6425 H 592.604 -3.91476 2.76195 0
M  V30 6426 H 590.968 -2.13545 1.38818 0
M  V30 6427 H 591.751 -1.67703 2.9955 0
M  V30 6428 N 594.196 -1.08629 -1.14182 0
M  V30 6429 C 595.106 -0.730126 -2.22949 0
M  V30 6430 C 596.122 0.26436 -1.7198 0
M  V30 6431 O 597.298 0.107742 -2.01112 0
M  V30 6432 C 594.363 -0.147227 -3.46387 0
M  V30 6433 C 593.424 -1.19662 -4.12286 0
M  V30 6434 C 592.657 -0.641437 -5.29831 0
M  V30 6435 O 592.88 0.538351 -5.67854 0
M  V30 6436 O 591.814 -1.39257 -5.85569 0
M  V30 6437 H 595.64 -1.63753 -2.55771 0
M  V30 6438 H 593.225 -0.860118 -1.22157 0
M  V30 6439 H 595.107 0.174923 -4.21037 0
M  V30 6440 H 593.782 0.733304 -3.15285 0
M  V30 6441 H 592.689 -1.57133 -3.395 0
M  V30 6442 H 594.022 -2.0495 -4.475 0
M  V30 6443 N 595.674 1.31259 -0.872281 0
M  V30 6444 C 596.902 2.00795 -0.498907 0
M  V30 6445 C 597.317 1.65464 0.909238 0
M  V30 6446 O 596.674 0.885073 1.59602 0
M  V30 6447 C 596.725 3.55625 -0.649092 0
M  V30 6448 O 596.446 3.89692 -2.00179 0
M  V30 6449 C 597.947 4.42434 -0.277034 0
M  V30 6450 H 595.167 0.642299 -0.194145 0
M  V30 6451 H 597.711 1.67438 -1.17408 0
M  V30 6452 H 595.866 3.87394 -0.0214402 0
M  V30 6453 H 596.28 4.84407 -2.01122 0
M  V30 6454 H 597.754 5.50299 -0.433064 0
M  V30 6455 H 598.231 4.32146 0.783989 0
M  V30 6456 H 598.837 4.16086 -0.880483 0
M  V30 6457 N 597.152 0.631951 1.44375 0
M  V30 6458 C 598.099 -0.0724807 2.30686 0
M  V30 6459 C 599.069 -0.835975 1.43529 0
M  V30 6460 O 600.254 -0.816849 1.7243 0
M  V30 6461 C 597.394 -1.04753 3.28817 0
M  V30 6462 C 596.507 -0.282367 4.31076 0
M  V30 6463 C 595.642 -1.2493 5.163 0
M  V30 6464 C 594.681 -0.473349 6.10267 0
M  V30 6465 N 593.818 -1.39079 6.88187 0
M  V30 6466 H 598.658 0.669477 2.90383 0
M  V30 6467 H 596.195 0.341927 1.43071 0
M  V30 6468 H 598.153 -1.62623 3.842 0
M  V30 6469 H 596.783 -1.75661 2.70819 0
M  V30 6470 H 595.835 0.412268 3.78159 0
M  V30 6471 H 597.147 0.321955 4.9776 0
M  V30 6472 H 596.301 -1.89931 5.76204 0
M  V30 6473 H 595.04 -1.88755 4.49692 0
M  V30 6474 H 594.045 0.190142 5.49471 0
M  V30 6475 H 595.27 0.16019 6.78911 0
M  V30 6476 H 593.216 -2.01623 6.24247 0
M  V30 6477 H 593.133 -0.840513 7.51313 0
M  V30 6478 H 594.401 -2.02961 7.52613 0
M  V30 6479 N 598.631 -1.53133 0.372548 0
M  V30 6480 C 600.042 -1.86404 -0.105155 0
M  V30 6481 C 600.393 -1.29289 -1.47576 0
M  V30 6482 O 599.518 -0.617646 -2.07398 0
M  V30 6483 C 600.113 -3.38223 -0.197588 0
M  V30 6484 C 598.672 -3.71266 -0.619556 0
M  V30 6485 C 597.819 -2.76353 0.228919 0
M  V30 6486 H 600.77 -1.47282 0.591077 0
M  V30 6487 H 600.791 -3.66577 -1.01987 0
M  V30 6488 H 600.303 -3.79763 0.800099 0
M  V30 6489 H 598.404 -3.35287 -1.62522 0
M  V30 6490 H 598.517 -4.77515 -0.389332 0
M  V30 6491 H 596.881 -2.52888 -0.303271 0
M  V30 6492 H 597.664 -3.20728 1.22428 0
M  V30 6493 N 600.109 -0.101901 -1.5727 0
M  V30 6494 C 601.52 0.426173 -1.81771 0
M  V30 6495 C 601.871 1.67725 -1.01797 0
M  V30 6496 O 600.996 2.14958 -0.249386 0
M  V30 6497 C 601.591 0.779962 -3.297 0
M  V30 6498 C 600.15 1.25275 -3.54941 0
M  V30 6499 C 599.297 0.252814 -2.76145 0
M  V30 6500 H 602.248 -0.32726 -1.55289 0
M  V30 6501 H 602.269 1.63891 -3.43395 0
M  V30 6502 H 601.781 -0.130778 -3.8788 0
M  V30 6503 H 599.882 2.18097 -3.021 0
M  V30 6504 H 599.995 1.20988 -4.63572 0
M  V30 6505 H 598.359 0.736362 -2.43823 0
M  V30 6506 H 599.142 -0.650724 -3.37076 0
M  V30 6507 N 601.587 1.56661 0.17182 0
M  V30 6508 C 602.497 1.99604 1.2327 0
M  V30 6509 C 603.513 0.907333 1.4847 0
M  V30 6510 O 604.689 1.21492 1.60629 0
M  V30 6511 C 601.754 2.34685 2.55194 0
M  V30 6512 C 600.815 3.57381 2.3786 0
M  V30 6513 C 600.048 3.90779 3.63494 0
M  V30 6514 O 600.271 3.25152 4.6865 0
M  V30 6515 O 599.205 4.84129 3.57634 0
M  V30 6516 H 603.031 2.90114 0.898192 0
M  V30 6517 H 600.616 1.44522 0.378647 0
M  V30 6518 H 602.498 2.5822 3.33017 0
M  V30 6519 H 601.173 1.47336 2.88225 0
M  V30 6520 H 600.08 3.39064 1.5807 0
M  V30 6521 H 601.413 4.45268 2.09754 0
M  V30 6522 N 603.065 -0.440357 1.51323 0
M  V30 6523 C 604.476 -1.02032 1.56353 0
M  V30 6524 C 604.827 -1.92382 0.385197 0
M  V30 6525 O 603.952 -2.10583 -0.498373 0
M  V30 6526 C 604.547 -1.85723 2.83359 0
M  V30 6527 C 603.106 -2.38774 2.90971 0
M  V30 6528 C 602.253 -1.17908 2.50984 0
M  V30 6529 H 605.204 -0.221744 1.57143 0
M  V30 6530 H 605.225 -2.71141 2.66951 0
M  V30 6531 H 604.737 -1.19939 3.69102 0
M  V30 6532 H 602.838 -3.08021 2.09651 0
M  V30 6533 H 602.951 -2.71778 3.94555 0
M  V30 6534 H 601.315 -1.52347 2.04114 0
M  V30 6535 H 602.098 -0.537393 3.39068 0
M  V30 6536 N 604.543 -1.41418 -0.695603 0
M  V30 6537 C 605.49 -1.43264 -1.80954 0
M  V30 6538 C 606.46 -0.287016 -1.63601 0
M  V30 6539 O 607.645 -0.488054 -1.84452 0
M  V30 6540 C 604.785 -1.32054 -3.18835 0
M  V30 6541 C 603.898 -2.56485 -3.4762 0
M  V30 6542 C 603.033 -2.3757 -4.75115 0
M  V30 6543 C 602.072 -3.57477 -4.96867 0
M  V30 6544 N 601.209 -3.37632 -6.15588 0
M  V30 6545 H 606.049 -2.38467 -1.78711 0
M  V30 6546 H 603.586 -1.18415 -0.872715 0
M  V30 6547 H 605.544 -1.23558 -3.98484 0
M  V30 6548 H 604.174 -0.404592 -3.20254 0
M  V30 6549 H 603.226 -2.75432 -2.62376 0
M  V30 6550 H 604.538 -3.45678 -3.59594 0
M  V30 6551 H 603.692 -2.2654 -5.62818 0
M  V30 6552 H 602.431 -1.45834 -4.65386 0
M  V30 6553 H 601.436 -3.68961 -4.07612 0
M  V30 6554 H 602.661 -4.50167 -5.08455 0
M  V30 6555 H 600.607 -2.48596 -6.07072 0
M  V30 6556 H 600.524 -4.20401 -6.2833 0
M  V30 6557 H 601.792 -3.30375 -7.06026 0
M  V30 6558 N 606.021 0.929856 -1.27246 0
M  V30 6559 C 606.968 2.03017 -1.09785 0
M  V30 6560 C 607.938 1.661 0.000456744 0
M  V30 6561 O 609.123 1.90116 -0.161462 0
M  V30 6562 C 606.263 3.36878 -0.748816 0
M  V30 6563 C 605.376 3.86763 -1.92453 0
M  V30 6564 C 604.511 5.09061 -1.51758 0
M  V30 6565 C 603.55 5.51237 -2.66091 0
M  V30 6566 N 602.687 6.64732 -2.25999 0
M  V30 6567 H 607.527 2.17285 -2.03939 0
M  V30 6568 H 605.064 1.06448 -1.01524 0
M  V30 6569 H 607.022 4.13855 -0.527283 0
M  V30 6570 H 605.652 3.22424 0.155771 0
M  V30 6571 H 604.704 3.06086 -2.25867 0
M  V30 6572 H 606.016 4.13994 -2.78227 0
M  V30 6573 H 605.17 5.93532 -1.25716 0
M  V30 6574 H 603.909 4.83602 -0.630896 0
M  V30 6575 H 602.914 4.65316 -2.92849 0
M  V30 6576 H 604.139 5.78692 -3.55377 0
M  V30 6577 H 602.085 6.40935 -1.3978 0
M  V30 6578 H 602.002 6.91607 -3.05313 0
M  V30 6579 H 603.27 7.52549 -2.03199 0
M  V30 6580 N 607.499 1.09233 1.13605 0
M  V30 6581 C 608.727 0.848908 1.88683 0
M  V30 6582 C 609.142 -0.599667 1.79024 0
M  V30 6583 O 608.499 -1.41265 1.15544 0
M  V30 6584 C 608.55 1.27273 3.38355 0
M  V30 6585 O 608.271 2.66449 3.47759 0
M  V30 6586 C 609.772 1.0614 4.30406 0
M  V30 6587 H 606.992 0.305549 0.597395 0
M  V30 6588 H 609.536 1.4538 1.43823 0
M  V30 6589 H 607.691 0.711776 3.80805 0
M  V30 6590 H 608.105 2.84264 4.40788 0
M  V30 6591 H 609.579 1.40725 5.33761 0
M  V30 6592 H 610.056 -0.000960332 4.392 0
M  V30 6593 H 610.662 1.60821 3.93722 0
M  V30 6594 N 608.977 -1.30795 0.87923 0
M  V30 6595 C 610.224 -1.96362 0.494786 0
M  V30 6596 C 610.552 -1.69448 -0.954868 0
M  V30 6597 O 609.807 -0.988711 -1.68888 0
M  V30 6598 C 610.106 -3.50287 0.709476 0
M  V30 6599 C 609.772 -3.9724 2.13333 0
M  V30 6600 C 608.434 -4.09772 2.52271 0
M  V30 6601 C 610.786 -4.21807 3.06151 0
M  V30 6602 C 608.114 -4.44227 3.83248 0
M  V30 6603 C 610.466 -4.5773 4.36654 0
M  V30 6604 C 609.13 -4.68469 4.75492 0
M  V30 6605 H 608.4 -0.71854 0.181055 0
M  V30 6606 H 611.047 -1.55764 1.11399 0
M  V30 6607 H 609.352 -3.91799 0.0072 0
M  V30 6608 H 611.049 -3.99082 0.391703 0
M  V30 6609 H 607.639 -3.87988 1.82107 0
M  V30 6610 H 611.823 -4.11611 2.77291 0
M  V30 6611 H 607.079 -4.50741 4.13089 0
M  V30 6612 H 611.253 -4.7569 5.08617 0
M  V30 6613 H 608.88 -4.94923 5.77022 0
M  V30 6614 N 610.455 -0.639598 -1.44038 0
M  V30 6615 C 611.403 0.0723409 -2.32487 0
M  V30 6616 C 612.397 0.827129 -1.47834 0
M  V30 6617 O 613.603 0.73907 -1.64127 0
M  V30 6618 H 609.978 0.0421696 -0.750817 0
M  V30 6619 H 611.949 -0.691593 -2.90275 0
M  V30 6620 C 610.698 1.03452 -3.31953 0
M  V30 6621 H 610.021 0.46315 -3.97108 0
M  V30 6622 H 611.461 1.502 -3.96505 0
M  V30 6623 C 609.92 2.12392 -2.61518 0
M  V30 6624 O 610.45 3.2059 -2.42044 0
M  V30 6625 N 608.656 1.88563 -2.21116 0
M  V30 6626 H 608.203 1.00577 -2.37154 0
M  V30 6627 H 608.161 2.61651 -1.74316 0
M  V30 6628 N 611.933 1.52934 -0.380664 0
M  V30 6629 C 613.158 2.06363 0.207157 0
M  V30 6630 C 613.583 1.25122 1.4045 0
M  V30 6631 O 612.941 0.274062 1.79217 0
M  V30 6632 C 612.989 3.56162 0.563996 0
M  V30 6633 O 612.093 3.77552 1.65917 0
M  V30 6634 H 611.434 0.663468 0.0265859 0
M  V30 6635 H 613.964 1.9719 -0.545635 0
M  V30 6636 H 613.974 3.99453 0.830752 0
M  V30 6637 H 612.649 4.14732 -0.311427 0
M  V30 6638 H 611.226 3.46154 1.3868 0
M  V30 6639 N 613.412 0.11024 1.57214 0
M  V30 6640 C 614.658 -0.550684 1.9518 0
M  V30 6641 C 614.991 -1.66885 0.993122 0
M  V30 6642 O 614.266 -1.94479 0.0287907 0
M  V30 6643 C 614.549 -1.09163 3.43155 0
M  V30 6644 C 614.402 0.0225198 4.49794 0
M  V30 6645 C 615.721 -1.98527 3.92778 0
M  V30 6646 H 612.84 -0.198706 0.709708 0
M  V30 6647 H 615.482 0.184024 1.89107 0
M  V30 6648 H 613.632 -1.71775 3.48462 0
M  V30 6649 H 615.304 0.657443 4.56591 0
M  V30 6650 H 613.547 0.686868 4.28328 0
M  V30 6651 H 614.218 -0.39706 5.5057 0
M  V30 6652 H 616.694 -1.458 3.8972 0
M  V30 6653 H 615.57 -2.33298 4.96853 0
M  V30 6654 H 615.831 -2.90846 3.32958 0
M  V30 6655 N 614.89 -1.56749 -0.16351 0
M  V30 6656 C 616.115 -1.86938 -0.898264 0
M  V30 6657 C 616.54 -0.697456 -1.74692 0
M  V30 6658 O 615.898 0.353327 -1.77824 0
M  V30 6659 C 615.946 -3.15599 -1.74441 0
M  V30 6660 O 615.05 -2.98371 -2.8469 0
M  V30 6661 H 614.391 -0.614659 -0.251178 0
M  V30 6662 H 616.921 -2.03979 -0.159298 0
M  V30 6663 H 616.931 -3.47202 -2.14277 0
M  V30 6664 H 615.606 -4.00505 -1.1211 0
M  V30 6665 H 614.183 -2.7814 -2.4838 0
M  V30 6666 N 616.368 0.432326 -1.51554 0
M  V30 6667 C 617.315 1.52512 -1.7323 0
M  V30 6668 C 618.285 1.55863 -0.5741 0
M  V30 6669 O 619.47 1.72796 -0.809093 0
M  V30 6670 C 616.61 2.90183 -1.86783 0
M  V30 6671 C 615.723 2.96322 -3.14352 0
M  V30 6672 C 614.858 4.25147 -3.18471 0
M  V30 6673 C 613.897 4.25172 -4.40335 0
M  V30 6674 N 613.034 5.45529 -4.41975 0
M  V30 6675 H 617.874 1.33332 -2.66508 0
M  V30 6676 H 615.411 0.647613 -1.32077 0
M  V30 6677 H 617.369 3.70071 -1.92623 0
M  V30 6678 H 615.999 3.0791 -0.969087 0
M  V30 6679 H 615.051 2.09066 -3.17798 0
M  V30 6680 H 616.363 2.92203 -4.04251 0
M  V30 6681 H 615.517 5.13411 -3.23255 0
M  V30 6682 H 614.256 4.31929 -2.2647 0
M  V30 6683 H 613.261 3.353 -4.35723 0
M  V30 6684 H 614.486 4.20049 -5.33606 0
M  V30 6685 H 612.432 5.53024 -3.52847 0
M  V30 6686 H 612.349 5.43311 -5.25689 0
M  V30 6687 H 613.617 6.35812 -4.50958 0
M  V30 6688 N 617.846 1.41785 0.688094 0
M  V30 6689 C 619.095 1.4084 1.44385 0
M  V30 6690 C 619.408 0.0234166 1.95586 0
M  V30 6691 O 620.614 -0.108647 2.71283 0
M  V30 6692 C 619.07 2.47675 2.61123 0
M  V30 6693 C 618.678 3.92116 2.16677 0
M  V30 6694 C 620.422 2.55877 3.38714 0
M  V30 6695 C 618.329 4.90487 3.30419 0
M  V30 6696 H 617.259 0.523787 0.542368 0
M  V30 6697 H 619.91 1.6764 0.74627 0
M  V30 6698 H 618.292 2.14018 3.33185 0
M  V30 6699 H 619.466 4.35059 1.51856 0
M  V30 6700 H 617.781 3.87642 1.5206 0
M  V30 6701 H 620.378 3.26553 4.234 0
M  V30 6702 H 620.721 1.59801 3.84408 0
M  V30 6703 H 621.254 2.88662 2.73714 0
M  V30 6704 H 617.993 5.87994 2.89729 0
M  V30 6705 H 617.513 4.52187 3.94065 0
M  V30 6706 H 619.192 5.11591 3.96085 0
M  V30 6707 N 619.324 -0.923095 1.27737 0
M  V30 6708 C 620.601 -1.64989 1.05062 0
M  V30 6709 C 620.981 -2.07018 -0.413124 0
M  V30 6710 O 620.329 -1.80797 -1.39731 0
M  V30 6711 C 620.539 -2.84847 2.01652 0
M  V30 6712 C 621.887 -3.56083 2.31279 0
M  V30 6713 O 622.911 -2.94981 1.99662 0
M  V30 6714 O 621.77 -4.66182 2.85196 0
M  V30 6715 H 618.864 -0.723357 0.400853 0
M  V30 6716 H 621.41 -0.973224 1.3902 0
M  V30 6717 H 620.182 -2.50814 3.00347 0
M  V30 6718 H 619.805 -3.60231 1.68284 0
M  V30 6719 N 620.802 -1.09834 -1.13024 0
M  V30 6720 C 622.218 -0.828875 -1.36388 0
M  V30 6721 C 622.418 0.554756 -1.93713 0
M  V30 6722 O 621.474 1.30882 -2.15931 0
M  V30 6723 C 622.787 -1.92352 -2.3113 0
M  V30 6724 C 624.335 -1.95124 -2.44735 0
M  V30 6725 C 624.81 -3.03745 -3.42787 0
M  V30 6726 N 626.301 -3.03012 -3.5034 0
M  V30 6727 C 627.036 -3.83699 -4.26101 0
M  V30 6728 N 626.532 -4.74306 -5.04981 0
M  V30 6729 N 628.325 -3.71942 -4.21445 0
M  V30 6730 H 620.476 -1.99029 -0.74169 0
M  V30 6731 H 622.739 -0.864557 -0.388903 0
M  V30 6732 H 622.445 -2.91906 -1.96172 0
M  V30 6733 H 622.319 -1.80536 -3.3119 0
M  V30 6734 H 624.706 -0.962069 -2.78977 0
M  V30 6735 H 624.787 -2.11018 -1.44586 0
M  V30 6736 H 624.431 -4.02878 -3.09276 0
M  V30 6737 H 624.361 -2.85094 -4.42752 0
M  V30 6738 H 626.852 -2.37352 -2.94062 0
M  V30 6739 H 627.165 -5.32446 -5.60108 0
M  V30 6740 H 625.51 -4.78339 -5.04199 0
M  V30 6741 H 628.701 -3.00513 -3.589 0
M  V30 6742 H 628.874 -4.35062 -4.80235 0
M  V30 6743 N 622.28 1.30327 -0.886154 0
M  V30 6744 C 623.21 2.30549 -0.370028 0
M  V30 6745 C 624.191 1.61039 0.547751 0
M  V30 6746 O 625.376 1.8864 0.461353 0
M  V30 6747 C 622.506 3.44808 0.415275 0
M  V30 6748 C 621.46 4.26024 -0.41085 0
M  V30 6749 C 620.786 5.32347 0.501128 0
M  V30 6750 C 622.086 4.95433 -1.65359 0
M  V30 6751 H 623.78 2.73969 -1.20754 0
M  V30 6752 H 621.326 1.3171 -0.582097 0
M  V30 6753 H 623.279 4.13986 0.78699 0
M  V30 6754 H 622.003 3.00197 1.28644 0
M  V30 6755 H 620.662 3.58535 -0.764719 0
M  V30 6756 H 620.31 4.83982 1.37004 0
M  V30 6757 H 620.01 5.87581 -0.0478356 0
M  V30 6758 H 621.534 6.0438 0.869333 0
M  V30 6759 H 622.948 5.5712 -1.35239 0
M  V30 6760 H 621.345 5.60537 -2.14284 0
M  V30 6761 H 622.415 4.21493 -2.39733 0
M  V30 6762 N 623.758 0.647228 1.43697 0
M  V30 6763 C 624.983 0.164083 2.0675 0
M  V30 6764 C 625.408 -1.15892 1.48158 0
M  V30 6765 O 624.766 -1.71459 0.589194 0
M  V30 6766 C 624.814 0.0800368 3.60511 0
M  V30 6767 O 623.918 -0.959453 4.01084 0
M  V30 6768 H 623.259 0.0921288 0.657578 0
M  V30 6769 H 625.789 0.88846 1.84303 0
M  V30 6770 H 625.799 -0.105263 4.07864 0
M  V30 6771 H 624.474 1.04586 4.02535 0
M  V30 6772 H 623.051 -0.747425 3.65333 0
M  V30 6773 N 625.236 -1.5273 0.388769 0
M  V30 6774 C 626.652 -1.59553 0.0387049 0
M  V30 6775 C 626.852 -1.40278 -1.44652 0
M  V30 6776 O 625.908 -1.21951 -2.21098 0
M  V30 6777 C 627.221 -2.9625 0.515409 0
M  V30 6778 C 628.769 -3.09426 0.471621 0
M  V30 6779 C 629.244 -4.48572 0.924505 0
M  V30 6780 N 630.735 -4.54754 0.880496 0
M  V30 6781 C 631.47 -5.60653 1.20234 0
M  V30 6782 N 630.966 -6.74198 1.59463 0
M  V30 6783 N 632.759 -5.50755 1.12363 0
M  V30 6784 H 624.91 -1.63508 1.35569 0
M  V30 6785 H 627.173 -0.768097 0.555636 0
M  V30 6786 H 626.879 -3.15569 1.5527 0
M  V30 6787 H 626.753 -3.77102 -0.085792 0
M  V30 6788 H 629.14 -2.89804 -0.556588 0
M  V30 6789 H 629.221 -2.30528 1.10862 0
M  V30 6790 H 628.865 -4.68936 1.95094 0
M  V30 6791 H 628.795 -5.25935 0.264524 0
M  V30 6792 H 631.286 -3.73237 0.591815 0
M  V30 6793 H 631.599 -7.5097 1.82385 0
M  V30 6794 H 629.944 -6.75531 1.63349 0
M  V30 6795 H 633.135 -4.6093 0.816169 0
M  V30 6796 H 633.308 -6.33184 1.37777 0
M  V30 6797 N 626.714 -0.118576 -1.57153 0
M  V30 6798 C 627.963 0.539339 -1.94355 0
M  V30 6799 C 628.276 1.67858 -1.00415 0
M  V30 6800 O 629.482 2.39922 -1.27081 0
M  V30 6801 C 627.938 1.01082 -3.45414 0
M  V30 6802 C 627.546 -0.0999402 -4.47889 0
M  V30 6803 C 629.29 1.64013 -3.91535 0
M  V30 6804 C 627.197 0.388212 -5.90124 0
M  V30 6805 H 626.127 0.205247 -0.725527 0
M  V30 6806 H 628.778 -0.19836 -1.82425 0
M  V30 6807 H 627.16 1.80292 -3.52577 0
M  V30 6808 H 628.334 -0.876189 -4.52393 0
M  V30 6809 H 626.649 -0.635885 -4.11516 0
M  V30 6810 H 629.246 2.01649 -4.95219 0
M  V30 6811 H 629.589 2.51836 -3.31488 0
M  V30 6812 H 630.122 0.913439 -3.87171 0
M  V30 6813 H 626.861 -0.453963 -6.53926 0
M  V30 6814 H 626.381 1.13095 -5.89041 0
M  V30 6815 H 628.06 0.849574 -6.41398 0
M  V30 6816 N 628.193 1.56834 0.155195 0
M  V30 6817 C 629.156 1.96748 1.17571 0
M  V30 6818 C 630.156 0.853006 1.3631 0
M  V30 6819 O 631.346 1.11978 1.33441 0
M  V30 6820 C 628.478 2.27631 2.53765 0
M  V30 6821 H 629.671 2.88085 0.833498 0
M  V30 6822 H 627.224 1.51141 0.398242 0
M  V30 6823 H 627.959 1.39059 2.92973 0
M  V30 6824 H 627.744 3.0888 2.41527 0
M  V30 6825 H 629.234 2.59377 3.27282 0
M  V30 6826 N 629.671 -0.424282 1.51781 0
M  V30 6827 C 630.918 -1.1726 1.65095 0
M  V30 6828 C 631.246 -1.90881 0.373477 0
M  V30 6829 O 630.501 -1.84835 -0.642997 0
M  V30 6830 C 630.8 -2.20418 2.81337 0
M  V30 6831 C 630.466 -1.63715 4.20129 0
M  V30 6832 C 629.128 -1.47975 4.57883 0
M  V30 6833 C 631.48 -1.22157 5.06682 0
M  V30 6834 C 628.808 -0.891703 5.79884 0
M  V30 6835 C 631.16 -0.647767 6.29275 0
M  V30 6836 C 629.824 -0.477371 6.65791 0
M  V30 6837 H 629.094 -0.429085 0.604125 0
M  V30 6838 H 631.741 -0.461852 1.85847 0
M  V30 6839 H 630.046 -2.97581 2.54859 0
M  V30 6840 H 631.743 -2.78163 2.88836 0
M  V30 6841 H 628.333 -1.76946 3.90369 0
M  V30 6842 H 632.517 -1.33133 4.7811 0
M  V30 6843 H 627.773 -0.747563 6.06813 0
M  V30 6844 H 631.947 -0.317291 6.95677 0
M  V30 6845 H 629.574 -0.0195936 7.60197 0
M  V30 6846 N 631.149 -1.42148 -0.680565 0
M  V30 6847 C 632.56 -1.3768 -1.26099 0
M  V30 6848 C 632.911 -0.0672348 -1.96085 0
M  V30 6849 O 632.036 0.834172 -1.99676 0
M  V30 6850 C 632.631 -2.49387 -2.29328 0
M  V30 6851 C 631.19 -2.4827 -2.82911 0
M  V30 6852 C 630.337 -2.2847 -1.57152 0
M  V30 6853 H 633.288 -1.51446 -0.474326 0
M  V30 6854 H 633.309 -2.19307 -3.10941 0
M  V30 6855 H 632.821 -3.44686 -1.78363 0
M  V30 6856 H 630.922 -1.56773 -3.38013 0
M  V30 6857 H 631.035 -3.45109 -3.3232 0
M  V30 6858 H 629.399 -1.76623 -1.83511 0
M  V30 6859 H 630.182 -3.25816 -1.0816 0
M  V30 6860 N 632.627 0.916307 -1.28225 0
M  V30 6861 C 633.557 2.0352 -1.14464 0
M  V30 6862 C 634.538 1.70045 -0.0430844 0
M  V30 6863 O 635.723 1.92954 -0.219619 0
M  V30 6864 C 632.853 3.37889 -0.803027 0
M  V30 6865 C 631.807 3.85516 -1.85908 0
M  V30 6866 C 631.133 5.1682 -1.37116 0
M  V30 6867 C 632.433 4.07655 -3.26519 0
M  V30 6868 H 634.127 2.1529 -2.08064 0
M  V30 6869 H 631.673 1.03446 -1.00174 0
M  V30 6870 H 633.626 4.15654 -0.693537 0
M  V30 6871 H 632.35 3.26164 0.168674 0
M  V30 6872 H 631.009 3.09953 -1.95767 0
M  V30 6873 H 630.657 5.01497 -0.38859 0
M  V30 6874 H 630.357 5.49657 -2.07728 0
M  V30 6875 H 631.881 5.97143 -1.27484 0
M  V30 6876 H 633.295 4.75953 -3.19596 0
M  V30 6877 H 631.692 4.51818 -3.94943 0
M  V30 6878 H 632.762 3.12553 -3.70727 0
M  V30 6879 N 634.105 1.10431 1.1244 0
M  V30 6880 C 635.035 0.775143 2.20258 0
M  V30 6881 C 636.016 -0.25186 1.68225 0
M  V30 6882 O 637.201 -0.117637 1.93843 0
M  V30 6883 C 634.331 0.206133 3.46688 0
M  V30 6884 C 633.285 1.16382 4.11873 0
M  V30 6885 C 632.611 0.456014 5.32752 0
M  V30 6886 C 633.911 2.5104 4.58013 0
M  V30 6887 H 635.605 1.67665 2.4805 0
M  V30 6888 H 633.151 0.807595 1.19222 0
M  V30 6889 H 635.104 -0.036291 4.21384 0
M  V30 6890 H 633.828 -0.730614 3.18323 0
M  V30 6891 H 632.487 1.39169 3.39157 0
M  V30 6892 H 632.135 -0.485203 5.00654 0
M  V30 6893 H 631.835 1.09466 5.77314 0
M  V30 6894 H 633.359 0.222135 6.10196 0
M  V30 6895 H 634.773 2.32401 5.24083 0
M  V30 6896 H 633.17 3.10789 5.13352 0
M  V30 6897 H 634.24 3.11039 3.71998 0
M  V30 6898 N 635.583 -1.29855 0.893053 0
M  V30 6899 C 636.83 -1.95826 0.515585 0
M  V30 6900 C 637.158 -1.70451 -0.936842 0
M  V30 6901 O 636.413 -1.00657 -1.67829 0
M  V30 6902 C 636.712 -3.49515 0.746588 0
M  V30 6903 C 636.378 -3.94955 2.17535 0
M  V30 6904 C 635.04 -4.07073 2.56603 0
M  V30 6905 C 637.392 -4.18536 3.10607 0
M  V30 6906 C 634.72 -4.40138 3.87938 0
M  V30 6907 C 637.072 -4.53073 4.41484 0
M  V30 6908 C 635.736 -4.634 4.80434 0
M  V30 6909 H 635.006 -0.71658 0.188666 0
M  V30 6910 H 637.653 -1.54574 1.13045 0
M  V30 6911 H 635.958 -3.9177 0.0487551 0
M  V30 6912 H 637.655 -3.98644 0.434009 0
M  V30 6913 H 634.245 -3.86035 1.86212 0
M  V30 6914 H 638.429 -4.08646 2.81641 0
M  V30 6915 H 633.685 -4.46335 4.17846 0
M  V30 6916 H 637.859 -4.70269 5.13634 0
M  V30 6917 H 635.486 -4.88775 5.82239 0
M  V30 6918 N 637.061 -0.65484 -1.43351 0
M  V30 6919 C 638.309 -0.168559 -2.01396 0
M  V30 6920 C 638.63 1.22235 -1.51933 0
M  V30 6921 O 637.9 1.81685 -0.732627 0
M  V30 6922 H 636.48 -0.0593244 -0.744641 0
M  V30 6923 H 639.142 -0.846871 -1.75539 0
M  V30 6924 H 638.238 -0.154428 -3.11718 0
M  V30 6925 N 638.539 1.52521 -0.396863 0
M  V30 6926 C 639.788 2.00857 0.184184 0
M  V30 6927 C 640.101 1.28733 1.47265 0
M  V30 6928 O 641.307 1.67821 2.13421 0
M  V30 6929 C 639.763 3.57901 0.378787 0
M  V30 6930 C 639.371 4.38931 -0.896873 0
M  V30 6931 C 641.115 4.14504 0.915789 0
M  V30 6932 C 639.022 5.87591 -0.670133 0
M  V30 6933 H 637.952 0.750496 0.0726055 0
M  V30 6934 H 640.603 1.75965 -0.520425 0
M  V30 6935 H 638.985 3.79072 1.14543 0
M  V30 6936 H 640.159 4.29524 -1.66872 0
M  V30 6937 H 638.474 3.93586 -1.35938 0
M  V30 6938 H 641.071 5.23236 1.10126 0
M  V30 6939 H 641.414 3.71076 1.88701 0
M  V30 6940 H 641.947 3.97253 0.208523 0
M  V30 6941 H 638.686 6.35355 -1.61257 0
M  V30 6942 H 638.206 5.99767 0.0626368 0
M  V30 6943 H 639.885 6.46268 -0.307577 0
M  V30 6944 N 640.017 0.126909 1.57088 0
M  V30 6945 C 641.264 -0.529168 1.95464 0
M  V30 6946 C 641.592 -1.6618 1.01067 0
M  V30 6947 O 640.847 -1.95667 0.0360254 0
M  V30 6948 C 641.146 -1.095 3.40212 0
M  V30 6949 C 640.812 -0.0829015 4.50824 0
M  V30 6950 C 639.474 0.195377 4.80803 0
M  V30 6951 C 641.826 0.606411 5.1766 0
M  V30 6952 C 639.154 1.16912 5.74933 0
M  V30 6953 C 641.506 1.56884 6.12838 0
M  V30 6954 C 640.17 1.85502 6.41206 0
M  V30 6955 H 639.44 -0.193636 0.715252 0
M  V30 6956 H 642.087 0.209489 1.90351 0
M  V30 6957 H 640.392 -1.91058 3.42059 0
M  V30 6958 H 642.089 -1.61087 3.67222 0
M  V30 6959 H 638.679 -0.309979 4.27478 0
M  V30 6960 H 642.863 0.404597 4.94648 0
M  V30 6961 H 638.119 1.3975 5.95214 0
M  V30 6962 H 642.293 2.10859 6.6371 0
M  V30 6963 H 639.92 2.61109 7.13951 0
M  V30 6964 N 641.495 -1.56914 -0.146875 0
M  V30 6965 C 642.443 -1.99224 -1.20053 0
M  V30 6966 C 643.437 -0.884661 -1.44465 0
M  V30 6967 O 644.643 -1.06984 -1.44756 0
M  V30 6968 H 641.018 -0.634191 -0.404112 0
M  V30 6969 H 642.989 -2.86998 -0.816987 0
M  V30 6970 C 641.738 -2.38899 -2.52632 0
M  V30 6971 H 641.061 -3.23677 -2.34677 0
M  V30 6972 H 642.501 -2.72326 -3.24984 0
M  V30 6973 C 640.96 -1.2417 -3.13183 0
M  V30 6974 O 641.49 -0.542503 -3.9802 0
M  V30 6975 N 639.696 -1.00592 -2.72635 0
M  V30 6976 H 639.243 -1.57627 -2.03744 0
M  V30 6977 H 639.201 -0.240174 -3.13481 0
M  V30 6978 N 642.974 0.416227 -1.52004 0
M  V30 6979 C 643.904 1.51365 -1.77795 0
M  V30 6980 C 644.885 1.58059 -0.628601 0
M  V30 6981 O 646.07 1.73447 -0.873478 0
M  V30 6982 C 643.2 2.89256 -1.92219 0
M  V30 6983 C 642.154 2.97415 -3.0778 0
M  V30 6984 C 641.48 4.37492 -3.07417 0
M  V30 6985 C 642.78 2.69551 -4.47369 0
M  V30 6986 H 644.474 1.30033 -2.69688 0
M  V30 6987 H 642.02 0.624112 -1.29772 0
M  V30 6988 H 643.973 3.66008 -2.08845 0
M  V30 6989 H 642.697 3.11866 -0.969917 0
M  V30 6990 H 641.356 2.23107 -2.90893 0
M  V30 6991 H 641.004 4.571 -2.09925 0
M  V30 6992 H 640.704 4.43877 -3.85029 0
M  V30 6993 H 642.228 5.16188 -3.26162 0
M  V30 6994 H 643.642 3.36028 -4.64497 0
M  V30 6995 H 642.039 2.87321 -5.26846 0
M  V30 6996 H 643.109 1.65029 -4.55953 0
M  V30 6997 N 644.452 1.42507 0.673017 0
M  V30 6998 C 645.698 1.43284 1.43519 0
M  V30 6999 C 646.031 0.049668 1.94136 0
M  V30 7000 O 645.306 -0.926369 1.71022 0
M  V30 7001 C 645.589 2.45874 2.63093 0
M  V30 7002 C 645.442 3.93388 2.18096 0
M  V30 7003 C 646.761 2.45431 3.6531 0
M  V30 7004 H 643.88 0.521752 0.520522 0
M  V30 7005 H 646.522 1.73932 0.764701 0
M  V30 7006 H 644.672 2.19869 3.20296 0
M  V30 7007 H 646.344 4.30379 1.66046 0
M  V30 7008 H 644.587 4.07169 1.49652 0
M  V30 7009 H 645.258 4.60752 3.03993 0
M  V30 7010 H 647.734 2.68561 3.17827 0
M  V30 7011 H 646.61 3.19189 4.46553 0
M  V30 7012 H 646.871 1.48092 4.16559 0
M  V30 7013 N 645.93 -0.909495 1.28709 0
M  V30 7014 C 647.16 -1.69027 1.188 0
M  V30 7015 C 647.568 -1.87469 -0.255329 0
M  V30 7016 O 646.911 -1.40458 -1.18394 0
M  V30 7017 C 646.973 -3.10064 1.81936 0
M  V30 7018 C 646.637 -3.14891 3.31199 0
M  V30 7019 C 647.634 -2.95768 4.27571 0
M  V30 7020 C 645.319 -3.37269 3.7223 0
M  V30 7021 C 647.313 -2.98942 5.6295 0
M  V30 7022 C 645 -3.40074 5.07733 0
M  V30 7023 C 645.998 -3.20932 6.02903 0
M  V30 7024 O 645.686 -3.23507 7.35934 0
M  V30 7025 H 645.418 -0.535014 0.413203 0
M  V30 7026 H 647.972 -1.14645 1.70428 0
M  V30 7027 H 646.202 -3.66005 1.24808 0
M  V30 7028 H 647.891 -3.70185 1.66486 0
M  V30 7029 H 648.657 -2.78302 3.97206 0
M  V30 7030 H 644.536 -3.51212 2.98615 0
M  V30 7031 H 648.08 -2.83919 6.37209 0
M  V30 7032 H 643.977 -3.5707 5.37747 0
M  V30 7033 H 644.745 -3.3984 7.44615 0
M  V30 7034 N 647.408 -1.11026 -1.11852 0
M  V30 7035 C 648.654 -0.867633 -1.83967 0
M  V30 7036 C 649.009 0.600309 -1.82795 0
M  V30 7037 O 648.302 1.43731 -1.26696 0
M  V30 7038 C 648.496 -1.35777 -3.30604 0
M  V30 7039 C 648.325 -2.87183 -3.46058 0
M  V30 7040 C 647.095 -3.55256 -3.59334 0
M  V30 7041 C 649.293 -3.85258 -3.40706 0
M  V30 7042 N 647.275 -4.94923 -3.63215 0
M  V30 7043 C 648.646 -5.1097 -3.51155 0
M  V30 7044 C 650.701 -3.77879 -3.2421 0
M  V30 7045 C 649.404 -6.30171 -3.46809 0
M  V30 7046 C 651.43 -4.96586 -3.2118 0
M  V30 7047 C 650.792 -6.21149 -3.32196 0
M  V30 7048 H 646.891 -0.370574 -0.688621 0
M  V30 7049 H 649.475 -1.41379 -1.33865 0
M  V30 7050 H 647.646 -0.83885 -3.79233 0
M  V30 7051 H 649.378 -1.05874 -3.90606 0
M  V30 7052 H 646.133 -3.05714 -3.61713 0
M  V30 7053 H 646.557 -5.67726 -3.68804 0
M  V30 7054 H 651.199 -2.82485 -3.14582 0
M  V30 7055 H 648.917 -7.25847 -3.55206 0
M  V30 7056 H 652.503 -4.92591 -3.09589 0
M  V30 7057 H 651.383 -7.11463 -3.29834 0
M  V30 7058 N 648.886 1.2938 -0.899927 0
M  V30 7059 C 649.849 2.25983 -0.382677 0
M  V30 7060 C 650.849 1.53366 0.483259 0
M  V30 7061 O 652.039 1.71798 0.28828 0
M  V30 7062 C 649.171 3.37878 0.452915 0
M  V30 7063 H 650.364 2.73252 -1.23586 0
M  V30 7064 H 647.917 1.40825 -0.678088 0
M  V30 7065 H 648.652 2.95949 1.32608 0
M  V30 7066 H 648.437 3.91742 -0.167562 0
M  V30 7067 H 649.927 4.09746 0.806107 0
M  V30 7068 N 650.364 0.662433 1.43002 0
M  V30 7069 C 651.592 0.187615 2.06048 0
M  V30 7070 C 652.007 -1.15039 1.49705 0
M  V30 7071 O 651.364 -1.71209 0.631956 0
M  V30 7072 C 651.415 0.100498 3.6136 0
M  V30 7073 O 651.136 1.38562 4.15611 0
M  V30 7074 C 652.637 -0.399298 4.41498 0
M  V30 7075 H 649.857 0.0941675 0.664359 0
M  V30 7076 H 652.401 0.905681 1.83351 0
M  V30 7077 H 650.556 -0.568181 3.83211 0
M  V30 7078 H 650.97 1.25084 5.09366 0
M  V30 7079 H 652.444 -0.409187 5.50481 0
M  V30 7080 H 652.921 -1.43232 4.15188 0
M  V30 7081 H 653.527 0.23721 4.24638 0
M  V30 7082 N 651.842 -1.52309 0.404946 0
M  V30 7083 C 653.072 -2.05886 -0.171569 0
M  V30 7084 C 653.48 -1.27527 -1.39762 0
M  V30 7085 O 652.823 -0.319215 -1.80905 0
M  V30 7086 C 652.885 -3.54609 -0.590983 0
M  V30 7087 C 652.549 -4.53989 0.523757 0
M  V30 7088 C 653.546 -5.01084 1.38604 0
M  V30 7089 C 651.231 -4.97465 0.695255 0
M  V30 7090 C 653.225 -5.90295 2.4048 0
M  V30 7091 C 650.912 -5.86473 1.71733 0
M  V30 7092 C 651.91 -6.32782 2.57051 0
M  V30 7093 O 651.598 -7.20029 3.57509 0
M  V30 7094 H 651.33 -0.675508 -0.0257763 0
M  V30 7095 H 653.884 -1.97238 0.573278 0
M  V30 7096 H 652.114 -3.60929 -1.38805 0
M  V30 7097 H 653.803 -3.90853 -1.09494 0
M  V30 7098 H 654.569 -4.68214 1.26492 0
M  V30 7099 H 650.448 -4.60982 0.0408447 0
M  V30 7100 H 653.992 -6.26363 3.07108 0
M  V30 7101 H 649.889 -6.18756 1.83877 0
M  V30 7102 H 650.657 -7.3813 3.53703 0
M  V30 7103 N 653.32 -0.135238 -1.57019 0
M  V30 7104 C 654.25 0.805235 -2.19176 0
M  V30 7105 C 655.231 1.2656 -1.13651 0
M  V30 7106 O 656.416 1.32528 -1.4195 0
M  V30 7107 C 653.546 2.04914 -2.80406 0
M  V30 7108 C 652.5 1.72598 -3.91655 0
M  V30 7109 C 651.826 3.04154 -4.39766 0
M  V30 7110 C 653.126 0.981709 -5.12991 0
M  V30 7111 H 654.82 0.287232 -2.98019 0
M  V30 7112 H 652.366 0.136714 -1.4335 0
M  V30 7113 H 654.319 2.71178 -3.22553 0
M  V30 7114 H 653.043 2.59067 -1.98877 0
M  V30 7115 H 651.702 1.08717 -3.50109 0
M  V30 7116 H 651.35 3.56274 -3.55075 0
M  V30 7117 H 651.05 2.83299 -5.14796 0
M  V30 7118 H 652.574 3.71509 -4.84576 0
M  V30 7119 H 653.988 1.5462 -5.52056 0
M  V30 7120 H 652.385 0.873533 -5.93708 0
M  V30 7121 H 653.455 -0.0286887 -4.84892 0
M  V30 7122 N 654.798 1.5699 0.138552 0
M  V30 7123 C 655.746 1.99858 1.18994 0
M  V30 7124 C 656.74 0.89231 1.43994 0
M  V30 7125 O 657.946 1.0775 1.44187 0
M  V30 7126 H 654.321 0.636325 0.400743 0
M  V30 7127 H 656.292 2.87427 0.801755 0
M  V30 7128 C 655.041 2.40235 2.51361 0
M  V30 7129 H 654.364 3.24917 2.32957 0
M  V30 7130 H 655.804 2.74045 3.23535 0
M  V30 7131 C 654.263 1.25829 3.1252 0
M  V30 7132 O 654.793 0.563604 3.97727 0
M  V30 7133 N 652.999 1.02036 2.72097 0
M  V30 7134 H 652.546 1.58705 2.02905 0
M  V30 7135 H 652.504 0.256796 3.1335 0
M  V30 7136 N 656.276 -0.40816 1.52223 0
M  V30 7137 C 657.692 -0.74685 1.41047 0
M  V30 7138 C 657.892 -1.94788 0.51573 0
M  V30 7139 O 656.948 -2.52494 -0.0181156 0
M  V30 7140 C 658.261 -0.999878 2.83589 0
M  V30 7141 C 659.809 -1.10253 2.92939 0
M  V30 7142 C 660.284 -1.38832 4.36451 0
M  V30 7143 N 661.775 -1.45694 4.3969 0
M  V30 7144 C 662.51 -1.69435 5.47795 0
M  V30 7145 N 662.006 -1.90774 6.66016 0
M  V30 7146 N 663.799 -1.71458 5.35312 0
M  V30 7147 H 655.95 0.382409 2.08929 0
M  V30 7148 H 658.213 0.108807 0.941735 0
M  V30 7149 H 657.919 -0.189723 3.51188 0
M  V30 7150 H 657.793 -1.91978 3.24691 0
M  V30 7151 H 660.18 -1.90328 2.2552 0
M  V30 7152 H 660.261 -0.160973 2.55293 0
M  V30 7153 H 659.905 -0.592741 5.04429 0
M  V30 7154 H 659.835 -2.34241 4.71634 0
M  V30 7155 H 662.326 -1.3099 3.54472 0
M  V30 7156 H 662.639 -2.08342 7.44186 0
M  V30 7157 H 660.984 -1.88037 6.69079 0
M  V30 7158 H 664.175 -1.54326 4.41929 0
M  V30 7159 H 664.348 -1.89621 6.19635 0
M  V30 7160 N 657.755 -1.42862 -0.66545 0
M  V30 7161 C 658.665 -1.49491 -1.80803 0
M  V30 7162 C 659.681 -0.382914 -1.69734 0
M  V30 7163 O 660.857 -0.635223 -1.9112 0
M  V30 7164 C 657.922 -1.40383 -3.17007 0
M  V30 7165 C 656.983 -2.62152 -3.39963 0
M  V30 7166 C 656.216 -2.53469 -4.69669 0
M  V30 7167 O 656.439 -1.57568 -5.48205 0
M  V30 7168 O 655.373 -3.43763 -4.94075 0
M  V30 7169 H 659.199 -2.45949 -1.78165 0
M  V30 7170 H 656.784 -1.24728 -0.822387 0
M  V30 7171 H 658.666 -1.377 -3.98267 0
M  V30 7172 H 657.341 -0.470546 -3.20262 0
M  V30 7173 H 656.248 -2.70409 -2.58515 0
M  V30 7174 H 657.581 -3.54411 -3.41546 0
M  V30 7175 N 659.233 0.902656 -1.29189 0
M  V30 7176 C 660.644 1.46809 -1.15343 0
M  V30 7177 C 660.995 1.94568 0.252517 0
M  V30 7178 O 660.12 1.83454 1.14777 0
M  V30 7179 C 660.715 2.66829 -2.08776 0
M  V30 7180 C 659.274 3.19518 -1.98961 0
M  V30 7181 C 658.421 1.92212 -1.99874 0
M  V30 7182 H 661.372 0.714282 -1.41717 0
M  V30 7183 H 661.393 3.42465 -1.65826 0
M  V30 7184 H 660.905 2.32039 -3.11094 0
M  V30 7185 H 659.006 3.59008 -0.99721 0
M  V30 7186 H 659.119 3.84016 -2.86477 0
M  V30 7187 H 657.483 2.0979 -1.44431 0
M  V30 7188 H 658.266 1.59702 -3.03891 0
M  V30 7189 N 660.711 1.11618 1.11262 0
M  V30 7190 C 661.643 0.734015 2.17129 0
M  V30 7191 C 662.656 -0.235243 1.61091 0
M  V30 7192 O 663.845 -0.0178597 1.78491 0
M  V30 7193 C 660.945 0.0643682 3.38839 0
M  V30 7194 C 660.118 1.06092 4.24339 0
M  V30 7195 C 659.177 0.420482 5.24517 0
M  V30 7196 O 658.203 1.07495 5.58957 0
M  V30 7197 N 659.405 -0.815828 5.74739 0
M  V30 7198 H 662.17 1.64492 2.50524 0
M  V30 7199 H 659.731 1.00664 1.26801 0
M  V30 7200 H 661.723 -0.375851 4.02951 0
M  V30 7201 H 660.293 -0.749147 3.03491 0
M  V30 7202 H 659.513 1.67903 3.56654 0
M  V30 7203 H 660.801 1.73507 4.78302 0
M  V30 7204 H 660.199 -1.36668 5.48943 0
M  V30 7205 H 658.756 -1.199 6.40677 0
M  V30 7206 N 662.189 -1.289 0.906776 0
M  V30 7207 C 663.119 -2.29932 0.406659 0
M  V30 7208 C 664.1 -1.6189 -0.522061 0
M  V30 7209 O 665.285 -1.8935 -0.431283 0
M  V30 7210 C 662.415 -3.45425 -0.360366 0
M  V30 7211 C 661.369 -4.25316 0.478574 0
M  V30 7212 C 660.695 -5.33076 -0.416373 0
M  V30 7213 C 661.995 -4.92739 1.7322 0
M  V30 7214 H 663.689 -2.72013 1.25097 0
M  V30 7215 H 661.235 -1.30768 0.602977 0
M  V30 7216 H 663.188 -4.15186 -0.721029 0
M  V30 7217 H 661.912 -3.02206 -1.23852 0
M  V30 7218 H 660.571 -3.57273 0.821662 0
M  V30 7219 H 660.219 -4.86101 -1.29287 0
M  V30 7220 H 659.919 -5.8743 0.141309 0
M  V30 7221 H 661.443 -6.05686 -0.773072 0
M  V30 7222 H 662.857 -5.54898 1.44086 0
M  V30 7223 H 661.254 -5.57057 2.23175 0
M  V30 7224 H 662.324 -4.17625 2.46408 0
M  V30 7225 N 663.667 -0.670007 -1.42649 0
M  V30 7226 C 664.614 0.0112928 -2.30797 0
M  V30 7227 C 665.584 0.797627 -1.45695 0
M  V30 7228 O 666.769 0.770845 -1.74535 0
M  V30 7229 C 663.909 0.95998 -3.31479 0
M  V30 7230 C 663.022 0.167975 -4.31673 0
M  V30 7231 C 662.157 1.11198 -5.19431 0
M  V30 7232 C 661.196 0.311381 -6.11307 0
M  V30 7233 N 660.333 1.20784 -6.91633 0
M  V30 7234 H 665.173 -0.746231 -2.88505 0
M  V30 7235 H 662.71 -0.379739 -1.42114 0
M  V30 7236 H 664.668 1.52379 -3.88377 0
M  V30 7237 H 663.298 1.68419 -2.75382 0
M  V30 7238 H 662.35 -0.512385 -3.76933 0
M  V30 7239 H 663.662 -0.453814 -4.96731 0
M  V30 7240 H 662.816 1.74587 -5.81037 0
M  V30 7241 H 661.555 1.76766 -4.54538 0
M  V30 7242 H 660.56 -0.335758 -5.48774 0
M  V30 7243 H 661.785 -0.340135 -6.78248 0
M  V30 7244 H 659.731 1.85001 -6.29373 0
M  V30 7245 H 659.648 0.64102 -7.53277 0
M  V30 7246 H 660.916 1.82936 -7.5773 0
M  V30 7247 N 665.145 1.52092 -0.413018 0
M  V30 7248 C 666.108 2.25706 0.398687 0
M  V30 7249 C 667.108 1.28221 0.970368 0
M  V30 7250 O 668.298 1.52131 0.848635 0
M  V30 7251 C 665.43 3.03029 1.5616 0
M  V30 7252 H 666.623 2.98888 -0.246131 0
M  V30 7253 H 664.176 1.5542 -0.165622 0
M  V30 7254 H 664.911 2.34205 2.24317 0
M  V30 7255 H 664.696 3.74606 1.15812 0
M  V30 7256 H 666.186 3.58857 2.13569 0
M  V30 7257 N 666.623 0.143563 1.56945 0
M  V30 7258 C 668.034 -0.37783 1.82837 0
M  V30 7259 C 668.385 -1.64967 1.06209 0
M  V30 7260 O 667.51 -2.14221 0.306291 0
M  V30 7261 C 668.105 -0.692274 3.31652 0
M  V30 7262 C 666.664 -1.1582 3.58138 0
M  V30 7263 C 665.811 -0.17951 2.76718 0
M  V30 7264 H 668.762 0.368317 1.54367 0
M  V30 7265 H 668.783 -1.54729 3.47619 0
M  V30 7266 H 668.295 0.233572 3.87397 0
M  V30 7267 H 666.396 -2.10011 3.07776 0
M  V30 7268 H 666.509 -1.08655 4.66616 0
M  V30 7269 H 664.873 -0.671458 2.4569 0
M  V30 7270 H 665.656 0.739865 3.35233 0
M  V30 7271 N 668.101 -1.57061 -0.130224 0
M  V30 7272 C 669.329 -1.88432 -0.854456 0
M  V30 7273 C 669.744 -0.733608 -1.73964 0
M  V30 7274 O 669.101 0.296029 -1.80083 0
M  V30 7275 C 669.152 -3.1918 -1.69724 0
M  V30 7276 O 668.873 -4.2982 -0.847705 0
M  V30 7277 C 670.374 -3.6418 -2.5276 0
M  V30 7278 H 667.594 -0.624193 -0.246221 0
M  V30 7279 H 670.138 -2.04159 -0.11798 0
M  V30 7280 H 668.293 -3.05156 -2.3866 0
M  V30 7281 H 668.707 -5.04689 -1.42792 0
M  V30 7282 H 670.181 -4.58457 -3.07443 0
M  V30 7283 H 670.658 -2.90285 -3.29592 0
M  V30 7284 H 671.264 -3.80954 -1.89087 0
M  V30 7285 N 669.579 0.400081 -1.52437 0
M  V30 7286 C 670.99 0.97851 -1.59003 0
M  V30 7287 C 671.341 1.91293 -0.436068 0
M  V30 7288 O 670.466 2.1183 0.442365 0
M  V30 7289 C 671.061 1.78145 -2.88184 0
M  V30 7290 C 669.62 2.30976 -2.97199 0
M  V30 7291 C 668.767 1.11212 -2.54022 0
M  V30 7292 H 671.718 0.180002 -1.57676 0
M  V30 7293 H 671.739 2.63968 -2.74046 0
M  V30 7294 H 671.251 1.1011 -3.72152 0
M  V30 7295 H 669.352 3.02355 -2.17744 0
M  V30 7296 H 669.465 2.61221 -4.01622 0
M  V30 7297 H 667.829 1.46882 -2.08081 0
M  V30 7298 H 668.612 0.447307 -3.40373 0
M  V30 7299 N 671.057 1.43213 0.657864 0
M  V30 7300 C 672.007 1.44459 1.76396 0
M  V30 7301 C 672.991 0.313641 1.57814 0
M  V30 7302 O 674.183 0.557094 1.68004 0
M  V30 7303 C 671.312 1.36586 3.14959 0
M  V30 7304 C 670.398 2.54692 3.39106 0
M  V30 7305 N 670.789 3.80059 3.33749 0
M  V30 7306 C 669.087 2.49316 3.69807 0
M  V30 7307 C 669.788 4.58606 3.57849 0
M  V30 7308 N 668.764 3.89267 3.79437 0
M  V30 7309 H 672.566 2.39265 1.70673 0
M  V30 7310 H 670.08 1.378 0.859357 0
M  V30 7311 H 672.077 1.35561 3.94245 0
M  V30 7312 H 670.737 0.427956 3.21867 0
M  V30 7313 H 671.748 4.12414 3.13266 0
M  V30 7314 H 668.425 1.6419 3.83859 0
M  V30 7315 H 669.815 5.67619 3.59525 0
M  V30 7316 N 672.536 -0.895792 1.29666 0
M  V30 7317 C 673.468 -2.00563 1.10937 0
M  V30 7318 C 674.481 -1.62705 0.055734 0
M  V30 7319 O 675.67 -1.7595 0.300656 0
M  V30 7320 C 672.77 -3.32262 0.667448 0
M  V30 7321 C 671.943 -3.98625 1.80047 0
M  V30 7322 C 671.002 -5.08617 1.3489 0
M  V30 7323 O 670.028 -5.30837 2.05429 0
M  V30 7324 N 671.23 -5.80076 0.221937 0
M  V30 7325 H 673.995 -2.17184 2.06522 0
M  V30 7326 H 671.556 -1.06822 1.21658 0
M  V30 7327 H 673.548 -4.03196 0.348586 0
M  V30 7328 H 672.118 -3.11985 -0.196055 0
M  V30 7329 H 671.338 -3.21005 2.28801 0
M  V30 7330 H 672.626 -4.39704 2.56003 0
M  V30 7331 H 672.024 -5.64514 -0.366084 0
M  V30 7332 H 670.581 -6.51789 -0.0375346 0
M  V30 7333 O 674.053 -1.24272 -1.03144 0
M  V30 7334 H 674.744 -1.0191 -1.64724 0
M  V30 END ATOM
M  V30 BEGIN BOND
M  V30 END BOND
M  V30 END CTAB
M  END
$$$$
