drugbank_target|Q01995 Transgelin (DB11638)
 OpenBabel12092121093D

  0  0  0     0  0            999 V3000
M  V30 BEGIN CTAB
M  V30 COUNTS 3172 3203 0 0 0
M  V30 BEGIN ATOM
M  V30 1 H -0.908 1.98254 -0.117106 0
M  V30 2 N 0 1.576 0 0
M  V30 3 C 0.933 2.03868 1.02534 0
M  V30 4 C 1.911 0.928543 1.3348 0
M  V30 5 O 3.095 1.19667 1.45644 0
M  V30 6 C 0.222 2.43627 2.35294 0
M  V30 7 C -0.732 3.65373 2.2001 0
M  V30 8 S 0.101 5.13292 1.52614 0
M  V30 9 C 1.257 5.56322 2.86805 0
M  V30 10 H 1.49 2.90518 0.631377 0
M  V30 11 H -0.977 1.52953 0.210867 0
M  V30 12 H 0.981 2.67203 3.11629 0
M  V30 13 H -0.358 1.57376 2.7183 0
M  V30 14 H -1.165 3.90944 3.18086 0
M  V30 15 H -1.563 3.418 1.51819 0
M  V30 16 H 0.729 5.58782 3.83104 0
M  V30 17 H 1.672 6.56266 2.65933 0
M  V30 18 H 2.08 4.83886 2.90714 0
M  V30 19 N 1.4781 -0.272755 1.55222 0
M  V30 20 C 2.4411 -1.32041 1.87344 0
M  V30 21 C 3.4411 -1.42342 0.74803 0
M  V30 22 O 4.6311 -1.41488 1.0162 0
M  V30 23 C 1.7631 -2.70173 2.07893 0
M  V30 24 H 2.9561 -1.04789 2.80997 0
M  V30 25 H 0.5091 -0.51083 1.47717 0
M  V30 26 H 1.2441 -3.02605 1.16622 0
M  V30 27 H 1.0291 -2.64082 2.89833 0
M  V30 28 H 2.5191 -3.45869 2.34017 0
M  V30 29 N 2.9562 -1.48159 -0.537278 0
M  V30 30 C 3.9042 -1.62573 -1.66352 0
M  V30 31 C 4.8982 -0.492366 -1.62087 0
M  V30 32 O 6.1042 -0.670847 -1.67032 0
M  V30 33 H 2.4792 -0.511992 -0.550789 0
M  V30 34 H 4.4502 -2.57176 -1.51337 0
M  V30 35 C 3.1992 -1.67583 -3.04649 0
M  V30 36 H 2.5222 -2.54151 -3.08622 0
M  V30 37 H 3.9622 -1.81713 -3.83088 0
M  V30 38 C 2.4212 -0.413039 -3.34358 0
M  V30 39 O 2.9512 0.477259 -3.98855 0
M  V30 40 N 1.1572 -0.286961 -2.8918 0
M  V30 41 H 0.7042 -1.01241 -2.36871 0
M  V30 42 H 0.6622 0.556963 -3.09427 0
M  V30 43 N 4.4343 0.785586 -1.36625 0
M  V30 44 C 5.3813 1.89838 -1.31264 0
M  V30 45 C 6.3513 1.65115 -0.180633 0
M  V30 46 O 7.5363 1.87222 -0.36777 0
M  V30 47 C 4.6763 3.26706 -1.11163 0
M  V30 48 C 3.7893 3.63476 -2.33472 0
M  V30 49 C 2.9243 4.89481 -2.06353 0
M  V30 50 C 1.9633 5.18941 -3.24602 0
M  V30 51 N 1.1003 6.36131 -2.97123 0
M  V30 52 H 5.9403 1.93756 -2.26413 0
M  V30 53 H 3.4773 0.947454 -1.12524 0
M  V30 54 H 5.4353 4.05639 -0.975337 0
M  V30 55 H 4.0653 3.222 -0.196674 0
M  V30 56 H 3.1173 2.79636 -2.57891 0
M  V30 57 H 4.4293 3.81193 -3.21704 0
M  V30 58 H 3.5833 5.76288 -1.89675 0
M  V30 59 H 2.3223 4.73841 -1.15437 0
M  V30 60 H 1.3273 4.30615 -3.41834 0
M  V30 61 H 2.5523 5.36498 -4.16349 0
M  V30 62 H 0.4983 6.21875 -2.08823 0
M  V30 63 H 0.4153 6.54198 -3.78894 0
M  V30 64 H 1.6833 7.2591 -2.84033 0
M  V30 65 N 5.9124 1.20967 1.01018 0
M  V30 66 C 7.1604 1.02172 1.74371 0
M  V30 67 C 7.4814 -0.446414 1.89821 0
M  V30 68 O 6.7514 -1.32234 1.44537 0
M  V30 69 H 5.3314 0.375066 0.646014 0
M  V30 70 H 7.9934 1.52187 1.21758 0
M  V30 71 H 7.0894 1.48538 2.74487 0
M  V30 72 N 7.3905 -1.2043 1.01659 0
M  V30 73 C 8.8015 -1.71517 0.737482 0
M  V30 74 C 9.1525 -1.81547 -0.743973 0
M  V30 75 O 8.2775 -1.47803 -1.58061 0
M  V30 76 C 8.8725 -3.11515 1.33206 0
M  V30 77 C 7.4315 -3.59912 1.10183 0
M  V30 78 C 6.5785 -2.37116 1.43776 0
M  V30 79 H 9.5295 -1.05444 1.18606 0
M  V30 80 H 9.5505 -3.73575 0.722636 0
M  V30 81 H 9.0625 -3.04182 2.41028 0
M  V30 82 H 7.1635 -3.72577 0.0412756 0
M  V30 83 H 7.2765 -4.44731 1.78188 0
M  V30 84 H 5.6405 -2.39857 0.856778 0
M  V30 85 H 6.4235 -2.32424 2.52654 0
M  V30 86 N 8.8686 -0.792821 -1.36206 0
M  V30 87 C 10.0936 -0.377701 -2.03932 0
M  V30 88 C 10.5186 0.998947 -1.59382 0
M  V30 89 O 9.8766 1.64421 -0.763903 0
M  V30 90 C 9.9246 -0.453635 -3.57735 0
M  V30 91 O 9.0286 0.538151 -4.08874 0
M  V30 92 H 8.3696 -0.159855 -0.644471 0
M  V30 93 H 10.8996 -1.07488 -1.7409 0
M  V30 94 H 10.9096 -0.318464 -4.06755 0
M  V30 95 H 9.5846 -1.45784 -3.89512 0
M  V30 96 H 8.1616 0.364359 -3.71116 0
M  V30 97 N 10.3467 1.47872 -0.545128 0
M  V30 98 C 11.5767 2.06589 -0.0210534 0
M  V30 99 C 11.9847 1.39997 1.27269 0
M  V30 100 O 11.3277 0.486421 1.77143 0
M  V30 101 C 11.3897 3.58574 0.257933 0
M  V30 102 C 11.0537 4.47132 -0.944573 0
M  V30 103 C 12.0507 4.85986 -1.84699 0
M  V30 104 C 9.7357 4.88821 -1.15584 0
M  V30 105 C 11.7297 5.65314 -2.94446 0
M  V30 106 C 9.4167 5.67916 -2.25642 0
M  V30 107 C 10.4147 6.06073 -3.14905 0
M  V30 108 O 10.1027 6.83578 -4.23057 0
M  V30 109 H 9.8347 0.674971 -0.0372899 0
M  V30 110 H 12.3887 1.91037 -0.754599 0
M  V30 111 H 10.6187 3.72295 1.04564 0
M  V30 112 H 12.3077 3.99356 0.72592 0
M  V30 113 H 13.0737 4.54388 -1.69577 0
M  V30 114 H 8.9527 4.58595 -0.470279 0
M  V30 115 H 12.4967 5.95016 -3.64145 0
M  V30 116 H 8.3937 5.98927 -2.40742 0
M  V30 117 H 9.1617 7.01954 -4.20954 0
M  V30 118 N 11.8248 0.280983 1.55075 0
M  V30 119 C 13.0728 -0.333455 1.9933 0
M  V30 120 C 13.3938 -1.55937 1.17085 0
M  V30 121 O 12.6638 -1.94143 0.261805 0
M  V30 122 H 11.2438 -0.126197 0.736263 0
M  V30 123 H 13.9058 0.387678 1.91005 0
M  V30 124 H 13.0018 -0.619292 3.05894 0
M  V30 125 N 13.3029 -1.57598 0.00835791 0
M  V30 126 C 14.2359 -2.04409 -1.01451 0
M  V30 127 C 15.2139 -0.935609 -1.32985 0
M  V30 128 O 16.3979 -1.20437 -1.45007 0
M  V30 129 C 13.5249 -2.44872 -2.33999 0
M  V30 130 C 12.5709 -3.66535 -2.18069 0
M  V30 131 S 13.4039 -5.14095 -1.4989 0
M  V30 132 C 14.5599 -5.57835 -2.8385 0
M  V30 133 H 14.7929 -2.90849 -0.615961 0
M  V30 134 H 12.3259 -1.53063 -0.202752 0
M  V30 135 H 14.2839 -2.68852 -3.10208 0
M  V30 136 H 12.9449 -1.58815 -2.70992 0
M  V30 137 H 12.1379 -3.92626 -3.16008 0
M  V30 138 H 11.7399 -3.426 -1.50004 0
M  V30 139 H 14.0319 -5.60806 -3.80136 0
M  V30 140 H 14.9749 -6.57667 -2.62449 0
M  V30 141 H 15.3829 -4.85421 -2.88144 0
M  V30 142 N 14.781 0.264519 -1.55364 0
M  V30 143 C 16.006 1.01726 -1.80739 0
M  V30 144 C 16.431 1.78836 -0.583044 0
M  V30 145 O 15.789 1.75167 0.467566 0
M  V30 146 C 15.837 1.94482 -3.03659 0
M  V30 147 O 14.941 3.03386 -2.7934 0
M  V30 148 H 14.282 0.290395 -0.597132 0
M  V30 149 H 16.812 0.290854 -2.02522 0
M  V30 150 H 16.822 2.36278 -3.32621 0
M  V30 151 H 15.497 1.37772 -3.92418 0
M  V30 152 H 14.074 2.65844 -2.61498 0
M  V30 153 N 16.2591 1.48442 0.529413 0
M  V30 154 C 17.6751 1.34575 0.858004 0
M  V30 155 C 17.8751 0.3572 1.98309 0
M  V30 156 O 16.9311 -0.221379 2.51528 0
M  V30 157 C 18.2441 2.74617 1.22499 0
M  V30 158 C 19.7921 2.83109 1.33484 0
M  V30 159 C 20.2671 4.23854 1.73526 0
M  V30 160 N 21.7581 4.2653 1.80628 0
M  V30 161 C 22.4931 5.32372 2.12997 0
M  V30 162 N 21.9891 6.48491 2.43786 0
M  V30 163 N 23.7821 5.19766 2.14008 0
M  V30 164 H 15.9331 2.1133 -0.212925 0
M  V30 165 H 18.1961 0.947439 -0.0326199 0
M  V30 166 H 17.9021 3.4852 0.471905 0
M  V30 167 H 17.7761 3.08177 2.17501 0
M  V30 168 H 20.1631 2.09462 2.0787 0
M  V30 169 H 20.2441 2.53168 0.366027 0
M  V30 170 H 19.8881 4.98018 0.997013 0
M  V30 171 H 19.8181 4.5124 2.71459 0
M  V30 172 H 22.3091 3.42772 1.59108 0
M  V30 173 H 22.6221 7.24993 2.67592 0
M  V30 174 H 20.9671 6.51765 2.41304 0
M  V30 175 H 24.1581 4.28066 1.89412 0
M  V30 176 H 24.3311 6.02354 2.38902 0
M  V30 177 N 17.7372 -0.778329 1.37039 0
M  V30 178 C 18.6472 -1.92253 1.34446 0
M  V30 179 C 19.6632 -1.72267 0.244991 0
M  V30 180 O 20.8392 -1.95615 0.479258 0
M  V30 181 C 17.9042 -3.27282 1.144 0
M  V30 182 C 16.9652 -3.59969 2.33925 0
M  V30 183 C 16.1982 -4.88555 2.14825 0
M  V30 184 O 16.4212 -5.59113 1.12912 0
M  V30 185 O 15.3552 -5.20153 3.02861 0
M  V30 186 H 19.1812 -1.97392 2.30803 0
M  V30 187 H 16.7662 -0.920154 1.17701 0
M  V30 188 H 18.6482 -4.08062 1.05182 0
M  V30 189 H 17.3232 -3.23011 0.211124 0
M  V30 190 H 16.2302 -2.7945 2.48714 0
M  V30 191 H 17.5632 -3.68976 3.25757 0
M  V30 192 N 19.2153 -1.21501 -1.00376 0
M  V30 193 C 20.4613 -1.03452 -1.74429 0
M  V30 194 C 20.7943 0.430764 -1.89362 0
M  V30 195 O 20.0693 1.31962 -1.42886 0
M  V30 196 C 20.3523 -1.73375 -3.15615 0
M  V30 197 C 20.2053 -3.27431 -3.08397 0
M  V30 198 C 21.5243 -1.47732 -4.14564 0
M  V30 199 H 18.6433 -0.377226 -0.633143 0
M  V30 200 H 21.2853 -1.49693 -1.17013 0
M  V30 201 H 19.4353 -1.34064 -3.64636 0
M  V30 202 H 21.1073 -3.76119 -2.67081 0
M  V30 203 H 19.3503 -3.5767 -2.45468 0
M  V30 204 H 20.0213 -3.71524 -4.08258 0
M  V30 205 H 22.4973 -1.8186 -3.74254 0
M  V30 206 H 21.3733 -1.99169 -5.11491 0
M  V30 207 H 21.6343 -0.407589 -4.40217 0
M  V30 208 N 20.6934 1.19889 -1.02296 0
M  V30 209 C 21.6254 2.22334 -0.556787 0
M  V30 210 C 22.6384 1.58674 0.364199 0
M  V30 211 O 23.8274 1.77768 0.161533 0
M  V30 212 C 20.9274 3.38257 0.208694 0
M  V30 213 C 20.1004 4.31504 -0.71577 0
M  V30 214 C 19.1594 5.262 0.00325597 0
M  V30 215 O 18.1854 5.65798 -0.621357 0
M  V30 216 N 19.3874 5.66303 1.27599 0
M  V30 217 H 22.1524 2.62957 -1.43784 0
M  V30 218 H 19.7134 1.34495 -0.901261 0
M  V30 219 H 21.7054 3.98616 0.699111 0
M  V30 220 H 20.2754 2.96472 0.991102 0
M  V30 221 H 19.4954 3.69016 -1.38638 0
M  V30 222 H 20.7834 4.9072 -1.34428 0
M  V30 223 H 20.1814 5.36155 1.80429 0
M  V30 224 H 18.7384 6.28942 1.71102 0
M  V30 225 N 22.1715 0.800033 1.35784 0
M  V30 226 C 23.3965 0.388511 2.03729 0
M  V30 227 C 23.8215 -0.990481 1.5991 0
M  V30 228 O 23.1795 -1.64013 0.772612 0
M  V30 229 C 23.2275 0.4726 3.5749 0
M  V30 230 O 22.3315 -0.51646 4.09153 0
M  V30 231 H 21.6725 0.163271 0.643614 0
M  V30 232 H 24.2025 1.0841 1.73518 0
M  V30 233 H 24.2125 0.34003 4.06581 0
M  V30 234 H 22.8875 1.47848 3.88734 0
M  V30 235 H 21.4645 -0.344673 3.71304 0
M  V30 236 N 23.6496 -1.47581 0.552962 0
M  V30 237 C 24.5966 -2.29957 -0.197108 0
M  V30 238 C 25.5666 -1.38799 -0.912359 0
M  V30 239 O 26.7516 -1.67761 -0.908888 0
M  V30 240 C 23.8916 -3.22672 -1.22379 0
M  V30 241 C 23.0046 -4.28919 -0.515038 0
M  V30 242 C 22.1396 -5.0879 -1.52664 0
M  V30 243 C 21.1786 -6.06815 -0.802631 0
M  V30 244 N 20.3156 -6.7966 -1.76086 0
M  V30 245 H 25.1556 -2.93578 0.511486 0
M  V30 246 H 22.6926 -1.4471 0.264067 0
M  V30 247 H 24.6506 -3.74845 -1.83159 0
M  V30 248 H 23.2806 -2.60925 -1.90047 0
M  V30 249 H 22.3326 -3.79835 0.207192 0
M  V30 250 H 23.6446 -4.98773 0.0523425 0
M  V30 251 H 22.7986 -5.65091 -2.20809 0
M  V30 252 H 21.5376 -4.38828 -2.12794 0
M  V30 253 H 20.5426 -5.49695 -0.107238 0
M  V30 254 H 21.7676 -6.78784 -0.207135 0
M  V30 255 H 19.7136 -6.12432 -2.35081 0
M  V30 256 H 19.6306 -7.45669 -1.24552 0
M  V30 257 H 20.8986 -7.40538 -2.43359 0
M  V30 258 N 25.1277 -0.289203 -1.54924 0
M  V30 259 C 26.3767 0.324231 -1.99077 0
M  V30 260 C 26.6897 1.5591 -1.18117 0
M  V30 261 O 27.8957 2.24637 -1.52481 0
M  V30 262 C 26.3517 0.628209 -3.54375 0
M  V30 263 C 25.9597 -0.587647 -4.44129 0
M  V30 264 C 27.7037 1.20349 -4.07083 0
M  V30 265 C 25.6107 -0.257475 -5.90839 0
M  V30 266 H 24.5407 0.124924 -0.743579 0
M  V30 267 H 27.1917 -0.396063 -1.79175 0
M  V30 268 H 25.5737 1.40778 -3.70132 0
M  V30 269 H 26.7477 -1.36418 -4.40144 0
M  V30 270 H 25.0627 -1.08074 -4.0213 0
M  V30 271 H 27.6597 1.46456 -5.14252 0
M  V30 272 H 28.0027 2.14195 -3.56968 0
M  V30 273 H 28.5357 0.485889 -3.94821 0
M  V30 274 H 25.2747 -1.16419 -6.45079 0
M  V30 275 H 24.7947 0.482018 -5.9786 0
M  V30 276 H 26.4737 0.145238 -6.46837 0
M  V30 277 N 26.6058 1.57591 -0.0167156 0
M  V30 278 C 27.5158 2.1291 0.98521 0
M  V30 279 C 28.5318 1.07834 1.36557 0
M  V30 280 O 29.7078 1.39826 1.44951 0
M  V30 281 C 26.7728 2.63512 2.25305 0
M  V30 282 C 25.8338 3.83256 1.93426 0
M  V30 283 C 25.0668 4.31435 3.14165 0
M  V30 284 O 25.2898 3.78851 4.26413 0
M  V30 285 O 24.2238 5.23416 2.97186 0
M  V30 286 H 28.0498 2.98772 0.544888 0
M  V30 287 H 25.6348 1.48012 0.203141 0
M  V30 288 H 27.5168 2.96183 2.99756 0
M  V30 289 H 26.1918 1.8074 2.68542 0
M  V30 290 H 25.0988 3.55531 1.16398 0
M  V30 291 H 26.4318 4.67153 1.55013 0
M  V30 292 N 28.0839 -0.256276 1.55502 0
M  V30 293 C 29.0309 -1.31714 1.89526 0
M  V30 294 C 30.0009 -1.4828 0.748479 0
M  V30 295 O 31.1859 -1.62416 1.00128 0
M  V30 296 C 28.3259 -2.66933 2.18725 0
M  V30 297 C 27.4389 -2.58452 3.4616 0
M  V30 298 C 26.5739 -3.85961 3.64976 0
M  V30 299 C 25.6129 -3.72059 4.86044 0
M  V30 300 N 24.7499 -4.9144 5.01429 0
M  V30 301 H 29.5899 -1.01998 2.80001 0
M  V30 302 H 27.1269 -0.492413 1.38613 0
M  V30 303 H 29.0849 -3.4563 2.33657 0
M  V30 304 H 27.7149 -2.94816 1.31466 0
M  V30 305 H 26.7669 -1.71374 3.3961 0
M  V30 306 H 28.0789 -2.44085 4.34999 0
M  V30 307 H 27.2329 -4.73101 3.79816 0
M  V30 308 H 25.9719 -4.03215 2.74353 0
M  V30 309 H 24.9769 -2.83302 4.7119 0
M  V30 310 H 26.2019 -3.56309 5.78118 0
M  V30 311 H 24.1479 -5.09072 4.13741 0
M  V30 312 H 24.0649 -4.79668 5.84341 0
M  V30 313 H 25.3329 -5.80104 5.20672 0
M  V30 314 N 29.562 -1.4872 -0.521534 0
M  V30 315 C 30.509 -1.63871 -1.62527 0
M  V30 316 C 31.479 -0.480559 -1.58996 0
M  V30 317 O 32.664 -0.705085 -1.77294 0
M  V30 318 C 29.804 -1.69227 -3.00759 0
M  V30 319 C 28.917 -2.96207 -3.14461 0
M  V30 320 C 28.052 -2.92671 -4.43303 0
M  V30 321 C 27.091 -4.14318 -4.50563 0
M  V30 322 N 26.228 -4.0881 -5.70805 0
M  V30 323 H 31.068 -2.58123 -1.48918 0
M  V30 324 H 28.605 -1.28 -0.724878 0
M  V30 325 H 30.563 -1.70314 -3.80853 0
M  V30 326 H 29.193 -0.784586 -3.1312 0
M  V30 327 H 28.245 -3.04826 -2.27564 0
M  V30 328 H 29.557 -3.86192 -3.15686 0
M  V30 329 H 28.711 -2.92206 -5.31696 0
M  V30 330 H 27.45 -2.00429 -4.44612 0
M  V30 331 H 26.455 -4.15049 -3.60575 0
M  V30 332 H 27.68 -5.07729 -4.50986 0
M  V30 333 H 25.626 -3.19394 -5.72995 0
M  V30 334 H 25.543 -4.92509 -5.7356 0
M  V30 335 H 26.811 -4.12418 -6.61462 0
M  V30 336 N 31.0401 0.771051 -1.3745 0
M  V30 337 C 32.2701 1.55789 -1.35696 0
M  V30 338 C 32.6781 1.89107 0.0594523 0
M  V30 339 O 32.0211 1.51984 1.03183 0
M  V30 340 C 32.0831 2.89515 -2.13123 0
M  V30 341 C 31.7471 2.78829 -3.62082 0
M  V30 342 C 32.7441 2.49812 -4.5595 0
M  V30 343 C 30.4291 2.9683 -4.05213 0
M  V30 344 C 32.4231 2.38923 -5.90927 0
M  V30 345 C 30.1101 2.85562 -5.40276 0
M  V30 346 C 31.1081 2.56649 -6.32946 0
M  V30 347 O 30.7961 2.45408 -7.65526 0
M  V30 348 H 30.5281 0.489257 -0.466481 0
M  V30 349 H 33.0821 0.963446 -1.81403 0
M  V30 350 H 31.3121 3.51081 -1.62107 0
M  V30 351 H 33.0011 3.50915 -2.03994 0
M  V30 352 H 33.7671 2.3559 -4.23937 0
M  V30 353 H 29.6461 3.18335 -3.33442 0
M  V30 354 H 33.1901 2.16277 -6.63227 0
M  V30 355 H 29.0871 2.99351 -5.71891 0
M  V30 356 H 29.8551 2.60753 -7.75855 0
M  V30 357 N 32.5182 1.22032 0.997298 0
M  V30 358 C 33.7952 0.950823 1.70935 0
M  V30 359 C 34.1752 -0.535292 2.042 0
M  V30 360 O 33.5232 -1.50217 1.72183 0
M  V30 361 C 33.7332 1.84386 2.96315 0
M  V30 362 C 35.0812 2.09732 3.69185 0
M  V30 363 O 36.1052 1.81798 3.06314 0
M  V30 364 O 34.9642 2.57018 4.82291 0
M  V30 365 H 32.0582 0.357204 0.745878 0
M  V30 366 H 34.6042 1.32997 1.05404 0
M  V30 367 H 33.3762 2.84928 2.68201 0
M  V30 368 H 32.9992 1.46602 3.69586 0
M  V30 369 N 33.9963 -1.19345 1.0293 0
M  V30 370 C 34.9063 -2.26245 0.620515 0
M  V30 371 C 35.9223 -1.70486 -0.347928 0
M  V30 372 O 37.0983 -2.00347 -0.205704 0
M  V30 373 C 34.1633 -3.46693 -0.0218957 0
M  V30 374 C 33.2243 -4.17632 0.994102 0
M  V30 375 C 32.4573 -5.32329 0.382253 0
M  V30 376 O 32.6803 -5.64552 -0.814676 0
M  V30 377 O 31.6143 -5.91664 1.10531 0
M  V30 378 H 35.4403 -2.63453 1.51083 0
M  V30 379 H 33.0253 -1.26207 0.799513 0
M  V30 380 H 34.9073 -4.19683 -0.380072 0
M  V30 381 H 33.5823 -3.11333 -0.886209 0
M  V30 382 H 32.4893 -3.4676 1.40387 0
M  V30 383 H 33.8223 -4.56964 1.8288 0
M  V30 384 N 35.4744 -0.807222 -1.35358 0
M  V30 385 C 36.3844 -0.219594 -2.3357 0
M  V30 386 C 37.4004 0.637734 -1.61892 0
M  V30 387 O 38.5764 0.549336 -1.93763 0
M  V30 388 C 35.6414 0.62158 -3.41083 0
M  V30 389 C 34.7024 -0.256315 -4.28534 0
M  V30 390 C 33.9354 0.544807 -5.30912 0
M  V30 391 O 34.1584 1.77944 -5.41934 0
M  V30 392 O 33.0924 -0.0646478 -6.01865 0
M  V30 393 H 36.9184 -1.03208 -2.85625 0
M  V30 394 H 34.5034 -0.569025 -1.38139 0
M  V30 395 H 36.3854 1.10067 -4.06772 0
M  V30 396 H 35.0604 1.41165 -2.91297 0
M  V30 397 H 33.9674 -0.782559 -3.65823 0
M  V30 398 H 35.3004 -1.01034 -4.81719 0
M  V30 399 N 36.9525 1.47285 -0.560781 0
M  V30 400 C 37.8825 2.32857 0.173105 0
M  V30 401 C 38.8635 1.44009 0.905281 0
M  V30 402 O 40.0485 1.7286 0.885046 0
M  V30 403 C 37.1785 3.25861 1.20133 0
M  V30 404 C 36.1325 4.23978 0.585388 0
M  V30 405 C 35.4585 5.06332 1.7185 0
M  V30 406 C 36.7585 5.20242 -0.463178 0
M  V30 407 H 38.4525 2.94466 -0.541307 0
M  V30 408 H 35.9985 1.41601 -0.261764 0
M  V30 409 H 37.9515 3.84569 1.72293 0
M  V30 410 H 36.6755 2.62315 1.94573 0
M  V30 411 H 35.3345 3.66501 0.085054 0
M  V30 412 H 34.9825 4.39186 2.45203 0
M  V30 413 H 34.6825 5.72762 1.31213 0
M  V30 414 H 36.2065 5.67899 2.24329 0
M  V30 415 H 37.6205 5.73293 -0.027502 0
M  V30 416 H 36.0175 5.94896 -0.788627 0
M  V30 417 H 37.0875 4.65504 -1.35773 0
M  V30 418 N 38.4306 0.297415 1.54768 0
M  V30 419 C 39.3406 -0.58983 2.27064 0
M  V30 420 C 40.3566 -1.15144 1.30453 0
M  V30 421 O 41.5326 -1.17699 1.63428 0
M  V30 422 C 38.5976 -1.74714 2.9946 0
M  V30 423 C 37.6586 -1.21997 4.11601 0
M  V30 424 C 36.8916 -2.32212 4.80535 0
M  V30 425 O 37.1146 -3.52036 4.48806 0
M  V30 426 O 36.0486 -1.99106 5.68014 0
M  V30 427 H 39.8746 -0.00348199 3.037 0
M  V30 428 H 37.4596 0.0640035 1.49263 0
M  V30 429 H 39.3416 -2.42147 3.44881 0
M  V30 430 H 38.0166 -2.32016 2.25722 0
M  V30 431 H 36.9236 -0.511458 3.70587 0
M  V30 432 H 38.2566 -0.692419 4.87305 0
M  V30 433 N 39.9087 -1.5758 0.0250728 0
M  V30 434 C 40.8187 -2.1343 -0.973905 0
M  V30 435 C 41.8347 -1.08556 -1.35984 0
M  V30 436 O 43.0107 -1.40592 -1.44207 0
M  V30 437 C 40.0757 -2.64703 -2.23904 0
M  V30 438 C 39.1367 -3.84276 -1.91391 0
M  V30 439 C 38.3697 -4.33095 -3.11873 0
M  V30 440 O 38.5927 -3.81107 -4.24398 0
M  V30 441 O 37.5267 -5.24984 -2.94406 0
M  V30 442 H 41.3527 -2.99057 -0.529036 0
M  V30 443 H 38.9377 -1.48118 -0.195288 0
M  V30 444 H 40.8197 -2.97769 -2.98181 0
M  V30 445 H 39.4947 -1.82161 -2.6758 0
M  V30 446 H 38.4017 -3.56143 -1.14511 0
M  V30 447 H 39.7347 -4.67968 -1.52534 0
M  V30 448 N 41.3868 0.248026 -1.55636 0
M  V30 449 C 42.8028 0.596483 -1.48035 0
M  V30 450 C 43.0028 1.88386 -0.715039 0
M  V30 451 O 42.0588 2.51319 -0.243944 0
M  V30 452 C 43.3718 0.700258 -2.92433 0
M  V30 453 C 44.9198 0.792659 -3.02797 0
M  V30 454 C 45.3948 0.928005 -4.485 0
M  V30 455 N 46.8858 0.992903 -4.52433 0
M  V30 456 C 47.6208 1.11687 -5.62418 0
M  V30 457 N 47.1168 1.20645 -6.82214 0
M  V30 458 N 48.9098 1.14994 -5.50212 0
M  V30 459 H 41.0608 -0.597109 -2.03834 0
M  V30 460 H 43.3238 -0.205925 -0.925364 0
M  V30 461 H 43.0298 -0.175658 -3.51261 0
M  V30 462 H 42.9038 1.57255 -3.42857 0
M  V30 463 H 45.2908 1.65903 -2.4405 0
M  V30 464 H 45.3718 -0.104762 -2.55585 0
M  V30 465 H 45.0158 0.0661971 -5.07857 0
M  V30 466 H 44.9458 1.84045 -4.93391 0
M  V30 467 H 47.4368 0.935064 -3.66149 0
M  V30 468 H 47.7498 1.30008 -7.61786 0
M  V30 469 H 46.0948 1.17605 -6.84977 0
M  V30 470 H 49.2858 1.07643 -4.55555 0
M  V30 471 H 49.4588 1.24311 -6.35965 0
M  V30 472 N 42.8649 1.48995 0.513639 0
M  V30 473 C 43.7949 1.67636 1.62544 0
M  V30 474 C 44.7759 0.525087 1.61793 0
M  V30 475 O 45.9609 0.759502 1.78732 0
M  V30 476 C 43.0909 1.73114 3.01079 0
M  V30 477 C 42.0449 2.87905 3.16693 0
M  V30 478 C 41.3709 2.78486 4.56453 0
M  V30 479 C 42.6709 4.29005 2.97913 0
M  V30 480 H 44.3649 2.60716 1.47198 0
M  V30 481 H 41.9109 1.25465 0.706714 0
M  V30 482 H 43.8639 1.84742 3.78746 0
M  V30 483 H 42.5879 0.766241 3.17484 0
M  V30 484 H 41.2469 2.75859 2.41448 0
M  V30 485 H 40.8949 1.7993 4.69717 0
M  V30 486 H 40.5949 3.55523 4.67843 0
M  V30 487 H 42.1189 2.92104 5.36197 0
M  V30 488 H 43.5329 4.41798 3.65359 0
M  V30 489 H 41.9299 5.07166 3.20785 0
M  V30 490 H 42.9999 4.44329 1.94165 0
M  V30 491 N 44.343 -0.763751 1.37857 0
M  V30 492 C 45.589 -1.52483 1.33704 0
M  V30 493 C 45.922 -1.94051 -0.0759612 0
M  V30 494 O 45.197 -1.64675 -1.03501 0
M  V30 495 C 45.48 -2.78441 2.28348 0
M  V30 496 C 45.333 -2.43075 3.78463 0
M  V30 497 C 46.652 -3.80415 2.21298 0
M  V30 498 H 43.771 -0.553169 0.487005 0
M  V30 499 H 46.413 -0.875562 1.68624 0
M  V30 500 H 44.563 -3.33842 1.987 0
M  V30 501 H 46.235 -1.93527 4.18742 0
M  V30 502 H 44.478 -1.75666 3.96641 0
M  V30 503 H 45.149 -3.33149 4.40132 0
M  V30 504 H 47.625 -3.34527 2.47449 0
M  V30 505 H 46.501 -4.66257 2.89647 0
M  V30 506 H 46.762 -4.25262 1.20849 0
M  V30 507 N 45.8211 -1.22559 -0.990812 0
M  V30 508 C 46.7311 -1.01394 -2.11557 0
M  V30 509 C 47.7471 0.0383962 -1.73958 0
M  V30 510 O 48.9231 -0.154787 -2.00804 0
M  V30 511 C 45.9881 -0.596569 -3.41529 0
M  V30 512 C 45.0491 -1.72276 -3.93217 0
M  V30 513 C 44.2821 -1.32521 -5.16985 0
M  V30 514 O 44.5051 -0.204909 -5.70032 0
M  V30 515 O 43.4391 -2.14247 -5.62478 0
M  V30 516 H 47.2651 -1.95633 -2.32296 0
M  V30 517 H 44.8501 -1.01172 -1.0993 0
M  V30 518 H 46.7321 -0.374263 -4.19735 0
M  V30 519 H 45.4071 0.316939 -3.22145 0
M  V30 520 H 44.3141 -1.99961 -3.16174 0
M  V30 521 H 45.6471 -2.61421 -4.17037 0
M  V30 522 N 47.2992 1.18797 -1.03562 0
M  V30 523 C 48.5452 1.89192 -0.746867 0
M  V30 524 C 48.9002 1.78531 0.717245 0
M  V30 525 O 48.1932 1.17137 1.51622 0
M  V30 526 C 48.3872 3.38692 -1.14117 0
M  V30 527 C 48.2162 3.63902 -2.64207 0
M  V30 528 C 46.9862 3.81553 -3.31279 0
M  V30 529 C 49.1842 3.64903 -3.62423 0
M  V30 530 N 47.1662 3.94455 -4.70402 0
M  V30 531 C 48.5372 3.83458 -4.87196 0
M  V30 532 C 50.5922 3.47965 -3.56125 0
M  V30 533 C 49.2952 3.86829 -6.06429 0
M  V30 534 C 51.3212 3.52616 -4.7478 0
M  V30 535 C 50.6832 3.71663 -5.9837 0
M  V30 536 H 46.7822 0.711141 -0.325273 0
M  V30 537 H 49.3662 1.42727 -1.32428 0
M  V30 538 H 47.5372 3.83864 -0.591889 0
M  V30 539 H 49.2692 3.96634 -0.803966 0
M  V30 540 H 46.0242 3.80723 -2.81686 0
M  V30 541 H 46.4482 4.0474 -5.42692 0
M  V30 542 H 51.0902 3.32189 -2.61553 0
M  V30 543 H 48.8082 4.01395 -7.01362 0
M  V30 544 H 52.3942 3.40791 -4.71543 0
M  V30 545 H 51.2742 3.75145 -6.88648 0
M  V30 546 N 48.7773 0.814389 1.34928 0
M  V30 547 C 50.0263 0.394871 1.97797 0
M  V30 548 C 50.3393 -1.04555 1.65311 0
M  V30 549 O 51.5453 -1.56856 2.21604 0
M  V30 550 C 50.0013 0.655103 3.53888 0
M  V30 551 C 49.6093 2.10858 3.95276 0
M  V30 552 C 51.3533 0.301329 4.23429 0
M  V30 553 C 49.2603 2.31415 5.44244 0
M  V30 554 H 48.1903 0.143913 0.740139 0
M  V30 555 H 50.8413 0.999544 1.53888 0
M  V30 556 H 49.2233 -0.0196253 3.95995 0
M  V30 557 H 50.3973 2.82176 3.64298 0
M  V30 558 H 48.7123 2.42297 3.38646 0
M  V30 559 H 51.3093 0.432869 5.32945 0
M  V30 560 H 51.6523 -0.75331 4.09428 0
M  V30 561 H 52.1853 0.930288 3.86769 0
M  V30 562 H 48.9243 3.35353 5.63222 0
M  V30 563 H 48.4443 1.6463 5.76764 0
M  V30 564 H 50.1233 2.13352 6.10811 0
M  V30 565 N 50.2554 -1.46986 0.568584 0
M  V30 566 C 51.5044 -2.01646 0.0465894 0
M  V30 567 C 51.8174 -1.44721 -1.31587 0
M  V30 568 O 53.0234 -1.91113 -1.92842 0
M  V30 569 C 51.4794 -3.59885 0.032752 0
M  V30 570 C 51.0874 -4.25804 1.39266 0
M  V30 571 C 52.8314 -4.22255 -0.436038 0
M  V30 572 C 50.7384 -5.76081 1.33732 0
M  V30 573 H 49.6684 -0.753876 0.013647 0
M  V30 574 H 52.3194 -1.68864 0.718131 0
M  V30 575 H 50.7014 -3.8968 -0.704669 0
M  V30 576 H 51.8754 -4.07637 2.1487 0
M  V30 577 H 50.1904 -3.7547 1.80032 0
M  V30 578 H 52.7874 -5.32394 -0.49602 0
M  V30 579 H 53.1304 -3.90212 -1.45053 0
M  V30 580 H 53.6634 -3.97033 0.246877 0
M  V30 581 H 50.4024 -6.12761 2.32817 0
M  V30 582 H 49.9224 -5.96553 0.623267 0
M  V30 583 H 51.6014 -6.38518 1.0442 0
M  V30 584 N 51.7335 -0.305618 -1.54608 0
M  V30 585 C 52.9795 0.302746 -2.00528 0
M  V30 586 C 53.3125 1.53184 -1.19367 0
M  V30 587 O 52.5875 1.92598 -0.271321 0
M  V30 588 C 52.8705 0.654756 -3.54097 0
M  V30 589 C 52.7235 -0.583793 -4.45995 0
M  V30 590 C 54.0425 1.47947 -4.14487 0
M  V30 591 H 51.1615 0.108564 -0.72896 0
M  V30 592 H 53.8035 -0.418634 -1.85331 0
M  V30 593 H 51.9535 1.26935 -3.67178 0
M  V30 594 H 53.6255 -1.22224 -4.44814 0
M  V30 595 H 51.8685 -1.21615 -4.16404 0
M  V30 596 H 52.5395 -0.293287 -5.5122 0
M  V30 597 H 55.0155 0.96013 -4.04871 0
M  V30 598 H 53.8915 1.69454 -5.22088 0
M  V30 599 H 54.1525 2.47011 -3.66658 0
M  V30 600 N 53.2116 1.57565 -0.0334293 0
M  V30 601 C 54.1436 2.0739 0.975811 0
M  V30 602 C 55.1566 0.998166 1.2861 0
M  V30 603 O 56.3456 1.27426 1.25 0
M  V30 604 C 53.4456 2.4871 2.30209 0
M  V30 605 C 52.6186 3.79413 2.17634 0
M  V30 606 C 51.6776 4.07237 3.33233 0
M  V30 607 O 50.7036 4.77425 3.09927 0
M  V30 608 N 51.9056 3.5775 4.5716 0
M  V30 609 H 54.6706 2.94598 0.55066 0
M  V30 610 H 52.2316 1.61173 0.15323 0
M  V30 611 H 54.2236 2.64413 3.06378 0
M  V30 612 H 52.7936 1.66845 2.64351 0
M  V30 613 H 52.0136 3.73465 1.26165 0
M  V30 614 H 53.3016 4.65038 2.0644 0
M  V30 615 H 52.6996 3.00976 4.78989 0
M  V30 616 H 51.2566 3.78724 5.30482 0
M  V30 617 N 54.6897 -0.239769 1.55765 0
M  V30 618 C 55.9297 -0.974076 1.79697 0
M  V30 619 C 56.2937 -1.82249 0.604088 0
M  V30 620 O 57.4947 -2.58913 0.722324 0
M  V30 621 C 55.7657 -1.80595 3.08416 0
M  V30 622 S 57.3247 -2.59838 3.53596 0
M  V30 623 H 54.1427 -0.327524 0.63107 0
M  V30 624 H 56.7447 -0.241277 1.94005 0
M  V30 625 H 55.4487 -1.17249 3.93295 0
M  V30 626 H 54.9797 -2.58137 2.96865 0
M  V30 627 H 56.9947 -3.82987 3.15492 0
M  V30 628 N 56.1678 -1.49265 -0.50573 0
M  V30 629 C 57.4158 -1.582 -1.25766 0
M  V30 630 C 57.7368 -0.268482 -1.93143 0
M  V30 631 O 57.0068 0.711833 -1.8251 0
M  V30 632 H 55.5868 -0.582873 -0.467191 0
M  V30 633 H 58.2488 -1.85865 -0.586525 0
M  V30 634 H 57.3448 -2.37563 -2.02412 0
M  V30 635 N 57.6459 0.756429 -1.3826 0
M  V30 636 C 59.0569 1.33359 -1.30661 0
M  V30 637 C 59.4079 1.96161 0.0388875 0
M  V30 638 O 58.5329 1.94874 0.940918 0
M  V30 639 C 59.1279 2.42477 -2.36622 0
M  V30 640 C 57.6869 2.95922 -2.3261 0
M  V30 641 C 56.8339 1.69275 -2.19639 0
M  V30 642 H 59.7849 0.55552 -1.4866 0
M  V30 643 H 59.8059 3.22345 -2.02174 0
M  V30 644 H 59.3179 1.96739 -3.34538 0
M  V30 645 H 57.4189 3.45996 -1.38267 0
M  V30 646 H 57.5319 3.50494 -3.26636 0
M  V30 647 H 55.8959 1.92793 -1.66442 0
M  V30 648 H 56.6789 1.25619 -3.19491 0
M  V30 649 N 59.124 1.23083 0.984299 0
M  V30 650 C 60.401 0.9689 1.69917 0
M  V30 651 C 60.781 -0.513604 2.04757 0
M  V30 652 O 60.129 -1.48383 1.73767 0
M  V30 653 C 60.339 1.87518 2.94343 0
M  V30 654 C 61.687 2.13636 3.6694 0
M  V30 655 O 62.711 1.85036 3.04368 0
M  V30 656 O 61.57 2.62119 4.79537 0
M  V30 657 H 58.664 0.365095 0.742048 0
M  V30 658 H 61.21 1.34107 1.03987 0
M  V30 659 H 59.982 2.87756 2.65164 0
M  V30 660 H 59.605 1.50514 3.6801 0
M  V30 661 N 60.6021 -1.18246 1.0419 0
M  V30 662 C 61.8481 -1.88536 0.747122 0
M  V30 663 C 62.1811 -1.80223 -0.723409 0
M  V30 664 O 61.4561 -1.20337 -1.52804 0
M  V30 665 C 61.7391 -3.38968 1.21544 0
M  V30 666 C 61.5921 -3.56084 2.74816 0
M  V30 667 C 62.9111 -4.32648 0.806482 0
M  V30 668 H 60.0301 -0.684619 0.272883 0
M  V30 669 H 62.6721 -1.39113 1.29413 0
M  V30 670 H 60.8221 -3.8119 0.750081 0
M  V30 671 H 62.4941 -3.22946 3.29399 0
M  V30 672 H 60.7371 -2.98699 3.14582 0
M  V30 673 H 61.4081 -4.61639 3.02644 0
M  V30 674 H 63.8841 -3.98211 1.20695 0
M  V30 675 H 62.7601 -5.36462 1.1619 0
M  V30 676 H 63.0211 -4.41146 -0.29029 0
M  V30 677 N 62.0802 -0.821533 -1.34494 0
M  V30 678 C 63.3282 -0.408139 -1.97936 0
M  V30 679 C 63.6492 1.03193 -1.65457 0
M  V30 680 O 62.9192 1.71622 -0.944595 0
M  V30 681 H 61.4992 -0.147928 -0.732206 0
M  V30 682 H 64.1612 -1.05067 -1.64155 0
M  V30 683 H 63.2572 -0.52601 -3.07635 0
M  V30 684 N 63.5583 1.46682 -0.576371 0
M  V30 685 C 64.9743 1.57822 -0.237562 0
M  V30 686 C 65.1743 1.57237 1.26011 0
M  V30 687 O 64.2303 1.48596 2.04146 0
M  V30 688 C 65.5433 2.87499 -0.881168 0
M  V30 689 C 67.0913 3.01119 -0.85417 0
M  V30 690 C 67.5663 4.33524 -1.4772 0
M  V30 691 N 69.0573 4.40207 -1.44125 0
M  V30 692 C 69.7923 5.4126 -1.89276 0
M  V30 693 N 69.2883 6.49021 -2.42371 0
M  V30 694 N 71.0813 5.32422 -1.80231 0
M  V30 695 H 63.2323 1.45306 -1.54919 0
M  V30 696 H 65.4953 0.692733 -0.647167 0
M  V30 697 H 65.2013 2.9372 -1.93447 0
M  V30 698 H 65.0753 3.75224 -0.385592 0
M  V30 699 H 67.4623 2.94485 0.190491 0
M  V30 700 H 67.5433 2.14887 -1.3877 0
M  V30 701 H 67.1873 4.40916 -2.52103 0
M  V30 702 H 67.1173 5.1852 -0.918947 0
M  V30 703 H 69.6083 3.62931 -1.05307 0
M  V30 704 H 69.9213 7.2233 -2.74698 0
M  V30 705 H 68.2663 6.49858 -2.46393 0
M  V30 706 H 71.4573 4.47137 -1.38514 0
M  V30 707 H 71.6303 6.11034 -2.15735 0
M  V30 708 N 65.0364 0.313813 1.54444 0
M  V30 709 C 66.4474 -0.176243 1.85866 0
M  V30 710 C 66.7984 -1.52405 1.23561 0
M  V30 711 O 65.9234 -2.09605 0.538016 0
M  V30 712 C 66.5184 -0.32657 3.37222 0
M  V30 713 C 65.0774 -0.760846 3.6863 0
M  V30 714 C 64.2244 0.123247 2.77026 0
M  V30 715 H 67.1754 0.534418 1.49431 0
M  V30 716 H 67.1964 -1.15908 3.62416 0
M  V30 717 H 66.7084 0.654531 3.82541 0
M  V30 718 H 64.8094 -1.75204 3.28838 0
M  V30 719 H 64.9224 -0.571353 4.75681 0
M  V30 720 H 63.2864 -0.399597 2.51546 0
M  V30 721 H 64.0694 1.10094 3.25168 0
M  V30 722 N 66.5145 -1.57545 0.0417849 0
M  V30 723 C 67.7915 -1.83642 -0.673433 0
M  V30 724 C 68.1715 -0.928298 -1.89594 0
M  V30 725 O 67.5195 0.0129955 -2.28496 0
M  V30 726 C 67.7295 -3.33155 -1.03964 0
M  V30 727 C 69.0775 -3.99941 -1.42592 0
M  V30 728 O 70.1015 -3.37725 -1.13226 0
M  V30 729 O 68.9605 -5.09619 -1.9736 0
M  V30 730 H 66.0545 -0.757638 -0.331533 0
M  V30 731 H 68.6005 -1.69554 0.070433 0
M  V30 732 H 67.3725 -3.9093 -0.170098 0
M  V30 733 H 66.9955 -3.52396 -1.84126 0
M  V30 734 N 67.9926 0.231505 -1.5589 0
M  V30 735 C 69.4086 0.580748 -1.48659 0
M  V30 736 C 69.6086 1.87617 -0.73498 0
M  V30 737 O 68.6646 2.51046 -0.270586 0
M  V30 738 C 69.9776 0.669202 -2.93159 0
M  V30 739 C 71.5256 0.760499 -3.03621 0
M  V30 740 C 72.0006 0.880383 -4.49459 0
M  V30 741 N 73.4916 0.944861 -4.53461 0
M  V30 742 C 74.2266 1.05716 -5.63571 0
M  V30 743 N 73.7226 1.13403 -6.83456 0
M  V30 744 N 75.5156 1.09152 -5.514 0
M  V30 745 H 67.6666 -0.618695 -2.03189 0
M  V30 746 H 69.9296 -0.215728 -0.923128 0
M  V30 747 H 69.6356 -0.212904 -3.51055 0
M  V30 748 H 69.5096 1.5361 -3.44505 0
M  V30 749 H 71.8966 1.63305 -2.45796 0
M  V30 750 H 71.9776 -0.131864 -2.5546 0
M  V30 751 H 71.6216 0.0123284 -5.07899 0
M  V30 752 H 71.5516 1.78802 -4.95316 0
M  V30 753 H 74.0426 0.896176 -3.6712 0
M  V30 754 H 74.3556 1.21921 -7.63122 0
M  V30 755 H 72.7006 1.10333 -6.86186 0
M  V30 756 H 75.8916 1.02805 -4.56671 0
M  V30 757 H 76.0646 1.17558 -6.37247 0
M  V30 758 N 69.4707 1.49531 0.497807 0
M  V30 759 C 70.7187 1.58865 1.24926 0
M  V30 760 C 71.0397 0.278721 1.92998 0
M  V30 761 O 70.3097 -0.702144 1.82885 0
M  V30 762 H 68.8897 0.585343 0.464094 0
M  V30 763 H 71.5517 1.86174 0.57666 0
M  V30 764 H 70.6477 2.38633 2.01149 0
M  V30 765 N 70.9488 -0.749086 1.3866 0
M  V30 766 C 72.3648 -1.05276 1.19955 0
M  V30 767 C 72.5648 -2.01435 0.05134 0
M  V30 768 O 71.6208 -2.45232 -0.60147 0
M  V30 769 C 72.9338 -1.62853 2.52783 0
M  V30 770 C 74.4818 -1.75002 2.59506 0
M  V30 771 C 74.9568 -2.35991 3.92521 0
M  V30 772 N 76.4478 -2.43416 3.94085 0
M  V30 773 C 77.1828 -2.91511 4.9377 0
M  V30 774 N 76.6788 -3.39608 6.03853 0
M  V30 775 N 78.4718 -2.90592 4.81157 0
M  V30 776 H 70.6228 -0.111066 2.12109 0
M  V30 777 H 72.8858 -0.111901 0.941373 0
M  V30 778 H 72.5918 -0.99664 3.37283 0
M  V30 779 H 72.4658 -2.61854 2.715 0
M  V30 780 H 74.8528 -2.37317 1.75398 0
M  V30 781 H 74.9338 -0.74693 2.44652 0
M  V30 782 H 74.5778 -1.74308 4.77053 0
M  V30 783 H 74.5078 -3.3695 4.04688 0
M  V30 784 H 76.9988 -2.09405 3.14576 0
M  V30 785 H 77.3118 -3.74775 6.75843 0
M  V30 786 H 75.6568 -3.37653 6.07466 0
M  V30 787 H 78.8478 -2.52332 3.94267 0
M  V30 788 H 79.0208 -3.27762 5.58996 0
M  V30 789 N 72.4269 -1.23603 -0.977757 0
M  V30 790 C 73.3569 -1.04401 -2.0886 0
M  V30 791 C 74.3379 0.0399052 -1.70053 0
M  V30 792 O 75.5229 -0.125246 -1.93796 0
M  V30 793 C 72.6529 -0.637269 -3.41403 0
M  V30 794 C 71.6069 -1.66883 -3.94124 0
M  V30 795 C 70.9329 -1.11745 -5.22893 0
M  V30 796 C 72.2329 -3.06247 -4.23096 0
M  V30 797 H 73.9269 -1.97316 -2.25182 0
M  V30 798 H 71.4729 -0.950096 -1.08209 0
M  V30 799 H 73.4259 -0.48998 -4.18542 0
M  V30 800 H 72.1499 0.327557 -3.24953 0
M  V30 801 H 70.8089 -1.80416 -3.19133 0
M  V30 802 H 70.4569 -0.143527 -5.02795 0
M  V30 803 H 70.1569 -1.80672 -5.59134 0
M  V30 804 H 71.6809 -0.982067 -6.02651 0
M  V30 805 H 73.0949 -2.96001 -4.90975 0
M  V30 806 H 71.4919 -3.72436 -4.70544 0
M  V30 807 H 72.5619 -3.55041 -3.30263 0
M  V30 808 N 73.905 1.17692 -1.04816 0
M  V30 809 C 75.153 1.87488 -0.754497 0
M  V30 810 C 75.474 1.81205 0.720407 0
M  V30 811 O 74.744 1.23544 1.52032 0
M  V30 812 H 73.324 0.694101 -0.276102 0
M  V30 813 H 75.986 1.42793 -1.32651 0
M  V30 814 H 75.082 2.93328 -1.06606 0
M  V30 815 N 75.3831 0.828654 1.34056 0
M  V30 816 C 76.6301 0.419458 1.98108 0
M  V30 817 C 76.9581 -1.01886 1.65679 0
M  V30 818 O 76.2131 -1.72539 0.923512 0
M  V30 819 C 76.5121 0.575226 3.52741 0
M  V30 820 C 76.1781 1.98012 4.05095 0
M  V30 821 C 74.8401 2.36442 4.19104 0
M  V30 822 C 77.1921 2.89824 4.33188 0
M  V30 823 C 74.5201 3.66009 4.58535 0
M  V30 824 C 76.8721 4.1886 4.74066 0
M  V30 825 C 75.5361 4.5726 4.86281 0
M  V30 826 H 74.8061 0.153491 0.724929 0
M  V30 827 H 77.4531 1.05371 1.59904 0
M  V30 828 H 75.7581 -0.142385 3.91541 0
M  V30 829 H 77.4551 0.239057 4.00287 0
M  V30 830 H 74.0451 1.67162 3.94658 0
M  V30 831 H 78.2291 2.61375 4.21897 0
M  V30 832 H 73.4851 3.95579 4.66184 0
M  V30 833 H 77.6591 4.90086 4.94761 0
M  V30 834 H 75.2861 5.57707 5.16592 0
M  V30 835 N 76.8612 -1.46375 0.584142 0
M  V30 836 C 77.7932 -2.28443 -0.186119 0
M  V30 837 C 78.8062 -1.38596 -0.854115 0
M  V30 838 O 79.9952 -1.63183 -0.723438 0
M  V30 839 C 77.0952 -3.13671 -1.28311 0
M  V30 840 C 76.2682 -4.31652 -0.706758 0
M  V30 841 C 75.3272 -4.98267 -1.69163 0
M  V30 842 O 74.3532 -5.55815 -1.22712 0
M  V30 843 N 75.5552 -4.95408 -3.02575 0
M  V30 844 H 78.3202 -2.9519 0.517986 0
M  V30 845 H 75.8812 -1.56303 0.42201 0
M  V30 846 H 77.8732 -3.55101 -1.94128 0
M  V30 847 H 76.4432 -2.48989 -1.89005 0
M  V30 848 H 75.6632 -3.93989 0.128908 0
M  V30 849 H 76.9512 -5.07906 -0.301506 0
M  V30 850 H 76.3492 -4.49902 -3.42936 0
M  V30 851 H 74.9062 -5.40774 -3.63877 0
M  V30 852 N 78.3393 -0.321999 -1.54275 0
M  V30 853 C 79.5853 0.281461 -2.00837 0
M  V30 854 C 79.9183 1.51909 -1.20985 0
M  V30 855 O 79.1933 1.923 -0.291733 0
M  V30 856 C 79.4763 0.617162 -3.54772 0
M  V30 857 C 79.3293 -0.631064 -4.45351 0
M  V30 858 C 80.6483 1.43542 -4.16033 0
M  V30 859 H 77.7673 0.100826 -0.730071 0
M  V30 860 H 80.4093 -0.438268 -1.84876 0
M  V30 861 H 78.5593 1.23034 -3.68504 0
M  V30 862 H 80.2313 -1.26934 -4.43492 0
M  V30 863 H 78.4743 -1.26025 -4.15091 0
M  V30 864 H 79.1453 -0.351735 -5.50878 0
M  V30 865 H 81.6213 0.917134 -4.05867 0
M  V30 866 H 80.4973 1.63907 -5.23856 0
M  V30 867 H 80.7583 2.43108 -3.69257 0
M  V30 868 N 79.8174 1.5752 -0.0501392 0
M  V30 869 C 81.0634 1.93755 0.618901 0
M  V30 870 C 81.4184 0.928514 1.68512 0
M  V30 871 O 80.7114 -0.0524613 1.91528 0
M  V30 872 C 80.9054 3.34467 1.25963 0
M  V30 873 C 80.7344 4.48965 0.257 0
M  V30 874 C 79.5044 5.05075 -0.150656 0
M  V30 875 C 81.7024 5.11891 -0.497166 0
M  V30 876 N 79.6844 6.03104 -1.14626 0
M  V30 877 C 81.0554 6.05216 -1.34588 0
M  V30 878 C 83.1104 4.9479 -0.55559 0
M  V30 879 C 81.8134 6.83277 -2.24778 0
M  V30 880 C 83.8394 5.73477 -1.44492 0
M  V30 881 C 83.2014 6.66433 -2.28136 0
M  V30 882 H 79.3004 0.756479 0.198149 0
M  V30 883 H 81.8844 1.94316 -0.122229 0
M  V30 884 H 80.0554 3.34685 1.97079 0
M  V30 885 H 81.7874 3.57994 1.88739 0
M  V30 886 H 78.5424 4.7305 0.228094 0
M  V30 887 H 78.9664 6.56813 -1.64092 0
M  V30 888 H 83.6084 4.2273 0.0768625 0
M  V30 889 H 81.3264 7.54629 -2.89069 0
M  V30 890 H 84.9124 5.62273 -1.49468 0
M  V30 891 H 83.7924 7.26258 -2.95835 0
M  V30 892 N 81.2955 -0.223234 1.56011 0
M  V30 893 C 82.2255 -1.27988 1.95298 0
M  V30 894 C 83.2065 -1.48976 0.820979 0
M  V30 895 O 84.3915 -1.61188 1.08315 0
M  V30 896 C 81.5215 -2.63 2.26822 0
M  V30 897 C 80.4755 -2.56671 3.42497 0
M  V30 898 C 79.8015 -3.95697 3.59622 0
M  V30 899 C 81.1015 -2.11601 4.77517 0
M  V30 900 H 82.7955 -0.953525 2.8381 0
M  V30 901 H 80.3415 -0.457244 1.36548 0
M  V30 902 H 82.2945 -3.37077 2.52898 0
M  V30 903 H 81.0185 -2.9732 1.35161 0
M  V30 904 H 79.6775 -1.85051 3.16467 0
M  V30 905 H 79.3255 -4.27322 2.6534 0
M  V30 906 H 79.0255 -3.92345 4.37424 0
M  V30 907 H 80.5495 -4.71438 3.88044 0
M  V30 908 H 81.9635 -2.7542 5.02809 0
M  V30 909 H 80.3605 -2.19311 5.5859 0
M  V30 910 H 81.4305 -1.06824 4.72987 0
M  V30 911 N 82.7736 -1.49793 -0.48987 0
M  V30 912 C 83.7206 -1.67281 -1.59014 0
M  V30 913 C 84.6906 -0.514177 -1.57941 0
M  V30 914 O 85.8756 -0.742533 -1.75759 0
M  V30 915 C 83.0156 -1.75569 -2.97102 0
M  V30 916 C 82.1286 -3.0281 -3.08107 0
M  V30 917 C 81.2636 -3.02008 -4.36995 0
M  V30 918 C 80.3026 -4.23782 -4.41673 0
M  V30 919 N 79.4396 -4.20826 -5.62005 0
M  V30 920 H 84.2796 -2.61224 -1.43409 0
M  V30 921 H 81.8166 -1.29508 -0.697565 0
M  V30 922 H 83.7746 -1.78354 -3.77155 0
M  V30 923 H 82.4046 -0.850827 -3.11385 0
M  V30 924 H 81.4566 -3.09584 -2.21047 0
M  V30 925 H 82.7686 -3.92801 -3.07423 0
M  V30 926 H 81.9226 -3.03418 -5.25378 0
M  V30 927 H 80.6616 -2.09815 -4.4026 0
M  V30 928 H 79.6666 -4.22604 -3.5169 0
M  V30 929 H 80.8916 -5.17181 -4.40115 0
M  V30 930 H 78.8376 -3.31476 -5.66091 0
M  V30 931 H 78.7546 -5.04564 -5.62984 0
M  V30 932 H 80.0226 -4.26355 -6.52565 0
M  V30 933 N 84.2517 0.741722 -1.39055 0
M  V30 934 C 85.1997 1.87702 -1.3737 0
M  V30 935 C 86.1937 1.67427 -0.257812 0
M  V30 936 O 87.3997 1.7485 -0.427489 0
M  V30 937 H 83.7747 0.617757 -0.428812 0
M  V30 938 H 85.7457 1.86239 -2.33147 0
M  V30 939 C 84.4947 3.25315 -1.22741 0
M  V30 940 H 83.8177 3.41509 -2.07873 0
M  V30 941 H 85.2577 4.04964 -1.25618 0
M  V30 942 C 83.7167 3.36838 0.0647316 0
M  V30 943 O 84.2467 3.88073 1.03741 0
M  V30 944 N 82.4527 2.90329 0.125544 0
M  V30 945 H 81.9997 2.48823 -0.666682 0
M  V30 946 H 81.9577 2.98418 0.989639 0
M  V30 947 N 85.7298 1.2412 0.971189 0
M  V30 948 C 86.9778 1.07668 1.71032 0
M  V30 949 C 87.2988 -0.385797 1.91146 0
M  V30 950 O 86.5688 -1.27569 1.4867 0
M  V30 951 H 85.1488 0.395429 0.633755 0
M  V30 952 H 87.8108 1.55984 1.16855 0
M  V30 953 H 86.9068 1.57195 2.69622 0
M  V30 954 N 87.2079 -1.17134 1.05439 0
M  V30 955 C 88.4539 -1.87733 0.767077 0
M  V30 956 C 88.7869 -1.8098 -0.704253 0
M  V30 957 O 88.0619 -1.21951 -1.5152 0
M  V30 958 C 88.3449 -3.37659 1.25133 0
M  V30 959 C 88.1979 -3.53149 2.78578 0
M  V30 960 C 89.5169 -4.31768 0.852324 0
M  V30 961 H 86.6359 -0.681687 0.280129 0
M  V30 962 H 89.2779 -1.37732 1.30881 0
M  V30 963 H 87.4279 -3.80373 0.790469 0
M  V30 964 H 89.0999 -3.19434 3.32806 0
M  V30 965 H 87.3429 -2.95345 3.17732 0
M  V30 966 H 88.0139 -4.58403 3.07523 0
M  V30 967 H 90.4899 -3.96909 1.24911 0
M  V30 968 H 89.3659 -5.35199 1.21873 0
M  V30 969 H 89.6269 -4.41429 -0.243485 0
M  V30 970 N 88.686 -0.835752 -1.33615 0
M  V30 971 C 89.935 -0.426289 -1.97144 0
M  V30 972 C 90.248 1.01912 -1.66953 0
M  V30 973 O 91.454 1.53311 -2.24072 0
M  V30 974 C 89.91 -0.711321 -3.52801 0
M  V30 975 C 89.518 -2.1712 -3.91871 0
M  V30 976 C 91.262 -0.368654 -4.22896 0
M  V30 977 C 89.169 -2.40044 -5.40493 0
M  V30 978 H 88.099 -0.15567 -0.737755 0
M  V30 979 H 90.75 -1.0239 -1.52278 0
M  V30 980 H 89.132 -0.0433766 -3.95976 0
M  V30 981 H 90.306 -2.87936 -3.59763 0
M  V30 982 H 88.621 -2.47654 -3.34749 0
M  V30 983 H 91.218 -0.517601 -5.32189 0
M  V30 984 H 91.561 0.688078 -4.10574 0
M  V30 985 H 92.094 -0.991702 -3.8524 0
M  V30 986 H 88.833 -3.44271 -5.57815 0
M  V30 987 H 88.353 -1.73785 -5.74072 0
M  V30 988 H 90.032 -2.23042 -6.0734 0
M  V30 989 N 90.1641 1.46063 -0.591896 0
M  V30 990 C 91.0941 2.33172 0.123673 0
M  V30 991 C 92.0751 1.45897 0.87453 0
M  V30 992 O 93.2601 1.74698 0.848181 0
M  V30 993 C 90.3901 3.28336 1.13194 0
M  V30 994 C 89.3441 4.25124 0.495324 0
M  V30 995 C 88.6701 5.09863 1.61071 0
M  V30 996 C 89.9701 5.19143 -0.573425 0
M  V30 997 H 91.6641 2.93252 -0.603646 0
M  V30 998 H 89.2101 1.41014 -0.291741 0
M  V30 999 H 91.1631 3.88137 1.64097 0
M  V30 1000 H 89.8871 2.66383 1.88965 0
M  V30 1001 H 88.5461 3.66599 0.00729452 0
M  V30 1002 H 88.1941 4.44288 2.35832 0
M  V30 1003 H 87.8941 5.75417 1.19035 0
M  V30 1004 H 89.4181 5.72529 2.12233 0
M  V30 1005 H 90.8321 5.73106 -0.1491 0
M  V30 1006 H 89.2291 5.93089 -0.914636 0
M  V30 1007 H 90.2991 4.62519 -1.45617 0
M  V30 1008 N 91.6422 0.330177 1.54103 0
M  V30 1009 C 92.8672 -0.274893 2.0557 0
M  V30 1010 C 93.2922 -1.44487 1.20437 0
M  V30 1011 O 92.6502 -1.80021 0.214991 0
M  V30 1012 C 92.6982 -0.68079 3.54115 0
M  V30 1013 O 91.8022 -1.7824 3.71893 0
M  V30 1014 H 91.1432 -0.0483849 0.662235 0
M  V30 1015 H 93.6732 0.480508 1.98878 0
M  V30 1016 H 93.6832 -0.961635 3.96505 0
M  V30 1017 H 92.3582 0.174903 4.15532 0
M  V30 1018 H 90.9352 -1.49985 3.41407 0
M  V30 1019 N 93.1203 -1.57491 0.0584922 0
M  V30 1020 C 94.0673 -2.11958 -0.913376 0
M  V30 1021 C 95.0373 -1.02875 -1.30407 0
M  V30 1022 O 96.2223 -1.30464 -1.39226 0
M  V30 1023 C 93.3623 -2.67497 -2.18035 0
M  V30 1024 C 92.4753 -3.90691 -1.84349 0
M  V30 1025 C 91.6103 -4.3452 -3.05559 0
M  V30 1026 C 90.6493 -5.50395 -2.67827 0
M  V30 1027 N 89.7863 -5.89244 -3.81754 0
M  V30 1028 H 94.6263 -2.94704 -0.442017 0
M  V30 1029 H 92.1633 -1.45643 -0.206545 0
M  V30 1030 H 94.1213 -2.978 -2.92183 0
M  V30 1031 H 92.7513 -1.87537 -2.62735 0
M  V30 1032 H 91.8033 -3.66934 -1.00319 0
M  V30 1033 H 93.1153 -4.7489 -1.5258 0
M  V30 1034 H 92.2693 -4.66414 -3.87998 0
M  V30 1035 H 91.0083 -3.49147 -3.40511 0
M  V30 1036 H 90.0133 -5.18165 -1.83806 0
M  V30 1037 H 91.2383 -6.3749 -2.34059 0
M  V30 1038 H 89.1843 -5.06823 -4.16493 0
M  V30 1039 H 89.1013 -6.68151 -3.53708 0
M  V30 1040 H 90.3693 -6.25756 -4.64811 0
M  V30 1041 N 94.5984 0.214957 -1.56127 0
M  V30 1042 C 95.5284 1.2695 -1.95974 0
M  V30 1043 C 96.5094 1.48539 -0.828868 0
M  V30 1044 O 97.6944 1.60611 -1.09168 0
M  V30 1045 C 94.8244 2.61794 -2.28214 0
M  V30 1046 C 93.7784 2.54851 -3.43853 0
M  V30 1047 C 93.1044 3.93785 -3.61715 0
M  V30 1048 C 94.4044 2.09065 -4.78632 0
M  V30 1049 H 96.0984 0.93846 -2.84312 0
M  V30 1050 H 93.6444 0.449996 -1.36788 0
M  V30 1051 H 95.5974 3.35731 -2.54682 0
M  V30 1052 H 94.3214 2.96599 -1.36736 0
M  V30 1053 H 92.9804 1.8337 -3.17444 0
M  V30 1054 H 92.6284 4.25908 -2.67602 0
M  V30 1055 H 92.3284 3.90019 -4.39498 0
M  V30 1056 H 93.8524 4.69374 -3.90539 0
M  V30 1057 H 95.2664 2.7275 -5.04262 0
M  V30 1058 H 93.6634 2.16346 -5.59745 0
M  V30 1059 H 94.7334 1.04315 -4.73547 0
M  V30 1060 N 96.0765 1.50051 0.48192 0
M  V30 1061 C 97.3225 1.60736 1.2366 0
M  V30 1062 C 97.6555 0.301786 1.91841 0
M  V30 1063 O 96.9305 -0.696025 1.8162 0
M  V30 1064 C 97.2135 2.78009 2.28874 0
M  V30 1065 C 97.0665 4.18416 1.65069 0
M  V30 1066 C 98.3855 2.90867 3.30279 0
M  V30 1067 H 95.5045 0.585031 0.448228 0
M  V30 1068 H 98.1465 1.82402 0.531946 0
M  V30 1069 H 96.2965 2.59667 2.88973 0
M  V30 1070 H 97.9685 4.48322 1.0865 0
M  V30 1071 H 96.2115 4.23177 0.954148 0
M  V30 1072 H 96.8825 4.96381 2.41474 0
M  V30 1073 H 99.3585 3.07623 2.80191 0
M  V30 1074 H 98.2345 3.74566 4.01238 0
M  V30 1075 H 98.4955 2.01021 3.93755 0
M  V30 1076 N 97.5546 -0.734337 1.39446 0
M  V30 1077 C 98.5026 -1.86971 1.38364 0
M  V30 1078 C 99.4966 -1.67288 0.266687 0
M  V30 1079 O 100.703 -1.74621 0.436755 0
M  V30 1080 H 97.0776 -0.615474 0.432082 0
M  V30 1081 H 99.0486 -1.85 2.34132 0
M  V30 1082 C 97.7976 -3.2466 1.24465 0
M  V30 1083 H 97.1206 -3.40402 2.09682 0
M  V30 1084 H 98.5606 -4.04292 1.27764 0
M  V30 1085 C 97.0196 -3.36867 -0.0468674 0
M  V30 1086 O 97.5496 -3.88618 -1.01681 0
M  V30 1087 N 95.7556 -2.90391 -0.110145 0
M  V30 1088 H 95.3026 -2.48466 0.679868 0
M  V30 1089 H 95.2606 -2.98939 -0.973799 0
M  V30 1090 N 99.0327 -1.24633 -0.964593 0
M  V30 1091 C 100.258 -1.11596 -1.74818 0
M  V30 1092 C 100.683 0.32723 -1.85232 0
M  V30 1093 O 100.041 1.23695 -1.32549 0
M  V30 1094 C 100.089 -1.76397 -3.1451 0
M  V30 1095 O 99.1927 -1.03685 -3.99153 0
M  V30 1096 H 98.5337 -0.390196 -0.537255 0
M  V30 1097 H 101.064 -1.65002 -1.20977 0
M  V30 1098 H 101.074 -1.8228 -3.65018 0
M  V30 1099 H 99.7487 -2.81401 -3.06246 0
M  V30 1100 H 98.3257 -1.05611 -3.57632 0
M  V30 1101 N 100.511 1.16574 -1.06058 0
M  V30 1102 C 101.441 2.23057 -0.690488 0
M  V30 1103 C 102.422 1.67141 0.315901 0
M  V30 1104 O 103.607 1.93253 0.191556 0
M  V30 1105 C 100.737 3.47222 -0.073625 0
M  V30 1106 C 99.6908 4.16016 -1.00573 0
M  V30 1107 C 99.0168 5.34104 -0.252289 0
M  V30 1108 C 100.317 4.67264 -2.33371 0
M  V30 1109 H 102.011 2.54271 -1.58072 0
M  V30 1110 H 99.5568 1.22218 -0.76149 0
M  V30 1111 H 101.51 4.20939 0.19714 0
M  V30 1112 H 100.234 3.15302 0.85161 0
M  V30 1113 H 98.8928 3.44223 -1.2612 0
M  V30 1114 H 98.5408 4.98437 0.675988 0
M  V30 1115 H 98.2408 5.81072 -0.873455 0
M  V30 1116 H 99.7648 6.10599 0.0109857 0
M  V30 1117 H 101.179 5.32573 -2.12223 0
M  V30 1118 H 99.5758 5.24843 -2.90963 0
M  V30 1119 H 100.646 3.83602 -2.96611 0
M  V30 1120 N 101.989 0.842826 1.3317 0
M  V30 1121 C 103.219 0.453397 2.01564 0
M  V30 1122 C 103.627 -0.951147 1.63554 0
M  V30 1123 O 102.97 -1.63021 0.846746 0
M  V30 1124 C 103.032 0.499013 3.5602 0
M  V30 1125 C 102.696 1.86037 4.1742 0
M  V30 1126 C 103.693 2.82416 4.36506 0
M  V30 1127 C 101.378 2.15428 4.53757 0
M  V30 1128 C 103.372 4.06346 4.91082 0
M  V30 1129 C 101.059 3.39615 5.0804 0
M  V30 1130 C 102.057 4.3489 5.26649 0
M  V30 1131 O 101.745 5.5688 5.79776 0
M  V30 1132 H 101.477 0.177871 0.652179 0
M  V30 1133 H 104.031 1.13808 1.70988 0
M  V30 1134 H 102.261 -0.242467 3.85939 0
M  V30 1135 H 103.95 0.126852 4.05702 0
M  V30 1136 H 104.716 2.6101 4.08777 0
M  V30 1137 H 100.595 1.42061 4.38565 0
M  V30 1138 H 104.139 4.80722 5.05522 0
M  V30 1139 H 100.036 3.60876 5.352 0
M  V30 1140 H 100.804 5.58674 5.98185 0
M  V30 1141 N 103.467 -1.45747 0.599634 0
M  V30 1142 C 104.878 -1.85853 0.177681 0
M  V30 1143 C 105.229 -1.50102 -1.26348 0
M  V30 1144 O 104.354 -0.923905 -1.95686 0
M  V30 1145 C 104.949 -3.37326 0.315688 0
M  V30 1146 C 103.508 -3.76365 -0.0515144 0
M  V30 1147 C 102.655 -2.69722 0.643822 0
M  V30 1148 H 105.606 -1.36661 0.806814 0
M  V30 1149 H 105.627 -3.77778 -0.454321 0
M  V30 1150 H 105.139 -3.63315 1.36468 0
M  V30 1151 H 103.24 -3.55993 -1.09999 0
M  V30 1152 H 103.353 -4.77916 0.336594 0
M  V30 1153 H 101.717 -2.54567 0.0822881 0
M  V30 1154 H 102.5 -2.98549 1.6948 0
M  V30 1155 N 104.945 -0.338344 -1.53925 0
M  V30 1156 C 106.222 0.314774 -1.93051 0
M  V30 1157 C 106.602 1.68669 -1.26941 0
M  V30 1158 O 105.95 2.24636 -0.418445 0
M  V30 1159 C 106.16 0.392249 -3.46789 0
M  V30 1160 C 107.508 0.645554 -4.19664 0
M  V30 1161 O 108.532 0.474575 -3.53024 0
M  V30 1162 O 107.391 0.976408 -5.37707 0
M  V30 1163 H 104.485 0.182598 -0.80659 0
M  V30 1164 H 107.031 -0.389141 -1.65178 0
M  V30 1165 H 105.803 -0.570702 -3.87116 0
M  V30 1166 H 105.426 1.14316 -3.80812 0
M  V30 1167 N 106.423 1.57458 -0.0668435 0
M  V30 1168 C 107.671 1.92919 0.602214 0
M  V30 1169 C 107.992 0.947215 1.70449 0
M  V30 1170 O 107.262 -0.00544117 1.95899 0
M  V30 1171 H 105.842 0.71217 0.22544 0
M  V30 1172 H 108.504 1.94508 -0.123535 0
M  V30 1173 H 107.6 2.94589 1.03073 0
M  V30 1174 N 107.901 -0.206675 1.56239 0
M  V30 1175 C 109.126 -0.949474 1.8439 0
M  V30 1176 C 109.551 -1.76549 0.649016 0
M  V30 1177 O 108.909 -1.76782 -0.402231 0
M  V30 1178 C 108.957 -1.83078 3.10668 0
M  V30 1179 O 108.061 -2.9281 2.90407 0
M  V30 1180 H 107.402 -0.268033 0.607499 0
M  V30 1181 H 109.932 -0.215488 2.03462 0
M  V30 1182 H 109.942 -2.2377 3.41161 0
M  V30 1183 H 108.617 -1.23112 3.97261 0
M  V30 1184 H 107.194 -2.55956 2.71184 0
M  V30 1185 N 109.379 -1.50304 -0.473955 0
M  V30 1186 C 110.326 -1.68959 -1.57231 0
M  V30 1187 C 111.296 -0.530899 -1.57387 0
M  V30 1188 O 112.481 -0.761133 -1.74961 0
M  V30 1189 C 109.621 -1.7871 -2.95223 0
M  V30 1190 C 108.734 -3.06061 -3.04878 0
M  V30 1191 C 107.869 -3.06626 -4.33767 0
M  V30 1192 C 106.908 -4.28443 -4.37154 0
M  V30 1193 N 106.045 -4.26763 -5.5751 0
M  V30 1194 H 110.885 -2.6273 -1.40631 0
M  V30 1195 H 108.422 -1.30241 -0.683789 0
M  V30 1196 H 110.38 -1.82344 -3.75242 0
M  V30 1197 H 109.01 -0.883806 -3.10465 0
M  V30 1198 H 108.062 -3.11911 -2.17751 0
M  V30 1199 H 109.374 -3.96039 -3.0324 0
M  V30 1200 H 108.528 -3.08973 -5.22131 0
M  V30 1201 H 107.267 -2.14473 -4.3801 0
M  V30 1202 H 106.272 -4.2631 -3.47188 0
M  V30 1203 H 107.497 -5.2182 -4.34605 0
M  V30 1204 H 105.443 -3.37462 -5.62544 0
M  V30 1205 H 105.36 -5.10507 -5.57601 0
M  V30 1206 H 106.628 -4.33253 -6.48006 0
M  V30 1207 N 110.857 0.726932 -1.39834 0
M  V30 1208 C 112.268 1.30558 -1.3346 0
M  V30 1209 C 112.619 1.962 -0.00273003 0
M  V30 1210 O 111.744 1.96826 0.899371 0
M  V30 1211 C 112.339 2.37404 -2.41713 0
M  V30 1212 C 110.898 2.90921 -2.38835 0
M  V30 1213 C 110.045 1.64578 -2.2318 0
M  V30 1214 H 112.996 0.523862 -1.49804 0
M  V30 1215 H 113.017 3.17984 -2.08966 0
M  V30 1216 H 112.529 1.89599 -3.38635 0
M  V30 1217 H 110.63 3.42985 -1.45575 0
M  V30 1218 H 110.743 3.43487 -3.33997 0
M  V30 1219 H 109.107 1.89219 -1.70494 0
M  V30 1220 H 109.89 1.18814 -3.22084 0
M  V30 1221 N 112.336 1.25143 0.95797 0
M  V30 1222 C 113.582 1.09855 1.70469 0
M  V30 1223 C 113.915 -0.360187 1.90831 0
M  V30 1224 O 113.19 -1.26568 1.47685 0
M  V30 1225 C 113.473 1.8497 3.08963 0
M  V30 1226 C 113.326 3.38652 2.96032 0
M  V30 1227 C 114.645 1.63016 4.08795 0
M  V30 1228 H 111.764 0.400465 0.618706 0
M  V30 1229 H 114.406 1.53933 1.11376 0
M  V30 1230 H 112.556 1.47505 3.59409 0
M  V30 1231 H 114.228 3.85772 2.52938 0
M  V30 1232 H 112.471 3.66534 2.32025 0
M  V30 1233 H 113.142 3.8642 3.94187 0
M  V30 1234 H 115.618 1.95625 3.67247 0
M  V30 1235 H 114.494 2.18015 5.03747 0
M  V30 1236 H 114.755 0.570692 4.38401 0
M  V30 1237 N 113.814 -1.1601 1.06675 0
M  V30 1238 C 114.761 -2.20525 0.680967 0
M  V30 1239 C 115.731 -1.62904 -0.324283 0
M  V30 1240 O 116.916 -1.89615 -0.212294 0
M  V30 1241 C 114.056 -3.45013 0.0776551 0
M  V30 1242 C 113.169 -4.16863 1.13355 0
M  V30 1243 C 112.304 -5.2888 0.49597 0
M  V30 1244 C 111.343 -5.92537 1.53513 0
M  V30 1245 N 110.48 -6.96038 0.920631 0
M  V30 1246 H 115.32 -2.52876 1.57663 0
M  V30 1247 H 112.857 -1.24199 0.788223 0
M  V30 1248 H 114.815 -4.16193 -0.289704 0
M  V30 1249 H 113.445 -3.132 -0.781393 0
M  V30 1250 H 112.497 -3.44248 1.61857 0
M  V30 1251 H 113.809 -4.60294 1.92174 0
M  V30 1252 H 112.963 -6.06653 0.0758604 0
M  V30 1253 H 111.702 -4.86622 -0.324062 0
M  V30 1254 H 110.707 -5.13482 1.9651 0
M  V30 1255 H 111.932 -6.36873 2.35733 0
M  V30 1256 H 109.878 -6.55888 0.12138 0
M  V30 1257 H 109.795 -7.3786 1.64616 0
M  V30 1258 H 111.063 -7.77725 0.525795 0
M  V30 1259 N 115.292 -0.849877 -1.32721 0
M  V30 1260 C 116.538 -0.451591 -1.97708 0
M  V30 1261 C 116.871 0.989175 -1.6712 0
M  V30 1262 O 116.146 1.69334 -0.956891 0
M  V30 1263 C 116.429 -0.685598 -3.53513 0
M  V30 1264 C 116.282 -2.17444 -3.93749 0
M  V30 1265 C 117.601 -0.138874 -4.39881 0
M  V30 1266 H 114.72 -0.16555 -0.718166 0
M  V30 1267 H 117.362 -1.06742 -1.57182 0
M  V30 1268 H 115.512 -0.161416 -3.88165 0
M  V30 1269 H 117.184 -2.76433 -3.693 0
M  V30 1270 H 115.427 -2.65476 -3.43081 0
M  V30 1271 H 116.098 -2.28888 -5.02309 0
M  V30 1272 H 118.574 -0.587068 -4.11938 0
M  V30 1273 H 117.45 -0.332213 -5.47894 0
M  V30 1274 H 117.711 0.95806 -4.31594 0
M  V30 1275 N 116.77 1.45427 -0.607355 0
M  V30 1276 C 118.181 1.85756 -0.187535 0
M  V30 1277 C 118.532 1.5077 1.25551 0
M  V30 1278 O 117.657 0.93427 1.95193 0
M  V30 1279 C 118.252 3.37154 -0.333572 0
M  V30 1280 C 116.811 3.76387 0.0315542 0
M  V30 1281 C 115.958 2.69377 -0.658117 0
M  V30 1282 H 118.909 1.36231 -0.81405 0
M  V30 1283 H 118.93 3.78014 0.43428 0
M  V30 1284 H 118.442 3.62586 -1.38393 0
M  V30 1285 H 116.543 3.56571 1.0811 0
M  V30 1286 H 116.656 4.77731 -0.361935 0
M  V30 1287 H 115.02 2.5452 -0.0957873 0
M  V30 1288 H 115.803 2.97646 -1.7106 0
M  V30 1289 N 118.248 0.346503 1.53744 0
M  V30 1290 C 119.158 -0.517293 2.28826 0
M  V30 1291 C 120.174 -1.10935 1.3405 0
M  V30 1292 O 121.35 -1.1244 1.6709 0
M  V30 1293 C 118.415 -1.65098 3.04866 0
M  V30 1294 C 117.476 -1.0884 4.15274 0
M  V30 1295 C 116.709 -2.16806 4.87679 0
M  V30 1296 O 116.932 -3.3758 4.59778 0
M  V30 1297 O 115.866 -1.80934 5.74061 0
M  V30 1298 H 119.692 0.0931396 3.03557 0
M  V30 1299 H 117.277 0.111458 1.48984 0
M  V30 1300 H 119.159 -2.31053 3.5241 0
M  V30 1301 H 117.834 -2.24717 2.32989 0
M  V30 1302 H 116.741 -0.3933 3.72027 0
M  V30 1303 H 118.074 -0.537036 4.89261 0
M  V30 1304 N 119.726 -1.57421 0.075193 0
M  V30 1305 C 120.674 -2.14124 -0.908508 0
M  V30 1306 C 121.668 -1.07898 -1.30592 0
M  V30 1307 O 122.874 -1.26273 -1.28277 0
M  V30 1308 H 119.249 -0.684707 -0.310935 0
M  V30 1309 H 121.22 -2.95634 -0.405374 0
M  V30 1310 C 119.969 -2.72044 -2.16535 0
M  V30 1311 H 119.292 -3.53456 -1.86839 0
M  V30 1312 H 120.732 -3.15311 -2.83469 0
M  V30 1313 C 119.191 -1.66968 -2.92615 0
M  V30 1314 O 119.721 -1.0967 -3.86439 0
M  V30 1315 N 117.927 -1.37923 -2.55784 0
M  V30 1316 H 117.474 -1.84706 -1.79559 0
M  V30 1317 H 117.432 -0.67852 -3.06991 0
M  V30 1318 N 121.204 0.198386 -1.56346 0
M  V30 1319 C 122.615 0.763358 -1.70381 0
M  V30 1320 C 122.966 1.83995 -0.681203 0
M  V30 1321 O 122.091 2.15785 0.16305 0
M  V30 1322 C 122.686 1.39143 -3.08909 0
M  V30 1323 C 121.245 1.90352 -3.2472 0
M  V30 1324 C 120.392 0.772233 -2.6633 0
M  V30 1325 H 123.343 -0.0266377 -1.58678 0
M  V30 1326 H 123.364 2.26076 -3.06055 0
M  V30 1327 H 122.876 0.607638 -3.83314 0
M  V30 1328 H 120.977 2.71461 -2.55225 0
M  V30 1329 H 121.09 2.06757 -4.3219 0
M  V30 1330 H 119.454 1.18566 -2.2542 0
M  V30 1331 H 120.237 0.00073556 -3.433 0
M  V30 1332 N 122.682 1.50554 0.465978 0
M  V30 1333 C 124.093 1.54599 1.04671 0
M  V30 1334 C 124.444 0.352488 1.93008 0
M  V30 1335 O 123.569 -0.534044 2.09707 0
M  V30 1336 C 124.164 2.80166 1.90505 0
M  V30 1337 C 122.723 2.86876 2.43678 0
M  V30 1338 C 121.87 2.48947 1.22151 0
M  V30 1339 H 124.821 1.56744 0.248384 0
M  V30 1340 H 124.842 2.62311 2.75633 0
M  V30 1341 H 124.354 3.67013 1.26186 0
M  V30 1342 H 122.455 2.04393 3.11536 0
M  V30 1343 H 122.568 3.89885 2.78436 0
M  V30 1344 H 120.932 2.01498 1.5579 0
M  V30 1345 H 121.715 3.38107 0.594866 0
M  V30 1346 N 124.16 -0.719506 1.40217 0
M  V30 1347 C 125.385 -1.51371 1.4178 0
M  V30 1348 C 125.81 -1.88091 0.0182355 0
M  V30 1349 O 125.168 -1.52997 -0.972707 0
M  V30 1350 C 125.216 -2.768 2.31115 0
M  V30 1351 O 124.32 -3.73349 1.7517 0
M  V30 1352 H 123.661 -0.456529 0.482159 0
M  V30 1353 H 126.191 -0.88644 1.844 0
M  V30 1354 H 126.201 -3.25371 2.46167 0
M  V30 1355 H 124.876 -2.49407 3.3282 0
M  V30 1356 H 123.453 -3.32179 1.69444 0
M  V30 1357 N 125.638 -1.25649 -0.95132 0
M  V30 1358 C 126.571 -1.00644 -2.04807 0
M  V30 1359 C 127.549 0.0654271 -1.62468 0
M  V30 1360 O 128.733 -0.074911 -1.88351 0
M  V30 1361 C 125.86 -0.522052 -3.34653 0
M  V30 1362 C 124.906 -1.58495 -3.95957 0
M  V30 1363 S 125.739 -3.17108 -4.31512 0
M  V30 1364 C 126.895 -2.70412 -5.64471 0
M  V30 1365 H 127.128 -1.93508 -2.25703 0
M  V30 1366 H 124.661 -1.09216 -1.09139 0
M  V30 1367 H 126.619 -0.24923 -4.09743 0
M  V30 1368 H 125.28 0.386146 -3.11717 0
M  V30 1369 H 124.473 -1.1968 -4.89584 0
M  V30 1370 H 124.075 -1.80862 -3.2736 0
M  V30 1371 H 126.367 -2.14245 -6.42733 0
M  V30 1372 H 127.31 -3.62693 -6.08161 0
M  V30 1373 H 127.718 -2.10302 -5.23864 0
M  V30 1374 N 127.117 1.15442 -1.07289 0
M  V30 1375 C 128.363 1.86489 -0.796846 0
M  V30 1376 C 128.696 1.82078 0.675371 0
M  V30 1377 O 127.971 1.24346 1.4956 0
M  V30 1378 C 128.254 3.35626 -1.30489 0
M  V30 1379 C 128.107 3.48673 -2.84161 0
M  V30 1380 C 129.426 4.30357 -0.920907 0
M  V30 1381 H 126.545 0.677144 -0.290939 0
M  V30 1382 H 129.187 1.35633 -1.33056 0
M  V30 1383 H 127.337 3.79068 -0.850883 0
M  V30 1384 H 129.009 3.14099 -3.37846 0
M  V30 1385 H 127.252 2.90253 -3.22391 0
M  V30 1386 H 127.923 4.53453 -3.14777 0
M  V30 1387 H 130.399 3.94871 -1.3121 0
M  V30 1388 H 129.275 5.33193 -1.30372 0
M  V30 1389 H 129.536 4.4176 0.173226 0
M  V30 1390 N 128.595 0.856903 1.32268 0
M  V30 1391 C 129.842 0.461386 1.97174 0
M  V30 1392 C 130.17 -0.983491 1.67803 0
M  V30 1393 O 129.425 -1.70541 0.959903 0
M  V30 1394 C 129.724 0.649919 3.51441 0
M  V30 1395 C 129.39 2.0656 4.00804 0
M  V30 1396 C 128.052 2.45279 4.13995 0
M  V30 1397 C 130.404 2.98947 4.26943 0
M  V30 1398 C 127.732 3.75653 4.50668 0
M  V30 1399 C 130.084 4.28822 4.65075 0
M  V30 1400 C 128.748 4.67472 4.76472 0
M  V30 1401 H 128.018 0.168833 0.72151 0
M  V30 1402 H 130.665 1.08739 1.57633 0
M  V30 1403 H 128.97 -0.0593018 3.91755 0
M  V30 1404 H 130.667 0.32391 3.9969 0
M  V30 1405 H 127.257 1.75495 3.91024 0
M  V30 1406 H 131.441 2.70265 4.16258 0
M  V30 1407 H 126.697 4.05379 4.57688 0
M  V30 1408 H 130.871 5.0047 4.84255 0
M  V30 1409 H 128.498 5.68539 5.04646 0
M  V30 1410 N 130.073 -1.45103 0.615059 0
M  V30 1411 C 131.02 -2.30586 -0.0993978 0
M  V30 1412 C 131.99 -1.42544 -0.852669 0
M  V30 1413 O 133.175 -1.71465 -0.836917 0
M  V30 1414 C 130.315 -3.27572 -1.08583 0
M  V30 1415 C 129.428 -4.30717 -0.332656 0
M  V30 1416 C 128.563 -5.14807 -1.30947 0
M  V30 1417 C 127.602 -6.09673 -0.544538 0
M  V30 1418 N 126.739 -6.86517 -1.47101 0
M  V30 1419 H 131.579 -2.91144 0.635542 0
M  V30 1420 H 129.116 -1.4346 0.325206 0
M  V30 1421 H 131.074 -3.82276 -1.67095 0
M  V30 1422 H 129.704 -2.68751 -1.78809 0
M  V30 1423 H 128.756 -3.78615 0.368107 0
M  V30 1424 H 130.068 -4.98102 0.263842 0
M  V30 1425 H 129.222 -5.73948 -1.96643 0
M  V30 1426 H 127.961 -4.47458 -1.9399 0
M  V30 1427 H 126.966 -5.49656 0.126003 0
M  V30 1428 H 128.191 -6.79052 0.080947 0
M  V30 1429 H 126.137 -6.21851 -2.08895 0
M  V30 1430 H 126.054 -7.50281 -0.928137 0
M  V30 1431 H 127.322 -7.50194 -2.11731 0
M  V30 1432 N 131.551 -0.354651 -1.53558 0
M  V30 1433 C 132.483 0.5315 -2.22952 0
M  V30 1434 C 133.496 1.05503 -1.23988 0
M  V30 1435 O 134.685 0.963279 -1.50277 0
M  V30 1436 C 131.785 1.74538 -2.90499 0
M  V30 1437 C 130.958 1.35524 -4.15875 0
M  V30 1438 C 130.017 2.42999 -4.66731 0
M  V30 1439 O 129.043 2.05844 -5.30676 0
M  V30 1440 N 130.245 3.74423 -4.43608 0
M  V30 1441 H 133.01 -0.0628615 -2.99634 0
M  V30 1442 H 130.571 -0.179302 -1.60904 0
M  V30 1443 H 132.563 2.45892 -3.21433 0
M  V30 1444 H 131.133 2.24686 -2.17336 0
M  V30 1445 H 130.353 0.471998 -3.91364 0
M  V30 1446 H 131.641 1.07071 -4.97406 0
M  V30 1447 H 131.039 4.07391 -3.92491 0
M  V30 1448 H 129.596 4.41913 -4.7912 0
M  V30 1449 N 133.029 1.57378 -0.0835403 0
M  V30 1450 C 133.962 2.09016 0.915833 0
M  V30 1451 C 134.94 0.997993 1.2837 0
M  V30 1452 O 136.124 1.27219 1.39096 0
M  V30 1453 C 133.251 2.55757 2.22049 0
M  V30 1454 C 132.297 3.76522 2.00333 0
M  V30 1455 S 133.13 5.20661 1.25191 0
M  V30 1456 C 134.286 5.70743 2.56912 0
M  V30 1457 H 134.519 2.93457 0.476492 0
M  V30 1458 H 132.052 1.53856 0.129493 0
M  V30 1459 H 134.01 2.83346 2.97027 0
M  V30 1460 H 132.671 1.71564 2.63106 0
M  V30 1461 H 131.864 4.07256 2.96916 0
M  V30 1462 H 131.466 3.49367 1.33488 0
M  V30 1463 H 133.758 5.78304 3.52946 0
M  V30 1464 H 134.701 6.6944 2.30772 0
M  V30 1465 H 135.109 4.98616 2.64655 0
M  V30 1466 N 134.507 -0.190092 1.56449 0
M  V30 1467 C 135.417 -1.25591 1.98152 0
M  V30 1468 C 136.433 -1.49519 0.889944 0
M  V30 1469 O 137.609 -1.62036 1.19609 0
M  V30 1470 C 134.674 -2.57916 2.3169 0
M  V30 1471 C 133.735 -2.42015 3.5458 0
M  V30 1472 C 132.968 -3.6803 3.8651 0
M  V30 1473 O 133.191 -4.72413 3.1966 0
M  V30 1474 O 132.125 -3.6326 4.79923 0
M  V30 1475 H 135.951 -0.931988 2.89046 0
M  V30 1476 H 133.536 -0.395488 1.4407 0
M  V30 1477 H 135.418 -3.36008 2.54316 0
M  V30 1478 H 134.093 -2.89925 1.43963 0
M  V30 1479 H 133 -1.62017 3.37196 0
M  V30 1480 H 134.333 -2.14937 4.4279 0
M  V30 1481 N 135.985 -1.50799 -0.457987 0
M  V30 1482 C 136.917 -1.66786 -1.57211 0
M  V30 1483 C 137.93 -0.548962 -1.53265 0
M  V30 1484 O 139.119 -0.8226 -1.58416 0
M  V30 1485 C 136.219 -1.64834 -2.96113 0
M  V30 1486 C 135.392 -2.92971 -3.24787 0
M  V30 1487 C 134.451 -2.83485 -4.43309 0
M  V30 1488 O 133.477 -3.5744 -4.42973 0
M  V30 1489 N 134.679 -1.97929 -5.45714 0
M  V30 1490 H 137.444 -2.62889 -1.43909 0
M  V30 1491 H 135.005 -1.48427 -0.646617 0
M  V30 1492 H 136.997 -1.56084 -3.7339 0
M  V30 1493 H 135.567 -0.764118 -3.03117 0
M  V30 1494 H 134.787 -3.15749 -2.36 0
M  V30 1495 H 136.075 -3.77834 -3.40762 0
M  V30 1496 H 135.473 -1.37182 -5.48815 0
M  V30 1497 H 134.03 -1.95073 -6.21924 0
M  V30 1498 N 137.463 0.71206 -1.40597 0
M  V30 1499 C 138.709 1.47416 -1.39271 0
M  V30 1500 C 139.042 1.942 0.00388791 0
M  V30 1501 O 138.317 1.68403 0.973179 0
M  V30 1502 C 138.6 2.69774 -2.38525 0
M  V30 1503 C 138.453 2.28861 -3.87224 0
M  V30 1504 C 139.772 3.71939 -2.35264 0
M  V30 1505 H 136.891 0.534713 -0.5072 0
M  V30 1506 H 139.533 0.812375 -1.71757 0
M  V30 1507 H 137.683 3.26238 -2.10953 0
M  V30 1508 H 139.355 1.77852 -4.25636 0
M  V30 1509 H 137.598 1.60824 -4.02887 0
M  V30 1510 H 138.269 3.16584 -4.52193 0
M  V30 1511 H 140.745 3.25113 -2.59694 0
M  V30 1512 H 139.621 4.55186 -3.06753 0
M  V30 1513 H 139.882 4.20484 -1.36549 0
M  V30 1514 N 138.941 1.26152 0.944643 0
M  V30 1515 C 139.904 1.07474 2.0244 0
M  V30 1516 C 140.904 0.0242064 1.60782 0
M  V30 1517 O 142.094 0.267302 1.72137 0
M  V30 1518 C 139.226 0.633956 3.34953 0
M  V30 1519 H 140.419 2.03336 2.20442 0
M  V30 1520 H 137.972 1.087 1.12312 0
M  V30 1521 H 138.707 -0.326811 3.22649 0
M  V30 1522 H 138.492 1.39247 3.66542 0
M  V30 1523 H 139.982 0.52501 4.14287 0
M  V30 1524 N 140.419 -1.14872 1.07899 0
M  V30 1525 C 141.351 -2.19425 0.662231 0
M  V30 1526 C 142.364 -1.60231 -0.288079 0
M  V30 1527 O 143.553 -1.78336 -0.076534 0
M  V30 1528 C 140.653 -3.38867 -0.0470695 0
M  V30 1529 C 139.826 -4.27597 0.920831 0
M  V30 1530 C 138.885 -5.25616 0.247805 0
M  V30 1531 O 137.911 -5.62189 0.890599 0
M  V30 1532 N 139.113 -5.71746 -1.00435 0
M  V30 1533 H 141.878 -2.55797 1.56166 0
M  V30 1534 H 139.439 -1.30042 0.964404 0
M  V30 1535 H 141.431 -4.01497 -0.50813 0
M  V30 1536 H 140.001 -3.00864 -0.848523 0
M  V30 1537 H 139.221 -3.61982 1.56087 0
M  V30 1538 H 140.509 -4.83748 1.57688 0
M  V30 1539 H 139.907 -5.44153 -1.54642 0
M  V30 1540 H 138.464 -6.36389 -1.40899 0
M  V30 1541 N 141.898 -0.863906 -1.31812 0
M  V30 1542 C 143.145 -0.471836 -1.96926 0
M  V30 1543 C 143.473 0.974578 -1.68322 0
M  V30 1544 O 142.728 1.7003 -0.968933 0
M  V30 1545 C 143.027 -0.668547 -3.51091 0
M  V30 1546 C 142.693 -2.08683 -3.99703 0
M  V30 1547 C 141.355 -2.47471 -4.12688 0
M  V30 1548 C 143.707 -3.01207 -4.25351 0
M  V30 1549 C 141.035 -3.78037 -4.4867 0
M  V30 1550 C 143.387 -4.31282 -4.62794 0
M  V30 1551 C 142.051 -4.69992 -4.73987 0
M  V30 1552 H 141.321 -0.172657 -0.720604 0
M  V30 1553 H 143.968 -1.09573 -1.57054 0
M  V30 1554 H 142.273 0.0385252 -3.91781 0
M  V30 1555 H 143.97 -0.345102 -3.99512 0
M  V30 1556 H 140.56 -1.77566 -3.90087 0
M  V30 1557 H 144.744 -2.72469 -4.14819 0
M  V30 1558 H 140 -4.078 -4.55532 0
M  V30 1559 H 144.174 -5.03031 -4.81594 0
M  V30 1560 H 141.801 -5.71207 -5.01624 0
M  V30 1561 N 143.376 1.44774 -0.622745 0
M  V30 1562 C 144.306 2.33382 0.0741861 0
M  V30 1563 C 145.287 1.47719 0.843387 0
M  V30 1564 O 146.472 1.76458 0.810934 0
M  V30 1565 C 143.602 3.30663 1.06204 0
M  V30 1566 C 142.556 4.26079 0.405037 0
M  V30 1567 C 141.882 5.13165 1.5022 0
M  V30 1568 C 143.182 5.1781 -0.683414 0
M  V30 1569 H 144.876 2.91905 -0.665713 0
M  V30 1570 H 142.422 1.40363 -0.321587 0
M  V30 1571 H 144.375 3.9153 1.55827 0
M  V30 1572 H 143.099 2.70331 1.83272 0
M  V30 1573 H 141.758 3.66532 -0.0704683 0
M  V30 1574 H 141.406 4.49191 2.26355 0
M  V30 1575 H 141.106 5.77812 1.06803 0
M  V30 1576 H 142.63 5.76902 2.00041 0
M  V30 1577 H 144.044 5.72661 -0.270631 0
M  V30 1578 H 142.441 5.91015 -1.04023 0
M  V30 1579 H 143.511 4.59326 -1.55395 0
M  V30 1580 N 144.854 0.36279 1.53368 0
M  V30 1581 C 145.801 -0.485008 2.25646 0
M  V30 1582 C 146.771 -1.07982 1.2621 0
M  V30 1583 O 147.956 -1.11284 1.54986 0
M  V30 1584 C 145.096 -1.62023 3.04701 0
M  V30 1585 C 144.209 -1.05086 4.19024 0
M  V30 1586 C 143.344 -2.15496 4.85525 0
M  V30 1587 C 142.383 -1.5601 5.91884 0
M  V30 1588 N 141.52 -2.60241 6.52088 0
M  V30 1589 H 146.36 0.137864 2.97681 0
M  V30 1590 H 143.897 0.0798061 1.46883 0
M  V30 1591 H 145.855 -2.28887 3.48807 0
M  V30 1592 H 144.485 -2.2138 2.34927 0
M  V30 1593 H 143.537 -0.27259 3.79422 0
M  V30 1594 H 144.849 -0.575926 4.95464 0
M  V30 1595 H 144.003 -2.90186 5.32801 0
M  V30 1596 H 142.742 -2.66341 4.08551 0
M  V30 1597 H 141.747 -0.798338 5.43973 0
M  V30 1598 H 142.972 -1.05994 6.70777 0
M  V30 1599 H 140.918 -3.10304 5.77968 0
M  V30 1600 H 140.835 -2.17426 7.24059 0
M  V30 1601 H 142.103 -3.34641 7.04014 0
M  V30 1602 N 146.332 -1.57332 0.0918853 0
M  V30 1603 C 147.295 -2.12708 -0.85369 0
M  V30 1604 C 148.295 -1.05561 -1.213 0
M  V30 1605 O 149.485 -1.31461 -1.14296 0
M  V30 1606 C 146.617 -2.64503 -2.15061 0
M  V30 1607 H 147.81 -2.97573 -0.3729 0
M  V30 1608 H 145.363 -1.55509 -0.157072 0
M  V30 1609 H 146.098 -1.83149 -2.67632 0
M  V30 1610 H 145.883 -3.4284 -1.90272 0
M  V30 1611 H 147.373 -3.07351 -2.82711 0
M  V30 1612 N 147.81 0.181792 -1.56548 0
M  V30 1613 C 148.773 1.20894 -1.94724 0
M  V30 1614 C 149.773 1.37738 -0.829747 0
M  V30 1615 O 150.963 1.35323 -1.09697 0
M  V30 1616 C 148.095 2.57593 -2.23291 0
M  V30 1617 H 149.288 0.882275 -2.86629 0
M  V30 1618 H 146.841 0.423838 -1.50444 0
M  V30 1619 H 147.576 2.95291 -1.34067 0
M  V30 1620 H 147.361 2.46735 -3.04736 0
M  V30 1621 H 148.851 3.31637 -2.53785 0
M  V30 1622 N 149.288 1.51039 0.449983 0
M  V30 1623 C 150.198 1.74261 1.57067 0
M  V30 1624 C 151.214 0.626363 1.62335 0
M  V30 1625 O 152.39 0.907162 1.79812 0
M  V30 1626 C 149.455 1.85114 2.93144 0
M  V30 1627 C 148.516 3.0893 2.98095 0
M  V30 1628 C 147.749 3.19256 4.27681 0
M  V30 1629 O 147.972 2.35835 5.19363 0
M  V30 1630 O 146.906 4.12144 4.38658 0
M  V30 1631 H 150.732 2.69303 1.40391 0
M  V30 1632 H 148.317 1.35389 0.631688 0
M  V30 1633 H 150.199 1.94311 3.73926 0
M  V30 1634 H 148.874 0.932588 3.09975 0
M  V30 1635 H 147.781 3.0522 2.16314 0
M  V30 1636 H 149.114 4.00433 2.86206 0
M  V30 1637 N 150.766 -0.704594 1.40972 0
M  V30 1638 C 152.043 -1.45847 1.30338 0
M  V30 1639 C 152.423 -2.10973 -0.0732344 0
M  V30 1640 O 151.771 -2.00997 -1.08685 0
M  V30 1641 C 151.981 -2.48525 2.45023 0
M  V30 1642 C 153.329 -3.1404 2.8577 0
M  V30 1643 O 154.353 -2.58848 2.44696 0
M  V30 1644 O 153.212 -4.13981 3.56766 0
M  V30 1645 H 150.306 -0.649092 0.512454 0
M  V30 1646 H 152.852 -0.735836 1.52917 0
M  V30 1647 H 151.624 -1.98994 3.36923 0
M  V30 1648 H 151.247 -3.2831 2.24272 0
M  V30 1649 N 152.244 -1.26651 -0.937939 0
M  V30 1650 C 153.474 -1.15006 -1.71631 0
M  V30 1651 C 153.882 0.297026 -1.86854 0
M  V30 1652 O 153.225 1.21493 -1.37786 0
M  V30 1653 C 153.287 -1.74984 -3.14039 0
M  V30 1654 C 152.951 -3.24103 -3.2219 0
M  V30 1655 C 153.948 -4.20877 -3.05219 0
M  V30 1656 C 151.633 -3.64625 -3.45476 0
M  V30 1657 C 153.627 -5.56151 -3.11408 0
M  V30 1658 C 151.314 -5.00032 -3.513 0
M  V30 1659 C 152.312 -5.95604 -3.34282 0
M  V30 1660 O 152 -7.28545 -3.3982 0
M  V30 1661 H 151.732 -0.401183 -0.544085 0
M  V30 1662 H 154.286 -1.67832 -1.18413 0
M  V30 1663 H 152.516 -1.16624 -3.68695 0
M  V30 1664 H 154.205 -1.58199 -3.73802 0
M  V30 1665 H 154.971 -3.90908 -2.87081 0
M  V30 1666 H 150.85 -2.90718 -3.57777 0
M  V30 1667 H 154.394 -6.30727 -2.98043 0
M  V30 1668 H 150.291 -5.29659 -3.68959 0
M  V30 1669 H 151.059 -7.3686 -3.56343 0
M  V30 1670 N 153.722 1.14298 -1.08507 0
M  V30 1671 C 154.97 1.84993 -0.813763 0
M  V30 1672 C 155.291 1.83405 0.662393 0
M  V30 1673 O 154.561 1.28319 1.48024 0
M  V30 1674 H 153.141 0.684966 -0.298045 0
M  V30 1675 H 155.803 1.385 -1.37126 0
M  V30 1676 H 154.899 2.89788 -1.15884 0
M  V30 1677 N 155.201 0.870884 1.31352 0
M  V30 1678 C 156.447 0.482987 1.96965 0
M  V30 1679 C 156.78 -0.962462 1.68672 0
M  V30 1680 O 156.055 -1.6779 0.98371 0
M  V30 1681 C 156.338 0.741752 3.52378 0
M  V30 1682 C 156.191 2.2368 3.9024 0
M  V30 1683 C 157.51 0.208838 4.39604 0
M  V30 1684 H 154.629 0.176955 0.715441 0
M  V30 1685 H 157.271 1.09229 1.55464 0
M  V30 1686 H 155.421 0.223149 3.87859 0
M  V30 1687 H 157.093 2.82273 3.64856 0
M  V30 1688 H 155.336 2.70901 3.38814 0
M  V30 1689 H 156.007 2.3685 4.98604 0
M  V30 1690 H 158.483 0.652529 4.10952 0
M  V30 1691 H 157.359 0.419336 5.47296 0
M  V30 1692 H 157.62 -0.889275 4.33064 0
M  V30 1693 N 156.679 -1.44442 0.630414 0
M  V30 1694 C 157.928 -2.01267 0.132073 0
M  V30 1695 C 158.241 -1.50172 -1.25331 0
M  V30 1696 O 159.447 -1.9912 -1.84562 0
M  V30 1697 C 157.903 -3.59422 0.185362 0
M  V30 1698 C 157.511 -4.19514 1.57201 0
M  V30 1699 C 159.255 -4.23724 -0.256553 0
M  V30 1700 C 157.162 -5.69891 1.58045 0
M  V30 1701 H 156.092 -0.752619 0.0456092 0
M  V30 1702 H 158.743 -1.65666 0.789106 0
M  V30 1703 H 157.125 -3.92318 -0.538759 0
M  V30 1704 H 158.299 -3.98156 2.31966 0
M  V30 1705 H 156.614 -3.67496 1.95795 0
M  V30 1706 H 159.211 -5.34019 -0.269767 0
M  V30 1707 H 159.554 -3.96013 -1.28372 0
M  V30 1708 H 160.087 -3.95629 0.41505 0
M  V30 1709 H 156.826 -6.02336 2.58597 0
M  V30 1710 H 156.346 -5.93373 0.875725 0
M  V30 1711 H 158.025 -6.33515 1.31408 0
M  V30 1712 N 158.157 -0.370918 -1.53173 0
M  V30 1713 C 159.104 0.473035 -2.259 0
M  V30 1714 C 160.074 1.07311 -1.26781 0
M  V30 1715 O 161.259 1.1046 -1.55574 0
M  V30 1716 C 158.399 1.60405 -3.05556 0
M  V30 1717 C 157.512 1.02863 -4.19575 0
M  V30 1718 C 156.647 2.12918 -4.86661 0
M  V30 1719 C 155.686 1.52869 -5.92704 0
M  V30 1720 N 154.823 2.56779 -6.53459 0
M  V30 1721 H 159.663 -0.153649 -2.97604 0
M  V30 1722 H 157.2 -0.0875946 -1.46839 0
M  V30 1723 H 159.158 2.27034 -3.50016 0
M  V30 1724 H 157.788 2.20131 -2.36097 0
M  V30 1725 H 156.84 0.252465 -3.79561 0
M  V30 1726 H 158.152 0.549642 -4.95762 0
M  V30 1727 H 157.306 2.87356 -5.34333 0
M  V30 1728 H 156.045 2.6417 -4.09958 0
M  V30 1729 H 155.05 0.769479 -5.44389 0
M  V30 1730 H 156.275 1.02435 -6.7133 0
M  V30 1731 H 154.221 3.07235 -5.79606 0
M  V30 1732 H 154.138 2.13583 -7.25202 0
M  V30 1733 H 155.406 3.30903 -7.05779 0
M  V30 1734 N 159.635 1.57281 -0.100228 0
M  V30 1735 C 160.863 1.98879 0.570509 0
M  V30 1736 C 161.278 0.979476 1.61405 0
M  V30 1737 O 160.635 -0.0302288 1.82475 0
M  V30 1738 C 160.686 3.4052 1.2136 0
M  V30 1739 O 160.407 4.37588 0.211786 0
M  V30 1740 C 161.908 3.97149 1.96945 0
M  V30 1741 H 159.128 0.653428 0.152555 0
M  V30 1742 H 161.672 2.03697 -0.18103 0
M  V30 1743 H 159.827 3.367 1.91603 0
M  V30 1744 H 160.241 5.20118 0.676607 0
M  V30 1745 H 161.715 4.98393 2.37294 0
M  V30 1746 H 162.192 3.3525 2.83733 0
M  V30 1747 H 162.798 4.04458 1.31506 0
M  V30 1748 N 161.113 -0.173488 1.56642 0
M  V30 1749 C 162.39 -0.917617 1.7274 0
M  V30 1750 C 162.77 -2.00484 0.661027 0
M  V30 1751 O 162.118 -2.26184 -0.32453 0
M  V30 1752 C 162.328 -1.48433 3.15862 0
M  V30 1753 C 163.676 -1.95809 3.76754 0
M  V30 1754 O 164.7 -1.58231 3.19126 0
M  V30 1755 O 163.559 -2.65024 4.77938 0
M  V30 1756 H 160.653 -0.431772 0.705338 0
M  V30 1757 H 163.199 -0.161487 1.6893 0
M  V30 1758 H 161.971 -0.701715 3.84957 0
M  V30 1759 H 161.594 -2.30471 3.23989 0
M  V30 1760 N 162.591 -1.51276 -0.441967 0
M  V30 1761 C 163.524 -1.66933 -1.55591 0
M  V30 1762 C 164.502 -0.516958 -1.54163 0
M  V30 1763 O 165.686 -0.740209 -1.73358 0
M  V30 1764 C 162.813 -1.67866 -2.94174 0
M  V30 1765 C 161.859 -2.89013 -3.13646 0
M  V30 1766 S 162.692 -4.49897 -2.90436 0
M  V30 1767 C 163.848 -4.53568 -4.31308 0
M  V30 1768 H 164.081 -2.61155 -1.42076 0
M  V30 1769 H 161.614 -1.40902 -0.631341 0
M  V30 1770 H 163.572 -1.69089 -3.74058 0
M  V30 1771 H 162.233 -0.748296 -3.05056 0
M  V30 1772 H 161.426 -2.86054 -4.14957 0
M  V30 1773 H 161.028 -2.85509 -2.4158 0
M  V30 1774 H 163.32 -4.28924 -5.24434 0
M  V30 1775 H 164.263 -5.55355 -4.39303 0
M  V30 1776 H 164.671 -3.82943 -4.14747 0
M  V30 1777 N 164.069 0.697108 -1.41344 0
M  V30 1778 C 165.316 1.45714 -1.40619 0
M  V30 1779 C 165.644 1.94494 -0.0147907 0
M  V30 1780 O 164.899 1.69794 0.973066 0
M  V30 1781 C 165.198 2.68553 -2.35826 0
M  V30 1782 C 164.864 2.38438 -3.82698 0
M  V30 1783 C 163.526 2.29936 -4.22709 0
M  V30 1784 C 165.878 2.13567 -4.75435 0
M  V30 1785 C 163.206 1.94656 -5.53467 0
M  V30 1786 C 165.558 1.79797 -6.06511 0
M  V30 1787 C 164.222 1.69789 -6.45545 0
M  V30 1788 H 163.492 0.533206 -0.51456 0
M  V30 1789 H 166.139 0.796901 -1.74131 0
M  V30 1790 H 164.444 3.39503 -1.95563 0
M  V30 1791 H 166.141 3.2669 -2.32539 0
M  V30 1792 H 162.731 2.4595 -3.51008 0
M  V30 1793 H 166.915 2.19082 -4.45328 0
M  V30 1794 H 162.171 1.8546 -5.82593 0
M  V30 1795 H 166.345 1.59572 -6.77872 0
M  V30 1796 H 163.972 1.4222 -7.46778 0
M  V30 1797 N 165.547 1.27147 0.931209 0
M  V30 1798 C 166.479 1.05364 2.03546 0
M  V30 1799 C 167.492 0.0108438 1.62796 0
M  V30 1800 O 168.681 0.25202 1.76712 0
M  V30 1801 C 165.781 0.575566 3.33977 0
M  V30 1802 C 164.954 1.68985 4.03439 0
M  V30 1803 C 164.013 1.20813 5.12143 0
M  V30 1804 O 163.039 1.90712 5.363 0
M  V30 1805 N 164.241 0.0618851 5.80467 0
M  V30 1806 H 167.006 2.00454 2.22796 0
M  V30 1807 H 164.567 1.18666 1.10136 0
M  V30 1808 H 166.559 0.237264 4.04004 0
M  V30 1809 H 165.129 -0.282016 3.11325 0
M  V30 1810 H 164.349 2.19861 3.27192 0
M  V30 1811 H 165.637 2.4378 4.46597 0
M  V30 1812 H 165.035 -0.521621 5.6329 0
M  V30 1813 H 163.592 -0.217264 6.51438 0
M  V30 1814 N 167.025 -1.13721 1.09112 0
M  V30 1815 C 168.253 -1.88773 0.846899 0
M  V30 1816 C 168.668 -1.7896 -0.601572 0
M  V30 1817 O 168.025 -1.15394 -1.41388 0
M  V30 1818 C 168.076 -3.3849 1.26913 0
M  V30 1819 O 167.797 -3.48043 2.66079 0
M  V30 1820 C 169.298 -4.30518 1.05682 0
M  V30 1821 H 166.518 -0.59772 0.304914 0
M  V30 1822 H 169.062 -1.43977 1.45227 0
M  V30 1823 H 167.217 -3.80881 0.707723 0
M  V30 1824 H 167.631 -4.4109 2.83795 0
M  V30 1825 H 169.105 -5.3391 1.40156 0
M  V30 1826 H 169.582 -4.392 -0.00563416 0
M  V30 1827 H 170.188 -3.93893 1.60402 0
M  V30 1828 N 168.503 -0.877838 -1.30888 0
M  V30 1829 C 169.749 -0.493426 -1.96706 0
M  V30 1830 C 170.082 0.953504 -1.6918 0
M  V30 1831 O 169.357 1.67266 -0.992594 0
M  V30 1832 C 169.64 -0.760429 -3.51979 0
M  V30 1833 C 169.493 -2.25747 -3.89048 0
M  V30 1834 C 170.812 -0.232148 -4.39487 0
M  V30 1835 H 167.931 -0.180746 -0.714493 0
M  V30 1836 H 170.573 -1.10052 -1.54882 0
M  V30 1837 H 168.723 -0.243715 -3.87735 0
M  V30 1838 H 170.395 -2.84204 -3.63354 0
M  V30 1839 H 168.638 -2.72694 -3.37373 0
M  V30 1840 H 169.309 -2.39491 -4.97341 0
M  V30 1841 H 171.785 -0.674314 -4.106 0
M  V30 1842 H 170.661 -0.448355 -5.47066 0
M  V30 1843 H 170.922 0.866297 -4.33529 0
M  V30 1844 N 169.982 1.44106 -0.638065 0
M  V30 1845 C 171.259 1.95453 -0.0759321 0
M  V30 1846 C 171.639 1.57984 1.40015 0
M  V30 1847 O 170.987 0.857361 2.11806 0
M  V30 1848 C 171.197 3.47655 -0.306132 0
M  V30 1849 C 172.545 4.24114 -0.203008 0
M  V30 1850 O 173.569 3.55405 -0.237871 0
M  V30 1851 O 172.428 5.46381 -0.113827 0
M  V30 1852 H 169.522 0.826797 0.0183332 0
M  V30 1853 H 172.068 1.54122 -0.710251 0
M  V30 1854 H 170.84 3.68 -1.3301 0
M  V30 1855 H 170.463 3.95949 0.361991 0
M  V30 1856 N 171.46 0.379036 1.52974 0
M  V30 1857 C 172.39 -0.452706 2.29069 0
M  V30 1858 C 173.371 -1.07237 1.32039 0
M  V30 1859 O 174.556 -1.08708 1.60923 0
M  V30 1860 C 171.686 -1.5856 3.08992 0
M  V30 1861 C 170.64 -1.0925 4.13822 0
M  V30 1862 C 169.966 -2.31668 4.81907 0
M  V30 1863 C 171.266 -0.167702 5.22031 0
M  V30 1864 H 172.96 0.182181 2.98845 0
M  V30 1865 H 170.506 0.0890592 1.43724 0
M  V30 1866 H 172.459 -2.1742 3.6098 0
M  V30 1867 H 171.183 -2.24792 2.36931 0
M  V30 1868 H 169.842 -0.526494 3.628 0
M  V30 1869 H 169.49 -2.96386 4.06404 0
M  V30 1870 H 169.19 -1.9934 5.52754 0
M  V30 1871 H 170.714 -2.91189 5.36695 0
M  V30 1872 H 172.128 -0.664186 5.6944 0
M  V30 1873 H 170.525 0.0653265 6.00064 0
M  V30 1874 H 171.595 0.786347 4.78482 0
M  V30 1875 N 172.938 -1.57226 0.108567 0
M  V30 1876 C 174.185 -1.94833 -0.551943 0
M  V30 1877 C 174.513 -0.991204 -1.67348 0
M  V30 1878 O 173.768 -0.0131878 -1.95696 0
M  V30 1879 C 174.067 -3.38911 -1.13463 0
M  V30 1880 C 173.733 -4.50696 -0.135509 0
M  V30 1881 C 172.395 -4.80998 0.139252 0
M  V30 1882 C 174.747 -5.18333 0.545957 0
M  V30 1883 C 172.075 -5.76259 1.10194 0
M  V30 1884 C 174.427 -6.14627 1.49721 0
M  V30 1885 C 173.091 -6.43327 1.78006 0
M  V30 1886 H 172.361 -0.712944 -0.20197 0
M  V30 1887 H 175.008 -1.90582 0.18726 0
M  V30 1888 H 173.313 -3.39805 -1.95037 0
M  V30 1889 H 175.01 -3.65317 -1.65362 0
M  V30 1890 H 171.6 -4.27087 -0.359846 0
M  V30 1891 H 175.784 -4.95087 0.346842 0
M  V30 1892 H 171.04 -5.96804 1.32795 0
M  V30 1893 H 175.214 -6.66126 2.03099 0
M  V30 1894 H 172.841 -7.1695 2.52759 0
M  V30 1895 N 174.416 0.165178 -1.56732 0
M  V30 1896 C 175.326 1.22423 -2.00125 0
M  V30 1897 C 176.342 1.48084 -0.913619 0
M  V30 1898 O 177.518 1.60112 -1.22172 0
M  V30 1899 C 174.583 2.54197 -2.35764 0
M  V30 1900 C 173.644 2.36343 -3.58386 0
M  V30 1901 C 172.877 3.61834 -3.92316 0
M  V30 1902 O 173.1 4.67267 -3.27135 0
M  V30 1903 O 172.034 3.55579 -4.85641 0
M  V30 1904 H 175.86 0.885886 -2.90492 0
M  V30 1905 H 173.445 0.372518 -1.44681 0
M  V30 1906 H 175.327 3.3192 -2.59629 0
M  V30 1907 H 174.002 2.87598 -1.48557 0
M  V30 1908 H 172.909 1.56632 -3.39731 0
M  V30 1909 H 174.242 2.07865 -4.46154 0
M  V30 1910 N 175.894 1.51508 0.433938 0
M  V30 1911 C 177.142 1.6402 1.18075 0
M  V30 1912 C 177.463 0.360328 1.91642 0
M  V30 1913 O 176.733 -0.623945 1.85698 0
M  V30 1914 H 175.313 0.6045 0.43885 0
M  V30 1915 H 177.975 1.88452 0.497178 0
M  V30 1916 H 177.071 2.46949 1.90847 0
M  V30 1917 N 177.372 -0.689602 1.41712 0
M  V30 1918 C 178.319 -1.80345 1.44029 0
M  V30 1919 C 179.289 -1.63478 0.293948 0
M  V30 1920 O 180.474 -1.84244 0.495869 0
M  V30 1921 C 177.614 -3.18272 1.33405 0
M  V30 1922 C 176.727 -3.46529 2.57956 0
M  V30 1923 C 175.862 -4.74103 2.39582 0
M  V30 1924 C 174.901 -4.95347 3.5958 0
M  V30 1925 N 174.038 -6.14151 3.40239 0
M  V30 1926 H 178.878 -1.77698 2.39222 0
M  V30 1927 H 176.415 -0.867688 1.18784 0
M  V30 1928 H 178.373 -3.97956 1.25246 0
M  V30 1929 H 177.003 -3.2008 0.418164 0
M  V30 1930 H 176.055 -2.61207 2.76542 0
M  V30 1931 H 177.367 -3.58126 3.47199 0
M  V30 1932 H 176.521 -5.61853 2.28924 0
M  V30 1933 H 175.26 -4.64763 1.47805 0
M  V30 1934 H 174.265 -4.06044 3.70686 0
M  V30 1935 H 175.49 -5.06542 4.52318 0
M  V30 1936 H 173.436 -6.06013 2.51167 0
M  V30 1937 H 173.353 -6.26543 4.23061 0
M  V30 1938 H 174.621 -7.04619 3.33365 0
M  V30 1939 N 178.85 -1.27639 -0.924453 0
M  V30 1940 C 180.127 -1.04887 -1.651 0
M  V30 1941 C 180.507 0.415327 -2.06974 0
M  V30 1942 O 179.855 1.39923 -1.80648 0
M  V30 1943 C 180.065 -2.01348 -2.85061 0
M  V30 1944 C 181.413 -2.30899 -3.56329 0
M  V30 1945 O 182.437 -1.99348 -2.95193 0
M  V30 1946 O 181.296 -2.84699 -4.66485 0
M  V30 1947 H 178.39 -0.400083 -0.723784 0
M  V30 1948 H 180.936 -1.38916 -0.974703 0
M  V30 1949 H 179.708 -3.0008 -2.51133 0
M  V30 1950 H 179.331 -1.679 -3.6041 0
M  V30 1951 N 180.328 1.1314 -1.09713 0
M  V30 1952 C 181.261 2.17735 -0.683137 0
M  V30 1953 C 182.239 1.59582 0.311841 0
M  V30 1954 O 183.423 1.87298 0.212514 0
M  V30 1955 C 180.55 3.38699 -0.00684324 0
M  V30 1956 C 179.596 4.1546 -0.964102 0
M  V30 1957 S 180.429 4.74733 -2.47767 0
M  V30 1958 C 181.585 5.9904 -1.81387 0
M  V30 1959 H 181.818 2.52515 -1.56918 0
M  V30 1960 H 179.351 1.24484 -0.913404 0
M  V30 1961 H 181.309 4.08765 0.377044 0
M  V30 1962 H 179.97 3.02214 0.85589 0
M  V30 1963 H 179.163 5.02093 -0.43803 0
M  V30 1964 H 178.765 3.51066 -1.28953 0
M  V30 1965 H 181.057 6.67846 -1.13967 0
M  V30 1966 H 182 6.56261 -2.65947 0
M  V30 1967 H 182.408 5.4976 -1.28155 0
M  V30 1968 N 181.806 0.884767 1.30421 0
M  V30 1969 C 182.769 0.356277 2.26414 0
M  V30 1970 C 183.769 -0.501124 1.52792 0
M  V30 1971 O 184.959 -0.30831 1.7145 0
M  V30 1972 C 182.091 -0.492316 3.37326 0
M  V30 1973 H 183.284 1.20389 2.74675 0
M  V30 1974 H 180.837 0.661607 1.41607 0
M  V30 1975 H 181.572 -1.36052 2.94381 0
M  V30 1976 H 181.357 0.121832 3.91911 0
M  V30 1977 H 182.847 -0.853871 4.08777 0
M  V30 1978 N 183.284 -1.43765 0.645699 0
M  V30 1979 C 184.247 -2.29163 -0.0409488 0
M  V30 1980 C 185.247 -1.41813 -0.757996 0
M  V30 1981 O 186.437 -1.63527 -0.600382 0
M  V30 1982 C 183.569 -3.23716 -1.06869 0
M  V30 1983 H 184.762 -2.91366 0.710345 0
M  V30 1984 H 182.315 -1.5092 0.406547 0
M  V30 1985 H 183.05 -2.66393 -1.84947 0
M  V30 1986 H 182.835 -3.88105 -0.558277 0
M  V30 1987 H 184.325 -3.87831 -1.54845 0
M  V30 1988 N 184.763 -0.387143 -1.52771 0
M  V30 1989 C 186.009 0.196025 -2.0185 0
M  V30 1990 C 186.342 1.46641 -1.27319 0
M  V30 1991 O 185.617 1.90889 -0.373032 0
M  V30 1992 C 185.9 0.466136 -3.5707 0
M  V30 1993 C 185.753 -0.819385 -4.42274 0
M  V30 1994 C 187.072 1.25768 -4.21747 0
M  V30 1995 H 184.191 0.0697708 -0.73369 0
M  V30 1996 H 186.833 -0.516286 -1.82851 0
M  V30 1997 H 184.983 1.07293 -3.7339 0
M  V30 1998 H 186.655 -1.4563 -4.37709 0
M  V30 1999 H 184.898 -1.43517 -4.09372 0
M  V30 2000 H 185.569 -0.585065 -5.48891 0
M  V30 2001 H 188.045 0.744167 -4.09391 0
M  V30 2002 H 186.921 1.41541 -5.30337 0
M  V30 2003 H 187.182 2.27228 -3.79236 0
M  V30 2004 N 186.241 1.57166 -0.116904 0
M  V30 2005 C 187.173 2.12271 0.864507 0
M  V30 2006 C 188.186 1.06494 1.23138 0
M  V30 2007 O 189.375 1.33873 1.18069 0
M  V30 2008 C 186.475 2.60564 2.16702 0
M  V30 2009 C 185.648 3.90416 1.97216 0
M  V30 2010 C 184.707 4.24329 3.11178 0
M  V30 2011 O 183.733 4.93182 2.84184 0
M  V30 2012 N 184.935 3.8148 4.37554 0
M  V30 2013 H 187.7 2.97102 0.393726 0
M  V30 2014 H 185.261 1.61759 0.0675805 0
M  V30 2015 H 187.253 2.80282 2.91932 0
M  V30 2016 H 185.823 1.80623 2.55135 0
M  V30 2017 H 185.043 3.79627 1.06192 0
M  V30 2018 H 186.331 4.75327 1.81499 0
M  V30 2019 H 185.729 3.25943 4.62361 0
M  V30 2020 H 184.286 4.06311 5.09661 0
M  V30 2021 N 187.719 -0.156864 1.56817 0
M  V30 2022 C 189.135 -0.50916 1.5126 0
M  V30 2023 C 189.335 -1.83897 0.823658 0
M  V30 2024 O 188.391 -2.49469 0.390055 0
M  V30 2025 C 189.704 -0.52857 2.96018 0
M  V30 2026 C 191.252 -0.614771 3.06903 0
M  V30 2027 C 191.727 -0.664938 4.53147 0
M  V30 2028 N 193.218 -0.727433 4.57452 0
M  V30 2029 C 193.953 -0.787067 5.67973 0
M  V30 2030 N 193.449 -0.806649 6.88088 0
M  V30 2031 N 195.242 -0.827195 5.5598 0
M  V30 2032 H 187.393 0.714935 2.00006 0
M  V30 2033 H 189.656 0.259526 0.911784 0
M  V30 2034 H 189.362 0.380154 3.49639 0
M  V30 2035 H 189.236 -1.36998 3.51442 0
M  V30 2036 H 191.623 -1.51392 2.53307 0
M  V30 2037 H 191.704 0.253597 2.5454 0
M  V30 2038 H 191.348 0.230011 5.07379 0
M  V30 2039 H 191.278 -1.54966 5.03282 0
M  V30 2040 H 193.769 -0.719998 3.70978 0
M  V30 2041 H 194.082 -0.853727 7.6807 0
M  V30 2042 H 192.427 -0.774687 6.90669 0
M  V30 2043 H 195.618 -0.808998 4.61056 0
M  V30 2044 H 195.791 -0.870206 6.4213 0
M  V30 2045 N 189.197 -1.51736 -0.425897 0
M  V30 2046 C 190.425 -1.68794 -1.1965 0
M  V30 2047 C 190.84 -0.390164 -1.84725 0
M  V30 2048 O 190.197 0.632376 -1.71194 0
M  V30 2049 C 190.248 -2.81174 -2.27208 0
M  V30 2050 O 189.969 -4.05925 -1.64793 0
M  V30 2051 C 191.47 -3.09599 -3.17275 0
M  V30 2052 H 188.69 -0.566128 -0.360194 0
M  V30 2053 H 191.234 -1.98211 -0.503249 0
M  V30 2054 H 189.389 -2.54324 -2.9223 0
M  V30 2055 H 189.803 -4.68423 -2.35967 0
M  V30 2056 H 191.277 -3.91786 -3.88854 0
M  V30 2057 H 191.754 -2.22468 -3.78688 0
M  V30 2058 H 192.36 -3.38151 -2.57941 0
M  V30 2059 N 190.675 0.682077 -1.42076 0
M  V30 2060 C 191.605 1.80796 -1.47767 0
M  V30 2061 C 192.586 1.6677 -0.334954 0
M  V30 2062 O 193.771 1.863 -0.548264 0
M  V30 2063 C 190.901 3.19038 -1.37229 0
M  V30 2064 C 189.855 3.47789 -2.49453 0
M  V30 2065 C 189.181 4.8553 -2.23975 0
M  V30 2066 C 190.481 3.45411 -3.91776 0
M  V30 2067 H 192.175 1.7629 -2.41997 0
M  V30 2068 H 189.721 0.846721 -1.16476 0
M  V30 2069 H 191.674 3.97528 -1.39821 0
M  V30 2070 H 190.398 3.24204 -0.394907 0
M  V30 2071 H 189.057 2.71657 -2.46166 0
M  V30 2072 H 188.705 4.87337 -1.24547 0
M  V30 2073 H 188.405 5.0573 -2.99184 0
M  V30 2074 H 189.929 5.66312 -2.28304 0
M  V30 2075 H 191.343 4.13882 -3.96705 0
M  V30 2076 H 189.74 3.77145 -4.66778 0
M  V30 2077 H 190.81 2.44122 -4.18966 0
M  V30 2078 N 192.153 1.28127 0.917671 0
M  V30 2079 C 193.086 1.06039 2.02067 0
M  V30 2080 C 194.064 -0.0223285 1.62585 0
M  V30 2081 O 195.248 0.124823 1.88086 0
M  V30 2082 C 192.375 0.610596 3.33151 0
M  V30 2083 C 191.421 1.68937 3.91615 0
M  V30 2084 S 192.254 3.28437 4.22953 0
M  V30 2085 C 193.41 2.85283 5.57103 0
M  V30 2086 H 193.643 1.99425 2.20493 0
M  V30 2087 H 191.176 1.12071 1.06205 0
M  V30 2088 H 193.134 0.357778 4.08938 0
M  V30 2089 H 191.795 -0.303364 3.12632 0
M  V30 2090 H 190.988 1.32619 4.86239 0
M  V30 2091 H 190.59 1.89478 3.2245 0
M  V30 2092 H 192.882 2.3121 6.36827 0
M  V30 2093 H 193.825 3.7869 5.98331 0
M  V30 2094 H 194.233 2.24118 5.18104 0
M  V30 2095 N 193.631 -1.12557 1.10312 0
M  V30 2096 C 194.594 -2.16434 0.75424 0
M  V30 2097 C 195.594 -1.59278 -0.220685 0
M  V30 2098 O 196.784 -1.742 0.00230591 0
M  V30 2099 C 193.916 -3.40699 0.116987 0
M  V30 2100 H 195.109 -2.48811 1.67431 0
M  V30 2101 H 192.662 -1.27542 0.903475 0
M  V30 2102 H 193.397 -3.13921 -0.813877 0
M  V30 2103 H 193.182 -3.83459 0.818613 0
M  V30 2104 H 194.672 -4.17451 -0.111387 0
M  V30 2105 N 195.109 -0.891671 -1.2995 0
M  V30 2106 C 196.039 -0.379797 -2.30391 0
M  V30 2107 C 197.02 0.540919 -1.6127 0
M  V30 2108 O 198.205 0.453352 -1.88834 0
M  V30 2109 C 195.335 0.400654 -3.44981 0
M  V30 2110 C 194.289 -0.428905 -4.25846 0
M  V30 2111 C 193.615 0.478557 -5.32554 0
M  V30 2112 C 194.915 -1.67458 -4.94727 0
M  V30 2113 H 196.609 -1.21914 -2.73454 0
M  V30 2114 H 194.155 -0.587675 -1.31462 0
M  V30 2115 H 196.108 0.769434 -4.14316 0
M  V30 2116 H 194.832 1.27371 -3.0074 0
M  V30 2117 H 193.491 -0.779911 -3.58208 0
M  V30 2118 H 193.139 1.34951 -4.84559 0
M  V30 2119 H 192.839 -0.0727433 -5.87555 0
M  V30 2120 H 194.363 0.843705 -6.04743 0
M  V30 2121 H 195.777 -1.376 -5.56542 0
M  V30 2122 H 194.174 -2.16659 -5.59624 0
M  V30 2123 H 195.244 -2.41518 -4.20473 0
M  V30 2124 N 196.587 1.43421 -0.653314 0
M  V30 2125 C 197.835 2.01414 -0.166415 0
M  V30 2126 C 198.156 1.51803 1.22397 0
M  V30 2127 O 197.426 0.730693 1.81763 0
M  V30 2128 H 196.006 0.744703 -0.0585319 0
M  V30 2129 H 198.668 1.75629 -0.845003 0
M  V30 2130 H 197.764 3.11734 -0.151111 0
M  V30 2131 N 198.065 0.39524 1.52563 0
M  V30 2132 C 199.29 -0.187456 2.06551 0
M  V30 2133 C 199.715 -1.39249 1.26457 0
M  V30 2134 O 199.073 -1.78947 0.291151 0
M  V30 2135 C 199.121 -0.529985 3.56684 0
M  V30 2136 O 198.225 -1.62307 3.79118 0
M  V30 2137 H 197.566 -0.0202537 0.663691 0
M  V30 2138 H 200.096 0.564426 1.96661 0
M  V30 2139 H 200.106 -0.792598 4.00227 0
M  V30 2140 H 198.781 0.350987 4.14416 0
M  V30 2141 H 197.358 -1.3537 3.47461 0
M  V30 2142 N 199.544 -1.57102 0.125237 0
M  V30 2143 C 200.474 -2.18659 -0.819174 0
M  V30 2144 C 201.455 -1.12843 -1.27281 0
M  V30 2145 O 202.64 -1.41104 -1.33429 0
M  V30 2146 C 199.77 -2.79096 -2.06695 0
M  V30 2147 C 198.724 -3.90548 -1.75088 0
M  V30 2148 C 198.05 -4.37821 -3.06948 0
M  V30 2149 C 199.35 -5.12356 -1.01435 0
M  V30 2150 H 201.044 -2.9783 -0.306202 0
M  V30 2151 H 198.59 -1.4326 -0.145839 0
M  V30 2152 H 200.543 -3.2082 -2.73226 0
M  V30 2153 H 199.267 -1.97223 -2.60328 0
M  V30 2154 H 197.926 -3.49409 -1.10944 0
M  V30 2155 H 197.574 -3.52799 -3.58527 0
M  V30 2156 H 197.274 -5.12982 -2.86571 0
M  V30 2157 H 198.798 -4.822 -3.74587 0
M  V30 2158 H 200.212 -5.5106 -1.58132 0
M  V30 2159 H 198.609 -5.9314 -0.911319 0
M  V30 2160 H 199.679 -4.849 -0.00218681 0
M  V30 2161 N 201.022 0.148545 -1.56898 0
M  V30 2162 C 201.985 1.16736 -1.97244 0
M  V30 2163 C 202.985 1.35947 -0.858777 0
M  V30 2164 O 204.175 1.32966 -1.12542 0
M  V30 2165 C 201.307 2.52798 -2.28705 0
M  V30 2166 H 202.5 0.821279 -2.88435 0
M  V30 2167 H 200.053 0.391831 -1.51309 0
M  V30 2168 H 200.788 2.92381 -1.403 0
M  V30 2169 H 200.573 2.40216 -3.09901 0
M  V30 2170 H 202.063 3.26179 -2.60762 0
M  V30 2171 N 202.5 1.5196 0.417844 0
M  V30 2172 C 203.746 1.65836 1.16732 0
M  V30 2173 C 204.079 0.382881 1.90388 0
M  V30 2174 O 203.354 -0.618368 1.84408 0
M  V30 2175 C 203.637 2.87466 2.16876 0
M  V30 2176 C 203.49 4.25041 1.47174 0
M  V30 2177 C 204.809 3.04613 3.17646 0
M  V30 2178 H 201.928 0.603515 0.423011 0
M  V30 2179 H 204.57 1.84494 0.454105 0
M  V30 2180 H 202.72 2.71689 2.777 0
M  V30 2181 H 204.392 4.52527 0.895376 0
M  V30 2182 H 202.635 4.26843 0.773806 0
M  V30 2183 H 203.306 5.06176 2.20204 0
M  V30 2184 H 205.782 3.1923 2.66892 0
M  V30 2185 H 204.658 3.91247 3.8499 0
M  V30 2186 H 204.919 2.17541 3.84874 0
M  V30 2187 N 203.978 -0.674533 1.42435 0
M  V30 2188 C 205.206 -1.46283 1.46317 0
M  V30 2189 C 205.621 -1.88653 0.0745836 0
M  V30 2190 O 204.978 -1.58151 -0.91074 0
M  V30 2191 C 205.029 -2.71178 2.3905 0
M  V30 2192 O 204.75 -2.30586 3.72507 0
M  V30 2193 C 206.251 -3.64738 2.51955 0
M  V30 2194 H 203.471 -0.450104 0.497642 0
M  V30 2195 H 206.015 -0.828792 1.86953 0
M  V30 2196 H 204.17 -3.3077 2.01667 0
M  V30 2197 H 204.584 -3.11241 4.22172 0
M  V30 2198 H 206.058 -4.49096 3.20962 0
M  V30 2199 H 206.535 -4.10656 1.55752 0
M  V30 2200 H 207.141 -3.11038 2.90061 0
M  V30 2201 N 205.456 -1.28612 -0.910864 0
M  V30 2202 C 206.403 -1.12786 -2.01365 0
M  V30 2203 C 207.373 -0.024201 -1.66082 0
M  V30 2204 O 208.558 -0.189667 -1.89855 0
M  V30 2205 C 205.698 -0.798743 -3.35729 0
M  V30 2206 C 204.811 -1.98173 -3.83864 0
M  V30 2207 C 203.946 -1.59298 -5.06752 0
M  V30 2208 C 202.985 -2.74245 -5.47226 0
M  V30 2209 N 202.122 -2.35842 -6.61304 0
M  V30 2210 H 206.962 -2.07142 -2.14234 0
M  V30 2211 H 204.499 -1.03093 -1.0493 0
M  V30 2212 H 206.457 -0.588662 -4.13026 0
M  V30 2213 H 205.087 0.10789 -3.2262 0
M  V30 2214 H 204.139 -2.30386 -3.02699 0
M  V30 2215 H 205.451 -2.84343 -4.09818 0
M  V30 2216 H 204.605 -1.34513 -5.916 0
M  V30 2217 H 203.344 -0.702618 -4.82612 0
M  V30 2218 H 202.349 -2.99725 -4.60918 0
M  V30 2219 H 203.574 -3.63928 -5.73353 0
M  V30 2220 H 201.52 -1.49279 -6.38789 0
M  V30 2221 H 201.437 -3.15546 -6.86998 0
M  V30 2222 H 202.705 -2.14348 -7.4945 0
M  V30 2223 N 206.934 1.1197 -1.10907 0
M  V30 2224 C 207.882 2.19927 -0.757303 0
M  V30 2225 C 208.876 1.67564 0.248747 0
M  V30 2226 O 210.082 1.79672 0.108605 0
M  V30 2227 H 206.457 0.716925 -0.226987 0
M  V30 2228 H 208.428 2.46847 -1.67658 0
M  V30 2229 C 207.177 3.47061 -0.210671 0
M  V30 2230 H 206.5 3.87703 -0.976049 0
M  V30 2231 H 207.94 4.24 -0.0026584 0
M  V30 2232 C 206.399 3.19864 1.05777 0
M  V30 2233 O 206.929 3.40049 2.13845 0
M  V30 2234 N 205.135 2.73636 0.978349 0
M  V30 2235 H 204.682 2.5741 0.0988246 0
M  V30 2236 H 204.64 2.55815 1.82773 0
M  V30 2237 N 208.412 0.89855 1.29475 0
M  V30 2238 C 209.689 0.443416 1.90508 0
M  V30 2239 C 210.069 -1.07685 1.81569 0
M  V30 2240 O 209.417 -1.9182 1.24166 0
M  V30 2241 C 209.627 0.956708 3.35631 0
M  V30 2242 C 210.975 0.999728 4.12663 0
M  V30 2243 O 211.999 0.904299 3.4453 0
M  V30 2244 O 210.858 1.14289 5.34416 0
M  V30 2245 H 207.952 0.138025 0.815401 0
M  V30 2246 H 210.498 0.98834 1.37949 0
M  V30 2247 H 209.27 2.00067 3.36287 0
M  V30 2248 H 208.893 0.391728 3.95666 0
M  V30 2249 N 209.89 -1.43072 0.660911 0
M  V30 2250 C 211.138 -2.01323 0.177094 0
M  V30 2251 C 211.459 -1.5245 -1.2159 0
M  V30 2252 O 210.729 -0.740322 -1.81373 0
M  V30 2253 H 209.309 -0.744382 0.0624804 0
M  V30 2254 H 211.971 -1.75179 0.854305 0
M  V30 2255 H 211.067 -3.11649 0.167641 0
M  V30 2256 N 211.368 -0.403325 -1.52352 0
M  V30 2257 C 212.318 0.442244 -2.2367 0
M  V30 2258 C 213.302 1.01823 -1.24583 0
M  V30 2259 O 214.494 0.942005 -1.49851 0
M  V30 2260 C 211.623 1.5615 -3.05732 0
M  V30 2261 C 210.709 0.996575 -4.12225 0
M  V30 2262 N 211.1 0.157804 -5.05554 0
M  V30 2263 C 209.398 1.26767 -4.27605 0
M  V30 2264 C 210.099 -0.155853 -5.81491 0
M  V30 2265 N 209.075 0.451775 -5.41719 0
M  V30 2266 H 212.877 -0.204964 -2.93184 0
M  V30 2267 H 210.391 -0.213418 -1.60992 0
M  V30 2268 H 212.388 2.17981 -3.55373 0
M  V30 2269 H 211.048 2.21139 -2.37755 0
M  V30 2270 H 212.059 -0.206049 -5.1749 0
M  V30 2271 H 208.736 1.91757 -3.70858 0
M  V30 2272 H 210.126 -0.836329 -6.66675 0
M  V30 2273 N 212.846 1.57033 -0.133567 0
M  V30 2274 C 214.076 1.99754 0.527429 0
M  V30 2275 C 214.484 1.01245 1.59832 0
M  V30 2276 O 213.827 -0.000645496 1.837 0
M  V30 2277 C 213.889 3.38903 1.19939 0
M  V30 2278 C 213.553 4.56174 0.274709 0
M  V30 2279 C 214.55 5.17563 -0.492398 0
M  V30 2280 C 212.235 5.01972 0.18153 0
M  V30 2281 C 214.229 6.2315 -1.34027 0
M  V30 2282 C 211.916 6.07416 -0.669958 0
M  V30 2283 C 212.914 6.67874 -1.42947 0
M  V30 2284 O 212.602 7.71279 -2.2668 0
M  V30 2285 H 212.334 0.660702 0.142999 0
M  V30 2286 H 214.888 2.04207 -0.221099 0
M  V30 2287 H 213.118 3.31248 1.99528 0
M  V30 2288 H 214.807 3.65818 1.75875 0
M  V30 2289 H 215.573 4.83087 -0.430367 0
M  V30 2290 H 211.452 4.54652 0.762422 0
M  V30 2291 H 214.996 6.70268 -1.93357 0
M  V30 2292 H 210.893 6.41321 -0.73333 0
M  V30 2293 H 211.661 7.88441 -2.1978 0
M  V30 2294 N 214.325 -0.140222 1.56975 0
M  V30 2295 C 215.741 -0.493088 1.51792 0
M  V30 2296 C 215.941 -1.83013 0.843116 0
M  V30 2297 O 214.997 -2.49041 0.416493 0
M  V30 2298 C 216.31 -0.497144 2.96562 0
M  V30 2299 C 217.858 -0.582186 3.07538 0
M  V30 2300 C 218.333 -0.616838 4.53827 0
M  V30 2301 N 219.824 -0.678873 4.58198 0
M  V30 2302 C 220.559 -0.726782 5.68775 0
M  V30 2303 N 220.055 -0.733623 6.88905 0
M  V30 2304 N 221.848 -0.768179 5.56826 0
M  V30 2305 H 213.999 0.736108 1.99237 0
M  V30 2306 H 216.262 0.269182 0.90898 0
M  V30 2307 H 215.968 0.417217 3.49217 0
M  V30 2308 H 215.842 -1.33263 3.52875 0
M  V30 2309 H 218.229 -1.48697 2.54899 0
M  V30 2310 H 218.31 0.280581 2.54257 0
M  V30 2311 H 217.954 0.283812 5.07106 0
M  V30 2312 H 217.884 -1.49619 5.04898 0
M  V30 2313 H 220.375 -0.68061 3.7172 0
M  V30 2314 H 220.688 -0.772215 7.68932 0
M  V30 2315 H 219.033 -0.701389 6.91452 0
M  V30 2316 H 222.224 -0.760051 4.61888 0
M  V30 2317 H 222.397 -0.80205 6.43017 0
M  V30 2318 N 215.803 -1.52179 -0.40978 0
M  V30 2319 C 217.051 -1.65878 -1.15451 0
M  V30 2320 C 217.372 -0.390771 -1.91044 0
M  V30 2321 O 216.642 0.594323 -1.86667 0
M  V30 2322 H 215.222 -0.611405 -0.429177 0
M  V30 2323 H 217.884 -1.89219 -0.467134 0
M  V30 2324 H 216.98 -2.49954 -1.86894 0
M  V30 2325 N 217.281 0.66697 -1.42791 0
M  V30 2326 C 218.558 1.4234 -1.34159 0
M  V30 2327 C 218.938 2.11093 0.0172729 0
M  V30 2328 O 218.286 2.03808 1.03318 0
M  V30 2329 C 218.496 2.41942 -2.51526 0
M  V30 2330 C 219.844 3.06353 -2.93995 0
M  V30 2331 O 220.868 2.52269 -2.51473 0
M  V30 2332 O 219.727 4.04376 -3.67617 0
M  V30 2333 H 216.821 0.635277 -0.529483 0
M  V30 2334 H 219.367 0.695034 -1.54814 0
M  V30 2335 H 218.139 1.89991 -3.42081 0
M  V30 2336 H 217.762 3.22249 -2.32898 0
M  V30 2337 N 218.759 1.29093 0.90403 0
M  V30 2338 C 220.17 1.15186 1.46932 0
M  V30 2339 C 220.521 -0.254587 1.94541 0
M  V30 2340 O 219.646 -1.14972 1.83332 0
M  V30 2341 C 220.241 2.08492 2.67051 0
M  V30 2342 C 218.8 1.98621 3.19729 0
M  V30 2343 C 217.947 1.9967 1.92425 0
M  V30 2344 H 220.898 1.41641 0.715789 0
M  V30 2345 H 220.919 1.65461 3.42641 0
M  V30 2346 H 220.431 3.10847 2.3237 0
M  V30 2347 H 218.532 0.993389 3.59114 0
M  V30 2348 H 218.645 2.86068 3.8432 0
M  V30 2349 H 217.009 1.44208 2.09943 0
M  V30 2350 H 217.792 3.03721 1.60026 0
M  V30 2351 N 220.237 -1.11381 1.11499 0
M  V30 2352 C 221.185 -2.19522 0.768956 0
M  V30 2353 C 222.179 -1.67693 -0.239857 0
M  V30 2354 O 223.385 -1.79727 -0.0990755 0
M  V30 2355 H 219.76 -0.715711 0.230786 0
M  V30 2356 H 221.731 -2.45954 1.68964 0
M  V30 2357 C 220.48 -3.46945 0.229073 0
M  V30 2358 H 219.803 -3.8718 0.996596 0
M  V30 2359 H 221.243 -4.23993 0.0251441 0
M  V30 2360 C 219.702 -3.2042 -1.04079 0
M  V30 2361 O 220.232 -3.41178 -2.12038 0
M  V30 2362 N 218.438 -2.74151 -0.963823 0
M  V30 2363 H 217.985 -2.57459 -0.0851722 0
M  V30 2364 H 217.943 -2.56781 -1.81414 0
M  V30 2365 N 221.715 -0.905404 -1.28997 0
M  V30 2366 C 222.961 -0.544465 -1.95977 0
M  V30 2367 C 223.316 0.90041 -1.70031 0
M  V30 2368 O 222.609 1.63064 -1.00601 0
M  V30 2369 C 222.803 -0.779906 -3.48787 0
M  V30 2370 C 222.632 -2.24612 -3.89589 0
M  V30 2371 C 221.402 -2.89464 -4.14172 0
M  V30 2372 C 223.6 -3.22182 -4.00878 0
M  V30 2373 N 221.582 -4.26469 -4.41585 0
M  V30 2374 C 222.953 -4.44323 -4.32409 0
M  V30 2375 C 225.008 -3.17694 -3.83373 0
M  V30 2376 C 223.711 -5.62546 -4.48258 0
M  V30 2377 C 225.737 -4.35208 -4.00435 0
M  V30 2378 C 225.099 -5.56121 -4.3233 0
M  V30 2379 H 221.198 -0.248948 -0.741316 0
M  V30 2380 H 223.782 -1.1674 -1.5582 0
M  V30 2381 H 221.953 -0.186308 -3.87953 0
M  V30 2382 H 223.685 -0.383833 -4.02876 0
M  V30 2383 H 220.44 -2.40232 -4.08149 0
M  V30 2384 H 220.864 -4.97283 -4.5939 0
M  V30 2385 H 225.506 -2.25297 -3.57773 0
M  V30 2386 H 223.224 -6.55429 -4.72692 0
M  V30 2387 H 226.81 -4.33228 -3.88336 0
M  V30 2388 H 225.69 -6.45537 -4.45255 0
M  V30 2389 N 223.193 1.4272 -0.668489 0
M  V30 2390 C 224.44 2.01624 -0.18814 0
M  V30 2391 C 224.768 1.5282 1.20317 0
M  V30 2392 O 224.023 0.718323 1.8204 0
M  V30 2393 C 224.322 3.57021 -0.164499 0
M  V30 2394 C 223.988 4.25232 -1.49962 0
M  V30 2395 C 222.65 4.4358 -1.8652 0
M  V30 2396 C 225.002 4.63727 -2.37921 0
M  V30 2397 C 222.33 4.97694 -3.10674 0
M  V30 2398 C 224.682 5.19218 -3.6138 0
M  V30 2399 C 223.346 5.3578 -3.98115 0
M  V30 2400 H 222.616 0.737795 -0.0688454 0
M  V30 2401 H 225.263 1.70991 -0.862225 0
M  V30 2402 H 223.568 3.87285 0.593079 0
M  V30 2403 H 225.265 4.00372 0.224271 0
M  V30 2404 H 221.855 4.11306 -1.20522 0
M  V30 2405 H 226.039 4.4923 -2.10964 0
M  V30 2406 H 221.295 5.08702 -3.39164 0
M  V30 2407 H 225.469 5.4799 -4.29743 0
M  V30 2408 H 223.096 5.77475 -4.94395 0
M  V30 2409 N 224.671 0.411399 1.52136 0
M  V30 2410 C 225.604 -0.457614 2.23565 0
M  V30 2411 C 226.582 -1.04613 1.24478 0
M  V30 2412 O 227.766 -1.09356 1.53536 0
M  V30 2413 C 224.893 -1.6354 2.96602 0
M  V30 2414 C 223.939 -1.17005 4.10137 0
M  V30 2415 S 224.772 -0.13333 5.35334 0
M  V30 2416 C 225.928 -1.31638 6.119 0
M  V30 2417 H 226.161 0.148883 2.96927 0
M  V30 2418 H 223.694 0.195713 1.53155 0
M  V30 2419 H 225.652 -2.31074 3.39286 0
M  V30 2420 H 224.313 -2.21324 2.22878 0
M  V30 2421 H 223.506 -2.05005 4.60422 0
M  V30 2422 H 223.108 -0.573319 3.6958 0
M  V30 2423 H 225.4 -2.23957 6.39413 0
M  V30 2424 H 226.343 -0.854014 7.02931 0
M  V30 2425 H 226.751 -1.54321 5.42997 0
M  V30 2426 N 226.149 -1.5696 0.141893 0
M  V30 2427 C 227.096 -2.16501 -0.799737 0
M  V30 2428 C 228.066 -1.09643 -1.24771 0
M  V30 2429 O 229.251 -1.3766 -1.32115 0
M  V30 2430 C 226.391 -2.78679 -2.03549 0
M  V30 2431 C 225.504 -3.99914 -1.6338 0
M  V30 2432 C 224.639 -4.50106 -2.82096 0
M  V30 2433 C 223.678 -5.63819 -2.38275 0
M  V30 2434 N 222.815 -6.08651 -3.49983 0
M  V30 2435 H 227.655 -2.96632 -0.285179 0
M  V30 2436 H 225.192 -1.46533 -0.129053 0
M  V30 2437 H 227.15 -3.1287 -2.75986 0
M  V30 2438 H 225.78 -2.012 -2.52425 0
M  V30 2439 H 224.832 -3.71735 -0.807279 0
M  V30 2440 H 226.144 -4.82311 -1.27192 0
M  V30 2441 H 225.298 -4.86325 -3.62729 0
M  V30 2442 H 224.037 -3.66706 -3.21525 0
M  V30 2443 H 223.042 -5.2718 -1.56081 0
M  V30 2444 H 224.267 -6.49 -1.99938 0
M  V30 2445 H 222.213 -5.28188 -3.89042 0
M  V30 2446 H 222.13 -6.85961 -3.17794 0
M  V30 2447 H 223.398 -6.49515 -4.30988 0
M  V30 2448 N 227.627 0.131896 -1.57047 0
M  V30 2449 C 228.574 1.16236 -1.99393 0
M  V30 2450 C 229.544 1.41863 -0.863943 0
M  V30 2451 O 230.729 1.53946 -1.12718 0
M  V30 2452 C 227.869 2.48708 -2.39245 0
M  V30 2453 C 226.982 2.30127 -3.65603 0
M  V30 2454 C 226.117 3.55738 -3.94492 0
M  V30 2455 C 225.156 3.32259 -5.14073 0
M  V30 2456 N 224.293 4.50039 -5.38896 0
M  V30 2457 H 229.133 0.794251 -2.87221 0
M  V30 2458 H 226.67 0.380707 -1.42088 0
M  V30 2459 H 228.628 3.25969 -2.60384 0
M  V30 2460 H 227.258 2.83437 -1.54478 0
M  V30 2461 H 226.31 1.43845 -3.52154 0
M  V30 2462 H 227.622 2.08746 -4.5302 0
M  V30 2463 H 226.776 4.41423 -4.1621 0
M  V30 2464 H 225.515 3.80138 -3.05526 0
M  V30 2465 H 224.52 2.44963 -4.92212 0
M  V30 2466 H 225.745 3.09242 -6.04604 0
M  V30 2467 H 223.691 4.74584 -4.52886 0
M  V30 2468 H 223.608 4.31716 -6.2061 0
M  V30 2469 H 224.876 5.36895 -5.65123 0
M  V30 2470 N 229.106 1.52395 0.401703 0
M  V30 2471 C 230.069 1.75636 1.47257 0
M  V30 2472 C 231.069 0.62628 1.48103 0
M  V30 2473 O 232.259 0.894227 1.49497 0
M  V30 2474 C 229.391 1.84553 2.86624 0
M  V30 2475 H 230.584 2.71241 1.27938 0
M  V30 2476 H 228.137 1.42923 0.632662 0
M  V30 2477 H 228.872 0.908882 3.11303 0
M  V30 2478 H 228.657 2.66715 2.87412 0
M  V30 2479 H 230.147 2.04251 3.64241 0
M  V30 2480 N 230.584 -0.659388 1.43143 0
M  V30 2481 C 231.516 -1.7849 1.43784 0
M  V30 2482 C 232.529 -1.5932 0.334787 0
M  V30 2483 O 233.718 -1.68155 0.598842 0
M  V30 2484 C 230.818 -3.15828 1.22906 0
M  V30 2485 C 229.991 -3.61711 2.45934 0
M  V30 2486 C 229.05 -4.77831 2.20371 0
M  V30 2487 O 228.076 -4.87586 2.93681 0
M  V30 2488 N 229.278 -5.67611 1.21647 0
M  V30 2489 H 232.043 -1.7842 2.40803 0
M  V30 2490 H 229.604 -0.84302 1.3822 0
M  V30 2491 H 231.596 -3.91189 1.03697 0
M  V30 2492 H 230.166 -3.10707 0.343542 0
M  V30 2493 H 229.386 -2.76861 2.80609 0
M  V30 2494 H 230.674 -3.89112 3.27825 0
M  V30 2495 H 230.072 -5.62397 0.610449 0
M  V30 2496 H 228.629 -6.42719 1.08423 0
M  V30 2497 N 232.062 -1.29571 -0.897171 0
M  V30 2498 C 232.972 -1.16808 -2.03453 0
M  V30 2499 C 233.988 -0.0907471 -1.73763 0
M  V30 2500 O 235.164 -0.303312 -1.99103 0
M  V30 2501 C 232.229 -0.848264 -3.36163 0
M  V30 2502 C 231.29 -2.0097 -3.79354 0
M  V30 2503 C 230.523 -1.70505 -5.05731 0
M  V30 2504 O 230.746 -0.62718 -5.66941 0
M  V30 2505 O 229.68 -2.5538 -5.45036 0
M  V30 2506 H 233.506 -2.12325 -2.17144 0
M  V30 2507 H 231.091 -1.09047 -1.02123 0
M  V30 2508 H 232.973 -0.684581 -4.15802 0
M  V30 2509 H 231.648 0.0771071 -3.23608 0
M  V30 2510 H 230.555 -2.22863 -3.00471 0
M  V30 2511 H 231.888 -2.91636 -3.96496 0
M  V30 2512 N 233.54 1.10788 -1.12088 0
M  V30 2513 C 234.49 2.15158 -0.754401 0
M  V30 2514 C 235.474 1.59026 0.244846 0
M  V30 2515 O 236.666 1.76927 0.0509097 0
M  V30 2516 C 233.795 3.42677 -0.206657 0
M  V30 2517 C 232.881 4.05751 -1.23398 0
M  V30 2518 N 233.272 4.43582 -2.43041 0
M  V30 2519 C 231.57 4.32764 -1.07848 0
M  V30 2520 C 232.271 4.93085 -3.08613 0
M  V30 2521 N 231.247 4.89664 -2.36072 0
M  V30 2522 H 235.049 2.42195 -1.6649 0
M  V30 2523 H 232.563 1.27872 -1.00112 0
M  V30 2524 H 234.56 4.16834 0.0740646 0
M  V30 2525 H 233.22 3.17101 0.698342 0
M  V30 2526 H 234.231 4.35395 -2.80449 0
M  V30 2527 H 230.908 4.16863 -0.230483 0
M  V30 2528 H 232.298 5.31933 -4.10483 0
M  V30 2529 N 235.018 0.912232 1.28515 0
M  V30 2530 C 235.965 0.397954 2.27343 0
M  V30 2531 C 236.935 -0.526766 1.57526 0
M  V30 2532 O 238.12 -0.449292 1.85435 0
M  V30 2533 C 235.26 -0.357263 3.43246 0
M  V30 2534 C 234.373 0.599788 4.27816 0
M  V30 2535 C 233.508 -0.173725 5.30916 0
M  V30 2536 C 232.547 0.777039 6.07148 0
M  V30 2537 N 231.684 0.0371398 7.0209 0
M  V30 2538 H 236.524 1.24577 2.70711 0
M  V30 2539 H 234.061 0.625612 1.33133 0
M  V30 2540 H 236.019 -0.8113 4.09236 0
M  V30 2541 H 234.649 -1.16943 3.00872 0
M  V30 2542 H 233.701 1.17235 3.61884 0
M  V30 2543 H 235.013 1.32704 4.80823 0
M  V30 2544 H 234.167 -0.688394 6.02782 0
M  V30 2545 H 232.906 -0.934041 4.78672 0
M  V30 2546 H 231.911 1.3031 5.34134 0
M  V30 2547 H 233.136 1.53689 6.61481 0
M  V30 2548 H 231.082 -0.705213 6.52198 0
M  V30 2549 H 230.999 0.704249 7.52713 0
M  V30 2550 H 232.267 -0.457383 7.78157 0
M  V30 2551 N 236.496 -1.42363 0.676048 0
M  V30 2552 C 237.912 -1.55811 0.345718 0
M  V30 2553 C 238.112 -1.65544 -1.14879 0
M  V30 2554 O 237.168 -1.62306 -1.93424 0
M  V30 2555 C 238.481 -2.80746 1.07713 0
M  V30 2556 C 240.029 -2.9452 1.05958 0
M  V30 2557 C 240.504 -4.22318 1.77233 0
M  V30 2558 N 241.995 -4.29233 1.74108 0
M  V30 2559 C 242.73 -5.26935 2.26113 0
M  V30 2560 N 242.226 -6.30783 2.86505 0
M  V30 2561 N 244.019 -5.18741 2.1648 0
M  V30 2562 H 236.17 -1.34289 1.6456 0
M  V30 2563 H 238.433 -0.646506 0.69335 0
M  V30 2564 H 238.139 -2.79696 2.13221 0
M  V30 2565 H 238.013 -3.71676 0.64316 0
M  V30 2566 H 240.4 -2.95097 0.0128255 0
M  V30 2567 H 240.481 -2.04817 1.53244 0
M  V30 2568 H 240.125 -4.22502 2.81877 0
M  V30 2569 H 240.055 -5.10958 1.27396 0
M  V30 2570 H 242.546 -3.54814 1.30059 0
M  V30 2571 H 242.859 -7.01691 3.23805 0
M  V30 2572 H 241.204 -6.31341 2.90575 0
M  V30 2573 H 244.395 -4.36533 1.68987 0
M  V30 2574 H 244.568 -5.94721 2.57316 0
M  V30 2575 N 237.974 -0.419461 -1.51915 0
M  V30 2576 C 238.884 0.407528 -2.31033 0
M  V30 2577 C 239.9 1.04413 -1.3919 0
M  V30 2578 O 241.076 1.0434 -1.72265 0
M  V30 2579 C 238.141 1.50365 -3.12396 0
M  V30 2580 C 237.202 0.889029 -4.19994 0
M  V30 2581 C 236.435 1.93291 -4.97468 0
M  V30 2582 O 236.658 3.15259 -4.75361 0
M  V30 2583 O 235.592 1.53339 -5.8204 0
M  V30 2584 H 239.418 -0.237865 -3.02767 0
M  V30 2585 H 237.003 -0.182413 -1.48282 0
M  V30 2586 H 238.885 2.13975 -3.63032 0
M  V30 2587 H 237.56 2.13345 -2.43445 0
M  V30 2588 H 236.467 0.215353 -3.7348 0
M  V30 2589 H 237.8 0.302991 -4.91267 0
M  V30 2590 N 239.452 1.56882 -0.150215 0
M  V30 2591 C 240.699 1.96228 0.500093 0
M  V30 2592 C 241.027 1.03522 1.64661 0
M  V30 2593 O 240.282 0.0650683 1.95592 0
M  V30 2594 C 240.581 3.41801 1.04437 0
M  V30 2595 C 240.247 4.50897 0.0159671 0
M  V30 2596 C 238.909 4.8046 -0.266731 0
M  V30 2597 C 241.261 5.16703 -0.683192 0
M  V30 2598 C 238.589 5.73135 -1.25434 0
M  V30 2599 C 240.941 6.10441 -1.65964 0
M  V30 2600 C 239.605 6.38382 -1.95 0
M  V30 2601 H 238.875 0.718048 0.182997 0
M  V30 2602 H 241.522 1.90019 -0.237724 0
M  V30 2603 H 239.827 3.44857 1.85959 0
M  V30 2604 H 241.524 3.69573 1.55618 0
M  V30 2605 H 238.114 4.27891 0.246485 0
M  V30 2606 H 242.298 4.93993 -0.477983 0
M  V30 2607 H 237.554 5.93074 -1.48571 0
M  V30 2608 H 241.728 6.60507 -2.20689 0
M  V30 2609 H 239.355 7.09996 -2.71679 0
M  V30 2610 N 240.93 -0.123565 1.57115 0
M  V30 2611 C 242.158 -0.846461 1.88793 0
M  V30 2612 C 242.573 -1.73652 0.740976 0
M  V30 2613 O 241.93 -1.80207 -0.288393 0
M  V30 2614 C 241.981 -1.6837 3.19897 0
M  V30 2615 O 241.702 -0.829477 4.30176 0
M  V30 2616 C 243.203 -2.51214 3.65248 0
M  V30 2617 H 240.423 -0.243573 0.625231 0
M  V30 2618 H 242.967 -0.109324 2.04208 0
M  V30 2619 H 241.122 -2.37364 3.06165 0
M  V30 2620 H 241.536 -1.40651 5.0529 0
M  V30 2621 H 243.01 -3.05497 4.59756 0
M  V30 2622 H 243.487 -3.28359 2.9168 0
M  V30 2623 H 244.093 -1.8747 3.81752 0
M  V30 2624 N 242.408 -1.52605 -0.393616 0
M  V30 2625 C 243.318 -1.79971 -1.50492 0
M  V30 2626 C 244.334 -0.686181 -1.59899 0
M  V30 2627 O 245.51 -0.973274 -1.76322 0
M  V30 2628 C 242.575 -1.95867 -2.86072 0
M  V30 2629 C 241.636 -3.19781 -2.86424 0
M  V30 2630 C 240.869 -3.34909 -4.15538 0
M  V30 2631 O 241.092 -2.54948 -5.10253 0
M  V30 2632 O 240.026 -4.28141 -4.23059 0
M  V30 2633 H 243.852 -2.74328 -1.30299 0
M  V30 2634 H 241.437 -1.3764 -0.581005 0
M  V30 2635 H 243.319 -2.08056 -3.66457 0
M  V30 2636 H 241.994 -1.04699 -3.063 0
M  V30 2637 H 240.901 -3.13038 -2.04837 0
M  V30 2638 H 242.234 -4.1078 -2.71147 0
M  V30 2639 N 243.887 0.651787 -1.4349 0
M  V30 2640 C 245.112 1.44434 -1.48841 0
M  V30 2641 C 245.537 1.8779 -0.107955 0
M  V30 2642 O 244.895 1.57464 0.898602 0
M  V30 2643 C 244.943 2.65458 -2.44059 0
M  V30 2644 O 244.047 3.64566 -1.92784 0
M  V30 2645 H 243.388 0.433005 -0.503391 0
M  V30 2646 H 245.918 0.797451 -1.88419 0
M  V30 2647 H 245.928 3.13255 -2.6141 0
M  V30 2648 H 244.603 2.33244 -3.4434 0
M  V30 2649 H 243.18 3.23716 -1.851 0
M  V30 2650 N 245.365 1.30045 0.890287 0
M  V30 2651 C 246.297 1.11786 2.00091 0
M  V30 2652 C 247.31 0.0626307 1.62679 0
M  V30 2653 O 248.499 0.308112 1.75821 0
M  V30 2654 C 245.599 0.681527 3.31977 0
M  V30 2655 C 244.772 1.81735 3.97858 0
M  V30 2656 C 243.831 1.37045 5.08041 0
M  V30 2657 O 242.857 2.07677 5.29961 0
M  V30 2658 N 244.059 0.246525 5.79976 0
M  V30 2659 H 246.824 2.07441 2.16306 0
M  V30 2660 H 244.385 1.2211 1.06305 0
M  V30 2661 H 246.377 0.365675 4.03045 0
M  V30 2662 H 244.947 -0.182828 3.12065 0
M  V30 2663 H 244.167 2.30159 3.20032 0
M  V30 2664 H 245.455 2.57865 4.38615 0
M  V30 2665 H 244.853 -0.34215 5.64664 0
M  V30 2666 H 243.41 -0.00990438 6.51799 0
M  V30 2667 N 246.843 -1.10192 1.12674 0
M  V30 2668 C 247.773 -2.18652 0.819362 0
M  V30 2669 C 248.754 -1.68698 -0.217915 0
M  V30 2670 O 249.939 -1.94041 -0.0785581 0
M  V30 2671 C 247.069 -3.46202 0.27594 0
M  V30 2672 C 246.023 -4.09444 1.24656 0
M  V30 2673 C 245.349 -5.31725 0.563258 0
M  V30 2674 C 246.649 -4.52863 2.60217 0
M  V30 2675 H 248.343 -2.44622 1.72628 0
M  V30 2676 H 245.889 -1.17571 0.831451 0
M  V30 2677 H 247.842 -4.21372 0.0486149 0
M  V30 2678 H 246.566 -3.1973 -0.666331 0
M  V30 2679 H 245.225 -3.36284 1.45974 0
M  V30 2680 H 244.873 -5.0153 -0.384235 0
M  V30 2681 H 244.573 -5.74991 1.21075 0
M  V30 2682 H 246.097 -6.09624 0.34503 0
M  V30 2683 H 247.511 -5.19294 2.42913 0
M  V30 2684 H 245.908 -5.06986 3.21068 0
M  V30 2685 H 246.978 -3.65656 3.18471 0
M  V30 2686 N 248.321 -0.919034 -1.28029 0
M  V30 2687 C 249.253 -0.368762 -2.26214 0
M  V30 2688 C 250.266 0.495716 -1.55069 0
M  V30 2689 O 251.455 0.30974 -1.75792 0
M  V30 2690 C 248.555 0.491049 -3.35324 0
M  V30 2691 C 247.728 -0.352133 -4.3598 0
M  V30 2692 C 246.787 0.443622 -5.24327 0
M  V30 2693 O 245.813 -0.14566 -5.69014 0
M  V30 2694 N 247.015 1.74545 -5.53637 0
M  V30 2695 H 249.78 -1.21273 -2.74068 0
M  V30 2696 H 247.341 -0.785541 -1.41566 0
M  V30 2697 H 249.333 1.03026 -3.91366 0
M  V30 2698 H 247.903 1.23574 -2.87138 0
M  V30 2699 H 247.123 -1.07269 -3.79324 0
M  V30 2700 H 248.411 -0.928883 -5.00249 0
M  V30 2701 H 247.809 2.24666 -5.19174 0
M  V30 2702 H 246.366 2.23138 -6.12416 0
M  V30 2703 N 249.799 1.42003 -0.683588 0
M  V30 2704 C 250.709 2.34597 -0.0109075 0
M  V30 2705 C 251.725 1.55576 0.779245 0
M  V30 2706 O 252.901 1.88107 0.719555 0
M  V30 2707 C 249.966 3.34199 0.922588 0
M  V30 2708 C 249.027 4.29115 0.125984 0
M  V30 2709 C 248.26 5.23959 1.01502 0
M  V30 2710 O 248.483 5.23952 2.25456 0
M  V30 2711 O 247.417 6.00053 0.47111 0
M  V30 2712 H 251.243 2.93675 -0.773853 0
M  V30 2713 H 248.828 1.42654 -0.443861 0
M  V30 2714 H 250.71 3.95365 1.45823 0
M  V30 2715 H 249.385 2.77582 1.66523 0
M  V30 2716 H 248.292 3.71335 -0.453969 0
M  V30 2717 H 249.625 4.88798 -0.577736 0
M  V30 2718 N 251.277 0.427512 1.51691 0
M  V30 2719 C 252.525 -0.141948 2.01601 0
M  V30 2720 C 252.846 -1.44067 1.31414 0
M  V30 2721 O 252.116 -1.90763 0.445658 0
M  V30 2722 H 250.696 -0.0554468 0.744939 0
M  V30 2723 H 253.358 0.567968 1.86441 0
M  V30 2724 H 252.454 -0.324913 3.10404 0
M  V30 2725 N 252.755 -1.56801 0.158532 0
M  V30 2726 C 253.702 -2.17337 -0.776729 0
M  V30 2727 C 254.672 -1.1096 -1.23601 0
M  V30 2728 O 255.857 -1.39054 -1.30647 0
M  V30 2729 C 252.997 -2.80822 -2.00582 0
M  V30 2730 C 252.11 -4.01624 -1.59129 0
M  V30 2731 C 251.245 -4.53072 -2.77306 0
M  V30 2732 C 250.284 -5.66314 -2.32282 0
M  V30 2733 N 249.421 -6.12329 -3.43508 0
M  V30 2734 H 254.261 -2.96918 -0.253701 0
M  V30 2735 H 251.798 -1.46661 -0.113504 0
M  V30 2736 H 253.756 -3.15779 -2.72652 0
M  V30 2737 H 252.386 -2.03866 -2.50277 0
M  V30 2738 H 251.438 -3.72571 -0.767806 0
M  V30 2739 H 252.75 -4.83633 -1.2207 0
M  V30 2740 H 251.904 -4.90145 -3.57551 0
M  V30 2741 H 250.643 -3.70095 -3.17617 0
M  V30 2742 H 249.648 -5.28806 -1.5048 0
M  V30 2743 H 250.873 -6.51085 -1.93043 0
M  V30 2744 H 248.819 -5.32284 -3.83418 0
M  V30 2745 H 248.736 -6.89293 -3.105 0
M  V30 2746 H 250.004 -6.5405 -4.24075 0
M  V30 2747 N 254.233 0.115231 -1.57178 0
M  V30 2748 C 255.183 1.14707 -1.97044 0
M  V30 2749 C 256.167 1.36866 -0.845957 0
M  V30 2750 O 257.359 1.37895 -1.10968 0
M  V30 2751 C 254.488 2.47266 -2.38148 0
M  V30 2752 C 253.574 2.28566 -3.57237 0
M  V30 2753 N 253.965 1.79685 -4.72807 0
M  V30 2754 C 252.263 2.59208 -3.62943 0
M  V30 2755 C 252.964 1.74781 -5.54821 0
M  V30 2756 N 251.94 2.19264 -4.97417 0
M  V30 2757 H 255.742 0.761754 -2.83857 0
M  V30 2758 H 253.256 0.322928 -1.59157 0
M  V30 2759 H 255.253 3.219 -2.64927 0
M  V30 2760 H 253.913 2.86552 -1.52702 0
M  V30 2761 H 254.924 1.49177 -4.9595 0
M  V30 2762 H 251.601 3.02154 -2.88113 0
M  V30 2763 H 252.991 1.38212 -6.57531 0
M  V30 2764 N 255.711 1.52812 0.385517 0
M  V30 2765 C 256.957 1.68275 1.13188 0
M  V30 2766 C 257.29 0.423179 1.89533 0
M  V30 2767 O 256.565 -0.579113 1.85679 0
M  V30 2768 C 256.848 2.92001 2.1073 0
M  V30 2769 C 256.701 4.28067 1.38125 0
M  V30 2770 C 258.02 3.11283 3.11113 0
M  V30 2771 H 255.139 0.612352 0.410115 0
M  V30 2772 H 257.781 1.85415 0.414869 0
M  V30 2773 H 255.931 2.77519 2.71874 0
M  V30 2774 H 257.603 4.54324 0.799187 0
M  V30 2775 H 255.846 4.28388 0.683092 0
M  V30 2776 H 256.517 5.10733 2.09417 0
M  V30 2777 H 258.993 3.2482 2.6006 0
M  V30 2778 H 257.869 3.99325 3.76605 0
M  V30 2779 H 258.13 2.25656 3.80173 0
M  V30 2780 N 257.189 -0.644168 1.43834 0
M  V30 2781 C 258.438 -1.39985 1.45214 0
M  V30 2782 C 258.751 -1.95421 0.0835494 0
M  V30 2783 O 259.957 -2.71488 -0.0251748 0
M  V30 2784 C 258.413 -2.53384 2.55587 0
M  V30 2785 C 258.021 -2.04517 3.98594 0
M  V30 2786 C 259.765 -3.30685 2.66172 0
M  V30 2787 C 257.672 -3.1518 5.00416 0
M  V30 2788 H 256.602 -0.526005 0.540218 0
M  V30 2789 H 259.253 -0.694367 1.69855 0
M  V30 2790 H 257.635 -3.26446 2.24163 0
M  V30 2791 H 258.809 -1.38405 4.39523 0
M  V30 2792 H 257.124 -1.40068 3.92135 0
M  V30 2793 H 259.721 -4.13158 3.39418 0
M  V30 2794 H 260.064 -3.79312 1.71546 0
M  V30 2795 H 260.597 -2.64708 2.96942 0
M  V30 2796 H 257.336 -2.71511 5.96625 0
M  V30 2797 H 256.856 -3.79974 4.64091 0
M  V30 2798 H 258.535 -3.80166 5.23529 0
M  V30 2799 N 258.668 -1.30515 -0.883378 0
M  V30 2800 C 259.916 -1.19194 -1.63209 0
M  V30 2801 C 260.237 0.253205 -1.93349 0
M  V30 2802 O 259.507 1.17025 -1.57105 0
M  V30 2803 H 258.087 -0.438148 -0.605009 0
M  V30 2804 H 260.749 -1.63663 -1.05832 0
M  V30 2805 H 259.845 -1.75396 -2.58153 0
M  V30 2806 N 260.146 1.09593 -1.13257 0
M  V30 2807 C 261.076 2.18214 -0.830946 0
M  V30 2808 C 262.057 1.68812 0.208966 0
M  V30 2809 O 263.242 1.9408 0.0682666 0
M  V30 2810 C 260.372 3.46051 -0.294296 0
M  V30 2811 C 259.326 4.08778 -1.26826 0
M  V30 2812 C 258.652 5.31419 -0.591449 0
M  V30 2813 C 259.952 4.51476 -2.62615 0
M  V30 2814 H 261.646 2.43703 -1.73923 0
M  V30 2815 H 259.192 1.17128 -0.837675 0
M  V30 2816 H 261.145 4.2134 -0.0709606 0
M  V30 2817 H 259.869 3.20079 0.649366 0
M  V30 2818 H 258.528 3.35505 -1.47756 0
M  V30 2819 H 258.176 5.01727 0.357633 0
M  V30 2820 H 257.876 5.74341 -1.24123 0
M  V30 2821 H 259.4 6.09433 -0.377355 0
M  V30 2822 H 260.814 5.17999 -2.45663 0
M  V30 2823 H 259.211 5.05277 -3.23752 0
M  V30 2824 H 260.281 3.63962 -3.20406 0
M  V30 2825 N 261.624 0.925811 1.2754 0
M  V30 2826 C 262.556 0.380753 2.26015 0
M  V30 2827 C 263.569 -0.487485 1.5533 0
M  V30 2828 O 264.758 -0.300413 1.75954 0
M  V30 2829 C 261.858 -0.473259 3.35579 0
M  V30 2830 C 261.031 0.375249 4.35787 0
M  V30 2831 C 260.09 -0.415809 5.24555 0
M  V30 2832 O 259.116 0.175834 5.68928 0
M  V30 2833 N 260.318 -1.71607 5.54555 0
M  V30 2834 H 263.083 1.22725 2.73421 0
M  V30 2835 H 260.644 0.793037 1.41147 0
M  V30 2836 H 262.636 -1.00949 3.91907 0
M  V30 2837 H 261.206 -1.2205 2.87789 0
M  V30 2838 H 260.426 1.09279 3.7875 0
M  V30 2839 H 261.714 0.955399 4.99749 0
M  V30 2840 H 261.112 -2.2191 5.20358 0
M  V30 2841 H 259.669 -2.19887 6.1359 0
M  V30 2842 N 263.102 -1.41638 0.69111 0
M  V30 2843 C 264.035 -2.28183 -0.0274913 0
M  V30 2844 C 265.013 -1.41984 -0.792424 0
M  V30 2845 O 266.197 -1.71415 -0.784169 0
M  V30 2846 C 263.324 -3.22135 -1.04628 0
M  V30 2847 C 262.37 -4.24848 -0.375037 0
M  V30 2848 S 263.203 -5.28231 0.879321 0
M  V30 2849 C 264.359 -6.25748 -0.137983 0
M  V30 2850 H 264.592 -2.88782 0.706553 0
M  V30 2851 H 262.125 -1.46709 0.481222 0
M  V30 2852 H 264.083 -3.76797 -1.62894 0
M  V30 2853 H 262.744 -2.6064 -1.75287 0
M  V30 2854 H 261.937 -4.90837 -1.14433 0
M  V30 2855 H 261.539 -3.73758 0.134434 0
M  V30 2856 H 263.831 -6.70188 -0.992659 0
M  V30 2857 H 264.774 -7.06417 0.487867 0
M  V30 2858 H 265.182 -5.62363 -0.490762 0
M  V30 2859 N 264.58 -0.43555 -1.51462 0
M  V30 2860 C 265.828 0.131254 -2.01673 0
M  V30 2861 C 266.149 1.43368 -1.32177 0
M  V30 2862 O 265.419 1.90524 -0.455769 0
M  V30 2863 H 263.999 0.0514954 -0.745223 0
M  V30 2864 H 266.661 -0.577847 -1.86137 0
M  V30 2865 H 265.757 0.308446 -3.10572 0
M  V30 2866 N 266.058 1.56714 -0.166846 0
M  V30 2867 C 267.283 2.01557 0.488833 0
M  V30 2868 C 267.708 1.0463 1.56314 0
M  V30 2869 O 267.066 0.0251304 1.81283 0
M  V30 2870 C 267.114 3.4503 1.04818 0
M  V30 2871 O 266.218 3.51163 2.16236 0
M  V30 2872 H 265.559 0.653516 0.117526 0
M  V30 2873 H 268.089 2.02818 -0.269421 0
M  V30 2874 H 268.099 3.84243 1.37191 0
M  V30 2875 H 266.774 4.15077 0.261572 0
M  V30 2876 H 265.351 3.23807 1.84942 0
M  V30 2877 N 267.536 -0.106894 1.57237 0
M  V30 2878 C 268.484 -1.14944 2.02215 0
M  V30 2879 C 269.478 -1.42167 0.92114 0
M  V30 2880 O 270.684 -1.41987 1.10634 0
M  V30 2881 H 267.059 -0.387841 0.64427 0
M  V30 2882 H 269.03 -0.743683 2.88984 0
M  V30 2883 C 267.779 -2.4647 2.4525 0
M  V30 2884 H 267.102 -2.26363 3.29545 0
M  V30 2885 H 268.542 -3.17948 2.80508 0
M  V30 2886 C 267.001 -3.09921 1.321 0
M  V30 2887 O 267.531 -3.9651 0.643622 0
M  V30 2888 N 265.737 -2.69986 1.07497 0
M  V30 2889 H 265.284 -1.99667 1.62761 0
M  V30 2890 H 265.242 -3.12769 0.319876 0
M  V30 2891 N 269.014 -1.53014 -0.377408 0
M  V30 2892 C 270.43 -1.42523 -0.718281 0
M  V30 2893 C 270.63 -0.55487 -1.9371 0
M  V30 2894 O 269.686 -0.0327593 -2.52479 0
M  V30 2895 C 270.999 -2.85546 -0.942539 0
M  V30 2896 C 272.547 -2.95101 -1.04329 0
M  V30 2897 C 273.022 -4.3916 -1.3001 0
M  V30 2898 N 274.513 -4.42536 -1.36806 0
M  V30 2899 C 275.248 -5.51097 -1.58364 0
M  V30 2900 N 274.744 -6.69724 -1.77317 0
M  V30 2901 N 276.537 -5.38657 -1.60638 0
M  V30 2902 H 268.688 -2.08116 0.424426 0
M  V30 2903 H 270.951 -0.939352 0.127759 0
M  V30 2904 H 270.657 -3.51499 -0.118929 0
M  V30 2905 H 270.531 -3.28493 -1.85397 0
M  V30 2906 H 272.918 -2.29309 -1.85745 0
M  V30 2907 H 272.999 -2.55566 -0.109505 0
M  V30 2908 H 272.643 -5.05521 -0.490991 0
M  V30 2909 H 272.573 -4.76258 -2.24691 0
M  V30 2910 H 275.064 -3.57039 -1.23821 0
M  V30 2911 H 275.377 -7.48233 -1.93306 0
M  V30 2912 H 273.722 -6.72732 -1.74518 0
M  V30 2913 H 276.913 -4.44948 -1.45391 0
M  V30 2914 H 277.086 -6.2333 -1.77098 0
M  V30 2915 N 270.492 0.636531 -1.44174 0
M  V30 2916 C 271.74 1.39343 -1.46383 0
M  V30 2917 C 272.061 1.94766 -0.0955715 0
M  V30 2918 O 271.331 1.75452 0.871395 0
M  V30 2919 H 269.911 0.517199 -0.538994 0
M  V30 2920 H 272.573 0.74957 -1.7991 0
M  V30 2921 H 271.669 2.22746 -2.18611 0
M  V30 2922 N 271.97 1.30982 0.876444 0
M  V30 2923 C 272.933 1.18054 1.96459 0
M  V30 2924 C 273.933 0.109399 1.60427 0
M  V30 2925 O 275.123 0.358173 1.70478 0
M  V30 2926 C 272.255 0.810616 3.31122 0
M  V30 2927 H 273.448 2.14735 2.09354 0
M  V30 2928 H 271.001 1.145 1.06392 0
M  V30 2929 H 271.736 -0.155322 3.23928 0
M  V30 2930 H 271.521 1.58481 3.58645 0
M  V30 2931 H 273.011 0.743876 4.10921 0
M  V30 2932 N 273.449 -1.08991 1.13837 0
M  V30 2933 C 274.674 -1.85551 0.926585 0
M  V30 2934 C 275.099 -1.80782 -0.519566 0
M  V30 2935 O 274.457 -1.18855 -1.36906 0
M  V30 2936 C 274.505 -3.31266 1.42462 0
M  V30 2937 O 273.609 -4.07822 0.612789 0
M  V30 2938 H 272.95 -0.575192 0.331738 0
M  V30 2939 H 275.48 -1.37604 1.51414 0
M  V30 2940 H 275.49 -3.82112 1.43019 0
M  V30 2941 H 274.165 -3.34052 2.47754 0
M  V30 2942 H 272.742 -3.66731 0.675463 0
M  V30 2943 N 274.927 -0.932562 -1.27047 0
M  V30 2944 C 275.859 -0.392734 -2.2581 0
M  V30 2945 C 276.872 0.479241 -1.55586 0
M  V30 2946 O 278.061 0.291078 -1.76111 0
M  V30 2947 C 275.161 0.455456 -3.35826 0
M  V30 2948 C 274.334 -0.398355 -4.35582 0
M  V30 2949 C 273.393 0.387985 -5.24768 0
M  V30 2950 O 272.419 -0.206003 -5.68827 0
M  V30 2951 N 273.621 1.68664 -5.55457 0
M  V30 2952 H 276.386 -1.24173 -2.72766 0
M  V30 2953 H 273.947 -0.800511 -1.40725 0
M  V30 2954 H 275.939 0.988692 -3.92437 0
M  V30 2955 H 274.509 1.20522 -2.88432 0
M  V30 2956 H 273.729 -1.11286 -3.78165 0
M  V30 2957 H 275.017 -0.981889 -4.99236 0
M  V30 2958 H 274.415 2.19147 -5.21528 0
M  V30 2959 H 272.972 2.1663 -6.14748 0
M  V30 2960 N 276.405 1.4127 -0.698611 0
M  V30 2961 C 277.368 2.29158 -0.044132 0
M  V30 2962 C 278.368 1.44529 0.704841 0
M  V30 2963 O 279.558 1.65643 0.539276 0
M  V30 2964 C 276.69 3.27459 0.947809 0
M  V30 2965 H 277.883 2.88529 -0.817994 0
M  V30 2966 H 275.436 1.49307 -0.46228 0
M  V30 2967 H 276.171 2.73073 1.74933 0
M  V30 2968 H 275.956 3.8991 0.41385 0
M  V30 2969 H 277.446 3.93311 1.40344 0
M  V30 2970 N 277.883 0.443576 1.51229 0
M  V30 2971 C 279.131 -0.120557 2.0174 0
M  V30 2972 C 279.452 -1.42665 1.32935 0
M  V30 2973 O 278.722 -1.9028 0.465866 0
M  V30 2974 H 277.302 -0.0475426 0.745486 0
M  V30 2975 H 279.964 0.587711 1.85828 0
M  V30 2976 H 279.06 -0.291972 3.10731 0
M  V30 2977 N 279.361 -1.56624 0.175154 0
M  V30 2978 C 280.294 -2.14 -0.792412 0
M  V30 2979 C 281.272 -1.07114 -1.22333 0
M  V30 2980 O 282.456 -1.35112 -1.31442 0
M  V30 2981 C 279.583 -2.68268 -2.0676 0
M  V30 2982 C 278.629 -3.87562 -1.7804 0
M  V30 2983 S 279.462 -5.27074 -0.946222 0
M  V30 2984 C 280.618 -5.8475 -2.23199 0
M  V30 2985 H 280.851 -2.95736 -0.304588 0
M  V30 2986 H 278.384 -1.54349 -0.0395705 0
M  V30 2987 H 280.342 -3.00182 -2.80002 0
M  V30 2988 H 279.003 -1.86612 -2.52656 0
M  V30 2989 H 278.196 -4.23874 -2.72666 0
M  V30 2990 H 277.798 -3.56555 -1.12891 0
M  V30 2991 H 280.09 -5.97898 -3.18629 0
M  V30 2992 H 281.033 -6.81756 -1.91349 0
M  V30 2993 H 281.441 -5.13198 -2.35134 0
M  V30 2994 N 280.839 0.0985539 -1.57292 0
M  V30 2995 C 282.067 0.816318 -1.90115 0
M  V30 2996 C 282.482 1.72451 -0.768509 0
M  V30 2997 O 281.839 1.80643 0.259687 0
M  V30 2998 C 281.89 1.63259 -3.22535 0
M  V30 2999 O 281.611 0.760934 -4.31441 0
M  V30 3000 C 283.112 2.45372 -3.69199 0
M  V30 3001 H 280.332 0.233595 -0.629027 0
M  V30 3002 H 282.876 0.0768229 -2.04356 0
M  V30 3003 H 281.031 2.32463 -3.09903 0
M  V30 3004 H 281.445 1.32595 -5.07463 0
M  V30 3005 H 282.919 2.98144 -4.64558 0
M  V30 3006 H 283.396 3.23677 -2.96867 0
M  V30 3007 H 284.002 1.81373 -3.84687 0
M  V30 3008 N 282.317 1.53212 0.369288 0
M  V30 3009 C 283.565 1.68881 1.11012 0
M  V30 3010 C 283.886 0.441285 1.89941 0
M  V30 3011 O 283.156 -0.544623 1.88177 0
M  V30 3012 H 281.736 0.622569 0.412816 0
M  V30 3013 H 284.398 1.90391 0.416802 0
M  V30 3014 H 283.494 2.54822 1.80201 0
M  V30 3015 N 283.795 -0.628877 1.44509 0
M  V30 3016 C 285.025 -1.41349 1.50678 0
M  V30 3017 C 285.433 -1.88745 0.131075 0
M  V30 3018 O 284.776 -1.61592 -0.87371 0
M  V30 3019 C 284.838 -2.66608 2.41165 0
M  V30 3020 C 284.502 -2.40993 3.88293 0
M  V30 3021 C 285.499 -2.0268 4.78766 0
M  V30 3022 C 283.184 -2.54563 4.33016 0
M  V30 3023 C 285.178 -1.78269 6.11963 0
M  V30 3024 C 282.865 -2.29766 5.6626 0
M  V30 3025 C 283.863 -1.91678 6.55552 0
M  V30 3026 O 283.551 -1.67158 7.86329 0
M  V30 3027 H 283.283 -0.439851 0.51333 0
M  V30 3028 H 285.837 -0.776084 1.90174 0
M  V30 3029 H 284.067 -3.32994 1.96601 0
M  V30 3030 H 285.756 -3.28615 2.38259 0
M  V30 3031 H 286.522 -1.91751 4.45485 0
M  V30 3032 H 282.401 -2.83179 3.63773 0
M  V30 3033 H 285.945 -1.48465 6.81619 0
M  V30 3034 H 281.842 -2.40306 5.99102 0
M  V30 3035 H 282.61 -1.81386 7.98149 0
M  V30 3036 N 285.273 -1.31445 -0.869486 0
M  V30 3037 C 286.521 -1.20918 -1.61936 0
M  V30 3038 C 286.842 0.232683 -1.93607 0
M  V30 3039 O 286.112 1.15352 -1.58338 0
M  V30 3040 H 284.692 -0.44454 -0.600328 0
M  V30 3041 H 287.354 -1.64776 -1.0409 0
M  V30 3042 H 286.45 -1.78124 -2.56278 0
M  V30 3043 N 286.751 1.08385 -1.14413 0
M  V30 3044 C 288.167 1.32844 -0.884563 0
M  V30 3045 C 288.367 1.95841 0.474181 0
M  V30 3046 O 287.423 2.21158 1.21842 0
M  V30 3047 C 288.736 2.22978 -2.01745 0
M  V30 3048 C 290.284 2.36458 -2.05077 0
M  V30 3049 C 290.759 3.29934 -3.1766 0
M  V30 3050 N 292.25 3.37511 -3.17239 0
M  V30 3051 C 292.985 4.09871 -4.0099 0
M  V30 3052 N 292.481 4.84936 -4.94781 0
M  V30 3053 N 294.274 4.05704 -3.89051 0
M  V30 3054 H 286.425 0.658756 -2.01926 0
M  V30 3055 H 288.688 0.352821 -0.879899 0
M  V30 3056 H 288.394 1.83934 -2.99769 0
M  V30 3057 H 288.268 3.23441 -1.94077 0
M  V30 3058 H 290.655 2.7476 -1.0766 0
M  V30 3059 H 290.736 1.35736 -2.16816 0
M  V30 3060 H 290.38 2.92352 -4.15322 0
M  V30 3061 H 290.31 4.30584 -3.03158 0
M  V30 3062 H 292.801 2.83996 -2.49308 0
M  V30 3063 H 293.114 5.37612 -5.55151 0
M  V30 3064 H 291.459 4.83988 -4.98779 0
M  V30 3065 H 294.65 3.46167 -3.15097 0
M  V30 3066 H 294.823 4.61834 -4.54547 0
M  V30 3067 N 288.23 0.939286 1.26551 0
M  V30 3068 C 289.641 0.628782 1.75793 0
M  V30 3069 C 289.992 -0.856046 1.7654 0
M  V30 3070 O 289.117 -1.66994 1.3763 0
M  V30 3071 C 289.712 1.13465 3.19235 0
M  V30 3072 C 288.271 0.874601 3.66098 0
M  V30 3073 C 287.418 1.28667 2.45642 0
M  V30 3074 H 290.369 1.1178 1.12654 0
M  V30 3075 H 290.39 0.487609 3.77363 0
M  V30 3076 H 289.902 2.21535 3.1866 0
M  V30 3077 H 288.003 -0.191793 3.72106 0
M  V30 3078 H 288.116 1.50028 4.55004 0
M  V30 3079 H 286.48 0.705109 2.44745 0
M  V30 3080 H 287.263 2.37625 2.47769 0
M  V30 3081 N 289.708 -1.40897 0.706093 0
M  V30 3082 C 291.124 -1.55042 0.37869 0
M  V30 3083 C 291.324 -1.67944 -1.11342 0
M  V30 3084 O 290.38 -1.66372 -1.89938 0
M  V30 3085 C 291.693 -2.78398 1.13643 0
M  V30 3086 C 293.241 -2.92206 1.12181 0
M  V30 3087 C 293.716 -4.18463 1.86152 0
M  V30 3088 N 295.207 -4.25443 1.83173 0
M  V30 3089 C 295.942 -5.2202 2.37239 0
M  V30 3090 N 295.438 -6.24563 2.99821 0
M  V30 3091 N 297.231 -5.14033 2.27435 0
M  V30 3092 H 289.382 -1.30769 1.67372 0
M  V30 3093 H 291.645 -0.631653 0.706907 0
M  V30 3094 H 291.351 -2.7511 2.19106 0
M  V30 3095 H 291.225 -3.70228 0.721853 0
M  V30 3096 H 293.612 -2.95004 0.0754171 0
M  V30 3097 H 293.693 -2.01521 1.57554 0
M  V30 3098 H 293.337 -4.16427 2.90776 0
M  V30 3099 H 293.267 -5.08141 1.38206 0
M  V30 3100 H 295.758 -3.51976 1.37556 0
M  V30 3101 H 296.071 -6.94665 3.38616 0
M  V30 3102 H 294.416 -6.25035 3.03902 0
M  V30 3103 H 297.607 -4.3285 1.78208 0
M  V30 3104 H 297.78 -5.89129 2.69873 0
M  V30 3105 N 291.186 -0.45159 -1.50991 0
M  V30 3106 C 292.118 0.388634 -2.25881 0
M  V30 3107 C 293.131 0.974041 -1.30446 0
M  V30 3108 O 294.32 0.865758 -1.56099 0
M  V30 3109 C 291.42 1.5571 -3.01011 0
M  V30 3110 C 290.593 1.08801 -4.23652 0
M  V30 3111 C 289.652 2.12825 -4.8124 0
M  V30 3112 O 288.678 1.71678 -5.42693 0
M  V30 3113 N 289.88 3.45453 -4.66522 0
M  V30 3114 H 292.645 -0.25329 -2.98628 0
M  V30 3115 H 290.206 -0.281268 -1.59438 0
M  V30 3116 H 292.198 2.24952 -3.3642 0
M  V30 3117 H 290.768 2.10409 -2.31186 0
M  V30 3118 H 289.988 0.22215 -3.93574 0
M  V30 3119 H 291.276 0.752213 -5.03209 0
M  V30 3120 H 290.674 3.81605 -4.17605 0
M  V30 3121 H 289.231 4.10549 -5.06254 0
M  V30 3122 N 292.664 1.56529 -0.183458 0
M  V30 3123 C 293.913 1.96419 0.458511 0
M  V30 3124 C 294.226 1.0727 1.63562 0
M  V30 3125 O 295.432 1.36893 2.34462 0
M  V30 3126 C 293.888 3.49298 0.867122 0
M  V30 3127 C 293.496 4.47092 -0.285057 0
M  V30 3128 C 295.24 3.97983 1.47683 0
M  V30 3129 C 293.147 5.91225 0.143862 0
M  V30 3130 H 292.077 0.733394 0.175071 0
M  V30 3131 H 294.728 1.81448 -0.273624 0
M  V30 3132 H 293.11 3.59731 1.65559 0
M  V30 3133 H 294.284 4.48383 -1.0625 0
M  V30 3134 H 292.599 4.08535 -0.805503 0
M  V30 3135 H 295.196 5.03134 1.80999 0
M  V30 3136 H 295.539 3.41618 2.37914 0
M  V30 3137 H 296.072 3.90617 0.752562 0
M  V30 3138 H 292.811 6.5149 -0.723974 0
M  V30 3139 H 292.331 5.93214 0.886413 0
M  V30 3140 H 294.01 6.44362 0.583628 0
M  V30 3141 N 294.142 -0.090211 1.57342 0
M  V30 3142 C 295.391 -0.791531 1.8552 0
M  V30 3143 C 295.704 -1.79659 0.773441 0
M  V30 3144 O 296.91 -2.54616 0.942497 0
M  V30 3145 C 295.366 -1.45856 3.2902 0
M  V30 3146 C 294.974 -0.493017 4.45279 0
M  V30 3147 C 296.718 -2.14332 3.66418 0
M  V30 3148 C 294.625 -1.16491 5.79814 0
M  V30 3149 H 293.555 -0.299356 0.692027 0
M  V30 3150 H 296.206 -0.0445343 1.83446 0
M  V30 3151 H 294.588 -2.25318 3.2565 0
M  V30 3152 H 295.762 0.270464 4.60006 0
M  V30 3153 H 294.077 0.0863061 4.16311 0
M  V30 3154 H 296.674 -2.65344 4.64216 0
M  V30 3155 H 297.017 -2.93447 2.95287 0
M  V30 3156 H 297.55 -1.41724 3.71698 0
M  V30 3157 H 294.289 -0.41447 6.54188 0
M  V30 3158 H 293.809 -1.8997 5.68921 0
M  V30 3159 H 295.488 -1.69001 6.24538 0
M  V30 3160 N 295.62 -1.53406 -0.361157 0
M  V30 3161 C 296.845 -1.74024 -1.12829 0
M  V30 3162 C 297.27 -0.470069 -1.82132 0
M  V30 3163 O 296.628 0.57619 -1.719 0
M  V30 3164 C 296.676 -2.90903 -2.13091 0
M  V30 3165 O 295.78 -2.59821 -3.20261 0
M  V30 3166 H 295.121 -0.577804 -0.327168 0
M  V30 3167 H 297.651 -2.00307 -0.41693 0
M  V30 3168 H 297.661 -3.17194 -2.56616 0
M  V30 3169 H 296.336 -3.83034 -1.62042 0
M  V30 3170 H 294.913 -2.44362 -2.81677 0
M  V30 3171 O 297.137 0.507134 -1.53331 0
M  V30 3172 H 297.828 1.16207 -1.5497 0
M  V30 END ATOM
M  V30 BEGIN BOND
M  V30 END BOND
M  V30 END CTAB
M  END
$$$$
