drugbank_target|Q99436 Proteasome subunit beta type-7 (DB08515)
 OpenBabel12092120433D

  0  0  0     0  0            999 V3000
M  V30 BEGIN CTAB
M  V30 COUNTS 4220 4255 0 0 0
M  V30 BEGIN ATOM
M  V30 1 H -0.908 1.98254 -0.117106 0
M  V30 2 N 0 1.576 0 0
M  V30 3 C 0.933 2.03868 1.02534 0
M  V30 4 C 1.911 0.928543 1.3348 0
M  V30 5 O 3.095 1.19667 1.45644 0
M  V30 6 C 0.222 2.43627 2.35294 0
M  V30 7 C -0.732 3.65373 2.2001 0
M  V30 8 S 0.101 5.13292 1.52614 0
M  V30 9 C 1.257 5.56322 2.86805 0
M  V30 10 H 1.49 2.90518 0.631377 0
M  V30 11 H -0.977 1.52953 0.210867 0
M  V30 12 H 0.981 2.67203 3.11629 0
M  V30 13 H -0.358 1.57376 2.7183 0
M  V30 14 H -1.165 3.90944 3.18086 0
M  V30 15 H -1.563 3.418 1.51819 0
M  V30 16 H 0.729 5.58782 3.83104 0
M  V30 17 H 1.672 6.56266 2.65933 0
M  V30 18 H 2.08 4.83886 2.90714 0
M  V30 19 N 1.4781 -0.272755 1.55222 0
M  V30 20 C 2.4411 -1.32041 1.87344 0
M  V30 21 C 3.4411 -1.42342 0.74803 0
M  V30 22 O 4.6311 -1.41488 1.0162 0
M  V30 23 C 1.7631 -2.70173 2.07893 0
M  V30 24 H 2.9561 -1.04789 2.80997 0
M  V30 25 H 0.5091 -0.51083 1.47717 0
M  V30 26 H 1.2441 -3.02605 1.16622 0
M  V30 27 H 1.0291 -2.64082 2.89833 0
M  V30 28 H 2.5191 -3.45869 2.34017 0
M  V30 29 N 2.9562 -1.48159 -0.537278 0
M  V30 30 C 3.9192 -1.61665 -1.62472 0
M  V30 31 C 4.9192 -0.490395 -1.5314 0
M  V30 32 O 6.1092 -0.755998 -1.5694 0
M  V30 33 C 3.2412 -1.57997 -3.02076 0
M  V30 34 H 4.4342 -2.58621 -1.51839 0
M  V30 35 H 1.9872 -1.36647 -0.758771 0
M  V30 36 H 2.7222 -0.624913 -3.18222 0
M  V30 37 H 2.5072 -2.39755 -3.10258 0
M  V30 38 H 3.9972 -1.70627 -3.81151 0
M  V30 39 N 4.4343 0.785586 -1.36625 0
M  V30 40 C 5.6803 1.54591 -1.31261 0
M  V30 41 C 6.0133 1.93906 0.106823 0
M  V30 42 O 5.2883 1.63007 1.06108 0
M  V30 43 C 5.5713 2.82038 -2.23889 0
M  V30 44 C 5.4243 2.49066 -3.74548 0
M  V30 45 C 6.7433 3.83887 -2.15217 0
M  V30 46 H 3.8623 0.560846 -0.478143 0
M  V30 47 H 6.5043 0.902278 -1.67209 0
M  V30 48 H 4.6543 3.36961 -1.93363 0
M  V30 49 H 6.3263 2.00164 -4.15611 0
M  V30 50 H 4.5693 1.81954 -3.93796 0
M  V30 51 H 5.2403 3.40109 -4.34776 0
M  V30 52 H 7.7163 3.38421 -2.42096 0
M  V30 53 H 6.5923 4.70806 -2.82193 0
M  V30 54 H 6.8533 4.27131 -1.14068 0
M  V30 55 N 5.9124 1.20967 1.01018 0
M  V30 56 C 7.1374 1.0503 1.78839 0
M  V30 57 C 7.5624 -0.395752 1.8389 0
M  V30 58 O 6.9204 -1.28529 1.27867 0
M  V30 59 C 6.9684 1.64602 3.2084 0
M  V30 60 O 6.0724 0.887988 4.02726 0
M  V30 61 H 5.4134 0.369987 0.551367 0
M  V30 62 H 7.9434 1.60399 1.27018 0
M  V30 63 H 7.9534 1.68607 3.71532 0
M  V30 64 H 6.6284 2.69841 3.16479 0
M  V30 65 H 5.2054 0.922648 3.61305 0
M  V30 66 N 7.3905 -1.2043 1.01659 0
M  V30 67 C 8.6365 -1.90079 0.706963 0
M  V30 68 C 8.9695 -1.78648 -0.761474 0
M  V30 69 O 8.2445 -1.17069 -1.55323 0
M  V30 70 C 8.5275 -3.41469 1.14327 0
M  V30 71 C 8.3805 -3.61833 2.67201 0
M  V30 72 C 9.6995 -4.34261 0.714529 0
M  V30 73 H 6.8185 -0.690254 0.2583 0
M  V30 74 H 9.4605 -1.41826 1.26433 0
M  V30 75 H 7.6105 -3.82696 0.669056 0
M  V30 76 H 9.2825 -3.2986 3.22475 0
M  V30 77 H 7.5255 -3.05304 3.08175 0
M  V30 78 H 8.1965 -4.67955 2.92783 0
M  V30 79 H 10.6725 -4.00682 1.12221 0
M  V30 80 H 9.5485 -5.38806 1.04784 0
M  V30 81 H 9.8095 -4.40431 -0.383799 0
M  V30 82 N 8.8686 -0.792821 -1.36206 0
M  V30 83 C 10.0986 -0.378275 -2.03107 0
M  V30 84 C 10.5066 1.01119 -1.59911 0
M  V30 85 O 9.8496 1.66052 -0.785658 0
M  V30 86 C 9.9116 -0.366535 -3.57627 0
M  V30 87 C 9.5756 -1.70416 -4.24037 0
M  V30 88 C 10.5726 -2.6602 -4.46687 0
M  V30 89 C 8.2576 -1.98439 -4.6144 0
M  V30 90 C 10.2516 -3.8784 -5.05825 0
M  V30 91 C 7.9386 -3.20525 -5.20295 0
M  V30 92 C 8.9366 -4.15044 -5.42427 0
M  V30 93 O 8.6246 -5.34978 -6.00045 0
M  V30 94 H 8.3566 -0.153543 -0.658332 0
M  V30 95 H 10.9106 -1.07383 -1.75094 0
M  V30 96 H 9.1406 0.385539 -3.84773 0
M  V30 97 H 10.8296 0.0238088 -4.05893 0
M  V30 98 H 11.5956 -2.45658 -4.18183 0
M  V30 99 H 7.4746 -1.25686 -4.43536 0
M  V30 100 H 11.0186 -4.61628 -5.23015 0
M  V30 101 H 6.9156 -3.40764 -5.48225 0
M  V30 102 H 7.6836 -5.36088 -6.18508 0
M  V30 103 N 10.3467 1.47872 -0.545128 0
M  V30 104 C 11.3097 2.28337 0.198717 0
M  V30 105 C 12.3097 1.36255 0.853888 0
M  V30 106 O 13.4997 1.59003 0.711606 0
M  V30 107 C 10.6317 3.15585 1.28915 0
M  V30 108 H 11.8247 2.95567 -0.507941 0
M  V30 109 H 9.3777 1.53362 -0.301616 0
M  V30 110 H 10.1127 2.53019 2.02859 0
M  V30 111 H 9.8977 3.83337 0.824309 0
M  V30 112 H 11.3877 3.76243 1.81194 0
M  V30 113 N 11.8248 0.280983 1.55075 0
M  V30 114 C 13.2358 -0.215629 1.85451 0
M  V30 115 C 13.5868 -1.54991 1.203 0
M  V30 116 O 12.7118 -2.10699 0.493435 0
M  V30 117 C 13.3068 -0.398026 3.36454 0
M  V30 118 C 11.8658 -0.838866 3.66933 0
M  V30 119 C 11.0128 0.064458 2.77225 0
M  V30 120 H 13.9638 0.502601 1.50531 0
M  V30 121 H 13.9848 -1.23569 3.59876 0
M  V30 122 H 13.4968 0.573241 3.83843 0
M  V30 123 H 11.5978 -1.8214 3.25048 0
M  V30 124 H 11.7108 -0.672123 4.74362 0
M  V30 125 H 10.0748 -0.452863 2.50642 0
M  V30 126 H 10.8578 1.03172 3.2743 0
M  V30 127 N 13.3029 -1.57598 0.00835791 0
M  V30 128 C 14.7139 -1.7892 -0.53333 0
M  V30 129 C 15.0649 -0.916609 -1.73473 0
M  V30 130 O 14.1899 -0.121336 -2.1606 0
M  V30 131 C 14.7849 -3.24488 -0.974313 0
M  V30 132 C 13.3439 -3.46878 -1.46125 0
M  V30 133 C 12.4909 -2.74157 -0.416302 0
M  V30 134 H 15.4419 -1.56958 0.234495 0
M  V30 135 H 15.4629 -3.3306 -1.83988 0
M  V30 136 H 14.9749 -3.87972 -0.099718 0
M  V30 137 H 13.0759 -2.8862 -2.35646 0
M  V30 138 H 13.1889 -4.55572 -1.48295 0
M  V30 139 H 11.5529 -2.39022 -0.87981 0
M  V30 140 H 12.3359 -3.40345 0.44947 0
M  V30 141 N 14.781 0.264519 -1.55364 0
M  V30 142 C 16.027 0.99646 -1.76631 0
M  V30 143 C 16.36 1.85632 -0.570478 0
M  V30 144 O 15.635 1.89647 0.43175 0
M  V30 145 C 15.918 1.87187 -3.07625 0
M  V30 146 C 15.771 1.04138 -4.37579 0
M  V30 147 C 17.09 2.85749 -3.34717 0
M  V30 148 H 14.209 0.360841 -0.642622 0
M  V30 149 H 16.851 0.268218 -1.88097 0
M  V30 150 H 15.001 2.49279 -2.9798 0
M  V30 151 H 16.673 0.440517 -4.59192 0
M  V30 152 H 14.916 0.345115 -4.32425 0
M  V30 153 H 15.587 1.68729 -5.2558 0
M  V30 154 H 18.063 2.33793 -3.4421 0
M  V30 155 H 16.939 3.44136 -4.27623 0
M  V30 156 H 17.2 3.61311 -2.54768 0
M  V30 157 N 16.2591 1.48442 0.529413 0
M  V30 158 C 17.5071 1.56179 1.28267 0
M  V30 159 C 17.8281 0.237721 1.93546 0
M  V30 160 O 17.0981 -0.740779 1.81354 0
M  V30 161 H 15.6781 0.575367 0.476405 0
M  V30 162 H 18.3401 1.84909 0.61602 0
M  V30 163 H 17.4361 2.34312 2.06165 0
M  V30 164 N 17.7372 -0.778329 1.37039 0
M  V30 165 C 18.9852 -1.53361 1.31623 0
M  V30 166 C 19.3062 -1.94739 -0.100831 0
M  V30 167 O 18.5762 -1.65797 -1.04347 0
M  V30 168 H 17.1562 -0.568794 0.484234 0
M  V30 169 H 19.8182 -0.926742 1.71457 0
M  V30 170 H 18.9142 -2.43606 1.95096 0
M  V30 171 N 19.2153 -1.21501 -1.00376 0
M  V30 172 C 20.4623 -1.03299 -1.74171 0
M  V30 173 C 20.7903 0.433326 -1.89612 0
M  V30 174 O 20.0453 1.33779 -1.42834 0
M  V30 175 C 20.3443 -1.67673 -3.15627 0
M  V30 176 C 20.0103 -3.17533 -3.2013 0
M  V30 177 C 18.6723 -3.58427 -3.21067 0
M  V30 178 C 21.0243 -4.13504 -3.17275 0
M  V30 179 C 18.3523 -4.93794 -3.16835 0
M  V30 180 C 20.7043 -5.48834 -3.14585 0
M  V30 181 C 19.3683 -5.89123 -3.13831 0
M  V30 182 H 18.6383 -0.377999 -0.637336 0
M  V30 183 H 21.2853 -1.51111 -1.17634 0
M  V30 184 H 19.5903 -1.12158 -3.75404 0
M  V30 185 H 21.2873 -1.51091 -3.71446 0
M  V30 186 H 17.8773 -2.84965 -3.20145 0
M  V30 187 H 22.0613 -3.82936 -3.15711 0
M  V30 188 H 17.3173 -5.24255 -3.1459 0
M  V30 189 H 21.4913 -6.22934 -3.1133 0
M  V30 190 H 19.1183 -6.93984 -3.10307 0
M  V30 191 N 20.6934 1.19889 -1.02296 0
M  V30 192 C 21.9184 1.9393 -0.735237 0
M  V30 193 C 22.3434 1.74639 0.698782 0
M  V30 194 O 21.7014 1.04481 1.48167 0
M  V30 195 C 21.7494 3.43916 -1.08417 0
M  V30 196 O 20.8534 4.11917 -0.199446 0
M  V30 197 H 20.1944 0.605645 -0.272196 0
M  V30 198 H 22.7244 1.52137 -1.36804 0
M  V30 199 H 22.7344 3.9456 -1.03856 0
M  V30 200 H 21.4094 3.5728 -2.12894 0
M  V30 201 H 19.9864 3.71666 -0.303136 0
M  V30 202 N 22.1715 0.800033 1.35784 0
M  V30 203 C 23.4185 0.377342 1.98953 0
M  V30 204 C 23.7465 -1.05378 1.6348 0
M  V30 205 O 23.0015 -1.74459 0.886707 0
M  V30 206 C 23.3005 0.500276 3.53881 0
M  V30 207 C 22.9665 1.89375 4.09204 0
M  V30 208 C 21.6285 2.27499 4.24025 0
M  V30 209 C 23.9805 2.8057 4.39238 0
M  V30 210 C 21.3085 3.562 4.66195 0
M  V30 211 C 23.6605 4.0871 4.82844 0
M  V30 212 C 22.3245 4.46843 4.95871 0
M  V30 213 H 21.5945 0.138079 0.728021 0
M  V30 214 H 24.2415 1.01955 1.62103 0
M  V30 215 H 22.5465 -0.225405 3.91151 0
M  V30 216 H 24.2435 0.154097 4.00704 0
M  V30 217 H 20.8335 1.58753 3.98115 0
M  V30 218 H 25.0175 2.52367 4.27346 0
M  V30 219 H 20.2735 3.85602 4.74469 0
M  V30 220 H 24.4475 4.79481 5.05046 0
M  V30 221 H 22.0745 5.46623 5.28306 0
M  V30 222 N 23.6496 -1.47581 0.552962 0
M  V30 223 C 24.9266 -1.95563 -0.0381515 0
M  V30 224 C 25.3066 -1.49552 -1.48988 0
M  V30 225 O 24.6546 -0.732414 -2.16444 0
M  V30 226 C 24.8646 -3.48848 0.102919 0
M  V30 227 C 26.2126 -4.24577 -0.0446082 0
M  V30 228 O 27.2366 -3.56187 0.0302548 0
M  V30 229 O 26.0956 -5.46116 -0.204923 0
M  V30 230 H 23.1896 -0.824321 -0.0665067 0
M  V30 231 H 25.7356 -1.58001 0.619186 0
M  V30 232 H 24.5076 -3.75129 1.11328 0
M  V30 233 H 24.1306 -3.93165 -0.592224 0
M  V30 234 N 25.1277 -0.289203 -1.54924 0
M  V30 235 C 26.0757 0.607966 -2.24514 0
M  V30 236 C 27.0697 1.14655 -1.24702 0
M  V30 237 O 28.2757 1.09856 -1.4259 0
M  V30 238 H 24.6507 0.21464 -0.720718 0
M  V30 239 H 26.6217 -0.00164182 -2.984 0
M  V30 240 C 25.3707 1.77406 -2.99036 0
M  V30 241 H 24.6937 1.36884 -3.75637 0
M  V30 242 H 26.1337 2.37814 -3.51028 0
M  V30 243 C 24.5927 2.67107 -2.05318 0
M  V30 244 O 25.1227 3.6787 -1.61353 0
M  V30 245 N 23.3287 2.34582 -1.71521 0
M  V30 246 H 22.8757 1.52688 -2.07471 0
M  V30 247 H 22.8337 2.94867 -1.0909 0
M  V30 248 N 26.6058 1.57591 -0.0167156 0
M  V30 249 C 27.8458 1.93145 0.668902 0
M  V30 250 C 28.2098 0.892406 1.7 0
M  V30 251 O 29.4108 1.13373 2.43721 0
M  V30 252 C 27.6818 3.33678 1.28039 0
M  V30 253 S 29.2408 3.91142 1.9888 0
M  V30 254 H 26.0588 0.67593 0.220545 0
M  V30 255 H 28.6608 1.95347 -0.0774105 0
M  V30 256 H 27.3648 4.07126 0.517339 0
M  V30 257 H 26.8958 3.3489 2.06427 0
M  V30 258 H 28.9108 3.73571 3.26587 0
M  V30 259 N 28.0839 -0.256276 1.55502 0
M  V30 260 C 29.4999 -0.604325 1.47716 0
M  V30 261 C 29.6999 -1.88763 0.705039 0
M  V30 262 O 28.7559 -2.51445 0.230613 0
M  V30 263 C 30.0689 -0.715756 2.92057 0
M  V30 264 C 31.6169 -0.808706 3.02372 0
M  V30 265 C 32.0919 -0.951777 4.48001 0
M  V30 266 N 33.5829 -1.01688 4.519 0
M  V30 267 C 34.3179 -1.14668 5.61817 0
M  V30 268 N 33.8139 -1.24261 6.81565 0
M  V30 269 N 35.6069 -1.1791 5.49594 0
M  V30 270 H 27.7579 0.586291 2.04148 0
M  V30 271 H 30.0209 0.201015 0.926443 0
M  V30 272 H 29.7269 0.157027 3.51349 0
M  V30 273 H 29.6009 -1.59071 3.42018 0
M  V30 274 H 31.9879 -1.67195 2.43166 0
M  V30 275 H 32.0689 0.0912063 2.55637 0
M  V30 276 H 31.7129 -0.0931291 5.07815 0
M  V30 277 H 31.6429 -1.86659 4.92408 0
M  V30 278 H 34.1339 -0.954468 3.65648 0
M  V30 279 H 34.4469 -1.34046 7.61086 0
M  V30 280 H 32.7919 -1.21236 6.84344 0
M  V30 281 H 35.9829 -1.10057 4.54978 0
M  V30 282 H 36.1559 -1.27681 6.35296 0
M  V30 283 N 29.562 -1.4872 -0.521534 0
M  V30 284 C 30.978 -1.35028 -0.850855 0
M  V30 285 C 31.178 -0.367712 -1.98116 0
M  V30 286 O 30.234 0.208037 -2.51642 0
M  V30 287 C 31.547 -2.75263 -1.21041 0
M  V30 288 C 33.095 -2.83813 -1.31981 0
M  V30 289 C 33.57 -4.24769 -1.71276 0
M  V30 290 N 35.061 -4.27482 -1.78363 0
M  V30 291 C 35.796 -5.33494 -2.1017 0
M  V30 292 N 35.292 -6.49775 -2.40343 0
M  V30 293 N 37.085 -5.20894 -2.11248 0
M  V30 294 H 29.236 -2.11214 0.22413 0
M  V30 295 H 31.499 -0.947252 0.0376439 0
M  V30 296 H 31.205 -3.48765 -0.453415 0
M  V30 297 H 31.079 -3.09327 -2.15863 0
M  V30 298 H 33.466 -2.10561 -2.06756 0
M  V30 299 H 33.547 -2.53358 -0.352596 0
M  V30 300 H 33.191 -4.9854 -0.970588 0
M  V30 301 H 33.121 -4.52673 -2.69062 0
M  V30 302 H 35.612 -3.43611 -1.57288 0
M  V30 303 H 35.925 -7.26402 -2.63743 0
M  V30 304 H 34.27 -6.53035 -2.37844 0
M  V30 305 H 37.461 -4.29065 -1.87139 0
M  V30 306 H 37.634 -6.03612 -2.35704 0
M  V30 307 N 31.0401 0.771051 -1.3745 0
M  V30 308 C 31.9881 1.90574 -1.33358 0
M  V30 309 C 32.9821 1.67936 -0.22224 0
M  V30 310 O 34.1881 1.75717 -0.390304 0
M  V30 311 H 30.5631 0.626714 -0.415612 0
M  V30 312 H 32.5341 1.91142 -2.29144 0
M  V30 313 C 31.2831 3.27845 -1.15813 0
M  V30 314 H 30.6061 3.45842 -2.00583 0
M  V30 315 H 32.0461 4.07538 -1.17 0
M  V30 316 C 30.5051 3.36625 0.136165 0
M  V30 317 O 31.0351 3.85785 1.11949 0
M  V30 318 N 29.2411 2.89997 0.187099 0
M  V30 319 H 28.7881 2.50182 -0.613753 0
M  V30 320 H 28.7461 2.96252 1.05272 0
M  V30 321 N 32.5182 1.22032 0.997298 0
M  V30 322 C 33.4812 0.987909 2.06816 0
M  V30 323 C 34.4812 -0.0440084 1.6074 0
M  V30 324 O 35.6712 0.194053 1.73116 0
M  V30 325 C 32.8032 0.49132 3.37341 0
M  V30 326 H 33.9962 1.93803 2.28868 0
M  V30 327 H 31.5492 1.03838 1.16822 0
M  V30 328 H 32.2842 -0.463364 3.20973 0
M  V30 329 H 32.0692 1.23575 3.72118 0
M  V30 330 H 33.5592 0.348824 4.16141 0
M  V30 331 N 33.9963 -1.19345 1.0293 0
M  V30 332 C 35.2423 -1.89318 0.727083 0
M  V30 333 C 35.5753 -1.79446 -0.742483 0
M  V30 334 O 34.8503 -1.1871 -1.54072 0
M  V30 335 C 35.1333 -3.40238 1.17942 0
M  V30 336 C 34.9863 -3.58979 2.71024 0
M  V30 337 C 36.3053 -4.33479 0.760548 0
M  V30 338 H 33.4243 -0.687475 0.265606 0
M  V30 339 H 36.0663 -1.40477 1.2793 0
M  V30 340 H 34.2163 -3.81964 0.709608 0
M  V30 341 H 35.8883 -3.26421 3.25955 0
M  V30 342 H 34.1313 -3.02018 3.11396 0
M  V30 343 H 34.8023 -4.64823 2.9773 0
M  V30 344 H 37.2783 -3.99469 1.16464 0
M  V30 345 H 36.1543 -5.37664 1.10493 0
M  V30 346 H 36.4153 -4.40813 -0.337063 0
M  V30 347 N 35.4744 -0.807222 -1.35358 0
M  V30 348 C 36.4044 -0.232509 -2.3234 0
M  V30 349 C 37.3854 0.642386 -1.57504 0
M  V30 350 O 38.5704 0.572526 -1.85569 0
M  V30 351 C 35.7004 0.619238 -3.41735 0
M  V30 352 C 34.6544 -0.157215 -4.27711 0
M  V30 353 C 33.9804 0.816273 -5.28433 0
M  V30 354 C 35.2804 -1.35656 -5.04376 0
M  V30 355 H 36.9744 -1.04276 -2.80654 0
M  V30 356 H 34.5204 -0.50288 -1.34934 0
M  V30 357 H 36.4734 1.03137 -4.08584 0
M  V30 358 H 35.1974 1.46239 -2.92031 0
M  V30 359 H 33.8564 -0.550525 -3.62443 0
M  V30 360 H 33.5044 1.65494 -4.74996 0
M  V30 361 H 33.2044 0.301067 -5.86828 0
M  V30 362 H 34.7284 1.22659 -5.98153 0
M  V30 363 H 36.1424 -1.01927 -5.64166 0
M  V30 364 H 34.5394 -1.8063 -5.7227 0
M  V30 365 H 35.6094 -2.14288 -4.34981 0
M  V30 366 N 36.9525 1.47285 -0.560781 0
M  V30 367 C 37.8625 2.33846 0.187954 0
M  V30 368 C 38.8785 1.48412 0.908293 0
M  V30 369 O 40.0545 1.81332 0.876388 0
M  V30 370 C 37.1195 3.25178 1.2025 0
M  V30 371 C 36.1805 4.26504 0.489208 0
M  V30 372 C 35.4135 5.13472 1.45542 0
M  V30 373 O 35.6365 5.02959 2.6905 0
M  V30 374 O 34.5705 5.93902 0.977963 0
M  V30 375 H 38.3965 2.99177 -0.522177 0
M  V30 376 H 35.9815 1.45903 -0.321364 0
M  V30 377 H 37.8635 3.81584 1.78805 0
M  V30 378 H 36.5385 2.6247 1.89449 0
M  V30 379 H 35.4455 3.73847 -0.137627 0
M  V30 380 H 36.7785 4.91935 -0.161399 0
M  V30 381 N 38.4306 0.297415 1.54768 0
M  V30 382 C 39.3936 -0.567375 2.22066 0
M  V30 383 C 40.3936 -1.06409 1.20556 0
M  V30 384 O 41.5836 -0.960691 1.45315 0
M  V30 385 C 38.7156 -1.78517 2.90421 0
M  V30 386 H 39.9086 0.0205534 2.99893 0
M  V30 387 H 37.4616 0.0482163 1.56226 0
M  V30 388 H 38.1966 -2.41303 2.16664 0
M  V30 389 H 37.9816 -1.43669 3.64831 0
M  V30 390 H 39.4716 -2.39964 3.41771 0
M  V30 391 N 39.9087 -1.5758 0.0250728 0
M  V30 392 C 41.1857 -1.82917 -0.692873 0
M  V30 393 C 41.5657 -0.908137 -1.90568 0
M  V30 394 O 40.9137 0.0372298 -2.2847 0
M  V30 395 C 41.1237 -3.32034 -1.07492 0
M  V30 396 C 42.4717 -3.98406 -1.46826 0
M  V30 397 O 43.4957 -3.36505 -1.16801 0
M  V30 398 O 42.3547 -5.07497 -2.02754 0
M  V30 399 H 39.4487 -0.754079 -0.33955 0
M  V30 400 H 41.9947 -1.69619 0.0524456 0
M  V30 401 H 40.7667 -3.90728 -0.211552 0
M  V30 402 H 40.3897 -3.50424 -1.87854 0
M  V30 403 N 41.3868 0.248026 -1.55636 0
M  V30 404 C 42.6338 0.976224 -1.77415 0
M  V30 405 C 42.9618 1.85361 -0.589193 0
M  V30 406 O 42.2168 1.90973 0.427529 0
M  V30 407 C 42.5158 1.86819 -3.04686 0
M  V30 408 C 42.1818 1.14625 -4.36087 0
M  V30 409 C 40.8438 0.946723 -4.71795 0
M  V30 410 C 43.1958 0.634463 -5.17324 0
M  V30 411 C 40.5238 0.223091 -5.86276 0
M  V30 412 C 42.8758 -0.0756959 -6.32555 0
M  V30 413 C 41.5398 -0.286711 -6.66884 0
M  V30 414 H 40.8098 0.357226 -0.649208 0
M  V30 415 H 43.4568 0.246415 -1.89908 0
M  V30 416 H 41.7618 2.66502 -2.872 0
M  V30 417 H 43.4588 2.43329 -3.18735 0
M  V30 418 H 40.0488 1.3117 -4.08035 0
M  V30 419 H 44.2328 0.77616 -4.90193 0
M  V30 420 H 39.4888 0.0491185 -6.1138 0
M  V30 421 H 43.6628 -0.479899 -6.94745 0
M  V30 422 H 41.2898 -0.849389 -7.5544 0
M  V30 423 N 42.8649 1.48995 0.513639 0
M  V30 424 C 43.8279 1.64229 1.59879 0
M  V30 425 C 44.8279 0.514696 1.5234 0
M  V30 426 O 46.0179 0.78087 1.55718 0
M  V30 427 C 43.1499 1.62783 2.99524 0
M  V30 428 H 44.3429 2.61004 1.47705 0
M  V30 429 H 41.8959 1.37837 0.736936 0
M  V30 430 H 42.6309 0.675461 3.17188 0
M  V30 431 H 42.4159 2.4466 3.06404 0
M  V30 432 H 43.9059 1.76669 3.78388 0
M  V30 433 N 44.343 -0.763751 1.37857 0
M  V30 434 C 45.29 -1.87726 1.34267 0
M  V30 435 C 46.26 -1.64807 0.206879 0
M  V30 436 O 47.445 -1.86613 0.397508 0
M  V30 437 C 44.585 -3.24896 1.16346 0
M  V30 438 C 43.698 -3.59716 2.39225 0
M  V30 439 C 42.833 -4.86137 2.14114 0
M  V30 440 C 41.872 -5.13711 3.32817 0
M  V30 441 N 41.009 -6.31323 3.07206 0
M  V30 442 H 45.849 -1.90129 2.29466 0
M  V30 443 H 43.386 -0.929433 1.14017 0
M  V30 444 H 45.344 -4.04036 1.03975 0
M  V30 445 H 43.974 -3.21847 0.247909 0
M  V30 446 H 43.026 -2.75498 2.62307 0
M  V30 447 H 44.338 -3.76027 3.27728 0
M  V30 448 H 43.492 -5.73198 1.9882 0
M  V30 449 H 42.231 -4.71945 1.22961 0
M  V30 450 H 41.236 -4.25123 3.48641 0
M  V30 451 H 42.461 -5.29807 4.24832 0
M  V30 452 H 40.407 -6.18474 2.1869 0
M  V30 453 H 40.324 -6.48087 3.89254 0
M  V30 454 H 41.592 -7.213 2.95546 0
M  V30 455 N 45.8211 -1.22559 -0.990812 0
M  V30 456 C 47.2371 -0.985996 -1.255 0
M  V30 457 C 47.4371 0.319173 -1.98956 0
M  V30 458 O 46.4931 1.04127 -2.3003 0
M  V30 459 C 47.8061 -2.18607 -2.06474 0
M  V30 460 C 49.3541 -2.22985 -2.19651 0
M  V30 461 C 49.8291 -3.4255 -3.04012 0
M  V30 462 N 51.3201 -3.42725 -3.11599 0
M  V30 463 C 52.0551 -4.31892 -3.7717 0
M  V30 464 N 51.5511 -5.31279 -4.44651 0
M  V30 465 N 53.3441 -4.19662 -3.73952 0
M  V30 466 H 45.4951 -2.06469 -0.49841 0
M  V30 467 H 47.7581 -0.904853 -0.282747 0
M  V30 468 H 47.4641 -3.13267 -1.59865 0
M  V30 469 H 47.3381 -2.18838 -3.07229 0
M  V30 470 H 49.7251 -1.28871 -2.65474 0
M  V30 471 H 49.8061 -2.26791 -1.18319 0
M  V30 472 H 49.4501 -4.36965 -2.58889 0
M  V30 473 H 49.3801 -3.35984 -4.0549 0
M  V30 474 H 51.8711 -2.70807 -2.63575 0
M  V30 475 H 52.1841 -5.95593 -4.92431 0
M  V30 476 H 50.5291 -5.3519 -4.43392 0
M  V30 477 H 53.7201 -3.41268 -3.20396 0
M  V30 478 H 53.8931 -4.89358 -4.24774 0
M  V30 479 N 47.2992 1.18797 -1.03562 0
M  V30 480 C 48.5472 1.88278 -0.734569 0
M  V30 481 C 48.8682 1.8043 0.739586 0
M  V30 482 O 48.1382 1.21925 1.53333 0
M  V30 483 H 46.7182 0.696991 -0.268725 0
M  V30 484 H 49.3802 1.44192 -1.31129 0
M  V30 485 H 48.4762 2.94443 -1.03489 0
M  V30 486 N 48.7773 0.814389 1.34928 0
M  V30 487 C 50.0073 0.41054 2.0248 0
M  V30 488 C 50.4153 -0.985625 1.61499 0
M  V30 489 O 49.7583 -1.64781 0.811976 0
M  V30 490 C 49.8203 0.423384 3.56998 0
M  V30 491 C 49.4843 1.77141 4.21272 0
M  V30 492 C 50.4813 2.73093 4.42398 0
M  V30 493 C 48.1663 2.05755 4.58225 0
M  V30 494 C 50.1603 3.95838 4.9959 0
M  V30 495 C 47.8473 3.28762 5.1513 0
M  V30 496 C 48.8453 4.23621 5.35755 0
M  V30 497 O 48.5333 5.44456 5.91458 0
M  V30 498 H 48.2653 0.163997 0.655806 0
M  V30 499 H 50.8193 1.10155 1.73364 0
M  V30 500 H 49.0493 -0.324276 3.85338 0
M  V30 501 H 50.7383 0.0407683 4.0588 0
M  V30 502 H 51.5043 2.5228 4.14222 0
M  V30 503 H 47.3833 1.32727 4.4148 0
M  V30 504 H 50.9273 4.69891 5.15605 0
M  V30 505 H 46.8243 3.49443 5.42734 0
M  V30 506 H 47.5923 5.4586 6.09901 0
M  V30 507 N 50.2554 -1.46986 0.568584 0
M  V30 508 C 51.2024 -2.30153 -0.172707 0
M  V30 509 C 52.1724 -1.39759 -0.897586 0
M  V30 510 O 53.3574 -1.68716 -0.891044 0
M  V30 511 C 50.4974 -3.23952 -1.1895 0
M  V30 512 C 49.6104 -4.29441 -0.469517 0
M  V30 513 C 48.7454 -5.1038 -1.47259 0
M  V30 514 C 47.7844 -6.07632 -0.738225 0
M  V30 515 N 46.9214 -6.8149 -1.68868 0
M  V30 516 H 51.7614 -2.93019 0.542596 0
M  V30 517 H 49.2984 -1.44422 0.279401 0
M  V30 518 H 51.2564 -3.76767 -1.79173 0
M  V30 519 H 49.8864 -2.62926 -1.87269 0
M  V30 520 H 48.9384 -3.79594 0.247467 0
M  V30 521 H 50.2504 -4.98689 0.105241 0
M  V30 522 H 49.4044 -5.67402 -2.14803 0
M  V30 523 H 48.1434 -4.4106 -2.08128 0
M  V30 524 H 47.1484 -5.49778 -0.0489293 0
M  V30 525 H 48.3734 -6.78966 -0.135129 0
M  V30 526 H 46.3194 -6.14891 -2.28573 0
M  V30 527 H 46.2364 -7.46948 -1.16636 0
M  V30 528 H 47.5044 -7.43078 -2.3549 0
M  V30 529 N 51.7335 -0.305618 -1.54608 0
M  V30 530 C 52.6635 0.561482 -2.26649 0
M  V30 531 C 53.6445 1.13415 -1.26772 0
M  V30 532 O 54.8295 1.16262 -1.55553 0
M  V30 533 C 51.9595 1.73122 -3.01075 0
M  V30 534 C 50.9135 1.2887 -4.08138 0
M  V30 535 C 50.2395 2.54396 -4.70305 0
M  V30 536 C 51.5395 0.416578 -5.20636 0
M  V30 537 H 53.2335 -0.0393902 -2.99374 0
M  V30 538 H 50.7795 -0.020385 -1.43986 0
M  V30 539 H 52.7325 2.34396 -3.50195 0
M  V30 540 H 51.4565 2.3584 -2.25936 0
M  V30 541 H 50.1155 0.698991 -3.59875 0
M  V30 542 H 49.7635 3.15439 -3.918 0
M  V30 543 H 49.4635 2.25486 -5.42614 0
M  V30 544 H 50.9875 3.16464 -5.2219 0
M  V30 545 H 52.4015 0.935116 -5.65622 0
M  V30 546 H 50.7985 0.221046 -5.99693 0
M  V30 547 H 51.8685 -0.557162 -4.81688 0
M  V30 548 N 53.2116 1.57565 -0.0334293 0
M  V30 549 C 54.6226 1.79746 0.504798 0
M  V30 550 C 54.9736 0.944091 1.71992 0
M  V30 551 O 54.0986 0.155694 2.15839 0
M  V30 552 C 54.6936 3.25997 0.922567 0
M  V30 553 C 53.2526 3.49159 1.40588 0
M  V30 554 C 52.3996 2.74785 0.372633 0
M  V30 555 H 55.3506 1.56565 -0.259436 0
M  V30 556 H 55.3716 3.35945 1.78666 0
M  V30 557 H 54.8836 3.88081 0.0379825 0
M  V30 558 H 52.9846 2.92332 2.31025 0
M  V30 559 H 53.0976 4.57873 1.41028 0
M  V30 560 H 51.4616 2.40391 0.841672 0
M  V30 561 H 52.2446 3.39587 -0.503559 0
M  V30 562 N 54.6897 -0.239769 1.55765 0
M  V30 563 C 55.6367 -1.29696 1.90913 0
M  V30 564 C 56.6067 -1.47478 0.764164 0
M  V30 565 O 57.7917 -1.61345 1.01845 0
M  V30 566 C 54.9317 -2.64598 2.21544 0
M  V30 567 C 54.0447 -2.54765 3.48882 0
M  V30 568 C 53.1797 -3.82069 3.69049 0
M  V30 569 C 52.2187 -3.66883 4.89963 0
M  V30 570 N 51.3557 -4.86094 5.06614 0
M  V30 571 H 56.1957 -0.990224 2.81067 0
M  V30 572 H 53.7327 -0.477684 1.39128 0
M  V30 573 H 55.6907 -3.43132 2.3731 0
M  V30 574 H 54.3207 -2.93405 1.34585 0
M  V30 575 H 53.3727 -1.67763 3.41409 0
M  V30 576 H 54.6847 -2.39457 4.37563 0
M  V30 577 H 53.8387 -4.69046 3.84812 0
M  V30 578 H 52.5777 -4.00282 2.78614 0
M  V30 579 H 51.5827 -2.78289 4.74168 0
M  V30 580 H 52.8077 -3.50157 5.81865 0
M  V30 581 H 50.7537 -5.04655 4.19117 0
M  V30 582 H 50.6707 -4.73443 5.89396 0
M  V30 583 H 51.9387 -5.74549 5.26795 0
M  V30 584 N 56.1678 -1.49265 -0.50573 0
M  V30 585 C 57.4138 -1.58748 -1.26202 0
M  V30 586 C 57.7468 -0.271227 -1.92297 0
M  V30 587 O 57.0218 0.724831 -1.80489 0
M  V30 588 C 57.3048 -2.74332 -2.33268 0
M  V30 589 C 57.1578 -4.15737 -1.71705 0
M  V30 590 C 58.4768 -2.85576 -3.34865 0
M  V30 591 H 55.5958 -0.577826 -0.457478 0
M  V30 592 H 58.2378 -1.81532 -0.560897 0
M  V30 593 H 56.3878 -2.55036 -2.93068 0
M  V30 594 H 58.0598 -4.46537 -1.15769 0
M  V30 595 H 56.3028 -4.21605 -1.02135 0
M  V30 596 H 56.9738 -4.92477 -2.49341 0
M  V30 597 H 59.4498 -3.03127 -2.8505 0
M  V30 598 H 58.3258 -3.68135 -4.07146 0
M  V30 599 H 58.5868 -1.94732 -3.96903 0
M  V30 600 N 57.6459 0.756429 -1.3826 0
M  V30 601 C 59.0619 1.0591 -1.19395 0
M  V30 602 C 59.2619 2.01459 -0.0406567 0
M  V30 603 O 58.3179 2.44909 0.614467 0
M  V30 604 C 59.6309 1.64191 -2.51916 0
M  V30 605 C 61.1789 1.76376 -2.58574 0
M  V30 606 C 61.6539 2.38069 -3.91264 0
M  V30 607 N 63.1449 2.45503 -3.92788 0
M  V30 608 C 63.8799 2.94126 -4.92217 0
M  V30 609 N 63.3759 3.42805 -6.02043 0
M  V30 610 N 65.1689 2.9314 -4.7961 0
M  V30 611 H 57.3199 0.122313 -2.12048 0
M  V30 612 H 59.5829 0.116892 -0.940766 0
M  V30 613 H 59.2889 1.01451 -3.3675 0
M  V30 614 H 59.1629 2.6329 -2.70108 0
M  V30 615 H 61.5499 2.38244 -1.74137 0
M  V30 616 H 61.6309 0.759894 -2.44252 0
M  V30 617 H 61.2749 1.76835 -4.76121 0
M  V30 618 H 61.2049 3.39091 -4.02895 0
M  V30 619 H 63.6959 2.1107 -3.13461 0
M  V30 620 H 64.0089 3.78354 -6.73846 0
M  V30 621 H 62.3539 3.4087 -6.05667 0
M  V30 622 H 65.5449 2.54419 -3.92923 0
M  V30 623 H 65.7179 3.30721 -5.5725 0
M  V30 624 N 59.124 1.23083 0.984299 0
M  V30 625 C 60.071 1.00854 2.07598 0
M  V30 626 C 61.041 -0.0726709 1.65941 0
M  V30 627 O 62.226 0.0786535 1.90638 0
M  V30 628 C 59.366 0.601645 3.39815 0
M  V30 629 C 58.479 1.75456 3.94765 0
M  V30 630 C 57.614 1.29482 5.15177 0
M  V30 631 C 56.653 2.41873 5.62284 0
M  V30 632 N 55.79 1.96885 6.73929 0
M  V30 633 H 60.63 1.943 2.25946 0
M  V30 634 H 58.167 0.968001 1.10762 0
M  V30 635 H 60.125 0.346854 4.15756 0
M  V30 636 H 58.755 -0.295803 3.21442 0
M  V30 637 H 57.807 2.12346 3.15616 0
M  V30 638 H 59.119 2.59965 4.25699 0
M  V30 639 H 58.273 0.997923 5.98437 0
M  V30 640 H 57.012 0.420046 4.85888 0
M  V30 641 H 56.017 2.72342 4.77608 0
M  V30 642 H 57.242 3.29881 5.93595 0
M  V30 643 H 55.188 1.11782 6.46406 0
M  V30 644 H 55.105 2.74956 7.04227 0
M  V30 645 H 56.373 1.70289 7.60672 0
M  V30 646 N 60.6021 -1.18246 1.0419 0
M  V30 647 C 61.8301 -1.92195 0.766072 0
M  V30 648 C 62.2451 -1.76247 -0.676933 0
M  V30 649 O 61.6021 -1.09293 -1.46155 0
M  V30 650 C 61.6531 -3.43568 1.12442 0
M  V30 651 O 61.3741 -3.59015 2.51078 0
M  V30 652 C 62.8751 -4.34613 0.873275 0
M  V30 653 H 60.0951 -0.610114 0.279288 0
M  V30 654 H 62.6391 -1.50007 1.38989 0
M  V30 655 H 60.7941 -3.8354 0.545542 0
M  V30 656 H 61.2081 -4.5273 2.64831 0
M  V30 657 H 62.6821 -5.39374 1.17385 0
M  V30 658 H 63.1591 -4.38781 -0.191909 0
M  V30 659 H 63.7651 -4.00341 1.43551 0
M  V30 660 N 62.0802 -0.821533 -1.34494 0
M  V30 661 C 63.3282 -0.408139 -1.97936 0
M  V30 662 C 63.6492 1.03193 -1.65457 0
M  V30 663 O 62.9192 1.71622 -0.944595 0
M  V30 664 H 61.4992 -0.147928 -0.732206 0
M  V30 665 H 64.1612 -1.05067 -1.64155 0
M  V30 666 H 63.2572 -0.52601 -3.07635 0
M  V30 667 N 63.5583 1.46682 -0.576371 0
M  V30 668 C 64.7863 2.06798 -0.0649635 0
M  V30 669 C 65.2013 1.42612 1.23723 0
M  V30 670 O 64.5583 0.529203 1.74659 0
M  V30 671 C 64.6093 3.6132 0.114202 0
M  V30 672 O 64.3303 4.23104 -1.13644 0
M  V30 673 C 65.8313 4.38349 0.66069 0
M  V30 674 H 63.0513 0.668778 -0.0545616 0
M  V30 675 H 65.5953 1.88404 -0.795237 0
M  V30 676 H 63.7503 3.79162 0.794673 0
M  V30 677 H 64.1643 5.15894 -0.946253 0
M  V30 678 H 65.6383 5.47081 0.73526 0
M  V30 679 H 66.1153 4.05953 1.67627 0
M  V30 680 H 66.7213 4.25297 0.0152951 0
M  V30 681 N 65.0364 0.313813 1.54444 0
M  V30 682 C 66.2644 -0.293918 2.04802 0
M  V30 683 C 66.6794 -1.46537 1.19047 0
M  V30 684 O 66.0364 -1.81182 0.218939 0
M  V30 685 C 66.0874 -0.737806 3.53891 0
M  V30 686 O 65.8084 0.387038 4.36387 0
M  V30 687 C 67.3094 -1.40936 4.203 0
M  V30 688 H 64.5294 -0.0620057 0.668129 0
M  V30 689 H 67.0734 0.457169 1.99324 0
M  V30 690 H 65.2284 -1.43889 3.59687 0
M  V30 691 H 65.6424 0.0391274 5.24485 0
M  V30 692 H 67.1164 -1.67099 5.26101 0
M  V30 693 H 67.5934 -2.35355 3.70816 0
M  V30 694 H 68.1994 -0.751117 4.18615 0
M  V30 695 N 66.5145 -1.57545 0.0417849 0
M  V30 696 C 67.7635 -1.91494 -0.633492 0
M  V30 697 C 68.0765 -0.921084 -1.72556 0
M  V30 698 O 69.2825 -1.15228 -2.45835 0
M  V30 699 C 67.7385 -3.40072 -1.17808 0
M  V30 700 C 67.3465 -4.47843 -0.118633 0
M  V30 701 C 69.0905 -3.8307 -1.82915 0
M  V30 702 C 66.9975 -5.87529 -0.675578 0
M  V30 703 H 65.9275 -0.714653 -0.24039 0
M  V30 704 H 68.5785 -1.83175 0.109148 0
M  V30 705 H 66.9605 -3.43364 -1.97274 0
M  V30 706 H 68.1345 -4.56128 0.654494 0
M  V30 707 H 66.4495 -4.14128 0.434414 0
M  V30 708 H 69.0465 -4.84794 -2.25563 0
M  V30 709 H 69.3895 -3.1881 -2.67705 0
M  V30 710 H 69.9225 -3.82255 -1.10119 0
M  V30 711 H 66.6615 -6.55362 0.134475 0
M  V30 712 H 66.1815 -5.82824 -1.4169 0
M  V30 713 H 67.8605 -6.36491 -1.1614 0
M  V30 714 N 67.9926 0.231505 -1.5589 0
M  V30 715 C 68.9556 1.27028 -1.90779 0
M  V30 716 C 69.9556 1.40308 -0.785507 0
M  V30 717 O 71.1456 1.38744 -1.05336 0
M  V30 718 C 68.2776 2.64566 -2.14983 0
M  V30 719 H 69.4706 0.973017 -2.83677 0
M  V30 720 H 67.0236 0.471486 -1.49019 0
M  V30 721 H 67.7586 2.99406 -1.24604 0
M  V30 722 H 67.5436 2.56305 -2.96732 0
M  V30 723 H 69.0336 3.39543 -2.43105 0
M  V30 724 N 69.4707 1.49531 0.497807 0
M  V30 725 C 70.7187 1.58865 1.24926 0
M  V30 726 C 71.0397 0.278721 1.92998 0
M  V30 727 O 70.3097 -0.702144 1.82885 0
M  V30 728 H 68.8897 0.585343 0.464094 0
M  V30 729 H 71.5517 1.86174 0.57666 0
M  V30 730 H 70.6477 2.38633 2.01149 0
M  V30 731 N 70.9488 -0.749086 1.3866 0
M  V30 732 C 72.1948 -1.51056 1.35314 0
M  V30 733 C 72.5278 -1.94121 -0.0553751 0
M  V30 734 O 71.8028 -1.65763 -1.01749 0
M  V30 735 C 72.0858 -2.76003 2.31288 0
M  V30 736 C 71.9388 -2.39047 3.8102 0
M  V30 737 C 73.2578 -3.78046 2.2532 0
M  V30 738 H 70.3768 -0.547972 0.492844 0
M  V30 739 H 73.0188 -0.857628 1.69543 0
M  V30 740 H 71.1688 -3.31716 2.02229 0
M  V30 741 H 72.8408 -1.89074 4.20771 0
M  V30 742 H 71.0838 -1.71449 3.98482 0
M  V30 743 H 71.7548 -3.28462 4.4364 0
M  V30 744 H 74.2308 -3.31884 2.50983 0
M  V30 745 H 73.1068 -4.63159 2.94576 0
M  V30 746 H 73.3678 -4.23957 1.25352 0
M  V30 747 N 72.4269 -1.23603 -0.977757 0
M  V30 748 C 73.6729 -1.07129 -1.72195 0
M  V30 749 C 74.0059 0.390501 -1.90233 0
M  V30 750 O 73.2809 1.28902 -1.45653 0
M  V30 751 C 73.5639 -1.80031 -3.11867 0
M  V30 752 C 73.4169 -3.33899 -3.01383 0
M  V30 753 C 74.7359 -1.56492 -4.11337 0
M  V30 754 H 71.8549 -0.390571 -0.624999 0
M  V30 755 H 74.4969 -1.52142 -1.13811 0
M  V30 756 H 72.6469 -1.41768 -3.6171 0
M  V30 757 H 74.3189 -3.81699 -2.59043 0
M  V30 758 H 72.5619 -3.62796 -2.37827 0
M  V30 759 H 73.2329 -3.801 -4.00285 0
M  V30 760 H 75.7089 -1.89757 -3.70313 0
M  V30 761 H 74.5849 -2.09973 -5.07151 0
M  V30 762 H 74.8459 -0.500874 -4.39254 0
M  V30 763 N 73.905 1.17692 -1.04816 0
M  V30 764 C 75.135 1.91508 -0.775128 0
M  V30 765 C 75.543 1.76844 0.67253 0
M  V30 766 O 74.886 1.10057 1.47082 0
M  V30 767 C 74.948 3.43167 -1.0713 0
M  V30 768 C 74.612 3.81612 -2.51438 0
M  V30 769 C 75.609 3.84772 -3.49638 0
M  V30 770 C 73.294 4.12687 -2.86348 0
M  V30 771 C 75.288 4.18469 -4.80794 0
M  V30 772 C 72.975 4.46053 -4.17708 0
M  V30 773 C 73.973 4.48921 -5.14741 0
M  V30 774 O 73.661 4.81504 -6.43746 0
M  V30 775 H 73.393 0.614575 -0.281555 0
M  V30 776 H 75.947 1.50206 -1.40098 0
M  V30 777 H 74.177 3.84745 -0.388342 0
M  V30 778 H 75.866 3.98239 -0.784883 0
M  V30 779 H 76.632 3.60893 -3.24008 0
M  V30 780 H 72.511 4.09627 -2.11486 0
M  V30 781 H 76.055 4.20623 -5.56527 0
M  V30 782 H 71.952 4.69393 -4.43103 0
M  V30 783 H 72.72 4.99377 -6.4851 0
M  V30 784 N 75.3831 0.828654 1.34056 0
M  V30 785 C 76.3301 0.252567 2.29414 0
M  V30 786 C 77.3001 -0.62588 1.53857 0
M  V30 787 O 78.4851 -0.566312 1.82202 0
M  V30 788 C 75.6251 -0.574831 3.40279 0
M  V30 789 C 74.7381 0.326499 4.30764 0
M  V30 790 C 73.8731 -0.511016 5.28736 0
M  V30 791 C 72.9121 0.389342 6.1086 0
M  V30 792 N 72.0491 -0.409439 7.00905 0
M  V30 793 H 76.8891 1.07108 2.78086 0
M  V30 794 H 74.4261 0.539677 1.36843 0
M  V30 795 H 76.3841 -1.06992 4.03248 0
M  V30 796 H 75.0141 -1.35841 2.92826 0
M  V30 797 H 74.0661 0.939837 3.68607 0
M  V30 798 H 75.3781 1.01857 4.88289 0
M  V30 799 H 74.5321 -1.07035 5.97184 0
M  V30 800 H 73.2711 -1.23657 4.71763 0
M  V30 801 H 72.2761 0.960769 5.4134 0
M  V30 802 H 73.5011 1.1131 6.69916 0
M  V30 803 H 71.4471 -1.11856 6.46393 0
M  V30 804 H 71.3641 0.224126 7.55668 0
M  V30 805 H 72.6321 -0.951336 7.73673 0
M  V30 806 N 76.8612 -1.46375 0.584142 0
M  V30 807 C 78.1382 -1.956 0.0033388 0
M  V30 808 C 78.5182 -1.52679 -1.45782 0
M  V30 809 O 77.8662 -0.77816 -2.14842 0
M  V30 810 C 78.0762 -3.48551 0.176891 0
M  V30 811 C 79.4242 -4.24576 0.0454609 0
M  V30 812 O 80.4482 -3.56043 0.105801 0
M  V30 813 O 79.3072 -5.46427 -0.0890376 0
M  V30 814 H 76.4012 -0.825547 -0.0490066 0
M  V30 815 H 78.9472 -1.56652 0.65256 0
M  V30 816 H 77.7192 -3.72683 1.1926 0
M  V30 817 H 77.3422 -3.94332 -0.508695 0
M  V30 818 N 78.3393 -0.321999 -1.54275 0
M  V30 819 C 79.5873 0.280489 -2.00144 0
M  V30 820 C 79.9083 1.52777 -1.21178 0
M  V30 821 O 79.1783 1.9338 -0.313187 0
M  V30 822 H 77.7583 0.106632 -0.73935 0
M  V30 823 H 80.4203 -0.438184 -1.8991 0
M  V30 824 H 79.5163 0.537972 -3.07428 0
M  V30 825 N 79.8174 1.5752 -0.0501392 0
M  V30 826 C 81.0664 1.91827 0.623328 0
M  V30 827 C 81.3794 0.930222 1.72065 0
M  V30 828 O 82.5854 1.1653 2.4522 0
M  V30 829 C 81.0414 3.40692 1.16003 0
M  V30 830 C 80.6494 4.479 0.0948811 0
M  V30 831 C 82.3934 3.84034 1.80881 0
M  V30 832 C 80.3004 5.87879 0.644411 0
M  V30 833 H 79.2304 0.715918 0.236596 0
M  V30 834 H 81.8814 1.83115 -0.118861 0
M  V30 835 H 80.2634 3.44405 1.9545 0
M  V30 836 H 81.4374 4.55775 -0.678675 0
M  V30 837 H 79.7524 4.13892 -0.45637 0
M  V30 838 H 82.3494 4.85984 2.22988 0
M  V30 839 H 82.6924 3.20225 2.6601 0
M  V30 840 H 83.2254 3.82833 1.0809 0
M  V30 841 H 79.9644 6.55282 -0.169229 0
M  V30 842 H 79.4844 5.83567 1.38598 0
M  V30 843 H 81.1634 6.37098 1.12763 0
M  V30 844 N 81.2955 -0.223234 1.56011 0
M  V30 845 C 82.5415 -0.949279 1.79211 0
M  V30 846 C 82.8745 -1.84054 0.619494 0
M  V30 847 O 82.1495 -1.90726 -0.381317 0
M  V30 848 C 82.4325 -1.78965 3.12479 0
M  V30 849 C 82.2855 -0.924997 4.40186 0
M  V30 850 C 83.6045 -2.76774 3.42175 0
M  V30 851 H 80.7235 -0.343676 0.651963 0
M  V30 852 H 83.3655 -0.218253 1.88742 0
M  V30 853 H 81.5155 -2.41291 3.04485 0
M  V30 854 H 83.1875 -0.318615 4.60198 0
M  V30 855 H 81.4305 -0.230344 4.33188 0
M  V30 856 H 82.1015 -1.54735 5.29869 0
M  V30 857 H 84.5775 -2.24584 3.50287 0
M  V30 858 H 83.4535 -3.32678 4.36597 0
M  V30 859 H 83.7145 -3.54429 2.64258 0
M  V30 860 N 82.7736 -1.49793 -0.48987 0
M  V30 861 C 83.7036 -1.70201 -1.59856 0
M  V30 862 C 84.6846 -0.55076 -1.60937 0
M  V30 863 O 85.8696 -0.787841 -1.77501 0
M  V30 864 C 82.9996 -1.77882 -2.98287 0
M  V30 865 C 81.9536 -2.92907 -3.12073 0
M  V30 866 C 81.2796 -2.85712 -4.51965 0
M  V30 867 C 82.5796 -4.3369 -2.91051 0
M  V30 868 H 84.2736 -2.63025 -1.43032 0
M  V30 869 H 81.8196 -1.26574 -0.686664 0
M  V30 870 H 83.7726 -1.90744 -3.75759 0
M  V30 871 H 82.4966 -0.816653 -3.16225 0
M  V30 872 H 81.1556 -2.79665 -2.37029 0
M  V30 873 H 80.8036 -1.8738 -4.66795 0
M  V30 874 H 80.5036 -3.62921 -4.62128 0
M  V30 875 H 82.0276 -3.00598 -5.31482 0
M  V30 876 H 83.4416 -4.47555 -3.58284 0
M  V30 877 H 81.8386 -5.12205 -3.12675 0
M  V30 878 H 82.9086 -4.47362 -1.87071 0
M  V30 879 N 84.2517 0.741722 -1.39055 0
M  V30 880 C 85.4997 1.49818 -1.35643 0
M  V30 881 C 85.8207 1.94938 0.0491642 0
M  V30 882 O 85.0907 1.68505 0.999141 0
M  V30 883 H 83.6707 0.555755 -0.499144 0
M  V30 884 H 86.3327 0.880957 -1.73854 0
M  V30 885 H 85.4287 2.38348 -2.01486 0
M  V30 886 N 85.7298 1.2412 0.971189 0
M  V30 887 C 86.6928 1.03156 2.04674 0
M  V30 888 C 87.6928 -0.00990322 1.60797 0
M  V30 889 O 88.8828 0.230729 1.72665 0
M  V30 890 C 86.0148 0.562765 3.36223 0
M  V30 891 H 87.2078 1.98614 2.24705 0
M  V30 892 H 84.7608 1.06293 1.14593 0
M  V30 893 H 85.4958 -0.395176 3.21883 0
M  V30 894 H 85.2808 1.31441 3.69413 0
M  V30 895 H 86.7708 0.437015 4.15307 0
M  V30 896 N 87.2079 -1.17134 1.05439 0
M  V30 897 C 88.4849 -1.83411 0.679699 0
M  V30 898 C 88.8649 -1.9368 -0.839726 0
M  V30 899 O 88.2129 -1.47325 -1.74664 0
M  V30 900 C 88.4229 -3.20918 1.37159 0
M  V30 901 C 89.7709 -3.96796 1.51123 0
M  V30 902 O 90.7949 -3.30406 1.3308 0
M  V30 903 O 89.6539 -5.15778 1.80651 0
M  V30 904 H 86.7479 -0.79154 0.239569 0
M  V30 905 H 89.2939 -1.24411 1.15413 0
M  V30 906 H 88.0659 -3.08428 2.40807 0
M  V30 907 H 87.6889 -3.87587 0.886674 0
M  V30 908 N 88.686 -0.835752 -1.33615 0
M  V30 909 C 89.914 -0.443344 -2.02094 0
M  V30 910 C 90.329 0.954522 -1.62894 0
M  V30 911 O 89.686 1.61982 -0.840723 0
M  V30 912 C 89.737 -0.550775 -3.5728 0
M  V30 913 O 89.458 -1.89356 -3.95065 0
M  V30 914 C 90.959 -0.154919 -4.43029 0
M  V30 915 H 88.179 -0.176359 -0.647409 0
M  V30 916 H 90.723 -1.12746 -1.70612 0
M  V30 917 H 88.878 0.0853997 -3.87306 0
M  V30 918 H 89.292 -1.87687 -4.89769 0
M  V30 919 H 90.766 -0.281144 -5.51284 0
M  V30 920 H 91.243 0.902863 -4.2982 0
M  V30 921 H 91.849 -0.765404 -4.18356 0
M  V30 922 N 90.1641 1.46063 -0.591896 0
M  V30 923 C 91.5801 1.57561 -0.254288 0
M  V30 924 C 91.7801 1.58565 1.24336 0
M  V30 925 O 90.8361 1.50753 2.02558 0
M  V30 926 C 92.1491 2.86549 -0.911611 0
M  V30 927 C 93.6971 3.00197 -0.886059 0
M  V30 928 C 94.1721 4.31933 -1.5231 0
M  V30 929 N 95.6631 4.38654 -1.48786 0
M  V30 930 C 96.3981 5.39222 -1.95006 0
M  V30 931 N 95.8941 6.46414 -2.49241 0
M  V30 932 N 97.6871 5.3048 -1.85868 0
M  V30 933 H 89.8381 1.43655 -1.56451 0
M  V30 934 H 92.1011 0.68583 -0.654478 0
M  V30 935 H 91.8071 2.91651 -1.96551 0
M  V30 936 H 91.6811 3.74794 -0.425368 0
M  V30 937 H 94.0681 2.9467 0.159246 0
M  V30 938 H 94.1491 2.13403 -1.41041 0
M  V30 939 H 93.7931 4.38217 -2.56765 0
M  V30 940 H 93.7231 5.17516 -0.973891 0
M  V30 941 H 96.2141 3.61793 -1.09151 0
M  V30 942 H 96.5271 7.19376 -2.82344 0
M  V30 943 H 94.8721 6.47208 -2.53272 0
M  V30 944 H 98.0631 4.45643 -1.43248 0
M  V30 945 H 98.2361 6.08711 -2.22204 0
M  V30 946 N 91.6422 0.330177 1.54103 0
M  V30 947 C 92.6052 -0.520144 2.2322 0
M  V30 948 C 93.6052 -1.03828 1.22786 0
M  V30 949 O 94.7952 -0.929652 1.4732 0
M  V30 950 C 91.9272 -1.72317 2.94142 0
M  V30 951 H 93.1202 0.0841605 2.99782 0
M  V30 952 H 90.6732 0.0813433 1.56088 0
M  V30 953 H 91.4082 -2.36653 2.21734 0
M  V30 954 H 91.1932 -1.35898 3.67796 0
M  V30 955 H 92.6832 -2.3266 3.46784 0
M  V30 956 N 93.1203 -1.57491 0.0584922 0
M  V30 957 C 94.3483 -1.97296 -0.623037 0
M  V30 958 C 94.7633 -0.936338 -1.63946 0
M  V30 959 O 94.1203 0.0785981 -1.82331 0
M  V30 960 C 94.1713 -3.37183 -1.30345 0
M  V30 961 O 93.8923 -4.36872 -0.32773 0
M  V30 962 C 95.3933 -3.91788 -2.07406 0
M  V30 963 H 92.6133 -0.649153 -0.169826 0
M  V30 964 H 95.1573 -2.04106 0.12696 0
M  V30 965 H 93.3123 -3.31502 -2.00463 0
M  V30 966 H 93.7263 -5.18141 -0.814269 0
M  V30 967 H 95.2003 -4.91926 -2.50425 0
M  V30 968 H 95.6773 -3.27609 -2.92521 0
M  V30 969 H 96.2833 -4.00829 -1.42184 0
M  V30 970 N 94.5984 0.214957 -1.56127 0
M  V30 971 C 95.5084 1.28727 -1.96129 0
M  V30 972 C 96.5244 1.50916 -0.866044 0
M  V30 973 O 97.7004 1.63918 -1.17016 0
M  V30 974 C 94.7654 2.61569 -2.27558 0
M  V30 975 C 93.8264 2.47625 -3.50685 0
M  V30 976 C 93.0594 3.74132 -3.80606 0
M  V30 977 O 93.2824 4.77438 -3.12104 0
M  V30 978 O 92.2164 3.70849 -4.74083 0
M  V30 979 H 96.0424 0.977855 -2.87527 0
M  V30 980 H 93.6274 0.418358 -1.43423 0
M  V30 981 H 95.5094 3.40012 -2.48938 0
M  V30 982 H 94.1844 2.92178 -1.39332 0
M  V30 983 H 93.0914 1.67361 -3.34576 0
M  V30 984 H 94.4244 2.21954 -4.39315 0
M  V30 985 N 96.0765 1.50051 0.48192 0
M  V30 986 C 97.3245 1.60181 1.23234 0
M  V30 987 C 97.6455 0.299176 1.92691 0
M  V30 988 O 96.9155 -0.682708 1.83619 0
M  V30 989 H 95.4955 0.590232 0.457859 0
M  V30 990 H 98.1575 1.86775 0.556881 0
M  V30 991 H 97.2535 2.40753 1.98607 0
M  V30 992 N 97.5546 -0.734337 1.39446 0
M  V30 993 C 98.4876 -1.85715 1.32609 0
M  V30 994 C 99.4656 -1.6137 0.199636 0
M  V30 995 O 100.65 -1.84626 0.380195 0
M  V30 996 C 97.7766 -3.21709 1.05929 0
M  V30 997 C 96.8226 -3.64913 2.20773 0
M  V30 998 S 97.6556 -3.74203 3.83056 0
M  V30 999 C 98.8116 -5.12986 3.58603 0
M  V30 1000 H 99.0446 -1.91232 2.27635 0
M  V30 1001 H 96.5776 -0.899263 1.25509 0
M  V30 1002 H 98.5356 -4.00236 0.912203 0
M  V30 1003 H 97.1966 -3.13848 0.125883 0
M  V30 1004 H 96.3896 -4.63606 1.97699 0
M  V30 1005 H 95.9916 -2.93593 2.31688 0
M  V30 1006 H 98.2836 -5.99339 3.15909 0
M  V30 1007 H 99.2266 -5.41088 4.5676 0
M  V30 1008 H 99.6346 -4.82694 2.9269 0
M  V30 1009 N 99.0327 -1.24633 -0.964593 0
M  V30 1010 C 100.279 -1.08949 -1.71049 0
M  V30 1011 C 100.612 0.370302 -1.90637 0
M  V30 1012 O 99.8867 1.27349 -1.47011 0
M  V30 1013 C 100.17 -1.83329 -3.0994 0
M  V30 1014 C 100.023 -3.37077 -2.97824 0
M  V30 1015 C 101.342 -1.60846 -4.09654 0
M  V30 1016 H 98.4607 -0.397178 -0.620821 0
M  V30 1017 H 101.103 -1.5334 -1.12191 0
M  V30 1018 H 99.2527 -1.45597 -3.60186 0
M  V30 1019 H 100.925 -3.84425 -2.5498 0
M  V30 1020 H 99.1677 -3.65298 -2.33965 0
M  V30 1021 H 99.8387 -3.84324 -3.96231 0
M  V30 1022 H 102.315 -1.93674 -3.68279 0
M  V30 1023 H 101.191 -2.1534 -5.04896 0
M  V30 1024 H 101.452 -0.547434 -4.38698 0
M  V30 1025 N 100.511 1.16574 -1.06058 0
M  V30 1026 C 101.757 1.87324 -0.777022 0
M  V30 1027 C 102.09 1.81351 0.694645 0
M  V30 1028 O 101.365 1.22753 1.50871 0
M  V30 1029 C 101.648 3.36991 -1.26922 0
M  V30 1030 C 101.501 3.51667 -2.80447 0
M  V30 1031 C 102.82 4.3131 -0.87521 0
M  V30 1032 H 99.9388 0.680191 -0.28374 0
M  V30 1033 H 102.581 1.37036 -1.3161 0
M  V30 1034 H 100.731 3.79949 -0.81063 0
M  V30 1035 H 102.403 3.17664 -3.34495 0
M  V30 1036 H 100.646 2.93656 -3.19294 0
M  V30 1037 H 101.317 4.56766 -3.0995 0
M  V30 1038 H 103.793 3.9624 -1.27014 0
M  V30 1039 H 102.669 5.34545 -1.2471 0
M  V30 1040 H 102.93 4.41552 0.220071 0
M  V30 1041 N 101.989 0.842826 1.3317 0
M  V30 1042 C 102.952 0.284065 2.27433 0
M  V30 1043 C 103.952 -0.54948 1.5112 0
M  V30 1044 O 105.142 -0.362699 1.70382 0
M  V30 1045 C 102.274 -0.599384 3.35589 0
M  V30 1046 H 103.467 1.11589 2.78366 0
M  V30 1047 H 101.02 0.616221 1.4364 0
M  V30 1048 H 101.755 -1.45349 2.89904 0
M  V30 1049 H 101.54 -0.00291266 3.921 0
M  V30 1050 H 103.03 -0.983488 4.05854 0
M  V30 1051 N 103.467 -1.45747 0.599634 0
M  V30 1052 C 104.744 -1.95585 0.0240846 0
M  V30 1053 C 105.124 -1.54217 -1.44154 0
M  V30 1054 O 104.472 -0.800903 -2.14004 0
M  V30 1055 C 104.682 -3.48344 0.21385 0
M  V30 1056 C 106.03 -4.24504 0.0904902 0
M  V30 1057 O 107.054 -3.55911 0.143558 0
M  V30 1058 O 105.913 -5.46491 -0.0310766 0
M  V30 1059 H 103.007 -0.82602 -0.0402478 0
M  V30 1060 H 105.553 -1.55951 0.669139 0
M  V30 1061 H 104.325 -3.71397 1.23206 0
M  V30 1062 H 103.948 -3.9485 -0.466842 0
M  V30 1063 N 104.945 -0.338344 -1.53925 0
M  V30 1064 C 105.892 0.520845 -2.24846 0
M  V30 1065 C 106.862 1.09976 -1.24477 0
M  V30 1066 O 108.047 1.13735 -1.53196 0
M  V30 1067 C 105.187 1.6685 -3.02084 0
M  V30 1068 C 104.3 1.11739 -4.17299 0
M  V30 1069 C 103.435 2.23193 -4.82036 0
M  V30 1070 C 102.474 1.65407 -5.89328 0
M  V30 1071 N 101.611 2.70582 -6.47866 0
M  V30 1072 H 106.451 -0.0904881 -2.97863 0
M  V30 1073 H 103.988 -0.0564282 -1.46992 0
M  V30 1074 H 105.946 2.34407 -3.45122 0
M  V30 1075 H 104.576 2.2509 -2.31375 0
M  V30 1076 H 103.628 0.332919 -3.7894 0
M  V30 1077 H 104.94 0.654677 -4.94485 0
M  V30 1078 H 104.094 2.98626 -5.28117 0
M  V30 1079 H 102.833 2.72807 -4.04262 0
M  V30 1080 H 101.838 0.884779 -5.42634 0
M  V30 1081 H 103.063 1.16652 -6.69006 0
M  V30 1082 H 101.009 3.1946 -5.72959 0
M  V30 1083 H 100.926 2.28917 -7.20509 0
M  V30 1084 H 102.194 3.45799 -6.98601 0
M  V30 1085 N 106.423 1.57458 -0.0668435 0
M  V30 1086 C 107.371 2.13639 0.919851 0
M  V30 1087 C 108.365 1.07204 1.31163 0
M  V30 1088 O 109.571 1.25591 1.28945 0
M  V30 1089 H 105.946 0.683048 0.314562 0
M  V30 1090 H 107.917 2.95415 0.421047 0
M  V30 1091 C 106.666 2.70892 2.17975 0
M  V30 1092 H 105.989 3.5246 1.88711 0
M  V30 1093 H 107.429 3.13803 2.85138 0
M  V30 1094 C 105.888 1.65414 2.93496 0
M  V30 1095 O 106.418 1.07619 3.87015 0
M  V30 1096 N 104.624 1.36564 2.56512 0
M  V30 1097 H 104.171 1.83751 1.80536 0
M  V30 1098 H 104.129 0.66223 3.07347 0
M  V30 1099 N 107.901 -0.206675 1.56239 0
M  V30 1100 C 109.141 -0.93574 1.81723 0
M  V30 1101 C 109.505 -1.80927 0.642609 0
M  V30 1102 O 110.706 -2.57323 0.777081 0
M  V30 1103 C 108.977 -1.74012 3.12177 0
M  V30 1104 S 110.536 -2.52279 3.59028 0
M  V30 1105 H 107.354 -0.314065 0.637875 0
M  V30 1106 H 109.956 -0.200071 1.94474 0
M  V30 1107 H 108.66 -1.0888 3.95693 0
M  V30 1108 H 108.191 -2.51782 3.02274 0
M  V30 1109 H 110.206 -3.76209 3.23545 0
M  V30 1110 N 109.379 -1.50304 -0.473955 0
M  V30 1111 C 110.604 -1.65175 -1.25427 0
M  V30 1112 C 111.029 -0.333673 -1.85117 0
M  V30 1113 O 110.387 0.702114 -1.67153 0
M  V30 1114 C 110.435 -2.74295 -2.34082 0
M  V30 1115 O 109.539 -2.35349 -3.38651 0
M  V30 1116 H 108.88 -0.551944 -0.369126 0
M  V30 1117 H 111.41 -1.96662 -0.564364 0
M  V30 1118 H 111.42 -2.97285 -2.79438 0
M  V30 1119 H 110.095 -3.69959 -1.90008 0
M  V30 1120 H 108.672 -2.22794 -2.99027 0
M  V30 1121 N 110.857 0.726932 -1.39834 0
M  V30 1122 C 111.804 1.841 -1.39197 0
M  V30 1123 C 112.774 1.642 -0.250502 0
M  V30 1124 O 113.959 1.85494 -0.446846 0
M  V30 1125 C 111.099 3.21697 -1.24919 0
M  V30 1126 C 110.212 3.53247 -2.48678 0
M  V30 1127 C 109.347 4.80289 -2.26928 0
M  V30 1128 C 108.386 5.04707 -3.4632 0
M  V30 1129 N 107.523 6.22956 -3.23836 0
M  V30 1130 H 112.363 1.83979 -2.34427 0
M  V30 1131 H 109.9 0.898876 -1.16442 0
M  V30 1132 H 111.858 4.01137 -1.1465 0
M  V30 1133 H 110.488 3.21076 -0.333153 0
M  V30 1134 H 109.54 2.68447 -2.69519 0
M  V30 1135 H 110.852 3.67205 -3.37582 0
M  V30 1136 H 110.006 5.67725 -2.13947 0
M  V30 1137 H 108.745 4.68519 -1.35431 0
M  V30 1138 H 107.75 4.1573 -3.5979 0
M  V30 1139 H 108.975 5.18357 -4.38729 0
M  V30 1140 H 106.921 6.12459 -2.35011 0
M  V30 1141 H 106.838 6.37539 -4.063 0
M  V30 1142 H 108.106 7.1321 -3.14566 0
M  V30 1143 N 112.336 1.25143 0.95797 0
M  V30 1144 C 113.585 1.0909 1.69654 0
M  V30 1145 C 113.898 -0.368548 1.92097 0
M  V30 1146 O 115.104 -0.649455 2.63618 0
M  V30 1147 C 113.56 1.90395 3.05414 0
M  V30 1148 C 113.168 3.4081 2.90779 0
M  V30 1149 C 114.912 1.82901 3.83076 0
M  V30 1150 C 112.819 4.14423 4.21909 0
M  V30 1151 H 111.749 0.404625 0.636235 0
M  V30 1152 H 114.4 1.4931 1.06672 0
M  V30 1153 H 112.782 1.42996 3.69281 0
M  V30 1154 H 113.956 3.95859 2.35865 0
M  V30 1155 H 112.271 3.49361 2.26575 0
M  V30 1156 H 114.868 2.35196 4.80195 0
M  V30 1157 H 115.211 0.796224 4.08615 0
M  V30 1158 H 115.744 2.28033 3.25954 0
M  V30 1159 H 112.483 5.18102 4.01561 0
M  V30 1160 H 112.003 3.64159 4.76601 0
M  V30 1161 H 113.682 4.21956 4.90471 0
M  V30 1162 N 113.814 -1.1601 1.06675 0
M  V30 1163 C 114.764 -2.18512 0.650888 0
M  V30 1164 C 115.748 -1.57677 -0.320441 0
M  V30 1165 O 116.94 -1.76482 -0.135266 0
M  V30 1166 C 114.069 -3.43273 0.0429255 0
M  V30 1167 C 113.155 -4.11176 1.03898 0
M  V30 1168 N 113.546 -4.54672 2.216 0
M  V30 1169 C 111.844 -4.37417 0.870779 0
M  V30 1170 C 112.545 -5.07248 2.84736 0
M  V30 1171 N 111.521 -5.0037 2.12441 0
M  V30 1172 H 115.323 -2.49863 1.54745 0
M  V30 1173 H 112.837 -1.32503 0.938975 0
M  V30 1174 H 114.834 -4.16006 -0.272857 0
M  V30 1175 H 113.494 -3.13408 -0.84884 0
M  V30 1176 H 114.505 -4.4828 2.59356 0
M  V30 1177 H 111.182 -4.17488 0.0313293 0
M  V30 1178 H 112.572 -5.50912 3.84636 0
M  V30 1179 N 115.292 -0.849877 -1.32721 0
M  V30 1180 C 116.539 -0.450923 -1.97416 0
M  V30 1181 C 116.867 0.992376 -1.67279 0
M  V30 1182 O 116.122 1.71048 -0.950845 0
M  V30 1183 C 116.421 -0.631272 -3.51781 0
M  V30 1184 C 116.087 -2.04432 -4.01894 0
M  V30 1185 C 114.749 -2.4308 -4.1529 0
M  V30 1186 C 117.101 -2.96679 -4.28522 0
M  V30 1187 C 114.429 -3.73257 -4.52654 0
M  V30 1188 C 116.781 -4.26349 -4.67343 0
M  V30 1189 C 115.445 -4.64939 -4.78945 0
M  V30 1190 H 114.715 -0.165004 -0.722395 0
M  V30 1191 H 117.362 -1.07901 -1.58207 0
M  V30 1192 H 115.667 0.0800767 -3.91718 0
M  V30 1193 H 117.364 -0.302709 -3.99856 0
M  V30 1194 H 113.954 -1.73419 -3.91949 0
M  V30 1195 H 118.138 -2.68054 -4.17685 0
M  V30 1196 H 113.394 -4.02946 -4.59831 0
M  V30 1197 H 117.568 -4.97895 -4.86902 0
M  V30 1198 H 115.195 -5.65855 -5.07654 0
M  V30 1199 N 116.77 1.45427 -0.607355 0
M  V30 1200 C 118.019 2.01452 -0.100036 0
M  V30 1201 C 118.332 1.48159 1.27704 0
M  V30 1202 O 119.538 1.96159 1.87707 0
M  V30 1203 C 117.994 3.59672 -0.128158 0
M  V30 1204 C 117.602 4.21962 -1.50507 0
M  V30 1205 C 119.346 4.23262 0.323932 0
M  V30 1206 C 117.253 5.72333 -1.48959 0
M  V30 1207 H 116.183 0.75325 -0.0336299 0
M  V30 1208 H 118.834 1.66901 -0.76265 0
M  V30 1209 H 117.216 3.91411 0.601105 0
M  V30 1210 H 118.39 4.01796 -2.25602 0
M  V30 1211 H 116.705 3.70565 -1.89923 0
M  V30 1212 H 119.302 5.33522 0.354691 0
M  V30 1213 H 119.645 3.93921 1.34656 0
M  V30 1214 H 120.178 3.96239 -0.352056 0
M  V30 1215 H 116.917 6.06373 -2.48981 0
M  V30 1216 H 116.437 5.94691 -0.781214 0
M  V30 1217 H 118.116 6.35525 -1.21313 0
M  V30 1218 N 118.248 0.346503 1.53744 0
M  V30 1219 C 119.473 -0.253074 2.0585 0
M  V30 1220 C 119.898 -1.43202 1.21962 0
M  V30 1221 O 119.256 -1.79783 0.234073 0
M  V30 1222 C 119.304 -0.643193 3.54817 0
M  V30 1223 O 118.408 -1.74286 3.73762 0
M  V30 1224 H 117.749 -0.0413583 0.662711 0
M  V30 1225 H 120.279 0.501574 1.98357 0
M  V30 1226 H 120.289 -0.919526 3.97503 0
M  V30 1227 H 118.964 0.218966 4.15323 0
M  V30 1228 H 117.541 -1.46356 3.42979 0
M  V30 1229 N 119.726 -1.57421 0.075193 0
M  V30 1230 C 121.137 -1.81021 -0.456964 0
M  V30 1231 C 121.488 -0.98936 -1.69429 0
M  V30 1232 O 120.613 -0.212865 -2.15351 0
M  V30 1233 C 121.208 -3.28329 -0.83581 0
M  V30 1234 C 119.767 -3.52764 -1.31281 0
M  V30 1235 C 118.914 -2.75676 -0.299648 0
M  V30 1236 H 121.865 -1.55822 0.300856 0
M  V30 1237 H 121.886 -3.40564 -1.69696 0
M  V30 1238 H 121.398 -3.88046 0.0649238 0
M  V30 1239 H 119.499 -2.98355 -2.23193 0
M  V30 1240 H 119.612 -4.61451 -1.28839 0
M  V30 1241 H 117.976 -2.42538 -0.777641 0
M  V30 1242 H 118.759 -3.38132 0.593417 0
M  V30 1243 N 121.204 0.198386 -1.56346 0
M  V30 1244 C 122.152 1.26538 -1.95169 0
M  V30 1245 C 123.146 1.47295 -0.836685 0
M  V30 1246 O 124.352 1.48195 -1.02167 0
M  V30 1247 H 120.727 0.424744 -0.620561 0
M  V30 1248 H 122.698 0.910904 -2.84157 0
M  V30 1249 C 121.447 2.6035 -2.30463 0
M  V30 1250 H 120.77 2.45192 -3.15786 0
M  V30 1251 H 122.21 3.33762 -2.61494 0
M  V30 1252 C 120.669 3.17096 -1.13806 0
M  V30 1253 O 121.199 3.99588 -0.41135 0
M  V30 1254 N 119.405 2.75795 -0.915736 0
M  V30 1255 H 118.952 2.08816 -1.50843 0
M  V30 1256 H 118.91 3.14101 -0.136979 0
M  V30 1257 N 122.682 1.50554 0.465978 0
M  V30 1258 C 123.931 1.61038 1.21448 0
M  V30 1259 C 124.244 0.31865 1.92987 0
M  V30 1260 O 125.45 0.302469 2.6981 0
M  V30 1261 C 123.906 2.84283 2.20706 0
M  V30 1262 C 123.514 4.20352 1.54946 0
M  V30 1263 C 125.258 3.04115 2.96166 0
M  V30 1264 C 123.165 5.34778 2.5252 0
M  V30 1265 H 122.095 0.599718 0.457005 0
M  V30 1266 H 124.746 1.7699 0.484424 0
M  V30 1267 H 123.128 2.61901 2.97025 0
M  V30 1268 H 124.302 4.53008 0.843811 0
M  V30 1269 H 122.617 4.06167 0.917475 0
M  V30 1270 H 125.214 3.86774 3.69202 0
M  V30 1271 H 125.557 2.16045 3.55852 0
M  V30 1272 H 126.09 3.26702 2.26959 0
M  V30 1273 H 122.829 6.25018 1.97566 0
M  V30 1274 H 122.349 5.06534 3.21222 0
M  V30 1275 H 124.028 5.65561 3.14245 0
M  V30 1276 N 124.16 -0.719506 1.40217 0
M  V30 1277 C 125.39 -1.50646 1.41384 0
M  V30 1278 C 125.798 -1.89197 0.0107743 0
M  V30 1279 O 125.141 -1.55709 -0.974708 0
M  V30 1280 C 125.203 -2.81405 2.23722 0
M  V30 1281 C 124.867 -2.65199 3.72181 0
M  V30 1282 C 125.864 -2.32717 4.64907 0
M  V30 1283 C 123.549 -2.81586 4.1595 0
M  V30 1284 C 125.543 -2.16827 5.99387 0
M  V30 1285 C 123.23 -2.65313 5.50502 0
M  V30 1286 C 124.228 -2.32981 6.42035 0
M  V30 1287 O 123.916 -2.16827 7.74107 0
M  V30 1288 H 123.648 -0.471606 0.484318 0
M  V30 1289 H 126.202 -0.895456 1.84853 0
M  V30 1290 H 124.432 -3.44823 1.75026 0
M  V30 1291 H 126.121 -3.43102 2.16878 0
M  V30 1292 H 126.887 -2.19694 4.32388 0
M  V30 1293 H 122.766 -3.0574 3.45027 0
M  V30 1294 H 126.31 -1.91513 6.70797 0
M  V30 1295 H 122.207 -2.7792 5.82607 0
M  V30 1296 H 122.975 -2.31778 7.84998 0
M  V30 1297 N 125.638 -1.25649 -0.95132 0
M  V30 1298 C 126.878 -1.11802 -1.71113 0
M  V30 1299 C 127.242 0.334758 -1.89059 0
M  V30 1300 O 128.443 0.595121 -2.62129 0
M  V30 1301 C 126.714 -1.85512 -3.05483 0
M  V30 1302 S 128.273 -1.87597 -3.96677 0
M  V30 1303 H 125.091 -0.399552 -0.588115 0
M  V30 1304 H 127.693 -1.59222 -1.1344 0
M  V30 1305 H 126.397 -2.90299 -2.90094 0
M  V30 1306 H 125.928 -1.38493 -3.68216 0
M  V30 1307 H 127.943 -0.955389 -4.86916 0
M  V30 1308 N 127.117 1.15442 -1.07289 0
M  V30 1309 C 128.357 1.8788 -0.805012 0
M  V30 1310 C 128.721 1.80413 0.656907 0
M  V30 1311 O 129.922 2.47874 1.0398 0
M  V30 1312 C 128.193 3.3298 -1.29843 0
M  V30 1313 S 129.752 4.23158 -1.16114 0
M  V30 1314 H 126.57 0.64839 -0.291739 0
M  V30 1315 H 129.172 1.39285 -1.37186 0
M  V30 1316 H 127.876 3.35958 -2.35712 0
M  V30 1317 H 127.407 3.86629 -0.726767 0
M  V30 1318 H 129.422 4.96103 -0.0982778 0
M  V30 1319 N 128.595 0.856903 1.32268 0
M  V30 1320 C 129.843 0.460474 1.96784 0
M  V30 1321 C 130.164 -0.987701 1.68135 0
M  V30 1322 O 129.434 -1.69058 0.989765 0
M  V30 1323 H 128.014 0.167289 0.728027 0
M  V30 1324 H 130.676 1.09383 1.61312 0
M  V30 1325 H 129.772 0.60739 3.06133 0
M  V30 1326 N 130.073 -1.45103 0.615059 0
M  V30 1327 C 131.036 -2.29025 -0.0895485 0
M  V30 1328 C 132.036 -1.40174 -0.787906 0
M  V30 1329 O 133.226 -1.62217 -0.634933 0
M  V30 1330 C 130.358 -3.21376 -1.13711 0
M  V30 1331 H 131.551 -2.92807 0.648382 0
M  V30 1332 H 129.104 -1.51749 0.374444 0
M  V30 1333 H 129.839 -2.6241 -1.90556 0
M  V30 1334 H 129.624 -3.86834 -0.640475 0
M  V30 1335 H 131.114 -3.84459 -1.63036 0
M  V30 1336 N 131.551 -0.354651 -1.53558 0
M  V30 1337 C 132.799 0.237972 -2.00694 0
M  V30 1338 C 133.12 1.50173 -1.24391 0
M  V30 1339 O 132.39 1.92673 -0.354135 0
M  V30 1340 H 130.97 0.0909256 -0.741446 0
M  V30 1341 H 133.632 -0.478368 -1.88938 0
M  V30 1342 H 132.728 0.47264 -3.085 0
M  V30 1343 N 133.029 1.57378 -0.0835403 0
M  V30 1344 C 134.257 1.98263 0.59157 0
M  V30 1345 C 134.672 0.962302 1.62435 0
M  V30 1346 O 134.029 -0.049581 1.82433 0
M  V30 1347 C 134.08 3.39214 1.24965 0
M  V30 1348 O 133.801 4.37339 0.258186 0
M  V30 1349 C 135.302 3.95038 2.01147 0
M  V30 1350 H 132.522 0.651773 0.159477 0
M  V30 1351 H 135.066 2.03878 -0.159415 0
M  V30 1352 H 133.221 3.34649 1.95164 0
M  V30 1353 H 133.635 5.19371 0.731734 0
M  V30 1354 H 135.109 4.95848 2.42567 0
M  V30 1355 H 135.586 3.32222 2.87272 0
M  V30 1356 H 136.192 4.0304 1.35789 0
M  V30 1357 N 134.507 -0.190092 1.56449 0
M  V30 1358 C 135.47 -1.21925 1.9408 0
M  V30 1359 C 136.47 -1.38176 0.822431 0
M  V30 1360 O 137.66 -1.35903 1.08977 0
M  V30 1361 C 134.792 -2.58773 2.21922 0
M  V30 1362 H 135.985 -0.897464 2.86157 0
M  V30 1363 H 133.538 -0.43181 1.50217 0
M  V30 1364 H 134.273 -2.95998 1.32499 0
M  V30 1365 H 134.058 -2.48348 3.03424 0
M  V30 1366 H 135.548 -3.32978 2.52022 0
M  V30 1367 N 135.985 -1.50799 -0.457987 0
M  V30 1368 C 136.948 -1.7005 -1.53674 0
M  V30 1369 C 137.948 -0.570881 -1.50325 0
M  V30 1370 O 139.138 -0.838126 -1.52712 0
M  V30 1371 C 136.27 -1.73788 -2.93276 0
M  V30 1372 H 137.463 -2.66306 -1.37917 0
M  V30 1373 H 135.016 -1.40477 -0.685271 0
M  V30 1374 H 135.751 -0.792717 -3.14462 0
M  V30 1375 H 135.536 -2.55864 -2.97113 0
M  V30 1376 H 137.026 -1.90591 -3.71571 0
M  V30 1377 N 137.463 0.71206 -1.40597 0
M  V30 1378 C 138.74 1.46536 -1.29563 0
M  V30 1379 C 139.12 2.10931 0.0844217 0
M  V30 1380 O 138.468 2.00418 1.0975 0
M  V30 1381 C 138.678 2.49821 -2.43701 0
M  V30 1382 C 140.026 3.15551 -2.841 0
M  V30 1383 O 141.05 2.60142 -2.4332 0
M  V30 1384 O 139.909 4.15867 -3.54566 0
M  V30 1385 H 137.003 0.651801 -0.509004 0
M  V30 1386 H 139.549 0.743935 -1.52524 0
M  V30 1387 H 138.321 2.00778 -3.35863 0
M  V30 1388 H 137.944 3.29495 -2.22528 0
M  V30 1389 N 138.941 1.26152 0.944643 0
M  V30 1390 C 140.169 1.14259 1.72489 0
M  V30 1391 C 140.584 -0.302555 1.8636 0
M  V30 1392 O 139.941 -1.20741 1.36849 0
M  V30 1393 C 139.992 1.80266 3.13347 0
M  V30 1394 O 139.713 3.19133 3.00143 0
M  V30 1395 C 141.214 1.74283 4.07603 0
M  V30 1396 H 138.434 0.398051 0.540181 0
M  V30 1397 H 140.978 1.66706 1.18446 0
M  V30 1398 H 139.133 1.31766 3.64303 0
M  V30 1399 H 139.547 3.51744 3.89071 0
M  V30 1400 H 141.021 2.25111 5.04013 0
M  V30 1401 H 141.498 0.708631 4.33446 0
M  V30 1402 H 142.104 2.22319 3.62567 0
M  V30 1403 N 140.419 -1.14872 1.07899 0
M  V30 1404 C 141.696 -1.81928 0.71845 0
M  V30 1405 C 142.076 -1.95417 -0.798455 0
M  V30 1406 O 141.424 -1.50997 -1.715 0
M  V30 1407 C 141.634 -3.17937 1.43935 0
M  V30 1408 C 142.982 -3.93501 1.59506 0
M  V30 1409 O 144.006 -3.27509 1.40058 0
M  V30 1410 O 142.865 -5.1183 1.91551 0
M  V30 1411 H 139.959 -0.78628 0.256305 0
M  V30 1412 H 142.505 -1.21934 1.18026 0
M  V30 1413 H 141.277 -3.0325 2.47295 0
M  V30 1414 H 140.9 -3.85619 0.968687 0
M  V30 1415 N 141.898 -0.863906 -1.31812 0
M  V30 1416 C 142.831 -0.259963 -2.26714 0
M  V30 1417 C 143.809 0.607392 -1.50829 0
M  V30 1418 O 144.993 0.562155 -1.79922 0
M  V30 1419 C 142.12 0.632456 -3.32743 0
M  V30 1420 C 141.166 -0.162743 -4.26189 0
M  V30 1421 S 141.999 -1.53726 -5.12961 0
M  V30 1422 C 143.155 -0.650803 -6.22507 0
M  V30 1423 H 143.388 -1.06445 -2.77591 0
M  V30 1424 H 140.921 -0.662071 -1.39485 0
M  V30 1425 H 142.879 1.14167 -3.94305 0
M  V30 1426 H 141.54 1.41083 -2.80632 0
M  V30 1427 H 140.733 0.517366 -5.01338 0
M  V30 1428 H 140.335 -0.60385 -3.69093 0
M  V30 1429 H 142.627 0.141134 -6.77353 0
M  V30 1430 H 143.57 -1.37322 -6.94657 0
M  V30 1431 H 143.978 -0.221041 -5.64067 0
M  V30 1432 N 143.376 1.44774 -0.622745 0
M  V30 1433 C 144.604 2.06487 -0.130722 0
M  V30 1434 C 145.019 1.46476 1.19123 0
M  V30 1435 O 144.376 0.584502 1.72887 0
M  V30 1436 C 144.427 3.615 -0.000807207 0
M  V30 1437 O 144.148 4.19274 -1.27048 0
M  V30 1438 C 145.649 4.40229 0.520898 0
M  V30 1439 H 142.869 0.666704 -0.0758106 0
M  V30 1440 H 145.413 1.85779 -0.854774 0
M  V30 1441 H 143.568 3.81498 0.673643 0
M  V30 1442 H 143.982 5.12622 -1.1099 0
M  V30 1443 H 145.456 5.49144 0.560838 0
M  V30 1444 H 145.933 4.1108 1.54627 0
M  V30 1445 H 146.539 4.25131 -0.120018 0
M  V30 1446 N 144.854 0.36279 1.53368 0
M  V30 1447 C 146.082 -0.228613 2.05633 0
M  V30 1448 C 146.497 -1.42676 1.23649 0
M  V30 1449 O 145.854 -1.80394 0.27647 0
M  V30 1450 C 145.905 -0.624845 3.56059 0
M  V30 1451 O 145.626 0.525675 4.34935 0
M  V30 1452 C 147.127 -1.27493 4.24571 0
M  V30 1453 H 144.347 -0.0407183 0.669763 0
M  V30 1454 H 146.891 0.520352 1.97769 0
M  V30 1455 H 145.046 -1.32373 3.64083 0
M  V30 1456 H 145.46 0.205969 5.24095 0
M  V30 1457 H 146.934 -1.50277 5.31151 0
M  V30 1458 H 147.411 -2.23439 3.78116 0
M  V30 1459 H 148.017 -0.617558 4.20792 0
M  V30 1460 N 146.332 -1.57332 0.0918853 0
M  V30 1461 C 147.264 -2.10869 -0.898168 0
M  V30 1462 C 148.277 -1.04521 -1.24817 0
M  V30 1463 O 149.466 -1.31977 -1.20184 0
M  V30 1464 C 146.566 -2.57083 -2.2082 0
M  V30 1465 C 145.739 -3.87229 -2.03402 0
M  V30 1466 C 144.798 -4.19324 -3.17889 0
M  V30 1467 O 143.824 -4.88598 -2.91994 0
M  V30 1468 N 145.026 -3.74471 -4.43567 0
M  V30 1469 H 147.791 -2.96439 -0.440943 0
M  V30 1470 H 145.352 -1.61631 -0.0933064 0
M  V30 1471 H 147.344 -2.75602 -2.96354 0
M  V30 1472 H 145.914 -1.76541 -2.57977 0
M  V30 1473 H 145.134 -3.7789 -1.12218 0
M  V30 1474 H 146.422 -4.72379 -1.89038 0
M  V30 1475 H 145.82 -3.18546 -4.67488 0
M  V30 1476 H 144.377 -3.98151 -5.16061 0
M  V30 1477 N 147.81 0.181792 -1.56548 0
M  V30 1478 C 148.74 1.22765 -1.98623 0
M  V30 1479 C 149.721 1.46747 -0.860189 0
M  V30 1480 O 150.906 1.58259 -1.12551 0
M  V30 1481 C 148.036 2.56894 -2.33715 0
M  V30 1482 C 146.99 2.475 -3.49182 0
M  V30 1483 C 146.316 3.86023 -3.69986 0
M  V30 1484 C 147.616 1.98866 -4.82959 0
M  V30 1485 H 149.31 0.877942 -2.86239 0
M  V30 1486 H 146.856 0.42088 -1.37712 0
M  V30 1487 H 148.809 3.30253 -2.61746 0
M  V30 1488 H 147.533 2.93632 -1.42997 0
M  V30 1489 H 146.192 1.76596 -3.21262 0
M  V30 1490 H 145.84 4.20136 -2.76576 0
M  V30 1491 H 145.54 3.80609 -4.47672 0
M  V30 1492 H 147.064 4.60984 -4.00407 0
M  V30 1493 H 148.478 2.61992 -5.09934 0
M  V30 1494 H 146.875 2.04424 -5.64208 0
M  V30 1495 H 147.945 0.942465 -4.75653 0
M  V30 1496 N 149.288 1.51039 0.449983 0
M  V30 1497 C 150.537 1.62317 1.19733 0
M  V30 1498 C 150.85 0.339101 1.92638 0
M  V30 1499 O 152.056 0.331069 2.69474 0
M  V30 1500 C 150.512 2.86608 2.17678 0
M  V30 1501 C 150.12 4.21972 1.50479 0
M  V30 1502 C 151.864 3.07239 2.92924 0
M  V30 1503 C 149.771 5.37426 2.46834 0
M  V30 1504 H 148.701 0.604532 0.450619 0
M  V30 1505 H 151.352 1.77494 0.465625 0
M  V30 1506 H 149.734 2.65037 2.94231 0
M  V30 1507 H 150.908 4.53878 0.795716 0
M  V30 1508 H 149.223 4.07117 0.874344 0
M  V30 1509 H 151.82 3.90668 3.65079 0
M  V30 1510 H 152.163 2.19807 3.5354 0
M  V30 1511 H 152.696 3.29091 2.23481 0
M  V30 1512 H 149.435 6.27079 1.90926 0
M  V30 1513 H 148.955 5.09912 3.15832 0
M  V30 1514 H 150.634 5.68862 3.08228 0
M  V30 1515 N 150.766 -0.704594 1.40972 0
M  V30 1516 C 151.991 -1.49858 1.43378 0
M  V30 1517 C 152.416 -1.88061 0.038184 0
M  V30 1518 O 151.774 -1.5402 -0.956425 0
M  V30 1519 C 151.822 -2.74333 2.34038 0
M  V30 1520 O 150.926 -3.7147 1.7912 0
M  V30 1521 H 150.267 -0.45139 0.486974 0
M  V30 1522 H 152.797 -0.866832 1.8533 0
M  V30 1523 H 152.807 -3.22741 2.49604 0
M  V30 1524 H 151.482 -2.45863 3.35446 0
M  V30 1525 H 150.059 -3.30363 1.72958 0
M  V30 1526 N 152.244 -1.26651 -0.937939 0
M  V30 1527 C 153.469 -1.15279 -1.72411 0
M  V30 1528 C 153.894 0.287866 -1.85884 0
M  V30 1529 O 153.252 1.20855 -1.35143 0
M  V30 1530 C 153.3 -1.83028 -3.10698 0
M  V30 1531 O 152.404 -1.12128 -3.96864 0
M  V30 1532 H 151.745 -0.401504 -0.528858 0
M  V30 1533 H 154.275 -1.67531 -1.1745 0
M  V30 1534 H 154.285 -1.89981 -3.6107 0
M  V30 1535 H 152.96 -2.87833 -3.00208 0
M  V30 1536 H 151.537 -1.13173 -3.55312 0
M  V30 1537 N 153.722 1.14298 -1.08507 0
M  V30 1538 C 154.67 2.21483 -0.710483 0
M  V30 1539 C 155.664 1.66998 0.284234 0
M  V30 1540 O 156.87 1.79401 0.146692 0
M  V30 1541 H 153.245 0.721578 -0.211729 0
M  V30 1542 H 155.216 2.50348 -1.62384 0
M  V30 1543 C 153.965 3.4743 -0.137007 0
M  V30 1544 H 153.288 3.89686 -0.893592 0
M  V30 1545 H 154.728 4.2391 0.0872789 0
M  V30 1546 C 153.187 3.17548 1.12538 0
M  V30 1547 O 153.717 3.35437 2.21009 0
M  V30 1548 N 151.923 2.71499 1.03617 0
M  V30 1549 H 151.47 2.57143 0.153403 0
M  V30 1550 H 151.428 2.51881 1.88158 0
M  V30 1551 N 155.201 0.870884 1.31352 0
M  V30 1552 C 156.131 0.343096 2.30966 0
M  V30 1553 C 157.112 -0.566507 1.60389 0
M  V30 1554 O 158.297 -0.483336 1.88089 0
M  V30 1555 C 155.427 -0.455487 3.443 0
M  V30 1556 C 154.381 0.361103 4.26474 0
M  V30 1557 C 153.707 -0.563221 5.31725 0
M  V30 1558 C 155.007 1.59566 4.97329 0
M  V30 1559 H 156.701 1.17548 2.75359 0
M  V30 1560 H 154.247 0.566686 1.32381 0
M  V30 1561 H 156.2 -0.83525 4.13039 0
M  V30 1562 H 154.924 -1.32139 2.98675 0
M  V30 1563 H 153.583 0.722825 3.59403 0
M  V30 1564 H 153.231 -1.42643 4.82351 0
M  V30 1565 H 152.931 -0.0207409 5.87596 0
M  V30 1566 H 154.455 -0.939808 6.03324 0
M  V30 1567 H 155.869 1.28728 5.58661 0
M  V30 1568 H 154.266 2.07728 5.63 0
M  V30 1569 H 155.336 2.34798 4.24262 0
M  V30 1570 N 156.679 -1.44442 0.630414 0
M  V30 1571 C 157.589 -2.34476 -0.0761693 0
M  V30 1572 C 158.605 -1.52576 -0.836449 0
M  V30 1573 O 159.781 -1.85307 -0.788874 0
M  V30 1574 C 156.846 -3.30545 -1.04599 0
M  V30 1575 C 155.907 -4.28352 -0.28516 0
M  V30 1576 C 155.14 -5.19831 -1.20878 0
M  V30 1577 O 155.363 -5.15223 -2.44747 0
M  V30 1578 O 154.297 -5.97892 -0.693491 0
M  V30 1579 H 158.123 -2.96345 0.664324 0
M  V30 1580 H 155.708 -1.44203 0.39061 0
M  V30 1581 H 157.59 -3.89681 -1.60396 0
M  V30 1582 H 156.265 -2.7121 -1.76711 0
M  V30 1583 H 155.172 -3.72764 0.315837 0
M  V30 1584 H 156.505 -4.90605 0.395924 0
M  V30 1585 N 158.157 -0.370918 -1.53173 0
M  V30 1586 C 159.087 0.464847 -2.28826 0
M  V30 1587 C 160.068 1.07936 -1.31468 0
M  V30 1588 O 161.253 1.0956 -1.60344 0
M  V30 1589 C 158.383 1.60196 -3.08147 0
M  V30 1590 C 157.337 1.11443 -4.13237 0
M  V30 1591 C 156.663 2.3422 -4.80672 0
M  V30 1592 C 157.963 0.195384 -5.21934 0
M  V30 1593 H 159.657 -0.166329 -2.98938 0
M  V30 1594 H 157.203 -0.0814359 -1.4377 0
M  V30 1595 H 159.156 2.19332 -3.59822 0
M  V30 1596 H 157.88 2.26045 -2.35735 0
M  V30 1597 H 156.539 0.545727 -3.62515 0
M  V30 1598 H 156.187 2.98537 -4.04827 0
M  V30 1599 H 155.887 2.02269 -5.51689 0
M  V30 1600 H 157.411 2.94032 -5.35143 0
M  V30 1601 H 158.825 0.694375 -5.69079 0
M  V30 1602 H 157.222 -0.0335027 -6.00091 0
M  V30 1603 H 158.292 -0.760961 -4.78892 0
M  V30 1604 N 159.635 1.57281 -0.100228 0
M  V30 1605 C 160.585 2.10848 0.86759 0
M  V30 1606 C 161.569 1.02473 1.24049 0
M  V30 1607 O 162.761 1.28739 1.21471 0
M  V30 1608 C 159.89 2.69648 2.12474 0
M  V30 1609 C 158.976 3.85074 1.77704 0
M  V30 1610 N 159.367 4.92897 1.13518 0
M  V30 1611 C 157.665 3.94905 2.07282 0
M  V30 1612 C 158.366 5.73475 0.974735 0
M  V30 1613 N 157.342 5.22675 1.4937 0
M  V30 1614 H 161.144 2.91594 0.367471 0
M  V30 1615 H 158.658 1.62074 0.102829 0
M  V30 1616 H 160.655 3.06356 2.82757 0
M  V30 1617 H 159.315 1.90359 2.63047 0
M  V30 1618 H 160.326 5.11662 0.801381 0
M  V30 1619 H 157.003 3.26633 2.60033 0
M  V30 1620 H 158.393 6.70238 0.472364 0
M  V30 1621 N 161.113 -0.173488 1.56642 0
M  V30 1622 C 162.338 -0.910149 1.86363 0
M  V30 1623 C 162.763 -1.75132 0.686318 0
M  V30 1624 O 162.121 -1.77595 -0.364643 0
M  V30 1625 C 162.169 -1.76447 3.14482 0
M  V30 1626 O 161.273 -2.86584 2.96553 0
M  V30 1627 H 160.614 -0.255086 0.613047 0
M  V30 1628 H 163.144 -0.172283 2.03873 0
M  V30 1629 H 163.154 -2.16483 3.45831 0
M  V30 1630 H 161.829 -1.14658 3.99783 0
M  V30 1631 H 160.406 -2.50146 2.76553 0
M  V30 1632 N 162.591 -1.51276 -0.441967 0
M  V30 1633 C 163.521 -1.752 -1.54361 0
M  V30 1634 C 164.502 -0.601682 -1.59103 0
M  V30 1635 O 165.687 -0.843913 -1.74905 0
M  V30 1636 C 162.817 -1.87282 -2.92477 0
M  V30 1637 C 161.771 -3.02687 -3.02596 0
M  V30 1638 C 161.097 -2.99947 -4.42647 0
M  V30 1639 C 162.397 -4.4273 -2.77106 0
M  V30 1640 H 164.091 -2.67442 -1.34592 0
M  V30 1641 H 161.637 -1.28694 -0.646048 0
M  V30 1642 H 163.59 -2.02602 -3.695 0
M  V30 1643 H 162.314 -0.916844 -3.13467 0
M  V30 1644 H 160.973 -2.87065 -2.28012 0
M  V30 1645 H 160.621 -2.02136 -4.60597 0
M  V30 1646 H 160.321 -3.77439 -4.50348 0
M  V30 1647 H 161.845 -3.17354 -5.2165 0
M  V30 1648 H 163.259 -4.58727 -3.43864 0
M  V30 1649 H 161.656 -5.21893 -2.96222 0
M  V30 1650 H 162.726 -4.53087 -1.72744 0
M  V30 1651 N 164.069 0.697108 -1.41344 0
M  V30 1652 C 165.294 1.49096 -1.44171 0
M  V30 1653 C 165.719 1.88038 -0.0481568 0
M  V30 1654 O 165.077 1.54525 0.948243 0
M  V30 1655 C 165.125 2.73088 -2.3549 0
M  V30 1656 O 164.229 3.70514 -1.81088 0
M  V30 1657 H 163.57 0.448801 -0.489361 0
M  V30 1658 H 166.1 0.856992 -1.85787 0
M  V30 1659 H 166.11 3.21413 -2.51312 0
M  V30 1660 H 164.785 2.44081 -3.36745 0
M  V30 1661 H 163.362 3.29441 -1.74708 0
M  V30 1662 N 165.547 1.27147 0.931209 0
M  V30 1663 C 166.775 1.16082 1.71267 0
M  V30 1664 C 167.19 -0.282772 1.8667 0
M  V30 1665 O 166.547 -1.19283 1.38122 0
M  V30 1666 C 166.598 1.8358 3.11417 0
M  V30 1667 O 166.319 3.22299 2.96741 0
M  V30 1668 C 167.82 1.78597 4.05732 0
M  V30 1669 H 165.04 0.403758 0.535929 0
M  V30 1670 H 167.584 1.67953 1.16671 0
M  V30 1671 H 165.739 1.35623 3.62885 0
M  V30 1672 H 166.153 3.55851 3.85319 0
M  V30 1673 H 167.627 2.30444 5.01597 0
M  V30 1674 H 168.104 0.754564 4.3267 0
M  V30 1675 H 168.71 2.26152 3.60188 0
M  V30 1676 N 167.025 -1.13721 1.09112 0
M  V30 1677 C 168.273 -1.84559 0.823562 0
M  V30 1678 C 168.594 -1.83754 -0.652658 0
M  V30 1679 O 167.864 -1.29102 -1.47342 0
M  V30 1680 H 166.444 -0.683376 0.301673 0
M  V30 1681 H 169.106 -1.37771 1.37859 0
M  V30 1682 H 168.202 -2.8917 1.17419 0
M  V30 1683 N 168.503 -0.877838 -1.30888 0
M  V30 1684 C 169.919 -0.570844 -1.49042 0
M  V30 1685 C 170.119 0.893159 -1.80624 0
M  V30 1686 O 169.175 1.67485 -1.88958 0
M  V30 1687 C 170.488 -1.47784 -2.61878 0
M  V30 1688 C 172.036 -1.48071 -2.75761 0
M  V30 1689 C 172.511 -2.37347 -3.91702 0
M  V30 1690 N 174.002 -2.35271 -3.99001 0
M  V30 1691 C 174.737 -3.01063 -4.88004 0
M  V30 1692 N 174.233 -3.76055 -5.81854 0
M  V30 1693 N 176.026 -2.90332 -4.81315 0
M  V30 1694 H 168.177 -1.82502 -1.0866 0
M  V30 1695 H 170.44 -0.780797 -0.537644 0
M  V30 1696 H 170.146 -2.51993 -2.45341 0
M  V30 1697 H 170.02 -1.18215 -3.58197 0
M  V30 1698 H 172.407 -0.446166 -2.91708 0
M  V30 1699 H 172.488 -1.81668 -1.80085 0
M  V30 1700 H 172.132 -3.40883 -3.76512 0
M  V30 1701 H 172.062 -2.01071 -4.86701 0
M  V30 1702 H 174.553 -1.80768 -3.3186 0
M  V30 1703 H 174.866 -4.23366 -6.46514 0
M  V30 1704 H 173.211 -3.80163 -5.81808 0
M  V30 1705 H 176.402 -2.31278 -4.06974 0
M  V30 1706 H 176.575 -3.41885 -5.50471 0
M  V30 1707 N 169.982 1.44106 -0.638065 0
M  V30 1708 C 170.912 2.33448 0.0494287 0
M  V30 1709 C 171.893 1.48606 0.827672 0
M  V30 1710 O 173.078 1.77308 0.792173 0
M  V30 1711 C 170.208 3.31771 1.02691 0
M  V30 1712 C 169.162 4.26485 0.359823 0
M  V30 1713 C 168.488 5.14729 1.44769 0
M  V30 1714 C 169.788 5.17056 -0.738296 0
M  V30 1715 H 171.482 2.91183 -0.696636 0
M  V30 1716 H 169.028 1.40014 -0.336456 0
M  V30 1717 H 170.981 3.93161 1.51666 0
M  V30 1718 H 169.705 2.7226 1.80395 0
M  V30 1719 H 168.364 3.66437 -0.10934 0
M  V30 1720 H 168.012 4.51566 2.21578 0
M  V30 1721 H 167.712 5.78913 1.00668 0
M  V30 1722 H 169.236 5.78991 1.93911 0
M  V30 1723 H 170.65 5.72342 -0.331354 0
M  V30 1724 H 169.047 5.89879 -1.10286 0
M  V30 1725 H 170.117 4.57652 -1.60258 0
M  V30 1726 N 171.46 0.379036 1.52974 0
M  V30 1727 C 172.871 -0.0972525 1.86447 0
M  V30 1728 C 173.222 -1.47027 1.29914 0
M  V30 1729 O 172.347 -2.07135 0.626433 0
M  V30 1730 C 172.942 -0.183248 3.38304 0
M  V30 1731 C 171.501 -0.603812 3.71525 0
M  V30 1732 C 170.648 0.240632 2.76254 0
M  V30 1733 H 173.599 0.597316 1.4703 0
M  V30 1734 H 173.62 -1.00432 3.67006 0
M  V30 1735 H 173.132 0.816191 3.79421 0
M  V30 1736 H 171.233 -1.61099 3.35973 0
M  V30 1737 H 171.346 -0.369086 4.77676 0
M  V30 1738 H 169.71 -0.292548 2.53014 0
M  V30 1739 H 170.493 1.23786 3.20206 0
M  V30 1740 N 172.938 -1.57226 0.108567 0
M  V30 1741 C 174.354 -1.5766 -0.248058 0
M  V30 1742 C 174.554 -1.12063 -1.67464 0
M  V30 1743 O 173.61 -0.803236 -2.39383 0
M  V30 1744 C 174.923 -3.0069 -0.0242287 0
M  V30 1745 C 176.471 -3.12868 -0.0909372 0
M  V30 1746 C 176.946 -4.57879 0.105067 0
M  V30 1747 N 178.437 -4.63172 0.0506846 0
M  V30 1748 C 179.172 -5.73126 0.177396 0
M  V30 1749 N 178.668 -6.91866 0.359696 0
M  V30 1750 N 180.461 -5.61977 0.117709 0
M  V30 1751 H 172.612 -1.85169 1.04049 0
M  V30 1752 H 174.875 -0.85529 0.40888 0
M  V30 1753 H 174.581 -3.38299 0.961604 0
M  V30 1754 H 174.455 -3.6945 -0.76068 0
M  V30 1755 H 176.842 -2.75124 -1.06729 0
M  V30 1756 H 176.923 -2.46672 0.677225 0
M  V30 1757 H 176.567 -4.96321 1.07834 0
M  V30 1758 H 176.497 -5.22153 -0.682954 0
M  V30 1759 H 178.988 -3.778 -0.0871266 0
M  V30 1760 H 179.301 -7.71503 0.447529 0
M  V30 1761 H 177.646 -6.93874 0.395536 0
M  V30 1762 H 180.837 -4.68094 -0.0236741 0
M  V30 1763 H 181.01 -6.47627 0.219905 0
M  V30 1764 N 174.416 0.165178 -1.56732 0
M  V30 1765 C 175.662 0.882112 -1.82611 0
M  V30 1766 C 175.995 1.81628 -0.687378 0
M  V30 1767 O 175.27 1.92009 0.310267 0
M  V30 1768 C 175.553 1.67245 -3.18906 0
M  V30 1769 C 175.406 0.760987 -4.43316 0
M  V30 1770 C 176.725 2.63884 -3.52212 0
M  V30 1771 H 173.844 0.319242 -0.664269 0
M  V30 1772 H 176.486 0.148052 -1.89422 0
M  V30 1773 H 174.636 2.29824 -3.1323 0
M  V30 1774 H 176.308 0.147596 -4.61064 0
M  V30 1775 H 174.551 0.0694102 -4.33744 0
M  V30 1776 H 175.222 1.34962 -5.35247 0
M  V30 1777 H 177.698 2.11429 -3.58381 0
M  V30 1778 H 176.574 3.16245 -4.48643 0
M  V30 1779 H 176.835 3.44377 -2.77231 0
M  V30 1780 N 175.894 1.51508 0.433938 0
M  V30 1781 C 177.14 1.64588 1.18484 0
M  V30 1782 C 177.473 0.362666 1.90784 0
M  V30 1783 O 176.748 -0.637892 1.83742 0
M  V30 1784 C 177.031 2.85149 2.19913 0
M  V30 1785 C 176.884 4.23456 1.51674 0
M  V30 1786 C 178.203 3.01227 3.20858 0
M  V30 1787 H 175.322 0.598994 0.429389 0
M  V30 1788 H 177.964 1.84002 0.473647 0
M  V30 1789 H 176.114 2.68729 2.80566 0
M  V30 1790 H 177.786 4.51552 0.943322 0
M  V30 1791 H 176.029 4.25998 0.819035 0
M  V30 1792 H 176.7 5.03812 2.2556 0
M  V30 1793 H 179.176 3.16382 2.70263 0
M  V30 1794 H 178.052 3.87141 3.89118 0
M  V30 1795 H 178.313 2.13447 3.8716 0
M  V30 1796 N 177.372 -0.689602 1.41712 0
M  V30 1797 C 178.6 -1.47827 1.44758 0
M  V30 1798 C 179.015 -1.88721 0.0545703 0
M  V30 1799 O 178.372 -1.57176 -0.927463 0
M  V30 1800 C 178.423 -2.73698 2.3616 0
M  V30 1801 O 178.144 -2.34524 3.7004 0
M  V30 1802 C 179.645 -3.67389 2.48072 0
M  V30 1803 H 176.865 -0.455357 0.49284 0
M  V30 1804 H 179.409 -0.848574 1.86063 0
M  V30 1805 H 177.564 -3.32891 1.98148 0
M  V30 1806 H 177.978 -3.15701 4.18847 0
M  V30 1807 H 179.452 -4.52475 3.16181 0
M  V30 1808 H 179.929 -4.12284 1.51388 0
M  V30 1809 H 180.535 -3.14097 2.86746 0
M  V30 1810 N 178.85 -1.27639 -0.924453 0
M  V30 1811 C 179.813 -1.10681 -2.00705 0
M  V30 1812 C 180.813 -0.0497823 -1.60723 0
M  V30 1813 O 182.003 -0.294654 -1.7169 0
M  V30 1814 C 179.135 -0.687164 -3.33902 0
M  V30 1815 H 180.328 -2.06817 -2.17179 0
M  V30 1816 H 177.881 -1.10473 -1.10569 0
M  V30 1817 H 178.616 0.275439 -3.23128 0
M  V30 1818 H 178.401 -1.45061 -3.6428 0
M  V30 1819 H 179.891 -0.590853 -4.13399 0
M  V30 1820 N 180.328 1.1314 -1.09713 0
M  V30 1821 C 181.276 2.20717 -0.733934 0
M  V30 1822 C 182.27 1.6729 0.266506 0
M  V30 1823 O 183.476 1.79547 0.127656 0
M  V30 1824 H 179.851 0.719292 -0.21937 0
M  V30 1825 H 181.822 2.48611 -1.6503 0
M  V30 1826 C 180.571 3.47265 -0.173849 0
M  V30 1827 H 179.894 3.88716 -0.934873 0
M  V30 1828 H 181.334 4.23979 0.0423126 0
M  V30 1829 C 179.793 3.18724 1.09164 0
M  V30 1830 O 180.323 3.37762 2.17439 0
M  V30 1831 N 178.529 2.72583 1.00732 0
M  V30 1832 H 178.076 2.57291 0.126121 0
M  V30 1833 H 178.034 2.53862 1.85476 0
M  V30 1834 N 181.806 0.884767 1.30421 0
M  V30 1835 C 183.222 0.57874 1.48737 0
M  V30 1836 C 183.422 -0.883567 1.81095 0
M  V30 1837 O 182.478 -1.6648 1.89844 0
M  V30 1838 C 183.791 1.49171 2.61091 0
M  V30 1839 C 185.339 1.49532 2.74971 0
M  V30 1840 C 185.814 2.39421 3.90438 0
M  V30 1841 N 187.305 2.37383 3.97748 0
M  V30 1842 C 188.04 3.03647 4.86401 0
M  V30 1843 N 187.536 3.79136 5.79852 0
M  V30 1844 N 189.329 2.9288 4.79768 0
M  V30 1845 H 181.48 1.83075 1.0769 0
M  V30 1846 H 183.743 0.783637 0.533495 0
M  V30 1847 H 183.449 2.53291 2.44001 0
M  V30 1848 H 183.323 1.20113 3.57565 0
M  V30 1849 H 185.71 0.46163 2.91467 0
M  V30 1850 H 185.791 1.8262 1.79119 0
M  V30 1851 H 185.435 3.42874 3.74699 0
M  V30 1852 H 185.365 2.03649 4.85628 0
M  V30 1853 H 187.856 1.82525 3.30897 0
M  V30 1854 H 188.169 4.26789 6.4426 0
M  V30 1855 H 186.514 3.83243 5.79784 0
M  V30 1856 H 189.705 2.33433 4.05742 0
M  V30 1857 H 189.878 3.448 5.4865 0
M  V30 1858 N 183.284 -1.43765 0.645699 0
M  V30 1859 C 184.217 -2.2798 -0.100072 0
M  V30 1860 C 185.195 -1.39391 -0.837194 0
M  V30 1861 O 186.379 -1.68833 -0.838306 0
M  V30 1862 C 183.506 -3.18643 -1.14823 0
M  V30 1863 C 182.552 -4.2344 -0.510009 0
M  V30 1864 S 183.385 -5.30761 0.710824 0
M  V30 1865 C 184.541 -6.24992 -0.33699 0
M  V30 1866 H 184.774 -2.90884 0.614322 0
M  V30 1867 H 182.307 -1.48166 0.434304 0
M  V30 1868 H 184.265 -3.71424 -1.74799 0
M  V30 1869 H 182.926 -2.54932 -1.8349 0
M  V30 1870 H 182.119 -4.86948 -1.29991 0
M  V30 1871 H 181.721 -3.73997 0.0154577 0
M  V30 1872 H 184.013 -6.66691 -1.20537 0
M  V30 1873 H 184.956 -7.07612 0.262879 0
M  V30 1874 H 185.364 -5.60517 -0.669425 0
M  V30 1875 N 184.763 -0.387143 -1.52771 0
M  V30 1876 C 185.693 0.440551 -2.29306 0
M  V30 1877 C 186.674 1.06535 -1.32606 0
M  V30 1878 O 187.859 1.07853 -1.61497 0
M  V30 1879 C 184.989 1.56919 -3.09829 0
M  V30 1880 C 183.943 1.07054 -4.14395 0
M  V30 1881 C 183.269 2.29109 -4.83129 0
M  V30 1882 C 184.569 0.140015 -5.22112 0
M  V30 1883 H 186.263 -0.198026 -2.98744 0
M  V30 1884 H 183.809 -0.09668 -1.43675 0
M  V30 1885 H 185.762 2.15503 -3.62128 0
M  V30 1886 H 184.486 2.23532 -2.3812 0
M  V30 1887 H 183.145 0.507247 -3.63074 0
M  V30 1888 H 182.793 2.94227 -4.0797 0
M  V30 1889 H 182.493 1.96406 -5.53804 0
M  V30 1890 H 184.017 2.88339 -5.38231 0
M  V30 1891 H 185.431 0.633978 -5.69784 0
M  V30 1892 H 183.828 -0.0971485 -6.00021 0
M  V30 1893 H 184.898 -0.811711 -4.78058 0
M  V30 1894 N 186.241 1.57166 -0.116904 0
M  V30 1895 C 187.188 2.15202 0.83408 0
M  V30 1896 C 188.158 1.07644 1.26499 0
M  V30 1897 O 189.343 1.35541 1.34288 0
M  V30 1898 C 186.483 2.75405 2.07957 0
M  V30 1899 C 185.596 3.97264 1.69721 0
M  V30 1900 C 184.731 4.45561 2.89221 0
M  V30 1901 C 183.77 5.59956 2.47215 0
M  V30 1902 N 182.907 6.03006 3.59622 0
M  V30 1903 H 187.747 2.96141 0.332335 0
M  V30 1904 H 185.284 1.46309 0.152349 0
M  V30 1905 H 187.242 3.08439 2.80929 0
M  V30 1906 H 185.872 1.97159 2.55594 0
M  V30 1907 H 184.924 3.70404 0.866316 0
M  V30 1908 H 186.236 4.80226 1.34849 0
M  V30 1909 H 185.39 4.80493 3.7042 0
M  V30 1910 H 184.129 3.61544 3.27318 0
M  V30 1911 H 183.134 5.2463 1.64448 0
M  V30 1912 H 184.359 6.45738 2.10238 0
M  V30 1913 H 182.305 5.21931 3.97396 0
M  V30 1914 H 182.222 6.80819 3.28667 0
M  V30 1915 H 183.49 6.42576 4.41267 0
M  V30 1916 N 187.719 -0.156864 1.56817 0
M  V30 1917 C 188.651 -1.21883 1.94106 0
M  V30 1918 C 189.664 -1.3971 0.835754 0
M  V30 1919 O 190.853 -1.39457 1.11418 0
M  V30 1920 C 187.953 -2.58527 2.19127 0
M  V30 1921 C 187.126 -2.61809 3.50393 0
M  V30 1922 C 186.185 -3.7992 3.64071 0
M  V30 1923 O 185.211 -3.65249 4.36557 0
M  V30 1924 N 186.413 -4.96973 2.99997 0
M  V30 1925 H 189.178 -0.901974 2.85805 0
M  V30 1926 H 186.739 -0.346513 1.58148 0
M  V30 1927 H 188.731 -3.36034 2.25529 0
M  V30 1928 H 187.301 -2.82545 1.33742 0
M  V30 1929 H 186.521 -1.7029 3.5552 0
M  V30 1930 H 187.809 -2.61024 4.36742 0
M  V30 1931 H 187.207 -5.11794 2.41004 0
M  V30 1932 H 185.764 -5.7229 3.11974 0
M  V30 1933 N 189.197 -1.51736 -0.425897 0
M  V30 1934 C 190.13 -1.68574 -1.53812 0
M  V30 1935 C 191.108 -0.53328 -1.53606 0
M  V30 1936 O 192.292 -0.758555 -1.72564 0
M  V30 1937 C 189.419 -1.70977 -2.92377 0
M  V30 1938 C 188.465 -2.92324 -3.10563 0
M  V30 1939 S 189.298 -4.52952 -2.85648 0
M  V30 1940 C 190.454 -4.58117 -4.26474 0
M  V30 1941 H 190.687 -2.62647 -1.39298 0
M  V30 1942 H 188.22 -1.41564 -0.616361 0
M  V30 1943 H 190.178 -1.73047 -3.72243 0
M  V30 1944 H 188.839 -0.78061 -3.04245 0
M  V30 1945 H 188.032 -2.90439 -4.11899 0
M  V30 1946 H 187.634 -2.88055 -2.38538 0
M  V30 1947 H 189.926 -4.34462 -5.19855 0
M  V30 1948 H 190.869 -5.59983 -4.33388 0
M  V30 1949 H 191.277 -3.8732 -4.10662 0
M  V30 1950 N 190.675 0.682077 -1.42076 0
M  V30 1951 C 191.605 1.80796 -1.47767 0
M  V30 1952 C 192.586 1.6677 -0.334954 0
M  V30 1953 O 193.771 1.863 -0.548264 0
M  V30 1954 C 190.901 3.19038 -1.37229 0
M  V30 1955 C 189.855 3.47789 -2.49453 0
M  V30 1956 C 189.181 4.8553 -2.23975 0
M  V30 1957 C 190.481 3.45411 -3.91776 0
M  V30 1958 H 192.175 1.7629 -2.41997 0
M  V30 1959 H 189.721 0.846721 -1.16476 0
M  V30 1960 H 191.674 3.97528 -1.39821 0
M  V30 1961 H 190.398 3.24204 -0.394907 0
M  V30 1962 H 189.057 2.71657 -2.46166 0
M  V30 1963 H 188.705 4.87337 -1.24547 0
M  V30 1964 H 188.405 5.0573 -2.99184 0
M  V30 1965 H 189.929 5.66312 -2.28304 0
M  V30 1966 H 191.343 4.13882 -3.96705 0
M  V30 1967 H 189.74 3.77145 -4.66778 0
M  V30 1968 H 190.81 2.44122 -4.18966 0
M  V30 1969 N 192.153 1.28127 0.917671 0
M  V30 1970 C 193.4 1.15052 1.66641 0
M  V30 1971 C 193.728 -0.301677 1.92146 0
M  V30 1972 O 192.983 -1.23622 1.51711 0
M  V30 1973 C 193.282 1.89018 3.03327 0
M  V30 1974 C 192.948 3.38832 2.97496 0
M  V30 1975 C 191.61 3.79693 2.95613 0
M  V30 1976 C 193.962 4.34378 2.88036 0
M  V30 1977 C 191.29 5.14447 2.82066 0
M  V30 1978 C 193.642 5.69201 2.7603 0
M  V30 1979 C 192.306 6.09343 2.72502 0
M  V30 1980 H 191.576 0.421006 0.609783 0
M  V30 1981 H 194.223 1.58855 1.06945 0
M  V30 1982 H 192.528 1.37752 3.66785 0
M  V30 1983 H 194.225 1.76321 3.60156 0
M  V30 1984 H 190.815 3.06342 2.99754 0
M  V30 1985 H 194.999 4.03775 2.88581 0
M  V30 1986 H 190.255 5.44681 2.77728 0
M  V30 1987 H 194.429 6.42901 2.67678 0
M  V30 1988 H 192.056 7.13712 2.61762 0
M  V30 1989 N 193.631 -1.12557 1.10312 0
M  V30 1990 C 195.047 -1.36036 0.834649 0
M  V30 1991 C 195.247 -1.93946 -0.546539 0
M  V30 1992 O 194.303 -2.16484 -1.29966 0
M  V30 1993 C 195.616 -2.30312 1.9333 0
M  V30 1994 C 197.164 -2.43906 1.9616 0
M  V30 1995 C 197.639 -3.41496 3.05195 0
M  V30 1996 N 199.13 -3.49053 3.04494 0
M  V30 1997 C 199.865 -4.24471 3.85502 0
M  V30 1998 N 199.361 -5.02966 4.76442 0
M  V30 1999 N 201.154 -4.19864 3.73725 0
M  V30 2000 H 193.305 -0.733246 1.99342 0
M  V30 2001 H 195.568 -0.385234 0.866198 0
M  V30 2002 H 195.274 -1.94933 2.92735 0
M  V30 2003 H 195.148 -3.30421 1.81939 0
M  V30 2004 H 197.535 -2.78567 0.973886 0
M  V30 2005 H 197.616 -1.4369 2.11629 0
M  V30 2006 H 197.26 -3.07565 4.04186 0
M  V30 2007 H 197.19 -4.41539 2.86968 0
M  V30 2008 H 199.681 -2.93053 2.38596 0
M  V30 2009 H 199.994 -5.57846 5.34815 0
M  V30 2010 H 198.339 -5.02167 4.80472 0
M  V30 2011 H 201.53 -3.57623 3.02032 0
M  V30 2012 H 201.703 -4.78386 4.37093 0
M  V30 2013 N 195.109 -0.891671 -1.2995 0
M  V30 2014 C 196.339 -0.527893 -1.99742 0
M  V30 2015 C 196.747 0.88979 -1.66971 0
M  V30 2016 O 196.09 1.59766 -0.906667 0
M  V30 2017 C 196.152 -0.630804 -3.53922 0
M  V30 2018 C 195.816 -2.01401 -4.10228 0
M  V30 2019 C 196.813 -2.98422 -4.25724 0
M  V30 2020 C 194.498 -2.32121 -4.45449 0
M  V30 2021 C 196.492 -4.24293 -4.75662 0
M  V30 2022 C 194.179 -3.58237 -4.95086 0
M  V30 2023 C 195.177 -4.54137 -5.10146 0
M  V30 2024 O 194.865 -5.78014 -5.58708 0
M  V30 2025 H 194.597 -0.201953 -0.645129 0
M  V30 2026 H 197.151 -1.20076 -1.66646 0
M  V30 2027 H 195.381 0.0990616 -3.86573 0
M  V30 2028 H 197.07 -0.277338 -4.04951 0
M  V30 2029 H 197.836 -2.76001 -3.98809 0
M  V30 2030 H 193.715 -1.5824 -4.32991 0
M  V30 2031 H 197.259 -4.99153 -4.87332 0
M  V30 2032 H 193.156 -3.80491 -5.21437 0
M  V30 2033 H 193.924 -5.8049 -5.77039 0
M  V30 2034 N 196.587 1.43421 -0.653314 0
M  V30 2035 C 197.519 2.29071 0.0769134 0
M  V30 2036 C 198.532 1.42513 0.787017 0
M  V30 2037 O 199.721 1.66449 0.644757 0
M  V30 2038 C 196.821 3.19436 1.13199 0
M  V30 2039 C 195.994 4.34533 0.500006 0
M  V30 2040 C 195.053 5.05771 1.45198 0
M  V30 2041 O 194.079 5.61037 0.960538 0
M  V30 2042 N 195.281 5.0928 2.78594 0
M  V30 2043 H 198.046 2.92382 -0.658235 0
M  V30 2044 H 195.607 1.54112 -0.496104 0
M  V30 2045 H 197.599 3.63958 1.76964 0
M  V30 2046 H 196.169 2.57724 1.7691 0
M  V30 2047 H 195.389 3.92925 -0.316738 0
M  V30 2048 H 196.677 5.08766 0.0588345 0
M  V30 2049 H 196.075 4.65751 3.2108 0
M  V30 2050 H 194.632 5.57519 3.37662 0
M  V30 2051 N 198.065 0.39524 1.52563 0
M  V30 2052 C 199.313 -0.184678 2.01254 0
M  V30 2053 C 199.634 -1.46822 1.28329 0
M  V30 2054 O 198.904 -1.91666 0.405094 0
M  V30 2055 H 197.484 -0.0712355 0.743596 0
M  V30 2056 H 200.146 0.528293 1.87603 0
M  V30 2057 H 199.242 -0.390681 3.09645 0
M  V30 2058 N 199.544 -1.57102 0.125237 0
M  V30 2059 C 200.774 -1.99472 -0.538015 0
M  V30 2060 C 201.182 -1.00395 -1.60366 0
M  V30 2061 O 200.525 0.0103875 -1.83697 0
M  V30 2062 C 200.587 -3.38262 -1.21734 0
M  V30 2063 C 200.251 -4.56021 -0.298897 0
M  V30 2064 C 201.248 -5.17817 0.464943 0
M  V30 2065 C 198.933 -5.01869 -0.208149 0
M  V30 2066 C 200.927 -6.23852 1.3072 0
M  V30 2067 C 198.614 -6.07763 0.637736 0
M  V30 2068 C 199.612 -6.68622 1.39403 0
M  V30 2069 O 199.3 -7.7247 2.22586 0
M  V30 2070 H 199.032 -0.659934 -0.146501 0
M  V30 2071 H 201.586 -2.04321 0.210267 0
M  V30 2072 H 199.816 -3.30185 -2.01282 0
M  V30 2073 H 201.505 -3.6488 -1.77813 0
M  V30 2074 H 202.271 -4.83308 0.404741 0
M  V30 2075 H 198.15 -4.54241 -0.786522 0
M  V30 2076 H 201.694 -6.71284 1.898 0
M  V30 2077 H 197.591 -6.41701 0.699309 0
M  V30 2078 H 198.359 -7.89595 2.15596 0
M  V30 2079 N 201.022 0.148545 -1.56898 0
M  V30 2080 C 202.271 0.85984 -1.82454 0
M  V30 2081 C 202.584 1.82406 -0.706229 0
M  V30 2082 O 203.79 2.57938 -0.847349 0
M  V30 2083 C 202.246 1.57967 -3.2338 0
M  V30 2084 C 201.854 0.65794 -4.43142 0
M  V30 2085 C 203.598 2.27784 -3.58211 0
M  V30 2086 C 201.505 1.3793 -5.75091 0
M  V30 2087 H 200.435 0.324834 -0.68044 0
M  V30 2088 H 203.086 0.112588 -1.83154 0
M  V30 2089 H 201.468 2.37249 -3.17063 0
M  V30 2090 H 202.642 -0.0995497 -4.60692 0
M  V30 2091 H 200.957 0.0682643 -4.16344 0
M  V30 2092 H 203.554 2.8239 -4.54048 0
M  V30 2093 H 203.897 3.04204 -2.84193 0
M  V30 2094 H 204.43 1.55421 -3.66182 0
M  V30 2095 H 201.169 0.656982 -6.52199 0
M  V30 2096 H 200.689 2.10954 -5.61479 0
M  V30 2097 H 202.368 1.92063 -6.17835 0
M  V30 2098 N 202.5 1.5196 0.417844 0
M  V30 2099 C 203.748 1.65263 1.16329 0
M  V30 2100 C 204.069 0.380634 1.91249 0
M  V30 2101 O 203.339 -0.604214 1.86349 0
M  V30 2102 H 201.919 0.60912 0.432414 0
M  V30 2103 H 204.581 1.88969 0.477162 0
M  V30 2104 H 203.677 2.4896 1.88217 0
M  V30 2105 N 203.978 -0.674533 1.42435 0
M  V30 2106 C 204.941 -1.76986 1.45632 0
M  V30 2107 C 205.941 -1.5708 0.343871 0
M  V30 2108 O 207.131 -1.63367 0.604709 0
M  V30 2109 C 204.263 -3.15623 1.28822 0
M  V30 2110 H 205.456 -1.75539 2.43158 0
M  V30 2111 H 203.009 -0.884189 1.28887 0
M  V30 2112 H 203.744 -3.22696 0.322193 0
M  V30 2113 H 203.529 -3.31475 2.09444 0
M  V30 2114 H 205.019 -3.95537 1.33942 0
M  V30 2115 N 205.456 -1.28612 -0.910864 0
M  V30 2116 C 206.419 -1.12803 -1.9952 0
M  V30 2117 C 207.419 -0.0668264 -1.60661 0
M  V30 2118 O 208.609 -0.312847 -1.71368 0
M  V30 2119 C 205.741 -0.72254 -3.33155 0
M  V30 2120 H 206.934 -2.09109 -2.14973 0
M  V30 2121 H 204.487 -1.11639 -1.09391 0
M  V30 2122 H 205.222 0.241152 -3.23402 0
M  V30 2123 H 205.007 -1.48916 -3.62721 0
M  V30 2124 H 206.497 -0.634666 -4.12749 0
M  V30 2125 N 206.934 1.1197 -1.10907 0
M  V30 2126 C 207.864 2.19928 -0.784473 0
M  V30 2127 C 208.845 1.6833 0.244726 0
M  V30 2128 O 210.03 1.93892 0.109418 0
M  V30 2129 C 207.16 3.46597 -0.220827 0
M  V30 2130 C 206.114 4.11376 -1.18127 0
M  V30 2131 C 205.44 5.32554 -0.478594 0
M  V30 2132 C 206.74 4.56945 -2.52979 0
M  V30 2133 H 208.434 2.47337 -1.68715 0
M  V30 2134 H 205.98 1.18879 -0.812642 0
M  V30 2135 H 207.933 4.21396 0.0184278 0
M  V30 2136 H 206.657 3.1863 0.717113 0
M  V30 2137 H 205.316 3.38564 -1.40606 0
M  V30 2138 H 204.964 5.00856 0.463976 0
M  V30 2139 H 204.664 5.76844 -1.11912 0
M  V30 2140 H 206.188 6.10096 -0.248 0
M  V30 2141 H 207.602 5.23093 -2.3462 0
M  V30 2142 H 205.999 5.1203 -3.12962 0
M  V30 2143 H 207.069 3.70676 -3.12614 0
M  V30 2144 N 208.412 0.89855 1.29475 0
M  V30 2145 C 209.658 0.524658 1.95896 0
M  V30 2146 C 209.991 -0.926468 1.70676 0
M  V30 2147 O 209.266 -1.65665 1.01908 0
M  V30 2148 C 209.549 0.81633 3.50725 0
M  V30 2149 C 209.402 2.31907 3.85408 0
M  V30 2150 C 210.721 0.302038 4.39062 0
M  V30 2151 H 207.84 0.19209 0.711527 0
M  V30 2152 H 210.482 1.12502 1.53112 0
M  V30 2153 H 208.632 0.305369 3.87298 0
M  V30 2154 H 210.304 2.89949 3.58786 0
M  V30 2155 H 208.547 2.78027 3.32992 0
M  V30 2156 H 209.218 2.47373 4.93468 0
M  V30 2157 H 211.694 0.739551 4.09475 0
M  V30 2158 H 210.57 0.535331 5.46283 0
M  V30 2159 H 210.831 -0.797216 4.34853 0
M  V30 2160 N 209.89 -1.43072 0.660911 0
M  V30 2161 C 210.82 -2.33497 -0.0122829 0
M  V30 2162 C 211.801 -1.49903 -0.803925 0
M  V30 2163 O 212.986 -1.78546 -0.763864 0
M  V30 2164 C 210.116 -3.33363 -0.973994 0
M  V30 2165 C 209.07 -4.27003 -0.291928 0
M  V30 2166 C 208.396 -5.16967 -1.36562 0
M  V30 2167 C 209.696 -5.15816 0.820462 0
M  V30 2168 H 211.39 -2.90038 0.742873 0
M  V30 2169 H 208.936 -1.39461 0.358688 0
M  V30 2170 H 210.889 -3.95524 -1.45392 0
M  V30 2171 H 209.613 -2.75095 -1.7604 0
M  V30 2172 H 208.272 -3.66217 0.167623 0
M  V30 2173 H 207.92 -4.55034 -2.14366 0
M  V30 2174 H 207.62 -5.80441 -0.914454 0
M  V30 2175 H 209.144 -5.82003 -1.84675 0
M  V30 2176 H 210.558 -5.71742 0.422366 0
M  V30 2177 H 208.955 -5.8805 1.19656 0
M  V30 2178 H 210.025 -4.55045 1.67518 0
M  V30 2179 N 211.368 -0.403325 -1.52352 0
M  V30 2180 C 212.616 0.174003 -2.0135 0
M  V30 2181 C 212.937 1.46139 -1.29106 0
M  V30 2182 O 212.207 1.91448 -0.415253 0
M  V30 2183 H 210.787 0.0672911 -0.743963 0
M  V30 2184 H 213.449 -0.538235 -1.87321 0
M  V30 2185 H 212.545 0.374254 -3.09848 0
M  V30 2186 N 212.846 1.57033 -0.133567 0
M  V30 2187 C 214.094 1.953 0.519848 0
M  V30 2188 C 214.415 1.01866 1.66278 0
M  V30 2189 O 213.685 0.0776513 1.95746 0
M  V30 2190 H 212.265 0.721091 0.195032 0
M  V30 2191 H 214.927 1.93809 -0.205921 0
M  V30 2192 H 214.023 2.98695 0.904854 0
M  V30 2193 N 214.325 -0.140222 1.56975 0
M  V30 2194 C 215.571 -0.852949 1.83991 0
M  V30 2195 C 215.904 -1.80512 0.716187 0
M  V30 2196 O 215.179 -1.92479 -0.279681 0
M  V30 2197 C 215.462 -1.6215 3.21527 0
M  V30 2198 C 215.315 -0.690363 4.4447 0
M  V30 2199 C 216.634 -2.58247 3.56366 0
M  V30 2200 H 213.753 -0.308634 0.669264 0
M  V30 2201 H 216.395 -0.117898 1.89634 0
M  V30 2202 H 214.545 -2.24812 3.16847 0
M  V30 2203 H 216.217 -0.0742264 4.6124 0
M  V30 2204 H 214.46 -0.000396433 4.338 0
M  V30 2205 H 215.131 -1.2643 5.37326 0
M  V30 2206 H 217.607 -2.05701 3.61699 0
M  V30 2207 H 216.483 -3.09067 4.53617 0
M  V30 2208 H 216.744 -3.39923 2.82674 0
M  V30 2209 N 215.803 -1.52179 -0.40978 0
M  V30 2210 C 217.08 -1.56769 -1.16974 0
M  V30 2211 C 217.46 -0.348322 -2.08206 0
M  V30 2212 O 216.808 0.664862 -2.18613 0
M  V30 2213 C 217.018 -2.89603 -1.9476 0
M  V30 2214 C 218.366 -3.42579 -2.50849 0
M  V30 2215 O 219.39 -2.91338 -2.04941 0
M  V30 2216 O 218.249 -4.32054 -3.34652 0
M  V30 2217 H 215.343 -0.631439 -0.534054 0
M  V30 2218 H 217.889 -1.64507 -0.416613 0
M  V30 2219 H 216.661 -3.698 -1.27921 0
M  V30 2220 H 216.284 -2.85155 -2.77079 0
M  V30 2221 N 217.281 0.66697 -1.42791 0
M  V30 2222 C 218.527 1.4291 -1.43891 0
M  V30 2223 C 218.86 1.94114 -0.0578972 0
M  V30 2224 O 218.135 1.71414 0.91911 0
M  V30 2225 C 218.418 2.62049 -2.46987 0
M  V30 2226 C 218.271 2.16426 -3.94309 0
M  V30 2227 C 219.59 3.64266 -2.46978 0
M  V30 2228 H 216.709 0.518306 -0.523954 0
M  V30 2229 H 219.351 0.757321 -1.74255 0
M  V30 2230 H 217.501 3.19361 -2.21225 0
M  V30 2231 H 219.173 1.64221 -4.31079 0
M  V30 2232 H 217.416 1.47925 -4.078 0
M  V30 2233 H 218.087 3.02038 -4.62036 0
M  V30 2234 H 220.563 3.16686 -2.69906 0
M  V30 2235 H 219.439 4.45196 -3.21079 0
M  V30 2236 H 219.7 4.15927 -1.49857 0
M  V30 2237 N 218.759 1.29093 0.90403 0
M  V30 2238 C 219.987 1.19689 1.68766 0
M  V30 2239 C 220.402 -0.243113 1.87228 0
M  V30 2240 O 219.759 -1.16326 1.40621 0
M  V30 2241 C 219.81 1.90144 3.07453 0
M  V30 2242 O 219.531 3.2852 2.89838 0
M  V30 2243 C 221.032 1.87162 4.01852 0
M  V30 2244 H 218.252 0.415035 0.527244 0
M  V30 2245 H 220.796 1.7039 1.13082 0
M  V30 2246 H 218.951 1.43289 3.59926 0
M  V30 2247 H 219.365 3.63944 3.77684 0
M  V30 2248 H 220.839 2.41032 4.96596 0
M  V30 2249 H 221.316 0.84617 4.30972 0
M  V30 2250 H 221.922 2.33741 3.5531 0
M  V30 2251 N 220.237 -1.11381 1.11499 0
M  V30 2252 C 221.485 -1.8277 0.862524 0
M  V30 2253 C 221.806 -1.85097 -0.613534 0
M  V30 2254 O 221.076 -1.32198 -1.4457 0
M  V30 2255 H 219.656 -0.676823 0.316101 0
M  V30 2256 H 222.318 -1.34816 1.4075 0
M  V30 2257 H 221.414 -2.86614 1.23527 0
M  V30 2258 N 221.715 -0.905404 -1.28997 0
M  V30 2259 C 223.126 -0.581953 -1.77398 0
M  V30 2260 C 223.477 0.902552 -1.74208 0
M  V30 2261 O 222.602 1.70584 -1.33154 0
M  V30 2262 C 223.197 -1.04961 -3.22131 0
M  V30 2263 C 221.756 -0.777229 -3.68288 0
M  V30 2264 C 220.903 -1.22109 -2.48967 0
M  V30 2265 H 223.854 -1.08754 -1.15578 0
M  V30 2266 H 223.875 -0.387387 -3.78523 0
M  V30 2267 H 223.387 -2.13008 -3.24421 0
M  V30 2268 H 221.488 0.290383 -3.71467 0
M  V30 2269 H 221.601 -1.37911 -4.58822 0
M  V30 2270 H 219.965 -0.639971 -2.46529 0
M  V30 2271 H 220.748 -2.30972 -2.53982 0
M  V30 2272 N 223.193 1.4272 -0.668489 0
M  V30 2273 C 224.143 2.27971 0.0363806 0
M  V30 2274 C 225.127 1.40741 0.779794 0
M  V30 2275 O 226.319 1.64245 0.659745 0
M  V30 2276 C 223.448 3.28673 0.991398 0
M  V30 2277 C 222.534 4.23388 0.245658 0
M  V30 2278 N 222.925 5.00267 -0.746069 0
M  V30 2279 C 221.223 4.43355 0.484988 0
M  V30 2280 C 221.924 5.69396 -1.19009 0
M  V30 2281 N 220.9 5.41095 -0.521287 0
M  V30 2282 H 224.702 2.84833 -0.724394 0
M  V30 2283 H 222.216 1.54607 -0.497028 0
M  V30 2284 H 224.213 3.88543 1.51129 0
M  V30 2285 H 222.873 2.73373 1.75207 0
M  V30 2286 H 223.884 5.05525 -1.12537 0
M  V30 2287 H 220.561 3.99104 1.22565 0
M  V30 2288 H 221.951 6.41083 -2.01153 0
M  V30 2289 N 224.671 0.411399 1.52136 0
M  V30 2290 C 225.601 -0.404015 2.29978 0
M  V30 2291 C 226.582 -1.04412 1.34284 0
M  V30 2292 O 227.767 -1.0527 1.63192 0
M  V30 2293 C 224.897 -1.5197 3.12286 0
M  V30 2294 C 223.851 -1.00448 4.16046 0
M  V30 2295 C 223.177 -2.21393 4.86712 0
M  V30 2296 C 224.477 -0.0569336 5.22269 0
M  V30 2297 H 226.171 0.245529 2.98392 0
M  V30 2298 H 223.717 0.119525 1.43503 0
M  V30 2299 H 225.67 -2.09715 3.6551 0
M  V30 2300 H 224.394 -2.19716 2.41646 0
M  V30 2301 H 223.053 -0.449421 3.63835 0
M  V30 2302 H 222.701 -2.87699 4.12599 0
M  V30 2303 H 222.401 -1.87571 5.56858 0
M  V30 2304 H 223.925 -2.7974 5.4275 0
M  V30 2305 H 225.339 -0.54325 5.7072 0
M  V30 2306 H 223.736 0.192594 5.99791 0
M  V30 2307 H 224.806 0.887663 4.76706 0
M  V30 2308 N 226.149 -1.5696 0.141893 0
M  V30 2309 C 227.379 -2.00031 -0.516828 0
M  V30 2310 C 227.787 -1.02091 -1.59293 0
M  V30 2311 O 227.13 -0.00909657 -1.83698 0
M  V30 2312 C 227.192 -3.39534 -1.1814 0
M  V30 2313 C 226.856 -4.56313 -0.250513 0
M  V30 2314 C 227.853 -5.17295 0.519839 0
M  V30 2315 C 225.538 -5.02061 -0.154907 0
M  V30 2316 C 227.532 -6.2243 1.3733 0
M  V30 2317 C 225.219 -6.07053 0.702161 0
M  V30 2318 C 226.217 -6.67106 1.46487 0
M  V30 2319 O 225.905 -7.70066 2.30767 0
M  V30 2320 H 225.637 -0.661451 -0.139493 0
M  V30 2321 H 228.191 -2.04086 0.231926 0
M  V30 2322 H 226.421 -3.32302 -1.97769 0
M  V30 2323 H 228.11 -3.66745 -1.73933 0
M  V30 2324 H 228.876 -4.82852 0.45598 0
M  V30 2325 H 224.755 -4.5505 -0.7383 0
M  V30 2326 H 228.299 -6.69233 1.96909 0
M  V30 2327 H 224.196 -6.40923 0.76733 0
M  V30 2328 H 224.964 -7.87264 2.23959 0
M  V30 2329 N 227.627 0.131896 -1.57047 0
M  V30 2330 C 228.852 0.860418 -1.8871 0
M  V30 2331 C 229.277 1.73251 -0.73251 0
M  V30 2332 O 228.635 1.785 0.317429 0
M  V30 2333 C 228.683 1.68047 -3.19049 0
M  V30 2334 O 227.787 2.7862 -3.04047 0
M  V30 2335 H 227.128 0.238743 -0.619595 0
M  V30 2336 H 229.658 0.118169 -2.04258 0
M  V30 2337 H 229.668 2.07238 -3.51449 0
M  V30 2338 H 228.343 1.04018 -4.02682 0
M  V30 2339 H 226.92 2.42726 -2.83088 0
M  V30 2340 N 229.106 1.52395 0.401703 0
M  V30 2341 C 230.355 1.66044 1.14509 0
M  V30 2342 C 230.668 0.400216 1.91462 0
M  V30 2343 O 231.874 0.416632 2.68284 0
M  V30 2344 C 230.33 2.93388 2.0845 0
M  V30 2345 C 229.938 4.26545 1.36978 0
M  V30 2346 C 231.682 3.16402 2.83001 0
M  V30 2347 C 229.589 5.45007 2.29611 0
M  V30 2348 H 228.519 0.618562 0.431158 0
M  V30 2349 H 231.17 1.78886 0.40892 0
M  V30 2350 H 229.552 2.74263 2.8565 0
M  V30 2351 H 230.726 4.56179 0.650916 0
M  V30 2352 H 229.041 4.09692 0.74438 0
M  V30 2353 H 231.638 4.02085 3.52465 0
M  V30 2354 H 231.981 2.30943 3.46368 0
M  V30 2355 H 232.514 3.36034 2.12898 0
M  V30 2356 H 229.253 6.32835 1.70879 0
M  V30 2357 H 228.773 5.19702 2.9945 0
M  V30 2358 H 230.452 5.7838 2.89974 0
M  V30 2359 N 230.584 -0.659388 1.43143 0
M  V30 2360 C 231.814 -1.44513 1.47646 0
M  V30 2361 C 232.222 -1.88981 0.0910095 0
M  V30 2362 O 231.565 -1.59702 -0.907789 0
M  V30 2363 C 231.627 -2.71663 2.35456 0
M  V30 2364 C 231.291 -2.49175 3.83094 0
M  V30 2365 C 232.288 -2.1279 4.74359 0
M  V30 2366 C 229.973 -2.63691 4.27519 0
M  V30 2367 C 231.967 -1.9121 6.08044 0
M  V30 2368 C 229.654 -2.41726 5.61259 0
M  V30 2369 C 230.652 -2.0554 6.51339 0
M  V30 2370 O 230.34 -1.838 7.82606 0
M  V30 2371 H 230.072 -0.45064 0.503884 0
M  V30 2372 H 232.626 -0.816248 1.88485 0
M  V30 2373 H 230.856 -3.37089 1.89493 0
M  V30 2374 H 232.545 -3.33595 2.31235 0
M  V30 2375 H 233.311 -2.01157 4.41317 0
M  V30 2376 H 229.19 -2.90832 3.57684 0
M  V30 2377 H 232.734 -1.62889 6.78316 0
M  V30 2378 H 228.631 -2.52959 5.9387 0
M  V30 2379 H 229.399 -1.98275 7.94122 0
M  V30 2380 N 232.062 -1.29571 -0.897171 0
M  V30 2381 C 233.473 -1.15964 -1.46319 0
M  V30 2382 C 233.824 0.244267 -1.94674 0
M  V30 2383 O 232.949 1.13998 -1.83939 0
M  V30 2384 C 233.544 -2.09906 -2.65942 0
M  V30 2385 C 232.103 -2.00314 -3.18671 0
M  V30 2386 C 231.25 -2.00687 -1.91363 0
M  V30 2387 H 234.201 -1.42019 -0.708268 0
M  V30 2388 H 234.222 -1.67276 -3.41759 0
M  V30 2389 H 233.734 -3.12075 -2.30718 0
M  V30 2390 H 231.835 -1.01242 -3.58582 0
M  V30 2391 H 231.948 -2.88102 -3.82798 0
M  V30 2392 H 230.312 -1.45319 -2.09175 0
M  V30 2393 H 231.095 -3.04566 -1.58413 0
M  V30 2394 N 233.54 1.10788 -1.12088 0
M  V30 2395 C 234.49 2.15158 -0.754401 0
M  V30 2396 C 235.474 1.59026 0.244846 0
M  V30 2397 O 236.666 1.76927 0.0509097 0
M  V30 2398 C 233.795 3.42677 -0.206657 0
M  V30 2399 C 232.881 4.05751 -1.23398 0
M  V30 2400 N 233.272 4.43582 -2.43041 0
M  V30 2401 C 231.57 4.32764 -1.07848 0
M  V30 2402 C 232.271 4.93085 -3.08613 0
M  V30 2403 N 231.247 4.89664 -2.36072 0
M  V30 2404 H 235.049 2.42195 -1.6649 0
M  V30 2405 H 232.563 1.27872 -1.00112 0
M  V30 2406 H 234.56 4.16834 0.0740646 0
M  V30 2407 H 233.22 3.17101 0.698342 0
M  V30 2408 H 234.231 4.35395 -2.80449 0
M  V30 2409 H 230.908 4.16863 -0.230483 0
M  V30 2410 H 232.298 5.31933 -4.10483 0
M  V30 2411 N 235.018 0.912232 1.28515 0
M  V30 2412 C 236.266 0.543523 1.94654 0
M  V30 2413 C 236.587 -0.9155 1.72173 0
M  V30 2414 O 235.857 -1.64708 1.06058 0
M  V30 2415 H 234.437 0.198017 0.720277 0
M  V30 2416 H 237.099 1.16126 1.56527 0
M  V30 2417 H 236.195 0.736684 3.03281 0
M  V30 2418 N 236.496 -1.42363 0.676048 0
M  V30 2419 C 237.721 -2.06377 0.205705 0
M  V30 2420 C 238.146 -1.50463 -1.12883 0
M  V30 2421 O 237.504 -0.623619 -1.70237 0
M  V30 2422 C 237.552 -3.60277 0.152655 0
M  V30 2423 O 236.656 -4.02935 -0.87845 0
M  V30 2424 H 235.997 -0.655588 0.105359 0
M  V30 2425 H 238.527 -1.82475 0.925412 0
M  V30 2426 H 238.537 -4.07993 -0.0230675 0
M  V30 2427 H 237.212 -4.00346 1.12675 0
M  V30 2428 H 235.789 -3.66764 -0.673668 0
M  V30 2429 N 237.974 -0.419461 -1.51915 0
M  V30 2430 C 239.202 0.152136 -2.0634 0
M  V30 2431 C 239.617 1.37988 -1.28859 0
M  V30 2432 O 238.974 1.79243 -0.343232 0
M  V30 2433 C 239.025 0.492266 -3.58133 0
M  V30 2434 O 238.746 -0.686736 -4.32684 0
M  V30 2435 C 240.247 1.11648 -4.2901 0
M  V30 2436 H 237.467 0.0158325 -0.670813 0
M  V30 2437 H 240.011 -0.593394 -1.95702 0
M  V30 2438 H 238.166 1.18769 -3.68745 0
M  V30 2439 H 238.58 -0.400341 -5.2297 0
M  V30 2440 H 240.054 1.3046 -5.36362 0
M  V30 2441 H 240.531 2.09251 -3.86148 0
M  V30 2442 H 241.137 0.460958 -4.22795 0
M  V30 2443 N 239.452 1.56882 -0.150215 0
M  V30 2444 C 240.729 1.87844 0.545327 0
M  V30 2445 C 241.109 1.0567 1.82749 0
M  V30 2446 O 240.457 0.144442 2.28043 0
M  V30 2447 C 240.667 3.39526 0.80767 0
M  V30 2448 C 242.015 4.08814 1.14703 0
M  V30 2449 O 243.039 3.44723 0.896917 0
M  V30 2450 O 241.898 5.22004 1.61784 0
M  V30 2451 H 238.992 0.778677 0.278553 0
M  V30 2452 H 241.538 1.68666 -0.187068 0
M  V30 2453 H 240.31 3.91173 -0.0996096 0
M  V30 2454 H 239.933 3.64243 1.59413 0
M  V30 2455 N 240.93 -0.123565 1.57115 0
M  V30 2456 C 241.877 -1.15177 2.00007 0
M  V30 2457 C 242.847 -1.41403 0.871454 0
M  V30 2458 O 244.032 -1.53346 1.13533 0
M  V30 2459 C 241.172 -2.47436 2.40561 0
M  V30 2460 C 240.285 -2.28184 3.66819 0
M  V30 2461 C 239.42 -3.53641 3.96373 0
M  V30 2462 C 238.459 -3.29528 5.15827 0
M  V30 2463 N 237.596 -4.47175 5.41275 0
M  V30 2464 H 242.436 -0.779008 2.87638 0
M  V30 2465 H 239.973 -0.373166 1.42288 0
M  V30 2466 H 241.931 -3.24584 2.62109 0
M  V30 2467 H 240.561 -2.82614 1.55978 0
M  V30 2468 H 239.613 -1.41976 3.52912 0
M  V30 2469 H 240.925 -2.0634 4.5412 0
M  V30 2470 H 240.079 -4.39209 4.18545 0
M  V30 2471 H 238.818 -3.78512 3.07538 0
M  V30 2472 H 237.823 -2.42349 4.93505 0
M  V30 2473 H 239.048 -3.06031 6.06236 0
M  V30 2474 H 236.994 -4.72175 4.55397 0
M  V30 2475 H 236.911 -4.28419 6.22891 0
M  V30 2476 H 238.179 -5.3389 5.67963 0
M  V30 2477 N 242.408 -1.52605 -0.393616 0
M  V30 2478 C 243.338 -1.80022 -1.48709 0
M  V30 2479 C 244.319 -0.651995 -1.57108 0
M  V30 2480 O 245.504 -0.89913 -1.72132 0
M  V30 2481 C 242.634 -1.96492 -2.86371 0
M  V30 2482 C 241.588 -3.12161 -2.92813 0
M  V30 2483 C 240.914 -3.13877 -4.3288 0
M  V30 2484 C 242.214 -4.51322 -2.6288 0
M  V30 2485 H 243.908 -2.71589 -1.26015 0
M  V30 2486 H 241.454 -1.30684 -0.604778 0
M  V30 2487 H 243.407 -2.14255 -3.62867 0
M  V30 2488 H 242.131 -1.01611 -3.10391 0
M  V30 2489 H 240.79 -2.94173 -2.18764 0
M  V30 2490 H 240.438 -2.16687 -4.53933 0
M  V30 2491 H 240.138 -3.91576 -4.38112 0
M  V30 2492 H 241.662 -3.33789 -5.1129 0
M  V30 2493 H 243.076 -4.69435 -3.29096 0
M  V30 2494 H 241.473 -5.31053 -2.79468 0
M  V30 2495 H 242.543 -4.58353 -1.58242 0
M  V30 2496 N 243.887 0.651787 -1.4349 0
M  V30 2497 C 245.298 1.233 -1.40193 0
M  V30 2498 C 245.649 1.9591 -0.106727 0
M  V30 2499 O 244.774 2.01316 0.793773 0
M  V30 2500 C 245.369 2.24257 -2.53957 0
M  V30 2501 C 243.928 2.77852 -2.5392 0
M  V30 2502 C 243.075 1.52517 -2.3159 0
M  V30 2503 H 246.026 0.443717 -1.52371 0
M  V30 2504 H 246.047 3.0646 -2.25528 0
M  V30 2505 H 245.559 1.71382 -3.4821 0
M  V30 2506 H 243.66 3.34786 -1.63551 0
M  V30 2507 H 243.773 3.25299 -3.51735 0
M  V30 2508 H 242.137 1.79915 -1.80285 0
M  V30 2509 H 242.92 1.01574 -3.27929 0
M  V30 2510 N 245.365 1.30045 0.890287 0
M  V30 2511 C 246.595 1.21296 1.67245 0
M  V30 2512 C 247.003 -0.227471 1.87828 0
M  V30 2513 O 246.346 -1.16296 1.422 0
M  V30 2514 C 246.408 1.86519 3.07329 0
M  V30 2515 C 246.072 3.35837 3.09939 0
M  V30 2516 C 247.069 4.31915 2.89389 0
M  V30 2517 C 244.754 3.77196 3.31706 0
M  V30 2518 C 246.748 5.67325 2.90552 0
M  V30 2519 C 244.435 5.12725 3.32499 0
M  V30 2520 C 245.433 6.076 3.11947 0
M  V30 2521 O 245.121 7.40655 3.12547 0
M  V30 2522 H 244.853 0.4211 0.528821 0
M  V30 2523 H 247.407 1.72111 1.12103 0
M  V30 2524 H 245.637 1.30228 3.64112 0
M  V30 2525 H 247.326 1.71963 3.67673 0
M  V30 2526 H 248.092 4.01294 2.72375 0
M  V30 2527 H 243.971 3.03796 3.4674 0
M  V30 2528 H 247.515 6.41354 2.74429 0
M  V30 2529 H 243.412 5.42988 3.49047 0
M  V30 2530 H 244.18 7.49577 3.28749 0
M  V30 2531 N 246.843 -1.10192 1.12674 0
M  V30 2532 C 248.089 -1.82475 0.884915 0
M  V30 2533 C 248.422 -1.85093 -0.58773 0
M  V30 2534 O 247.697 -1.3134 -1.43457 0
M  V30 2535 C 247.98 -3.29018 1.46353 0
M  V30 2536 C 247.833 -3.34718 3.00473 0
M  V30 2537 C 249.152 -4.25473 1.12519 0
M  V30 2538 H 246.271 -0.662492 0.322915 0
M  V30 2539 H 248.913 -1.2913 1.39375 0
M  V30 2540 H 247.063 -3.74576 1.03077 0
M  V30 2541 H 248.735 -2.97622 3.52447 0
M  V30 2542 H 246.978 -2.74541 3.35872 0
M  V30 2543 H 247.649 -4.37918 3.36053 0
M  V30 2544 H 250.125 -3.88161 1.499 0
M  V30 2545 H 249.001 -5.26365 1.55663 0
M  V30 2546 H 249.262 -4.42084 0.0377407 0
M  V30 2547 N 248.321 -0.919034 -1.28029 0
M  V30 2548 C 249.549 -0.570971 -1.98866 0
M  V30 2549 C 249.964 0.848996 -1.68634 0
M  V30 2550 O 249.321 1.56307 -0.942036 0
M  V30 2551 C 249.372 -0.776876 -3.53054 0
M  V30 2552 O 249.093 -2.14097 -3.82222 0
M  V30 2553 C 250.594 -0.436356 -4.41147 0
M  V30 2554 H 247.814 -0.217175 -0.634883 0
M  V30 2555 H 250.358 -1.23368 -1.63097 0
M  V30 2556 H 248.513 -0.161085 -3.87065 0
M  V30 2557 H 248.927 -2.18455 -4.76841 0
M  V30 2558 H 250.401 -0.63117 -5.4838 0
M  V30 2559 H 250.878 0.627686 -4.34692 0
M  V30 2560 H 251.484 -1.02991 -4.12641 0
M  V30 2561 N 249.799 1.42003 -0.683588 0
M  V30 2562 C 250.732 2.28166 0.039592 0
M  V30 2563 C 251.71 1.41562 0.799942 0
M  V30 2564 O 252.894 1.70997 0.793248 0
M  V30 2565 C 250.021 3.21575 1.06335 0
M  V30 2566 C 249.067 4.24643 0.397562 0
M  V30 2567 S 249.9 5.2869 -0.851296 0
M  V30 2568 C 251.056 6.25666 0.171166 0
M  V30 2569 H 251.289 2.89153 -0.691229 0
M  V30 2570 H 248.822 1.46962 -0.473435 0
M  V30 2571 H 250.78 3.75928 1.6489 0
M  V30 2572 H 249.441 2.59707 1.76667 0
M  V30 2573 H 248.634 4.90223 1.17035 0
M  V30 2574 H 248.236 3.73824 -0.114611 0
M  V30 2575 H 250.528 6.69653 1.02819 0
M  V30 2576 H 251.471 7.06666 -0.450397 0
M  V30 2577 H 251.879 5.62095 0.520578 0
M  V30 2578 N 251.277 0.427512 1.51691 0
M  V30 2579 C 252.525 -0.141948 2.01601 0
M  V30 2580 C 252.846 -1.44067 1.31414 0
M  V30 2581 O 252.116 -1.90763 0.445658 0
M  V30 2582 H 250.696 -0.0554468 0.744939 0
M  V30 2583 H 253.358 0.567968 1.86441 0
M  V30 2584 H 252.454 -0.324913 3.10404 0
M  V30 2585 N 252.755 -1.56801 0.158532 0
M  V30 2586 C 253.98 -2.01295 -0.499516 0
M  V30 2587 C 254.405 -1.03799 -1.56867 0
M  V30 2588 O 253.763 -0.0155162 -1.81293 0
M  V30 2589 C 253.811 -3.44469 -1.06647 0
M  V30 2590 O 252.915 -3.50012 -2.18095 0
M  V30 2591 H 252.256 -0.652884 -0.12099 0
M  V30 2592 H 254.786 -2.02958 0.258661 0
M  V30 2593 H 254.796 -3.8351 -1.39227 0
M  V30 2594 H 253.471 -4.14932 -0.283581 0
M  V30 2595 H 252.048 -3.22822 -1.86656 0
M  V30 2596 N 254.233 0.115231 -1.57178 0
M  V30 2597 C 255.481 0.820727 -1.84685 0
M  V30 2598 C 255.802 1.80237 -0.744279 0
M  V30 2599 O 255.072 1.94529 0.231375 0
M  V30 2600 H 253.652 0.306084 -0.681411 0
M  V30 2601 H 256.314 0.101656 -1.94635 0
M  V30 2602 H 255.41 1.36366 -2.80733 0
M  V30 2603 N 255.711 1.52812 0.385517 0
M  V30 2604 C 256.936 1.72207 1.15583 0
M  V30 2605 C 257.361 0.441034 1.82857 0
M  V30 2606 O 256.719 -0.603465 1.70962 0
M  V30 2607 C 256.767 2.87476 2.17692 0
M  V30 2608 O 255.871 2.54693 3.24354 0
M  V30 2609 H 255.212 0.572526 0.336319 0
M  V30 2610 H 257.742 1.99618 0.448744 0
M  V30 2611 H 257.752 3.13072 2.6163 0
M  V30 2612 H 256.427 3.80408 1.68115 0
M  V30 2613 H 255.004 2.3985 2.85529 0
M  V30 2614 N 257.189 -0.644168 1.43834 0
M  V30 2615 C 258.119 -1.76814 1.52509 0
M  V30 2616 C 259.1 -1.65823 0.379052 0
M  V30 2617 O 260.285 -1.84781 0.597466 0
M  V30 2618 C 257.415 -3.15288 1.4564 0
M  V30 2619 C 256.369 -3.41053 2.58586 0
M  V30 2620 C 255.695 -4.79421 2.36769 0
M  V30 2621 C 256.995 -3.34902 4.00797 0
M  V30 2622 H 258.689 -1.69812 2.46586 0
M  V30 2623 H 256.235 -0.815542 1.1868 0
M  V30 2624 H 258.188 -3.93681 1.50311 0
M  V30 2625 H 256.912 -3.23043 0.480725 0
M  V30 2626 H 255.571 -2.65035 2.53282 0
M  V30 2627 H 255.219 -4.83863 1.37424 0
M  V30 2628 H 254.919 -4.9762 3.12487 0
M  V30 2629 H 256.443 -5.6006 2.43238 0
M  V30 2630 H 257.857 -4.03218 4.07539 0
M  V30 2631 H 256.254 -3.64637 4.76613 0
M  V30 2632 H 257.324 -2.32928 4.25291 0
M  V30 2633 N 258.668 -1.30515 -0.883378 0
M  V30 2634 C 259.631 -1.1701 -1.97082 0
M  V30 2635 C 260.631 -0.10089 -1.60483 0
M  V30 2636 O 261.821 -0.349127 -1.70666 0
M  V30 2637 C 258.953 -0.793045 -3.31547 0
M  V30 2638 H 260.146 -2.13622 -2.10489 0
M  V30 2639 H 257.699 -1.13935 -1.06998 0
M  V30 2640 H 258.434 0.172499 -3.23841 0
M  V30 2641 H 258.219 -1.56576 -3.5948 0
M  V30 2642 H 259.709 -0.722073 -4.1131 0
M  V30 2643 N 260.146 1.09593 -1.13257 0
M  V30 2644 C 261.109 2.14359 -0.811358 0
M  V30 2645 C 262.109 1.59808 0.178377 0
M  V30 2646 O 263.299 1.74132 -0.0484911 0
M  V30 2647 C 260.431 3.40269 -0.207276 0
M  V30 2648 H 261.624 2.44284 -1.73969 0
M  V30 2649 H 259.177 1.25102 -0.936973 0
M  V30 2650 H 259.912 3.15969 0.73036 0
M  V30 2651 H 259.697 3.81154 -0.919992 0
M  V30 2652 H 261.187 4.176 0.000667944 0
M  V30 2653 N 261.624 0.925811 1.2754 0
M  V30 2654 C 262.557 0.367836 2.25216 0
M  V30 2655 C 263.535 -0.534738 1.53556 0
M  V30 2656 O 264.719 -0.475672 1.824 0
M  V30 2657 C 261.846 -0.47298 3.35381 0
M  V30 2658 C 260.892 0.365898 4.24928 0
M  V30 2659 S 261.725 1.78025 5.05042 0
M  V30 2660 C 262.881 0.947068 6.18693 0
M  V30 2661 H 263.114 1.19568 2.72196 0
M  V30 2662 H 260.647 0.727867 1.36167 0
M  V30 2663 H 262.605 -0.952242 3.99303 0
M  V30 2664 H 261.266 -1.27533 2.87044 0
M  V30 2665 H 260.459 -0.277582 5.03235 0
M  V30 2666 H 260.061 0.779261 3.65792 0
M  V30 2667 H 262.353 0.182201 6.77255 0
M  V30 2668 H 263.296 1.70309 6.87314 0
M  V30 2669 H 263.704 0.489913 5.6237 0
M  V30 2670 N 263.102 -1.41638 0.69111 0
M  V30 2671 C 264.065 -2.29178 0.0319786 0
M  V30 2672 C 265.065 -1.44153 -0.712496 0
M  V30 2673 O 266.255 -1.65354 -0.548053 0
M  V30 2674 C 263.387 -3.26952 -0.965161 0
M  V30 2675 H 264.58 -2.88959 0.802681 0
M  V30 2676 H 262.133 -1.4955 0.454356 0
M  V30 2677 H 262.868 -2.72142 -1.76378 0
M  V30 2678 H 262.653 -3.89685 -0.434522 0
M  V30 2679 H 264.143 -3.92561 -1.42428 0
M  V30 2680 N 264.58 -0.43555 -1.51462 0
M  V30 2681 C 265.826 0.131709 -2.02372 0
M  V30 2682 C 266.159 1.42516 -1.3192 0
M  V30 2683 O 265.434 1.89606 -0.433573 0
M  V30 2684 C 265.717 0.352301 -3.58373 0
M  V30 2685 C 265.57 -0.959676 -4.39443 0
M  V30 2686 C 266.889 1.12286 -4.25535 0
M  V30 2687 H 264.008 0.0463936 -0.735538 0
M  V30 2688 H 266.65 -0.574197 -1.81116 0
M  V30 2689 H 264.8 0.9536 -3.76615 0
M  V30 2690 H 266.472 -1.59482 -4.32855 0
M  V30 2691 H 264.715 -1.56468 -4.04599 0
M  V30 2692 H 265.386 -0.759394 -5.46752 0
M  V30 2693 H 267.862 0.613545 -4.11552 0
M  V30 2694 H 266.738 1.24598 -5.34571 0
M  V30 2695 H 266.999 2.15048 -3.86273 0
M  V30 2696 N 266.058 1.56714 -0.166846 0
M  V30 2697 C 267.305 1.96747 0.479252 0
M  V30 2698 C 267.633 1.05263 1.63554 0
M  V30 2699 O 266.888 0.0858098 1.95512 0
M  V30 2700 C 267.187 3.42889 1.00806 0
M  V30 2701 C 266.853 4.50889 -0.0318574 0
M  V30 2702 C 265.515 4.8015 -0.317675 0
M  V30 2703 C 267.867 5.15949 -0.737956 0
M  V30 2704 C 265.195 5.71772 -1.31506 0
M  V30 2705 C 267.547 6.08647 -1.72429 0
M  V30 2706 C 266.211 6.36277 -2.0176 0
M  V30 2707 H 265.481 0.719949 0.175371 0
M  V30 2708 H 268.128 1.89756 -0.257864 0
M  V30 2709 H 266.433 3.4681 1.82291 0
M  V30 2710 H 268.13 3.71203 1.51689 0
M  V30 2711 H 264.72 4.28128 0.201088 0
M  V30 2712 H 268.904 4.93458 -0.530351 0
M  V30 2713 H 264.16 5.91465 -1.54853 0
M  V30 2714 H 268.334 6.58129 -2.27682 0
M  V30 2715 H 265.961 7.07075 -2.79194 0
M  V30 2716 N 267.536 -0.106894 1.57237 0
M  V30 2717 C 268.446 -1.14911 2.0453 0
M  V30 2718 C 269.462 -1.44592 0.96795 0
M  V30 2719 O 270.638 -1.55468 1.2803 0
M  V30 2720 C 267.703 -2.45272 2.45036 0
M  V30 2721 C 266.764 -2.22879 3.66911 0
M  V30 2722 C 265.997 -3.47024 4.05475 0
M  V30 2723 O 266.22 -4.54804 3.44252 0
M  V30 2724 O 265.154 -3.3731 4.98504 0
M  V30 2725 H 268.98 -0.777461 2.9358 0
M  V30 2726 H 266.565 -0.318563 1.45964 0
M  V30 2727 H 268.447 -3.22055 2.71769 0
M  V30 2728 H 267.122 -2.81886 1.59129 0
M  V30 2729 H 266.029 -1.43915 3.45311 0
M  V30 2730 H 267.362 -1.91163 4.53561 0
M  V30 2731 N 269.014 -1.53014 -0.377408 0
M  V30 2732 C 270.291 -1.59215 -1.13622 0
M  V30 2733 C 270.671 -0.392407 -2.07421 0
M  V30 2734 O 270.019 0.618342 -2.19975 0
M  V30 2735 C 270.229 -2.93669 -1.88573 0
M  V30 2736 C 271.577 -3.47822 -2.43526 0
M  V30 2737 O 272.601 -2.9562 -1.98715 0
M  V30 2738 O 271.46 -4.39055 -3.25412 0
M  V30 2739 H 268.554 -0.642625 -0.52054 0
M  V30 2740 H 271.1 -1.65353 -0.381625 0
M  V30 2741 H 269.872 -3.7243 -1.20048 0
M  V30 2742 H 269.495 -2.90968 -2.70968 0
M  V30 2743 N 270.492 0.636531 -1.44174 0
M  V30 2744 C 271.439 1.74875 -1.50624 0
M  V30 2745 C 272.409 1.62275 -0.35442 0
M  V30 2746 O 273.594 1.82276 -0.563908 0
M  V30 2747 C 270.734 3.13102 -1.45125 0
M  V30 2748 C 269.847 3.36717 -2.7064 0
M  V30 2749 C 268.982 4.64885 -2.57013 0
M  V30 2750 C 268.021 4.8166 -3.77717 0
M  V30 2751 N 267.158 6.01101 -3.62798 0
M  V30 2752 H 271.998 1.68697 -2.45653 0
M  V30 2753 H 269.535 0.823004 -1.21922 0
M  V30 2754 H 271.493 3.93034 -1.39929 0
M  V30 2755 H 270.123 3.18308 -0.536671 0
M  V30 2756 H 269.175 2.50763 -2.86046 0
M  V30 2757 H 270.487 3.44993 -3.60252 0
M  V30 2758 H 269.641 5.52969 -2.49619 0
M  V30 2759 H 268.38 4.58957 -1.64953 0
M  V30 2760 H 267.385 3.92007 -3.85501 0
M  V30 2761 H 268.61 4.89406 -4.70807 0
M  V30 2762 H 266.556 5.96273 -2.73486 0
M  V30 2763 H 266.473 6.10409 -4.46023 0
M  V30 2764 H 267.741 6.91761 -3.59286 0
M  V30 2765 N 271.97 1.30982 0.876444 0
M  V30 2766 C 273.217 1.20296 1.62896 0
M  V30 2767 C 273.545 -0.240395 1.93009 0
M  V30 2768 O 272.8 -1.18733 1.55567 0
M  V30 2769 C 273.099 1.98572 2.9716 0
M  V30 2770 C 272.765 3.48125 2.86566 0
M  V30 2771 C 271.427 3.88905 2.83383 0
M  V30 2772 C 273.779 4.43322 2.74071 0
M  V30 2773 C 271.107 5.2316 2.65556 0
M  V30 2774 C 273.459 5.77695 2.57781 0
M  V30 2775 C 272.123 6.17704 2.52979 0
M  V30 2776 H 271.393 0.440193 0.59608 0
M  V30 2777 H 274.04 1.62177 1.01837 0
M  V30 2778 H 272.345 1.49352 3.62217 0
M  V30 2779 H 274.042 1.8769 3.54364 0
M  V30 2780 H 270.632 3.15723 2.89856 0
M  V30 2781 H 274.816 4.12752 2.75589 0
M  V30 2782 H 270.072 5.53241 2.60259 0
M  V30 2783 H 274.246 6.51091 2.47089 0
M  V30 2784 H 271.873 7.21678 2.38924 0
M  V30 2785 N 273.449 -1.08991 1.13837 0
M  V30 2786 C 274.865 -1.33312 0.877506 0
M  V30 2787 C 275.065 -1.95587 -0.48456 0
M  V30 2788 O 274.121 -2.20509 -1.23013 0
M  V30 2789 C 275.434 -2.24045 2.0056 0
M  V30 2790 C 276.982 -2.37542 2.03821 0
M  V30 2791 C 277.457 -3.31614 3.15905 0
M  V30 2792 N 278.948 -3.39189 3.15445 0
M  V30 2793 C 279.683 -4.11992 3.98811 0
M  V30 2794 N 279.179 -4.87553 4.92203 0
M  V30 2795 N 280.972 -4.07762 3.86894 0
M  V30 2796 H 273.123 -0.669456 2.01574 0
M  V30 2797 H 275.386 -0.357482 0.878015 0
M  V30 2798 H 275.092 -1.85521 2.98789 0
M  V30 2799 H 274.966 -3.24466 1.92359 0
M  V30 2800 H 277.353 -2.75327 1.06202 0
M  V30 2801 H 277.434 -1.36884 2.16093 0
M  V30 2802 H 277.078 -2.94551 4.13766 0
M  V30 2803 H 277.008 -4.32186 3.0087 0
M  V30 2804 H 279.499 -2.85314 2.47799 0
M  V30 2805 H 279.812 -5.40549 5.52292 0
M  V30 2806 H 278.157 -4.86627 4.96205 0
M  V30 2807 H 281.348 -3.47833 3.13257 0
M  V30 2808 H 281.521 -4.64238 4.52092 0
M  V30 2809 N 274.927 -0.932562 -1.27047 0
M  V30 2810 C 276.338 -0.619451 -1.76124 0
M  V30 2811 C 276.689 0.865397 -1.76083 0
M  V30 2812 O 275.814 1.67722 -1.36742 0
M  V30 2813 C 276.409 -1.11771 -3.19832 0
M  V30 2814 C 274.968 -0.855174 -3.66557 0
M  V30 2815 C 274.115 -1.27362 -2.46321 0
M  V30 2816 H 277.066 -1.11181 -1.13245 0
M  V30 2817 H 277.087 -0.46759 -3.77616 0
M  V30 2818 H 276.599 -2.19842 -3.1983 0
M  V30 2819 H 274.7 0.211524 -3.71999 0
M  V30 2820 H 274.813 -1.47613 -4.55793 0
M  V30 2821 H 273.177 -0.692119 -2.45116 0
M  V30 2822 H 273.96 -2.36307 -2.49025 0
M  V30 2823 N 276.405 1.4127 -0.698611 0
M  V30 2824 C 277.682 1.94955 -0.158762 0
M  V30 2825 C 278.062 1.63781 1.33188 0
M  V30 2826 O 277.41 0.946423 2.07979 0
M  V30 2827 C 277.62 3.46044 -0.453309 0
M  V30 2828 C 278.968 4.22872 -0.382707 0
M  V30 2829 O 279.992 3.54076 -0.388396 0
M  V30 2830 O 278.851 5.45407 -0.345463 0
M  V30 2831 H 275.945 0.82683 -0.0167505 0
M  V30 2832 H 278.491 1.50971 -0.77498 0
M  V30 2833 H 277.263 3.62028 -1.48498 0
M  V30 2834 H 276.886 3.97128 0.19373 0
M  V30 2835 N 277.883 0.443576 1.51229 0
M  V30 2836 C 278.816 -0.410089 2.24485 0
M  V30 2837 C 279.794 -1.01949 1.26669 0
M  V30 2838 O 280.978 -1.06075 1.55821 0
M  V30 2839 C 278.105 -1.57211 3.00004 0
M  V30 2840 C 277.151 -1.08279 4.12526 0
M  V30 2841 S 277.984 -0.0197476 5.35496 0
M  V30 2842 C 279.14 -1.18629 6.14555 0
M  V30 2843 H 279.373 0.211832 2.96544 0
M  V30 2844 H 276.906 0.228156 1.52705 0
M  V30 2845 H 278.864 -2.23825 3.44111 0
M  V30 2846 H 277.525 -2.16547 2.27522 0
M  V30 2847 H 276.718 -1.95193 4.64667 0
M  V30 2848 H 276.32 -0.494797 3.70713 0
M  V30 2849 H 278.612 -2.10344 6.4402 0
M  V30 2850 H 279.555 -0.70472 7.04584 0
M  V30 2851 H 279.963 -1.42768 5.46148 0
M  V30 2852 N 279.361 -1.56624 0.175154 0
M  V30 2853 C 280.271 -2.21741 -0.766042 0
M  V30 2854 C 281.287 -1.21023 -1.25018 0
M  V30 2855 O 282.463 -1.53697 -1.3015 0
M  V30 2856 C 279.528 -2.84839 -1.97655 0
M  V30 2857 C 278.589 -4.00769 -1.53892 0
M  V30 2858 C 277.822 -4.60849 -2.69173 0
M  V30 2859 O 278.045 -4.19823 -3.86141 0
M  V30 2860 O 276.979 -5.50655 -2.43028 0
M  V30 2861 H 280.805 -3.02738 -0.241585 0
M  V30 2862 H 278.39 -1.49305 -0.053222 0
M  V30 2863 H 280.272 -3.24834 -2.68442 0
M  V30 2864 H 278.947 -2.06836 -2.48999 0
M  V30 2865 H 277.854 -3.65436 -0.80044 0
M  V30 2866 H 279.187 -4.80376 -1.07236 0
M  V30 2867 N 280.839 0.0985539 -1.57292 0
M  V30 2868 C 281.749 1.13824 -2.05137 0
M  V30 2869 C 282.765 1.44076 -0.975604 0
M  V30 2870 O 283.941 1.54786 -1.28853 0
M  V30 2871 C 281.006 2.43969 -2.46333 0
M  V30 2872 C 280.067 2.2093 -3.68087 0
M  V30 2873 C 279.3 3.44869 -4.0731 0
M  V30 2874 O 279.523 4.52972 -3.46659 0
M  V30 2875 O 278.457 3.34661 -5.00285 0
M  V30 2876 H 282.283 0.761881 -2.93988 0
M  V30 2877 H 279.868 0.310818 -1.46131 0
M  V30 2878 H 281.75 3.20609 -2.73473 0
M  V30 2879 H 280.425 2.81038 -1.60621 0
M  V30 2880 H 279.332 1.42081 -3.46069 0
M  V30 2881 H 280.665 1.88755 -4.54568 0
M  V30 2882 N 282.317 1.53212 0.369288 0
M  V30 2883 C 283.227 1.82342 1.47609 0
M  V30 2884 C 284.243 0.711532 1.58787 0
M  V30 2885 O 285.419 1.0012 1.74751 0
M  V30 2886 C 282.484 2.00393 2.8292 0
M  V30 2887 C 281.545 3.24297 2.81301 0
M  V30 2888 C 280.778 3.41478 4.10157 0
M  V30 2889 O 281.001 2.63033 5.06132 0
M  V30 2890 O 279.935 4.34817 4.16194 0
M  V30 2891 H 283.761 2.76366 1.25918 0
M  V30 2892 H 281.346 1.38547 0.559034 0
M  V30 2893 H 283.228 2.13859 3.63101 0
M  V30 2894 H 281.903 1.09559 3.04596 0
M  V30 2895 H 280.81 3.16257 1.99831 0
M  V30 2896 H 282.143 4.15041 2.64578 0
M  V30 2897 N 283.795 -0.628877 1.44509 0
M  V30 2898 C 284.705 -1.7694 1.54044 0
M  V30 2899 C 285.721 -1.68705 0.425987 0
M  V30 2900 O 286.897 -1.89442 0.683656 0
M  V30 2901 C 283.962 -3.13332 1.48405 0
M  V30 2902 C 283.023 -3.33181 2.70719 0
M  V30 2903 C 282.256 -4.63067 2.6534 0
M  V30 2904 O 282.479 -5.44017 1.71469 0
M  V30 2905 O 281.413 -4.85167 3.56226 0
M  V30 2906 H 285.239 -1.71848 2.50403 0
M  V30 2907 H 282.824 -0.790378 1.26781 0
M  V30 2908 H 284.706 -3.94634 1.47791 0
M  V30 2909 H 283.381 -3.1896 0.551898 0
M  V30 2910 H 282.288 -2.51549 2.769 0
M  V30 2911 H 283.621 -3.32416 3.62988 0
M  V30 2912 N 285.273 -1.31445 -0.869486 0
M  V30 2913 C 286.236 -1.19094 -1.9583 0
M  V30 2914 C 287.236 -0.117906 -1.60367 0
M  V30 2915 O 288.426 -0.367208 -1.70286 0
M  V30 2916 C 285.558 -0.828165 -3.30688 0
M  V30 2917 H 286.751 -2.15842 -2.08212 0
M  V30 2918 H 284.304 -1.15063 -1.05784 0
M  V30 2919 H 285.039 0.138142 -3.24006 0
M  V30 2920 H 284.824 -1.6038 -3.578 0
M  V30 2921 H 286.314 -0.765658 -4.10521 0
M  V30 2922 N 286.751 1.08385 -1.14413 0
M  V30 2923 C 287.698 2.15311 -0.831265 0
M  V30 2924 C 288.668 1.64751 0.211292 0
M  V30 2925 O 289.853 1.90627 0.0811674 0
M  V30 2926 C 286.993 3.43658 -0.315143 0
M  V30 2927 C 286.106 4.08064 -1.41802 0
M  V30 2928 C 285.241 5.24207 -0.859126 0
M  V30 2929 C 284.28 5.80554 -1.93967 0
M  V30 2930 N 283.417 6.88042 -1.39793 0
M  V30 2931 H 288.257 2.41415 -1.74708 0
M  V30 2932 H 285.794 1.18474 -0.871909 0
M  V30 2933 H 287.752 4.172 0.00230884 0
M  V30 2934 H 286.382 3.17839 0.56378 0
M  V30 2935 H 285.434 3.3228 -1.85187 0
M  V30 2936 H 286.746 4.45962 -2.23427 0
M  V30 2937 H 285.9 6.04689 -0.49359 0
M  V30 2938 H 284.639 4.87699 -0.011932 0
M  V30 2939 H 283.644 4.98725 -2.31415 0
M  V30 2940 H 284.869 6.19121 -2.79046 0
M  V30 2941 H 282.815 6.53493 -0.572919 0
M  V30 2942 H 282.732 7.24767 -2.15054 0
M  V30 2943 H 284 7.72255 -1.0603 0
M  V30 2944 N 288.23 0.939286 1.26551 0
M  V30 2945 C 289.178 0.43815 2.28436 0
M  V30 2946 C 290.172 -0.483587 1.62351 0
M  V30 2947 O 291.378 -0.362009 1.76322 0
M  V30 2948 H 287.753 0.123149 0.741848 0
M  V30 2949 H 289.724 1.31002 2.68106 0
M  V30 2950 C 288.473 -0.283052 3.46546 0
M  V30 2951 H 287.796 0.417043 3.97619 0
M  V30 2952 H 289.236 -0.597948 4.19763 0
M  V30 2953 C 287.695 -1.50018 3.01656 0
M  V30 2954 O 288.225 -2.59855 3.0633 0
M  V30 2955 N 286.431 -1.35608 2.57019 0
M  V30 2956 H 285.978 -0.46244 2.53415 0
M  V30 2957 H 285.936 -2.17165 2.27347 0
M  V30 2958 N 289.708 -1.40897 0.706093 0
M  V30 2959 C 290.638 -2.33418 0.0620085 0
M  V30 2960 C 291.619 -1.52385 -0.755827 0
M  V30 2961 O 292.804 -1.80886 -0.706674 0
M  V30 2962 C 289.934 -3.36293 -0.867445 0
M  V30 2963 C 288.888 -4.27716 -0.155932 0
M  V30 2964 C 288.214 -5.2105 -1.20046 0
M  V30 2965 C 289.514 -5.12944 0.984149 0
M  V30 2966 H 291.208 -2.87527 0.83477 0
M  V30 2967 H 288.754 -1.38249 0.402875 0
M  V30 2968 H 290.707 -3.99949 -1.32735 0
M  V30 2969 H 289.431 -2.80556 -1.67199 0
M  V30 2970 H 288.09 -3.65498 0.284047 0
M  V30 2971 H 287.738 -4.61624 -1.99781 0
M  V30 2972 H 287.438 -5.83056 -0.729328 0
M  V30 2973 H 288.962 -5.87584 -1.66066 0
M  V30 2974 H 290.376 -5.70109 0.604048 0
M  V30 2975 H 288.773 -5.83945 1.38304 0
M  V30 2976 H 289.843 -4.49485 1.81911 0
M  V30 2977 N 291.186 -0.45159 -1.50991 0
M  V30 2978 C 292.432 0.110237 -2.025 0
M  V30 2979 C 292.765 1.41109 -1.33424 0
M  V30 2980 O 292.04 1.89135 -0.453659 0
M  V30 2981 C 292.323 0.314271 -3.58726 0
M  V30 2982 C 292.176 -1.00623 -4.38401 0
M  V30 2983 C 293.495 1.07767 -4.26702 0
M  V30 2984 H 290.614 0.0385897 -0.735989 0
M  V30 2985 H 293.256 -0.593374 -1.80497 0
M  V30 2986 H 291.406 0.913601 -3.77605 0
M  V30 2987 H 293.078 -1.64064 -4.31139 0
M  V30 2988 H 291.321 -1.6075 -4.02917 0
M  V30 2989 H 291.992 -0.817341 -5.45915 0
M  V30 2990 H 294.468 0.56986 -4.12179 0
M  V30 2991 H 293.344 1.18921 -5.35863 0
M  V30 2992 H 293.605 2.10939 -3.88532 0
M  V30 2993 N 292.664 1.56529 -0.183458 0
M  V30 2994 C 293.889 2.02064 0.467428 0
M  V30 2995 C 294.314 1.06282 1.55196 0
M  V30 2996 O 293.672 0.0443565 1.81246 0
M  V30 2997 C 293.72 3.46122 1.01153 0
M  V30 2998 O 292.824 3.53437 2.12499 0
M  V30 2999 H 292.165 0.654726 0.110588 0
M  V30 3000 H 294.695 2.02521 -0.290917 0
M  V30 3001 H 294.705 3.85676 1.33108 0
M  V30 3002 H 293.38 4.15331 0.217533 0
M  V30 3003 H 291.957 3.2575 1.81497 0
M  V30 3004 N 294.142 -0.090211 1.57342 0
M  V30 3005 C 295.052 -1.12735 2.05738 0
M  V30 3006 C 296.068 -1.43557 0.983231 0
M  V30 3007 O 297.244 -1.54101 1.29672 0
M  V30 3008 C 294.309 -2.42659 2.47624 0
M  V30 3009 C 293.37 -2.18975 3.69254 0
M  V30 3010 C 292.603 -3.42704 4.09133 0
M  V30 3011 O 292.826 -4.51127 3.49057 0
M  V30 3012 O 291.76 -3.32003 5.02053 0
M  V30 3013 H 295.586 -0.746279 2.94388 0
M  V30 3014 H 293.171 -0.303064 1.46294 0
M  V30 3015 H 295.053 -3.19155 2.7517 0
M  V30 3016 H 293.728 -2.80182 1.62109 0
M  V30 3017 H 292.635 -1.40244 3.46818 0
M  V30 3018 H 293.968 -1.86342 4.55563 0
M  V30 3019 N 295.62 -1.53406 -0.361157 0
M  V30 3020 C 296.583 -1.79479 -1.42548 0
M  V30 3021 C 297.583 -0.665327 -1.4639 0
M  V30 3022 O 298.773 -0.933549 -1.47073 0
M  V30 3023 C 295.905 -1.92087 -2.8163 0
M  V30 3024 H 297.098 -2.74538 -1.20701 0
M  V30 3025 H 294.651 -1.4455 -0.594546 0
M  V30 3026 H 295.386 -0.991099 -3.08784 0
M  V30 3027 H 295.171 -2.74241 -2.80239 0
M  V30 3028 H 296.661 -2.13836 -3.58697 0
M  V30 3029 N 297.098 0.621204 -1.44841 0
M  V30 3030 C 298.347 1.37658 -1.47422 0
M  V30 3031 C 298.66 1.95264 -0.114629 0
M  V30 3032 O 299.866 2.71494 -0.0180199 0
M  V30 3033 C 298.322 2.49285 -2.59586 0
M  V30 3034 C 297.93 1.98149 -4.01797 0
M  V30 3035 C 299.674 3.26409 -2.71399 0
M  V30 3036 C 297.581 3.07178 -5.05367 0
M  V30 3037 H 296.511 0.517344 -0.548517 0
M  V30 3038 H 299.162 0.667257 -1.70938 0
M  V30 3039 H 297.544 3.22839 -2.29328 0
M  V30 3040 H 298.718 1.31395 -4.41669 0
M  V30 3041 H 297.033 1.33812 -3.94314 0
M  V30 3042 H 299.63 4.07706 -3.45948 0
M  V30 3043 H 299.973 3.76535 -1.77559 0
M  V30 3044 H 300.506 2.5995 -3.01116 0
M  V30 3045 H 297.245 2.61985 -6.00869 0
M  V30 3046 H 296.765 3.72542 -4.70077 0
M  V30 3047 H 298.444 3.71789 -5.29511 0
M  V30 3048 N 298.576 1.31904 0.862503 0
M  V30 3049 C 299.539 1.20131 1.95195 0
M  V30 3050 C 300.539 0.126409 1.60302 0
M  V30 3051 O 301.729 0.376234 1.70089 0
M  V30 3052 C 298.861 0.845691 3.30244 0
M  V30 3053 H 300.054 2.16943 2.07064 0
M  V30 3054 H 297.607 1.15622 1.05172 0
M  V30 3055 H 298.342 -0.120957 3.24074 0
M  V30 3056 H 298.127 1.62276 3.56944 0
M  V30 3057 H 299.617 0.787418 4.10109 0
M  V30 3058 N 300.054 -1.07777 1.14986 0
M  V30 3059 C 301.017 -2.13041 0.845358 0
M  V30 3060 C 302.017 -1.60071 -0.152931 0
M  V30 3061 O 303.207 -1.74033 0.0761879 0
M  V30 3062 C 300.339 -3.39896 0.261383 0
M  V30 3063 H 301.532 -2.41485 1.77834 0
M  V30 3064 H 299.085 -1.23595 0.956757 0
M  V30 3065 H 299.82 -3.17091 -0.68 0
M  V30 3066 H 299.605 -3.79642 0.980514 0
M  V30 3067 H 301.095 -4.17548 0.0657687 0
M  V30 3068 N 301.532 -0.945985 -1.26051 0
M  V30 3069 C 302.78 -0.594941 -1.93145 0
M  V30 3070 C 303.101 0.86953 -1.7454 0
M  V30 3071 O 302.371 1.61838 -1.10387 0
M  V30 3072 H 300.951 -0.217044 -0.714773 0
M  V30 3073 H 303.613 -1.20235 -1.53393 0
M  V30 3074 H 302.709 -0.816835 -3.01221 0
M  V30 3075 N 303.011 1.40521 -0.713556 0
M  V30 3076 C 304.26 2.00155 -0.249192 0
M  V30 3077 C 304.573 1.57224 1.16362 0
M  V30 3078 O 305.779 2.09542 1.72639 0
M  V30 3079 C 304.235 3.5773 -0.3946 0
M  V30 3080 C 303.843 4.09635 -1.81392 0
M  V30 3081 C 305.587 4.24499 0.00907364 0
M  V30 3082 C 303.494 5.59707 -1.91003 0
M  V30 3083 H 302.424 0.74868 -0.0894114 0
M  V30 3084 H 305.075 1.60784 -0.884352 0
M  V30 3085 H 303.457 3.94792 0.30911 0
M  V30 3086 H 304.631 3.83955 -2.54785 0
M  V30 3087 H 302.946 3.55456 -2.16888 0
M  V30 3088 H 305.543 5.34683 -0.0420404 0
M  V30 3089 H 305.886 4.02824 1.05065 0
M  V30 3090 H 306.419 3.92536 -0.645007 0
M  V30 3091 H 303.158 5.86234 -2.93275 0
M  V30 3092 H 302.678 5.87258 -1.22019 0
M  V30 3093 H 304.357 6.24776 -1.6812 0
M  V30 3094 N 304.489 0.459591 1.5075 0
M  V30 3095 C 305.736 -0.0993495 2.02256 0
M  V30 3096 C 306.064 -1.40751 1.34237 0
M  V30 3097 O 305.319 -1.90379 0.453228 0
M  V30 3098 C 305.618 -0.342866 3.55752 0
M  V30 3099 C 305.284 0.88218 4.42186 0
M  V30 3100 C 303.946 1.21808 4.65528 0
M  V30 3101 C 306.298 1.69837 4.92752 0
M  V30 3102 C 303.626 2.37045 5.36681 0
M  V30 3103 C 305.978 2.84192 5.65171 0
M  V30 3104 C 304.642 3.1821 5.8677 0
M  V30 3105 H 303.912 -0.0363545 0.740108 0
M  V30 3106 H 306.559 0.611329 1.8148 0
M  V30 3107 H 304.864 -1.13567 3.7498 0
M  V30 3108 H 306.561 -0.789121 3.93159 0
M  V30 3109 H 303.151 0.610467 4.2423 0
M  V30 3110 H 307.335 1.45205 4.74583 0
M  V30 3111 H 302.591 2.63689 5.51614 0
M  V30 3112 H 306.765 3.4779 6.03337 0
M  V30 3113 H 304.392 4.07613 6.41682 0
M  V30 3114 N 305.967 -1.56429 0.191757 0
M  V30 3115 C 306.915 -2.20273 -0.747174 0
M  V30 3116 C 307.909 -1.17288 -1.22229 0
M  V30 3117 O 309.115 -1.35441 -1.18557 0
M  V30 3118 H 305.49 -0.705885 -0.259289 0
M  V30 3119 H 307.461 -2.97826 -0.184963 0
M  V30 3120 C 306.21 -2.87356 -1.95759 0
M  V30 3121 H 305.533 -3.66341 -1.60106 0
M  V30 3122 H 306.973 -3.3547 -2.59299 0
M  V30 3123 C 305.432 -1.88213 -2.79423 0
M  V30 3124 O 305.962 -1.38033 -3.7724 0
M  V30 3125 N 304.168 -1.56516 -2.44849 0
M  V30 3126 H 303.715 -1.97516 -1.65364 0
M  V30 3127 H 303.673 -0.904369 -3.01112 0
M  V30 3128 N 307.445 0.0818655 -1.57387 0
M  V30 3129 C 308.722 0.815343 -1.77796 0
M  V30 3130 C 309.102 1.96289 -0.77679 0
M  V30 3131 O 308.45 2.27691 0.192106 0
M  V30 3132 C 308.66 1.29765 -3.23978 0
M  V30 3133 C 310.008 1.7351 -3.8753 0
M  V30 3134 O 311.032 1.39356 -3.27808 0
M  V30 3135 O 309.891 2.36708 -4.92576 0
M  V30 3136 H 306.985 0.389914 -0.729312 0
M  V30 3137 H 309.531 0.0627213 -1.69584 0
M  V30 3138 H 308.303 0.47608 -3.88393 0
M  V30 3139 H 307.926 2.11189 -3.36875 0
M  V30 3140 N 308.923 1.53595 0.353017 0
M  V30 3141 C 309.853 1.83902 1.43883 0
M  V30 3142 C 310.834 0.693421 1.55324 0
M  V30 3143 O 312.019 0.944452 1.69687 0
M  V30 3144 C 309.149 2.04016 2.8106 0
M  V30 3145 C 308.103 3.19814 2.84434 0
M  V30 3146 C 307.429 3.25244 4.24406 0
M  V30 3147 C 308.729 4.58133 2.50822 0
M  V30 3148 H 310.423 2.74835 1.1877 0
M  V30 3149 H 307.969 1.32242 0.569917 0
M  V30 3150 H 309.922 2.238 3.57059 0
M  V30 3151 H 308.646 1.09804 3.07588 0
M  V30 3152 H 307.305 2.9987 2.10887 0
M  V30 3153 H 306.953 2.28646 4.48029 0
M  V30 3154 H 306.653 4.03054 4.27576 0
M  V30 3155 H 308.177 3.47228 5.0226 0
M  V30 3156 H 309.591 4.77995 3.16534 0
M  V30 3157 H 307.988 5.38276 2.6529 0
M  V30 3158 H 309.058 4.62387 1.46034 0
M  V30 3159 N 310.401 -0.613514 1.45168 0
M  V30 3160 C 311.649 -1.36997 1.48581 0
M  V30 3161 C 311.97 -1.94589 0.126545 0
M  V30 3162 O 311.24 -1.76816 -0.843372 0
M  V30 3163 H 309.82 -0.508558 0.547154 0
M  V30 3164 H 312.482 -0.720853 1.81079 0
M  V30 3165 H 311.578 -2.1924 2.22127 0
M  V30 3166 N 311.879 -1.3236 -0.855495 0
M  V30 3167 C 313.104 -1.2601 -1.64731 0
M  V30 3168 C 313.529 0.169068 -1.87339 0
M  V30 3169 O 312.887 1.12016 -1.42556 0
M  V30 3170 C 312.935 -2.02417 -2.98429 0
M  V30 3171 O 312.039 -1.3714 -3.8893 0
M  V30 3172 H 311.38 -0.434325 -0.502253 0
M  V30 3173 H 313.91 -1.74661 -1.06558 0
M  V30 3174 H 313.92 -2.12559 -3.48257 0
M  V30 3175 H 312.595 -3.06343 -2.81295 0
M  V30 3176 H 311.172 -1.3554 -3.47395 0
M  V30 3177 N 313.357 1.07166 -1.15556 0
M  V30 3178 C 314.605 1.79443 -0.929764 0
M  V30 3179 C 314.926 1.87246 0.544414 0
M  V30 3180 O 314.196 1.37473 1.39564 0
M  V30 3181 H 312.776 0.664625 -0.341003 0
M  V30 3182 H 315.438 1.29499 -1.45657 0
M  V30 3183 H 314.534 2.81832 -1.34079 0
M  V30 3184 N 314.835 0.952656 1.25548 0
M  V30 3185 C 316.06 0.623025 1.97821 0
M  V30 3186 C 316.485 -0.7976 1.70352 0
M  V30 3187 O 315.843 -1.53905 0.958283 0
M  V30 3188 C 315.891 0.885532 3.49558 0
M  V30 3189 O 314.995 -0.0366641 4.12384 0
M  V30 3190 H 314.336 0.237082 0.620232 0
M  V30 3191 H 316.866 1.27871 1.59719 0
M  V30 3192 H 316.876 0.811009 3.99858 0
M  V30 3193 H 315.551 1.92094 3.6888 0
M  V30 3194 H 314.128 0.0898954 3.72792 0
M  V30 3195 N 316.313 -1.40141 0.720998 0
M  V30 3196 C 317.261 -2.3252 0.0608547 0
M  V30 3197 C 318.255 -1.52326 -0.741152 0
M  V30 3198 O 319.461 -1.68089 -0.643911 0
M  V30 3199 H 315.836 -0.751999 0.000876664 0
M  V30 3200 H 317.807 -2.8584 0.856614 0
M  V30 3201 C 316.556 -3.37331 -0.842809 0
M  V30 3202 H 315.879 -3.99108 -0.235084 0
M  V30 3203 H 317.319 -4.04452 -1.27257 0
M  V30 3204 C 315.778 -2.73246 -1.97074 0
M  V30 3205 O 316.308 -2.59998 -3.06209 0
M  V30 3206 N 314.514 -2.31547 -1.75597 0
M  V30 3207 H 314.061 -2.42522 -0.868368 0
M  V30 3208 H 314.019 -1.89007 -2.51244 0
M  V30 3209 N 317.792 -0.46758 -1.50504 0
M  V30 3210 C 319.041 0.0902868 -2.01498 0
M  V30 3211 C 319.354 1.411 -1.35463 0
M  V30 3212 O 320.56 2.0536 -1.77594 0
M  V30 3213 C 319.016 0.21142 -3.59278 0
M  V30 3214 C 318.624 -1.10065 -4.34269 0
M  V30 3215 C 320.368 0.721433 -4.18325 0
M  V30 3216 C 318.275 -0.943505 -5.83825 0
M  V30 3217 H 317.205 0.037517 -0.753066 0
M  V30 3218 H 319.856 -0.601943 -1.73346 0
M  V30 3219 H 318.238 0.967352 -3.84003 0
M  V30 3220 H 319.412 -1.86726 -4.21272 0
M  V30 3221 H 317.727 -1.5415 -3.86816 0
M  V30 3222 H 320.324 0.85598 -5.27804 0
M  V30 3223 H 320.667 1.71186 -3.79475 0
M  V30 3224 H 321.2 0.0229843 -3.97793 0
M  V30 3225 H 317.939 -1.90719 -6.27141 0
M  V30 3226 H 317.459 -0.217213 -5.99407 0
M  V30 3227 H 319.138 -0.608715 -6.4413 0
M  V30 3228 N 319.27 1.56325 -0.20005 0
M  V30 3229 C 320.547 1.89484 0.48529 0
M  V30 3230 C 320.927 1.1143 1.79294 0
M  V30 3231 O 320.275 0.216919 2.27468 0
M  V30 3232 C 320.485 3.41923 0.699243 0
M  V30 3233 C 321.833 4.12256 1.01638 0
M  V30 3234 O 322.857 3.47402 0.786792 0
M  V30 3235 O 321.716 5.26887 1.45095 0
M  V30 3236 H 318.81 0.787144 0.253639 0
M  V30 3237 H 321.356 1.67985 -0.240633 0
M  V30 3238 H 320.128 3.90658 -0.224008 0
M  V30 3239 H 319.751 3.69131 1.47744 0
M  V30 3240 N 320.748 -0.0735177 1.57428 0
M  V30 3241 C 321.678 -1.0879 2.06608 0
M  V30 3242 C 322.659 -1.40473 0.959237 0
M  V30 3243 O 323.844 -1.5013 1.23185 0
M  V30 3244 C 320.974 -2.40183 2.50857 0
M  V30 3245 C 319.928 -2.22858 3.65402 0
M  V30 3246 C 319.254 -3.59619 3.957 0
M  V30 3247 C 320.554 -1.65123 4.95511 0
M  V30 3248 H 322.248 -0.678673 2.91607 0
M  V30 3249 H 319.794 -0.325013 1.40284 0
M  V30 3250 H 321.747 -3.11437 2.83874 0
M  V30 3251 H 320.471 -2.83083 1.62885 0
M  V30 3252 H 319.13 -1.54045 3.32664 0
M  V30 3253 H 318.778 -4.00086 3.04861 0
M  V30 3254 H 318.478 -3.48866 4.72828 0
M  V30 3255 H 320.002 -4.32306 4.31212 0
M  V30 3256 H 321.416 -2.26241 5.26771 0
M  V30 3257 H 319.813 -1.65071 5.7695 0
M  V30 3258 H 320.883 -0.612559 4.81015 0
M  V30 3259 N 322.226 -1.5378 -0.344866 0
M  V30 3260 C 323.466 -1.72677 -1.09371 0
M  V30 3261 C 323.83 -0.479084 -1.85927 0
M  V30 3262 O 325.031 -0.54505 -2.63216 0
M  V30 3263 C 323.302 -2.95457 -2.01097 0
M  V30 3264 S 324.861 -3.35158 -2.83222 0
M  V30 3265 H 321.679 -0.607402 -0.369573 0
M  V30 3266 H 324.281 -1.91922 -0.372307 0
M  V30 3267 H 322.985 -3.84437 -1.43655 0
M  V30 3268 H 322.516 -2.78673 -2.77678 0
M  V30 3269 H 324.531 -2.88789 -4.03504 0
M  V30 3270 N 323.704 0.605807 -1.45491 0
M  V30 3271 C 324.95 1.36679 -1.49823 0
M  V30 3272 C 325.283 1.93693 -0.140175 0
M  V30 3273 O 324.558 1.75158 0.845581 0
M  V30 3274 C 324.841 2.51337 -2.57879 0
M  V30 3275 C 324.694 1.99508 -4.03134 0
M  V30 3276 C 326.013 3.53463 -2.62205 0
M  V30 3277 H 323.132 0.495617 -0.545466 0
M  V30 3278 H 325.774 0.682732 -1.7731 0
M  V30 3279 H 323.924 3.09691 -2.34571 0
M  V30 3280 H 325.596 1.45789 -4.37656 0
M  V30 3281 H 323.839 1.30496 -4.13707 0
M  V30 3282 H 324.51 2.82169 -4.74431 0
M  V30 3283 H 326.986 3.04953 -2.83095 0
M  V30 3284 H 325.862 4.31178 -3.39672 0
M  V30 3285 H 326.123 4.09197 -1.67363 0
M  V30 3286 N 325.182 1.32811 0.848464 0
M  V30 3287 C 326.431 1.23075 1.59798 0
M  V30 3288 C 326.744 -0.204419 1.94529 0
M  V30 3289 O 327.95 -0.423701 2.68173 0
M  V30 3290 C 326.406 2.15594 2.88179 0
M  V30 3291 C 326.014 3.64228 2.60849 0
M  V30 3292 C 327.758 2.14709 3.66197 0
M  V30 3293 C 325.665 4.48689 3.85269 0
M  V30 3294 H 324.595 0.457091 0.599653 0
M  V30 3295 H 327.246 1.57813 0.936342 0
M  V30 3296 H 325.628 1.73778 3.55833 0
M  V30 3297 H 326.802 4.14424 2.01467 0
M  V30 3298 H 325.117 3.67306 1.96151 0
M  V30 3299 H 327.714 2.75046 4.58534 0
M  V30 3300 H 328.057 1.13966 4.00397 0
M  V30 3301 H 328.59 2.54837 3.05455 0
M  V30 3302 H 325.329 5.5027 3.56207 0
M  V30 3303 H 324.849 4.03241 4.44024 0
M  V30 3304 H 326.528 4.62006 4.52946 0
M  V30 3305 N 326.66 -1.06551 1.16123 0
M  V30 3306 C 327.885 -1.83544 0.965735 0
M  V30 3307 C 328.31 -1.81843 -0.481102 0
M  V30 3308 O 327.668 -1.21732 -1.34354 0
M  V30 3309 C 327.716 -3.28169 1.49457 0
M  V30 3310 O 326.82 -4.0643 0.699157 0
M  V30 3311 H 326.161 -0.568026 0.343864 0
M  V30 3312 H 328.691 -1.34362 1.54299 0
M  V30 3313 H 328.701 -3.78992 1.51092 0
M  V30 3314 H 327.376 -3.28722 2.54784 0
M  V30 3315 H 325.953 -3.65216 0.7531 0
M  V30 3316 N 328.138 -0.959301 -1.25041 0
M  V30 3317 C 329.085 -0.482057 -2.2571 0
M  V30 3318 C 330.055 0.467939 -1.59372 0
M  V30 3319 O 331.24 0.380159 -1.86974 0
M  V30 3320 C 328.38 0.229623 -3.44335 0
M  V30 3321 C 327.493 -0.758156 -4.25295 0
M  V30 3322 C 326.628 -0.0234403 -5.31195 0
M  V30 3323 C 325.667 -1.00184 -6.03846 0
M  V30 3324 N 324.804 -0.29769 -7.01469 0
M  V30 3325 H 329.644 -1.34538 -2.65901 0
M  V30 3326 H 327.181 -0.674592 -1.3072 0
M  V30 3327 H 329.139 0.658856 -4.11965 0
M  V30 3328 H 327.769 1.05696 -3.05005 0
M  V30 3329 H 326.821 -1.30586 -3.57284 0
M  V30 3330 H 328.133 -1.50458 -4.75567 0
M  V30 3331 H 327.287 0.464201 -6.04922 0
M  V30 3332 H 326.026 0.755741 -4.81809 0
M  V30 3333 H 325.031 -1.50044 -5.2893 0
M  V30 3334 H 326.256 -1.78133 -6.55321 0
M  V30 3335 H 324.202 0.462668 -6.54366 0
M  V30 3336 H 324.119 -0.983128 -7.4958 0
M  V30 3337 H 325.387 0.16826 -7.79318 0
M  V30 3338 N 329.616 1.39756 -0.72842 0
M  V30 3339 C 330.564 2.32485 -0.0731849 0
M  V30 3340 C 331.558 1.52717 0.733063 0
M  V30 3341 O 332.764 1.68428 0.634988 0
M  V30 3342 H 329.139 0.751984 -0.00486469 0
M  V30 3343 H 331.11 2.85382 -0.871761 0
M  V30 3344 C 329.859 3.37773 0.824908 0
M  V30 3345 H 329.182 3.99227 0.213915 0
M  V30 3346 H 330.622 4.05121 1.25111 0
M  V30 3347 C 329.081 2.74287 1.95622 0
M  V30 3348 O 329.611 2.61618 3.04826 0
M  V30 3349 N 327.817 2.32475 1.74367 0
M  V30 3350 H 327.364 2.4298 0.855494 0
M  V30 3351 H 327.322 1.90337 2.50238 0
M  V30 3352 N 331.094 0.475555 1.50254 0
M  V30 3353 C 332.041 -0.316293 2.28622 0
M  V30 3354 C 333.011 -0.983227 1.33873 0
M  V30 3355 O 334.196 -0.994805 1.62814 0
M  V30 3356 C 331.336 -1.38975 3.1588 0
M  V30 3357 C 330.449 -0.737146 4.25664 0
M  V30 3358 C 329.584 -1.78887 5.00173 0
M  V30 3359 C 328.623 -1.11676 6.01826 0
M  V30 3360 N 327.76 -2.11154 6.69596 0
M  V30 3361 H 332.6 0.358297 2.95838 0
M  V30 3362 H 330.137 0.188541 1.45887 0
M  V30 3363 H 332.095 -2.02383 3.64825 0
M  V30 3364 H 330.725 -2.03344 2.50701 0
M  V30 3365 H 329.777 0.0096065 3.80399 0
M  V30 3366 H 331.089 -0.206816 4.98371 0
M  V30 3367 H 330.243 -2.49865 5.52859 0
M  V30 3368 H 328.982 -2.35302 4.27182 0
M  V30 3369 H 327.987 -0.392633 5.48396 0
M  V30 3370 H 329.212 -0.55945 6.76792 0
M  V30 3371 H 327.158 -2.66577 5.99394 0
M  V30 3372 H 327.075 -1.63118 7.38193 0
M  V30 3373 H 328.343 -2.81497 7.26897 0
M  V30 3374 N 332.573 -1.56217 0.208337 0
M  V30 3375 C 333.503 -2.22694 -0.702116 0
M  V30 3376 C 334.484 -1.19432 -1.2112 0
M  V30 3377 O 335.669 -1.47978 -1.25762 0
M  V30 3378 C 332.799 -2.8966 -1.9161 0
M  V30 3379 C 331.753 -3.9928 -1.5414 0
M  V30 3380 C 331.079 -4.53476 -2.83308 0
M  V30 3381 C 332.379 -5.17012 -0.741339 0
M  V30 3382 H 334.073 -2.99034 -0.147898 0
M  V30 3383 H 331.619 -1.43831 -0.0696951 0
M  V30 3384 H 333.572 -3.34852 -2.55836 0
M  V30 3385 H 332.296 -2.10746 -2.49507 0
M  V30 3386 H 330.955 -3.54799 -0.922668 0
M  V30 3387 H 330.603 -3.71308 -3.39322 0
M  V30 3388 H 330.303 -5.27451 -2.58976 0
M  V30 3389 H 331.827 -5.01378 -3.485 0
M  V30 3390 H 333.241 -5.58667 -1.28699 0
M  V30 3391 H 331.638 -5.97137 -0.595627 0
M  V30 3392 H 332.708 -4.8423 0.254851 0
M  V30 3393 N 334.051 0.0651679 -1.57465 0
M  V30 3394 C 335.328 0.79644 -1.78651 0
M  V30 3395 C 335.708 1.95454 -0.797566 0
M  V30 3396 O 335.056 2.27882 0.167946 0
M  V30 3397 C 335.266 1.26322 -3.25337 0
M  V30 3398 C 336.614 1.6939 -3.89348 0
M  V30 3399 O 337.638 1.35872 -3.29268 0
M  V30 3400 O 336.497 2.31471 -4.95059 0
M  V30 3401 H 333.591 0.382157 -0.733407 0
M  V30 3402 H 336.137 0.0447311 -1.69641 0
M  V30 3403 H 334.909 0.434859 -3.88876 0
M  V30 3404 H 334.532 2.07604 -3.39096 0
M  V30 3405 N 335.529 1.53961 0.336706 0
M  V30 3406 C 336.776 1.71536 1.07618 0
M  V30 3407 C 337.104 0.482125 1.8843 0
M  V30 3408 O 336.359 -0.536142 1.88213 0
M  V30 3409 C 336.658 2.93493 2.03953 0
M  V30 3410 C 336.324 4.28811 1.39399 0
M  V30 3411 C 334.986 4.65602 1.21523 0
M  V30 3412 C 337.338 5.12844 0.929541 0
M  V30 3413 C 334.666 5.84037 0.558312 0
M  V30 3414 C 337.018 6.31951 0.286505 0
M  V30 3415 C 335.682 6.67432 0.0954869 0
M  V30 3416 H 334.952 0.627696 0.393801 0
M  V30 3417 H 337.599 1.88186 0.354715 0
M  V30 3418 H 335.904 2.71475 2.82504 0
M  V30 3419 H 337.601 3.04285 2.61174 0
M  V30 3420 H 334.191 3.99858 1.54311 0
M  V30 3421 H 338.375 4.84947 1.05548 0
M  V30 3422 H 333.631 6.10097 0.398995 0
M  V30 3423 H 337.805 6.96352 -0.0814376 0
M  V30 3424 H 335.432 7.59063 -0.415579 0
M  V30 3425 N 337.007 -0.598083 1.45811 0
M  V30 3426 C 337.937 -1.71873 1.58057 0
M  V30 3427 C 338.918 -1.64533 0.431615 0
M  V30 3428 O 340.103 -1.82787 0.65595 0
M  V30 3429 C 337.233 -3.10495 1.55597 0
M  V30 3430 C 336.187 -3.32654 2.69305 0
M  V30 3431 C 335.513 -4.71646 2.51902 0
M  V30 3432 C 336.813 -3.21981 4.11248 0
M  V30 3433 H 338.507 -1.61881 2.51863 0
M  V30 3434 H 336.053 -0.777372 1.21214 0
M  V30 3435 H 338.006 -3.88699 1.6276 0
M  V30 3436 H 336.73 -3.2135 0.583255 0
M  V30 3437 H 335.389 -2.56843 2.61586 0
M  V30 3438 H 335.037 -4.79246 1.52748 0
M  V30 3439 H 334.737 -4.87426 3.2816 0
M  V30 3440 H 336.261 -5.52038 2.60933 0
M  V30 3441 H 337.675 -3.90049 4.20161 0
M  V30 3442 H 336.072 -3.49289 4.87972 0
M  V30 3443 H 337.142 -2.1928 4.32486 0
M  V30 3444 N 338.485 -1.33259 -0.841409 0
M  V30 3445 C 339.901 -1.12538 -1.13169 0
M  V30 3446 C 340.101 0.0854037 -2.01319 0
M  V30 3447 O 339.157 0.766417 -2.40587 0
M  V30 3448 C 340.47 -2.41156 -1.79623 0
M  V30 3449 C 342.018 -2.47038 -1.922 0
M  V30 3450 C 342.493 -3.7561 -2.6207 0
M  V30 3451 N 343.984 -3.76667 -2.69585 0
M  V30 3452 C 344.719 -4.72861 -3.2433 0
M  V30 3453 N 344.215 -5.79428 -3.79783 0
M  V30 3454 N 346.008 -4.6034 -3.22558 0
M  V30 3455 H 338.159 -2.10868 -0.254676 0
M  V30 3456 H 340.422 -0.931615 -0.175493 0
M  V30 3457 H 340.128 -3.29747 -1.22311 0
M  V30 3458 H 340.002 -2.53114 -2.79666 0
M  V30 3459 H 342.389 -1.58898 -2.48667 0
M  V30 3460 H 342.47 -2.39022 -0.911148 0
M  V30 3461 H 342.114 -4.64131 -2.06263 0
M  V30 3462 H 342.044 -3.80902 -3.63622 0
M  V30 3463 H 344.535 -2.99648 -2.30259 0
M  V30 3464 H 344.848 -6.48867 -4.19752 0
M  V30 3465 H 343.193 -5.83166 -3.78078 0
M  V30 3466 H 346.384 -3.76244 -2.78492 0
M  V30 3467 H 346.557 -5.35478 -3.64921 0
M  V30 3468 N 339.963 1.05934 -1.16686 0
M  V30 3469 C 341.374 1.60263 -0.957745 0
M  V30 3470 C 341.725 1.89789 0.49745 0
M  V30 3471 O 340.85 1.67401 1.37135 0
M  V30 3472 C 341.445 2.91172 -1.73218 0
M  V30 3473 C 340.004 3.42188 -1.56794 0
M  V30 3474 C 339.151 2.16028 -1.73859 0
M  V30 3475 H 342.102 0.888392 -1.31504 0
M  V30 3476 H 342.123 3.60744 -1.21014 0
M  V30 3477 H 341.635 2.6965 -2.79124 0
M  V30 3478 H 339.736 3.68762 -0.533437 0
M  V30 3479 H 339.849 4.17273 -2.35414 0
M  V30 3480 H 338.213 2.26426 -1.16633 0
M  V30 3481 H 338.996 1.96985 -2.81161 0
M  V30 3482 N 341.441 0.965919 1.2453 0
M  V30 3483 C 342.671 0.643451 1.96324 0
M  V30 3484 C 343.079 -0.790927 1.71875 0
M  V30 3485 O 342.422 -1.54208 0.998273 0
M  V30 3486 C 342.484 0.836078 3.49643 0
M  V30 3487 C 342.148 2.24975 3.97788 0
M  V30 3488 C 343.145 3.22735 4.07601 0
M  V30 3489 C 340.83 2.57697 4.31158 0
M  V30 3490 C 342.824 4.51303 4.50116 0
M  V30 3491 C 340.511 3.86492 4.73357 0
M  V30 3492 C 341.509 4.83107 4.828 0
M  V30 3493 O 341.197 6.09605 5.24058 0
M  V30 3494 H 340.929 0.239223 0.632257 0
M  V30 3495 H 343.483 1.29587 1.59362 0
M  V30 3496 H 341.713 0.12649 3.86493 0
M  V30 3497 H 343.402 0.512965 4.02646 0
M  V30 3498 H 344.168 2.98783 3.82039 0
M  V30 3499 H 340.047 1.83216 4.23028 0
M  V30 3500 H 343.591 5.26716 4.57401 0
M  V30 3501 H 339.488 4.10245 4.98366 0
M  V30 3502 H 340.256 6.13146 5.42213 0
M  V30 3503 N 342.919 -1.39368 0.735821 0
M  V30 3504 C 344.147 -2.04795 0.294393 0
M  V30 3505 C 344.562 -1.55478 -1.07107 0
M  V30 3506 O 343.919 -0.720038 -1.67695 0
M  V30 3507 C 343.97 -3.6035 0.288071 0
M  V30 3508 O 343.691 -4.07852 1.59963 0
M  V30 3509 C 345.192 -4.42976 -0.169422 0
M  V30 3510 H 342.412 -0.658571 0.128551 0
M  V30 3511 H 344.956 -1.78399 0.999701 0
M  V30 3512 H 343.111 -3.85645 -0.368355 0
M  V30 3513 H 343.525 -5.02181 1.51375 0
M  V30 3514 H 344.999 -5.51864 -0.122687 0
M  V30 3515 H 345.476 -4.22068 -1.21472 0
M  V30 3516 H 346.082 -4.22832 0.457469 0
M  V30 3517 N 344.397 -0.483516 -1.5 0
M  V30 3518 C 345.643 0.0672592 -2.02688 0
M  V30 3519 C 345.976 1.38247 -1.36387 0
M  V30 3520 O 345.251 1.88131 -0.493675 0
M  V30 3521 C 345.534 0.238109 -3.59312 0
M  V30 3522 C 345.387 -1.099 -4.36168 0
M  V30 3523 C 346.706 0.986916 -4.28892 0
M  V30 3524 H 343.825 0.0229696 -0.736642 0
M  V30 3525 H 346.467 -0.631527 -1.79197 0
M  V30 3526 H 344.617 0.8333 -3.79458 0
M  V30 3527 H 346.289 -1.73172 -4.27562 0
M  V30 3528 H 344.532 -1.69261 -3.99416 0
M  V30 3529 H 345.203 -0.932954 -5.44059 0
M  V30 3530 H 347.679 0.482302 -4.13295 0
M  V30 3531 H 346.555 1.07527 -5.38265 0
M  V30 3532 H 346.816 2.0265 -3.92919 0
M  V30 3533 N 345.875 1.56104 -0.216619 0
M  V30 3534 C 347.286 1.844 0.292128 0
M  V30 3535 C 347.637 1.13788 1.59833 0
M  V30 3536 O 346.762 0.405888 2.12559 0
M  V30 3537 C 347.357 3.3452 0.53681 0
M  V30 3538 C 345.916 3.63151 0.989876 0
M  V30 3539 C 345.063 2.77255 0.0502302 0
M  V30 3540 H 348.014 1.52481 -0.439926 0
M  V30 3541 H 348.035 3.54459 1.38345 0
M  V30 3542 H 347.547 3.85885 -0.414031 0
M  V30 3543 H 345.648 3.17238 1.95425 0
M  V30 3544 H 345.761 4.71177 0.867698 0
M  V30 3545 H 344.125 2.48555 0.556117 0
M  V30 3546 H 344.908 3.31416 -0.89544 0
M  V30 3547 N 347.353 -0.0568162 1.57498 0
M  V30 3548 C 348.301 -1.08452 2.05769 0
M  V30 3549 C 349.295 -1.39164 0.965903 0
M  V30 3550 O 350.501 -1.38395 1.15095 0
M  V30 3551 H 346.876 -0.367148 0.656282 0
M  V30 3552 H 348.847 -0.651368 2.91204 0
M  V30 3553 C 347.596 -2.38543 2.52968 0
M  V30 3554 H 346.919 -2.15765 3.36579 0
M  V30 3555 H 348.359 -3.08863 2.90481 0
M  V30 3556 C 346.818 -3.05562 1.41893 0
M  V30 3557 O 347.348 -3.94262 0.769442 0
M  V30 3558 N 345.554 -2.6643 1.16032 0
M  V30 3559 H 345.101 -1.94387 1.6903 0
M  V30 3560 H 345.059 -3.11593 0.419219 0
M  V30 3561 N 348.832 -1.54138 -0.328536 0
M  V30 3562 C 349.779 -1.83176 -1.40411 0
M  V30 3563 C 350.749 -0.678494 -1.5161 0
M  V30 3564 O 351.934 -0.92443 -1.6691 0
M  V30 3565 C 349.074 -2.06035 -2.76846 0
M  V30 3566 C 348.187 -3.33727 -2.74318 0
M  V30 3567 C 347.322 -3.46574 -4.02567 0
M  V30 3568 C 346.361 -4.68159 -3.94327 0
M  V30 3569 N 345.498 -4.77959 -5.14296 0
M  V30 3570 H 350.338 -2.74938 -1.14948 0
M  V30 3571 H 347.875 -1.36166 -0.556538 0
M  V30 3572 H 349.833 -2.1728 -3.56153 0
M  V30 3573 H 348.463 -1.1757 -3.00628 0
M  V30 3574 H 347.515 -3.31246 -1.8703 0
M  V30 3575 H 348.827 -4.23139 -2.64111 0
M  V30 3576 H 347.981 -3.57333 -4.90304 0
M  V30 3577 H 346.72 -2.55245 -4.15574 0
M  V30 3578 H 345.725 -4.57461 -3.04974 0
M  V30 3579 H 346.95 -5.60868 -3.82889 0
M  V30 3580 H 344.896 -3.89544 -5.27818 0
M  V30 3581 H 344.813 -5.6133 -5.06404 0
M  V30 3582 H 346.081 -4.93044 -6.03761 0
M  V30 3583 N 350.31 0.590341 -1.46126 0
M  V30 3584 C 351.257 1.69994 -1.56111 0
M  V30 3585 C 352.227 1.61065 -0.405867 0
M  V30 3586 O 353.412 1.8039 -0.621613 0
M  V30 3587 C 350.552 3.08326 -1.55013 0
M  V30 3588 C 349.665 3.27936 -2.81215 0
M  V30 3589 C 348.8 4.56473 -2.71673 0
M  V30 3590 C 347.839 4.694 -3.92849 0
M  V30 3591 N 346.976 5.89254 -3.81738 0
M  V30 3592 H 351.816 1.60797 -2.50895 0
M  V30 3593 H 349.353 0.783799 -1.24479 0
M  V30 3594 H 351.311 3.88383 -1.52362 0
M  V30 3595 H 349.941 3.16439 -0.637667 0
M  V30 3596 H 348.993 2.41536 -2.93879 0
M  V30 3597 H 350.305 3.33357 -3.71045 0
M  V30 3598 H 349.459 5.44748 -2.67085 0
M  V30 3599 H 348.198 4.53477 -1.7947 0
M  V30 3600 H 347.203 3.79544 -3.97777 0
M  V30 3601 H 348.428 4.7418 -4.86138 0
M  V30 3602 H 346.374 5.87271 -2.92317 0
M  V30 3603 H 346.291 5.95911 -4.65217 0
M  V30 3604 H 347.559 6.79981 -3.81112 0
M  V30 3605 N 351.788 1.33704 0.83433 0
M  V30 3606 C 353.036 1.25169 1.58673 0
M  V30 3607 C 353.357 -0.18127 1.94156 0
M  V30 3608 O 352.627 -1.11113 1.6134 0
M  V30 3609 H 351.207 0.4603 0.58833 0
M  V30 3610 H 353.869 1.67478 0.996847 0
M  V30 3611 H 352.965 1.84856 2.51465 0
M  V30 3612 N 353.266 -1.05314 1.17247 0
M  V30 3613 C 354.494 -1.81971 0.984593 0
M  V30 3614 C 354.909 -1.82929 -0.467166 0
M  V30 3615 O 354.266 -1.25564 -1.32438 0
M  V30 3616 C 354.317 -3.28143 1.51672 0
M  V30 3617 O 354.038 -3.27347 2.91163 0
M  V30 3618 C 355.539 -4.21493 1.37326 0
M  V30 3619 H 352.759 -0.573455 0.348411 0
M  V30 3620 H 355.303 -1.32808 1.55506 0
M  V30 3621 H 353.458 -3.74582 0.988302 0
M  V30 3622 H 353.872 -4.18824 3.15732 0
M  V30 3623 H 355.346 -5.22043 1.79375 0
M  V30 3624 H 355.823 -4.38031 0.320169 0
M  V30 3625 H 356.429 -3.80909 1.89178 0
M  V30 3626 N 354.744 -0.972509 -1.24016 0
M  V30 3627 C 356.16 -0.679827 -1.44397 0
M  V30 3628 C 356.36 0.756716 -1.86751 0
M  V30 3629 O 355.416 1.53007 -2.00861 0
M  V30 3630 C 356.729 -1.66803 -2.50195 0
M  V30 3631 C 358.277 -1.68119 -2.64017 0
M  V30 3632 C 358.752 -2.65748 -3.73017 0
M  V30 3633 N 360.243 -2.64219 -3.8045 0
M  V30 3634 C 360.978 -3.36433 -4.64328 0
M  V30 3635 N 360.474 -4.1818 -5.52356 0
M  V30 3636 N 362.267 -3.25235 -4.58453 0
M  V30 3637 H 354.418 -1.90059 -0.948228 0
M  V30 3638 H 356.681 -0.818527 -0.478245 0
M  V30 3639 H 356.387 -2.69498 -2.25973 0
M  V30 3640 H 356.261 -1.4446 -3.48441 0
M  V30 3641 H 358.648 -0.661319 -2.87594 0
M  V30 3642 H 358.729 -1.94525 -1.66113 0
M  V30 3643 H 358.373 -3.67872 -3.50189 0
M  V30 3644 H 358.303 -2.36619 -4.70446 0
M  V30 3645 H 360.794 -2.04887 -3.17537 0
M  V30 3646 H 361.107 -4.70157 -6.13329 0
M  V30 3647 H 359.452 -4.22273 -5.52006 0
M  V30 3648 H 362.643 -2.60829 -3.88698 0
M  V30 3649 H 362.816 -3.81776 -5.23594 0
M  V30 3650 N 356.222 1.38976 -0.743202 0
M  V30 3651 C 357.152 2.33171 -0.123873 0
M  V30 3652 C 358.133 1.54336 0.71516 0
M  V30 3653 O 359.318 1.82696 0.658467 0
M  V30 3654 C 356.448 3.38474 0.777978 0
M  V30 3655 C 355.402 4.27979 0.0424758 0
M  V30 3656 C 354.728 5.2405 1.06189 0
M  V30 3657 C 356.028 5.10155 -1.1198 0
M  V30 3658 H 357.722 2.85213 -0.910709 0
M  V30 3659 H 355.268 1.37133 -0.439388 0
M  V30 3660 H 357.221 4.03328 1.22084 0
M  V30 3661 H 355.945 2.84891 1.59702 0
M  V30 3662 H 354.604 3.64616 -0.380853 0
M  V30 3663 H 354.252 4.66758 1.87472 0
M  V30 3664 H 353.952 5.84785 0.574485 0
M  V30 3665 H 355.476 5.9178 1.50428 0
M  V30 3666 H 356.89 5.68307 -0.75499 0
M  V30 3667 H 355.287 5.80073 -1.53738 0
M  V30 3668 H 356.357 4.44504 -1.93764 0
M  V30 3669 N 357.7 0.491464 1.49741 0
M  V30 3670 C 358.948 -0.0563141 2.02022 0
M  V30 3671 C 359.269 -1.38363 1.37407 0
M  V30 3672 O 358.539 -1.88702 0.526166 0
M  V30 3673 H 357.119 -0.0238014 0.746621 0
M  V30 3674 H 359.781 0.646533 1.83864 0
M  V30 3675 H 358.877 -0.192967 3.11503 0
M  V30 3676 N 359.178 -1.55987 0.224894 0
M  V30 3677 C 360.594 -1.59066 -0.130426 0
M  V30 3678 C 360.794 -1.24176 -1.5869 0
M  V30 3679 O 359.85 -0.978592 -2.32766 0
M  V30 3680 C 361.163 -3.00042 0.198883 0
M  V30 3681 C 362.711 -3.1268 0.141391 0
M  V30 3682 C 363.186 -4.55839 0.444422 0
M  V30 3683 N 364.677 -4.6152 0.394115 0
M  V30 3684 C 365.412 -5.70231 0.602038 0
M  V30 3685 N 364.908 -6.87291 0.871914 0
M  V30 3686 N 366.701 -5.59555 0.534245 0
M  V30 3687 H 358.852 -1.76941 1.17497 0
M  V30 3688 H 361.115 -0.822604 0.471197 0
M  V30 3689 H 360.821 -3.30234 1.2099 0
M  V30 3690 H 360.695 -3.74075 -0.484535 0
M  V30 3691 H 363.082 -2.82283 -0.860265 0
M  V30 3692 H 363.163 -2.40969 0.858335 0
M  V30 3693 H 362.807 -4.86954 1.44353 0
M  V30 3694 H 362.737 -5.2578 -0.293752 0
M  V30 3695 H 365.228 -3.77405 0.193356 0
M  V30 3696 H 365.541 -7.66058 1.01858 0
M  V30 3697 H 363.886 -6.89028 0.909145 0
M  V30 3698 H 367.077 -4.6698 0.323612 0
M  V30 3699 H 367.25 -6.44211 0.699693 0
M  V30 3700 N 360.656 0.0484629 -1.57525 0
M  V30 3701 C 361.886 0.754326 -1.92337 0
M  V30 3702 C 362.294 1.70443 -0.82132 0
M  V30 3703 O 361.637 1.82466 0.21254 0
M  V30 3704 C 361.699 1.58231 -3.22805 0
M  V30 3705 C 361.363 0.799074 -4.4996 0
M  V30 3706 C 362.36 0.1079 -5.19788 0
M  V30 3707 C 360.045 0.759345 -4.96527 0
M  V30 3708 C 362.039 -0.612516 -6.3445 0
M  V30 3709 C 359.726 0.0351713 -6.1109 0
M  V30 3710 C 360.724 -0.649537 -6.79904 0
M  V30 3711 O 360.412 -1.36199 -7.92278 0
M  V30 3712 H 360.144 0.218257 -0.639797 0
M  V30 3713 H 362.698 0.0159295 -2.05394 0
M  V30 3714 H 360.928 2.36406 -3.06021 0
M  V30 3715 H 362.617 2.16898 -3.43089 0
M  V30 3716 H 363.383 0.129748 -4.84826 0
M  V30 3717 H 359.262 1.28177 -4.42822 0
M  V30 3718 H 362.806 -1.14751 -6.88097 0
M  V30 3719 H 358.703 0.0113314 -6.45499 0
M  V30 3720 H 359.471 -1.27366 -8.0853 0
M  V30 3721 N 362.134 1.5431 0.320358 0
M  V30 3722 C 363.55 1.45091 0.664889 0
M  V30 3723 C 363.75 0.626382 1.91517 0
M  V30 3724 O 362.806 0.126443 2.52183 0
M  V30 3725 C 364.119 2.88848 0.83591 0
M  V30 3726 C 365.667 2.9877 0.933046 0
M  V30 3727 C 366.142 4.43683 1.13621 0
M  V30 3728 N 367.633 4.47309 1.20287 0
M  V30 3729 C 368.368 5.56595 1.37801 0
M  V30 3730 N 367.864 6.75844 1.52338 0
M  V30 3731 N 369.657 5.44248 1.40535 0
M  V30 3732 H 361.808 2.06398 -0.501374 0
M  V30 3733 H 364.071 0.933963 -0.162534 0
M  V30 3734 H 363.777 3.51698 -0.0116092 0
M  V30 3735 H 363.651 3.35148 1.73078 0
M  V30 3736 H 366.038 2.36045 1.77107 0
M  V30 3737 H 366.119 2.55796 0.0145782 0
M  V30 3738 H 365.763 5.06995 0.303032 0
M  V30 3739 H 365.693 4.84269 2.0686 0
M  V30 3740 H 368.184 3.61388 1.10485 0
M  V30 3741 H 368.497 7.54892 1.65403 0
M  V30 3742 H 366.842 6.78746 1.4943 0
M  V30 3743 H 370.033 4.50038 1.28777 0
M  V30 3744 H 370.206 6.29473 1.53842 0
M  V30 3745 N 363.613 -0.582584 1.46437 0
M  V30 3746 C 364.853 -1.35184 1.53312 0
M  V30 3747 C 365.217 -1.9115 0.180508 0
M  V30 3748 O 366.418 -2.68514 0.124017 0
M  V30 3749 C 364.689 -2.45089 2.60127 0
M  V30 3750 S 366.248 -3.32439 2.86408 0
M  V30 3751 H 363.066 -0.460559 0.54167 0
M  V30 3752 H 365.668 -0.669709 1.83671 0
M  V30 3753 H 364.372 -2.02366 3.57038 0
M  V30 3754 H 363.903 -3.18074 2.315 0
M  V30 3755 H 365.918 -4.43924 2.21688 0
M  V30 3756 N 365.091 -1.34144 -0.827227 0
M  V30 3757 C 366.001 -1.27428 -1.96975 0
M  V30 3758 C 367.017 -0.182728 -1.73038 0
M  V30 3759 O 368.193 -0.408426 -1.97215 0
M  V30 3760 C 365.258 -1.02526 -3.31194 0
M  V30 3761 C 364.319 -2.20796 -3.68168 0
M  V30 3762 C 363.552 -1.97073 -4.95982 0
M  V30 3763 O 363.775 -0.926822 -5.6282 0
M  V30 3764 O 362.709 -2.83912 -5.30733 0
M  V30 3765 H 366.535 -2.23537 -2.05584 0
M  V30 3766 H 364.12 -1.14307 -0.961989 0
M  V30 3767 H 366.002 -0.904026 -4.11589 0
M  V30 3768 H 364.677 -0.0945389 -3.23562 0
M  V30 3769 H 363.584 -2.38477 -2.88235 0
M  V30 3770 H 364.917 -3.12243 -3.8048 0
M  V30 3771 N 366.569 1.04691 -1.17803 0
M  V30 3772 C 367.516 2.12557 -0.899343 0
M  V30 3773 C 368.486 1.65339 0.158771 0
M  V30 3774 O 369.671 1.90789 0.0204797 0
M  V30 3775 C 366.811 3.42481 -0.424315 0
M  V30 3776 C 365.924 4.03346 -1.54713 0
M  V30 3777 C 365.059 5.21208 -1.02546 0
M  V30 3778 C 364.098 5.74089 -2.12339 0
M  V30 3779 N 363.235 6.83247 -1.61612 0
M  V30 3780 H 368.075 2.35734 -1.823 0
M  V30 3781 H 365.612 1.1564 -0.909159 0
M  V30 3782 H 367.57 4.16996 -0.130421 0
M  V30 3783 H 366.2 3.19471 0.462377 0
M  V30 3784 H 365.252 3.2622 -1.95664 0
M  V30 3785 H 366.564 4.38628 -2.37501 0
M  V30 3786 H 365.718 6.02812 -0.685718 0
M  V30 3787 H 364.457 4.87414 -0.167084 0
M  V30 3788 H 363.462 4.91111 -2.47165 0
M  V30 3789 H 364.687 6.0993 -2.98601 0
M  V30 3790 H 362.633 6.5134 -0.780533 0
M  V30 3791 H 362.55 7.17559 -2.38003 0
M  V30 3792 H 363.818 7.68491 -1.30545 0
M  V30 3793 N 368.047 0.979072 1.23499 0
M  V30 3794 C 369.295 0.645941 1.91499 0
M  V30 3795 C 369.616 -0.822948 1.76784 0
M  V30 3796 O 368.886 -1.58854 1.14639 0
M  V30 3797 H 367.466 0.235919 0.708767 0
M  V30 3798 H 370.128 1.2426 1.50152 0
M  V30 3799 H 369.224 0.896411 2.9895 0
M  V30 3800 N 369.525 -1.3858 0.750561 0
M  V30 3801 C 370.753 -2.04471 0.316098 0
M  V30 3802 C 371.168 -1.56606 -1.05452 0
M  V30 3803 O 370.525 -0.737784 -1.66922 0
M  V30 3804 C 370.576 -3.60025 0.326275 0
M  V30 3805 O 370.297 -4.06133 1.6428 0
M  V30 3806 C 371.798 -4.43131 -0.122429 0
M  V30 3807 H 369.018 -0.65717 0.135528 0
M  V30 3808 H 371.562 -1.77329 1.01857 0
M  V30 3809 H 369.717 -3.86014 -0.327431 0
M  V30 3810 H 370.131 -5.00547 1.56693 0
M  V30 3811 H 371.605 -5.51963 -0.0641473 0
M  V30 3812 H 372.082 -4.23333 -1.16988 0
M  V30 3813 H 372.688 -4.22323 0.50229 0
M  V30 3814 N 371.003 -0.499398 -1.49478 0
M  V30 3815 C 372.231 0.0425456 -2.06856 0
M  V30 3816 C 372.646 1.30964 -1.35992 0
M  V30 3817 O 372.003 1.77172 -0.437762 0
M  V30 3818 C 372.054 0.301735 -3.60239 0
M  V30 3819 O 371.775 -0.915127 -4.28436 0
M  V30 3820 C 373.276 0.887499 -4.34325 0
M  V30 3821 H 370.496 -0.0197482 -0.670709 0
M  V30 3822 H 373.04 -0.696297 -1.92281 0
M  V30 3823 H 371.195 0.990556 -3.74522 0
M  V30 3824 H 371.609 -0.676993 -5.20113 0
M  V30 3825 H 373.083 1.01845 -5.42523 0
M  V30 3826 H 373.56 1.88488 -3.96698 0
M  V30 3827 H 374.166 0.236196 -4.24644 0
M  V30 3828 N 372.481 1.55866 -0.233164 0
M  V30 3829 C 373.444 2.1953 0.658715 0
M  V30 3830 C 374.444 1.16053 1.11303 0
M  V30 3831 O 375.634 1.41218 1.01996 0
M  V30 3832 C 372.766 2.82791 1.90373 0
M  V30 3833 H 373.959 2.99721 0.10347 0
M  V30 3834 H 371.512 1.56291 0.0164245 0
M  V30 3835 H 372.247 2.06501 2.50056 0
M  V30 3836 H 372.032 3.58578 1.58632 0
M  V30 3837 H 373.522 3.31556 2.53891 0
M  V30 3838 N 373.959 -0.0401083 1.57549 0
M  V30 3839 C 375.205 -0.734211 1.89043 0
M  V30 3840 C 375.538 -1.75591 0.829535 0
M  V30 3841 O 374.813 -1.93868 -0.156706 0
M  V30 3842 C 375.096 -1.41374 3.31188 0
M  V30 3843 C 374.949 -0.406299 4.47961 0
M  V30 3844 C 376.268 -2.35061 3.72068 0
M  V30 3845 H 373.387 -0.265447 0.687537 0
M  V30 3846 H 376.029 0.00294087 1.9 0
M  V30 3847 H 374.179 -2.04206 3.30503 0
M  V30 3848 H 375.851 0.219255 4.60779 0
M  V30 3849 H 374.094 0.275485 4.32924 0
M  V30 3850 H 374.765 -0.920022 5.44279 0
M  V30 3851 H 377.241 -1.82282 3.74049 0
M  V30 3852 H 376.117 -2.79593 4.72355 0
M  V30 3853 H 376.378 -3.21258 3.0372 0
M  V30 3854 N 375.437 -1.54477 -0.31217 0
M  V30 3855 C 376.367 -1.87652 -1.38957 0
M  V30 3856 C 377.348 -0.734358 -1.53431 0
M  V30 3857 O 378.533 -0.98911 -1.67123 0
M  V30 3858 C 375.663 -2.11396 -2.75552 0
M  V30 3859 C 374.617 -3.27243 -2.75855 0
M  V30 3860 C 373.943 -3.36382 -4.15633 0
M  V30 3861 C 375.243 -4.64622 -2.38587 0
M  V30 3862 H 376.937 -2.77887 -1.11442 0
M  V30 3863 H 374.483 -1.33707 -0.534655 0
M  V30 3864 H 376.436 -2.33189 -3.51 0
M  V30 3865 H 375.16 -1.17921 -3.04569 0
M  V30 3866 H 373.819 -3.05356 -2.02863 0
M  V30 3867 H 373.467 -2.40445 -4.41809 0
M  V30 3868 H 373.167 -4.14249 -4.1674 0
M  V30 3869 H 374.691 -3.60422 -4.92877 0
M  V30 3870 H 376.105 -4.86219 -3.03749 0
M  V30 3871 H 374.502 -5.45121 -2.50925 0
M  V30 3872 H 375.572 -4.66097 -1.33723 0
M  V30 3873 N 376.915 0.57481 -1.46744 0
M  V30 3874 C 378.143 1.35856 -1.56047 0
M  V30 3875 C 378.558 1.87691 -0.204365 0
M  V30 3876 O 377.915 1.64049 0.79963 0
M  V30 3877 C 377.966 2.54066 -2.57163 0
M  V30 3878 O 377.687 2.04377 -3.87507 0
M  V30 3879 C 379.188 3.46514 -2.76483 0
M  V30 3880 H 376.408 0.414754 -0.527466 0
M  V30 3881 H 378.952 0.698035 -1.92218 0
M  V30 3882 H 377.107 3.16092 -2.23974 0
M  V30 3883 H 377.521 2.81419 -4.4261 0
M  V30 3884 H 378.995 4.25919 -3.51137 0
M  V30 3885 H 379.472 3.98951 -1.83671 0
M  V30 3886 H 380.078 2.90318 -3.10799 0
M  V30 3887 N 378.394 1.34581 0.820102 0
M  V30 3888 C 379.304 1.28471 1.96297 0
M  V30 3889 C 380.32 0.191902 1.72939 0
M  V30 3890 O 381.496 0.418879 1.96996 0
M  V30 3891 C 378.561 1.04281 3.30645 0
M  V30 3892 C 377.622 2.22745 3.66992 0
M  V30 3893 C 376.855 1.997 4.9493 0
M  V30 3894 O 377.078 0.956656 5.6232 0
M  V30 3895 O 376.012 2.86723 5.2922 0
M  V30 3896 H 379.838 2.24624 2.04396 0
M  V30 3897 H 377.423 1.14816 0.955913 0
M  V30 3898 H 379.305 0.925841 4.11104 0
M  V30 3899 H 377.98 0.111697 3.23507 0
M  V30 3900 H 376.887 2.40003 2.86966 0
M  V30 3901 H 378.22 3.14257 3.78819 0
M  V30 3902 N 379.872 -1.04064 1.18357 0
M  V30 3903 C 380.819 -2.12077 0.910603 0
M  V30 3904 C 381.789 -1.65421 -0.15 0
M  V30 3905 O 382.974 -1.90797 -0.0103614 0
M  V30 3906 C 380.114 -3.42252 0.442472 0
M  V30 3907 C 379.227 -4.0252 1.5685 0
M  V30 3908 C 378.362 -5.20657 1.05309 0
M  V30 3909 C 377.401 -5.72955 2.1538 0
M  V30 3910 N 376.538 -6.8238 1.65233 0
M  V30 3911 H 381.378 -2.34764 1.83548 0
M  V30 3912 H 378.915 -1.15157 0.915279 0
M  V30 3913 H 380.873 -4.16921 0.152534 0
M  V30 3914 H 379.503 -3.19712 -0.445428 0
M  V30 3915 H 378.555 -3.25178 1.97391 0
M  V30 3916 H 379.867 -4.37362 2.39824 0
M  V30 3917 H 379.021 -6.0244 0.717677 0
M  V30 3918 H 377.76 -4.87318 0.19293 0
M  V30 3919 H 376.765 -4.89793 2.49766 0
M  V30 3920 H 377.99 -6.08337 3.01832 0
M  V30 3921 H 375.936 -6.50917 0.815064 0
M  V30 3922 H 375.853 -7.16286 2.41805 0
M  V30 3923 H 377.121 -7.67788 1.34619 0
M  V30 3924 N 381.35 -0.985608 -1.22978 0
M  V30 3925 C 382.599 -0.652881 -1.90841 0
M  V30 3926 C 382.912 0.817842 -1.77681 0
M  V30 3927 O 384.118 1.26185 -2.40395 0
M  V30 3928 C 382.574 -1.11717 -3.42122 0
M  V30 3929 C 382.182 -2.6126 -3.63933 0
M  V30 3930 C 383.926 -0.85843 -4.1573 0
M  V30 3931 C 381.833 -3.0133 -5.08876 0
M  V30 3932 H 380.763 -0.240491 -0.714619 0
M  V30 3933 H 383.414 -1.1942 -1.39324 0
M  V30 3934 H 381.796 -0.504027 -3.92779 0
M  V30 3935 H 382.97 -3.27858 -3.23799 0
M  V30 3936 H 381.285 -2.84937 -3.03644 0
M  V30 3937 H 383.882 -1.13359 -5.22546 0
M  V30 3938 H 384.225 0.205461 -4.15793 0
M  V30 3939 H 384.758 -1.43341 -3.71077 0
M  V30 3940 H 381.497 -4.06864 -5.13947 0
M  V30 3941 H 381.017 -2.3943 -5.49939 0
M  V30 3942 H 382.696 -2.92224 -5.77247 0
M  V30 3943 N 382.828 1.3818 -0.7579 0
M  V30 3944 C 384.056 2.04301 -0.326937 0
M  V30 3945 C 384.471 1.57163 1.0462 0
M  V30 3946 O 383.828 0.746626 1.66529 0
M  V30 3947 C 383.879 3.59846 -0.345363 0
M  V30 3948 O 383.6 4.05256 -1.66432 0
M  V30 3949 C 385.101 4.4319 0.098927 0
M  V30 3950 H 382.321 0.656443 -0.139012 0
M  V30 3951 H 384.865 1.76786 -1.02796 0
M  V30 3952 H 383.02 3.86182 0.306955 0
M  V30 3953 H 383.434 4.99709 -1.59345 0
M  V30 3954 H 384.908 5.51989 0.0348745 0
M  V30 3955 H 385.385 4.23947 1.14741 0
M  V30 3956 H 385.991 4.22051 -0.52468 0
M  V30 3957 N 384.306 0.507319 1.49211 0
M  V30 3958 C 385.717 0.0611118 1.866 0
M  V30 3959 C 386.068 -1.35488 1.41907 0
M  V30 3960 O 385.193 -2.0108 0.799726 0
M  V30 3961 C 385.788 0.104125 3.3864 0
M  V30 3962 C 384.347 -0.28677 3.75306 0
M  V30 3963 C 383.494 0.473893 2.73221 0
M  V30 3964 H 386.445 0.719775 1.41439 0
M  V30 3965 H 386.466 -0.689672 3.74198 0
M  V30 3966 H 385.978 1.13482 3.71138 0
M  V30 3967 H 384.079 -1.32046 3.48417 0
M  V30 3968 H 384.192 0.0370745 4.79086 0
M  V30 3969 H 382.556 -0.0770644 2.54583 0
M  V30 3970 H 383.339 1.50478 3.08563 0
M  V30 3971 N 385.784 -1.5574 0.241426 0
M  V30 3972 C 386.714 -2.24133 -0.654722 0
M  V30 3973 C 387.695 -1.21974 -1.1856 0
M  V30 3974 O 388.88 -1.50612 -1.22595 0
M  V30 3975 C 386.01 -2.93659 -1.85423 0
M  V30 3976 C 384.964 -4.0246 -1.45636 0
M  V30 3977 C 384.29 -4.59383 -2.73626 0
M  V30 3978 C 385.59 -5.18468 -0.631506 0
M  V30 3979 H 387.284 -2.99281 -0.0844353 0
M  V30 3980 H 384.83 -1.43947 -0.0391707 0
M  V30 3981 H 386.783 -3.40203 -2.48676 0
M  V30 3982 H 385.507 -2.15991 -2.44981 0
M  V30 3983 H 384.166 -3.56676 -0.847202 0
M  V30 3984 H 383.814 -3.78422 -3.3137 0
M  V30 3985 H 383.514 -5.32826 -2.4773 0
M  V30 3986 H 385.038 -5.08658 -3.37786 0
M  V30 3987 H 386.452 -5.61272 -1.1682 0
M  V30 3988 H 384.849 -5.98266 -0.468831 0
M  V30 3989 H 385.919 -4.8358 0.357506 0
M  V30 3990 N 387.262 0.0317525 -1.57568 0
M  V30 3991 C 388.172 1.05021 -2.0978 0
M  V30 3992 C 389.188 1.39809 -1.03583 0
M  V30 3993 O 390.364 1.49182 -1.35302 0
M  V30 3994 C 387.429 2.33301 -2.56459 0
M  V30 3995 C 386.49 2.0512 -3.77127 0
M  V30 3996 C 385.723 3.27283 -4.2157 0
M  V30 3997 O 385.946 4.37861 -3.65559 0
M  V30 3998 O 384.88 3.13141 -5.14029 0
M  V30 3999 H 388.706 0.636505 -2.96955 0
M  V30 4000 H 386.291 0.248559 -1.47318 0
M  V30 4001 H 388.173 3.08722 -2.86825 0
M  V30 4002 H 386.848 2.73973 -1.72397 0
M  V30 4003 H 385.755 1.27276 -3.51784 0
M  V30 4004 H 387.088 1.69305 -4.62165 0
M  V30 4005 N 388.74 1.54641 0.303973 0
M  V30 4006 C 389.989 1.7299 1.03717 0
M  V30 4007 C 390.302 0.521168 1.88529 0
M  V30 4008 O 391.508 0.586408 2.65092 0
M  V30 4009 C 389.964 3.06051 1.89369 0
M  V30 4010 C 389.572 4.34393 1.09574 0
M  V30 4011 C 391.316 3.3376 2.62306 0
M  V30 4012 C 389.223 5.58506 1.94486 0
M  V30 4013 H 388.153 0.64473 0.390947 0
M  V30 4014 H 390.804 1.81124 0.294328 0
M  V30 4015 H 389.186 2.91874 2.67629 0
M  V30 4016 H 390.36 4.59396 0.359485 0
M  V30 4017 H 388.675 4.13597 0.482324 0
M  V30 4018 H 391.272 4.23687 3.26181 0
M  V30 4019 H 391.615 2.52503 3.3098 0
M  V30 4020 H 392.148 3.48894 1.91097 0
M  V30 4021 H 388.887 6.42422 1.30287 0
M  V30 4022 H 388.407 5.37694 2.65792 0
M  V30 4023 H 390.086 5.95651 2.52605 0
M  V30 4024 N 390.218 -0.567019 1.47046 0
M  V30 4025 C 391.128 -1.70247 1.6141 0
M  V30 4026 C 392.144 -1.66746 0.497157 0
M  V30 4027 O 393.32 -1.86371 0.763389 0
M  V30 4028 C 390.385 -3.06756 1.61561 0
M  V30 4029 C 389.446 -3.21399 2.84607 0
M  V30 4030 C 388.679 -4.51396 2.84741 0
M  V30 4031 O 388.902 -5.36255 1.94388 0
M  V30 4032 O 387.836 -4.69621 3.76483 0
M  V30 4033 H 391.662 -1.61073 2.57467 0
M  V30 4034 H 389.247 -0.735894 1.30019 0
M  V30 4035 H 391.129 -3.8801 1.64396 0
M  V30 4036 H 389.804 -3.16333 0.686684 0
M  V30 4037 H 388.711 -2.39579 2.8732 0
M  V30 4038 H 390.044 -3.16721 3.76761 0
M  V30 4039 N 391.696 -1.35014 -0.812953 0
M  V30 4040 C 392.942 -1.2812 -1.57204 0
M  V30 4041 C 393.275 0.145869 -1.93651 0
M  V30 4042 O 392.55 1.0937 -1.60836 0
M  V30 4043 C 392.833 -2.18162 -2.86492 0
M  V30 4044 C 392.686 -3.69454 -2.56561 0
M  V30 4045 C 394.005 -2.07439 -3.88145 0
M  V30 4046 H 391.124 -0.466746 -0.570366 0
M  V30 4047 H 393.766 -1.65357 -0.935783 0
M  V30 4048 H 391.916 -1.86535 -3.40789 0
M  V30 4049 H 393.588 -4.11493 -2.08497 0
M  V30 4050 H 391.831 -3.9005 -1.89851 0
M  V30 4051 H 392.502 -4.27835 -3.48799 0
M  V30 4052 H 394.978 -2.35228 -3.4323 0
M  V30 4053 H 393.854 -2.7265 -4.76396 0
M  V30 4054 H 394.115 -1.05439 -4.29343 0
M  V30 4055 N 393.175 1.03435 -1.18907 0
M  V30 4056 C 394.105 2.13503 -0.945448 0
M  V30 4057 C 395.086 1.69682 0.119189 0
M  V30 4058 O 396.271 1.94169 -0.034707 0
M  V30 4059 C 393.401 3.44004 -0.477316 0
M  V30 4060 C 392.355 4.0148 -1.48316 0
M  V30 4061 C 391.681 5.27537 -0.872311 0
M  V30 4062 C 392.981 4.36921 -2.86177 0
M  V30 4063 H 394.675 2.34141 -1.86597 0
M  V30 4064 H 392.221 1.12523 -0.898584 0
M  V30 4065 H 394.174 4.20372 -0.294204 0
M  V30 4066 H 392.898 3.23072 0.478786 0
M  V30 4067 H 391.557 3.27201 -1.65332 0
M  V30 4068 H 391.205 5.02917 0.0911752 0
M  V30 4069 H 390.905 5.66954 -1.54393 0
M  V30 4070 H 392.429 6.06576 -0.699871 0
M  V30 4071 H 393.843 5.04248 -2.72776 0
M  V30 4072 H 392.24 4.87405 -3.50081 0
M  V30 4073 H 393.31 3.46466 -3.39248 0
M  V30 4074 N 394.653 0.992116 1.22453 0
M  V30 4075 C 395.563 0.55065 2.28046 0
M  V30 4076 C 396.579 -0.400189 1.69335 0
M  V30 4077 O 397.755 -0.267215 1.99619 0
M  V30 4078 C 394.82 -0.128496 3.46462 0
M  V30 4079 C 393.881 0.865208 4.20491 0
M  V30 4080 C 393.114 0.218377 5.33253 0
M  V30 4081 O 393.337 -0.987894 5.6178 0
M  V30 4082 O 392.271 0.922845 5.94783 0
M  V30 4083 H 396.097 1.4291 2.67975 0
M  V30 4084 H 393.682 0.760326 1.28606 0
M  V30 4085 H 395.564 -0.508947 4.18315 0
M  V30 4086 H 394.239 -0.981526 3.0846 0
M  V30 4087 H 393.146 1.29658 3.50913 0
M  V30 4088 H 394.479 1.68741 4.62371 0
M  V30 4089 N 396.131 -1.37776 0.765217 0
M  V30 4090 C 397.041 -2.34135 0.147666 0
M  V30 4091 C 398.057 -1.59854 -0.687215 0
M  V30 4092 O 399.233 -1.91983 -0.608659 0
M  V30 4093 C 396.298 -3.3901 -0.72617 0
M  V30 4094 C 395.359 -4.2912 0.124417 0
M  V30 4095 C 394.592 -5.28986 -0.707807 0
M  V30 4096 O 394.815 -5.36205 -1.94525 0
M  V30 4097 O 393.749 -6.01779 -0.12046 0
M  V30 4098 H 397.575 -2.88664 0.943758 0
M  V30 4099 H 395.16 -1.39824 0.526277 0
M  V30 4100 H 397.042 -4.03195 -1.22524 0
M  V30 4101 H 395.717 -2.86819 -1.50056 0
M  V30 4102 H 394.624 -3.68057 0.669696 0
M  V30 4103 H 395.957 -4.84598 0.861736 0
M  V30 4104 N 397.609 -0.515225 -1.4894 0
M  V30 4105 C 398.837 0.0206034 -2.0689 0
M  V30 4106 C 399.252 1.29514 -1.37374 0
M  V30 4107 O 398.609 1.76698 -0.456529 0
M  V30 4108 C 398.66 0.26351 -3.60538 0
M  V30 4109 O 398.381 -0.960517 -4.27441 0
M  V30 4110 C 399.882 0.841383 -4.35242 0
M  V30 4111 H 397.102 -0.0268608 -0.670462 0
M  V30 4112 H 399.646 -0.716651 -1.91532 0
M  V30 4113 H 397.801 0.950777 -3.75552 0
M  V30 4114 H 398.215 -0.73212 -5.19365 0
M  V30 4115 H 399.689 0.96085 -5.43573 0
M  V30 4116 H 400.166 1.8427 -3.98674 0
M  V30 4117 H 400.772 0.191143 -4.2487 0
M  V30 4118 N 399.087 1.5561 -0.249682 0
M  V30 4119 C 400.333 1.99306 0.374841 0
M  V30 4120 C 400.666 1.13767 1.57387 0
M  V30 4121 O 399.941 0.201711 1.93451 0
M  V30 4122 C 400.224 3.51507 0.781986 0
M  V30 4123 C 400.077 4.4781 -0.422629 0
M  V30 4124 C 401.396 4.08884 1.62793 0
M  V30 4125 H 398.515 0.724572 0.134773 0
M  V30 4126 H 401.157 1.86719 -0.351549 0
M  V30 4127 H 399.307 3.62363 1.4009 0
M  V30 4128 H 400.979 4.48931 -1.06108 0
M  V30 4129 H 399.222 4.20518 -1.06524 0
M  V30 4130 H 399.893 5.51919 -0.0943766 0
M  V30 4131 H 402.369 4.01147 1.10547 0
M  V30 4132 H 401.245 5.1564 1.88166 0
M  V30 4133 H 401.506 3.57515 2.60068 0
M  V30 4134 N 400.565 -0.0233959 1.57583 0
M  V30 4135 C 401.497 -1.04994 2.03737 0
M  V30 4136 C 402.51 -1.32125 0.951152 0
M  V30 4137 O 403.699 -1.29512 1.22837 0
M  V30 4138 C 400.799 -2.39026 2.40249 0
M  V30 4139 C 399.972 -2.31171 3.7132 0
M  V30 4140 C 399.031 -3.47698 3.94959 0
M  V30 4141 O 398.057 -3.26937 4.65941 0
M  V30 4142 N 399.259 -4.6976 3.41037 0
M  V30 4143 H 402.024 -0.656507 2.92421 0
M  V30 4144 H 399.585 -0.211235 1.60516 0
M  V30 4145 H 401.577 -3.15712 2.53196 0
M  V30 4146 H 400.147 -2.70194 1.57207 0
M  V30 4147 H 399.367 -1.39547 3.68674 0
M  V30 4148 H 400.655 -2.23071 4.57293 0
M  V30 4149 H 400.053 -4.89528 2.83512 0
M  V30 4150 H 398.61 -5.43791 3.59353 0
M  V30 4151 N 402.043 -1.548 -0.295768 0
M  V30 4152 C 403.271 -1.78327 -1.04914 0
M  V30 4153 C 403.686 -0.545316 -1.80753 0
M  V30 4154 O 403.043 0.485013 -1.75937 0
M  V30 4155 C 403.094 -2.99418 -2.02561 0
M  V30 4156 O 402.815 -4.18431 -1.29798 0
M  V30 4157 C 404.316 -3.35375 -2.89895 0
M  V30 4158 H 401.536 -0.594618 -0.310918 0
M  V30 4159 H 404.08 -2.01763 -0.333454 0
M  V30 4160 H 402.235 -2.78175 -2.69624 0
M  V30 4161 H 402.649 -4.86736 -1.95419 0
M  V30 4162 H 404.123 -4.23332 -3.54251 0
M  V30 4163 H 404.6 -2.53761 -3.58472 0
M  V30 4164 H 405.206 -3.58796 -2.28355 0
M  V30 4165 N 403.521 0.559213 -1.47345 0
M  V30 4166 C 404.454 1.68201 -1.5422 0
M  V30 4167 C 405.432 1.57742 -0.394497 0
M  V30 4168 O 406.616 1.78628 -0.60201 0
M  V30 4169 C 403.743 3.0643 -1.44285 0
M  V30 4170 C 402.789 3.3534 -2.63532 0
M  V30 4171 S 403.622 3.24816 -4.25741 0
M  V30 4172 C 404.778 4.65542 -4.18355 0
M  V30 4173 H 405.011 1.62114 -2.49211 0
M  V30 4174 H 402.544 0.739871 -1.35519 0
M  V30 4175 H 404.502 3.86164 -1.3924 0
M  V30 4176 H 403.163 3.09984 -0.506816 0
M  V30 4177 H 402.356 4.36107 -2.52639 0
M  V30 4178 H 401.958 2.63221 -2.65689 0
M  V30 4179 H 404.25 5.56449 -3.86485 0
M  V30 4180 H 405.193 4.81493 -5.19202 0
M  V30 4181 H 405.601 4.43495 -3.49246 0
M  V30 4182 N 404.999 1.35443 0.805782 0
M  V30 4183 C 406.276 1.19325 1.54987 0
M  V30 4184 C 406.656 -0.227294 2.09873 0
M  V30 4185 O 406.004 -1.2309 1.92512 0
M  V30 4186 C 406.214 2.26196 2.65775 0
M  V30 4187 C 407.562 2.62043 3.34094 0
M  V30 4188 O 408.586 2.25115 2.76046 0
M  V30 4189 O 407.445 3.25542 4.38958 0
M  V30 4190 H 404.539 0.463623 0.684823 0
M  V30 4191 H 407.085 1.47127 0.845674 0
M  V30 4192 H 405.857 3.21471 2.23096 0
M  V30 4193 H 405.48 1.99667 3.43829 0
M  V30 4194 N 406.477 -1.02803 1.19454 0
M  V30 4195 C 407.705 -1.79841 1.02297 0
M  V30 4196 C 408.12 -1.83879 -0.428259 0
M  V30 4197 O 407.477 -1.28345 -1.29745 0
M  V30 4198 C 407.528 -3.24852 1.58598 0
M  V30 4199 O 407.249 -3.21097 2.98041 0
M  V30 4200 C 408.75 -4.18485 1.46236 0
M  V30 4201 H 405.97 -0.565936 0.360496 0
M  V30 4202 H 408.514 -1.2948 1.58288 0
M  V30 4203 H 406.669 -3.72401 1.06753 0
M  V30 4204 H 407.083 -4.12033 3.24545 0
M  V30 4205 H 408.557 -5.18121 1.90407 0
M  V30 4206 H 409.034 -4.37254 0.41301 0
M  V30 4207 H 409.64 -3.76811 1.97215 0
M  V30 4208 N 407.956 -0.998596 -1.21925 0
M  V30 4209 C 409.181 -0.696015 -1.95372 0
M  V30 4210 C 409.606 0.733826 -1.73195 0
M  V30 4211 O 408.964 1.50242 -1.01474 0
M  V30 4212 C 409.012 -1.01466 -3.4603 0
M  V30 4213 O 408.116 -0.116415 -4.12236 0
M  V30 4214 H 407.457 -0.259938 -0.611006 0
M  V30 4215 H 409.987 -1.33711 -1.54863 0
M  V30 4216 H 409.997 -0.958855 -3.96573 0
M  V30 4217 H 408.672 -2.05653 -3.61497 0
M  V30 4218 H 407.249 -0.228193 -3.72201 0
M  V30 4219 O 409.473 1.33471 -0.909268 0
M  V30 4220 H 410.164 1.86473 -0.524175 0
M  V30 END ATOM
M  V30 BEGIN BOND
M  V30 END BOND
M  V30 END CTAB
M  END
$$$$
