drugbank_target|P29460 Interleukin-12 subunit beta (DB02763; DB05459; DB05679; DB05848; DB06083)
 OpenBabel12092119443D

  0  0  0     0  0            999 V3000
M  V30 BEGIN CTAB
M  V30 COUNTS 5165 5230 0 0 0
M  V30 BEGIN ATOM
M  V30 1 H -0.908 1.98254 -0.117106 0
M  V30 2 N 0 1.576 0 0
M  V30 3 C 0.933 2.03868 1.02534 0
M  V30 4 C 1.911 0.928543 1.3348 0
M  V30 5 O 3.095 1.19667 1.45644 0
M  V30 6 C 0.222 2.43627 2.35294 0
M  V30 7 C -0.732 3.65373 2.2001 0
M  V30 8 S 0.101 5.13292 1.52614 0
M  V30 9 C 1.257 5.56322 2.86805 0
M  V30 10 H 1.49 2.90518 0.631377 0
M  V30 11 H -0.977 1.52953 0.210867 0
M  V30 12 H 0.981 2.67203 3.11629 0
M  V30 13 H -0.358 1.57376 2.7183 0
M  V30 14 H -1.165 3.90944 3.18086 0
M  V30 15 H -1.563 3.418 1.51819 0
M  V30 16 H 0.729 5.58782 3.83104 0
M  V30 17 H 1.672 6.56266 2.65933 0
M  V30 18 H 2.08 4.83886 2.90714 0
M  V30 19 N 1.4781 -0.272755 1.55222 0
M  V30 20 C 2.7181 -1.01197 1.77591 0
M  V30 21 C 3.0821 -1.8349 0.565294 0
M  V30 22 O 4.2831 -2.60387 0.667242 0
M  V30 23 C 2.5541 -1.87096 3.04516 0
M  V30 24 S 4.1131 -2.67279 3.48004 0
M  V30 25 H 0.9311 -0.340836 0.62398 0
M  V30 26 H 3.5331 -0.282374 1.9345 0
M  V30 27 H 2.2371 -1.25565 3.90719 0
M  V30 28 H 1.7681 -2.64376 2.91323 0
M  V30 29 H 3.7831 -3.89593 3.07297 0
M  V30 30 N 2.9562 -1.48159 -0.537278 0
M  V30 31 C 3.9062 -1.5854 -1.63857 0
M  V30 32 C 4.8902 -0.442969 -1.54682 0
M  V30 33 O 6.0822 -0.69401 -1.62827 0
M  V30 34 C 3.2112 -1.62144 -3.02596 0
M  V30 35 C 2.2972 -2.81841 -3.16901 0
M  V30 36 N 2.6882 -4.06337 -3.01204 0
M  V30 37 C 0.9862 -2.79021 -3.47942 0
M  V30 38 C 1.6872 -4.86606 -3.18731 0
M  V30 39 N 0.6632 -4.19288 -3.45974 0
M  V30 40 H 4.4652 -2.5255 -1.50319 0
M  V30 41 H 1.9792 -1.4443 -0.742555 0
M  V30 42 H 3.9762 -1.67674 -3.81695 0
M  V30 43 H 2.6362 -0.69245 -3.17231 0
M  V30 44 H 3.6472 -4.36888 -2.78117 0
M  V30 45 H 0.3242 -1.95347 -3.6898 0
M  V30 46 H 1.7142 -5.95385 -3.11394 0
M  V30 47 N 4.4343 0.785586 -1.36625 0
M  V30 48 C 5.3663 1.90711 -1.2713 0
M  V30 49 C 6.3793 1.61688 -0.189986 0
M  V30 50 O 7.5683 1.72864 -0.445014 0
M  V30 51 C 4.6683 3.25611 -0.939713 0
M  V30 52 C 3.8413 3.82385 -2.12369 0
M  V30 53 C 2.9003 4.95732 -1.76456 0
M  V30 54 O 1.9263 5.12047 -2.48589 0
M  V30 55 N 3.1283 5.76258 -0.700492 0
M  V30 56 H 5.8933 1.99376 -2.23762 0
M  V30 57 H 3.4543 0.964041 -1.30069 0
M  V30 58 H 5.4463 3.98937 -0.680554 0
M  V30 59 H 4.0163 3.12538 -0.0624074 0
M  V30 60 H 3.2363 3.01001 -2.54543 0
M  V30 61 H 4.5243 4.17047 -2.9146 0
M  V30 62 H 3.9223 5.65609 -0.101624 0
M  V30 63 H 2.4793 6.4987 -0.501165 0
M  V30 64 N 5.9124 1.20967 1.01018 0
M  V30 65 C 6.8444 0.922059 2.09835 0
M  V30 66 C 7.8574 -0.0927106 1.62536 0
M  V30 67 O 9.0464 0.139127 1.77957 0
M  V30 68 C 6.1464 0.362004 3.36961 0
M  V30 69 C 5.3194 1.42986 4.13369 0
M  V30 70 C 4.3784 0.879976 5.1879 0
M  V30 71 O 3.4044 1.56219 5.47343 0
M  V30 72 N 4.6064 -0.307396 5.79686 0
M  V30 73 H 7.3714 1.8588 2.35093 0
M  V30 74 H 4.9324 1.11422 1.1746 0
M  V30 75 H 6.9244 -0.0201474 4.04695 0
M  V30 76 H 5.4944 -0.479437 3.08902 0
M  V30 77 H 4.7144 1.98608 3.40512 0
M  V30 78 H 6.0024 2.14885 4.61196 0
M  V30 79 H 5.4004 -0.878796 5.58832 0
M  V30 80 H 3.9574 -0.631115 6.48737 0
M  V30 81 N 7.3905 -1.2043 1.01659 0
M  V30 82 C 8.3205 -2.25466 0.607226 0
M  V30 83 C 9.3015 -1.65853 -0.377716 0
M  V30 84 O 10.4865 -1.92409 -0.263149 0
M  V30 85 C 7.6165 -3.47256 -0.0552949 0
M  V30 86 C 6.5705 -4.19462 0.850632 0
M  V30 87 C 5.8965 -5.34673 0.0538859 0
M  V30 88 C 7.1965 -4.75603 2.15868 0
M  V30 89 H 8.8905 -2.59962 1.48526 0
M  V30 90 H 6.4365 -1.2496 0.715605 0
M  V30 91 H 8.3895 -4.19917 -0.353233 0
M  V30 92 H 7.1135 -3.11924 -0.968045 0
M  V30 93 H 5.7725 -3.48667 1.13257 0
M  V30 94 H 5.4205 -4.95585 -0.860514 0
M  V30 95 H 5.1205 -5.83913 0.657192 0
M  V30 96 H 6.6445 -6.10138 -0.237598 0
M  V30 97 H 8.0585 -5.40083 1.92311 0
M  V30 98 H 6.4555 -5.3528 2.71284 0
M  V30 99 H 7.5255 -3.94346 2.82169 0
M  V30 100 N 8.8686 -0.792821 -1.36206 0
M  V30 101 C 10.1146 -0.36733 -1.99446 0
M  V30 102 C 10.4476 1.05917 -1.62774 0
M  V30 103 O 9.7226 1.7324 -0.88421 0
M  V30 104 C 10.0056 -0.535044 -3.56103 0
M  V30 105 C 9.8586 -2.00548 -4.02617 0
M  V30 106 C 11.1776 0.0478191 -4.40074 0
M  V30 107 H 8.2966 -0.134941 -0.724541 0
M  V30 108 H 10.9386 -0.999794 -1.61568 0
M  V30 109 H 9.0886 0.00336329 -3.885 0
M  V30 110 H 10.7606 -2.60521 -3.80692 0
M  V30 111 H 9.0036 -2.50686 -3.54032 0
M  V30 112 H 9.6746 -2.07377 -5.11565 0
M  V30 113 H 12.1506 -0.411822 -4.14057 0
M  V30 114 H 11.0266 -0.0995336 -5.4881 0
M  V30 115 H 11.2876 1.14025 -4.27142 0
M  V30 116 N 10.3467 1.47872 -0.545128 0
M  V30 117 C 11.5957 2.01695 -0.0145033 0
M  V30 118 C 11.9087 1.42609 1.33873 0
M  V30 119 O 13.1147 1.88021 1.95858 0
M  V30 120 C 11.5707 3.59892 0.0245068 0
M  V30 121 C 11.1787 4.27966 -1.32475 0
M  V30 122 C 12.9227 4.21507 0.50316 0
M  V30 123 C 10.8297 5.78136 -1.2455 0
M  V30 124 H 9.7597 0.753998 -0.00165172 0
M  V30 125 H 12.4107 1.69985 -0.691175 0
M  V30 126 H 10.7927 3.88509 0.766575 0
M  V30 127 H 11.9667 4.11003 -2.08357 0
M  V30 128 H 10.2817 3.78286 -1.74036 0
M  V30 129 H 12.8787 5.31538 0.580656 0
M  V30 130 H 13.2217 3.87855 1.51243 0
M  V30 131 H 13.7547 3.97376 -0.183681 0
M  V30 132 H 10.4937 6.16388 -2.23039 0
M  V30 133 H 10.0137 5.97469 -0.528282 0
M  V30 134 H 11.6927 6.40099 -0.942488 0
M  V30 135 N 11.8248 0.280983 1.55075 0
M  V30 136 C 13.0498 -0.340154 2.04592 0
M  V30 137 C 13.4748 -1.48246 1.15779 0
M  V30 138 O 12.8328 -1.80614 0.15761 0
M  V30 139 C 12.8808 -0.793104 3.5177 0
M  V30 140 O 11.9848 -1.89981 3.66034 0
M  V30 141 H 11.3258 -0.0694289 0.66036 0
M  V30 142 H 13.8558 0.416993 2.00306 0
M  V30 143 H 13.8658 -1.08729 3.93245 0
M  V30 144 H 12.5408 0.0426163 4.15878 0
M  V30 145 H 11.1178 -1.60771 3.36463 0
M  V30 146 N 13.3029 -1.57598 0.00835791 0
M  V30 147 C 14.5489 -1.92046 -0.670055 0
M  V30 148 C 14.9039 -0.88351 -1.70915 0
M  V30 149 O 14.1969 0.103223 -1.91322 0
M  V30 150 C 14.3909 -3.3101 -1.34787 0
M  V30 151 C 14.2199 -4.48126 -0.375945 0
M  V30 152 C 12.9899 -5.05297 0.0166914 0
M  V30 153 C 15.1879 -5.1303 0.361272 0
M  V30 154 N 13.1699 -6.05931 0.985952 0
M  V30 155 C 14.5409 -6.08571 1.18495 0
M  V30 156 C 16.5959 -4.9609 0.42421 0
M  V30 157 C 15.2989 -6.88996 2.06584 0
M  V30 158 C 17.3249 -5.77107 1.29236 0
M  V30 159 C 16.6869 -6.72248 2.10386 0
M  V30 160 H 12.7859 -0.75096 -0.218136 0
M  V30 161 H 15.3699 -1.94572 0.0706669 0
M  V30 162 H 13.5409 -3.29342 -2.05884 0
M  V30 163 H 15.2729 -3.52864 -1.98164 0
M  V30 164 H 12.0279 -4.72279 -0.353435 0
M  V30 165 H 12.4519 -6.60932 1.4662 0
M  V30 166 H 17.0939 -4.22378 -0.188915 0
M  V30 167 H 14.8119 -7.62028 2.6896 0
M  V30 168 H 18.3979 -5.66038 1.34508 0
M  V30 169 H 17.2779 -7.33846 2.76476 0
M  V30 170 N 14.781 0.264519 -1.55364 0
M  V30 171 C 16.028 0.994986 -1.7637 0
M  V30 172 C 16.356 1.85976 -0.5695 0
M  V30 173 O 15.611 1.90509 0.44776 0
M  V30 174 C 15.91 1.9004 -3.02687 0
M  V30 175 C 15.576 1.19243 -4.34847 0
M  V30 176 C 14.238 0.996709 -4.70764 0
M  V30 177 C 16.59 0.689296 -5.16622 0
M  V30 178 C 13.918 0.285261 -5.86006 0
M  V30 179 C 16.27 -0.00860079 -6.32599 0
M  V30 180 C 14.934 -0.215963 -6.67151 0
M  V30 181 H 14.204 0.364091 -0.645383 0
M  V30 182 H 16.851 0.266543 -1.89636 0
M  V30 183 H 15.156 2.69533 -2.84357 0
M  V30 184 H 16.853 2.46695 -3.16137 0
M  V30 185 H 13.443 1.3549 -4.06621 0
M  V30 186 H 17.627 0.828108 -4.89342 0
M  V30 187 H 12.883 0.113961 -6.11294 0
M  V30 188 H 17.057 -0.406186 -6.95214 0
M  V30 189 H 14.684 -0.769217 -7.56298 0
M  V30 190 N 16.2591 1.48442 0.529413 0
M  V30 191 C 17.4841 1.60406 1.31471 0
M  V30 192 C 17.9091 0.264738 1.86228 0
M  V30 193 O 17.2671 -0.763668 1.64432 0
M  V30 194 C 17.3151 2.65419 2.44101 0
M  V30 195 O 16.4191 2.22618 3.47153 0
M  V30 196 H 15.7601 0.537863 0.389357 0
M  V30 197 H 18.2901 1.94432 0.636965 0
M  V30 198 H 18.3001 2.86709 2.90279 0
M  V30 199 H 16.9751 3.62652 2.03608 0
M  V30 200 H 15.5521 2.11543 3.0709 0
M  V30 201 N 17.7372 -0.778329 1.37039 0
M  V30 202 C 18.6672 -1.90546 1.34962 0
M  V30 203 C 19.6482 -1.68681 0.219274 0
M  V30 204 O 20.8332 -1.89634 0.418624 0
M  V30 205 C 17.9632 -3.27734 1.14925 0
M  V30 206 C 16.9172 -3.64147 2.24902 0
M  V30 207 C 16.2432 -4.99806 1.89996 0
M  V30 208 C 17.5432 -3.71579 3.67051 0
M  V30 209 H 19.2372 -1.92541 2.29277 0
M  V30 210 H 16.7832 -0.924948 1.10366 0
M  V30 211 H 18.7362 -4.06215 1.12104 0
M  V30 212 H 17.4602 -3.26154 0.170631 0
M  V30 213 H 16.1192 -2.8797 2.26868 0
M  V30 214 H 15.7672 -4.94759 0.906796 0
M  V30 215 H 15.4672 -5.25139 2.63634 0
M  V30 216 H 16.9912 -5.80694 1.88749 0
M  V30 217 H 18.4052 -4.40227 3.67251 0
M  V30 218 H 16.8022 -4.08405 4.39688 0
M  V30 219 H 17.8722 -2.72404 4.01154 0
M  V30 220 N 19.2153 -1.21501 -1.00376 0
M  V30 221 C 20.4613 -1.03452 -1.74429 0
M  V30 222 C 20.7943 0.430764 -1.89362 0
M  V30 223 O 20.0693 1.31962 -1.42886 0
M  V30 224 C 20.3523 -1.73375 -3.15615 0
M  V30 225 C 20.2053 -3.27431 -3.08397 0
M  V30 226 C 21.5243 -1.47732 -4.14564 0
M  V30 227 H 18.6433 -0.377226 -0.633143 0
M  V30 228 H 21.2853 -1.49693 -1.17013 0
M  V30 229 H 19.4353 -1.34064 -3.64636 0
M  V30 230 H 21.1073 -3.76119 -2.67081 0
M  V30 231 H 19.3503 -3.5767 -2.45468 0
M  V30 232 H 20.0213 -3.71524 -4.08258 0
M  V30 233 H 22.4973 -1.8186 -3.74254 0
M  V30 234 H 21.3733 -1.99169 -5.11491 0
M  V30 235 H 21.6343 -0.407589 -4.40217 0
M  V30 236 N 20.6934 1.19889 -1.02296 0
M  V30 237 C 21.9404 1.8942 -0.715972 0
M  V30 238 C 22.2684 1.79251 0.754944 0
M  V30 239 O 21.5234 1.17526 1.56481 0
M  V30 240 C 21.8224 3.39883 -1.10518 0
M  V30 241 C 21.4884 3.70254 -2.57337 0
M  V30 242 C 20.1504 3.78254 -2.97452 0
M  V30 243 C 22.5024 3.84052 -3.52354 0
M  V30 244 C 19.8304 3.97514 -4.31509 0
M  V30 245 C 22.1824 4.04824 -4.86108 0
M  V30 246 C 20.8464 4.11054 -5.25919 0
M  V30 247 H 20.1164 0.693138 -0.261993 0
M  V30 248 H 22.7634 1.42012 -1.28472 0
M  V30 249 H 21.0684 3.8915 -0.454953 0
M  V30 250 H 22.7654 3.9199 -0.845261 0
M  V30 251 H 19.3554 3.64632 -2.25258 0
M  V30 252 H 23.5394 3.77221 -3.22518 0
M  V30 253 H 18.7954 4.00574 -4.61898 0
M  V30 254 H 22.9694 4.14442 -5.59653 0
M  V30 255 H 20.5964 4.2573 -6.29808 0
M  V30 256 N 22.1715 0.800033 1.35784 0
M  V30 257 C 23.1015 0.220184 2.3246 0
M  V30 258 C 24.0825 -0.65073 1.57161 0
M  V30 259 O 25.2675 -0.582359 1.85263 0
M  V30 260 C 22.3975 -0.637353 3.41402 0
M  V30 261 C 21.3515 0.134531 4.27789 0
M  V30 262 C 20.6775 -0.844285 5.27992 0
M  V30 263 C 21.9775 1.32979 5.05088 0
M  V30 264 H 23.6715 1.02787 2.81203 0
M  V30 265 H 21.2175 0.495717 1.35199 0
M  V30 266 H 23.1705 -1.05302 4.08031 0
M  V30 267 H 21.8945 -1.47785 2.91251 0
M  V30 268 H 20.5535 0.531296 3.6273 0
M  V30 269 H 20.2015 -1.68011 4.74111 0
M  V30 270 H 19.9015 -0.332184 5.8666 0
M  V30 271 H 21.4255 -1.2583 5.97494 0
M  V30 272 H 22.8395 0.98934 5.64699 0
M  V30 273 H 21.2365 1.77593 5.7322 0
M  V30 274 H 22.3065 2.11978 4.36111 0
M  V30 275 N 23.6496 -1.47581 0.552962 0
M  V30 276 C 24.6126 -2.28439 -0.186605 0
M  V30 277 C 25.6126 -1.36706 -0.84665 0
M  V30 278 O 26.8026 -1.59378 -0.703164 0
M  V30 279 C 23.9346 -3.16264 -1.2724 0
M  V30 280 H 25.1276 -2.95294 0.523609 0
M  V30 281 H 22.6806 -1.532 0.309745 0
M  V30 282 H 23.4156 -2.54091 -2.01514 0
M  V30 283 H 23.2006 -3.83769 -0.803968 0
M  V30 284 H 24.6906 -3.77198 -1.79196 0
M  V30 285 N 25.1277 -0.289203 -1.54924 0
M  V30 286 C 26.3527 0.329299 -2.04769 0
M  V30 287 C 26.7777 1.4763 -1.16564 0
M  V30 288 O 26.1357 1.80527 -0.167186 0
M  V30 289 C 26.1837 0.774438 -3.52186 0
M  V30 290 O 25.2877 1.88038 -3.67036 0
M  V30 291 H 24.6287 0.0659259 -0.660719 0
M  V30 292 H 27.1587 -0.42761 -2.00082 0
M  V30 293 H 27.1687 1.06642 -3.93816 0
M  V30 294 H 25.8437 -0.0646707 -4.1585 0
M  V30 295 H 24.4207 1.58985 -3.3731 0
M  V30 296 N 26.6058 1.57591 -0.0167156 0
M  V30 297 C 28.0168 1.79201 0.523834 0
M  V30 298 C 28.3678 0.925796 1.72984 0
M  V30 299 O 27.4928 0.132792 2.15992 0
M  V30 300 C 28.0878 3.25 0.957091 0
M  V30 301 C 26.6468 3.47648 1.44283 0
M  V30 302 C 25.7938 2.74374 0.401757 0
M  V30 303 H 28.7448 1.56831 -0.242816 0
M  V30 304 H 28.7658 3.34031 1.82219 0
M  V30 305 H 28.2778 3.88019 0.0791415 0
M  V30 306 H 26.3788 2.89866 2.34113 0
M  V30 307 H 26.4918 4.56352 1.45877 0
M  V30 308 H 24.8558 2.39485 0.867121 0
M  V30 309 H 25.6388 3.40102 -0.467513 0
M  V30 310 N 28.0839 -0.256276 1.55502 0
M  V30 311 C 29.0139 -1.32102 1.92539 0
M  V30 312 C 29.9949 -1.50684 0.789194 0
M  V30 313 O 31.1799 -1.63449 1.04872 0
M  V30 314 C 28.3099 -2.67752 2.21192 0
M  V30 315 C 27.2639 -2.63878 3.36975 0
M  V30 316 C 26.5899 -4.03236 3.51147 0
M  V30 317 C 27.8899 -2.21682 4.72921 0
M  V30 318 H 29.5839 -1.01351 2.81724 0
M  V30 319 H 27.1299 -0.486105 1.35547 0
M  V30 320 H 29.0829 -3.42365 2.45691 0
M  V30 321 H 27.8069 -3.0012 1.28824 0
M  V30 322 H 26.4659 -1.91722 3.12471 0
M  V30 323 H 26.1139 -4.32854 2.56216 0
M  V30 324 H 25.8139 -4.01535 4.29003 0
M  V30 325 H 27.3379 -4.79563 3.77957 0
M  V30 326 H 28.7519 -2.86023 4.96854 0
M  V30 327 H 27.1489 -2.3111 5.53812 0
M  V30 328 H 28.2189 -1.16833 4.70615 0
M  V30 329 N 29.562 -1.4872 -0.521534 0
M  V30 330 C 30.808 -1.574 -1.27879 0
M  V30 331 C 31.141 -0.250817 -1.92573 0
M  V30 332 O 30.416 0.743934 -1.79711 0
M  V30 333 C 30.699 -2.71843 -2.36164 0
M  V30 334 C 30.552 -4.13893 -1.76105 0
M  V30 335 C 31.871 -2.82008 -3.37875 0
M  V30 336 H 28.99 -0.572941 -0.463581 0
M  V30 337 H 31.632 -1.80927 -0.580119 0
M  V30 338 H 29.782 -2.51914 -2.95756 0
M  V30 339 H 31.454 -4.45284 -1.20499 0
M  V30 340 H 29.697 -4.20498 -1.06601 0
M  V30 341 H 30.368 -4.89804 -2.5455 0
M  V30 342 H 32.844 -3.00086 -2.88249 0
M  V30 343 H 31.72 -3.63796 -4.11028 0
M  V30 344 H 31.981 -1.90511 -3.98946 0
M  V30 345 N 31.0401 0.771051 -1.3745 0
M  V30 346 C 32.0031 1.86598 -1.33093 0
M  V30 347 C 33.0031 1.59076 -0.234845 0
M  V30 348 O 34.1931 1.67145 -0.490732 0
M  V30 349 C 31.3251 3.23747 -1.06773 0
M  V30 350 H 32.5181 1.91873 -2.30488 0
M  V30 351 H 30.0711 0.970876 -1.2249 0
M  V30 352 H 30.8061 3.24148 -0.099129 0
M  V30 353 H 30.5911 3.45115 -1.86112 0
M  V30 354 H 32.0811 4.03824 -1.06377 0
M  V30 355 N 32.5182 1.22032 0.997298 0
M  V30 356 C 33.7672 1.03637 1.73038 0
M  V30 357 C 34.0802 -0.429475 1.90827 0
M  V30 358 O 35.2862 -0.732995 2.61418 0
M  V30 359 C 33.7422 1.80582 3.11317 0
M  V30 360 C 33.3502 3.31387 3.01474 0
M  V30 361 C 35.0942 1.70621 3.88701 0
M  V30 362 C 33.0012 4.00791 4.3488 0
M  V30 363 H 31.9312 0.384179 0.648785 0
M  V30 364 H 34.5822 1.4584 1.11368 0
M  V30 365 H 32.9642 1.31175 3.73643 0
M  V30 366 H 34.1382 3.88155 2.4834 0
M  V30 367 H 32.4532 3.41976 2.37575 0
M  V30 368 H 35.0502 2.19799 4.87434 0
M  V30 369 H 35.3932 0.665823 4.10941 0
M  V30 370 H 35.9262 2.17547 3.33044 0
M  V30 371 H 32.6652 5.05064 4.1784 0
M  V30 372 H 32.1852 3.48811 4.87945 0
M  V30 373 H 33.8642 4.06139 5.03647 0
M  V30 374 N 33.9963 -1.19345 1.0293 0
M  V30 375 C 35.2423 -1.89585 0.736824 0
M  V30 376 C 35.5973 -1.78148 -0.726703 0
M  V30 377 O 34.8903 -1.16332 -1.52242 0
M  V30 378 C 35.0843 -3.39292 1.12319 0
M  V30 379 C 34.9133 -3.65298 2.62273 0
M  V30 380 C 33.6833 -3.83304 3.29251 0
M  V30 381 C 35.8813 -3.6682 3.60482 0
M  V30 382 N 33.8633 -3.96944 4.68304 0
M  V30 383 C 35.2343 -3.86037 4.85155 0
M  V30 384 C 37.2893 -3.49848 3.54275 0
M  V30 385 C 35.9923 -3.9004 6.04369 0
M  V30 386 C 38.0183 -3.55129 4.72903 0
M  V30 387 C 37.3803 -3.74831 5.9639 0
M  V30 388 H 33.4793 -0.712856 0.321497 0
M  V30 389 H 36.0633 -1.43427 1.31669 0
M  V30 390 H 34.2343 -3.84172 0.571524 0
M  V30 391 H 35.9663 -3.97055 0.78292 0
M  V30 392 H 32.7213 -3.82211 2.79663 0
M  V30 393 H 33.1453 -4.07613 5.40538 0
M  V30 394 H 37.7873 -3.33572 2.59788 0
M  V30 395 H 35.5053 -4.05108 6.99223 0
M  V30 396 H 39.0913 -3.43287 4.69729 0
M  V30 397 H 37.9713 -3.78792 6.86649 0
M  V30 398 N 35.4744 -0.807222 -1.35358 0
M  V30 399 C 36.3844 -0.219594 -2.3357 0
M  V30 400 C 37.4004 0.637734 -1.61892 0
M  V30 401 O 38.5764 0.549336 -1.93763 0
M  V30 402 C 35.6414 0.62158 -3.41083 0
M  V30 403 C 34.7024 -0.256315 -4.28534 0
M  V30 404 C 33.9354 0.544807 -5.30912 0
M  V30 405 O 34.1584 1.77944 -5.41934 0
M  V30 406 O 33.0924 -0.0646478 -6.01865 0
M  V30 407 H 36.9184 -1.03208 -2.85625 0
M  V30 408 H 34.5034 -0.569025 -1.38139 0
M  V30 409 H 36.3854 1.10067 -4.06772 0
M  V30 410 H 35.0604 1.41165 -2.91297 0
M  V30 411 H 33.9674 -0.782559 -3.65823 0
M  V30 412 H 35.3004 -1.01034 -4.81719 0
M  V30 413 N 36.9525 1.47285 -0.560781 0
M  V30 414 C 37.8825 2.32857 0.173105 0
M  V30 415 C 38.8635 1.44009 0.905281 0
M  V30 416 O 40.0485 1.7286 0.885046 0
M  V30 417 C 37.1785 3.25861 1.20133 0
M  V30 418 C 36.1325 4.23978 0.585388 0
M  V30 419 C 35.4585 5.06332 1.7185 0
M  V30 420 C 36.7585 5.20242 -0.463178 0
M  V30 421 H 38.4525 2.94466 -0.541307 0
M  V30 422 H 35.9985 1.41601 -0.261764 0
M  V30 423 H 37.9515 3.84569 1.72293 0
M  V30 424 H 36.6755 2.62315 1.94573 0
M  V30 425 H 35.3345 3.66501 0.085054 0
M  V30 426 H 34.9825 4.39186 2.45203 0
M  V30 427 H 34.6825 5.72762 1.31213 0
M  V30 428 H 36.2065 5.67899 2.24329 0
M  V30 429 H 37.6205 5.73293 -0.027502 0
M  V30 430 H 36.0175 5.94896 -0.788627 0
M  V30 431 H 37.0875 4.65504 -1.35773 0
M  V30 432 N 38.4306 0.297415 1.54768 0
M  V30 433 C 39.3776 -0.580276 2.23386 0
M  V30 434 C 40.3476 -1.13238 1.21517 0
M  V30 435 O 41.5326 -1.17757 1.50126 0
M  V30 436 C 38.6726 -1.74801 2.97555 0
M  V30 437 C 37.7856 -1.22764 4.1419 0
M  V30 438 C 36.9206 -2.35895 4.75949 0
M  V30 439 C 35.9596 -1.80974 5.84735 0
M  V30 440 N 35.0966 -2.87664 6.40464 0
M  V30 441 H 39.9366 0.0114833 2.97998 0
M  V30 442 H 37.4736 0.0174361 1.4709 0
M  V30 443 H 39.4316 -2.43475 3.38786 0
M  V30 444 H 38.0616 -2.31145 2.25326 0
M  V30 445 H 37.1136 -0.433271 3.77924 0
M  V30 446 H 38.4256 -0.785551 4.92575 0
M  V30 447 H 37.5796 -3.12523 5.20014 0
M  V30 448 H 36.3186 -2.83429 3.96887 0
M  V30 449 H 35.3236 -1.02834 5.40097 0
M  V30 450 H 36.5486 -1.34348 6.65678 0
M  V30 451 H 34.4946 -3.34538 5.64287 0
M  V30 452 H 34.4116 -2.4794 7.14186 0
M  V30 453 H 35.6796 -3.642 6.89187 0
M  V30 454 N 39.9087 -1.5758 0.0250728 0
M  V30 455 C 40.8557 -2.09973 -0.958129 0
M  V30 456 C 41.8257 -1.00085 -1.3256 0
M  V30 457 O 43.0107 -1.27481 -1.41962 0
M  V30 458 C 40.1507 -2.62812 -2.2366 0
M  V30 459 C 39.2637 -3.86693 -1.92594 0
M  V30 460 C 38.3987 -4.27941 -3.14707 0
M  V30 461 C 37.4377 -5.44591 -2.79442 0
M  V30 462 N 36.5747 -5.81014 -3.94167 0
M  V30 463 H 41.4147 -2.937 -0.504428 0
M  V30 464 H 38.9517 -1.45172 -0.237392 0
M  V30 465 H 40.9097 -2.91536 -2.98434 0
M  V30 466 H 39.5397 -1.81922 -2.66654 0
M  V30 467 H 38.5917 -3.64723 -1.0808 0
M  V30 468 H 39.9037 -4.71547 -1.62619 0
M  V30 469 H 39.0577 -4.58079 -3.97804 0
M  V30 470 H 37.7967 -3.41845 -3.4784 0
M  V30 471 H 36.8017 -5.1415 -1.94755 0
M  V30 472 H 38.0267 -6.32382 -2.47528 0
M  V30 473 H 35.9727 -4.97874 -4.2715 0
M  V30 474 H 35.8897 -6.60498 -3.67801 0
M  V30 475 H 37.1577 -6.15756 -4.7798 0
M  V30 476 N 41.3868 0.248026 -1.55636 0
M  V30 477 C 42.6638 0.998988 -1.68165 0
M  V30 478 C 43.0438 2.03409 -0.564621 0
M  V30 479 O 42.3918 2.24378 0.432076 0
M  V30 480 C 42.6018 1.63334 -3.0842 0
M  V30 481 C 43.9498 2.13562 -3.66983 0
M  V30 482 O 44.9738 1.73277 -3.11213 0
M  V30 483 O 43.8328 2.87526 -4.64749 0
M  V30 484 H 40.9268 0.464933 -0.683935 0
M  V30 485 H 43.4728 0.241902 -1.67967 0
M  V30 486 H 42.2448 0.884583 -3.8117 0
M  V30 487 H 41.8678 2.45666 -3.12624 0
M  V30 488 N 42.8649 1.48995 0.513639 0
M  V30 489 C 44.1109 1.58076 1.27042 0
M  V30 490 C 44.4439 0.261026 1.92438 0
M  V30 491 O 43.7189 -0.734393 1.80103 0
M  V30 492 C 44.0019 2.73091 2.34719 0
M  V30 493 C 43.8549 4.14821 1.73907 0
M  V30 494 C 45.1739 2.83796 3.36375 0
M  V30 495 H 42.2929 0.575391 0.460536 0
M  V30 496 H 44.9349 1.81232 0.570516 0
M  V30 497 H 43.0849 2.53479 2.94416 0
M  V30 498 H 44.7569 4.45917 1.18135 0
M  V30 499 H 42.9999 4.21058 1.0437 0
M  V30 500 H 43.6709 4.91147 2.51949 0
M  V30 501 H 46.1469 3.01611 2.86653 0
M  V30 502 H 45.0229 3.65971 4.09093 0
M  V30 503 H 45.2839 1.92624 3.9793 0
M  V30 504 N 44.343 -0.763751 1.37857 0
M  V30 505 C 45.573 -1.55067 1.3652 0
M  V30 506 C 45.981 -1.89135 -0.0494227 0
M  V30 507 O 45.324 -1.52529 -1.02375 0
M  V30 508 C 45.386 -2.8838 2.14656 0
M  V30 509 C 45.05 -2.76905 3.63555 0
M  V30 510 C 46.047 -2.4739 4.57268 0
M  V30 511 C 43.732 -2.94676 4.06781 0
M  V30 512 C 45.726 -2.35786 5.92186 0
M  V30 513 C 43.413 -2.82692 5.41782 0
M  V30 514 C 44.411 -2.53289 6.34298 0
M  V30 515 O 44.099 -2.41345 7.66817 0
M  V30 516 H 43.831 -0.486776 0.469069 0
M  V30 517 H 46.385 -0.953812 1.81911 0
M  V30 518 H 44.615 -3.50217 1.63967 0
M  V30 519 H 46.304 -3.49828 2.05852 0
M  V30 520 H 47.07 -2.33339 4.2518 0
M  V30 521 H 42.949 -3.16563 3.35126 0
M  V30 522 H 46.493 -2.12757 6.64365 0
M  V30 523 H 42.39 -2.96314 5.7347 0
M  V30 524 H 43.158 -2.56634 7.77226 0
M  V30 525 N 45.8211 -1.22559 -0.990812 0
M  V30 526 C 47.0671 -1.05297 -1.73322 0
M  V30 527 C 47.4001 0.410655 -1.89808 0
M  V30 528 O 46.6751 1.30439 -1.44277 0
M  V30 529 C 46.9581 -1.76713 -3.13759 0
M  V30 530 C 46.8111 -3.30684 -3.04907 0
M  V30 531 C 48.1301 -1.52121 -4.12974 0
M  V30 532 H 45.2491 -0.38392 -0.629106 0
M  V30 533 H 47.8911 -1.50926 -1.15418 0
M  V30 534 H 46.0411 -1.37924 -3.63193 0
M  V30 535 H 47.7131 -3.7893 -2.63077 0
M  V30 536 H 45.9561 -3.60253 -2.41661 0
M  V30 537 H 46.6271 -3.75833 -4.04294 0
M  V30 538 H 49.1031 -1.85819 -3.72304 0
M  V30 539 H 47.9791 -2.04582 -5.0935 0
M  V30 540 H 48.2401 -0.454257 -4.3976 0
M  V30 541 N 47.2992 1.18797 -1.03562 0
M  V30 542 C 48.5452 1.8893 -0.737113 0
M  V30 543 C 48.8782 1.79837 0.732956 0
M  V30 544 O 48.1532 1.19525 1.5344 0
M  V30 545 C 48.4362 3.39607 -1.19745 0
M  V30 546 C 48.2892 3.57537 -2.72924 0
M  V30 547 C 49.6082 4.33069 -0.783526 0
M  V30 548 H 46.7272 0.686057 -0.269249 0
M  V30 549 H 49.3692 1.39797 -1.28673 0
M  V30 550 H 47.5192 3.81583 -0.729855 0
M  V30 551 H 49.1912 3.24688 -3.27682 0
M  V30 552 H 47.4342 3.00363 -3.12993 0
M  V30 553 H 48.1052 4.63238 -3.00191 0
M  V30 554 H 50.5812 3.98846 -1.18581 0
M  V30 555 H 49.4572 5.3707 -1.13343 0
M  V30 556 H 49.7182 4.40986 0.313681 0
M  V30 557 N 48.7773 0.814389 1.34928 0
M  V30 558 C 49.6873 0.231978 2.3345 0
M  V30 559 C 50.7033 -0.629139 1.62228 0
M  V30 560 O 51.8793 -0.539052 1.94052 0
M  V30 561 C 48.9443 -0.603482 3.41407 0
M  V30 562 C 48.0053 0.279037 4.28392 0
M  V30 563 C 47.2383 -0.516643 5.31193 0
M  V30 564 O 47.4613 -1.75068 5.4287 0
M  V30 565 O 46.3953 0.0965652 6.01823 0
M  V30 566 H 50.2213 1.04721 2.85074 0
M  V30 567 H 47.8063 0.576343 1.37836 0
M  V30 568 H 49.6883 -1.07908 4.0735 0
M  V30 569 H 48.3633 -1.39618 2.92042 0
M  V30 570 H 47.2703 0.801948 3.65403 0
M  V30 571 H 48.6033 1.03588 4.81176 0
M  V30 572 N 50.2554 -1.46986 0.568584 0
M  V30 573 C 51.1854 -2.32946 -0.160753 0
M  V30 574 C 52.1664 -1.44487 -0.897631 0
M  V30 575 O 53.3514 -1.73327 -0.875867 0
M  V30 576 C 50.4814 -3.26494 -1.18403 0
M  V30 577 C 49.4354 -4.24282 -0.562895 0
M  V30 578 C 48.7614 -5.07236 -1.69163 0
M  V30 579 C 50.0614 -5.19989 0.490761 0
M  V30 580 H 51.7554 -2.94175 0.556916 0
M  V30 581 H 49.3014 -1.4146 0.26927 0
M  V30 582 H 51.2544 -3.85477 -1.70251 0
M  V30 583 H 49.9784 -2.63343 -1.93179 0
M  V30 584 H 48.6374 -3.66541 -0.0656164 0
M  V30 585 H 48.2854 -4.4048 -2.42871 0
M  V30 586 H 47.9854 -5.7345 -1.28174 0
M  V30 587 H 49.5094 -5.6908 -2.21314 0
M  V30 588 H 50.9234 -5.73271 0.0579047 0
M  V30 589 H 49.3204 -5.94469 0.820165 0
M  V30 590 H 50.3904 -4.64777 1.3824 0
M  V30 591 N 51.7335 -0.305618 -1.54608 0
M  V30 592 C 53.0105 0.355652 -1.92339 0
M  V30 593 C 53.3905 1.71324 -1.23335 0
M  V30 594 O 52.7385 2.25473 -0.370702 0
M  V30 595 C 52.9485 0.46572 -3.45879 0
M  V30 596 C 54.2965 0.734426 -4.182 0
M  V30 597 O 55.3205 0.54935 -3.51938 0
M  V30 598 O 54.1795 1.09024 -5.35515 0
M  V30 599 H 51.2735 0.199666 -0.802535 0
M  V30 600 H 53.8195 -0.354017 -1.65966 0
M  V30 601 H 52.5915 -0.488461 -3.88239 0
M  V30 602 H 52.2145 1.22367 -3.78301 0
M  V30 603 N 53.2116 1.57565 -0.0334293 0
M  V30 604 C 54.4576 1.93088 0.639417 0
M  V30 605 C 54.8126 0.910589 1.69488 0
M  V30 606 O 54.1056 -0.0727725 1.91462 0
M  V30 607 C 54.2996 3.33112 1.29504 0
M  V30 608 C 54.1286 4.48667 0.304604 0
M  V30 609 C 52.8986 5.05207 -0.0970777 0
M  V30 610 C 55.0966 5.1239 -0.442845 0
M  V30 611 N 53.0786 6.04286 -1.08223 0
M  V30 612 C 54.4496 6.06609 -1.28161 0
M  V30 613 C 56.5046 4.95352 -0.50308 0
M  V30 614 C 55.2076 6.85622 -2.17519 0
M  V30 615 C 57.2336 5.74978 -1.38401 0
M  V30 616 C 56.5956 6.68816 -2.21054 0
M  V30 617 H 52.6946 0.754335 0.206161 0
M  V30 618 H 55.2786 1.94435 -0.101613 0
M  V30 619 H 53.4496 3.32576 2.00618 0
M  V30 620 H 55.1816 3.55972 1.92525 0
M  V30 621 H 51.9366 4.72782 0.278255 0
M  V30 622 H 52.3606 6.58516 -1.57117 0
M  V30 623 H 57.0026 4.22625 0.121694 0
M  V30 624 H 54.7206 7.57652 -2.81049 0
M  V30 625 H 58.3066 5.63826 -1.43496 0
M  V30 626 H 57.1866 7.29355 -2.88116 0
M  V30 627 N 54.6897 -0.239769 1.55765 0
M  V30 628 C 55.9197 -0.982743 1.8173 0
M  V30 629 C 56.3277 -1.7917 0.607835 0
M  V30 630 O 55.6707 -1.78525 -0.432973 0
M  V30 631 C 55.7327 -1.96332 3.01155 0
M  V30 632 C 55.3967 -1.34062 4.36894 0
M  V30 633 C 56.3937 -0.739539 5.14613 0
M  V30 634 C 54.0787 -1.35784 4.83599 0
M  V30 635 C 56.0727 -0.163989 6.37189 0
M  V30 636 C 53.7597 -0.778441 6.06122 0
M  V30 637 C 54.7577 -0.182548 6.82756 0
M  V30 638 O 54.4457 0.387887 8.02964 0
M  V30 639 H 54.1777 -0.294481 0.608487 0
M  V30 640 H 56.7317 -0.26572 2.03674 0
M  V30 641 H 54.9617 -2.71884 2.74984 0
M  V30 642 H 56.6507 -2.57032 3.14149 0
M  V30 643 H 57.4167 -0.718687 4.79646 0
M  V30 644 H 53.2957 -1.81105 4.23936 0
M  V30 645 H 56.8397 0.301753 6.96947 0
M  V30 646 H 52.7367 -0.796645 6.40565 0
M  V30 647 H 53.5047 0.28044 8.18019 0
M  V30 648 N 56.1678 -1.49265 -0.50573 0
M  V30 649 C 57.5788 -1.51769 -1.08734 0
M  V30 650 C 57.9298 -0.301192 -1.93874 0
M  V30 651 O 57.0548 0.589456 -2.08217 0
M  V30 652 C 57.6498 -2.75017 -1.97867 0
M  V30 653 C 56.2088 -2.80314 -2.51199 0
M  V30 654 C 55.3558 -2.4562 -1.28709 0
M  V30 655 H 58.3068 -1.56031 -0.289855 0
M  V30 656 H 58.3278 -2.5491 -2.82491 0
M  V30 657 H 57.8398 -3.63539 -1.35873 0
M  V30 658 H 55.9408 -1.96061 -3.16845 0
M  V30 659 H 56.0538 -3.82366 -2.88675 0
M  V30 660 H 54.4178 -1.97297 -1.61078 0
M  V30 661 H 55.2008 -3.36411 -0.6843 0
M  V30 662 N 57.6459 0.756429 -1.3826 0
M  V30 663 C 58.9229 1.50584 -1.24835 0
M  V30 664 C 59.3029 2.10556 0.151485 0
M  V30 665 O 58.6509 1.96825 1.1607 0
M  V30 666 C 58.8609 2.57448 -2.3563 0
M  V30 667 C 60.2089 3.24429 -2.73917 0
M  V30 668 O 61.2329 2.67751 -2.34921 0
M  V30 669 O 60.0919 4.26937 -3.41156 0
M  V30 670 H 57.1859 0.667664 -0.48801 0
M  V30 671 H 59.7319 0.792083 -1.5008 0
M  V30 672 H 58.5039 2.11362 -3.29305 0
M  V30 673 H 58.1269 3.36408 -2.11933 0
M  V30 674 N 59.124 1.23083 0.984299 0
M  V30 675 C 60.087 1.00979 2.05757 0
M  V30 676 C 61.087 -0.0269573 1.60777 0
M  V30 677 O 62.277 0.212403 1.729 0
M  V30 678 C 59.409 0.527072 3.36801 0
M  V30 679 H 60.602 1.9622 2.26799 0
M  V30 680 H 58.155 1.05072 1.15714 0
M  V30 681 H 58.89 -0.429294 3.21446 0
M  V30 682 H 58.675 1.27515 3.70786 0
M  V30 683 H 60.165 0.392942 4.15747 0
M  V30 684 N 60.6021 -1.18246 1.0419 0
M  V30 685 C 62.0131 -1.69914 0.773698 0
M  V30 686 C 62.3641 -1.83085 -0.705297 0
M  V30 687 O 61.4891 -1.51123 -1.5489 0
M  V30 688 C 62.0841 -3.08619 1.39784 0
M  V30 689 C 60.6431 -3.57494 1.17792 0
M  V30 690 C 59.7901 -2.34013 1.48773 0
M  V30 691 H 62.7411 -1.02904 1.20816 0
M  V30 692 H 62.7621 -3.71958 0.801714 0
M  V30 693 H 62.2741 -2.99001 2.47426 0
M  V30 694 H 60.3751 -3.72406 0.120295 0
M  V30 695 H 60.4881 -4.40852 1.87581 0
M  V30 696 H 58.8521 -2.37986 0.907463 0
M  V30 697 H 59.6351 -2.27013 2.57527 0
M  V30 698 N 62.0802 -0.821533 -1.34494 0
M  V30 699 C 63.3282 -0.408139 -1.97936 0
M  V30 700 C 63.6492 1.03193 -1.65457 0
M  V30 701 O 62.9192 1.71622 -0.944595 0
M  V30 702 H 61.4992 -0.147928 -0.732206 0
M  V30 703 H 64.1612 -1.05067 -1.64155 0
M  V30 704 H 63.2572 -0.52601 -3.07635 0
M  V30 705 N 63.5583 1.46682 -0.576371 0
M  V30 706 C 64.4683 2.34032 0.163141 0
M  V30 707 C 65.4843 1.49367 0.892501 0
M  V30 708 O 66.6603 1.82252 0.857106 0
M  V30 709 C 63.7253 3.26435 1.16795 0
M  V30 710 C 62.7863 4.26998 0.443944 0
M  V30 711 C 62.0193 5.14986 1.40088 0
M  V30 712 O 62.2423 5.05785 2.637 0
M  V30 713 O 61.1763 5.94906 0.914917 0
M  V30 714 H 65.0023 2.98607 -0.55388 0
M  V30 715 H 62.5873 1.45554 -0.336821 0
M  V30 716 H 64.4693 3.83459 1.74748 0
M  V30 717 H 63.1443 2.64465 1.86655 0
M  V30 718 H 62.0513 3.7368 -0.177271 0
M  V30 719 H 63.3843 4.91736 -0.213566 0
M  V30 720 N 65.0364 0.313813 1.54444 0
M  V30 721 C 65.9694 -0.598866 2.20202 0
M  V30 722 C 66.9474 -1.12318 1.17573 0
M  V30 723 O 68.1314 -1.18899 1.46271 0
M  V30 724 C 65.2584 -1.82071 2.85601 0
M  V30 725 C 64.3044 -1.42851 4.01865 0
M  V30 726 S 65.1374 -0.473512 5.33402 0
M  V30 727 C 66.2934 -1.70286 6.0229 0
M  V30 728 H 66.5264 -0.0402532 2.97273 0
M  V30 729 H 64.0594 0.0979165 1.54089 0
M  V30 730 H 66.0174 -2.52184 3.23904 0
M  V30 731 H 64.6784 -2.3505 2.08351 0
M  V30 732 H 63.8714 -2.33871 4.46453 0
M  V30 733 H 63.4734 -0.807198 3.65185 0
M  V30 734 H 65.7654 -2.64168 6.23876 0
M  V30 735 H 66.7084 -1.29932 6.96077 0
M  V30 736 H 67.1164 -1.88541 5.32083 0
M  V30 737 N 66.5145 -1.57545 0.0417849 0
M  V30 738 C 67.7605 -1.92601 -0.635021 0
M  V30 739 C 68.0935 -0.919627 -1.71045 0
M  V30 740 O 67.3685 0.0557892 -1.9442 0
M  V30 741 C 67.6515 -3.38085 -1.23979 0
M  V30 742 C 67.5045 -4.49467 -0.173057 0
M  V30 743 C 68.8235 -3.83776 -2.15416 0
M  V30 744 H 65.9425 -0.700397 -0.229374 0
M  V30 745 H 68.5845 -1.89728 0.101633 0
M  V30 746 H 66.7345 -3.40664 -1.86762 0
M  V30 747 H 68.4065 -4.59018 0.458312 0
M  V30 748 H 66.6495 -4.30909 0.499996 0
M  V30 749 H 67.3205 -5.48323 -0.636054 0
M  V30 750 H 69.7965 -3.83013 -1.62605 0
M  V30 751 H 68.6725 -4.8624 -2.54679 0
M  V30 752 H 68.9335 -3.19998 -3.05047 0
M  V30 753 N 67.9926 0.231505 -1.5589 0
M  V30 754 C 69.2386 0.95877 -1.78705 0
M  V30 755 C 69.5716 1.8438 -0.609725 0
M  V30 756 O 68.8466 1.90521 0.391426 0
M  V30 757 C 69.1296 1.8062 -3.11526 0
M  V30 758 C 68.9826 0.948328 -4.39689 0
M  V30 759 C 70.3016 2.78585 -3.40703 0
M  V30 760 H 67.4206 0.347129 -0.650131 0
M  V30 761 H 70.0626 0.228259 -1.88624 0
M  V30 762 H 68.2126 2.42902 -3.03201 0
M  V30 763 H 69.8846 0.343016 -4.60023 0
M  V30 764 H 68.1276 0.253314 -4.3306 0
M  V30 765 H 68.7986 1.57543 -5.29041 0
M  V30 766 H 71.2746 2.26439 -3.49091 0
M  V30 767 H 70.1506 3.34988 -4.34826 0
M  V30 768 H 70.4116 3.55825 -2.62375 0
M  V30 769 N 69.4707 1.49531 0.497807 0
M  V30 770 C 70.4007 1.6935 1.60757 0
M  V30 771 C 71.3817 0.542218 1.61227 0
M  V30 772 O 72.5667 0.778417 1.77917 0
M  V30 773 C 69.6967 1.76298 2.99226 0
M  V30 774 C 68.6507 2.91248 3.13622 0
M  V30 775 C 67.9767 2.83312 4.53474 0
M  V30 776 C 69.2767 4.3214 2.93346 0
M  V30 777 H 70.9707 2.62263 1.44425 0
M  V30 778 H 68.5167 1.26208 0.693367 0
M  V30 779 H 70.4697 1.88749 3.76765 0
M  V30 780 H 69.1937 0.799871 3.16654 0
M  V30 781 H 67.8527 2.78404 2.38509 0
M  V30 782 H 67.5007 1.84902 4.67782 0
M  V30 783 H 67.2007 3.60465 4.64046 0
M  V30 784 H 68.7247 2.97775 5.33069 0
M  V30 785 H 70.1387 4.45649 3.60652 0
M  V30 786 H 68.5357 5.1054 3.15387 0
M  V30 787 H 69.6057 4.46363 1.89441 0
M  V30 788 N 70.9488 -0.749086 1.3866 0
M  V30 789 C 72.1768 -1.53834 1.38358 0
M  V30 790 C 72.5918 -1.88783 -0.0255219 0
M  V30 791 O 71.9488 -1.53101 -0.993292 0
M  V30 792 C 71.9998 -2.83468 2.2434 0
M  V30 793 O 71.7208 -2.50008 3.5976 0
M  V30 794 C 73.2218 -3.7758 2.32267 0
M  V30 795 H 70.4418 -0.47585 0.473083 0
M  V30 796 H 72.9858 -0.926726 1.82297 0
M  V30 797 H 71.1408 -3.40995 1.83851 0
M  V30 798 H 71.5548 -3.33182 4.05081 0
M  V30 799 H 73.0288 -4.65478 2.96706 0
M  V30 800 H 73.5058 -4.18334 1.33765 0
M  V30 801 H 74.1118 -3.25976 2.73166 0
M  V30 802 N 72.4269 -1.23603 -0.977757 0
M  V30 803 C 73.6669 -1.08148 -1.73446 0
M  V30 804 C 74.0309 0.374785 -1.88307 0
M  V30 805 O 75.2319 0.650588 -2.60808 0
M  V30 806 C 73.5029 -1.78991 -3.0935 0
M  V30 807 S 75.0619 -1.79141 -4.00567 0
M  V30 808 H 71.8799 -0.386987 -0.596458 0
M  V30 809 H 74.4819 -1.5678 -1.16792 0
M  V30 810 H 73.1859 -2.8408 -2.96187 0
M  V30 811 H 72.7169 -1.30651 -3.71071 0
M  V30 812 H 74.7319 -0.851892 -4.88833 0
M  V30 813 N 73.905 1.17692 -1.04816 0
M  V30 814 C 75.182 1.83768 -0.669963 0
M  V30 815 C 75.562 1.93232 0.849986 0
M  V30 816 O 74.91 1.46397 1.75443 0
M  V30 817 C 75.12 3.21641 -1.35455 0
M  V30 818 C 76.468 3.97592 -1.49017 0
M  V30 819 O 77.492 3.31107 -1.31326 0
M  V30 820 O 76.351 5.16729 -1.77914 0
M  V30 821 H 73.445 0.792799 -0.235368 0
M  V30 822 H 75.991 1.25021 -1.14751 0
M  V30 823 H 74.763 3.097 -2.39168 0
M  V30 824 H 74.386 3.88052 -0.866107 0
M  V30 825 N 75.3831 0.828654 1.34056 0
M  V30 826 C 76.6111 0.43262 2.02326 0
M  V30 827 C 77.0261 -0.963147 1.62385 0
M  V30 828 O 76.3831 -1.62425 0.832121 0
M  V30 829 C 76.4341 0.53182 3.57567 0
M  V30 830 O 76.1551 1.87258 3.96063 0
M  V30 831 C 77.6561 0.131422 4.43105 0
M  V30 832 H 74.8761 0.172923 0.648335 0
M  V30 833 H 77.4201 1.1184 1.71208 0
M  V30 834 H 75.5751 -0.105938 3.87255 0
M  V30 835 H 75.9891 1.85087 4.90758 0
M  V30 836 H 77.4631 0.251904 5.51425 0
M  V30 837 H 77.9401 -0.925645 4.29335 0
M  V30 838 H 78.5461 0.743207 4.18756 0
M  V30 839 N 76.8612 -1.46375 0.584142 0
M  V30 840 C 78.2722 -1.86031 0.157959 0
M  V30 841 C 78.6232 -1.48753 -1.27933 0
M  V30 842 O 77.7482 -0.903098 -1.96655 0
M  V30 843 C 78.3432 -3.37642 0.279892 0
M  V30 844 C 76.9022 -3.76289 -0.09143 0
M  V30 845 C 76.0492 -2.7039 0.615178 0
M  V30 846 H 79.0002 -1.37509 0.792274 0
M  V30 847 H 79.0212 -3.77275 -0.494364 0
M  V30 848 H 78.5332 -3.64742 1.32607 0
M  V30 849 H 76.6342 -3.54806 -1.13769 0
M  V30 850 H 76.7472 -4.78246 0.285886 0
M  V30 851 H 75.1112 -2.5464 0.0552833 0
M  V30 852 H 75.8942 -3.0033 1.66303 0
M  V30 853 N 78.3393 -0.321999 -1.54275 0
M  V30 854 C 79.2493 0.553631 -2.27974 0
M  V30 855 C 80.2653 1.13054 -1.32268 0
M  V30 856 O 81.4413 1.15084 -1.6528 0
M  V30 857 C 78.5063 1.69927 -3.02201 0
M  V30 858 C 77.5673 1.15433 -4.1349 0
M  V30 859 C 76.8003 2.24537 -4.84168 0
M  V30 860 O 77.0233 3.44852 -4.5435 0
M  V30 861 O 75.9573 1.90044 -5.7111 0
M  V30 862 H 79.7833 -0.0448345 -3.03667 0
M  V30 863 H 77.3683 -0.0877418 -1.49142 0
M  V30 864 H 79.2503 2.3663 -3.48689 0
M  V30 865 H 77.9253 2.28395 -2.29385 0
M  V30 866 H 76.8323 0.452436 -3.71354 0
M  V30 867 H 78.1653 0.614805 -4.88345 0
M  V30 868 N 79.8174 1.5752 -0.0501392 0
M  V30 869 C 80.7274 2.14952 0.939827 0
M  V30 870 C 81.7434 1.10706 1.34239 0
M  V30 871 O 82.9194 1.42869 1.41952 0
M  V30 872 C 79.9844 2.68232 2.19665 0
M  V30 873 C 79.0454 3.87272 1.85253 0
M  V30 874 C 78.2784 4.38002 3.04943 0
M  V30 875 O 78.5014 3.87811 4.18281 0
M  V30 876 O 77.4354 5.29602 2.86017 0
M  V30 877 H 81.2614 2.9986 0.481392 0
M  V30 878 H 78.8464 1.4841 0.171699 0
M  V30 879 H 80.7284 3.02475 2.93406 0
M  V30 880 H 79.4034 1.86395 2.64648 0
M  V30 881 H 78.3104 3.5792 1.0883 0
M  V30 882 H 79.6434 4.70336 1.4507 0
M  V30 883 N 81.2955 -0.223234 1.56011 0
M  V30 884 C 82.5725 -0.972108 1.69733 0
M  V30 885 C 82.9525 -2.02485 0.59691 0
M  V30 886 O 82.3005 -2.25037 -0.396324 0
M  V30 887 C 82.5105 -1.58407 3.10979 0
M  V30 888 C 83.8585 -2.07696 3.70334 0
M  V30 889 O 84.8825 -1.68304 3.1393 0
M  V30 890 O 83.7415 -2.80096 4.69264 0
M  V30 891 H 80.8355 -0.453993 0.691245 0
M  V30 892 H 83.3815 -0.215149 1.68331 0
M  V30 893 H 82.1535 -0.823831 3.82529 0
M  V30 894 H 81.7765 -2.40661 3.16493 0
M  V30 895 N 82.7736 -1.49793 -0.48987 0
M  V30 896 C 84.0216 -1.59525 -1.24081 0
M  V30 897 C 84.3426 -0.288953 -1.92847 0
M  V30 898 O 83.6126 0.692436 -1.83254 0
M  V30 899 H 82.1926 -0.587796 -0.460983 0
M  V30 900 H 84.8546 -1.86477 -0.566778 0
M  V30 901 H 83.9506 -2.39696 -1.99881 0
M  V30 902 N 84.2517 0.741722 -1.39055 0
M  V30 903 C 85.5007 1.49656 -1.35225 0
M  V30 904 C 85.8137 1.95533 0.0512708 0
M  V30 905 O 87.0197 2.7067 0.212138 0
M  V30 906 C 85.4757 2.70389 -2.37525 0
M  V30 907 C 85.0837 2.31489 -3.83558 0
M  V30 908 C 86.8277 3.48236 -2.42759 0
M  V30 909 C 84.7347 3.48903 -4.77515 0
M  V30 910 H 83.6647 0.56197 -0.502699 0
M  V30 911 H 86.3157 0.809727 -1.64668 0
M  V30 912 H 84.6977 3.41113 -2.01142 0
M  V30 913 H 85.8717 1.68354 -4.28945 0
M  V30 914 H 84.1867 1.66749 -3.81554 0
M  V30 915 H 86.7837 4.35558 -3.1015 0
M  V30 916 H 87.1267 3.90229 -1.45008 0
M  V30 917 H 87.6597 2.84535 -2.78002 0
M  V30 918 H 84.3987 3.11966 -5.76504 0
M  V30 919 H 83.9187 4.11041 -4.36813 0
M  V30 920 H 85.5977 4.15328 -4.96096 0
M  V30 921 N 85.7298 1.2412 0.971189 0
M  V30 922 C 86.9578 1.10575 1.74874 0
M  V30 923 C 87.3728 -0.342017 1.85676 0
M  V30 924 O 86.7298 -1.23617 1.34258 0
M  V30 925 C 86.7808 1.73579 3.171 0
M  V30 926 O 86.5018 3.12695 3.06844 0
M  V30 927 C 88.0028 1.65598 4.11208 0
M  V30 928 H 85.2228 0.386504 0.548503 0
M  V30 929 H 87.7668 1.64156 1.21955 0
M  V30 930 H 85.9218 1.24009 3.67016 0
M  V30 931 H 86.3358 3.43412 3.96445 0
M  V30 932 H 87.8098 2.1437 5.08674 0
M  V30 933 H 88.2868 0.616532 4.34851 0
M  V30 934 H 88.8928 2.14578 3.67201 0
M  V30 935 N 87.2079 -1.17134 1.05439 0
M  V30 936 C 88.4539 -1.87979 0.776872 0
M  V30 937 C 88.8089 -1.7965 -0.688751 0
M  V30 938 O 88.1019 -1.19535 -1.4974 0
M  V30 939 C 88.2959 -3.36833 1.19491 0
M  V30 940 C 88.1249 -3.59653 2.69963 0
M  V30 941 C 86.8949 -3.76234 3.37307 0
M  V30 942 C 89.0929 -3.59091 3.68182 0
M  V30 943 N 87.0749 -3.86922 4.76618 0
M  V30 944 C 88.4459 -3.75659 4.93235 0
M  V30 945 C 90.5009 -3.42255 3.61616 0
M  V30 946 C 89.2039 -3.77133 6.12506 0
M  V30 947 C 91.2299 -3.45018 4.8033 0
M  V30 948 C 90.5919 -3.62096 6.04207 0
M  V30 949 H 86.6909 -0.705876 0.336546 0
M  V30 950 H 89.2749 -1.40602 1.34682 0
M  V30 951 H 87.4459 -3.82873 0.652884 0
M  V30 952 H 89.1779 -3.95305 0.866966 0
M  V30 953 H 85.9329 -3.76193 2.87708 0
M  V30 954 H 86.3569 -3.96055 5.49062 0
M  V30 955 H 90.9989 -3.27986 2.66805 0
M  V30 956 H 88.7169 -3.90186 7.07659 0
M  V30 957 H 92.3029 -3.33246 4.76905 0
M  V30 958 H 91.1829 -3.64142 6.94529 0
M  V30 959 N 88.686 -0.835752 -1.33615 0
M  V30 960 C 89.914 -0.443344 -2.02094 0
M  V30 961 C 90.329 0.954522 -1.62894 0
M  V30 962 O 89.686 1.61982 -0.840723 0
M  V30 963 C 89.737 -0.550775 -3.5728 0
M  V30 964 O 89.458 -1.89356 -3.95065 0
M  V30 965 C 90.959 -0.154919 -4.43029 0
M  V30 966 H 88.179 -0.176359 -0.647409 0
M  V30 967 H 90.723 -1.12746 -1.70612 0
M  V30 968 H 88.878 0.0853997 -3.87306 0
M  V30 969 H 89.292 -1.87687 -4.89769 0
M  V30 970 H 90.766 -0.281144 -5.51284 0
M  V30 971 H 91.243 0.902863 -4.2982 0
M  V30 972 H 91.849 -0.765404 -4.18356 0
M  V30 973 N 90.1641 1.46063 -0.591896 0
M  V30 974 C 91.0941 2.33172 0.123673 0
M  V30 975 C 92.0751 1.45897 0.87453 0
M  V30 976 O 93.2601 1.74698 0.848181 0
M  V30 977 C 90.3901 3.28336 1.13194 0
M  V30 978 C 89.3441 4.25124 0.495324 0
M  V30 979 C 88.6701 5.09863 1.61071 0
M  V30 980 C 89.9701 5.19143 -0.573425 0
M  V30 981 H 91.6641 2.93252 -0.603646 0
M  V30 982 H 89.2101 1.41014 -0.291741 0
M  V30 983 H 91.1631 3.88137 1.64097 0
M  V30 984 H 89.8871 2.66383 1.88965 0
M  V30 985 H 88.5461 3.66599 0.00729452 0
M  V30 986 H 88.1941 4.44288 2.35832 0
M  V30 987 H 87.8941 5.75417 1.19035 0
M  V30 988 H 89.4181 5.72529 2.12233 0
M  V30 989 H 90.8321 5.73106 -0.1491 0
M  V30 990 H 89.2291 5.93089 -0.914636 0
M  V30 991 H 90.2991 4.62519 -1.45617 0
M  V30 992 N 91.6422 0.330177 1.54103 0
M  V30 993 C 92.9192 -0.325007 1.92881 0
M  V30 994 C 93.2992 -1.6934 1.26045 0
M  V30 995 O 92.6472 -2.24855 0.406526 0
M  V30 996 C 92.8572 -0.410634 3.46576 0
M  V30 997 C 94.2052 -0.667801 4.19316 0
M  V30 998 O 95.2292 -0.49329 3.52768 0
M  V30 999 O 94.0882 -1.00491 5.37181 0
M  V30 1000 H 91.1822 -0.186873 0.80561 0
M  V30 1001 H 93.7282 0.380376 1.65382 0
M  V30 1002 H 92.5002 0.550164 3.87413 0
M  V30 1003 H 92.1232 -1.16333 3.802 0
M  V30 1004 N 93.1203 -1.57491 0.0584922 0
M  V30 1005 C 94.0523 -2.08916 -0.942694 0
M  V30 1006 C 95.0653 -1.0185 -1.27006 0
M  V30 1007 O 96.2543 -1.29398 -1.22957 0
M  V30 1008 C 93.3543 -2.52341 -2.26224 0
M  V30 1009 C 92.5273 -3.82827 -2.1157 0
M  V30 1010 C 91.5863 -4.12487 -3.26712 0
M  V30 1011 O 90.6123 -4.82295 -3.02292 0
M  V30 1012 N 91.8143 -3.64978 -4.5141 0
M  V30 1013 H 94.5793 -2.95437 -0.503722 0
M  V30 1014 H 92.1403 -1.61397 -0.12757 0
M  V30 1015 H 94.1323 -2.69254 -3.02133 0
M  V30 1016 H 92.7023 -1.7103 -2.61663 0
M  V30 1017 H 91.9223 -3.75425 -1.20208 0
M  V30 1018 H 93.2103 -4.68263 -1.99015 0
M  V30 1019 H 92.6083 -3.08558 -4.7414 0
M  V30 1020 H 91.1653 -3.87115 -5.2439 0
M  V30 1021 N 94.5984 0.214957 -1.56127 0
M  V30 1022 C 95.8234 0.95924 -1.83884 0
M  V30 1023 C 96.2484 1.7689 -0.639644 0
M  V30 1024 O 95.6064 1.76566 0.411601 0
M  V30 1025 C 95.6544 1.84723 -3.09693 0
M  V30 1026 O 94.7584 2.94346 -2.8885 0
M  V30 1027 H 94.0994 0.27125 -0.606069 0
M  V30 1028 H 96.6294 0.226276 -2.03345 0
M  V30 1029 H 96.6394 2.25576 -3.39969 0
M  V30 1030 H 95.3144 1.25218 -3.96602 0
M  V30 1031 H 93.8914 2.57391 -2.69823 0
M  V30 1032 N 96.0765 1.50051 0.48192 0
M  V30 1033 C 97.3015 1.64508 1.26301 0
M  V30 1034 C 97.7265 0.323851 1.85291 0
M  V30 1035 O 97.0845 -0.710969 1.66778 0
M  V30 1036 C 97.1325 2.7305 2.35533 0
M  V30 1037 O 96.2365 2.3355 3.39895 0
M  V30 1038 H 95.5775 0.549978 0.372048 0
M  V30 1039 H 98.1075 1.9636 0.574786 0
M  V30 1040 H 98.1175 2.95799 2.8101 0
M  V30 1041 H 96.7925 3.68946 1.91967 0
M  V30 1042 H 95.3695 2.21205 3.00204 0
M  V30 1043 N 97.5546 -0.734337 1.39446 0
M  V30 1044 C 98.4646 -1.87879 1.40495 0
M  V30 1045 C 99.4806 -1.714 0.299672 0
M  V30 1046 O 100.657 -1.93991 0.541249 0
M  V30 1047 C 97.7216 -3.23477 1.24754 0
M  V30 1048 C 96.7826 -3.52344 2.45259 0
M  V30 1049 C 96.0156 -4.81473 2.30259 0
M  V30 1050 O 96.2386 -5.55237 1.30643 0
M  V30 1051 O 95.1726 -5.10254 3.19256 0
M  V30 1052 H 98.9986 -1.89949 2.36966 0
M  V30 1053 H 96.5836 -0.882243 1.20569 0
M  V30 1054 H 98.4656 -4.04509 1.18111 0
M  V30 1055 H 97.1406 -3.22176 0.313781 0
M  V30 1056 H 96.0476 -2.71396 2.57478 0
M  V30 1057 H 97.3806 -3.58426 3.37331 0
M  V30 1058 N 99.0327 -1.24633 -0.964593 0
M  V30 1059 C 100.279 -1.08949 -1.71049 0
M  V30 1060 C 100.612 0.370302 -1.90637 0
M  V30 1061 O 99.8867 1.27349 -1.47011 0
M  V30 1062 C 100.17 -1.83329 -3.0994 0
M  V30 1063 C 100.023 -3.37077 -2.97824 0
M  V30 1064 C 101.342 -1.60846 -4.09654 0
M  V30 1065 H 98.4607 -0.397178 -0.620821 0
M  V30 1066 H 101.103 -1.5334 -1.12191 0
M  V30 1067 H 99.2527 -1.45597 -3.60186 0
M  V30 1068 H 100.925 -3.84425 -2.5498 0
M  V30 1069 H 99.1677 -3.65298 -2.33965 0
M  V30 1070 H 99.8387 -3.84324 -3.96231 0
M  V30 1071 H 102.315 -1.93674 -3.68279 0
M  V30 1072 H 101.191 -2.1534 -5.04896 0
M  V30 1073 H 101.452 -0.547434 -4.38698 0
M  V30 1074 N 100.511 1.16574 -1.06058 0
M  V30 1075 C 101.441 2.23057 -0.690488 0
M  V30 1076 C 102.422 1.67141 0.315901 0
M  V30 1077 O 103.607 1.93253 0.191556 0
M  V30 1078 C 100.737 3.47222 -0.073625 0
M  V30 1079 C 99.6908 4.16016 -1.00573 0
M  V30 1080 C 99.0168 5.34104 -0.252289 0
M  V30 1081 C 100.317 4.67264 -2.33371 0
M  V30 1082 H 102.011 2.54271 -1.58072 0
M  V30 1083 H 99.5568 1.22218 -0.76149 0
M  V30 1084 H 101.51 4.20939 0.19714 0
M  V30 1085 H 100.234 3.15302 0.85161 0
M  V30 1086 H 98.8928 3.44223 -1.2612 0
M  V30 1087 H 98.5408 4.98437 0.675988 0
M  V30 1088 H 98.2408 5.81072 -0.873455 0
M  V30 1089 H 99.7648 6.10599 0.0109857 0
M  V30 1090 H 101.179 5.32573 -2.12223 0
M  V30 1091 H 99.5758 5.24843 -2.90963 0
M  V30 1092 H 100.646 3.83602 -2.96611 0
M  V30 1093 N 101.989 0.842826 1.3317 0
M  V30 1094 C 103.237 0.439577 1.97262 0
M  V30 1095 C 103.558 -1.00548 1.67078 0
M  V30 1096 O 102.828 -1.70098 0.971779 0
M  V30 1097 H 101.408 0.159558 0.72976 0
M  V30 1098 H 104.07 1.07665 1.62463 0
M  V30 1099 H 103.166 0.574886 3.0676 0
M  V30 1100 N 103.467 -1.45747 0.599634 0
M  V30 1101 C 104.692 -2.07178 0.0960198 0
M  V30 1102 C 105.117 -1.44268 -1.207 0
M  V30 1103 O 104.475 -0.532503 -1.73303 0
M  V30 1104 C 104.523 -3.60579 -0.0385348 0
M  V30 1105 O 103.627 -3.97713 -1.0908 0
M  V30 1106 H 102.968 -0.660251 0.0704593 0
M  V30 1107 H 105.498 -1.87124 0.827385 0
M  V30 1108 H 105.508 -4.07298 -0.239304 0
M  V30 1109 H 104.183 -4.05756 0.912947 0
M  V30 1110 H 102.76 -3.62678 -0.867135 0
M  V30 1111 N 104.945 -0.338344 -1.53925 0
M  V30 1112 C 106.193 0.259245 -2.0043 0
M  V30 1113 C 106.514 1.51484 -1.22791 0
M  V30 1114 O 105.784 1.93037 -0.33368 0
M  V30 1115 H 104.364 0.0987845 -0.740439 0
M  V30 1116 H 107.026 -0.458302 -1.89435 0
M  V30 1117 H 106.122 0.505334 -3.07982 0
M  V30 1118 N 106.423 1.57458 -0.0668435 0
M  V30 1119 C 107.37 2.12439 0.902122 0
M  V30 1120 C 108.34 1.03565 1.2986 0
M  V30 1121 O 109.525 1.312 1.38532 0
M  V30 1122 C 106.665 2.6865 2.16614 0
M  V30 1123 C 105.778 3.91663 1.82274 0
M  V30 1124 C 104.913 4.36134 3.0325 0
M  V30 1125 C 103.952 5.51808 2.64904 0
M  V30 1126 N 103.089 5.9126 3.78624 0
M  V30 1127 H 107.929 2.94934 0.426382 0
M  V30 1128 H 105.466 1.4575 0.198819 0
M  V30 1129 H 107.424 2.99346 2.90599 0
M  V30 1130 H 106.054 1.88928 2.61737 0
M  V30 1131 H 105.106 3.6746 0.983719 0
M  V30 1132 H 106.418 4.75693 1.50059 0
M  V30 1133 H 105.572 4.68465 3.85519 0
M  V30 1134 H 104.311 3.50948 3.38655 0
M  V30 1135 H 103.316 5.19133 1.81055 0
M  V30 1136 H 104.541 6.38722 2.30675 0
M  V30 1137 H 102.487 5.09024 4.138 0
M  V30 1138 H 102.404 6.70018 3.5016 0
M  V30 1139 H 103.672 6.28212 4.61486 0
M  V30 1140 N 107.901 -0.206675 1.56239 0
M  V30 1141 C 109.129 -0.945345 1.8404 0
M  V30 1142 C 109.544 -1.77336 0.647885 0
M  V30 1143 O 108.901 -1.78425 -0.383511 0
M  V30 1144 C 108.952 -1.8509 3.10522 0
M  V30 1145 O 108.673 -1.05634 4.25174 0
M  V30 1146 C 110.174 -2.70222 3.51418 0
M  V30 1147 H 107.394 -0.276372 0.61144 0
M  V30 1148 H 109.938 -0.217417 2.03341 0
M  V30 1149 H 108.093 -2.53259 2.93153 0
M  V30 1150 H 108.507 -1.67238 4.97124 0
M  V30 1151 H 109.981 -3.29438 4.42916 0
M  V30 1152 H 110.458 -3.43358 2.73864 0
M  V30 1153 H 111.064 -2.07443 3.71278 0
M  V30 1154 N 109.379 -1.50304 -0.473955 0
M  V30 1155 C 110.309 -1.71886 -1.58042 0
M  V30 1156 C 111.29 -0.567799 -1.60344 0
M  V30 1157 O 112.475 -0.806623 -1.76656 0
M  V30 1158 C 109.605 -1.81036 -2.96384 0
M  V30 1159 C 108.559 -2.962 -3.08949 0
M  V30 1160 C 107.885 -2.9049 -4.48909 0
M  V30 1161 C 109.185 -4.36752 -2.86434 0
M  V30 1162 H 110.879 -2.64527 -1.40234 0
M  V30 1163 H 108.425 -1.27295 -0.673201 0
M  V30 1164 H 110.378 -1.94719 -3.73714 0
M  V30 1165 H 109.102 -0.850147 -3.15341 0
M  V30 1166 H 107.761 -2.82164 -2.3405 0
M  V30 1167 H 107.409 -1.92321 -4.64781 0
M  V30 1168 H 107.109 -3.67802 -4.58253 0
M  V30 1169 H 108.633 -3.06218 -5.28264 0
M  V30 1170 H 110.047 -4.5133 -3.53517 0
M  V30 1171 H 108.444 -5.15493 -3.07225 0
M  V30 1172 H 109.514 -4.49321 -1.82316 0
M  V30 1173 N 110.857 0.726932 -1.39834 0
M  V30 1174 C 112.085 1.51613 -1.40787 0
M  V30 1175 C 112.5 1.88799 -0.00451505 0
M  V30 1176 O 111.857 1.54662 0.968809 0
M  V30 1177 C 111.908 2.79863 -2.28821 0
M  V30 1178 O 111.629 2.44253 -3.63692 0
M  V30 1179 C 113.13 3.73837 -2.38245 0
M  V30 1180 H 110.35 0.468264 -0.480593 0
M  V30 1181 H 112.894 0.897607 -1.83748 0
M  V30 1182 H 111.049 3.38027 -1.89252 0
M  V30 1183 H 111.463 3.26695 -4.1033 0
M  V30 1184 H 112.937 4.60699 -3.04073 0
M  V30 1185 H 113.414 4.16153 -1.40403 0
M  V30 1186 H 114.02 3.21589 -2.78317 0
M  V30 1187 N 112.336 1.25143 0.95797 0
M  V30 1188 C 113.585 1.0909 1.69654 0
M  V30 1189 C 113.898 -0.368548 1.92097 0
M  V30 1190 O 115.104 -0.649455 2.63618 0
M  V30 1191 C 113.56 1.90395 3.05414 0
M  V30 1192 C 113.168 3.4081 2.90779 0
M  V30 1193 C 114.912 1.82901 3.83076 0
M  V30 1194 C 112.819 4.14423 4.21909 0
M  V30 1195 H 111.749 0.404625 0.636235 0
M  V30 1196 H 114.4 1.4931 1.06672 0
M  V30 1197 H 112.782 1.42996 3.69281 0
M  V30 1198 H 113.956 3.95859 2.35865 0
M  V30 1199 H 112.271 3.49361 2.26575 0
M  V30 1200 H 114.868 2.35196 4.80195 0
M  V30 1201 H 115.211 0.796224 4.08615 0
M  V30 1202 H 115.744 2.28033 3.25954 0
M  V30 1203 H 112.483 5.18102 4.01561 0
M  V30 1204 H 112.003 3.64159 4.76601 0
M  V30 1205 H 113.682 4.21956 4.90471 0
M  V30 1206 N 113.814 -1.1601 1.06675 0
M  V30 1207 C 114.746 -2.20115 0.638921 0
M  V30 1208 C 115.759 -1.59916 -0.305057 0
M  V30 1209 O 116.948 -1.78245 -0.0954446 0
M  V30 1210 C 114.048 -3.38798 -0.0830083 0
M  V30 1211 C 113.221 -4.2855 0.875426 0
M  V30 1212 C 112.28 -5.25849 0.192042 0
M  V30 1213 O 111.306 -5.63102 0.830921 0
M  V30 1214 N 112.508 -5.70648 -1.06493 0
M  V30 1215 H 115.273 -2.57439 1.53444 0
M  V30 1216 H 112.834 -1.31057 0.950557 0
M  V30 1217 H 114.826 -4.00936 -0.550685 0
M  V30 1218 H 113.396 -2.99947 -0.880386 0
M  V30 1219 H 112.616 -3.63617 1.52238 0
M  V30 1220 H 113.904 -4.85393 1.52548 0
M  V30 1221 H 113.302 -5.42482 -1.60405 0
M  V30 1222 H 111.859 -6.34859 -1.47641 0
M  V30 1223 N 115.292 -0.849877 -1.32721 0
M  V30 1224 C 116.538 -0.451591 -1.97708 0
M  V30 1225 C 116.871 0.989175 -1.6712 0
M  V30 1226 O 116.146 1.69334 -0.956891 0
M  V30 1227 C 116.429 -0.685598 -3.53513 0
M  V30 1228 C 116.282 -2.17444 -3.93749 0
M  V30 1229 C 117.601 -0.138874 -4.39881 0
M  V30 1230 H 114.72 -0.16555 -0.718166 0
M  V30 1231 H 117.362 -1.06742 -1.57182 0
M  V30 1232 H 115.512 -0.161416 -3.88165 0
M  V30 1233 H 117.184 -2.76433 -3.693 0
M  V30 1234 H 115.427 -2.65476 -3.43081 0
M  V30 1235 H 116.098 -2.28888 -5.02309 0
M  V30 1236 H 118.574 -0.587068 -4.11938 0
M  V30 1237 H 117.45 -0.332213 -5.47894 0
M  V30 1238 H 117.711 0.95806 -4.31594 0
M  V30 1239 N 116.77 1.45427 -0.607355 0
M  V30 1240 C 117.717 2.3053 0.111625 0
M  V30 1241 C 118.687 1.4209 0.860216 0
M  V30 1242 O 119.872 1.71019 0.845998 0
M  V30 1243 C 117.012 3.26992 1.10319 0
M  V30 1244 C 116.125 4.30535 0.355493 0
M  V30 1245 C 115.26 5.14105 1.33676 0
M  V30 1246 C 114.299 6.09376 0.576862 0
M  V30 1247 N 113.436 6.85727 1.5074 0
M  V30 1248 H 118.276 2.91477 -0.620093 0
M  V30 1249 H 115.813 1.43631 -0.317594 0
M  V30 1250 H 117.771 3.81385 1.6912 0
M  V30 1251 H 116.401 2.67799 1.80232 0
M  V30 1252 H 115.453 3.78805 -0.348023 0
M  V30 1253 H 116.765 4.98235 -0.237423 0
M  V30 1254 H 115.919 5.72897 1.99684 0
M  V30 1255 H 114.658 4.46423 1.9636 0
M  V30 1256 H 113.663 5.49715 -0.0968519 0
M  V30 1257 H 114.888 6.79085 -0.0449341 0
M  V30 1258 H 112.834 6.20735 2.12189 0
M  V30 1259 H 112.751 7.49778 0.967913 0
M  V30 1260 H 114.019 7.4906 2.15706 0
M  V30 1261 N 118.248 0.346503 1.53744 0
M  V30 1262 C 119.158 -0.517293 2.28826 0
M  V30 1263 C 120.174 -1.10935 1.3405 0
M  V30 1264 O 121.35 -1.1244 1.6709 0
M  V30 1265 C 118.415 -1.65098 3.04866 0
M  V30 1266 C 117.476 -1.0884 4.15274 0
M  V30 1267 C 116.709 -2.16806 4.87679 0
M  V30 1268 O 116.932 -3.3758 4.59778 0
M  V30 1269 O 115.866 -1.80934 5.74061 0
M  V30 1270 H 119.692 0.0931396 3.03557 0
M  V30 1271 H 117.277 0.111458 1.48984 0
M  V30 1272 H 119.159 -2.31053 3.5241 0
M  V30 1273 H 117.834 -2.24717 2.32989 0
M  V30 1274 H 116.741 -0.3933 3.72027 0
M  V30 1275 H 118.074 -0.537036 4.89261 0
M  V30 1276 N 119.726 -1.57421 0.075193 0
M  V30 1277 C 120.973 -1.93618 -0.593146 0
M  V30 1278 C 121.301 -0.955484 -1.69413 0
M  V30 1279 O 120.556 0.0283251 -1.9568 0
M  V30 1280 C 120.855 -3.36428 -1.20626 0
M  V30 1281 C 120.521 -4.50307 -0.231078 0
M  V30 1282 C 119.183 -4.81186 0.0371936 0
M  V30 1283 C 121.535 -5.19374 0.435888 0
M  V30 1284 C 118.863 -5.78466 0.979461 0
M  V30 1285 C 121.215 -6.17665 1.3665 0
M  V30 1286 C 119.879 -6.46958 1.6432 0
M  V30 1287 H 119.149 -0.708499 -0.217047 0
M  V30 1288 H 121.796 -1.90937 0.146793 0
M  V30 1289 H 120.101 -3.35592 -2.02201 0
M  V30 1290 H 121.798 -3.61727 -1.73073 0
M  V30 1291 H 118.388 -4.26227 -0.450357 0
M  V30 1292 H 122.572 -4.95711 0.241748 0
M  V30 1293 H 117.828 -5.99487 1.20106 0
M  V30 1294 H 122.002 -6.70284 1.88924 0
M  V30 1295 H 119.629 -7.2215 2.37494 0
M  V30 1296 N 121.204 0.198386 -1.56346 0
M  V30 1297 C 122.452 0.91747 -1.80075 0
M  V30 1298 C 122.773 1.83929 -0.647692 0
M  V30 1299 O 122.043 1.93029 0.334166 0
M  V30 1300 H 120.623 0.341774 -0.664228 0
M  V30 1301 H 123.285 0.204684 -1.93822 0
M  V30 1302 H 122.381 1.51055 -2.7311 0
M  V30 1303 N 122.682 1.50554 0.465978 0
M  V30 1304 C 123.959 1.5232 1.22712 0
M  V30 1305 C 124.339 0.270807 2.09356 0
M  V30 1306 O 123.687 -0.745541 2.15995 0
M  V30 1307 C 123.897 2.82175 2.05374 0
M  V30 1308 C 125.245 3.33033 2.6339 0
M  V30 1309 O 126.269 2.83531 2.15612 0
M  V30 1310 O 125.128 4.19336 3.50456 0
M  V30 1311 H 122.222 0.611183 0.557122 0
M  V30 1312 H 124.768 1.62847 0.477381 0
M  V30 1313 H 123.54 3.64797 1.41558 0
M  V30 1314 H 123.163 2.74675 2.87471 0
M  V30 1315 N 124.16 -0.719506 1.40217 0
M  V30 1316 C 125.123 -1.8153 1.39927 0
M  V30 1317 C 126.123 -1.58095 0.293723 0
M  V30 1318 O 127.313 -1.65209 0.552429 0
M  V30 1319 C 124.445 -3.19561 1.18716 0
M  V30 1320 H 125.638 -1.83186 2.37451 0
M  V30 1321 H 123.191 -0.924746 1.26008 0
M  V30 1322 H 123.926 -3.23557 0.219366 0
M  V30 1323 H 123.711 -3.3797 1.98793 0
M  V30 1324 H 125.201 -3.99598 1.21291 0
M  V30 1325 N 125.638 -1.25649 -0.95132 0
M  V30 1326 C 126.886 -1.10375 -1.69298 0
M  V30 1327 C 127.207 0.355339 -1.91735 0
M  V30 1328 O 126.477 1.25188 -1.50681 0
M  V30 1329 H 125.057 -0.405461 -0.627384 0
M  V30 1330 H 127.719 -1.57823 -1.14358 0
M  V30 1331 H 126.815 -1.61465 -2.67087 0
M  V30 1332 N 127.117 1.15442 -1.07289 0
M  V30 1333 C 128.049 2.19773 -0.650585 0
M  V30 1334 C 129.062 1.60076 0.296572 0
M  V30 1335 O 130.251 1.78293 0.0859905 0
M  V30 1336 C 127.351 3.38838 0.0650398 0
M  V30 1337 C 126.524 4.2808 -0.898141 0
M  V30 1338 C 125.583 5.2574 -0.219926 0
M  V30 1339 O 124.609 5.62654 -0.860773 0
M  V30 1340 N 125.811 5.71205 1.03466 0
M  V30 1341 H 128.576 2.56622 -1.54808 0
M  V30 1342 H 126.137 1.30551 -0.957494 0
M  V30 1343 H 128.129 4.01222 0.529415 0
M  V30 1344 H 126.699 3.00409 0.864466 0
M  V30 1345 H 125.919 3.62804 -1.54165 0
M  V30 1346 H 127.207 4.84577 -1.5512 0
M  V30 1347 H 126.605 5.43325 1.57526 0
M  V30 1348 H 125.162 6.35633 1.44272 0
M  V30 1349 N 128.595 0.856903 1.32268 0
M  V30 1350 C 129.825 0.47475 2.01071 0
M  V30 1351 C 130.233 -0.933746 1.64553 0
M  V30 1352 O 129.576 -1.62114 0.863989 0
M  V30 1353 C 129.638 0.536746 3.55471 0
M  V30 1354 C 129.302 1.90453 4.15423 0
M  V30 1355 C 130.299 2.87029 4.33486 0
M  V30 1356 C 127.984 2.20229 4.51447 0
M  V30 1357 C 129.978 4.11532 4.86744 0
M  V30 1358 C 127.665 3.44984 5.0441 0
M  V30 1359 C 128.663 4.40452 5.22007 0
M  V30 1360 O 128.351 5.62998 5.73837 0
M  V30 1361 H 128.083 0.184778 0.650256 0
M  V30 1362 H 130.637 1.15615 1.69771 0
M  V30 1363 H 128.867 -0.20152 3.86175 0
M  V30 1364 H 130.556 0.169875 4.05544 0
M  V30 1365 H 131.322 2.6533 4.05986 0
M  V30 1366 H 127.201 1.46705 4.37034 0
M  V30 1367 H 130.745 4.86056 5.00395 0
M  V30 1368 H 126.642 3.66532 5.31342 0
M  V30 1369 H 127.41 5.64987 5.92226 0
M  V30 1370 N 130.073 -1.45103 0.615059 0
M  V30 1371 C 131.301 -2.06553 0.11977 0
M  V30 1372 C 131.716 -1.45842 -1.19898 0
M  V30 1373 O 131.073 -0.575325 -1.73194 0
M  V30 1374 C 131.124 -3.61495 -0.018364 0
M  V30 1375 O 130.845 -4.19942 1.24822 0
M  V30 1376 C 132.346 -4.39947 -0.544237 0
M  V30 1377 H 129.566 -0.667096 0.0722739 0
M  V30 1378 H 132.11 -1.8623 0.84491 0
M  V30 1379 H 130.265 -3.81135 -0.693865 0
M  V30 1380 H 130.679 -5.13204 1.0827 0
M  V30 1381 H 132.153 -5.48838 -0.589953 0
M  V30 1382 H 132.63 -4.10255 -1.56805 0
M  V30 1383 H 133.236 -4.25188 0.0974703 0
M  V30 1384 N 131.551 -0.354651 -1.53558 0
M  V30 1385 C 132.791 0.238651 -2.03002 0
M  V30 1386 C 133.155 1.46878 -1.23656 0
M  V30 1387 O 134.356 2.13699 -1.63053 0
M  V30 1388 C 132.627 0.534175 -3.53386 0
M  V30 1389 S 134.186 1.10271 -4.24719 0
M  V30 1390 H 131.004 0.0702908 -0.707517 0
M  V30 1391 H 133.606 -0.494987 -1.8913 0
M  V30 1392 H 132.31 -0.368765 -4.0874 0
M  V30 1393 H 131.841 1.29718 -3.71398 0
M  V30 1394 H 133.856 2.38772 -4.34974 0
M  V30 1395 N 133.029 1.57378 -0.0835403 0
M  V30 1396 C 133.979 2.09916 0.889905 0
M  V30 1397 C 134.963 1.01151 1.25129 0
M  V30 1398 O 136.155 1.27443 1.2283 0
M  V30 1399 C 133.284 2.67379 2.15322 0
M  V30 1400 C 132.37 3.83167 1.81779 0
M  V30 1401 N 132.761 4.91665 1.18739 0
M  V30 1402 C 131.059 3.92685 2.11459 0
M  V30 1403 C 131.76 5.72409 1.0355 0
M  V30 1404 N 130.736 5.21062 1.54906 0
M  V30 1405 H 134.538 2.91188 0.398378 0
M  V30 1406 H 132.052 1.61956 0.120013 0
M  V30 1407 H 134.049 3.0334 2.8599 0
M  V30 1408 H 132.709 1.87558 2.65051 0
M  V30 1409 H 133.72 5.10784 0.855604 0
M  V30 1410 H 130.397 3.23856 2.63483 0
M  V30 1411 H 131.787 6.69699 0.543425 0
M  V30 1412 N 134.507 -0.190092 1.56449 0
M  V30 1413 C 135.454 -1.23557 1.94942 0
M  V30 1414 C 136.424 -1.44972 0.810696 0
M  V30 1415 O 137.609 -1.58023 1.06927 0
M  V30 1416 C 134.749 -2.57416 2.2985 0
M  V30 1417 C 133.862 -2.43537 3.5681 0
M  V30 1418 C 132.997 -3.70134 3.81017 0
M  V30 1419 C 132.036 -3.51109 5.01387 0
M  V30 1420 N 131.173 -4.6973 5.21822 0
M  V30 1421 H 136.013 -0.900304 2.84075 0
M  V30 1422 H 133.55 -0.43318 1.40577 0
M  V30 1423 H 135.508 -3.35409 2.48106 0
M  V30 1424 H 134.138 -2.88975 1.43852 0
M  V30 1425 H 133.19 -1.56816 3.46573 0
M  V30 1426 H 134.502 -2.25415 4.4496 0
M  V30 1427 H 133.656 -4.56566 3.9954 0
M  V30 1428 H 132.395 -3.91215 2.91207 0
M  V30 1429 H 131.4 -2.63063 4.82782 0
M  V30 1430 H 132.625 -3.31468 5.9271 0
M  V30 1431 H 130.571 -4.91065 4.34961 0
M  V30 1432 H 130.488 -4.54452 6.0416 0
M  V30 1433 H 131.756 -5.57499 5.44808 0
M  V30 1434 N 135.985 -1.50799 -0.457987 0
M  V30 1435 C 137.233 -1.62121 -1.2067 0
M  V30 1436 C 137.554 -0.329793 -1.92191 0
M  V30 1437 O 136.824 0.653409 -1.84682 0
M  V30 1438 H 135.404 -0.597441 -0.448411 0
M  V30 1439 H 138.066 -1.87637 -0.527096 0
M  V30 1440 H 137.162 -2.43882 -1.94751 0
M  V30 1441 N 137.463 0.71206 -1.40597 0
M  V30 1442 C 138.711 1.46907 -1.38791 0
M  V30 1443 C 139.032 1.94998 0.00780391 0
M  V30 1444 O 138.302 1.70587 0.963174 0
M  V30 1445 H 136.882 0.545043 -0.51082 0
M  V30 1446 H 139.544 0.843882 -1.75683 0
M  V30 1447 H 138.64 2.34021 -2.06496 0
M  V30 1448 N 138.941 1.26152 0.944643 0
M  V30 1449 C 139.851 1.09176 2.07648 0
M  V30 1450 C 140.867 0.0261935 1.7398 0
M  V30 1451 O 142.043 0.229208 2.00091 0
M  V30 1452 C 139.108 0.722915 3.39079 0
M  V30 1453 C 138.169 1.86752 3.86552 0
M  V30 1454 C 137.402 1.51617 5.11711 0
M  V30 1455 O 137.625 0.416331 5.68879 0
M  V30 1456 O 136.559 2.34975 5.54139 0
M  V30 1457 H 140.385 2.0412 2.24875 0
M  V30 1458 H 137.97 1.05182 1.061 0
M  V30 1459 H 139.852 0.529787 4.18056 0
M  V30 1460 H 138.527 -0.197159 3.23099 0
M  V30 1461 H 137.434 2.11558 3.08535 0
M  V30 1462 H 138.767 2.76719 4.07047 0
M  V30 1463 N 140.419 -1.14872 1.07899 0
M  V30 1464 C 141.665 -1.86064 0.806725 0
M  V30 1465 C 141.998 -1.82434 -0.665706 0
M  V30 1466 O 141.273 -1.25138 -1.48899 0
M  V30 1467 C 141.556 -3.34929 1.32267 0
M  V30 1468 C 141.409 -3.47161 2.86006 0
M  V30 1469 C 142.728 -4.29863 0.943717 0
M  V30 1470 H 139.847 -0.675591 0.294526 0
M  V30 1471 H 142.489 -1.34925 1.33773 0
M  V30 1472 H 140.639 -3.78611 0.870974 0
M  V30 1473 H 142.311 -3.12302 3.39507 0
M  V30 1474 H 140.554 -2.88539 3.23925 0
M  V30 1475 H 141.225 -4.51777 3.17177 0
M  V30 1476 H 143.701 -3.9417 1.33302 0
M  V30 1477 H 142.577 -5.32494 1.33198 0
M  V30 1478 H 142.838 -4.41846 -0.149796 0
M  V30 1479 N 141.898 -0.863906 -1.31812 0
M  V30 1480 C 142.828 -0.330843 -2.31144 0
M  V30 1481 C 143.809 0.575005 -1.60087 0
M  V30 1482 O 144.994 0.493304 -1.8783 0
M  V30 1483 C 142.124 0.47374 -3.44054 0
M  V30 1484 C 141.078 -0.338481 -4.26659 0
M  V30 1485 C 140.404 0.591412 -5.31419 0
M  V30 1486 C 141.704 -1.56926 -4.98168 0
M  V30 1487 H 143.398 -1.16086 -2.75979 0
M  V30 1488 H 140.944 -0.559657 -1.32679 0
M  V30 1489 H 142.897 0.857143 -4.12591 0
M  V30 1490 H 141.621 1.33721 -2.9797 0
M  V30 1491 H 140.28 -0.703754 -3.59782 0
M  V30 1492 H 139.928 1.45199 -4.81587 0
M  V30 1493 H 139.628 0.0519022 -5.87577 0
M  V30 1494 H 141.152 0.97179 -6.02817 0
M  V30 1495 H 142.566 -1.25764 -5.59336 0
M  V30 1496 H 140.963 -2.04739 -5.64094 0
M  V30 1497 H 142.033 -2.32544 -4.25501 0
M  V30 1498 N 143.376 1.44774 -0.622745 0
M  V30 1499 C 144.601 2.06999 -0.128968 0
M  V30 1500 C 145.026 1.4617 1.1839 0
M  V30 1501 O 144.384 0.560007 1.72434 0
M  V30 1502 C 144.432 3.60595 -0.0188351 0
M  V30 1503 O 143.536 3.99398 1.02739 0
M  V30 1504 H 142.877 0.659047 -0.0809544 0
M  V30 1505 H 145.407 1.85784 -0.85705 0
M  V30 1506 H 145.417 4.07627 0.174476 0
M  V30 1507 H 144.092 4.04252 -0.977384 0
M  V30 1508 H 142.669 3.64011 0.809326 0
M  V30 1509 N 144.854 0.36279 1.53368 0
M  V30 1510 C 145.804 -0.501391 2.22419 0
M  V30 1511 C 146.788 -1.0509 1.2184 0
M  V30 1512 O 147.98 -0.981404 1.47301 0
M  V30 1513 C 145.109 -1.64201 3.01484 0
M  V30 1514 C 144.195 -1.10552 4.09438 0
M  V30 1515 N 144.586 -0.291788 5.04958 0
M  V30 1516 C 142.884 -1.3806 4.24094 0
M  V30 1517 C 143.585 0.00162655 5.817 0
M  V30 1518 N 142.561 -0.595244 5.40331 0
M  V30 1519 H 146.363 0.127159 2.93625 0
M  V30 1520 H 143.877 0.170658 1.61501 0
M  V30 1521 H 145.874 -2.27326 3.49469 0
M  V30 1522 H 144.534 -2.27365 2.31809 0
M  V30 1523 H 145.545 0.0687731 5.17854 0
M  V30 1524 H 142.222 -2.01522 3.65644 0
M  V30 1525 H 143.612 0.659278 6.68658 0
M  V30 1526 N 146.332 -1.57332 0.0918853 0
M  V30 1527 C 147.557 -1.98995 -0.584442 0
M  V30 1528 C 147.982 -0.970528 -1.61128 0
M  V30 1529 O 147.34 0.0613904 -1.81196 0
M  V30 1530 C 147.388 -3.39636 -1.21161 0
M  V30 1531 O 146.492 -3.40447 -2.32744 0
M  V30 1532 H 145.833 -0.647165 -0.148572 0
M  V30 1533 H 148.363 -2.03873 0.172347 0
M  V30 1534 H 148.373 -3.7726 -1.55367 0
M  V30 1535 H 147.048 -4.13356 -0.459313 0
M  V30 1536 H 145.625 -3.14614 -2.0018 0
M  V30 1537 N 147.81 0.181792 -1.56548 0
M  V30 1538 C 148.74 1.22765 -1.98623 0
M  V30 1539 C 149.721 1.46747 -0.860189 0
M  V30 1540 O 150.906 1.58259 -1.12551 0
M  V30 1541 C 148.036 2.56894 -2.33715 0
M  V30 1542 C 146.99 2.475 -3.49182 0
M  V30 1543 C 146.316 3.86023 -3.69986 0
M  V30 1544 C 147.616 1.98866 -4.82959 0
M  V30 1545 H 149.31 0.877942 -2.86239 0
M  V30 1546 H 146.856 0.42088 -1.37712 0
M  V30 1547 H 148.809 3.30253 -2.61746 0
M  V30 1548 H 147.533 2.93632 -1.42997 0
M  V30 1549 H 146.192 1.76596 -3.21262 0
M  V30 1550 H 145.84 4.20136 -2.76576 0
M  V30 1551 H 145.54 3.80609 -4.47672 0
M  V30 1552 H 147.064 4.60984 -4.00407 0
M  V30 1553 H 148.478 2.61992 -5.09934 0
M  V30 1554 H 146.875 2.04424 -5.64208 0
M  V30 1555 H 147.945 0.942465 -4.75653 0
M  V30 1556 N 149.288 1.51039 0.449983 0
M  V30 1557 C 150.218 1.74379 1.55288 0
M  V30 1558 C 151.199 0.593236 1.5942 0
M  V30 1559 O 152.384 0.834625 1.7535 0
M  V30 1560 C 149.514 1.85728 2.93466 0
M  V30 1561 C 148.468 3.01078 3.04197 0
M  V30 1562 C 147.794 2.97595 4.44231 0
M  V30 1563 C 149.094 4.41254 2.7945 0
M  V30 1564 H 150.788 2.66725 1.36008 0
M  V30 1565 H 148.334 1.2835 0.652864 0
M  V30 1566 H 150.287 2.0064 3.70569 0
M  V30 1567 H 149.011 0.900207 3.13949 0
M  V30 1568 H 147.67 2.85851 2.29531 0
M  V30 1569 H 147.318 1.99691 4.61663 0
M  V30 1570 H 147.018 3.75046 4.52343 0
M  V30 1571 H 148.542 3.14583 5.23326 0
M  V30 1572 H 149.956 4.56897 3.46292 0
M  V30 1573 H 148.353 5.20315 2.98985 0
M  V30 1574 H 149.423 4.52164 1.75144 0
M  V30 1575 N 150.766 -0.704594 1.40972 0
M  V30 1576 C 151.696 -1.83124 1.44872 0
M  V30 1577 C 152.677 -1.67281 0.30838 0
M  V30 1578 O 153.862 -1.87149 0.518556 0
M  V30 1579 C 150.992 -3.21181 1.32136 0
M  V30 1580 C 149.946 -3.51714 2.43888 0
M  V30 1581 C 149.272 -4.89032 2.16222 0
M  V30 1582 C 150.572 -3.516 3.86232 0
M  V30 1583 H 152.266 -1.80117 2.39161 0
M  V30 1584 H 149.812 -0.865145 1.15114 0
M  V30 1585 H 151.765 -3.99702 1.33479 0
M  V30 1586 H 150.489 -3.24791 0.343279 0
M  V30 1587 H 149.148 -2.75539 2.41813 0
M  V30 1588 H 148.796 -4.89256 1.16778 0
M  V30 1589 H 148.496 -5.10426 2.911 0
M  V30 1590 H 150.02 -5.69873 2.19265 0
M  V30 1591 H 151.434 -4.2014 3.9007 0
M  V30 1592 H 149.831 -3.84523 4.60719 0
M  V30 1593 H 150.901 -2.50757 4.15029 0
M  V30 1594 N 152.244 -1.26651 -0.937939 0
M  V30 1595 C 153.174 -1.10993 -2.05433 0
M  V30 1596 C 154.155 -0.0142161 -1.70094 0
M  V30 1597 O 155.34 -0.186837 -1.93299 0
M  V30 1598 C 152.47 -0.745561 -3.39203 0
M  V30 1599 C 151.424 -1.79337 -3.88616 0
M  V30 1600 C 150.75 -1.28324 -5.19073 0
M  V30 1601 C 152.05 -3.19553 -4.13138 0
M  V30 1602 H 153.744 -2.0438 -2.1879 0
M  V30 1603 H 151.29 -0.984041 -1.05131 0
M  V30 1604 H 153.243 -0.622888 -4.16771 0
M  V30 1605 H 151.967 0.22401 -3.25831 0
M  V30 1606 H 150.626 -1.90477 -3.13231 0
M  V30 1607 H 150.274 -0.303414 -5.02084 0
M  V30 1608 H 149.974 -1.98369 -5.53103 0
M  V30 1609 H 151.498 -1.1733 -5.99221 0
M  V30 1610 H 152.912 -3.11471 -4.81309 0
M  V30 1611 H 151.309 -3.87218 -4.58457 0
M  V30 1612 H 152.379 -3.65368 -3.18801 0
M  V30 1613 N 153.722 1.14298 -1.08507 0
M  V30 1614 C 154.672 2.17449 -0.685569 0
M  V30 1615 C 155.656 1.58167 0.295315 0
M  V30 1616 O 156.848 1.76675 0.107172 0
M  V30 1617 C 153.977 3.43161 -0.0975318 0
M  V30 1618 C 153.063 4.09471 -1.10426 0
M  V30 1619 N 153.454 4.51089 -2.28806 0
M  V30 1620 C 151.752 4.35976 -0.940258 0
M  V30 1621 C 152.453 5.02654 -2.9277 0
M  V30 1622 N 151.429 4.96927 -2.20374 0
M  V30 1623 H 155.231 2.47369 -1.587 0
M  V30 1624 H 152.745 1.30992 -0.959936 0
M  V30 1625 H 154.742 4.16388 0.20664 0
M  V30 1626 H 153.402 3.14719 0.798872 0
M  V30 1627 H 154.413 4.44097 -2.66455 0
M  V30 1628 H 151.09 4.17386 -0.0977441 0
M  V30 1629 H 152.48 5.44723 -3.93352 0
M  V30 1630 N 155.201 0.870884 1.31352 0
M  V30 1631 C 156.148 0.325425 2.28494 0
M  V30 1632 C 157.118 -0.576615 1.5577 0
M  V30 1633 O 158.303 -0.508059 1.83911 0
M  V30 1634 C 155.443 -0.466283 3.41935 0
M  V30 1635 C 154.556 0.463378 4.29508 0
M  V30 1636 C 153.691 -0.342544 5.30094 0
M  V30 1637 C 152.73 0.583486 6.09313 0
M  V30 1638 N 151.867 -0.186244 7.01853 0
M  V30 1639 H 156.707 1.15901 2.74538 0
M  V30 1640 H 154.244 0.58294 1.35056 0
M  V30 1641 H 156.202 -0.941085 4.06447 0
M  V30 1642 H 154.832 -1.26456 2.97 0
M  V30 1643 H 153.884 1.05663 3.65431 0
M  V30 1644 H 155.196 1.1734 4.84802 0
M  V30 1645 H 154.35 -0.879816 6.00287 0
M  V30 1646 H 153.089 -1.08585 4.75458 0
M  V30 1647 H 152.094 1.13251 5.3801 0
M  V30 1648 H 153.319 1.32566 6.66035 0
M  V30 1649 H 151.265 -0.912348 6.49625 0
M  V30 1650 H 151.182 0.464422 7.54572 0
M  V30 1651 H 152.45 -0.704716 7.76308 0
M  V30 1652 N 156.679 -1.44442 0.630414 0
M  V30 1653 C 157.626 -2.30678 -0.0749355 0
M  V30 1654 C 158.596 -1.4344 -0.837502 0
M  V30 1655 O 159.781 -1.72343 -0.818684 0
M  V30 1656 C 156.921 -3.28706 -1.05103 0
M  V30 1657 C 156.034 -4.31046 -0.286954 0
M  V30 1658 C 155.169 -5.16167 -1.2548 0
M  V30 1659 C 154.208 -6.10216 -0.479843 0
M  V30 1660 N 153.345 -6.88039 -1.39811 0
M  V30 1661 H 158.185 -2.90454 0.666386 0
M  V30 1662 H 155.722 -1.43107 0.340404 0
M  V30 1663 H 157.68 -3.84027 -1.63031 0
M  V30 1664 H 156.31 -2.70632 -1.75949 0
M  V30 1665 H 155.362 -3.78203 0.408243 0
M  V30 1666 H 156.674 -4.97794 0.316657 0
M  V30 1667 H 155.828 -5.76002 -1.90544 0
M  V30 1668 H 154.567 -4.49491 -1.89233 0
M  V30 1669 H 153.572 -5.49491 0.184295 0
M  V30 1670 H 154.797 -6.78928 0.152965 0
M  V30 1671 H 152.743 -6.24032 -2.02287 0
M  V30 1672 H 152.66 -7.51223 -0.848508 0
M  V30 1673 H 153.928 -7.52397 -2.03762 0
M  V30 1674 N 158.157 -0.370918 -1.53173 0
M  V30 1675 C 159.067 0.480823 -2.2962 0
M  V30 1676 C 160.083 1.08789 -1.35798 0
M  V30 1677 O 161.259 1.09768 -1.68858 0
M  V30 1678 C 158.324 1.60227 -3.07454 0
M  V30 1679 C 157.385 1.0222 -4.16953 0
M  V30 1680 C 156.618 2.0902 -4.91066 0
M  V30 1681 O 156.841 3.30222 -4.65091 0
M  V30 1682 O 155.775 1.71778 -5.76867 0
M  V30 1683 H 159.601 -0.141421 -3.03371 0
M  V30 1684 H 157.186 -0.135146 -1.48787 0
M  V30 1685 H 159.068 2.25417 -3.56041 0
M  V30 1686 H 157.743 2.20982 -2.36535 0
M  V30 1687 H 156.65 0.334064 -3.72605 0
M  V30 1688 H 157.983 0.459131 -4.90054 0
M  V30 1689 N 159.635 1.57281 -0.100228 0
M  V30 1690 C 160.912 1.86014 0.604812 0
M  V30 1691 C 161.292 0.998025 1.86018 0
M  V30 1692 O 160.64 0.0718184 2.28387 0
M  V30 1693 C 160.85 3.36784 0.915278 0
M  V30 1694 C 162.198 4.04957 1.27651 0
M  V30 1695 O 163.222 3.41695 1.00613 0
M  V30 1696 O 162.081 5.16593 1.7831 0
M  V30 1697 H 159.175 0.76942 0.303185 0
M  V30 1698 H 161.721 1.69176 -0.133313 0
M  V30 1699 H 160.493 3.91292 0.0248896 0
M  V30 1700 H 160.116 3.58987 1.70921 0
M  V30 1701 N 161.113 -0.173488 1.56642 0
M  V30 1702 C 162.361 -0.888706 1.81512 0
M  V30 1703 C 162.682 -1.82875 0.676872 0
M  V30 1704 O 161.952 -1.93536 -0.303414 0
M  V30 1705 H 160.532 -0.331164 0.669582 0
M  V30 1706 H 163.194 -0.173823 1.94123 0
M  V30 1707 H 162.29 -1.46691 2.75478 0
M  V30 1708 N 162.591 -1.51276 -0.441967 0
M  V30 1709 C 163.84 -1.6295 -1.18871 0
M  V30 1710 C 164.153 -0.349312 -1.92456 0
M  V30 1711 O 165.359 -0.345355 -2.69295 0
M  V30 1712 C 163.815 -2.87759 -2.16155 0
M  V30 1713 C 163.423 -4.22764 -1.48239 0
M  V30 1714 C 165.167 -3.08788 -2.91291 0
M  V30 1715 C 163.074 -5.38728 -2.4398 0
M  V30 1716 H 162.004 -0.606913 -0.447406 0
M  V30 1717 H 164.655 -1.77739 -0.456205 0
M  V30 1718 H 163.037 -2.66593 -2.92821 0
M  V30 1719 H 164.211 -4.54293 -0.771635 0
M  V30 1720 H 162.526 -4.07575 -0.852741 0
M  V30 1721 H 165.123 -3.92599 -3.63002 0
M  V30 1722 H 165.466 -2.21679 -3.5237 0
M  V30 1723 H 165.999 -3.30272 -2.21733 0
M  V30 1724 H 162.738 -6.28082 -1.87598 0
M  V30 1725 H 162.258 -5.1158 -3.13123 0
M  V30 1726 H 163.937 -5.70489 -3.05207 0
M  V30 1727 N 164.069 0.697108 -1.41344 0
M  V30 1728 C 165.315 1.45796 -1.41828 0
M  V30 1729 C 165.67 1.92382 -0.0261743 0
M  V30 1730 O 164.963 1.66522 0.947688 0
M  V30 1731 C 165.157 2.68553 -2.35826 0
M  V30 1732 C 164.986 2.33975 -3.84039 0
M  V30 1733 C 163.756 2.24414 -4.52732 0
M  V30 1734 C 165.954 1.97048 -4.75054 0
M  V30 1735 N 163.936 1.82705 -5.86082 0
M  V30 1736 C 165.307 1.66086 -5.9734 0
M  V30 1737 C 167.362 1.83845 -4.62715 0
M  V30 1738 C 166.065 1.23246 -7.08663 0
M  V30 1739 C 168.091 1.4241 -5.73998 0
M  V30 1740 C 167.453 1.12357 -6.95381 0
M  V30 1741 H 163.552 0.530859 -0.574206 0
M  V30 1742 H 166.136 0.806674 -1.77203 0
M  V30 1743 H 164.307 3.31404 -2.02549 0
M  V30 1744 H 166.039 3.35015 -2.2704 0
M  V30 1745 H 162.794 2.4276 -4.0665 0
M  V30 1746 H 163.218 1.64337 -6.56751 0
M  V30 1747 H 167.86 2.05734 -3.69369 0
M  V30 1748 H 165.578 1.00102 -8.01876 0
M  V30 1749 H 169.164 1.32746 -5.66454 0
M  V30 1750 H 168.044 0.807795 -7.80028 0
M  V30 1751 N 165.547 1.27147 0.931209 0
M  V30 1752 C 166.772 1.16191 1.71797 0
M  V30 1753 C 167.197 -0.278004 1.86034 0
M  V30 1754 O 166.555 -1.20137 1.35782 0
M  V30 1755 C 166.603 1.84673 3.09723 0
M  V30 1756 O 165.707 1.14231 3.96264 0
M  V30 1757 H 165.048 0.404303 0.526721 0
M  V30 1758 H 167.578 1.68152 1.1656 0
M  V30 1759 H 167.588 1.91893 3.60057 0
M  V30 1760 H 166.263 2.89421 2.98677 0
M  V30 1761 H 164.84 1.15056 3.54706 0
M  V30 1762 N 167.025 -1.13721 1.09112 0
M  V30 1763 C 168.253 -1.88773 0.846899 0
M  V30 1764 C 168.668 -1.7896 -0.601572 0
M  V30 1765 O 168.025 -1.15394 -1.41388 0
M  V30 1766 C 168.076 -3.3849 1.26913 0
M  V30 1767 O 167.797 -3.48043 2.66079 0
M  V30 1768 C 169.298 -4.30518 1.05682 0
M  V30 1769 H 166.518 -0.59772 0.304914 0
M  V30 1770 H 169.062 -1.43977 1.45227 0
M  V30 1771 H 167.217 -3.80881 0.707723 0
M  V30 1772 H 167.631 -4.4109 2.83795 0
M  V30 1773 H 169.105 -5.3391 1.40156 0
M  V30 1774 H 169.582 -4.392 -0.00563416 0
M  V30 1775 H 170.188 -3.93893 1.60402 0
M  V30 1776 N 168.503 -0.877838 -1.30888 0
M  V30 1777 C 169.78 -0.413052 -1.91189 0
M  V30 1778 C 170.16 1.1056 -1.79832 0
M  V30 1779 O 169.508 1.93771 -1.21099 0
M  V30 1780 C 169.718 -0.903191 -3.3711 0
M  V30 1781 C 171.066 -0.93395 -4.14201 0
M  V30 1782 O 172.09 -0.849373 -3.45925 0
M  V30 1783 O 170.949 -1.05772 -5.36167 0
M  V30 1784 H 168.043 -0.125035 -0.817493 0
M  V30 1785 H 170.589 -0.966269 -1.39504 0
M  V30 1786 H 169.361 -1.94692 -3.39427 0
M  V30 1787 H 168.984 -0.328732 -3.96239 0
M  V30 1788 N 169.982 1.44106 -0.638065 0
M  V30 1789 C 171.231 2.01194 -0.142744 0
M  V30 1790 C 171.544 1.50835 1.24532 0
M  V30 1791 O 172.75 2.00096 1.83504 0
M  V30 1792 C 171.206 3.59319 -0.20442 0
M  V30 1793 C 170.814 4.18674 -1.59423 0
M  V30 1794 C 172.558 4.23854 0.234079 0
M  V30 1795 C 170.465 5.69045 -1.61065 0
M  V30 1796 H 169.395 0.752367 -0.0495998 0
M  V30 1797 H 172.046 1.65246 -0.797881 0
M  V30 1798 H 170.428 3.92598 0.517946 0
M  V30 1799 H 171.602 3.96921 -2.34074 0
M  V30 1800 H 169.917 3.66453 -1.97741 0
M  V30 1801 H 172.514 5.34155 0.241443 0
M  V30 1802 H 172.857 3.96688 1.2627 0
M  V30 1803 H 173.39 3.95403 -0.436025 0
M  V30 1804 H 170.129 6.00956 -2.61787 0
M  V30 1805 H 169.649 5.929 -0.90718 0
M  V30 1806 H 171.328 6.32809 -1.34766 0
M  V30 1807 N 171.46 0.379036 1.52974 0
M  V30 1808 C 172.39 -0.452706 2.29069 0
M  V30 1809 C 173.371 -1.07237 1.32039 0
M  V30 1810 O 174.556 -1.08708 1.60923 0
M  V30 1811 C 171.686 -1.5856 3.08992 0
M  V30 1812 C 170.64 -1.0925 4.13822 0
M  V30 1813 C 169.966 -2.31668 4.81907 0
M  V30 1814 C 171.266 -0.167702 5.22031 0
M  V30 1815 H 172.96 0.182181 2.98845 0
M  V30 1816 H 170.506 0.0890592 1.43724 0
M  V30 1817 H 172.459 -2.1742 3.6098 0
M  V30 1818 H 171.183 -2.24792 2.36931 0
M  V30 1819 H 169.842 -0.526494 3.628 0
M  V30 1820 H 169.49 -2.96386 4.06404 0
M  V30 1821 H 169.19 -1.9934 5.52754 0
M  V30 1822 H 170.714 -2.91189 5.36695 0
M  V30 1823 H 172.128 -0.664186 5.6944 0
M  V30 1824 H 170.525 0.0653265 6.00064 0
M  V30 1825 H 171.595 0.786347 4.78482 0
M  V30 1826 N 172.938 -1.57226 0.108567 0
M  V30 1827 C 173.885 -2.14756 -0.845481 0
M  V30 1828 C 174.855 -1.06971 -1.27068 0
M  V30 1829 O 176.04 -1.34827 -1.35005 0
M  V30 1830 C 173.18 -2.74298 -2.09415 0
M  V30 1831 C 172.293 -3.96358 -1.71826 0
M  V30 1832 C 171.428 -4.44021 -2.9158 0
M  V30 1833 C 170.467 -5.58637 -2.50181 0
M  V30 1834 N 169.604 -6.01091 -3.62814 0
M  V30 1835 H 174.444 -2.95961 -0.348035 0
M  V30 1836 H 171.981 -1.46226 -0.160106 0
M  V30 1837 H 173.939 -3.06945 -2.82561 0
M  V30 1838 H 172.569 -1.95801 -2.56636 0
M  V30 1839 H 171.621 -3.69939 -0.885947 0
M  V30 1840 H 172.933 -4.79504 -1.37394 0
M  V30 1841 H 172.087 -4.78522 -3.72963 0
M  V30 1842 H 170.826 -3.59803 -3.29231 0
M  V30 1843 H 169.831 -5.23751 -1.67228 0
M  V30 1844 H 171.056 -6.44613 -2.13659 0
M  V30 1845 H 169.002 -5.19817 -4.00158 0
M  V30 1846 H 168.919 -6.79066 -3.32273 0
M  V30 1847 H 170.187 -6.40227 -4.44668 0
M  V30 1848 N 174.416 0.165178 -1.56732 0
M  V30 1849 C 175.693 0.908443 -1.73224 0
M  V30 1850 C 176.073 2.0013 -0.67165 0
M  V30 1851 O 175.421 2.26353 0.31253 0
M  V30 1852 C 175.631 1.46756 -3.16644 0
M  V30 1853 C 176.979 1.93809 -3.77787 0
M  V30 1854 O 178.003 1.56537 -3.1996 0
M  V30 1855 O 176.862 2.62486 -4.79336 0
M  V30 1856 H 173.956 0.428025 -0.707618 0
M  V30 1857 H 176.502 0.152526 -1.69013 0
M  V30 1858 H 175.274 0.68129 -3.85323 0
M  V30 1859 H 174.897 2.28749 -3.25207 0
M  V30 1860 N 175.894 1.51508 0.433938 0
M  V30 1861 C 176.826 1.69266 1.54537 0
M  V30 1862 C 177.839 0.573276 1.52373 0
M  V30 1863 O 179.028 0.847698 1.57087 0
M  V30 1864 C 176.128 1.69524 2.93453 0
M  V30 1865 C 175.301 2.98101 3.20085 0
M  V30 1866 C 174.36 2.90502 4.38742 0
M  V30 1867 O 173.386 3.64442 4.3723 0
M  V30 1868 N 174.588 2.06586 5.42496 0
M  V30 1869 H 177.353 2.65145 1.39708 0
M  V30 1870 H 174.914 1.49437 0.622922 0
M  V30 1871 H 176.906 1.62004 3.70859 0
M  V30 1872 H 175.476 0.812245 3.01863 0
M  V30 1873 H 174.696 3.19464 2.30947 0
M  V30 1874 H 175.984 3.83207 3.34708 0
M  V30 1875 H 175.382 1.45896 5.46563 0
M  V30 1876 H 173.939 2.04943 6.18742 0
M  V30 1877 N 177.372 -0.689602 1.41712 0
M  V30 1878 C 178.319 -1.80345 1.44029 0
M  V30 1879 C 179.289 -1.63478 0.293948 0
M  V30 1880 O 180.474 -1.84244 0.495869 0
M  V30 1881 C 177.614 -3.18272 1.33405 0
M  V30 1882 C 176.727 -3.46529 2.57956 0
M  V30 1883 C 175.862 -4.74103 2.39582 0
M  V30 1884 C 174.901 -4.95347 3.5958 0
M  V30 1885 N 174.038 -6.14151 3.40239 0
M  V30 1886 H 178.878 -1.77698 2.39222 0
M  V30 1887 H 176.415 -0.867688 1.18784 0
M  V30 1888 H 178.373 -3.97956 1.25246 0
M  V30 1889 H 177.003 -3.2008 0.418164 0
M  V30 1890 H 176.055 -2.61207 2.76542 0
M  V30 1891 H 177.367 -3.58126 3.47199 0
M  V30 1892 H 176.521 -5.61853 2.28924 0
M  V30 1893 H 175.26 -4.64763 1.47805 0
M  V30 1894 H 174.265 -4.06044 3.70686 0
M  V30 1895 H 175.49 -5.06542 4.52318 0
M  V30 1896 H 173.436 -6.06013 2.51167 0
M  V30 1897 H 173.353 -6.26543 4.23061 0
M  V30 1898 H 174.621 -7.04619 3.33365 0
M  V30 1899 N 178.85 -1.27639 -0.924453 0
M  V30 1900 C 179.76 -1.12466 -2.05885 0
M  V30 1901 C 180.776 -0.053869 -1.73917 0
M  V30 1902 O 181.952 -0.261012 -1.99702 0
M  V30 1903 C 179.017 -0.776768 -3.37886 0
M  V30 1904 C 178.078 -1.92878 -3.83532 0
M  V30 1905 C 177.311 -1.59739 -5.09234 0
M  V30 1906 O 177.534 -0.506782 -5.68144 0
M  V30 1907 O 176.468 -2.43761 -5.50331 0
M  V30 1908 H 180.294 -2.07671 -2.21599 0
M  V30 1909 H 177.879 -1.06857 -1.04413 0
M  V30 1910 H 179.761 -0.596229 -4.17161 0
M  V30 1911 H 178.436 0.145732 -3.23372 0
M  V30 1912 H 177.343 -2.1644 -3.0513 0
M  V30 1913 H 178.676 -2.8316 -4.02593 0
M  V30 1914 N 180.328 1.1314 -1.09713 0
M  V30 1915 C 181.739 1.66029 -0.853885 0
M  V30 1916 C 182.09 1.86241 0.617142 0
M  V30 1917 O 181.215 1.5834 1.47503 0
M  V30 1918 C 181.81 3.01599 -1.5435 0
M  V30 1919 C 180.369 3.51467 -1.34714 0
M  V30 1920 C 179.516 2.26648 -1.59769 0
M  V30 1921 H 182.467 0.970226 -1.25588 0
M  V30 1922 H 182.488 3.67709 -0.978267 0
M  V30 1923 H 182 2.86856 -2.6141 0
M  V30 1924 H 180.101 3.71408 -0.297838 0
M  V30 1925 H 180.214 4.314 -2.08401 0
M  V30 1926 H 178.578 2.33385 -1.01998 0
M  V30 1927 H 179.361 2.14467 -2.68065 0
M  V30 1928 N 181.806 0.884767 1.30421 0
M  V30 1929 C 182.753 0.349642 2.28136 0
M  V30 1930 C 183.723 -0.560061 1.56373 0
M  V30 1931 O 184.908 -0.488524 1.8444 0
M  V30 1932 C 182.048 -0.42999 3.42411 0
M  V30 1933 C 181.161 0.508907 4.28992 0
M  V30 1934 C 180.296 -0.286301 5.30428 0
M  V30 1935 C 179.335 0.648079 6.08659 0
M  V30 1936 N 178.472 -0.111792 7.02011 0
M  V30 1937 H 183.312 1.18807 2.73293 0
M  V30 1938 H 180.849 0.597231 1.3443 0
M  V30 1939 H 182.807 -0.897923 4.07423 0
M  V30 1940 H 181.437 -1.23299 2.98324 0
M  V30 1941 H 180.489 1.09533 3.64289 0
M  V30 1942 H 181.801 1.22475 4.8353 0
M  V30 1943 H 180.955 -0.816098 6.01186 0
M  V30 1944 H 179.694 -1.03536 4.76583 0
M  V30 1945 H 178.699 1.18951 5.36778 0
M  V30 1946 H 179.924 1.39623 6.64592 0
M  V30 1947 H 177.87 -0.843395 6.50556 0
M  V30 1948 H 177.787 0.544429 7.54037 0
M  V30 1949 H 179.055 -0.622339 7.77012 0
M  V30 1950 N 183.284 -1.43765 0.645699 0
M  V30 1951 C 184.232 -2.32516 -0.0624849 0
M  V30 1952 C 185.226 -1.48183 -0.820855 0
M  V30 1953 O 186.432 -1.64439 -0.732106 0
M  V30 1954 H 182.807 -0.750989 -0.0389864 0
M  V30 1955 H 184.778 -2.89979 0.703892 0
M  V30 1956 C 183.527 -3.32389 -1.02044 0
M  V30 1957 H 182.85 -3.97301 -0.446312 0
M  V30 1958 H 184.29 -3.97138 -1.48517 0
M  V30 1959 C 182.749 -2.62416 -2.11281 0
M  V30 1960 O 183.279 -2.434 -3.19561 0
M  V30 1961 N 181.485 -2.21913 -1.87624 0
M  V30 1962 H 181.032 -2.37578 -0.995703 0
M  V30 1963 H 180.99 -1.75424 -2.6091 0
M  V30 1964 N 184.763 -0.387143 -1.52771 0
M  V30 1965 C 185.71 0.449048 -2.26389 0
M  V30 1966 C 186.68 1.05961 -1.27912 0
M  V30 1967 O 187.865 1.08804 -1.56737 0
M  V30 1968 C 185.005 1.57155 -3.0724 0
M  V30 1969 C 184.118 0.984066 -4.20643 0
M  V30 1970 C 183.253 2.07745 -4.88892 0
M  V30 1971 C 182.292 1.46574 -5.94292 0
M  V30 1972 N 181.429 2.49834 -6.56146 0
M  V30 1973 H 186.269 -0.185205 -2.97424 0
M  V30 1974 H 183.806 -0.103164 -1.46738 0
M  V30 1975 H 185.764 2.23309 -3.52405 0
M  V30 1976 H 184.394 2.17615 -2.38419 0
M  V30 1977 H 183.446 0.212193 -3.79808 0
M  V30 1978 H 184.758 0.497029 -4.96318 0
M  V30 1979 H 183.912 2.81673 -5.3735 0
M  V30 1980 H 182.651 2.59807 -4.12737 0
M  V30 1981 H 181.656 0.711696 -5.45174 0
M  V30 1982 H 182.881 0.953088 -6.72379 0
M  V30 1983 H 180.827 3.0107 -5.82832 0
M  V30 1984 H 180.744 2.05879 -7.27427 0
M  V30 1985 H 182.012 3.23399 -7.09249 0
M  V30 1986 N 186.241 1.57166 -0.116904 0
M  V30 1987 C 187.469 1.99473 0.549383 0
M  V30 1988 C 187.884 0.996541 1.60357 0
M  V30 1989 O 187.241 -0.0108731 1.82497 0
M  V30 1990 C 187.292 3.41788 1.17741 0
M  V30 1991 O 187.013 4.37788 0.165362 0
M  V30 1992 C 188.514 3.99216 1.92722 0
M  V30 1993 H 185.734 0.655009 0.145616 0
M  V30 1994 H 188.278 2.03494 -0.202625 0
M  V30 1995 H 186.433 3.38713 1.88021 0
M  V30 1996 H 186.847 5.20806 0.621403 0
M  V30 1997 H 188.321 5.00882 2.31995 0
M  V30 1998 H 188.798 3.3824 2.80161 0
M  V30 1999 H 189.404 4.0583 1.27209 0
M  V30 2000 N 187.719 -0.156864 1.56817 0
M  V30 2001 C 188.966 -0.871125 1.82805 0
M  V30 2002 C 189.294 -1.81611 0.696262 0
M  V30 2003 O 188.549 -1.93141 -0.315459 0
M  V30 2004 C 188.848 -1.68737 3.1506 0
M  V30 2005 C 188.514 -0.890045 4.42028 0
M  V30 2006 C 187.176 -0.670042 4.76512 0
M  V30 2007 C 189.528 -0.331769 5.20143 0
M  V30 2008 C 186.856 0.119104 5.86579 0
M  V30 2009 C 189.208 0.444365 6.31037 0
M  V30 2010 C 187.872 0.675035 6.64078 0
M  V30 2011 H 187.142 -0.318767 0.668931 0
M  V30 2012 H 189.789 -0.135274 1.91022 0
M  V30 2013 H 188.094 -2.49304 3.0225 0
M  V30 2014 H 189.791 -2.24331 3.3238 0
M  V30 2015 H 186.381 -1.07157 4.14988 0
M  V30 2016 H 190.565 -0.489043 4.93885 0
M  V30 2017 H 185.821 0.307417 6.10627 0
M  V30 2018 H 189.995 0.884139 6.90765 0
M  V30 2019 H 187.622 1.28839 7.49203 0
M  V30 2020 N 189.197 -1.51736 -0.425897 0
M  V30 2021 C 190.127 -1.76827 -1.52494 0
M  V30 2022 C 191.108 -0.618524 -1.58456 0
M  V30 2023 O 192.293 -0.862416 -1.74 0
M  V30 2024 C 189.423 -1.90374 -2.90474 0
M  V30 2025 C 188.377 -3.0588 -2.99369 0
M  V30 2026 C 187.703 -3.04625 -4.3944 0
M  V30 2027 C 189.003 -4.45644 -2.72394 0
M  V30 2028 H 190.697 -2.68855 -1.31748 0
M  V30 2029 H 188.243 -1.29372 -0.632362 0
M  V30 2030 H 190.196 -2.0651 -3.6733 0
M  V30 2031 H 188.92 -0.95004 -3.12477 0
M  V30 2032 H 187.579 -2.89467 -2.24954 0
M  V30 2033 H 187.227 -2.0701 -4.58428 0
M  V30 2034 H 186.927 -3.82195 -4.46319 0
M  V30 2035 H 188.451 -3.22869 -5.18255 0
M  V30 2036 H 189.865 -4.62348 -3.38979 0
M  V30 2037 H 188.262 -5.25006 -2.9067 0
M  V30 2038 H 189.332 -4.54893 -1.67929 0
M  V30 2039 N 190.675 0.682077 -1.42076 0
M  V30 2040 C 192.091 0.994324 -1.24841 0
M  V30 2041 C 192.291 2.0096 -0.147389 0
M  V30 2042 O 191.347 2.47822 0.483782 0
M  V30 2043 C 192.66 1.50607 -2.60265 0
M  V30 2044 C 194.208 1.62421 -2.6756 0
M  V30 2045 C 194.683 2.16994 -4.03333 0
M  V30 2046 N 196.174 2.24337 -4.0525 0
M  V30 2047 C 196.909 2.67621 -5.07116 0
M  V30 2048 N 196.405 3.1041 -6.19368 0
M  V30 2049 N 198.198 2.67305 -4.94474 0
M  V30 2050 H 190.349 0.00973908 -2.12398 0
M  V30 2051 H 192.612 0.0668593 -0.945639 0
M  V30 2052 H 192.318 0.834583 -3.41654 0
M  V30 2053 H 192.192 2.48602 -2.83684 0
M  V30 2054 H 194.579 2.28678 -1.86521 0
M  V30 2055 H 194.66 0.629352 -2.47937 0
M  V30 2056 H 194.304 1.51349 -4.84826 0
M  V30 2057 H 194.234 3.17258 -4.20304 0
M  V30 2058 H 196.725 1.94158 -3.24209 0
M  V30 2059 H 197.038 3.42103 -6.92954 0
M  V30 2060 H 195.383 3.08286 -6.22884 0
M  V30 2061 H 198.574 2.33233 -4.05857 0
M  V30 2062 H 198.747 3.00718 -5.73997 0
M  V30 2063 N 192.153 1.28127 0.917671 0
M  V30 2064 C 193.393 1.163 1.68088 0
M  V30 2065 C 193.757 -0.284515 1.8988 0
M  V30 2066 O 194.958 -0.525413 2.63615 0
M  V30 2067 C 193.229 1.93546 3.00457 0
M  V30 2068 S 194.788 1.98048 3.91564 0
M  V30 2069 H 191.606 0.415005 0.577315 0
M  V30 2070 H 194.208 1.62173 1.09179 0
M  V30 2071 H 192.912 2.97888 2.82295 0
M  V30 2072 H 192.443 1.48207 3.64415 0
M  V30 2073 H 194.458 1.08415 4.84211 0
M  V30 2074 N 193.631 -1.12557 1.10312 0
M  V30 2075 C 194.541 -2.21841 0.763142 0
M  V30 2076 C 195.557 -1.72354 -0.238801 0
M  V30 2077 O 196.733 -2.01249 -0.0778746 0
M  V30 2078 C 193.798 -3.46131 0.198632 0
M  V30 2079 C 192.859 -4.10464 1.25769 0
M  V30 2080 C 192.092 -5.28821 0.72002 0
M  V30 2081 O 192.315 -5.6859 -0.453993 0
M  V30 2082 O 191.249 -5.83437 1.47935 0
M  V30 2083 H 195.075 -2.53312 1.67532 0
M  V30 2084 H 192.66 -1.20867 0.878157 0
M  V30 2085 H 194.542 -4.2125 -0.112401 0
M  V30 2086 H 193.217 -3.16338 -0.686419 0
M  V30 2087 H 192.124 -3.3713 1.62156 0
M  V30 2088 H 193.457 -4.44408 2.11571 0
M  V30 2089 N 195.109 -0.891671 -1.2995 0
M  V30 2090 C 196.072 -0.36828 -2.26222 0
M  V30 2091 C 197.072 0.493014 -1.53056 0
M  V30 2092 O 198.262 0.299213 -1.71611 0
M  V30 2093 C 195.394 0.47442 -3.37583 0
M  V30 2094 H 196.587 -1.21844 -2.74033 0
M  V30 2095 H 194.14 -0.669107 -1.41254 0
M  V30 2096 H 194.875 1.34489 -2.95099 0
M  V30 2097 H 194.66 -0.142615 -3.91841 0
M  V30 2098 H 196.15 0.83218 -4.09224 0
M  V30 2099 N 196.587 1.43421 -0.653314 0
M  V30 2100 C 197.534 2.30768 0.0382271 0
M  V30 2101 C 198.504 1.44755 0.814576 0
M  V30 2102 O 199.689 1.73624 0.791162 0
M  V30 2103 C 196.829 3.30336 0.998599 0
M  V30 2104 C 195.942 4.31448 0.218342 0
M  V30 2105 C 195.077 5.18098 1.17252 0
M  V30 2106 C 194.116 6.10902 0.382702 0
M  V30 2107 N 193.253 6.90176 1.28848 0
M  V30 2108 H 198.093 2.89357 -0.712511 0
M  V30 2109 H 195.63 1.42548 -0.363128 0
M  V30 2110 H 197.588 3.86572 1.56901 0
M  V30 2111 H 196.218 2.73397 1.71621 0
M  V30 2112 H 195.27 3.77506 -0.46836 0
M  V30 2113 H 196.582 4.97227 -0.395812 0
M  V30 2114 H 195.736 5.7896 1.81356 0
M  V30 2115 H 194.475 4.52444 1.82058 0
M  V30 2116 H 193.48 5.49128 -0.27169 0
M  V30 2117 H 194.705 6.78598 -0.260957 0
M  V30 2118 H 192.651 6.27171 1.92334 0
M  V30 2119 H 192.568 7.52478 0.728887 0
M  V30 2120 H 193.836 7.55543 1.91766 0
M  V30 2121 N 198.065 0.39524 1.52563 0
M  V30 2122 C 199.013 -0.451859 2.28169 0
M  V30 2123 C 200.007 -1.05792 1.32304 0
M  V30 2124 O 201.213 -0.997718 1.49818 0
M  V30 2125 H 197.588 -0.164481 0.733792 0
M  V30 2126 H 199.559 0.207199 2.9768 0
M  V30 2127 C 198.308 -1.56385 3.10546 0
M  V30 2128 H 197.631 -1.10682 3.84174 0
M  V30 2129 H 199.071 -2.13067 3.66577 0
M  V30 2130 C 197.53 -2.52328 2.23231 0
M  V30 2131 O 198.06 -3.5588 1.86312 0
M  V30 2132 N 196.266 -2.22209 1.87274 0
M  V30 2133 H 195.813 -1.38033 2.17496 0
M  V30 2134 H 195.771 -2.86652 1.29143 0
M  V30 2135 N 199.544 -1.57102 0.125237 0
M  V30 2136 C 200.774 -1.99472 -0.538015 0
M  V30 2137 C 201.182 -1.00395 -1.60366 0
M  V30 2138 O 200.525 0.0103875 -1.83697 0
M  V30 2139 C 200.587 -3.38262 -1.21734 0
M  V30 2140 C 200.251 -4.56021 -0.298897 0
M  V30 2141 C 201.248 -5.17817 0.464943 0
M  V30 2142 C 198.933 -5.01869 -0.208149 0
M  V30 2143 C 200.927 -6.23852 1.3072 0
M  V30 2144 C 198.614 -6.07763 0.637736 0
M  V30 2145 C 199.612 -6.68622 1.39403 0
M  V30 2146 O 199.3 -7.7247 2.22586 0
M  V30 2147 H 199.032 -0.659934 -0.146501 0
M  V30 2148 H 201.586 -2.04321 0.210267 0
M  V30 2149 H 199.816 -3.30185 -2.01282 0
M  V30 2150 H 201.505 -3.6488 -1.77813 0
M  V30 2151 H 202.271 -4.83308 0.404741 0
M  V30 2152 H 198.15 -4.54241 -0.786522 0
M  V30 2153 H 201.694 -6.71284 1.898 0
M  V30 2154 H 197.591 -6.41701 0.699309 0
M  V30 2155 H 198.359 -7.89595 2.15596 0
M  V30 2156 N 201.022 0.148545 -1.56898 0
M  V30 2157 C 202.247 0.880385 -1.87787 0
M  V30 2158 C 202.672 1.74018 -0.714093 0
M  V30 2159 O 202.03 1.78153 0.336343 0
M  V30 2160 C 202.078 1.71422 -3.17249 0
M  V30 2161 O 201.182 2.8183 -3.01074 0
M  V30 2162 H 200.523 0.245301 -0.617028 0
M  V30 2163 H 203.053 0.139826 -2.04122 0
M  V30 2164 H 203.063 2.10954 -3.49231 0
M  V30 2165 H 201.738 1.08284 -4.01556 0
M  V30 2166 H 200.315 2.45715 -2.80497 0
M  V30 2167 N 202.5 1.5196 0.417844 0
M  V30 2168 C 203.748 1.65263 1.16329 0
M  V30 2169 C 204.069 0.380634 1.91249 0
M  V30 2170 O 203.339 -0.604214 1.86349 0
M  V30 2171 H 201.919 0.60912 0.432414 0
M  V30 2172 H 204.581 1.88969 0.477162 0
M  V30 2173 H 203.677 2.4896 1.88217 0
M  V30 2174 N 203.978 -0.674533 1.42435 0
M  V30 2175 C 205.394 -0.98769 1.25367 0
M  V30 2176 C 205.594 -2.00879 0.158044 0
M  V30 2177 O 204.65 -2.48075 -0.470633 0
M  V30 2178 C 205.963 -1.49224 2.6106 0
M  V30 2179 C 207.511 -1.61 2.68417 0
M  V30 2180 C 207.986 -2.14852 4.04478 0
M  V30 2181 N 209.477 -2.22185 4.06434 0
M  V30 2182 C 210.212 -2.64928 5.08528 0
M  V30 2183 N 209.708 -3.07121 6.21006 0
M  V30 2184 N 211.501 -2.64679 4.95885 0
M  V30 2185 H 203.652 0.00152503 2.124 0
M  V30 2186 H 205.915 -0.0618434 0.945981 0
M  V30 2187 H 205.621 -0.816453 3.42092 0
M  V30 2188 H 205.495 -2.47094 2.84999 0
M  V30 2189 H 207.882 -2.27686 1.87732 0
M  V30 2190 H 207.963 -0.616195 2.48267 0
M  V30 2191 H 207.607 -1.48775 4.85622 0
M  V30 2192 H 207.537 -3.15024 4.2198 0
M  V30 2193 H 210.028 -1.92435 3.25234 0
M  V30 2194 H 210.341 -3.38423 6.94759 0
M  V30 2195 H 208.686 -3.04978 6.24511 0
M  V30 2196 H 211.877 -2.31078 4.07088 0
M  V30 2197 H 212.05 -2.9767 5.75584 0
M  V30 2198 N 205.456 -1.28612 -0.910864 0
M  V30 2199 C 206.703 -1.15934 -1.66029 0
M  V30 2200 C 207.031 0.291483 -1.92303 0
M  V30 2201 O 206.286 1.22816 -1.52364 0
M  V30 2202 C 206.585 -1.90624 -3.0232 0
M  V30 2203 C 206.251 -3.40405 -2.95695 0
M  V30 2204 C 204.913 -3.81255 -2.93595 0
M  V30 2205 C 207.265 -4.359 -2.85728 0
M  V30 2206 C 204.593 -5.15936 -2.79334 0
M  V30 2207 C 206.945 -5.70657 -2.73007 0
M  V30 2208 C 205.609 -6.10779 -2.69267 0
M  V30 2209 H 204.879 -0.424234 -0.607541 0
M  V30 2210 H 207.526 -1.5942 -1.06101 0
M  V30 2211 H 205.831 -1.39696 -3.6605 0
M  V30 2212 H 207.528 -1.78228 -3.59215 0
M  V30 2213 H 204.118 -3.07927 -2.98125 0
M  V30 2214 H 208.302 -4.053 -2.86436 0
M  V30 2215 H 203.558 -5.46146 -2.74835 0
M  V30 2216 H 207.732 -6.44311 -2.64264 0
M  V30 2217 H 205.359 -7.1509 -2.57974 0
M  V30 2218 N 206.934 1.1197 -1.10907 0
M  V30 2219 C 208.162 1.87402 -0.876824 0
M  V30 2220 C 208.577 1.79894 0.573025 0
M  V30 2221 O 207.934 1.17629 1.39534 0
M  V30 2222 C 207.985 3.36428 -1.32282 0
M  V30 2223 O 207.706 3.43765 -2.71582 0
M  V30 2224 C 209.207 4.28783 -1.12518 0
M  V30 2225 H 206.427 0.592793 -0.314384 0
M  V30 2226 H 208.971 1.41649 -1.47499 0
M  V30 2227 H 207.126 3.79706 -0.768229 0
M  V30 2228 H 207.54 4.3652 -2.90776 0
M  V30 2229 H 209.014 5.31613 -1.48633 0
M  V30 2230 H 209.491 4.39153 -0.0642394 0
M  V30 2231 H 210.097 3.91291 -1.66648 0
M  V30 2232 N 208.412 0.89855 1.29475 0
M  V30 2233 C 209.652 0.530771 1.97388 0
M  V30 2234 C 210.016 -0.905832 1.69289 0
M  V30 2235 O 211.217 -1.38042 2.30646 0
M  V30 2236 C 209.488 0.81369 3.48014 0
M  V30 2237 S 211.047 0.550048 4.35339 0
M  V30 2238 H 207.865 0.196956 0.683176 0
M  V30 2239 H 210.467 1.16074 1.57312 0
M  V30 2240 H 209.171 1.85749 3.65958 0
M  V30 2241 H 208.702 0.171795 3.93025 0
M  V30 2242 H 210.717 -0.605423 4.92493 0
M  V30 2243 N 209.89 -1.43072 0.660911 0
M  V30 2244 C 211.136 -2.02545 0.186337 0
M  V30 2245 C 211.491 -1.51253 -1.18913 0
M  V30 2246 O 210.784 -0.699167 -1.78388 0
M  V30 2247 C 210.978 -3.57103 0.145563 0
M  V30 2248 C 210.807 -4.23393 1.51554 0
M  V30 2249 C 209.577 -4.59144 2.10984 0
M  V30 2250 C 211.775 -4.51897 2.45548 0
M  V30 2251 N 209.757 -5.10545 3.40907 0
M  V30 2252 C 211.128 -5.04698 3.6011 0
M  V30 2253 C 213.183 -4.33872 2.44253 0
M  V30 2254 C 211.886 -5.41371 4.73613 0
M  V30 2255 C 213.912 -4.71612 3.56842 0
M  V30 2256 C 213.274 -5.24553 4.70131 0
M  V30 2257 H 209.373 -0.773823 0.112792 0
M  V30 2258 H 211.957 -1.74137 0.870885 0
M  V30 2259 H 210.128 -3.85059 -0.508353 0
M  V30 2260 H 211.86 -4.03264 -0.340598 0
M  V30 2261 H 208.615 -4.4444 1.63615 0
M  V30 2262 H 209.039 -5.40689 4.07411 0
M  V30 2263 H 213.681 -3.92208 1.579 0
M  V30 2264 H 211.399 -5.81975 5.60652 0
M  V30 2265 H 214.985 -4.59354 3.57051 0
M  V30 2266 H 213.865 -5.53213 5.5581 0
M  V30 2267 N 211.368 -0.403325 -1.52352 0
M  V30 2268 C 212.614 0.167015 -2.02713 0
M  V30 2269 C 212.969 1.43296 -1.28391 0
M  V30 2270 O 212.262 1.87796 -0.379885 0
M  V30 2271 C 212.456 0.474665 -3.54234 0
M  V30 2272 C 212.285 -0.759909 -4.43233 0
M  V30 2273 C 211.055 -1.28338 -4.88731 0
M  V30 2274 C 213.253 -1.63634 -4.87574 0
M  V30 2275 N 211.235 -2.47404 -5.6184 0
M  V30 2276 C 212.606 -2.67329 -5.59406 0
M  V30 2277 C 214.661 -1.65478 -4.69597 0
M  V30 2278 C 213.364 -3.72773 -6.15169 0
M  V30 2279 C 215.39 -2.69837 -5.26253 0
M  V30 2280 C 214.752 -3.72253 -5.98002 0
M  V30 2281 H 210.851 0.0228343 -0.781667 0
M  V30 2282 H 213.435 -0.556368 -1.86581 0
M  V30 2283 H 211.606 1.16709 -3.7045 0
M  V30 2284 H 213.338 1.03338 -3.91284 0
M  V30 2285 H 210.093 -0.842273 -4.6605 0
M  V30 2286 H 210.517 -3.07688 -6.0304 0
M  V30 2287 H 215.159 -0.876389 -4.13617 0
M  V30 2288 H 212.877 -4.51471 -6.70223 0
M  V30 2289 H 216.463 -2.72164 -5.14216 0
M  V30 2290 H 215.343 -4.51679 -6.41058 0
M  V30 2291 N 212.846 1.57033 -0.133567 0
M  V30 2292 C 213.776 2.1909 0.807567 0
M  V30 2293 C 214.757 1.13517 1.26681 0
M  V30 2294 O 215.942 1.41809 1.32679 0
M  V30 2295 C 213.072 2.80188 2.05212 0
M  V30 2296 C 212.026 3.91471 1.73015 0
M  V30 2297 C 211.352 4.39443 3.04622 0
M  V30 2298 C 212.652 5.12886 0.987168 0
M  V30 2299 H 214.346 2.97988 0.290403 0
M  V30 2300 H 211.892 1.43335 0.138239 0
M  V30 2301 H 213.845 3.22264 2.71521 0
M  V30 2302 H 212.569 1.98601 2.59278 0
M  V30 2303 H 211.228 3.49993 1.0909 0
M  V30 2304 H 210.876 3.54695 3.56651 0
M  V30 2305 H 210.576 5.14495 2.83847 0
M  V30 2306 H 212.1 4.8418 3.72024 0
M  V30 2307 H 213.514 5.51891 1.55208 0
M  V30 2308 H 211.911 5.93615 0.87985 0
M  V30 2309 H 212.981 4.84894 -0.0235286 0
M  V30 2310 N 214.325 -0.140222 1.56975 0
M  V30 2311 C 215.553 -0.866437 1.87884 0
M  V30 2312 C 215.968 -1.74428 0.722517 0
M  V30 2313 O 215.325 -1.79891 -0.30749 0
M  V30 2314 C 215.376 -1.71753 3.18093 0
M  V30 2315 O 215.097 -0.875056 4.29272 0
M  V30 2316 C 216.598 -2.55074 3.62563 0
M  V30 2317 H 213.818 -0.25019 0.622612 0
M  V30 2318 H 216.362 -0.130977 2.0408 0
M  V30 2319 H 214.517 -2.40598 3.03631 0
M  V30 2320 H 214.931 -1.46002 5.03769 0
M  V30 2321 H 216.405 -3.10356 4.5649 0
M  V30 2322 H 216.882 -3.31434 2.88181 0
M  V30 2323 H 217.488 -1.91509 3.79743 0
M  V30 2324 N 215.803 -1.52179 -0.40978 0
M  V30 2325 C 217.031 -1.70054 -1.17853 0
M  V30 2326 C 217.446 -0.409735 -1.843 0
M  V30 2327 O 216.803 0.614183 -1.71855 0
M  V30 2328 C 216.854 -2.83568 -2.24213 0
M  V30 2329 O 216.575 -4.0765 -1.60478 0
M  V30 2330 C 218.076 -3.12947 -3.13973 0
M  V30 2331 H 215.296 -0.569917 -0.354169 0
M  V30 2332 H 217.84 -1.98734 -0.482198 0
M  V30 2333 H 215.995 -2.57409 -2.89516 0
M  V30 2334 H 216.409 -4.70899 -2.30986 0
M  V30 2335 H 217.883 -3.95889 -3.84677 0
M  V30 2336 H 218.36 -2.26472 -3.76307 0
M  V30 2337 H 218.966 -3.40868 -2.5434 0
M  V30 2338 N 217.281 0.66697 -1.42791 0
M  V30 2339 C 218.53 1.42278 -1.42968 0
M  V30 2340 C 218.843 1.9553 -0.0524489 0
M  V30 2341 O 220.049 2.71414 0.068363 0
M  V30 2342 C 218.505 2.57418 -2.51524 0
M  V30 2343 C 218.113 2.10832 -3.9529 0
M  V30 2344 C 219.857 3.34878 -2.60877 0
M  V30 2345 C 217.764 3.23101 -4.95338 0
M  V30 2346 H 216.694 0.534533 -0.531781 0
M  V30 2347 H 219.345 0.721302 -1.68729 0
M  V30 2348 H 217.727 3.29971 -2.18941 0
M  V30 2349 H 218.901 1.4538 -4.37266 0
M  V30 2350 H 217.216 1.46289 -3.89857 0
M  V30 2351 H 219.813 4.18505 -3.32802 0
M  V30 2352 H 220.156 3.81993 -1.6549 0
M  V30 2353 H 220.689 2.69398 -2.92693 0
M  V30 2354 H 217.428 2.80969 -5.9223 0
M  V30 2355 H 216.948 3.87309 -4.57987 0
M  V30 2356 H 218.627 3.88447 -5.17415 0
M  V30 2357 N 218.759 1.29093 0.90403 0
M  V30 2358 C 219.984 1.19809 1.69294 0
M  V30 2359 C 220.409 -0.238481 1.86582 0
M  V30 2360 O 219.767 -1.1723 1.383 0
M  V30 2361 C 219.815 1.91202 3.05736 0
M  V30 2362 O 218.919 1.22611 3.93752 0
M  V30 2363 H 218.26 0.415385 0.518027 0
M  V30 2364 H 220.79 1.70586 1.12967 0
M  V30 2365 H 220.8 1.99487 3.55906 0
M  V30 2366 H 219.475 2.95692 2.92471 0
M  V30 2367 H 218.052 1.22554 3.52186 0
M  V30 2368 N 220.237 -1.11381 1.11499 0
M  V30 2369 C 221.465 -1.86934 0.88675 0
M  V30 2370 C 221.88 -1.80195 -0.563476 0
M  V30 2371 O 221.237 -1.18367 -1.38908 0
M  V30 2372 C 221.288 -3.35722 1.34064 0
M  V30 2373 O 221.009 -3.4232 2.73401 0
M  V30 2374 C 222.51 -4.2818 1.14791 0
M  V30 2375 H 219.73 -0.591117 0.317523 0
M  V30 2376 H 222.274 -1.40865 1.48248 0
M  V30 2377 H 220.429 -3.79294 0.788355 0
M  V30 2378 H 220.843 -4.34971 2.93087 0
M  V30 2379 H 222.317 -5.30817 1.5145 0
M  V30 2380 H 222.794 -4.39113 0.0875279 0
M  V30 2381 H 223.4 -3.90402 1.68721 0
M  V30 2382 N 221.715 -0.905404 -1.28997 0
M  V30 2383 C 222.992 -0.453513 -1.9027 0
M  V30 2384 C 223.372 1.06721 -1.82137 0
M  V30 2385 O 222.72 1.91159 -1.25182 0
M  V30 2386 C 222.93 -0.974494 -3.35119 0
M  V30 2387 C 224.278 -1.0216 -4.12127 0
M  V30 2388 O 225.302 -0.922557 -3.44046 0
M  V30 2389 O 224.161 -1.17121 -5.33802 0
M  V30 2390 H 221.255 -0.142347 -0.814657 0
M  V30 2391 H 223.801 -0.995642 -1.37423 0
M  V30 2392 H 222.573 -2.01848 -3.35221 0
M  V30 2393 H 222.196 -0.412706 -3.95452 0
M  V30 2394 N 223.193 1.4272 -0.668489 0
M  V30 2395 C 224.123 2.335 -0.000100175 0
M  V30 2396 C 225.104 1.50328 0.795964 0
M  V30 2397 O 226.289 1.78949 0.754385 0
M  V30 2398 C 223.419 3.33874 0.956302 0
M  V30 2399 C 222.373 4.27152 0.269278 0
M  V30 2400 C 221.699 5.17684 1.33818 0
M  V30 2401 C 222.999 5.15373 -0.847805 0
M  V30 2402 H 224.693 2.89639 -0.758244 0
M  V30 2403 H 222.239 1.39269 -0.366079 0
M  V30 2404 H 224.192 3.9629 1.43292 0
M  V30 2405 H 222.916 2.76025 1.74579 0
M  V30 2406 H 221.575 3.66123 -0.187042 0
M  V30 2407 H 221.223 4.56165 2.1195 0
M  V30 2408 H 220.923 5.80918 0.883659 0
M  V30 2409 H 222.447 5.82974 1.81586 0
M  V30 2410 H 223.861 5.7151 -0.452681 0
M  V30 2411 H 222.258 5.87407 -1.22773 0
M  V30 2412 H 223.328 4.5415 -1.69929 0
M  V30 2413 N 224.671 0.411399 1.52136 0
M  V30 2414 C 225.899 -0.163076 2.06256 0
M  V30 2415 C 226.314 -1.3867 1.28125 0
M  V30 2416 O 225.671 -1.79423 0.333721 0
M  V30 2417 C 225.722 -0.511252 3.57867 0
M  V30 2418 O 225.443 0.66378 4.33042 0
M  V30 2419 C 226.944 -1.13921 4.28412 0
M  V30 2420 H 224.164 -0.0193897 0.67072 0
M  V30 2421 H 226.708 0.583007 1.96013 0
M  V30 2422 H 224.863 -1.20723 3.6811 0
M  V30 2423 H 225.277 0.372601 5.23175 0
M  V30 2424 H 226.751 -1.33302 5.35663 0
M  V30 2425 H 227.228 -2.11296 3.85033 0
M  V30 2426 H 227.834 -0.483373 4.22544 0
M  V30 2427 N 226.149 -1.5696 0.141893 0
M  V30 2428 C 227.396 -1.9596 -0.510492 0
M  V30 2429 C 227.724 -1.02648 -1.65208 0
M  V30 2430 O 226.979 -0.0546947 -1.95624 0
M  V30 2431 C 227.278 -3.41242 -1.06249 0
M  V30 2432 C 226.944 -4.50882 -0.0398791 0
M  V30 2433 C 225.606 -4.80595 0.241247 0
M  V30 2434 C 227.958 -5.17058 0.65578 0
M  V30 2435 C 225.286 -5.73792 1.22393 0
M  V30 2436 C 227.638 -6.11313 1.62724 0
M  V30 2437 C 226.302 -6.39407 1.91612 0
M  V30 2438 H 225.572 -0.717068 -0.186802 0
M  V30 2439 H 228.219 -1.90142 0.227643 0
M  V30 2440 H 226.524 -3.43866 -1.87785 0
M  V30 2441 H 228.221 -3.68742 -1.57576 0
M  V30 2442 H 224.811 -4.27754 -0.269174 0
M  V30 2443 H 228.995 -4.94239 0.451779 0
M  V30 2444 H 224.251 -5.93853 1.45424 0
M  V30 2445 H 228.425 -6.61668 2.17183 0
M  V30 2446 H 226.052 -7.11427 2.6791 0
M  V30 2447 N 227.627 0.131896 -1.57047 0
M  V30 2448 C 228.852 0.860418 -1.8871 0
M  V30 2449 C 229.277 1.73251 -0.73251 0
M  V30 2450 O 228.635 1.785 0.317429 0
M  V30 2451 C 228.683 1.68047 -3.19049 0
M  V30 2452 O 227.787 2.7862 -3.04047 0
M  V30 2453 H 227.128 0.238743 -0.619595 0
M  V30 2454 H 229.658 0.118169 -2.04258 0
M  V30 2455 H 229.668 2.07238 -3.51449 0
M  V30 2456 H 228.343 1.04018 -4.02682 0
M  V30 2457 H 226.92 2.42726 -2.83088 0
M  V30 2458 N 229.106 1.52395 0.401703 0
M  V30 2459 C 230.352 1.67065 1.14966 0
M  V30 2460 C 230.685 0.403052 1.89971 0
M  V30 2461 O 229.96 -0.598774 1.85054 0
M  V30 2462 C 230.243 2.8975 2.13815 0
M  V30 2463 C 230.096 4.26578 1.42658 0
M  V30 2464 C 231.415 3.07965 3.14397 0
M  V30 2465 H 228.534 0.607968 0.416587 0
M  V30 2466 H 231.176 1.84965 0.434511 0
M  V30 2467 H 229.326 2.74619 2.74803 0
M  V30 2468 H 230.998 4.53451 0.847329 0
M  V30 2469 H 229.241 4.27639 0.72849 0
M  V30 2470 H 229.912 5.08483 2.14823 0
M  V30 2471 H 232.388 3.22043 2.63491 0
M  V30 2472 H 231.264 3.95308 3.80819 0
M  V30 2473 H 231.525 2.21611 3.82545 0
M  V30 2474 N 230.584 -0.659388 1.43143 0
M  V30 2475 C 231.531 -1.77249 1.47822 0
M  V30 2476 C 232.501 -1.62818 0.328558 0
M  V30 2477 O 233.686 -1.83151 0.534838 0
M  V30 2478 C 230.826 -3.15371 1.40126 0
M  V30 2479 C 229.939 -3.4098 2.65249 0
M  V30 2480 C 229.074 -4.68915 2.49584 0
M  V30 2481 C 228.113 -4.87608 3.70006 0
M  V30 2482 N 227.25 -6.06796 3.53189 0
M  V30 2483 H 232.09 -1.72584 2.42938 0
M  V30 2484 H 229.627 -0.842297 1.20598 0
M  V30 2485 H 231.585 -3.9521 1.33659 0
M  V30 2486 H 230.215 -3.19121 0.485964 0
M  V30 2487 H 229.267 -2.55282 2.8202 0
M  V30 2488 H 230.579 -3.50681 3.54717 0
M  V30 2489 H 229.733 -5.56871 2.4079 0
M  V30 2490 H 228.472 -4.61524 1.5763 0
M  V30 2491 H 227.477 -3.9809 3.79215 0
M  V30 2492 H 228.702 -4.96834 4.62961 0
M  V30 2493 H 226.648 -6.00549 2.63965 0
M  V30 2494 H 226.565 -6.17428 4.36255 0
M  V30 2495 H 227.833 -6.9739 3.48236 0
M  V30 2496 N 232.062 -1.29571 -0.897171 0
M  V30 2497 C 233.287 -1.20705 -1.68656 0
M  V30 2498 C 233.712 0.228582 -1.86706 0
M  V30 2499 O 233.07 1.16494 -1.3892 0
M  V30 2500 C 233.118 -1.9282 -3.04717 0
M  V30 2501 O 232.222 -1.24697 -3.93096 0
M  V30 2502 H 231.563 -0.418126 -0.515816 0
M  V30 2503 H 234.093 -1.71183 -1.12061 0
M  V30 2504 H 234.103 -2.01372 -3.54843 0
M  V30 2505 H 232.778 -2.97239 -2.90899 0
M  V30 2506 H 231.355 -1.2442 -3.51531 0
M  V30 2507 N 233.54 1.10788 -1.12088 0
M  V30 2508 C 234.765 1.87002 -0.896949 0
M  V30 2509 C 235.19 1.79933 0.548261 0
M  V30 2510 O 234.548 1.16662 1.38779 0
M  V30 2511 C 234.596 3.3349 -1.37174 0
M  V30 2512 O 233.7 4.08745 -0.547831 0
M  V30 2513 H 233.041 0.580397 -0.322545 0
M  V30 2514 H 235.571 1.39996 -1.49206 0
M  V30 2515 H 235.581 3.84339 -1.36922 0
M  V30 2516 H 234.256 3.37951 -2.42408 0
M  V30 2517 H 232.833 3.6776 -0.617034 0
M  V30 2518 N 235.018 0.912232 1.28515 0
M  V30 2519 C 236.434 0.610159 1.47476 0
M  V30 2520 C 236.634 -0.844955 1.82928 0
M  V30 2521 O 235.69 -1.62416 1.93332 0
M  V30 2522 C 237.003 1.54675 2.57868 0
M  V30 2523 C 238.551 1.55331 2.71738 0
M  V30 2524 C 239.026 2.47649 3.85272 0
M  V30 2525 N 240.517 2.45767 3.92623 0
M  V30 2526 C 241.252 3.13896 4.79851 0
M  V30 2527 N 240.748 3.9135 5.71679 0
M  V30 2528 N 242.541 3.02991 4.73448 0
M  V30 2529 H 234.692 1.85318 1.03783 0
M  V30 2530 H 236.955 0.794777 0.516753 0
M  V30 2531 H 236.661 2.5841 2.38574 0
M  V30 2532 H 236.535 1.27671 3.54937 0
M  V30 2533 H 238.922 0.52335 2.90422 0
M  V30 2534 H 239.003 1.86378 1.75205 0
M  V30 2535 H 238.647 3.50745 3.67342 0
M  V30 2536 H 238.577 2.13904 4.81199 0
M  V30 2537 H 241.068 1.89503 3.26951 0
M  V30 2538 H 241.381 4.40359 6.35062 0
M  V30 2539 H 239.726 3.95455 5.71524 0
M  V30 2540 H 242.917 2.41987 4.007 0
M  V30 2541 H 243.09 3.5636 5.41213 0
M  V30 2542 N 236.496 -1.42363 0.676048 0
M  V30 2543 C 237.744 -2.01123 0.198437 0
M  V30 2544 C 238.065 -1.53731 -1.19966 0
M  V30 2545 O 237.335 -0.759518 -1.80577 0
M  V30 2546 H 235.915 -0.743678 0.0703721 0
M  V30 2547 H 238.577 -1.74263 0.872837 0
M  V30 2548 H 237.673 -3.11454 0.200686 0
M  V30 2549 N 237.974 -0.419461 -1.51915 0
M  V30 2550 C 239.199 0.154572 -2.06823 0
M  V30 2551 C 239.624 1.3722 -1.28656 0
M  V30 2552 O 238.982 1.78461 -0.319583 0
M  V30 2553 C 239.03 0.473172 -3.57482 0
M  V30 2554 O 238.134 1.56255 -3.81652 0
M  V30 2555 H 237.475 0.0096924 -0.663929 0
M  V30 2556 H 240.005 -0.595642 -1.95738 0
M  V30 2557 H 240.015 0.728825 -4.01438 0
M  V30 2558 H 238.69 -0.416873 -4.13805 0
M  V30 2559 H 237.267 1.29825 -3.49571 0
M  V30 2560 N 239.452 1.56882 -0.150215 0
M  V30 2561 C 240.677 2.01027 0.510184 0
M  V30 2562 C 241.102 1.02966 1.57415 0
M  V30 2563 O 240.46 0.00590158 1.81299 0
M  V30 2564 C 240.508 3.43899 1.08472 0
M  V30 2565 O 239.612 3.4885 2.19948 0
M  V30 2566 H 238.953 0.652233 0.124451 0
M  V30 2567 H 241.483 2.03093 -0.247894 0
M  V30 2568 H 241.493 3.82766 1.41259 0
M  V30 2569 H 240.168 4.14776 0.305582 0
M  V30 2570 H 238.745 3.21827 1.88366 0
M  V30 2571 N 240.93 -0.123565 1.57115 0
M  V30 2572 C 242.207 -0.862196 1.75572 0
M  V30 2573 C 242.587 -1.98279 0.724475 0
M  V30 2574 O 241.935 -2.27102 -0.252407 0
M  V30 2575 C 242.145 -1.38309 3.20424 0
M  V30 2576 C 243.493 -1.83724 3.82793 0
M  V30 2577 O 244.517 -1.47999 3.23998 0
M  V30 2578 O 243.376 -2.49685 4.86127 0
M  V30 2579 H 240.47 -0.409113 0.718718 0
M  V30 2580 H 243.016 -0.107661 1.69358 0
M  V30 2581 H 241.788 -0.578889 3.86994 0
M  V30 2582 H 241.411 -2.20046 3.31158 0
M  V30 2583 N 242.408 -1.52605 -0.393616 0
M  V30 2584 C 243.819 -1.59417 -0.971761 0
M  V30 2585 C 244.17 -0.444173 -1.91106 0
M  V30 2586 O 243.295 0.433382 -2.12016 0
M  V30 2587 C 243.89 -2.88936 -1.76921 0
M  V30 2588 C 242.449 -2.98175 -2.29714 0
M  V30 2589 C 241.596 -2.54491 -1.10135 0
M  V30 2590 H 244.547 -1.57751 -0.173317 0
M  V30 2591 H 244.568 -2.75163 -2.62804 0
M  V30 2592 H 244.08 -3.72616 -1.08532 0
M  V30 2593 H 242.181 -2.19024 -3.01429 0
M  V30 2594 H 242.294 -4.02726 -2.59517 0
M  V30 2595 H 240.658 -2.08702 -1.45999 0
M  V30 2596 H 241.441 -3.4056 -0.432874 0
M  V30 2597 N 243.887 0.651787 -1.4349 0
M  V30 2598 C 244.819 1.77725 -1.44729 0
M  V30 2599 C 245.832 1.59141 -0.343231 0
M  V30 2600 O 247.021 1.67835 -0.607751 0
M  V30 2601 C 244.121 3.15172 -1.24579 0
M  V30 2602 C 243.294 3.60402 -2.47849 0
M  V30 2603 C 242.353 4.76656 -2.22902 0
M  V30 2604 O 241.379 4.86022 -2.96263 0
M  V30 2605 N 242.581 5.66958 -1.24656 0
M  V30 2606 H 245.346 1.77141 -2.41746 0
M  V30 2607 H 242.907 0.835678 -1.38665 0
M  V30 2608 H 244.899 3.90634 -1.0577 0
M  V30 2609 H 243.469 3.1052 -0.360015 0
M  V30 2610 H 242.689 2.75369 -2.82073 0
M  V30 2611 H 243.977 3.87368 -3.29884 0
M  V30 2612 H 243.375 5.62065 -0.640265 0
M  V30 2613 H 241.932 6.42135 -1.1183 0
M  V30 2614 N 245.365 1.30045 0.890287 0
M  V30 2615 C 246.613 1.18327 1.63839 0
M  V30 2616 C 246.934 -0.263455 1.93212 0
M  V30 2617 O 246.204 -1.17856 1.56482 0
M  V30 2618 H 244.784 0.434933 0.607324 0
M  V30 2619 H 247.446 1.631 1.06698 0
M  V30 2620 H 246.542 1.74024 2.59079 0
M  V30 2621 N 246.843 -1.10192 1.12674 0
M  V30 2622 C 248.089 -1.82475 0.884915 0
M  V30 2623 C 248.422 -1.85093 -0.58773 0
M  V30 2624 O 247.697 -1.3134 -1.43457 0
M  V30 2625 C 247.98 -3.29018 1.46353 0
M  V30 2626 C 247.833 -3.34718 3.00473 0
M  V30 2627 C 249.152 -4.25473 1.12519 0
M  V30 2628 H 246.271 -0.662492 0.322915 0
M  V30 2629 H 248.913 -1.2913 1.39375 0
M  V30 2630 H 247.063 -3.74576 1.03077 0
M  V30 2631 H 248.735 -2.97622 3.52447 0
M  V30 2632 H 246.978 -2.74541 3.35872 0
M  V30 2633 H 247.649 -4.37918 3.36053 0
M  V30 2634 H 250.125 -3.88161 1.499 0
M  V30 2635 H 249.001 -5.26365 1.55663 0
M  V30 2636 H 249.262 -4.42084 0.0377407 0
M  V30 2637 N 248.321 -0.919034 -1.28029 0
M  V30 2638 C 249.549 -0.570971 -1.98866 0
M  V30 2639 C 249.964 0.848996 -1.68634 0
M  V30 2640 O 249.321 1.56307 -0.942036 0
M  V30 2641 C 249.372 -0.776876 -3.53054 0
M  V30 2642 O 249.093 -2.14097 -3.82222 0
M  V30 2643 C 250.594 -0.436356 -4.41147 0
M  V30 2644 H 247.814 -0.217175 -0.634883 0
M  V30 2645 H 250.358 -1.23368 -1.63097 0
M  V30 2646 H 248.513 -0.161085 -3.87065 0
M  V30 2647 H 248.927 -2.18455 -4.76841 0
M  V30 2648 H 250.401 -0.63117 -5.4838 0
M  V30 2649 H 250.878 0.627686 -4.34692 0
M  V30 2650 H 251.484 -1.02991 -4.12641 0
M  V30 2651 N 249.799 1.42003 -0.683588 0
M  V30 2652 C 251.039 2.03282 -0.213513 0
M  V30 2653 C 251.403 1.52924 1.16097 0
M  V30 2654 O 252.604 2.06048 1.7262 0
M  V30 2655 C 250.875 3.56483 -0.255856 0
M  V30 2656 S 252.434 4.3857 0.14193 0
M  V30 2657 H 249.252 0.705659 -0.0869853 0
M  V30 2658 H 251.854 1.73619 -0.8987 0
M  V30 2659 H 250.558 3.90631 -1.25841 0
M  V30 2660 H 250.089 3.90831 0.448875 0
M  V30 2661 H 252.104 4.76828 1.37295 0
M  V30 2662 N 251.277 0.427512 1.51691 0
M  V30 2663 C 252.525 -0.141948 2.01601 0
M  V30 2664 C 252.846 -1.44067 1.31414 0
M  V30 2665 O 252.116 -1.90763 0.445658 0
M  V30 2666 H 250.696 -0.0554468 0.744939 0
M  V30 2667 H 253.358 0.567968 1.86441 0
M  V30 2668 H 252.454 -0.324913 3.10404 0
M  V30 2669 N 252.755 -1.56801 0.158532 0
M  V30 2670 C 253.718 -2.16138 -0.762705 0
M  V30 2671 C 254.718 -1.1061 -1.16713 0
M  V30 2672 O 255.908 -1.36191 -1.08617 0
M  V30 2673 C 253.04 -2.73386 -2.03649 0
M  V30 2674 H 254.233 -2.98886 -0.246354 0
M  V30 2675 H 251.786 -1.56035 -0.0909744 0
M  V30 2676 H 252.521 -1.94335 -2.59623 0
M  V30 2677 H 252.306 -3.50601 -1.75559 0
M  V30 2678 H 253.796 -3.19065 -2.6942 0
M  V30 2679 N 254.233 0.115231 -1.57178 0
M  V30 2680 C 255.196 1.12526 -1.99676 0
M  V30 2681 C 256.196 1.34095 -0.88742 0
M  V30 2682 O 257.386 1.30548 -1.15337 0
M  V30 2683 C 254.518 2.4789 -2.34015 0
M  V30 2684 H 255.711 0.759912 -2.90113 0
M  V30 2685 H 253.264 0.359648 -1.52106 0
M  V30 2686 H 253.999 2.89339 -1.4647 0
M  V30 2687 H 253.784 2.33588 -3.14927 0
M  V30 2688 H 255.274 3.20575 -2.67622 0
M  V30 2689 N 255.711 1.52812 0.385517 0
M  V30 2690 C 256.939 1.71907 1.15133 0
M  V30 2691 C 257.354 0.439004 1.83625 0
M  V30 2692 O 256.711 -0.586765 1.7281 0
M  V30 2693 C 256.762 2.87099 2.19673 0
M  V30 2694 O 256.483 4.10151 1.53973 0
M  V30 2695 C 257.984 3.17902 3.08955 0
M  V30 2696 H 255.204 0.575479 0.345057 0
M  V30 2697 H 257.748 1.99476 0.45052 0
M  V30 2698 H 255.903 2.61982 2.85384 0
M  V30 2699 H 256.317 4.74514 2.23465 0
M  V30 2700 H 257.791 4.01959 3.7833 0
M  V30 2701 H 258.268 2.3243 3.72657 0
M  V30 2702 H 258.874 3.44871 2.48885 0
M  V30 2703 N 257.189 -0.644168 1.43834 0
M  V30 2704 C 258.119 -1.76814 1.52509 0
M  V30 2705 C 259.1 -1.65823 0.379052 0
M  V30 2706 O 260.285 -1.84781 0.597466 0
M  V30 2707 C 257.415 -3.15288 1.4564 0
M  V30 2708 C 256.369 -3.41053 2.58586 0
M  V30 2709 C 255.695 -4.79421 2.36769 0
M  V30 2710 C 256.995 -3.34902 4.00797 0
M  V30 2711 H 258.689 -1.69812 2.46586 0
M  V30 2712 H 256.235 -0.815542 1.1868 0
M  V30 2713 H 258.188 -3.93681 1.50311 0
M  V30 2714 H 256.912 -3.23043 0.480725 0
M  V30 2715 H 255.571 -2.65035 2.53282 0
M  V30 2716 H 255.219 -4.83863 1.37424 0
M  V30 2717 H 254.919 -4.9762 3.12487 0
M  V30 2718 H 256.443 -5.6006 2.43238 0
M  V30 2719 H 257.857 -4.03218 4.07539 0
M  V30 2720 H 256.254 -3.64637 4.76613 0
M  V30 2721 H 257.324 -2.32928 4.25291 0
M  V30 2722 N 258.668 -1.30515 -0.883378 0
M  V30 2723 C 259.893 -1.22487 -1.67367 0
M  V30 2724 C 260.318 0.208767 -1.86938 0
M  V30 2725 O 259.676 1.15015 -1.40148 0
M  V30 2726 C 259.724 -1.96041 -3.02655 0
M  V30 2727 O 258.828 -1.28859 -3.91751 0
M  V30 2728 H 258.169 -0.423573 -0.511353 0
M  V30 2729 H 260.699 -1.72362 -1.10239 0
M  V30 2730 H 260.709 -2.05124 -3.52687 0
M  V30 2731 H 259.384 -3.00307 -2.8773 0
M  V30 2732 H 257.961 -1.28141 -3.50192 0
M  V30 2733 N 260.146 1.09593 -1.13257 0
M  V30 2734 C 261.109 2.14359 -0.811358 0
M  V30 2735 C 262.109 1.59808 0.178377 0
M  V30 2736 O 263.299 1.74132 -0.0484911 0
M  V30 2737 C 260.431 3.40269 -0.207276 0
M  V30 2738 H 261.624 2.44284 -1.73969 0
M  V30 2739 H 259.177 1.25102 -0.936973 0
M  V30 2740 H 259.912 3.15969 0.73036 0
M  V30 2741 H 259.697 3.81154 -0.919992 0
M  V30 2742 H 261.187 4.176 0.000667944 0
M  V30 2743 N 261.624 0.925811 1.2754 0
M  V30 2744 C 262.534 0.428993 2.30644 0
M  V30 2745 C 263.55 -0.489387 1.66976 0
M  V30 2746 O 264.726 -0.372653 1.97922 0
M  V30 2747 C 261.791 -0.311967 3.45294 0
M  V30 2748 C 260.852 0.641098 4.24486 0
M  V30 2749 C 260.085 -0.0645955 5.33661 0
M  V30 2750 O 260.308 -1.28429 5.55754 0
M  V30 2751 O 259.242 0.606265 5.98839 0
M  V30 2752 H 263.068 1.28504 2.75173 0
M  V30 2753 H 260.653 0.691086 1.32455 0
M  V30 2754 H 262.535 -0.729972 4.15029 0
M  V30 2755 H 261.21 -1.14365 3.02824 0
M  V30 2756 H 260.117 1.10874 3.57292 0
M  V30 2757 H 261.45 1.43995 4.70666 0
M  V30 2758 N 263.102 -1.41638 0.69111 0
M  V30 2759 C 264.518 -1.55435 0.362224 0
M  V30 2760 C 264.718 -1.66754 -1.13117 0
M  V30 2761 O 263.774 -1.64348 -1.91692 0
M  V30 2762 C 265.087 -2.79588 1.10684 0
M  V30 2763 C 266.635 -2.9338 1.09075 0
M  V30 2764 C 267.11 -4.20414 1.81703 0
M  V30 2765 N 268.601 -4.27362 1.7865 0
M  V30 2766 C 269.336 -5.24507 2.31689 0
M  V30 2767 N 268.832 -6.27708 2.93179 0
M  V30 2768 N 270.625 -5.16416 2.2197 0
M  V30 2769 H 262.776 -1.32536 1.65976 0
M  V30 2770 H 265.039 -0.639115 0.700168 0
M  V30 2771 H 264.745 -2.77419 2.16175 0
M  V30 2772 H 264.619 -3.70973 0.682545 0
M  V30 2773 H 267.006 -2.95067 0.0441238 0
M  V30 2774 H 267.087 -2.0318 1.55407 0
M  V30 2775 H 266.731 -4.19488 2.86343 0
M  V30 2776 H 266.661 -5.09578 1.32808 0
M  V30 2777 H 269.152 -3.53415 1.33815 0
M  V30 2778 H 269.465 -6.98217 3.31229 0
M  V30 2779 H 267.81 -6.28223 2.97255 0
M  V30 2780 H 271.001 -4.34716 1.73607 0
M  V30 2781 H 271.174 -5.91958 2.63609 0
M  V30 2782 N 264.58 -0.43555 -1.51462 0
M  V30 2783 C 265.826 0.131709 -2.02372 0
M  V30 2784 C 266.159 1.42516 -1.3192 0
M  V30 2785 O 265.434 1.89606 -0.433573 0
M  V30 2786 C 265.717 0.352301 -3.58373 0
M  V30 2787 C 265.57 -0.959676 -4.39443 0
M  V30 2788 C 266.889 1.12286 -4.25535 0
M  V30 2789 H 264.008 0.0463936 -0.735538 0
M  V30 2790 H 266.65 -0.574197 -1.81116 0
M  V30 2791 H 264.8 0.9536 -3.76615 0
M  V30 2792 H 266.472 -1.59482 -4.32855 0
M  V30 2793 H 264.715 -1.56468 -4.04599 0
M  V30 2794 H 265.386 -0.759394 -5.46752 0
M  V30 2795 H 267.862 0.613545 -4.11552 0
M  V30 2796 H 266.738 1.24598 -5.34571 0
M  V30 2797 H 266.999 2.15048 -3.86273 0
M  V30 2798 N 266.058 1.56714 -0.166846 0
M  V30 2799 C 267.474 1.58473 0.189372 0
M  V30 2800 C 267.674 1.18201 1.63189 0
M  V30 2801 O 266.73 0.891528 2.36237 0
M  V30 2802 C 268.043 3.00573 -0.0873872 0
M  V30 2803 C 269.591 3.1299 -0.0252443 0
M  V30 2804 C 270.066 4.57174 -0.274934 0
M  V30 2805 N 271.557 4.62665 -0.222553 0
M  V30 2806 C 272.292 5.72072 -0.389985 0
M  V30 2807 N 271.788 6.90054 -0.616229 0
M  V30 2808 N 273.581 5.61153 -0.326202 0
M  V30 2809 H 265.732 1.8118 -1.10849 0
M  V30 2810 H 267.995 0.839525 -0.440342 0
M  V30 2811 H 267.701 3.34497 -1.0865 0
M  V30 2812 H 267.575 3.72019 0.623037 0
M  V30 2813 H 269.962 2.78895 0.96444 0
M  V30 2814 H 270.043 2.43989 -0.768309 0
M  V30 2815 H 269.687 4.91976 -1.26181 0
M  V30 2816 H 269.617 5.24328 0.48869 0
M  V30 2817 H 272.108 3.77863 -0.0531512 0
M  V30 2818 H 272.421 7.69311 -0.733559 0
M  V30 2819 H 270.766 6.91927 -0.652791 0
M  V30 2820 H 273.957 4.67859 -0.150072 0
M  V30 2821 H 274.13 6.46364 -0.460116 0
M  V30 2822 N 267.536 -0.106894 1.57237 0
M  V30 2823 C 268.784 -0.810921 1.85117 0
M  V30 2824 C 269.105 -1.7984 0.753827 0
M  V30 2825 O 268.375 -1.94649 -0.221056 0
M  V30 2826 H 266.955 -0.302466 0.683025 0
M  V30 2827 H 269.617 -0.0913324 1.94686 0
M  V30 2828 H 268.713 -1.34875 2.81452 0
M  V30 2829 N 269.014 -1.53014 -0.377408 0
M  V30 2830 C 270.291 -1.59215 -1.13622 0
M  V30 2831 C 270.671 -0.392407 -2.07421 0
M  V30 2832 O 270.019 0.618342 -2.19975 0
M  V30 2833 C 270.229 -2.93669 -1.88573 0
M  V30 2834 C 271.577 -3.47822 -2.43526 0
M  V30 2835 O 272.601 -2.9562 -1.98715 0
M  V30 2836 O 271.46 -4.39055 -3.25412 0
M  V30 2837 H 268.554 -0.642625 -0.52054 0
M  V30 2838 H 271.1 -1.65353 -0.381625 0
M  V30 2839 H 269.872 -3.7243 -1.20048 0
M  V30 2840 H 269.495 -2.90968 -2.70968 0
M  V30 2841 N 270.492 0.636531 -1.44174 0
M  V30 2842 C 271.44 1.76995 -1.50915 0
M  V30 2843 C 272.434 1.65053 -0.381295 0
M  V30 2844 O 273.64 1.71197 -0.55601 0
M  V30 2845 H 270.015 0.584247 -0.473455 0
M  V30 2846 H 271.986 1.68432 -2.4632 0
M  V30 2847 C 270.735 3.15314 -1.46534 0
M  V30 2848 H 270.058 3.25149 -2.32633 0
M  V30 2849 H 271.498 3.9453 -1.55312 0
M  V30 2850 C 269.957 3.3639 -0.185305 0
M  V30 2851 O 270.487 3.94699 0.746688 0
M  V30 2852 N 268.693 2.9046 -0.0901606 0
M  V30 2853 H 268.24 2.43193 -0.849416 0
M  V30 2854 H 268.198 3.04937 0.765553 0
M  V30 2855 N 271.97 1.30982 0.876444 0
M  V30 2856 C 272.917 1.18085 1.98304 0
M  V30 2857 C 273.887 0.0682263 1.6596 0
M  V30 2858 O 275.072 0.239937 1.89285 0
M  V30 2859 C 272.212 0.887475 3.33493 0
M  V30 2860 C 271.325 2.08281 3.78475 0
M  V30 2861 C 270.46 1.72678 5.0235 0
M  V30 2862 C 269.499 2.88657 5.39762 0
M  V30 2863 N 268.636 2.53292 6.54819 0
M  V30 2864 H 273.476 2.1275 2.08666 0
M  V30 2865 H 271.013 1.05839 1.02159 0
M  V30 2866 H 272.971 0.697961 4.1132 0
M  V30 2867 H 271.601 -0.022315 3.22792 0
M  V30 2868 H 270.653 2.3833 2.96484 0
M  V30 2869 H 271.965 2.95108 4.02135 0
M  V30 2870 H 271.119 1.50151 5.87826 0
M  V30 2871 H 269.858 0.830327 4.8058 0
M  V30 2872 H 268.863 3.1184 4.52809 0
M  V30 2873 H 270.088 3.79002 5.63502 0
M  V30 2874 H 268.034 1.66163 6.34607 0
M  V30 2875 H 267.951 3.3365 6.7839 0
M  V30 2876 H 269.219 2.34143 7.43503 0
M  V30 2877 N 273.449 -1.08991 1.13837 0
M  V30 2878 C 274.359 -2.19301 0.833333 0
M  V30 2879 C 275.375 -1.73026 -0.183847 0
M  V30 2880 O 276.551 -2.01395 -0.0138092 0
M  V30 2881 C 273.616 -3.45323 0.308651 0
M  V30 2882 C 272.677 -4.06255 1.38764 0
M  V30 2883 C 271.91 -5.26262 0.887896 0
M  V30 2884 O 272.133 -5.69747 -0.27287 0
M  V30 2885 O 271.067 -5.78435 1.66421 0
M  V30 2886 H 274.893 -2.47854 1.75506 0
M  V30 2887 H 272.478 -1.18012 0.916166 0
M  V30 2888 H 274.36 -4.21394 0.0216739 0
M  V30 2889 H 273.035 -3.18362 -0.585431 0
M  V30 2890 H 271.942 -3.318 1.72799 0
M  V30 2891 H 273.275 -4.37452 2.25602 0
M  V30 2892 N 274.927 -0.932562 -1.27047 0
M  V30 2893 C 276.157 -0.591173 -1.97961 0
M  V30 2894 C 276.565 0.836219 -1.69717 0
M  V30 2895 O 275.908 1.56801 -0.957036 0
M  V30 2896 C 275.97 -0.743082 -3.51736 0
M  V30 2897 C 275.634 -2.1435 -4.03613 0
M  V30 2898 C 276.631 -3.11815 -4.16014 0
M  V30 2899 C 274.316 -2.46175 -4.37839 0
M  V30 2900 C 276.31 -4.39211 -4.61923 0
M  V30 2901 C 273.997 -3.73806 -4.83438 0
M  V30 2902 C 274.995 -4.70137 -4.95439 0
M  V30 2903 O 274.683 -5.95496 -5.40037 0
M  V30 2904 H 274.415 -0.222375 -0.638377 0
M  V30 2905 H 276.969 -1.25317 -1.62742 0
M  V30 2906 H 275.199 -0.0239739 -3.86693 0
M  V30 2907 H 276.888 -0.40603 -4.03864 0
M  V30 2908 H 277.654 -2.88549 -3.89826 0
M  V30 2909 H 273.533 -1.71936 -4.27737 0
M  V30 2910 H 277.077 -5.14404 -4.71205 0
M  V30 2911 H 272.974 -3.96888 -5.09068 0
M  V30 2912 H 273.742 -5.98554 -5.58279 0
M  V30 2913 N 276.405 1.4127 -0.698611 0
M  V30 2914 C 277.315 2.34573 -0.0357891 0
M  V30 2915 C 278.331 1.56393 0.762701 0
M  V30 2916 O 279.507 1.8886 0.699564 0
M  V30 2917 C 276.572 3.35159 0.887089 0
M  V30 2918 C 275.633 4.29225 0.0804634 0
M  V30 2919 C 274.866 5.25006 0.959387 0
M  V30 2920 O 275.089 5.26314 2.19886 0
M  V30 2921 O 274.023 6.00519 0.407439 0
M  V30 2922 H 277.849 2.92838 -0.804957 0
M  V30 2923 H 275.434 1.42175 -0.458966 0
M  V30 2924 H 277.316 3.9689 1.41621 0
M  V30 2925 H 275.991 2.79333 1.6357 0
M  V30 2926 H 274.898 3.70833 -0.493328 0
M  V30 2927 H 276.231 4.88157 -0.629547 0
M  V30 2928 N 277.883 0.443576 1.51229 0
M  V30 2929 C 279.113 -0.119117 2.06256 0
M  V30 2930 C 279.521 -1.36471 1.31043 0
M  V30 2931 O 278.864 -1.80034 0.365151 0
M  V30 2932 C 278.926 -0.500546 3.55998 0
M  V30 2933 C 278.59 0.639125 4.52509 0
M  V30 2934 C 279.587 1.51311 4.97394 0
M  V30 2935 C 277.272 0.821632 4.95535 0
M  V30 2936 C 279.266 2.55425 5.83984 0
M  V30 2937 C 276.953 1.86603 5.81913 0
M  V30 2938 C 277.951 2.73072 6.26036 0
M  V30 2939 O 277.639 3.75718 7.10698 0
M  V30 2940 H 277.371 -0.00857665 0.675946 0
M  V30 2941 H 279.925 0.623288 1.95715 0
M  V30 2942 H 278.155 -1.29575 3.64345 0
M  V30 2943 H 279.844 -0.995116 3.93513 0
M  V30 2944 H 280.61 1.38367 4.64844 0
M  V30 2945 H 276.489 0.158149 4.60729 0
M  V30 2946 H 280.033 3.22949 6.18344 0
M  V30 2947 H 275.93 1.99564 6.13876 0
M  V30 2948 H 276.698 3.72374 7.2889 0
M  V30 2949 N 279.361 -1.56624 0.175154 0
M  V30 2950 C 280.586 -2.01813 -0.478137 0
M  V30 2951 C 281.011 -1.05457 -1.55757 0
M  V30 2952 O 280.369 -0.0347439 -1.81267 0
M  V30 2953 C 280.417 -3.45581 -1.02987 0
M  V30 2954 O 279.521 -3.52305 -2.14371 0
M  V30 2955 H 278.862 -0.65413 -0.114059 0
M  V30 2956 H 281.392 -2.02673 0.280173 0
M  V30 2957 H 281.402 -3.84965 -1.35151 0
M  V30 2958 H 280.077 -4.1521 -0.239556 0
M  V30 2959 H 278.654 -3.24783 -1.83222 0
M  V30 2960 N 280.839 0.0985539 -1.57292 0
M  V30 2961 C 282.085 0.803867 -1.86188 0
M  V30 2962 C 282.418 1.78549 -0.763794 0
M  V30 2963 O 281.693 1.93153 0.22855 0
M  V30 2964 C 281.976 1.53568 -3.25713 0
M  V30 2965 C 281.829 0.572277 -4.46145 0
M  V30 2966 C 283.148 2.48708 -3.63087 0
M  V30 2967 H 280.267 0.290781 -0.677211 0
M  V30 2968 H 282.909 0.0675783 -1.8988 0
M  V30 2969 H 281.059 2.16332 -3.22696 0
M  V30 2970 H 282.731 -0.0480894 -4.61275 0
M  V30 2971 H 280.974 -0.114618 -4.33649 0
M  V30 2972 H 281.645 1.12139 -5.40489 0
M  V30 2973 H 284.121 1.96039 -3.67026 0
M  V30 2974 H 282.997 2.96932 -4.61652 0
M  V30 2975 H 283.258 3.32309 -2.91588 0
M  V30 2976 N 282.317 1.53212 0.369288 0
M  V30 2977 C 283.227 1.82342 1.47609 0
M  V30 2978 C 284.243 0.711532 1.58787 0
M  V30 2979 O 285.419 1.0012 1.74751 0
M  V30 2980 C 282.484 2.00393 2.8292 0
M  V30 2981 C 281.545 3.24297 2.81301 0
M  V30 2982 C 280.778 3.41478 4.10157 0
M  V30 2983 O 281.001 2.63033 5.06132 0
M  V30 2984 O 279.935 4.34817 4.16194 0
M  V30 2985 H 283.761 2.76366 1.25918 0
M  V30 2986 H 281.346 1.38547 0.559034 0
M  V30 2987 H 283.228 2.13859 3.63101 0
M  V30 2988 H 281.903 1.09559 3.04596 0
M  V30 2989 H 280.81 3.16257 1.99831 0
M  V30 2990 H 282.143 4.15041 2.64578 0
M  V30 2991 N 283.795 -0.628877 1.44509 0
M  V30 2992 C 285.035 -1.39993 1.48934 0
M  V30 2993 C 285.399 -1.91627 0.119604 0
M  V30 2994 O 286.6 -2.68772 0.0385283 0
M  V30 2995 C 284.871 -2.53241 2.52198 0
M  V30 2996 S 286.43 -3.41383 2.75687 0
M  V30 2997 H 283.248 -0.477558 0.526744 0
M  V30 2998 H 285.85 -0.727804 1.81448 0
M  V30 2999 H 284.554 -2.13622 3.50419 0
M  V30 3000 H 284.085 -3.25278 2.21264 0
M  V30 3001 H 286.1 -4.50752 2.07453 0
M  V30 3002 N 285.273 -1.31445 -0.869486 0
M  V30 3003 C 286.205 -1.14955 -1.98287 0
M  V30 3004 C 287.218 -0.0885037 -1.62559 0
M  V30 3005 O 288.407 -0.336044 -1.75308 0
M  V30 3006 C 285.507 -0.734255 -3.3085 0
M  V30 3007 C 284.68 -1.88042 -3.94917 0
M  V30 3008 C 283.739 -1.4511 -5.05796 0
M  V30 3009 O 282.765 -2.16082 -5.2659 0
M  V30 3010 N 283.967 -0.338763 -5.79511 0
M  V30 3011 H 286.732 -2.10856 -2.12979 0
M  V30 3012 H 284.293 -1.23786 -1.04349 0
M  V30 3013 H 286.285 -0.42975 -4.02412 0
M  V30 3014 H 284.855 0.133158 -3.12316 0
M  V30 3015 H 284.075 -2.35222 -3.1633 0
M  V30 3016 H 285.363 -2.6481 -4.34457 0
M  V30 3017 H 284.761 0.252274 -5.65137 0
M  V30 3018 H 283.318 -0.0937925 -6.51733 0
M  V30 3019 N 286.751 1.08385 -1.14413 0
M  V30 3020 C 287.661 2.18856 -0.844951 0
M  V30 3021 C 288.677 1.73121 0.174668 0
M  V30 3022 O 289.853 2.014 0.00312857 0
M  V30 3023 C 286.918 3.45155 -0.32696 0
M  V30 3024 C 285.979 4.05513 -1.40916 0
M  V30 3025 C 285.212 5.25784 -0.915793 0
M  V30 3026 O 285.435 5.69884 0.242651 0
M  V30 3027 O 284.369 5.77545 -1.69487 0
M  V30 3028 H 288.195 2.46919 -1.76818 0
M  V30 3029 H 285.78 1.17524 -0.922411 0
M  V30 3030 H 287.662 4.21377 -0.0440211 0
M  V30 3031 H 286.337 3.18668 0.568539 0
M  V30 3032 H 285.244 3.30879 -1.74556 0
M  V30 3033 H 286.577 4.3625 -2.27919 0
M  V30 3034 N 288.23 0.939286 1.26551 0
M  V30 3035 C 289.507 0.5038 1.89001 0
M  V30 3036 C 289.887 -1.01854 1.84903 0
M  V30 3037 O 289.235 -1.87773 1.30206 0
M  V30 3038 C 289.445 1.063 3.32417 0
M  V30 3039 C 290.793 1.13051 4.09273 0
M  V30 3040 O 291.817 1.01345 3.41479 0
M  V30 3041 O 290.676 1.31233 5.30509 0
M  V30 3042 H 287.77 0.163897 0.810597 0
M  V30 3043 H 290.316 1.03173 1.34735 0
M  V30 3044 H 289.088 2.10665 3.29752 0
M  V30 3045 H 288.711 0.517408 3.94219 0
M  V30 3046 N 289.708 -1.40897 0.706093 0
M  V30 3047 C 290.933 -2.05895 0.249435 0
M  V30 3048 C 291.358 -1.52823 -1.09666 0
M  V30 3049 O 290.716 -0.659589 -1.68876 0
M  V30 3050 C 290.764 -3.59872 0.22904 0
M  V30 3051 O 289.868 -4.04708 -0.792784 0
M  V30 3052 H 289.209 -0.653206 0.119241 0
M  V30 3053 H 291.739 -1.80471 0.96391 0
M  V30 3054 H 291.749 -4.07951 0.0634791 0
M  V30 3055 H 290.424 -3.97866 1.21141 0
M  V30 3056 H 289.001 -3.68111 -0.59572 0
M  V30 3057 N 291.186 -0.45159 -1.50991 0
M  V30 3058 C 292.149 0.341117 -2.26647 0
M  V30 3059 C 293.149 0.937422 -1.30649 0
M  V30 3060 O 294.339 0.809644 -1.54241 0
M  V30 3061 C 291.471 1.48398 -3.06905 0
M  V30 3062 H 292.664 -0.322117 -2.98165 0
M  V30 3063 H 290.217 -0.205122 -1.54948 0
M  V30 3064 H 290.952 2.18284 -2.39838 0
M  V30 3065 H 290.737 1.06241 -3.77432 0
M  V30 3066 H 292.227 2.04367 -3.64176 0
M  V30 3067 N 292.664 1.56529 -0.183458 0
M  V30 3068 C 293.904 1.99141 0.460667 0
M  V30 3069 C 294.268 1.06736 1.59597 0
M  V30 3070 O 295.469 1.38538 2.30349 0
M  V30 3071 C 293.74 3.45358 0.919939 0
M  V30 3072 S 295.299 4.09999 1.56354 0
M  V30 3073 H 292.117 0.695479 0.147748 0
M  V30 3074 H 294.719 1.93429 -0.283782 0
M  V30 3075 H 293.423 4.10315 0.0834208 0
M  V30 3076 H 292.954 3.54862 1.69814 0
M  V30 3077 H 294.969 4.06046 2.85203 0
M  V30 3078 N 294.142 -0.090211 1.57342 0
M  V30 3079 C 295.553 -0.644173 1.75235 0
M  V30 3080 C 295.904 -1.78865 0.806335 0
M  V30 3081 O 295.029 -2.16395 -0.0140128 0
M  V30 3082 C 295.624 -1.17532 3.1776 0
M  V30 3083 C 294.183 -1.67531 3.37061 0
M  V30 3084 C 293.33 -0.58693 2.71017 0
M  V30 3085 H 296.281 0.135884 1.58117 0
M  V30 3086 H 296.302 -2.04455 3.20902 0
M  V30 3087 H 295.814 -0.342138 3.86589 0
M  V30 3088 H 293.915 -2.53234 2.73319 0
M  V30 3089 H 294.028 -1.76493 4.45406 0
M  V30 3090 H 292.392 -1.02756 2.33052 0
M  V30 3091 H 293.175 0.235758 3.4249 0
M  V30 3092 N 295.62 -1.53406 -0.361157 0
M  V30 3093 C 296.583 -1.79479 -1.42548 0
M  V30 3094 C 297.583 -0.665327 -1.4639 0
M  V30 3095 O 298.773 -0.933549 -1.47073 0
M  V30 3096 C 295.905 -1.92087 -2.8163 0
M  V30 3097 H 297.098 -2.74538 -1.20701 0
M  V30 3098 H 294.651 -1.4455 -0.594546 0
M  V30 3099 H 295.386 -0.991099 -3.08784 0
M  V30 3100 H 295.171 -2.74241 -2.80239 0
M  V30 3101 H 296.661 -2.13836 -3.58697 0
M  V30 3102 N 297.098 0.621204 -1.44841 0
M  V30 3103 C 298.061 1.71459 -1.521 0
M  V30 3104 C 299.061 1.55696 -0.401933 0
M  V30 3105 O 300.251 1.61011 -0.664925 0
M  V30 3106 C 297.383 3.10624 -1.40447 0
M  V30 3107 H 298.576 1.66394 -2.49506 0
M  V30 3108 H 296.129 0.835745 -1.3208 0
M  V30 3109 H 296.864 3.21277 -0.441737 0
M  V30 3110 H 296.649 3.23473 -2.21602 0
M  V30 3111 H 298.139 3.90293 -1.4853 0
M  V30 3112 N 298.576 1.31904 0.862503 0
M  V30 3113 C 299.486 1.22161 2.00285 0
M  V30 3114 C 300.502 0.136785 1.73462 0
M  V30 3115 O 301.678 0.355994 1.98229 0
M  V30 3116 C 298.743 0.937093 3.33796 0
M  V30 3117 C 297.804 2.10957 3.73893 0
M  V30 3118 C 297.037 1.83853 5.01033 0
M  V30 3119 O 297.26 0.777274 5.65079 0
M  V30 3120 O 296.194 2.69741 5.38074 0
M  V30 3121 H 300.02 2.18008 2.11439 0
M  V30 3122 H 297.605 1.11716 0.991957 0
M  V30 3123 H 299.487 0.794583 4.13841 0
M  V30 3124 H 298.162 0.00871894 3.23699 0
M  V30 3125 H 297.069 2.30752 2.94456 0
M  V30 3126 H 298.402 3.02046 3.88625 0
M  V30 3127 N 300.054 -1.07777 1.14986 0
M  V30 3128 C 300.964 -2.18404 0.856546 0
M  V30 3129 C 301.98 -1.73211 -0.165485 0
M  V30 3130 O 303.156 -2.01399 0.00755219 0
M  V30 3131 C 300.221 -3.44977 0.34526 0
M  V30 3132 C 299.282 -4.0476 1.43065 0
M  V30 3133 C 298.515 -5.25291 0.943663 0
M  V30 3134 O 298.738 -5.70004 -0.212426 0
M  V30 3135 O 297.672 -5.76638 1.72547 0
M  V30 3136 H 301.498 -2.45978 1.78125 0
M  V30 3137 H 299.083 -1.17033 0.928631 0
M  V30 3138 H 300.965 -4.21348 0.0663671 0
M  V30 3139 H 299.64 -3.18965 -0.551631 0
M  V30 3140 H 298.547 -3.29949 1.76309 0
M  V30 3141 H 299.88 -4.35035 2.30229 0
M  V30 3142 N 301.532 -0.945985 -1.26051 0
M  V30 3143 C 302.757 -0.612525 -1.98149 0
M  V30 3144 C 303.182 0.806623 -1.69927 0
M  V30 3145 O 302.54 1.54411 -0.950108 0
M  V30 3146 C 302.588 -0.866981 -3.50023 0
M  V30 3147 O 301.692 0.0585333 -4.12358 0
M  V30 3148 H 301.033 -0.23379 -0.621481 0
M  V30 3149 H 303.563 -1.27023 -1.60395 0
M  V30 3150 H 303.573 -0.789792 -4.00283 0
M  V30 3151 H 302.248 -1.90135 -3.69894 0
M  V30 3152 H 300.825 -0.0701241 -3.72834 0
M  V30 3153 N 303.011 1.40521 -0.713556 0
M  V30 3154 C 303.941 2.33381 -0.0743864 0
M  V30 3155 C 304.922 1.52784 0.747735 0
M  V30 3156 O 306.107 1.81258 0.697071 0
M  V30 3157 C 303.237 3.36748 0.849598 0
M  V30 3158 C 302.191 4.27793 0.133247 0
M  V30 3159 C 301.517 5.21679 1.17281 0
M  V30 3160 C 302.817 5.12415 -1.01134 0
M  V30 3161 H 304.511 2.87081 -0.850007 0
M  V30 3162 H 302.057 1.38034 -0.410201 0
M  V30 3163 H 304.01 4.00648 1.30612 0
M  V30 3164 H 302.734 2.81439 1.65709 0
M  V30 3165 H 301.393 3.65342 -0.303426 0
M  V30 3166 H 301.041 4.62677 1.9733 0
M  V30 3167 H 300.741 5.83435 0.698397 0
M  V30 3168 H 302.265 5.88456 1.62947 0
M  V30 3169 H 303.679 5.69781 -0.634274 0
M  V30 3170 H 302.076 5.83203 -1.41399 0
M  V30 3171 H 303.146 4.48514 -1.84292 0
M  V30 3172 N 304.489 0.459591 1.5075 0
M  V30 3173 C 305.9 0.00171547 1.867 0
M  V30 3174 C 306.251 -1.39934 1.37525 0
M  V30 3175 O 305.376 -2.03523 0.735349 0
M  V30 3176 C 305.971 -0.00366298 3.388 0
M  V30 3177 C 304.53 -0.406026 3.74204 0
M  V30 3178 C 303.677 0.38673 2.7459 0
M  V30 3179 H 306.628 0.674413 1.43657 0
M  V30 3180 H 306.649 -0.808371 3.71814 0
M  V30 3181 H 306.161 1.01617 3.74561 0
M  V30 3182 H 304.262 -1.43063 3.4404 0
M  V30 3183 H 304.375 -0.115362 4.78961 0
M  V30 3184 H 302.739 -0.158019 2.54209 0
M  V30 3185 H 303.522 1.40585 3.13194 0
M  V30 3186 N 305.967 -1.56429 0.191757 0
M  V30 3187 C 307.216 -1.9666 -0.448088 0
M  V30 3188 C 307.529 -1.08136 -1.62991 0
M  V30 3189 O 308.735 -1.38135 -2.33733 0
M  V30 3190 C 307.191 -3.49753 -0.848585 0
M  V30 3191 C 306.799 -4.46935 0.308764 0
M  V30 3192 C 308.543 -3.9876 -1.4557 0
M  V30 3193 C 306.45 -5.91293 -0.112506 0
M  V30 3194 H 305.38 -0.734312 -0.171179 0
M  V30 3195 H 308.031 -1.81301 0.283242 0
M  V30 3196 H 306.413 -3.60604 -1.63649 0
M  V30 3197 H 307.587 -4.47813 1.08627 0
M  V30 3198 H 305.902 -4.08102 0.827158 0
M  V30 3199 H 308.499 -5.04086 -1.78328 0
M  V30 3200 H 308.842 -3.42875 -2.36099 0
M  V30 3201 H 309.375 -3.9101 -0.731836 0
M  V30 3202 H 306.114 -6.51097 0.758514 0
M  V30 3203 H 305.634 -5.93676 -0.854941 0
M  V30 3204 H 307.313 -6.44663 -0.549448 0
M  V30 3205 N 307.445 0.0818655 -1.57387 0
M  V30 3206 C 308.355 1.11642 -2.06333 0
M  V30 3207 C 309.371 1.43033 -0.99083 0
M  V30 3208 O 310.547 1.53411 -1.30488 0
M  V30 3209 C 307.612 2.41342 -2.48907 0
M  V30 3210 C 306.673 2.17014 -3.7041 0
M  V30 3211 C 305.906 3.4053 -4.10944 0
M  V30 3212 O 306.129 4.4927 -3.51444 0
M  V30 3213 O 305.063 3.29336 -5.03807 0
M  V30 3214 H 308.889 0.730657 -2.9478 0
M  V30 3215 H 306.474 0.295301 -1.46452 0
M  V30 3216 H 308.356 3.17691 -2.76858 0
M  V30 3217 H 307.031 2.79319 -1.63593 0
M  V30 3218 H 305.938 1.38403 -3.47556 0
M  V30 3219 H 307.271 1.83923 -4.56545 0
M  V30 3220 N 308.923 1.53595 0.353017 0
M  V30 3221 C 310.169 1.70638 1.09593 0
M  V30 3222 C 310.502 0.463286 1.88593 0
M  V30 3223 O 309.777 -0.539597 1.86865 0
M  V30 3224 C 310.06 2.96406 2.04489 0
M  V30 3225 C 309.913 4.30901 1.29014 0
M  V30 3226 C 311.232 3.17812 3.0444 0
M  V30 3227 H 308.351 0.620913 0.397034 0
M  V30 3228 H 310.993 1.86254 0.375446 0
M  V30 3229 H 309.143 2.83223 2.65927 0
M  V30 3230 H 310.815 4.55917 0.702638 0
M  V30 3231 H 309.058 4.29741 0.592071 0
M  V30 3232 H 309.729 5.1506 1.98537 0
M  V30 3233 H 312.205 3.30263 2.53112 0
M  V30 3234 H 311.081 4.07223 3.6805 0
M  V30 3235 H 311.342 2.33669 3.75301 0
M  V30 3236 N 310.401 -0.613514 1.45168 0
M  V30 3237 C 311.334 -1.73809 1.47871 0
M  V30 3238 C 312.312 -1.59097 0.33568 0
M  V30 3239 O 313.496 -1.8074 0.535299 0
M  V30 3240 C 310.623 -3.11574 1.32813 0
M  V30 3241 C 309.669 -3.4489 2.50905 0
M  V30 3242 S 310.502 -3.40393 4.13392 0
M  V30 3243 C 311.658 -4.80749 4.00789 0
M  V30 3244 H 311.891 -1.71252 2.43023 0
M  V30 3245 H 309.424 -0.789658 1.32679 0
M  V30 3246 H 311.382 -3.91065 1.24812 0
M  V30 3247 H 310.043 -3.11652 0.391418 0
M  V30 3248 H 309.236 -4.45183 2.36279 0
M  V30 3249 H 308.838 -2.72901 2.55736 0
M  V30 3250 H 311.13 -5.7041 3.65567 0
M  V30 3251 H 312.073 -5.00431 5.00974 0
M  V30 3252 H 312.481 -4.56151 3.32545 0
M  V30 3253 N 311.879 -1.3236 -0.855495 0
M  V30 3254 C 313.125 -1.23054 -1.612 0
M  V30 3255 C 313.458 0.207404 -1.93089 0
M  V30 3256 O 312.733 1.14432 -1.57275 0
M  V30 3257 C 313.016 -2.08937 -2.93287 0
M  V30 3258 C 312.869 -3.61105 -2.68185 0
M  V30 3259 C 314.188 -1.94986 -3.94549 0
M  V30 3260 H 311.307 -0.448364 -0.584926 0
M  V30 3261 H 313.949 -1.62297 -0.987917 0
M  V30 3262 H 312.099 -1.75599 -3.46551 0
M  V30 3263 H 313.771 -4.04652 -2.21483 0
M  V30 3264 H 312.014 -3.83813 -2.02164 0
M  V30 3265 H 312.685 -4.16522 -3.62234 0
M  V30 3266 H 315.161 -2.24189 -3.5054 0
M  V30 3267 H 314.037 -2.57356 -4.84829 0
M  V30 3268 H 314.298 -0.917263 -4.3248 0
M  V30 3269 N 313.357 1.07166 -1.15556 0
M  V30 3270 C 314.634 1.76546 -0.842069 0
M  V30 3271 C 315.014 2.00453 0.661939 0
M  V30 3272 O 314.362 1.62452 1.60691 0
M  V30 3273 C 314.572 3.07266 -1.65495 0
M  V30 3274 C 315.92 3.81578 -1.86234 0
M  V30 3275 O 316.944 3.17083 -1.62287 0
M  V30 3276 O 315.803 4.97419 -2.26355 0
M  V30 3277 H 312.897 0.766756 -0.309862 0
M  V30 3278 H 315.443 1.13514 -1.26145 0
M  V30 3279 H 314.215 2.85494 -2.67598 0
M  V30 3280 H 313.838 3.7803 -1.23203 0
M  V30 3281 N 314.835 0.952656 1.25548 0
M  V30 3282 C 315.798 0.475794 2.24207 0
M  V30 3283 C 316.798 -0.419428 1.55234 0
M  V30 3284 O 317.988 -0.216994 1.72843 0
M  V30 3285 C 315.12 -0.312814 3.39462 0
M  V30 3286 H 316.313 1.34779 2.67908 0
M  V30 3287 H 313.866 0.735739 1.37901 0
M  V30 3288 H 314.601 -1.20257 3.01179 0
M  V30 3289 H 314.386 0.329404 3.90714 0
M  V30 3290 H 315.876 -0.635986 4.12729 0
M  V30 3291 N 316.313 -1.40141 0.720998 0
M  V30 3292 C 317.559 -2.01084 0.263231 0
M  V30 3293 C 317.892 -1.57052 -1.14229 0
M  V30 3294 O 317.167 -0.793027 -1.77599 0
M  V30 3295 C 317.45 -3.58401 0.349344 0
M  V30 3296 C 317.303 -4.12491 1.79363 0
M  V30 3297 C 318.622 -4.39231 -0.276351 0
M  V30 3298 H 315.741 -0.730572 0.0971228 0
M  V30 3299 H 318.383 -1.66543 0.914518 0
M  V30 3300 H 316.533 -3.87958 -0.205165 0
M  V30 3301 H 318.205 -3.93711 2.40394 0
M  V30 3302 H 316.448 -3.66576 2.31958 0
M  V30 3303 H 317.119 -5.21646 1.80524 0
M  V30 3304 H 319.595 -4.15637 0.196184 0
M  V30 3305 H 318.471 -5.48586 -0.185681 0
M  V30 3306 H 318.732 -4.20643 -1.36059 0
M  V30 3307 N 317.792 -0.46758 -1.50504 0
M  V30 3308 C 318.742 0.34698 -2.25344 0
M  V30 3309 C 319.726 0.964469 -1.2879 0
M  V30 3310 O 320.918 0.8776 -1.53711 0
M  V30 3311 C 318.047 1.43042 -3.1208 0
M  V30 3312 C 317.133 0.82084 -4.16081 0
M  V30 3313 N 317.524 -0.0567602 -5.05768 0
M  V30 3314 C 315.822 1.08517 -4.32597 0
M  V30 3315 C 316.523 -0.402343 -5.80307 0
M  V30 3316 N 315.499 0.221607 -5.43148 0
M  V30 3317 H 319.301 -0.329129 -2.92051 0
M  V30 3318 H 316.815 -0.281508 -1.59942 0
M  V30 3319 H 318.812 2.02712 -3.64299 0
M  V30 3320 H 317.472 2.10856 -2.46921 0
M  V30 3321 H 318.483 -0.425349 -5.1615 0
M  V30 3322 H 315.16 1.75855 -3.78657 0
M  V30 3323 H 316.55 -1.11834 -6.62528 0
M  V30 3324 N 319.27 1.56325 -0.20005 0
M  V30 3325 C 320.217 2.1932 0.718833 0
M  V30 3326 C 321.187 1.14198 1.20615 0
M  V30 3327 O 322.372 1.42469 1.26914 0
M  V30 3328 C 319.512 2.86041 1.93066 0
M  V30 3329 C 318.625 4.05702 1.48425 0
M  V30 3330 C 317.76 4.60266 2.65196 0
M  V30 3331 C 316.799 5.72273 2.17185 0
M  V30 3332 N 315.936 6.21221 3.27152 0
M  V30 3333 H 320.776 2.97486 0.17489 0
M  V30 3334 H 318.313 1.46911 0.0745794 0
M  V30 3335 H 320.271 3.22897 2.64184 0
M  V30 3336 H 318.901 2.1043 2.44783 0
M  V30 3337 H 317.953 3.74475 0.668755 0
M  V30 3338 H 319.265 4.86699 1.09204 0
M  V30 3339 H 318.419 4.99453 3.4443 0
M  V30 3340 H 317.158 3.78386 3.07693 0
M  V30 3341 H 316.163 5.3261 1.36407 0
M  V30 3342 H 317.388 6.55974 1.75713 0
M  V30 3343 H 315.334 5.42263 3.69171 0
M  V30 3344 H 315.251 6.97284 2.92116 0
M  V30 3345 H 316.519 6.65063 4.06585 0
M  V30 3346 N 320.748 -0.0735177 1.57428 0
M  V30 3347 C 321.678 -1.0879 2.06608 0
M  V30 3348 C 322.659 -1.40473 0.959237 0
M  V30 3349 O 323.844 -1.5013 1.23185 0
M  V30 3350 C 320.974 -2.40183 2.50857 0
M  V30 3351 C 319.928 -2.22858 3.65402 0
M  V30 3352 C 319.254 -3.59619 3.957 0
M  V30 3353 C 320.554 -1.65123 4.95511 0
M  V30 3354 H 322.248 -0.678673 2.91607 0
M  V30 3355 H 319.794 -0.325013 1.40284 0
M  V30 3356 H 321.747 -3.11437 2.83874 0
M  V30 3357 H 320.471 -2.83083 1.62885 0
M  V30 3358 H 319.13 -1.54045 3.32664 0
M  V30 3359 H 318.778 -4.00086 3.04861 0
M  V30 3360 H 318.478 -3.48866 4.72828 0
M  V30 3361 H 320.002 -4.32306 4.31212 0
M  V30 3362 H 321.416 -2.26241 5.26771 0
M  V30 3363 H 319.813 -1.65071 5.7695 0
M  V30 3364 H 320.883 -0.612559 4.81015 0
M  V30 3365 N 322.226 -1.5378 -0.344866 0
M  V30 3366 C 323.173 -1.81676 -1.42346 0
M  V30 3367 C 324.143 -0.662376 -1.52321 0
M  V30 3368 O 325.328 -0.906675 -1.67881 0
M  V30 3369 C 322.468 -2.03087 -2.79015 0
M  V30 3370 C 321.581 -3.30799 -2.77842 0
M  V30 3371 C 320.716 -3.42285 -4.0622 0
M  V30 3372 C 319.755 -4.6395 -3.9927 0
M  V30 3373 N 318.892 -4.72477 -5.19336 0
M  V30 3374 H 323.732 -2.73703 -1.17858 0
M  V30 3375 H 321.269 -1.35568 -0.570949 0
M  V30 3376 H 323.227 -2.1349 -3.58438 0
M  V30 3377 H 321.857 -1.14375 -3.01858 0
M  V30 3378 H 320.909 -3.29244 -1.90533 0
M  V30 3379 H 322.221 -4.20314 -2.68584 0
M  V30 3380 H 321.375 -3.52113 -4.94066 0
M  V30 3381 H 320.114 -2.50823 -4.18258 0
M  V30 3382 H 319.119 -4.54201 -3.09809 0
M  V30 3383 H 320.344 -5.56775 -3.88817 0
M  V30 3384 H 318.29 -3.83924 -5.3192 0
M  V30 3385 H 318.207 -5.55927 -5.12329 0
M  V30 3386 H 319.475 -4.86613 -6.08957 0
M  V30 3387 N 323.704 0.605807 -1.45491 0
M  V30 3388 C 324.934 1.38934 -1.52908 0
M  V30 3389 C 325.342 1.88513 -0.161086 0
M  V30 3390 O 324.685 1.62962 0.847891 0
M  V30 3391 C 324.747 2.62737 -2.45376 0
M  V30 3392 C 324.411 2.34785 -3.92078 0
M  V30 3393 C 325.408 1.95038 -4.8193 0
M  V30 3394 C 323.093 2.47642 -4.37011 0
M  V30 3395 C 325.087 1.68511 -6.14722 0
M  V30 3396 C 322.774 2.20728 -5.69844 0
M  V30 3397 C 323.772 1.81225 -6.58519 0
M  V30 3398 O 323.46 1.54627 -7.88889 0
M  V30 3399 H 323.192 0.431629 -0.520262 0
M  V30 3400 H 325.746 0.74573 -1.91384 0
M  V30 3401 H 323.976 3.29824 -2.01874 0
M  V30 3402 H 325.665 3.24783 -2.43456 0
M  V30 3403 H 326.431 1.84639 -4.48479 0
M  V30 3404 H 322.31 2.77356 -3.68232 0
M  V30 3405 H 325.854 1.37602 -6.83894 0
M  V30 3406 H 321.751 2.30744 -6.02849 0
M  V30 3407 H 322.519 1.68665 -8.00933 0
M  V30 3408 N 325.182 1.32811 0.848464 0
M  V30 3409 C 326.092 1.24278 1.98978 0
M  V30 3410 C 327.108 0.155176 1.73307 0
M  V30 3411 O 328.284 0.376999 1.9784 0
M  V30 3412 C 325.349 0.972444 3.32783 0
M  V30 3413 C 324.41 2.14911 3.71634 0
M  V30 3414 C 323.643 1.89157 4.99054 0
M  V30 3415 O 323.866 0.837165 5.64223 0
M  V30 3416 O 322.8 2.75433 5.35183 0
M  V30 3417 H 326.626 2.20238 2.09115 0
M  V30 3418 H 324.211 1.12762 0.980052 0
M  V30 3419 H 326.093 0.838432 4.12975 0
M  V30 3420 H 324.768 0.043051 3.23671 0
M  V30 3421 H 323.675 2.33862 2.91992 0
M  V30 3422 H 325.008 3.06151 3.85399 0
M  V30 3423 N 326.66 -1.06551 1.16123 0
M  V30 3424 C 327.608 -2.16063 0.861371 0
M  V30 3425 C 328.602 -1.6856 -0.168517 0
M  V30 3426 O 329.808 -1.79986 -0.0227579 0
M  V30 3427 H 326.183 -0.705278 0.260934 0
M  V30 3428 H 328.154 -2.38567 1.79244 0
M  V30 3429 C 326.903 -3.45661 0.376018 0
M  V30 3430 H 326.226 -3.82604 1.15992 0
M  V30 3431 H 327.666 -4.23504 0.204951 0
M  V30 3432 C 326.125 -3.24546 -0.903954 0
M  V30 3433 O 326.655 -3.49865 -1.97377 0
M  V30 3434 N 324.861 -2.77992 -0.846679 0
M  V30 3435 H 324.408 -2.57589 0.0241017 0
M  V30 3436 H 324.366 -2.64244 -1.70359 0
M  V30 3437 N 328.138 -0.959301 -1.25041 0
M  V30 3438 C 329.368 -0.63303 -1.96663 0
M  V30 3439 C 329.776 0.800031 -1.71453 0
M  V30 3440 O 329.119 1.54736 -0.99008 0
M  V30 3441 C 329.181 -0.817523 -3.50081 0
M  V30 3442 C 328.845 -2.22863 -3.98975 0
M  V30 3443 C 329.842 -3.20569 -4.09306 0
M  V30 3444 C 327.527 -2.55407 -4.32519 0
M  V30 3445 C 329.521 -4.4891 -4.52503 0
M  V30 3446 C 327.208 -3.83976 -4.754 0
M  V30 3447 C 328.206 -4.8054 -4.85356 0
M  V30 3448 O 327.894 -6.06817 -5.27284 0
M  V30 3449 H 327.626 -0.235866 -0.633516 0
M  V30 3450 H 330.18 -1.2874 -1.60047 0
M  V30 3451 H 328.41 -0.105992 -3.86555 0
M  V30 3452 H 330.099 -0.491604 -4.02912 0
M  V30 3453 H 330.865 -2.96753 -3.83618 0
M  V30 3454 H 326.744 -1.8097 -4.23994 0
M  V30 3455 H 330.288 -5.24283 -4.60188 0
M  V30 3456 H 326.185 -4.07596 -5.00535 0
M  V30 3457 H 326.953 -6.10262 -5.45457 0
M  V30 3458 N 329.616 1.39756 -0.72842 0
M  V30 3459 C 330.844 2.04948 -0.283528 0
M  V30 3460 C 331.259 1.54908 1.0793 0
M  V30 3461 O 330.616 0.711135 1.68075 0
M  V30 3462 C 330.667 3.60498 -0.268957 0
M  V30 3463 O 330.388 4.08695 -1.57798 0
M  V30 3464 C 331.889 4.4288 0.192912 0
M  V30 3465 H 329.109 0.659243 -0.125056 0
M  V30 3466 H 331.653 1.78927 -0.990226 0
M  V30 3467 H 329.808 3.85444 0.388801 0
M  V30 3468 H 330.222 5.02977 -1.48709 0
M  V30 3469 H 331.696 5.51791 0.151952 0
M  V30 3470 H 332.173 4.21418 1.23708 0
M  V30 3471 H 332.779 4.23069 -0.435039 0
M  V30 3472 N 331.094 0.475555 1.50254 0
M  V30 3473 C 332.319 -0.0777042 2.07254 0
M  V30 3474 C 332.744 -1.3235 1.3366 0
M  V30 3475 O 332.102 -1.77152 0.385597 0
M  V30 3476 C 332.15 -0.340169 3.58992 0
M  V30 3477 O 331.254 -1.41982 3.87188 0
M  V30 3478 H 330.595 0.0149556 0.663832 0
M  V30 3479 H 333.125 0.667878 1.93392 0
M  V30 3480 H 333.135 -0.579332 4.03866 0
M  V30 3481 H 331.81 0.570167 4.11973 0
M  V30 3482 H 330.387 -1.16762 3.54148 0
M  V30 3483 N 332.573 -1.56217 0.208337 0
M  V30 3484 C 333.798 -2.02782 -0.435222 0
M  V30 3485 C 334.223 -1.08738 -1.53485 0
M  V30 3486 O 333.581 -0.0731855 -1.81152 0
M  V30 3487 C 333.629 -3.47687 -0.956335 0
M  V30 3488 O 332.733 -3.56773 -2.06849 0
M  V30 3489 H 332.074 -0.656403 -0.100158 0
M  V30 3490 H 334.604 -2.02033 0.3231 0
M  V30 3491 H 334.614 -3.87745 -1.26955 0
M  V30 3492 H 333.289 -4.15624 -0.15143 0
M  V30 3493 H 331.866 -3.28597 -1.76292 0
M  V30 3494 N 334.051 0.0651679 -1.57465 0
M  V30 3495 C 335.298 0.763063 -1.87573 0
M  V30 3496 C 335.626 1.77242 -0.800961 0
M  V30 3497 O 334.881 1.94651 0.202316 0
M  V30 3498 C 335.18 1.50081 -3.24362 0
M  V30 3499 C 334.846 0.630816 -4.46466 0
M  V30 3500 C 333.508 0.391082 -4.79608 0
M  V30 3501 C 335.86 0.0279465 -5.21193 0
M  V30 3502 C 333.188 -0.460894 -5.84887 0
M  V30 3503 C 335.54 -0.811522 -6.27373 0
M  V30 3504 C 334.204 -1.06106 -6.59013 0
M  V30 3505 H 333.474 0.279224 -0.686378 0
M  V30 3506 H 336.121 0.0236726 -1.91485 0
M  V30 3507 H 334.426 2.31258 -3.16271 0
M  V30 3508 H 336.123 2.04571 -3.44894 0
M  V30 3509 H 332.713 0.8278 -4.2053 0
M  V30 3510 H 336.897 0.200262 -4.95896 0
M  V30 3511 H 332.153 -0.662907 -6.07796 0
M  V30 3512 H 336.327 -1.28537 -6.84435 0
M  V30 3513 H 333.954 -1.723 -7.40417 0
M  V30 3514 N 335.529 1.53961 0.336706 0
M  V30 3515 C 336.776 1.71536 1.07618 0
M  V30 3516 C 337.104 0.482125 1.8843 0
M  V30 3517 O 336.359 -0.536142 1.88213 0
M  V30 3518 C 336.658 2.93493 2.03953 0
M  V30 3519 C 336.324 4.28811 1.39399 0
M  V30 3520 C 334.986 4.65602 1.21523 0
M  V30 3521 C 337.338 5.12844 0.929541 0
M  V30 3522 C 334.666 5.84037 0.558312 0
M  V30 3523 C 337.018 6.31951 0.286505 0
M  V30 3524 C 335.682 6.67432 0.0954869 0
M  V30 3525 H 334.952 0.627696 0.393801 0
M  V30 3526 H 337.599 1.88186 0.354715 0
M  V30 3527 H 335.904 2.71475 2.82504 0
M  V30 3528 H 337.601 3.04285 2.61174 0
M  V30 3529 H 334.191 3.99858 1.54311 0
M  V30 3530 H 338.375 4.84947 1.05548 0
M  V30 3531 H 333.631 6.10097 0.398995 0
M  V30 3532 H 337.805 6.96352 -0.0814376 0
M  V30 3533 H 335.432 7.59063 -0.415579 0
M  V30 3534 N 337.007 -0.598083 1.45811 0
M  V30 3535 C 338.256 -1.35295 1.49594 0
M  V30 3536 C 338.569 -1.95057 0.145679 0
M  V30 3537 O 339.775 -2.71431 0.0612099 0
M  V30 3538 C 338.231 -2.45124 2.63519 0
M  V30 3539 C 337.839 -1.91732 4.04899 0
M  V30 3540 C 339.583 -3.2205 2.76558 0
M  V30 3541 C 337.49 -2.991 5.1019 0
M  V30 3542 H 336.42 -0.508552 0.556679 0
M  V30 3543 H 339.071 -0.639977 1.71978 0
M  V30 3544 H 337.453 -3.19149 2.34435 0
M  V30 3545 H 338.627 -1.24352 4.43704 0
M  V30 3546 H 336.942 -1.27522 3.96393 0
M  V30 3547 H 339.539 -4.0215 3.52391 0
M  V30 3548 H 339.882 -3.73663 1.83526 0
M  V30 3549 H 340.415 -2.55127 3.05213 0
M  V30 3550 H 337.154 -2.52393 6.04961 0
M  V30 3551 H 336.674 -3.65017 4.75944 0
M  V30 3552 H 338.353 -3.63318 5.35359 0
M  V30 3553 N 338.485 -1.33259 -0.841409 0
M  V30 3554 C 339.901 -1.12538 -1.13169 0
M  V30 3555 C 340.101 0.0854037 -2.01319 0
M  V30 3556 O 339.157 0.766417 -2.40587 0
M  V30 3557 C 340.47 -2.41156 -1.79623 0
M  V30 3558 C 342.018 -2.47038 -1.922 0
M  V30 3559 C 342.493 -3.7561 -2.6207 0
M  V30 3560 N 343.984 -3.76667 -2.69585 0
M  V30 3561 C 344.719 -4.72861 -3.2433 0
M  V30 3562 N 344.215 -5.79428 -3.79783 0
M  V30 3563 N 346.008 -4.6034 -3.22558 0
M  V30 3564 H 338.159 -2.10868 -0.254676 0
M  V30 3565 H 340.422 -0.931615 -0.175493 0
M  V30 3566 H 340.128 -3.29747 -1.22311 0
M  V30 3567 H 340.002 -2.53114 -2.79666 0
M  V30 3568 H 342.389 -1.58898 -2.48667 0
M  V30 3569 H 342.47 -2.39022 -0.911148 0
M  V30 3570 H 342.114 -4.64131 -2.06263 0
M  V30 3571 H 342.044 -3.80902 -3.63622 0
M  V30 3572 H 344.535 -2.99648 -2.30259 0
M  V30 3573 H 344.848 -6.48867 -4.19752 0
M  V30 3574 H 343.193 -5.83166 -3.78078 0
M  V30 3575 H 346.384 -3.76244 -2.78492 0
M  V30 3576 H 346.557 -5.35478 -3.64921 0
M  V30 3577 N 339.963 1.05934 -1.16686 0
M  V30 3578 C 341.24 1.75643 -0.860747 0
M  V30 3579 C 341.62 2.01144 0.640641 0
M  V30 3580 O 340.968 1.64147 1.58959 0
M  V30 3581 C 341.178 3.05493 -1.68745 0
M  V30 3582 C 342.526 3.79581 -1.90271 0
M  V30 3583 O 343.55 3.15344 -1.65641 0
M  V30 3584 O 342.409 4.9499 -2.31618 0
M  V30 3585 H 339.503 0.763426 -0.317977 0
M  V30 3586 H 342.049 1.1217 -1.27342 0
M  V30 3587 H 340.821 2.8264 -2.70611 0
M  V30 3588 H 340.444 3.76702 -1.27206 0
M  V30 3589 N 341.441 0.965919 1.2453 0
M  V30 3590 C 342.69 0.622437 1.91856 0
M  V30 3591 C 343.003 -0.846006 1.76358 0
M  V30 3592 O 344.209 -1.29993 2.38357 0
M  V30 3593 C 342.665 1.0626 3.43856 0
M  V30 3594 C 342.273 2.55437 3.68043 0
M  V30 3595 C 344.017 0.792183 4.17043 0
M  V30 3596 C 341.924 2.93196 5.13605 0
M  V30 3597 H 340.854 0.229092 0.718354 0
M  V30 3598 H 343.505 1.17189 1.41206 0
M  V30 3599 H 341.887 0.441476 3.93531 0
M  V30 3600 H 343.061 3.22665 3.28974 0
M  V30 3601 H 341.376 2.8007 3.08139 0
M  V30 3602 H 343.973 1.05031 5.24283 0
M  V30 3603 H 344.316 -0.271584 4.15413 0
M  V30 3604 H 344.849 1.37419 3.73311 0
M  V30 3605 H 341.588 3.98636 5.20355 0
M  V30 3606 H 341.108 2.30651 5.53679 0
M  V30 3607 H 342.787 2.83004 5.81823 0
M  V30 3608 N 342.919 -1.39368 0.735821 0
M  V30 3609 C 344.168 -1.99733 0.281004 0
M  V30 3610 C 344.481 -1.59055 -1.13846 0
M  V30 3611 O 345.687 -2.12262 -1.69284 0
M  V30 3612 C 344.143 -3.57057 0.451462 0
M  V30 3613 C 343.751 -4.06697 1.87886 0
M  V30 3614 C 345.495 -4.2446 0.0584616 0
M  V30 3615 C 343.402 -5.56598 1.99883 0
M  V30 3616 H 342.332 -0.747163 0.101311 0
M  V30 3617 H 344.983 -1.59357 0.909819 0
M  V30 3618 H 343.365 -3.95234 -0.246263 0
M  V30 3619 H 344.539 -3.79853 2.60861 0
M  V30 3620 H 342.854 -3.5196 2.22515 0
M  V30 3621 H 345.451 -5.34549 0.127099 0
M  V30 3622 H 345.794 -4.04444 -0.986433 0
M  V30 3623 H 346.327 -3.9146 0.707374 0
M  V30 3624 H 343.066 -5.81494 3.02564 0
M  V30 3625 H 342.586 -5.85242 1.31346 0
M  V30 3626 H 344.265 -6.22022 1.78039 0
M  V30 3627 N 344.397 -0.483516 -1.5 0
M  V30 3628 C 345.344 0.304164 -2.28787 0
M  V30 3629 C 346.314 0.976114 -1.34392 0
M  V30 3630 O 347.499 0.986156 -1.63339 0
M  V30 3631 C 344.639 1.37298 -3.16612 0
M  V30 3632 C 343.752 0.714561 -4.26049 0
M  V30 3633 C 342.887 1.76232 -5.01114 0
M  V30 3634 C 341.926 1.08483 -6.0241 0
M  V30 3635 N 341.063 2.076 -6.70706 0
M  V30 3636 H 345.903 -0.373981 -2.95644 0
M  V30 3637 H 343.44 -0.196275 -1.45785 0
M  V30 3638 H 345.398 2.00445 -3.65893 0
M  V30 3639 H 344.028 2.02012 -2.51776 0
M  V30 3640 H 343.08 -0.0297798 -3.80388 0
M  V30 3641 H 344.392 0.180383 -4.98474 0
M  V30 3642 H 343.546 2.46929 -5.54176 0
M  V30 3643 H 342.285 2.33033 -4.28424 0
M  V30 3644 H 341.29 0.363545 -5.48597 0
M  V30 3645 H 342.515 0.523551 -6.77079 0
M  V30 3646 H 340.461 2.63394 -6.00799 0
M  V30 3647 H 340.378 1.59201 -7.39047 0
M  V30 3648 H 341.646 2.77639 -7.2838 0
M  V30 3649 N 345.875 1.56104 -0.216619 0
M  V30 3650 C 347.286 1.844 0.292128 0
M  V30 3651 C 347.637 1.13788 1.59833 0
M  V30 3652 O 346.762 0.405888 2.12559 0
M  V30 3653 C 347.357 3.3452 0.53681 0
M  V30 3654 C 345.916 3.63151 0.989876 0
M  V30 3655 C 345.063 2.77255 0.0502302 0
M  V30 3656 H 348.014 1.52481 -0.439926 0
M  V30 3657 H 348.035 3.54459 1.38345 0
M  V30 3658 H 347.547 3.85885 -0.414031 0
M  V30 3659 H 345.648 3.17238 1.95425 0
M  V30 3660 H 345.761 4.71177 0.867698 0
M  V30 3661 H 344.125 2.48555 0.556117 0
M  V30 3662 H 344.908 3.31416 -0.89544 0
M  V30 3663 N 347.353 -0.0568162 1.57498 0
M  V30 3664 C 348.63 -0.786954 1.79071 0
M  V30 3665 C 349.01 -1.95028 0.80792 0
M  V30 3666 O 348.358 -2.27968 -0.155858 0
M  V30 3667 C 348.568 -1.24594 3.26002 0
M  V30 3668 C 349.916 -1.67323 3.90241 0
M  V30 3669 O 350.94 -1.34124 3.29984 0
M  V30 3670 O 349.799 -2.28842 4.9628 0
M  V30 3671 H 346.893 -0.378262 0.735423 0
M  V30 3672 H 349.439 -0.035734 1.69662 0
M  V30 3673 H 348.211 -0.41423 3.89101 0
M  V30 3674 H 347.834 -2.05803 3.40192 0
M  V30 3675 N 348.832 -1.54138 -0.328536 0
M  V30 3676 C 350.243 -1.63395 -0.903272 0
M  V30 3677 C 350.594 -0.524828 -1.8905 0
M  V30 3678 O 349.719 0.343068 -2.13663 0
M  V30 3679 C 350.314 -2.9618 -1.64507 0
M  V30 3680 C 348.873 -3.0765 -2.1686 0
M  V30 3681 C 348.02 -2.58933 -0.992416 0
M  V30 3682 H 350.971 -1.58344 -0.106253 0
M  V30 3683 H 350.992 -2.86061 -2.50897 0
M  V30 3684 H 350.504 -3.76884 -0.926302 0
M  V30 3685 H 348.605 -2.31611 -2.91868 0
M  V30 3686 H 348.718 -4.1337 -2.42202 0
M  V30 3687 H 347.082 -2.14706 -1.37016 0
M  V30 3688 H 347.865 -3.42089 -0.288041 0
M  V30 3689 N 350.31 0.590341 -1.46126 0
M  V30 3690 C 351.721 1.17243 -1.45296 0
M  V30 3691 C 352.072 1.95281 -0.189723 0
M  V30 3692 O 351.197 2.04502 0.707674 0
M  V30 3693 C 351.792 2.13284 -2.6324 0
M  V30 3694 C 350.351 2.66832 -2.65476 0
M  V30 3695 C 349.498 1.42557 -2.3785 0
M  V30 3696 H 352.449 0.378692 -1.54116 0
M  V30 3697 H 352.47 2.96619 -2.38323 0
M  V30 3698 H 351.982 1.56459 -3.55165 0
M  V30 3699 H 350.083 3.27548 -1.77603 0
M  V30 3700 H 350.196 3.10088 -3.65215 0
M  V30 3701 H 348.56 1.72107 -1.87753 0
M  V30 3702 H 349.343 0.875741 -3.31942 0
M  V30 3703 N 351.788 1.33704 0.83433 0
M  V30 3704 C 352.735 1.24335 1.94447 0
M  V30 3705 C 353.705 0.120991 1.65659 0
M  V30 3706 O 354.89 0.300035 1.88426 0
M  V30 3707 C 352.03 0.993124 3.30501 0
M  V30 3708 C 351.143 2.20217 3.71657 0
M  V30 3709 C 350.278 1.88572 4.96602 0
M  V30 3710 C 349.317 3.05683 5.30306 0
M  V30 3711 N 348.454 2.73997 6.46429 0
M  V30 3712 H 353.294 2.1928 2.01792 0
M  V30 3713 H 350.831 1.09035 0.987404 0
M  V30 3714 H 352.789 0.828467 4.08892 0
M  V30 3715 H 351.419 0.0803902 3.227 0
M  V30 3716 H 350.471 2.47642 2.88752 0
M  V30 3717 H 351.783 3.07752 3.92543 0
M  V30 3718 H 350.937 1.68776 5.82752 0
M  V30 3719 H 349.676 0.982799 4.77695 0
M  V30 3720 H 348.681 3.26088 4.42659 0
M  V30 3721 H 349.906 3.96737 5.51159 0
M  V30 3722 H 347.852 1.86268 6.28999 0
M  V30 3723 H 347.769 3.55064 6.67432 0
M  V30 3724 H 349.037 2.57679 7.35678 0
M  V30 3725 N 353.266 -1.05314 1.17247 0
M  V30 3726 C 354.214 -2.15137 0.884238 0
M  V30 3727 C 355.208 -1.68729 -0.15063 0
M  V30 3728 O 356.414 -1.8 -0.00366673 0
M  V30 3729 H 352.789 -0.702471 0.2684 0
M  V30 3730 H 354.76 -2.36652 1.81764 0
M  V30 3731 C 353.509 -3.45243 0.412659 0
M  V30 3732 H 352.832 -3.81352 1.20043 0
M  V30 3733 H 354.272 -4.23263 0.249858 0
M  V30 3734 C 352.731 -3.25487 -0.86948 0
M  V30 3735 O 353.261 -3.51938 -1.93655 0
M  V30 3736 N 351.467 -2.78875 -0.817147 0
M  V30 3737 H 351.014 -2.57549 0.0514211 0
M  V30 3738 H 350.972 -2.66036 -1.67547 0
M  V30 3739 N 354.744 -0.972509 -1.24016 0
M  V30 3740 C 355.674 -0.525548 -2.27509 0
M  V30 3741 C 356.655 0.437262 -1.64384 0
M  V30 3742 O 357.84 0.332343 -1.91335 0
M  V30 3743 C 354.97 0.180448 -3.46831 0
M  V30 3744 C 353.924 -0.698859 -4.22256 0
M  V30 3745 C 353.25 0.138903 -5.3452 0
M  V30 3746 C 354.55 -1.98582 -4.83076 0
M  V30 3747 H 356.244 -1.39058 -2.65148 0
M  V30 3748 H 353.79 -0.67009 -1.27459 0
M  V30 3749 H 355.743 0.504387 -4.18371 0
M  V30 3750 H 354.467 1.07987 -3.08231 0
M  V30 3751 H 353.126 -1.00614 -3.52523 0
M  V30 3752 H 352.774 1.03862 -4.9216 0
M  V30 3753 H 352.474 -0.446259 -5.85903 0
M  V30 3754 H 353.998 0.457404 -6.08884 0
M  V30 3755 H 355.412 -1.72715 -5.46665 0
M  V30 3756 H 353.809 -2.5181 -5.44713 0
M  V30 3757 H 354.879 -2.67769 -4.04262 0
M  V30 3758 N 356.222 1.38976 -0.743202 0
M  V30 3759 C 357.154 2.29096 -0.0689228 0
M  V30 3760 C 358.167 1.47229 0.694791 0
M  V30 3761 O 359.356 1.70212 0.537597 0
M  V30 3762 C 356.456 3.25988 0.926548 0
M  V30 3763 C 355.629 4.36833 0.222647 0
M  V30 3764 C 354.688 5.13981 1.12739 0
M  V30 3765 O 353.714 5.6601 0.601795 0
M  V30 3766 N 354.916 5.25966 2.45641 0
M  V30 3767 H 357.681 2.87604 -0.842846 0
M  V30 3768 H 355.242 1.50645 -0.593109 0
M  V30 3769 H 357.234 3.74476 1.5346 0
M  V30 3770 H 355.804 2.68453 1.60162 0
M  V30 3771 H 355.024 3.90116 -0.565983 0
M  V30 3772 H 356.312 5.0811 -0.264841 0
M  V30 3773 H 355.71 4.85228 2.9081 0
M  V30 3774 H 354.267 5.77865 3.01522 0
M  V30 3775 N 357.7 0.491464 1.49741 0
M  V30 3776 C 358.63 -0.28154 2.31796 0
M  V30 3777 C 359.611 -0.971473 1.3963 0
M  V30 3778 O 360.796 -0.964719 1.68543 0
M  V30 3779 C 357.926 -1.35203 3.19902 0
M  V30 3780 C 356.88 -0.782529 4.20786 0
M  V30 3781 C 356.206 -1.95283 4.97764 0
M  V30 3782 C 357.506 0.21999 5.21837 0
M  V30 3783 H 359.2 0.403355 2.96671 0
M  V30 3784 H 356.746 0.195425 1.42668 0
M  V30 3785 H 358.699 -1.90045 3.76113 0
M  V30 3786 H 357.423 -2.06598 2.52953 0
M  V30 3787 H 356.082 -0.255928 3.65706 0
M  V30 3788 H 355.73 -2.65423 4.2727 0
M  V30 3789 H 355.43 -1.57789 5.66018 0
M  V30 3790 H 356.954 -2.50577 5.56816 0
M  V30 3791 H 358.368 -0.23996 5.72798 0
M  V30 3792 H 356.765 0.51026 5.97927 0
M  V30 3793 H 357.835 1.13911 4.7133 0
M  V30 3794 N 359.178 -1.55987 0.224894 0
M  V30 3795 C 360.125 -2.20436 -0.68385 0
M  V30 3796 C 361.095 -1.16102 -1.18783 0
M  V30 3797 O 362.28 -1.4447 -1.24632 0
M  V30 3798 C 359.42 -2.89076 -1.88491 0
M  V30 3799 C 358.533 -4.08012 -1.41951 0
M  V30 3800 C 357.668 -4.64426 -2.5784 0
M  V30 3801 C 356.707 -5.75656 -2.08053 0
M  V30 3802 N 355.844 -6.26347 -3.17227 0
M  V30 3803 H 360.684 -2.97727 -0.12754 0
M  V30 3804 H 358.221 -1.47011 -0.0511978 0
M  V30 3805 H 360.179 -3.27059 -2.59014 0
M  V30 3806 H 358.809 -2.14298 -2.41405 0
M  V30 3807 H 357.861 -3.75492 -0.609095 0
M  V30 3808 H 359.173 -4.88375 -1.01447 0
M  V30 3809 H 358.327 -5.04869 -3.3644 0
M  V30 3810 H 357.066 -3.83233 -3.01635 0
M  V30 3811 H 356.071 -5.34712 -1.27916 0
M  V30 3812 H 357.296 -6.58686 -1.65255 0
M  V30 3813 H 355.242 -5.48067 -3.60497 0
M  V30 3814 H 355.159 -7.01843 -2.80986 0
M  V30 3815 H 356.427 -6.71447 -3.95953 0
M  V30 3816 N 360.656 0.0484629 -1.57525 0
M  V30 3817 C 362.067 0.597486 -1.76881 0
M  V30 3818 C 362.418 1.76664 -0.853475 0
M  V30 3819 O 361.543 2.16357 -0.0433656 0
M  V30 3820 C 362.138 1.09066 -3.20765 0
M  V30 3821 C 360.697 1.58535 -3.41385 0
M  V30 3822 C 359.844 0.514868 -2.72478 0
M  V30 3823 H 362.795 -0.177758 -1.57701 0
M  V30 3824 H 362.816 1.95875 -3.2621 0
M  V30 3825 H 362.328 0.239521 -3.8736 0
M  V30 3826 H 360.429 2.45898 -2.79937 0
M  V30 3827 H 360.542 1.64622 -4.49929 0
M  V30 3828 H 358.906 0.965407 -2.35695 0
M  V30 3829 H 359.689 -0.32648 -3.41744 0
M  V30 3830 N 362.134 1.5431 0.320358 0
M  V30 3831 C 363.064 1.86912 1.3995 0
M  V30 3832 C 364.045 0.726211 1.53819 0
M  V30 3833 O 365.23 0.980233 1.67646 0
M  V30 3834 C 362.36 2.09932 2.7667 0
M  V30 3835 C 361.314 3.25776 2.77586 0
M  V30 3836 C 360.64 3.34173 4.17412 0
M  V30 3837 C 361.94 4.6335 2.41048 0
M  V30 3838 H 363.634 2.77292 1.12914 0
M  V30 3839 H 361.18 1.33421 0.541738 0
M  V30 3840 H 363.133 2.31324 3.52232 0
M  V30 3841 H 361.857 1.16304 3.0519 0
M  V30 3842 H 360.516 3.04276 2.04479 0
M  V30 3843 H 360.164 2.38098 4.43078 0
M  V30 3844 H 359.864 4.12033 4.18931 0
M  V30 3845 H 361.388 3.57803 4.94782 0
M  V30 3846 H 362.802 4.84602 3.06324 0
M  V30 3847 H 361.199 5.43782 2.53813 0
M  V30 3848 H 362.269 4.65381 1.36193 0
M  V30 3849 N 363.613 -0.582584 1.46437 0
M  V30 3850 C 364.56 -1.69164 1.5701 0
M  V30 3851 C 365.53 -1.60847 0.414403 0
M  V30 3852 O 366.715 -1.80058 0.631171 0
M  V30 3853 C 363.855 -3.075 1.56646 0
M  V30 3854 C 362.968 -3.2644 2.82951 0
M  V30 3855 C 362.103 -4.55026 2.7409 0
M  V30 3856 C 361.142 -4.6731 3.95333 0
M  V30 3857 N 360.279 -5.87221 3.84858 0
M  V30 3858 H 365.119 -1.59464 2.51744 0
M  V30 3859 H 362.656 -0.777186 1.24893 0
M  V30 3860 H 364.614 -3.8757 1.5442 0
M  V30 3861 H 363.244 -3.16096 0.654439 0
M  V30 3862 H 362.296 -2.39974 2.95155 0
M  V30 3863 H 363.608 -3.31385 3.72808 0
M  V30 3864 H 362.762 -5.43324 2.6997 0
M  V30 3865 H 361.501 -4.52519 1.81873 0
M  V30 3866 H 360.506 -3.77429 3.99784 0
M  V30 3867 H 361.731 -4.71595 4.88646 0
M  V30 3868 H 359.677 -5.85712 2.95427 0
M  V30 3869 H 359.594 -5.93435 4.6837 0
M  V30 3870 H 360.862 -6.7795 3.84713 0
M  V30 3871 N 365.091 -1.34144 -0.827227 0
M  V30 3872 C 366.039 -1.25364 -1.95925 0
M  V30 3873 C 367.033 -0.152608 -1.68711 0
M  V30 3874 O 368.239 -0.317311 -1.77181 0
M  V30 3875 H 364.614 -0.389342 -0.643364 0
M  V30 3876 H 366.585 -2.21045 -2.00454 0
M  V30 3877 C 365.334 -1.02158 -3.32354 0
M  V30 3878 H 364.657 -1.86111 -3.5384 0
M  V30 3879 H 366.097 -1.00048 -4.12027 0
M  V30 3880 C 364.556 0.275244 -3.35774 0
M  V30 3881 O 365.086 1.27806 -3.80826 0
M  V30 3882 N 363.292 0.306853 -2.88975 0
M  V30 3883 H 362.839 -0.509777 -2.52506 0
M  V30 3884 H 362.797 1.17432 -2.91646 0
M  V30 3885 N 366.569 1.04691 -1.17803 0
M  V30 3886 C 367.794 1.81984 -0.994813 0
M  V30 3887 C 368.219 1.82586 0.452112 0
M  V30 3888 O 367.577 1.23854 1.324 0
M  V30 3889 C 367.625 3.2575 -1.54659 0
M  V30 3890 O 366.729 4.05267 -0.763728 0
M  V30 3891 H 366.07 0.562483 -0.352857 0
M  V30 3892 H 368.6 1.3189 -1.56417 0
M  V30 3893 H 368.61 3.76541 -1.57102 0
M  V30 3894 H 367.285 3.24627 -2.59981 0
M  V30 3895 H 365.862 3.63972 -0.811108 0
M  V30 3896 N 368.047 0.979072 1.23499 0
M  V30 3897 C 369.463 0.687475 1.44034 0
M  V30 3898 C 369.663 -0.746801 1.8715 0
M  V30 3899 O 368.719 -1.51939 2.0167 0
M  V30 3900 C 370.032 1.68127 2.49307 0
M  V30 3901 C 371.58 1.69516 2.63122 0
M  V30 3902 C 372.055 2.67723 3.71603 0
M  V30 3903 N 373.546 2.66233 3.79044 0
M  V30 3904 C 374.281 3.38891 4.62537 0
M  V30 3905 N 373.777 4.21103 5.50131 0
M  V30 3906 N 375.57 3.27661 4.56721 0
M  V30 3907 H 367.721 1.90559 0.938135 0
M  V30 3908 H 369.984 0.821051 0.473897 0
M  V30 3909 H 369.69 2.70693 2.2454 0
M  V30 3910 H 369.564 1.46306 3.4767 0
M  V30 3911 H 371.951 0.676561 2.8724 0
M  V30 3912 H 372.032 1.95404 1.65079 0
M  V30 3913 H 371.676 3.69724 3.48233 0
M  V30 3914 H 371.606 2.39111 4.69184 0
M  V30 3915 H 374.097 2.06568 3.16446 0
M  V30 3916 H 374.41 4.73403 6.10827 0
M  V30 3917 H 372.755 4.25195 5.49759 0
M  V30 3918 H 375.946 2.62887 3.87309 0
M  V30 3919 H 376.119 3.84547 5.21562 0
M  V30 3920 N 369.525 -1.3858 0.750561 0
M  V30 3921 C 370.457 -2.29057 0.0810714 0
M  V30 3922 C 371.47 -1.47596 -0.686973 0
M  V30 3923 O 372.659 -1.70495 -0.528563 0
M  V30 3924 C 369.759 -3.26475 -0.909247 0
M  V30 3925 C 368.932 -4.36945 -0.199478 0
M  V30 3926 C 367.991 -5.14572 -1.10011 0
M  V30 3927 O 367.017 -5.66321 -0.57177 0
M  V30 3928 N 368.219 -5.27262 -2.42849 0
M  V30 3929 H 370.984 -2.87153 0.858087 0
M  V30 3930 H 368.545 -1.50328 0.60109 0
M  V30 3931 H 370.537 -3.75285 -1.51471 0
M  V30 3932 H 369.107 -2.69298 -1.58736 0
M  V30 3933 H 368.327 -3.8981 0.586664 0
M  V30 3934 H 369.615 -5.07963 0.291783 0
M  V30 3935 H 369.013 -4.86763 -2.88233 0
M  V30 3936 H 367.57 -5.79456 -2.98453 0
M  V30 3937 N 371.003 -0.499398 -1.49478 0
M  V30 3938 C 372.249 0.0457576 -2.02748 0
M  V30 3939 C 372.582 1.36793 -1.37846 0
M  V30 3940 O 371.857 1.87596 -0.513601 0
M  V30 3941 C 372.14 0.199986 -3.59544 0
M  V30 3942 C 371.993 -1.1452 -4.34977 0
M  V30 3943 C 373.312 0.94137 -4.29914 0
M  V30 3944 H 370.431 0.0151552 -0.736844 0
M  V30 3945 H 373.073 -0.650498 -1.78518 0
M  V30 3946 H 371.223 0.793007 -3.8032 0
M  V30 3947 H 372.895 -1.77697 -4.25701 0
M  V30 3948 H 371.138 -1.73488 -3.97598 0
M  V30 3949 H 371.809 -0.990607 -5.43039 0
M  V30 3950 H 374.285 0.43844 -4.13784 0
M  V30 3951 H 373.161 1.01812 -5.39375 0
M  V30 3952 H 373.422 1.98471 -3.95046 0
M  V30 3953 N 372.481 1.55866 -0.233164 0
M  V30 3954 C 373.391 2.24431 0.683217 0
M  V30 3955 C 374.407 1.2558 1.2044 0
M  V30 3956 O 375.583 1.58422 1.24356 0
M  V30 3957 C 372.648 2.91979 1.86947 0
M  V30 3958 C 371.709 4.06204 1.38912 0
M  V30 3959 C 370.942 4.70522 2.51883 0
M  V30 3960 O 371.165 4.33865 3.70293 0
M  V30 3961 O 370.099 5.59296 2.22423 0
M  V30 3962 H 373.925 3.03426 0.129059 0
M  V30 3963 H 371.51 1.494 -0.0022283 0
M  V30 3964 H 373.392 3.34573 2.56201 0
M  V30 3965 H 372.067 2.15935 2.41151 0
M  V30 3966 H 370.974 3.68155 0.664259 0
M  V30 3967 H 372.307 4.84025 0.893328 0
M  V30 3968 N 373.959 -0.0401083 1.57549 0
M  V30 3969 C 375.205 -0.734211 1.89043 0
M  V30 3970 C 375.538 -1.75591 0.829535 0
M  V30 3971 O 374.813 -1.93868 -0.156706 0
M  V30 3972 C 375.096 -1.41374 3.31188 0
M  V30 3973 C 374.949 -0.406299 4.47961 0
M  V30 3974 C 376.268 -2.35061 3.72068 0
M  V30 3975 H 373.387 -0.265447 0.687537 0
M  V30 3976 H 376.029 0.00294087 1.9 0
M  V30 3977 H 374.179 -2.04206 3.30503 0
M  V30 3978 H 375.851 0.219255 4.60779 0
M  V30 3979 H 374.094 0.275485 4.32924 0
M  V30 3980 H 374.765 -0.920022 5.44279 0
M  V30 3981 H 377.241 -1.82282 3.74049 0
M  V30 3982 H 376.117 -2.79593 4.72355 0
M  V30 3983 H 376.378 -3.21258 3.0372 0
M  V30 3984 N 375.437 -1.54477 -0.31217 0
M  V30 3985 C 376.662 -1.77526 -1.07235 0
M  V30 3986 C 377.087 -0.527775 -1.80544 0
M  V30 3987 O 376.445 0.52121 -1.73646 0
M  V30 3988 C 376.493 -2.97535 -2.03728 0
M  V30 3989 O 375.597 -2.69878 -3.11833 0
M  V30 3990 H 374.938 -0.58792 -0.30862 0
M  V30 3991 H 377.468 -2.01532 -0.352993 0
M  V30 3992 H 377.478 -3.25198 -2.46395 0
M  V30 3993 H 376.153 -3.87996 -1.49774 0
M  V30 3994 H 374.73 -2.53199 -2.7376 0
M  V30 3995 N 376.915 0.57481 -1.46744 0
M  V30 3996 C 378.161 1.33251 -1.53674 0
M  V30 3997 C 378.516 1.91468 -0.189125 0
M  V30 3998 O 377.809 1.73954 0.803151 0
M  V30 3999 C 378.003 2.476 -2.57738 0
M  V30 4000 C 377.832 2.00586 -4.02487 0
M  V30 4001 C 376.602 1.85237 -4.70123 0
M  V30 4002 C 378.8 1.56078 -4.90045 0
M  V30 4003 N 376.782 1.32377 -5.99458 0
M  V30 4004 C 378.153 1.14863 -6.09267 0
M  V30 4005 C 380.208 1.43968 -4.76632 0
M  V30 4006 C 378.911 0.627435 -7.16558 0
M  V30 4007 C 380.937 0.932512 -5.84002 0
M  V30 4008 C 380.299 0.53019 -7.02402 0
M  V30 4009 H 376.398 0.480284 -0.617131 0
M  V30 4010 H 378.982 0.653592 -1.83402 0
M  V30 4011 H 377.153 3.13045 -2.29907 0
M  V30 4012 H 378.885 3.14567 -2.54616 0
M  V30 4013 H 375.64 2.07423 -4.25761 0
M  V30 4014 H 376.064 1.08085 -6.68316 0
M  V30 4015 H 380.706 1.73689 -3.85476 0
M  V30 4016 H 378.424 0.317821 -8.07475 0
M  V30 4017 H 382.01 0.842611 -5.75666 0
M  V30 4018 H 380.89 0.14381 -7.84068 0
M  V30 4019 N 378.394 1.34581 0.820102 0
M  V30 4020 C 379.304 1.28471 1.96297 0
M  V30 4021 C 380.32 0.191902 1.72939 0
M  V30 4022 O 381.496 0.418879 1.96996 0
M  V30 4023 C 378.561 1.04281 3.30645 0
M  V30 4024 C 377.622 2.22745 3.66992 0
M  V30 4025 C 376.855 1.997 4.9493 0
M  V30 4026 O 377.078 0.956656 5.6232 0
M  V30 4027 O 376.012 2.86723 5.2922 0
M  V30 4028 H 379.838 2.24624 2.04396 0
M  V30 4029 H 377.423 1.14816 0.955913 0
M  V30 4030 H 379.305 0.925841 4.11104 0
M  V30 4031 H 377.98 0.111697 3.23507 0
M  V30 4032 H 376.887 2.40003 2.86966 0
M  V30 4033 H 378.22 3.14257 3.78819 0
M  V30 4034 N 379.872 -1.04064 1.18357 0
M  V30 4035 C 381.102 -1.80654 1.00238 0
M  V30 4036 C 381.51 -1.83713 -0.452362 0
M  V30 4037 O 380.853 -1.27135 -1.32599 0
M  V30 4038 C 380.915 -3.27582 1.48088 0
M  V30 4039 C 380.579 -3.48184 2.96002 0
M  V30 4040 C 381.576 -3.39372 3.93856 0
M  V30 4041 C 379.261 -3.7478 3.34433 0
M  V30 4042 C 381.255 -3.5686 5.28138 0
M  V30 4043 C 378.942 -3.91915 4.68877 0
M  V30 4044 C 379.94 -3.82956 5.65539 0
M  V30 4045 O 379.628 -3.996 6.97549 0
M  V30 4046 H 379.36 -0.575751 0.354241 0
M  V30 4047 H 381.914 -1.32044 1.57333 0
M  V30 4048 H 380.144 -3.77161 0.853588 0
M  V30 4049 H 381.833 -3.8573 1.2636 0
M  V30 4050 H 382.599 -3.18789 3.65511 0
M  V30 4051 H 378.478 -3.80852 2.59756 0
M  V30 4052 H 382.022 -3.49783 6.03571 0
M  V30 4053 H 377.919 -4.11992 4.96923 0
M  V30 4054 H 378.687 -4.1676 7.04452 0
M  V30 4055 N 381.35 -0.985608 -1.22978 0
M  V30 4056 C 382.761 -0.693593 -1.73338 0
M  V30 4057 C 383.112 0.789935 -1.79595 0
M  V30 4058 O 382.237 1.61771 -1.43733 0
M  V30 4059 C 382.832 -1.25235 -3.14804 0
M  V30 4060 C 381.391 -1.00987 -3.626 0
M  V30 4061 C 380.538 -1.37695 -2.40698 0
M  V30 4062 H 383.489 -1.15884 -1.08428 0
M  V30 4063 H 383.51 -0.627329 -3.75293 0
M  V30 4064 H 383.022 -2.33209 -3.10218 0
M  V30 4065 H 381.123 0.0535565 -3.72562 0
M  V30 4066 H 381.236 -1.66812 -4.49122 0
M  V30 4067 H 379.6 -0.795459 -2.4196 0
M  V30 4068 H 380.383 -2.46657 -2.38779 0
M  V30 4069 N 382.828 1.3818 -0.7579 0
M  V30 4070 C 384.105 1.94106 -0.241306 0
M  V30 4071 C 384.485 1.69282 1.26122 0
M  V30 4072 O 383.833 1.03378 2.03777 0
M  V30 4073 C 384.043 3.43809 -0.59967 0
M  V30 4074 C 385.391 4.20868 -0.561717 0
M  V30 4075 O 386.415 3.5211 -0.538222 0
M  V30 4076 O 385.274 5.43451 -0.576478 0
M  V30 4077 H 382.368 0.825376 -0.0518042 0
M  V30 4078 H 384.914 1.47548 -0.838315 0
M  V30 4079 H 383.686 3.55403 -1.6372 0
M  V30 4080 H 383.309 3.97592 0.0251197 0
M  V30 4081 N 384.306 0.507319 1.49211 0
M  V30 4082 C 385.534 -0.0315749 2.06876 0
M  V30 4083 C 385.949 -1.30241 1.36685 0
M  V30 4084 O 385.306 -1.76937 0.447152 0
M  V30 4085 C 385.357 -0.282627 3.60393 0
M  V30 4086 O 385.078 0.937835 4.27944 0
M  V30 4087 C 386.579 -0.864453 4.3479 0
M  V30 4088 H 383.799 0.0233048 0.670595 0
M  V30 4089 H 386.343 0.706484 1.91909 0
M  V30 4090 H 384.498 -0.97068 3.75042 0
M  V30 4091 H 384.912 0.704567 5.19746 0
M  V30 4092 H 386.386 -0.989664 5.43056 0
M  V30 4093 H 386.863 -1.86382 3.97692 0
M  V30 4094 H 387.469 -0.213672 4.24763 0
M  V30 4095 N 385.784 -1.5574 0.241426 0
M  V30 4096 C 387.03 -1.99846 -0.378555 0
M  V30 4097 C 387.385 -1.12665 -1.55963 0
M  V30 4098 O 386.678 -0.180966 -1.90743 0
M  V30 4099 C 386.872 -3.47308 -0.843317 0
M  V30 4100 C 386.701 -4.48756 0.291178 0
M  V30 4101 C 385.471 -4.9949 0.764077 0
M  V30 4102 C 387.669 -5.02039 1.11631 0
M  V30 4103 N 385.651 -5.84676 1.87156 0
M  V30 4104 C 387.022 -5.84343 2.07226 0
M  V30 4105 C 389.077 -4.84354 1.15349 0
M  V30 4106 C 387.78 -6.50851 3.06245 0
M  V30 4107 C 389.806 -5.51636 2.13195 0
M  V30 4108 C 389.168 -6.33724 3.07528 0
M  V30 4109 H 385.267 -0.774968 -0.104634 0
M  V30 4110 H 387.851 -1.91385 0.357751 0
M  V30 4111 H 386.022 -3.56178 -1.54893 0
M  V30 4112 H 387.754 -3.78299 -1.43779 0
M  V30 4113 H 384.509 -4.72311 0.349175 0
M  V30 4114 H 384.933 -6.31967 2.42789 0
M  V30 4115 H 389.575 -4.20525 0.438057 0
M  V30 4116 H 387.293 -7.1385 3.78739 0
M  V30 4117 H 390.879 -5.39909 2.16771 0
M  V30 4118 H 389.759 -6.84867 3.82003 0
M  V30 4119 N 387.262 0.0317525 -1.57568 0
M  V30 4120 C 388.487 0.738664 -1.938 0
M  V30 4121 C 388.912 1.68242 -0.841208 0
M  V30 4122 O 388.27 1.80157 0.203267 0
M  V30 4123 C 388.318 1.47417 -3.29091 0
M  V30 4124 O 387.422 2.5872 -3.2115 0
M  V30 4125 H 386.763 0.198856 -0.633524 0
M  V30 4126 H 389.293 -0.0119713 -2.04596 0
M  V30 4127 H 389.303 1.84468 -3.63917 0
M  V30 4128 H 387.978 0.781988 -4.08482 0
M  V30 4129 H 386.555 2.24231 -2.97951 0
M  V30 4130 N 388.74 1.54641 0.303973 0
M  V30 4131 C 389.968 1.77768 1.05858 0
M  V30 4132 C 390.383 0.535722 1.8104 0
M  V30 4133 O 389.74 -0.494337 1.75677 0
M  V30 4134 C 389.791 2.9834 2.04146 0
M  V30 4135 O 389.512 4.17736 1.32015 0
M  V30 4136 C 391.013 3.33832 2.91669 0
M  V30 4137 H 388.233 0.592961 0.314067 0
M  V30 4138 H 390.777 2.01583 0.344149 0
M  V30 4139 H 388.932 2.76742 2.71096 0
M  V30 4140 H 389.346 4.85693 1.97998 0
M  V30 4141 H 390.82 4.21448 3.56491 0
M  V30 4142 H 391.297 2.51857 3.59812 0
M  V30 4143 H 391.903 3.57579 2.30254 0
M  V30 4144 N 390.218 -0.567019 1.47046 0
M  V30 4145 C 391.629 -1.14916 1.47143 0
M  V30 4146 C 391.98 -1.94954 0.220767 0
M  V30 4147 O 391.105 -2.05602 -0.67505 0
M  V30 4148 C 391.7 -2.09069 2.666 0
M  V30 4149 C 390.259 -2.62575 2.69687 0
M  V30 4150 C 389.406 -1.38755 2.40088 0
M  V30 4151 H 392.357 -0.354126 1.54699 0
M  V30 4152 H 392.378 -2.92789 2.43011 0
M  V30 4153 H 391.89 -1.50789 3.57609 0
M  V30 4154 H 389.991 -3.24681 1.82792 0
M  V30 4155 H 390.104 -3.04239 3.70102 0
M  V30 4156 H 388.468 -1.69098 1.90468 0
M  V30 4157 H 389.251 -0.822822 3.33293 0
M  V30 4158 N 391.696 -1.35014 -0.812953 0
M  V30 4159 C 392.646 -1.23959 -1.91359 0
M  V30 4160 C 393.63 -0.136306 -1.60322 0
M  V30 4161 O 394.822 -0.366925 -1.73155 0
M  V30 4162 C 391.951 -1.00736 -3.28188 0
M  V30 4163 C 391.037 -2.15426 -3.65311 0
M  V30 4164 N 391.428 -3.40612 -3.73921 0
M  V30 4165 C 389.726 -2.06672 -3.95225 0
M  V30 4166 C 390.427 -4.15994 -4.06601 0
M  V30 4167 N 389.403 -3.44685 -4.20349 0
M  V30 4168 H 393.205 -2.18815 -1.96208 0
M  V30 4169 H 390.719 -1.27395 -1.00718 0
M  V30 4170 H 392.716 -0.909052 -4.06868 0
M  V30 4171 H 391.376 -0.067586 -3.2463 0
M  V30 4172 H 392.387 -3.75043 -3.5716 0
M  V30 4173 H 389.064 -1.20511 -3.99729 0
M  V30 4174 H 390.454 -5.24145 -4.20382 0
M  V30 4175 N 393.175 1.03435 -1.18907 0
M  V30 4176 C 394.4 1.80919 -1.01406 0
M  V30 4177 C 394.825 1.83055 0.432721 0
M  V30 4178 O 394.183 1.25252 1.31079 0
M  V30 4179 C 394.231 3.24091 -1.58105 0
M  V30 4180 O 393.335 4.04434 -0.806669 0
M  V30 4181 H 392.676 0.558709 -0.358803 0
M  V30 4182 H 395.206 1.30223 -1.57807 0
M  V30 4183 H 395.216 3.74853 -1.61087 0
M  V30 4184 H 393.891 3.21851 -2.6341 0
M  V30 4185 H 392.468 3.63091 -0.849666 0
M  V30 4186 N 394.653 0.992116 1.22453 0
M  V30 4187 C 395.883 0.684949 1.94915 0
M  V30 4188 C 396.291 -0.754292 1.73514 0
M  V30 4189 O 395.634 -1.52056 1.03076 0
M  V30 4190 C 395.696 0.910054 3.47791 0
M  V30 4191 C 395.36 2.33363 3.92926 0
M  V30 4192 C 396.357 3.31308 4.00663 0
M  V30 4193 C 394.042 2.66785 4.25595 0
M  V30 4194 C 396.036 4.6075 4.40441 0
M  V30 4195 C 393.723 3.96446 4.65053 0
M  V30 4196 C 394.721 4.9324 4.72444 0
M  V30 4197 O 394.409 6.20584 5.1101 0
M  V30 4198 H 394.141 0.25258 0.62704 0
M  V30 4199 H 396.695 1.32939 1.56577 0
M  V30 4200 H 394.925 0.208443 3.86138 0
M  V30 4201 H 396.614 0.598257 4.01467 0
M  V30 4202 H 397.38 3.0682 3.75615 0
M  V30 4203 H 393.259 1.92148 4.19047 0
M  V30 4204 H 396.803 5.363 4.46126 0
M  V30 4205 H 392.7 4.20724 4.89552 0
M  V30 4206 H 393.468 6.24509 5.29085 0
M  V30 4207 N 396.131 -1.37776 0.765217 0
M  V30 4208 C 397.378 -1.99849 0.326588 0
M  V30 4209 C 397.706 -1.60746 -1.09504 0
M  V30 4210 O 396.961 -0.84202 -1.76659 0
M  V30 4211 C 397.26 -3.5504 0.410053 0
M  V30 4212 C 396.926 -4.13891 1.78899 0
M  V30 4213 C 395.588 -4.29678 2.16635 0
M  V30 4214 C 397.94 -4.46236 2.69301 0
M  V30 4215 C 395.268 -4.7511 3.44221 0
M  V30 4216 C 397.62 -4.93089 3.9629 0
M  V30 4217 C 396.284 -5.07082 4.34078 0
M  V30 4218 H 395.554 -0.7313 0.119507 0
M  V30 4219 H 398.201 -1.64645 0.977968 0
M  V30 4220 H 396.506 -3.90451 -0.324878 0
M  V30 4221 H 398.203 -4.00966 0.0520699 0
M  V30 4222 H 394.793 -4.02026 1.48569 0
M  V30 4223 H 398.977 -4.3363 2.41409 0
M  V30 4224 H 394.233 -4.84129 3.73402 0
M  V30 4225 H 398.407 -5.17084 4.66472 0
M  V30 4226 H 396.034 -5.42046 5.33001 0
M  V30 4227 N 397.609 -0.515225 -1.4894 0
M  V30 4228 C 398.834 0.022727 -2.07388 0
M  V30 4229 C 399.259 1.2876 -1.37122 0
M  V30 4230 O 398.617 1.76067 -0.432431 0
M  V30 4231 C 398.665 0.244869 -3.59768 0
M  V30 4232 O 397.769 1.31667 -3.90817 0
M  V30 4233 H 397.11 -0.0325506 -0.663202 0
M  V30 4234 H 399.64 -0.718918 -1.91553 0
M  V30 4235 H 399.65 0.47205 -4.0526 0
M  V30 4236 H 398.325 -0.679194 -4.10317 0
M  V30 4237 H 396.902 1.07331 -3.5712 0
M  V30 4238 N 399.087 1.5561 -0.249682 0
M  V30 4239 C 400.017 2.24477 0.642826 0
M  V30 4240 C 400.998 1.22601 1.17911 0
M  V30 4241 O 402.183 1.5126 1.21795 0
M  V30 4242 C 399.313 2.94638 1.83863 0
M  V30 4243 C 398.267 4.03227 1.435 0
M  V30 4244 C 397.593 4.60828 2.71186 0
M  V30 4245 C 398.893 5.18796 0.604002 0
M  V30 4246 H 400.587 2.99321 0.0685625 0
M  V30 4247 H 398.133 1.43965 0.0315363 0
M  V30 4248 H 400.086 3.41517 2.46868 0
M  V30 4249 H 398.81 2.17287 2.43832 0
M  V30 4250 H 397.469 3.57121 0.828275 0
M  V30 4251 H 397.117 3.80174 3.29358 0
M  V30 4252 H 396.817 5.34132 2.44901 0
M  V30 4253 H 398.341 5.10442 3.35084 0
M  V30 4254 H 399.755 5.61883 1.13842 0
M  V30 4255 H 398.152 5.98506 0.437097 0
M  V30 4256 H 399.222 4.83384 -0.383147 0
M  V30 4257 N 400.565 -0.0233959 1.57583 0
M  V30 4258 C 401.793 -0.724682 1.93794 0
M  V30 4259 C 402.208 -1.68588 0.849912 0
M  V30 4260 O 401.565 -1.81676 -0.173204 0
M  V30 4261 C 401.616 -1.47684 3.29957 0
M  V30 4262 O 401.337 -0.554222 4.3458 0
M  V30 4263 C 402.838 -2.27477 3.80485 0
M  V30 4264 H 400.058 -0.203317 0.639455 0
M  V30 4265 H 402.602 0.0207653 2.04489 0
M  V30 4266 H 400.757 -2.17412 3.20641 0
M  V30 4267 H 401.171 -1.08232 5.13212 0
M  V30 4268 H 402.645 -2.7564 4.78254 0
M  V30 4269 H 403.122 -3.09144 3.11972 0
M  V30 4270 H 403.728 -1.62813 3.92902 0
M  V30 4271 N 402.043 -1.548 -0.295768 0
M  V30 4272 C 403.29 -1.74329 -1.03032 0
M  V30 4273 C 403.618 -0.531915 -1.87085 0
M  V30 4274 O 402.873 0.486052 -1.89568 0
M  V30 4275 C 403.172 -2.98797 -1.961 0
M  V30 4276 C 402.838 -4.32356 -1.2798 0
M  V30 4277 C 401.5 -4.68661 -1.09135 0
M  V30 4278 C 403.852 -5.15128 -0.793243 0
M  V30 4279 C 401.18 -5.85312 -0.403269 0
M  V30 4280 C 403.532 -6.32488 -0.118854 0
M  V30 4281 C 402.196 -6.6745 0.0815043 0
M  V30 4282 H 401.466 -0.637916 -0.37702 0
M  V30 4283 H 404.113 -1.8906 -0.304696 0
M  V30 4284 H 402.418 -2.78869 -2.75207 0
M  V30 4285 H 404.115 -3.11102 -2.53015 0
M  V30 4286 H 400.705 -4.03808 -1.43655 0
M  V30 4287 H 404.889 -4.87575 -0.92653 0
M  V30 4288 H 400.145 -6.1094 -0.237098 0
M  V30 4289 H 404.319 -6.95892 0.266035 0
M  V30 4290 H 401.946 -7.57695 0.616685 0
M  V30 4291 N 403.521 0.559213 -1.47345 0
M  V30 4292 C 404.761 1.32728 -1.55444 0
M  V30 4293 C 405.125 1.90838 -0.210895 0
M  V30 4294 O 406.326 2.68282 -0.166719 0
M  V30 4295 C 404.597 2.4092 -2.63993 0
M  V30 4296 S 406.156 3.2784 -2.91661 0
M  V30 4297 H 402.974 0.451883 -0.548929 0
M  V30 4298 H 405.576 0.640404 -1.84714 0
M  V30 4299 H 404.28 1.9666 -3.60212 0
M  V30 4300 H 403.811 3.14351 -2.36531 0
M  V30 4301 H 405.826 4.40341 -2.28722 0
M  V30 4302 N 404.999 1.35443 0.805782 0
M  V30 4303 C 406.245 1.28952 1.56522 0
M  V30 4304 C 406.578 -0.135597 1.93726 0
M  V30 4305 O 405.853 -1.08516 1.61414 0
M  V30 4306 C 406.136 2.19678 2.85331 0
M  V30 4307 C 405.989 3.7081 2.54598 0
M  V30 4308 C 407.308 2.09495 3.8704 0
M  V30 4309 H 404.427 0.469764 0.567883 0
M  V30 4310 H 407.069 1.65851 0.927001 0
M  V30 4311 H 405.219 1.8834 3.39795 0
M  V30 4312 H 406.891 4.12593 2.06312 0
M  V30 4313 H 405.134 3.91051 1.8778 0
M  V30 4314 H 405.805 4.29679 3.46525 0
M  V30 4315 H 408.281 2.37045 3.41978 0
M  V30 4316 H 407.157 2.75173 4.74943 0
M  V30 4317 H 407.418 1.07714 4.28777 0
M  V30 4318 N 406.477 -1.02803 1.19454 0
M  V30 4319 C 407.409 -2.11181 0.890807 0
M  V30 4320 C 408.422 -1.6238 -0.116829 0
M  V30 4321 O 409.611 -1.78144 0.112694 0
M  V30 4322 C 406.711 -3.37461 0.311942 0
M  V30 4323 C 405.884 -4.15446 1.36834 0
M  V30 4324 C 404.943 -5.20039 0.802864 0
M  V30 4325 O 403.969 -5.49602 1.48077 0
M  V30 4326 N 405.171 -5.79165 -0.393417 0
M  V30 4327 H 407.936 -2.37827 1.82369 0
M  V30 4328 H 405.497 -1.19101 1.09666 0
M  V30 4329 H 407.489 -4.0462 -0.0802225 0
M  V30 4330 H 406.059 -3.08156 -0.52524 0
M  V30 4331 H 405.279 -3.43423 1.93531 0
M  V30 4332 H 406.567 -4.64335 2.08015 0
M  V30 4333 H 405.965 -5.57466 -0.961658 0
M  V30 4334 H 404.522 -6.47729 -0.727351 0
M  V30 4335 N 407.956 -0.998596 -1.21925 0
M  V30 4336 C 409.202 -0.678667 -1.91107 0
M  V30 4337 C 409.535 0.78791 -1.77498 0
M  V30 4338 O 408.81 1.57043 -1.1475 0
M  V30 4339 C 409.093 -1.09245 -3.43129 0
M  V30 4340 C 408.946 -2.61801 -3.6576 0
M  V30 4341 C 410.265 -0.649984 -4.35274 0
M  V30 4342 H 407.384 -0.248025 -0.694012 0
M  V30 4343 H 410.026 -1.24314 -1.43688 0
M  V30 4344 H 408.176 -0.612171 -3.83647 0
M  V30 4345 H 409.848 -3.17543 -3.34611 0
M  V30 4346 H 408.091 -3.03609 -3.09845 0
M  V30 4347 H 408.762 -2.85804 -4.7225 0
M  V30 4348 H 411.238 -1.0626 -4.02303 0
M  V30 4349 H 410.114 -0.967743 -5.40302 0
M  V30 4350 H 410.375 0.449139 -4.39813 0
M  V30 4351 N 409.434 1.37368 -0.772513 0
M  V30 4352 C 410.366 2.28899 -0.117502 0
M  V30 4353 C 411.379 1.4867 0.663405 0
M  V30 4354 O 412.568 1.71314 0.501372 0
M  V30 4355 C 409.668 3.2788 0.857192 0
M  V30 4356 C 408.841 4.37207 0.129938 0
M  V30 4357 C 407.9 5.16257 1.01811 0
M  V30 4358 O 406.926 5.67159 0.481601 0
M  V30 4359 N 408.128 5.31058 2.3443 0
M  V30 4360 H 410.893 2.85752 -0.903662 0
M  V30 4361 H 408.454 1.49353 -0.62493 0
M  V30 4362 H 410.446 3.77647 1.45482 0
M  V30 4363 H 409.016 2.7179 1.54432 0
M  V30 4364 H 408.236 3.88827 -0.648605 0
M  V30 4365 H 409.524 5.07434 -0.372559 0
M  V30 4366 H 408.922 4.91287 2.80452 0
M  V30 4367 H 407.479 5.84131 2.89197 0
M  V30 4368 N 410.912 0.523116 1.48665 0
M  V30 4369 C 412.16 -0.0134497 2.02096 0
M  V30 4370 C 412.481 -1.35418 1.40311 0
M  V30 4371 O 411.751 -1.87543 0.566074 0
M  V30 4372 H 410.331 -0.00795915 0.746958 0
M  V30 4373 H 412.993 0.685388 1.82451 0
M  V30 4374 H 412.089 -0.126849 3.11842 0
M  V30 4375 N 412.39 -1.55475 0.257931 0
M  V30 4376 C 413.337 -2.21837 -0.636939 0
M  V30 4377 C 414.307 -1.18596 -1.16294 0
M  V30 4378 O 415.492 -1.47081 -1.21539 0
M  V30 4379 C 412.632 -2.9301 -1.82317 0
M  V30 4380 C 411.745 -4.10931 -1.33265 0
M  V30 4381 C 410.88 -4.69791 -2.47931 0
M  V30 4382 C 409.919 -5.7994 -1.95796 0
M  V30 4383 N 409.056 -6.32935 -3.0387 0
M  V30 4384 H 413.896 -2.9793 -0.0643591 0
M  V30 4385 H 411.433 -1.47086 -0.0200031 0
M  V30 4386 H 413.391 -3.3248 -2.52018 0
M  V30 4387 H 412.021 -2.1937 -2.36805 0
M  V30 4388 H 411.073 -3.76699 -0.52931 0
M  V30 4389 H 412.385 -4.90417 -0.910654 0
M  V30 4390 H 411.539 -5.11892 -3.25656 0
M  V30 4391 H 410.278 -3.89545 -2.93438 0
M  V30 4392 H 409.283 -5.37305 -1.16546 0
M  V30 4393 H 410.508 -6.62043 -1.51246 0
M  V30 4394 H 408.454 -5.55591 -3.48791 0
M  V30 4395 H 408.371 -7.07645 -2.66035 0
M  V30 4396 H 409.639 -6.79695 -3.81621 0
M  V30 4397 N 413.868 0.0150385 -1.57593 0
M  V30 4398 C 415.093 0.718067 -1.94573 0
M  V30 4399 C 415.518 1.6734 -0.859005 0
M  V30 4400 O 414.876 1.80362 0.184147 0
M  V30 4401 C 414.924 1.43918 -3.30636 0
M  V30 4402 O 414.028 2.55299 -3.23876 0
M  V30 4403 H 413.369 0.192125 -0.635597 0
M  V30 4404 H 415.899 -0.0336708 -2.04572 0
M  V30 4405 H 415.909 1.80598 -3.65853 0
M  V30 4406 H 414.584 0.738619 -4.09289 0
M  V30 4407 H 413.161 2.21058 -3.00312 0
M  V30 4408 N 415.346 1.54954 0.287554 0
M  V30 4409 C 416.293 1.86834 1.35505 0
M  V30 4410 C 417.263 0.718452 1.49758 0
M  V30 4411 O 418.448 0.968358 1.644 0
M  V30 4412 C 415.588 2.13303 2.71286 0
M  V30 4413 C 414.701 3.40883 2.65373 0
M  V30 4414 C 413.836 3.57125 3.93236 0
M  V30 4415 C 412.875 4.78449 3.81776 0
M  V30 4416 N 412.012 4.91426 5.01443 0
M  V30 4417 H 416.852 2.77889 1.07619 0
M  V30 4418 H 414.389 1.37593 0.520241 0
M  V30 4419 H 416.347 2.26646 3.50267 0
M  V30 4420 H 414.977 1.25499 2.97405 0
M  V30 4421 H 414.029 3.36088 1.78182 0
M  V30 4422 H 415.341 4.29993 2.52799 0
M  V30 4423 H 414.495 3.70207 4.80658 0
M  V30 4424 H 413.234 2.66173 4.0866 0
M  V30 4425 H 412.239 4.65386 2.92738 0
M  V30 4426 H 413.464 5.70822 3.67884 0
M  V30 4427 H 411.41 4.03401 5.17304 0
M  V30 4428 H 411.327 5.74559 4.91343 0
M  V30 4429 H 412.595 5.08879 5.90477 0
M  V30 4430 N 416.824 -0.551391 1.4764 0
M  V30 4431 C 418.24 -0.877887 1.33287 0
M  V30 4432 C 418.44 -1.98817 0.327721 0
M  V30 4433 O 417.496 -2.51171 -0.258695 0
M  V30 4434 C 418.809 -1.26563 2.72768 0
M  V30 4435 C 420.357 -1.37673 2.81097 0
M  V30 4436 C 420.832 -1.79799 4.21232 0
M  V30 4437 N 422.323 -1.8694 4.23802 0
M  V30 4438 C 423.058 -2.20876 5.29151 0
M  V30 4439 N 422.554 -2.53386 6.448 0
M  V30 4440 N 424.347 -2.217 5.16532 0
M  V30 4441 H 416.498 0.18153 2.11623 0
M  V30 4442 H 418.761 0.0185514 0.947818 0
M  V30 4443 H 418.467 -0.523591 3.47781 0
M  V30 4444 H 418.341 -2.22052 3.04915 0
M  V30 4445 H 420.728 -2.10956 2.06353 0
M  V30 4446 H 420.809 -0.40357 2.52596 0
M  V30 4447 H 420.453 -1.07083 4.96483 0
M  V30 4448 H 420.383 -2.78128 4.4716 0
M  V30 4449 H 422.874 -1.64179 3.40373 0
M  V30 4450 H 423.187 -2.78325 7.20941 0
M  V30 4451 H 421.532 -2.50953 6.48111 0
M  V30 4452 H 424.723 -1.95745 4.25207 0
M  V30 4453 H 424.896 -2.47818 5.98741 0
M  V30 4454 N 418.302 -1.35869 -0.798587 0
M  V30 4455 C 419.212 -1.31578 -1.94228 0
M  V30 4456 C 420.228 -0.21939 -1.72611 0
M  V30 4457 O 421.404 -0.450167 -1.96305 0
M  V30 4458 C 418.469 -1.09528 -3.28944 0
M  V30 4459 C 417.53 -2.28556 -3.63402 0
M  V30 4460 C 416.763 -2.07549 -4.9169 0
M  V30 4461 O 416.986 -1.046 -5.60727 0
M  V30 4462 O 415.92 -2.95106 -5.24591 0
M  V30 4463 H 419.746 -2.27847 -2.00796 0
M  V30 4464 H 417.331 -1.16322 -0.937526 0
M  V30 4465 H 419.213 -0.991127 -4.09579 0
M  V30 4466 H 417.888 -0.16315 -3.23289 0
M  V30 4467 H 416.795 -2.44538 -2.83112 0
M  V30 4468 H 418.128 -3.20244 -3.73771 0
M  V30 4469 N 419.78 1.02168 -1.19998 0
M  V30 4470 C 420.727 2.10601 -0.944228 0
M  V30 4471 C 421.697 1.65639 0.123664 0
M  V30 4472 O 422.882 1.9079 -0.0199941 0
M  V30 4473 C 420.022 3.41504 -0.496865 0
M  V30 4474 C 419.135 3.99973 -1.63234 0
M  V30 4475 C 418.27 5.18915 -1.13579 0
M  V30 4476 C 417.309 5.69456 -2.24468 0
M  V30 4477 N 416.446 6.79665 -1.76068 0
M  V30 4478 H 421.286 2.31814 -1.8726 0
M  V30 4479 H 418.823 1.13686 -0.933483 0
M  V30 4480 H 420.781 4.16626 -0.218843 0
M  V30 4481 H 419.411 3.2038 0.394508 0
M  V30 4482 H 418.463 3.21997 -2.0254 0
M  V30 4483 H 419.775 4.33492 -2.46752 0
M  V30 4484 H 418.929 6.01222 -0.813429 0
M  V30 4485 H 417.668 4.8695 -0.270434 0
M  V30 4486 H 416.673 4.85757 -2.57526 0
M  V30 4487 H 417.898 6.03459 -3.11472 0
M  V30 4488 H 415.844 6.49538 -0.918516 0
M  V30 4489 H 415.761 7.12349 -2.5317 0
M  V30 4490 H 417.029 7.65549 -1.46817 0
M  V30 4491 N 421.258 1.00505 1.21394 0
M  V30 4492 C 422.205 0.565496 2.23765 0
M  V30 4493 C 423.175 -0.408466 1.60999 0
M  V30 4494 O 424.36 -0.310503 1.88257 0
M  V30 4495 C 421.5 -0.101667 3.4495 0
M  V30 4496 C 420.613 0.915479 4.22188 0
M  V30 4497 C 419.748 0.220574 5.30742 0
M  V30 4498 C 418.787 1.22527 5.99711 0
M  V30 4499 N 417.924 0.557831 6.9988 0
M  V30 4500 H 422.764 1.44314 2.60725 0
M  V30 4501 H 420.301 0.722643 1.28126 0
M  V30 4502 H 422.259 -0.505504 4.14126 0
M  V30 4503 H 420.889 -0.94303 3.08718 0
M  V30 4504 H 419.941 1.43756 3.52191 0
M  V30 4505 H 421.253 1.68005 4.69655 0
M  V30 4506 H 420.407 -0.239368 6.06228 0
M  V30 4507 H 419.146 -0.576401 4.84282 0
M  V30 4508 H 418.151 1.69571 5.22997 0
M  V30 4509 H 419.376 2.02332 6.48258 0
M  V30 4510 H 417.322 -0.219486 6.55633 0
M  V30 4511 H 417.239 1.26065 7.45415 0
M  V30 4512 H 418.507 0.121095 7.79406 0
M  V30 4513 N 422.737 -1.36956 0.779787 0
M  V30 4514 C 424.014 -1.93697 0.272156 0
M  V30 4515 C 424.394 -1.71267 -1.23413 0
M  V30 4516 O 423.742 -1.06607 -2.02107 0
M  V30 4517 C 423.952 -3.42812 0.654291 0
M  V30 4518 C 425.3 -4.19921 0.628602 0
M  V30 4519 O 426.324 -3.51209 0.594172 0
M  V30 4520 O 425.183 -5.42465 0.662864 0
M  V30 4521 H 422.277 -0.824447 0.0649286 0
M  V30 4522 H 424.823 -1.46196 0.861682 0
M  V30 4523 H 423.595 -3.52754 1.69353 0
M  V30 4524 H 423.218 -3.97582 0.0381369 0
M  V30 4525 N 424.215 -0.530993 -1.48385 0
M  V30 4526 C 425.631 -0.188919 -1.58478 0
M  V30 4527 C 425.831 1.30786 -1.53288 0
M  V30 4528 O 424.887 2.08619 -1.42248 0
M  V30 4529 C 426.2 -0.792343 -2.90073 0
M  V30 4530 C 427.748 -0.76117 -3.03604 0
M  V30 4531 C 428.223 -1.34319 -4.37861 0
M  V30 4532 N 429.714 -1.3052 -4.44431 0
M  V30 4533 C 430.449 -1.72543 -5.46824 0
M  V30 4534 N 429.945 -2.22299 -6.56167 0
M  V30 4535 N 431.738 -1.63773 -5.37712 0
M  V30 4536 H 423.889 -1.50377 -1.50002 0
M  V30 4537 H 426.152 -0.625559 -0.712306 0
M  V30 4538 H 425.858 -1.84323 -2.99529 0
M  V30 4539 H 425.732 -0.270026 -3.76232 0
M  V30 4540 H 428.119 0.280957 -2.93759 0
M  V30 4541 H 428.2 -1.32097 -2.19053 0
M  V30 4542 H 427.844 -2.38425 -4.4846 0
M  V30 4543 H 427.774 -0.759064 -5.21101 0
M  V30 4544 H 430.265 -0.940973 -3.65997 0
M  V30 4545 H 430.578 -2.52356 -7.30436 0
M  V30 4546 H 428.923 -2.26293 -6.57127 0
M  V30 4547 H 432.114 -1.24698 -4.51185 0
M  V30 4548 H 432.287 -1.96844 -6.17379 0
M  V30 4549 N 425.693 1.55336 -0.266172 0
M  V30 4550 C 426.939 1.99692 0.353681 0
M  V30 4551 C 427.272 1.1543 1.56172 0
M  V30 4552 O 426.547 0.222218 1.93226 0
M  V30 4553 C 426.83 3.52316 0.74466 0
M  V30 4554 C 426.683 4.47337 -0.470101 0
M  V30 4555 C 428.002 4.10588 1.58447 0
M  V30 4556 H 425.121 0.725961 0.12708 0
M  V30 4557 H 427.763 1.86336 -0.371333 0
M  V30 4558 H 425.913 3.63829 1.36239 0
M  V30 4559 H 427.585 4.4778 -1.10864 0
M  V30 4560 H 425.828 4.19364 -1.10978 0
M  V30 4561 H 426.499 5.51788 -0.15291 0
M  V30 4562 H 428.975 4.02297 1.06286 0
M  V30 4563 H 427.851 5.17607 1.82686 0
M  V30 4564 H 428.112 3.60253 2.56262 0
M  V30 4565 N 427.171 -0.0066808 1.57599 0
M  V30 4566 C 428.418 -0.69292 1.90276 0
M  V30 4567 C 428.746 -1.74148 0.866192 0
M  V30 4568 O 428.001 -1.95268 -0.129933 0
M  V30 4569 C 428.3 -1.37939 3.29708 0
M  V30 4570 C 427.966 -0.464679 4.48499 0
M  V30 4571 C 426.628 -0.212809 4.80729 0
M  V30 4572 C 428.98 0.16551 5.20937 0
M  V30 4573 C 426.308 0.677653 5.82773 0
M  V30 4574 C 428.66 1.04381 6.23929 0
M  V30 4575 C 427.324 1.30492 6.54621 0
M  V30 4576 H 426.594 -0.253558 0.696268 0
M  V30 4577 H 429.241 0.0474123 1.91441 0
M  V30 4578 H 427.546 -2.1936 3.24636 0
M  V30 4579 H 429.243 -1.9163 3.52249 0
M  V30 4580 H 425.833 -0.671153 4.23313 0
M  V30 4581 H 430.017 -0.0160756 4.96297 0
M  V30 4582 H 425.273 0.88803 6.04917 0
M  V30 4583 H 429.447 1.53851 6.79193 0
M  V30 4584 H 427.074 1.99662 7.33512 0
M  V30 4585 N 428.649 -1.55105 -0.279332 0
M  V30 4586 C 429.877 -1.7943 -1.03017 0
M  V30 4587 C 430.292 -0.564456 -1.80165 0
M  V30 4588 O 429.649 0.466326 -1.76442 0
M  V30 4589 C 429.7 -3.0155 -1.99374 0
M  V30 4590 O 429.421 -4.19784 -1.25352 0
M  V30 4591 C 430.922 -3.3843 -2.86321 0
M  V30 4592 H 428.142 -0.597882 -0.304594 0
M  V30 4593 H 430.686 -2.02105 -0.312035 0
M  V30 4594 H 428.841 -2.81019 -2.66659 0
M  V30 4595 H 429.255 -4.88781 -1.90246 0
M  V30 4596 H 430.729 -4.27066 -3.49741 0
M  V30 4597 H 431.206 -2.57549 -3.5576 0
M  V30 4598 H 431.812 -3.61197 -2.24536 0
M  V30 4599 N 430.127 0.543554 -1.4793 0
M  V30 4600 C 431.404 1.30458 -1.4574 0
M  V30 4601 C 431.784 2.1048 -0.161692 0
M  V30 4602 O 431.132 2.11831 0.856734 0
M  V30 4603 C 431.342 2.19754 -2.71126 0
M  V30 4604 C 432.69 2.80334 -3.18901 0
M  V30 4605 O 433.714 2.30049 -2.71948 0
M  V30 4606 O 432.573 3.71766 -4.00565 0
M  V30 4607 H 429.667 0.588117 -0.581418 0
M  V30 4608 H 432.213 0.561328 -1.60147 0
M  V30 4609 H 430.985 1.60316 -3.56952 0
M  V30 4610 H 430.608 3.01351 -2.59371 0
M  V30 4611 N 431.605 1.3629 0.791371 0
M  V30 4612 C 432.552 1.30458 1.90393 0
M  V30 4613 C 433.522 0.173632 1.6519 0
M  V30 4614 O 434.707 0.35983 1.87376 0
M  V30 4615 C 431.847 1.09777 3.27174 0
M  V30 4616 C 430.96 2.31929 3.64462 0
M  V30 4617 C 430.095 2.04276 4.90352 0
M  V30 4618 C 429.134 3.224 5.20312 0
M  V30 4619 N 428.271 2.94424 6.37385 0
M  V30 4620 H 433.111 2.25589 1.94714 0
M  V30 4621 H 430.648 1.12122 0.952216 0
M  V30 4622 H 432.606 0.958133 4.06049 0
M  V30 4623 H 431.236 0.183014 3.22281 0
M  V30 4624 H 430.288 2.56703 2.80727 0
M  V30 4625 H 431.6 3.20085 3.82553 0
M  V30 4626 H 430.754 1.87231 5.77087 0
M  V30 4627 H 429.493 1.13428 4.74326 0
M  V30 4628 H 428.498 3.40005 4.32061 0
M  V30 4629 H 429.723 4.14071 5.38258 0
M  V30 4630 H 427.669 2.06185 6.22755 0
M  V30 4631 H 427.586 3.76118 6.55798 0
M  V30 4632 H 428.854 2.80953 7.27108 0
M  V30 4633 N 433.083 -1.0153 1.20538 0
M  V30 4634 C 434.311 -1.78746 1.04199 0
M  V30 4635 C 434.726 -1.84323 -0.408733 0
M  V30 4636 O 434.083 -1.29714 -1.28377 0
M  V30 4637 C 434.134 -3.23152 1.62035 0
M  V30 4638 O 433.855 -3.17918 3.0143 0
M  V30 4639 C 435.356 -4.16911 1.50666 0
M  V30 4640 H 432.576 -0.56208 0.366479 0
M  V30 4641 H 435.12 -1.27794 1.59653 0
M  V30 4642 H 433.275 -3.71248 1.10697 0
M  V30 4643 H 433.689 -4.08567 3.28897 0
M  V30 4644 H 435.163 -5.16072 1.95892 0
M  V30 4645 H 435.64 -4.36791 0.459363 0
M  V30 4646 H 436.246 -3.74698 2.01201 0
M  V30 4647 N 434.561 -1.01147 -1.20859 0
M  V30 4648 C 435.786 -0.716698 -1.94623 0
M  V30 4649 C 436.211 0.715415 -1.73964 0
M  V30 4650 O 435.569 1.49157 -1.03062 0
M  V30 4651 C 435.617 -1.0513 -3.44935 0
M  V30 4652 O 434.721 -0.160131 -4.12089 0
M  V30 4653 H 434.062 -0.266404 -0.608214 0
M  V30 4654 H 436.592 -1.35346 -1.53436 0
M  V30 4655 H 436.602 -1.00086 -3.95533 0
M  V30 4656 H 435.277 -2.09475 -3.59295 0
M  V30 4657 H 433.854 -0.267657 -3.71938 0
M  V30 4658 N 436.039 1.36541 -0.78704 0
M  V30 4659 C 437.002 2.28413 -0.189778 0
M  V30 4660 C 438.002 1.48719 0.611499 0
M  V30 4661 O 439.192 1.68737 0.432842 0
M  V30 4662 C 436.324 3.32824 0.737638 0
M  V30 4663 H 437.517 2.82743 -0.999831 0
M  V30 4664 H 435.07 1.46065 -0.556298 0
M  V30 4665 H 435.805 2.83646 1.57212 0
M  V30 4666 H 435.59 3.91752 0.165044 0
M  V30 4667 H 437.08 4.0144 1.15047 0
M  V30 4668 N 437.518 0.538854 1.48102 0
M  V30 4669 C 438.746 0.0123136 2.06896 0
M  V30 4670 C 439.161 -1.27312 1.39417 0
M  V30 4671 O 438.518 -1.75949 0.484582 0
M  V30 4672 C 438.569 -0.206118 3.60912 0
M  V30 4673 O 438.29 1.0284 4.25859 0
M  V30 4674 C 439.791 -0.772033 4.36526 0
M  V30 4675 H 437.011 0.0375239 0.66995 0
M  V30 4676 H 439.555 0.747032 1.90367 0
M  V30 4677 H 437.71 -0.89091 3.77017 0
M  V30 4678 H 438.124 0.814654 5.18135 0
M  V30 4679 H 439.598 -0.874251 5.45033 0
M  V30 4680 H 440.075 -1.77904 4.01555 0
M  V30 4681 H 440.681 -0.123526 4.25121 0
M  V30 4682 N 438.996 -1.55193 0.274407 0
M  V30 4683 C 440.242 -1.99877 -0.343086 0
M  V30 4684 C 440.575 -1.16256 -1.55558 0
M  V30 4685 O 439.85 -0.232462 -1.93106 0
M  V30 4686 C 440.133 -3.52706 -0.725965 0
M  V30 4687 C 439.986 -4.47081 0.493818 0
M  V30 4688 C 441.305 -4.11422 -1.56268 0
M  V30 4689 H 438.424 -0.726625 -0.123229 0
M  V30 4690 H 441.066 -1.86136 0.38121 0
M  V30 4691 H 439.216 -3.64546 -1.34307 0
M  V30 4692 H 440.888 -4.47186 1.13237 0
M  V30 4693 H 439.131 -4.1877 1.13201 0
M  V30 4694 H 439.802 -5.51699 0.18217 0
M  V30 4695 H 442.278 -4.02855 -1.04151 0
M  V30 4696 H 441.154 -5.18568 -1.79939 0
M  V30 4697 H 441.415 -3.61607 -2.54348 0
M  V30 4698 N 440.474 -0.00167713 -1.576 0
M  V30 4699 C 441.723 0.682021 -1.89819 0
M  V30 4700 C 442.036 1.74844 -0.876871 0
M  V30 4701 O 443.242 2.48688 -1.08934 0
M  V30 4702 C 441.698 1.26425 -3.36964 0
M  V30 4703 C 441.306 0.232568 -4.47396 0
M  V30 4704 C 443.05 1.92604 -3.78291 0
M  V30 4705 C 440.957 0.824882 -5.85619 0
M  V30 4706 H 439.887 0.258499 -0.708304 0
M  V30 4707 H 442.538 -0.0624957 -1.83394 0
M  V30 4708 H 440.92 2.05949 -3.38232 0
M  V30 4709 H 442.094 -0.5382 -4.57646 0
M  V30 4710 H 440.409 -0.32888 -4.15099 0
M  V30 4711 H 443.006 2.37827 -4.78897 0
M  V30 4712 H 443.349 2.75732 -3.11894 0
M  V30 4713 H 443.882 1.19812 -3.79328 0
M  V30 4714 H 440.621 0.0323542 -6.55492 0
M  V30 4715 H 440.141 1.56477 -5.79029 0
M  V30 4716 H 441.82 1.32301 -6.33329 0
M  V30 4717 N 441.952 1.55251 0.271103 0
M  V30 4718 C 443.192 1.77698 1.01008 0
M  V30 4719 C 443.556 0.567246 1.83429 0
M  V30 4720 O 444.757 0.670013 2.60316 0
M  V30 4721 C 443.028 3.04715 1.86772 0
M  V30 4722 S 444.587 3.48289 2.66909 0
M  V30 4723 H 441.405 0.624343 0.340172 0
M  V30 4724 H 444.007 1.9348 0.280315 0
M  V30 4725 H 442.711 3.90853 1.25149 0
M  V30 4726 H 442.242 2.91604 2.64066 0
M  V30 4727 H 444.257 3.07712 3.89266 0
M  V30 4728 N 443.43 -0.535701 1.48216 0
M  V30 4729 C 444.846 -0.863701 1.3421 0
M  V30 4730 C 445.046 -1.98458 0.34879 0
M  V30 4731 O 444.102 -2.51432 -0.23204 0
M  V30 4732 C 445.415 -1.23662 2.74095 0
M  V30 4733 C 446.963 -1.34683 2.82541 0
M  V30 4734 C 447.438 -1.75322 4.23115 0
M  V30 4735 N 448.929 -1.82434 4.2576 0
M  V30 4736 C 449.664 -2.15252 5.31464 0
M  V30 4737 N 449.16 -2.46533 6.47452 0
M  V30 4738 N 450.953 -2.16209 5.18855 0
M  V30 4739 H 443.104 0.203965 2.11418 0
M  V30 4740 H 445.367 0.0286033 0.947568 0
M  V30 4741 H 445.073 -0.486674 3.48316 0
M  V30 4742 H 444.947 -2.18805 3.07253 0
M  V30 4743 H 447.334 -2.08756 2.08579 0
M  V30 4744 H 447.415 -0.376756 2.5301 0
M  V30 4745 H 447.059 -1.01812 4.97591 0
M  V30 4746 H 446.989 -2.7337 4.50085 0
M  V30 4747 H 449.48 -1.6056 3.42095 0
M  V30 4748 H 449.793 -2.70662 7.23852 0
M  V30 4749 H 448.138 -2.44065 6.50736 0
M  V30 4750 H 451.329 -1.91224 4.2726 0
M  V30 4751 H 451.502 -2.41453 6.01335 0
M  V30 4752 N 444.908 -1.36708 -0.784132 0
M  V30 4753 C 445.855 -1.31466 -1.89698 0
M  V30 4754 C 446.825 -0.18239 -1.65096 0
M  V30 4755 O 448.01 -0.369762 -1.87183 0
M  V30 4756 C 445.15 -1.1151 -3.26588 0
M  V30 4757 C 444.263 -2.33859 -3.63227 0
M  V30 4758 C 443.398 -2.06873 -4.89262 0
M  V30 4759 C 442.437 -3.25154 -5.18595 0
M  V30 4760 N 441.574 -2.978 -6.35814 0
M  V30 4761 H 446.414 -2.26619 -1.93515 0
M  V30 4762 H 443.951 -1.12625 -0.946256 0
M  V30 4763 H 445.909 -0.979653 -4.05535 0
M  V30 4764 H 444.539 -0.200103 -3.22179 0
M  V30 4765 H 443.591 -2.58188 -2.79362 0
M  V30 4766 H 444.903 -3.22109 -3.8085 0
M  V30 4767 H 444.057 -1.90289 -5.76086 0
M  V30 4768 H 442.796 -1.15942 -4.73718 0
M  V30 4769 H 441.801 -3.42292 -4.30251 0
M  V30 4770 H 443.026 -4.1692 -5.36055 0
M  V30 4771 H 440.972 -2.09485 -6.21653 0
M  V30 4772 H 440.889 -3.7959 -6.53794 0
M  V30 4773 H 442.157 -2.84805 -7.25607 0
M  V30 4774 N 446.386 1.0089 -1.21074 0
M  V30 4775 C 447.334 2.11707 -0.963476 0
M  V30 4776 C 448.328 1.69172 0.0879032 0
M  V30 4777 O 449.534 1.79889 -0.0631415 0
M  V30 4778 H 445.909 0.692026 -0.294287 0
M  V30 4779 H 447.88 2.29743 -1.90422 0
M  V30 4780 C 446.629 3.43473 -0.540509 0
M  V30 4781 H 445.952 3.76634 -1.34114 0
M  V30 4782 H 447.392 4.22044 -0.406777 0
M  V30 4783 C 445.851 3.2849 0.748079 0
M  V30 4784 O 446.381 3.58883 1.8046 0
M  V30 4785 N 444.587 2.81715 0.713081 0
M  V30 4786 H 444.134 2.5718 -0.146973 0
M  V30 4787 H 444.092 2.72071 1.57558 0
M  V30 4788 N 447.864 1.01787 1.20321 0
M  V30 4789 C 448.827 0.593972 2.2137 0
M  V30 4790 C 449.827 -0.336553 1.57239 0
M  V30 4791 O 451.017 -0.125069 1.7375 0
M  V30 4792 C 448.149 -0.132433 3.40643 0
M  V30 4793 H 449.342 1.48791 2.60387 0
M  V30 4794 H 446.895 0.807803 1.33807 0
M  V30 4795 H 447.63 -1.04123 3.0713 0
M  V30 4796 H 447.415 0.53605 3.88418 0
M  V30 4797 H 448.905 -0.416314 4.1552 0
M  V30 4798 N 449.342 -1.36122 0.79427 0
M  V30 4799 C 450.567 -2.03891 0.379871 0
M  V30 4800 C 450.992 -1.59488 -0.997251 0
M  V30 4801 O 450.35 -0.765652 -1.64339 0
M  V30 4802 C 450.398 -3.57687 0.457442 0
M  V30 4803 O 449.502 -4.08931 -0.5338 0
M  V30 4804 H 448.843 -0.6443 0.160541 0
M  V30 4805 H 451.373 -1.73976 1.07673 0
M  V30 4806 H 451.383 -4.06721 0.322792 0
M  V30 4807 H 450.058 -3.89357 1.46199 0
M  V30 4808 H 448.635 -3.71154 -0.360409 0
M  V30 4809 N 450.82 -0.546701 -1.47814 0
M  V30 4810 C 452.069 -0.0166497 -2.01693 0
M  V30 4811 C 452.382 1.33721 -1.42752 0
M  V30 4812 O 453.588 1.95658 -1.8823 0
M  V30 4813 C 452.044 0.0206769 -3.59894 0
M  V30 4814 C 451.652 -1.3293 -4.27824 0
M  V30 4815 C 453.396 0.498674 -4.21561 0
M  V30 4816 C 451.303 -1.25165 -5.78003 0
M  V30 4817 H 450.233 -0.0024541 -0.753996 0
M  V30 4818 H 452.884 -0.692984 -1.69912 0
M  V30 4819 H 451.266 0.76244 -3.88591 0
M  V30 4820 H 452.44 -2.08795 -4.10781 0
M  V30 4821 H 450.755 -1.74438 -3.78101 0
M  V30 4822 H 453.352 0.575 -5.31599 0
M  V30 4823 H 453.695 1.5083 -3.88016 0
M  V30 4824 H 454.228 -0.18791 -3.97356 0
M  V30 4825 H 450.967 -2.23695 -6.1615 0
M  V30 4826 H 450.487 -0.53464 -5.97412 0
M  V30 4827 H 452.166 -0.949299 -6.39998 0
M  V30 4828 N 452.299 1.55045 -0.282633 0
M  V30 4829 C 453.524 2.04628 0.337977 0
M  V30 4830 C 453.949 1.15937 1.48123 0
M  V30 4831 O 453.307 0.159532 1.80597 0
M  V30 4832 C 453.355 3.51854 0.78936 0
M  V30 4833 O 452.459 3.66236 1.89592 0
M  V30 4834 H 451.8 0.660434 0.0687261 0
M  V30 4835 H 454.33 2.00261 -0.419124 0
M  V30 4836 H 454.34 3.93361 1.08311 0
M  V30 4837 H 453.015 4.15873 -0.0470419 0
M  V30 4838 H 451.592 3.36633 1.60413 0
M  V30 4839 N 453.777 0.010035 1.57597 0
M  V30 4840 C 455.023 -0.673697 1.91283 0
M  V30 4841 C 455.356 -1.72863 0.884979 0
M  V30 4842 O 454.631 -1.94268 -0.0949487 0
M  V30 4843 C 454.914 -1.30766 3.35518 0
M  V30 4844 C 454.767 -0.263578 4.49027 0
M  V30 4845 C 456.086 -2.23105 3.79358 0
M  V30 4846 H 453.205 -0.243439 0.695634 0
M  V30 4847 H 455.847 0.0633864 1.89894 0
M  V30 4848 H 453.997 -1.93588 3.36832 0
M  V30 4849 H 455.669 0.365738 4.59848 0
M  V30 4850 H 453.912 0.413077 4.31829 0
M  V30 4851 H 454.583 -0.746398 5.4693 0
M  V30 4852 H 457.059 -1.70289 3.79659 0
M  V30 4853 H 455.935 -2.64424 4.81011 0
M  V30 4854 H 456.196 -3.11433 3.13787 0
M  V30 4855 N 455.255 -1.55392 -0.262866 0
M  V30 4856 C 456.671 -1.47459 -0.610582 0
M  V30 4857 C 456.871 -0.697031 -1.8906 0
M  V30 4858 O 455.927 -0.219952 -2.5154 0
M  V30 4859 C 457.24 -2.91751 -0.728131 0
M  V30 4860 C 458.788 -3.02027 -0.821517 0
M  V30 4861 C 459.263 -4.47594 -0.97076 0
M  V30 4862 N 460.754 -4.51465 -1.03603 0
M  V30 4863 C 461.489 -5.61326 -1.17049 0
M  V30 4864 N 460.985 -6.81032 -1.2715 0
M  V30 4865 N 462.778 -5.49089 -1.20239 0
M  V30 4866 H 454.929 -2.04395 0.577632 0
M  V30 4867 H 457.192 -0.927287 0.197086 0
M  V30 4868 H 456.898 -3.51413 0.142132 0
M  V30 4869 H 456.772 -3.4134 -1.6052 0
M  V30 4870 H 459.159 -2.42456 -1.68224 0
M  V30 4871 H 459.24 -2.55674 0.0803688 0
M  V30 4872 H 458.884 -5.07771 -0.114655 0
M  V30 4873 H 458.814 -4.91613 -1.88745 0
M  V30 4874 H 461.305 -3.6524 -0.96996 0
M  V30 4875 H 461.618 -7.60511 -1.37271 0
M  V30 4876 H 459.963 -6.83824 -1.24136 0
M  V30 4877 H 463.154 -4.54507 -1.11985 0
M  V30 4878 H 463.327 -6.34749 -1.30373 0
M  V30 4879 N 456.733 0.527833 -1.48498 0
M  V30 4880 C 457.696 1.61439 -1.62696 0
M  V30 4881 C 458.696 1.52824 -0.500136 0
M  V30 4882 O 459.886 1.56456 -0.765976 0
M  V30 4883 C 457.018 3.01063 -1.59918 0
M  V30 4884 H 458.211 1.50189 -2.59583 0
M  V30 4885 H 455.764 0.750055 -1.37127 0
M  V30 4886 H 456.499 3.17818 -0.645163 0
M  V30 4887 H 456.284 3.08725 -2.41726 0
M  V30 4888 H 457.774 3.80057 -1.73051 0
M  V30 4889 N 458.211 1.37122 0.776871 0
M  V30 4890 C 459.143 1.28342 1.89897 0
M  V30 4891 C 460.156 0.200277 1.61563 0
M  V30 4892 O 461.345 0.456012 1.72577 0
M  V30 4893 C 458.445 0.960427 3.25006 0
M  V30 4894 C 457.618 2.148 3.81025 0
M  V30 4895 C 456.677 1.79608 4.94598 0
M  V30 4896 O 455.703 2.51845 5.10454 0
M  V30 4897 N 456.905 0.737171 5.758 0
M  V30 4898 H 459.67 2.25027 1.97947 0
M  V30 4899 H 457.231 1.3068 0.955739 0
M  V30 4900 H 459.223 0.705942 3.98495 0
M  V30 4901 H 457.793 0.0823066 3.12492 0
M  V30 4902 H 457.013 2.56454 2.99374 0
M  V30 4903 H 458.301 2.9411 4.15183 0
M  V30 4904 H 457.699 0.137637 5.65533 0
M  V30 4905 H 456.256 0.542534 6.49538 0
M  V30 4906 N 459.689 -1.00246 1.21608 0
M  V30 4907 C 460.966 -1.71336 0.943568 0
M  V30 4908 C 461.346 -2.03972 -0.543943 0
M  V30 4909 O 460.694 -1.71545 -1.50946 0
M  V30 4910 C 460.904 -2.97094 1.83128 0
M  V30 4911 C 462.252 -3.70071 2.08165 0
M  V30 4912 O 463.276 -3.07081 1.80498 0
M  V30 4913 O 462.135 -4.83376 2.54971 0
M  V30 4914 H 459.229 -0.747386 0.354039 0
M  V30 4915 H 461.775 -1.05967 1.32549 0
M  V30 4916 H 460.547 -2.69407 2.83788 0
M  V30 4917 H 460.17 -3.70204 1.45034 0
M  V30 4918 N 461.167 -1.02423 -1.1978 0
M  V30 4919 C 462.583 -0.740459 -1.41384 0
M  V30 4920 C 462.783 0.676827 -1.89793 0
M  V30 4921 O 461.839 1.4435 -2.0717 0
M  V30 4922 C 463.152 -1.77264 -2.42895 0
M  V30 4923 C 464.7 -1.79165 -2.56649 0
M  V30 4924 C 465.175 -2.8133 -3.6141 0
M  V30 4925 N 466.666 -2.80118 -3.68901 0
M  V30 4926 C 467.401 -3.55824 -4.49641 0
M  V30 4927 N 466.897 -4.41231 -5.34123 0
M  V30 4928 N 468.69 -3.44387 -4.44246 0
M  V30 4929 H 460.841 -1.9391 -0.866764 0
M  V30 4930 H 463.104 -0.838074 -0.443098 0
M  V30 4931 H 462.81 -2.7884 -2.14339 0
M  V30 4932 H 462.684 -1.59108 -3.42001 0
M  V30 4933 H 465.071 -0.782702 -2.84531 0
M  V30 4934 H 465.152 -2.01396 -1.57713 0
M  V30 4935 H 464.796 -3.82394 -3.34271 0
M  V30 4936 H 464.726 -2.56359 -4.59986 0
M  V30 4937 H 467.217 -2.1817 -3.08562 0
M  V30 4938 H 467.53 -4.95747 -5.92836 0
M  V30 4939 H 465.875 -4.45306 -5.33599 0
M  V30 4940 H 469.066 -2.7708 -3.77285 0
M  V30 4941 H 469.239 -4.0364 -5.06931 0
M  V30 4942 N 462.645 1.35699 -0.801477 0
M  V30 4943 C 463.875 2.02862 -0.3912 0
M  V30 4944 C 464.283 1.60552 1.00099 0
M  V30 4945 O 463.626 0.796215 1.65548 0
M  V30 4946 C 463.688 3.57386 -0.389299 0
M  V30 4947 C 463.352 4.22943 -1.73113 0
M  V30 4948 C 464.349 4.44984 -2.68859 0
M  V30 4949 C 462.034 4.60167 -2.01373 0
M  V30 4950 C 464.028 5.03345 -3.91053 0
M  V30 4951 C 461.715 5.18243 -3.23832 0
M  V30 4952 C 462.713 5.39773 -4.1849 0
M  V30 4953 O 462.401 5.96626 -5.38788 0
M  V30 4954 H 462.133 0.657341 -0.157732 0
M  V30 4955 H 464.687 1.74407 -1.08496 0
M  V30 4956 H 462.917 3.85011 0.361031 0
M  V30 4957 H 464.606 4.059 -0.0020365 0
M  V30 4958 H 465.372 4.1661 -2.48316 0
M  V30 4959 H 461.251 4.42726 -1.28508 0
M  V30 4960 H 464.795 5.20065 -4.64949 0
M  V30 4961 H 460.692 5.46044 -3.44248 0
M  V30 4962 H 461.46 6.15082 -5.40015 0
M  V30 4963 N 464.123 0.554532 1.47522 0
M  V30 4964 C 465.353 0.0342074 2.06572 0
M  V30 4965 C 465.761 -1.26375 1.40805 0
M  V30 4966 O 465.104 -1.7683 0.49769 0
M  V30 4967 C 465.166 -0.235096 3.5873 0
M  V30 4968 C 464.83 0.973024 4.46521 0
M  V30 4969 C 465.827 1.8779 4.848 0
M  V30 4970 C 463.512 1.18694 4.88075 0
M  V30 4971 C 465.506 2.98039 5.63428 0
M  V30 4972 C 463.193 2.29254 5.66468 0
M  V30 4973 C 464.191 3.18757 6.04055 0
M  V30 4974 O 463.879 4.27401 6.8087 0
M  V30 4975 H 463.611 0.041587 0.67472 0
M  V30 4976 H 466.165 0.766748 1.90552 0
M  V30 4977 H 464.395 -1.02191 3.72953 0
M  V30 4978 H 466.084 -0.700477 3.9981 0
M  V30 4979 H 466.85 1.72467 4.53299 0
M  V30 4980 H 462.729 0.49947 4.58286 0
M  V30 4981 H 466.273 3.67926 5.92685 0
M  V30 4982 H 462.17 2.4455 5.97382 0
M  V30 4983 H 462.938 4.25415 6.9926 0
M  V30 4984 N 465.601 -1.54893 0.290851 0
M  V30 4985 C 466.826 -2.04804 -0.32712 0
M  V30 4986 C 467.251 -1.16721 -1.47506 0
M  V30 4987 O 466.609 -0.169107 -1.8051 0
M  V30 4988 C 466.657 -3.52268 -0.770689 0
M  V30 4989 O 465.761 -3.67236 -1.87647 0
M  V30 4990 H 465.102 -0.660789 -0.0652227 0
M  V30 4991 H 467.632 -2.00036 0.429739 0
M  V30 4992 H 467.642 -3.9393 -1.06223 0
M  V30 4993 H 466.317 -4.15843 0.069096 0
M  V30 4994 H 464.894 -3.37479 -1.58626 0
M  V30 4995 N 467.08 -0.0183926 -1.57589 0
M  V30 4996 C 468.305 0.676634 -1.96052 0
M  V30 4997 C 468.73 1.6548 -0.894307 0
M  V30 4998 O 468.088 1.80712 0.145849 0
M  V30 4999 C 468.136 1.36872 -3.33614 0
M  V30 5000 O 467.24 2.48372 -3.29219 0
M  V30 5001 H 466.581 0.1786 -0.63953 0
M  V30 5002 H 469.111 -0.077056 -2.04455 0
M  V30 5003 H 469.121 1.72797 -3.69601 0
M  V30 5004 H 467.796 0.651636 -4.10763 0
M  V30 5005 H 466.373 2.14639 -3.04934 0
M  V30 5006 N 468.558 1.5553 0.254621 0
M  V30 5007 C 469.783 1.81383 1.00573 0
M  V30 5008 C 470.208 0.594419 1.78461 0
M  V30 5009 O 469.566 -0.456403 1.75461 0
M  V30 5010 C 469.614 3.04892 1.92545 0
M  V30 5011 O 468.718 2.81266 3.01601 0
M  V30 5012 H 468.059 0.598969 0.286587 0
M  V30 5013 H 470.589 2.02703 0.277952 0
M  V30 5014 H 470.599 3.34119 2.34155 0
M  V30 5015 H 469.274 3.93287 1.3527 0
M  V30 5016 H 467.851 2.63185 2.64174 0
M  V30 5017 N 470.036 -0.519951 1.48776 0
M  V30 5018 C 471.282 -1.27456 1.58514 0
M  V30 5019 C 471.637 -1.90634 0.260057 0
M  V30 5020 O 470.93 -1.76815 -0.738036 0
M  V30 5021 C 471.124 -2.37864 2.6675 0
M  V30 5022 C 470.953 -1.85509 4.09654 0
M  V30 5023 C 469.723 -1.67661 4.76674 0
M  V30 5024 C 471.921 -1.37783 4.955 0
M  V30 5025 N 469.903 -1.10037 6.03958 0
M  V30 5026 C 471.274 -0.921714 6.1311 0
M  V30 5027 C 473.329 -1.26179 4.81646 0
M  V30 5028 C 472.032 -0.361057 7.18393 0
M  V30 5029 C 474.058 -0.715121 5.8706 0
M  V30 5030 C 473.42 -0.269132 7.03886 0
M  V30 5031 H 469.519 -0.457049 0.634531 0
M  V30 5032 H 472.103 -0.585073 1.85701 0
M  V30 5033 H 470.274 -3.04296 2.41367 0
M  V30 5034 H 472.006 -3.04901 2.66116 0
M  V30 5035 H 468.761 -1.91478 4.33166 0
M  V30 5036 H 469.185 -0.832067 6.71867 0
M  V30 5037 H 473.827 -1.59263 3.91657 0
M  V30 5038 H 471.545 -0.0179127 8.08098 0
M  V30 5039 H 475.131 -0.628376 5.78397 0
M  V30 5040 H 474.011 0.14729 7.84062 0
M  V30 5041 N 471.514 -1.37532 -0.769588 0
M  V30 5042 C 472.739 -1.36231 -1.56384 0
M  V30 5043 C 473.164 0.0495849 -1.88035 0
M  V30 5044 O 472.522 1.02723 -1.49391 0
M  V30 5045 C 472.57 -2.20986 -2.84952 0
M  V30 5046 O 471.674 -1.61597 -3.79421 0
M  V30 5047 H 471.015 -0.465387 -0.473615 0
M  V30 5048 H 473.545 -1.81085 -0.952342 0
M  V30 5049 H 473.555 -2.34277 -3.34034 0
M  V30 5050 H 472.23 -3.23612 -2.61243 0
M  V30 5051 H 470.807 -1.57359 -3.38072 0
M  V30 5052 N 472.992 0.995999 -1.22138 0
M  V30 5053 C 473.902 2.11985 -1.00496 0
M  V30 5054 C 474.918 1.7394 0.0457701 0
M  V30 5055 O 476.094 2.00868 -0.146273 0
M  V30 5056 C 473.159 3.41779 -0.582086 0
M  V30 5057 C 472.22 3.93943 -1.70608 0
M  V30 5058 C 471.453 5.17542 -1.30328 0
M  V30 5059 O 471.676 5.70114 -0.180743 0
M  V30 5060 O 470.61 5.63382 -2.11861 0
M  V30 5061 H 474.436 2.33123 -1.94647 0
M  V30 5062 H 472.021 1.10358 -1.00705 0
M  V30 5063 H 473.903 4.1989 -0.356467 0
M  V30 5064 H 472.578 3.22007 0.330592 0
M  V30 5065 H 471.485 3.17019 -1.98619 0
M  V30 5066 H 472.818 4.18141 -2.59651 0
M  V30 5067 N 474.47 1.03057 1.19235 0
M  V30 5068 C 475.716 0.738841 1.89506 0
M  V30 5069 C 476.071 -0.724807 1.78225 0
M  V30 5070 O 475.364 -1.52118 1.16494 0
M  V30 5071 C 475.558 1.1268 3.39172 0
M  V30 5072 C 475.387 2.62662 3.65019 0
M  V30 5073 C 474.157 3.29658 3.82954 0
M  V30 5074 C 476.355 3.60873 3.66436 0
M  V30 5075 N 474.337 4.68726 3.96446 0
M  V30 5076 C 475.708 4.85566 3.8552 0
M  V30 5077 C 477.763 3.54647 3.49471 0
M  V30 5078 C 476.466 6.04783 3.89397 0
M  V30 5079 C 478.492 4.73281 3.54625 0
M  V30 5080 C 477.854 5.96789 3.74196 0
M  V30 5081 H 473.953 0.322256 0.712513 0
M  V30 5082 H 476.537 1.31822 1.43287 0
M  V30 5083 H 474.708 0.575612 3.84111 0
M  V30 5084 H 476.44 0.787145 3.96971 0
M  V30 5085 H 473.195 2.8007 3.81913 0
M  V30 5086 H 473.619 5.40971 4.07037 0
M  V30 5087 H 478.261 2.60143 3.33295 0
M  V30 5088 H 475.979 6.99654 4.04364 0
M  V30 5089 H 479.565 4.70094 3.42787 0
M  V30 5090 H 478.445 6.87051 3.78061 0
M  V30 5091 N 475.948 -1.35272 0.808662 0
M  V30 5092 C 476.911 -2.28082 0.226093 0
M  V30 5093 C 477.911 -1.49673 -0.587762 0
M  V30 5094 O 479.101 -1.69404 -0.405943 0
M  V30 5095 C 476.233 -3.33955 -0.684596 0
M  V30 5096 H 477.426 -2.81116 1.04469 0
M  V30 5097 H 474.979 -1.45162 0.579466 0
M  V30 5098 H 475.714 -2.86111 -1.5268 0
M  V30 5099 H 475.499 -3.91965 -0.102699 0
M  V30 5100 H 476.989 -4.03219 -1.08646 0
M  V30 5101 N 477.426 -0.562348 -1.47226 0
M  V30 5102 C 478.651 -0.0432632 -2.07355 0
M  V30 5103 C 479.076 1.24332 -1.41149 0
M  V30 5104 O 478.434 1.74603 -0.488226 0
M  V30 5105 C 478.482 0.130288 -3.60365 0
M  V30 5106 O 477.586 1.19166 -3.94808 0
M  V30 5107 H 476.927 -0.0536334 -0.66183 0
M  V30 5108 H 479.457 -0.779495 -1.89169 0
M  V30 5109 H 479.467 0.342881 -4.06557 0
M  V30 5110 H 478.142 -0.809389 -4.07948 0
M  V30 5111 H 476.719 0.959153 -3.60354 0
M  V30 5112 N 478.904 1.54736 -0.299062 0
M  V30 5113 C 480.15 2.00397 0.311244 0
M  V30 5114 C 480.483 1.18716 1.53688 0
M  V30 5115 O 479.758 0.263154 1.92712 0
M  V30 5116 C 480.041 3.53817 0.669761 0
M  V30 5117 C 479.894 4.46239 -0.564882 0
M  V30 5118 C 481.213 4.13856 1.49702 0
M  V30 5119 H 478.332 0.728493 0.111653 0
M  V30 5120 H 480.974 1.85506 -0.410774 0
M  V30 5121 H 479.124 3.66637 1.28491 0
M  V30 5122 H 480.796 4.45328 -1.20337 0
M  V30 5123 H 479.039 4.16916 -1.19849 0
M  V30 5124 H 479.71 5.5134 -0.269918 0
M  V30 5125 H 482.186 4.04461 0.977284 0
M  V30 5126 H 481.062 5.21365 1.71666 0
M  V30 5127 H 481.323 3.65608 2.48563 0
M  V30 5128 N 480.382 0.0267497 1.57577 0
M  V30 5129 C 481.793 -0.512413 1.79531 0
M  V30 5130 C 482.144 -1.72391 0.936791 0
M  V30 5131 O 481.269 -2.15903 0.146543 0
M  V30 5132 C 481.864 -0.936378 3.25603 0
M  V30 5133 C 480.423 -1.42067 3.4856 0
M  V30 5134 C 479.57 -0.384278 2.74624 0
M  V30 5135 H 482.521 0.252797 1.56674 0
M  V30 5136 H 482.542 -1.80088 3.35184 0
M  V30 5137 H 482.054 -0.0544332 3.88062 0
M  V30 5138 H 480.155 -2.32262 2.9135 0
M  V30 5139 H 480.268 -1.42968 4.57271 0
M  V30 5140 H 478.632 -0.851855 2.40032 0
M  V30 5141 H 479.415 0.489159 3.39797 0
M  V30 5142 N 481.861 -1.55662 -0.24637 0
M  V30 5143 C 483.101 -1.79283 -0.981685 0
M  V30 5144 C 483.465 -0.596356 -1.82504 0
M  V30 5145 O 484.666 -0.711342 -2.59217 0
M  V30 5146 C 482.937 -3.07648 -1.819 0
M  V30 5147 S 484.496 -3.52491 -2.61334 0
M  V30 5148 H 481.314 -0.629676 -0.330196 0
M  V30 5149 H 483.916 -1.93901 -0.249498 0
M  V30 5150 H 482.62 -3.92794 -1.18915 0
M  V30 5151 H 482.151 -2.95768 -2.59393 0
M  V30 5152 H 484.166 -3.13866 -3.84321 0
M  V30 5153 N 483.339 0.512053 -1.4905 0
M  V30 5154 C 484.564 1.2959 -1.6193 0
M  V30 5155 C 484.989 1.85906 -0.286454 0
M  V30 5156 O 484.347 1.65312 0.744426 0
M  V30 5157 C 484.395 2.40987 -2.68249 0
M  V30 5158 O 483.499 3.44531 -2.26654 0
M  V30 5159 H 482.84 0.383053 -0.542371 0
M  V30 5160 H 485.37 0.614231 -1.95162 0
M  V30 5161 H 485.38 2.86913 -2.90078 0
M  V30 5162 H 484.055 1.99361 -3.65004 0
M  V30 5163 H 482.632 3.046 -2.15112 0
M  V30 5164 O 484.856 1.47522 0.657231 0
M  V30 5165 H 485.547 1.42634 1.31055 0
M  V30 END ATOM
M  V30 BEGIN BOND
M  V30 END BOND
M  V30 END CTAB
M  END
$$$$
