drugbank_target|P43777 2-amino-4-hydroxy-6-hydroxymethyldihydropteridine pyrophosphokinase (DB02278)
 OpenBabel12092119553D

  0  0  0     0  0            999 V3000
M  V30 BEGIN CTAB
M  V30 COUNTS 2608 2632 0 0 0
M  V30 BEGIN ATOM
M  V30 1 H -0.908 1.98254 -0.117106 0
M  V30 2 N 0 1.576 0 0
M  V30 3 C 0.933 2.03868 1.02534 0
M  V30 4 C 1.911 0.928543 1.3348 0
M  V30 5 O 3.095 1.19667 1.45644 0
M  V30 6 C 0.222 2.43627 2.35294 0
M  V30 7 C -0.732 3.65373 2.2001 0
M  V30 8 S 0.101 5.13292 1.52614 0
M  V30 9 C 1.257 5.56322 2.86805 0
M  V30 10 H 1.49 2.90518 0.631377 0
M  V30 11 H -0.977 1.52953 0.210867 0
M  V30 12 H 0.981 2.67203 3.11629 0
M  V30 13 H -0.358 1.57376 2.7183 0
M  V30 14 H -1.165 3.90944 3.18086 0
M  V30 15 H -1.563 3.418 1.51819 0
M  V30 16 H 0.729 5.58782 3.83104 0
M  V30 17 H 1.672 6.56266 2.65933 0
M  V30 18 H 2.08 4.83886 2.90714 0
M  V30 19 N 1.4781 -0.272755 1.55222 0
M  V30 20 C 2.7271 -1.00211 1.75045 0
M  V30 21 C 3.0401 -1.87441 0.559046 0
M  V30 22 O 4.2461 -2.63856 0.639698 0
M  V30 23 C 2.7021 -1.83165 3.09804 0
M  V30 24 C 2.3101 -1.008 4.36513 0
M  V30 25 C 4.0541 -2.55529 3.38977 0
M  V30 26 C 1.9611 -1.83194 5.62311 0
M  V30 27 H 0.8911 -0.377878 0.652476 0
M  V30 28 H 3.5421 -0.257776 1.8168 0
M  V30 29 H 1.9241 -2.61694 2.97207 0
M  V30 30 H 3.0981 -0.266855 4.60027 0
M  V30 31 H 1.4131 -0.398897 4.14485 0
M  V30 32 H 4.0101 -3.17578 4.30172 0
M  V30 33 H 4.3531 -3.25825 2.59121 0
M  V30 34 H 4.8861 -1.84029 3.52673 0
M  V30 35 H 1.6251 -1.17318 6.44916 0
M  V30 36 H 1.1451 -2.54905 5.4294 0
M  V30 37 H 2.8241 -2.40552 6.00619 0
M  V30 38 N 2.9562 -1.48159 -0.537278 0
M  V30 39 C 4.1842 -1.59454 -1.31841 0
M  V30 40 C 4.5992 -0.252065 -1.8711 0
M  V30 41 O 3.9562 0.757621 -1.66031 0
M  V30 42 C 4.0072 -2.63546 -2.47439 0
M  V30 43 O 3.7282 -3.92583 -1.94449 0
M  V30 44 C 5.2292 -2.85212 -3.39366 0
M  V30 45 H 2.4492 -0.53785 -0.401196 0
M  V30 46 H 4.9932 -1.93932 -0.648891 0
M  V30 47 H 3.1482 -2.31946 -3.1029 0
M  V30 48 H 3.5622 -4.49629 -2.70063 0
M  V30 49 H 5.0362 -3.61863 -4.16844 0
M  V30 50 H 5.5132 -1.93765 -3.94147 0
M  V30 51 H 6.1192 -3.18086 -2.82314 0
M  V30 52 N 4.4343 0.785586 -1.36625 0
M  V30 53 C 5.3973 1.87999 -1.31107 0
M  V30 54 C 6.3973 1.59316 -0.217959 0
M  V30 55 O 7.5873 1.67656 -0.472977 0
M  V30 56 C 4.7193 3.24861 -1.03334 0
M  V30 57 H 5.9123 1.94307 -2.2844 0
M  V30 58 H 3.4653 0.983813 -1.21453 0
M  V30 59 H 4.2003 3.24235 -0.0647432 0
M  V30 60 H 3.9853 3.4707 -1.82441 0
M  V30 61 H 5.4753 4.04929 -1.02088 0
M  V30 62 N 5.9124 1.20967 1.01018 0
M  V30 63 C 7.1424 1.04803 1.78044 0
M  V30 64 C 7.5504 -0.405462 1.84804 0
M  V30 65 O 6.8934 -1.2932 1.30468 0
M  V30 66 C 6.9554 1.56377 3.23707 0
M  V30 67 C 6.6194 3.04767 3.40538 0
M  V30 68 C 7.6164 4.02366 3.29239 0
M  V30 69 C 5.3014 3.43862 3.66147 0
M  V30 70 C 7.2954 5.37049 3.43304 0
M  V30 71 C 4.9824 4.78699 3.79855 0
M  V30 72 C 5.9804 5.75101 3.68439 0
M  V30 73 O 5.6684 7.07493 3.81719 0
M  V30 74 H 5.4004 0.368778 0.56655 0
M  V30 75 H 7.9544 1.60642 1.27997 0
M  V30 76 H 6.1844 0.949297 3.74867 0
M  V30 77 H 7.8734 1.36136 3.8239 0
M  V30 78 H 8.6394 3.73506 3.09384 0
M  V30 79 H 4.5184 2.69364 3.74118 0
M  V30 80 H 8.0624 6.12277 3.34309 0
M  V30 81 H 3.9594 5.07247 3.99213 0
M  V30 82 H 4.7274 7.1483 3.98697 0
M  V30 83 N 7.3905 -1.2043 1.01659 0
M  V30 84 C 8.6395 -1.89118 0.701237 0
M  V30 85 C 8.9525 -1.79705 -0.772358 0
M  V30 86 O 10.1585 -2.43528 -1.20026 0
M  V30 87 C 8.6145 -3.39168 1.20388 0
M  V30 88 C 8.2225 -3.57166 2.70438 0
M  V30 89 C 9.9665 -4.1341 0.963953 0
M  V30 90 C 7.8735 -5.01042 3.14183 0
M  V30 91 H 6.8035 -0.708267 0.2586 0
M  V30 92 H 9.4545 -1.36239 1.22927 0
M  V30 93 H 7.8365 -3.91369 0.603824 0
M  V30 94 H 9.0105 -3.15351 3.35992 0
M  V30 95 H 7.3255 -2.96294 2.92572 0
M  V30 96 H 9.9225 -5.19491 1.26621 0
M  V30 97 H 10.2655 -4.16181 -0.099578 0
M  V30 98 H 10.7985 -3.67309 1.52738 0
M  V30 99 H 7.5375 -5.03426 4.19812 0
M  V30 100 H 7.0575 -5.43668 2.53348 0
M  V30 101 H 8.7365 -5.69623 3.0682 0
M  V30 102 N 8.8686 -0.792821 -1.36206 0
M  V30 103 C 9.8316 -0.199459 -2.2833 0
M  V30 104 C 10.8316 0.605189 -1.48977 0
M  V30 105 O 12.0216 0.425685 -1.68919 0
M  V30 106 C 9.1536 0.723523 -3.33134 0
M  V30 107 H 10.3466 -1.01181 -2.82316 0
M  V30 108 H 7.8996 -0.562485 -1.45828 0
M  V30 109 H 8.6346 1.56008 -2.84309 0
M  V30 110 H 8.4196 0.148436 -3.91819 0
M  V30 111 H 9.9096 1.13344 -4.01924 0
M  V30 112 N 10.3467 1.47872 -0.545128 0
M  V30 113 C 11.2767 2.32661 0.197793 0
M  V30 114 C 12.2577 1.43041 0.920504 0
M  V30 115 O 13.4427 1.71912 0.90333 0
M  V30 116 C 10.5727 3.24569 1.23582 0
M  V30 117 C 9.5267 4.23333 0.630323 0
M  V30 118 C 8.8527 5.0448 1.77211 0
M  V30 119 C 10.1527 5.20704 -0.407974 0
M  V30 120 H 11.8467 2.95024 -0.510045 0
M  V30 121 H 9.3927 1.4187 -0.246731 0
M  V30 122 H 11.3457 3.8272 1.76362 0
M  V30 123 H 10.0697 2.60236 1.97344 0
M  V30 124 H 8.7287 3.6639 0.123922 0
M  V30 125 H 8.3767 4.36561 2.49847 0
M  V30 126 H 8.0767 5.71339 1.37281 0
M  V30 127 H 9.6007 5.65487 2.3034 0
M  V30 128 H 11.0147 5.7329 0.033305 0
M  V30 129 H 9.4117 5.95699 -0.725486 0
M  V30 130 H 10.4817 4.66917 -1.30828 0
M  V30 131 N 11.8248 0.280983 1.55075 0
M  V30 132 C 13.0728 -0.333455 1.9933 0
M  V30 133 C 13.3938 -1.55937 1.17085 0
M  V30 134 O 12.6638 -1.94143 0.261805 0
M  V30 135 H 11.2438 -0.126197 0.736263 0
M  V30 136 H 13.9058 0.387678 1.91005 0
M  V30 137 H 13.0018 -0.619292 3.05894 0
M  V30 138 N 13.3029 -1.57598 0.00835791 0
M  V30 139 C 14.5279 -1.95617 -0.689103 0
M  V30 140 C 14.9529 -0.883753 -1.66046 0
M  V30 141 O 14.3109 0.157352 -1.80616 0
M  V30 142 C 14.3589 -3.32736 -1.38994 0
M  V30 143 O 13.4629 -3.27631 -2.50463 0
M  V30 144 H 12.8039 -0.638379 -0.182668 0
M  V30 145 H 15.3339 -2.045 0.064036 0
M  V30 146 H 15.3439 -3.68494 -1.75147 0
M  V30 147 H 14.0189 -4.1034 -0.677778 0
M  V30 148 H 12.5959 -3.03561 -2.16576 0
M  V30 149 N 14.781 0.264519 -1.55364 0
M  V30 150 C 15.729 1.34702 -1.89626 0
M  V30 151 C 16.723 1.50712 -0.773459 0
M  V30 152 O 17.929 1.52395 -0.957897 0
M  V30 153 H 14.304 0.450682 -0.601988 0
M  V30 154 H 16.275 1.0306 -2.80038 0
M  V30 155 C 15.024 2.6989 -2.19214 0
M  V30 156 H 14.347 2.58365 -3.05103 0
M  V30 157 H 15.787 3.44553 -2.47102 0
M  V30 158 C 14.246 3.21637 -1.00254 0
M  V30 159 O 14.776 4.00973 -0.241501 0
M  V30 160 N 12.982 2.7943 -0.797938 0
M  V30 161 H 12.529 2.15026 -1.4185 0
M  V30 162 H 12.487 3.144 -0.00363422 0
M  V30 163 N 16.2591 1.48442 0.529413 0
M  V30 164 C 17.1891 1.65902 1.64313 0
M  V30 165 C 18.1701 0.507897 1.6234 0
M  V30 166 O 19.3551 0.740503 1.79528 0
M  V30 167 C 16.4851 1.69911 3.02898 0
M  V30 168 C 15.4391 2.8453 3.19729 0
M  V30 169 C 14.7651 2.73629 4.59381 0
M  V30 170 C 16.0651 4.25821 3.02447 0
M  V30 171 H 17.7591 2.5914 1.49955 0
M  V30 172 H 15.3051 1.24709 0.719982 0
M  V30 173 H 17.2581 1.80715 3.80684 0
M  V30 174 H 15.9821 0.732524 3.18279 0
M  V30 175 H 14.6411 2.73283 2.44361 0
M  V30 176 H 14.2891 1.74938 4.71599 0
M  V30 177 H 13.9891 3.50541 4.71588 0
M  V30 178 H 15.5131 2.86401 5.39265 0
M  V30 179 H 16.9271 4.37898 3.70024 0
M  V30 180 H 15.3241 5.03735 3.26146 0
M  V30 181 H 16.3941 4.42244 1.98867 0
M  V30 182 N 17.7372 -0.778329 1.37039 0
M  V30 183 C 18.6852 -1.91278 1.32345 0
M  V30 184 C 19.6792 -1.68051 0.213331 0
M  V30 185 O 20.8852 -1.75922 0.38098 0
M  V30 186 H 17.2602 -0.628909 0.412283 0
M  V30 187 H 19.2312 -1.92355 2.28127 0
M  V30 188 C 17.9802 -3.28455 1.14073 0
M  V30 189 H 17.3032 -3.46901 1.98746 0
M  V30 190 H 18.7432 -4.08152 1.14837 0
M  V30 191 C 17.2022 -3.36548 -0.154015 0
M  V30 192 O 17.7322 -3.85186 -1.13993 0
M  V30 193 N 15.9382 -2.89894 -0.202475 0
M  V30 194 H 15.4852 -2.50504 0.600476 0
M  V30 195 H 15.4432 -2.9569 -1.06841 0
M  V30 196 N 19.2153 -1.21501 -1.00376 0
M  V30 197 C 20.4433 -1.059 -1.77744 0
M  V30 198 C 20.8583 0.391125 -1.84704 0
M  V30 199 O 20.2153 1.27133 -1.30933 0
M  V30 200 C 20.2663 -1.65111 -3.21591 0
M  V30 201 O 19.9873 -3.0445 -3.15027 0
M  V30 202 C 21.4883 -1.54637 -4.15454 0
M  V30 203 H 18.7083 -0.371825 -0.558558 0
M  V30 204 H 21.2523 -1.60865 -1.26264 0
M  V30 205 H 19.4073 -1.14235 -3.70175 0
M  V30 206 H 19.8213 -3.3278 -4.0541 0
M  V30 207 H 21.2953 -2.00808 -5.14179 0
M  V30 208 H 21.7723 -0.501022 -4.36333 0
M  V30 209 H 22.3783 -2.04767 -3.72761 0
M  V30 210 N 20.6934 1.19889 -1.02296 0
M  V30 211 C 22.1044 1.71124 -0.746568 0
M  V30 212 C 22.4554 1.81939 0.734335 0
M  V30 213 O 21.5804 1.48639 1.57275 0
M  V30 214 C 22.1754 3.10804 -1.34857 0
M  V30 215 C 20.7344 3.59323 -1.1209 0
M  V30 216 C 19.8814 2.3635 -1.45031 0
M  V30 217 H 22.8324 1.04813 -1.19163 0
M  V30 218 H 22.8534 3.73186 -0.742437 0
M  V30 219 H 22.3654 3.029 -2.42638 0
M  V30 220 H 20.4664 3.7255 -0.0610337 0
M  V30 221 H 20.5794 4.4378 -1.80544 0
M  V30 222 H 18.9434 2.39399 -0.869487 0
M  V30 223 H 19.7264 2.31081 -2.53883 0
M  V30 224 N 22.1715 0.800033 1.35784 0
M  V30 225 C 23.4175 0.377901 1.99248 0
M  V30 226 C 23.7505 -1.05052 1.63333 0
M  V30 227 O 23.0255 -1.72768 0.893385 0
M  V30 228 C 23.3085 0.553922 3.55814 0
M  V30 229 C 23.1615 2.0268 4.01548 0
M  V30 230 C 24.4805 -0.0244802 4.40093 0
M  V30 231 H 21.5995 0.138782 0.723815 0
M  V30 232 H 24.2415 1.00835 1.61035 0
M  V30 233 H 22.3915 0.0172398 3.88496 0
M  V30 234 H 24.0635 2.62536 3.79305 0
M  V30 235 H 22.3065 2.5256 3.52698 0
M  V30 236 H 22.9775 2.10087 5.10458 0
M  V30 237 H 25.4535 0.433775 4.13833 0
M  V30 238 H 24.3295 0.128637 5.48749 0
M  V30 239 H 24.5905 -1.11758 4.27741 0
M  V30 240 N 23.6496 -1.47581 0.552962 0
M  V30 241 C 24.5596 -2.33743 -0.200353 0
M  V30 242 C 25.5756 -1.47928 -0.916151 0
M  V30 243 O 26.7516 -1.80865 -0.885993 0
M  V30 244 C 23.8166 -3.24536 -1.21973 0
M  V30 245 C 22.8776 -4.26238 -0.511819 0
M  V30 246 C 22.1106 -5.12693 -1.48263 0
M  V30 247 O 22.3336 -5.01525 -2.71714 0
M  V30 248 O 21.2676 -5.93375 -1.00945 0
M  V30 249 H 25.0936 -2.9945 0.506304 0
M  V30 250 H 22.6786 -1.46071 0.313622 0
M  V30 251 H 24.5606 -3.80631 -1.80827 0
M  V30 252 H 23.2356 -2.61462 -1.90839 0
M  V30 253 H 22.1426 -3.73914 0.117799 0
M  V30 254 H 23.4756 -4.92014 0.135308 0
M  V30 255 N 25.1277 -0.289203 -1.54924 0
M  V30 256 C 26.0597 0.625583 -2.20497 0
M  V30 257 C 27.0727 1.10667 -1.19402 0
M  V30 258 O 28.2617 1.02615 -1.46056 0
M  V30 259 C 25.3617 1.86702 -2.82835 0
M  V30 260 C 24.5347 1.5304 -4.09753 0
M  V30 261 C 23.5937 2.62576 -4.56005 0
M  V30 262 O 22.6197 2.28167 -5.21468 0
M  V30 263 N 23.8217 3.92901 -4.27328 0
M  V30 264 H 26.5867 0.0642801 -2.99631 0
M  V30 265 H 24.1477 -0.110896 -1.6152 0
M  V30 266 H 26.1397 2.59304 -3.10715 0
M  V30 267 H 24.7097 2.33702 -2.07611 0
M  V30 268 H 23.9297 0.637564 -3.8901 0
M  V30 269 H 25.2177 1.28072 -4.92418 0
M  V30 270 H 24.6157 4.23671 -3.74859 0
M  V30 271 H 23.1727 4.61837 -4.59946 0
M  V30 272 N 26.6058 1.57591 -0.0167156 0
M  V30 273 C 27.5358 2.12496 0.967858 0
M  V30 274 C 28.5168 1.03807 1.34752 0
M  V30 275 O 29.7018 1.31577 1.42833 0
M  V30 276 C 26.8318 2.64194 2.25431 0
M  V30 277 C 25.7858 3.77559 2.01576 0
M  V30 278 C 25.1118 4.15636 3.36379 0
M  V30 279 C 26.4118 5.04151 1.36489 0
M  V30 280 H 28.1058 2.95013 0.510643 0
M  V30 281 H 25.6518 1.41915 0.244181 0
M  V30 282 H 27.6048 3.01236 2.94678 0
M  V30 283 H 26.3288 1.78821 2.73296 0
M  V30 284 H 24.9878 3.40937 1.34751 0
M  V30 285 H 24.6358 3.27263 3.81979 0
M  V30 286 H 24.3358 4.92022 3.21229 0
M  V30 287 H 25.8598 4.5525 4.06915 0
M  V30 288 H 27.2738 5.38857 1.95718 0
M  V30 289 H 25.6708 5.85453 1.31776 0
M  V30 290 H 26.7408 4.83733 0.336219 0
M  V30 291 N 28.0839 -0.256276 1.55502 0
M  V30 292 C 29.0339 -1.31981 1.85916 0
M  V30 293 C 30.0179 -1.43927 0.719296 0
M  V30 294 O 31.2099 -1.47326 0.981019 0
M  V30 295 C 28.3389 -2.67703 2.14918 0
M  V30 296 C 27.4249 -2.59801 3.35208 0
M  V30 297 N 27.8159 -2.21524 4.54709 0
M  V30 298 C 26.1139 -2.90832 3.38131 0
M  V30 299 C 26.8149 -2.24024 5.36832 0
M  V30 300 N 25.7909 -2.63158 4.75656 0
M  V30 301 H 29.5929 -1.01423 2.75845 0
M  V30 302 H 27.1069 -0.464911 1.55603 0
M  V30 303 H 29.1039 -3.44445 2.34869 0
M  V30 304 H 27.7639 -2.99137 1.26282 0
M  V30 305 H 28.7749 -1.93223 4.80505 0
M  V30 306 H 25.4519 -3.26867 2.59739 0
M  V30 307 H 26.8419 -1.9685 6.42417 0
M  V30 308 N 29.562 -1.4872 -0.521534 0
M  V30 309 C 30.525 -1.63379 -1.60748 0
M  V30 310 C 31.525 -0.50661 -1.52611 0
M  V30 311 O 32.715 -0.772601 -1.5613 0
M  V30 312 C 29.847 -1.61192 -3.00383 0
M  V30 313 H 31.04 -2.60217 -1.49087 0
M  V30 314 H 28.593 -1.37444 -0.744235 0
M  V30 315 H 29.328 -0.65863 -3.17541 0
M  V30 316 H 29.113 -2.43032 -3.07698 0
M  V30 317 H 30.603 -1.7466 -3.7932 0
M  V30 318 N 31.0401 0.771051 -1.3745 0
M  V30 319 C 32.0031 1.86598 -1.33093 0
M  V30 320 C 33.0031 1.59076 -0.234845 0
M  V30 321 O 34.1931 1.67145 -0.490732 0
M  V30 322 C 31.3251 3.23747 -1.06773 0
M  V30 323 H 32.5181 1.91873 -2.30488 0
M  V30 324 H 30.0711 0.970876 -1.2249 0
M  V30 325 H 30.8061 3.24148 -0.099129 0
M  V30 326 H 30.5911 3.45115 -1.86112 0
M  V30 327 H 32.0811 4.03824 -1.06377 0
M  V30 328 N 32.5182 1.22032 0.997298 0
M  V30 329 C 33.4482 1.01065 2.10495 0
M  V30 330 C 34.4292 -0.0669542 1.69968 0
M  V30 331 O 35.6142 0.0943987 1.9397 0
M  V30 332 C 32.7442 0.582874 3.42374 0
M  V30 333 C 31.6982 1.60592 3.96729 0
M  V30 334 C 31.0242 1.03412 5.24605 0
M  V30 335 C 32.3242 2.99478 4.27914 0
M  V30 336 H 34.0182 1.93708 2.28292 0
M  V30 337 H 31.5642 0.932761 1.09707 0
M  V30 338 H 33.5172 0.423332 4.19268 0
M  V30 339 H 32.2412 -0.379213 3.24391 0
M  V30 340 H 30.9002 1.75316 3.21963 0
M  V30 341 H 30.5482 0.063518 5.0296 0
M  V30 342 H 30.2482 1.71754 5.61938 0
M  V30 343 H 31.7722 0.886066 6.04137 0
M  V30 344 H 33.1862 2.88153 4.95622 0
M  V30 345 H 31.5832 3.64903 4.76409 0
M  V30 346 H 32.6532 3.49742 3.3587 0
M  V30 347 N 33.9963 -1.19345 1.0293 0
M  V30 348 C 34.9433 -2.2258 0.610464 0
M  V30 349 C 35.9133 -1.6179 -0.375946 0
M  V30 350 O 37.0983 -1.88844 -0.272511 0
M  V30 351 C 34.2383 -3.45085 -0.0321473 0
M  V30 352 C 33.3513 -4.20258 1.00035 0
M  V30 353 C 32.4863 -5.3019 0.32746 0
M  V30 354 C 31.5253 -5.97121 1.34584 0
M  V30 355 N 30.6623 -6.98615 0.698726 0
M  V30 356 H 35.5023 -2.57764 1.49538 0
M  V30 357 H 33.0393 -1.26644 0.748311 0
M  V30 358 H 34.9973 -4.15061 -0.421966 0
M  V30 359 H 33.6273 -3.10555 -0.88064 0
M  V30 360 H 32.6793 -3.49223 1.50823 0
M  V30 361 H 33.9913 -4.66175 1.77433 0
M  V30 362 H 33.1453 -6.06587 -0.11718 0
M  V30 363 H 31.8843 -4.85345 -0.478713 0
M  V30 364 H 30.8893 -5.19474 1.80074 0
M  V30 365 H 32.1143 -6.4405 2.15352 0
M  V30 366 H 30.0603 -6.55942 -0.0873471 0
M  V30 367 H 29.9773 -7.42724 1.41058 0
M  V30 368 H 31.2453 -7.79004 0.278102 0
M  V30 369 N 35.4744 -0.807222 -1.35358 0
M  V30 370 C 36.4374 -0.223665 -2.28106 0
M  V30 371 C 37.4374 0.589354 -1.4961 0
M  V30 372 O 38.6274 0.407745 -1.69361 0
M  V30 373 C 35.7594 0.688149 -3.33882 0
M  V30 374 H 36.9524 -1.04169 -2.81227 0
M  V30 375 H 34.5054 -0.577921 -1.45223 0
M  V30 376 H 35.2404 1.52984 -2.85948 0
M  V30 377 H 35.0254 0.10687 -3.91954 0
M  V30 378 H 36.5154 1.09075 -4.03104 0
M  V30 379 N 36.9525 1.47285 -0.560781 0
M  V30 380 C 38.2015 2.01668 -0.035895 0
M  V30 381 C 38.5145 1.44021 1.32353 0
M  V30 382 O 39.7205 1.90088 1.93853 0
M  V30 383 C 38.1765 3.59897 -0.0136659 0
M  V30 384 C 37.7845 4.26536 -1.37006 0
M  V30 385 C 39.5285 4.22017 0.458425 0
M  V30 386 C 37.4355 5.76782 -1.30675 0
M  V30 387 H 36.3655 0.753938 -0.00964879 0
M  V30 388 H 39.0165 1.69243 -0.709166 0
M  V30 389 H 37.3985 3.89301 0.725325 0
M  V30 390 H 38.5725 4.0877 -2.12705 0
M  V30 391 H 36.8875 3.76419 -1.78038 0
M  V30 392 H 39.4845 5.32124 0.524247 0
M  V30 393 H 39.8275 3.89437 1.4712 0
M  V30 394 H 40.3605 3.97159 -0.225818 0
M  V30 395 H 37.0995 6.13988 -2.29564 0
M  V30 396 H 36.6195 5.96875 -0.591622 0
M  V30 397 H 38.2985 6.39063 -1.01033 0
M  V30 398 N 38.4306 0.297415 1.54768 0
M  V30 399 C 39.6556 -0.318435 2.04941 0
M  V30 400 C 40.0806 -1.4701 1.17345 0
M  V30 401 O 39.4386 -1.80436 0.176758 0
M  V30 402 C 39.4866 -0.755749 3.52592 0
M  V30 403 O 38.5906 -1.86088 3.68028 0
M  V30 404 H 37.9316 -0.062421 0.661059 0
M  V30 405 H 40.4616 0.438215 1.99852 0
M  V30 406 H 40.4716 -1.04552 3.94376 0
M  V30 407 H 39.1466 0.0867233 4.1581 0
M  V30 408 H 37.7236 -1.57193 3.38149 0
M  V30 409 N 39.9087 -1.5758 0.0250728 0
M  V30 410 C 40.8407 -2.06869 -0.986796 0
M  V30 411 C 41.8537 -0.991332 -1.29137 0
M  V30 412 O 43.0427 -1.26761 -1.25674 0
M  V30 413 C 40.1427 -2.47486 -2.31525 0
M  V30 414 C 39.3157 -3.78253 -2.19643 0
M  V30 415 C 38.3747 -4.05464 -3.35388 0
M  V30 416 O 37.4007 -4.75774 -3.12454 0
M  V30 417 N 38.6027 -3.55321 -4.59051 0
M  V30 418 H 41.3677 -2.94302 -0.566276 0
M  V30 419 H 38.9287 -1.6109 -0.161776 0
M  V30 420 H 40.9207 -2.62785 -3.07776 0
M  V30 421 H 39.4907 -1.65441 -2.65232 0
M  V30 422 H 38.7107 -3.7279 -1.28144 0
M  V30 423 H 39.9987 -4.63936 -2.08903 0
M  V30 424 H 39.3967 -2.98431 -4.80578 0
M  V30 425 H 37.9537 -3.75905 -5.32483 0
M  V30 426 N 41.3868 0.248026 -1.55636 0
M  V30 427 C 42.3168 1.31079 -1.93237 0
M  V30 428 C 43.2978 1.50264 -0.797174 0
M  V30 429 O 44.4828 1.62891 -1.05737 0
M  V30 430 C 41.6128 2.66575 -2.22609 0
M  V30 431 C 40.5668 2.62087 -3.3837 0
M  V30 432 C 39.8928 4.01369 -3.53281 0
M  V30 433 C 41.1928 2.19171 -4.7409 0
M  V30 434 H 42.8868 0.998556 -2.82257 0
M  V30 435 H 40.4328 0.47891 -1.35803 0
M  V30 436 H 42.3858 3.41057 -2.47503 0
M  V30 437 H 41.1098 2.99432 -1.30414 0
M  V30 438 H 39.7688 1.90063 -3.13483 0
M  V30 439 H 39.4168 4.31489 -2.58508 0
M  V30 440 H 39.1168 3.99254 -4.31127 0
M  V30 441 H 40.6408 4.77552 -3.80495 0
M  V30 442 H 42.0548 2.83384 -4.98363 0
M  V30 443 H 40.4518 2.2817 -5.5503 0
M  V30 444 H 41.5218 1.14336 -4.71227 0
M  V30 445 N 42.8649 1.48995 0.513639 0
M  V30 446 C 44.0899 1.61792 1.29762 0
M  V30 447 C 44.5149 0.284475 1.85936 0
M  V30 448 O 43.8729 -0.746185 1.65232 0
M  V30 449 C 43.9209 2.67993 2.41272 0
M  V30 450 O 43.0249 2.26287 3.44772 0
M  V30 451 H 42.3659 0.541963 0.38363 0
M  V30 452 H 44.8959 1.95097 0.616307 0
M  V30 453 H 44.9059 2.89772 2.87221 0
M  V30 454 H 43.5809 3.64791 1.9975 0
M  V30 455 H 42.1579 2.14788 3.04829 0
M  V30 456 N 44.343 -0.763751 1.37857 0
M  V30 457 C 45.291 -1.89864 1.34367 0
M  V30 458 C 46.285 -1.67816 0.231143 0
M  V30 459 O 47.491 -1.75508 0.399617 0
M  V30 460 H 43.866 -0.624501 0.41893 0
M  V30 461 H 45.837 -1.89925 2.30155 0
M  V30 462 C 44.586 -3.27227 1.1755 0
M  V30 463 H 43.909 -3.44773 2.02414 0
M  V30 464 H 45.349 -4.06911 1.1916 0
M  V30 465 C 43.808 -3.36692 -0.118311 0
M  V30 466 O 44.338 -3.86374 -1.09902 0
M  V30 467 N 42.544 -2.90092 -0.171717 0
M  V30 468 H 42.091 -2.49853 0.627012 0
M  V30 469 H 42.049 -2.96806 -1.03699 0
M  V30 470 N 45.8211 -1.22559 -0.990812 0
M  V30 471 C 47.0491 -1.07779 -1.76611 0
M  V30 472 C 47.4641 0.371513 -1.85109 0
M  V30 473 O 46.8211 1.25737 -1.32274 0
M  V30 474 C 46.8721 -1.68512 -3.19822 0
M  V30 475 O 46.5931 -3.07774 -3.1178 0
M  V30 476 C 48.0941 -1.59035 -4.13791 0
M  V30 477 H 45.3141 -0.377729 -0.554583 0
M  V30 478 H 47.8581 -1.62195 -1.24551 0
M  V30 479 H 46.0131 -1.18154 -3.68942 0
M  V30 480 H 46.4271 -3.37062 -4.01858 0
M  V30 481 H 47.9011 -2.0625 -5.1202 0
M  V30 482 H 48.3781 -0.547273 -4.35777 0
M  V30 483 H 48.9841 -2.08709 -3.70568 0
M  V30 484 N 47.2992 1.18797 -1.03562 0
M  V30 485 C 48.2492 2.20161 -0.592724 0
M  V30 486 C 49.2332 1.56772 0.362133 0
M  V30 487 O 50.4252 1.76062 0.182009 0
M  V30 488 C 47.5542 3.43266 0.0481024 0
M  V30 489 C 46.6402 4.13786 -0.9296 0
M  V30 490 N 47.0312 4.60388 -2.09467 0
M  V30 491 C 45.3292 4.39572 -0.754499 0
M  V30 492 C 46.0302 5.14619 -2.71187 0
M  V30 493 N 45.0062 5.05826 -1.991 0
M  V30 494 H 48.8082 2.53877 -1.48066 0
M  V30 495 H 46.3222 1.34946 -0.903514 0
M  V30 496 H 48.3192 4.15136 0.383058 0
M  V30 497 H 46.9792 3.11048 0.931636 0
M  V30 498 H 47.9902 4.54999 -2.47379 0
M  V30 499 H 44.6672 4.17425 0.0793713 0
M  V30 500 H 46.0572 5.60917 -3.69895 0
M  V30 501 N 48.7773 0.814389 1.34928 0
M  V30 502 C 49.7073 0.244827 2.32213 0
M  V30 503 C 50.6883 -0.634024 1.57842 0
M  V30 504 O 51.8733 -0.562676 1.8587 0
M  V30 505 C 49.0033 -0.601106 3.42058 0
M  V30 506 C 47.9573 0.179896 4.27622 0
M  V30 507 C 47.2833 -0.788237 5.28858 0
M  V30 508 C 48.5833 1.38329 5.03649 0
M  V30 509 H 50.2773 1.05763 2.80097 0
M  V30 510 H 47.8233 0.510029 1.34665 0
M  V30 511 H 49.7763 -1.00968 4.09125 0
M  V30 512 H 48.5003 -1.44688 2.92802 0
M  V30 513 H 47.1593 0.569739 3.62146 0
M  V30 514 H 46.8073 -1.62973 4.75866 0
M  V30 515 H 46.5073 -0.269942 5.8698 0
M  V30 516 H 48.0313 -1.19485 5.98795 0
M  V30 517 H 49.4453 1.04918 5.63618 0
M  V30 518 H 47.8423 1.83662 5.71304 0
M  V30 519 H 48.9123 2.16592 4.33839 0
M  V30 520 N 50.2554 -1.46986 0.568584 0
M  V30 521 C 51.5014 -2.02741 0.0488709 0
M  V30 522 C 51.8344 -1.44077 -1.30214 0
M  V30 523 O 51.1094 -0.600552 -1.84996 0
M  V30 524 C 51.3924 -3.60086 -0.032047 0
M  V30 525 C 51.2454 -4.29162 1.34686 0
M  V30 526 C 52.5644 -4.33838 -0.739798 0
M  V30 527 H 49.6834 -0.736749 0.0192338 0
M  V30 528 H 52.3254 -1.75289 0.733065 0
M  V30 529 H 50.4754 -3.83606 -0.61473 0
M  V30 530 H 52.1474 -4.16948 1.97362 0
M  V30 531 H 50.3904 -3.89073 1.91846 0
M  V30 532 H 51.0614 -5.37826 1.24285 0
M  V30 533 H 53.5374 -4.15378 -0.244939 0
M  V30 534 H 52.4134 -5.43537 -0.765406 0
M  V30 535 H 52.6744 -4.03875 -1.79827 0
M  V30 536 N 51.7335 -0.305618 -1.54608 0
M  V30 537 C 52.9615 0.304775 -2.04643 0
M  V30 538 C 53.3765 1.47167 -1.18268 0
M  V30 539 O 52.7335 1.81296 -0.209328 0
M  V30 540 C 52.7845 0.756564 -3.53495 0
M  V30 541 O 52.5055 -0.36389 -4.36586 0
M  V30 542 C 54.0065 1.43163 -4.19546 0
M  V30 543 H 51.2265 0.0655481 -0.667791 0
M  V30 544 H 53.7705 -0.446592 -1.99564 0
M  V30 545 H 51.9255 1.45794 -3.58919 0
M  V30 546 H 52.3395 -0.0113121 -5.24499 0
M  V30 547 H 53.8135 1.69886 -5.25207 0
M  V30 548 H 54.2905 2.37318 -3.69563 0
M  V30 549 H 54.8965 0.773307 -4.18211 0
M  V30 550 N 53.2116 1.57565 -0.0334293 0
M  V30 551 C 54.4396 1.9628 0.654347 0
M  V30 552 C 54.8546 0.910138 1.65414 0
M  V30 553 O 54.2116 -0.107595 1.82183 0
M  V30 554 C 54.2626 3.35067 1.35693 0
M  V30 555 O 53.9836 4.36296 0.397191 0
M  V30 556 C 55.4846 3.88439 2.13613 0
M  V30 557 H 52.7046 0.646369 0.180132 0
M  V30 558 H 55.2486 2.04282 -0.0944721 0
M  V30 559 H 53.4036 3.2827 2.05712 0
M  V30 560 H 53.8176 5.1678 0.896597 0
M  V30 561 H 55.2916 4.8788 2.58219 0
M  V30 562 H 55.7686 3.22914 2.97696 0
M  V30 563 H 56.3746 3.98516 1.48543 0
M  V30 564 N 54.6897 -0.239769 1.55765 0
M  V30 565 C 55.9147 -0.988373 1.82335 0
M  V30 566 C 56.3397 -1.77886 0.611421 0
M  V30 567 O 55.6977 -1.75889 -0.439639 0
M  V30 568 C 55.7457 -1.89627 3.06715 0
M  V30 569 O 54.8497 -2.98904 2.84131 0
M  V30 570 H 54.1907 -0.280858 0.601677 0
M  V30 571 H 56.7207 -0.258597 2.02959 0
M  V30 572 H 56.7307 -2.30957 3.36338 0
M  V30 573 H 55.4057 -1.31511 3.9456 0
M  V30 574 H 53.9827 -2.61651 2.65694 0
M  V30 575 N 56.1678 -1.49265 -0.50573 0
M  V30 576 C 57.3928 -1.62478 -1.28902 0
M  V30 577 C 57.8178 -0.294332 -1.85783 0
M  V30 578 O 57.1758 0.737412 -1.65626 0
M  V30 579 C 57.2238 -2.69268 -2.39848 0
M  V30 580 O 56.3278 -2.28113 -3.43567 0
M  V30 581 H 55.6688 -0.54399 -0.380751 0
M  V30 582 H 58.1988 -1.95421 -0.605952 0
M  V30 583 H 58.2088 -2.91291 -2.85681 0
M  V30 584 H 56.8838 -3.65846 -1.97812 0
M  V30 585 H 55.4608 -2.16401 -3.03685 0
M  V30 586 N 57.6459 0.756429 -1.3826 0
M  V30 587 C 58.8929 1.51547 -1.34312 0
M  V30 588 C 59.2209 1.94382 0.0677144 0
M  V30 589 O 58.4759 1.65514 1.04421 0
M  V30 590 C 58.7749 2.78313 -2.24224 0
M  V30 591 C 58.4409 2.54455 -3.72241 0
M  V30 592 C 57.1029 2.47657 -4.12576 0
M  V30 593 C 59.4549 2.3354 -4.65949 0
M  V30 594 C 56.7829 2.17956 -5.44713 0
M  V30 595 C 59.1349 2.05359 -5.9834 0
M  V30 596 C 57.7989 1.97016 -6.37762 0
M  V30 597 H 57.0689 0.55455 -0.491482 0
M  V30 598 H 59.7159 0.870039 -1.70595 0
M  V30 599 H 58.0209 3.47492 -1.80987 0
M  V30 600 H 59.7179 3.36259 -2.18474 0
M  V30 601 H 56.3079 2.60616 -3.40261 0
M  V30 602 H 60.4919 2.37772 -4.35635 0
M  V30 603 H 55.7479 2.10003 -5.74203 0
M  V30 604 H 59.9219 1.88179 -6.70494 0
M  V30 605 H 57.5489 1.73766 -7.40074 0
M  V30 606 N 59.124 1.23083 0.984299 0
M  V30 607 C 60.354 1.08556 1.75781 0
M  V30 608 C 60.762 -0.366171 1.85623 0
M  V30 609 O 60.105 -1.26524 1.33182 0
M  V30 610 C 60.167 1.63208 3.20318 0
M  V30 611 C 59.831 3.11922 3.33997 0
M  V30 612 C 60.828 4.09259 3.2063 0
M  V30 613 C 58.513 3.51552 3.58771 0
M  V30 614 C 60.507 5.4421 3.31835 0
M  V30 615 C 58.194 4.86649 3.69616 0
M  V30 616 C 59.192 5.82787 3.56157 0
M  V30 617 O 58.88 7.15431 3.66626 0
M  V30 618 H 58.612 0.380713 0.5586 0
M  V30 619 H 61.166 1.63321 1.2456 0
M  V30 620 H 59.396 1.0286 3.72769 0
M  V30 621 H 61.085 1.44216 3.79416 0
M  V30 622 H 61.851 3.79984 3.01392 0
M  V30 623 H 57.73 2.77239 3.6832 0
M  V30 624 H 61.274 6.1923 3.21247 0
M  V30 625 H 57.171 5.15601 3.88363 0
M  V30 626 H 57.939 7.23127 3.83445 0
M  V30 627 N 60.6021 -1.18246 1.0419 0
M  V30 628 C 61.5491 -2.2192 0.634037 0
M  V30 629 C 62.5191 -1.62179 -0.358765 0
M  V30 630 O 63.7041 -1.89122 -0.252466 0
M  V30 631 C 60.8441 -3.451 0.00445535 0
M  V30 632 C 59.9571 -4.19174 1.04487 0
M  V30 633 C 59.0921 -5.29813 0.383676 0
M  V30 634 C 58.1311 -5.9566 1.4091 0
M  V30 635 N 57.2681 -6.97834 0.772784 0
M  V30 636 H 62.1081 -2.56164 1.52263 0
M  V30 637 H 59.6451 -1.25843 0.761701 0
M  V30 638 H 61.6031 -4.15485 -0.377919 0
M  V30 639 H 60.2331 -3.11472 -0.847652 0
M  V30 640 H 59.2851 -3.47604 1.54518 0
M  V30 641 H 60.5971 -4.64267 1.82368 0
M  V30 642 H 59.7511 -6.06677 -0.0528366 0
M  V30 643 H 58.4901 -4.85825 -0.427208 0
M  V30 644 H 57.4951 -5.17535 1.85574 0
M  V30 645 H 58.7201 -6.4173 2.22171 0
M  V30 646 H 56.6661 -6.55998 -0.0177708 0
M  V30 647 H 56.5831 -7.41186 1.48928 0
M  V30 648 H 57.8511 -7.78665 0.36071 0
M  V30 649 N 62.0802 -0.821533 -1.34494 0
M  V30 650 C 63.3052 -0.420873 -2.03085 0
M  V30 651 C 63.7302 0.964915 -1.61465 0
M  V30 652 O 63.0882 1.62763 -0.798607 0
M  V30 653 C 63.1362 -0.529414 -3.56693 0
M  V30 654 O 62.2402 0.451302 -4.09923 0
M  V30 655 H 61.5812 -0.173489 -0.640935 0
M  V30 656 H 64.1112 -1.11157 -1.71771 0
M  V30 657 H 64.1212 -0.404671 -4.05988 0
M  V30 658 H 62.7962 -1.54014 -3.86332 0
M  V30 659 H 61.3732 0.285558 -3.71805 0
M  V30 660 N 63.5583 1.46682 -0.576371 0
M  V30 661 C 64.5053 2.30241 0.160499 0
M  V30 662 C 65.4753 1.40233 0.890162 0
M  V30 663 O 66.6603 1.69186 0.882084 0
M  V30 664 C 63.8003 3.24578 1.1723 0
M  V30 665 C 62.9133 4.29684 0.446736 0
M  V30 666 C 62.0483 5.11154 1.44551 0
M  V30 667 C 61.0873 6.08015 0.70599 0
M  V30 668 N 60.2243 6.82376 1.65251 0
M  V30 669 H 65.0643 2.92727 -0.558127 0
M  V30 670 H 62.6013 1.44272 -0.287056 0
M  V30 671 H 64.5593 3.77711 1.77172 0
M  V30 672 H 63.1893 2.63916 1.85872 0
M  V30 673 H 62.2413 3.79458 -0.267594 0
M  V30 674 H 63.5533 4.98626 -0.131686 0
M  V30 675 H 62.7073 5.68533 2.11791 0
M  V30 676 H 61.4463 4.42158 2.05786 0
M  V30 677 H 60.4513 5.49796 0.0197725 0
M  V30 678 H 61.6763 6.79028 0.09912 0
M  V30 679 H 59.6223 6.16094 2.25308 0
M  V30 680 H 59.5393 7.47556 1.12673 0
M  V30 681 H 60.8073 7.44316 2.31546 0
M  V30 682 N 65.0364 0.313813 1.54444 0
M  V30 683 C 66.4474 -0.176243 1.85866 0
M  V30 684 C 66.7984 -1.52405 1.23561 0
M  V30 685 O 65.9234 -2.09605 0.538016 0
M  V30 686 C 66.5184 -0.32657 3.37222 0
M  V30 687 C 65.0774 -0.760846 3.6863 0
M  V30 688 C 64.2244 0.123247 2.77026 0
M  V30 689 H 67.1754 0.534418 1.49431 0
M  V30 690 H 67.1964 -1.15908 3.62416 0
M  V30 691 H 66.7084 0.654531 3.82541 0
M  V30 692 H 64.8094 -1.75204 3.28838 0
M  V30 693 H 64.9224 -0.571353 4.75681 0
M  V30 694 H 63.2864 -0.399597 2.51546 0
M  V30 695 H 64.0694 1.10094 3.25168 0
M  V30 696 N 66.5145 -1.57545 0.0417849 0
M  V30 697 C 67.4445 -2.14009 -0.933929 0
M  V30 698 C 68.4255 -1.05938 -1.33083 0
M  V30 699 O 69.6105 -1.33833 -1.40721 0
M  V30 700 C 66.7405 -2.67747 -2.21199 0
M  V30 701 C 65.6945 -3.80718 -1.95544 0
M  V30 702 C 65.0205 -4.20935 -3.29724 0
M  V30 703 C 66.3205 -5.06258 -1.28452 0
M  V30 704 H 68.0145 -2.95788 -0.463645 0
M  V30 705 H 65.5605 -1.42285 -0.221573 0
M  V30 706 H 67.5135 -3.05886 -2.89848 0
M  V30 707 H 66.2375 -1.83147 -2.70416 0
M  V30 708 H 64.8965 -3.43037 -1.2931 0
M  V30 709 H 64.5445 -3.33298 -3.76724 0
M  V30 710 H 64.2445 -4.9707 -3.13361 0
M  V30 711 H 65.7685 -4.61666 -3.9962 0
M  V30 712 H 67.1825 -5.41903 -1.8712 0
M  V30 713 H 65.5795 -5.87475 -1.22445 0
M  V30 714 H 66.6495 -4.84207 -0.259219 0
M  V30 715 N 67.9926 0.231505 -1.5589 0
M  V30 716 C 69.2406 0.955461 -1.78088 0
M  V30 717 C 69.5616 1.85262 -0.608533 0
M  V30 718 O 68.8316 1.92277 0.375035 0
M  V30 719 H 67.4116 0.355787 -0.656829 0
M  V30 720 H 70.0736 0.245751 -1.93344 0
M  V30 721 H 69.1696 1.56814 -2.69844 0
M  V30 722 N 69.4707 1.49531 0.497807 0
M  V30 723 C 70.8817 1.52344 1.07927 0
M  V30 724 C 71.2327 0.311469 1.93712 0
M  V30 725 O 70.3577 -0.578405 2.08527 0
M  V30 726 C 70.9527 2.76062 1.96405 0
M  V30 727 C 69.5117 2.81643 2.49709 0
M  V30 728 C 68.6587 2.46299 1.27404 0
M  V30 729 H 71.6097 1.56182 0.281576 0
M  V30 730 H 71.6307 2.56405 2.81135 0
M  V30 731 H 71.1427 3.64254 1.33943 0
M  V30 732 H 69.2437 1.97739 3.15801 0
M  V30 733 H 69.3567 3.83891 2.86643 0
M  V30 734 H 67.7207 1.98148 1.60029 0
M  V30 735 H 68.5037 3.36769 0.66645 0
M  V30 736 N 70.9488 -0.749086 1.3866 0
M  V30 737 C 71.8808 -1.87273 1.32142 0
M  V30 738 C 72.8938 -1.61127 0.232787 0
M  V30 739 O 74.0828 -1.71623 0.49069 0
M  V30 740 C 71.1828 -3.23005 1.02571 0
M  V30 741 C 70.3558 -3.7662 2.22433 0
M  V30 742 C 69.4148 -4.90879 1.89537 0
M  V30 743 O 68.4408 -5.05276 2.62078 0
M  V30 744 N 69.6428 -5.74198 0.853031 0
M  V30 745 H 72.4078 -1.93373 2.28969 0
M  V30 746 H 69.9688 -0.929216 1.32579 0
M  V30 747 H 71.9608 -3.96992 0.786085 0
M  V30 748 H 70.5308 -3.12262 0.145249 0
M  V30 749 H 69.7508 -2.94147 2.62434 0
M  V30 750 H 71.0388 -4.09173 3.02415 0
M  V30 751 H 70.4368 -5.6514 0.25155 0
M  V30 752 H 68.9938 -6.48313 0.67329 0
M  V30 753 N 72.4269 -1.23603 -0.977757 0
M  V30 754 C 73.7039 -0.977897 -1.69401 0
M  V30 755 C 74.0839 0.502738 -2.05026 0
M  V30 756 O 73.4319 1.47459 -1.74551 0
M  V30 757 C 73.6419 -1.89077 -2.93345 0
M  V30 758 C 74.9899 -2.15579 -3.65802 0
M  V30 759 O 76.0139 -1.86648 -3.03383 0
M  V30 760 O 74.8729 -2.64658 -4.78141 0
M  V30 761 H 71.9669 -0.369025 -0.740101 0
M  V30 762 H 74.5129 -1.34657 -1.03274 0
M  V30 763 H 73.2849 -2.89158 -2.63634 0
M  V30 764 H 72.9079 -1.52463 -3.67207 0
M  V30 765 N 73.905 1.17692 -1.04816 0
M  V30 766 C 74.837 2.21103 -0.603822 0
M  V30 767 C 75.85 1.59411 0.33046 0
M  V30 768 O 77.039 1.7807 0.12379 0
M  V30 769 C 74.139 3.38623 0.136898 0
M  V30 770 C 73.312 4.29888 -0.807137 0
M  V30 771 C 72.371 5.26088 -0.10836 0
M  V30 772 O 71.397 5.64353 -0.741232 0
M  V30 773 N 72.599 5.68882 1.15558 0
M  V30 774 H 75.364 2.59848 -1.49329 0
M  V30 775 H 72.925 1.32553 -0.929587 0
M  V30 776 H 74.917 4.00009 0.614401 0
M  V30 777 H 73.487 2.98508 0.927993 0
M  V30 778 H 72.707 3.65993 -1.46434 0
M  V30 779 H 73.995 4.87759 -1.44807 0
M  V30 780 H 73.393 5.39861 1.69015 0
M  V30 781 H 71.95 6.32429 1.57722 0
M  V30 782 N 75.3831 0.828654 1.34056 0
M  V30 783 C 76.7941 0.477534 1.8049 0
M  V30 784 C 77.1451 -1.00258 1.6865 0
M  V30 785 O 76.2701 -1.78057 1.22982 0
M  V30 786 C 76.8651 0.860018 3.27703 0
M  V30 787 C 75.4241 0.561185 3.72193 0
M  V30 788 C 74.5711 1.07385 2.55663 0
M  V30 789 H 77.5221 1.0183 1.21722 0
M  V30 790 H 77.5431 0.166038 3.80138 0
M  V30 791 H 77.0551 1.93731 3.36288 0
M  V30 792 H 75.1561 -0.506465 3.69142 0
M  V30 793 H 75.2691 1.10926 4.66082 0
M  V30 794 H 73.6331 0.495149 2.49841 0
M  V30 795 H 74.4161 2.15771 2.67016 0
M  V30 796 N 76.8612 -1.46375 0.584142 0
M  V30 797 C 78.1382 -1.956 0.0033388 0
M  V30 798 C 78.5182 -1.52679 -1.45782 0
M  V30 799 O 77.8662 -0.77816 -2.14842 0
M  V30 800 C 78.0762 -3.48551 0.176891 0
M  V30 801 C 79.4242 -4.24576 0.0454609 0
M  V30 802 O 80.4482 -3.56043 0.105801 0
M  V30 803 O 79.3072 -5.46427 -0.0890376 0
M  V30 804 H 76.4012 -0.825547 -0.0490066 0
M  V30 805 H 78.9472 -1.56652 0.65256 0
M  V30 806 H 77.7192 -3.72683 1.1926 0
M  V30 807 H 77.3422 -3.94332 -0.508695 0
M  V30 808 N 78.3393 -0.321999 -1.54275 0
M  V30 809 C 79.5693 0.282642 -2.04658 0
M  V30 810 C 79.9773 1.46453 -1.19784 0
M  V30 811 O 79.3203 1.82367 -0.220932 0
M  V30 812 C 79.3823 0.781857 -3.50895 0
M  V30 813 C 79.0463 -0.277517 -4.56157 0
M  V30 814 C 80.0433 -1.11307 -5.07845 0
M  V30 815 C 77.7283 -0.425256 -5.00497 0
M  V30 816 C 79.7223 -2.08211 -6.02434 0
M  V30 817 C 77.4093 -1.39771 -5.94901 0
M  V30 818 C 78.4073 -2.2246 -6.45756 0
M  V30 819 O 78.0953 -3.18054 -7.38307 0
M  V30 820 H 77.8273 0.0622636 -0.673126 0
M  V30 821 H 80.3813 -0.465792 -2.00049 0
M  V30 822 H 78.6113 1.58118 -3.52896 0
M  V30 823 H 80.3003 1.30467 -3.84361 0
M  V30 824 H 81.0663 -1.00991 -4.74369 0
M  V30 825 H 76.9453 0.20847 -4.60528 0
M  V30 826 H 80.4893 -2.72791 -6.42052 0
M  V30 827 H 76.3863 -1.50152 -6.27794 0
M  V30 828 H 77.1543 -3.13275 -7.56175 0
M  V30 829 N 79.8174 1.5752 -0.0501392 0
M  V30 830 C 81.0634 1.92936 0.624798 0
M  V30 831 C 81.3964 0.928685 1.70555 0
M  V30 832 O 80.6714 -0.0454779 1.94447 0
M  V30 833 C 80.9544 3.38737 1.22185 0
M  V30 834 C 80.8074 4.49552 0.149218 0
M  V30 835 C 82.1264 3.84913 2.13378 0
M  V30 836 H 79.2454 0.701604 0.225657 0
M  V30 837 H 81.8874 1.89671 -0.111693 0
M  V30 838 H 80.0374 3.4165 1.84953 0
M  V30 839 H 81.7094 4.58768 -0.482648 0
M  V30 840 H 79.9524 4.30638 -0.522841 0
M  V30 841 H 80.6234 5.48653 0.606966 0
M  V30 842 H 83.0994 3.8387 1.60572 0
M  V30 843 H 81.9754 4.87584 2.52097 0
M  V30 844 H 82.2364 3.21611 3.03346 0
M  V30 845 N 81.2955 -0.223234 1.56011 0
M  V30 846 C 82.2435 -1.29627 1.93131 0
M  V30 847 C 83.2375 -1.48608 0.813146 0
M  V30 848 O 84.4435 -1.49802 0.997966 0
M  V30 849 H 80.8185 -0.434563 0.613726 0
M  V30 850 H 82.7895 -0.955995 2.82672 0
M  V30 851 C 81.5385 -2.63983 2.26292 0
M  V30 852 H 80.8615 -2.50185 3.11846 0
M  V30 853 H 82.3015 -3.3788 2.56151 0
M  V30 854 C 80.7605 -3.18866 1.08747 0
M  V30 855 O 81.2905 -4.00192 0.347727 0
M  V30 856 N 79.4965 -2.77217 0.871743 0
M  V30 857 H 79.0435 -2.1119 1.47501 0
M  V30 858 H 79.0015 -3.1428 0.0869905 0
M  V30 859 N 82.7736 -1.49793 -0.48987 0
M  V30 860 C 83.7366 -1.66752 -1.57246 0
M  V30 861 C 84.7366 -0.538867 -1.51502 0
M  V30 862 O 85.9266 -0.805545 -1.54456 0
M  V30 863 C 83.0586 -1.67528 -2.96896 0
M  V30 864 H 84.2516 -2.63321 -1.43534 0
M  V30 865 H 81.8046 -1.38992 -0.714914 0
M  V30 866 H 82.5396 -0.725837 -3.16073 0
M  V30 867 H 82.3246 -2.49504 -3.02473 0
M  V30 868 H 83.8146 -1.82667 -3.7553 0
M  V30 869 N 84.2517 0.741722 -1.39055 0
M  V30 870 C 85.4977 1.50336 -1.36113 0
M  V30 871 C 85.8307 1.94148 0.0450796 0
M  V30 872 O 85.1057 1.66301 1.00868 0
M  V30 873 C 85.3887 2.74773 -2.32749 0
M  V30 874 C 85.2417 2.37023 -3.82283 0
M  V30 875 C 86.5607 3.76846 -2.27322 0
M  V30 876 H 83.6797 0.545351 -0.495743 0
M  V30 877 H 86.3217 0.848624 -1.69995 0
M  V30 878 H 84.4717 3.30639 -2.03986 0
M  V30 879 H 86.1437 1.8684 -4.21768 0
M  V30 880 H 84.3867 1.69334 -3.99385 0
M  V30 881 H 85.0577 3.26104 -4.45376 0
M  V30 882 H 87.5337 3.30548 -2.5274 0
M  V30 883 H 86.4097 4.6159 -2.97028 0
M  V30 884 H 86.6707 4.23286 -1.27599 0
M  V30 885 N 85.7298 1.2412 0.971189 0
M  V30 886 C 86.6928 1.03156 2.04674 0
M  V30 887 C 87.6928 -0.00990322 1.60797 0
M  V30 888 O 88.8828 0.230729 1.72665 0
M  V30 889 C 86.0148 0.562765 3.36223 0
M  V30 890 H 87.2078 1.98614 2.24705 0
M  V30 891 H 84.7608 1.06293 1.14593 0
M  V30 892 H 85.4958 -0.395176 3.21883 0
M  V30 893 H 85.2808 1.31441 3.69413 0
M  V30 894 H 86.7708 0.437015 4.15307 0
M  V30 895 N 87.2079 -1.17134 1.05439 0
M  V30 896 C 88.1549 -2.21235 0.657539 0
M  V30 897 C 89.1249 -1.62551 -0.341543 0
M  V30 898 O 90.3099 -1.89379 -0.232393 0
M  V30 899 C 87.4499 -3.45076 0.0410575 0
M  V30 900 C 86.5629 -4.18042 1.08927 0
M  V30 901 C 85.6979 -5.29376 0.439848 0
M  V30 902 C 84.7369 -5.94132 1.4722 0
M  V30 903 N 83.8739 -6.96975 0.846756 0
M  V30 904 H 88.7139 -2.54534 1.54972 0
M  V30 905 H 86.2509 -1.25028 0.775006 0
M  V30 906 H 88.2089 -4.15862 -0.33383 0
M  V30 907 H 86.8389 -3.12353 -0.814568 0
M  V30 908 H 85.8909 -3.45945 1.58196 0
M  V30 909 H 87.2029 -4.62306 1.87282 0
M  V30 910 H 86.3569 -6.06699 0.0115125 0
M  V30 911 H 85.0959 -4.86251 -0.375656 0
M  V30 912 H 84.1009 -5.15538 1.91052 0
M  V30 913 H 85.3259 -6.39337 2.28965 0
M  V30 914 H 83.2719 -6.5598 0.0518075 0
M  V30 915 H 83.1889 -7.39565 1.5678 0
M  V30 916 H 84.4569 -7.78239 0.443277 0
M  V30 917 N 88.686 -0.835752 -1.33615 0
M  V30 918 C 89.935 -0.426289 -1.97144 0
M  V30 919 C 90.248 1.01912 -1.66953 0
M  V30 920 O 91.454 1.53311 -2.24072 0
M  V30 921 C 89.91 -0.711321 -3.52801 0
M  V30 922 C 89.518 -2.1712 -3.91871 0
M  V30 923 C 91.262 -0.368654 -4.22896 0
M  V30 924 C 89.169 -2.40044 -5.40493 0
M  V30 925 H 88.099 -0.15567 -0.737755 0
M  V30 926 H 90.75 -1.0239 -1.52278 0
M  V30 927 H 89.132 -0.0433766 -3.95976 0
M  V30 928 H 90.306 -2.87936 -3.59763 0
M  V30 929 H 88.621 -2.47654 -3.34749 0
M  V30 930 H 91.218 -0.517601 -5.32189 0
M  V30 931 H 91.561 0.688078 -4.10574 0
M  V30 932 H 92.094 -0.991702 -3.8524 0
M  V30 933 H 88.833 -3.44271 -5.57815 0
M  V30 934 H 88.353 -1.73785 -5.74072 0
M  V30 935 H 90.032 -2.23042 -6.0734 0
M  V30 936 N 90.1641 1.46063 -0.591896 0
M  V30 937 C 91.0741 2.34192 0.13831 0
M  V30 938 C 92.0901 1.50305 0.876608 0
M  V30 939 O 93.2661 1.8315 0.837728 0
M  V30 940 C 90.3311 3.27656 1.13326 0
M  V30 941 C 89.3921 4.27445 0.39863 0
M  V30 942 C 88.6251 5.16443 1.34618 0
M  V30 943 O 88.8481 5.08553 2.58321 0
M  V30 944 O 87.7821 5.95843 0.851768 0
M  V30 945 H 91.6081 2.98002 -0.58552 0
M  V30 946 H 89.1931 1.45188 -0.352239 0
M  V30 947 H 91.0751 3.85291 1.70671 0
M  V30 948 H 89.7501 2.6643 1.83839 0
M  V30 949 H 88.6571 3.73471 -0.216895 0
M  V30 950 H 89.9901 4.91482 -0.265709 0
M  V30 951 N 91.6422 0.330177 1.54103 0
M  V30 952 C 92.8702 -0.272179 2.05102 0
M  V30 953 C 93.2852 -1.45267 1.20595 0
M  V30 954 O 92.6422 -1.8094 0.238144 0
M  V30 955 C 92.6932 -0.70023 3.54653 0
M  V30 956 O 92.4142 0.433301 4.35952 0
M  V30 957 C 93.9152 -1.3647 4.21771 0
M  V30 958 H 91.1352 -0.0549159 0.668749 0
M  V30 959 H 93.6792 0.478285 1.98828 0
M  V30 960 H 91.8342 -1.40066 3.61193 0
M  V30 961 H 92.2482 0.0947539 5.24414 0
M  V30 962 H 93.7222 -1.61509 5.27843 0
M  V30 963 H 94.1992 -2.31409 3.73292 0
M  V30 964 H 94.8052 -0.706675 4.19388 0
M  V30 965 N 93.1203 -1.57491 0.0584922 0
M  V30 966 C 94.0303 -2.15448 -0.928414 0
M  V30 967 C 95.0463 -1.11416 -1.3365 0
M  V30 968 O 96.2223 -1.4362 -1.41193 0
M  V30 969 C 93.2873 -2.69393 -2.18239 0
M  V30 970 C 92.3483 -3.88249 -1.83196 0
M  V30 971 C 91.5813 -4.39613 -3.02616 0
M  V30 972 O 91.8043 -3.90023 -4.16219 0
M  V30 973 O 90.7383 -5.31111 -2.83204 0
M  V30 974 H 94.5643 -3.00112 -0.465483 0
M  V30 975 H 92.1493 -1.48499 -0.163826 0
M  V30 976 H 94.0313 -3.04026 -2.91798 0
M  V30 977 H 92.7063 -1.87796 -2.63656 0
M  V30 978 H 91.6133 -3.58492 -1.06931 0
M  V30 979 H 92.9463 -4.71098 -1.42573 0
M  V30 980 N 94.5984 0.214957 -1.56127 0
M  V30 981 C 95.5284 1.2695 -1.95974 0
M  V30 982 C 96.5094 1.48539 -0.828868 0
M  V30 983 O 97.6944 1.60611 -1.09168 0
M  V30 984 C 94.8244 2.61794 -2.28214 0
M  V30 985 C 93.7784 2.54851 -3.43853 0
M  V30 986 C 93.1044 3.93785 -3.61715 0
M  V30 987 C 94.4044 2.09065 -4.78632 0
M  V30 988 H 96.0984 0.93846 -2.84312 0
M  V30 989 H 93.6444 0.449996 -1.36788 0
M  V30 990 H 95.5974 3.35731 -2.54682 0
M  V30 991 H 94.3214 2.96599 -1.36736 0
M  V30 992 H 92.9804 1.8337 -3.17444 0
M  V30 993 H 92.6284 4.25908 -2.67602 0
M  V30 994 H 92.3284 3.90019 -4.39498 0
M  V30 995 H 93.8524 4.69374 -3.90539 0
M  V30 996 H 95.2664 2.7275 -5.04262 0
M  V30 997 H 93.6634 2.16346 -5.59745 0
M  V30 998 H 94.7334 1.04315 -4.73547 0
M  V30 999 N 96.0765 1.50051 0.48192 0
M  V30 1000 C 97.3015 1.64508 1.26301 0
M  V30 1001 C 97.7265 0.323851 1.85291 0
M  V30 1002 O 97.0845 -0.710969 1.66778 0
M  V30 1003 C 97.1325 2.7305 2.35533 0
M  V30 1004 O 96.2365 2.3355 3.39895 0
M  V30 1005 H 95.5775 0.549978 0.372048 0
M  V30 1006 H 98.1075 1.9636 0.574786 0
M  V30 1007 H 98.1175 2.95799 2.8101 0
M  V30 1008 H 96.7925 3.68946 1.91967 0
M  V30 1009 H 95.3695 2.21205 3.00204 0
M  V30 1010 N 97.5546 -0.734337 1.39446 0
M  V30 1011 C 98.9656 -1.31264 1.32766 0
M  V30 1012 C 99.3166 -1.96198 -0.00767497 0
M  V30 1013 O 98.4416 -1.96346 -0.909796 0
M  V30 1014 C 99.0366 -2.38682 2.4045 0
M  V30 1015 C 97.5956 -2.92184 2.37288 0
M  V30 1016 C 96.7426 -1.6576 2.22304 0
M  V30 1017 H 99.6936 -0.531799 1.49525 0
M  V30 1018 H 99.7146 -3.19087 2.07276 0
M  V30 1019 H 99.2266 -1.91392 3.37625 0
M  V30 1020 H 97.3276 -3.43752 1.43754 0
M  V30 1021 H 97.4406 -3.45253 3.3217 0
M  V30 1022 H 95.8046 -1.9012 1.69489 0
M  V30 1023 H 96.5876 -1.20521 3.21449 0
M  V30 1024 N 99.0327 -1.24633 -0.964593 0
M  V30 1025 C 99.9627 -1.06611 -2.07741 0
M  V30 1026 C 100.944 0.0218666 -1.70086 0
M  V30 1027 O 102.129 -0.145793 -1.93652 0
M  V30 1028 C 99.2587 -0.673444 -3.40708 0
M  V30 1029 C 98.2127 -1.71054 -3.92332 0
M  V30 1030 C 97.5387 -1.17285 -5.21678 0
M  V30 1031 C 98.8387 -3.10718 -4.19824 0
M  V30 1032 H 100.533 -1.99693 -2.23076 0
M  V30 1033 H 98.0787 -0.96152 -1.07195 0
M  V30 1034 H 100.032 -0.534345 -4.17998 0
M  V30 1035 H 98.7557 0.293073 -3.25282 0
M  V30 1036 H 97.4147 -1.83791 -3.17201 0
M  V30 1037 H 97.0627 -0.196847 -5.02615 0
M  V30 1038 H 96.7627 -1.86592 -5.57187 0
M  V30 1039 H 98.2867 -1.04593 -6.01575 0
M  V30 1040 H 99.7007 -3.01192 -4.87808 0
M  V30 1041 H 98.0977 -3.77406 -4.66567 0
M  V30 1042 H 99.1677 -3.58524 -3.26479 0
M  V30 1043 N 100.511 1.16574 -1.06058 0
M  V30 1044 C 101.458 2.20883 -0.669263 0
M  V30 1045 C 102.428 1.62729 0.332918 0
M  V30 1046 O 103.613 1.895 0.222346 0
M  V30 1047 C 100.753 3.45049 -0.0593572 0
M  V30 1048 C 99.8658 4.17458 -1.11143 0
M  V30 1049 C 99.0008 5.29135 -0.467916 0
M  V30 1050 C 98.0398 5.93343 -1.50369 0
M  V30 1051 N 97.1768 6.96516 -0.883706 0
M  V30 1052 H 102.017 2.53709 -1.5632 0
M  V30 1053 H 99.5538 1.24616 -0.781625 0
M  V30 1054 H 101.512 4.16033 0.311771 0
M  V30 1055 H 100.142 3.12781 0.797992 0
M  V30 1056 H 99.1938 3.45101 -1.60029 0
M  V30 1057 H 100.506 4.61307 -1.89731 0
M  V30 1058 H 99.6598 6.06684 -0.0436871 0
M  V30 1059 H 98.3988 4.86443 0.349864 0
M  V30 1060 H 97.4038 5.14517 -1.93784 0
M  V30 1061 H 98.6288 6.38114 -2.32352 0
M  V30 1062 H 96.5748 6.55943 -0.086595 0
M  V30 1063 H 96.4918 7.38723 -1.607 0
M  V30 1064 H 97.7598 7.77993 -0.484543 0
M  V30 1065 N 101.989 0.842826 1.3317 0
M  V30 1066 C 102.919 0.294028 2.31641 0
M  V30 1067 C 103.9 -0.600401 1.59151 0
M  V30 1068 O 105.085 -0.523124 1.87022 0
M  V30 1069 C 102.215 -0.528416 3.43257 0
M  V30 1070 C 101.169 0.27056 4.27144 0
M  V30 1071 C 100.495 -0.675881 5.30411 0
M  V30 1072 C 101.795 1.48981 5.00602 0
M  V30 1073 H 103.489 1.11681 2.77791 0
M  V30 1074 H 101.035 0.538478 1.33553 0
M  V30 1075 H 102.988 -0.922674 4.11175 0
M  V30 1076 H 101.712 -1.38445 2.95805 0
M  V30 1077 H 100.371 0.646427 3.60856 0
M  V30 1078 H 100.019 -1.52842 4.79216 0
M  V30 1079 H 99.7189 -0.145374 5.8742 0
M  V30 1080 H 101.243 -1.06757 6.01195 0
M  V30 1081 H 102.657 1.16849 5.61266 0
M  V30 1082 H 101.054 1.95739 5.6728 0
M  V30 1083 H 102.124 2.25746 4.29147 0
M  V30 1084 N 103.467 -1.45747 0.599634 0
M  V30 1085 C 104.397 -2.33235 -0.111306 0
M  V30 1086 C 105.378 -1.46359 -0.866781 0
M  V30 1087 O 106.563 -1.75146 -0.838904 0
M  V30 1088 C 103.693 -3.28932 -1.11451 0
M  V30 1089 C 102.647 -4.25381 -0.472772 0
M  V30 1090 C 101.973 -5.1071 -1.58365 0
M  V30 1091 C 103.273 -5.18831 0.600948 0
M  V30 1092 H 104.967 -2.92927 0.61919 0
M  V30 1093 H 102.513 -1.40857 0.299215 0
M  V30 1094 H 104.466 -3.89002 -1.62036 0
M  V30 1095 H 103.19 -2.67381 -1.8755 0
M  V30 1096 H 101.849 -3.66598 0.0121472 0
M  V30 1097 H 101.497 -4.45533 -2.33473 0
M  V30 1098 H 101.197 -5.7604 -1.15982 0
M  V30 1099 H 102.721 -5.73647 -2.09194 0
M  V30 1100 H 104.135 -5.73019 0.179491 0
M  V30 1101 H 102.532 -5.92595 0.946076 0
M  V30 1102 H 103.602 -4.6174 1.48068 0
M  V30 1103 N 104.945 -0.338344 -1.53925 0
M  V30 1104 C 106.222 0.314774 -1.93051 0
M  V30 1105 C 106.602 1.68669 -1.26941 0
M  V30 1106 O 105.95 2.24636 -0.418445 0
M  V30 1107 C 106.16 0.392249 -3.46789 0
M  V30 1108 C 107.508 0.645554 -4.19664 0
M  V30 1109 O 108.532 0.474575 -3.53024 0
M  V30 1110 O 107.391 0.976408 -5.37707 0
M  V30 1111 H 104.485 0.182598 -0.80659 0
M  V30 1112 H 107.031 -0.389141 -1.65178 0
M  V30 1113 H 105.803 -0.570702 -3.87116 0
M  V30 1114 H 105.426 1.14316 -3.80812 0
M  V30 1115 N 106.423 1.57458 -0.0668435 0
M  V30 1116 C 107.333 2.15937 0.916975 0
M  V30 1117 C 108.349 1.12123 1.33058 0
M  V30 1118 O 109.525 1.44366 1.40429 0
M  V30 1119 C 106.59 2.70547 2.16807 0
M  V30 1120 C 105.651 3.89215 1.81135 0
M  V30 1121 C 104.884 4.41211 3.0028 0
M  V30 1122 O 105.107 3.92225 4.14144 0
M  V30 1123 O 104.041 5.32605 2.80384 0
M  V30 1124 H 107.867 3.00354 0.449561 0
M  V30 1125 H 105.452 1.48584 0.155949 0
M  V30 1126 H 107.334 3.0557 2.90181 0
M  V30 1127 H 106.009 1.89192 2.62656 0
M  V30 1128 H 104.916 3.59054 1.05028 0
M  V30 1129 H 106.249 4.71848 1.40073 0
M  V30 1130 N 107.901 -0.206675 1.56239 0
M  V30 1131 C 108.831 -1.25909 1.96645 0
M  V30 1132 C 109.812 -1.48097 0.836734 0
M  V30 1133 O 110.997 -1.6003 1.10019 0
M  V30 1134 C 108.127 -2.6058 2.29599 0
M  V30 1135 C 107.081 -2.53024 3.452 0
M  V30 1136 C 106.407 -3.91861 3.63798 0
M  V30 1137 C 107.707 -2.06524 4.79734 0
M  V30 1138 H 109.401 -0.923369 2.84806 0
M  V30 1139 H 106.947 -0.442735 1.37025 0
M  V30 1140 H 108.9 -3.34375 2.56459 0
M  V30 1141 H 107.624 -2.95869 1.38307 0
M  V30 1142 H 106.283 -1.81684 3.18412 0
M  V30 1143 H 105.931 -4.24483 2.69857 0
M  V30 1144 H 105.631 -3.87683 4.4156 0
M  V30 1145 H 107.155 -4.67296 3.93022 0
M  V30 1146 H 108.569 -2.70072 5.05702 0
M  V30 1147 H 106.966 -2.13374 5.60885 0
M  V30 1148 H 108.036 -1.01802 4.74093 0
M  V30 1149 N 109.379 -1.50304 -0.473955 0
M  V30 1150 C 110.311 -1.65109 -1.58971 0
M  V30 1151 C 111.324 -0.532676 -1.53839 0
M  V30 1152 O 112.513 -0.805751 -1.59279 0
M  V30 1153 C 109.613 -1.61684 -2.97845 0
M  V30 1154 C 108.786 -2.8951 -3.27876 0
M  V30 1155 C 107.845 -2.78768 -4.4629 0
M  V30 1156 O 106.871 -3.52722 -4.46739 0
M  V30 1157 N 108.073 -1.9213 -5.47783 0
M  V30 1158 H 110.838 -2.61347 -1.46689 0
M  V30 1159 H 108.399 -1.47732 -0.662324 0
M  V30 1160 H 110.391 -1.52114 -3.75024 0
M  V30 1161 H 108.961 -0.731925 -3.03911 0
M  V30 1162 H 108.181 -3.13228 -2.39336 0
M  V30 1163 H 109.469 -3.74199 -3.4475 0
M  V30 1164 H 108.867 -1.31353 -5.50239 0
M  V30 1165 H 107.424 -1.88466 -6.23958 0
M  V30 1166 N 110.857 0.726932 -1.39834 0
M  V30 1167 C 112.273 1.03354 -1.21615 0
M  V30 1168 C 112.473 2.01327 -0.08338 0
M  V30 1169 O 111.529 2.46158 0.56238 0
M  V30 1170 C 112.842 1.58811 -2.55342 0
M  V30 1171 C 114.39 1.70851 -2.62257 0
M  V30 1172 C 114.865 2.29716 -3.96225 0
M  V30 1173 N 116.356 2.37116 -3.97907 0
M  V30 1174 C 117.091 2.83619 -4.98345 0
M  V30 1175 N 116.587 3.29958 -6.09179 0
M  V30 1176 N 118.38 2.82901 -4.8572 0
M  V30 1177 H 110.531 0.0773069 -2.12259 0
M  V30 1178 H 112.794 0.0969102 -0.943034 0
M  V30 1179 H 112.5 0.942855 -3.38826 0
M  V30 1180 H 112.374 2.57502 -2.75632 0
M  V30 1181 H 114.761 2.34497 -1.79152 0
M  V30 1182 H 114.842 0.707913 -2.45809 0
M  V30 1183 H 114.486 1.66696 -4.79765 0
M  V30 1184 H 114.416 3.30469 -4.09997 0
M  V30 1185 H 116.907 2.04374 -3.17868 0
M  V30 1186 H 117.22 3.63976 -6.8172 0
M  V30 1187 H 115.565 3.27946 -6.12761 0
M  V30 1188 H 118.756 2.46027 -3.98231 0
M  V30 1189 H 118.929 3.18827 -5.6414 0
M  V30 1190 N 112.336 1.25143 0.95797 0
M  V30 1191 C 113.585 1.0909 1.69654 0
M  V30 1192 C 113.898 -0.368548 1.92097 0
M  V30 1193 O 115.104 -0.649455 2.63618 0
M  V30 1194 C 113.56 1.90395 3.05414 0
M  V30 1195 C 113.168 3.4081 2.90779 0
M  V30 1196 C 114.912 1.82901 3.83076 0
M  V30 1197 C 112.819 4.14423 4.21909 0
M  V30 1198 H 111.749 0.404625 0.636235 0
M  V30 1199 H 114.4 1.4931 1.06672 0
M  V30 1200 H 112.782 1.42996 3.69281 0
M  V30 1201 H 113.956 3.95859 2.35865 0
M  V30 1202 H 112.271 3.49361 2.26575 0
M  V30 1203 H 114.868 2.35196 4.80195 0
M  V30 1204 H 115.211 0.796224 4.08615 0
M  V30 1205 H 115.744 2.28033 3.25954 0
M  V30 1206 H 112.483 5.18102 4.01561 0
M  V30 1207 H 112.003 3.64159 4.76601 0
M  V30 1208 H 113.682 4.21956 4.90471 0
M  V30 1209 N 113.814 -1.1601 1.06675 0
M  V30 1210 C 114.724 -2.24156 0.692179 0
M  V30 1211 C 115.74 -1.71507 -0.293513 0
M  V30 1212 O 116.916 -2.009 -0.141861 0
M  V30 1213 C 113.981 -3.46587 0.0884131 0
M  V30 1214 C 113.042 -4.14257 1.12646 0
M  V30 1215 C 112.275 -5.30844 0.551416 0
M  V30 1216 O 112.498 -5.66858 -0.634656 0
M  V30 1217 O 111.432 -5.87848 1.29298 0
M  V30 1218 H 115.258 -2.58513 1.59388 0
M  V30 1219 H 112.843 -1.23599 0.83926 0
M  V30 1220 H 114.725 -4.20679 -0.246361 0
M  V30 1221 H 113.4 -3.13994 -0.786712 0
M  V30 1222 H 112.307 -3.42118 1.51348 0
M  V30 1223 H 113.64 -4.50914 1.97325 0
M  V30 1224 N 115.292 -0.849877 -1.32721 0
M  V30 1225 C 116.24 -0.279745 -2.30912 0
M  V30 1226 C 117.234 0.594278 -1.58634 0
M  V30 1227 O 118.44 0.482613 -1.73409 0
M  V30 1228 H 114.815 -0.0717521 -0.748569 0
M  V30 1229 H 116.786 -1.12222 -2.76494 0
M  V30 1230 C 115.535 0.521108 -3.43773 0
M  V30 1231 H 114.858 -0.142141 -3.99547 0
M  V30 1232 H 116.298 0.885693 -4.14646 0
M  V30 1233 C 114.757 1.70442 -2.90605 0
M  V30 1234 O 115.287 2.8034 -2.87702 0
M  V30 1235 N 113.493 1.52991 -2.47067 0
M  V30 1236 H 113.04 0.635914 -2.49628 0
M  V30 1237 H 112.998 2.32311 -2.11847 0
M  V30 1238 N 116.77 1.45427 -0.607355 0
M  V30 1239 C 117.68 2.34325 0.113463 0
M  V30 1240 C 118.696 1.51226 0.860617 0
M  V30 1241 O 119.872 1.84029 0.818255 0
M  V30 1242 C 116.937 3.28839 1.09844 0
M  V30 1243 C 115.998 4.27844 0.353271 0
M  V30 1244 C 115.231 5.17842 1.29133 0
M  V30 1245 O 115.454 5.11264 2.52913 0
M  V30 1246 O 114.388 5.96713 0.788523 0
M  V30 1247 H 118.214 2.97364 -0.617094 0
M  V30 1248 H 115.799 1.44807 -0.367619 0
M  V30 1249 H 117.681 3.8708 1.66575 0
M  V30 1250 H 116.356 2.68365 1.81003 0
M  V30 1251 H 115.263 3.7322 -0.256494 0
M  V30 1252 H 116.596 4.91173 -0.317822 0
M  V30 1253 N 118.248 0.346503 1.53744 0
M  V30 1254 C 119.18 -0.543316 2.22667 0
M  V30 1255 C 120.193 -1.06159 1.23427 0
M  V30 1256 O 121.382 -0.971235 1.49764 0
M  V30 1257 C 118.482 -1.76076 2.89569 0
M  V30 1258 C 117.655 -1.37727 4.15151 0
M  V30 1259 C 116.714 -2.45471 4.65436 0
M  V30 1260 O 115.74 -2.08655 5.29577 0
M  V30 1261 N 116.942 -3.7677 4.41616 0
M  V30 1262 H 119.707 0.0469703 2.99663 0
M  V30 1263 H 117.268 0.170766 1.60997 0
M  V30 1264 H 119.26 -2.47593 3.20125 0
M  V30 1265 H 117.83 -2.25835 2.16142 0
M  V30 1266 H 117.05 -0.492746 3.91108 0
M  V30 1267 H 118.338 -1.09708 4.96832 0
M  V30 1268 H 117.736 -4.09467 3.90325 0
M  V30 1269 H 116.293 -4.44448 4.7677 0
M  V30 1270 N 119.726 -1.57421 0.075193 0
M  V30 1271 C 120.974 -1.93236 -0.591974 0
M  V30 1272 C 121.295 -0.956241 -1.69944 0
M  V30 1273 O 120.565 -0.00494792 -1.95899 0
M  V30 1274 H 119.145 -0.713355 -0.22166 0
M  V30 1275 H 121.807 -1.9444 0.133848 0
M  V30 1276 H 120.903 -2.95131 -1.01509 0
M  V30 1277 N 121.204 0.198386 -1.56346 0
M  V30 1278 C 122.62 0.549085 -1.49857 0
M  V30 1279 C 122.82 1.86016 -0.774611 0
M  V30 1280 O 121.876 2.50416 -0.323776 0
M  V30 1281 C 123.189 0.606868 -2.94512 0
M  V30 1282 C 124.737 0.695925 -3.05165 0
M  V30 1283 C 125.212 0.784848 -4.51225 0
M  V30 1284 N 126.703 0.848463 -4.55363 0
M  V30 1285 C 127.438 0.937378 -5.65686 0
M  V30 1286 N 126.934 0.9888 -6.85707 0
M  V30 1287 N 128.727 0.974312 -5.53592 0
M  V30 1288 H 120.878 -0.661655 -2.01831 0
M  V30 1289 H 123.141 -0.235261 -0.918344 0
M  V30 1290 H 122.847 -0.28732 -3.50524 0
M  V30 1291 H 122.721 1.46268 -3.47686 0
M  V30 1292 H 125.108 1.58055 -2.49204 0
M  V30 1293 H 125.189 -0.186022 -2.55123 0
M  V30 1294 H 124.833 -0.0954072 -5.0781 0
M  V30 1295 H 124.763 1.68255 -4.98997 0
M  V30 1296 H 127.254 0.818103 -3.68938 0
M  V30 1297 H 127.567 1.05707 -7.65536 0
M  V30 1298 H 125.912 0.957534 -6.88372 0
M  V30 1299 H 129.103 0.930954 -4.58749 0
M  V30 1300 H 129.276 1.04015 -6.39597 0
M  V30 1301 N 122.682 1.50554 0.465978 0
M  V30 1302 C 123.928 1.62038 1.21949 0
M  V30 1303 C 124.261 0.322116 1.9151 0
M  V30 1304 O 123.536 -0.676723 1.82348 0
M  V30 1305 C 123.819 2.80421 2.25912 0
M  V30 1306 C 123.672 4.20144 1.60622 0
M  V30 1307 C 124.991 2.94354 3.27176 0
M  V30 1308 H 122.11 0.589752 0.441998 0
M  V30 1309 H 124.752 1.82956 0.51257 0
M  V30 1310 H 122.902 2.62717 2.86203 0
M  V30 1311 H 124.574 4.49449 1.03889 0
M  V30 1312 H 122.817 4.24165 0.909211 0
M  V30 1313 H 123.488 4.98914 2.36196 0
M  V30 1314 H 125.964 3.10578 2.76913 0
M  V30 1315 H 124.84 3.788 3.97242 0
M  V30 1316 H 125.101 2.05186 3.916 0
M  V30 1317 N 124.16 -0.719506 1.40217 0
M  V30 1318 C 125.576 -1.02707 1.22161 0
M  V30 1319 C 125.776 -2.0128 0.0940557 0
M  V30 1320 O 124.832 -2.46452 -0.549318 0
M  V30 1321 C 126.145 -1.57454 2.56181 0
M  V30 1322 C 127.693 -1.69458 2.63159 0
M  V30 1323 C 128.168 -2.27611 3.97438 0
M  V30 1324 N 129.659 -2.35002 3.99159 0
M  V30 1325 C 130.394 -2.80972 4.99842 0
M  V30 1326 N 129.89 -3.26723 6.10921 0
M  V30 1327 N 131.683 -2.80321 4.87213 0
M  V30 1328 H 123.834 -0.0660492 2.12297 0
M  V30 1329 H 126.097 -0.0919077 0.943534 0
M  V30 1330 H 125.803 -0.924873 3.39321 0
M  V30 1331 H 125.677 -2.56036 2.76993 0
M  V30 1332 H 128.064 -2.33543 1.80393 0
M  V30 1333 H 128.145 -0.694867 2.46181 0
M  V30 1334 H 127.789 -1.6415 4.80643 0
M  V30 1335 H 127.719 -3.2829 4.11744 0
M  V30 1336 H 130.21 -2.02685 3.18947 0
M  V30 1337 H 130.523 -3.60355 6.8364 0
M  V30 1338 H 128.868 -3.24692 6.14492 0
M  V30 1339 H 132.059 -2.43912 3.9953 0
M  V30 1340 H 132.232 -3.15831 5.65822 0
M  V30 1341 N 125.638 -1.25649 -0.95132 0
M  V30 1342 C 126.568 -1.08808 -2.06599 0
M  V30 1343 C 127.549 0.00382547 -1.701 0
M  V30 1344 O 128.734 -0.166325 -1.93486 0
M  V30 1345 C 125.864 -0.709542 -3.39975 0
M  V30 1346 C 124.818 -1.75206 -3.90496 0
M  V30 1347 C 124.144 -1.22811 -5.20405 0
M  V30 1348 C 125.444 -3.15153 -4.16504 0
M  V30 1349 H 127.138 -2.02048 -2.20946 0
M  V30 1350 H 124.684 -0.972835 -1.06169 0
M  V30 1351 H 126.637 -0.578649 -4.17408 0
M  V30 1352 H 125.361 0.258556 -3.25575 0
M  V30 1353 H 124.02 -1.87145 -3.15234 0
M  V30 1354 H 123.668 -0.250145 -5.02378 0
M  V30 1355 H 123.368 -1.92492 -5.55176 0
M  V30 1356 H 124.892 -1.10968 -6.00432 0
M  V30 1357 H 126.306 -3.06349 -4.84586 0
M  V30 1358 H 124.703 -3.82333 -4.62538 0
M  V30 1359 H 125.773 -3.61966 -3.22658 0
M  V30 1360 N 127.117 1.15442 -1.07289 0
M  V30 1361 C 128.533 1.38201 -0.798288 0
M  V30 1362 C 128.733 1.92429 0.597769 0
M  V30 1363 O 127.789 2.12962 1.3566 0
M  V30 1364 C 129.102 2.35357 -1.87156 0
M  V30 1365 C 130.65 2.49021 -1.89624 0
M  V30 1366 C 131.125 3.49468 -2.96034 0
M  V30 1367 N 132.616 3.57003 -2.95132 0
M  V30 1368 C 133.351 4.34543 -3.74112 0
M  V30 1369 N 132.847 5.15421 -4.6294 0
M  V30 1370 N 134.64 4.29625 -3.62462 0
M  V30 1371 H 126.791 0.78584 -1.97328 0
M  V30 1372 H 129.054 0.408065 -0.855679 0
M  V30 1373 H 128.76 2.02626 -2.87464 0
M  V30 1374 H 128.634 3.35129 -1.73114 0
M  V30 1375 H 131.021 2.81051 -0.899687 0
M  V30 1376 H 131.102 1.4925 -2.07745 0
M  V30 1377 H 130.746 3.18173 -3.95889 0
M  V30 1378 H 130.676 4.48992 -2.75161 0
M  V30 1379 H 133.167 2.99276 -2.30743 0
M  V30 1380 H 133.48 5.7183 -5.19837 0
M  V30 1381 H 131.825 5.14729 -4.66989 0
M  V30 1382 H 135.016 3.65505 -2.92444 0
M  V30 1383 H 135.189 4.89807 -4.24256 0
M  V30 1384 N 128.595 0.856903 1.32268 0
M  V30 1385 C 130.011 0.547061 1.49931 0
M  V30 1386 C 130.211 -0.921781 1.7918 0
M  V30 1387 O 129.267 -1.70469 1.8627 0
M  V30 1388 C 130.58 1.43599 2.64196 0
M  V30 1389 C 132.128 1.43665 2.78081 0
M  V30 1390 C 132.603 2.31085 3.95428 0
M  V30 1391 N 134.094 2.28893 4.02694 0
M  V30 1392 C 134.829 2.93262 4.92732 0
M  V30 1393 N 134.325 3.66751 5.87763 0
M  V30 1394 N 136.118 2.82638 4.85873 0
M  V30 1395 H 128.269 1.8075 1.11549 0
M  V30 1396 H 130.532 0.772144 0.549997 0
M  V30 1397 H 130.238 2.48058 2.49319 0
M  V30 1398 H 130.112 1.12502 3.60032 0
M  V30 1399 H 132.499 0.399701 2.92381 0
M  V30 1400 H 132.58 1.7878 1.82952 0
M  V30 1401 H 132.224 3.34849 3.81888 0
M  V30 1402 H 132.154 1.93302 4.89839 0
M  V30 1403 H 134.645 1.75466 3.34694 0
M  V30 1404 H 134.958 4.13027 6.53168 0
M  V30 1405 H 133.303 3.70859 5.87783 0
M  V30 1406 H 136.494 2.24774 4.10602 0
M  V30 1407 H 136.667 3.33084 5.55841 0
M  V30 1408 N 130.073 -1.45103 0.615059 0
M  V30 1409 C 131.319 -2.03035 0.121804 0
M  V30 1410 C 131.674 -1.47393 -1.23665 0
M  V30 1411 O 130.967 -0.642061 -1.80522 0
M  V30 1412 C 131.161 -3.57386 0.0318797 0
M  V30 1413 C 130.99 -4.28 1.38007 0
M  V30 1414 C 129.76 -4.65624 1.9627 0
M  V30 1415 C 131.958 -4.5948 2.31047 0
M  V30 1416 N 129.94 -5.21132 3.24492 0
M  V30 1417 C 131.311 -5.159 3.43872 0
M  V30 1418 C 133.366 -4.41423 2.30326 0
M  V30 1419 C 132.069 -5.56165 4.5615 0
M  V30 1420 C 134.095 -4.82726 3.41658 0
M  V30 1421 C 133.457 -5.39245 4.53205 0
M  V30 1422 H 129.556 -0.77702 0.0881159 0
M  V30 1423 H 132.14 -1.76819 0.815044 0
M  V30 1424 H 130.311 -3.83247 -0.630599 0
M  V30 1425 H 132.043 -4.01976 -0.468721 0
M  V30 1426 H 128.798 -4.49421 1.49392 0
M  V30 1427 H 129.222 -5.53377 3.90004 0
M  V30 1428 H 133.864 -3.97033 1.45343 0
M  V30 1429 H 131.582 -5.99517 5.41854 0
M  V30 1430 H 135.168 -4.7048 3.42257 0
M  V30 1431 H 134.048 -5.70616 5.37929 0
M  V30 1432 N 131.551 -0.354651 -1.53558 0
M  V30 1433 C 132.799 0.237972 -2.00694 0
M  V30 1434 C 133.12 1.50173 -1.24391 0
M  V30 1435 O 132.39 1.92673 -0.354135 0
M  V30 1436 H 130.97 0.0909256 -0.741446 0
M  V30 1437 H 133.632 -0.478368 -1.88938 0
M  V30 1438 H 132.728 0.47264 -3.085 0
M  V30 1439 N 133.029 1.57378 -0.0835403 0
M  V30 1440 C 133.939 2.16897 0.894021 0
M  V30 1441 C 134.955 1.13528 1.31861 0
M  V30 1442 O 136.131 1.45848 1.3889 0
M  V30 1443 C 133.196 2.72831 2.13925 0
M  V30 1444 C 132.257 3.91115 1.76997 0
M  V30 1445 C 131.49 4.44371 2.95584 0
M  V30 1446 O 131.713 3.96596 4.09961 0
M  V30 1447 O 130.647 5.35549 2.74719 0
M  V30 1448 H 134.473 3.00814 0.417679 0
M  V30 1449 H 132.058 1.48741 0.140181 0
M  V30 1450 H 133.94 3.0863 2.86924 0
M  V30 1451 H 132.615 1.91967 2.60635 0
M  V30 1452 H 131.522 3.60148 1.01214 0
M  V30 1453 H 132.855 4.73307 1.3506 0
M  V30 1454 N 134.507 -0.190092 1.56449 0
M  V30 1455 C 135.923 -0.54113 1.50146 0
M  V30 1456 C 136.123 -1.85603 0.784465 0
M  V30 1457 O 135.179 -2.5024 0.337051 0
M  V30 1458 C 136.492 -0.591241 2.9483 0
M  V30 1459 C 138.04 -0.679732 3.0553 0
M  V30 1460 C 138.515 -0.760908 4.51635 0
M  V30 1461 N 140.006 -0.824302 4.55806 0
M  V30 1462 C 140.741 -0.907365 5.66175 0
M  V30 1463 N 140.237 -0.952422 6.86222 0
M  V30 1464 N 142.03 -0.94494 5.541 0
M  V30 1465 H 134.181 0.67235 2.01478 0
M  V30 1466 H 136.444 0.240127 0.917084 0
M  V30 1467 H 136.15 0.305905 3.50367 0
M  V30 1468 H 136.024 -1.44422 3.48457 0
M  V30 1469 H 138.411 -1.56731 2.50039 0
M  V30 1470 H 138.492 0.199549 2.5502 0
M  V30 1471 H 138.136 0.122336 5.07753 0
M  V30 1472 H 138.066 -1.65606 4.99882 0
M  V30 1473 H 140.557 -0.798526 3.69367 0
M  V30 1474 H 140.87 -1.01645 7.66086 0
M  V30 1475 H 139.215 -0.921014 6.8887 0
M  V30 1476 H 142.406 -0.906612 4.59236 0
M  V30 1477 H 142.579 -1.00622 6.4014 0
M  V30 1478 N 135.985 -1.50799 -0.457987 0
M  V30 1479 C 137.213 -1.66218 -1.23203 0
M  V30 1480 C 137.628 -0.350894 -1.85511 0
M  V30 1481 O 136.985 0.668546 -1.69814 0
M  V30 1482 C 137.036 -2.76291 -2.33121 0
M  V30 1483 O 136.757 -4.02338 -1.73366 0
M  V30 1484 C 138.258 -3.028 -3.2377 0
M  V30 1485 H 135.478 -0.558361 -0.372121 0
M  V30 1486 H 138.022 -1.97099 -0.545179 0
M  V30 1487 H 136.177 -2.48068 -2.97558 0
M  V30 1488 H 136.591 -4.63312 -2.4585 0
M  V30 1489 H 138.065 -3.8345 -3.97077 0
M  V30 1490 H 138.542 -2.14385 -3.83322 0
M  V30 1491 H 139.148 -3.32604 -2.65056 0
M  V30 1492 N 137.463 0.71206 -1.40597 0
M  V30 1493 C 138.393 1.83889 -1.43899 0
M  V30 1494 C 139.374 1.67442 -0.299504 0
M  V30 1495 O 140.559 1.87421 -0.508624 0
M  V30 1496 C 137.689 3.21877 -1.30431 0
M  V30 1497 C 136.643 3.53002 -2.42019 0
M  V30 1498 C 135.969 4.90172 -2.13626 0
M  V30 1499 C 137.269 3.53643 -3.84362 0
M  V30 1500 H 138.963 1.81383 -2.38203 0
M  V30 1501 H 136.509 0.871237 -1.14654 0
M  V30 1502 H 138.462 4.00404 -1.31357 0
M  V30 1503 H 137.186 3.24968 -0.326049 0
M  V30 1504 H 135.845 2.76818 -2.40349 0
M  V30 1505 H 135.493 4.89869 -1.14182 0
M  V30 1506 H 135.193 5.11962 -2.88389 0
M  V30 1507 H 136.717 5.71028 -2.1624 0
M  V30 1508 H 138.131 4.22203 -3.87837 0
M  V30 1509 H 136.528 3.86961 -4.58673 0
M  V30 1510 H 137.598 2.52954 -4.13693 0
M  V30 1511 N 138.941 1.26152 0.944643 0
M  V30 1512 C 140.218 1.02247 1.66748 0
M  V30 1513 C 140.598 -0.448202 2.06287 0
M  V30 1514 O 139.946 -1.42779 1.78399 0
M  V30 1515 C 140.156 1.96788 2.88228 0
M  V30 1516 C 141.504 2.25201 3.59958 0
M  V30 1517 O 142.528 1.94626 2.98327 0
M  V30 1518 O 141.387 2.77242 4.70956 0
M  V30 1519 H 138.481 0.388517 0.730057 0
M  V30 1520 H 141.027 1.37348 0.99668 0
M  V30 1521 H 139.799 2.96047 2.55875 0
M  V30 1522 H 139.422 1.62145 3.63035 0
M  V30 1523 N 140.419 -1.14872 1.07899 0
M  V30 1524 C 141.349 -2.2193 0.725887 0
M  V30 1525 C 142.33 -1.67622 -0.28927 0
M  V30 1526 O 143.515 -1.93533 -0.160787 0
M  V30 1527 C 140.645 -3.47061 0.128856 0
M  V30 1528 C 139.599 -4.14363 1.07178 0
M  V30 1529 C 138.925 -5.33636 0.337229 0
M  V30 1530 C 140.225 -4.63492 2.40775 0
M  V30 1531 H 141.919 -2.51724 1.62097 0
M  V30 1532 H 139.465 -1.20991 0.780838 0
M  V30 1533 H 141.418 -4.21199 -0.130147 0
M  V30 1534 H 140.142 -3.16617 -0.80134 0
M  V30 1535 H 138.801 -3.42173 1.3158 0
M  V30 1536 H 138.449 -4.99449 -0.596606 0
M  V30 1537 H 138.149 -5.79609 0.965788 0
M  V30 1538 H 139.673 -6.10539 0.0861567 0
M  V30 1539 H 141.087 -5.2913 2.20669 0
M  V30 1540 H 139.484 -5.20148 2.99276 0
M  V30 1541 H 140.554 -3.78834 3.02676 0
M  V30 1542 N 141.898 -0.863906 -1.31812 0
M  V30 1543 C 143.175 -0.39275 -1.91616 0
M  V30 1544 C 143.555 1.12461 -1.7865 0
M  V30 1545 O 142.903 1.95045 -1.19037 0
M  V30 1546 C 143.113 -0.867385 -3.38049 0
M  V30 1547 C 144.461 -0.889966 -4.15168 0
M  V30 1548 O 145.485 -0.812635 -3.46806 0
M  V30 1549 O 144.344 -1.00079 -5.37258 0
M  V30 1550 H 141.438 -0.116358 -0.818773 0
M  V30 1551 H 143.984 -0.951418 -1.40521 0
M  V30 1552 H 142.756 -1.91081 -3.41473 0
M  V30 1553 H 142.379 -0.286687 -3.96565 0
M  V30 1554 N 143.376 1.44774 -0.622745 0
M  V30 1555 C 144.625 2.01334 -0.121397 0
M  V30 1556 C 144.938 1.49505 1.26125 0
M  V30 1557 O 146.144 1.98139 1.85616 0
M  V30 1558 C 144.6 3.59516 -0.166298 0
M  V30 1559 C 144.208 4.20342 -1.54974 0
M  V30 1560 C 145.952 4.23582 0.279021 0
M  V30 1561 C 143.859 5.70721 -1.55021 0
M  V30 1562 H 142.789 0.752851 -0.0416172 0
M  V30 1563 H 145.44 1.66083 -0.780309 0
M  V30 1564 H 143.822 3.92027 0.559557 0
M  V30 1565 H 144.996 3.99381 -2.29851 0
M  V30 1566 H 143.311 3.68529 -1.93843 0
M  V30 1567 H 145.908 5.33868 0.298083 0
M  V30 1568 H 146.251 3.95327 1.30471 0
M  V30 1569 H 146.784 3.95843 -0.394063 0
M  V30 1570 H 143.523 6.03698 -2.55399 0
M  V30 1571 H 143.043 5.93829 -0.844245 0
M  V30 1572 H 144.722 6.34203 -1.28047 0
M  V30 1573 N 144.854 0.36279 1.53368 0
M  V30 1574 C 145.784 -0.476976 2.28576 0
M  V30 1575 C 146.765 -1.08631 1.30894 0
M  V30 1576 O 147.95 -1.10409 1.59761 0
M  V30 1577 C 145.08 -1.61828 3.07293 0
M  V30 1578 C 144.034 -1.13633 4.1264 0
M  V30 1579 C 143.36 -2.36766 4.79423 0
M  V30 1580 C 144.66 -0.223061 5.21823 0
M  V30 1581 H 146.354 0.150474 2.99022 0
M  V30 1582 H 143.9 0.0738103 1.43811 0
M  V30 1583 H 145.853 -2.21237 3.58653 0
M  V30 1584 H 144.577 -2.27292 2.34533 0
M  V30 1585 H 143.236 -0.564945 3.62221 0
M  V30 1586 H 142.884 -3.0068 4.03238 0
M  V30 1587 H 142.584 -2.05192 5.50609 0
M  V30 1588 H 144.108 -2.96865 5.33576 0
M  V30 1589 H 145.522 -0.724545 5.68703 0
M  V30 1590 H 143.919 0.001678 6.001 0
M  V30 1591 H 144.989 0.735553 4.79289 0
M  V30 1592 N 146.332 -1.57332 0.0918853 0
M  V30 1593 C 147.262 -2.16872 -0.865371 0
M  V30 1594 C 148.243 -1.10118 -1.29646 0
M  V30 1595 O 149.428 -1.38242 -1.36392 0
M  V30 1596 C 146.558 -2.74649 -2.12569 0
M  V30 1597 C 145.512 -3.86747 -1.83333 0
M  V30 1598 C 144.838 -4.31212 -3.16166 0
M  V30 1599 C 146.138 -5.10089 -1.1228 0
M  V30 1600 H 147.832 -2.97114 -0.369307 0
M  V30 1601 H 145.378 -1.42918 -0.176194 0
M  V30 1602 H 147.331 -3.14952 -2.7997 0
M  V30 1603 H 146.055 -1.91657 -2.64452 0
M  V30 1604 H 144.714 -3.46978 -1.18331 0
M  V30 1605 H 144.362 -3.45115 -3.6593 0
M  V30 1606 H 144.062 -5.06788 -2.97388 0
M  V30 1607 H 145.586 -4.74146 -3.84731 0
M  V30 1608 H 147 -5.47582 -1.69785 0
M  V30 1609 H 145.397 -5.91073 -1.03693 0
M  V30 1610 H 146.467 -4.84786 -0.105041 0
M  V30 1611 N 147.81 0.181792 -1.56548 0
M  V30 1612 C 149.04 0.914618 -1.85252 0
M  V30 1613 C 149.448 1.76791 -0.673914 0
M  V30 1614 O 148.791 1.80009 0.366416 0
M  V30 1615 C 148.853 1.85019 -3.08234 0
M  V30 1616 C 148.517 1.17754 -4.41569 0
M  V30 1617 C 149.514 0.548035 -5.17003 0
M  V30 1618 C 147.199 1.17742 -4.88305 0
M  V30 1619 C 149.193 -0.0726128 -6.37359 0
M  V30 1620 C 146.88 0.552946 -6.08593 0
M  V30 1621 C 147.878 -0.070978 -6.82963 0
M  V30 1622 O 147.566 -0.685635 -8.00971 0
M  V30 1623 H 147.298 0.271695 -0.618998 0
M  V30 1624 H 149.852 0.189944 -2.0452 0
M  V30 1625 H 148.082 2.61491 -2.84885 0
M  V30 1626 H 149.771 2.45195 -3.23472 0
M  V30 1627 H 150.537 0.540174 -4.81982 0
M  V30 1628 H 146.416 1.65246 -4.30366 0
M  V30 1629 H 149.96 -0.560213 -6.95347 0
M  V30 1630 H 145.857 0.558354 -6.43081 0
M  V30 1631 H 146.625 -0.58385 -8.16415 0
M  V30 1632 N 149.288 1.51039 0.449983 0
M  V30 1633 C 150.536 1.62759 1.19808 0
M  V30 1634 C 150.857 0.339981 1.92013 0
M  V30 1635 O 150.127 -0.643606 1.85026 0
M  V30 1636 H 148.707 0.599811 0.445237 0
M  V30 1637 H 151.369 1.87914 0.517138 0
M  V30 1638 H 150.465 2.44911 1.93455 0
M  V30 1639 N 150.766 -0.704594 1.40972 0
M  V30 1640 C 151.714 -1.83994 1.42299 0
M  V30 1641 C 152.708 -1.66684 0.302111 0
M  V30 1642 O 153.914 -1.73655 0.473697 0
M  V30 1643 H 150.289 -0.606171 0.44504 0
M  V30 1644 H 152.26 -1.79992 2.38003 0
M  V30 1645 C 151.009 -3.21946 1.31323 0
M  V30 1646 H 150.332 -3.35878 2.16855 0
M  V30 1647 H 151.772 -4.01491 1.36311 0
M  V30 1648 C 150.231 -3.36891 0.0245977 0
M  V30 1649 O 150.761 -3.90687 -0.934153 0
M  V30 1650 N 148.967 -2.90559 -0.0485243 0
M  V30 1651 H 148.514 -2.46968 0.732419 0
M  V30 1652 H 148.472 -3.00937 -0.910171 0
M  V30 1653 N 152.244 -1.26651 -0.937939 0
M  V30 1654 C 153.154 -1.10276 -2.07066 0
M  V30 1655 C 154.17 -0.0354197 -1.73964 0
M  V30 1656 O 155.346 -0.239816 -1.99967 0
M  V30 1657 C 152.411 -0.740887 -3.38691 0
M  V30 1658 C 151.472 -1.88799 -3.85556 0
M  V30 1659 C 150.705 -1.54329 -5.10899 0
M  V30 1660 O 150.928 -0.446494 -5.6865 0
M  V30 1661 O 149.862 -2.37911 -5.52885 0
M  V30 1662 H 153.688 -2.05309 -2.23789 0
M  V30 1663 H 151.273 -1.05743 -1.0554 0
M  V30 1664 H 153.155 -0.55195 -4.1777 0
M  V30 1665 H 151.83 0.180022 -3.23199 0
M  V30 1666 H 150.737 -2.13191 -3.07409 0
M  V30 1667 H 152.07 -2.78874 -4.05574 0
M  V30 1668 N 153.722 1.14298 -1.08507 0
M  V30 1669 C 154.971 1.84708 -0.810305 0
M  V30 1670 C 155.284 1.83903 0.666271 0
M  V30 1671 O 156.49 2.50112 1.05624 0
M  V30 1672 C 154.946 3.31572 -1.39957 0
M  V30 1673 C 154.554 3.40791 -2.90801 0
M  V30 1674 C 156.298 4.07087 -1.20334 0
M  V30 1675 C 154.205 4.81872 -3.4286 0
M  V30 1676 H 153.135 0.691985 -0.299454 0
M  V30 1677 H 155.786 1.28841 -1.30661 0
M  V30 1678 H 154.168 3.87183 -0.830976 0
M  V30 1679 H 155.342 2.95225 -3.53806 0
M  V30 1680 H 153.657 2.78732 -3.0935 0
M  V30 1681 H 156.254 5.11225 -1.56693 0
M  V30 1682 H 156.597 4.16054 -0.143237 0
M  V30 1683 H 157.13 3.57779 -1.73893 0
M  V30 1684 H 153.869 4.78094 -4.48449 0
M  V30 1685 H 153.389 5.27972 -2.84615 0
M  V30 1686 H 155.068 5.50765 -3.39509 0
M  V30 1687 N 155.201 0.870884 1.31352 0
M  V30 1688 C 156.45 0.478408 1.95944 0
M  V30 1689 C 156.763 -0.974493 1.69597 0
M  V30 1690 O 157.969 -1.47316 2.28058 0
M  V30 1691 C 156.425 0.804609 3.50791 0
M  V30 1692 C 156.033 2.27433 3.85977 0
M  V30 1693 C 157.777 0.480648 4.2177 0
M  V30 1694 C 155.684 2.5429 5.33939 0
M  V30 1695 H 154.614 0.175175 0.733369 0
M  V30 1696 H 157.265 1.06391 1.4951 0
M  V30 1697 H 155.647 0.148347 3.95722 0
M  V30 1698 H 156.821 2.97373 3.52002 0
M  V30 1699 H 155.136 2.56442 3.28065 0
M  V30 1700 H 157.733 0.658519 5.30629 0
M  V30 1701 H 158.076 -0.578979 4.12254 0
M  V30 1702 H 158.609 1.09349 3.82476 0
M  V30 1703 H 155.348 3.58939 5.48491 0
M  V30 1704 H 154.868 1.88945 5.69263 0
M  V30 1705 H 156.547 2.39066 6.01212 0
M  V30 1706 N 156.679 -1.44442 0.630414 0
M  V30 1707 C 157.611 -2.2892 -0.113347 0
M  V30 1708 C 158.624 -1.41243 -0.80959 0
M  V30 1709 O 159.813 -1.65402 -0.671156 0
M  V30 1710 C 156.913 -3.17594 -1.18266 0
M  V30 1711 C 156.086 -4.33682 -0.569073 0
M  V30 1712 C 155.145 -5.03397 -1.53226 0
M  V30 1713 O 154.171 -5.59438 -1.04967 0
M  V30 1714 N 155.373 -5.04783 -2.86661 0
M  V30 1715 H 158.138 -2.93392 0.611636 0
M  V30 1716 H 155.699 -1.54881 0.471523 0
M  V30 1717 H 157.691 -3.61097 -1.82732 0
M  V30 1718 H 156.261 -2.54876 -1.80988 0
M  V30 1719 H 155.481 -3.9338 0.254187 0
M  V30 1720 H 156.769 -5.08608 -0.139767 0
M  V30 1721 H 156.167 -4.60584 -3.28449 0
M  V30 1722 H 154.724 -5.52077 -3.46489 0
M  V30 1723 N 158.157 -0.370918 -1.53173 0
M  V30 1724 C 159.105 0.488101 -2.27421 0
M  V30 1725 C 160.099 1.07884 -1.30604 0
M  V30 1726 O 161.305 1.02143 -1.48212 0
M  V30 1727 H 157.68 0.176134 -0.731082 0
M  V30 1728 H 159.651 -0.159815 -2.97972 0
M  V30 1729 C 158.4 1.61306 -3.08019 0
M  V30 1730 H 157.723 1.1678 -3.82364 0
M  V30 1731 H 159.163 2.18872 -3.63141 0
M  V30 1732 C 157.622 2.55848 -2.19188 0
M  V30 1733 O 158.152 3.58799 -1.80626 0
M  V30 1734 N 156.358 2.2516 -1.83715 0
M  V30 1735 H 155.905 1.41476 -2.15273 0
M  V30 1736 H 155.863 2.8867 -1.24567 0
M  V30 1737 N 159.635 1.57281 -0.100228 0
M  V30 1738 C 160.545 2.17833 0.870965 0
M  V30 1739 C 161.561 1.14921 1.30649 0
M  V30 1740 O 162.737 1.47313 1.37335 0
M  V30 1741 C 159.802 2.75085 2.1102 0
M  V30 1742 C 158.863 3.9297 1.72838 0
M  V30 1743 C 158.096 4.47482 2.90854 0
M  V30 1744 O 158.319 4.00922 4.05731 0
M  V30 1745 O 157.253 5.38433 2.69023 0
M  V30 1746 H 161.079 3.0124 0.38575 0
M  V30 1747 H 158.664 1.48881 0.124397 0
M  V30 1748 H 160.546 3.11656 2.83634 0
M  V30 1749 H 159.221 1.94721 2.58584 0
M  V30 1750 H 158.128 3.61201 0.973883 0
M  V30 1751 H 159.461 4.74713 1.30033 0
M  V30 1752 N 161.113 -0.173488 1.56642 0
M  V30 1753 C 162.529 -0.525174 1.50712 0
M  V30 1754 C 162.729 -1.8476 0.804107 0
M  V30 1755 O 161.785 -2.49869 0.363574 0
M  V30 1756 C 163.098 -0.559937 2.95441 0
M  V30 1757 C 164.646 -0.647288 3.06234 0
M  V30 1758 C 165.121 -0.712963 4.52417 0
M  V30 1759 N 166.612 -0.775911 4.56655 0
M  V30 1760 C 167.347 -0.847264 5.67106 0
M  V30 1761 N 166.843 -0.879585 6.87194 0
M  V30 1762 N 168.636 -0.886117 5.55071 0
M  V30 1763 H 160.787 0.693681 2.00753 0
M  V30 1764 H 163.05 0.249841 0.914485 0
M  V30 1765 H 162.756 0.343049 3.50023 0
M  V30 1766 H 162.63 -1.40718 3.49969 0
M  V30 1767 H 165.017 -1.5407 2.51687 0
M  V30 1768 H 165.098 0.226586 2.54794 0
M  V30 1769 H 164.742 0.176183 5.07594 0
M  V30 1770 H 164.672 -1.60295 5.0161 0
M  V30 1771 H 167.163 -0.759304 3.70193 0
M  V30 1772 H 167.476 -0.935144 7.67121 0
M  V30 1773 H 165.821 -0.847898 6.89808 0
M  V30 1774 H 169.012 -0.857853 4.60172 0
M  V30 1775 H 169.185 -0.938263 6.41171 0
M  V30 1776 N 162.591 -1.51276 -0.441967 0
M  V30 1777 C 163.521 -1.752 -1.54361 0
M  V30 1778 C 164.502 -0.601682 -1.59103 0
M  V30 1779 O 165.687 -0.843913 -1.74905 0
M  V30 1780 C 162.817 -1.87282 -2.92477 0
M  V30 1781 C 161.771 -3.02687 -3.02596 0
M  V30 1782 C 161.097 -2.99947 -4.42647 0
M  V30 1783 C 162.397 -4.4273 -2.77106 0
M  V30 1784 H 164.091 -2.67442 -1.34592 0
M  V30 1785 H 161.637 -1.28694 -0.646048 0
M  V30 1786 H 163.59 -2.02602 -3.695 0
M  V30 1787 H 162.314 -0.916844 -3.13467 0
M  V30 1788 H 160.973 -2.87065 -2.28012 0
M  V30 1789 H 160.621 -2.02136 -4.60597 0
M  V30 1790 H 160.321 -3.77439 -4.50348 0
M  V30 1791 H 161.845 -3.17354 -5.2165 0
M  V30 1792 H 163.259 -4.58727 -3.43864 0
M  V30 1793 H 161.656 -5.21893 -2.96222 0
M  V30 1794 H 162.726 -4.53087 -1.72744 0
M  V30 1795 N 164.069 0.697108 -1.41344 0
M  V30 1796 C 165.297 1.48593 -1.43972 0
M  V30 1797 C 165.712 1.88747 -0.0445612 0
M  V30 1798 O 165.069 1.56682 0.935785 0
M  V30 1799 C 165.12 2.74946 -2.34706 0
M  V30 1800 O 164.841 2.36484 -3.68791 0
M  V30 1801 C 166.342 3.687 -2.46121 0
M  V30 1802 H 163.562 0.457964 -0.490418 0
M  V30 1803 H 166.106 0.858429 -1.8561 0
M  V30 1804 H 164.261 3.33937 -1.9638 0
M  V30 1805 H 164.675 3.17918 -4.17167 0
M  V30 1806 H 166.149 4.54145 -3.13777 0
M  V30 1807 H 166.626 4.13081 -1.49199 0
M  V30 1808 H 167.232 3.15613 -2.85076 0
M  V30 1809 N 165.547 1.27147 0.931209 0
M  V30 1810 C 166.796 1.12664 1.67302 0
M  V30 1811 C 167.109 -0.327718 1.92835 0
M  V30 1812 O 168.315 -0.593392 2.64936 0
M  V30 1813 C 166.771 1.9683 3.01307 0
M  V30 1814 C 166.379 3.46901 2.83485 0
M  V30 1815 C 168.123 1.90985 3.79111 0
M  V30 1816 C 166.03 4.23279 4.13024 0
M  V30 1817 H 164.96 0.41803 0.627509 0
M  V30 1818 H 167.611 1.51539 1.03481 0
M  V30 1819 H 165.993 1.50797 3.66164 0
M  V30 1820 H 167.167 4.00773 2.27415 0
M  V30 1821 H 165.482 3.54088 2.19113 0
M  V30 1822 H 168.079 2.45328 4.75098 0
M  V30 1823 H 168.422 0.882718 4.06834 0
M  V30 1824 H 168.955 2.34895 3.21044 0
M  V30 1825 H 165.694 5.26503 3.90481 0
M  V30 1826 H 165.214 3.74186 4.6877 0
M  V30 1827 H 166.893 4.32265 4.81411 0
M  V30 1828 N 167.025 -1.13721 1.09112 0
M  V30 1829 C 168.436 -1.6648 0.845068 0
M  V30 1830 C 168.787 -1.85911 -0.62701 0
M  V30 1831 O 167.912 -1.57556 -1.48341 0
M  V30 1832 C 168.507 -3.02413 1.52748 0
M  V30 1833 C 167.066 -3.52176 1.32849 0
M  V30 1834 C 166.213 -2.27492 1.58564 0
M  V30 1835 H 169.164 -0.976872 1.25072 0
M  V30 1836 H 169.185 -3.68223 0.958752 0
M  V30 1837 H 168.697 -2.88238 2.59885 0
M  V30 1838 H 166.798 -3.7156 0.278137 0
M  V30 1839 H 166.911 -4.32499 2.0611 0
M  V30 1840 H 165.275 -2.33923 1.00758 0
M  V30 1841 H 166.058 -2.15886 2.66924 0
M  V30 1842 N 168.503 -0.877838 -1.30888 0
M  V30 1843 C 169.453 -0.310872 -2.25871 0
M  V30 1844 C 170.437 0.556596 -1.50966 0
M  V30 1845 O 171.629 0.402187 -1.7237 0
M  V30 1846 C 168.758 0.479821 -3.3993 0
M  V30 1847 C 167.844 -0.401333 -4.22197 0
M  V30 1848 N 168.235 -1.49848 -4.83093 0
M  V30 1849 C 166.533 -0.195167 -4.45573 0
M  V30 1850 C 167.234 -2.0425 -5.44662 0
M  V30 1851 N 166.21 -1.33843 -5.26865 0
M  V30 1852 H 170.012 -1.1493 -2.70496 0
M  V30 1853 H 167.526 -0.726458 -1.45246 0
M  V30 1854 H 169.523 0.902582 -4.07012 0
M  V30 1855 H 168.183 1.31577 -2.96846 0
M  V30 1856 H 169.194 -1.88137 -4.82519 0
M  V30 1857 H 165.871 0.604192 -4.13105 0
M  V30 1858 H 167.261 -2.96345 -6.03017 0
M  V30 1859 N 169.982 1.44106 -0.638065 0
M  V30 1860 C 171.212 2.06037 -0.152394 0
M  V30 1861 C 171.62 1.47808 1.18108 0
M  V30 1862 O 170.963 0.598092 1.73691 0
M  V30 1863 C 171.025 3.59488 0.0293714 0
M  V30 1864 C 170.689 4.4022 -1.22702 0
M  V30 1865 C 171.686 4.73256 -2.15232 0
M  V30 1866 C 169.371 4.8048 -1.46437 0
M  V30 1867 C 171.365 5.45444 -3.29802 0
M  V30 1868 C 169.052 5.52417 -2.61303 0
M  V30 1869 C 170.05 5.84819 -3.52811 0
M  V30 1870 O 169.738 6.55289 -4.65673 0
M  V30 1871 H 169.47 0.671233 -0.0801401 0
M  V30 1872 H 172.024 1.85851 -0.874563 0
M  V30 1873 H 170.254 3.78191 0.806758 0
M  V30 1874 H 171.943 4.03164 0.470475 0
M  V30 1875 H 172.709 4.42684 -1.98131 0
M  V30 1876 H 168.588 4.54676 -0.760977 0
M  V30 1877 H 172.132 5.70653 -4.01249 0
M  V30 1878 H 168.029 5.82404 -2.78344 0
M  V30 1879 H 168.797 6.73762 -4.64744 0
M  V30 1880 N 171.46 0.379036 1.52974 0
M  V30 1881 C 172.737 -0.263479 1.93817 0
M  V30 1882 C 173.117 -1.65244 1.31368 0
M  V30 1883 O 172.465 -2.23448 0.477856 0
M  V30 1884 C 172.675 -0.300166 3.47707 0
M  V30 1885 C 174.023 -0.534061 4.21228 0
M  V30 1886 O 175.047 -0.38081 3.54159 0
M  V30 1887 O 173.906 -0.833501 5.40106 0
M  V30 1888 H 171 -0.161149 0.811147 0
M  V30 1889 H 173.546 0.432798 1.64088 0
M  V30 1890 H 172.318 0.673138 3.85467 0
M  V30 1891 H 171.941 -1.04179 3.83709 0
M  V30 1892 N 172.938 -1.57226 0.108567 0
M  V30 1893 C 173.871 -2.10447 -0.882464 0
M  V30 1894 C 174.849 -1.01829 -1.26766 0
M  V30 1895 O 176.033 -1.29415 -1.37054 0
M  V30 1896 C 173.16 -2.59258 -2.17952 0
M  V30 1897 C 172.206 -3.79662 -1.94318 0
M  V30 1898 S 173.039 -5.22586 -1.16892 0
M  V30 1899 C 174.195 -5.74758 -2.47799 0
M  V30 1900 H 174.428 -2.94178 -0.429745 0
M  V30 1901 H 171.961 -1.54043 -0.105 0
M  V30 1902 H 173.919 -2.88036 -2.92482 0
M  V30 1903 H 172.58 -1.75728 -2.60343 0
M  V30 1904 H 171.773 -4.11928 -2.90399 0
M  V30 1905 H 171.375 -3.51446 -1.27913 0
M  V30 1906 H 173.667 -5.83846 -3.43701 0
M  V30 1907 H 174.61 -6.73027 -2.20093 0
M  V30 1908 H 175.018 -5.02763 -2.56689 0
M  V30 1909 N 174.416 0.165178 -1.56732 0
M  V30 1910 C 175.366 1.20917 -1.93295 0
M  V30 1911 C 176.35 1.39488 -0.801985 0
M  V30 1912 O 177.542 1.41356 -1.06525 0
M  V30 1913 C 174.671 2.54718 -2.3016 0
M  V30 1914 C 173.757 2.39815 -3.49785 0
M  V30 1915 N 174.148 1.94637 -4.66851 0
M  V30 1916 C 172.446 2.70623 -3.54513 0
M  V30 1917 C 173.147 1.92344 -5.4898 0
M  V30 1918 N 172.123 2.34978 -4.9019 0
M  V30 1919 H 175.925 0.851675 -2.81289 0
M  V30 1920 H 173.439 0.373399 -1.58049 0
M  V30 1921 H 175.436 3.30165 -2.54552 0
M  V30 1922 H 174.096 2.91265 -1.43508 0
M  V30 1923 H 175.107 1.6488 -4.90953 0
M  V30 1924 H 171.784 3.11167 -2.78354 0
M  V30 1925 H 173.174 1.5906 -6.52801 0
M  V30 1926 N 175.894 1.51508 0.433938 0
M  V30 1927 C 176.842 1.73646 1.54757 0
M  V30 1928 C 177.836 0.602854 1.5831 0
M  V30 1929 O 179.042 0.784318 1.62014 0
M  V30 1930 H 175.417 0.548718 0.51421 0
M  V30 1931 H 177.388 2.66991 1.33261 0
M  V30 1932 C 176.137 1.88172 2.92381 0
M  V30 1933 H 175.46 2.74808 2.90381 0
M  V30 1934 H 176.9 2.07672 3.6966 0
M  V30 1935 C 175.359 0.64239 3.30719 0
M  V30 1936 O 175.889 -0.201362 4.01195 0
M  V30 1937 N 174.095 0.485489 2.86516 0
M  V30 1938 H 173.642 1.17318 2.29334 0
M  V30 1939 H 173.6 -0.342482 3.12529 0
M  V30 1940 N 177.372 -0.689602 1.41712 0
M  V30 1941 C 178.788 -1.00093 1.24312 0
M  V30 1942 C 178.988 -2.01036 0.136729 0
M  V30 1943 O 178.044 -2.47562 -0.496918 0
M  V30 1944 C 179.357 -1.51985 2.59463 0
M  V30 1945 C 180.905 -1.63838 2.66695 0
M  V30 1946 C 181.38 -2.1913 4.02177 0
M  V30 1947 N 182.871 -2.26483 4.04054 0
M  V30 1948 C 183.606 -2.70306 5.0569 0
M  V30 1949 N 183.102 -3.13691 6.17713 0
M  V30 1950 N 184.895 -2.69923 4.9305 0
M  V30 1951 H 177.046 -0.0210029 2.1239 0
M  V30 1952 H 179.309 -0.0718733 0.945272 0
M  V30 1953 H 179.015 -0.85269 3.41207 0
M  V30 1954 H 178.889 -2.50103 2.82362 0
M  V30 1955 H 181.276 -2.29664 1.85306 0
M  V30 1956 H 181.357 -0.642492 2.476 0
M  V30 1957 H 181.001 -1.53918 4.84016 0
M  V30 1958 H 180.931 -3.19482 4.18615 0
M  V30 1959 H 183.422 -1.95874 3.23174 0
M  V30 1960 H 183.735 -3.45773 6.9113 0
M  V30 1961 H 182.08 -3.11585 6.21241 0
M  V30 1962 H 185.271 -2.35382 4.04614 0
M  V30 1963 H 185.444 -3.03758 5.72394 0
M  V30 1964 N 178.85 -1.27639 -0.924453 0
M  V30 1965 C 179.76 -1.12466 -2.05885 0
M  V30 1966 C 180.776 -0.053869 -1.73917 0
M  V30 1967 O 181.952 -0.261012 -1.99702 0
M  V30 1968 C 179.017 -0.776768 -3.37886 0
M  V30 1969 C 178.078 -1.92878 -3.83532 0
M  V30 1970 C 177.311 -1.59739 -5.09234 0
M  V30 1971 O 177.534 -0.506782 -5.68144 0
M  V30 1972 O 176.468 -2.43761 -5.50331 0
M  V30 1973 H 180.294 -2.07671 -2.21599 0
M  V30 1974 H 177.879 -1.06857 -1.04413 0
M  V30 1975 H 179.761 -0.596229 -4.17161 0
M  V30 1976 H 178.436 0.145732 -3.23372 0
M  V30 1977 H 177.343 -2.1644 -3.0513 0
M  V30 1978 H 178.676 -2.8316 -4.02593 0
M  V30 1979 N 180.328 1.1314 -1.09713 0
M  V30 1980 C 181.575 1.84484 -0.834987 0
M  V30 1981 C 181.903 1.83689 0.639418 0
M  V30 1982 O 181.158 1.2724 1.4869 0
M  V30 1983 C 181.457 3.32167 -1.3191 0
M  V30 1984 C 181.123 3.53139 -2.80363 0
M  V30 1985 C 179.785 3.58571 -3.20905 0
M  V30 1986 C 182.137 3.60866 -3.76065 0
M  V30 1987 C 179.465 3.69267 -4.55916 0
M  V30 1988 C 181.817 3.73089 -5.10869 0
M  V30 1989 C 180.481 3.76775 -5.50996 0
M  V30 1990 H 179.751 0.675073 -0.305544 0
M  V30 1991 H 182.398 1.33554 -1.37243 0
M  V30 1992 H 180.703 3.85469 -0.701517 0
M  V30 1993 H 182.4 3.85821 -1.09284 0
M  V30 1994 H 178.99 3.49569 -2.47991 0
M  V30 1995 H 183.174 3.55946 -3.45855 0
M  V30 1996 H 178.43 3.70388 -4.86438 0
M  V30 1997 H 182.604 3.78011 -5.84877 0
M  V30 1998 H 180.231 3.84815 -6.55608 0
M  V30 1999 N 181.806 0.884767 1.30421 0
M  V30 2000 C 183.052 0.503851 1.96441 0
M  V30 2001 C 183.385 -0.944518 1.69684 0
M  V30 2002 O 182.66 -1.66737 1.00145 0
M  V30 2003 C 182.943 0.779085 3.51571 0
M  V30 2004 C 182.796 2.27807 3.87846 0
M  V30 2005 C 184.115 0.255452 4.39358 0
M  V30 2006 H 181.234 0.184533 0.713524 0
M  V30 2007 H 183.876 1.10872 1.54297 0
M  V30 2008 H 182.026 0.264274 3.876 0
M  V30 2009 H 183.698 2.86127 3.61841 0
M  V30 2010 H 181.941 2.74479 3.35922 0
M  V30 2011 H 182.612 2.42125 4.96064 0
M  V30 2012 H 185.088 0.696079 4.10236 0
M  V30 2013 H 183.964 0.477361 5.4682 0
M  V30 2014 H 184.225 -0.843293 4.33983 0
M  V30 2015 N 183.284 -1.43765 0.645699 0
M  V30 2016 C 184.533 -2.01116 0.153412 0
M  V30 2017 C 184.846 -1.51493 -1.23731 0
M  V30 2018 O 186.052 -2.01067 -1.8244 0
M  V30 2019 C 184.508 -3.59206 0.223473 0
M  V30 2020 C 184.116 -4.17823 1.61642 0
M  V30 2021 C 185.86 -4.23972 -0.211597 0
M  V30 2022 C 183.767 -5.68183 1.64081 0
M  V30 2023 H 182.697 -0.752093 0.0535891 0
M  V30 2024 H 185.348 -1.6482 0.806633 0
M  V30 2025 H 183.73 -3.92867 -0.497118 0
M  V30 2026 H 184.904 -3.95674 2.36176 0
M  V30 2027 H 183.219 -3.65399 1.99681 0
M  V30 2028 H 185.816 -5.34275 -0.213112 0
M  V30 2029 H 186.159 -3.97352 -1.24165 0
M  V30 2030 H 186.692 -3.95166 0.456988 0
M  V30 2031 H 183.431 -5.99559 2.64971 0
M  V30 2032 H 182.951 -5.9241 0.938611 0
M  V30 2033 H 184.63 -6.32085 1.3812 0
M  V30 2034 N 184.763 -0.387143 -1.52771 0
M  V30 2035 C 186.009 0.196025 -2.0185 0
M  V30 2036 C 186.342 1.46641 -1.27319 0
M  V30 2037 O 185.617 1.90889 -0.373032 0
M  V30 2038 C 185.9 0.466136 -3.5707 0
M  V30 2039 C 185.753 -0.819385 -4.42274 0
M  V30 2040 C 187.072 1.25768 -4.21747 0
M  V30 2041 H 184.191 0.0697708 -0.73369 0
M  V30 2042 H 186.833 -0.516286 -1.82851 0
M  V30 2043 H 184.983 1.07293 -3.7339 0
M  V30 2044 H 186.655 -1.4563 -4.37709 0
M  V30 2045 H 184.898 -1.43517 -4.09372 0
M  V30 2046 H 185.569 -0.585065 -5.48891 0
M  V30 2047 H 188.045 0.744167 -4.09391 0
M  V30 2048 H 186.921 1.41541 -5.30337 0
M  V30 2049 H 187.182 2.27228 -3.79236 0
M  V30 2050 N 186.241 1.57166 -0.116904 0
M  V30 2051 C 187.652 1.82169 0.408809 0
M  V30 2052 C 188.003 1.03393 1.66746 0
M  V30 2053 O 187.128 0.269886 2.1471 0
M  V30 2054 C 187.723 3.30429 0.748466 0
M  V30 2055 C 186.282 3.5612 1.21882 0
M  V30 2056 C 185.429 2.76374 0.226452 0
M  V30 2057 H 188.38 1.5497 -0.342063 0
M  V30 2058 H 188.401 3.44943 1.60607 0
M  V30 2059 H 187.913 3.87737 -0.167784 0
M  V30 2060 H 186.014 3.04168 2.15204 0
M  V30 2061 H 186.127 4.64705 1.16559 0
M  V30 2062 H 184.491 2.44515 0.713063 0
M  V30 2063 H 185.274 3.3644 -0.682859 0
M  V30 2064 N 187.719 -0.156864 1.56817 0
M  V30 2065 C 188.649 -1.19589 2.00551 0
M  V30 2066 C 189.63 -1.4536 0.883426 0
M  V30 2067 O 190.815 -1.56449 1.15054 0
M  V30 2068 C 187.945 -2.53143 2.37773 0
M  V30 2069 C 186.899 -2.41913 3.53075 0
M  V30 2070 C 186.225 -3.80088 3.76081 0
M  V30 2071 C 187.525 -1.91157 4.86062 0
M  V30 2072 H 189.219 -0.832293 2.87599 0
M  V30 2073 H 186.765 -0.398918 1.38364 0
M  V30 2074 H 188.718 -3.26047 2.66967 0
M  V30 2075 H 187.442 -2.91319 1.4765 0
M  V30 2076 H 186.101 -1.71462 3.24031 0
M  V30 2077 H 185.749 -4.15683 2.83225 0
M  V30 2078 H 185.449 -3.73439 4.53671 0
M  V30 2079 H 186.973 -4.54556 4.0769 0
M  V30 2080 H 188.387 -2.53846 5.14038 0
M  V30 2081 H 186.784 -1.95422 5.67389 0
M  V30 2082 H 187.854 -0.866673 4.77092 0
M  V30 2083 N 189.197 -1.51736 -0.425897 0
M  V30 2084 C 190.444 -1.6497 -1.17436 0
M  V30 2085 C 190.772 -0.371445 -1.9092 0
M  V30 2086 O 190.027 0.644963 -1.84767 0
M  V30 2087 C 190.326 -2.81103 -2.20717 0
M  V30 2088 C 189.992 -4.19954 -1.64162 0
M  V30 2089 C 188.654 -4.57725 -1.48462 0
M  V30 2090 C 191.006 -5.06552 -1.22696 0
M  V30 2091 C 188.334 -5.79789 -0.897873 0
M  V30 2092 C 190.686 -6.29205 -0.654464 0
M  V30 2093 C 189.35 -6.6574 -0.484456 0
M  V30 2094 H 188.62 -0.603668 -0.429727 0
M  V30 2095 H 191.267 -1.85798 -0.463829 0
M  V30 2096 H 189.572 -2.54542 -2.97852 0
M  V30 2097 H 191.269 -2.8854 -2.78471 0
M  V30 2098 H 187.859 -3.90181 -1.77361 0
M  V30 2099 H 192.043 -4.77968 -1.33642 0
M  V30 2100 H 187.299 -6.06733 -0.75402 0
M  V30 2101 H 191.473 -6.95643 -0.324694 0
M  V30 2102 H 189.1 -7.60195 -0.0276833 0
M  V30 2103 N 190.675 0.682077 -1.42076 0
M  V30 2104 C 191.585 1.82535 -1.47371 0
M  V30 2105 C 192.601 1.7017 -0.363079 0
M  V30 2106 O 193.777 1.91848 -0.612875 0
M  V30 2107 C 190.842 3.18624 -1.36674 0
M  V30 2108 C 189.903 3.42999 -2.58167 0
M  V30 2109 C 189.136 4.72595 -2.4797 0
M  V30 2110 O 189.359 5.50006 -1.5116 0
M  V30 2111 O 188.293 4.98054 -3.37974 0
M  V30 2112 H 192.119 1.81023 -2.43853 0
M  V30 2113 H 189.704 0.836887 -1.2376 0
M  V30 2114 H 191.586 3.99847 -1.33043 0
M  V30 2115 H 190.261 3.20789 -0.433138 0
M  V30 2116 H 189.168 2.61653 -2.67373 0
M  V30 2117 H 190.501 3.45659 -3.50401 0
M  V30 2118 N 192.153 1.28127 0.917671 0
M  V30 2119 C 193.402 1.14432 1.66097 0
M  V30 2120 C 193.715 -0.307247 1.93172 0
M  V30 2121 O 194.921 -0.565259 2.65551 0
M  V30 2122 C 193.377 2.00015 2.99202 0
M  V30 2123 C 192.985 3.49889 2.79789 0
M  V30 2124 C 194.729 1.94996 3.77064 0
M  V30 2125 C 192.636 4.27636 4.08511 0
M  V30 2126 H 191.566 0.424662 0.62304 0
M  V30 2127 H 194.217 1.52628 1.01868 0
M  V30 2128 H 192.599 1.54672 3.64544 0
M  V30 2129 H 193.773 4.03162 2.23152 0
M  V30 2130 H 192.088 3.56392 2.15345 0
M  V30 2131 H 194.685 2.50354 4.72469 0
M  V30 2132 H 195.028 0.925819 4.05875 0
M  V30 2133 H 195.561 2.38287 3.18534 0
M  V30 2134 H 192.3 5.30615 3.84874 0
M  V30 2135 H 191.82 3.79137 4.64774 0
M  V30 2136 H 193.499 4.37346 4.76799 0
M  V30 2137 N 193.631 -1.12557 1.10312 0
M  V30 2138 C 194.594 -2.16434 0.75424 0
M  V30 2139 C 195.594 -1.59278 -0.220685 0
M  V30 2140 O 196.784 -1.742 0.00230591 0
M  V30 2141 C 193.916 -3.40699 0.116987 0
M  V30 2142 H 195.109 -2.48811 1.67431 0
M  V30 2143 H 192.662 -1.27542 0.903475 0
M  V30 2144 H 193.397 -3.13921 -0.813877 0
M  V30 2145 H 193.182 -3.83459 0.818613 0
M  V30 2146 H 194.672 -4.17451 -0.111387 0
M  V30 2147 N 195.109 -0.891671 -1.2995 0
M  V30 2148 C 196.334 -0.527932 -2.00568 0
M  V30 2149 C 196.759 0.877969 -1.66353 0
M  V30 2150 O 196.117 1.58301 -0.883762 0
M  V30 2151 C 196.165 -0.717745 -3.53385 0
M  V30 2152 O 195.269 0.233376 -4.11739 0
M  V30 2153 H 194.61 -0.20722 -0.630837 0
M  V30 2154 H 197.14 -1.20105 -1.65638 0
M  V30 2155 H 197.15 -0.619307 -4.03272 0
M  V30 2156 H 195.825 -1.74276 -3.77625 0
M  V30 2157 H 194.402 0.0880706 -3.72796 0
M  V30 2158 N 196.587 1.43421 -0.653314 0
M  V30 2159 C 197.864 1.95361 -0.0966581 0
M  V30 2160 C 198.244 1.59461 1.38331 0
M  V30 2161 O 197.592 0.879777 2.10884 0
M  V30 2162 C 197.802 3.47311 -0.342988 0
M  V30 2163 C 199.15 4.23875 -0.24798 0
M  V30 2164 O 200.174 3.55133 -0.275553 0
M  V30 2165 O 199.033 5.4623 -0.171771 0
M  V30 2166 H 196.127 0.826945 0.00956291 0
M  V30 2167 H 198.673 1.5336 -0.726558 0
M  V30 2168 H 197.445 3.66569 -1.36906 0
M  V30 2169 H 197.068 3.9631 0.319975 0
M  V30 2170 N 198.065 0.39524 1.52563 0
M  V30 2171 C 198.995 -0.428384 2.29537 0
M  V30 2172 C 199.976 -1.05831 1.33169 0
M  V30 2173 O 201.161 -1.06995 1.62067 0
M  V30 2174 C 198.291 -1.55274 3.10656 0
M  V30 2175 C 197.245 -1.04855 4.14957 0
M  V30 2176 C 196.571 -2.26543 4.84337 0
M  V30 2177 C 197.871 -0.112324 5.22179 0
M  V30 2178 H 199.565 0.213867 2.98635 0
M  V30 2179 H 197.111 0.104298 1.43622 0
M  V30 2180 H 199.064 -2.1358 3.63265 0
M  V30 2181 H 197.788 -2.22266 2.39302 0
M  V30 2182 H 196.447 -0.487985 3.63338 0
M  V30 2183 H 196.095 -2.92059 4.09525 0
M  V30 2184 H 195.795 -1.93466 5.54837 0
M  V30 2185 H 197.319 -2.85481 5.39753 0
M  V30 2186 H 198.733 -0.603752 5.70112 0
M  V30 2187 H 197.13 0.128968 5.99961 0
M  V30 2188 H 198.2 0.837052 4.77621 0
M  V30 2189 N 199.544 -1.57102 0.125237 0
M  V30 2190 C 200.79 -1.95697 -0.532035 0
M  V30 2191 C 201.123 -1.009 -1.6593 0
M  V30 2192 O 200.398 -0.047347 -1.94442 0
M  V30 2193 C 200.681 -3.44181 -1.05884 0
M  V30 2194 C 200.534 -4.49752 0.0654392 0
M  V30 2195 C 201.853 -3.94655 -1.9477 0
M  V30 2196 H 198.972 -0.711571 -0.191925 0
M  V30 2197 H 201.614 -1.88923 0.20206 0
M  V30 2198 H 199.764 -3.50085 -1.68442 0
M  V30 2199 H 201.436 -4.55943 0.700982 0
M  V30 2200 H 199.679 -4.27653 0.727709 0
M  V30 2201 H 200.35 -5.50924 -0.344505 0
M  V30 2202 H 202.826 -3.91094 -1.42074 0
M  V30 2203 H 201.702 -4.99057 -2.28546 0
M  V30 2204 H 201.963 -3.35718 -2.87656 0
M  V30 2205 N 201.022 0.148545 -1.56898 0
M  V30 2206 C 201.952 1.18524 -2.01182 0
M  V30 2207 C 202.933 1.4489 -0.891123 0
M  V30 2208 O 204.118 1.55836 -1.15882 0
M  V30 2209 C 201.248 2.51879 -2.39112 0
M  V30 2210 C 200.202 2.40038 -3.54353 0
M  V30 2211 C 199.528 3.78089 -3.78091 0
M  V30 2212 C 200.828 1.88577 -4.87069 0
M  V30 2213 H 202.522 0.817029 -2.88036 0
M  V30 2214 H 200.068 0.391575 -1.38574 0
M  V30 2215 H 202.021 3.24627 -2.68692 0
M  V30 2216 H 200.745 2.90532 -1.49193 0
M  V30 2217 H 199.404 1.69742 -3.24936 0
M  V30 2218 H 199.052 4.14175 -2.85426 0
M  V30 2219 H 198.752 3.71028 -4.55645 0
M  V30 2220 H 200.276 4.52387 -4.10095 0
M  V30 2221 H 201.69 2.51117 -5.15377 0
M  V30 2222 H 200.087 1.9241 -5.68417 0
M  V30 2223 H 201.157 0.84136 -4.77545 0
M  V30 2224 N 202.5 1.5196 0.417844 0
M  V30 2225 C 203.911 1.57851 0.997 0
M  V30 2226 C 204.262 0.413714 1.91789 0
M  V30 2227 O 203.387 -0.467057 2.113 0
M  V30 2228 C 203.982 2.86085 1.81496 0
M  V30 2229 C 202.541 2.94483 2.34428 0
M  V30 2230 C 201.688 2.52707 1.14169 0
M  V30 2231 H 204.639 1.57455 0.198392 0
M  V30 2232 H 204.66 2.70947 2.67148 0
M  V30 2233 H 204.172 3.70842 1.14446 0
M  V30 2234 H 202.273 2.142 3.04875 0
M  V30 2235 H 202.386 3.98546 2.65891 0
M  V30 2236 H 200.75 2.06353 1.49301 0
M  V30 2237 H 201.533 3.39828 0.486999 0
M  V30 2238 N 203.978 -0.674533 1.42435 0
M  V30 2239 C 204.926 -1.80934 1.46169 0
M  V30 2240 C 205.92 -1.66006 0.3374 0
M  V30 2241 O 207.126 -1.72611 0.510425 0
M  V30 2242 H 203.501 -0.596594 0.457798 0
M  V30 2243 H 205.472 -1.74903 2.41767 0
M  V30 2244 C 204.221 -3.19088 1.38123 0
M  V30 2245 H 203.544 -3.31203 2.23931 0
M  V30 2246 H 204.984 -3.9851 1.44797 0
M  V30 2247 C 203.443 -3.36763 0.0960517 0
M  V30 2248 O 203.973 -3.92581 -0.851073 0
M  V30 2249 N 202.179 -2.90597 0.0131186 0
M  V30 2250 H 201.726 -2.45359 0.784639 0
M  V30 2251 H 201.684 -3.028 -0.846133 0
M  V30 2252 N 205.456 -1.28612 -0.910864 0
M  V30 2253 C 206.681 -1.1891 -1.69927 0
M  V30 2254 C 207.106 0.248372 -1.86453 0
M  V30 2255 O 206.464 1.17961 -1.37676 0
M  V30 2256 C 206.512 -1.89578 -3.06745 0
M  V30 2257 O 205.616 -1.20521 -3.94396 0
M  V30 2258 H 204.957 -0.412632 -0.520222 0
M  V30 2259 H 207.487 -1.69985 -1.1387 0
M  V30 2260 H 207.497 -1.97597 -3.56958 0
M  V30 2261 H 206.172 -2.94136 -2.94035 0
M  V30 2262 H 204.749 -1.20684 -3.52831 0
M  V30 2263 N 206.934 1.1197 -1.10907 0
M  V30 2264 C 207.866 2.17592 -0.720175 0
M  V30 2265 C 208.879 1.60938 0.245495 0
M  V30 2266 O 210.068 1.78476 0.0292245 0
M  V30 2267 C 207.168 3.38873 -0.0427917 0
M  V30 2268 C 206.341 4.25006 -1.03388 0
M  V30 2269 C 205.4 5.24774 -0.387075 0
M  V30 2270 O 204.426 5.59631 -1.03934 0
M  V30 2271 N 205.628 5.74208 0.852407 0
M  V30 2272 H 208.393 2.51567 -1.62893 0
M  V30 2273 H 205.954 1.27439 -0.998543 0
M  V30 2274 H 207.946 4.02703 0.401501 0
M  V30 2275 H 206.516 3.03007 0.768456 0
M  V30 2276 H 205.736 3.57716 -1.65629 0
M  V30 2277 H 207.024 4.79397 -1.70458 0
M  V30 2278 H 206.422 5.48062 1.40161 0
M  V30 2279 H 204.979 6.39901 1.23977 0
M  V30 2280 N 208.412 0.89855 1.29475 0
M  V30 2281 C 209.661 0.519863 1.94885 0
M  V30 2282 C 209.974 -0.9383 1.71625 0
M  V30 2283 O 211.18 -1.42445 2.31131 0
M  V30 2284 C 209.636 0.878836 3.49005 0
M  V30 2285 C 209.244 2.35569 3.81066 0
M  V30 2286 C 210.988 0.570004 4.20656 0
M  V30 2287 C 208.895 2.65558 5.28425 0
M  V30 2288 H 207.825 0.190692 0.729488 0
M  V30 2289 H 210.476 1.09539 1.47219 0
M  V30 2290 H 208.858 0.232253 3.95318 0
M  V30 2291 H 210.032 3.04773 3.45616 0
M  V30 2292 H 208.347 2.63343 3.22552 0
M  V30 2293 H 210.944 0.770925 5.29113 0
M  V30 2294 H 211.287 -0.491404 4.1339 0
M  V30 2295 H 211.82 1.17438 3.8007 0
M  V30 2296 H 208.559 3.70493 5.40754 0
M  V30 2297 H 208.079 2.00977 5.65127 0
M  V30 2298 H 209.758 2.51765 5.96006 0
M  V30 2299 N 209.89 -1.43072 0.660911 0
M  V30 2300 C 211.139 -2.00942 0.174735 0
M  V30 2301 C 211.452 -1.52797 -1.22117 0
M  V30 2302 O 212.658 -2.02991 -1.80297 0
M  V30 2303 C 211.114 -3.58948 0.261559 0
M  V30 2304 C 210.722 -4.16085 1.66064 0
M  V30 2305 C 212.466 -4.24173 -0.166617 0
M  V30 2306 C 210.373 -5.6641 1.70098 0
M  V30 2307 H 209.303 -0.751483 0.0615631 0
M  V30 2308 H 211.954 -1.63955 0.824069 0
M  V30 2309 H 210.336 -3.93372 -0.455421 0
M  V30 2310 H 211.51 -3.93147 2.40359 0
M  V30 2311 H 209.825 -3.6326 2.03546 0
M  V30 2312 H 212.422 -5.34471 -0.156433 0
M  V30 2313 H 212.765 -3.98647 -1.19943 0
M  V30 2314 H 213.298 -3.94659 0.498875 0
M  V30 2315 H 210.037 -5.96715 2.71315 0
M  V30 2316 H 209.557 -5.91382 1.00139 0
M  V30 2317 H 211.236 -6.30585 1.44816 0
M  V30 2318 N 211.368 -0.403325 -1.52352 0
M  V30 2319 C 212.596 0.174012 -2.06167 0
M  V30 2320 C 213.011 1.39347 -1.27388 0
M  V30 2321 O 212.368 1.79597 -0.324201 0
M  V30 2322 C 212.419 0.530223 -3.5759 0
M  V30 2323 O 212.14 -0.640806 -4.33388 0
M  V30 2324 C 213.641 1.16192 -4.27802 0
M  V30 2325 H 210.861 0.0229464 -0.670608 0
M  V30 2326 H 213.405 -0.572604 -1.9632 0
M  V30 2327 H 211.56 1.22673 -3.67464 0
M  V30 2328 H 211.974 -0.344851 -5.23365 0
M  V30 2329 H 213.448 1.36141 -5.34948 0
M  V30 2330 H 213.925 2.13335 -3.83907 0
M  V30 2331 H 214.531 0.505775 -4.22282 0
M  V30 2332 N 212.846 1.57033 -0.133567 0
M  V30 2333 C 213.756 2.19632 0.824564 0
M  V30 2334 C 214.772 1.17666 1.28182 0
M  V30 2335 O 215.948 1.50193 1.3418 0
M  V30 2336 C 213.013 2.79499 2.05137 0
M  V30 2337 C 212.074 3.96548 1.64464 0
M  V30 2338 C 211.307 4.5355 2.81297 0
M  V30 2339 O 211.53 4.09438 3.97136 0
M  V30 2340 O 210.464 5.44018 2.57542 0
M  V30 2341 H 214.29 3.01991 0.321766 0
M  V30 2342 H 211.875 1.49112 0.0927889 0
M  V30 2343 H 213.757 3.17602 2.7696 0
M  V30 2344 H 212.432 2.00162 2.54395 0
M  V30 2345 H 211.339 3.63186 0.897048 0
M  V30 2346 H 212.672 4.77364 1.19934 0
M  V30 2347 N 214.325 -0.140222 1.56975 0
M  V30 2348 C 215.255 -1.17456 2.01808 0
M  V30 2349 C 216.236 -1.44415 0.898794 0
M  V30 2350 O 217.421 -1.5522 1.16707 0
M  V30 2351 C 214.551 -2.50607 2.40444 0
M  V30 2352 C 213.505 -2.38155 3.55621 0
M  V30 2353 C 212.831 -3.76078 3.80091 0
M  V30 2354 C 214.131 -1.85991 4.88062 0
M  V30 2355 H 215.825 -0.801743 2.88466 0
M  V30 2356 H 213.371 -0.38422 1.38779 0
M  V30 2357 H 215.324 -3.23197 2.7041 0
M  V30 2358 H 214.048 -2.89737 1.50732 0
M  V30 2359 H 212.707 -1.68016 3.25832 0
M  V30 2360 H 212.355 -4.12656 2.87618 0
M  V30 2361 H 212.055 -3.68606 4.57606 0
M  V30 2362 H 213.579 -4.50206 4.12488 0
M  V30 2363 H 214.993 -2.4838 5.16701 0
M  V30 2364 H 213.39 -1.89393 5.6943 0
M  V30 2365 H 214.46 -0.816023 4.77984 0
M  V30 2366 N 215.803 -1.52179 -0.40978 0
M  V30 2367 C 217.049 -1.66453 -1.15851 0
M  V30 2368 C 217.382 -0.392972 -1.90182 0
M  V30 2369 O 216.657 0.608579 -1.84734 0
M  V30 2370 C 216.94 -2.88612 -2.15349 0
M  V30 2371 C 216.793 -4.25815 -1.44918 0
M  V30 2372 C 218.112 -3.06294 -3.16026 0
M  V30 2373 H 215.231 -0.60575 -0.419805 0
M  V30 2374 H 217.873 -1.84732 -0.444314 0
M  V30 2375 H 216.023 -2.73158 -2.76255 0
M  V30 2376 H 217.695 -4.52995 -0.871365 0
M  V30 2377 H 215.938 -4.27247 -0.751159 0
M  V30 2378 H 216.609 -5.07337 -2.17516 0
M  V30 2379 H 219.085 -3.20641 -2.65195 0
M  V30 2380 H 217.961 -3.93283 -3.8291 0
M  V30 2381 H 218.222 -2.19579 -3.83715 0
M  V30 2382 N 217.281 0.66697 -1.42791 0
M  V30 2383 C 218.228 1.7803 -1.4688 0
M  V30 2384 C 219.198 1.6299 -0.319919 0
M  V30 2385 O 220.383 1.83432 -0.525118 0
M  V30 2386 C 217.523 3.1611 -1.38451 0
M  V30 2387 C 216.636 3.42381 -2.63437 0
M  V30 2388 C 215.771 4.70232 -2.47094 0
M  V30 2389 C 214.81 4.89564 -3.67415 0
M  V30 2390 N 213.947 6.08661 -3.49966 0
M  V30 2391 H 218.787 1.7387 -2.42019 0
M  V30 2392 H 216.324 0.84868 -1.20149 0
M  V30 2393 H 218.282 3.95914 -1.31561 0
M  V30 2394 H 216.912 3.19374 -0.469033 0
M  V30 2395 H 215.964 2.56774 -2.80662 0
M  V30 2396 H 217.276 3.52557 -3.52853 0
M  V30 2397 H 216.43 5.5814 -2.37834 0
M  V30 2398 H 215.169 4.62353 -1.5518 0
M  V30 2399 H 214.174 4.00096 -3.77099 0
M  V30 2400 H 215.399 4.99282 -4.6032 0
M  V30 2401 H 213.345 6.0194 -2.60776 0
M  V30 2402 H 213.262 6.19733 -4.32975 0
M  V30 2403 H 214.53 6.99226 -3.44532 0
M  V30 2404 N 218.759 1.29093 0.90403 0
M  V30 2405 C 219.691 1.09658 2.01266 0
M  V30 2406 C 220.704 0.0453729 1.62737 0
M  V30 2407 O 221.893 0.289446 1.76138 0
M  V30 2408 C 218.993 0.646278 3.32681 0
M  V30 2409 C 218.166 1.77505 3.99763 0
M  V30 2410 C 217.225 1.31649 5.09465 0
M  V30 2411 O 216.251 2.02045 5.32134 0
M  V30 2412 N 217.453 0.184997 5.80205 0
M  V30 2413 H 220.218 2.05135 2.18494 0
M  V30 2414 H 217.779 1.20975 1.07594 0
M  V30 2415 H 219.771 0.322906 4.0341 0
M  V30 2416 H 218.341 -0.215916 3.11853 0
M  V30 2417 H 217.561 2.26752 3.22455 0
M  V30 2418 H 218.849 2.53198 4.41325 0
M  V30 2419 H 218.247 -0.402021 5.6427 0
M  V30 2420 H 216.804 -0.0790358 6.51752 0
M  V30 2421 N 220.237 -1.11381 1.11499 0
M  V30 2422 C 221.484 -1.83132 0.864231 0
M  V30 2423 C 221.812 -1.84683 -0.610114 0
M  V30 2424 O 221.067 -1.29589 -1.46646 0
M  V30 2425 C 221.366 -3.30026 1.37177 0
M  V30 2426 C 221.032 -3.48634 2.85946 0
M  V30 2427 C 219.694 -3.53421 3.26569 0
M  V30 2428 C 222.046 -3.54837 3.81759 0
M  V30 2429 C 219.374 -3.61967 4.61733 0
M  V30 2430 C 221.726 -3.64915 5.1674 0
M  V30 2431 C 220.39 -3.67962 5.5692 0
M  V30 2432 H 219.66 -0.670127 0.316245 0
M  V30 2433 H 222.307 -1.31354 1.3935 0
M  V30 2434 H 220.612 -3.84304 0.762753 0
M  V30 2435 H 222.309 -3.84034 1.15408 0
M  V30 2436 H 218.899 -3.45579 2.53521 0
M  V30 2437 H 223.083 -3.50399 3.51474 0
M  V30 2438 H 218.339 -3.62603 4.92269 0
M  V30 2439 H 222.513 -3.68658 5.90816 0
M  V30 2440 H 220.14 -3.74336 6.61647 0
M  V30 2441 N 221.715 -0.905404 -1.28997 0
M  V30 2442 C 222.678 -0.392253 -2.25819 0
M  V30 2443 C 223.678 0.476753 -1.5357 0
M  V30 2444 O 224.868 0.280994 -1.71919 0
M  V30 2445 C 222 0.438588 -3.38067 0
M  V30 2446 H 223.193 -1.24743 -2.72725 0
M  V30 2447 H 220.746 -0.684051 -1.40536 0
M  V30 2448 H 221.481 1.31352 -2.96508 0
M  V30 2449 H 221.266 -0.184167 -3.91667 0
M  V30 2450 H 222.756 0.78873 -4.10084 0
M  V30 2451 N 223.193 1.4272 -0.668489 0
M  V30 2452 C 224.47 1.95248 -0.117373 0
M  V30 2453 C 224.85 1.60919 1.36632 0
M  V30 2454 O 224.198 0.902095 2.09939 0
M  V30 2455 C 224.408 3.46927 -0.379806 0
M  V30 2456 C 225.756 4.23588 -0.292923 0
M  V30 2457 O 226.78 3.5482 -0.313204 0
M  V30 2458 O 225.639 5.46017 -0.229697 0
M  V30 2459 H 222.733 0.827 0.00079152 0
M  V30 2460 H 225.279 1.52581 -0.742783 0
M  V30 2461 H 224.051 3.65096 -1.40786 0
M  V30 2462 H 223.674 3.96627 0.277923 0
M  V30 2463 N 224.671 0.411399 1.52136 0
M  V30 2464 C 225.621 -0.430376 2.23901 0
M  V30 2465 C 226.605 -1.0116 1.25121 0
M  V30 2466 O 227.797 -0.934044 1.50348 0
M  V30 2467 C 224.926 -1.54527 3.06556 0
M  V30 2468 C 224.012 -0.9747 4.12747 0
M  V30 2469 N 224.403 -0.130991 5.0563 0
M  V30 2470 C 222.701 -1.24497 4.28271 0
M  V30 2471 C 223.402 0.186689 5.814 0
M  V30 2472 N 222.378 -0.42304 5.41951 0
M  V30 2473 H 226.18 0.220509 2.93072 0
M  V30 2474 H 223.694 0.221952 1.60876 0
M  V30 2475 H 225.691 -2.16093 3.56524 0
M  V30 2476 H 224.351 -2.19875 2.38925 0
M  V30 2477 H 225.362 0.23349 5.17373 0
M  V30 2478 H 222.039 -1.89787 3.7187 0
M  V30 2479 H 223.429 0.871673 6.66222 0
M  V30 2480 N 226.149 -1.5696 0.141893 0
M  V30 2481 C 227.096 -2.16501 -0.799737 0
M  V30 2482 C 228.066 -1.09643 -1.24771 0
M  V30 2483 O 229.251 -1.3766 -1.32115 0
M  V30 2484 C 226.391 -2.78679 -2.03549 0
M  V30 2485 C 225.504 -3.99914 -1.6338 0
M  V30 2486 C 224.639 -4.50106 -2.82096 0
M  V30 2487 C 223.678 -5.63819 -2.38275 0
M  V30 2488 N 222.815 -6.08651 -3.49983 0
M  V30 2489 H 227.655 -2.96632 -0.285179 0
M  V30 2490 H 225.192 -1.46533 -0.129053 0
M  V30 2491 H 227.15 -3.1287 -2.75986 0
M  V30 2492 H 225.78 -2.012 -2.52425 0
M  V30 2493 H 224.832 -3.71735 -0.807279 0
M  V30 2494 H 226.144 -4.82311 -1.27192 0
M  V30 2495 H 225.298 -4.86325 -3.62729 0
M  V30 2496 H 224.037 -3.66706 -3.21525 0
M  V30 2497 H 223.042 -5.2718 -1.56081 0
M  V30 2498 H 224.267 -6.49 -1.99938 0
M  V30 2499 H 222.213 -5.28188 -3.89042 0
M  V30 2500 H 222.13 -6.85961 -3.17794 0
M  V30 2501 H 223.398 -6.49515 -4.30988 0
M  V30 2502 N 227.627 0.131896 -1.57047 0
M  V30 2503 C 228.56 1.19236 -1.94571 0
M  V30 2504 C 229.538 1.40782 -0.813576 0
M  V30 2505 O 230.722 1.55148 -1.07058 0
M  V30 2506 C 227.849 2.54858 -2.23081 0
M  V30 2507 C 226.895 2.49817 -3.45679 0
M  V30 2508 S 227.728 1.95036 -4.98719 0
M  V30 2509 C 228.884 3.32357 -5.30367 0
M  V30 2510 H 229.117 0.872297 -2.84215 0
M  V30 2511 H 226.65 0.338134 -1.50652 0
M  V30 2512 H 228.608 3.32898 -2.40185 0
M  V30 2513 H 227.269 2.84047 -1.34074 0
M  V30 2514 H 226.462 3.49688 -3.62952 0
M  V30 2515 H 226.064 1.79892 -3.27895 0
M  V30 2516 H 228.356 4.28525 -5.2476 0
M  V30 2517 H 229.299 3.19923 -6.31708 0
M  V30 2518 H 229.707 3.3019 -4.57859 0
M  V30 2519 N 229.106 1.52395 0.401703 0
M  V30 2520 C 230.355 1.66044 1.14509 0
M  V30 2521 C 230.668 0.400216 1.91462 0
M  V30 2522 O 231.874 0.416632 2.68284 0
M  V30 2523 C 230.33 2.93388 2.0845 0
M  V30 2524 C 229.938 4.26545 1.36978 0
M  V30 2525 C 231.682 3.16402 2.83001 0
M  V30 2526 C 229.589 5.45007 2.29611 0
M  V30 2527 H 228.519 0.618562 0.431158 0
M  V30 2528 H 231.17 1.78886 0.40892 0
M  V30 2529 H 229.552 2.74263 2.8565 0
M  V30 2530 H 230.726 4.56179 0.650916 0
M  V30 2531 H 229.041 4.09692 0.74438 0
M  V30 2532 H 231.638 4.02085 3.52465 0
M  V30 2533 H 231.981 2.30943 3.46368 0
M  V30 2534 H 232.514 3.36034 2.12898 0
M  V30 2535 H 229.253 6.32835 1.70879 0
M  V30 2536 H 228.773 5.19702 2.9945 0
M  V30 2537 H 230.452 5.7838 2.89974 0
M  V30 2538 N 230.584 -0.659388 1.43143 0
M  V30 2539 C 231.531 -1.77249 1.47822 0
M  V30 2540 C 232.501 -1.62818 0.328558 0
M  V30 2541 O 233.686 -1.83151 0.534838 0
M  V30 2542 C 230.826 -3.15371 1.40126 0
M  V30 2543 C 229.939 -3.4098 2.65249 0
M  V30 2544 C 229.074 -4.68915 2.49584 0
M  V30 2545 C 228.113 -4.87608 3.70006 0
M  V30 2546 N 227.25 -6.06796 3.53189 0
M  V30 2547 H 232.09 -1.72584 2.42938 0
M  V30 2548 H 229.627 -0.842297 1.20598 0
M  V30 2549 H 231.585 -3.9521 1.33659 0
M  V30 2550 H 230.215 -3.19121 0.485964 0
M  V30 2551 H 229.267 -2.55282 2.8202 0
M  V30 2552 H 230.579 -3.50681 3.54717 0
M  V30 2553 H 229.733 -5.56871 2.4079 0
M  V30 2554 H 228.472 -4.61524 1.5763 0
M  V30 2555 H 227.477 -3.9809 3.79215 0
M  V30 2556 H 228.702 -4.96834 4.62961 0
M  V30 2557 H 226.648 -6.00549 2.63965 0
M  V30 2558 H 226.565 -6.17428 4.36255 0
M  V30 2559 H 227.833 -6.9739 3.48236 0
M  V30 2560 N 232.062 -1.29571 -0.897171 0
M  V30 2561 C 232.992 -1.17473 -2.01798 0
M  V30 2562 C 233.973 -0.068323 -1.69963 0
M  V30 2563 O 235.158 -0.248239 -1.92607 0
M  V30 2564 C 232.288 -0.853099 -3.36659 0
M  V30 2565 C 231.242 -1.9161 -3.82713 0
M  V30 2566 C 230.568 -1.44773 -5.14728 0
M  V30 2567 C 231.868 -3.32535 -4.02763 0
M  V30 2568 H 233.562 -2.11237 -2.12177 0
M  V30 2569 H 231.108 -1.01699 -1.01948 0
M  V30 2570 H 233.061 -0.755165 -4.14578 0
M  V30 2571 H 231.785 0.120236 -3.26379 0
M  V30 2572 H 230.444 -2.00346 -3.07013 0
M  V30 2573 H 230.092 -0.462995 -5.00865 0
M  V30 2574 H 229.792 -2.15865 -5.46513 0
M  V30 2575 H 231.316 -1.36334 -5.95185 0
M  V30 2576 H 232.73 -3.26626 -4.71156 0
M  V30 2577 H 231.127 -4.01607 -4.45905 0
M  V30 2578 H 232.197 -3.75326 -3.07016 0
M  V30 2579 N 233.54 1.10788 -1.12088 0
M  V30 2580 C 234.488 2.19111 -0.780587 0
M  V30 2581 C 235.482 1.67818 0.230961 0
M  V30 2582 O 236.688 1.79777 0.0895427 0
M  V30 2583 H 233.063 0.714477 -0.234578 0
M  V30 2584 H 235.034 2.45055 -1.70266 0
M  V30 2585 C 233.783 3.46818 -0.24747 0
M  V30 2586 H 233.106 3.86646 -1.01712 0
M  V30 2587 H 234.546 4.23973 -0.0476291 0
M  V30 2588 C 233.005 3.20968 1.02378 0
M  V30 2589 O 233.535 3.42298 2.10226 0
M  V30 2590 N 231.741 2.74658 0.949271 0
M  V30 2591 H 231.288 2.57501 0.0715173 0
M  V30 2592 H 231.246 2.57739 1.80049 0
M  V30 2593 N 235.018 0.912232 1.28515 0
M  V30 2594 C 236.429 0.591352 1.77087 0
M  V30 2595 C 236.78 -0.8933 1.74684 0
M  V30 2596 O 235.905 -1.69876 1.34056 0
M  V30 2597 C 236.5 1.06668 3.2157 0
M  V30 2598 C 235.059 0.79675 3.67871 0
M  V30 2599 C 234.206 1.23427 2.48316 0
M  V30 2600 H 237.157 1.09365 1.15 0
M  V30 2601 H 237.178 0.407455 3.78312 0
M  V30 2602 H 236.69 2.14726 3.23287 0
M  V30 2603 H 234.791 -0.270679 3.71616 0
M  V30 2604 H 234.904 1.40343 4.58084 0
M  V30 2605 H 233.268 0.653036 2.46186 0
M  V30 2606 H 234.051 2.32316 2.52753 0
M  V30 2607 O 236.535 -1.39418 0.815163 0
M  V30 2608 H 237.226 -1.89641 0.394473 0
M  V30 END ATOM
M  V30 BEGIN BOND
M  V30 END BOND
M  V30 END CTAB
M  END
$$$$
