drugbank_target|Q51948 2-hydroxychromene-2-carboxylate isomerase (DB06952; DB08636; DB08637)
 OpenBabel12092120383D

  0  0  0     0  0            999 V3000
M  V30 BEGIN CTAB
M  V30 COUNTS 3216 3257 0 0 0
M  V30 BEGIN ATOM
M  V30 1 H -0.908 1.98254 -0.117106 0
M  V30 2 N 0 1.576 0 0
M  V30 3 C 0.933 2.03868 1.02534 0
M  V30 4 C 1.911 0.928543 1.3348 0
M  V30 5 O 3.095 1.19667 1.45644 0
M  V30 6 C 0.222 2.43627 2.35294 0
M  V30 7 C -0.732 3.65373 2.2001 0
M  V30 8 S 0.101 5.13292 1.52614 0
M  V30 9 C 1.257 5.56322 2.86805 0
M  V30 10 H 1.49 2.90518 0.631377 0
M  V30 11 H -0.977 1.52953 0.210867 0
M  V30 12 H 0.981 2.67203 3.11629 0
M  V30 13 H -0.358 1.57376 2.7183 0
M  V30 14 H -1.165 3.90944 3.18086 0
M  V30 15 H -1.563 3.418 1.51819 0
M  V30 16 H 0.729 5.58782 3.83104 0
M  V30 17 H 1.672 6.56266 2.65933 0
M  V30 18 H 2.08 4.83886 2.90714 0
M  V30 19 N 1.4781 -0.272755 1.55222 0
M  V30 20 C 2.7271 -1.00211 1.75045 0
M  V30 21 C 3.0401 -1.87441 0.559046 0
M  V30 22 O 4.2461 -2.63856 0.639698 0
M  V30 23 C 2.7021 -1.83165 3.09804 0
M  V30 24 C 2.3101 -1.008 4.36513 0
M  V30 25 C 4.0541 -2.55529 3.38977 0
M  V30 26 C 1.9611 -1.83194 5.62311 0
M  V30 27 H 0.8911 -0.377878 0.652476 0
M  V30 28 H 3.5421 -0.257776 1.8168 0
M  V30 29 H 1.9241 -2.61694 2.97207 0
M  V30 30 H 3.0981 -0.266855 4.60027 0
M  V30 31 H 1.4131 -0.398897 4.14485 0
M  V30 32 H 4.0101 -3.17578 4.30172 0
M  V30 33 H 4.3531 -3.25825 2.59121 0
M  V30 34 H 4.8861 -1.84029 3.52673 0
M  V30 35 H 1.6251 -1.17318 6.44916 0
M  V30 36 H 1.1451 -2.54905 5.4294 0
M  V30 37 H 2.8241 -2.40552 6.00619 0
M  V30 38 N 2.9562 -1.48159 -0.537278 0
M  V30 39 C 4.2022 -1.56035 -1.29541 0
M  V30 40 C 4.5352 -0.230377 -1.92829 0
M  V30 41 O 3.8102 0.762952 -1.78911 0
M  V30 42 C 4.0932 -2.69323 -2.39034 0
M  V30 43 C 3.9462 -4.12002 -1.80485 0
M  V30 44 C 5.2652 -2.78408 -3.40847 0
M  V30 45 H 2.3842 -0.567992 -0.469632 0
M  V30 46 H 5.0262 -1.80302 -0.599277 0
M  V30 47 H 3.1762 -2.48763 -2.98412 0
M  V30 48 H 4.8482 -4.43981 -1.25215 0
M  V30 49 H 3.0912 -4.19344 -1.11055 0
M  V30 50 H 3.7622 -4.87077 -2.59731 0
M  V30 51 H 6.2382 -2.97012 -2.91416 0
M  V30 52 H 5.1142 -3.59416 -4.14863 0
M  V30 53 H 5.3752 -1.86269 -4.00944 0
M  V30 54 N 4.4343 0.785586 -1.36625 0
M  V30 55 C 5.7113 1.53198 -1.21613 0
M  V30 56 C 6.0913 2.10187 0.196113 0
M  V30 57 O 5.4393 1.94318 1.20219 0
M  V30 58 C 5.6493 2.62388 -2.30116 0
M  V30 59 C 6.9973 3.30167 -2.66974 0
M  V30 60 O 8.0213 2.72674 -2.29188 0
M  V30 61 O 6.8803 4.34077 -3.32023 0
M  V30 62 H 3.9743 0.677865 -0.473738 0
M  V30 63 H 6.5203 0.823739 -1.48367 0
M  V30 64 H 5.2923 2.18299 -3.24748 0
M  V30 65 H 4.9153 3.40827 -2.0475 0
M  V30 66 N 5.9124 1.20967 1.01018 0
M  V30 67 C 7.1594 1.02374 1.74716 0
M  V30 68 C 7.4874 -0.443375 1.89379 0
M  V30 69 O 6.7424 -1.34535 1.42123 0
M  V30 70 C 7.0414 1.65997 3.16512 0
M  V30 71 C 6.7074 3.15831 3.2181 0
M  V30 72 C 5.3694 3.56719 3.22963 0
M  V30 73 C 7.7214 4.11816 3.19464 0
M  V30 74 C 5.0494 4.92107 3.19449 0
M  V30 75 C 7.4014 5.47158 3.17491 0
M  V30 76 C 6.0654 5.87451 3.16951 0
M  V30 77 H 5.3354 0.374614 0.639332 0
M  V30 78 H 7.9824 1.50485 1.18434 0
M  V30 79 H 6.2874 1.10166 3.75993 0
M  V30 80 H 7.9844 1.49119 3.72242 0
M  V30 81 H 4.5744 2.83263 3.21652 0
M  V30 82 H 8.7584 3.81257 3.17737 0
M  V30 83 H 4.0144 5.22579 3.17366 0
M  V30 84 H 8.1884 6.21274 3.14629 0
M  V30 85 H 5.8154 6.92329 3.13983 0
M  V30 86 N 7.3905 -1.2043 1.01659 0
M  V30 87 C 8.6205 -1.93496 0.724081 0
M  V30 88 C 9.0285 -1.74998 -0.71918 0
M  V30 89 O 8.3715 -1.06118 -1.49949 0
M  V30 90 C 8.4335 -3.45886 0.97994 0
M  V30 91 C 8.0975 -3.88145 2.41232 0
M  V30 92 C 9.0945 -3.93907 3.39313 0
M  V30 93 C 6.7795 -4.20134 2.75305 0
M  V30 94 C 8.7735 -4.31069 4.6953 0
M  V30 95 C 6.4605 -4.56971 4.05735 0
M  V30 96 C 7.4585 -4.62411 5.02658 0
M  V30 97 O 7.1465 -4.98403 6.30754 0
M  V30 98 H 6.8785 -0.621824 0.265162 0
M  V30 99 H 9.4325 -1.53867 1.36066 0
M  V30 100 H 7.6625 -3.85639 0.286198 0
M  V30 101 H 9.3515 -4.0018 0.679021 0
M  V30 102 H 10.1175 -3.69357 3.14325 0
M  V30 103 H 5.9965 -4.1509 2.00551 0
M  V30 104 H 9.5405 -4.3523 5.45179 0
M  V30 105 H 5.4375 -4.80977 4.30502 0
M  V30 106 H 6.2055 -5.16395 6.35042 0
M  V30 107 N 8.8686 -0.792821 -1.36206 0
M  V30 108 C 10.1156 -0.366786 -1.99151 0
M  V30 109 C 10.4436 1.06243 -1.62919 0
M  V30 110 O 9.6986 1.74927 -0.877442 0
M  V30 111 C 9.9976 -0.481501 -3.54142 0
M  V30 112 C 9.6636 -1.87202 -4.10203 0
M  V30 113 C 8.3256 -2.25248 -4.25226 0
M  V30 114 C 10.6776 -2.78237 -4.40719 0
M  V30 115 C 8.0056 -3.53723 -4.68078 0
M  V30 116 C 10.3576 -4.06144 -4.85005 0
M  V30 117 C 9.0216 -4.44207 -4.98234 0
M  V30 118 H 8.2916 -0.134217 -0.728743 0
M  V30 119 H 10.9386 -1.01094 -1.62641 0
M  V30 120 H 9.2436 0.246146 -3.91026 0
M  V30 121 H 10.9406 -0.132844 -4.0078 0
M  V30 122 H 7.5306 -1.56639 -3.98951 0
M  V30 123 H 11.7146 -2.50097 -4.28679 0
M  V30 124 H 6.9706 -3.8308 -4.76508 0
M  V30 125 H 11.1446 -4.76796 -5.07581 0
M  V30 126 H 8.7716 -5.43814 -5.31197 0
M  V30 127 N 10.3467 1.47872 -0.545128 0
M  V30 128 C 11.6237 1.9554 0.0485222 0
M  V30 129 C 12.0037 1.4876 1.49779 0
M  V30 130 O 11.3517 0.720925 2.16829 0
M  V30 131 C 11.5617 3.48898 -0.084417 0
M  V30 132 C 12.9097 4.24547 0.0671239 0
M  V30 133 O 13.9337 3.56198 -0.0113649 0
M  V30 134 O 12.7927 5.45999 0.233882 0
M  V30 135 H 9.8867 0.823957 0.0708773 0
M  V30 136 H 12.4327 1.58327 -0.610798 0
M  V30 137 H 11.2047 3.75714 -1.09337 0
M  V30 138 H 10.8277 3.92845 0.613066 0
M  V30 139 N 11.8248 0.280983 1.55075 0
M  V30 140 C 13.0718 -0.334115 1.99725 0
M  V30 141 C 13.3998 -1.5542 1.1694 0
M  V30 142 O 12.6548 -1.94361 0.228531 0
M  V30 143 C 12.9538 -0.754656 3.49342 0
M  V30 144 C 12.6198 0.361445 4.49449 0
M  V30 145 C 11.2818 0.667893 4.76542 0
M  V30 146 C 13.6338 1.11322 5.09173 0
M  V30 147 C 10.9618 1.7296 5.60626 0
M  V30 148 C 13.3138 2.1647 5.9441 0
M  V30 149 C 11.9778 2.47742 6.19822 0
M  V30 150 H 11.2478 -0.122261 0.730844 0
M  V30 151 H 13.8948 0.395917 1.87363 0
M  V30 152 H 12.1998 -1.56446 3.5921 0
M  V30 153 H 13.8968 -1.24142 3.813 0
M  V30 154 H 10.4868 0.112481 4.28452 0
M  V30 155 H 14.6708 0.88973 4.8826 0
M  V30 156 H 9.9268 1.97684 5.78559 0
M  V30 157 H 14.1008 2.75193 6.3972 0
M  V30 158 H 11.7278 3.30145 6.84769 0
M  V30 159 N 13.3029 -1.57598 0.00835791 0
M  V30 160 C 14.2329 -2.1198 -0.979113 0
M  V30 161 C 15.2139 -1.03091 -1.35301 0
M  V30 162 O 16.3989 -1.30818 -1.43528 0
M  V30 163 C 13.5289 -2.62995 -2.26828 0
M  V30 164 C 12.4829 -3.76485 -2.03576 0
M  V30 165 C 11.8089 -4.13846 -3.38579 0
M  V30 166 C 13.1089 -5.0342 -1.39161 0
M  V30 167 H 14.8029 -2.94738 -0.526281 0
M  V30 168 H 12.3489 -1.41783 -0.251704 0
M  V30 169 H 14.3019 -2.99669 -2.96271 0
M  V30 170 H 13.0259 -1.7737 -2.7424 0
M  V30 171 H 11.6849 -3.40217 -1.36557 0
M  V30 172 H 11.3329 -3.25232 -3.83709 0
M  V30 173 H 11.0329 -4.90312 -3.23834 0
M  V30 174 H 12.5569 -4.53086 -4.09323 0
M  V30 175 H 13.9709 -5.37812 -1.98573 0
M  V30 176 H 12.3679 -5.84746 -1.34878 0
M  V30 177 H 13.4379 -4.83548 -0.361868 0
M  V30 178 N 14.781 0.264519 -1.55364 0
M  V30 179 C 16.006 1.01726 -1.80739 0
M  V30 180 C 16.431 1.78836 -0.583044 0
M  V30 181 O 15.789 1.75167 0.467566 0
M  V30 182 C 15.837 1.94482 -3.03659 0
M  V30 183 O 14.941 3.03386 -2.7934 0
M  V30 184 H 14.282 0.290395 -0.597132 0
M  V30 185 H 16.812 0.290854 -2.02522 0
M  V30 186 H 16.822 2.36278 -3.32621 0
M  V30 187 H 15.497 1.37772 -3.92418 0
M  V30 188 H 14.074 2.65844 -2.61498 0
M  V30 189 N 16.2591 1.48442 0.529413 0
M  V30 190 C 17.6701 1.5002 1.11134 0
M  V30 191 C 18.0211 0.27031 1.94329 0
M  V30 192 O 17.1461 -0.622507 2.07253 0
M  V30 193 C 17.7411 2.71834 2.02217 0
M  V30 194 C 16.3001 2.76283 2.55627 0
M  V30 195 C 15.4471 2.43542 1.326 0
M  V30 196 H 18.3981 1.5555 0.314641 0
M  V30 197 H 18.4191 2.50384 2.8651 0
M  V30 198 H 17.9311 3.61331 1.41639 0
M  V30 199 H 16.0321 1.90995 3.19924 0
M  V30 200 H 16.1451 3.77725 2.94721 0
M  V30 201 H 14.5091 1.94709 1.64196 0
M  V30 202 H 15.2921 3.3528 0.737734 0
M  V30 203 N 17.7372 -0.778329 1.37039 0
M  V30 204 C 18.9842 -1.53665 1.31884 0
M  V30 205 C 19.3122 -1.9425 -0.0986303 0
M  V30 206 O 18.5672 -1.63832 -1.07041 0
M  V30 207 C 18.8662 -2.81845 2.19768 0
M  V30 208 C 18.5322 -2.60345 3.68146 0
M  V30 209 C 17.1942 -2.5419 4.08584 0
M  V30 210 C 19.5462 -2.40923 4.62175 0
M  V30 211 C 16.8742 -2.26594 5.41177 0
M  V30 212 C 19.2262 -2.14852 5.94997 0
M  V30 213 C 17.8902 -2.07137 6.34547 0
M  V30 214 H 17.1602 -0.562299 0.482598 0
M  V30 215 H 19.8072 -0.897069 1.69189 0
M  V30 216 H 18.1122 -3.50328 1.75436 0
M  V30 217 H 19.8092 -3.39692 2.13097 0
M  V30 218 H 16.3992 -2.65996 3.36072 0
M  V30 219 H 20.5832 -2.44673 4.31797 0
M  V30 220 H 15.8392 -2.19111 5.70789 0
M  V30 221 H 20.0132 -1.98822 6.67415 0
M  V30 222 H 17.6402 -1.85518 7.37216 0
M  V30 223 N 19.2153 -1.21501 -1.00376 0
M  V30 224 C 20.4403 -1.05977 -1.78279 0
M  V30 225 C 20.8653 0.385994 -1.84097 0
M  V30 226 O 20.2233 1.27849 -1.28547 0
M  V30 227 C 20.2713 -1.66302 -3.19963 0
M  V30 228 O 19.3753 -0.909333 -4.0225 0
M  V30 229 H 18.7163 -0.372906 -0.549397 0
M  V30 230 H 21.2463 -1.6107 -1.26165 0
M  V30 231 H 21.2563 -1.70574 -3.70632 0
M  V30 232 H 19.9313 -2.71515 -3.15043 0
M  V30 233 H 18.5083 -0.941795 -3.60811 0
M  V30 234 N 20.6934 1.19889 -1.02296 0
M  V30 235 C 21.9234 1.93109 -0.734332 0
M  V30 236 C 22.3314 1.75377 0.709889 0
M  V30 237 O 21.6744 1.06912 1.49384 0
M  V30 238 C 21.7364 3.45362 -0.99827 0
M  V30 239 C 21.4004 3.8686 -2.43287 0
M  V30 240 C 22.3974 3.92102 -3.41397 0
M  V30 241 C 20.0824 4.18668 -2.77529 0
M  V30 242 C 22.0764 4.28573 -4.71809 0
M  V30 243 C 19.7634 4.54813 -4.08153 0
M  V30 244 C 20.7614 4.59739 -5.05103 0
M  V30 245 O 20.4494 4.95051 -6.33388 0
M  V30 246 H 20.1814 0.620409 -0.268456 0
M  V30 247 H 22.7354 1.53144 -1.3688 0
M  V30 248 H 20.9654 3.85482 -0.306645 0
M  V30 249 H 22.6544 3.99814 -0.700234 0
M  V30 250 H 23.4204 3.67685 -3.1628 0
M  V30 251 H 19.2994 4.14021 -2.0275 0
M  V30 252 H 22.8434 4.32333 -5.4748 0
M  V30 253 H 18.7404 4.78687 -4.33047 0
M  V30 254 H 19.5084 5.1302 -6.37772 0
M  V30 255 N 22.1715 0.800033 1.35784 0
M  V30 256 C 23.1015 0.220184 2.3246 0
M  V30 257 C 24.0825 -0.65073 1.57161 0
M  V30 258 O 25.2675 -0.582359 1.85263 0
M  V30 259 C 22.3975 -0.637353 3.41402 0
M  V30 260 C 21.3515 0.134531 4.27789 0
M  V30 261 C 20.6775 -0.844285 5.27992 0
M  V30 262 C 21.9775 1.32979 5.05088 0
M  V30 263 H 23.6715 1.02787 2.81203 0
M  V30 264 H 21.2175 0.495717 1.35199 0
M  V30 265 H 23.1705 -1.05302 4.08031 0
M  V30 266 H 21.8945 -1.47785 2.91251 0
M  V30 267 H 20.5535 0.531296 3.6273 0
M  V30 268 H 20.2015 -1.68011 4.74111 0
M  V30 269 H 19.9015 -0.332184 5.8666 0
M  V30 270 H 21.4255 -1.2583 5.97494 0
M  V30 271 H 22.8395 0.98934 5.64699 0
M  V30 272 H 21.2365 1.77593 5.7322 0
M  V30 273 H 22.3065 2.11978 4.36111 0
M  V30 274 N 23.6496 -1.47581 0.552962 0
M  V30 275 C 24.6126 -2.28439 -0.186605 0
M  V30 276 C 25.6126 -1.36706 -0.84665 0
M  V30 277 O 26.8026 -1.59378 -0.703164 0
M  V30 278 C 23.9346 -3.16264 -1.2724 0
M  V30 279 H 25.1276 -2.95294 0.523609 0
M  V30 280 H 22.6806 -1.532 0.309745 0
M  V30 281 H 23.4156 -2.54091 -2.01514 0
M  V30 282 H 23.2006 -3.83769 -0.803968 0
M  V30 283 H 24.6906 -3.77198 -1.79196 0
M  V30 284 N 25.1277 -0.289203 -1.54924 0
M  V30 285 C 26.0757 0.607966 -2.24514 0
M  V30 286 C 27.0697 1.14655 -1.24702 0
M  V30 287 O 28.2757 1.09856 -1.4259 0
M  V30 288 H 24.6507 0.21464 -0.720718 0
M  V30 289 H 26.6217 -0.00164182 -2.984 0
M  V30 290 C 25.3707 1.77406 -2.99036 0
M  V30 291 H 24.6937 1.36884 -3.75637 0
M  V30 292 H 26.1337 2.37814 -3.51028 0
M  V30 293 C 24.5927 2.67107 -2.05318 0
M  V30 294 O 25.1227 3.6787 -1.61353 0
M  V30 295 N 23.3287 2.34582 -1.71521 0
M  V30 296 H 22.8757 1.52688 -2.07471 0
M  V30 297 H 22.8337 2.94867 -1.0909 0
M  V30 298 N 26.6058 1.57591 -0.0167156 0
M  V30 299 C 27.5378 2.06343 0.997753 0
M  V30 300 C 28.5508 0.984469 1.29661 0
M  V30 301 O 29.7398 1.26093 1.26344 0
M  V30 302 C 26.8398 2.46255 2.32834 0
M  V30 303 C 26.0128 3.77083 2.21646 0
M  V30 304 C 25.0718 4.0368 3.37534 0
M  V30 305 O 24.0978 4.7411 3.14973 0
M  V30 306 N 25.2998 3.52881 4.60929 0
M  V30 307 H 28.0648 2.93997 0.581875 0
M  V30 308 H 25.6258 1.61002 0.170316 0
M  V30 309 H 27.6178 2.61149 3.09166 0
M  V30 310 H 26.1878 1.64032 2.66106 0
M  V30 311 H 25.4078 3.72106 1.30119 0
M  V30 312 H 26.6958 4.62822 2.11361 0
M  V30 313 H 26.0938 2.95878 4.82154 0
M  V30 314 H 24.6508 3.73076 5.34469 0
M  V30 315 N 28.0839 -0.256276 1.55502 0
M  V30 316 C 29.4999 -0.604325 1.47716 0
M  V30 317 C 29.6999 -1.88763 0.705039 0
M  V30 318 O 28.7559 -2.51445 0.230613 0
M  V30 319 C 30.0689 -0.715756 2.92057 0
M  V30 320 C 31.6169 -0.808706 3.02372 0
M  V30 321 C 32.0919 -0.951777 4.48001 0
M  V30 322 N 33.5829 -1.01688 4.519 0
M  V30 323 C 34.3179 -1.14668 5.61817 0
M  V30 324 N 33.8139 -1.24261 6.81565 0
M  V30 325 N 35.6069 -1.1791 5.49594 0
M  V30 326 H 27.7579 0.586291 2.04148 0
M  V30 327 H 30.0209 0.201015 0.926443 0
M  V30 328 H 29.7269 0.157027 3.51349 0
M  V30 329 H 29.6009 -1.59071 3.42018 0
M  V30 330 H 31.9879 -1.67195 2.43166 0
M  V30 331 H 32.0689 0.0912063 2.55637 0
M  V30 332 H 31.7129 -0.0931291 5.07815 0
M  V30 333 H 31.6429 -1.86659 4.92408 0
M  V30 334 H 34.1339 -0.954468 3.65648 0
M  V30 335 H 34.4469 -1.34046 7.61086 0
M  V30 336 H 32.7919 -1.21236 6.84344 0
M  V30 337 H 35.9829 -1.10057 4.54978 0
M  V30 338 H 36.1559 -1.27681 6.35296 0
M  V30 339 N 29.562 -1.4872 -0.521534 0
M  V30 340 C 30.492 -1.66771 -1.63431 0
M  V30 341 C 31.473 -0.516499 -1.62069 0
M  V30 342 O 32.658 -0.750013 -1.79132 0
M  V30 343 C 29.788 -1.71515 -3.01993 0
M  V30 344 C 28.742 -2.86222 -3.18216 0
M  V30 345 C 28.068 -2.76061 -4.57924 0
M  V30 346 C 29.368 -4.27419 -3.00184 0
M  V30 347 H 31.062 -2.59932 -1.48579 0
M  V30 348 H 28.608 -1.25089 -0.713358 0
M  V30 349 H 30.561 -1.82731 -3.7972 0
M  V30 350 H 29.285 -0.749393 -3.17886 0
M  V30 351 H 27.944 -2.74575 -2.42908 0
M  V30 352 H 27.592 -1.77437 -4.70665 0
M  V30 353 H 27.292 -3.53037 -4.69722 0
M  V30 354 H 28.816 -2.89256 -5.37739 0
M  V30 355 H 30.23 -4.39855 -3.67697 0
M  V30 356 H 28.627 -5.05458 -3.2347 0
M  V30 357 H 29.697 -4.43293 -1.96518 0
M  V30 358 N 31.0401 0.771051 -1.3745 0
M  V30 359 C 32.2651 1.56529 -1.36065 0
M  V30 360 C 32.6901 1.88029 0.0515859 0
M  V30 361 O 32.0481 1.49282 1.02882 0
M  V30 362 C 32.0961 2.85187 -2.20683 0
M  V30 363 O 31.2001 3.79593 -1.61193 0
M  V30 364 H 30.5411 0.47411 -0.464883 0
M  V30 365 H 33.0711 0.954269 -1.80983 0
M  V30 366 H 33.0811 3.34283 -2.33921 0
M  V30 367 H 31.7561 2.61588 -3.23334 0
M  V30 368 H 30.3331 3.38239 -1.56999 0
M  V30 369 N 32.5182 1.22032 0.997298 0
M  V30 370 C 33.4652 0.986467 2.08656 0
M  V30 371 C 34.4352 -0.0902671 1.65855 0
M  V30 372 O 35.6202 0.0584294 1.90711 0
M  V30 373 C 32.7602 0.565569 3.40434 0
M  V30 374 C 31.8732 1.71259 3.96604 0
M  V30 375 C 31.0082 1.24011 5.16522 0
M  V30 376 C 30.0472 2.35896 5.64818 0
M  V30 377 N 29.1842 1.89726 6.7598 0
M  V30 378 H 34.0242 1.91892 2.27994 0
M  V30 379 H 31.5612 0.956199 1.11782 0
M  V30 380 H 33.5192 0.302738 4.161 0
M  V30 381 H 32.1492 -0.329879 3.2111 0
M  V30 382 H 31.2012 2.08986 3.17851 0
M  V30 383 H 32.5132 2.55436 4.28432 0
M  V30 384 H 31.6672 0.934395 5.99461 0
M  V30 385 H 30.4062 0.368487 4.86306 0
M  V30 386 H 29.4112 2.67261 4.8047 0
M  V30 387 H 30.6362 3.23567 5.97061 0
M  V30 388 H 28.5822 1.0492 6.47555 0
M  V30 389 H 28.4992 2.67471 7.07103 0
M  V30 390 H 29.7672 1.62211 7.62435 0
M  V30 391 N 33.9963 -1.19345 1.0293 0
M  V30 392 C 34.9263 -2.2481 0.631105 0
M  V30 393 C 35.9073 -1.66245 -0.360104 0
M  V30 394 O 37.0923 -1.92677 -0.242726 0
M  V30 395 C 34.2223 -3.47295 -0.0184607 0
M  V30 396 C 33.1763 -4.18536 0.895073 0
M  V30 397 C 32.5023 -5.34586 0.110592 0
M  V30 398 C 33.8023 -4.73287 2.209 0
M  V30 399 H 35.4963 -2.58372 1.51275 0
M  V30 400 H 33.0423 -1.24194 0.728818 0
M  V30 401 H 34.9953 -4.20268 -0.308675 0
M  V30 402 H 33.7193 -3.12933 -0.934907 0
M  V30 403 H 32.3783 -3.47446 1.16949 0
M  V30 404 H 32.0263 -4.96469 -0.807902 0
M  V30 405 H 31.7263 -5.83183 0.719087 0
M  V30 406 H 33.2503 -6.10355 -0.172871 0
M  V30 407 H 34.6643 -5.38013 1.98028 0
M  V30 408 H 33.0613 -5.32373 2.76946 0
M  V30 409 H 34.1313 -3.91331 2.86336 0
M  V30 410 N 35.4744 -0.807222 -1.35358 0
M  V30 411 C 36.4374 -0.223665 -2.28106 0
M  V30 412 C 37.4374 0.589354 -1.4961 0
M  V30 413 O 38.6274 0.407745 -1.69361 0
M  V30 414 C 35.7594 0.688149 -3.33882 0
M  V30 415 H 36.9524 -1.04169 -2.81227 0
M  V30 416 H 34.5054 -0.577921 -1.45223 0
M  V30 417 H 35.2404 1.52984 -2.85948 0
M  V30 418 H 35.0254 0.10687 -3.91954 0
M  V30 419 H 36.5154 1.09075 -4.03104 0
M  V30 420 N 36.9525 1.47285 -0.560781 0
M  V30 421 C 37.8845 2.28118 0.222438 0
M  V30 422 C 38.8975 1.37219 0.876056 0
M  V30 423 O 40.0865 1.62011 0.749307 0
M  V30 424 C 37.1865 3.1159 1.33285 0
M  V30 425 C 36.3595 4.30473 0.77534 0
M  V30 426 C 35.4185 4.95513 1.77069 0
M  V30 427 O 34.4445 5.53792 1.31539 0
M  V30 428 N 35.6465 4.90531 3.10418 0
M  V30 429 H 38.4115 2.95976 -0.470958 0
M  V30 430 H 35.9725 1.56955 -0.39709 0
M  V30 431 H 37.9645 3.51967 1.99752 0
M  V30 432 H 36.5345 2.45951 1.92943 0
M  V30 433 H 35.7545 3.94144 -0.0662113 0
M  V30 434 H 37.0425 5.07362 0.382272 0
M  V30 435 H 36.4405 4.44389 3.5005 0
M  V30 436 H 34.9975 5.34917 3.72434 0
M  V30 437 N 38.4306 0.297415 1.54768 0
M  V30 438 C 39.7076 -0.365847 1.92148 0
M  V30 439 C 40.0876 -1.71975 1.22424 0
M  V30 440 O 39.4356 -2.25666 0.358739 0
M  V30 441 C 39.6456 -0.484056 3.45627 0
M  V30 442 C 40.9936 -0.756594 4.17805 0
M  V30 443 O 42.0176 -0.568007 3.51642 0
M  V30 444 O 40.8766 -1.11863 5.34929 0
M  V30 445 H 37.9706 -0.203919 0.801465 0
M  V30 446 H 40.5166 0.34521 1.66152 0
M  V30 447 H 39.2886 0.467865 3.88493 0
M  V30 448 H 38.9116 -1.24372 3.77647 0
M  V30 449 N 39.9087 -1.5758 0.0250728 0
M  V30 450 C 41.1387 -1.95646 -0.663783 0
M  V30 451 C 41.5467 -0.899935 -1.66427 0
M  V30 452 O 40.8897 0.127191 -1.83259 0
M  V30 453 C 40.9517 -3.29835 -1.43 0
M  V30 454 C 40.6157 -4.53197 -0.588305 0
M  V30 455 C 41.6127 -5.19726 0.13469 0
M  V30 456 C 39.2977 -4.99529 -0.526897 0
M  V30 457 C 41.2917 -6.30902 0.90781 0
M  V30 458 C 38.9787 -6.10589 0.24993 0
M  V30 459 C 39.9767 -6.76134 0.965994 0
M  V30 460 O 39.6647 -7.85062 1.7301 0
M  V30 461 H 39.3967 -0.649282 -0.188174 0
M  V30 462 H 41.9507 -2.05245 0.0799006 0
M  V30 463 H 40.1807 -3.16716 -2.21873 0
M  V30 464 H 41.8697 -3.52833 -2.00658 0
M  V30 465 H 42.6357 -4.84904 0.0965562 0
M  V30 466 H 38.5147 -4.48319 -1.07381 0
M  V30 467 H 42.0587 -6.81995 1.46724 0
M  V30 468 H 37.9557 -6.44849 0.289795 0
M  V30 469 H 38.7237 -8.01708 1.64944 0
M  V30 470 N 41.3868 0.248026 -1.55636 0
M  V30 471 C 42.6348 0.974295 -1.77065 0
M  V30 472 C 42.9558 1.85897 -0.588849 0
M  V30 473 O 42.2258 1.91868 0.395407 0
M  V30 474 H 40.8058 0.362733 -0.653019 0
M  V30 475 H 43.4678 0.266244 -1.93073 0
M  V30 476 H 42.5638 1.59667 -2.68166 0
M  V30 477 N 42.8649 1.48995 0.513639 0
M  V30 478 C 43.7949 1.67636 1.62544 0
M  V30 479 C 44.7759 0.525087 1.61793 0
M  V30 480 O 45.9609 0.759502 1.78732 0
M  V30 481 C 43.0909 1.73114 3.01079 0
M  V30 482 C 42.0449 2.87905 3.16693 0
M  V30 483 C 41.3709 2.78486 4.56453 0
M  V30 484 C 42.6709 4.29005 2.97913 0
M  V30 485 H 44.3649 2.60716 1.47198 0
M  V30 486 H 41.9109 1.25465 0.706714 0
M  V30 487 H 43.8639 1.84742 3.78746 0
M  V30 488 H 42.5879 0.766241 3.17484 0
M  V30 489 H 41.2469 2.75859 2.41448 0
M  V30 490 H 40.8949 1.7993 4.69717 0
M  V30 491 H 40.5949 3.55523 4.67843 0
M  V30 492 H 42.1189 2.92104 5.36197 0
M  V30 493 H 43.5329 4.41798 3.65359 0
M  V30 494 H 41.9299 5.07166 3.20785 0
M  V30 495 H 42.9999 4.44329 1.94165 0
M  V30 496 N 44.343 -0.763751 1.37857 0
M  V30 497 C 45.571 -1.55293 1.36718 0
M  V30 498 C 45.986 -1.88745 -0.0455434 0
M  V30 499 O 45.343 -1.52039 -1.00947 0
M  V30 500 C 45.394 -2.85831 2.2132 0
M  V30 501 O 45.115 -2.5381 3.57089 0
M  V30 502 C 46.616 -3.80023 2.28249 0
M  V30 503 H 43.836 -0.480841 0.468009 0
M  V30 504 H 46.38 -0.946009 1.81303 0
M  V30 505 H 44.535 -3.42926 1.80223 0
M  V30 506 H 44.949 -3.37459 4.01524 0
M  V30 507 H 46.423 -4.68599 2.91752 0
M  V30 508 H 46.9 -4.1973 1.2932 0
M  V30 509 H 47.506 -3.28855 2.69693 0
M  V30 510 N 45.8211 -1.22559 -0.990812 0
M  V30 511 C 47.0701 -1.04553 -1.72486 0
M  V30 512 C 47.3831 0.419349 -1.91052 0
M  V30 513 O 48.5891 0.719121 -2.61803 0
M  V30 514 C 47.0451 -1.82231 -3.10355 0
M  V30 515 C 46.6531 -3.32981 -2.99713 0
M  V30 516 C 48.3971 -1.7268 -3.87791 0
M  V30 517 C 46.3041 -4.03091 -4.32748 0
M  V30 518 H 45.2341 -0.387614 -0.646739 0
M  V30 519 H 47.8851 -1.46429 -1.10593 0
M  V30 520 H 46.2671 -1.33155 -3.72942 0
M  V30 521 H 47.4411 -3.89466 -2.46278 0
M  V30 522 H 45.7561 -3.43231 -2.35758 0
M  V30 523 H 48.3531 -2.22381 -4.86262 0
M  V30 524 H 48.6961 -0.687607 -4.10582 0
M  V30 525 H 49.2291 -2.1931 -3.31885 0
M  V30 526 H 45.9681 -5.07273 -4.15156 0
M  V30 527 H 45.4881 -3.51394 -4.86089 0
M  V30 528 H 47.1671 -4.08804 -5.01486 0
M  V30 529 N 47.2992 1.18797 -1.03562 0
M  V30 530 C 48.7152 1.40671 -0.753917 0
M  V30 531 C 48.9152 1.9043 0.658686 0
M  V30 532 O 47.9712 2.08538 1.42366 0
M  V30 533 C 49.2842 2.41192 -1.79574 0
M  V30 534 C 50.8322 2.54928 -1.81606 0
M  V30 535 C 51.3072 3.58709 -2.84766 0
M  V30 536 N 52.7982 3.66212 -2.83625 0
M  V30 537 C 53.5332 4.46225 -3.60098 0
M  V30 538 N 53.0292 5.29888 -4.46308 0
M  V30 539 N 54.8222 4.40939 -3.4861 0
M  V30 540 H 46.9732 0.848221 -1.94728 0
M  V30 541 H 49.2362 0.435081 -0.842264 0
M  V30 542 H 48.9422 2.11669 -2.80872 0
M  V30 543 H 48.8162 3.40467 -1.62365 0
M  V30 544 H 51.2032 2.83771 -0.809817 0
M  V30 545 H 51.2842 1.55784 -2.02891 0
M  V30 546 H 50.9282 3.30607 -3.85566 0
M  V30 547 H 50.8582 4.57519 -2.60737 0
M  V30 548 H 53.3492 3.06466 -2.21105 0
M  V30 549 H 53.6622 5.88078 -5.01382 0
M  V30 550 H 52.0072 5.29326 -4.50377 0
M  V30 551 H 55.1982 3.74624 -2.80668 0
M  V30 552 H 55.3712 5.03056 -4.08459 0
M  V30 553 N 48.7773 0.814389 1.34928 0
M  V30 554 C 50.0073 0.41054 2.0248 0
M  V30 555 C 50.4153 -0.985625 1.61499 0
M  V30 556 O 49.7583 -1.64781 0.811976 0
M  V30 557 C 49.8203 0.423384 3.56998 0
M  V30 558 C 49.4843 1.77141 4.21272 0
M  V30 559 C 50.4813 2.73093 4.42398 0
M  V30 560 C 48.1663 2.05755 4.58225 0
M  V30 561 C 50.1603 3.95838 4.9959 0
M  V30 562 C 47.8473 3.28762 5.1513 0
M  V30 563 C 48.8453 4.23621 5.35755 0
M  V30 564 O 48.5333 5.44456 5.91458 0
M  V30 565 H 48.2653 0.163997 0.655806 0
M  V30 566 H 50.8193 1.10155 1.73364 0
M  V30 567 H 49.0493 -0.324276 3.85338 0
M  V30 568 H 50.7383 0.0407683 4.0588 0
M  V30 569 H 51.5043 2.5228 4.14222 0
M  V30 570 H 47.3833 1.32727 4.4148 0
M  V30 571 H 50.9273 4.69891 5.15605 0
M  V30 572 H 46.8243 3.49443 5.42734 0
M  V30 573 H 47.5923 5.4586 6.09901 0
M  V30 574 N 50.2554 -1.46986 0.568584 0
M  V30 575 C 51.2034 -2.31858 -0.185649 0
M  V30 576 C 52.1974 -1.43624 -0.898249 0
M  V30 577 O 53.4034 -1.60327 -0.818242 0
M  V30 578 H 49.7784 -0.747866 -0.0787399 0
M  V30 579 H 51.7494 -2.93303 0.549191 0
M  V30 580 C 50.4984 -3.26513 -1.19519 0
M  V30 581 H 49.8214 -3.94377 -0.656285 0
M  V30 582 H 51.2614 -3.88707 -1.6936 0
M  V30 583 C 49.7204 -2.50847 -2.24894 0
M  V30 584 O 50.2504 -2.26119 -3.32014 0
M  V30 585 N 48.4564 -2.11656 -1.99124 0
M  V30 586 H 48.0034 -2.31966 -1.12024 0
M  V30 587 H 47.9614 -1.61347 -2.69842 0
M  V30 588 N 51.7335 -0.305618 -1.54608 0
M  V30 589 C 52.6965 0.555591 -2.22364 0
M  V30 590 C 53.6965 1.05768 -1.21119 0
M  V30 591 O 54.8865 0.952972 -1.45822 0
M  V30 592 C 52.0185 1.76974 -2.91364 0
M  V30 593 H 53.2115 -0.0364572 -2.99878 0
M  V30 594 H 50.7645 -0.0565007 -1.56198 0
M  V30 595 H 51.4995 2.40151 -2.17941 0
M  V30 596 H 51.2845 1.41732 -3.65588 0
M  V30 597 H 52.7745 2.38148 -3.43038 0
M  V30 598 N 53.2116 1.57565 -0.0334293 0
M  V30 599 C 54.4606 1.91155 0.643639 0
M  V30 600 C 54.7736 0.91192 1.73042 0
M  V30 601 O 55.9796 1.13923 2.46442 0
M  V30 602 C 54.4356 3.39443 1.1961 0
M  V30 603 C 54.0436 4.47774 0.142381 0
M  V30 604 C 55.7876 3.82094 1.84944 0
M  V30 605 C 53.6946 5.87162 0.706727 0
M  V30 606 H 52.6246 0.713368 0.244176 0
M  V30 607 H 55.2756 1.8323 -0.0994323 0
M  V30 608 H 53.6576 3.42313 1.99092 0
M  V30 609 H 54.8316 4.56469 -0.630296 0
M  V30 610 H 53.1466 4.14352 -0.412446 0
M  V30 611 H 55.7436 4.83591 2.2813 0
M  V30 612 H 56.0866 3.17386 2.69392 0
M  V30 613 H 56.6196 3.81665 1.12145 0
M  V30 614 H 53.3586 6.55424 -0.0997178 0
M  V30 615 H 52.8786 5.82064 1.44779 0
M  V30 616 H 54.5576 6.35866 1.19514 0
M  V30 617 N 54.6897 -0.239769 1.55765 0
M  V30 618 C 55.9667 -0.990056 1.68693 0
M  V30 619 C 56.3467 -2.03107 0.5754 0
M  V30 620 O 55.6947 -2.24604 -0.42017 0
M  V30 621 C 55.9047 -1.61696 3.09282 0
M  V30 622 C 57.2527 -2.11613 3.6811 0
M  V30 623 O 58.2767 -1.71624 3.12127 0
M  V30 624 O 57.1357 -2.85057 4.66267 0
M  V30 625 H 54.2297 -0.461299 0.686391 0
M  V30 626 H 56.7757 -0.232991 1.68093 0
M  V30 627 H 55.5477 -0.864357 3.81634 0
M  V30 628 H 55.1707 -2.44005 3.13923 0
M  V30 629 N 56.1678 -1.49265 -0.50573 0
M  V30 630 C 57.0978 -1.68495 -1.61653 0
M  V30 631 C 58.0788 -0.53366 -1.61512 0
M  V30 632 O 59.2638 -0.76897 -1.78327 0
M  V30 633 C 56.3938 -1.74709 -3.00157 0
M  V30 634 C 55.3478 -2.89581 -3.15162 0
M  V30 635 C 54.6738 -2.80903 -4.5497 0
M  V30 636 C 55.9738 -4.30578 -2.95634 0
M  V30 637 H 57.6678 -2.61493 -1.45814 0
M  V30 638 H 55.2138 -1.25838 -0.70005 0
M  V30 639 H 57.1668 -1.86748 -3.77761 0
M  V30 640 H 55.8908 -0.783067 -3.17074 0
M  V30 641 H 54.5498 -2.77136 -2.39982 0
M  V30 642 H 54.1978 -1.82419 -4.68756 0
M  V30 643 H 53.8978 -3.57999 -4.65951 0
M  V30 644 H 55.4218 -2.94944 -5.34641 0
M  V30 645 H 56.8358 -4.4373 -3.63011 0
M  V30 646 H 55.2328 -5.0886 -3.18091 0
M  V30 647 H 56.3028 -4.45352 -1.91806 0
M  V30 648 N 57.6459 0.756429 -1.3826 0
M  V30 649 C 58.6089 1.85176 -1.35065 0
M  V30 650 C 59.6089 1.58818 -0.251703 0
M  V30 651 O 60.7989 1.66615 -0.508433 0
M  V30 652 C 57.9309 3.22596 -1.10201 0
M  V30 653 H 59.1239 1.89417 -2.3251 0
M  V30 654 H 56.6769 0.95783 -1.23512 0
M  V30 655 H 57.4119 3.24025 -0.133504 0
M  V30 656 H 57.1969 3.43122 -1.89762 0
M  V30 657 H 58.6869 4.02673 -1.10654 0
M  V30 658 N 59.124 1.23083 0.984299 0
M  V30 659 C 60.54 0.992637 1.24975 0
M  V30 660 C 60.74 -0.308618 1.99123 0
M  V30 661 O 59.796 -1.02905 2.30579 0
M  V30 662 C 61.109 2.19698 2.05312 0
M  V30 663 C 62.657 2.24147 2.18465 0
M  V30 664 C 63.132 3.44157 3.02192 0
M  V30 665 N 64.623 3.44372 3.09777 0
M  V30 666 C 65.358 4.33886 3.74874 0
M  V30 667 N 64.854 5.3363 4.41827 0
M  V30 668 N 66.647 4.21639 3.71721 0
M  V30 669 H 58.798 2.06731 0.487453 0
M  V30 670 H 61.061 0.906339 0.277944 0
M  V30 671 H 60.767 3.1411 1.58201 0
M  V30 672 H 60.641 2.20465 3.06064 0
M  V30 673 H 63.028 1.30277 2.64786 0
M  V30 674 H 63.109 2.27415 1.17115 0
M  V30 675 H 62.753 4.38332 2.56568 0
M  V30 676 H 62.683 3.3813 4.03702 0
M  V30 677 H 65.174 2.72201 2.62135 0
M  V30 678 H 65.487 5.98196 4.89266 0
M  V30 679 H 63.832 5.37534 4.40548 0
M  V30 680 H 67.023 3.42962 3.18582 0
M  V30 681 H 67.196 4.91604 4.22173 0
M  V30 682 N 60.6021 -1.18246 1.0419 0
M  V30 683 C 61.8481 -1.88536 0.747122 0
M  V30 684 C 62.1811 -1.80223 -0.723409 0
M  V30 685 O 61.4561 -1.20337 -1.52804 0
M  V30 686 C 61.7391 -3.38968 1.21544 0
M  V30 687 C 61.5921 -3.56084 2.74816 0
M  V30 688 C 62.9111 -4.32648 0.806482 0
M  V30 689 H 60.0301 -0.684619 0.272883 0
M  V30 690 H 62.6721 -1.39113 1.29413 0
M  V30 691 H 60.8221 -3.8119 0.750081 0
M  V30 692 H 62.4941 -3.22946 3.29399 0
M  V30 693 H 60.7371 -2.98699 3.14582 0
M  V30 694 H 61.4081 -4.61639 3.02644 0
M  V30 695 H 63.8841 -3.98211 1.20695 0
M  V30 696 H 62.7601 -5.36462 1.1619 0
M  V30 697 H 63.0211 -4.41146 -0.29029 0
M  V30 698 N 62.0802 -0.821533 -1.34494 0
M  V30 699 C 63.0272 -0.240397 -2.29545 0
M  V30 700 C 63.9972 0.634031 -1.53523 0
M  V30 701 O 65.1822 0.575966 -1.81899 0
M  V30 702 C 62.3222 0.592869 -3.39969 0
M  V30 703 C 61.4352 -0.30365 -4.30932 0
M  V30 704 C 60.5702 0.539049 -5.28458 0
M  V30 705 C 59.6092 -0.356942 -6.11058 0
M  V30 706 N 58.7462 0.446603 -7.00678 0
M  V30 707 H 63.5862 -1.05632 -2.7865 0
M  V30 708 H 61.1232 -0.532413 -1.37127 0
M  V30 709 H 63.0812 1.09129 -4.02675 0
M  V30 710 H 61.7112 1.37392 -2.92102 0
M  V30 711 H 60.7632 -0.920276 -3.691 0
M  V30 712 H 62.0752 -0.992661 -4.88823 0
M  V30 713 H 61.2292 1.102 -5.96608 0
M  V30 714 H 59.9682 1.26157 -4.71101 0
M  V30 715 H 58.9732 -0.932047 -5.41842 0
M  V30 716 H 60.1982 -1.07755 -6.70497 0
M  V30 717 H 58.1442 1.15282 -6.45791 0
M  V30 718 H 58.0612 -0.184048 -7.55776 0
M  V30 719 H 59.3292 0.992352 -7.73158 0
M  V30 720 N 63.5583 1.46682 -0.576371 0
M  V30 721 C 64.8073 2.01619 -0.0572825 0
M  V30 722 C 65.1203 1.45417 1.30818 0
M  V30 723 O 66.3263 1.92133 1.91825 0
M  V30 724 C 64.7823 3.59863 -0.0518371 0
M  V30 725 C 64.3903 4.25059 -1.41523 0
M  V30 726 C 66.1343 4.2248 0.413639 0
M  V30 727 C 64.0413 5.75364 -1.36785 0
M  V30 728 H 62.9713 0.753794 -0.0176448 0
M  V30 729 H 65.6223 1.68481 -0.727076 0
M  V30 730 H 64.0043 3.90048 0.683994 0
M  V30 731 H 65.1783 4.06491 -2.17029 0
M  V30 732 H 63.4933 3.7451 -1.8202 0
M  V30 733 H 66.0903 5.3265 0.467779 0
M  V30 734 H 66.4333 3.90976 1.42982 0
M  V30 735 H 66.9663 3.96897 -0.267929 0
M  V30 736 H 63.7053 6.11518 -2.36063 0
M  V30 737 H 63.2253 5.96214 -0.654895 0
M  V30 738 H 64.9043 6.37955 -1.07805 0
M  V30 739 N 65.0364 0.313813 1.54444 0
M  V30 740 C 65.9994 -0.54379 2.22656 0
M  V30 741 C 66.9994 -1.05124 1.21678 0
M  V30 742 O 68.1894 -0.945225 1.46325 0
M  V30 743 C 65.3214 -1.75427 2.92298 0
M  V30 744 H 66.5144 0.0523599 2.99854 0
M  V30 745 H 64.0674 0.0647834 1.56166 0
M  V30 746 H 64.8024 -2.38991 2.19211 0
M  V30 747 H 64.5874 -1.39791 3.66334 0
M  V30 748 H 66.0774 -2.36325 3.44297 0
M  V30 749 N 66.5145 -1.57545 0.0417849 0
M  V30 750 C 67.7635 -1.91494 -0.633492 0
M  V30 751 C 68.0765 -0.921084 -1.72556 0
M  V30 752 O 69.2825 -1.15228 -2.45835 0
M  V30 753 C 67.7385 -3.40072 -1.17808 0
M  V30 754 C 67.3465 -4.47843 -0.118633 0
M  V30 755 C 69.0905 -3.8307 -1.82915 0
M  V30 756 C 66.9975 -5.87529 -0.675578 0
M  V30 757 H 65.9275 -0.714653 -0.24039 0
M  V30 758 H 68.5785 -1.83175 0.109148 0
M  V30 759 H 66.9605 -3.43364 -1.97274 0
M  V30 760 H 68.1345 -4.56128 0.654494 0
M  V30 761 H 66.4495 -4.14128 0.434414 0
M  V30 762 H 69.0465 -4.84794 -2.25563 0
M  V30 763 H 69.3895 -3.1881 -2.67705 0
M  V30 764 H 69.9225 -3.82255 -1.10119 0
M  V30 765 H 66.6615 -6.55362 0.134475 0
M  V30 766 H 66.1815 -5.82824 -1.4169 0
M  V30 767 H 67.8605 -6.36491 -1.1614 0
M  V30 768 N 67.9926 0.231505 -1.5589 0
M  V30 769 C 69.2406 0.955461 -1.78088 0
M  V30 770 C 69.5616 1.85262 -0.608533 0
M  V30 771 O 68.8316 1.92277 0.375035 0
M  V30 772 H 67.4116 0.355787 -0.656829 0
M  V30 773 H 70.0736 0.245751 -1.93344 0
M  V30 774 H 69.1696 1.56814 -2.69844 0
M  V30 775 N 69.4707 1.49531 0.497807 0
M  V30 776 C 70.4187 1.66926 1.61983 0
M  V30 777 C 71.4127 0.535167 1.60724 0
M  V30 778 O 72.6187 0.714896 1.65195 0
M  V30 779 H 68.9937 0.526415 0.537021 0
M  V30 780 H 70.9647 2.61098 1.44465 0
M  V30 781 C 69.7137 1.75602 3.00099 0
M  V30 782 H 69.0367 2.62244 3.01775 0
M  V30 783 H 70.4767 1.91807 3.78135 0
M  V30 784 C 68.9357 0.501543 3.33146 0
M  V30 785 O 69.4657 -0.371342 3.9998 0
M  V30 786 N 67.6717 0.363531 2.88317 0
M  V30 787 H 67.2187 1.07485 2.34104 0
M  V30 788 H 67.1767 -0.474728 3.10795 0
M  V30 789 N 70.9488 -0.749086 1.3866 0
M  V30 790 C 72.1948 -1.51056 1.35314 0
M  V30 791 C 72.5278 -1.94121 -0.0553751 0
M  V30 792 O 71.8028 -1.65763 -1.01749 0
M  V30 793 C 72.0858 -2.76003 2.31288 0
M  V30 794 C 71.9388 -2.39047 3.8102 0
M  V30 795 C 73.2578 -3.78046 2.2532 0
M  V30 796 H 70.3768 -0.547972 0.492844 0
M  V30 797 H 73.0188 -0.857628 1.69543 0
M  V30 798 H 71.1688 -3.31716 2.02229 0
M  V30 799 H 72.8408 -1.89074 4.20771 0
M  V30 800 H 71.0838 -1.71449 3.98482 0
M  V30 801 H 71.7548 -3.28462 4.4364 0
M  V30 802 H 74.2308 -3.31884 2.50983 0
M  V30 803 H 73.1068 -4.63159 2.94576 0
M  V30 804 H 73.3678 -4.23957 1.25352 0
M  V30 805 N 72.4269 -1.23603 -0.977757 0
M  V30 806 C 73.6749 -1.06759 -1.71601 0
M  V30 807 C 73.9959 0.395929 -1.90938 0
M  V30 808 O 73.2659 1.28356 -1.47992 0
M  V30 809 H 71.8459 -0.392062 -0.635843 0
M  V30 810 H 74.5079 -1.55362 -1.1768 0
M  V30 811 H 73.6039 -1.55763 -2.70452 0
M  V30 812 N 73.905 1.17692 -1.04816 0
M  V30 813 C 75.316 1.69501 -0.782698 0
M  V30 814 C 75.667 1.83456 0.695577 0
M  V30 815 O 74.792 1.51942 1.54086 0
M  V30 816 C 75.387 3.07874 -1.41419 0
M  V30 817 C 73.946 3.56864 -1.19686 0
M  V30 818 C 73.093 2.3322 -1.50012 0
M  V30 819 H 76.044 1.02262 -1.2136 0
M  V30 820 H 76.065 3.71528 -0.821428 0
M  V30 821 H 75.577 2.97685 -2.49009 0
M  V30 822 H 73.678 3.72337 -0.140043 0
M  V30 823 H 73.791 4.39851 -1.89916 0
M  V30 824 H 72.155 2.37501 -0.920071 0
M  V30 825 H 72.938 2.25644 -2.58727 0
M  V30 826 N 75.3831 0.828654 1.34056 0
M  V30 827 C 76.6081 0.431637 2.02859 0
M  V30 828 C 77.0331 -0.956339 1.61975 0
M  V30 829 O 76.3911 -1.62338 0.807228 0
M  V30 830 C 76.4391 0.548323 3.56407 0
M  V30 831 O 75.5431 -0.429556 4.10157 0
M  V30 832 H 74.8841 0.176886 0.640006 0
M  V30 833 H 77.4141 1.12066 1.71179 0
M  V30 834 H 77.4241 0.426196 4.05768 0
M  V30 835 H 76.0991 1.5606 3.8551 0
M  V30 836 H 74.6761 -0.265836 3.71951 0
M  V30 837 N 76.8612 -1.46375 0.584142 0
M  V30 838 C 77.8092 -2.32042 -0.161047 0
M  V30 839 C 78.8032 -1.44569 -0.882966 0
M  V30 840 O 80.0092 -1.61186 -0.801191 0
M  V30 841 H 76.3842 -0.748659 -0.0708033 0
M  V30 842 H 78.3552 -2.92704 0.580269 0
M  V30 843 C 77.1042 -3.27762 -1.1605 0
M  V30 844 H 76.4272 -3.95051 -0.614419 0
M  V30 845 H 77.8672 -3.90481 -1.65228 0
M  V30 846 C 76.3262 -2.53218 -2.22221 0
M  V30 847 O 76.8562 -2.29628 -3.29597 0
M  V30 848 N 75.0622 -2.13756 -1.96868 0
M  V30 849 H 74.6092 -2.33142 -1.09557 0
M  V30 850 H 74.5672 -1.642 -2.68115 0
M  V30 851 N 78.3393 -0.321999 -1.54275 0
M  V30 852 C 79.7553 0.0306999 -1.5957 0
M  V30 853 C 79.9553 1.50614 -1.33857 0
M  V30 854 O 79.0113 2.2619 -1.12223 0
M  V30 855 C 80.3243 -0.386122 -2.98211 0
M  V30 856 C 81.8723 -0.336647 -3.11184 0
M  V30 857 C 82.3473 -0.728607 -4.52167 0
M  V30 858 N 83.8383 -0.681952 -4.58152 0
M  V30 859 C 84.5733 -0.957449 -5.6535 0
M  V30 860 N 84.0693 -1.3 -6.80494 0
M  V30 861 N 85.8623 -0.883113 -5.55119 0
M  V30 862 H 78.0133 -1.28332 -1.69247 0
M  V30 863 H 80.2763 -0.521716 -0.791528 0
M  V30 864 H 79.9823 -1.41404 -3.22022 0
M  V30 865 H 79.8563 0.249662 -3.76373 0
M  V30 866 H 82.2433 0.682058 -2.8711 0
M  V30 867 H 82.3243 -1.00734 -2.3513 0
M  V30 868 H 81.9683 -1.74522 -4.76974 0
M  V30 869 H 81.8983 -0.0356152 -5.26588 0
M  V30 870 H 84.3893 -0.428985 -3.75457 0
M  V30 871 H 84.7023 -1.49563 -7.58189 0
M  V30 872 H 83.0473 -1.33824 -6.81994 0
M  V30 873 H 86.2383 -0.615001 -4.64042 0
M  V30 874 H 86.4113 -1.10118 -6.38575 0
M  V30 875 N 79.8174 1.5752 -0.0501392 0
M  V30 876 C 81.0944 1.83996 0.663685 0
M  V30 877 C 81.4744 0.938339 1.89099 0
M  V30 878 O 80.8224 -0.00087759 2.285 0
M  V30 879 C 81.0324 3.33702 1.02196 0
M  V30 880 C 82.3804 4.00691 1.40469 0
M  V30 881 O 83.4044 3.38321 1.11433 0
M  V30 882 O 82.2634 5.10658 1.94654 0
M  V30 883 H 79.3574 0.759385 0.32751 0
M  V30 884 H 81.9034 1.69514 -0.0794238 0
M  V30 885 H 80.6754 3.91015 0.149364 0
M  V30 886 H 80.2984 3.53368 1.82255 0
M  V30 887 N 81.2955 -0.223234 1.56011 0
M  V30 888 C 82.2255 -1.27988 1.95298 0
M  V30 889 C 83.2065 -1.48976 0.820979 0
M  V30 890 O 84.3915 -1.61188 1.08315 0
M  V30 891 C 81.5215 -2.63 2.26822 0
M  V30 892 C 80.4755 -2.56671 3.42497 0
M  V30 893 C 79.8015 -3.95697 3.59622 0
M  V30 894 C 81.1015 -2.11601 4.77517 0
M  V30 895 H 82.7955 -0.953525 2.8381 0
M  V30 896 H 80.3415 -0.457244 1.36548 0
M  V30 897 H 82.2945 -3.37077 2.52898 0
M  V30 898 H 81.0185 -2.9732 1.35161 0
M  V30 899 H 79.6775 -1.85051 3.16467 0
M  V30 900 H 79.3255 -4.27322 2.6534 0
M  V30 901 H 79.0255 -3.92345 4.37424 0
M  V30 902 H 80.5495 -4.71438 3.88044 0
M  V30 903 H 81.9635 -2.7542 5.02809 0
M  V30 904 H 80.3605 -2.19311 5.5859 0
M  V30 905 H 81.4305 -1.06824 4.72987 0
M  V30 906 N 82.7736 -1.49793 -0.48987 0
M  V30 907 C 83.7206 -1.67281 -1.59014 0
M  V30 908 C 84.6906 -0.514177 -1.57941 0
M  V30 909 O 85.8756 -0.742533 -1.75759 0
M  V30 910 C 83.0156 -1.75569 -2.97102 0
M  V30 911 C 82.1286 -3.0281 -3.08107 0
M  V30 912 C 81.2636 -3.02008 -4.36995 0
M  V30 913 C 80.3026 -4.23782 -4.41673 0
M  V30 914 N 79.4396 -4.20826 -5.62005 0
M  V30 915 H 84.2796 -2.61224 -1.43409 0
M  V30 916 H 81.8166 -1.29508 -0.697565 0
M  V30 917 H 83.7746 -1.78354 -3.77155 0
M  V30 918 H 82.4046 -0.850827 -3.11385 0
M  V30 919 H 81.4566 -3.09584 -2.21047 0
M  V30 920 H 82.7686 -3.92801 -3.07423 0
M  V30 921 H 81.9226 -3.03418 -5.25378 0
M  V30 922 H 80.6616 -2.09815 -4.4026 0
M  V30 923 H 79.6666 -4.22604 -3.5169 0
M  V30 924 H 80.8916 -5.17181 -4.40115 0
M  V30 925 H 78.8376 -3.31476 -5.66091 0
M  V30 926 H 78.7546 -5.04564 -5.62984 0
M  V30 927 H 80.0226 -4.26355 -6.52565 0
M  V30 928 N 84.2517 0.741722 -1.39055 0
M  V30 929 C 85.4977 1.50336 -1.36113 0
M  V30 930 C 85.8307 1.94148 0.0450796 0
M  V30 931 O 85.1057 1.66301 1.00868 0
M  V30 932 C 85.3887 2.74773 -2.32749 0
M  V30 933 C 85.2417 2.37023 -3.82283 0
M  V30 934 C 86.5607 3.76846 -2.27322 0
M  V30 935 H 83.6797 0.545351 -0.495743 0
M  V30 936 H 86.3217 0.848624 -1.69995 0
M  V30 937 H 84.4717 3.30639 -2.03986 0
M  V30 938 H 86.1437 1.8684 -4.21768 0
M  V30 939 H 84.3867 1.69334 -3.99385 0
M  V30 940 H 85.0577 3.26104 -4.45376 0
M  V30 941 H 87.5337 3.30548 -2.5274 0
M  V30 942 H 86.4097 4.6159 -2.97028 0
M  V30 943 H 86.6707 4.23286 -1.27599 0
M  V30 944 N 85.7298 1.2412 0.971189 0
M  V30 945 C 86.6768 1.0305 2.06517 0
M  V30 946 C 87.6468 -0.0550666 1.66009 0
M  V30 947 O 88.8318 0.0988688 1.90544 0
M  V30 948 C 85.9718 0.637653 3.39158 0
M  V30 949 C 85.0848 1.79633 3.92882 0
M  V30 950 C 84.2198 1.34939 5.13775 0
M  V30 951 C 83.2588 2.47823 5.59687 0
M  V30 952 N 82.3958 2.04022 6.71803 0
M  V30 953 H 87.2358 1.96685 2.23873 0
M  V30 954 H 84.7728 0.979694 1.09729 0
M  V30 955 H 86.7308 0.390931 4.15364 0
M  V30 956 H 85.3608 -0.261693 3.21737 0
M  V30 957 H 84.4128 2.15681 3.13346 0
M  V30 958 H 85.7248 2.64466 4.22918 0
M  V30 959 H 84.8788 1.06134 5.97345 0
M  V30 960 H 83.6178 0.471557 4.85415 0
M  V30 961 H 82.6228 2.77392 4.74693 0
M  V30 962 H 83.8478 3.36158 5.90063 0
M  V30 963 H 81.7938 1.18632 6.45184 0
M  V30 964 H 81.7108 2.82409 7.01271 0
M  V30 965 H 82.9788 1.78347 7.58823 0
M  V30 966 N 87.2079 -1.17134 1.05439 0
M  V30 967 C 88.1379 -2.2342 0.678649 0
M  V30 968 C 89.1189 -1.66971 -0.32476 0
M  V30 969 O 90.3039 -1.93149 -0.201802 0
M  V30 970 C 87.4339 -3.47256 0.0552099 0
M  V30 971 C 86.3879 -4.16543 0.98365 0
M  V30 972 C 85.7139 -5.34231 0.223961 0
M  V30 973 C 87.0139 -4.68495 2.3089 0
M  V30 974 H 88.7079 -2.55105 1.56722 0
M  V30 975 H 86.2539 -1.2262 0.754998 0
M  V30 976 H 88.2069 -4.20828 -0.21946 0
M  V30 977 H 86.9309 -3.14846 -0.868319 0
M  V30 978 H 85.5899 -3.44887 1.24293 0
M  V30 979 H 85.2379 -4.98071 -0.702412 0
M  V30 980 H 84.9379 -5.81527 0.842627 0
M  V30 981 H 86.4619 -6.10585 -0.0433671 0
M  V30 982 H 87.8759 -5.33691 2.09396 0
M  V30 983 H 86.2729 -5.26379 2.88176 0
M  V30 984 H 87.3429 -3.85169 2.94572 0
M  V30 985 N 88.686 -0.835752 -1.33615 0
M  V30 986 C 89.963 -0.352017 -1.92406 0
M  V30 987 C 90.343 1.16225 -1.76224 0
M  V30 988 O 89.691 1.97526 -1.14873 0
M  V30 989 C 89.901 -0.795485 -3.39813 0
M  V30 990 C 91.249 -0.801703 -4.16963 0
M  V30 991 O 92.273 -0.738889 -3.48452 0
M  V30 992 O 91.132 -0.886607 -5.3926 0
M  V30 993 H 88.226 -0.0989641 -0.821057 0
M  V30 994 H 90.772 -0.921397 -1.42507 0
M  V30 995 H 89.544 -1.83795 -3.45449 0
M  V30 996 H 89.167 -0.202505 -3.97084 0
M  V30 997 N 90.1641 1.46063 -0.591896 0
M  V30 998 C 91.3941 2.06418 -0.0867676 0
M  V30 999 C 91.8021 1.43975 1.22751 0
M  V30 1000 O 91.1451 0.542531 1.75506 0
M  V30 1001 C 91.2071 3.59213 0.143725 0
M  V30 1002 C 90.8711 4.439 -1.08635 0
M  V30 1003 C 91.8681 4.79864 -2.00067 0
M  V30 1004 C 89.5531 4.84896 -1.31077 0
M  V30 1005 C 91.5471 5.55661 -3.12282 0
M  V30 1006 C 89.2341 5.6045 -2.43596 0
M  V30 1007 C 90.2321 5.95747 -3.34027 0
M  V30 1008 O 89.9201 6.69772 -4.4459 0
M  V30 1009 H 89.6521 0.673443 -0.0587447 0
M  V30 1010 H 92.2061 1.88539 -0.814994 0
M  V30 1011 H 90.4361 3.75433 0.926668 0
M  V30 1012 H 92.1251 4.01463 0.5985 0
M  V30 1013 H 92.8911 4.48763 -1.83947 0
M  V30 1014 H 88.7701 4.56867 -0.61594 0
M  V30 1015 H 92.3141 5.8313 -3.82891 0
M  V30 1016 H 88.2111 5.90965 -2.59674 0
M  V30 1017 H 88.9791 6.88207 -4.43073 0
M  V30 1018 N 91.6422 0.330177 1.54103 0
M  V30 1019 C 92.5722 -0.525353 2.27513 0
M  V30 1020 C 93.5532 -1.11383 1.2856 0
M  V30 1021 O 94.7382 -1.13773 1.57383 0
M  V30 1022 C 91.8682 -1.6831 3.03791 0
M  V30 1023 C 90.8222 -1.2236 4.10137 0
M  V30 1024 C 90.1482 -2.46882 4.74293 0
M  V30 1025 C 91.4482 -0.333697 5.21233 0
M  V30 1026 H 93.1422 0.087013 2.99274 0
M  V30 1027 H 90.6882 0.0432893 1.43935 0
M  V30 1028 H 92.6412 -2.28795 3.5388 0
M  V30 1029 H 91.3652 -2.32216 2.29659 0
M  V30 1030 H 90.0242 -0.64165 3.60941 0
M  V30 1031 H 89.6722 -3.09165 3.96769 0
M  V30 1032 H 89.3722 -2.16825 5.46133 0
M  V30 1033 H 90.8962 -3.08117 5.27159 0
M  V30 1034 H 92.3102 -0.845013 5.67038 0
M  V30 1035 H 90.7072 -0.125612 5.99969 0
M  V30 1036 H 91.7772 0.633724 4.80741 0
M  V30 1037 N 93.1203 -1.57491 0.0584922 0
M  V30 1038 C 94.0673 -2.11958 -0.913376 0
M  V30 1039 C 95.0373 -1.02875 -1.30407 0
M  V30 1040 O 96.2223 -1.30464 -1.39226 0
M  V30 1041 C 93.3623 -2.67497 -2.18035 0
M  V30 1042 C 92.4753 -3.90691 -1.84349 0
M  V30 1043 C 91.6103 -4.3452 -3.05559 0
M  V30 1044 C 90.6493 -5.50395 -2.67827 0
M  V30 1045 N 89.7863 -5.89244 -3.81754 0
M  V30 1046 H 94.6263 -2.94704 -0.442017 0
M  V30 1047 H 92.1633 -1.45643 -0.206545 0
M  V30 1048 H 94.1213 -2.978 -2.92183 0
M  V30 1049 H 92.7513 -1.87537 -2.62735 0
M  V30 1050 H 91.8033 -3.66934 -1.00319 0
M  V30 1051 H 93.1153 -4.7489 -1.5258 0
M  V30 1052 H 92.2693 -4.66414 -3.87998 0
M  V30 1053 H 91.0083 -3.49147 -3.40511 0
M  V30 1054 H 90.0133 -5.18165 -1.83806 0
M  V30 1055 H 91.2383 -6.3749 -2.34059 0
M  V30 1056 H 89.1843 -5.06823 -4.16493 0
M  V30 1057 H 89.1013 -6.68151 -3.53708 0
M  V30 1058 H 90.3693 -6.25756 -4.64811 0
M  V30 1059 N 94.5984 0.214957 -1.56127 0
M  V30 1060 C 95.8444 0.939762 -1.79712 0
M  V30 1061 C 96.1774 1.83723 -0.629247 0
M  V30 1062 O 95.4524 1.90925 0.371197 0
M  V30 1063 C 95.7354 1.77306 -3.13424 0
M  V30 1064 C 95.5884 0.90164 -4.40671 0
M  V30 1065 C 96.9074 2.74956 -3.43638 0
M  V30 1066 H 94.0264 0.340214 -0.653776 0
M  V30 1067 H 96.6684 0.20824 -1.88855 0
M  V30 1068 H 94.8184 2.39673 -3.0576 0
M  V30 1069 H 96.4904 0.294206 -4.60361 0
M  V30 1070 H 94.7334 0.207368 -4.33304 0
M  V30 1071 H 95.4044 1.51923 -5.30682 0
M  V30 1072 H 97.8804 2.22724 -3.51473 0
M  V30 1073 H 96.7564 3.30358 -4.38355 0
M  V30 1074 H 97.0174 3.53023 -2.66134 0
M  V30 1075 N 96.0765 1.50051 0.48192 0
M  V30 1076 C 97.3535 1.51009 1.2432 0
M  V30 1077 C 97.7335 0.248587 2.09631 0
M  V30 1078 O 97.0815 -0.768409 2.15192 0
M  V30 1079 C 97.2915 2.79981 2.08355 0
M  V30 1080 C 98.6395 3.3022 2.66908 0
M  V30 1081 O 99.6635 2.81228 2.18607 0
M  V30 1082 O 98.5225 4.15595 3.54884 0
M  V30 1083 H 95.6165 0.605239 0.563573 0
M  V30 1084 H 98.1625 1.62332 0.494627 0
M  V30 1085 H 96.9345 3.63275 1.45419 0
M  V30 1086 H 96.5575 2.7161 2.90368 0
M  V30 1087 N 97.5546 -0.734337 1.39446 0
M  V30 1088 C 98.4846 -1.86155 1.40955 0
M  V30 1089 C 99.4656 -1.67898 0.272827 0
M  V30 1090 O 100.651 -1.88207 0.478743 0
M  V30 1091 C 97.7806 -3.23912 1.25294 0
M  V30 1092 C 96.7346 -3.56808 2.36373 0
M  V30 1093 C 96.0606 -4.93508 2.058 0
M  V30 1094 C 97.3606 -3.59713 3.78687 0
M  V30 1095 H 99.0546 -1.8515 2.35287 0
M  V30 1096 H 96.6006 -0.889367 1.13253 0
M  V30 1097 H 98.5536 -4.02443 1.2497 0
M  V30 1098 H 97.2776 -3.25446 0.274308 0
M  V30 1099 H 95.9366 -2.80606 2.35914 0
M  V30 1100 H 95.5846 -4.91623 1.06374 0
M  V30 1101 H 95.2846 -5.16486 2.80208 0
M  V30 1102 H 96.8086 -5.74396 2.07128 0
M  V30 1103 H 98.2226 -4.2832 3.81071 0
M  V30 1104 H 96.6196 -3.94209 4.52459 0
M  V30 1105 H 97.6896 -2.59504 4.09617 0
M  V30 1106 N 99.0327 -1.24633 -0.964593 0
M  V30 1107 C 99.9647 -0.999302 -2.06268 0
M  V30 1108 C 100.978 0.0323226 -1.62768 0
M  V30 1109 O 102.167 -0.205079 -1.77318 0
M  V30 1110 C 99.2667 -0.486816 -3.35385 0
M  V30 1111 C 98.4397 -1.5823 -4.07777 0
M  V30 1112 C 97.4987 -1.07191 -5.15166 0
M  V30 1113 O 96.5247 -1.76426 -5.41168 0
M  V30 1114 N 97.7267 0.0920373 -5.80427 0
M  V30 1115 H 100.492 -1.94477 -2.28033 0
M  V30 1116 H 98.0527 -1.15704 -1.13244 0
M  V30 1117 H 100.045 -0.130066 -4.04491 0
M  V30 1118 H 98.6147 0.364459 -3.10468 0
M  V30 1119 H 97.8347 -2.11109 -3.32906 0
M  V30 1120 H 99.1227 -2.31854 -4.52903 0
M  V30 1121 H 98.5207 0.670784 -5.61709 0
M  V30 1122 H 97.0777 0.389905 -6.50633 0
M  V30 1123 N 100.511 1.16574 -1.06058 0
M  V30 1124 C 101.927 1.3904 -0.783585 0
M  V30 1125 C 102.127 1.91784 0.618145 0
M  V30 1126 O 101.183 2.11511 1.37911 0
M  V30 1127 C 102.496 2.37329 -1.84649 0
M  V30 1128 C 104.044 2.51018 -1.86973 0
M  V30 1129 C 104.519 3.52588 -2.92311 0
M  V30 1130 N 106.01 3.60113 -2.91329 0
M  V30 1131 C 106.745 4.38486 -3.69482 0
M  V30 1132 N 106.241 5.20302 -4.57447 0
M  V30 1133 N 108.034 4.33446 -3.57885 0
M  V30 1134 H 100.185 0.806725 -1.96483 0
M  V30 1135 H 102.448 0.417117 -0.851303 0
M  V30 1136 H 102.154 2.05663 -2.85299 0
M  V30 1137 H 102.028 3.36946 -1.6955 0
M  V30 1138 H 104.415 2.81989 -0.869827 0
M  V30 1139 H 104.496 1.51445 -2.0615 0
M  V30 1140 H 104.14 3.22354 -3.92492 0
M  V30 1141 H 104.07 4.51886 -2.70383 0
M  V30 1142 H 106.561 3.01707 -2.27555 0
M  V30 1143 H 106.874 5.77311 -5.13743 0
M  V30 1144 H 105.219 5.19653 -4.61503 0
M  V30 1145 H 108.41 3.68586 -2.88551 0
M  V30 1146 H 108.583 4.94279 -4.19037 0
M  V30 1147 N 101.989 0.842826 1.3317 0
M  V30 1148 C 103.235 0.450342 1.98352 0
M  V30 1149 C 103.59 -0.980508 1.65541 0
M  V30 1150 O 102.883 -1.67678 0.927065 0
M  V30 1151 C 103.077 0.612607 3.52111 0
M  V30 1152 C 102.906 2.05768 3.99862 0
M  V30 1153 C 101.676 2.69374 4.27511 0
M  V30 1154 C 103.874 3.02688 4.15794 0
M  V30 1155 N 101.856 4.04915 4.61429 0
M  V30 1156 C 103.227 4.23186 4.53115 0
M  V30 1157 C 105.282 2.99041 3.98094 0
M  V30 1158 C 103.985 5.40518 4.74587 0
M  V30 1159 C 106.011 4.15607 4.20743 0
M  V30 1160 C 105.373 5.3486 4.58371 0
M  V30 1161 H 101.472 0.213296 0.752349 0
M  V30 1162 H 104.056 1.09173 1.61212 0
M  V30 1163 H 102.227 0.000998822 3.884 0
M  V30 1164 H 103.959 0.191179 4.04248 0
M  V30 1165 H 100.714 2.20485 4.19146 0
M  V30 1166 H 101.138 4.74798 4.82593 0
M  V30 1167 H 105.78 2.0797 3.68114 0
M  V30 1168 H 103.498 6.3213 5.03425 0
M  V30 1169 H 107.084 4.14207 4.08563 0
M  V30 1170 H 105.964 6.23558 4.75547 0
M  V30 1171 N 103.467 -1.45747 0.599634 0
M  V30 1172 C 104.43 -2.28917 -0.113835 0
M  V30 1173 C 105.43 -1.3933 -0.802729 0
M  V30 1174 O 106.62 -1.61534 -0.652103 0
M  V30 1175 C 103.752 -3.20152 -1.17114 0
M  V30 1176 H 104.945 -2.93478 0.617289 0
M  V30 1177 H 102.498 -1.52137 0.358327 0
M  V30 1178 H 103.233 -2.60374 -1.93329 0
M  V30 1179 H 103.018 -3.86133 -0.681468 0
M  V30 1180 H 104.508 -3.82708 -1.67105 0
M  V30 1181 N 104.945 -0.338344 -1.53925 0
M  V30 1182 C 105.877 0.555117 -2.22376 0
M  V30 1183 C 106.89 1.06812 -1.22862 0
M  V30 1184 O 108.079 0.979163 -1.49247 0
M  V30 1185 C 105.179 1.77609 -2.88631 0
M  V30 1186 C 104.352 1.39927 -4.14414 0
M  V30 1187 C 103.411 2.47936 -4.64127 0
M  V30 1188 O 102.437 2.11461 -5.28463 0
M  V30 1189 N 103.639 3.79107 -4.39612 0
M  V30 1190 H 106.404 -0.0310778 -2.99684 0
M  V30 1191 H 103.965 -0.162226 -1.61085 0
M  V30 1192 H 105.957 2.49287 -3.18807 0
M  V30 1193 H 104.527 2.26978 -2.14941 0
M  V30 1194 H 103.747 0.513481 -3.90841 0
M  V30 1195 H 105.035 1.12341 -4.96243 0
M  V30 1196 H 104.433 4.11531 -3.88148 0
M  V30 1197 H 102.99 4.4697 -4.74406 0
M  V30 1198 N 106.423 1.57458 -0.0668435 0
M  V30 1199 C 107.353 2.15468 0.899764 0
M  V30 1200 C 108.334 1.08042 1.31381 0
M  V30 1201 O 109.519 1.36054 1.38574 0
M  V30 1202 C 106.649 2.71232 2.16911 0
M  V30 1203 C 105.603 3.83781 1.89463 0
M  V30 1204 C 104.929 4.26127 3.22986 0
M  V30 1205 C 106.229 5.08238 1.20381 0
M  V30 1206 H 107.923 2.96488 0.416529 0
M  V30 1207 H 105.469 1.4262 0.198908 0
M  V30 1208 H 107.422 3.10458 2.84945 0
M  V30 1209 H 106.146 1.87426 2.67468 0
M  V30 1210 H 104.805 3.45051 1.23836 0
M  V30 1211 H 104.453 3.39249 3.71374 0
M  V30 1212 H 104.153 5.01993 3.05413 0
M  V30 1213 H 105.677 4.67966 3.92225 0
M  V30 1214 H 107.091 5.44811 1.78475 0
M  V30 1215 H 105.488 5.89349 1.13083 0
M  V30 1216 H 106.558 4.84558 0.182153 0
M  V30 1217 N 107.901 -0.206675 1.56239 0
M  V30 1218 C 109.131 -0.943975 1.83773 0
M  V30 1219 C 109.539 -1.77841 0.645703 0
M  V30 1220 O 108.882 -1.79403 -0.395008 0
M  V30 1221 C 108.944 -1.899 3.05251 0
M  V30 1222 C 108.608 -1.24764 4.39639 0
M  V30 1223 C 109.605 -0.630216 5.16066 0
M  V30 1224 C 107.29 -1.25496 4.8637 0
M  V30 1225 C 109.284 -0.0287946 6.37393 0
M  V30 1226 C 106.971 -0.649698 6.07637 0
M  V30 1227 C 107.969 -0.0376845 6.8299 0
M  V30 1228 O 107.657 0.55812 8.0196 0
M  V30 1229 H 107.389 -0.281508 0.614597 0
M  V30 1230 H 109.943 -0.222458 2.04192 0
M  V30 1231 H 108.173 -2.6599 2.80689 0
M  V30 1232 H 109.862 -2.5031 3.1953 0
M  V30 1233 H 110.628 -0.616785 4.81062 0
M  V30 1234 H 106.507 -1.72072 4.27683 0
M  V30 1235 H 110.051 0.449518 6.9615 0
M  V30 1236 H 105.948 -0.660592 6.42111 0
M  V30 1237 H 106.716 0.453891 8.17241 0
M  V30 1238 N 109.379 -1.50304 -0.473955 0
M  V30 1239 C 110.627 -1.60832 -1.22382 0
M  V30 1240 C 110.948 -0.30939 -1.9253 0
M  V30 1241 O 110.218 0.67296 -1.83978 0
M  V30 1242 H 108.798 -0.592652 -0.454723 0
M  V30 1243 H 111.46 -1.87068 -0.546968 0
M  V30 1244 H 110.556 -2.41803 -1.97327 0
M  V30 1245 N 110.857 0.726932 -1.39834 0
M  V30 1246 C 112.106 1.48214 -1.36805 0
M  V30 1247 C 112.419 1.95576 0.0305291 0
M  V30 1248 O 113.625 2.7088 0.183417 0
M  V30 1249 C 112.081 2.67854 -2.40379 0
M  V30 1250 C 111.689 2.27408 -3.85992 0
M  V30 1251 C 113.433 3.45641 -2.46439 0
M  V30 1252 C 111.34 3.43819 -4.81189 0
M  V30 1253 H 110.27 0.556606 -0.508631 0
M  V30 1254 H 112.921 0.792216 -1.65518 0
M  V30 1255 H 111.303 3.3896 -2.04749 0
M  V30 1256 H 112.477 1.63795 -4.30706 0
M  V30 1257 H 110.792 1.62692 -3.83302 0
M  V30 1258 H 113.389 4.32244 -3.14753 0
M  V30 1259 H 113.732 3.88669 -1.49139 0
M  V30 1260 H 114.265 2.8157 -2.81004 0
M  V30 1261 H 111.004 3.05834 -5.79781 0
M  V30 1262 H 110.524 4.06385 -4.41148 0
M  V30 1263 H 112.203 4.10043 -5.00474 0
M  V30 1264 N 112.336 1.25143 0.95797 0
M  V30 1265 C 113.747 1.08851 1.51685 0
M  V30 1266 C 114.098 -0.33687 1.93286 0
M  V30 1267 O 113.223 -1.22644 1.7829 0
M  V30 1268 C 113.818 1.96978 2.75654 0
M  V30 1269 C 112.377 1.84881 3.27866 0
M  V30 1270 C 111.524 1.91329 2.0072 0
M  V30 1271 H 114.475 1.38478 0.77522 0
M  V30 1272 H 114.496 1.5078 3.4935 0
M  V30 1273 H 114.008 3.00712 2.45345 0
M  V30 1274 H 112.109 0.840182 3.63004 0
M  V30 1275 H 112.222 2.6951 3.96107 0
M  V30 1276 H 110.586 1.35174 2.15871 0
M  V30 1277 H 111.369 2.96661 1.72764 0
M  V30 1278 N 113.814 -1.1601 1.06675 0
M  V30 1279 C 114.744 -2.22688 0.702307 0
M  V30 1280 C 115.725 -1.67306 -0.307032 0
M  V30 1281 O 116.91 -1.93352 -0.181305 0
M  V30 1282 C 114.04 -3.47178 0.092038 0
M  V30 1283 C 112.994 -4.15477 1.02777 0
M  V30 1284 C 112.32 -5.33963 0.28061 0
M  V30 1285 C 113.62 -4.66019 2.35846 0
M  V30 1286 H 115.314 -2.53429 1.59419 0
M  V30 1287 H 112.86 -1.21813 0.767961 0
M  V30 1288 H 114.813 -4.21037 -0.174814 0
M  V30 1289 H 113.537 -3.15749 -0.834877 0
M  V30 1290 H 112.196 -3.43549 1.27944 0
M  V30 1291 H 111.844 -4.98788 -0.649545 0
M  V30 1292 H 111.544 -5.806 0.904258 0
M  V30 1293 H 113.068 -6.10596 0.021396 0
M  V30 1294 H 114.482 -5.3144 2.15045 0
M  V30 1295 H 112.879 -5.23293 2.93743 0
M  V30 1296 H 113.949 -3.82023 2.98641 0
M  V30 1297 N 115.292 -0.849877 -1.32721 0
M  V30 1298 C 116.538 -0.451591 -1.97708 0
M  V30 1299 C 116.871 0.989175 -1.6712 0
M  V30 1300 O 116.146 1.69334 -0.956891 0
M  V30 1301 C 116.429 -0.685598 -3.53513 0
M  V30 1302 C 116.282 -2.17444 -3.93749 0
M  V30 1303 C 117.601 -0.138874 -4.39881 0
M  V30 1304 H 114.72 -0.16555 -0.718166 0
M  V30 1305 H 117.362 -1.06742 -1.57182 0
M  V30 1306 H 115.512 -0.161416 -3.88165 0
M  V30 1307 H 117.184 -2.76433 -3.693 0
M  V30 1308 H 115.427 -2.65476 -3.43081 0
M  V30 1309 H 116.098 -2.28888 -5.02309 0
M  V30 1310 H 118.574 -0.587068 -4.11938 0
M  V30 1311 H 117.45 -0.332213 -5.47894 0
M  V30 1312 H 117.711 0.95806 -4.31594 0
M  V30 1313 N 116.77 1.45427 -0.607355 0
M  V30 1314 C 118.017 2.02241 -0.102455 0
M  V30 1315 C 118.345 1.4758 1.26691 0
M  V30 1316 O 117.6 0.640468 1.84923 0
M  V30 1317 C 117.899 3.57398 -0.0129263 0
M  V30 1318 C 117.565 4.3121 -1.31792 0
M  V30 1319 C 116.227 4.51092 -1.67539 0
M  V30 1320 C 118.579 4.73401 -2.18039 0
M  V30 1321 C 115.907 5.10422 -2.89285 0
M  V30 1322 C 118.259 5.34078 -3.39034 0
M  V30 1323 C 116.923 5.52184 -3.75033 0
M  V30 1324 H 116.193 0.740051 -0.037491 0
M  V30 1325 H 118.84 1.74494 -0.788926 0
M  V30 1326 H 117.145 3.84421 0.756806 0
M  V30 1327 H 118.842 3.99061 0.393881 0
M  V30 1328 H 115.432 4.16047 -1.02968 0
M  V30 1329 H 119.616 4.57774 -1.91721 0
M  V30 1330 H 114.872 5.22629 -3.17283 0
M  V30 1331 H 119.046 5.65724 -4.06115 0
M  V30 1332 H 116.673 5.97925 -4.69457 0
M  V30 1333 N 118.248 0.346503 1.53744 0
M  V30 1334 C 119.659 -0.136779 1.86198 0
M  V30 1335 C 120.01 -1.49749 1.26766 0
M  V30 1336 O 119.135 -2.08417 0.582355 0
M  V30 1337 C 119.73 -0.254966 3.37839 0
M  V30 1338 C 118.289 -0.682482 3.70161 0
M  V30 1339 C 117.436 0.181981 2.76702 0
M  V30 1340 H 120.387 0.565994 1.48264 0
M  V30 1341 H 120.408 -1.08195 3.64793 0
M  V30 1342 H 119.92 0.735526 3.81066 0
M  V30 1343 H 118.021 -1.68189 3.3248 0
M  V30 1344 H 118.134 -0.470326 4.76786 0
M  V30 1345 H 116.498 -0.34615 2.52337 0
M  V30 1346 H 117.281 1.16966 3.2276 0
M  V30 1347 N 119.726 -1.57421 0.075193 0
M  V30 1348 C 120.689 -2.11791 -0.876203 0
M  V30 1349 C 121.689 -1.04268 -1.22412 0
M  V30 1350 O 122.879 -1.30242 -1.15684 0
M  V30 1351 C 120.011 -2.62207 -2.17854 0
M  V30 1352 H 121.204 -2.9716 -0.40444 0
M  V30 1353 H 118.757 -1.55333 -0.173557 0
M  V30 1354 H 119.492 -1.803 -2.6956 0
M  V30 1355 H 119.277 -3.40802 -1.93897 0
M  V30 1356 H 120.767 -3.04335 -2.85955 0
M  V30 1357 N 121.204 0.198386 -1.56346 0
M  V30 1358 C 122.152 1.26538 -1.95169 0
M  V30 1359 C 123.146 1.47295 -0.836685 0
M  V30 1360 O 124.352 1.48195 -1.02167 0
M  V30 1361 H 120.727 0.424744 -0.620561 0
M  V30 1362 H 122.698 0.910904 -2.84157 0
M  V30 1363 C 121.447 2.6035 -2.30463 0
M  V30 1364 H 120.77 2.45192 -3.15786 0
M  V30 1365 H 122.21 3.33762 -2.61494 0
M  V30 1366 C 120.669 3.17096 -1.13806 0
M  V30 1367 O 121.199 3.99588 -0.41135 0
M  V30 1368 N 119.405 2.75795 -0.915736 0
M  V30 1369 H 118.952 2.08816 -1.50843 0
M  V30 1370 H 118.91 3.14101 -0.136979 0
M  V30 1371 N 122.682 1.50554 0.465978 0
M  V30 1372 C 123.912 1.65323 1.23903 0
M  V30 1373 C 124.32 0.338051 1.86155 0
M  V30 1374 O 123.663 -0.690518 1.70228 0
M  V30 1375 C 123.725 2.69048 2.3844 0
M  V30 1376 C 123.389 4.12462 1.96784 0
M  V30 1377 C 124.386 4.98168 1.48745 0
M  V30 1378 C 122.071 4.58407 2.05349 0
M  V30 1379 C 124.065 6.27868 1.0982 0
M  V30 1380 C 121.752 5.88112 1.66035 0
M  V30 1381 C 122.75 6.72668 1.18349 0
M  V30 1382 O 122.438 7.99951 0.795825 0
M  V30 1383 H 122.17 0.558629 0.38067 0
M  V30 1384 H 124.724 1.97561 0.562022 0
M  V30 1385 H 122.954 2.32062 3.09328 0
M  V30 1386 H 124.643 2.72985 3.0039 0
M  V30 1387 H 125.409 4.63885 1.41546 0
M  V30 1388 H 121.288 3.92735 2.41414 0
M  V30 1389 H 124.832 6.93819 0.725293 0
M  V30 1390 H 120.729 6.21914 1.72895 0
M  V30 1391 H 121.497 8.13265 0.924222 0
M  V30 1392 N 124.16 -0.719506 1.40217 0
M  V30 1393 C 125.108 -1.85493 1.40339 0
M  V30 1394 C 126.102 -1.66995 0.284415 0
M  V30 1395 O 127.308 -1.74148 0.455252 0
M  V30 1396 H 123.683 -0.610857 0.438586 0
M  V30 1397 H 125.654 -1.82506 2.36081 0
M  V30 1398 C 124.403 -3.23321 1.27901 0
M  V30 1399 H 123.726 -3.38159 2.1328 0
M  V30 1400 H 125.166 -4.02914 1.32045 0
M  V30 1401 C 123.625 -3.36898 -0.0111355 0
M  V30 1402 O 124.155 -3.89674 -0.975538 0
M  V30 1403 N 122.361 -2.90492 -0.0793393 0
M  V30 1404 H 121.908 -2.47731 0.706183 0
M  V30 1405 H 121.866 -2.99955 -0.942038 0
M  V30 1406 N 125.638 -1.25649 -0.95132 0
M  V30 1407 C 126.863 -1.13443 -1.73624 0
M  V30 1408 C 127.288 0.307565 -1.85568 0
M  V30 1409 O 126.646 1.22282 -1.33854 0
M  V30 1410 C 126.694 -1.79723 -3.12621 0
M  V30 1411 O 125.798 -1.07912 -3.98031 0
M  V30 1412 H 125.139 -0.395872 -0.533086 0
M  V30 1413 H 127.669 -1.66276 -1.1922 0
M  V30 1414 H 127.679 -1.86141 -3.63064 0
M  V30 1415 H 126.354 -2.84633 -3.03244 0
M  V30 1416 H 124.931 -1.09398 -3.56492 0
M  V30 1417 N 127.117 1.15442 -1.07289 0
M  V30 1418 C 128.533 1.38201 -0.798288 0
M  V30 1419 C 128.733 1.92429 0.597769 0
M  V30 1420 O 127.789 2.12962 1.3566 0
M  V30 1421 C 129.102 2.35357 -1.87156 0
M  V30 1422 C 130.65 2.49021 -1.89624 0
M  V30 1423 C 131.125 3.49468 -2.96034 0
M  V30 1424 N 132.616 3.57003 -2.95132 0
M  V30 1425 C 133.351 4.34543 -3.74112 0
M  V30 1426 N 132.847 5.15421 -4.6294 0
M  V30 1427 N 134.64 4.29625 -3.62462 0
M  V30 1428 H 126.791 0.78584 -1.97328 0
M  V30 1429 H 129.054 0.408065 -0.855679 0
M  V30 1430 H 128.76 2.02626 -2.87464 0
M  V30 1431 H 128.634 3.35129 -1.73114 0
M  V30 1432 H 131.021 2.81051 -0.899687 0
M  V30 1433 H 131.102 1.4925 -2.07745 0
M  V30 1434 H 130.746 3.18173 -3.95889 0
M  V30 1435 H 130.676 4.48992 -2.75161 0
M  V30 1436 H 133.167 2.99276 -2.30743 0
M  V30 1437 H 133.48 5.7183 -5.19837 0
M  V30 1438 H 131.825 5.14729 -4.66989 0
M  V30 1439 H 135.016 3.65505 -2.92444 0
M  V30 1440 H 135.189 4.89807 -4.24256 0
M  V30 1441 N 128.595 0.856903 1.32268 0
M  V30 1442 C 130.011 0.547061 1.49931 0
M  V30 1443 C 130.211 -0.921781 1.7918 0
M  V30 1444 O 129.267 -1.70469 1.8627 0
M  V30 1445 C 130.58 1.43599 2.64196 0
M  V30 1446 C 132.128 1.43665 2.78081 0
M  V30 1447 C 132.603 2.31085 3.95428 0
M  V30 1448 N 134.094 2.28893 4.02694 0
M  V30 1449 C 134.829 2.93262 4.92732 0
M  V30 1450 N 134.325 3.66751 5.87763 0
M  V30 1451 N 136.118 2.82638 4.85873 0
M  V30 1452 H 128.269 1.8075 1.11549 0
M  V30 1453 H 130.532 0.772144 0.549997 0
M  V30 1454 H 130.238 2.48058 2.49319 0
M  V30 1455 H 130.112 1.12502 3.60032 0
M  V30 1456 H 132.499 0.399701 2.92381 0
M  V30 1457 H 132.58 1.7878 1.82952 0
M  V30 1458 H 132.224 3.34849 3.81888 0
M  V30 1459 H 132.154 1.93302 4.89839 0
M  V30 1460 H 134.645 1.75466 3.34694 0
M  V30 1461 H 134.958 4.13027 6.53168 0
M  V30 1462 H 133.303 3.70859 5.87783 0
M  V30 1463 H 136.494 2.24774 4.10602 0
M  V30 1464 H 136.667 3.33084 5.55841 0
M  V30 1465 N 130.073 -1.45103 0.615059 0
M  V30 1466 C 131.006 -2.27717 -0.148408 0
M  V30 1467 C 131.984 -1.37584 -0.866572 0
M  V30 1468 O 133.168 -1.67017 -0.87393 0
M  V30 1469 C 130.295 -3.16136 -1.21557 0
M  V30 1470 C 129.341 -4.22263 -0.599712 0
M  V30 1471 S 130.174 -5.3215 0.598081 0
M  V30 1472 C 131.33 -6.24137 -0.469484 0
M  V30 1473 H 131.563 -2.92121 0.552483 0
M  V30 1474 H 129.096 -1.49054 0.402778 0
M  V30 1475 H 131.054 -3.67633 -1.82638 0
M  V30 1476 H 129.715 -2.50982 -1.88857 0
M  V30 1477 H 128.908 -4.84081 -1.4029 0
M  V30 1478 H 128.51 -3.73945 -0.063876 0
M  V30 1479 H 130.802 -6.63984 -1.34652 0
M  V30 1480 H 131.745 -7.0801 0.112725 0
M  V30 1481 H 132.153 -5.58971 -0.788168 0
M  V30 1482 N 131.551 -0.354651 -1.53558 0
M  V30 1483 C 132.499 0.512195 -2.26891 0
M  V30 1484 C 133.493 1.09263 -1.29452 0
M  V30 1485 O 134.699 1.03709 -1.47121 0
M  V30 1486 H 131.074 0.183878 -0.729173 0
M  V30 1487 H 133.045 -0.128202 -2.98124 0
M  V30 1488 C 131.794 1.64563 -3.06291 0
M  V30 1489 H 131.117 1.20829 -3.81104 0
M  V30 1490 H 132.557 2.22711 -3.60799 0
M  V30 1491 C 131.016 2.58158 -2.16462 0
M  V30 1492 O 131.546 3.60695 -1.76811 0
M  V30 1493 N 129.752 2.27096 -1.81317 0
M  V30 1494 H 129.299 1.43751 -2.1376 0
M  V30 1495 H 129.257 2.89975 -1.21498 0
M  V30 1496 N 133.029 1.57378 -0.0835403 0
M  V30 1497 C 134.278 1.93106 0.582498 0
M  V30 1498 C 134.591 0.96651 1.70053 0
M  V30 1499 O 135.797 1.21705 2.42693 0
M  V30 1500 C 134.253 3.43076 1.08751 0
M  V30 1501 C 133.861 4.48 -0.000146404 0
M  V30 1502 C 135.605 3.87785 1.72694 0
M  V30 1503 C 133.512 5.89113 0.519568 0
M  V30 1504 H 132.442 0.720775 0.221358 0
M  V30 1505 H 135.093 1.82821 -0.157675 0
M  V30 1506 H 133.475 3.48474 1.88101 0
M  V30 1507 H 134.649 4.54233 -0.775199 0
M  V30 1508 H 132.964 4.1283 -0.54406 0
M  V30 1509 H 135.561 4.90604 2.1263 0
M  V30 1510 H 135.904 3.25796 2.59158 0
M  V30 1511 H 136.437 3.8504 0.999457 0
M  V30 1512 H 133.176 6.54775 -0.308186 0
M  V30 1513 H 132.696 5.86376 1.26188 0
M  V30 1514 H 134.375 6.39346 0.992237 0
M  V30 1515 N 134.507 -0.190092 1.56449 0
M  V30 1516 C 135.755 -0.907908 1.80559 0
M  V30 1517 C 136.076 -1.83583 0.657438 0
M  V30 1518 O 135.346 -1.93203 -0.323924 0
M  V30 1519 H 133.926 -0.338247 0.666032 0
M  V30 1520 H 136.588 -0.194403 1.93928 0
M  V30 1521 H 135.684 -1.49604 2.73907 0
M  V30 1522 N 135.985 -1.50799 -0.457987 0
M  V30 1523 C 137.232 -1.62442 -1.20908 0
M  V30 1524 C 137.56 -0.330865 -1.91665 0
M  V30 1525 O 136.815 0.68401 -1.83357 0
M  V30 1526 C 137.114 -2.76358 -2.2663 0
M  V30 1527 C 136.78 -4.16378 -1.73033 0
M  V30 1528 C 135.442 -4.54473 -1.58138 0
M  V30 1529 C 137.794 -5.03836 -1.33413 0
M  V30 1530 C 135.122 -5.77754 -1.02065 0
M  V30 1531 C 137.474 -6.27676 -0.78778 0
M  V30 1532 C 136.138 -6.64562 -0.625561 0
M  V30 1533 H 135.408 -0.594417 -0.442435 0
M  V30 1534 H 138.055 -1.84772 -0.503136 0
M  V30 1535 H 136.36 -2.48167 -3.03184 0
M  V30 1536 H 138.057 -2.82568 -2.84528 0
M  V30 1537 H 134.647 -3.86331 -1.85598 0
M  V30 1538 H 138.831 -4.75026 -1.4375 0
M  V30 1539 H 134.087 -6.04997 -0.882547 0
M  V30 1540 H 138.261 -6.94797 -0.472177 0
M  V30 1541 H 135.888 -7.59965 -0.188926 0
M  V30 1542 N 137.463 0.71206 -1.40597 0
M  V30 1543 C 138.693 1.49894 -1.42181 0
M  V30 1544 C 139.101 1.89189 -0.0208078 0
M  V30 1545 O 138.444 1.56223 0.966436 0
M  V30 1546 C 138.506 2.80215 -2.25211 0
M  V30 1547 C 138.17 2.63221 -3.73582 0
M  V30 1548 C 139.167 2.30249 -4.66135 0
M  V30 1549 C 136.852 2.79376 -4.17438 0
M  V30 1550 C 138.846 2.13645 -6.00529 0
M  V30 1551 C 136.533 2.6239 -5.51901 0
M  V30 1552 C 137.531 2.29573 -6.43262 0
M  V30 1553 O 137.219 2.12719 -7.75246 0
M  V30 1554 H 136.951 0.469031 -0.486812 0
M  V30 1555 H 139.505 0.88564 -1.85326 0
M  V30 1556 H 137.735 3.4389 -1.76852 0
M  V30 1557 H 139.424 3.41947 -2.18694 0
M  V30 1558 H 140.19 2.17398 -4.33547 0
M  V30 1559 H 136.069 3.03906 -3.46644 0
M  V30 1560 H 139.613 1.87953 -6.71803 0
M  V30 1561 H 135.51 2.74826 -5.84073 0
M  V30 1562 H 136.278 2.27611 -7.86216 0
M  V30 1563 N 138.941 1.26152 0.944643 0
M  V30 1564 C 140.171 1.14094 1.72239 0
M  V30 1565 C 140.579 -0.306931 1.86694 0
M  V30 1566 O 139.922 -1.22222 1.3714 0
M  V30 1567 C 139.984 1.73316 3.14963 0
M  V30 1568 C 139.648 3.2239 3.23904 0
M  V30 1569 C 140.645 4.19252 3.07447 0
M  V30 1570 C 138.33 3.62788 3.47405 0
M  V30 1571 C 140.324 5.54491 3.14353 0
M  V30 1572 C 138.011 4.98162 3.53947 0
M  V30 1573 C 139.009 5.93823 3.37436 0
M  V30 1574 O 138.697 7.26732 3.43679 0
M  V30 1575 H 138.429 0.398292 0.546205 0
M  V30 1576 H 140.983 1.67201 1.19301 0
M  V30 1577 H 139.213 1.14667 3.69308 0
M  V30 1578 H 140.902 1.56214 3.74636 0
M  V30 1579 H 141.668 3.8938 2.8915 0
M  V30 1580 H 137.547 2.88816 3.59313 0
M  V30 1581 H 141.091 6.29137 3.01384 0
M  V30 1582 H 136.988 5.27695 3.71763 0
M  V30 1583 H 137.756 7.3496 3.60245 0
M  V30 1584 N 140.419 -1.14872 1.07899 0
M  V30 1585 C 141.644 -1.90202 0.826926 0
M  V30 1586 C 142.069 -1.77774 -0.614664 0
M  V30 1587 O 141.427 -1.11431 -1.43013 0
M  V30 1588 C 141.475 -3.38352 1.24702 0
M  V30 1589 O 140.579 -4.10497 0.39575 0
M  V30 1590 H 139.92 -0.591968 0.300782 0
M  V30 1591 H 142.45 -1.45437 1.43907 0
M  V30 1592 H 142.46 -3.89156 1.22563 0
M  V30 1593 H 141.135 -3.46715 2.29698 0
M  V30 1594 H 139.712 -3.69796 0.480117 0
M  V30 1595 N 141.898 -0.863906 -1.31812 0
M  V30 1596 C 143.146 -0.470904 -1.96537 0
M  V30 1597 C 143.467 0.978771 -1.68657 0
M  V30 1598 O 142.737 1.6853 -0.998717 0
M  V30 1599 H 141.317 -0.171148 -0.72713 0
M  V30 1600 H 143.979 -1.10236 -1.60729 0
M  V30 1601 H 143.075 -0.623616 -3.05806 0
M  V30 1602 N 143.376 1.44774 -0.622745 0
M  V30 1603 C 144.339 2.29069 0.0774015 0
M  V30 1604 C 145.339 1.4059 0.780461 0
M  V30 1605 O 146.529 1.62551 0.626322 0
M  V30 1606 C 143.661 3.21974 1.12006 0
M  V30 1607 H 144.854 2.92459 -0.663901 0
M  V30 1608 H 142.407 1.51548 -0.382486 0
M  V30 1609 H 143.142 2.63417 1.89162 0
M  V30 1610 H 142.927 3.87168 0.619951 0
M  V30 1611 H 144.417 3.85318 1.60995 0
M  V30 1612 N 144.854 0.36279 1.53368 0
M  V30 1613 C 145.764 -0.492994 2.29362 0
M  V30 1614 C 146.78 -1.09507 1.35219 0
M  V30 1615 O 147.956 -1.10662 1.68273 0
M  V30 1616 C 145.021 -1.61855 3.066 0
M  V30 1617 C 144.082 -1.04429 4.16405 0
M  V30 1618 C 143.315 -2.11621 4.89951 0
M  V30 1619 O 143.538 -3.32684 4.63333 0
M  V30 1620 O 142.472 -1.74835 5.75948 0
M  V30 1621 H 146.298 0.125331 3.03441 0
M  V30 1622 H 143.883 0.127253 1.48857 0
M  V30 1623 H 145.765 -2.27302 3.54841 0
M  V30 1624 H 144.44 -2.22233 2.3536 0
M  V30 1625 H 143.347 -0.353819 3.72423 0
M  V30 1626 H 144.68 -0.485113 4.89804 0
M  V30 1627 N 146.332 -1.57332 0.0918853 0
M  V30 1628 C 147.295 -2.12708 -0.85369 0
M  V30 1629 C 148.295 -1.05561 -1.213 0
M  V30 1630 O 149.485 -1.31461 -1.14296 0
M  V30 1631 C 146.617 -2.64503 -2.15061 0
M  V30 1632 H 147.81 -2.97573 -0.3729 0
M  V30 1633 H 145.363 -1.55509 -0.157072 0
M  V30 1634 H 146.098 -1.83149 -2.67632 0
M  V30 1635 H 145.883 -3.4284 -1.90272 0
M  V30 1636 H 147.373 -3.07351 -2.82711 0
M  V30 1637 N 147.81 0.181792 -1.56548 0
M  V30 1638 C 148.742 1.24956 -1.92142 0
M  V30 1639 C 149.755 1.41022 -0.813422 0
M  V30 1640 O 150.944 1.41212 -1.09186 0
M  V30 1641 C 148.044 2.61981 -2.14987 0
M  V30 1642 C 147.217 2.6735 -3.46183 0
M  V30 1643 C 146.276 3.85664 -3.5798 0
M  V30 1644 O 145.302 3.72148 -4.30691 0
M  V30 1645 N 146.504 5.01683 -2.92053 0
M  V30 1646 H 149.269 0.947329 -2.84334 0
M  V30 1647 H 146.83 0.371629 -1.57577 0
M  V30 1648 H 148.822 3.3958 -2.20154 0
M  V30 1649 H 147.392 2.84637 -1.2923 0
M  V30 1650 H 146.612 1.75925 -3.52766 0
M  V30 1651 H 147.9 2.67939 -4.32534 0
M  V30 1652 H 147.298 5.15564 -2.32832 0
M  V30 1653 H 145.855 5.77181 -3.0283 0
M  V30 1654 N 149.288 1.51039 0.449983 0
M  V30 1655 C 150.251 1.70863 1.5277 0
M  V30 1656 C 151.251 0.578846 1.5002 0
M  V30 1657 O 152.441 0.846213 1.52266 0
M  V30 1658 C 149.573 1.75341 2.9235 0
M  V30 1659 H 150.766 2.67034 1.36502 0
M  V30 1660 H 148.319 1.40838 0.677812 0
M  V30 1661 H 149.054 0.809383 3.14037 0
M  V30 1662 H 148.839 2.57436 2.95752 0
M  V30 1663 H 150.329 1.92559 3.70555 0
M  V30 1664 N 150.766 -0.704594 1.40972 0
M  V30 1665 C 151.729 -1.80035 1.41845 0
M  V30 1666 C 152.729 -1.57774 0.310474 0
M  V30 1667 O 153.919 -1.64613 0.56992 0
M  V30 1668 C 151.051 -3.18284 1.22098 0
M  V30 1669 H 152.244 -1.80658 2.3938 0
M  V30 1670 H 149.797 -0.911329 1.26982 0
M  V30 1671 H 150.532 -3.23306 0.253672 0
M  V30 1672 H 150.317 -3.35843 2.02366 0
M  V30 1673 H 151.807 -3.98289 1.25522 0
M  V30 1674 N 152.244 -1.26651 -0.937939 0
M  V30 1675 C 153.207 -1.08546 -2.01867 0
M  V30 1676 C 154.207 -0.0327327 -1.60767 0
M  V30 1677 O 155.397 -0.276427 -1.71993 0
M  V30 1678 C 152.529 -0.651711 -3.34613 0
M  V30 1679 H 153.722 -2.04502 -2.1936 0
M  V30 1680 H 151.275 -1.09294 -1.11734 0
M  V30 1681 H 152.01 0.309696 -3.22818 0
M  V30 1682 H 151.795 -1.41189 -3.65798 0
M  V30 1683 H 153.285 -0.546973 -4.14002 0
M  V30 1684 N 153.722 1.14298 -1.08507 0
M  V30 1685 C 154.952 1.88945 -0.835663 0
M  V30 1686 C 155.36 1.78894 0.615928 0
M  V30 1687 O 154.703 1.1468 1.43506 0
M  V30 1688 C 154.765 3.39585 -1.17994 0
M  V30 1689 C 154.429 3.7342 -2.63451 0
M  V30 1690 C 155.426 3.73454 -3.61702 0
M  V30 1691 C 153.111 4.03368 -2.99332 0
M  V30 1692 C 155.105 4.02961 -4.93864 0
M  V30 1693 C 152.792 4.32538 -4.31687 0
M  V30 1694 C 153.79 4.32318 -5.28763 0
M  V30 1695 O 153.478 4.6078 -6.58739 0
M  V30 1696 H 153.21 0.605307 -0.300965 0
M  V30 1697 H 155.764 1.45673 -1.44806 0
M  V30 1698 H 153.994 3.83315 -0.51055 0
M  V30 1699 H 155.683 3.9554 -0.911182 0
M  V30 1700 H 156.449 3.50403 -3.35325 0
M  V30 1701 H 152.328 4.02692 -2.24411 0
M  V30 1702 H 155.872 4.02704 -5.69627 0
M  V30 1703 H 151.769 4.55059 -4.57812 0
M  V30 1704 H 152.537 4.78492 -6.64069 0
M  V30 1705 N 155.201 0.870884 1.31352 0
M  V30 1706 C 156.447 0.482987 1.96965 0
M  V30 1707 C 156.78 -0.962462 1.68672 0
M  V30 1708 O 156.055 -1.6779 0.98371 0
M  V30 1709 C 156.338 0.741752 3.52378 0
M  V30 1710 C 156.191 2.2368 3.9024 0
M  V30 1711 C 157.51 0.208838 4.39604 0
M  V30 1712 H 154.629 0.176955 0.715441 0
M  V30 1713 H 157.271 1.09229 1.55464 0
M  V30 1714 H 155.421 0.223149 3.87859 0
M  V30 1715 H 157.093 2.82273 3.64856 0
M  V30 1716 H 155.336 2.70901 3.38814 0
M  V30 1717 H 156.007 2.3685 4.98604 0
M  V30 1718 H 158.483 0.652529 4.10952 0
M  V30 1719 H 157.359 0.419336 5.47296 0
M  V30 1720 H 157.62 -0.889275 4.33064 0
M  V30 1721 N 156.679 -1.44442 0.630414 0
M  V30 1722 C 157.627 -2.32437 -0.0871428 0
M  V30 1723 C 158.621 -1.47304 -0.836525 0
M  V30 1724 O 159.827 -1.63653 -0.749506 0
M  V30 1725 H 156.202 -0.750533 -0.0469495 0
M  V30 1726 H 158.173 -2.90709 0.673096 0
M  V30 1727 C 156.922 -3.31288 -1.05563 0
M  V30 1728 H 156.245 -3.96805 -0.488426 0
M  V30 1729 H 157.685 -3.9554 -1.52721 0
M  V30 1730 C 156.144 -2.6016 -2.14052 0
M  V30 1731 O 156.674 -2.39997 -3.22124 0
M  V30 1732 N 154.88 -2.19911 -1.89967 0
M  V30 1733 H 154.427 -2.36509 -1.02085 0
M  V30 1734 H 154.385 -1.72646 -2.62756 0
M  V30 1735 N 158.157 -0.370918 -1.53173 0
M  V30 1736 C 159.403 0.217423 -2.01631 0
M  V30 1737 C 159.736 1.47983 -1.25756 0
M  V30 1738 O 159.011 1.91274 -0.352764 0
M  V30 1739 C 159.294 0.503982 -3.56556 0
M  V30 1740 C 159.147 -0.77243 -4.43118 0
M  V30 1741 C 160.466 1.30234 -4.20389 0
M  V30 1742 H 157.585 0.0775486 -0.732909 0
M  V30 1743 H 160.227 -0.496863 -1.83388 0
M  V30 1744 H 158.377 1.11248 -3.72231 0
M  V30 1745 H 160.049 -1.4098 -4.39229 0
M  V30 1746 H 158.292 -1.39167 -4.10871 0
M  V30 1747 H 158.963 -0.526815 -5.4948 0
M  V30 1748 H 161.439 0.787546 -4.08579 0
M  V30 1749 H 160.315 1.47158 -5.28806 0
M  V30 1750 H 160.576 2.31237 -3.76805 0
M  V30 1751 N 159.635 1.57281 -0.100228 0
M  V30 1752 C 160.881 1.94826 0.563101 0
M  V30 1753 C 161.214 0.982475 1.67514 0
M  V30 1754 O 160.489 0.0164069 1.94493 0
M  V30 1755 C 160.772 3.42453 1.11346 0
M  V30 1756 C 160.625 4.498 0.00612081 0
M  V30 1757 C 161.944 3.91506 2.01024 0
M  V30 1758 H 159.063 0.708428 0.203221 0
M  V30 1759 H 161.705 1.8922 -0.171979 0
M  V30 1760 H 159.855 3.47361 1.7399 0
M  V30 1761 H 161.527 4.57 -0.628357 0
M  V30 1762 H 159.77 4.28756 -0.659581 0
M  V30 1763 H 160.441 5.50306 0.432109 0
M  V30 1764 H 162.917 3.88784 1.48278 0
M  V30 1765 H 161.793 4.95358 2.36457 0
M  V30 1766 H 162.054 3.31099 2.92961 0
M  V30 1767 N 161.113 -0.173488 1.56642 0
M  V30 1768 C 162.36 -0.890465 1.81871 0
M  V30 1769 C 162.688 -1.82339 0.67696 0
M  V30 1770 O 161.943 -1.92795 -0.335926 0
M  V30 1771 C 162.242 -1.72069 3.13252 0
M  V30 1772 C 161.908 -0.936878 4.41059 0
M  V30 1773 C 160.57 -0.720545 4.75775 0
M  V30 1774 C 162.922 -0.386919 5.19762 0
M  V30 1775 C 160.25 0.0568829 5.86672 0
M  V30 1776 C 162.602 0.37741 6.31473 0
M  V30 1777 C 161.266 0.604563 6.64757 0
M  V30 1778 H 160.536 -0.325844 0.665512 0
M  V30 1779 H 163.183 -0.155527 1.90867 0
M  V30 1780 H 161.488 -2.52496 2.99588 0
M  V30 1781 H 163.185 -2.27844 3.29982 0
M  V30 1782 H 159.775 -1.11553 4.13828 0
M  V30 1783 H 163.959 -0.541398 4.93338 0
M  V30 1784 H 159.215 0.242635 6.10918 0
M  V30 1785 H 163.389 0.810825 6.91664 0
M  V30 1786 H 161.016 1.20885 7.50527 0
M  V30 1787 N 162.591 -1.51276 -0.441967 0
M  V30 1788 C 163.539 -1.72823 -1.55676 0
M  V30 1789 C 164.533 -0.59445 -1.58627 0
M  V30 1790 O 165.739 -0.775715 -1.62427 0
M  V30 1791 H 162.114 -0.545983 -0.517113 0
M  V30 1792 H 164.085 -2.6628 -1.34675 0
M  V30 1793 C 162.834 -1.86619 -2.93375 0
M  V30 1794 H 162.157 -2.73264 -2.91834 0
M  V30 1795 H 163.597 -2.05709 -3.70756 0
M  V30 1796 C 162.056 -0.624842 -3.31055 0
M  V30 1797 O 162.586 0.222636 -4.01083 0
M  V30 1798 N 160.792 -0.470288 -2.86769 0
M  V30 1799 H 160.339 -1.161 -2.29953 0
M  V30 1800 H 160.297 0.359051 -3.12343 0
M  V30 1801 N 164.069 0.697108 -1.41344 0
M  V30 1802 C 165.032 1.79281 -1.42797 0
M  V30 1803 C 166.032 1.57607 -0.318837 0
M  V30 1804 O 167.222 1.64309 -0.578642 0
M  V30 1805 C 164.354 3.17632 -1.23785 0
M  V30 1806 H 165.547 1.79385 -2.40335 0
M  V30 1807 H 163.1 0.904582 -1.27464 0
M  V30 1808 H 163.835 3.23167 -0.270814 0
M  V30 1809 H 163.62 3.34765 -2.04144 0
M  V30 1810 H 165.11 3.97617 -1.27633 0
M  V30 1811 N 165.547 1.27147 0.931209 0
M  V30 1812 C 166.793 1.13446 1.68101 0
M  V30 1813 C 167.126 -0.319628 1.91552 0
M  V30 1814 O 166.401 -1.23407 1.50336 0
M  V30 1815 C 166.684 1.91482 3.0497 0
M  V30 1816 C 166.537 3.44855 2.88782 0
M  V30 1817 C 167.856 1.71651 4.05246 0
M  V30 1818 H 164.975 0.413498 0.610072 0
M  V30 1819 H 167.617 1.56261 1.08086 0
M  V30 1820 H 165.767 1.55095 3.56199 0
M  V30 1821 H 167.439 3.9105 2.44698 0
M  V30 1822 H 165.682 3.71373 2.24198 0
M  V30 1823 H 166.353 3.94694 3.85902 0
M  V30 1824 H 168.829 2.0337 3.63015 0
M  V30 1825 H 167.705 2.28651 4.99009 0
M  V30 1826 H 167.966 0.663555 4.37092 0
M  V30 1827 N 167.025 -1.13721 1.09112 0
M  V30 1828 C 168.271 -1.85413 0.836283 0
M  V30 1829 C 168.626 -1.8175 -0.631249 0
M  V30 1830 O 167.919 -1.24238 -1.45861 0
M  V30 1831 C 168.113 -3.32861 1.30146 0
M  V30 1832 C 167.942 -3.50882 2.81268 0
M  V30 1833 C 166.712 -3.65312 3.49106 0
M  V30 1834 C 168.91 -3.47196 3.7942 0
M  V30 1835 N 166.892 -3.71563 4.88686 0
M  V30 1836 C 168.263 -3.59777 5.04936 0
M  V30 1837 C 170.318 -3.30577 3.72321 0
M  V30 1838 C 169.021 -3.57455 6.24194 0
M  V30 1839 C 171.047 -3.29562 4.91063 0
M  V30 1840 C 170.409 -3.42691 6.15421 0
M  V30 1841 H 166.508 -0.694812 0.358832 0
M  V30 1842 H 169.092 -1.36246 1.39087 0
M  V30 1843 H 167.263 -3.80602 0.774361 0
M  V30 1844 H 168.995 -3.92346 0.99229 0
M  V30 1845 H 165.75 -3.6685 2.9953 0
M  V30 1846 H 166.174 -3.78387 5.61384 0
M  V30 1847 H 170.816 -3.19332 2.77105 0
M  V30 1848 H 168.534 -3.67475 7.19714 0
M  V30 1849 H 172.12 -3.17905 4.87266 0
M  V30 1850 H 171 -3.41862 7.05762 0
M  V30 1851 N 168.503 -0.877838 -1.30888 0
M  V30 1852 C 169.751 -0.491723 -1.96027 0
M  V30 1853 C 170.072 0.960827 -1.69685 0
M  V30 1854 O 169.342 1.67462 -1.01654 0
M  V30 1855 H 167.922 -0.17885 -0.725273 0
M  V30 1856 H 170.584 -1.11935 -1.59551 0
M  V30 1857 H 169.68 -0.656016 -3.05128 0
M  V30 1858 N 169.982 1.44106 -0.638065 0
M  V30 1859 C 170.892 2.34513 0.0637334 0
M  V30 1860 C 171.908 1.53018 0.828346 0
M  V30 1861 O 173.084 1.85723 0.779036 0
M  V30 1862 C 170.149 3.31095 1.02844 0
M  V30 1863 C 169.21 4.28497 0.26244 0
M  V30 1864 C 168.443 5.20465 1.1812 0
M  V30 1865 O 168.666 5.16514 2.42011 0
M  V30 1866 O 167.6 5.98251 0.661774 0
M  V30 1867 H 171.426 2.95989 -0.68003 0
M  V30 1868 H 169.011 1.43994 -0.398252 0
M  V30 1869 H 170.893 3.90526 1.58327 0
M  V30 1870 H 169.568 2.72144 1.7527 0
M  V30 1871 H 168.475 3.72592 -0.335602 0
M  V30 1872 H 169.808 4.90388 -0.421936 0
M  V30 1873 N 171.46 0.379036 1.52974 0
M  V30 1874 C 172.708 -0.206014 2.01047 0
M  V30 1875 C 173.029 -1.48175 1.26765 0
M  V30 1876 O 172.299 -1.92085 0.384743 0
M  V30 1877 H 170.879 -0.0791184 0.742798 0
M  V30 1878 H 173.541 0.508366 1.88153 0
M  V30 1879 H 172.637 -0.423501 3.09213 0
M  V30 1880 N 172.938 -1.57226 0.108567 0
M  V30 1881 C 174.187 -1.94008 -0.551703 0
M  V30 1882 C 174.5 -0.993442 -1.68494 0
M  V30 1883 O 175.706 -1.25551 -2.40726 0
M  V30 1884 C 174.162 -3.44763 -1.03279 0
M  V30 1885 C 173.77 -4.47943 0.0714193 0
M  V30 1886 C 175.514 -3.90483 -1.66503 0
M  V30 1887 C 173.421 -5.89865 -0.425779 0
M  V30 1888 H 172.351 -0.724206 -0.209863 0
M  V30 1889 H 175.002 -1.82547 0.186741 0
M  V30 1890 H 173.384 -3.51422 -1.82533 0
M  V30 1891 H 174.558 -4.52942 0.847365 0
M  V30 1892 H 172.873 -4.11913 0.609669 0
M  V30 1893 H 175.47 -4.93925 -2.04798 0
M  V30 1894 H 175.813 -3.29877 -2.53942 0
M  V30 1895 H 176.346 -3.86581 -0.938074 0
M  V30 1896 H 173.085 -6.54202 0.412316 0
M  V30 1897 H 172.605 -5.88309 -1.16843 0
M  V30 1898 H 174.284 -6.40844 -0.890397 0
M  V30 1899 N 174.416 0.165178 -1.56732 0
M  V30 1900 C 175.379 1.18822 -1.95995 0
M  V30 1901 C 176.379 1.3685 -0.84431 0
M  V30 1902 O 177.569 1.34152 -1.11126 0
M  V30 1903 C 174.701 2.5521 -2.26011 0
M  V30 1904 H 175.894 0.851825 -2.87548 0
M  V30 1905 H 173.447 0.407857 -1.50885 0
M  V30 1906 H 174.182 2.93852 -1.37191 0
M  V30 1907 H 173.967 2.43489 -3.07336 0
M  V30 1908 H 175.457 3.28927 -2.57288 0
M  V30 1909 N 175.894 1.51508 0.433938 0
M  V30 1910 C 177.305 1.56784 1.01369 0
M  V30 1911 C 177.656 0.393349 1.92217 0
M  V30 1912 O 176.781 -0.489441 2.10792 0
M  V30 1913 C 177.376 2.84144 1.8452 0
M  V30 1914 C 175.935 2.9198 2.37539 0
M  V30 1915 C 175.082 2.51482 1.16843 0
M  V30 1916 H 178.033 1.57236 0.215081 0
M  V30 1917 H 178.054 2.68098 2.70007 0
M  V30 1918 H 177.566 3.69607 1.18373 0
M  V30 1919 H 175.667 2.10955 3.0713 0
M  V30 1920 H 175.78 3.95704 2.70103 0
M  V30 1921 H 174.144 2.04758 1.51481 0
M  V30 1922 H 174.927 3.39293 0.523015 0
M  V30 1923 N 177.372 -0.689602 1.41712 0
M  V30 1924 C 178.649 -1.44457 1.31877 0
M  V30 1925 C 179.029 -2.11039 -0.0508537 0
M  V30 1926 O 178.377 -2.02138 -1.06547 0
M  V30 1927 C 178.587 -2.45913 2.47645 0
M  V30 1928 C 179.935 -3.10991 2.89084 0
M  V30 1929 O 180.959 -2.56238 2.47428 0
M  V30 1930 O 179.818 -4.10174 3.61137 0
M  V30 1931 H 176.912 -0.64362 0.519309 0
M  V30 1932 H 179.458 -0.719576 1.53689 0
M  V30 1933 H 178.23 -1.95409 3.39015 0
M  V30 1934 H 177.853 -3.25913 2.27742 0
M  V30 1935 N 178.85 -1.27639 -0.924453 0
M  V30 1936 C 179.78 -1.13166 -2.04244 0
M  V30 1937 C 180.761 -0.032256 -1.70069 0
M  V30 1938 O 181.946 -0.207328 -1.9309 0
M  V30 1939 C 179.076 -0.781496 -3.38393 0
M  V30 1940 C 178.03 -1.83449 -3.86692 0
M  V30 1941 C 177.356 -1.33822 -5.17683 0
M  V30 1942 C 178.656 -3.23917 -4.09726 0
M  V30 1943 H 180.35 -2.06689 -2.1661 0
M  V30 1944 H 177.896 -0.995136 -1.04082 0
M  V30 1945 H 179.849 -0.667057 -4.16087 0
M  V30 1946 H 178.573 0.189439 -3.2605 0
M  V30 1947 H 177.232 -1.93789 -3.11193 0
M  V30 1948 H 176.88 -0.35665 -5.01734 0
M  V30 1949 H 176.58 -2.04224 -5.50968 0
M  V30 1950 H 178.104 -1.23679 -5.97943 0
M  V30 1951 H 179.518 -3.16559 -4.77978 0
M  V30 1952 H 177.915 -3.92059 -4.54324 0
M  V30 1953 H 178.985 -3.68729 -3.14908 0
M  V30 1954 N 180.328 1.1314 -1.09713 0
M  V30 1955 C 181.238 2.22242 -0.751367 0
M  V30 1956 C 182.254 1.72224 0.247938 0
M  V30 1957 O 183.43 2.01205 0.0885463 0
M  V30 1958 C 180.495 3.46231 -0.180274 0
M  V30 1959 C 179.556 4.11125 -1.2359 0
M  V30 1960 C 178.789 5.29195 -0.691966 0
M  V30 1961 O 179.012 5.68342 0.48414 0
M  V30 1962 O 177.946 5.84214 -1.44838 0
M  V30 1963 H 181.772 2.54197 -1.66186 0
M  V30 1964 H 179.357 1.21331 -0.871735 0
M  V30 1965 H 181.239 4.21185 0.134739 0
M  V30 1966 H 179.914 3.1597 0.703185 0
M  V30 1967 H 178.821 3.37985 -1.60366 0
M  V30 1968 H 180.154 4.45524 -2.09211 0
M  V30 1969 N 181.806 0.884767 1.30421 0
M  V30 1970 C 183.031 0.517288 2.00845 0
M  V30 1971 C 183.456 -0.886779 1.65885 0
M  V30 1972 O 182.814 -1.58768 0.875354 0
M  V30 1973 C 182.862 0.698994 3.5376 0
M  V30 1974 O 181.966 -0.255208 4.1161 0
M  V30 1975 H 181.307 0.203872 0.631927 0
M  V30 1976 H 183.837 1.19225 1.66272 0
M  V30 1977 H 183.847 0.597912 4.03595 0
M  V30 1978 H 182.522 1.72271 3.78544 0
M  V30 1979 H 181.099 -0.10784 3.72744 0
M  V30 1980 N 183.284 -1.43765 0.645699 0
M  V30 1981 C 184.214 -2.33471 -0.0370477 0
M  V30 1982 C 185.195 -1.49042 -0.819779 0
M  V30 1983 O 186.38 -1.77726 -0.782758 0
M  V30 1984 C 183.51 -3.32311 -1.0093 0
M  V30 1985 C 182.464 -4.2667 -0.337201 0
M  V30 1986 C 181.79 -5.1549 -1.42037 0
M  V30 1987 C 183.09 -5.16657 0.765706 0
M  V30 1988 H 184.784 -2.90809 0.712069 0
M  V30 1989 H 182.33 -1.39834 0.343876 0
M  V30 1990 H 184.283 -3.9396 -1.49578 0
M  V30 1991 H 183.007 -2.73213 -1.78948 0
M  V30 1992 H 181.666 -3.66374 0.128771 0
M  V30 1993 H 181.314 -4.52735 -2.1918 0
M  V30 1994 H 181.014 -5.79438 -0.975966 0
M  V30 1995 H 182.538 -5.80012 -1.90838 0
M  V30 1996 H 183.952 -5.72158 0.361702 0
M  V30 1997 H 182.349 -5.89286 1.13413 0
M  V30 1998 H 183.419 -4.56796 1.62683 0
M  V30 1999 N 184.763 -0.387143 -1.52771 0
M  V30 2000 C 186.174 0.0873634 -1.86495 0
M  V30 2001 C 186.525 1.46336 -1.30691 0
M  V30 2002 O 185.65 2.068 -0.637409 0
M  V30 2003 C 186.245 0.165305 -3.38396 0
M  V30 2004 C 184.804 0.584101 -3.7184 0
M  V30 2005 C 183.951 -0.255279 -2.76122 0
M  V30 2006 H 186.902 -0.605104 -1.46711 0
M  V30 2007 H 186.923 0.984848 -3.67534 0
M  V30 2008 H 186.435 -0.836301 -3.78982 0
M  V30 2009 H 184.536 1.59315 -3.36823 0
M  V30 2010 H 184.649 0.343749 -4.77865 0
M  V30 2011 H 183.013 0.279126 -2.53166 0
M  V30 2012 H 183.796 -1.25482 -3.19545 0
M  V30 2013 N 186.241 1.57166 -0.116904 0
M  V30 2014 C 187.204 2.14039 0.819742 0
M  V30 2015 C 188.204 1.07477 1.19605 0
M  V30 2016 O 189.394 1.33263 1.1219 0
M  V30 2017 C 186.526 2.67891 2.10826 0
M  V30 2018 H 187.719 2.98128 0.325511 0
M  V30 2019 H 185.272 1.55739 0.132312 0
M  V30 2020 H 186.007 1.87384 2.64685 0
M  V30 2021 H 185.792 3.45823 1.84793 0
M  V30 2022 H 187.282 3.11809 2.77785 0
M  V30 2023 N 187.719 -0.156864 1.56817 0
M  V30 2024 C 188.649 -1.19589 2.00551 0
M  V30 2025 C 189.63 -1.4536 0.883426 0
M  V30 2026 O 190.815 -1.56449 1.15054 0
M  V30 2027 C 187.945 -2.53143 2.37773 0
M  V30 2028 C 186.899 -2.41913 3.53075 0
M  V30 2029 C 186.225 -3.80088 3.76081 0
M  V30 2030 C 187.525 -1.91157 4.86062 0
M  V30 2031 H 189.219 -0.832293 2.87599 0
M  V30 2032 H 186.765 -0.398918 1.38364 0
M  V30 2033 H 188.718 -3.26047 2.66967 0
M  V30 2034 H 187.442 -2.91319 1.4765 0
M  V30 2035 H 186.101 -1.71462 3.24031 0
M  V30 2036 H 185.749 -4.15683 2.83225 0
M  V30 2037 H 185.449 -3.73439 4.53671 0
M  V30 2038 H 186.973 -4.54556 4.0769 0
M  V30 2039 H 188.387 -2.53846 5.14038 0
M  V30 2040 H 186.784 -1.95422 5.67389 0
M  V30 2041 H 187.854 -0.866673 4.77092 0
M  V30 2042 N 189.197 -1.51736 -0.425897 0
M  V30 2043 C 190.443 -1.65214 -1.1761 0
M  V30 2044 C 190.776 -0.372778 -1.90589 0
M  V30 2045 O 190.051 0.628139 -1.84078 0
M  V30 2046 C 190.334 -2.86312 -2.18398 0
M  V30 2047 C 190.187 -4.24254 -1.49426 0
M  V30 2048 C 191.506 -3.02925 -3.19256 0
M  V30 2049 H 188.625 -0.601263 -0.426206 0
M  V30 2050 H 191.267 -1.8425 -0.463882 0
M  V30 2051 H 189.417 -2.70213 -2.79137 0
M  V30 2052 H 191.089 -4.52046 -0.919362 0
M  V30 2053 H 189.332 -4.26426 -0.796432 0
M  V30 2054 H 190.003 -5.05001 -2.22885 0
M  V30 2055 H 192.479 -3.1781 -2.68581 0
M  V30 2056 H 191.355 -3.89199 -3.8706 0
M  V30 2057 H 191.616 -2.15497 -3.86023 0
M  V30 2058 N 190.675 0.682077 -1.42076 0
M  V30 2059 C 191.9 1.47558 -1.45744 0
M  V30 2060 C 192.325 1.87977 -0.0680981 0
M  V30 2061 O 191.683 1.55522 0.9318 0
M  V30 2062 C 191.731 2.70575 -2.38373 0
M  V30 2063 O 190.835 3.68573 -1.85007 0
M  V30 2064 H 190.176 0.443585 -0.494093 0
M  V30 2065 H 192.706 0.837238 -1.86686 0
M  V30 2066 H 192.716 3.18729 -2.54707 0
M  V30 2067 H 191.391 2.40495 -3.39315 0
M  V30 2068 H 189.968 3.2757 -1.78192 0
M  V30 2069 N 192.153 1.28127 0.917671 0
M  V30 2070 C 193.063 1.13556 2.05286 0
M  V30 2071 C 194.079 0.0630914 1.73886 0
M  V30 2072 O 195.255 0.271598 1.9956 0
M  V30 2073 C 192.32 0.794676 3.3747 0
M  V30 2074 C 191.381 1.94909 3.82504 0
M  V30 2075 C 190.614 1.62437 5.0838 0
M  V30 2076 O 190.837 0.536905 5.67867 0
M  V30 2077 O 189.771 2.46677 5.4903 0
M  V30 2078 H 193.597 2.08844 2.20495 0
M  V30 2079 H 191.182 1.07409 1.03845 0
M  V30 2080 H 193.064 0.618344 4.16839 0
M  V30 2081 H 191.739 -0.128581 3.23445 0
M  V30 2082 H 190.646 2.18055 3.03978 0
M  V30 2083 H 191.979 2.85291 4.01086 0
M  V30 2084 N 193.631 -1.12557 1.10312 0
M  V30 2085 C 194.578 -2.18247 0.750781 0
M  V30 2086 C 195.548 -1.63853 -0.272293 0
M  V30 2087 O 196.733 -1.90195 -0.151862 0
M  V30 2088 C 193.873 -3.44591 0.187379 0
M  V30 2089 C 192.986 -4.13046 1.2656 0
M  V30 2090 C 192.121 -5.27034 0.663978 0
M  V30 2091 C 191.16 -5.87353 1.72287 0
M  V30 2092 N 190.297 -6.92757 1.1416 0
M  V30 2093 H 195.137 -2.47732 1.65628 0
M  V30 2094 H 192.674 -1.21629 0.827337 0
M  V30 2095 H 194.632 -4.16904 -0.157148 0
M  V30 2096 H 193.262 -3.15527 -0.681355 0
M  V30 2097 H 192.314 -3.38924 1.72727 0
M  V30 2098 H 193.626 -4.53947 2.06721 0
M  V30 2099 H 192.78 -6.06104 0.268824 0
M  V30 2100 H 191.519 -4.87407 -0.169082 0
M  V30 2101 H 190.524 -5.06971 2.12746 0
M  V30 2102 H 191.749 -6.29051 2.55875 0
M  V30 2103 H 189.695 -6.5517 0.329984 0
M  V30 2104 H 189.612 -7.3225 1.88007 0
M  V30 2105 H 190.88 -7.75658 0.772956 0
M  V30 2106 N 195.109 -0.891671 -1.2995 0
M  V30 2107 C 196.039 -0.379797 -2.30391 0
M  V30 2108 C 197.02 0.540919 -1.6127 0
M  V30 2109 O 198.205 0.453352 -1.88834 0
M  V30 2110 C 195.335 0.400654 -3.44981 0
M  V30 2111 C 194.289 -0.428905 -4.25846 0
M  V30 2112 C 193.615 0.478557 -5.32554 0
M  V30 2113 C 194.915 -1.67458 -4.94727 0
M  V30 2114 H 196.609 -1.21914 -2.73454 0
M  V30 2115 H 194.155 -0.587675 -1.31462 0
M  V30 2116 H 196.108 0.769434 -4.14316 0
M  V30 2117 H 194.832 1.27371 -3.0074 0
M  V30 2118 H 193.491 -0.779911 -3.58208 0
M  V30 2119 H 193.139 1.34951 -4.84559 0
M  V30 2120 H 192.839 -0.0727433 -5.87555 0
M  V30 2121 H 194.363 0.843705 -6.04743 0
M  V30 2122 H 195.777 -1.376 -5.56542 0
M  V30 2123 H 194.174 -2.16659 -5.59624 0
M  V30 2124 H 195.244 -2.41518 -4.20473 0
M  V30 2125 N 196.587 1.43421 -0.653314 0
M  V30 2126 C 197.835 2.01414 -0.166415 0
M  V30 2127 C 198.156 1.51803 1.22397 0
M  V30 2128 O 197.426 0.730693 1.81763 0
M  V30 2129 H 196.006 0.744703 -0.0585319 0
M  V30 2130 H 198.668 1.75629 -0.845003 0
M  V30 2131 H 197.764 3.11734 -0.151111 0
M  V30 2132 N 198.065 0.39524 1.52563 0
M  V30 2133 C 199.311 -0.177763 2.02622 0
M  V30 2134 C 199.666 -1.43974 1.27629 0
M  V30 2135 O 198.959 -1.87995 0.36992 0
M  V30 2136 C 199.153 -0.493444 3.53977 0
M  V30 2137 C 198.982 0.736392 4.4363 0
M  V30 2138 C 197.752 1.25744 4.89404 0
M  V30 2139 C 199.95 1.61046 4.88435 0
M  V30 2140 N 197.932 2.44421 5.63145 0
M  V30 2141 C 199.303 2.64359 5.60816 0
M  V30 2142 C 201.358 1.62985 4.70468 0
M  V30 2143 C 200.061 3.69505 6.17137 0
M  V30 2144 C 202.087 2.67042 5.27677 0
M  V30 2145 C 201.449 3.69077 5.99968 0
M  V30 2146 H 197.548 -0.0269794 0.781534 0
M  V30 2147 H 200.132 0.546466 1.86874 0
M  V30 2148 H 198.303 -1.18672 3.69826 0
M  V30 2149 H 200.035 -1.05412 3.90731 0
M  V30 2150 H 196.79 0.817546 4.6649 0
M  V30 2151 H 197.214 3.04485 6.04663 0
M  V30 2152 H 201.856 0.854442 4.14076 0
M  V30 2153 H 199.574 4.4791 6.72608 0
M  V30 2154 H 203.16 2.69433 5.15652 0
M  V30 2155 H 202.04 4.48273 6.43444 0
M  V30 2156 N 199.544 -1.57102 0.125237 0
M  V30 2157 C 200.821 -1.86953 -0.575142 0
M  V30 2158 C 201.201 -1.02749 -1.84407 0
M  V30 2159 O 200.549 -0.108144 -2.28244 0
M  V30 2160 C 200.759 -3.38198 -0.861583 0
M  V30 2161 C 202.107 -4.06937 -1.21192 0
M  V30 2162 O 203.131 -3.43252 -0.951645 0
M  V30 2163 O 201.99 -5.19364 -1.70068 0
M  V30 2164 H 199.084 -0.774147 -0.290906 0
M  V30 2165 H 201.63 -1.68942 0.160211 0
M  V30 2166 H 200.402 -3.91282 0.0373647 0
M  V30 2167 H 200.025 -3.61661 -1.65188 0
M  V30 2168 N 201.022 0.148545 -1.56898 0
M  V30 2169 C 202.438 0.501131 -1.51528 0
M  V30 2170 C 202.638 1.83458 -0.833399 0
M  V30 2171 O 201.694 2.49259 -0.40328 0
M  V30 2172 C 203.007 0.512864 -2.96294 0
M  V30 2173 C 204.555 0.598487 -3.07225 0
M  V30 2174 C 205.03 0.640897 -4.53494 0
M  V30 2175 N 206.521 0.703163 -4.57832 0
M  V30 2176 C 207.256 0.756935 -5.68382 0
M  V30 2177 N 206.752 0.770147 -6.88506 0
M  V30 2178 N 208.545 0.797698 -5.56411 0
M  V30 2179 H 200.696 -0.725532 -1.99624 0
M  V30 2180 H 202.959 -0.264358 -0.910395 0
M  V30 2181 H 202.665 -0.398691 -3.49433 0
M  V30 2182 H 202.539 1.35133 -3.52163 0
M  V30 2183 H 204.926 1.50046 -2.54106 0
M  V30 2184 H 205.007 -0.267093 -2.54402 0
M  V30 2185 H 204.651 -0.256915 -5.0725 0
M  V30 2186 H 204.581 1.52295 -5.04097 0
M  V30 2187 H 207.072 0.700314 -3.71354 0
M  V30 2188 H 207.385 0.812983 -7.68512 0
M  V30 2189 H 205.73 0.738049 -6.9107 0
M  V30 2190 H 208.921 0.784535 -4.61479 0
M  V30 2191 H 209.094 0.83614 -6.42583 0
M  V30 2192 N 202.5 1.5196 0.417844 0
M  V30 2193 C 203.725 1.69717 1.1921 0
M  V30 2194 C 204.15 0.402148 1.83751 0
M  V30 2195 O 203.508 -0.639593 1.69643 0
M  V30 2196 C 203.556 2.82794 2.2374 0
M  V30 2197 O 202.66 2.47756 3.29683 0
M  V30 2198 H 202.001 0.565263 0.348387 0
M  V30 2199 H 204.531 1.98621 0.490985 0
M  V30 2200 H 204.541 3.07452 2.68212 0
M  V30 2201 H 203.216 3.76756 1.76146 0
M  V30 2202 H 201.793 2.33739 2.90552 0
M  V30 2203 N 203.978 -0.674533 1.42435 0
M  V30 2204 C 204.941 -1.76986 1.45632 0
M  V30 2205 C 205.941 -1.5708 0.343871 0
M  V30 2206 O 207.131 -1.63367 0.604709 0
M  V30 2207 C 204.263 -3.15623 1.28822 0
M  V30 2208 H 205.456 -1.75539 2.43158 0
M  V30 2209 H 203.009 -0.884189 1.28887 0
M  V30 2210 H 203.744 -3.22696 0.322193 0
M  V30 2211 H 203.529 -3.31475 2.09444 0
M  V30 2212 H 205.019 -3.95537 1.33942 0
M  V30 2213 N 205.456 -1.28612 -0.910864 0
M  V30 2214 C 206.703 -1.15934 -1.66029 0
M  V30 2215 C 207.031 0.291483 -1.92303 0
M  V30 2216 O 206.286 1.22816 -1.52364 0
M  V30 2217 C 206.585 -1.90624 -3.0232 0
M  V30 2218 C 206.251 -3.40405 -2.95695 0
M  V30 2219 C 204.913 -3.81255 -2.93595 0
M  V30 2220 C 207.265 -4.359 -2.85728 0
M  V30 2221 C 204.593 -5.15936 -2.79334 0
M  V30 2222 C 206.945 -5.70657 -2.73007 0
M  V30 2223 C 205.609 -6.10779 -2.69267 0
M  V30 2224 H 204.879 -0.424234 -0.607541 0
M  V30 2225 H 207.526 -1.5942 -1.06101 0
M  V30 2226 H 205.831 -1.39696 -3.6605 0
M  V30 2227 H 207.528 -1.78228 -3.59215 0
M  V30 2228 H 204.118 -3.07927 -2.98125 0
M  V30 2229 H 208.302 -4.053 -2.86436 0
M  V30 2230 H 203.558 -5.46146 -2.74835 0
M  V30 2231 H 207.732 -6.44311 -2.64264 0
M  V30 2232 H 205.359 -7.1509 -2.57974 0
M  V30 2233 N 206.934 1.1197 -1.10907 0
M  V30 2234 C 207.844 2.21433 -0.774896 0
M  V30 2235 C 208.86 1.72478 0.229657 0
M  V30 2236 O 210.036 2.01288 0.0672008 0
M  V30 2237 C 207.101 3.4602 -0.216986 0
M  V30 2238 C 206.162 4.09791 -1.27944 0
M  V30 2239 C 205.395 5.28431 -0.748055 0
M  V30 2240 O 205.618 5.68823 0.423833 0
M  V30 2241 O 204.552 5.82644 -1.51027 0
M  V30 2242 H 208.378 2.5242 -1.68873 0
M  V30 2243 H 205.963 1.20399 -0.884555 0
M  V30 2244 H 207.845 4.21304 0.090059 0
M  V30 2245 H 206.52 3.16698 0.669633 0
M  V30 2246 H 205.427 3.36265 -1.63941 0
M  V30 2247 H 206.76 4.4328 -2.13925 0
M  V30 2248 N 208.412 0.89855 1.29475 0
M  V30 2249 C 209.362 0.346767 2.25348 0
M  V30 2250 C 210.346 -0.532509 1.51833 0
M  V30 2251 O 211.538 -0.374714 1.72988 0
M  V30 2252 C 208.667 -0.425681 3.40651 0
M  V30 2253 C 207.753 0.46845 4.21505 0
M  V30 2254 N 208.144 1.57514 4.80648 0
M  V30 2255 C 206.442 0.26603 4.45206 0
M  V30 2256 C 207.143 2.12889 5.41344 0
M  V30 2257 N 206.119 1.42208 5.24669 0
M  V30 2258 H 209.921 1.19219 2.68634 0
M  V30 2259 H 207.435 0.749473 1.44072 0
M  V30 2260 H 209.432 -0.837716 4.08397 0
M  V30 2261 H 208.092 -1.26838 2.98902 0
M  V30 2262 H 209.103 1.95789 4.79465 0
M  V30 2263 H 205.78 -0.538394 4.14014 0
M  V30 2264 H 207.17 3.05901 5.98226 0
M  V30 2265 N 209.89 -1.43072 0.660911 0
M  V30 2266 C 211.137 -2.01721 0.177445 0
M  V30 2267 C 211.465 -1.5218 -1.21126 0
M  V30 2268 O 210.72 -0.708659 -1.82419 0
M  V30 2269 C 211.019 -3.57103 0.145563 0
M  V30 2270 C 210.685 -4.26021 1.47705 0
M  V30 2271 C 209.347 -4.44563 1.84165 0
M  V30 2272 C 211.699 -4.64983 2.35458 0
M  V30 2273 C 209.027 -4.99334 3.0803 0
M  V30 2274 C 211.379 -5.21127 3.58622 0
M  V30 2275 C 210.043 -5.37884 3.95268 0
M  V30 2276 H 209.313 -0.73815 0.0649317 0
M  V30 2277 H 211.96 -1.71446 0.853144 0
M  V30 2278 H 210.265 -3.86965 -0.61361 0
M  V30 2279 H 211.962 -4.00248 -0.2455 0
M  V30 2280 H 208.552 -4.11939 1.18339 0
M  V30 2281 H 212.736 -4.50343 2.08579 0
M  V30 2282 H 207.992 -5.10493 3.36462 0
M  V30 2283 H 212.166 -5.50262 4.26831 0
M  V30 2284 H 209.793 -5.80089 4.91325 0
M  V30 2285 N 211.368 -0.403325 -1.52352 0
M  V30 2286 C 212.298 0.416205 -2.29761 0
M  V30 2287 C 213.279 1.05123 -1.33728 0
M  V30 2288 O 214.464 1.06134 -1.62632 0
M  V30 2289 C 211.594 1.53624 -3.11475 0
M  V30 2290 C 210.548 1.02653 -4.15507 0
M  V30 2291 C 209.874 2.23971 -4.85532 0
M  V30 2292 C 211.174 0.08463 -5.22231 0
M  V30 2293 H 212.868 -0.229701 -2.98518 0
M  V30 2294 H 210.414 -0.111913 -1.43564 0
M  V30 2295 H 212.367 2.1165 -3.64393 0
M  V30 2296 H 211.091 2.20994 -2.40477 0
M  V30 2297 H 209.75 0.46871 -3.63591 0
M  V30 2298 H 209.398 2.89883 -4.11068 0
M  V30 2299 H 209.098 1.90521 -5.55856 0
M  V30 2300 H 210.622 2.82614 -5.41259 0
M  V30 2301 H 212.036 0.573509 -5.70424 0
M  V30 2302 H 210.433 -0.160783 -5.99885 0
M  V30 2303 H 211.503 -0.86237 -4.7717 0
M  V30 2304 N 212.846 1.57033 -0.133567 0
M  V30 2305 C 214.071 2.00475 0.531477 0
M  V30 2306 C 214.496 1.01291 1.58499 0
M  V30 2307 O 213.854 -0.0133279 1.81295 0
M  V30 2308 C 213.902 3.42729 1.12113 0
M  V30 2309 O 213.006 3.46498 2.23636 0
M  V30 2310 H 212.347 0.650876 0.131362 0
M  V30 2311 H 214.877 2.03344 -0.22634 0
M  V30 2312 H 214.887 3.81246 1.4531 0
M  V30 2313 H 213.562 4.14428 0.349557 0
M  V30 2314 H 212.139 3.19811 1.91769 0
M  V30 2315 N 214.325 -0.140222 1.56975 0
M  V30 2316 C 215.55 -0.870414 1.88251 0
M  V30 2317 C 215.975 -1.73637 0.723312 0
M  V30 2318 O 215.333 -1.78329 -0.32689 0
M  V30 2319 C 215.381 -1.69737 3.18154 0
M  V30 2320 O 214.485 -2.80229 3.02565 0
M  V30 2321 H 213.826 -0.242025 0.61832 0
M  V30 2322 H 216.356 -0.128999 2.04193 0
M  V30 2323 H 216.366 -2.09099 3.50345 0
M  V30 2324 H 215.041 -1.06152 4.02125 0
M  V30 2325 H 213.618 -2.44224 2.81796 0
M  V30 2326 N 215.803 -1.52179 -0.40978 0
M  V30 2327 C 216.751 -1.76086 -1.51975 0
M  V30 2328 C 217.745 -0.627964 -1.57331 0
M  V30 2329 O 218.951 -0.809993 -1.60745 0
M  V30 2330 H 215.326 -0.556829 -0.505416 0
M  V30 2331 H 217.297 -2.69077 -1.28996 0
M  V30 2332 C 216.046 -1.92799 -2.8935 0
M  V30 2333 H 215.369 -2.79392 -2.85972 0
M  V30 2334 H 216.809 -2.13527 -3.66309 0
M  V30 2335 C 215.268 -0.694923 -3.29655 0
M  V30 2336 O 215.798 0.13751 -4.01465 0
M  V30 2337 N 214.004 -0.53101 -2.85707 0
M  V30 2338 H 213.551 -1.20952 -2.27439 0
M  V30 2339 H 213.509 0.292718 -3.13034 0
M  V30 2340 N 217.281 0.66697 -1.42791 0
M  V30 2341 C 218.244 1.76211 -1.46568 0
M  V30 2342 C 219.244 1.56896 -0.352196 0
M  V30 2343 O 220.434 1.63044 -0.613364 0
M  V30 2344 C 217.566 3.14935 -1.30494 0
M  V30 2345 H 218.759 1.74247 -2.44086 0
M  V30 2346 H 216.312 0.877342 -1.29354 0
M  V30 2347 H 217.047 3.2252 -0.339301 0
M  V30 2348 H 216.832 3.30359 -2.11199 0
M  V30 2349 H 218.322 3.94821 -1.36038 0
M  V30 2350 N 218.759 1.29093 0.90403 0
M  V30 2351 C 219.722 1.1386 1.98919 0
M  V30 2352 C 220.722 0.0753457 1.60623 0
M  V30 2353 O 221.912 0.321931 1.71199 0
M  V30 2354 C 219.044 0.740198 3.32767 0
M  V30 2355 H 220.237 2.10246 2.13861 0
M  V30 2356 H 217.79 1.12218 1.08797 0
M  V30 2357 H 218.525 -0.223997 3.23525 0
M  V30 2358 H 218.31 1.50838 3.61926 0
M  V30 2359 H 219.8 0.656546 4.12407 0
M  V30 2360 N 220.237 -1.11381 1.11499 0
M  V30 2361 C 221.465 -1.86934 0.88675 0
M  V30 2362 C 221.88 -1.80195 -0.563476 0
M  V30 2363 O 221.237 -1.18367 -1.38908 0
M  V30 2364 C 221.288 -3.35722 1.34064 0
M  V30 2365 O 221.009 -3.4232 2.73401 0
M  V30 2366 C 222.51 -4.2818 1.14791 0
M  V30 2367 H 219.73 -0.591117 0.317523 0
M  V30 2368 H 222.274 -1.40865 1.48248 0
M  V30 2369 H 220.429 -3.79294 0.788355 0
M  V30 2370 H 220.843 -4.34971 2.93087 0
M  V30 2371 H 222.317 -5.30817 1.5145 0
M  V30 2372 H 222.794 -4.39113 0.0875279 0
M  V30 2373 H 223.4 -3.90402 1.68721 0
M  V30 2374 N 221.715 -0.905404 -1.28997 0
M  V30 2375 C 222.625 -0.392246 -2.31298 0
M  V30 2376 C 223.641 0.515889 -1.66176 0
M  V30 2377 O 224.817 0.404093 -1.97304 0
M  V30 2378 C 221.882 0.36686 -3.44754 0
M  V30 2379 C 220.943 -0.573485 -4.25452 0
M  V30 2380 C 220.176 0.149488 -5.33491 0
M  V30 2381 O 220.399 1.37255 -5.5364 0
M  V30 2382 O 219.333 -0.510919 -5.99728 0
M  V30 2383 H 223.159 -1.2411 -2.77183 0
M  V30 2384 H 220.744 -0.669926 -1.33538 0
M  V30 2385 H 222.626 0.795907 -4.13816 0
M  V30 2386 H 221.301 1.19169 -3.00966 0
M  V30 2387 H 220.208 -1.05176 -3.59011 0
M  V30 2388 H 221.541 -1.36489 -4.72897 0
M  V30 2389 N 223.193 1.4272 -0.668489 0
M  V30 2390 C 224.609 1.55992 -0.33745 0
M  V30 2391 C 224.809 1.64933 1.15756 0
M  V30 2392 O 223.865 1.61278 1.94282 0
M  V30 2393 C 225.178 2.81314 -1.06222 0
M  V30 2394 C 226.726 2.95078 -1.04394 0
M  V30 2395 C 227.201 4.23252 -1.74991 0
M  V30 2396 N 228.692 4.3015 -1.71829 0
M  V30 2397 C 229.427 5.28127 -2.23315 0
M  V30 2398 N 228.923 6.32293 -2.83156 0
M  V30 2399 N 230.716 5.19882 -2.13726 0
M  V30 2400 H 222.867 1.3516 -1.63846 0
M  V30 2401 H 225.13 0.650174 -0.689912 0
M  V30 2402 H 224.836 2.80823 -2.11734 0
M  V30 2403 H 224.71 3.72012 -0.62344 0
M  V30 2404 H 227.097 2.951 0.0028244 0
M  V30 2405 H 227.178 2.05627 -1.52155 0
M  V30 2406 H 226.822 4.2399 -2.79633 0
M  V30 2407 H 226.752 5.11626 -1.24685 0
M  V30 2408 H 229.243 3.55499 -1.28175 0
M  V30 2409 H 229.556 7.03398 -3.20079 0
M  V30 2410 H 227.901 6.32873 -2.87223 0
M  V30 2411 H 231.092 4.37423 -1.66669 0
M  V30 2412 H 231.265 5.96077 -2.54158 0
M  V30 2413 N 224.671 0.411399 1.52136 0
M  V30 2414 C 225.901 -0.16284 2.05957 0
M  V30 2415 C 226.309 -1.3922 1.28119 0
M  V30 2416 O 225.652 -1.80768 0.326881 0
M  V30 2417 C 225.714 -0.575946 3.54856 0
M  V30 2418 C 225.378 0.542998 4.53763 0
M  V30 2419 C 226.375 1.40726 5.00492 0
M  V30 2420 C 224.06 0.716337 4.97166 0
M  V30 2421 C 226.054 2.4298 5.8927 0
M  V30 2422 C 223.741 1.74218 5.8574 0
M  V30 2423 C 224.739 2.59731 6.31687 0
M  V30 2424 O 224.427 3.60558 7.18507 0
M  V30 2425 H 224.159 -0.0229125 0.675612 0
M  V30 2426 H 226.713 0.581634 1.96993 0
M  V30 2427 H 224.943 -1.37274 3.61515 0
M  V30 2428 H 226.632 -1.07836 3.91313 0
M  V30 2429 H 227.398 1.28476 4.67674 0
M  V30 2430 H 223.277 0.0603857 4.6096 0
M  V30 2431 H 226.821 3.0976 6.25055 0
M  V30 2432 H 222.718 1.86498 6.17971 0
M  V30 2433 H 223.486 3.56829 7.36624 0
M  V30 2434 N 226.149 -1.5696 0.141893 0
M  V30 2435 C 227.426 -1.87553 -0.555281 0
M  V30 2436 C 227.806 -1.04699 -1.83306 0
M  V30 2437 O 227.154 -0.132346 -2.28116 0
M  V30 2438 C 227.364 -3.39093 -0.825664 0
M  V30 2439 C 228.712 -4.08199 -1.16869 0
M  V30 2440 O 229.736 -3.44242 -0.915185 0
M  V30 2441 O 228.595 -5.21139 -1.6455 0
M  V30 2442 H 225.689 -0.777188 -0.282679 0
M  V30 2443 H 228.235 -1.68763 0.17812 0
M  V30 2444 H 227.007 -3.91221 0.0788633 0
M  V30 2445 H 226.63 -3.63393 -1.61343 0
M  V30 2446 N 227.627 0.131896 -1.57047 0
M  V30 2447 C 228.537 1.1815 -2.02676 0
M  V30 2448 C 229.553 1.46113 -0.944824 0
M  V30 2449 O 230.729 1.57485 -1.25541 0
M  V30 2450 C 227.794 2.49139 -2.41103 0
M  V30 2451 C 226.855 2.28688 -3.63318 0
M  V30 2452 C 226.088 3.53431 -3.99903 0
M  V30 2453 O 226.311 4.60223 -3.36973 0
M  V30 2454 O 225.245 3.45198 -4.93074 0
M  V30 2455 H 229.071 0.824069 -2.92306 0
M  V30 2456 H 226.656 0.341745 -1.45439 0
M  V30 2457 H 228.538 3.26338 -2.66611 0
M  V30 2458 H 227.213 2.84382 -1.54624 0
M  V30 2459 H 226.12 1.4939 -3.42977 0
M  V30 2460 H 227.453 1.98355 -4.50462 0
M  V30 2461 N 229.106 1.52395 0.401703 0
M  V30 2462 C 230.038 1.72505 1.50912 0
M  V30 2463 C 231.051 0.605468 1.51122 0
M  V30 2464 O 232.24 0.880828 1.55254 0
M  V30 2465 C 229.34 1.75711 2.89791 0
M  V30 2466 C 228.513 3.04824 3.1369 0
M  V30 2467 C 227.572 2.99743 4.32482 0
M  V30 2468 O 226.598 3.73635 4.29402 0
M  V30 2469 N 227.8 2.18047 5.37992 0
M  V30 2470 H 230.565 2.68049 1.34052 0
M  V30 2471 H 228.126 1.50724 0.591084 0
M  V30 2472 H 230.118 1.69834 3.6734 0
M  V30 2473 H 228.688 0.876092 3.00072 0
M  V30 2474 H 227.908 3.2429 2.24119 0
M  V30 2475 H 229.196 3.90221 3.26504 0
M  V30 2476 H 228.594 1.57456 5.43345 0
M  V30 2477 H 227.151 2.18021 6.14256 0
M  V30 2478 N 230.584 -0.659388 1.43143 0
M  V30 2479 C 231.812 -1.44723 1.47861 0
M  V30 2480 C 232.227 -1.88563 0.0945886 0
M  V30 2481 O 231.584 -1.59108 -0.893915 0
M  V30 2482 C 231.635 -2.68627 2.41913 0
M  V30 2483 O 231.356 -2.26623 3.74932 0
M  V30 2484 C 232.857 -3.62045 2.55809 0
M  V30 2485 H 230.077 -0.444801 0.502387 0
M  V30 2486 H 232.621 -0.808916 1.87821 0
M  V30 2487 H 230.776 -3.28613 2.05164 0
M  V30 2488 H 231.19 -3.06745 4.2545 0
M  V30 2489 H 232.664 -4.45666 3.25708 0
M  V30 2490 H 233.141 -4.08981 1.60099 0
M  V30 2491 H 233.747 -3.07944 2.93344 0
M  V30 2492 N 232.062 -1.29571 -0.897171 0
M  V30 2493 C 233.012 -1.11539 -1.98855 0
M  V30 2494 C 233.996 -0.0340716 -1.60864 0
M  V30 2495 O 235.188 -0.256062 -1.75138 0
M  V30 2496 C 232.317 -0.796603 -3.3393 0
M  V30 2497 C 231.403 -1.91758 -3.78272 0
M  V30 2498 N 231.794 -3.16143 -3.94826 0
M  V30 2499 C 230.092 -1.81119 -4.07568 0
M  V30 2500 C 230.793 -3.89293 -4.32233 0
M  V30 2501 N 229.769 -3.17255 -4.41419 0
M  V30 2502 H 233.571 -2.05894 -2.09726 0
M  V30 2503 H 231.085 -1.20732 -1.08616 0
M  V30 2504 H 233.082 -0.648459 -4.11826 0
M  V30 2505 H 231.742 0.139003 -3.24402 0
M  V30 2506 H 232.753 -3.5157 -3.80288 0
M  V30 2507 H 229.43 -0.948461 -4.06584 0
M  V30 2508 H 230.82 -4.9635 -4.52865 0
M  V30 2509 N 233.54 1.10788 -1.12088 0
M  V30 2510 C 234.503 2.15207 -0.788577 0
M  V30 2511 C 235.503 1.59609 0.195317 0
M  V30 2512 O 236.693 1.74174 -0.0300193 0
M  V30 2513 C 233.825 3.4047 -0.171174 0
M  V30 2514 H 235.018 2.46116 -1.71368 0
M  V30 2515 H 232.571 1.26089 -0.923652 0
M  V30 2516 H 233.306 3.15176 0.763832 0
M  V30 2517 H 233.091 3.82109 -0.879514 0
M  V30 2518 H 234.581 4.17576 0.04496 0
M  V30 2519 N 235.018 0.912232 1.28515 0
M  V30 2520 C 235.981 0.404223 2.25607 0
M  V30 2521 C 236.981 -0.468602 1.53821 0
M  V30 2522 O 238.171 -0.271873 1.72065 0
M  V30 2523 C 235.303 -0.420653 3.38295 0
M  V30 2524 H 236.496 1.26188 2.7206 0
M  V30 2525 H 234.049 0.691495 1.40171 0
M  V30 2526 H 234.784 -1.29777 2.97201 0
M  V30 2527 H 234.569 0.204935 3.91564 0
M  V30 2528 H 236.059 -0.766971 4.10496 0
M  V30 2529 N 236.496 -1.42363 0.676048 0
M  V30 2530 C 237.745 -2.00745 0.196037 0
M  V30 2531 C 238.058 -1.54083 -1.20489 0
M  V30 2532 O 239.264 -2.04891 -1.78134 0
M  V30 2533 C 237.72 -3.58651 0.299616 0
M  V30 2534 C 237.328 -4.143 1.70468 0
M  V30 2535 C 239.072 -4.24326 -0.121619 0
M  V30 2536 C 236.979 -5.64574 1.76096 0
M  V30 2537 H 235.909 -0.750787 0.0695301 0
M  V30 2538 H 238.56 -1.63072 0.841412 0
M  V30 2539 H 236.942 -3.93833 -0.413673 0
M  V30 2540 H 238.116 -3.90575 2.44515 0
M  V30 2541 H 236.431 -3.61081 2.07387 0
M  V30 2542 H 239.028 -5.34607 -0.0997362 0
M  V30 2543 H 239.371 -3.99897 -1.15708 0
M  V30 2544 H 239.904 -3.94108 0.540706 0
M  V30 2545 H 236.643 -5.93804 2.77628 0
M  V30 2546 H 236.163 -5.90286 1.06406 0
M  V30 2547 H 237.842 -6.29013 1.51496 0
M  V30 2548 N 237.974 -0.419461 -1.51915 0
M  V30 2549 C 238.884 0.407528 -2.31033 0
M  V30 2550 C 239.9 1.04413 -1.3919 0
M  V30 2551 O 241.076 1.0434 -1.72265 0
M  V30 2552 C 238.141 1.50365 -3.12396 0
M  V30 2553 C 237.202 0.889029 -4.19994 0
M  V30 2554 C 236.435 1.93291 -4.97468 0
M  V30 2555 O 236.658 3.15259 -4.75361 0
M  V30 2556 O 235.592 1.53339 -5.8204 0
M  V30 2557 H 239.418 -0.237865 -3.02767 0
M  V30 2558 H 237.003 -0.182413 -1.48282 0
M  V30 2559 H 238.885 2.13975 -3.63032 0
M  V30 2560 H 237.56 2.13345 -2.43445 0
M  V30 2561 H 236.467 0.215353 -3.7348 0
M  V30 2562 H 237.8 0.302991 -4.91267 0
M  V30 2563 N 239.452 1.56882 -0.150215 0
M  V30 2564 C 240.868 1.58263 0.20617 0
M  V30 2565 C 241.068 1.16464 1.64434 0
M  V30 2566 O 240.124 0.866422 2.3717 0
M  V30 2567 C 241.437 3.00649 -0.0555025 0
M  V30 2568 C 242.985 3.12999 0.00795388 0
M  V30 2569 C 243.46 4.5744 -0.226429 0
M  V30 2570 N 244.951 4.62875 -0.173469 0
M  V30 2571 C 245.686 5.72454 -0.329288 0
M  V30 2572 N 245.182 6.90669 -0.543005 0
M  V30 2573 N 246.975 5.61467 -0.266666 0
M  V30 2574 H 239.126 1.82345 -1.08922 0
M  V30 2575 H 241.389 0.844149 -0.431413 0
M  V30 2576 H 241.095 3.3563 -1.05096 0
M  V30 2577 H 240.969 3.71337 0.66246 0
M  V30 2578 H 243.356 2.77857 0.993966 0
M  V30 2579 H 243.437 2.4479 -0.742388 0
M  V30 2580 H 243.081 4.93287 -1.20956 0
M  V30 2581 H 243.011 5.2378 0.544274 0
M  V30 2582 H 245.502 3.77898 -0.0130709 0
M  V30 2583 H 245.815 7.70045 -0.651922 0
M  V30 2584 H 244.16 6.92581 -0.579366 0
M  V30 2585 H 247.351 4.67992 -0.100441 0
M  V30 2586 H 247.524 6.46816 -0.391535 0
M  V30 2587 N 240.93 -0.123565 1.57115 0
M  V30 2588 C 241.877 -1.15177 2.00007 0
M  V30 2589 C 242.847 -1.41403 0.871454 0
M  V30 2590 O 244.032 -1.53346 1.13533 0
M  V30 2591 C 241.172 -2.47436 2.40561 0
M  V30 2592 C 240.285 -2.28184 3.66819 0
M  V30 2593 C 239.42 -3.53641 3.96373 0
M  V30 2594 C 238.459 -3.29528 5.15827 0
M  V30 2595 N 237.596 -4.47175 5.41275 0
M  V30 2596 H 242.436 -0.779008 2.87638 0
M  V30 2597 H 239.973 -0.373166 1.42288 0
M  V30 2598 H 241.931 -3.24584 2.62109 0
M  V30 2599 H 240.561 -2.82614 1.55978 0
M  V30 2600 H 239.613 -1.41976 3.52912 0
M  V30 2601 H 240.925 -2.0634 4.5412 0
M  V30 2602 H 240.079 -4.39209 4.18545 0
M  V30 2603 H 238.818 -3.78512 3.07538 0
M  V30 2604 H 237.823 -2.42349 4.93505 0
M  V30 2605 H 239.048 -3.06031 6.06236 0
M  V30 2606 H 236.994 -4.72175 4.55397 0
M  V30 2607 H 236.911 -4.28419 6.22891 0
M  V30 2608 H 238.179 -5.3389 5.67963 0
M  V30 2609 N 242.408 -1.52605 -0.393616 0
M  V30 2610 C 243.654 -1.67672 -1.14079 0
M  V30 2611 C 243.987 -0.413121 -1.89755 0
M  V30 2612 O 243.262 0.588952 -1.85369 0
M  V30 2613 C 243.545 -2.9088 -2.12276 0
M  V30 2614 C 243.398 -4.27329 -1.40394 0
M  V30 2615 C 244.717 -3.09628 -3.12759 0
M  V30 2616 H 241.836 -0.610168 -0.413356 0
M  V30 2617 H 244.478 -1.85193 -0.424696 0
M  V30 2618 H 242.628 -2.76073 -2.73342 0
M  V30 2619 H 244.3 -4.53894 -0.82327 0
M  V30 2620 H 242.543 -4.2802 -0.705801 0
M  V30 2621 H 243.214 -5.09615 -2.12123 0
M  V30 2622 H 245.69 -3.23436 -2.61779 0
M  V30 2623 H 244.566 -3.97322 -3.78717 0
M  V30 2624 H 244.827 -2.23637 -3.81365 0
M  V30 2625 N 243.887 0.651787 -1.4349 0
M  V30 2626 C 245.134 1.41167 -1.45183 0
M  V30 2627 C 245.462 1.94349 -0.0766601 0
M  V30 2628 O 244.717 1.72804 0.918555 0
M  V30 2629 C 245.016 2.60914 -2.44251 0
M  V30 2630 C 244.682 2.26142 -3.9009 0
M  V30 2631 C 243.344 2.16371 -4.2981 0
M  V30 2632 C 245.696 1.98334 -4.81989 0
M  V30 2633 C 243.024 1.7695 -5.5938 0
M  V30 2634 C 245.376 1.6041 -6.11924 0
M  V30 2635 C 244.04 1.49166 -6.5062 0
M  V30 2636 H 243.31 0.516566 -0.531263 0
M  V30 2637 H 245.957 0.741099 -1.76579 0
M  V30 2638 H 244.262 3.3311 -2.06265 0
M  V30 2639 H 245.959 3.19127 -2.42815 0
M  V30 2640 H 242.549 2.34658 -3.58655 0
M  V30 2641 H 246.733 2.04803 -4.52072 0
M  V30 2642 H 241.989 1.66831 -5.88198 0
M  V30 2643 H 246.163 1.37925 -6.82605 0
M  V30 2644 H 243.79 1.1839 -7.50925 0
M  V30 2645 N 245.365 1.30045 0.890287 0
M  V30 2646 C 246.613 1.18327 1.63839 0
M  V30 2647 C 246.934 -0.263455 1.93212 0
M  V30 2648 O 246.204 -1.17856 1.56482 0
M  V30 2649 H 244.784 0.434933 0.607324 0
M  V30 2650 H 247.446 1.631 1.06698 0
M  V30 2651 H 246.542 1.74024 2.59079 0
M  V30 2652 N 246.843 -1.10192 1.12674 0
M  V30 2653 C 248.089 -1.82475 0.884915 0
M  V30 2654 C 248.422 -1.85093 -0.58773 0
M  V30 2655 O 247.697 -1.3134 -1.43457 0
M  V30 2656 C 247.98 -3.29018 1.46353 0
M  V30 2657 C 247.833 -3.34718 3.00473 0
M  V30 2658 C 249.152 -4.25473 1.12519 0
M  V30 2659 H 246.271 -0.662492 0.322915 0
M  V30 2660 H 248.913 -1.2913 1.39375 0
M  V30 2661 H 247.063 -3.74576 1.03077 0
M  V30 2662 H 248.735 -2.97622 3.52447 0
M  V30 2663 H 246.978 -2.74541 3.35872 0
M  V30 2664 H 247.649 -4.37918 3.36053 0
M  V30 2665 H 250.125 -3.88161 1.499 0
M  V30 2666 H 249.001 -5.26365 1.55663 0
M  V30 2667 H 249.262 -4.42084 0.0377407 0
M  V30 2668 N 248.321 -0.919034 -1.28029 0
M  V30 2669 C 249.732 -0.600735 -1.76771 0
M  V30 2670 C 250.083 0.884024 -1.75156 0
M  V30 2671 O 249.208 1.69163 -1.34956 0
M  V30 2672 C 249.803 -1.08372 -3.21 0
M  V30 2673 C 248.362 -0.816248 -3.67443 0
M  V30 2674 C 247.509 -1.24742 -2.47658 0
M  V30 2675 H 250.46 -1.09974 -1.14418 0
M  V30 2676 H 250.481 -0.427512 -3.78091 0
M  V30 2677 H 249.993 -2.16437 -3.22144 0
M  V30 2678 H 248.094 0.250968 -3.71754 0
M  V30 2679 H 248.207 -1.4277 -4.57333 0
M  V30 2680 H 246.571 -0.666083 -2.45836 0
M  V30 2681 H 247.354 -2.33653 -2.51518 0
M  V30 2682 N 249.799 1.42003 -0.683588 0
M  V30 2683 C 251.027 2.05746 -0.218182 0
M  V30 2684 C 251.442 1.51396 1.12804 0
M  V30 2685 O 250.799 0.657303 1.70252 0
M  V30 2686 C 250.85 3.61171 -0.154131 0
M  V30 2687 O 250.571 4.13508 -1.44716 0
M  V30 2688 C 252.072 4.42042 0.333713 0
M  V30 2689 H 249.292 0.662888 -0.10402 0
M  V30 2690 H 251.836 1.81987 -0.9328 0
M  V30 2691 H 249.991 3.84012 0.511231 0
M  V30 2692 H 250.405 5.07453 -1.32632 0
M  V30 2693 H 251.879 5.51028 0.327423 0
M  V30 2694 H 252.356 4.17269 1.37053 0
M  V30 2695 H 252.962 4.24239 -0.300222 0
M  V30 2696 N 251.277 0.427512 1.51691 0
M  V30 2697 C 252.21 -0.433876 2.24037 0
M  V30 2698 C 253.188 -1.03287 1.25581 0
M  V30 2699 O 254.372 -1.07722 1.54688 0
M  V30 2700 C 251.499 -1.60385 2.98319 0
M  V30 2701 C 250.545 -1.12648 4.11355 0
M  V30 2702 S 251.378 -0.076543 5.35445 0
M  V30 2703 C 252.534 -1.25141 6.13262 0
M  V30 2704 H 252.767 0.180367 2.96752 0
M  V30 2705 H 250.3 0.211946 1.52938 0
M  V30 2706 H 252.258 -2.27462 3.41718 0
M  V30 2707 H 250.919 -2.18948 2.25213 0
M  V30 2708 H 250.112 -2.0011 4.62571 0
M  V30 2709 H 249.714 -0.534088 3.70167 0
M  V30 2710 H 252.006 -2.17162 6.41753 0
M  V30 2711 H 252.949 -0.779411 7.03797 0
M  V30 2712 H 253.357 -1.48553 5.44603 0
M  V30 2713 N 252.755 -1.56801 0.158532 0
M  V30 2714 C 254.002 -1.9649 -0.489679 0
M  V30 2715 C 254.33 -1.04394 -1.6411 0
M  V30 2716 O 253.585 -0.0754401 -1.95555 0
M  V30 2717 C 253.884 -3.4235 -1.02623 0
M  V30 2718 C 253.55 -4.50899 0.00794526 0
M  V30 2719 C 252.212 -4.80312 0.292207 0
M  V30 2720 C 254.564 -5.16333 0.710584 0
M  V30 2721 C 251.892 -5.72461 1.28472 0
M  V30 2722 C 254.244 -6.09553 1.69199 0
M  V30 2723 C 252.908 -6.37339 1.98383 0
M  V30 2724 H 252.178 -0.719009 -0.179186 0
M  V30 2725 H 254.825 -1.8989 0.247798 0
M  V30 2726 H 253.13 -3.45838 -1.84128 0
M  V30 2727 H 254.827 -3.70393 -1.53656 0
M  V30 2728 H 251.417 -4.28015 -0.22379 0
M  V30 2729 H 255.601 -4.93732 0.504174 0
M  V30 2730 H 250.857 -5.92278 1.51714 0
M  V30 2731 H 255.031 -6.59327 2.24189 0
M  V30 2732 H 252.658 -7.08546 2.7544 0
M  V30 2733 N 254.233 0.115231 -1.57178 0
M  V30 2734 C 255.163 1.1423 -2.03651 0
M  V30 2735 C 256.144 1.42967 -0.921655 0
M  V30 2736 O 257.329 1.53343 -1.19162 0
M  V30 2737 C 254.459 2.4675 -2.44401 0
M  V30 2738 C 253.413 2.32467 -3.59365 0
M  V30 2739 C 252.739 3.69984 -3.86026 0
M  V30 2740 C 254.039 1.78203 -4.90959 0
M  V30 2741 H 255.733 0.755749 -2.89705 0
M  V30 2742 H 253.279 0.362093 -1.39373 0
M  V30 2743 H 255.232 3.18854 -2.75517 0
M  V30 2744 H 253.956 2.87302 -1.55322 0
M  V30 2745 H 252.615 1.62811 -3.28463 0
M  V30 2746 H 252.263 4.08028 -2.94147 0
M  V30 2747 H 251.963 3.61279 -4.63412 0
M  V30 2748 H 253.487 4.43587 -4.19599 0
M  V30 2749 H 254.901 2.40128 -5.20587 0
M  V30 2750 H 253.298 1.8031 -5.72371 0
M  V30 2751 H 254.368 0.739876 -4.79222 0
M  V30 2752 N 255.711 1.52812 0.385517 0
M  V30 2753 C 256.959 1.67694 1.12797 0
M  V30 2754 C 257.28 0.421115 1.90399 0
M  V30 2755 O 256.55 -0.564551 1.87589 0
M  V30 2756 H 255.13 0.618155 0.419396 0
M  V30 2757 H 257.792 1.89938 0.436972 0
M  V30 2758 H 256.888 2.52896 1.82894 0
M  V30 2759 N 257.189 -0.644168 1.43834 0
M  V30 2760 C 258.466 -1.40188 1.36406 0
M  V30 2761 C 258.846 -2.11094 0.0163124 0
M  V30 2762 O 258.194 -2.05426 -1.00062 0
M  V30 2763 C 258.404 -2.3791 2.55343 0
M  V30 2764 C 259.752 -3.01637 2.98832 0
M  V30 2765 O 260.776 -2.48237 2.55455 0
M  V30 2766 O 259.635 -3.98477 3.74003 0
M  V30 2767 H 256.729 -0.626773 0.539523 0
M  V30 2768 H 259.275 -0.670317 1.559 0
M  V30 2769 H 258.047 -1.84525 3.4506 0
M  V30 2770 H 257.67 -3.18503 2.37995 0
M  V30 2771 N 258.668 -1.30515 -0.883378 0
M  V30 2772 C 259.578 -1.18959 -2.02203 0
M  V30 2773 C 260.594 -0.109172 -1.73657 0
M  V30 2774 O 261.77 -0.324413 -1.9877 0
M  V30 2775 C 258.835 -0.883871 -3.35244 0
M  V30 2776 C 257.896 -2.04982 -3.77201 0
M  V30 2777 C 257.129 -1.75859 -5.03894 0
M  V30 2778 O 257.352 -0.687276 -5.66244 0
M  V30 2779 O 256.286 -2.61146 -5.42297 0
M  V30 2780 H 260.112 -2.14616 -2.1488 0
M  V30 2781 H 257.697 -1.10124 -1.0096 0
M  V30 2782 H 259.579 -0.728644 -4.15053 0
M  V30 2783 H 258.254 0.0427798 -3.23672 0
M  V30 2784 H 257.161 -2.26038 -2.9809 0
M  V30 2785 H 258.494 -2.95825 -3.93381 0
M  V30 2786 N 260.146 1.09593 -1.13257 0
M  V30 2787 C 261.079 2.15451 -0.752061 0
M  V30 2788 C 262.057 1.60493 0.260913 0
M  V30 2789 O 263.241 1.8788 0.152819 0
M  V30 2790 C 260.368 3.38506 -0.114594 0
M  V30 2791 C 259.414 4.12183 -1.09579 0
M  V30 2792 S 260.247 4.6661 -2.62745 0
M  V30 2793 C 261.403 5.92966 -2.00354 0
M  V30 2794 H 261.636 2.47395 -1.64872 0
M  V30 2795 H 259.169 1.21515 -0.952545 0
M  V30 2796 H 261.127 4.09757 0.246808 0
M  V30 2797 H 259.788 3.04784 0.759309 0
M  V30 2798 H 258.981 5.00445 -0.597545 0
M  V30 2799 H 258.583 3.46785 -1.40057 0
M  V30 2800 H 260.875 6.63882 -1.35156 0
M  V30 2801 H 261.818 6.47467 -2.86691 0
M  V30 2802 H 262.226 5.45405 -1.4558 0
M  V30 2803 N 261.624 0.925811 1.2754 0
M  V30 2804 C 262.87 0.575575 1.95086 0
M  V30 2805 C 263.225 -0.873246 1.71441 0
M  V30 2806 O 262.518 -1.61443 1.03183 0
M  V30 2807 C 262.712 0.835296 3.47502 0
M  V30 2808 C 262.541 2.30781 3.85967 0
M  V30 2809 C 261.311 2.96017 4.09514 0
M  V30 2810 C 263.509 3.28519 3.95702 0
M  V30 2811 N 261.491 4.3344 4.34744 0
M  V30 2812 C 262.862 4.51146 4.25285 0
M  V30 2813 C 264.917 3.23753 3.7827 0
M  V30 2814 C 263.62 5.69606 4.39251 0
M  V30 2815 C 265.646 4.41523 3.9346 0
M  V30 2816 C 265.008 5.62928 4.23428 0
M  V30 2817 H 261.107 0.260711 0.737261 0
M  V30 2818 H 263.691 1.19204 1.53943 0
M  V30 2819 H 261.862 0.248005 3.87607 0
M  V30 2820 H 263.594 0.447878 4.02214 0
M  V30 2821 H 260.349 2.46695 4.04275 0
M  V30 2822 H 260.773 5.04528 4.5142 0
M  V30 2823 H 265.415 2.3096 3.54143 0
M  V30 2824 H 263.133 6.62866 4.62205 0
M  V30 2825 H 266.719 4.39351 3.81394 0
M  V30 2826 H 265.599 6.52538 4.34929 0
M  V30 2827 N 263.102 -1.41638 0.69111 0
M  V30 2828 C 264.348 -2.02104 0.229258 0
M  V30 2829 C 264.703 -1.53741 -1.15678 0
M  V30 2830 O 263.996 -0.736849 -1.76865 0
M  V30 2831 C 264.19 -3.56714 0.221277 0
M  V30 2832 C 264.019 -4.20083 1.605 0
M  V30 2833 C 262.789 -4.54566 2.20676 0
M  V30 2834 C 264.987 -4.46587 2.55078 0
M  V30 2835 N 262.969 -5.03199 3.5166 0
M  V30 2836 C 264.34 -4.96946 3.70735 0
M  V30 2837 C 266.395 -4.28593 2.53401 0
M  V30 2838 C 265.098 -5.31203 4.8499 0
M  V30 2839 C 267.124 -4.63936 3.66765 0
M  V30 2840 C 266.486 -5.14463 4.81152 0
M  V30 2841 H 262.585 -0.771256 0.12918 0
M  V30 2842 H 265.169 -1.72251 0.907626 0
M  V30 2843 H 263.34 -3.86051 -0.426562 0
M  V30 2844 H 265.072 -4.03896 -0.254983 0
M  V30 2845 H 261.827 -4.4087 1.73005 0
M  V30 2846 H 262.251 -5.31926 4.18789 0
M  V30 2847 H 266.893 -3.88771 1.66184 0
M  V30 2848 H 264.611 -5.69951 5.72871 0
M  V30 2849 H 268.197 -4.51677 3.66714 0
M  V30 2850 H 267.077 -5.41299 5.67419 0
M  V30 2851 N 264.58 -0.43555 -1.51462 0
M  V30 2852 C 265.828 0.131254 -2.01673 0
M  V30 2853 C 266.149 1.43368 -1.32177 0
M  V30 2854 O 265.419 1.90524 -0.455769 0
M  V30 2855 H 263.999 0.0514954 -0.745223 0
M  V30 2856 H 266.661 -0.577847 -1.86137 0
M  V30 2857 H 265.757 0.308446 -3.10572 0
M  V30 2858 N 266.058 1.56714 -0.166846 0
M  V30 2859 C 267.006 2.19056 0.782123 0
M  V30 2860 C 268 1.15328 1.24079 0
M  V30 2861 O 269.206 1.33537 1.20697 0
M  V30 2862 H 265.581 0.70167 0.270486 0
M  V30 2863 H 267.552 2.97494 0.232322 0
M  V30 2864 C 266.301 2.84206 2.00306 0
M  V30 2865 H 265.624 3.63748 1.65914 0
M  V30 2866 H 267.064 3.31302 2.64604 0
M  V30 2867 C 265.523 1.83744 2.82382 0
M  V30 2868 O 266.053 1.32014 3.79388 0
M  V30 2869 N 264.259 1.52601 2.47308 0
M  V30 2870 H 263.806 1.9486 1.68485 0
M  V30 2871 H 263.764 0.856351 3.02513 0
M  V30 2872 N 267.536 -0.106894 1.57237 0
M  V30 2873 C 268.813 -0.843526 1.76477 0
M  V30 2874 C 269.193 -1.97499 0.745464 0
M  V30 2875 O 268.541 -2.27357 -0.228306 0
M  V30 2876 C 268.751 -1.34903 3.21873 0
M  V30 2877 C 270.099 -1.79654 3.8472 0
M  V30 2878 O 271.123 -1.44554 3.2555 0
M  V30 2879 O 269.982 -2.44515 4.88748 0
M  V30 2880 H 267.076 -0.401468 0.723016 0
M  V30 2881 H 269.622 -0.0896927 1.69463 0
M  V30 2882 H 268.394 -0.53781 3.87586 0
M  V30 2883 H 268.017 -2.16522 3.33473 0
M  V30 2884 N 269.014 -1.53014 -0.377408 0
M  V30 2885 C 270.43 -1.42523 -0.718281 0
M  V30 2886 C 270.63 -0.55487 -1.9371 0
M  V30 2887 O 269.686 -0.0327593 -2.52479 0
M  V30 2888 C 270.999 -2.85546 -0.942539 0
M  V30 2889 C 272.547 -2.95101 -1.04329 0
M  V30 2890 C 273.022 -4.3916 -1.3001 0
M  V30 2891 N 274.513 -4.42536 -1.36806 0
M  V30 2892 C 275.248 -5.51097 -1.58364 0
M  V30 2893 N 274.744 -6.69724 -1.77317 0
M  V30 2894 N 276.537 -5.38657 -1.60638 0
M  V30 2895 H 268.688 -2.08116 0.424426 0
M  V30 2896 H 270.951 -0.939352 0.127759 0
M  V30 2897 H 270.657 -3.51499 -0.118929 0
M  V30 2898 H 270.531 -3.28493 -1.85397 0
M  V30 2899 H 272.918 -2.29309 -1.85745 0
M  V30 2900 H 272.999 -2.55566 -0.109505 0
M  V30 2901 H 272.643 -5.05521 -0.490991 0
M  V30 2902 H 272.573 -4.76258 -2.24691 0
M  V30 2903 H 275.064 -3.57039 -1.23821 0
M  V30 2904 H 275.377 -7.48233 -1.93306 0
M  V30 2905 H 273.722 -6.72732 -1.74518 0
M  V30 2906 H 276.913 -4.44948 -1.45391 0
M  V30 2907 H 277.086 -6.2333 -1.77098 0
M  V30 2908 N 270.492 0.636531 -1.44174 0
M  V30 2909 C 271.422 1.76003 -1.53444 0
M  V30 2910 C 272.403 1.65619 -0.387841 0
M  V30 2911 O 273.588 1.84461 -0.607257 0
M  V30 2912 C 270.718 3.14511 -1.4731 0
M  V30 2913 C 269.672 3.39677 -2.60391 0
M  V30 2914 C 268.998 4.78159 -2.39308 0
M  V30 2915 C 270.298 3.32772 -4.02567 0
M  V30 2916 H 271.992 1.68501 -2.47483 0
M  V30 2917 H 269.538 0.809237 -1.19111 0
M  V30 2918 H 271.491 3.92878 -1.52397 0
M  V30 2919 H 270.215 3.22783 -0.49785 0
M  V30 2920 H 268.874 2.63688 -2.54684 0
M  V30 2921 H 268.522 4.83128 -1.39988 0
M  V30 2922 H 268.222 4.95956 -3.15122 0
M  V30 2923 H 269.746 5.58762 -2.46205 0
M  V30 2924 H 271.16 4.01051 -4.09672 0
M  V30 2925 H 269.557 3.62104 -4.7854 0
M  V30 2926 H 270.627 2.30669 -4.2652 0
M  V30 2927 N 271.97 1.30982 0.876444 0
M  V30 2928 C 273.217 1.20296 1.62896 0
M  V30 2929 C 273.545 -0.240395 1.93009 0
M  V30 2930 O 272.8 -1.18733 1.55567 0
M  V30 2931 C 273.099 1.98572 2.9716 0
M  V30 2932 C 272.765 3.48125 2.86566 0
M  V30 2933 C 271.427 3.88905 2.83383 0
M  V30 2934 C 273.779 4.43322 2.74071 0
M  V30 2935 C 271.107 5.2316 2.65556 0
M  V30 2936 C 273.459 5.77695 2.57781 0
M  V30 2937 C 272.123 6.17704 2.52979 0
M  V30 2938 H 271.393 0.440193 0.59608 0
M  V30 2939 H 274.04 1.62177 1.01837 0
M  V30 2940 H 272.345 1.49352 3.62217 0
M  V30 2941 H 274.042 1.8769 3.54364 0
M  V30 2942 H 270.632 3.15723 2.89856 0
M  V30 2943 H 274.816 4.12752 2.75589 0
M  V30 2944 H 270.072 5.53241 2.60259 0
M  V30 2945 H 274.246 6.51091 2.47089 0
M  V30 2946 H 271.873 7.21678 2.38924 0
M  V30 2947 N 273.449 -1.08991 1.13837 0
M  V30 2948 C 274.382 -2.15049 0.763477 0
M  V30 2949 C 275.36 -1.60629 -0.252398 0
M  V30 2950 O 276.544 -1.87958 -0.142853 0
M  V30 2951 C 273.671 -3.38441 0.132545 0
M  V30 2952 C 272.717 -4.11596 1.11763 0
M  V30 2953 S 273.55 -4.6521 2.65216 0
M  V30 2954 C 274.706 -5.91896 2.03495 0
M  V30 2955 H 274.939 -2.46518 1.66182 0
M  V30 2956 H 272.472 -1.21008 0.958976 0
M  V30 2957 H 274.43 -4.09883 -0.225074 0
M  V30 2958 H 273.091 -3.05182 -0.743135 0
M  V30 2959 H 272.284 -5.00121 0.624076 0
M  V30 2960 H 271.886 -3.46038 1.41894 0
M  V30 2961 H 274.178 -6.63156 1.38675 0
M  V30 2962 H 275.121 -6.45938 2.9012 0
M  V30 2963 H 275.529 -5.44625 1.48471 0
M  V30 2964 N 274.927 -0.932562 -1.27047 0
M  V30 2965 C 275.857 -0.452902 -2.29066 0
M  V30 2966 C 276.838 0.489338 -1.62909 0
M  V30 2967 O 278.023 0.393046 -1.90181 0
M  V30 2968 C 275.153 0.290698 -3.46081 0
M  V30 2969 C 274.107 -0.564168 -4.24265 0
M  V30 2970 C 273.433 0.308886 -5.33807 0
M  V30 2971 C 274.733 -1.83112 -4.89149 0
M  V30 2972 H 276.427 -1.30552 -2.69437 0
M  V30 2973 H 273.973 -0.629201 -1.29526 0
M  V30 2974 H 275.926 0.637233 -4.16554 0
M  V30 2975 H 274.65 1.17738 -3.0464 0
M  V30 2976 H 273.309 -0.893477 -3.55545 0
M  V30 2977 H 272.957 1.19467 -4.88607 0
M  V30 2978 H 272.657 -0.259633 -5.87026 0
M  V30 2979 H 274.181 0.650884 -6.07121 0
M  V30 2980 H 275.595 -1.55236 -5.51883 0
M  V30 2981 H 273.992 -2.34353 -5.52448 0
M  V30 2982 H 275.062 -2.54772 -4.12576 0
M  V30 2983 N 276.405 1.4127 -0.698611 0
M  V30 2984 C 277.315 2.34573 -0.0357891 0
M  V30 2985 C 278.331 1.56393 0.762701 0
M  V30 2986 O 279.507 1.8886 0.699564 0
M  V30 2987 C 276.572 3.35159 0.887089 0
M  V30 2988 C 275.633 4.29225 0.0804634 0
M  V30 2989 C 274.866 5.25006 0.959387 0
M  V30 2990 O 275.089 5.26314 2.19886 0
M  V30 2991 O 274.023 6.00519 0.407439 0
M  V30 2992 H 277.849 2.92838 -0.804957 0
M  V30 2993 H 275.434 1.42175 -0.458966 0
M  V30 2994 H 277.316 3.9689 1.41621 0
M  V30 2995 H 275.991 2.79333 1.6357 0
M  V30 2996 H 274.898 3.70833 -0.493328 0
M  V30 2997 H 276.231 4.88157 -0.629547 0
M  V30 2998 N 277.883 0.443576 1.51229 0
M  V30 2999 C 279.108 -0.121648 2.07043 0
M  V30 3000 C 279.533 -1.35156 1.30823 0
M  V30 3001 O 278.891 -1.7793 0.347934 0
M  V30 3002 C 278.939 -0.41624 3.5819 0
M  V30 3003 O 278.043 -1.50163 3.8409 0
M  V30 3004 H 277.384 0.000871367 0.663999 0
M  V30 3005 H 279.914 0.626706 1.94765 0
M  V30 3006 H 279.924 -0.664867 4.02546 0
M  V30 3007 H 278.599 0.482653 4.1309 0
M  V30 3008 H 277.176 -1.24248 3.51592 0
M  V30 3009 N 279.361 -1.56624 0.175154 0
M  V30 3010 C 280.324 -2.16934 -0.739738 0
M  V30 3011 C 281.324 -1.11842 -1.15533 0
M  V30 3012 O 282.514 -1.37335 -1.07167 0
M  V30 3013 C 279.646 -2.75531 -2.00738 0
M  V30 3014 H 280.839 -2.99131 -0.214639 0
M  V30 3015 H 278.392 -1.56123 -0.0744197 0
M  V30 3016 H 279.127 -1.97078 -2.57548 0
M  V30 3017 H 278.912 -3.52444 -1.71831 0
M  V30 3018 H 280.402 -3.21904 -2.66021 0
M  V30 3019 N 280.839 0.0985539 -1.57292 0
M  V30 3020 C 281.772 1.15082 -1.97057 0
M  V30 3021 C 282.75 1.39025 -0.843255 0
M  V30 3022 O 283.934 1.52842 -1.10325 0
M  V30 3023 C 281.061 2.50069 -2.28437 0
M  V30 3024 C 280.107 2.42428 -3.509 0
M  V30 3025 S 280.94 1.84414 -5.02744 0
M  V30 3026 C 282.096 3.21032 -5.37298 0
M  V30 3027 H 282.329 0.811815 -2.86002 0
M  V30 3028 H 279.862 0.306102 -1.51335 0
M  V30 3029 H 281.82 3.27729 -2.47192 0
M  V30 3030 H 280.481 2.8114 -1.40069 0
M  V30 3031 H 279.674 3.41911 -3.70288 0
M  V30 3032 H 279.276 1.72896 -3.31637 0
M  V30 3033 H 281.568 4.17297 -5.33731 0
M  V30 3034 H 282.511 3.06452 -6.38352 0
M  V30 3035 H 282.919 3.20404 -4.64759 0
M  V30 3036 N 282.317 1.53212 0.369288 0
M  V30 3037 C 283.565 1.68881 1.11012 0
M  V30 3038 C 283.886 0.441285 1.89941 0
M  V30 3039 O 283.156 -0.544623 1.88177 0
M  V30 3040 H 281.736 0.622569 0.412816 0
M  V30 3041 H 284.398 1.90391 0.416802 0
M  V30 3042 H 283.494 2.54822 1.80201 0
M  V30 3043 N 283.795 -0.628877 1.44509 0
M  V30 3044 C 285.211 -0.947305 1.28446 0
M  V30 3045 C 285.411 -2.00275 0.221872 0
M  V30 3046 O 284.467 -2.49447 -0.391471 0
M  V30 3047 C 285.78 -1.40843 2.65676 0
M  V30 3048 C 287.328 -1.52379 2.73404 0
M  V30 3049 C 287.803 -2.01875 4.11109 0
M  V30 3050 N 289.294 -2.09142 4.13296 0
M  V30 3051 C 290.029 -2.48615 5.16699 0
M  V30 3052 N 289.525 -2.87209 6.30462 0
M  V30 3053 N 291.318 -2.48768 5.04054 0
M  V30 3054 H 283.469 0.0690977 2.12288 0
M  V30 3055 H 285.732 -0.0317164 0.947469 0
M  V30 3056 H 285.438 -0.707206 3.44516 0
M  V30 3057 H 285.312 -2.37902 2.92716 0
M  V30 3058 H 287.699 -2.21598 1.9488 0
M  V30 3059 H 287.78 -0.536898 2.50102 0
M  V30 3060 H 287.424 -1.3325 4.90109 0
M  V30 3061 H 287.354 -3.0144 4.31789 0
M  V30 3062 H 289.845 -1.81991 3.31191 0
M  V30 3063 H 290.158 -3.16149 7.05174 0
M  V30 3064 H 288.503 -2.84955 6.33897 0
M  V30 3065 H 291.694 -2.18009 4.14234 0
M  V30 3066 H 291.867 -2.79207 5.84763 0
M  V30 3067 N 285.273 -1.31445 -0.869486 0
M  V30 3068 C 286.203 -1.21727 -1.99261 0
M  V30 3069 C 287.184 -0.104359 -1.6978 0
M  V30 3070 O 288.369 -0.289038 -1.92037 0
M  V30 3071 C 285.499 -0.924317 -3.34774 0
M  V30 3072 C 284.453 -1.99685 -3.78563 0
M  V30 3073 C 283.779 -1.55658 -5.11541 0
M  V30 3074 C 285.079 -3.41003 -3.95619 0
M  V30 3075 H 286.773 -2.1569 -2.07649 0
M  V30 3076 H 284.319 -1.03839 -0.997675 0
M  V30 3077 H 286.272 -0.842934 -4.12883 0
M  V30 3078 H 284.996 0.0509793 -3.2656 0
M  V30 3079 H 283.655 -2.06813 -3.02694 0
M  V30 3080 H 283.303 -0.569132 -4.9977 0
M  V30 3081 H 283.003 -2.27409 -5.41811 0
M  V30 3082 H 284.527 -1.48928 -5.92159 0
M  V30 3083 H 285.941 -3.36547 -4.64122 0
M  V30 3084 H 284.338 -4.10975 -4.37286 0
M  V30 3085 H 285.408 -3.81754 -2.98985 0
M  V30 3086 N 286.751 1.08385 -1.14413 0
M  V30 3087 C 287.991 1.8238 -0.922868 0
M  V30 3088 C 288.355 1.84225 0.540842 0
M  V30 3089 O 289.556 2.53985 0.880058 0
M  V30 3090 C 287.827 3.24048 -1.50757 0
M  V30 3091 S 289.386 4.14917 -1.4279 0
M  V30 3092 H 286.204 0.628524 -0.332384 0
M  V30 3093 H 288.806 1.30278 -1.45766 0
M  V30 3094 H 287.51 3.20288 -2.56601 0
M  V30 3095 H 287.041 3.81224 -0.971178 0
M  V30 3096 H 289.056 4.94473 -0.413582 0
M  V30 3097 N 288.23 0.939286 1.26551 0
M  V30 3098 C 289.646 0.641304 1.46149 0
M  V30 3099 C 289.846 -0.805964 1.84679 0
M  V30 3100 O 288.902 -1.58278 1.96734 0
M  V30 3101 C 290.215 1.6011 2.54529 0
M  V30 3102 C 291.763 1.6106 2.68382 0
M  V30 3103 C 292.238 2.55765 3.79932 0
M  V30 3104 N 293.729 2.5404 3.87322 0
M  V30 3105 C 294.464 3.24004 4.73085 0
M  V30 3106 N 293.96 4.03388 5.63249 0
M  V30 3107 N 295.753 3.12965 4.66914 0
M  V30 3108 H 287.904 1.87478 0.998285 0
M  V30 3109 H 290.167 0.805559 0.499779 0
M  V30 3110 H 289.873 2.63412 2.33039 0
M  V30 3111 H 289.747 1.35171 3.52149 0
M  V30 3112 H 292.134 0.584835 2.89247 0
M  V30 3113 H 292.215 1.90053 1.71212 0
M  V30 3114 H 291.859 3.58458 3.5982 0
M  V30 3115 H 291.789 2.24063 4.76554 0
M  V30 3116 H 294.28 1.96396 3.22858 0
M  V30 3117 H 294.593 4.5373 6.25579 0
M  V30 3118 H 292.938 4.07489 5.63008 0
M  V30 3119 H 296.129 2.50432 3.95476 0
M  V30 3120 H 296.302 3.67759 5.33533 0
M  V30 3121 N 289.708 -1.40897 0.706093 0
M  V30 3122 C 290.64 -2.29199 0.00815776 0
M  V30 3123 C 291.653 -1.45336 -0.733582 0
M  V30 3124 O 292.842 -1.68727 -0.582537 0
M  V30 3125 C 289.942 -3.23417 -1.01265 0
M  V30 3126 C 289.115 -4.36089 -0.338387 0
M  V30 3127 C 288.174 -5.10811 -1.26326 0
M  V30 3128 O 287.2 -5.64215 -0.751651 0
M  V30 3129 N 288.402 -5.19269 -2.595 0
M  V30 3130 H 291.167 -2.89738 0.766297 0
M  V30 3131 H 288.728 -1.52164 0.55296 0
M  V30 3132 H 290.72 -3.70276 -1.63334 0
M  V30 3133 H 289.29 -2.64112 -1.67223 0
M  V30 3134 H 288.51 -3.91479 0.462352 0
M  V30 3135 H 289.798 -5.08634 0.130031 0
M  V30 3136 H 289.196 -4.77347 -3.03573 0
M  V30 3137 H 287.753 -5.69667 -3.16737 0
M  V30 3138 N 291.186 -0.45159 -1.50991 0
M  V30 3139 C 292.134 0.366864 -2.29689 0
M  V30 3140 C 293.128 1.00809 -1.36139 0
M  V30 3141 O 294.334 0.941427 -1.53418 0
M  V30 3142 H 290.709 0.137133 -0.739391 0
M  V30 3143 H 292.68 -0.317538 -2.96706 0
M  V30 3144 C 291.429 1.44751 -3.16137 0
M  V30 3145 H 290.752 0.963473 -3.88017 0
M  V30 3146 H 292.192 1.99315 -3.74232 0
M  V30 3147 C 290.651 2.43869 -2.32442 0
M  V30 3148 O 291.181 3.4872 -1.99392 0
M  V30 3149 N 289.387 2.15105 -1.95392 0
M  V30 3150 H 288.934 1.29866 -2.22469 0
M  V30 3151 H 288.892 2.81661 -1.39693 0
M  V30 3152 N 292.664 1.56529 -0.183458 0
M  V30 3153 C 293.627 2.17324 0.728223 0
M  V30 3154 C 294.627 1.12453 1.14939 0
M  V30 3155 O 295.817 1.37902 1.06437 0
M  V30 3156 C 292.949 2.76591 1.99274 0
M  V30 3157 H 294.142 2.99241 0.198772 0
M  V30 3158 H 291.695 1.5616 0.0661391 0
M  V30 3159 H 292.43 1.98441 2.56499 0
M  V30 3160 H 292.215 3.5335 1.69959 0
M  V30 3161 H 293.705 3.23311 2.6431 0
M  V30 3162 N 294.142 -0.090211 1.57342 0
M  V30 3163 C 295.419 -0.824761 1.77361 0
M  V30 3164 C 295.799 -1.96698 0.76637 0
M  V30 3165 O 295.147 -2.27586 -0.204179 0
M  V30 3166 C 295.357 -1.31481 3.23286 0
M  V30 3167 C 296.705 -1.75563 3.86604 0
M  V30 3168 O 297.729 -1.41093 3.27065 0
M  V30 3169 O 296.588 -2.39317 4.91314 0
M  V30 3170 H 293.682 -0.393776 0.727234 0
M  V30 3171 H 296.228 -0.0717138 1.69548 0
M  V30 3172 H 295 -0.496671 3.88135 0
M  V30 3173 H 294.623 -2.12973 3.35751 0
M  V30 3174 N 295.62 -1.53406 -0.361157 0
M  V30 3175 C 296.55 -1.83136 -1.44857 0
M  V30 3176 C 297.531 -0.685174 -1.5569 0
M  V30 3177 O 298.716 -0.93544 -1.70186 0
M  V30 3178 C 295.846 -2.02522 -2.82138 0
M  V30 3179 C 294.8 -3.18302 -2.86126 0
M  V30 3180 C 294.126 -3.22989 -4.26125 0
M  V30 3181 C 295.426 -4.56796 -2.53248 0
M  V30 3182 H 297.12 -2.74201 -1.20226 0
M  V30 3183 H 294.666 -1.31938 -0.576922 0
M  V30 3184 H 296.619 -2.21904 -3.58241 0
M  V30 3185 H 295.343 -1.08172 -3.08166 0
M  V30 3186 H 294.002 -2.98747 -2.12475 0
M  V30 3187 H 293.65 -2.26267 -4.49235 0
M  V30 3188 H 293.35 -4.00781 -4.29708 0
M  V30 3189 H 294.874 -3.44559 -5.04094 0
M  V30 3190 H 296.288 -4.7631 -3.19064 0
M  V30 3191 H 294.685 -5.36862 -2.68141 0
M  V30 3192 H 295.755 -4.61606 -1.48484 0
M  V30 3193 N 297.098 0.621204 -1.44841 0
M  V30 3194 C 298.323 1.41244 -1.51871 0
M  V30 3195 C 298.748 1.87519 -0.147764 0
M  V30 3196 O 298.106 1.59334 0.865 0
M  V30 3197 C 298.154 2.60221 -2.49634 0
M  V30 3198 O 297.258 3.60395 -2.00473 0
M  V30 3199 H 296.599 0.42223 -0.512463 0
M  V30 3200 H 299.129 0.757305 -1.90069 0
M  V30 3201 H 299.139 3.0764 -2.67996 0
M  V30 3202 H 297.814 2.25887 -3.4921 0
M  V30 3203 H 296.391 3.19717 -1.91925 0
M  V30 3204 N 298.576 1.31904 0.862503 0
M  V30 3205 C 299.801 1.25135 1.65397 0
M  V30 3206 C 300.226 -0.179 1.87246 0
M  V30 3207 O 299.584 -1.1277 1.4196 0
M  V30 3208 C 299.632 2.00832 2.99498 0
M  V30 3209 O 298.736 1.35075 3.89652 0
M  V30 3210 H 298.077 0.431655 0.504549 0
M  V30 3211 H 300.607 1.74094 1.07483 0
M  V30 3212 H 300.617 2.10709 3.49379 0
M  V30 3213 H 299.292 3.04847 2.82916 0
M  V30 3214 H 297.869 1.33696 3.48109 0
M  V30 3215 O 300.093 -0.999479 1.26857 0
M  V30 3216 H 300.784 -1.62077 1.0607 0
M  V30 END ATOM
M  V30 BEGIN BOND
M  V30 END BOND
M  V30 END CTAB
M  END
$$$$
