drugbank_target|P04324 Protein Nef (DB08231)
 OpenBabel12092120493D

  0  0  0     0  0            999 V3000
M  V30 BEGIN CTAB
M  V30 COUNTS 3239 3290 0 0 0
M  V30 BEGIN ATOM
M  V30 1 H -0.908 1.98254 -0.117106 0
M  V30 2 N 0 1.576 0 0
M  V30 3 C 0.933 2.03868 1.02534 0
M  V30 4 C 1.911 0.928543 1.3348 0
M  V30 5 O 3.095 1.19667 1.45644 0
M  V30 6 C 0.222 2.43627 2.35294 0
M  V30 7 C -0.732 3.65373 2.2001 0
M  V30 8 S 0.101 5.13292 1.52614 0
M  V30 9 C 1.257 5.56322 2.86805 0
M  V30 10 H 1.49 2.90518 0.631377 0
M  V30 11 H -0.977 1.52953 0.210867 0
M  V30 12 H 0.981 2.67203 3.11629 0
M  V30 13 H -0.358 1.57376 2.7183 0
M  V30 14 H -1.165 3.90944 3.18086 0
M  V30 15 H -1.563 3.418 1.51819 0
M  V30 16 H 0.729 5.58782 3.83104 0
M  V30 17 H 1.672 6.56266 2.65933 0
M  V30 18 H 2.08 4.83886 2.90714 0
M  V30 19 N 1.4781 -0.272755 1.55222 0
M  V30 20 C 2.7261 -1.00234 1.75492 0
M  V30 21 C 3.0471 -1.8681 0.5592 0
M  V30 22 O 2.3171 -1.91215 -0.425882 0
M  V30 23 H 0.8971 -0.373076 0.647166 0
M  V30 24 H 3.5591 -0.296926 1.92625 0
M  V30 25 H 2.6551 -1.63913 2.65592 0
M  V30 26 N 2.9562 -1.48159 -0.537278 0
M  V30 27 C 4.2042 -1.55497 -1.29094 0
M  V30 28 C 4.5252 -0.227454 -1.93669 0
M  V30 29 O 3.7952 0.750386 -1.80959 0
M  V30 30 H 2.3752 -0.572832 -0.47945 0
M  V30 31 H 5.0372 -1.84579 -0.625818 0
M  V30 32 H 4.1332 -2.33216 -2.07405 0
M  V30 33 N 4.4343 0.785586 -1.36625 0
M  V30 34 C 5.3813 1.89838 -1.31264 0
M  V30 35 C 6.3513 1.65115 -0.180633 0
M  V30 36 O 7.5363 1.87222 -0.36777 0
M  V30 37 C 4.6763 3.26706 -1.11163 0
M  V30 38 C 3.7893 3.63476 -2.33472 0
M  V30 39 C 2.9243 4.89481 -2.06353 0
M  V30 40 C 1.9633 5.18941 -3.24602 0
M  V30 41 N 1.1003 6.36131 -2.97123 0
M  V30 42 H 5.9403 1.93756 -2.26413 0
M  V30 43 H 3.4773 0.947454 -1.12524 0
M  V30 44 H 5.4353 4.05639 -0.975337 0
M  V30 45 H 4.0653 3.222 -0.196674 0
M  V30 46 H 3.1173 2.79636 -2.57891 0
M  V30 47 H 4.4293 3.81193 -3.21704 0
M  V30 48 H 3.5833 5.76288 -1.89675 0
M  V30 49 H 2.3223 4.73841 -1.15437 0
M  V30 50 H 1.3273 4.30615 -3.41834 0
M  V30 51 H 2.5523 5.36498 -4.16349 0
M  V30 52 H 0.4983 6.21875 -2.08823 0
M  V30 53 H 0.4153 6.54198 -3.78894 0
M  V30 54 H 1.6833 7.2591 -2.84033 0
M  V30 55 N 5.9124 1.20967 1.01018 0
M  V30 56 C 7.1584 1.0353 1.7508 0
M  V30 57 C 7.5134 -0.42734 1.87594 0
M  V30 58 O 6.8064 -1.31298 1.3954 0
M  V30 59 C 7.0004 1.65997 3.16512 0
M  V30 60 C 6.8294 3.18184 3.17788 0
M  V30 61 C 5.5994 3.87198 3.24662 0
M  V30 62 C 7.7974 4.15334 3.03319 0
M  V30 63 N 5.7794 5.26618 3.15509 0
M  V30 64 C 7.1504 5.41472 3.02007 0
M  V30 65 C 9.2054 4.06449 2.87583 0
M  V30 66 C 7.9084 6.5975 2.86571 0
M  V30 67 C 9.9344 5.24357 2.73503 0
M  V30 68 C 9.2964 6.49404 2.72862 0
M  V30 69 H 5.3954 0.433137 0.651089 0
M  V30 70 H 7.9794 1.5324 1.20107 0
M  V30 71 H 6.1504 1.18863 3.69765 0
M  V30 72 H 7.8824 1.41816 3.79039 0
M  V30 73 H 4.6374 3.38093 3.31648 0
M  V30 74 H 5.0614 5.99626 3.14289 0
M  V30 75 H 9.7034 3.10573 2.86887 0
M  V30 76 H 7.4214 7.55792 2.86015 0
M  V30 77 H 11.0074 5.19299 2.62334 0
M  V30 78 H 9.8874 7.39105 2.62093 0
M  V30 79 N 7.3905 -1.2043 1.01659 0
M  V30 80 C 8.6155 -1.94318 0.724942 0
M  V30 81 C 9.0405 -1.74266 -0.708034 0
M  V30 82 O 8.3985 -1.03694 -1.48719 0
M  V30 83 C 8.4465 -3.44486 1.06591 0
M  V30 84 O 7.5505 -4.12017 0.177599 0
M  V30 85 H 6.8915 -0.60708 0.26898 0
M  V30 86 H 9.4215 -1.52861 1.35995 0
M  V30 87 H 9.4315 -3.95106 1.01762 0
M  V30 88 H 8.1065 -3.58404 2.10997 0
M  V30 89 H 6.6835 -3.71821 0.283421 0
M  V30 90 N 8.8686 -0.792821 -1.36206 0
M  V30 91 C 9.8156 -0.191653 -2.30003 0
M  V30 92 C 10.7856 0.666453 -1.52143 0
M  V30 93 O 11.9706 0.61442 -1.80636 0
M  V30 94 C 9.1106 0.664848 -3.38635 0
M  V30 95 C 8.2236 -0.212175 -4.31479 0
M  V30 96 C 7.3586 0.651022 -5.27196 0
M  V30 97 C 6.3976 -0.227247 -6.11678 0
M  V30 98 N 5.5346 0.595127 -6.99573 0
M  V30 99 H 10.3746 -0.996978 -2.80828 0
M  V30 100 H 7.9116 -0.503206 -1.38225 0
M  V30 101 H 9.8696 1.17645 -4.00269 0
M  V30 102 H 8.4996 1.43557 -2.89122 0
M  V30 103 H 7.5516 -0.841777 -3.70969 0
M  V30 104 H 8.8636 -0.888751 -4.90818 0
M  V30 105 H 8.0176 1.2283 -5.94136 0
M  V30 106 H 6.7566 1.36121 -4.68319 0
M  V30 107 H 5.7616 -0.816904 -5.43697 0
M  V30 108 H 6.9866 -0.93509 -6.72631 0
M  V30 109 H 4.9326 1.28955 -6.432 0
M  V30 110 H 4.8496 -0.0236952 -7.55996 0
M  V30 111 H 6.1176 1.15613 -7.70879 0
M  V30 112 N 10.3467 1.47872 -0.545128 0
M  V30 113 C 11.5717 2.07391 -0.0190611 0
M  V30 114 C 11.9967 1.39688 1.25971 0
M  V30 115 O 11.3547 0.467816 1.7516 0
M  V30 116 C 11.4027 3.60188 0.172335 0
M  V30 117 O 10.5067 3.9339 1.23766 0
M  V30 118 H 9.8477 0.662411 -0.0459059 0
M  V30 119 H 12.3777 1.90066 -0.757365 0
M  V30 120 H 12.3877 4.06129 0.390305 0
M  V30 121 H 11.0627 4.08865 -0.761725 0
M  V30 122 H 9.6397 3.5921 1.00114 0
M  V30 123 N 11.8248 0.280983 1.55075 0
M  V30 124 C 13.0498 -0.340154 2.04592 0
M  V30 125 C 13.4748 -1.48246 1.15779 0
M  V30 126 O 12.8328 -1.80614 0.15761 0
M  V30 127 C 12.8808 -0.793104 3.5177 0
M  V30 128 O 11.9848 -1.89981 3.66034 0
M  V30 129 H 11.3258 -0.0694289 0.66036 0
M  V30 130 H 13.8558 0.416993 2.00306 0
M  V30 131 H 13.8658 -1.08729 3.93245 0
M  V30 132 H 12.5408 0.0426163 4.15878 0
M  V30 133 H 11.1178 -1.60771 3.36463 0
M  V30 134 N 13.3029 -1.57598 0.00835791 0
M  V30 135 C 14.5489 -1.91211 -0.675732 0
M  V30 136 C 14.8819 -0.883139 -1.72958 0
M  V30 137 O 14.1569 0.097016 -1.94258 0
M  V30 138 C 14.4399 -3.35379 -1.31123 0
M  V30 139 C 14.2929 -4.48999 -0.268356 0
M  V30 140 C 15.6119 -3.7912 -2.23508 0
M  V30 141 H 12.7309 -0.695374 -0.244179 0
M  V30 142 H 15.3729 -1.89901 0.0613655 0
M  V30 143 H 13.5229 -3.36626 -1.93946 0
M  V30 144 H 15.1949 -4.59887 0.360844 0
M  V30 145 H 13.4379 -4.31873 0.408482 0
M  V30 146 H 14.1089 -5.46851 -0.752218 0
M  V30 147 H 16.5849 -3.79477 -1.70693 0
M  V30 148 H 15.4609 -4.80729 -2.64936 0
M  V30 149 H 15.7219 -3.13455 -3.11766 0
M  V30 150 N 14.781 0.264519 -1.55364 0
M  V30 151 C 16.027 0.99646 -1.76631 0
M  V30 152 C 16.36 1.85632 -0.570478 0
M  V30 153 O 15.635 1.89647 0.43175 0
M  V30 154 C 15.918 1.87187 -3.07625 0
M  V30 155 C 15.771 1.04138 -4.37579 0
M  V30 156 C 17.09 2.85749 -3.34717 0
M  V30 157 H 14.209 0.360841 -0.642622 0
M  V30 158 H 16.851 0.268218 -1.88097 0
M  V30 159 H 15.001 2.49279 -2.9798 0
M  V30 160 H 16.673 0.440517 -4.59192 0
M  V30 161 H 14.916 0.345115 -4.32425 0
M  V30 162 H 15.587 1.68729 -5.2558 0
M  V30 163 H 18.063 2.33793 -3.4421 0
M  V30 164 H 16.939 3.44136 -4.27623 0
M  V30 165 H 17.2 3.61311 -2.54768 0
M  V30 166 N 16.2591 1.48442 0.529413 0
M  V30 167 C 17.5071 1.56179 1.28267 0
M  V30 168 C 17.8281 0.237721 1.93546 0
M  V30 169 O 17.0981 -0.740779 1.81354 0
M  V30 170 H 15.6781 0.575367 0.476405 0
M  V30 171 H 18.3401 1.84909 0.61602 0
M  V30 172 H 17.4361 2.34312 2.06165 0
M  V30 173 N 17.7372 -0.778329 1.37039 0
M  V30 174 C 18.9832 -1.53817 1.33086 0
M  V30 175 C 19.3382 -1.92208 -0.0860346 0
M  V30 176 O 18.6312 -1.60713 -1.04316 0
M  V30 177 C 18.8252 -2.81845 2.19768 0
M  V30 178 C 18.6542 -2.55967 3.69744 0
M  V30 179 C 17.4242 -2.50428 4.38878 0
M  V30 180 C 19.6222 -2.2441 4.62758 0
M  V30 181 N 17.6042 -2.16564 5.74433 0
M  V30 182 C 18.9752 -2.0063 5.86641 0
M  V30 183 C 21.0302 -2.1051 4.5121 0
M  V30 184 C 19.7332 -1.64354 7.00272 0
M  V30 185 C 21.7592 -1.75634 5.64718 0
M  V30 186 C 21.1212 -1.52709 6.87648 0
M  V30 187 H 17.2202 -0.563434 0.542279 0
M  V30 188 H 19.8042 -0.908617 1.72198 0
M  V30 189 H 17.9752 -3.42649 1.82883 0
M  V30 190 H 19.7072 -3.47682 2.07122 0
M  V30 191 H 16.4622 -2.66056 3.91805 0
M  V30 192 H 16.8862 -2.02348 6.46053 0
M  V30 193 H 21.5282 -2.26919 3.56746 0
M  V30 194 H 19.2462 -1.46683 7.94676 0
M  V30 195 H 22.8322 -1.65546 5.57751 0
M  V30 196 H 21.7122 -1.2612 7.73992 0
M  V30 197 N 19.2153 -1.21501 -1.00376 0
M  V30 198 C 20.6263 -1.03146 -1.55621 0
M  V30 199 C 20.9773 0.408375 -1.91903 0
M  V30 200 O 20.1023 1.29177 -1.73616 0
M  V30 201 C 20.6973 -1.86612 -2.82775 0
M  V30 202 C 19.2563 -1.72586 -3.34501 0
M  V30 203 C 18.4033 -1.83747 -2.07683 0
M  V30 204 H 21.3543 -1.35505 -0.826081 0
M  V30 205 H 21.3753 -1.3771 -3.54706 0
M  V30 206 H 20.8873 -2.91399 -2.56336 0
M  V30 207 H 18.9883 -0.704877 -3.65872 0
M  V30 208 H 19.1013 -2.54623 -4.05837 0
M  V30 209 H 17.4653 -1.27069 -2.20739 0
M  V30 210 H 18.2483 -2.90044 -1.83655 0
M  V30 211 N 20.6934 1.19889 -1.02296 0
M  V30 212 C 21.6564 2.21116 -0.603351 0
M  V30 213 C 22.6564 1.5738 0.329884 0
M  V30 214 O 23.8464 1.73802 0.117702 0
M  V30 215 C 20.9784 3.40696 0.117992 0
M  V30 216 H 22.1714 2.59754 -1.49893 0
M  V30 217 H 19.7244 1.33463 -0.813468 0
M  V30 218 H 20.4594 3.07569 1.0282 0
M  V30 219 H 20.2444 3.88188 -0.552511 0
M  V30 220 H 21.7344 4.15692 0.398696 0
M  V30 221 N 22.1715 0.800033 1.35784 0
M  V30 222 C 23.4175 0.377901 1.99248 0
M  V30 223 C 23.7505 -1.05052 1.63333 0
M  V30 224 O 23.0255 -1.72768 0.893385 0
M  V30 225 C 23.3085 0.553922 3.55814 0
M  V30 226 C 23.1615 2.0268 4.01548 0
M  V30 227 C 24.4805 -0.0244802 4.40093 0
M  V30 228 H 21.5995 0.138782 0.723815 0
M  V30 229 H 24.2415 1.00835 1.61035 0
M  V30 230 H 22.3915 0.0172398 3.88496 0
M  V30 231 H 24.0635 2.62536 3.79305 0
M  V30 232 H 22.3065 2.5256 3.52698 0
M  V30 233 H 22.9775 2.10087 5.10458 0
M  V30 234 H 25.4535 0.433775 4.13833 0
M  V30 235 H 24.3295 0.128637 5.48749 0
M  V30 236 H 24.5905 -1.11758 4.27741 0
M  V30 237 N 23.6496 -1.47581 0.552962 0
M  V30 238 C 25.0656 -1.5818 0.212424 0
M  V30 239 C 25.2656 -1.55213 -1.28496 0
M  V30 240 O 24.3216 -1.45329 -2.06484 0
M  V30 241 C 25.6346 -2.88865 0.835318 0
M  V30 242 C 27.1826 -3.0244 0.806156 0
M  V30 243 C 27.6576 -4.35819 1.40804 0
M  V30 244 N 29.1486 -4.42444 1.37103 0
M  V30 245 C 29.8836 -5.44202 1.80641 0
M  V30 246 N 29.3796 -6.52795 2.32015 0
M  V30 247 N 31.1726 -5.35222 1.71738 0
M  V30 248 H 23.3236 -1.47753 1.52587 0
M  V30 249 H 25.5866 -0.702941 0.636064 0
M  V30 250 H 25.2926 -2.9676 1.88749 0
M  V30 251 H 25.1666 -3.7579 0.325848 0
M  V30 252 H 27.5536 -2.94144 -0.237317 0
M  V30 253 H 27.6346 -2.17068 1.35334 0
M  V30 254 H 27.2786 -4.44871 2.45056 0
M  V30 255 H 27.2086 -5.19916 0.836338 0
M  V30 256 H 29.6996 -3.6456 0.995202 0
M  V30 257 H 30.0126 -7.26609 2.63171 0
M  V30 258 H 28.3576 -6.53696 2.36023 0
M  V30 259 H 31.5486 -4.49284 1.31382 0
M  V30 260 H 31.7216 -6.14389 2.05987 0
M  V30 261 N 25.1277 -0.289203 -1.54924 0
M  V30 262 C 26.0377 0.601863 -2.26748 0
M  V30 263 C 27.0537 1.15834 -1.2984 0
M  V30 264 O 28.2297 1.18564 -1.62802 0
M  V30 265 C 25.2947 1.76299 -2.98529 0
M  V30 266 C 24.3557 1.24178 -4.10948 0
M  V30 267 C 23.5887 2.34757 -4.79296 0
M  V30 268 O 23.8117 3.54411 -4.46933 0
M  V30 269 O 22.7457 2.02115 -5.66951 0
M  V30 270 H 26.5717 0.0195879 -3.03694 0
M  V30 271 H 24.1567 -0.0560868 -1.49295 0
M  V30 272 H 26.0387 2.43973 -3.43592 0
M  V30 273 H 24.7137 2.33209 -2.24488 0
M  V30 274 H 23.6207 0.531104 -3.70311 0
M  V30 275 H 24.9537 0.718252 -4.86931 0
M  V30 276 N 26.6058 1.57591 -0.0167156 0
M  V30 277 C 28.0218 1.55946 0.339557 0
M  V30 278 C 28.2218 1.02109 1.73713 0
M  V30 279 O 27.2778 0.662303 2.43659 0
M  V30 280 C 28.5908 3.00037 0.199499 0
M  V30 281 C 30.1388 3.11805 0.273193 0
M  V30 282 C 30.6138 4.57713 0.162068 0
M  V30 283 N 32.1048 4.6268 0.219444 0
M  V30 284 C 32.8398 5.73185 0.157054 0
M  V30 285 N 32.3358 6.92786 0.0442936 0
M  V30 286 N 34.1288 5.61707 0.21014 0
M  V30 287 H 26.2798 1.90921 -0.930758 0
M  V30 288 H 28.5428 0.877674 -0.358319 0
M  V30 289 H 28.2488 3.4333 -0.76273 0
M  V30 290 H 28.1228 3.64387 0.974786 0
M  V30 291 H 30.5098 2.68433 1.22587 0
M  V30 292 H 30.5908 2.50201 -0.532256 0
M  V30 293 H 30.2348 5.01763 -0.78714 0
M  V30 294 H 30.1648 5.17283 0.986222 0
M  V30 295 H 32.6558 3.76649 0.307246 0
M  V30 296 H 32.9688 7.728 0.00304069 0
M  V30 297 H 31.3138 6.94999 0.00968457 0
M  V30 298 H 34.5048 4.6716 0.296546 0
M  V30 299 H 34.6778 6.47807 0.158054 0
M  V30 300 N 28.0839 -0.256276 1.55502 0
M  V30 301 C 29.0169 -1.34321 1.84481 0
M  V30 302 C 29.9949 -1.46802 0.699131 0
M  V30 303 O 31.1789 -1.63165 0.943904 0
M  V30 304 C 28.3059 -2.71779 2.02123 0
M  V30 305 C 27.3519 -2.76496 3.24734 0
M  V30 306 S 28.1849 -2.3405 4.81644 0
M  V30 307 C 29.3409 -3.73452 5.02279 0
M  V30 308 H 29.5739 -1.09539 2.76385 0
M  V30 309 H 27.1069 -0.45678 1.47489 0
M  V30 310 H 29.0649 -3.50932 2.12972 0
M  V30 311 H 27.7259 -2.93803 1.11078 0
M  V30 312 H 26.9189 -3.77424 3.34016 0
M  V30 313 H 26.5209 -2.05379 3.12563 0
M  V30 314 H 28.8129 -4.6887 4.89047 0
M  V30 315 H 29.7559 -3.6911 6.04287 0
M  V30 316 H 30.1639 -3.6553 4.30172 0
M  V30 317 N 29.562 -1.4872 -0.521534 0
M  V30 318 C 30.978 -1.35028 -0.850855 0
M  V30 319 C 31.178 -0.367712 -1.98116 0
M  V30 320 O 30.234 0.208037 -2.51642 0
M  V30 321 C 31.547 -2.75263 -1.21041 0
M  V30 322 C 33.095 -2.83813 -1.31981 0
M  V30 323 C 33.57 -4.24769 -1.71276 0
M  V30 324 N 35.061 -4.27482 -1.78363 0
M  V30 325 C 35.796 -5.33494 -2.1017 0
M  V30 326 N 35.292 -6.49775 -2.40343 0
M  V30 327 N 37.085 -5.20894 -2.11248 0
M  V30 328 H 29.236 -2.11214 0.22413 0
M  V30 329 H 31.499 -0.947252 0.0376439 0
M  V30 330 H 31.205 -3.48765 -0.453415 0
M  V30 331 H 31.079 -3.09327 -2.15863 0
M  V30 332 H 33.466 -2.10561 -2.06756 0
M  V30 333 H 33.547 -2.53358 -0.352596 0
M  V30 334 H 33.191 -4.9854 -0.970588 0
M  V30 335 H 33.121 -4.52673 -2.69062 0
M  V30 336 H 35.612 -3.43611 -1.57288 0
M  V30 337 H 35.925 -7.26402 -2.63743 0
M  V30 338 H 34.27 -6.53035 -2.37844 0
M  V30 339 H 37.461 -4.29065 -1.87139 0
M  V30 340 H 37.634 -6.03612 -2.35704 0
M  V30 341 N 31.0401 0.771051 -1.3745 0
M  V30 342 C 32.4561 1.07171 -1.18265 0
M  V30 343 C 32.6561 2.01491 -0.019287 0
M  V30 344 O 31.7121 2.44244 0.640408 0
M  V30 345 C 33.0251 1.66854 -2.50161 0
M  V30 346 C 34.5731 1.79109 -2.56689 0
M  V30 347 C 35.0481 2.42205 -3.88717 0
M  V30 348 N 36.5391 2.49655 -3.90162 0
M  V30 349 C 37.2741 2.9933 -4.8907 0
M  V30 350 N 36.7701 3.49172 -5.98374 0
M  V30 351 N 38.5631 2.9821 -4.76474 0
M  V30 352 H 30.7141 0.144796 -2.11906 0
M  V30 353 H 32.9771 0.126863 -0.939473 0
M  V30 354 H 32.6831 1.05017 -3.35655 0
M  V30 355 H 32.5571 2.6614 -2.673 0
M  V30 356 H 34.9441 2.40077 -1.71601 0
M  V30 357 H 35.0251 0.785757 -2.43433 0
M  V30 358 H 34.6691 1.81875 -4.74219 0
M  V30 359 H 34.5991 3.43345 -3.99276 0
M  V30 360 H 37.0901 2.14383 -3.11205 0
M  V30 361 H 37.4031 3.8548 -6.69795 0
M  V30 362 H 35.7481 3.47275 -6.02018 0
M  V30 363 H 38.9391 2.58572 -3.90203 0
M  V30 364 H 39.1121 3.36613 -5.53711 0
M  V30 365 N 32.5182 1.22032 0.997298 0
M  V30 366 C 33.4812 0.987909 2.06816 0
M  V30 367 C 34.4812 -0.0440084 1.6074 0
M  V30 368 O 35.6712 0.194053 1.73116 0
M  V30 369 C 32.8032 0.49132 3.37341 0
M  V30 370 H 33.9962 1.93803 2.28868 0
M  V30 371 H 31.5492 1.03838 1.16822 0
M  V30 372 H 32.2842 -0.463364 3.20973 0
M  V30 373 H 32.0692 1.23575 3.72118 0
M  V30 374 H 33.5592 0.348824 4.16141 0
M  V30 375 N 33.9963 -1.19345 1.0293 0
M  V30 376 C 34.9063 -2.26245 0.620515 0
M  V30 377 C 35.9223 -1.70486 -0.347928 0
M  V30 378 O 37.0983 -2.00347 -0.205704 0
M  V30 379 C 34.1633 -3.46693 -0.0218957 0
M  V30 380 C 33.2243 -4.17632 0.994102 0
M  V30 381 C 32.4573 -5.32329 0.382253 0
M  V30 382 O 32.6803 -5.64552 -0.814676 0
M  V30 383 O 31.6143 -5.91664 1.10531 0
M  V30 384 H 35.4403 -2.63453 1.51083 0
M  V30 385 H 33.0253 -1.26207 0.799513 0
M  V30 386 H 34.9073 -4.19683 -0.380072 0
M  V30 387 H 33.5823 -3.11333 -0.886209 0
M  V30 388 H 32.4893 -3.4676 1.40387 0
M  V30 389 H 33.8223 -4.56964 1.8288 0
M  V30 390 N 35.4744 -0.807222 -1.35358 0
M  V30 391 C 36.8854 -0.44876 -1.81226 0
M  V30 392 C 37.2364 1.02929 -1.67033 0
M  V30 393 O 36.3614 1.79991 -1.20133 0
M  V30 394 C 36.9564 -0.807774 -3.2903 0
M  V30 395 C 35.5154 -0.501901 -3.73039 0
M  V30 396 C 34.6624 -1.03304 -2.57339 0
M  V30 397 H 37.6134 -0.998808 -1.23327 0
M  V30 398 H 37.6344 -0.10554 -3.80354 0
M  V30 399 H 37.1464 -1.88357 -3.39328 0
M  V30 400 H 35.2474 0.565128 -3.68289 0
M  V30 401 H 35.3604 -1.03497 -4.67787 0
M  V30 402 H 33.7244 -0.455339 -2.50597 0
M  V30 403 H 34.5074 -2.11496 -2.70415 0
M  V30 404 N 36.9525 1.47285 -0.560781 0
M  V30 405 C 37.9155 2.28535 0.174488 0
M  V30 406 C 38.9155 1.37153 0.839388 0
M  V30 407 O 40.1055 1.59748 0.694702 0
M  V30 408 C 37.2375 3.16934 1.25561 0
M  V30 409 H 38.4305 2.95012 -0.539262 0
M  V30 410 H 35.9835 1.53034 -0.317865 0
M  V30 411 H 36.7185 2.55157 2.00164 0
M  V30 412 H 36.5035 3.8419 0.783604 0
M  V30 413 H 37.9935 3.78143 1.77193 0
M  V30 414 N 38.4306 0.297415 1.54768 0
M  V30 415 C 39.3936 -0.567375 2.22066 0
M  V30 416 C 40.3936 -1.06409 1.20556 0
M  V30 417 O 41.5836 -0.960691 1.45315 0
M  V30 418 C 38.7156 -1.78517 2.90421 0
M  V30 419 H 39.9086 0.0205534 2.99893 0
M  V30 420 H 37.4616 0.0482163 1.56226 0
M  V30 421 H 38.1966 -2.41303 2.16664 0
M  V30 422 H 37.9816 -1.43669 3.64831 0
M  V30 423 H 39.4716 -2.39964 3.41771 0
M  V30 424 N 39.9087 -1.5758 0.0250728 0
M  V30 425 C 41.1857 -1.82917 -0.692873 0
M  V30 426 C 41.5657 -0.908137 -1.90568 0
M  V30 427 O 40.9137 0.0372298 -2.2847 0
M  V30 428 C 41.1237 -3.32034 -1.07492 0
M  V30 429 C 42.4717 -3.98406 -1.46826 0
M  V30 430 O 43.4957 -3.36505 -1.16801 0
M  V30 431 O 42.3547 -5.07497 -2.02754 0
M  V30 432 H 39.4487 -0.754079 -0.33955 0
M  V30 433 H 41.9947 -1.69619 0.0524456 0
M  V30 434 H 40.7667 -3.90728 -0.211552 0
M  V30 435 H 40.3897 -3.50424 -1.87854 0
M  V30 436 N 41.3868 0.248026 -1.55636 0
M  V30 437 C 42.6348 0.974295 -1.77065 0
M  V30 438 C 42.9558 1.85897 -0.588849 0
M  V30 439 O 42.2258 1.91868 0.395407 0
M  V30 440 H 40.8058 0.362733 -0.653019 0
M  V30 441 H 43.4678 0.266244 -1.93073 0
M  V30 442 H 42.5638 1.59667 -2.68166 0
M  V30 443 N 42.8649 1.48995 0.513639 0
M  V30 444 C 44.1109 1.58076 1.27042 0
M  V30 445 C 44.4439 0.261026 1.92438 0
M  V30 446 O 43.7189 -0.734393 1.80103 0
M  V30 447 C 44.0019 2.73091 2.34719 0
M  V30 448 C 43.8549 4.14821 1.73907 0
M  V30 449 C 45.1739 2.83796 3.36375 0
M  V30 450 H 42.2929 0.575391 0.460536 0
M  V30 451 H 44.9349 1.81232 0.570516 0
M  V30 452 H 43.0849 2.53479 2.94416 0
M  V30 453 H 44.7569 4.45917 1.18135 0
M  V30 454 H 42.9999 4.21058 1.0437 0
M  V30 455 H 43.6709 4.91147 2.51949 0
M  V30 456 H 46.1469 3.01611 2.86653 0
M  V30 457 H 45.0229 3.65971 4.09093 0
M  V30 458 H 45.2839 1.92624 3.9793 0
M  V30 459 N 44.343 -0.763751 1.37857 0
M  V30 460 C 45.591 -1.51957 1.33243 0
M  V30 461 C 45.912 -1.94835 -0.0801709 0
M  V30 462 O 45.182 -1.66894 -1.02582 0
M  V30 463 H 43.762 -0.563626 0.49024 0
M  V30 464 H 46.424 -0.908504 1.7243 0
M  V30 465 H 45.52 -2.41523 1.97669 0
M  V30 466 N 45.8211 -1.22559 -0.990812 0
M  V30 467 C 46.7841 -0.998863 -2.0629 0
M  V30 468 C 47.7841 0.0354834 -1.60761 0
M  V30 469 O 48.9741 -0.203231 -1.7301 0
M  V30 470 C 46.1061 -0.509203 -3.37076 0
M  V30 471 H 47.2991 -1.95014 -2.27837 0
M  V30 472 H 44.8521 -1.04456 -1.16269 0
M  V30 473 H 45.5871 0.446335 -3.21214 0
M  V30 474 H 45.3721 -1.25547 -3.71457 0
M  V30 475 H 46.8621 -0.370888 -4.1595 0
M  V30 476 N 47.2992 1.18797 -1.03562 0
M  V30 477 C 48.2622 2.20464 -0.626769 0
M  V30 478 C 49.2622 1.57721 0.313173 0
M  V30 479 O 50.4522 1.73917 0.0992615 0
M  V30 480 C 47.5842 3.40802 0.0818498 0
M  V30 481 H 48.7772 2.58149 -1.5264 0
M  V30 482 H 46.3302 1.32593 -0.827578 0
M  V30 483 H 47.0652 3.08642 0.995518 0
M  V30 484 H 46.8502 3.8758 -0.593652 0
M  V30 485 H 48.3402 4.16092 0.354584 0
M  V30 486 N 48.7773 0.814389 1.34928 0
M  V30 487 C 50.0023 0.410097 2.03305 0
M  V30 488 C 50.4273 -0.973464 1.60951 0
M  V30 489 O 49.7853 -1.63185 0.789964 0
M  V30 490 C 49.8333 0.51049 3.56968 0
M  V30 491 O 48.9373 -0.473035 4.09678 0
M  V30 492 H 48.2783 0.170088 0.641846 0
M  V30 493 H 50.8083 1.10244 1.72358 0
M  V30 494 H 50.8183 0.383135 4.06197 0
M  V30 495 H 49.4933 1.51963 3.87144 0
M  V30 496 H 48.0703 -0.305272 3.71648 0
M  V30 497 N 50.2554 -1.46986 0.568584 0
M  V30 498 C 51.6714 -1.57946 0.229189 0
M  V30 499 C 51.8714 -1.56567 -1.26843 0
M  V30 500 O 50.9274 -1.47511 -2.04931 0
M  V30 501 C 52.2404 -2.87963 0.865909 0
M  V30 502 C 53.7884 -3.01568 0.838188 0
M  V30 503 C 54.2634 -4.34301 1.45419 0
M  V30 504 N 55.7544 -4.40965 1.41788 0
M  V30 505 C 56.4894 -5.42256 1.86403 0
M  V30 506 N 55.9854 -6.50297 2.38926 0
M  V30 507 N 57.7784 -5.3337 1.77405 0
M  V30 508 H 49.9294 -1.46126 1.54146 0
M  V30 509 H 52.1924 -0.696156 0.643484 0
M  V30 510 H 51.8984 -2.94742 1.91886 0
M  V30 511 H 51.7724 -3.75423 0.365687 0
M  V30 512 H 54.1594 -2.94379 -0.206106 0
M  V30 513 H 54.2404 -2.1562 1.37629 0
M  V30 514 H 53.8844 -4.42247 2.49761 0
M  V30 515 H 53.8144 -5.19 0.891435 0
M  V30 516 H 56.3054 -3.63484 1.03381 0
M  V30 517 H 56.6184 -7.23777 2.70863 0
M  V30 518 H 54.9634 -6.51155 2.42944 0
M  V30 519 H 58.1544 -4.47865 1.3614 0
M  V30 520 H 58.3274 -6.12169 2.12492 0
M  V30 521 N 51.7335 -0.305618 -1.54608 0
M  V30 522 C 53.0105 0.355652 -1.92339 0
M  V30 523 C 53.3905 1.71324 -1.23335 0
M  V30 524 O 52.7385 2.25473 -0.370702 0
M  V30 525 C 52.9485 0.46572 -3.45879 0
M  V30 526 C 54.2965 0.734426 -4.182 0
M  V30 527 O 55.3205 0.54935 -3.51938 0
M  V30 528 O 54.1795 1.09024 -5.35515 0
M  V30 529 H 51.2735 0.199666 -0.802535 0
M  V30 530 H 53.8195 -0.354017 -1.65966 0
M  V30 531 H 52.5915 -0.488461 -3.88239 0
M  V30 532 H 52.2145 1.22367 -3.78301 0
M  V30 533 N 53.2116 1.57565 -0.0334293 0
M  V30 534 C 54.1416 2.13511 0.945265 0
M  V30 535 C 55.1226 1.05231 1.33643 0
M  V30 536 O 56.3076 1.33084 1.41429 0
M  V30 537 C 53.4376 2.6657 2.22616 0
M  V30 538 C 52.3916 3.79676 1.97561 0
M  V30 539 C 51.7176 4.1918 3.31952 0
M  V30 540 C 53.0176 5.0557 1.31135 0
M  V30 541 H 54.7116 2.95538 0.479325 0
M  V30 542 H 52.2576 1.42166 0.229115 0
M  V30 543 H 54.2106 3.04344 2.91466 0
M  V30 544 H 52.9346 1.8171 2.71384 0
M  V30 545 H 51.5936 3.42347 1.31127 0
M  V30 546 H 51.2416 3.31296 3.78487 0
M  V30 547 H 50.9416 4.95402 3.15992 0
M  V30 548 H 52.4656 4.59541 4.02063 0
M  V30 549 H 53.8796 5.40903 1.89992 0
M  V30 550 H 52.2766 5.86818 1.25559 0
M  V30 551 H 53.3466 4.84062 0.284894 0
M  V30 552 N 54.6897 -0.239769 1.55765 0
M  V30 553 C 55.5997 -1.31831 1.94056 0
M  V30 554 C 56.6157 -1.52275 0.841925 0
M  V30 555 O 57.7917 -1.65759 1.14394 0
M  V30 556 C 54.8567 -2.65156 2.23368 0
M  V30 557 C 53.9177 -2.53173 3.46701 0
M  V30 558 C 53.1507 -3.8014 3.74606 0
M  V30 559 O 53.3737 -4.82343 3.04469 0
M  V30 560 O 52.3077 -3.78344 4.68123 0
M  V30 561 H 56.1337 -1.02347 2.85935 0
M  V30 562 H 53.7187 -0.441123 1.42739 0
M  V30 563 H 55.6007 -3.43929 2.43497 0
M  V30 564 H 54.2757 -2.94358 1.34666 0
M  V30 565 H 53.1827 -1.72662 3.31871 0
M  V30 566 H 54.5157 -2.28915 4.35728 0
M  V30 567 N 56.1678 -1.49265 -0.50573 0
M  V30 568 C 57.1148 -1.65585 -1.6078 0
M  V30 569 C 58.0848 -0.497396 -1.58478 0
M  V30 570 O 59.2698 -0.72385 -1.76536 0
M  V30 571 C 56.4098 -1.72408 -2.98948 0
M  V30 572 C 55.5228 -2.99525 -3.11301 0
M  V30 573 C 54.6578 -2.97356 -4.40174 0
M  V30 574 C 53.6968 -4.19074 -4.46143 0
M  V30 575 N 52.8338 -4.14841 -5.66437 0
M  V30 576 H 57.6738 -2.59688 -1.46172 0
M  V30 577 H 55.2108 -1.28761 -0.711261 0
M  V30 578 H 57.1688 -1.74344 -3.79025 0
M  V30 579 H 55.7988 -0.817753 -3.1227 0
M  V30 580 H 54.8508 -3.07222 -2.24318 0
M  V30 581 H 56.1628 -3.89518 -3.11572 0
M  V30 582 H 55.3168 -2.97829 -5.28567 0
M  V30 583 H 54.0558 -2.05133 -4.42461 0
M  V30 584 H 53.0608 -4.1885 -3.56153 0
M  V30 585 H 54.2858 -5.12483 -4.45575 0
M  V30 586 H 52.2318 -3.25453 -5.69575 0
M  V30 587 H 52.1488 -4.98564 -5.68304 0
M  V30 588 H 53.4168 -4.1941 -6.57051 0
M  V30 589 N 57.6459 0.756429 -1.3826 0
M  V30 590 C 58.5959 1.86069 -1.31766 0
M  V30 591 C 59.5799 1.59621 -0.202483 0
M  V30 592 O 60.7719 1.7149 -0.438211 0
M  V30 593 C 57.9009 3.23742 -1.1422 0
M  V30 594 C 56.9869 3.56091 -2.30348 0
M  V30 595 N 57.3779 3.59517 -3.55783 0
M  V30 596 C 55.6759 3.86341 -2.22838 0
M  V30 597 C 56.3769 3.89052 -4.32451 0
M  V30 598 N 55.3529 4.05736 -3.61772 0
M  V30 599 H 59.1549 1.86992 -2.26741 0
M  V30 600 H 56.6689 0.953643 -1.31451 0
M  V30 601 H 58.6659 4.02761 -1.07652 0
M  V30 602 H 57.3259 3.24073 -0.201763 0
M  V30 603 H 58.3369 3.41347 -3.89491 0
M  V30 604 H 55.0139 3.94404 -1.36937 0
M  V30 605 H 56.4039 3.98349 -5.4108 0
M  V30 606 N 59.124 1.23083 0.984299 0
M  V30 607 C 60.372 1.05848 1.72165 0
M  V30 608 C 60.693 -0.406049 1.90726 0
M  V30 609 O 59.963 -1.29139 1.47309 0
M  V30 610 H 58.543 0.388685 0.637913 0
M  V30 611 H 61.205 1.54736 1.18503 0
M  V30 612 H 60.301 1.54327 2.71274 0
M  V30 613 N 60.6021 -1.18246 1.0419 0
M  V30 614 C 61.5651 -2.20128 0.638452 0
M  V30 615 C 62.5651 -1.57885 -0.304805 0
M  V30 616 O 63.7551 -1.73967 -0.0900369 0
M  V30 617 C 60.8871 -3.4084 -0.0637751 0
M  V30 618 H 62.0801 -2.57336 1.54007 0
M  V30 619 H 59.6331 -1.32152 0.834598 0
M  V30 620 H 60.3681 -3.09166 -0.979136 0
M  V30 621 H 60.1531 -3.8726 0.614198 0
M  V30 622 H 61.6431 -4.16274 -0.332512 0
M  V30 623 N 62.0802 -0.821533 -1.34494 0
M  V30 624 C 63.3292 -0.405355 -1.97585 0
M  V30 625 C 63.6422 1.03677 -1.65863 0
M  V30 626 O 64.8482 1.55679 -2.22433 0
M  V30 627 C 63.3042 -0.673861 -3.53535 0
M  V30 628 C 62.9122 -2.12951 -3.94152 0
M  V30 629 C 64.6562 -0.32378 -4.23263 0
M  V30 630 C 62.5632 -2.34298 -5.43009 0
M  V30 631 H 61.4932 -0.147836 -0.739365 0
M  V30 632 H 64.1442 -1.00769 -1.53355 0
M  V30 633 H 62.5262 -0.00137554 -3.96 0
M  V30 634 H 63.7002 -2.84104 -3.62797 0
M  V30 635 H 62.0152 -2.44089 -3.37356 0
M  V30 636 H 64.6122 -0.461126 -5.32708 0
M  V30 637 H 64.9552 0.731586 -4.09821 0
M  V30 638 H 65.4882 -0.950786 -3.8627 0
M  V30 639 H 62.2272 -3.38335 -5.61435 0
M  V30 640 H 61.7472 -1.67687 -5.75883 0
M  V30 641 H 63.4262 -2.16588 -6.09671 0
M  V30 642 N 63.5583 1.46682 -0.576371 0
M  V30 643 C 64.7863 2.06798 -0.0649635 0
M  V30 644 C 65.2013 1.42612 1.23723 0
M  V30 645 O 64.5583 0.529203 1.74659 0
M  V30 646 C 64.6093 3.6132 0.114202 0
M  V30 647 O 64.3303 4.23104 -1.13644 0
M  V30 648 C 65.8313 4.38349 0.66069 0
M  V30 649 H 63.0513 0.668778 -0.0545616 0
M  V30 650 H 65.5953 1.88404 -0.795237 0
M  V30 651 H 63.7503 3.79162 0.794673 0
M  V30 652 H 64.1643 5.15894 -0.946253 0
M  V30 653 H 65.6383 5.47081 0.73526 0
M  V30 654 H 66.1153 4.05953 1.67627 0
M  V30 655 H 66.7213 4.25297 0.0152951 0
M  V30 656 N 65.0364 0.313813 1.54444 0
M  V30 657 C 66.2614 -0.296681 2.05267 0
M  V30 658 C 66.6864 -1.45757 1.18897 0
M  V30 659 O 66.0444 -1.80239 0.195886 0
M  V30 660 C 66.0924 -0.71831 3.53373 0
M  V30 661 O 65.1964 -1.82175 3.69981 0
M  V30 662 H 64.5374 -0.0554061 0.661684 0
M  V30 663 H 67.0674 0.459387 1.99376 0
M  V30 664 H 67.0774 -1.00364 3.95463 0
M  V30 665 H 65.7524 0.130821 4.15694 0
M  V30 666 H 64.3294 -1.53598 3.39797 0
M  V30 667 N 66.5145 -1.57545 0.0417849 0
M  V30 668 C 67.7395 -1.97035 -0.647455 0
M  V30 669 C 68.1645 -0.918775 -1.64135 0
M  V30 670 O 67.5225 0.119006 -1.80909 0
M  V30 671 C 67.5705 -3.35609 -1.31905 0
M  V30 672 O 66.6745 -3.3287 -2.43457 0
M  V30 673 H 66.0155 -0.64211 -0.169086 0
M  V30 674 H 68.5455 -2.04318 0.107399 0
M  V30 675 H 68.5555 -3.72126 -1.67291 0
M  V30 676 H 67.2305 -4.11685 -0.590586 0
M  V30 677 H 65.8075 -3.08087 -2.10088 0
M  V30 678 N 67.9926 0.231505 -1.5589 0
M  V30 679 C 68.9406 1.30649 -1.92441 0
M  V30 680 C 69.9346 1.49037 -0.805254 0
M  V30 681 O 71.1406 1.50329 -0.990007 0
M  V30 682 H 67.5156 0.437812 -0.611412 0
M  V30 683 H 69.4866 0.970973 -2.82161 0
M  V30 684 C 68.2356 2.65179 -2.24889 0
M  V30 685 H 67.5586 2.51835 -3.10514 0
M  V30 686 H 68.9986 3.39234 -2.54355 0
M  V30 687 C 67.4576 3.19439 -1.07054 0
M  V30 688 O 67.9876 4.00371 -0.326499 0
M  V30 689 N 66.1936 2.77675 -0.85703 0
M  V30 690 H 65.7406 2.11969 -1.46379 0
M  V30 691 H 65.6986 3.14321 -0.0703223 0
M  V30 692 N 69.4707 1.49531 0.497807 0
M  V30 693 C 70.6987 1.62893 1.27567 0
M  V30 694 C 71.1137 0.301585 1.86376 0
M  V30 695 O 70.4707 -0.713335 1.67982 0
M  V30 696 C 70.5217 2.70013 2.40364 0
M  V30 697 O 70.2427 3.976 1.83972 0
M  V30 698 C 71.7437 2.94109 3.31685 0
M  V30 699 H 68.9637 0.548298 0.386794 0
M  V30 700 H 71.5077 1.95584 0.597245 0
M  V30 701 H 69.6627 2.40092 3.04031 0
M  V30 702 H 70.0767 4.56631 2.58047 0
M  V30 703 H 71.5507 3.72788 4.07104 0
M  V30 704 H 72.0277 2.04147 3.88871 0
M  V30 705 H 72.6337 3.2546 2.73781 0
M  V30 706 N 70.9488 -0.749086 1.3866 0
M  V30 707 C 71.9118 -1.84457 1.36045 0
M  V30 708 C 72.9118 -1.58682 0.260122 0
M  V30 709 O 74.1018 -1.66343 0.517261 0
M  V30 710 C 71.2338 -3.22008 1.11911 0
M  V30 711 H 72.4268 -1.88182 2.33512 0
M  V30 712 H 69.9798 -0.951266 1.24019 0
M  V30 713 H 70.7148 -3.2395 0.150686 0
M  V30 714 H 70.4998 -3.42111 1.91579 0
M  V30 715 H 71.9898 -4.0208 1.12788 0
M  V30 716 N 72.4269 -1.23603 -0.977757 0
M  V30 717 C 73.3899 -1.02069 -2.05218 0
M  V30 718 C 74.3899 0.0184305 -1.60789 0
M  V30 719 O 75.5799 -0.221569 -1.72785 0
M  V30 720 C 72.7119 -0.544926 -3.36517 0
M  V30 721 H 73.9049 -1.9742 -2.25755 0
M  V30 722 H 71.4579 -1.05684 -1.15155 0
M  V30 723 H 72.1929 0.412241 -3.21669 0
M  V30 724 H 71.9779 -1.2948 -3.70105 0
M  V30 725 H 73.4679 -0.414985 -4.15533 0
M  V30 726 N 73.905 1.17692 -1.04816 0
M  V30 727 C 74.853 2.23632 -0.63966 0
M  V30 728 C 75.847 1.6601 0.337219 0
M  V30 729 O 77.053 1.78844 0.203693 0
M  V30 730 H 73.428 0.727949 -0.188665 0
M  V30 731 H 75.399 2.55387 -1.54337 0
M  V30 732 C 74.148 3.4769 -0.0264051 0
M  V30 733 H 73.471 3.92331 -0.769164 0
M  V30 734 H 74.911 4.23418 0.222098 0
M  V30 735 C 73.37 3.13807 1.22584 0
M  V30 736 O 73.9 3.28236 2.31569 0
M  V30 737 N 72.106 2.68065 1.12202 0
M  V30 738 H 71.653 2.56525 0.235133 0
M  V30 739 H 71.611 2.45767 1.96076 0
M  V30 740 N 75.3831 0.828654 1.34056 0
M  V30 741 C 76.3311 0.242973 2.31327 0
M  V30 742 C 77.3251 -0.61944 1.57668 0
M  V30 743 O 78.5311 -0.51014 1.7262 0
M  V30 744 H 74.9061 0.059834 0.749616 0
M  V30 745 H 76.8771 1.07809 2.78244 0
M  V30 746 C 75.6261 -0.575733 3.429 0
M  V30 747 H 74.9491 0.0785582 3.99723 0
M  V30 748 H 76.3891 -0.951547 4.13185 0
M  V30 749 C 74.8481 -1.75044 2.87856 0
M  V30 750 O 75.3781 -2.84882 2.83205 0
M  V30 751 N 73.5841 -1.56903 2.44602 0
M  V30 752 H 73.1311 -0.675547 2.48584 0
M  V30 753 H 73.0891 -2.35652 2.08124 0
M  V30 754 N 76.8612 -1.46375 0.584142 0
M  V30 755 C 77.8242 -2.28784 -0.138108 0
M  V30 756 C 78.8242 -1.38471 -0.817462 0
M  V30 757 O 80.0142 -1.60833 -0.669199 0
M  V30 758 C 77.1462 -3.18892 -1.20503 0
M  V30 759 H 78.3392 -2.94117 0.586127 0
M  V30 760 H 75.8922 -1.52509 0.342171 0
M  V30 761 H 76.6272 -2.58309 -1.96079 0
M  V30 762 H 76.4122 -3.85388 -0.722384 0
M  V30 763 H 77.9022 -3.80914 -1.71155 0
M  V30 764 N 78.3393 -0.321999 -1.54275 0
M  V30 765 C 79.3023 0.531975 -2.22941 0
M  V30 766 C 80.3023 1.04478 -1.22234 0
M  V30 767 O 81.4923 0.937452 -1.46825 0
M  V30 768 C 78.6243 1.73874 -2.93224 0
M  V30 769 H 79.8173 -0.0682612 -2.99822 0
M  V30 770 H 77.3703 -0.0730644 -1.56129 0
M  V30 771 H 78.1053 2.37825 -2.20476 0
M  V30 772 H 77.8903 1.37847 -3.6707 0
M  V30 773 H 79.3803 2.34496 -3.45545 0
M  V30 774 N 79.8174 1.5752 -0.0501392 0
M  V30 775 C 81.0574 1.94521 0.627783 0
M  V30 776 C 81.4214 0.928265 1.68069 0
M  V30 777 O 82.6224 1.18517 2.41261 0
M  V30 778 C 80.8934 3.36319 1.20932 0
M  V30 779 S 82.4524 3.95272 1.90539 0
M  V30 780 H 79.2704 0.680456 0.206158 0
M  V30 781 H 81.8724 1.95139 -0.118829 0
M  V30 782 H 80.5764 4.08132 0.430865 0
M  V30 783 H 80.1074 3.39193 1.99277 0
M  V30 784 H 82.1224 3.80415 3.18589 0
M  V30 785 N 81.2955 -0.223234 1.56011 0
M  V30 786 C 82.2585 -1.26014 1.9145 0
M  V30 787 C 83.2585 -1.3989 0.792937 0
M  V30 788 O 84.4485 -1.38184 1.0607 0
M  V30 789 C 81.5805 -2.63422 2.16383 0
M  V30 790 H 82.7735 -0.95796 2.84189 0
M  V30 791 H 80.3265 -0.463576 1.49267 0
M  V30 792 H 81.0615 -2.98741 1.2619 0
M  V30 793 H 80.8465 -2.54728 2.98088 0
M  V30 794 H 82.3365 -3.38249 2.44903 0
M  V30 795 N 82.7736 -1.49793 -0.48987 0
M  V30 796 C 84.0196 -1.61049 -1.24236 0
M  V30 797 C 84.3746 -0.298412 -1.90072 0
M  V30 798 O 83.6676 0.702262 -1.78266 0
M  V30 799 C 83.8616 -2.71488 -2.32441 0
M  V30 800 C 83.6906 -4.13308 -1.77218 0
M  V30 801 C 82.4606 -4.79955 -1.58023 0
M  V30 802 C 84.6586 -4.98176 -1.27772 0
M  V30 803 N 82.6406 -6.06052 -0.978465 0
M  V30 804 C 84.0116 -6.14843 -0.798 0
M  V30 805 C 86.0666 -4.84091 -1.16449 0
M  V30 806 C 84.7696 -7.18975 -0.216245 0
M  V30 807 C 86.7956 -5.88382 -0.596698 0
M  V30 808 C 86.1576 -7.04285 -0.127262 0
M  V30 809 H 82.2566 -0.643611 -0.444172 0
M  V30 810 H 84.8406 -1.86842 -0.54754 0
M  V30 811 H 83.0116 -2.47449 -2.99372 0
M  V30 812 H 84.7436 -2.72205 -2.99477 0
M  V30 813 H 81.4986 -4.36936 -1.82712 0
M  V30 814 H 81.9226 -6.73407 -0.696534 0
M  V30 815 H 86.5646 -3.94786 -1.5134 0
M  V30 816 H 84.2826 -8.0797 0.144903 0
M  V30 817 H 87.8686 -5.79545 -0.511716 0
M  V30 818 H 86.7486 -7.83606 0.30523 0
M  V30 819 N 84.2517 0.741722 -1.39055 0
M  V30 820 C 85.1817 1.869 -1.39966 0
M  V30 821 C 86.1627 1.6804 -0.26392 0
M  V30 822 O 87.3477 1.88458 -0.468755 0
M  V30 823 C 84.4777 3.24572 -1.23574 0
M  V30 824 C 83.4317 3.58056 -2.34477 0
M  V30 825 C 82.7577 4.94593 -2.0318 0
M  V30 826 C 84.0577 3.61716 -3.76774 0
M  V30 827 H 85.7517 1.86395 -2.34302 0
M  V30 828 H 83.2977 0.895361 -1.1278 0
M  V30 829 H 85.2507 4.031 -1.22834 0
M  V30 830 H 83.9747 3.25587 -0.257045 0
M  V30 831 H 82.6337 2.81854 -2.34423 0
M  V30 832 H 82.2817 4.92181 -1.03765 0
M  V30 833 H 81.9817 5.17964 -2.77465 0
M  V30 834 H 83.5057 5.75486 -2.04079 0
M  V30 835 H 84.9197 4.30335 -3.78794 0
M  V30 836 H 83.3167 3.96603 -4.50362 0
M  V30 837 H 84.3867 2.61672 -4.08235 0
M  V30 838 N 85.7298 1.2412 0.971189 0
M  V30 839 C 86.6398 1.04747 2.09917 0
M  V30 840 C 87.6558 -0.0107162 1.73997 0
M  V30 841 O 88.8318 0.186714 2.00533 0
M  V30 842 C 85.8968 0.650828 3.40537 0
M  V30 843 C 84.9578 1.7851 3.90426 0
M  V30 844 C 84.1908 1.40729 5.14812 0
M  V30 845 O 84.4138 0.29557 5.69634 0
M  V30 846 O 83.3478 2.23168 5.58999 0
M  V30 847 H 87.1738 1.99304 2.29154 0
M  V30 848 H 84.7588 1.02908 1.08307 0
M  V30 849 H 86.6408 0.440992 4.19086 0
M  V30 850 H 85.3158 -0.265649 3.22608 0
M  V30 851 H 84.2228 2.04966 3.12953 0
M  V30 852 H 85.5558 2.68023 4.12825 0
M  V30 853 N 87.2079 -1.17134 1.05439 0
M  V30 854 C 88.1709 -2.19439 0.661764 0
M  V30 855 C 89.1709 -1.58199 -0.288042 0
M  V30 856 O 90.3609 -1.74053 -0.0715803 0
M  V30 857 C 87.4929 -3.40889 -0.0276209 0
M  V30 858 H 88.6859 -2.55688 1.56728 0
M  V30 859 H 86.2389 -1.31259 0.848567 0
M  V30 860 H 86.9739 -3.10187 -0.94629 0
M  V30 861 H 86.7589 -3.86586 0.655238 0
M  V30 862 H 88.2489 -4.16603 -0.288342 0
M  V30 863 N 88.686 -0.835752 -1.33615 0
M  V30 864 C 89.618 -0.224151 -2.28101 0
M  V30 865 C 90.631 0.593331 -1.51603 0
M  V30 866 O 91.82 0.420911 -1.73466 0
M  V30 867 C 88.92 0.703309 -3.31522 0
M  V30 868 C 88.093 -0.0741528 -4.37337 0
M  V30 869 C 87.152 0.776176 -5.20444 0
M  V30 870 O 86.178 0.216506 -5.68788 0
M  V30 871 N 87.38 2.09401 -5.41416 0
M  V30 872 H 90.145 -1.03598 -2.81225 0
M  V30 873 H 87.706 -0.69392 -1.46275 0
M  V30 874 H 89.698 1.27707 -3.84022 0
M  V30 875 H 88.268 1.41585 -2.78698 0
M  V30 876 H 87.488 -0.82928 -3.85378 0
M  V30 877 H 88.776 -0.608863 -5.05144 0
M  V30 878 H 88.174 2.57229 -5.03835 0
M  V30 879 H 86.731 2.61633 -5.96985 0
M  V30 880 N 90.1641 1.46063 -0.591896 0
M  V30 881 C 91.0741 2.34192 0.13831 0
M  V30 882 C 92.0901 1.50305 0.876608 0
M  V30 883 O 93.2661 1.8315 0.837728 0
M  V30 884 C 90.3311 3.27656 1.13326 0
M  V30 885 C 89.3921 4.27445 0.39863 0
M  V30 886 C 88.6251 5.16443 1.34618 0
M  V30 887 O 88.8481 5.08553 2.58321 0
M  V30 888 O 87.7821 5.95843 0.851768 0
M  V30 889 H 91.6081 2.98002 -0.58552 0
M  V30 890 H 89.1931 1.45188 -0.352239 0
M  V30 891 H 91.0751 3.85291 1.70671 0
M  V30 892 H 89.7501 2.6643 1.83839 0
M  V30 893 H 88.6571 3.73471 -0.216895 0
M  V30 894 H 89.9901 4.91482 -0.265709 0
M  V30 895 N 91.6422 0.330177 1.54103 0
M  V30 896 C 92.5522 -0.541534 2.28264 0
M  V30 897 C 93.5682 -1.12351 1.32866 0
M  V30 898 O 94.7442 -1.14206 1.65888 0
M  V30 899 C 91.8092 -1.68322 3.03098 0
M  V30 900 C 90.8702 -1.13238 4.14096 0
M  V30 901 C 90.1032 -2.21966 4.85352 0
M  V30 902 O 90.3262 -3.42437 4.56172 0
M  V30 903 O 89.2602 -1.87013 5.7211 0
M  V30 904 H 93.0862 0.060938 3.03639 0
M  V30 905 H 90.6712 0.09565 1.49093 0
M  V30 906 H 92.5532 -2.34777 3.49939 0
M  V30 907 H 91.2282 -2.27176 2.30593 0
M  V30 908 H 90.1352 -0.432736 3.71589 0
M  V30 909 H 91.4682 -0.588898 4.88664 0
M  V30 910 N 93.1203 -1.57491 0.0584922 0
M  V30 911 C 94.0303 -2.15448 -0.928414 0
M  V30 912 C 95.0463 -1.11416 -1.3365 0
M  V30 913 O 96.2223 -1.4362 -1.41193 0
M  V30 914 C 93.2873 -2.69393 -2.18239 0
M  V30 915 C 92.3483 -3.88249 -1.83196 0
M  V30 916 C 91.5813 -4.39613 -3.02616 0
M  V30 917 O 91.8043 -3.90023 -4.16219 0
M  V30 918 O 90.7383 -5.31111 -2.83204 0
M  V30 919 H 94.5643 -3.00112 -0.465483 0
M  V30 920 H 92.1493 -1.48499 -0.163826 0
M  V30 921 H 94.0313 -3.04026 -2.91798 0
M  V30 922 H 92.7063 -1.87796 -2.63656 0
M  V30 923 H 91.6133 -3.58492 -1.06931 0
M  V30 924 H 92.9463 -4.71098 -1.42573 0
M  V30 925 N 94.5984 0.214957 -1.56127 0
M  V30 926 C 95.5454 1.26642 -1.92952 0
M  V30 927 C 96.5154 1.46244 -0.78753 0
M  V30 928 O 97.7004 1.59704 -1.04399 0
M  V30 929 C 94.8404 2.6104 -2.25726 0
M  V30 930 C 93.9534 2.49183 -3.52891 0
M  V30 931 C 93.0884 3.76149 -3.7508 0
M  V30 932 C 92.1274 3.59041 -4.95738 0
M  V30 933 N 91.2644 4.77972 -5.14283 0
M  V30 934 H 96.1044 0.945384 -2.82607 0
M  V30 935 H 93.6414 0.455489 -1.3987 0
M  V30 936 H 95.5994 3.39313 -2.42739 0
M  V30 937 H 94.2294 2.91227 -1.39236 0
M  V30 938 H 93.2814 1.6231 -3.44034 0
M  V30 939 H 94.5934 2.32466 -4.41318 0
M  V30 940 H 93.7474 4.62865 -3.92226 0
M  V30 941 H 92.4864 3.95799 -2.84947 0
M  V30 942 H 91.4914 2.7071 -4.78535 0
M  V30 943 H 92.7164 3.40856 -5.87362 0
M  V30 944 H 90.6624 4.97923 -4.27093 0
M  V30 945 H 90.5794 4.64006 -5.96853 0
M  V30 946 H 91.8474 5.66096 -5.35869 0
M  V30 947 N 96.0765 1.50051 0.48192 0
M  V30 948 C 97.3225 1.60736 1.2366 0
M  V30 949 C 97.6555 0.301786 1.91841 0
M  V30 950 O 96.9305 -0.696025 1.8162 0
M  V30 951 C 97.2135 2.78009 2.28874 0
M  V30 952 C 97.0665 4.18416 1.65069 0
M  V30 953 C 98.3855 2.90867 3.30279 0
M  V30 954 H 95.5045 0.585031 0.448228 0
M  V30 955 H 98.1465 1.82402 0.531946 0
M  V30 956 H 96.2965 2.59667 2.88973 0
M  V30 957 H 97.9685 4.48322 1.0865 0
M  V30 958 H 96.2115 4.23177 0.954148 0
M  V30 959 H 96.8825 4.96381 2.41474 0
M  V30 960 H 99.3585 3.07623 2.80191 0
M  V30 961 H 98.2345 3.74566 4.01238 0
M  V30 962 H 98.4955 2.01021 3.93755 0
M  V30 963 N 97.5546 -0.734337 1.39446 0
M  V30 964 C 98.8026 -1.49096 1.36436 0
M  V30 965 C 99.1236 -1.94961 -0.0388255 0
M  V30 966 O 98.3936 -1.69033 -0.990191 0
M  V30 967 H 96.9736 -0.5531 0.502085 0
M  V30 968 H 99.6356 -0.871725 1.74319 0
M  V30 969 H 98.7316 -2.37276 2.02747 0
M  V30 970 N 99.0327 -1.24633 -0.964593 0
M  V30 971 C 100.28 -1.08788 -1.70796 0
M  V30 972 C 100.608 0.372783 -1.90894 0
M  V30 973 O 99.8627 1.29167 -1.47018 0
M  V30 974 C 100.162 -1.7763 -3.10133 0
M  V30 975 C 99.8277 -3.27557 -3.09866 0
M  V30 976 C 98.4897 -3.6846 -3.09501 0
M  V30 977 C 100.842 -4.23389 -3.03959 0
M  V30 978 C 98.1697 -5.03624 -3.00965 0
M  V30 979 C 100.522 -5.58565 -2.96965 0
M  V30 980 C 99.1857 -5.98809 -2.9493 0
M  V30 981 H 98.4557 -0.398084 -0.624988 0
M  V30 982 H 101.103 -1.54777 -1.12767 0
M  V30 983 H 99.4077 -1.24044 -3.71645 0
M  V30 984 H 101.105 -1.62832 -3.66451 0
M  V30 985 H 97.6947 -2.95006 -3.10917 0
M  V30 986 H 101.879 -3.92787 -3.03368 0
M  V30 987 H 97.1347 -5.33998 -2.97752 0
M  V30 988 H 101.309 -6.32523 -2.91354 0
M  V30 989 H 98.9357 -7.03505 -2.88071 0
M  V30 990 N 100.511 1.16574 -1.06058 0
M  V30 991 C 101.922 1.68662 -0.800632 0
M  V30 992 C 102.273 1.84184 0.67608 0
M  V30 993 O 101.398 1.53568 1.52466 0
M  V30 994 C 101.993 3.06356 -1.44676 0
M  V30 995 C 100.552 3.55575 -1.23465 0
M  V30 996 C 99.6988 2.31616 -1.52477 0
M  V30 997 H 102.65 1.00969 -1.22438 0
M  V30 998 H 102.671 3.70636 -0.860788 0
M  V30 999 H 102.183 2.95027 -2.52152 0
M  V30 1000 H 100.284 3.72167 -0.179527 0
M  V30 1001 H 100.397 4.37812 -1.94571 0
M  V30 1002 H 98.7608 2.36512 -0.945209 0
M  V30 1003 H 99.5438 2.22887 -2.61106 0
M  V30 1004 N 101.989 0.842826 1.3317 0
M  V30 1005 C 103.235 0.441099 1.97945 0
M  V30 1006 C 103.568 -0.998024 1.66593 0
M  V30 1007 O 102.843 -1.69839 0.947898 0
M  V30 1008 C 103.126 0.666841 3.53872 0
M  V30 1009 C 102.979 2.15352 3.94897 0
M  V30 1010 C 104.298 0.115544 4.39948 0
M  V30 1011 H 101.417 0.161739 0.719034 0
M  V30 1012 H 104.059 1.05907 1.57746 0
M  V30 1013 H 102.209 0.140828 3.88245 0
M  V30 1014 H 103.881 2.7447 3.70761 0
M  V30 1015 H 102.124 2.63653 3.44484 0
M  V30 1016 H 102.795 2.26221 5.03516 0
M  V30 1017 H 105.271 0.565213 4.12243 0
M  V30 1018 H 104.147 0.303152 5.48062 0
M  V30 1019 H 104.408 -0.980935 4.3108 0
M  V30 1020 N 103.467 -1.45747 0.599634 0
M  V30 1021 C 104.695 -2.06668 0.0978551 0
M  V30 1022 C 105.11 -1.44562 -1.21439 0
M  V30 1023 O 104.467 -0.556923 -1.73795 0
M  V30 1024 C 104.518 -3.61456 -0.0567044 0
M  V30 1025 O 104.239 -4.21242 1.20361 0
M  V30 1026 C 105.74 -4.39345 -0.590869 0
M  V30 1027 H 102.96 -0.667825 0.0651943 0
M  V30 1028 H 105.504 -1.87115 0.82511 0
M  V30 1029 H 103.659 -3.80378 -0.734251 0
M  V30 1030 H 104.073 -5.14323 1.02821 0
M  V30 1031 H 105.547 -5.48182 -0.648131 0
M  V30 1032 H 106.024 -4.08568 -1.61147 0
M  V30 1033 H 106.63 -4.25268 0.0523679 0
M  V30 1034 N 104.945 -0.338344 -1.53925 0
M  V30 1035 C 106.356 0.146651 -1.86123 0
M  V30 1036 C 106.707 1.5042 -1.2597 0
M  V30 1037 O 105.832 2.08723 -0.571294 0
M  V30 1038 C 106.427 0.272879 -3.37699 0
M  V30 1039 C 104.986 0.702103 -3.69794 0
M  V30 1040 C 104.133 -0.167304 -2.76795 0
M  V30 1041 H 107.084 -0.558123 -1.48562 0
M  V30 1042 H 107.105 1.10128 -3.64214 0
M  V30 1043 H 106.617 -0.715307 -3.81451 0
M  V30 1044 H 104.718 1.6995 -3.31584 0
M  V30 1045 H 104.831 0.495604 -4.7653 0
M  V30 1046 H 103.195 0.359527 -2.5215 0
M  V30 1047 H 103.978 -1.15253 -3.23375 0
M  V30 1048 N 106.423 1.57458 -0.0668435 0
M  V30 1049 C 107.355 2.09413 0.931601 0
M  V30 1050 C 108.368 1.02522 1.26464 0
M  V30 1051 O 109.557 1.30049 1.22269 0
M  V30 1052 C 106.657 2.53537 2.24882 0
M  V30 1053 C 105.83 3.83944 2.09537 0
M  V30 1054 C 104.889 4.14214 3.2452 0
M  V30 1055 O 103.915 4.83891 2.9973 0
M  V30 1056 N 105.117 3.67367 4.49469 0
M  V30 1057 H 107.882 2.95699 0.488048 0
M  V30 1058 H 105.443 1.61462 0.119009 0
M  V30 1059 H 107.435 2.70853 3.00701 0
M  V30 1060 H 106.005 1.72415 2.60753 0
M  V30 1061 H 105.225 3.76057 1.18215 0
M  V30 1062 H 106.513 4.69312 1.96529 0
M  V30 1063 H 105.911 3.11068 4.72497 0
M  V30 1064 H 104.468 3.89891 5.2233 0
M  V30 1065 N 107.901 -0.206675 1.56239 0
M  V30 1066 C 109.147 -0.930218 1.80208 0
M  V30 1067 C 109.48 -1.83387 0.638981 0
M  V30 1068 O 108.755 -1.91119 -0.361066 0
M  V30 1069 C 109.038 -1.75641 3.1436 0
M  V30 1070 C 108.891 -0.878257 4.41142 0
M  V30 1071 C 110.21 -2.73129 3.45092 0
M  V30 1072 H 107.329 -0.336742 0.655571 0
M  V30 1073 H 109.971 -0.198222 1.88963 0
M  V30 1074 H 108.121 -2.38048 3.07027 0
M  V30 1075 H 109.793 -0.269787 4.6051 0
M  V30 1076 H 108.036 -0.184385 4.33408 0
M  V30 1077 H 108.707 -1.49106 5.3148 0
M  V30 1078 H 111.183 -2.20856 3.52649 0
M  V30 1079 H 110.059 -3.28028 4.40101 0
M  V30 1080 H 110.32 -3.51606 2.68003 0
M  V30 1081 N 109.379 -1.50304 -0.473955 0
M  V30 1082 C 110.79 -1.54042 -1.0549 0
M  V30 1083 C 111.141 -0.342248 -1.93192 0
M  V30 1084 O 110.266 0.545157 -2.09421 0
M  V30 1085 C 110.861 -2.79152 -1.91989 0
M  V30 1086 C 109.42 -2.8558 -2.45196 0
M  V30 1087 C 108.567 -2.48295 -1.2347 0
M  V30 1088 H 111.518 -1.5661 -0.256693 0
M  V30 1089 H 111.539 -2.60845 -2.7702 0
M  V30 1090 H 111.051 -3.66339 -1.28131 0
M  V30 1091 H 109.152 -2.02738 -3.12615 0
M  V30 1092 H 109.265 -3.88403 -2.80499 0
M  V30 1093 H 107.629 -2.00669 -1.56856 0
M  V30 1094 H 108.412 -3.37787 -0.612789 0
M  V30 1095 N 110.857 0.726932 -1.39834 0
M  V30 1096 C 111.787 1.85405 -1.41941 0
M  V30 1097 C 112.768 1.67751 -0.281728 0
M  V30 1098 O 113.953 1.8795 -0.488717 0
M  V30 1099 C 111.083 3.23243 -1.2701 0
M  V30 1100 C 110.037 3.55549 -2.38262 0
M  V30 1101 C 109.363 4.9241 -2.08415 0
M  V30 1102 C 110.663 3.577 -3.80589 0
M  V30 1103 H 112.357 1.83899 -2.36266 0
M  V30 1104 H 109.903 0.883349 -1.13723 0
M  V30 1105 H 111.856 4.01775 -1.27103 0
M  V30 1106 H 110.58 3.25296 -0.291564 0
M  V30 1107 H 109.239 2.79351 -2.37399 0
M  V30 1108 H 108.887 4.91052 -1.0898 0
M  V30 1109 H 108.587 5.14992 -2.82943 0
M  V30 1110 H 110.111 5.73289 -2.10171 0
M  V30 1111 H 111.525 4.26293 -3.83337 0
M  V30 1112 H 109.922 3.91804 -4.54543 0
M  V30 1113 H 110.992 2.57328 -4.10987 0
M  V30 1114 N 112.336 1.25143 0.95797 0
M  V30 1115 C 113.752 1.01892 1.22842 0
M  V30 1116 C 113.952 -0.266311 1.99732 0
M  V30 1117 O 113.008 -0.979913 2.3271 0
M  V30 1118 C 114.321 2.24004 2.00606 0
M  V30 1119 C 115.869 2.28731 2.13662 0
M  V30 1120 C 116.344 3.5049 2.94823 0
M  V30 1121 N 117.835 3.50866 3.02403 0
M  V30 1122 C 118.57 4.4174 3.65586 0
M  V30 1123 N 118.066 5.42882 4.30408 0
M  V30 1124 N 119.859 4.29429 3.62694 0
M  V30 1125 H 112.01 2.07718 0.443493 0
M  V30 1126 H 114.273 0.912031 0.258657 0
M  V30 1127 H 113.979 3.17395 1.51503 0
M  V30 1128 H 113.853 2.26907 3.01319 0
M  V30 1129 H 116.24 1.35865 2.61963 0
M  V30 1130 H 116.321 2.29848 1.12265 0
M  V30 1131 H 115.965 4.43676 2.47213 0
M  V30 1132 H 115.895 3.46617 3.96439 0
M  V30 1133 H 118.386 2.777 2.56302 0
M  V30 1134 H 118.699 6.0844 4.76467 0
M  V30 1135 H 117.044 5.46758 4.29047 0
M  V30 1136 H 120.235 3.49643 3.11236 0
M  V30 1137 H 120.408 5.00448 4.1165 0
M  V30 1138 N 113.814 -1.1601 1.06675 0
M  V30 1139 C 115.225 -1.68235 0.809565 0
M  V30 1140 C 115.576 -1.8454 -0.666303 0
M  V30 1141 O 114.701 -1.54374 -1.5165 0
M  V30 1142 C 115.296 -3.05585 1.46299 0
M  V30 1143 C 113.855 -3.54915 1.25349 0
M  V30 1144 C 113.002 -2.30804 1.53703 0
M  V30 1145 H 115.953 -1.00318 1.22971 0
M  V30 1146 H 115.974 -3.70174 0.880431 0
M  V30 1147 H 115.486 -2.93686 2.53713 0
M  V30 1148 H 113.587 -3.72067 0.199261 0
M  V30 1149 H 113.7 -4.36774 1.9689 0
M  V30 1150 H 112.064 -2.36007 0.957739 0
M  V30 1151 H 112.847 -2.21499 2.62284 0
M  V30 1152 N 115.292 -0.849877 -1.32721 0
M  V30 1153 C 116.225 -0.235903 -2.26977 0
M  V30 1154 C 117.203 0.623355 -1.50177 0
M  V30 1155 O 118.387 0.581207 -1.79316 0
M  V30 1156 C 115.514 0.667712 -3.32053 0
M  V30 1157 C 114.56 -0.11753 -4.26338 0
M  V30 1158 S 115.393 -1.48277 -5.14562 0
M  V30 1159 C 116.549 -0.584741 -6.23163 0
M  V30 1160 H 116.782 -1.03495 -2.78704 0
M  V30 1161 H 114.315 -0.64724 -1.40179 0
M  V30 1162 H 116.273 1.18343 -3.93072 0
M  V30 1163 H 114.934 1.44052 -2.7912 0
M  V30 1164 H 114.127 0.57051 -5.00761 0
M  V30 1165 H 113.729 -0.564668 -3.69713 0
M  V30 1166 H 116.021 0.212968 -6.77165 0
M  V30 1167 H 116.964 -1.29947 -6.96074 0
M  V30 1168 H 117.372 -0.161202 -5.6427 0
M  V30 1169 N 116.77 1.45427 -0.607355 0
M  V30 1170 C 117.998 2.06614 -0.108814 0
M  V30 1171 C 118.413 1.45204 1.2067 0
M  V30 1172 O 117.77 0.566132 1.73497 0
M  V30 1173 C 117.821 3.61481 0.0375347 0
M  V30 1174 O 117.542 4.20598 -1.22593 0
M  V30 1175 C 119.043 4.39652 0.567561 0
M  V30 1176 H 116.263 0.66747 -0.0687351 0
M  V30 1177 H 118.807 1.86675 -0.835022 0
M  V30 1178 H 116.962 3.80762 0.714068 0
M  V30 1179 H 117.376 5.1377 -1.05547 0
M  V30 1180 H 118.85 5.48518 0.61905 0
M  V30 1181 H 119.327 4.09417 1.58978 0
M  V30 1182 H 119.933 4.25234 -0.0749202 0
M  V30 1183 N 118.248 0.346503 1.53744 0
M  V30 1184 C 119.478 -0.250047 2.05081 0
M  V30 1185 C 119.886 -1.44529 1.22098 0
M  V30 1186 O 119.229 -1.81992 0.249917 0
M  V30 1187 C 119.291 -0.725934 3.52094 0
M  V30 1188 C 118.955 0.350053 4.55657 0
M  V30 1189 C 119.952 1.19372 5.0601 0
M  V30 1190 C 117.637 0.504827 4.99757 0
M  V30 1191 C 119.631 2.17768 5.99046 0
M  V30 1192 C 117.318 1.49218 5.92602 0
M  V30 1193 C 118.316 2.32706 6.42135 0
M  V30 1194 O 118.004 3.2976 7.33153 0
M  V30 1195 H 117.736 -0.0515469 0.674032 0
M  V30 1196 H 120.29 0.497559 1.99282 0
M  V30 1197 H 118.52 -1.52483 3.55367 0
M  V30 1198 H 120.209 -1.24336 3.86388 0
M  V30 1199 H 120.975 1.08525 4.72702 0
M  V30 1200 H 116.854 -0.135178 4.60802 0
M  V30 1201 H 120.398 2.82971 6.37631 0
M  V30 1202 H 116.295 1.6012 6.25325 0
M  V30 1203 H 117.063 3.25265 7.51096 0
M  V30 1204 N 119.726 -1.57421 0.075193 0
M  V30 1205 C 120.673 -2.12915 -0.890843 0
M  V30 1206 C 121.643 -1.04252 -1.29309 0
M  V30 1207 O 122.828 -1.31933 -1.37834 0
M  V30 1208 C 119.968 -2.69795 -2.15186 0
M  V30 1209 C 119.081 -3.92624 -1.80194 0
M  V30 1210 C 118.216 -4.37736 -3.00933 0
M  V30 1211 C 117.255 -5.53205 -2.61974 0
M  V30 1212 N 116.392 -5.9326 -3.75483 0
M  V30 1213 H 121.232 -2.95156 -0.410735 0
M  V30 1214 H 118.769 -1.45854 -0.191086 0
M  V30 1215 H 120.727 -3.00883 -2.89008 0
M  V30 1216 H 119.357 -1.90313 -2.60731 0
M  V30 1217 H 118.409 -3.67977 -0.964218 0
M  V30 1218 H 119.721 -4.76482 -1.47534 0
M  V30 1219 H 118.875 -4.70503 -3.8303 0
M  V30 1220 H 117.614 -3.52739 -3.36789 0
M  V30 1221 H 116.619 -5.20086 -1.783 0
M  V30 1222 H 117.844 -6.39936 -2.27284 0
M  V30 1223 H 115.79 -5.11212 -4.11094 0
M  V30 1224 H 115.707 -6.71865 -3.46602 0
M  V30 1225 H 116.975 -6.30651 -4.58148 0
M  V30 1226 N 121.204 0.198386 -1.56346 0
M  V30 1227 C 122.167 1.22952 -1.93431 0
M  V30 1228 C 123.167 1.38611 -0.815092 0
M  V30 1229 O 124.357 1.36479 -1.08255 0
M  V30 1230 C 121.489 2.59946 -2.20546 0
M  V30 1231 H 122.682 0.912626 -2.85677 0
M  V30 1232 H 120.235 0.43977 -1.49986 0
M  V30 1233 H 120.97 2.96696 -1.30927 0
M  V30 1234 H 120.755 2.49953 -3.02102 0
M  V30 1235 H 122.245 3.3431 -2.50253 0
M  V30 1236 N 122.682 1.50554 0.465978 0
M  V30 1237 C 123.645 1.69233 1.54574 0
M  V30 1238 C 124.645 0.562901 1.50626 0
M  V30 1239 O 125.835 0.830016 1.53155 0
M  V30 1240 C 122.967 1.7223 2.94193 0
M  V30 1241 H 124.16 2.65571 1.39327 0
M  V30 1242 H 121.713 1.40111 0.692711 0
M  V30 1243 H 122.448 0.77603 3.14878 0
M  V30 1244 H 122.233 2.54285 2.98466 0
M  V30 1245 H 123.723 1.88618 3.72576 0
M  V30 1246 N 124.16 -0.719506 1.40217 0
M  V30 1247 C 125.406 -1.48152 1.38488 0
M  V30 1248 C 125.739 -1.94195 -0.0141867 0
M  V30 1249 O 125.014 -1.67884 -0.982096 0
M  V30 1250 C 125.297 -2.71035 2.37091 0
M  V30 1251 C 125.15 -2.30912 3.86005 0
M  V30 1252 C 126.469 -3.73182 2.33288 0
M  V30 1253 H 123.588 -0.537395 0.504357 0
M  V30 1254 H 126.23 -0.821472 1.71324 0
M  V30 1255 H 124.38 -3.27352 2.0922 0
M  V30 1256 H 126.052 -1.80107 4.24687 0
M  V30 1257 H 124.295 -1.62958 4.02029 0
M  V30 1258 H 124.966 -3.18978 4.50508 0
M  V30 1259 H 127.442 -3.26485 2.57966 0
M  V30 1260 H 126.318 -4.56806 3.04334 0
M  V30 1261 H 126.579 -4.21202 1.34317 0
M  V30 1262 N 125.638 -1.25649 -0.95132 0
M  V30 1263 C 126.915 -1.01361 -1.67288 0
M  V30 1264 C 127.295 0.459135 -2.06046 0
M  V30 1265 O 126.643 1.43723 -1.7764 0
M  V30 1266 C 126.853 -1.95256 -2.89268 0
M  V30 1267 C 128.201 -2.23289 -3.61147 0
M  V30 1268 O 129.225 -1.93041 -2.99355 0
M  V30 1269 O 128.084 -2.74741 -4.72419 0
M  V30 1270 H 125.178 -0.38464 -0.732107 0
M  V30 1271 H 127.724 -1.36817 -1.00395 0
M  V30 1272 H 126.496 -2.94685 -2.57442 0
M  V30 1273 H 126.119 -1.60218 -3.6389 0
M  V30 1274 N 127.117 1.15442 -1.07289 0
M  V30 1275 C 128.047 2.22312 -0.714107 0
M  V30 1276 C 129.028 1.67467 0.298155 0
M  V30 1277 O 130.213 1.93445 0.171048 0
M  V30 1278 C 127.343 3.47124 -0.110448 0
M  V30 1279 C 126.297 4.14926 -1.04979 0
M  V30 1280 C 125.623 5.33807 -0.308924 0
M  V30 1281 C 126.923 4.64762 -2.38314 0
M  V30 1282 H 128.617 2.5258 -1.6076 0
M  V30 1283 H 126.163 1.21404 -0.77441 0
M  V30 1284 H 128.116 4.21124 0.152482 0
M  V30 1285 H 126.84 3.16187 0.81812 0
M  V30 1286 H 125.499 3.42866 -1.29764 0
M  V30 1287 H 125.147 4.99126 0.623084 0
M  V30 1288 H 124.847 5.80113 -0.935036 0
M  V30 1289 H 126.371 6.10576 -0.0537771 0
M  V30 1290 H 127.785 5.30292 -2.1786 0
M  V30 1291 H 126.182 5.21728 -2.96514 0
M  V30 1292 H 127.252 3.80434 -3.00663 0
M  V30 1293 N 128.595 0.856903 1.32268 0
M  V30 1294 C 129.82 0.474569 2.01897 0
M  V30 1295 C 130.245 -0.921766 1.63967 0
M  V30 1296 O 129.603 -1.60589 0.84148 0
M  V30 1297 C 129.651 0.623799 3.55164 0
M  V30 1298 O 128.755 -0.342459 4.10976 0
M  V30 1299 H 128.096 0.190422 0.63611 0
M  V30 1300 H 130.626 1.15672 1.68764 0
M  V30 1301 H 130.636 0.512169 4.04773 0
M  V30 1302 H 129.311 1.64202 3.82113 0
M  V30 1303 H 127.888 -0.18688 3.72431 0
M  V30 1304 N 130.073 -1.45103 0.615059 0
M  V30 1305 C 131.023 -2.27679 -0.120966 0
M  V30 1306 C 132.007 -1.3775 -0.831491 0
M  V30 1307 O 133.199 -1.61683 -0.720249 0
M  V30 1308 C 130.328 -3.24767 -1.1127 0
M  V30 1309 C 129.414 -4.22184 -0.402627 0
M  V30 1310 N 129.805 -5.02692 0.559884 0
M  V30 1311 C 128.103 -4.4125 -0.649202 0
M  V30 1312 C 128.804 -5.73421 0.977942 0
M  V30 1313 N 127.78 -5.42657 0.320104 0
M  V30 1314 H 131.582 -2.87325 0.618181 0
M  V30 1315 H 129.096 -1.56345 0.439304 0
M  V30 1316 H 131.093 -3.82666 -1.65446 0
M  V30 1317 H 129.753 -2.66682 -1.85232 0
M  V30 1318 H 130.764 -5.09354 0.936976 0
M  V30 1319 H 127.441 -3.9428 -1.37293 0
M  V30 1320 H 128.831 -6.48107 1.77222 0
M  V30 1321 N 131.551 -0.354651 -1.53558 0
M  V30 1322 C 132.798 0.238443 -2.01091 0
M  V30 1323 C 133.126 1.49663 -1.24222 0
M  V30 1324 O 132.381 1.93049 -0.321003 0
M  V30 1325 C 132.68 0.587121 -3.52545 0
M  V30 1326 C 132.346 -0.575472 -4.47213 0
M  V30 1327 C 131.008 -0.894497 -4.72813 0
M  V30 1328 C 133.36 -1.35489 -5.03281 0
M  V30 1329 C 130.688 -1.99511 -5.51736 0
M  V30 1330 C 133.04 -2.44583 -5.83405 0
M  V30 1331 C 131.704 -2.77033 -6.07296 0
M  V30 1332 H 130.974 0.0872526 -0.735845 0
M  V30 1333 H 133.621 -0.484859 -1.8526 0
M  V30 1334 H 131.926 1.39129 -3.66265 0
M  V30 1335 H 133.623 1.05809 -3.86789 0
M  V30 1336 H 130.213 -0.316774 -4.27428 0
M  V30 1337 H 134.397 -1.12167 -4.83459 0
M  V30 1338 H 129.653 -2.25063 -5.68469 0
M  V30 1339 H 133.827 -3.05401 -6.25862 0
M  V30 1340 H 131.454 -3.6244 -6.68237 0
M  V30 1341 N 133.029 1.57378 -0.0835403 0
M  V30 1342 C 133.959 2.1641 0.87686 0
M  V30 1343 C 134.94 1.09429 1.30228 0
M  V30 1344 O 136.125 1.37516 1.37124 0
M  V30 1345 C 133.255 2.73517 2.14022 0
M  V30 1346 C 132.209 3.85769 1.85381 0
M  V30 1347 C 131.535 4.29529 3.18448 0
M  V30 1348 C 132.835 5.09486 1.14984 0
M  V30 1349 H 134.529 2.96914 0.385059 0
M  V30 1350 H 132.075 1.42823 0.18377 0
M  V30 1351 H 134.028 3.13463 2.81636 0
M  V30 1352 H 132.752 1.90252 2.65465 0
M  V30 1353 H 131.411 3.46345 1.20169 0
M  V30 1354 H 131.059 3.43169 3.67755 0
M  V30 1355 H 130.759 5.05204 3.00071 0
M  V30 1356 H 132.283 4.72099 3.8724 0
M  V30 1357 H 133.697 5.46674 1.72687 0
M  V30 1358 H 132.094 5.90515 1.06826 0
M  V30 1359 H 133.164 4.84724 0.130749 0
M  V30 1360 N 134.507 -0.190092 1.56449 0
M  V30 1361 C 135.454 -1.23557 1.94942 0
M  V30 1362 C 136.424 -1.44972 0.810696 0
M  V30 1363 O 137.609 -1.58023 1.06927 0
M  V30 1364 C 134.749 -2.57416 2.2985 0
M  V30 1365 C 133.862 -2.43537 3.5681 0
M  V30 1366 C 132.997 -3.70134 3.81017 0
M  V30 1367 C 132.036 -3.51109 5.01387 0
M  V30 1368 N 131.173 -4.6973 5.21822 0
M  V30 1369 H 136.013 -0.900304 2.84075 0
M  V30 1370 H 133.55 -0.43318 1.40577 0
M  V30 1371 H 135.508 -3.35409 2.48106 0
M  V30 1372 H 134.138 -2.88975 1.43852 0
M  V30 1373 H 133.19 -1.56816 3.46573 0
M  V30 1374 H 134.502 -2.25415 4.4496 0
M  V30 1375 H 133.656 -4.56566 3.9954 0
M  V30 1376 H 132.395 -3.91215 2.91207 0
M  V30 1377 H 131.4 -2.63063 4.82782 0
M  V30 1378 H 132.625 -3.31468 5.9271 0
M  V30 1379 H 130.571 -4.91065 4.34961 0
M  V30 1380 H 130.488 -4.54452 6.0416 0
M  V30 1381 H 131.756 -5.57499 5.44808 0
M  V30 1382 N 135.985 -1.50799 -0.457987 0
M  V30 1383 C 136.895 -1.73426 -1.57989 0
M  V30 1384 C 137.911 -0.617745 -1.62665 0
M  V30 1385 O 139.087 -0.897614 -1.80291 0
M  V30 1386 C 136.152 -1.83557 -2.94122 0
M  V30 1387 C 135.213 -3.07345 -2.99729 0
M  V30 1388 C 134.446 -3.16983 -4.29368 0
M  V30 1389 O 134.669 -2.33077 -5.20607 0
M  V30 1390 O 133.603 -4.09812 -4.40837 0
M  V30 1391 H 137.429 -2.68555 -1.41817 0
M  V30 1392 H 135.014 -1.35052 -0.638859 0
M  V30 1393 H 136.896 -1.92326 -3.74952 0
M  V30 1394 H 135.571 -0.916137 -3.10465 0
M  V30 1395 H 134.478 -3.04068 -2.1793 0
M  V30 1396 H 135.811 -3.9891 -2.88326 0
M  V30 1397 N 137.463 0.71206 -1.40597 0
M  V30 1398 C 138.41 1.82613 -1.41142 0
M  V30 1399 C 139.38 1.63925 -0.267903 0
M  V30 1400 O 140.565 1.85009 -0.466495 0
M  V30 1401 C 137.705 3.20354 -1.28324 0
M  V30 1402 C 136.818 3.50589 -2.52411 0
M  V30 1403 C 135.953 4.77855 -2.32009 0
M  V30 1404 C 134.992 5.01005 -3.51654 0
M  V30 1405 N 134.129 6.19487 -3.30425 0
M  V30 1406 H 138.969 1.81482 -2.36365 0
M  V30 1407 H 136.506 0.886475 -1.17388 0
M  V30 1408 H 138.464 3.99899 -1.18899 0
M  V30 1409 H 137.094 3.20705 -0.367189 0
M  V30 1410 H 136.146 2.65573 -2.72351 0
M  V30 1411 H 137.458 3.63604 -3.41458 0
M  V30 1412 H 136.612 5.65424 -2.19956 0
M  V30 1413 H 135.351 4.67056 -1.40392 0
M  V30 1414 H 134.356 4.1189 -3.64179 0
M  V30 1415 H 135.581 5.13674 -4.44202 0
M  V30 1416 H 133.527 6.09932 -2.41494 0
M  V30 1417 H 133.444 6.33194 -4.13039 0
M  V30 1418 H 134.712 7.09834 -3.22113 0
M  V30 1419 N 138.941 1.26152 0.944643 0
M  V30 1420 C 140.189 1.11271 1.6871 0
M  V30 1421 C 140.51 -0.345166 1.91921 0
M  V30 1422 O 139.78 -1.24387 1.51343 0
M  V30 1423 H 138.36 0.408783 0.625224 0
M  V30 1424 H 141.022 1.58427 1.1352 0
M  V30 1425 H 140.118 1.62879 2.66227 0
M  V30 1426 N 140.419 -1.14872 1.07899 0
M  V30 1427 C 141.667 -1.85422 0.803941 0
M  V30 1428 C 141.988 -1.83051 -0.67211 0
M  V30 1429 O 141.258 -1.27532 -1.48703 0
M  V30 1430 H 139.838 -0.686537 0.294408 0
M  V30 1431 H 142.5 -1.39226 1.3639 0
M  V30 1432 H 141.596 -2.90399 1.14346 0
M  V30 1433 N 141.898 -0.863906 -1.31812 0
M  V30 1434 C 142.828 -0.330843 -2.31144 0
M  V30 1435 C 143.809 0.575005 -1.60087 0
M  V30 1436 O 144.994 0.493304 -1.8783 0
M  V30 1437 C 142.124 0.47374 -3.44054 0
M  V30 1438 C 141.078 -0.338481 -4.26659 0
M  V30 1439 C 140.404 0.591412 -5.31419 0
M  V30 1440 C 141.704 -1.56926 -4.98168 0
M  V30 1441 H 143.398 -1.16086 -2.75979 0
M  V30 1442 H 140.944 -0.559657 -1.32679 0
M  V30 1443 H 142.897 0.857143 -4.12591 0
M  V30 1444 H 141.621 1.33721 -2.9797 0
M  V30 1445 H 140.28 -0.703754 -3.59782 0
M  V30 1446 H 139.928 1.45199 -4.81587 0
M  V30 1447 H 139.628 0.0519022 -5.87577 0
M  V30 1448 H 141.152 0.97179 -6.02817 0
M  V30 1449 H 142.566 -1.25764 -5.59336 0
M  V30 1450 H 140.963 -2.04739 -5.64094 0
M  V30 1451 H 142.033 -2.32544 -4.25501 0
M  V30 1452 N 143.376 1.44774 -0.622745 0
M  V30 1453 C 144.286 2.34433 0.0886031 0
M  V30 1454 C 145.302 1.52131 0.844529 0
M  V30 1455 O 146.478 1.84886 0.798691 0
M  V30 1456 C 143.543 3.29986 1.0635 0
M  V30 1457 C 142.604 4.28195 0.307873 0
M  V30 1458 C 141.837 5.19183 1.23633 0
M  V30 1459 O 142.06 5.13918 2.47476 0
M  V30 1460 O 140.994 5.97515 0.725189 0
M  V30 1461 H 144.82 2.96693 -0.648599 0
M  V30 1462 H 142.405 1.44408 -0.382957 0
M  V30 1463 H 144.287 3.88825 1.6246 0
M  V30 1464 H 142.962 2.70269 1.78146 0
M  V30 1465 H 141.869 3.72927 -0.296064 0
M  V30 1466 H 143.202 4.90808 -0.3699 0
M  V30 1467 N 144.854 0.36279 1.53368 0
M  V30 1468 C 146.102 -0.227326 2.00817 0
M  V30 1469 C 146.423 -1.49511 1.25186 0
M  V30 1470 O 145.693 -1.92482 0.364348 0
M  V30 1471 H 144.273 -0.0869923 0.741917 0
M  V30 1472 H 146.935 0.488381 1.88682 0
M  V30 1473 H 146.031 -0.456273 3.08747 0
M  V30 1474 N 146.332 -1.57332 0.0918853 0
M  V30 1475 C 147.262 -2.16872 -0.865371 0
M  V30 1476 C 148.243 -1.10118 -1.29646 0
M  V30 1477 O 149.428 -1.38242 -1.36392 0
M  V30 1478 C 146.558 -2.74649 -2.12569 0
M  V30 1479 C 145.512 -3.86747 -1.83333 0
M  V30 1480 C 144.838 -4.31212 -3.16166 0
M  V30 1481 C 146.138 -5.10089 -1.1228 0
M  V30 1482 H 147.832 -2.97114 -0.369307 0
M  V30 1483 H 145.378 -1.42918 -0.176194 0
M  V30 1484 H 147.331 -3.14952 -2.7997 0
M  V30 1485 H 146.055 -1.91657 -2.64452 0
M  V30 1486 H 144.714 -3.46978 -1.18331 0
M  V30 1487 H 144.362 -3.45115 -3.6593 0
M  V30 1488 H 144.062 -5.06788 -2.97388 0
M  V30 1489 H 145.586 -4.74146 -3.84731 0
M  V30 1490 H 147 -5.47582 -1.69785 0
M  V30 1491 H 145.397 -5.91073 -1.03693 0
M  V30 1492 H 146.467 -4.84786 -0.105041 0
M  V30 1493 N 147.81 0.181792 -1.56548 0
M  V30 1494 C 149.059 0.898348 -1.8059 0
M  V30 1495 C 149.372 1.83862 -0.667379 0
M  V30 1496 O 150.578 2.59678 -0.792446 0
M  V30 1497 C 149.034 1.64791 -3.19956 0
M  V30 1498 C 148.642 0.751789 -4.41647 0
M  V30 1499 C 150.386 2.35331 -3.53298 0
M  V30 1500 C 148.293 1.50098 -5.72035 0
M  V30 1501 H 147.223 0.339194 -0.673397 0
M  V30 1502 H 149.874 0.151413 -1.82874 0
M  V30 1503 H 148.256 2.43921 -3.11959 0
M  V30 1504 H 149.43 -0.0018076 -4.608 0
M  V30 1505 H 147.745 0.156562 -4.16106 0
M  V30 1506 H 150.342 2.91958 -4.47956 0
M  V30 1507 H 150.685 3.10164 -2.77676 0
M  V30 1508 H 151.218 1.63154 -3.62803 0
M  V30 1509 H 147.957 0.795175 -6.50659 0
M  V30 1510 H 147.477 2.22817 -5.56878 0
M  V30 1511 H 149.156 2.05125 -6.13622 0
M  V30 1512 N 149.288 1.51039 0.449983 0
M  V30 1513 C 150.238 1.67824 1.54335 0
M  V30 1514 C 151.222 0.5324 1.51836 0
M  V30 1515 O 152.414 0.787762 1.58503 0
M  V30 1516 C 149.543 1.7951 2.92628 0
M  V30 1517 C 148.629 2.99838 2.9993 0
M  V30 1518 N 149.02 4.23207 2.77001 0
M  V30 1519 C 147.318 2.98832 3.31082 0
M  V30 1520 C 148.019 5.04361 2.89818 0
M  V30 1521 N 146.995 4.38746 3.2094 0
M  V30 1522 H 150.797 2.60884 1.35339 0
M  V30 1523 H 148.311 1.48513 0.657085 0
M  V30 1524 H 150.308 1.89642 3.7127 0
M  V30 1525 H 148.968 0.876227 3.12654 0
M  V30 1526 H 149.979 4.5236 2.52172 0
M  V30 1527 H 146.656 2.16527 3.56963 0
M  V30 1528 H 148.046 6.12528 2.76151 0
M  V30 1529 N 150.766 -0.704594 1.40972 0
M  V30 1530 C 151.991 -1.49858 1.43378 0
M  V30 1531 C 152.416 -1.88061 0.038184 0
M  V30 1532 O 151.774 -1.5402 -0.956425 0
M  V30 1533 C 151.822 -2.74333 2.34038 0
M  V30 1534 O 150.926 -3.7147 1.7912 0
M  V30 1535 H 150.267 -0.45139 0.486974 0
M  V30 1536 H 152.797 -0.866832 1.8533 0
M  V30 1537 H 152.807 -3.22741 2.49604 0
M  V30 1538 H 151.482 -2.45863 3.35446 0
M  V30 1539 H 150.059 -3.30363 1.72958 0
M  V30 1540 N 152.244 -1.26651 -0.937939 0
M  V30 1541 C 153.176 -1.04283 -2.04102 0
M  V30 1542 C 154.189 -0.00221014 -1.628 0
M  V30 1543 O 155.378 -0.242645 -1.76843 0
M  V30 1544 C 152.478 -0.557846 -3.34277 0
M  V30 1545 C 151.651 -1.66843 -4.04329 0
M  V30 1546 C 150.71 -1.18095 -5.12777 0
M  V30 1547 O 149.736 -1.87865 -5.37304 0
M  V30 1548 N 150.938 -0.0311006 -5.80492 0
M  V30 1549 H 153.703 -1.9927 -2.23856 0
M  V30 1550 H 151.264 -1.1808 -1.10764 0
M  V30 1551 H 153.256 -0.215836 -4.04124 0
M  V30 1552 H 151.826 0.298523 -3.11171 0
M  V30 1553 H 151.046 -2.18123 -3.28353 0
M  V30 1554 H 152.334 -2.41408 -4.47883 0
M  V30 1555 H 151.732 0.551486 -5.63005 0
M  V30 1556 H 150.289 0.251809 -6.51313 0
M  V30 1557 N 153.722 1.14298 -1.08507 0
M  V30 1558 C 155.138 1.37347 -0.812901 0
M  V30 1559 C 155.338 1.93052 0.577325 0
M  V30 1560 O 154.394 2.14389 1.33393 0
M  V30 1561 C 155.707 2.33359 -1.89642 0
M  V30 1562 C 157.255 2.46996 -1.92255 0
M  V30 1563 C 157.73 3.46309 -2.99724 0
M  V30 1564 N 159.221 3.53853 -2.98902 0
M  V30 1565 C 159.956 4.3055 -3.787 0
M  V30 1566 N 159.452 5.10482 -4.6838 0
M  V30 1567 N 161.245 4.25757 -3.66998 0
M  V30 1568 H 153.396 0.764867 -1.9815 0
M  V30 1569 H 155.659 0.398966 -0.859959 0
M  V30 1570 H 155.365 1.99565 -2.89597 0
M  V30 1571 H 155.239 3.33274 -1.76659 0
M  V30 1572 H 157.626 2.80081 -0.929445 0
M  V30 1573 H 157.707 1.47039 -2.09316 0
M  V30 1574 H 157.351 3.13957 -3.99241 0
M  V30 1575 H 157.281 4.46049 -2.79907 0
M  V30 1576 H 159.772 2.96812 -2.33904 0
M  V30 1577 H 160.085 5.66284 -5.25873 0
M  V30 1578 H 158.43 5.09747 -4.72422 0
M  V30 1579 H 161.621 3.62383 -2.96304 0
M  V30 1580 H 161.794 4.85279 -4.29427 0
M  V30 1581 N 155.201 0.870884 1.31352 0
M  V30 1582 C 156.617 0.562932 1.49343 0
M  V30 1583 C 156.817 -0.902725 1.80148 0
M  V30 1584 O 155.873 -1.68484 1.88067 0
M  V30 1585 C 157.186 1.46393 2.62659 0
M  V30 1586 C 158.734 1.46607 2.76542 0
M  V30 1587 C 159.209 2.35266 3.92955 0
M  V30 1588 N 160.7 2.33151 4.00243 0
M  V30 1589 C 161.435 2.98471 4.89594 0
M  V30 1590 N 160.931 3.72964 5.8384 0
M  V30 1591 N 162.724 2.87775 4.82848 0
M  V30 1592 H 154.875 1.81923 1.09626 0
M  V30 1593 H 157.138 0.777934 0.541777 0
M  V30 1594 H 156.844 2.50689 2.46674 0
M  V30 1595 H 156.718 1.16314 3.58819 0
M  V30 1596 H 159.105 0.43069 2.9194 0
M  V30 1597 H 159.186 1.8071 1.81046 0
M  V30 1598 H 158.83 3.38881 3.78315 0
M  V30 1599 H 158.76 1.98487 4.87761 0
M  V30 1600 H 161.251 1.79006 3.32814 0
M  V30 1601 H 161.564 4.19932 6.4875 0
M  V30 1602 H 159.909 3.77073 5.83816 0
M  V30 1603 H 163.1 2.29116 4.08195 0
M  V30 1604 H 163.273 3.38961 5.52277 0
M  V30 1605 N 156.679 -1.44442 0.630414 0
M  V30 1606 C 157.611 -2.2892 -0.113347 0
M  V30 1607 C 158.624 -1.41243 -0.80959 0
M  V30 1608 O 159.813 -1.65402 -0.671156 0
M  V30 1609 C 156.913 -3.17594 -1.18266 0
M  V30 1610 C 156.086 -4.33682 -0.569073 0
M  V30 1611 C 155.145 -5.03397 -1.53226 0
M  V30 1612 O 154.171 -5.59438 -1.04967 0
M  V30 1613 N 155.373 -5.04783 -2.86661 0
M  V30 1614 H 158.138 -2.93392 0.611636 0
M  V30 1615 H 155.699 -1.54881 0.471523 0
M  V30 1616 H 157.691 -3.61097 -1.82732 0
M  V30 1617 H 156.261 -2.54876 -1.80988 0
M  V30 1618 H 155.481 -3.9338 0.254187 0
M  V30 1619 H 156.769 -5.08608 -0.139767 0
M  V30 1620 H 156.167 -4.60584 -3.28449 0
M  V30 1621 H 154.724 -5.52077 -3.46489 0
M  V30 1622 N 158.157 -0.370918 -1.53173 0
M  V30 1623 C 159.434 0.273754 -1.93675 0
M  V30 1624 C 159.814 1.65938 -1.3049 0
M  V30 1625 O 159.162 2.23698 -0.465999 0
M  V30 1626 C 159.372 0.318602 -3.47543 0
M  V30 1627 C 160.72 0.556392 -4.20939 0
M  V30 1628 O 161.744 0.399587 -3.53952 0
M  V30 1629 O 160.603 0.862133 -5.39657 0
M  V30 1630 H 157.697 0.165448 -0.810281 0
M  V30 1631 H 160.243 -0.42409 -1.64315 0
M  V30 1632 H 159.015 -0.652687 -3.85818 0
M  V30 1633 H 158.638 1.06212 -3.83151 0
M  V30 1634 N 159.635 1.57281 -0.100228 0
M  V30 1635 C 160.884 1.93713 0.561984 0
M  V30 1636 C 161.197 0.984492 1.69018 0
M  V30 1637 O 162.403 1.24273 2.41389 0
M  V30 1638 C 160.859 3.4421 1.05106 0
M  V30 1639 C 160.467 4.47975 -0.0476628 0
M  V30 1640 C 162.211 3.89595 1.68571 0
M  V30 1641 C 160.118 5.89631 0.457055 0
M  V30 1642 H 159.048 0.723082 0.2137 0
M  V30 1643 H 161.699 1.82644 -0.177057 0
M  V30 1644 H 160.081 3.50449 1.84395 0
M  V30 1645 H 161.255 4.53385 -0.823333 0
M  V30 1646 H 159.57 4.1223 -0.587816 0
M  V30 1647 H 162.167 4.92832 2.07414 0
M  V30 1648 H 162.51 3.28526 2.55688 0
M  V30 1649 H 163.043 3.86078 0.958562 0
M  V30 1650 H 159.782 6.54411 -0.377616 0
M  V30 1651 H 159.302 5.87681 1.19962 0
M  V30 1652 H 160.981 6.40363 0.92437 0
M  V30 1653 N 161.113 -0.173488 1.56642 0
M  V30 1654 C 162.043 -1.2171 1.99271 0
M  V30 1655 C 163.024 -1.46289 0.867959 0
M  V30 1656 O 164.209 -1.5766 1.13388 0
M  V30 1657 C 161.339 -2.55651 2.35074 0
M  V30 1658 C 160.293 -2.45645 3.50489 0
M  V30 1659 C 159.619 -3.84056 3.72028 0
M  V30 1660 C 160.919 -1.96302 4.84007 0
M  V30 1661 H 162.613 -0.86275 2.867 0
M  V30 1662 H 160.159 -0.413571 1.37933 0
M  V30 1663 H 162.112 -3.2886 2.63494 0
M  V30 1664 H 160.836 -2.92869 1.44552 0
M  V30 1665 H 159.495 -1.7489 3.22194 0
M  V30 1666 H 159.143 -4.18664 2.788 0
M  V30 1667 H 158.843 -3.7823 4.49684 0
M  V30 1668 H 160.367 -4.58854 4.02846 0
M  V30 1669 H 161.781 -2.59284 5.11317 0
M  V30 1670 H 160.178 -2.01429 5.65284 0
M  V30 1671 H 161.248 -0.917226 4.76146 0
M  V30 1672 N 162.591 -1.51276 -0.441967 0
M  V30 1673 C 163.868 -1.54252 -1.20273 0
M  V30 1674 C 164.248 -0.30408 -2.08898 0
M  V30 1675 O 163.596 0.711084 -2.17154 0
M  V30 1676 C 163.806 -2.85406 -2.00859 0
M  V30 1677 C 165.154 -3.37181 -2.58059 0
M  V30 1678 O 166.178 -2.86925 -2.11074 0
M  V30 1679 O 165.037 -4.24858 -3.43741 0
M  V30 1680 H 162.131 -0.619969 -0.547328 0
M  V30 1681 H 164.677 -1.63586 -0.451413 0
M  V30 1682 H 163.449 -3.67003 -1.35736 0
M  V30 1683 H 163.072 -2.79213 -2.83065 0
M  V30 1684 N 164.069 0.697108 -1.41344 0
M  V30 1685 C 164.999 1.82353 -1.45841 0
M  V30 1686 C 165.98 1.67115 -0.317247 0
M  V30 1687 O 167.165 1.86871 -0.528474 0
M  V30 1688 C 164.295 3.20476 -1.33838 0
M  V30 1689 C 163.249 3.50415 -2.4575 0
M  V30 1690 C 162.575 4.87878 -2.18813 0
M  V30 1691 C 163.875 3.49546 -3.88091 0
M  V30 1692 H 165.569 1.78846 -2.40113 0
M  V30 1693 H 163.115 0.859028 -1.15571 0
M  V30 1694 H 165.068 3.98988 -1.35596 0
M  V30 1695 H 163.792 3.24604 -0.360498 0
M  V30 1696 H 162.451 2.74253 -2.43271 0
M  V30 1697 H 162.099 4.8863 -1.19371 0
M  V30 1698 H 161.799 5.08875 -2.93803 0
M  V30 1699 H 163.323 5.68702 -2.22284 0
M  V30 1700 H 164.737 4.18066 -3.92293 0
M  V30 1701 H 163.134 3.82075 -4.62751 0
M  V30 1702 H 164.204 2.48552 -4.16353 0
M  V30 1703 N 165.547 1.27147 0.931209 0
M  V30 1704 C 166.793 1.14455 1.68141 0
M  V30 1705 C 167.148 -0.307172 1.89932 0
M  V30 1706 O 166.441 -1.22158 1.47607 0
M  V30 1707 C 166.635 1.8579 3.05314 0
M  V30 1708 C 166.464 3.3775 2.96909 0
M  V30 1709 C 165.234 4.07062 2.99381 0
M  V30 1710 C 167.432 4.33783 2.76291 0
M  V30 1711 N 165.414 5.45618 2.8138 0
M  V30 1712 C 166.785 5.59582 2.6696 0
M  V30 1713 C 168.84 4.23915 2.61152 0
M  V30 1714 C 167.543 6.76639 2.44033 0
M  V30 1715 C 169.569 5.40689 2.39602 0
M  V30 1716 C 168.931 6.65443 2.3101 0
M  V30 1717 H 165.03 0.473667 0.622225 0
M  V30 1718 H 167.614 1.60568 1.10118 0
M  V30 1719 H 165.785 1.42138 3.61457 0
M  V30 1720 H 167.517 1.65634 3.69253 0
M  V30 1721 H 164.272 3.585 3.09475 0
M  V30 1722 H 164.696 6.184 2.75519 0
M  V30 1723 H 169.338 3.28189 2.66555 0
M  V30 1724 H 167.056 7.72451 2.3737 0
M  V30 1725 H 170.642 5.34932 2.28778 0
M  V30 1726 H 169.522 7.54277 2.14558 0
M  V30 1727 N 167.025 -1.13721 1.09112 0
M  V30 1728 C 168.274 -1.84275 0.82009 0
M  V30 1729 C 168.587 -1.84253 -0.656509 0
M  V30 1730 O 169.793 -2.50668 -1.04296 0
M  V30 1731 C 168.249 -3.30825 1.41714 0
M  V30 1732 C 167.857 -3.39244 2.92605 0
M  V30 1733 C 169.601 -4.06443 1.22492 0
M  V30 1734 C 167.508 -4.80047 3.45411 0
M  V30 1735 H 166.438 -0.690387 0.30312 0
M  V30 1736 H 169.089 -1.28146 1.31343 0
M  V30 1737 H 167.471 -3.86737 0.851498 0
M  V30 1738 H 168.645 -2.93344 3.55367 0
M  V30 1739 H 166.96 -2.77088 3.10823 0
M  V30 1740 H 169.557 -5.10387 1.59402 0
M  V30 1741 H 169.9 -4.15972 0.165299 0
M  V30 1742 H 170.433 -3.56852 1.75788 0
M  V30 1743 H 167.172 -4.75709 4.50978 0
M  V30 1744 H 166.692 -5.26455 2.87411 0
M  V30 1745 H 168.371 -5.48957 3.42425 0
M  V30 1746 N 168.503 -0.877838 -1.30888 0
M  V30 1747 C 169.733 -0.506678 -2.00291 0
M  V30 1748 C 170.141 0.907449 -1.66018 0
M  V30 1749 O 169.484 1.60719 -0.88967 0
M  V30 1750 C 169.546 -0.59323 -3.54572 0
M  V30 1751 C 169.21 -1.97038 -4.12341 0
M  V30 1752 C 170.207 -2.93889 -4.28865 0
M  V30 1753 C 167.892 -2.27383 -4.47886 0
M  V30 1754 C 169.886 -4.19224 -4.80136 0
M  V30 1755 C 167.573 -3.52965 -4.98857 0
M  V30 1756 C 168.571 -4.48701 -5.14934 0
M  V30 1757 O 168.259 -5.72056 -5.64808 0
M  V30 1758 H 167.991 -0.1951 -0.647234 0
M  V30 1759 H 170.545 -1.18301 -1.6791 0
M  V30 1760 H 168.775 0.140057 -3.86446 0
M  V30 1761 H 170.464 -0.234372 -4.05223 0
M  V30 1762 H 171.23 -2.71756 -4.01714 0
M  V30 1763 H 167.109 -1.53639 -4.34645 0
M  V30 1764 H 170.653 -4.93956 -4.92599 0
M  V30 1765 H 166.55 -3.74939 -5.25443 0
M  V30 1766 H 167.318 -5.74337 -5.83163 0
M  V30 1767 N 169.982 1.44106 -0.638065 0
M  V30 1768 C 170.932 2.27843 0.0847285 0
M  V30 1769 C 171.916 1.39055 0.809471 0
M  V30 1770 O 173.108 1.62808 0.694435 0
M  V30 1771 C 170.237 3.26497 1.06089 0
M  V30 1772 C 169.323 4.22772 0.33541 0
M  V30 1773 N 169.714 5.01737 -0.639787 0
M  V30 1774 C 168.012 4.42227 0.578921 0
M  V30 1775 C 168.713 5.71792 -1.06904 0
M  V30 1776 N 167.689 5.42079 -0.406395 0
M  V30 1777 H 171.491 2.86305 -0.663814 0
M  V30 1778 H 169.005 1.55627 -0.464122 0
M  V30 1779 H 171.002 3.8525 1.59337 0
M  V30 1780 H 169.662 2.69595 1.80966 0
M  V30 1781 H 170.673 5.07799 -1.01789 0
M  V30 1782 H 167.35 3.96415 1.31003 0
M  V30 1783 H 168.74 6.45205 -1.8751 0
M  V30 1784 N 171.46 0.379036 1.52974 0
M  V30 1785 C 172.688 -0.20679 2.05864 0
M  V30 1786 C 173.103 -1.41356 1.25155 0
M  V30 1787 O 172.46 -1.8009 0.295588 0
M  V30 1788 C 172.511 -0.587045 3.56702 0
M  V30 1789 O 172.232 0.571776 4.34353 0
M  V30 1790 C 173.733 -1.22983 4.25899 0
M  V30 1791 H 170.953 -0.0336123 0.670158 0
M  V30 1792 H 173.497 0.541298 1.97206 0
M  V30 1793 H 171.652 -1.28504 3.65466 0
M  V30 1794 H 172.066 0.261544 5.23847 0
M  V30 1795 H 173.54 -1.44635 5.32715 0
M  V30 1796 H 174.017 -2.19416 3.80465 0
M  V30 1797 H 174.623 -0.572892 4.21424 0
M  V30 1798 N 172.938 -1.57226 0.108567 0
M  V30 1799 C 173.87 -2.11809 -0.875752 0
M  V30 1800 C 174.883 -1.05839 -1.23701 0
M  V30 1801 O 176.072 -1.33245 -1.18778 0
M  V30 1802 C 173.172 -2.59411 -2.18081 0
M  V30 1803 C 172.345 -3.89364 -1.99284 0
M  V30 1804 C 171.404 -4.22672 -3.13424 0
M  V30 1805 O 170.43 -4.91668 -2.86795 0
M  V30 1806 N 171.632 -3.79154 -4.3957 0
M  V30 1807 H 174.397 -2.9689 -0.409477 0
M  V30 1808 H 171.958 -1.61721 -0.076158 0
M  V30 1809 H 173.95 -2.7873 -2.93414 0
M  V30 1810 H 172.52 -1.79268 -2.5609 0
M  V30 1811 H 171.74 -3.79059 -1.08203 0
M  V30 1812 H 173.028 -4.74358 -1.84017 0
M  V30 1813 H 172.426 -3.23486 -4.64083 0
M  V30 1814 H 170.983 -4.03602 -5.11809 0
M  V30 1815 N 174.416 0.165178 -1.56732 0
M  V30 1816 C 175.664 0.879068 -1.8198 0
M  V30 1817 C 175.985 1.82514 -0.686561 0
M  V30 1818 O 175.255 1.93694 0.293146 0
M  V30 1819 H 173.835 0.327608 -0.671329 0
M  V30 1820 H 176.497 0.163526 -1.94213 0
M  V30 1821 H 175.593 1.45228 -2.76252 0
M  V30 1822 N 175.894 1.51508 0.433938 0
M  V30 1823 C 177.124 1.67914 1.20369 0
M  V30 1824 C 177.532 0.377461 1.85397 0
M  V30 1825 O 176.875 -0.654255 1.71654 0
M  V30 1826 C 176.937 2.74045 2.32679 0
M  V30 1827 C 176.601 4.16543 1.87991 0
M  V30 1828 C 177.598 5.01211 1.38145 0
M  V30 1829 C 175.283 4.6266 1.95579 0
M  V30 1830 C 177.277 6.30056 0.964774 0
M  V30 1831 C 174.964 5.91501 1.53523 0
M  V30 1832 C 175.962 6.75027 1.04055 0
M  V30 1833 O 175.65 8.01459 0.625964 0
M  V30 1834 H 175.382 0.566578 0.368735 0
M  V30 1835 H 177.936 1.98709 0.51999 0
M  V30 1836 H 176.166 2.38572 3.04336 0
M  V30 1837 H 177.855 2.79295 2.94532 0
M  V30 1838 H 178.621 4.66783 1.31675 0
M  V30 1839 H 174.5 3.97767 2.33029 0
M  V30 1840 H 178.044 6.95202 0.57796 0
M  V30 1841 H 173.941 6.25442 1.59665 0
M  V30 1842 H 174.709 8.15043 0.751509 0
M  V30 1843 N 177.372 -0.689602 1.41712 0
M  V30 1844 C 178.619 -1.44966 1.4139 0
M  V30 1845 C 178.947 -1.94484 0.025105 0
M  V30 1846 O 178.202 -1.70307 -0.964048 0
M  V30 1847 C 178.501 -2.67298 2.37247 0
M  V30 1848 C 178.167 -2.36405 3.83958 0
M  V30 1849 C 176.829 -2.27691 4.23923 0
M  V30 1850 C 179.181 -2.11043 4.76561 0
M  V30 1851 C 176.509 -1.91719 5.54492 0
M  V30 1852 C 178.861 -1.76578 6.07456 0
M  V30 1853 C 177.525 -1.66363 6.46436 0
M  V30 1854 H 176.795 -0.53047 0.517381 0
M  V30 1855 H 179.442 -0.787655 1.74552 0
M  V30 1856 H 177.747 -3.38461 1.9736 0
M  V30 1857 H 179.444 -3.25452 2.34269 0
M  V30 1858 H 176.034 -2.44085 3.52308 0
M  V30 1859 H 180.218 -2.16717 4.46483 0
M  V30 1860 H 175.474 -1.82367 5.83568 0
M  V30 1861 H 179.648 -1.55974 6.78708 0
M  V30 1862 H 177.275 -1.38258 7.47522 0
M  V30 1863 N 178.85 -1.27639 -0.924453 0
M  V30 1864 C 180.261 -1.12834 -1.48746 0
M  V30 1865 C 180.612 0.285505 -1.94112 0
M  V30 1866 O 179.737 1.17874 -1.81479 0
M  V30 1867 C 180.332 -2.04217 -2.70334 0
M  V30 1868 C 178.891 -1.93509 -3.22848 0
M  V30 1869 C 178.038 -1.96583 -1.95577 0
M  V30 1870 H 180.989 -1.40484 -0.738233 0
M  V30 1871 H 181.01 -1.59989 -3.4523 0
M  V30 1872 H 180.522 -3.07111 -2.37285 0
M  V30 1873 H 178.623 -0.936131 -3.60649 0
M  V30 1874 H 178.736 -2.79917 -3.88823 0
M  V30 1875 H 177.1 -1.4085 -2.12211 0
M  V30 1876 H 177.883 -3.01137 -1.64837 0
M  V30 1877 N 180.328 1.1314 -1.09713 0
M  V30 1878 C 181.605 1.80762 -0.747302 0
M  V30 1879 C 181.985 1.96663 0.767265 0
M  V30 1880 O 181.333 1.53706 1.69076 0
M  V30 1881 C 181.543 3.15606 -1.48975 0
M  V30 1882 C 182.891 3.90914 -1.65746 0
M  V30 1883 O 183.915 3.25239 -1.45251 0
M  V30 1884 O 182.774 5.08718 -1.9967 0
M  V30 1885 H 179.868 0.782103 -0.268782 0
M  V30 1886 H 182.414 1.20041 -1.19951 0
M  V30 1887 H 181.186 2.99278 -2.52088 0
M  V30 1888 H 180.809 3.84029 -1.02991 0
M  V30 1889 N 181.806 0.884767 1.30421 0
M  V30 1890 C 183.052 0.513218 1.96819 0
M  V30 1891 C 183.407 -0.927347 1.68577 0
M  V30 1892 O 182.7 -1.64644 0.979941 0
M  V30 1893 C 182.894 0.724318 3.49983 0
M  V30 1894 C 182.723 2.18385 3.93113 0
M  V30 1895 C 181.493 2.82839 4.18725 0
M  V30 1896 C 183.691 3.15763 4.05953 0
M  V30 1897 N 181.673 4.1939 4.48314 0
M  V30 1898 C 183.044 4.37387 4.39423 0
M  V30 1899 C 185.099 3.11555 3.88379 0
M  V30 1900 C 183.802 5.55343 4.5715 0
M  V30 1901 C 185.828 4.28782 4.07308 0
M  V30 1902 C 185.19 5.49172 4.41123 0
M  V30 1903 H 181.289 0.237123 0.745182 0
M  V30 1904 H 183.873 1.14246 1.57658 0
M  V30 1905 H 182.044 0.124565 3.882 0
M  V30 1906 H 183.776 0.31969 4.03435 0
M  V30 1907 H 180.531 2.33708 4.11919 0
M  V30 1908 H 180.955 4.89911 4.67243 0
M  V30 1909 H 185.597 2.19576 3.61312 0
M  V30 1910 H 183.315 6.47826 4.8306 0
M  V30 1911 H 186.901 4.26995 3.95179 0
M  V30 1912 H 185.781 6.38371 4.55469 0
M  V30 1913 N 183.284 -1.43765 0.645699 0
M  V30 1914 C 184.216 -2.29027 -0.0890605 0
M  V30 1915 C 185.229 -1.42093 -0.794563 0
M  V30 1916 O 186.418 -1.66104 -0.653575 0
M  V30 1917 C 183.518 -3.18831 -1.14891 0
M  V30 1918 C 182.691 -4.34261 -0.523043 0
M  V30 1919 C 181.75 -5.04994 -1.47878 0
M  V30 1920 O 180.776 -5.6052 -0.990277 0
M  V30 1921 N 181.978 -5.07795 -2.81291 0
M  V30 1922 H 184.743 -2.92727 0.64272 0
M  V30 1923 H 182.304 -1.54373 0.487924 0
M  V30 1924 H 184.296 -3.63015 -1.78892 0
M  V30 1925 H 182.866 -2.56782 -1.78275 0
M  V30 1926 H 182.086 -3.93088 0.295896 0
M  V30 1927 H 183.374 -5.08728 -0.0858147 0
M  V30 1928 H 182.772 -4.64042 -3.23546 0
M  V30 1929 H 181.329 -5.55721 -3.40614 0
M  V30 1930 N 184.763 -0.387143 -1.52771 0
M  V30 1931 C 185.711 0.463953 -2.27926 0
M  V30 1932 C 186.705 1.06493 -1.31741 0
M  V30 1933 O 187.911 1.00565 -1.49287 0
M  V30 1934 H 184.286 0.16837 -0.732909 0
M  V30 1935 H 186.257 -0.19141 -2.97785 0
M  V30 1936 C 185.006 1.5803 -3.09713 0
M  V30 1937 H 184.329 1.12718 -3.83581 0
M  V30 1938 H 185.769 2.15008 -3.65442 0
M  V30 1939 C 184.228 2.53509 -2.2189 0
M  V30 1940 O 184.758 3.56863 -1.84422 0
M  V30 1941 N 182.964 2.23199 -1.86093 0
M  V30 1942 H 182.511 1.39185 -2.16761 0
M  V30 1943 H 182.469 2.87333 -1.27621 0
M  V30 1944 N 186.241 1.57166 -0.116904 0
M  V30 1945 C 187.471 1.99184 0.548586 0
M  V30 1946 C 187.879 0.995436 1.60897 0
M  V30 1947 O 187.222 -0.0201293 1.83689 0
M  V30 1948 C 187.284 3.37611 1.23526 0
M  V30 1949 C 186.948 4.55857 0.323077 0
M  V30 1950 C 187.945 5.18056 -0.437476 0
M  V30 1951 C 185.63 5.01751 0.234761 0
M  V30 1952 C 187.624 6.24536 -1.2741 0
M  V30 1953 C 185.311 6.08093 -0.605496 0
M  V30 1954 C 186.309 6.69352 -1.35856 0
M  V30 1955 O 185.997 7.7364 -2.18487 0
M  V30 1956 H 185.729 0.659148 0.149999 0
M  V30 1957 H 188.283 2.0443 -0.199428 0
M  V30 1958 H 186.513 3.29113 2.0303 0
M  V30 1959 H 188.202 3.63932 1.79745 0
M  V30 1960 H 188.968 4.83516 -0.379105 0
M  V30 1961 H 184.847 4.53817 0.810601 0
M  V30 1962 H 188.391 6.72281 -1.86237 0
M  V30 1963 H 184.288 6.42063 -0.665268 0
M  V30 1964 H 185.056 7.90727 -2.11406 0
M  V30 1965 N 187.719 -0.156864 1.56817 0
M  V30 1966 C 188.947 -0.886316 1.86955 0
M  V30 1967 C 189.362 -1.75185 0.703975 0
M  V30 1968 O 188.719 -1.79555 -0.326552 0
M  V30 1969 C 188.77 -1.75117 3.16253 0
M  V30 1970 O 188.491 -0.920537 4.2832 0
M  V30 1971 C 189.992 -2.58905 3.59837 0
M  V30 1972 H 187.212 -0.25678 0.619923 0
M  V30 1973 H 189.756 -0.152615 2.0393 0
M  V30 1974 H 187.911 -2.43805 3.01062 0
M  V30 1975 H 188.325 -1.51337 5.02192 0
M  V30 1976 H 189.799 -3.1518 4.53172 0
M  V30 1977 H 190.276 -3.34472 2.84649 0
M  V30 1978 H 190.882 -1.95526 3.7769 0
M  V30 1979 N 189.197 -1.51736 -0.425897 0
M  V30 1980 C 190.608 -1.5732 -1.00536 0
M  V30 1981 C 190.959 -0.403537 -1.92005 0
M  V30 1982 O 190.084 0.478256 -2.11049 0
M  V30 1983 C 190.679 -2.85119 -1.8301 0
M  V30 1984 C 189.238 -2.93236 -2.35987 0
M  V30 1985 C 188.385 -2.52098 -1.15508 0
M  V30 1986 H 191.336 -1.57348 -0.206739 0
M  V30 1987 H 191.357 -2.69526 -2.68581 0
M  V30 1988 H 190.869 -3.7023 -1.16411 0
M  V30 1989 H 188.97 -2.12581 -3.06007 0
M  V30 1990 H 189.083 -3.9713 -2.68001 0
M  V30 1991 H 187.447 -2.05558 -1.50393 0
M  V30 1992 H 188.23 -3.39565 -0.505014 0
M  V30 1993 N 190.675 0.682077 -1.42076 0
M  V30 1994 C 191.923 1.4393 -1.41876 0
M  V30 1995 C 192.244 1.94971 -0.0335599 0
M  V30 1996 O 191.514 1.72591 0.926773 0
M  V30 1997 H 190.094 0.534085 -0.522267 0
M  V30 1998 H 192.756 0.806427 -1.77434 0
M  V30 1999 H 191.852 2.29588 -2.11414 0
M  V30 2000 N 192.153 1.28127 0.917671 0
M  V30 2001 C 193.564 1.13622 1.48145 0
M  V30 2002 C 193.915 -0.275207 1.9426 0
M  V30 2003 O 193.04 -1.1691 1.82102 0
M  V30 2004 C 193.635 2.05648 2.69248 0
M  V30 2005 C 192.194 1.95219 3.21818 0
M  V30 2006 C 191.341 1.97618 1.94532 0
M  V30 2007 H 194.292 1.40874 0.730772 0
M  V30 2008 H 194.313 1.61818 3.44377 0
M  V30 2009 H 193.825 3.08365 2.35653 0
M  V30 2010 H 191.926 0.955244 3.60147 0
M  V30 2011 H 192.039 2.81976 3.87333 0
M  V30 2012 H 190.403 1.41973 2.11461 0
M  V30 2013 H 191.186 3.02007 1.63238 0
M  V30 2014 N 193.631 -1.12557 1.10312 0
M  V30 2015 C 194.879 -1.83675 0.843091 0
M  V30 2016 C 195.2 -1.84435 -0.633131 0
M  V30 2017 O 194.47 -1.30657 -1.45964 0
M  V30 2018 H 193.05 -0.680138 0.308904 0
M  V30 2019 H 195.712 -1.36301 1.39313 0
M  V30 2020 H 194.808 -2.87908 1.2048 0
M  V30 2021 N 195.109 -0.891671 -1.2995 0
M  V30 2022 C 196.358 -0.509521 -1.95158 0
M  V30 2023 C 196.671 0.947388 -1.71125 0
M  V30 2024 O 197.877 1.43669 -2.30372 0
M  V30 2025 C 196.333 -0.860315 -3.49466 0
M  V30 2026 C 195.941 -2.33545 -3.8231 0
M  V30 2027 C 197.685 -0.547687 -4.20952 0
M  V30 2028 C 195.592 -2.62752 -5.29826 0
M  V30 2029 H 194.522 -0.18682 -0.730489 0
M  V30 2030 H 197.173 -1.08756 -1.47798 0
M  V30 2031 H 195.555 -0.211285 -3.95436 0
M  V30 2032 H 196.729 -3.02936 -3.47227 0
M  V30 2033 H 195.044 -2.61629 -3.23944 0
M  V30 2034 H 197.641 -0.742854 -5.29515 0
M  V30 2035 H 197.984 0.51332 -4.13123 0
M  V30 2036 H 198.517 -1.1542 -3.80688 0
M  V30 2037 H 195.256 -3.6762 -5.42712 0
M  V30 2038 H 194.776 -1.97977 -5.66185 0
M  V30 2039 H 196.455 -2.48601 -5.97333 0
M  V30 2040 N 196.587 1.43421 -0.653314 0
M  V30 2041 C 198.003 1.56341 -0.320886 0
M  V30 2042 C 198.203 1.63696 1.17499 0
M  V30 2043 O 197.259 1.59208 1.95982 0
M  V30 2044 C 198.572 2.82424 -1.03233 0
M  V30 2045 C 200.12 2.96168 -1.01259 0
M  V30 2046 C 200.595 4.25084 -1.70492 0
M  V30 2047 N 202.086 4.31948 -1.67257 0
M  V30 2048 C 202.821 5.30466 -2.17701 0
M  V30 2049 N 202.317 6.35261 -2.76434 0
M  V30 2050 N 204.11 5.2212 -2.082 0
M  V30 2051 H 196.261 1.3689 -1.62403 0
M  V30 2052 H 198.524 0.657455 -0.682977 0
M  V30 2053 H 198.23 2.83053 -2.08744 0
M  V30 2054 H 198.104 3.72653 -0.583948 0
M  V30 2055 H 200.491 2.9508 0.0341235 0
M  V30 2056 H 200.572 2.07229 -1.49966 0
M  V30 2057 H 200.216 4.26932 -2.7512 0
M  V30 2058 H 200.146 5.1292 -1.19251 0
M  V30 2059 H 202.637 3.56838 -1.24398 0
M  V30 2060 H 202.95 7.06754 -3.12601 0
M  V30 2061 H 201.295 6.35884 -2.80495 0
M  V30 2062 H 204.486 4.39166 -1.62021 0
M  V30 2063 H 204.659 5.98739 -2.47822 0
M  V30 2064 N 198.065 0.39524 1.52563 0
M  V30 2065 C 199.295 -0.184675 2.05773 0
M  V30 2066 C 199.703 -1.40571 1.26635 0
M  V30 2067 O 199.046 -1.81105 0.30769 0
M  V30 2068 C 199.108 -0.613551 3.54226 0
M  V30 2069 C 198.772 0.49484 4.54313 0
M  V30 2070 C 199.769 1.3541 5.01956 0
M  V30 2071 C 197.454 0.663565 4.97898 0
M  V30 2072 C 199.448 2.36716 5.91814 0
M  V30 2073 C 197.135 1.67996 5.87555 0
M  V30 2074 C 198.133 2.53017 6.34406 0
M  V30 2075 O 197.821 3.52917 7.22291 0
M  V30 2076 H 197.553 -0.030077 0.675331 0
M  V30 2077 H 200.107 0.560708 1.97599 0
M  V30 2078 H 198.337 -1.411 3.60038 0
M  V30 2079 H 200.026 -1.11981 3.90148 0
M  V30 2080 H 200.792 1.23509 4.6901 0
M  V30 2081 H 196.671 0.0114913 4.60999 0
M  V30 2082 H 200.215 3.03113 6.28306 0
M  V30 2083 H 196.112 1.79933 6.19915 0
M  V30 2084 H 196.88 3.48996 7.40367 0
M  V30 2085 N 199.544 -1.57102 0.125237 0
M  V30 2086 C 200.955 -1.82384 -0.399142 0
M  V30 2087 C 201.306 -1.04276 -1.66195 0
M  V30 2088 O 200.431 -0.281269 -2.14564 0
M  V30 2089 C 201.026 -3.30821 -0.730932 0
M  V30 2090 C 199.585 -3.56762 -1.19992 0
M  V30 2091 C 198.732 -2.7649 -0.211792 0
M  V30 2092 H 201.683 -1.54786 0.350277 0
M  V30 2093 H 201.704 -3.4579 -1.58775 0
M  V30 2094 H 201.216 -3.87643 0.188345 0
M  V30 2095 H 199.317 -3.05305 -2.13588 0
M  V30 2096 H 199.43 -4.65317 -1.14093 0
M  V30 2097 H 197.794 -2.4489 -0.700085 0
M  V30 2098 H 198.577 -3.36073 0.700691 0
M  V30 2099 N 201.022 0.148545 -1.56898 0
M  V30 2100 C 201.952 1.18524 -2.01182 0
M  V30 2101 C 202.933 1.4489 -0.891123 0
M  V30 2102 O 204.118 1.55836 -1.15882 0
M  V30 2103 C 201.248 2.51879 -2.39112 0
M  V30 2104 C 200.202 2.40038 -3.54353 0
M  V30 2105 C 199.528 3.78089 -3.78091 0
M  V30 2106 C 200.828 1.88577 -4.87069 0
M  V30 2107 H 202.522 0.817029 -2.88036 0
M  V30 2108 H 200.068 0.391575 -1.38574 0
M  V30 2109 H 202.021 3.24627 -2.68692 0
M  V30 2110 H 200.745 2.90532 -1.49193 0
M  V30 2111 H 199.404 1.69742 -3.24936 0
M  V30 2112 H 199.052 4.14175 -2.85426 0
M  V30 2113 H 198.752 3.71028 -4.55645 0
M  V30 2114 H 200.276 4.52387 -4.10095 0
M  V30 2115 H 201.69 2.51117 -5.15377 0
M  V30 2116 H 200.087 1.9241 -5.68417 0
M  V30 2117 H 201.157 0.84136 -4.77545 0
M  V30 2118 N 202.5 1.5196 0.417844 0
M  V30 2119 C 203.728 1.69426 1.18753 0
M  V30 2120 C 204.143 0.399955 1.84515 0
M  V30 2121 O 203.5 -0.623288 1.71527 0
M  V30 2122 C 203.551 2.82375 2.25714 0
M  V30 2123 O 203.272 4.06793 1.62638 0
M  V30 2124 C 204.773 3.11277 3.15628 0
M  V30 2125 H 201.993 0.568031 0.357186 0
M  V30 2126 H 204.537 1.98475 0.49273 0
M  V30 2127 H 202.692 2.5587 2.90877 0
M  V30 2128 H 203.106 4.69667 2.3348 0
M  V30 2129 H 204.58 3.93843 3.86771 0
M  V30 2130 H 205.057 2.24473 3.77503 0
M  V30 2131 H 205.663 3.39515 2.56144 0
M  V30 2132 N 203.978 -0.674533 1.42435 0
M  V30 2133 C 205.225 -1.43459 1.42919 0
M  V30 2134 C 205.553 -1.94446 0.0457312 0
M  V30 2135 O 204.808 -1.7132 -0.94593 0
M  V30 2136 C 205.107 -2.64767 2.40069 0
M  V30 2137 C 204.773 -2.3232 3.86443 0
M  V30 2138 C 203.435 -2.23182 4.26314 0
M  V30 2139 C 205.787 -2.05977 4.78773 0
M  V30 2140 C 203.115 -1.85827 5.56494 0
M  V30 2141 C 205.467 -1.70125 6.09295 0
M  V30 2142 C 204.131 -1.59498 6.48164 0
M  V30 2143 H 203.401 -0.524952 0.522978 0
M  V30 2144 H 206.048 -0.769097 1.75377 0
M  V30 2145 H 204.353 -3.36349 2.00939 0
M  V30 2146 H 206.05 -3.22949 2.37707 0
M  V30 2147 H 202.64 -2.40334 3.54877 0
M  V30 2148 H 206.824 -2.11969 4.48757 0
M  V30 2149 H 202.08 -1.76168 5.8547 0
M  V30 2150 H 206.254 -1.48767 6.80324 0
M  V30 2151 H 203.881 -1.30322 7.48946 0
M  V30 2152 N 205.456 -1.28612 -0.910864 0
M  V30 2153 C 206.704 -1.15705 -1.65701 0
M  V30 2154 C 207.025 0.29416 -1.92769 0
M  V30 2155 O 206.295 1.20331 -1.54588 0
M  V30 2156 H 204.875 -0.425216 -0.614167 0
M  V30 2157 H 207.537 -1.61381 -1.0928 0
M  V30 2158 H 206.633 -1.6988 -2.61815 0
M  V30 2159 N 206.934 1.1197 -1.10907 0
M  V30 2160 C 208.18 1.84059 -0.865674 0
M  V30 2161 C 208.535 1.82731 0.602254 0
M  V30 2162 O 207.828 1.26543 1.43866 0
M  V30 2163 C 208.022 3.30749 -1.35425 0
M  V30 2164 C 207.851 3.46363 -2.86815 0
M  V30 2165 C 206.621 3.59712 -3.54874 0
M  V30 2166 C 208.819 3.41116 -3.84895 0
M  V30 2167 N 206.801 3.63741 -4.94536 0
M  V30 2168 C 208.172 3.51698 -5.10596 0
M  V30 2169 C 210.227 3.24612 -3.77533 0
M  V30 2170 C 208.93 3.4748 -6.29802 0
M  V30 2171 C 210.956 3.21708 -4.96244 0
M  V30 2172 C 210.318 3.32856 -6.20795 0
M  V30 2173 H 206.417 0.689015 -0.369841 0
M  V30 2174 H 209.001 1.34016 -1.41237 0
M  V30 2175 H 207.172 3.79322 -0.834814 0
M  V30 2176 H 208.904 3.90718 -1.05458 0
M  V30 2177 H 205.659 3.62038 -3.05329 0
M  V30 2178 H 206.083 3.69408 -5.67333 0
M  V30 2179 H 210.725 3.14883 -2.8215 0
M  V30 2180 H 208.443 3.55978 -7.25469 0
M  V30 2181 H 212.029 3.10113 -4.92261 0
M  V30 2182 H 210.909 3.3059 -7.11112 0
M  V30 2183 N 208.412 0.89855 1.29475 0
M  V30 2184 C 209.652 0.530771 1.97388 0
M  V30 2185 C 210.016 -0.905832 1.69289 0
M  V30 2186 O 211.217 -1.38042 2.30646 0
M  V30 2187 C 209.488 0.81369 3.48014 0
M  V30 2188 S 211.047 0.550048 4.35339 0
M  V30 2189 H 207.865 0.196956 0.683176 0
M  V30 2190 H 210.467 1.16074 1.57312 0
M  V30 2191 H 209.171 1.85749 3.65958 0
M  V30 2192 H 208.702 0.171795 3.93025 0
M  V30 2193 H 210.717 -0.605423 4.92493 0
M  V30 2194 N 209.89 -1.43072 0.660911 0
M  V30 2195 C 211.12 -2.05769 0.185153 0
M  V30 2196 C 211.528 -1.49668 -1.15742 0
M  V30 2197 O 210.871 -0.625649 -1.72717 0
M  V30 2198 C 210.933 -3.59489 0.0278237 0
M  V30 2199 C 210.597 -4.38212 1.2969 0
M  V30 2200 C 211.594 -4.69772 2.22734 0
M  V30 2201 C 209.279 -4.7809 1.54063 0
M  V30 2202 C 211.273 -5.40129 3.38437 0
M  V30 2203 C 208.96 -5.4819 2.70058 0
M  V30 2204 C 209.958 -5.79132 3.62071 0
M  V30 2205 O 209.646 -6.47798 4.76039 0
M  V30 2206 H 209.378 -0.669873 0.0908086 0
M  V30 2207 H 211.932 -1.84436 0.90402 0
M  V30 2208 H 210.162 -3.79426 -0.746489 0
M  V30 2209 H 211.851 -4.03862 -0.406275 0
M  V30 2210 H 212.617 -4.39476 2.05149 0
M  V30 2211 H 208.496 -4.53408 0.833215 0
M  V30 2212 H 212.04 -5.64198 4.10277 0
M  V30 2213 H 207.937 -5.77902 2.87574 0
M  V30 2214 H 208.705 -6.66283 4.75404 0
M  V30 2215 N 211.368 -0.403325 -1.52352 0
M  V30 2216 C 212.315 0.425011 -2.26853 0
M  V30 2217 C 213.285 1.04598 -1.29029 0
M  V30 2218 O 214.47 1.07135 -1.57882 0
M  V30 2219 C 211.61 1.53888 -3.08889 0
M  V30 2220 C 210.723 0.939396 -4.21663 0
M  V30 2221 C 209.858 2.02547 -4.91068 0
M  V30 2222 C 208.897 1.40263 -5.95813 0
M  V30 2223 N 208.034 2.4286 -6.58759 0
M  V30 2224 H 212.874 -0.21674 -2.97211 0
M  V30 2225 H 210.411 -0.118722 -1.4662 0
M  V30 2226 H 212.369 2.19558 -3.54753 0
M  V30 2227 H 210.999 2.15074 -2.40714 0
M  V30 2228 H 210.051 0.171898 -3.80011 0
M  V30 2229 H 211.363 0.44436 -4.96817 0
M  V30 2230 H 210.517 2.75958 -5.40308 0
M  V30 2231 H 209.256 2.55415 -4.15469 0
M  V30 2232 H 208.261 0.653833 -5.45898 0
M  V30 2233 H 209.486 0.881719 -6.73352 0
M  V30 2234 H 207.432 2.94871 -5.85992 0
M  V30 2235 H 207.349 1.98152 -7.2957 0
M  V30 2236 H 208.617 3.15858 -7.12639 0
M  V30 2237 N 212.846 1.57033 -0.133567 0
M  V30 2238 C 213.776 2.1909 0.807567 0
M  V30 2239 C 214.757 1.13517 1.26681 0
M  V30 2240 O 215.942 1.41809 1.32679 0
M  V30 2241 C 213.072 2.80188 2.05212 0
M  V30 2242 C 212.026 3.91471 1.73015 0
M  V30 2243 C 211.352 4.39443 3.04622 0
M  V30 2244 C 212.652 5.12886 0.987168 0
M  V30 2245 H 214.346 2.97988 0.290403 0
M  V30 2246 H 211.892 1.43335 0.138239 0
M  V30 2247 H 213.845 3.22264 2.71521 0
M  V30 2248 H 212.569 1.98601 2.59278 0
M  V30 2249 H 211.228 3.49993 1.0909 0
M  V30 2250 H 210.876 3.54695 3.56651 0
M  V30 2251 H 210.576 5.14495 2.83847 0
M  V30 2252 H 212.1 4.8418 3.72024 0
M  V30 2253 H 213.514 5.51891 1.55208 0
M  V30 2254 H 211.911 5.93615 0.87985 0
M  V30 2255 H 212.981 4.84894 -0.0235286 0
M  V30 2256 N 214.325 -0.140222 1.56975 0
M  V30 2257 C 215.571 -0.852949 1.83991 0
M  V30 2258 C 215.904 -1.80512 0.716187 0
M  V30 2259 O 215.179 -1.92479 -0.279681 0
M  V30 2260 C 215.462 -1.6215 3.21527 0
M  V30 2261 C 215.315 -0.690363 4.4447 0
M  V30 2262 C 216.634 -2.58247 3.56366 0
M  V30 2263 H 213.753 -0.308634 0.669264 0
M  V30 2264 H 216.395 -0.117898 1.89634 0
M  V30 2265 H 214.545 -2.24812 3.16847 0
M  V30 2266 H 216.217 -0.0742264 4.6124 0
M  V30 2267 H 214.46 -0.000396433 4.338 0
M  V30 2268 H 215.131 -1.2643 5.37326 0
M  V30 2269 H 217.607 -2.05701 3.61699 0
M  V30 2270 H 216.483 -3.09067 4.53617 0
M  V30 2271 H 216.744 -3.39923 2.82674 0
M  V30 2272 N 215.803 -1.52179 -0.40978 0
M  V30 2273 C 217.214 -1.58377 -0.988615 0
M  V30 2274 C 217.565 -0.423879 -1.91566 0
M  V30 2275 O 216.69 0.455844 -2.11544 0
M  V30 2276 C 217.285 -2.87044 -1.79976 0
M  V30 2277 C 215.844 -2.95722 -2.32863 0
M  V30 2278 C 214.991 -2.53309 -1.12828 0
M  V30 2279 H 217.942 -1.57558 -0.190039 0
M  V30 2280 H 217.963 -2.7236 -2.65707 0
M  V30 2281 H 217.475 -3.71444 -1.12478 0
M  V30 2282 H 215.576 -2.15814 -3.03735 0
M  V30 2283 H 215.689 -3.99951 -2.63773 0
M  V30 2284 H 214.053 -2.07142 -1.48204 0
M  V30 2285 H 214.836 -3.40082 -0.46897 0
M  V30 2286 N 217.281 0.66697 -1.42791 0
M  V30 2287 C 218.527 1.4291 -1.43891 0
M  V30 2288 C 218.86 1.94114 -0.0578972 0
M  V30 2289 O 218.135 1.71414 0.91911 0
M  V30 2290 C 218.418 2.62049 -2.46987 0
M  V30 2291 C 218.271 2.16426 -3.94309 0
M  V30 2292 C 219.59 3.64266 -2.46978 0
M  V30 2293 H 216.709 0.518306 -0.523954 0
M  V30 2294 H 219.351 0.757321 -1.74255 0
M  V30 2295 H 217.501 3.19361 -2.21225 0
M  V30 2296 H 219.173 1.64221 -4.31079 0
M  V30 2297 H 217.416 1.47925 -4.078 0
M  V30 2298 H 218.087 3.02038 -4.62036 0
M  V30 2299 H 220.563 3.16686 -2.69906 0
M  V30 2300 H 219.439 4.45196 -3.21079 0
M  V30 2301 H 219.7 4.15927 -1.49857 0
M  V30 2302 N 218.759 1.29093 0.90403 0
M  V30 2303 C 219.669 1.15727 2.0407 0
M  V30 2304 C 220.685 0.0815308 1.73809 0
M  V30 2305 O 221.861 0.292749 1.99261 0
M  V30 2306 C 218.926 0.830424 3.36608 0
M  V30 2307 C 217.987 1.98955 3.80415 0
M  V30 2308 C 217.22 1.6782 5.06628 0
M  V30 2309 O 217.443 0.597105 5.67266 0
M  V30 2310 O 216.377 2.52486 5.46383 0
M  V30 2311 H 220.203 2.11171 2.18267 0
M  V30 2312 H 217.788 1.08504 1.027 0
M  V30 2313 H 219.67 0.662521 4.16159 0
M  V30 2314 H 218.345 -0.0942678 3.23563 0
M  V30 2315 H 217.252 2.21267 3.01648 0
M  V30 2316 H 218.585 2.89529 3.98037 0
M  V30 2317 N 220.237 -1.11381 1.11499 0
M  V30 2318 C 221.648 -1.6465 0.880191 0
M  V30 2319 C 221.999 -1.87199 -0.587434 0
M  V30 2320 O 221.124 -1.60667 -1.44966 0
M  V30 2321 C 221.719 -2.99105 1.59128 0
M  V30 2322 C 220.278 -3.49279 1.40289 0
M  V30 2323 C 219.425 -2.24077 1.63354 0
M  V30 2324 H 222.376 -0.950123 1.27116 0
M  V30 2325 H 222.397 -3.66107 1.03664 0
M  V30 2326 H 221.909 -2.82661 2.65941 0
M  V30 2327 H 220.01 -3.70887 0.356888 0
M  V30 2328 H 220.123 -4.2803 2.15238 0
M  V30 2329 H 218.487 -2.31733 1.05698 0
M  V30 2330 H 219.27 -2.10175 2.71443 0
M  V30 2331 N 221.715 -0.905404 -1.28997 0
M  V30 2332 C 222.625 -0.392246 -2.31298 0
M  V30 2333 C 223.641 0.515889 -1.66176 0
M  V30 2334 O 224.817 0.404093 -1.97304 0
M  V30 2335 C 221.882 0.36686 -3.44754 0
M  V30 2336 C 220.943 -0.573485 -4.25452 0
M  V30 2337 C 220.176 0.149488 -5.33491 0
M  V30 2338 O 220.399 1.37255 -5.5364 0
M  V30 2339 O 219.333 -0.510919 -5.99728 0
M  V30 2340 H 223.159 -1.2411 -2.77183 0
M  V30 2341 H 220.744 -0.669926 -1.33538 0
M  V30 2342 H 222.626 0.795907 -4.13816 0
M  V30 2343 H 221.301 1.19169 -3.00966 0
M  V30 2344 H 220.208 -1.05176 -3.59011 0
M  V30 2345 H 221.541 -1.36489 -4.72897 0
M  V30 2346 N 223.193 1.4272 -0.668489 0
M  V30 2347 C 224.14 2.30796 0.0137489 0
M  V30 2348 C 225.11 1.4561 0.799177 0
M  V30 2349 O 226.295 1.74453 0.772702 0
M  V30 2350 C 223.435 3.31377 0.963507 0
M  V30 2351 C 222.548 4.31655 0.172569 0
M  V30 2352 C 221.683 5.19312 1.1175 0
M  V30 2353 C 220.722 6.11274 0.317886 0
M  V30 2354 N 219.859 6.91504 1.2152 0
M  V30 2355 H 224.699 2.88585 -0.743161 0
M  V30 2356 H 222.236 1.42154 -0.378226 0
M  V30 2357 H 224.194 3.88214 1.52792 0
M  V30 2358 H 222.824 2.75202 1.68712 0
M  V30 2359 H 221.876 3.76988 -0.508374 0
M  V30 2360 H 223.188 4.96779 -0.448527 0
M  V30 2361 H 222.342 5.80851 1.75206 0
M  V30 2362 H 221.081 4.5435 1.77249 0
M  V30 2363 H 220.086 5.48809 -0.329918 0
M  V30 2364 H 221.311 6.78283 -0.332917 0
M  V30 2365 H 219.257 6.29176 1.85671 0
M  V30 2366 H 219.174 7.53209 0.649036 0
M  V30 2367 H 220.442 7.57535 1.83742 0
M  V30 2368 N 224.671 0.411399 1.52136 0
M  V30 2369 C 225.601 -0.404015 2.29978 0
M  V30 2370 C 226.582 -1.04412 1.34284 0
M  V30 2371 O 227.767 -1.0527 1.63192 0
M  V30 2372 C 224.897 -1.5197 3.12286 0
M  V30 2373 C 223.851 -1.00448 4.16046 0
M  V30 2374 C 223.177 -2.21393 4.86712 0
M  V30 2375 C 224.477 -0.0569336 5.22269 0
M  V30 2376 H 226.171 0.245529 2.98392 0
M  V30 2377 H 223.717 0.119525 1.43503 0
M  V30 2378 H 225.67 -2.09715 3.6551 0
M  V30 2379 H 224.394 -2.19716 2.41646 0
M  V30 2380 H 223.053 -0.449421 3.63835 0
M  V30 2381 H 222.701 -2.87699 4.12599 0
M  V30 2382 H 222.401 -1.87571 5.56858 0
M  V30 2383 H 223.925 -2.7974 5.4275 0
M  V30 2384 H 225.339 -0.54325 5.7072 0
M  V30 2385 H 223.736 0.192594 5.99791 0
M  V30 2386 H 224.806 0.887663 4.76706 0
M  V30 2387 N 226.149 -1.5696 0.141893 0
M  V30 2388 C 227.059 -2.20066 -0.812905 0
M  V30 2389 C 228.075 -1.18344 -1.27557 0
M  V30 2390 O 229.251 -1.50902 -1.33381 0
M  V30 2391 C 226.316 -2.80583 -2.03652 0
M  V30 2392 C 225.377 -3.97414 -1.62359 0
M  V30 2393 C 224.61 -4.55036 -2.78887 0
M  V30 2394 O 224.833 -4.11538 -3.94959 0
M  V30 2395 O 223.767 -5.45376 -2.54653 0
M  V30 2396 H 227.593 -3.02157 -0.305746 0
M  V30 2397 H 225.178 -1.49159 -0.0848799 0
M  V30 2398 H 227.06 -3.19067 -2.75272 0
M  V30 2399 H 225.735 -2.01508 -2.5333 0
M  V30 2400 H 224.642 -3.63656 -0.877775 0
M  V30 2401 H 225.975 -4.77994 -1.17401 0
M  V30 2402 N 227.627 0.131896 -1.57047 0
M  V30 2403 C 228.537 1.1815 -2.02676 0
M  V30 2404 C 229.553 1.46113 -0.944824 0
M  V30 2405 O 230.729 1.57485 -1.25541 0
M  V30 2406 C 227.794 2.49139 -2.41103 0
M  V30 2407 C 226.855 2.28688 -3.63318 0
M  V30 2408 C 226.088 3.53431 -3.99903 0
M  V30 2409 O 226.311 4.60223 -3.36973 0
M  V30 2410 O 225.245 3.45198 -4.93074 0
M  V30 2411 H 229.071 0.824069 -2.92306 0
M  V30 2412 H 226.656 0.341745 -1.45439 0
M  V30 2413 H 228.538 3.26338 -2.66611 0
M  V30 2414 H 227.213 2.84382 -1.54624 0
M  V30 2415 H 226.12 1.4939 -3.42977 0
M  V30 2416 H 227.453 1.98355 -4.50462 0
M  V30 2417 N 229.106 1.52395 0.401703 0
M  V30 2418 C 230.069 1.75636 1.47257 0
M  V30 2419 C 231.069 0.62628 1.48103 0
M  V30 2420 O 232.259 0.894227 1.49497 0
M  V30 2421 C 229.391 1.84553 2.86624 0
M  V30 2422 H 230.584 2.71241 1.27938 0
M  V30 2423 H 228.137 1.42923 0.632662 0
M  V30 2424 H 228.872 0.908882 3.11303 0
M  V30 2425 H 228.657 2.66715 2.87412 0
M  V30 2426 H 230.147 2.04251 3.64241 0
M  V30 2427 N 230.584 -0.659388 1.43143 0
M  V30 2428 C 231.532 -1.79374 1.4808 0
M  V30 2429 C 232.526 -1.65639 0.354988 0
M  V30 2430 O 233.732 -1.7206 0.528704 0
M  V30 2431 H 230.107 -0.591705 0.4641 0
M  V30 2432 H 232.078 -1.72329 2.43609 0
M  V30 2433 C 230.827 -3.17606 1.41499 0
M  V30 2434 H 230.15 -3.28809 2.27431 0
M  V30 2435 H 231.59 -3.96951 1.49015 0
M  V30 2436 C 230.049 -3.36642 0.131765 0
M  V30 2437 O 230.579 -3.93461 -0.809386 0
M  V30 2438 N 228.785 -2.90567 0.0439396 0
M  V30 2439 H 228.332 -2.44513 0.810619 0
M  V30 2440 H 228.29 -3.03681 -0.813969 0
M  V30 2441 N 232.062 -1.29571 -0.897171 0
M  V30 2442 C 233.009 -1.14916 -2.00158 0
M  V30 2443 C 233.979 -0.0418149 -1.66047 0
M  V30 2444 O 235.164 -0.209793 -1.89643 0
M  V30 2445 C 232.304 -0.834307 -3.34863 0
M  V30 2446 C 231.417 -2.02234 -3.8174 0
M  V30 2447 C 230.552 -1.64664 -5.05034 0
M  V30 2448 C 229.591 -2.80033 -5.44286 0
M  V30 2449 N 228.728 -2.42843 -6.58765 0
M  V30 2450 H 233.568 -2.09403 -2.12025 0
M  V30 2451 H 231.105 -1.042 -1.0383 0
M  V30 2452 H 233.063 -0.632436 -4.12379 0
M  V30 2453 H 231.693 0.0736656 -3.22716 0
M  V30 2454 H 230.745 -2.33583 -3.00238 0
M  V30 2455 H 232.057 -2.88673 -4.06779 0
M  V30 2456 H 231.211 -1.4078 -5.9014 0
M  V30 2457 H 229.95 -0.753766 -4.8184 0
M  V30 2458 H 228.955 -3.04596 -4.57713 0
M  V30 2459 H 230.18 -3.69989 -5.6946 0
M  V30 2460 H 228.126 -1.56046 -6.3717 0
M  V30 2461 H 228.043 -3.22815 -6.83613 0
M  V30 2462 H 229.311 -2.22285 -7.47134 0
M  V30 2463 N 233.54 1.10788 -1.12088 0
M  V30 2464 C 234.788 1.8231 -0.872205 0
M  V30 2465 C 235.109 1.85419 0.603709 0
M  V30 2466 O 234.379 1.32963 1.43867 0
M  V30 2467 H 232.959 0.675137 -0.319686 0
M  V30 2468 H 235.621 1.34068 -1.41463 0
M  V30 2469 H 234.717 2.85955 -1.25045 0
M  V30 2470 N 235.018 0.912232 1.28515 0
M  V30 2471 C 235.928 0.404506 2.31086 0
M  V30 2472 C 236.944 -0.50707 1.66448 0
M  V30 2473 O 238.12 -0.393624 1.97516 0
M  V30 2474 C 235.185 -0.348572 3.44943 0
M  V30 2475 C 234.246 0.59604 4.25142 0
M  V30 2476 C 233.479 -0.121194 5.33562 0
M  V30 2477 O 233.702 -1.34317 5.5436 0
M  V30 2478 O 232.636 0.542716 5.99448 0
M  V30 2479 H 236.462 1.25579 2.76521 0
M  V30 2480 H 234.047 0.676998 1.33181 0
M  V30 2481 H 235.929 -0.77395 4.14232 0
M  V30 2482 H 234.604 -1.17571 3.01594 0
M  V30 2483 H 233.511 1.07079 3.58448 0
M  V30 2484 H 234.844 1.38995 4.72167 0
M  V30 2485 N 236.496 -1.42363 0.676048 0
M  V30 2486 C 237.444 -2.32596 -0.0131507 0
M  V30 2487 C 238.438 -1.49891 -0.789238 0
M  V30 2488 O 239.644 -1.65955 -0.697061 0
M  V30 2489 H 236.019 -0.751647 -0.0230481 0
M  V30 2490 H 237.99 -2.88421 0.765243 0
M  V30 2491 C 236.739 -3.34479 -0.949702 0
M  V30 2492 H 236.062 -3.98158 -0.361938 0
M  V30 2493 H 237.502 -4.00199 -1.4006 0
M  V30 2494 C 235.961 -2.66838 -2.05667 0
M  V30 2495 O 236.491 -2.50124 -3.14326 0
M  V30 2496 N 234.697 -2.25843 -1.82875 0
M  V30 2497 H 234.244 -2.39637 -0.945085 0
M  V30 2498 H 234.202 -1.80918 -2.5713 0
M  V30 2499 N 237.974 -0.419461 -1.51915 0
M  V30 2500 C 239.202 0.152136 -2.0634 0
M  V30 2501 C 239.617 1.37988 -1.28859 0
M  V30 2502 O 238.974 1.79243 -0.343232 0
M  V30 2503 C 239.025 0.492266 -3.58133 0
M  V30 2504 O 238.746 -0.686736 -4.32684 0
M  V30 2505 C 240.247 1.11648 -4.2901 0
M  V30 2506 H 237.467 0.0158325 -0.670813 0
M  V30 2507 H 240.011 -0.593394 -1.95702 0
M  V30 2508 H 238.166 1.18769 -3.68745 0
M  V30 2509 H 238.58 -0.400341 -5.2297 0
M  V30 2510 H 240.054 1.3046 -5.36362 0
M  V30 2511 H 240.531 2.09251 -3.86148 0
M  V30 2512 H 241.137 0.460958 -4.22795 0
M  V30 2513 N 239.452 1.56882 -0.150215 0
M  V30 2514 C 240.677 2.01027 0.510184 0
M  V30 2515 C 241.102 1.02966 1.57415 0
M  V30 2516 O 240.46 0.00590158 1.81299 0
M  V30 2517 C 240.508 3.43899 1.08472 0
M  V30 2518 O 239.612 3.4885 2.19948 0
M  V30 2519 H 238.953 0.652233 0.124451 0
M  V30 2520 H 241.483 2.03093 -0.247894 0
M  V30 2521 H 241.493 3.82766 1.41259 0
M  V30 2522 H 240.168 4.14776 0.305582 0
M  V30 2523 H 238.745 3.21827 1.88366 0
M  V30 2524 N 240.93 -0.123565 1.57115 0
M  V30 2525 C 241.86 -1.15309 2.03042 0
M  V30 2526 C 242.841 -1.43454 0.914061 0
M  V30 2527 O 244.026 -1.53973 1.18347 0
M  V30 2528 C 241.156 -2.48043 2.43089 0
M  V30 2529 C 240.11 -2.3437 3.58127 0
M  V30 2530 C 239.436 -3.72026 3.84059 0
M  V30 2531 C 240.736 -1.80804 4.90007 0
M  V30 2532 H 242.43 -0.771102 2.893 0
M  V30 2533 H 239.976 -0.369479 1.39179 0
M  V30 2534 H 241.929 -3.20311 2.73823 0
M  V30 2535 H 240.653 -2.88122 1.53796 0
M  V30 2536 H 239.312 -1.64551 3.27595 0
M  V30 2537 H 238.96 -4.09582 2.91979 0
M  V30 2538 H 238.66 -3.63732 4.6149 0
M  V30 2539 H 240.184 -4.45806 4.1724 0
M  V30 2540 H 241.598 -2.42886 5.19307 0
M  V30 2541 H 239.995 -1.83343 5.71407 0
M  V30 2542 H 241.065 -0.76528 4.78823 0
M  V30 2543 N 242.408 -1.52605 -0.393616 0
M  V30 2544 C 243.338 -1.80022 -1.48709 0
M  V30 2545 C 244.319 -0.651995 -1.57108 0
M  V30 2546 O 245.504 -0.89913 -1.72132 0
M  V30 2547 C 242.634 -1.96492 -2.86371 0
M  V30 2548 C 241.588 -3.12161 -2.92813 0
M  V30 2549 C 240.914 -3.13877 -4.3288 0
M  V30 2550 C 242.214 -4.51322 -2.6288 0
M  V30 2551 H 243.908 -2.71589 -1.26015 0
M  V30 2552 H 241.454 -1.30684 -0.604778 0
M  V30 2553 H 243.407 -2.14255 -3.62867 0
M  V30 2554 H 242.131 -1.01611 -3.10391 0
M  V30 2555 H 240.79 -2.94173 -2.18764 0
M  V30 2556 H 240.438 -2.16687 -4.53933 0
M  V30 2557 H 240.138 -3.91576 -4.38112 0
M  V30 2558 H 241.662 -3.33789 -5.1129 0
M  V30 2559 H 243.076 -4.69435 -3.29096 0
M  V30 2560 H 241.473 -5.31053 -2.79468 0
M  V30 2561 H 242.543 -4.58353 -1.58242 0
M  V30 2562 N 243.887 0.651787 -1.4349 0
M  V30 2563 C 244.837 1.75783 -1.45205 0
M  V30 2564 C 245.821 1.57679 -0.320328 0
M  V30 2565 O 247.013 1.67767 -0.564211 0
M  V30 2566 C 244.142 3.14377 -1.3792 0
M  V30 2567 C 243.228 3.38023 -2.56127 0
M  V30 2568 N 243.619 3.32135 -3.81471 0
M  V30 2569 C 241.917 3.68747 -2.50882 0
M  V30 2570 C 242.618 3.55902 -4.60118 0
M  V30 2571 N 241.594 3.77783 -3.90872 0
M  V30 2572 H 245.396 1.69657 -2.39987 0
M  V30 2573 H 242.91 0.853508 -1.38163 0
M  V30 2574 H 244.907 3.93666 -1.37231 0
M  V30 2575 H 243.567 3.21683 -0.441596 0
M  V30 2576 H 244.578 3.11515 -4.13738 0
M  V30 2577 H 241.255 3.8316 -1.65816 0
M  V30 2578 H 242.645 3.57116 -5.69138 0
M  V30 2579 N 245.365 1.30045 0.890287 0
M  V30 2580 C 246.776 1.16738 1.45702 0
M  V30 2581 C 247.127 -0.233939 1.948 0
M  V30 2582 O 246.252 -1.13021 1.84541 0
M  V30 2583 C 246.847 2.11313 2.64825 0
M  V30 2584 C 245.406 2.02001 3.17604 0
M  V30 2585 C 244.553 2.01699 1.90296 0
M  V30 2586 H 247.504 1.42392 0.700726 0
M  V30 2587 H 247.525 1.69086 3.40867 0
M  V30 2588 H 247.037 3.13294 2.2906 0
M  V30 2589 H 245.138 1.03142 3.5804 0
M  V30 2590 H 245.251 2.90128 3.81264 0
M  V30 2591 H 243.615 1.46427 2.08402 0
M  V30 2592 H 244.398 3.05402 1.56795 0
M  V30 2593 N 246.843 -1.10192 1.12674 0
M  V30 2594 C 248.089 -1.82475 0.884915 0
M  V30 2595 C 248.422 -1.85093 -0.58773 0
M  V30 2596 O 247.697 -1.3134 -1.43457 0
M  V30 2597 C 247.98 -3.29018 1.46353 0
M  V30 2598 C 247.833 -3.34718 3.00473 0
M  V30 2599 C 249.152 -4.25473 1.12519 0
M  V30 2600 H 246.271 -0.662492 0.322915 0
M  V30 2601 H 248.913 -1.2913 1.39375 0
M  V30 2602 H 247.063 -3.74576 1.03077 0
M  V30 2603 H 248.735 -2.97622 3.52447 0
M  V30 2604 H 246.978 -2.74541 3.35872 0
M  V30 2605 H 247.649 -4.37918 3.36053 0
M  V30 2606 H 250.125 -3.88161 1.499 0
M  V30 2607 H 249.001 -5.26365 1.55663 0
M  V30 2608 H 249.262 -4.42084 0.0377407 0
M  V30 2609 N 248.321 -0.919034 -1.28029 0
M  V30 2610 C 249.546 -0.570357 -1.99403 0
M  V30 2611 C 249.971 0.842486 -1.68178 0
M  V30 2612 O 249.329 1.56391 -0.917141 0
M  V30 2613 C 249.377 -0.792541 -3.51783 0
M  V30 2614 O 248.481 0.145988 -4.12142 0
M  V30 2615 H 247.822 -0.220555 -0.6263 0
M  V30 2616 H 250.352 -1.23592 -1.63053 0
M  V30 2617 H 250.362 -0.704708 -4.01868 0
M  V30 2618 H 249.037 -1.82247 -3.73844 0
M  V30 2619 H 247.614 0.00897528 -3.72899 0
M  V30 2620 N 249.799 1.42003 -0.683588 0
M  V30 2621 C 250.729 2.33487 -0.024866 0
M  V30 2622 C 251.71 1.51163 0.779975 0
M  V30 2623 O 252.895 1.79739 0.735362 0
M  V30 2624 C 250.025 3.3487 0.920836 0
M  V30 2625 C 248.979 4.27414 0.223958 0
M  V30 2626 C 248.305 5.19074 1.2832 0
M  V30 2627 C 249.605 5.14445 -0.90242 0
M  V30 2628 H 251.299 2.88819 -0.788921 0
M  V30 2629 H 248.845 1.38873 -0.38083 0
M  V30 2630 H 250.798 3.97787 1.39081 0
M  V30 2631 H 249.522 2.77861 1.71642 0
M  V30 2632 H 248.181 3.65904 -0.225864 0
M  V30 2633 H 247.829 4.58387 2.071 0
M  V30 2634 H 247.529 5.81822 0.821995 0
M  V30 2635 H 249.053 5.84867 1.75392 0
M  V30 2636 H 250.467 5.70998 -0.513272 0
M  V30 2637 H 248.864 5.86072 -1.28997 0
M  V30 2638 H 249.934 4.52322 -1.74737 0
M  V30 2639 N 251.277 0.427512 1.51691 0
M  V30 2640 C 252.227 -0.406604 2.24345 0
M  V30 2641 C 253.211 -0.998276 1.26187 0
M  V30 2642 O 254.403 -0.918045 1.51331 0
M  V30 2643 C 251.532 -1.51266 3.08177 0
M  V30 2644 C 250.618 -0.930868 4.13758 0
M  V30 2645 N 251.009 -0.0773552 5.05741 0
M  V30 2646 C 249.307 -1.19948 4.29568 0
M  V30 2647 C 250.008 0.248344 5.8117 0
M  V30 2648 N 248.984 -0.365535 5.4237 0
M  V30 2649 H 252.786 0.251581 2.92821 0
M  V30 2650 H 250.3 0.239003 1.60632 0
M  V30 2651 H 252.297 -2.123 3.58796 0
M  V30 2652 H 250.957 -2.17328 2.41244 0
M  V30 2653 H 251.968 0.288351 5.17097 0
M  V30 2654 H 248.645 -1.85832 3.73862 0
M  V30 2655 H 250.035 0.942286 6.6526 0
M  V30 2656 N 252.755 -1.56801 0.158532 0
M  V30 2657 C 254.003 -1.96102 -0.488712 0
M  V30 2658 C 254.324 -1.04498 -1.64636 0
M  V30 2659 O 253.594 -0.108783 -1.95598 0
M  V30 2660 H 252.174 -0.724102 -0.183535 0
M  V30 2661 H 254.836 -1.93457 0.236728 0
M  V30 2662 H 253.932 -3.00097 -0.857219 0
M  V30 2663 N 254.233 0.115231 -1.57178 0
M  V30 2664 C 255.166 1.17166 -1.95825 0
M  V30 2665 C 256.144 1.39912 -0.828463 0
M  V30 2666 O 257.328 1.54004 -1.08697 0
M  V30 2667 C 254.455 2.52478 -2.25771 0
M  V30 2668 C 253.501 2.46136 -3.48309 0
M  V30 2669 S 254.334 1.89736 -5.0076 0
M  V30 2670 C 255.49 3.26713 -5.33863 0
M  V30 2671 H 255.723 0.842103 -2.85124 0
M  V30 2672 H 253.256 0.322136 -1.51002 0
M  V30 2673 H 255.214 3.30332 -2.43702 0
M  V30 2674 H 253.875 2.82609 -1.37079 0
M  V30 2675 H 253.068 3.45819 -3.66641 0
M  V30 2676 H 252.67 1.76404 -3.29784 0
M  V30 2677 H 254.962 4.22935 -5.29275 0
M  V30 2678 H 255.905 3.13205 -6.35065 0
M  V30 2679 H 256.313 3.25316 -4.61335 0
M  V30 2680 N 255.711 1.52812 0.385517 0
M  V30 2681 C 256.988 1.5861 1.14465 0
M  V30 2682 C 257.368 0.381402 2.07626 0
M  V30 2683 O 256.716 -0.629999 2.19643 0
M  V30 2684 C 256.926 2.92664 1.90128 0
M  V30 2685 C 258.274 3.46526 2.45367 0
M  V30 2686 O 259.298 2.94562 2.0028 0
M  V30 2687 O 258.157 4.37323 3.27736 0
M  V30 2688 H 255.251 0.639855 0.523941 0
M  V30 2689 H 257.797 1.65149 0.390389 0
M  V30 2690 H 256.569 3.71788 1.22022 0
M  V30 2691 H 256.192 2.89527 2.72507 0
M  V30 2692 N 257.189 -0.644168 1.43834 0
M  V30 2693 C 258.466 -1.40188 1.36406 0
M  V30 2694 C 258.846 -2.11094 0.0163124 0
M  V30 2695 O 258.194 -2.05426 -1.00062 0
M  V30 2696 C 258.404 -2.3791 2.55343 0
M  V30 2697 C 259.752 -3.01637 2.98832 0
M  V30 2698 O 260.776 -2.48237 2.55455 0
M  V30 2699 O 259.635 -3.98477 3.74003 0
M  V30 2700 H 256.729 -0.626773 0.539523 0
M  V30 2701 H 259.275 -0.670317 1.559 0
M  V30 2702 H 258.047 -1.84525 3.4506 0
M  V30 2703 H 257.67 -3.18503 2.37995 0
M  V30 2704 N 258.668 -1.30515 -0.883378 0
M  V30 2705 C 260.079 -1.17509 -1.45081 0
M  V30 2706 C 260.43 0.223605 -1.94922 0
M  V30 2707 O 259.555 1.12041 -1.85137 0
M  V30 2708 C 260.15 -2.12715 -2.63701 0
M  V30 2709 C 258.709 -2.03682 -3.16529 0
M  V30 2710 C 257.856 -2.02706 -1.89224 0
M  V30 2711 H 260.807 -1.42762 -0.693165 0
M  V30 2712 H 260.828 -1.70891 -3.39965 0
M  V30 2713 H 260.34 -3.14505 -2.27395 0
M  V30 2714 H 258.441 -1.05039 -3.57488 0
M  V30 2715 H 258.554 -2.92146 -3.7972 0
M  V30 2716 H 256.918 -1.4753 -2.07622 0
M  V30 2717 H 257.701 -3.06229 -1.55174 0
M  V30 2718 N 260.146 1.09593 -1.13257 0
M  V30 2719 C 261.056 2.19739 -0.821691 0
M  V30 2720 C 262.072 1.72926 0.19302 0
M  V30 2721 O 263.248 2.01385 0.0244895 0
M  V30 2722 C 260.313 3.45482 -0.290333 0
M  V30 2723 C 259.374 4.06985 -1.36607 0
M  V30 2724 C 258.607 5.26726 -0.859975 0
M  V30 2725 O 258.83 5.69594 0.303082 0
M  V30 2726 O 257.764 5.7931 -1.63351 0
M  V30 2727 H 261.59 2.48781 -1.74189 0
M  V30 2728 H 259.175 1.18496 -0.909894 0
M  V30 2729 H 261.057 4.214 0.000674022 0
M  V30 2730 H 259.732 3.18047 0.602306 0
M  V30 2731 H 258.639 3.32712 -1.71037 0
M  V30 2732 H 259.972 4.38643 -2.23279 0
M  V30 2733 N 261.624 0.925811 1.2754 0
M  V30 2734 C 263.04 0.625767 1.46821 0
M  V30 2735 C 263.24 -0.825506 1.83814 0
M  V30 2736 O 262.296 -1.60356 1.95044 0
M  V30 2737 C 263.609 1.57402 2.56213 0
M  V30 2738 C 265.157 1.58204 2.70075 0
M  V30 2739 C 265.632 2.51721 3.82623 0
M  V30 2740 N 267.123 2.49917 3.89994 0
M  V30 2741 C 267.858 3.18968 4.76494 0
M  V30 2742 N 267.354 3.97391 5.67496 0
M  V30 2743 N 269.147 3.07996 4.70208 0
M  V30 2744 H 261.298 1.86409 1.01811 0
M  V30 2745 H 263.561 0.800213 0.508295 0
M  V30 2746 H 263.267 2.60925 2.35819 0
M  V30 2747 H 263.141 1.31428 3.53563 0
M  V30 2748 H 265.528 0.554124 2.89851 0
M  V30 2749 H 265.609 1.88226 1.73218 0
M  V30 2750 H 265.253 3.54622 3.63601 0
M  V30 2751 H 265.183 2.18996 4.78903 0
M  V30 2752 H 267.674 1.9296 3.24923 0
M  V30 2753 H 267.987 4.4707 6.30356 0
M  V30 2754 H 266.332 4.01495 5.67298 0
M  V30 2755 H 269.523 2.46223 3.9811 0
M  V30 2756 H 269.696 3.6208 5.37403 0
M  V30 2757 N 263.102 -1.41638 0.69111 0
M  V30 2758 C 264.012 -2.34588 0.0233487 0
M  V30 2759 C 265.028 -1.55987 -0.770984 0
M  V30 2760 O 266.204 -1.88486 -0.709569 0
M  V30 2761 C 263.269 -3.34684 -0.904851 0
M  V30 2762 C 262.33 -4.29176 -0.103225 0
M  V30 2763 C 261.563 -5.2449 -0.987216 0
M  V30 2764 O 261.786 -5.2514 -2.22674 0
M  V30 2765 O 260.72 -6.00295 -0.439281 0
M  V30 2766 H 264.546 -2.93261 0.789416 0
M  V30 2767 H 262.131 -1.42417 0.45142 0
M  V30 2768 H 264.013 -3.96133 -1.43724 0
M  V30 2769 H 262.688 -2.78461 -1.65049 0
M  V30 2770 H 261.595 -3.71089 0.473655 0
M  V30 2771 H 262.928 -4.88484 0.60365 0
M  V30 2772 N 264.58 -0.43555 -1.51462 0
M  V30 2773 C 265.826 0.131709 -2.02372 0
M  V30 2774 C 266.159 1.42516 -1.3192 0
M  V30 2775 O 265.434 1.89606 -0.433573 0
M  V30 2776 C 265.717 0.352301 -3.58373 0
M  V30 2777 C 265.57 -0.959676 -4.39443 0
M  V30 2778 C 266.889 1.12286 -4.25535 0
M  V30 2779 H 264.008 0.0463936 -0.735538 0
M  V30 2780 H 266.65 -0.574197 -1.81116 0
M  V30 2781 H 264.8 0.9536 -3.76615 0
M  V30 2782 H 266.472 -1.59482 -4.32855 0
M  V30 2783 H 264.715 -1.56468 -4.04599 0
M  V30 2784 H 265.386 -0.759394 -5.46752 0
M  V30 2785 H 267.862 0.613545 -4.11552 0
M  V30 2786 H 266.738 1.24598 -5.34571 0
M  V30 2787 H 266.999 2.15048 -3.86273 0
M  V30 2788 N 266.058 1.56714 -0.166846 0
M  V30 2789 C 266.988 2.20754 0.760913 0
M  V30 2790 C 267.969 1.16178 1.24244 0
M  V30 2791 O 269.154 1.44592 1.29641 0
M  V30 2792 C 266.284 2.84478 1.99223 0
M  V30 2793 C 265.238 3.95053 1.64672 0
M  V30 2794 C 264.564 4.45805 2.95232 0
M  V30 2795 C 265.864 5.14865 0.878155 0
M  V30 2796 H 267.558 2.98537 0.22713 0
M  V30 2797 H 265.104 1.43596 0.107805 0
M  V30 2798 H 267.057 3.27951 2.64624 0
M  V30 2799 H 265.781 2.04056 2.55007 0
M  V30 2800 H 264.44 3.52228 1.01641 0
M  V30 2801 H 264.088 3.62181 3.49047 0
M  V30 2802 H 263.788 5.204 2.7287 0
M  V30 2803 H 265.312 4.91962 3.6167 0
M  V30 2804 H 266.726 5.55059 1.43466 0
M  V30 2805 H 265.123 5.95348 0.753738 0
M  V30 2806 H 266.193 4.84735 -0.126377 0
M  V30 2807 N 267.536 -0.106894 1.57237 0
M  V30 2808 C 268.446 -1.14911 2.0453 0
M  V30 2809 C 269.462 -1.44592 0.96795 0
M  V30 2810 O 270.638 -1.55468 1.2803 0
M  V30 2811 C 267.703 -2.45272 2.45036 0
M  V30 2812 C 266.764 -2.22879 3.66911 0
M  V30 2813 C 265.997 -3.47024 4.05475 0
M  V30 2814 O 266.22 -4.54804 3.44252 0
M  V30 2815 O 265.154 -3.3731 4.98504 0
M  V30 2816 H 268.98 -0.777461 2.9358 0
M  V30 2817 H 266.565 -0.318563 1.45964 0
M  V30 2818 H 268.447 -3.22055 2.71769 0
M  V30 2819 H 267.122 -2.81886 1.59129 0
M  V30 2820 H 266.029 -1.43915 3.45311 0
M  V30 2821 H 267.362 -1.91163 4.53561 0
M  V30 2822 N 269.014 -1.53014 -0.377408 0
M  V30 2823 C 270.26 -1.69821 -1.11948 0
M  V30 2824 C 270.615 -0.438581 -1.87335 0
M  V30 2825 O 269.908 0.568094 -1.82984 0
M  V30 2826 C 270.102 -2.87982 -2.11663 0
M  V30 2827 C 269.931 -4.25315 -1.46072 0
M  V30 2828 C 268.701 -4.90354 -1.21986 0
M  V30 2829 C 270.899 -5.06281 -0.904664 0
M  V30 2830 N 268.881 -6.11641 -0.526215 0
M  V30 2831 C 270.252 -6.19069 -0.339726 0
M  V30 2832 C 272.307 -4.91395 -0.8022 0
M  V30 2833 C 271.01 -7.18598 0.317669 0
M  V30 2834 C 273.036 -5.91187 -0.158606 0
M  V30 2835 C 272.398 -7.03289 0.39551 0
M  V30 2836 H 268.497 -0.674785 -0.395207 0
M  V30 2837 H 271.081 -1.90389 -0.407437 0
M  V30 2838 H 269.252 -2.68974 -2.80192 0
M  V30 2839 H 270.984 -2.93669 -2.78461 0
M  V30 2840 H 267.739 -4.49286 -1.49798 0
M  V30 2841 H 268.163 -6.76719 -0.195098 0
M  V30 2842 H 272.805 -4.04925 -1.21639 0
M  V30 2843 H 270.523 -8.04669 0.743836 0
M  V30 2844 H 274.109 -5.81744 -0.0804138 0
M  V30 2845 H 272.989 -7.79183 0.885648 0
M  V30 2846 N 270.492 0.636531 -1.44174 0
M  V30 2847 C 271.908 0.954104 -1.27941 0
M  V30 2848 C 272.108 2.0039 -0.211248 0
M  V30 2849 O 271.164 2.49236 0.404695 0
M  V30 2850 C 272.477 1.4225 -2.64925 0
M  V30 2851 C 274.025 1.53827 -2.72592 0
M  V30 2852 C 274.5 2.04053 -4.10032 0
M  V30 2853 N 275.991 2.11331 -4.12182 0
M  V30 2854 C 276.726 2.51352 -5.15374 0
M  V30 2855 N 276.222 2.90549 -6.2893 0
M  V30 2856 N 278.015 2.51438 -5.02728 0
M  V30 2857 H 270.166 -0.0578386 -2.12321 0
M  V30 2858 H 272.429 0.0367406 -0.947288 0
M  V30 2859 H 272.135 0.725466 -3.44136 0
M  V30 2860 H 272.009 2.39451 -2.9145 0
M  V30 2861 H 274.396 2.22628 -1.93702 0
M  V30 2862 H 274.477 0.550154 -2.49814 0
M  V30 2863 H 274.121 1.35848 -4.89395 0
M  V30 2864 H 274.051 3.03726 -4.30184 0
M  V30 2865 H 276.542 1.83745 -3.30222 0
M  V30 2866 H 276.855 3.19884 -7.03487 0
M  V30 2867 H 275.2 2.88313 -6.32377 0
M  V30 2868 H 278.391 2.20203 -4.13072 0
M  V30 2869 H 278.564 2.82304 -5.83274 0
M  V30 2870 N 271.97 1.30982 0.876444 0
M  V30 2871 C 273.217 1.20296 1.62896 0
M  V30 2872 C 273.545 -0.240395 1.93009 0
M  V30 2873 O 272.8 -1.18733 1.55567 0
M  V30 2874 C 273.099 1.98572 2.9716 0
M  V30 2875 C 272.765 3.48125 2.86566 0
M  V30 2876 C 271.427 3.88905 2.83383 0
M  V30 2877 C 273.779 4.43322 2.74071 0
M  V30 2878 C 271.107 5.2316 2.65556 0
M  V30 2879 C 273.459 5.77695 2.57781 0
M  V30 2880 C 272.123 6.17704 2.52979 0
M  V30 2881 H 271.393 0.440193 0.59608 0
M  V30 2882 H 274.04 1.62177 1.01837 0
M  V30 2883 H 272.345 1.49352 3.62217 0
M  V30 2884 H 274.042 1.8769 3.54364 0
M  V30 2885 H 270.632 3.15723 2.89856 0
M  V30 2886 H 274.816 4.12752 2.75589 0
M  V30 2887 H 270.072 5.53241 2.60259 0
M  V30 2888 H 274.246 6.51091 2.47089 0
M  V30 2889 H 271.873 7.21678 2.38924 0
M  V30 2890 N 273.449 -1.08991 1.13837 0
M  V30 2891 C 274.726 -1.77863 0.813876 0
M  V30 2892 C 275.106 -1.99375 -0.693746 0
M  V30 2893 O 274.454 -1.59875 -1.63255 0
M  V30 2894 C 274.664 -3.0986 1.60586 0
M  V30 2895 C 276.012 -3.84493 1.8014 0
M  V30 2896 O 277.036 -3.19624 1.57222 0
M  V30 2897 O 275.895 -5.00957 2.18413 0
M  V30 2898 H 272.989 -0.771589 0.297624 0
M  V30 2899 H 275.535 -1.15507 1.24323 0
M  V30 2900 H 274.307 -2.89715 2.63022 0
M  V30 2901 H 273.93 -3.79942 1.17173 0
M  V30 2902 N 274.927 -0.932562 -1.27047 0
M  V30 2903 C 276.152 -0.591474 -1.98787 0
M  V30 2904 C 276.577 0.824601 -1.69062 0
M  V30 2905 O 275.935 1.5541 -0.933677 0
M  V30 2906 C 275.983 -0.829808 -3.50922 0
M  V30 2907 O 275.087 0.102266 -4.12273 0
M  V30 2908 H 274.428 -0.227185 -0.623926 0
M  V30 2909 H 276.958 -1.25314 -1.61733 0
M  V30 2910 H 276.968 -0.747292 -4.01098 0
M  V30 2911 H 275.643 -1.86201 -3.7189 0
M  V30 2912 H 274.22 -0.0305761 -3.72887 0
M  V30 2913 N 276.405 1.4127 -0.698611 0
M  V30 2914 C 277.821 1.55241 -0.370462 0
M  V30 2915 C 278.021 1.67351 1.12231 0
M  V30 2916 O 277.077 1.65363 1.90818 0
M  V30 2917 C 278.39 2.78997 -1.12165 0
M  V30 2918 C 279.938 2.92797 -1.1063 0
M  V30 2919 C 280.413 4.19445 -1.8393 0
M  V30 2920 N 281.904 4.26409 -1.80914 0
M  V30 2921 C 282.639 5.23271 -2.34467 0
M  V30 2922 N 282.135 6.26145 -2.96504 0
M  V30 2923 N 283.928 5.15232 -2.24706 0
M  V30 2924 H 276.079 1.31654 -1.66676 0
M  V30 2925 H 278.342 0.635393 -0.703548 0
M  V30 2926 H 278.048 2.76268 -2.17644 0
M  V30 2927 H 277.922 3.70606 -0.702209 0
M  V30 2928 H 280.309 2.95039 -0.0597713 0
M  V30 2929 H 280.39 2.02353 -1.56483 0
M  V30 2930 H 280.034 4.17964 -2.88563 0
M  V30 2931 H 279.964 5.08866 -1.35509 0
M  V30 2932 H 282.455 3.527 -1.35687 0
M  V30 2933 H 282.768 6.96451 -3.34927 0
M  V30 2934 H 281.113 6.26638 -3.00583 0
M  V30 2935 H 284.304 4.33789 -1.7591 0
M  V30 2936 H 284.477 5.90552 -2.66745 0
M  V30 2937 N 277.883 0.443576 1.51229 0
M  V30 2938 C 278.813 -0.355142 2.30783 0
M  V30 2939 C 279.794 -1.0154 1.36468 0
M  V30 2940 O 280.979 -1.01785 1.65389 0
M  V30 2941 C 278.109 -1.45312 3.15439 0
M  V30 2942 C 277.063 -0.916002 4.18083 0
M  V30 2943 C 276.389 -2.1102 4.91299 0
M  V30 2944 C 277.689 0.0538602 5.22272 0
M  V30 2945 H 279.383 0.308767 2.97804 0
M  V30 2946 H 276.929 0.149937 1.43217 0
M  V30 2947 H 278.882 -2.01914 3.69876 0
M  V30 2948 H 277.606 -2.14541 2.46252 0
M  V30 2949 H 276.265 -0.372145 3.64706 0
M  V30 2950 H 275.913 -2.78882 4.18609 0
M  V30 2951 H 275.613 -1.75717 5.60712 0
M  V30 2952 H 277.137 -2.68164 5.48562 0
M  V30 2953 H 278.551 -0.422069 5.71744 0
M  V30 2954 H 276.948 0.319776 5.99247 0
M  V30 2955 H 278.018 0.98858 4.74716 0
M  V30 2956 N 279.361 -1.56624 0.175154 0
M  V30 2957 C 280.324 -2.16934 -0.739738 0
M  V30 2958 C 281.324 -1.11842 -1.15533 0
M  V30 2959 O 282.514 -1.37335 -1.07167 0
M  V30 2960 C 279.646 -2.75531 -2.00738 0
M  V30 2961 H 280.839 -2.99131 -0.214639 0
M  V30 2962 H 278.392 -1.56123 -0.0744197 0
M  V30 2963 H 279.127 -1.97078 -2.57548 0
M  V30 2964 H 278.912 -3.52444 -1.71831 0
M  V30 2965 H 280.402 -3.21904 -2.66021 0
M  V30 2966 N 280.839 0.0985539 -1.57292 0
M  V30 2967 C 282.086 0.802678 -1.85912 0
M  V30 2968 C 282.414 1.78901 -0.763186 0
M  V30 2969 O 281.669 1.94178 0.243559 0
M  V30 2970 C 281.968 1.56927 -3.21105 0
M  V30 2971 C 281.634 0.725376 -4.45027 0
M  V30 2972 C 280.296 0.492726 -4.78671 0
M  V30 2973 C 282.648 0.138493 -5.21016 0
M  V30 2974 C 279.976 -0.336727 -5.85733 0
M  V30 2975 C 282.328 -0.678264 -6.28953 0
M  V30 2976 C 280.992 -0.921039 -6.61115 0
M  V30 2977 H 280.262 0.293721 -0.680301 0
M  V30 2978 H 282.909 0.0642841 -1.91392 0
M  V30 2979 H 281.214 2.37914 -3.11294 0
M  V30 2980 H 282.911 2.11841 -3.40477 0
M  V30 2981 H 279.501 0.916815 -4.18679 0
M  V30 2982 H 283.685 0.305404 -4.95359 0
M  V30 2983 H 278.941 -0.533836 -6.09065 0
M  V30 2984 H 283.115 -1.1399 -6.87007 0
M  V30 2985 H 280.742 -1.56556 -7.43905 0
M  V30 2986 N 282.317 1.53212 0.369288 0
M  V30 2987 C 283.267 1.75769 1.45222 0
M  V30 2988 C 284.251 0.612136 1.48801 0
M  V30 2989 O 285.443 0.870674 1.54105 0
M  V30 2990 C 282.572 1.94769 2.82701 0
M  V30 2991 C 281.658 3.15315 2.83615 0
M  V30 2992 N 282.049 4.37295 2.54178 0
M  V30 2993 C 280.347 3.15962 3.14776 0
M  V30 2994 C 281.048 5.19015 2.62675 0
M  V30 2995 N 280.024 4.55142 2.97232 0
M  V30 2996 H 283.826 2.67691 1.2132 0
M  V30 2997 H 281.34 1.51787 0.577438 0
M  V30 2998 H 283.337 2.09056 3.60696 0
M  V30 2999 H 281.997 1.04073 3.07569 0
M  V30 3000 H 283.008 4.65091 2.27839 0
M  V30 3001 H 279.685 2.35144 3.44983 0
M  V30 3002 H 281.075 6.26305 2.43294 0
M  V30 3003 N 283.795 -0.628877 1.44509 0
M  V30 3004 C 284.745 -1.7345 1.47983 0
M  V30 3005 C 285.729 -1.5715 0.345373 0
M  V30 3006 O 286.921 -1.66848 0.590829 0
M  V30 3007 C 284.05 -3.12143 1.42904 0
M  V30 3008 C 283.136 -3.33906 2.61472 0
M  V30 3009 N 283.527 -3.26024 3.86706 0
M  V30 3010 C 281.825 -3.64709 2.56716 0
M  V30 3011 C 282.526 -3.48536 4.65722 0
M  V30 3012 N 281.502 -3.71517 3.96832 0
M  V30 3013 H 285.304 -1.65818 2.42655 0
M  V30 3014 H 282.818 -0.831419 1.39503 0
M  V30 3015 H 284.815 -3.91433 1.43476 0
M  V30 3016 H 283.475 -3.2094 0.492717 0
M  V30 3017 H 284.486 -3.04893 4.18641 0
M  V30 3018 H 281.163 -3.80473 1.71891 0
M  V30 3019 H 282.553 -3.48016 5.74747 0
M  V30 3020 N 285.273 -1.31445 -0.869486 0
M  V30 3021 C 286.519 -1.21337 -1.62496 0
M  V30 3022 C 286.852 0.227872 -1.92858 0
M  V30 3023 O 286.127 1.16094 -1.56053 0
M  V30 3024 C 286.41 -2.05814 -2.95487 0
M  V30 3025 C 286.263 -3.5824 -2.72 0
M  V30 3026 C 287.582 -1.9079 -3.96594 0
M  V30 3027 H 284.701 -0.442135 -0.589649 0
M  V30 3028 H 287.343 -1.6124 -1.00507 0
M  V30 3029 H 285.493 -1.71913 -3.48394 0
M  V30 3030 H 287.165 -4.0228 -2.25762 0
M  V30 3031 H 285.408 -3.81647 -2.06224 0
M  V30 3032 H 286.079 -4.12657 -3.66631 0
M  V30 3033 H 288.555 -2.20459 -3.52898 0
M  V30 3034 H 287.431 -2.52199 -4.87531 0
M  V30 3035 H 287.692 -0.871341 -4.33428 0
M  V30 3036 N 286.751 1.08385 -1.14413 0
M  V30 3037 C 287.714 2.13486 -0.834048 0
M  V30 3038 C 288.714 1.59988 0.161418 0
M  V30 3039 O 289.904 1.74071 -0.0669575 0
M  V30 3040 C 287.036 3.4003 -0.243354 0
M  V30 3041 H 288.229 2.42425 -1.7655 0
M  V30 3042 H 285.782 1.24101 -0.950189 0
M  V30 3043 H 286.517 3.16726 0.696807 0
M  V30 3044 H 286.302 3.80157 -0.960367 0
M  V30 3045 H 287.792 4.17577 -0.0436242 0
M  V30 3046 N 288.23 0.939286 1.26551 0
M  V30 3047 C 289.646 0.641304 1.46149 0
M  V30 3048 C 289.846 -0.805964 1.84679 0
M  V30 3049 O 288.902 -1.58278 1.96734 0
M  V30 3050 C 290.215 1.6011 2.54529 0
M  V30 3051 C 291.763 1.6106 2.68382 0
M  V30 3052 C 292.238 2.55765 3.79932 0
M  V30 3053 N 293.729 2.5404 3.87322 0
M  V30 3054 C 294.464 3.24004 4.73085 0
M  V30 3055 N 293.96 4.03388 5.63249 0
M  V30 3056 N 295.753 3.12965 4.66914 0
M  V30 3057 H 287.904 1.87478 0.998285 0
M  V30 3058 H 290.167 0.805559 0.499779 0
M  V30 3059 H 289.873 2.63412 2.33039 0
M  V30 3060 H 289.747 1.35171 3.52149 0
M  V30 3061 H 292.134 0.584835 2.89247 0
M  V30 3062 H 292.215 1.90053 1.71212 0
M  V30 3063 H 291.859 3.58458 3.5982 0
M  V30 3064 H 291.789 2.24063 4.76554 0
M  V30 3065 H 294.28 1.96396 3.22858 0
M  V30 3066 H 294.593 4.5373 6.25579 0
M  V30 3067 H 292.938 4.07489 5.63008 0
M  V30 3068 H 296.129 2.50432 3.95476 0
M  V30 3069 H 296.302 3.67759 5.33533 0
M  V30 3070 N 289.708 -1.40897 0.706093 0
M  V30 3071 C 290.618 -2.3455 0.0482286 0
M  V30 3072 C 291.634 -1.56796 -0.754396 0
M  V30 3073 O 292.81 -1.89228 -0.689538 0
M  V30 3074 C 289.875 -3.35625 -0.869303 0
M  V30 3075 C 288.936 -4.29261 -0.0576994 0
M  V30 3076 C 288.169 -5.25508 -0.931531 0
M  V30 3077 O 288.392 -5.27472 -2.17092 0
M  V30 3078 O 287.326 -6.00727 -0.375587 0
M  V30 3079 H 291.152 -2.92407 0.820476 0
M  V30 3080 H 288.737 -1.4193 0.4665 0
M  V30 3081 H 290.619 -3.97635 -1.39514 0
M  V30 3082 H 289.294 -2.80196 -1.62086 0
M  V30 3083 H 288.201 -3.70566 0.512988 0
M  V30 3084 H 289.534 -4.87817 0.655426 0
M  V30 3085 N 291.186 -0.45159 -1.50991 0
M  V30 3086 C 292.116 0.342898 -2.30969 0
M  V30 3087 C 293.097 1.00815 -1.37005 0
M  V30 3088 O 294.282 1.00907 -1.65926 0
M  V30 3089 C 291.412 1.43637 -3.16205 0
M  V30 3090 C 290.366 0.893818 -4.18563 0
M  V30 3091 C 289.692 2.08411 -4.92411 0
M  V30 3092 C 290.992 -0.0815568 -5.22236 0
M  V30 3093 H 292.686 -0.324556 -2.97636 0
M  V30 3094 H 290.232 -0.157531 -1.43136 0
M  V30 3095 H 292.185 1.9995 -3.70942 0
M  V30 3096 H 290.909 2.13232 -2.47386 0
M  V30 3097 H 289.568 0.352798 -3.64898 0
M  V30 3098 H 289.216 2.76658 -4.20082 0
M  V30 3099 H 288.916 1.72741 -5.61636 0
M  V30 3100 H 290.44 2.65251 -5.49976 0
M  V30 3101 H 291.854 0.391742 -5.7196 0
M  V30 3102 H 290.251 -0.351551 -5.99069 0
M  V30 3103 H 291.321 -1.01374 -4.74185 0
M  V30 3104 N 292.664 1.56529 -0.183458 0
M  V30 3105 C 293.614 2.1515 0.754605 0
M  V30 3106 C 294.598 1.08904 1.18443 0
M  V30 3107 O 295.79 1.34997 1.14476 0
M  V30 3108 C 292.919 2.80531 1.97881 0
M  V30 3109 C 292.005 3.93952 1.57043 0
M  V30 3110 N 292.396 4.98221 0.87231 0
M  V30 3111 C 290.694 4.05338 1.86057 0
M  V30 3112 C 291.395 5.77836 0.669377 0
M  V30 3113 N 290.371 5.29858 1.21454 0
M  V30 3114 H 294.173 2.93132 0.212387 0
M  V30 3115 H 291.687 1.62391 0.0167725 0
M  V30 3116 H 293.684 3.20914 2.6612 0
M  V30 3117 H 292.344 2.04035 2.52586 0
M  V30 3118 H 293.355 5.15191 0.529033 0
M  V30 3119 H 290.032 3.39957 2.42354 0
M  V30 3120 H 291.422 6.71799 0.116422 0
M  V30 3121 N 294.142 -0.090211 1.57342 0
M  V30 3122 C 295.553 -0.644173 1.75235 0
M  V30 3123 C 295.904 -1.78865 0.806335 0
M  V30 3124 O 295.029 -2.16395 -0.0140128 0
M  V30 3125 C 295.624 -1.17532 3.1776 0
M  V30 3126 C 294.183 -1.67531 3.37061 0
M  V30 3127 C 293.33 -0.58693 2.71017 0
M  V30 3128 H 296.281 0.135884 1.58117 0
M  V30 3129 H 296.302 -2.04455 3.20902 0
M  V30 3130 H 295.814 -0.342138 3.86589 0
M  V30 3131 H 293.915 -2.53234 2.73319 0
M  V30 3132 H 294.028 -1.76493 4.45406 0
M  V30 3133 H 292.392 -1.02756 2.33052 0
M  V30 3134 H 293.175 0.235758 3.4249 0
M  V30 3135 N 295.62 -1.53406 -0.361157 0
M  V30 3136 C 296.53 -1.83122 -1.4664 0
M  V30 3137 C 297.546 -0.719943 -1.58407 0
M  V30 3138 O 298.722 -1.01046 -1.74218 0
M  V30 3139 C 295.787 -2.01891 -2.81853 0
M  V30 3140 C 294.848 -3.25784 -2.79577 0
M  V30 3141 C 294.081 -3.43648 -4.0834 0
M  V30 3142 O 294.304 -2.65714 -5.0473 0
M  V30 3143 O 293.238 -4.37018 -4.13883 0
M  V30 3144 H 297.064 -2.7703 -1.24451 0
M  V30 3145 H 294.649 -1.38841 -0.551678 0
M  V30 3146 H 296.531 -2.15782 -3.61962 0
M  V30 3147 H 295.206 -1.11173 -3.0401 0
M  V30 3148 H 294.113 -3.17312 -1.98151 0
M  V30 3149 H 295.446 -4.16439 -2.62373 0
M  V30 3150 N 297.098 0.621204 -1.44841 0
M  V30 3151 C 298.328 1.40548 -1.51426 0
M  V30 3152 C 298.736 1.88673 -0.141083 0
M  V30 3153 O 298.079 1.62053 0.865128 0
M  V30 3154 C 298.141 2.65325 -2.42576 0
M  V30 3155 C 297.805 2.3893 -3.89566 0
M  V30 3156 C 298.802 2.00138 -4.79834 0
M  V30 3157 C 296.487 2.52263 -4.3436 0
M  V30 3158 C 298.481 1.75021 -6.129 0
M  V30 3159 C 296.168 2.2676 -5.67471 0
M  V30 3160 C 297.166 1.88199 -6.56559 0
M  V30 3161 O 296.854 1.62986 -7.87204 0
M  V30 3162 H 296.586 0.437122 -0.515655 0
M  V30 3163 H 299.14 0.765987 -1.90583 0
M  V30 3164 H 297.37 3.31947 -1.98364 0
M  V30 3165 H 299.059 3.27347 -2.39998 0
M  V30 3166 H 299.825 1.89386 -4.46495 0
M  V30 3167 H 295.704 2.81246 -3.65269 0
M  V30 3168 H 299.248 1.44848 -6.82396 0
M  V30 3169 H 295.145 2.37125 -6.00368 0
M  V30 3170 H 295.913 1.7715 -7.991 0
M  V30 3171 N 298.576 1.31904 0.862503 0
M  V30 3172 C 299.823 1.22017 1.61611 0
M  V30 3173 C 300.151 -0.21991 1.93253 0
M  V30 3174 O 299.406 -1.17076 1.56817 0
M  V30 3175 C 299.705 2.01713 2.95037 0
M  V30 3176 C 299.371 3.51145 2.82857 0
M  V30 3177 C 298.033 3.91889 2.79243 0
M  V30 3178 C 300.385 4.46204 2.69353 0
M  V30 3179 C 297.713 5.25947 2.59993 0
M  V30 3180 C 300.065 5.80397 2.5164 0
M  V30 3181 C 298.729 6.20352 2.46413 0
M  V30 3182 H 297.999 0.44649 0.591378 0
M  V30 3183 H 300.646 1.63248 1.00111 0
M  V30 3184 H 298.951 1.53185 3.60613 0
M  V30 3185 H 300.648 1.91437 3.52353 0
M  V30 3186 H 297.238 3.1878 2.86491 0
M  V30 3187 H 301.422 4.15652 2.71196 0
M  V30 3188 H 296.678 5.5597 2.54376 0
M  V30 3189 H 300.852 6.53676 2.40169 0
M  V30 3190 H 298.479 7.24172 2.31256 0
M  V30 3191 N 300.054 -1.07777 1.14986 0
M  V30 3192 C 301.001 -2.14867 0.842672 0
M  V30 3193 C 301.971 -1.6486 -0.202552 0
M  V30 3194 O 303.156 -1.90668 -0.0710568 0
M  V30 3195 C 300.296 -3.43486 0.333363 0
M  V30 3196 C 299.409 -4.07306 1.43965 0
M  V30 3197 C 298.544 -5.23744 0.886914 0
M  V30 3198 C 297.583 -5.79517 1.97043 0
M  V30 3199 N 296.72 -6.87291 1.4344 0
M  V30 3200 H 301.56 -2.40485 1.75986 0
M  V30 3201 H 299.097 -1.1801 0.878179 0
M  V30 3202 H 301.055 -4.17195 0.0198163 0
M  V30 3203 H 299.685 -3.18133 -0.546916 0
M  V30 3204 H 298.737 -3.31293 1.86946 0
M  V30 3205 H 300.049 -4.44771 2.25788 0
M  V30 3206 H 299.203 -6.04419 0.525651 0
M  V30 3207 H 297.942 -4.87685 0.0377957 0
M  V30 3208 H 296.947 -4.97491 2.34057 0
M  V30 3209 H 298.172 -6.17632 2.82325 0
M  V30 3210 H 296.118 -6.5318 0.607567 0
M  V30 3211 H 296.035 -7.23617 2.18895 0
M  V30 3212 H 297.303 -7.71682 1.10124 0
M  V30 3213 N 301.532 -0.945985 -1.26051 0
M  V30 3214 C 302.48 -0.450259 -2.282 0
M  V30 3215 C 303.474 0.47497 -1.62605 0
M  V30 3216 O 304.68 0.352653 -1.76512 0
M  V30 3217 H 301.055 -0.127081 -0.741184 0
M  V30 3218 H 303.026 -1.32422 -2.67408 0
M  V30 3219 C 301.775 0.26467 -3.46691 0
M  V30 3220 H 301.098 -0.438123 -3.97392 0
M  V30 3221 H 302.538 0.575678 -4.20074 0
M  V30 3222 C 300.997 1.48416 -3.02447 0
M  V30 3223 O 301.527 2.58227 -3.07704 0
M  V30 3224 N 299.733 1.34243 -2.57735 0
M  V30 3225 H 299.28 0.448994 -2.53657 0
M  V30 3226 H 299.238 2.15957 -2.28495 0
M  V30 3227 N 303.011 1.40521 -0.713556 0
M  V30 3228 C 304.251 2.02783 -0.256584 0
M  V30 3229 C 304.615 1.55352 1.12827 0
M  V30 3230 O 305.816 2.09663 1.68211 0
M  V30 3231 C 304.087 3.5586 -0.331414 0
M  V30 3232 S 305.646 4.38773 0.0488703 0
M  V30 3233 H 302.464 0.703655 -0.101934 0
M  V30 3234 H 305.066 1.71674 -0.935325 0
M  V30 3235 H 303.77 3.87874 -1.34098 0
M  V30 3236 H 303.301 3.91695 0.365873 0
M  V30 3237 H 305.316 4.79633 1.2715 0
M  V30 3238 O 304.528 0.601524 1.4988 0
M  V30 3239 H 305.219 0.111623 1.93378 0
M  V30 END ATOM
M  V30 BEGIN BOND
M  V30 END BOND
M  V30 END CTAB
M  END
$$$$
