drugbank_target|Q9BZX2 Uridine-cytidine kinase 2 (DB02097; DB02431; DB03403; DB04005)
 OpenBabel12092119553D

  0  0  0     0  0            999 V3000
M  V30 BEGIN CTAB
M  V30 COUNTS 4125 4161 0 0 0
M  V30 BEGIN ATOM
M  V30 1 H -0.908 1.98254 -0.117106 0
M  V30 2 N 0 1.576 0 0
M  V30 3 C 0.933 2.03868 1.02534 0
M  V30 4 C 1.911 0.928543 1.3348 0
M  V30 5 O 3.095 1.19667 1.45644 0
M  V30 6 C 0.222 2.43627 2.35294 0
M  V30 7 C -0.732 3.65373 2.2001 0
M  V30 8 S 0.101 5.13292 1.52614 0
M  V30 9 C 1.257 5.56322 2.86805 0
M  V30 10 H 1.49 2.90518 0.631377 0
M  V30 11 H -0.977 1.52953 0.210867 0
M  V30 12 H 0.981 2.67203 3.11629 0
M  V30 13 H -0.358 1.57376 2.7183 0
M  V30 14 H -1.165 3.90944 3.18086 0
M  V30 15 H -1.563 3.418 1.51819 0
M  V30 16 H 0.729 5.58782 3.83104 0
M  V30 17 H 1.672 6.56266 2.65933 0
M  V30 18 H 2.08 4.83886 2.90714 0
M  V30 19 N 1.4781 -0.272755 1.55222 0
M  V30 20 C 2.4411 -1.32041 1.87344 0
M  V30 21 C 3.4411 -1.42342 0.74803 0
M  V30 22 O 4.6311 -1.41488 1.0162 0
M  V30 23 C 1.7631 -2.70173 2.07893 0
M  V30 24 H 2.9561 -1.04789 2.80997 0
M  V30 25 H 0.5091 -0.51083 1.47717 0
M  V30 26 H 1.2441 -3.02605 1.16622 0
M  V30 27 H 1.0291 -2.64082 2.89833 0
M  V30 28 H 2.5191 -3.45869 2.34017 0
M  V30 29 N 2.9562 -1.48159 -0.537278 0
M  V30 30 C 4.2042 -1.55497 -1.29094 0
M  V30 31 C 4.5252 -0.227454 -1.93669 0
M  V30 32 O 3.7952 0.750386 -1.80959 0
M  V30 33 H 2.3752 -0.572832 -0.47945 0
M  V30 34 H 5.0372 -1.84579 -0.625818 0
M  V30 35 H 4.1332 -2.33216 -2.07405 0
M  V30 36 N 4.4343 0.785586 -1.36625 0
M  V30 37 C 5.7113 1.53198 -1.21613 0
M  V30 38 C 6.0913 2.10187 0.196113 0
M  V30 39 O 5.4393 1.94318 1.20219 0
M  V30 40 C 5.6493 2.62388 -2.30116 0
M  V30 41 C 6.9973 3.30167 -2.66974 0
M  V30 42 O 8.0213 2.72674 -2.29188 0
M  V30 43 O 6.8803 4.34077 -3.32023 0
M  V30 44 H 3.9743 0.677865 -0.473738 0
M  V30 45 H 6.5203 0.823739 -1.48367 0
M  V30 46 H 5.2923 2.18299 -3.24748 0
M  V30 47 H 4.9153 3.40827 -2.0475 0
M  V30 48 N 5.9124 1.20967 1.01018 0
M  V30 49 C 7.1374 1.0503 1.78839 0
M  V30 50 C 7.5624 -0.395752 1.8389 0
M  V30 51 O 6.9204 -1.28529 1.27867 0
M  V30 52 C 6.9684 1.64602 3.2084 0
M  V30 53 O 6.0724 0.887988 4.02726 0
M  V30 54 H 5.4134 0.369987 0.551367 0
M  V30 55 H 7.9434 1.60399 1.27018 0
M  V30 56 H 7.9534 1.68607 3.71532 0
M  V30 57 H 6.6284 2.69841 3.16479 0
M  V30 58 H 5.2054 0.922648 3.61305 0
M  V30 59 N 7.3905 -1.2043 1.01659 0
M  V30 60 C 8.3005 -2.2689 0.596484 0
M  V30 61 C 9.3165 -1.70107 -0.36599 0
M  V30 62 O 10.4925 -2.00117 -0.226942 0
M  V30 63 C 7.5575 -3.4665 -0.0586659 0
M  V30 64 C 6.6185 -4.18662 0.949751 0
M  V30 65 C 5.8515 -5.32705 0.32577 0
M  V30 66 O 6.0745 -5.63656 -0.874509 0
M  V30 67 O 5.0085 -5.92803 1.04249 0
M  V30 68 H 8.8345 -2.65041 1.4828 0
M  V30 69 H 6.4195 -1.27048 0.786082 0
M  V30 70 H 8.3015 -4.19256 -0.424564 0
M  V30 71 H 6.9765 -3.10375 -0.91918 0
M  V30 72 H 5.8835 -3.48229 1.36702 0
M  V30 73 H 7.2165 -4.58878 1.78023 0
M  V30 74 N 8.8686 -0.792821 -1.36206 0
M  V30 75 C 9.8006 -0.151469 -2.28699 0
M  V30 76 C 10.8136 0.641262 -1.49638 0
M  V30 77 O 12.0026 0.475885 -1.72039 0
M  V30 78 C 9.1026 0.808424 -3.29117 0
M  V30 79 C 8.2756 0.0650202 -4.37352 0
M  V30 80 C 7.3346 0.941358 -5.17711 0
M  V30 81 O 6.3606 0.397352 -5.67811 0
M  V30 82 N 7.5626 2.2652 -5.3448 0
M  V30 83 H 10.3276 -0.945982 -2.84379 0
M  V30 84 H 7.8886 -0.647032 -1.48409 0
M  V30 85 H 9.8806 1.3986 -3.79765 0
M  V30 86 H 8.4506 1.5038 -2.74052 0
M  V30 87 H 7.6706 -0.706255 -3.87822 0
M  V30 88 H 8.9586 -0.447847 -5.06825 0
M  V30 89 H 8.3566 2.73128 -4.95396 0
M  V30 90 H 6.9136 2.80493 -5.88359 0
M  V30 91 N 10.3467 1.47872 -0.545128 0
M  V30 92 C 11.5747 2.06889 -0.021084 0
M  V30 93 C 11.9897 1.39955 1.2672 0
M  V30 94 O 11.3467 0.492036 1.75742 0
M  V30 95 C 11.3977 3.60996 0.190817 0
M  V30 96 O 11.1187 4.25419 -1.04644 0
M  V30 97 C 12.6197 4.36849 0.753521 0
M  V30 98 H 9.8397 0.669785 -0.0403635 0
M  V30 99 H 12.3837 1.90049 -0.755095 0
M  V30 100 H 10.5387 3.77391 0.87492 0
M  V30 101 H 10.9527 5.17785 -0.836611 0
M  V30 102 H 12.4267 5.45399 0.851139 0
M  V30 103 H 12.9037 4.02306 1.762 0
M  V30 104 H 13.5097 4.25169 0.105503 0
M  V30 105 N 11.8248 0.280983 1.55075 0
M  V30 106 C 12.7548 -0.597469 2.25727 0
M  V30 107 C 13.7358 -1.15417 1.24952 0
M  V30 108 O 14.9208 -1.18722 1.53684 0
M  V30 109 C 12.0508 -1.7789 2.98283 0
M  V30 110 C 11.0048 -1.35347 4.06036 0
M  V30 111 C 10.3308 -2.61846 4.66198 0
M  V30 112 C 11.6308 -0.499354 5.19907 0
M  V30 113 H 13.3248 -0.00824265 2.99399 0
M  V30 114 H 10.8708 -0.0025244 1.44 0
M  V30 115 H 12.8238 -2.39937 3.46422 0
M  V30 116 H 11.5478 -2.39405 2.22155 0
M  V30 117 H 10.2068 -0.756156 3.58717 0
M  V30 118 H 9.8548 -3.21632 3.86732 0
M  V30 119 H 9.5548 -2.3409 5.38958 0
M  V30 120 H 11.0788 -3.24732 5.1709 0
M  V30 121 H 12.4928 -1.02498 5.64063 0
M  V30 122 H 10.8898 -0.316424 5.99265 0
M  V30 123 H 11.9598 0.480459 4.82514 0
M  V30 124 N 13.3029 -1.57598 0.00835791 0
M  V30 125 C 14.2349 -2.05811 -1.00868 0
M  V30 126 C 15.2479 -0.977579 -1.30182 0
M  V30 127 O 16.4369 -1.25421 -1.27011 0
M  V30 128 C 13.5369 -2.45016 -2.34137 0
M  V30 129 C 12.7099 -3.75903 -2.23643 0
M  V30 130 C 11.7689 -4.01884 -3.3967 0
M  V30 131 O 10.7949 -4.72433 -3.17483 0
M  V30 132 N 11.9969 -3.50432 -4.62793 0
M  V30 133 H 14.7619 -2.93684 -0.597458 0
M  V30 134 H 12.3229 -1.60909 -0.178852 0
M  V30 135 H 14.3149 -2.59506 -3.10546 0
M  V30 136 H 12.8849 -1.62618 -2.66972 0
M  V30 137 H 12.1049 -3.7141 -1.32091 0
M  V30 138 H 13.3929 -4.61695 -2.13812 0
M  V30 139 H 12.7909 -2.93317 -4.83716 0
M  V30 140 H 11.3479 -3.70236 -5.3644 0
M  V30 141 N 14.781 0.264519 -1.55364 0
M  V30 142 C 15.729 1.34702 -1.89626 0
M  V30 143 C 16.723 1.50712 -0.773459 0
M  V30 144 O 17.929 1.52395 -0.957897 0
M  V30 145 H 14.304 0.450682 -0.601988 0
M  V30 146 H 16.275 1.0306 -2.80038 0
M  V30 147 C 15.024 2.6989 -2.19214 0
M  V30 148 H 14.347 2.58365 -3.05103 0
M  V30 149 H 15.787 3.44553 -2.47102 0
M  V30 150 C 14.246 3.21637 -1.00254 0
M  V30 151 O 14.776 4.00973 -0.241501 0
M  V30 152 N 12.982 2.7943 -0.797938 0
M  V30 153 H 12.529 2.15026 -1.4185 0
M  V30 154 H 12.487 3.144 -0.00363422 0
M  V30 155 N 16.2591 1.48442 0.529413 0
M  V30 156 C 17.2091 1.59407 1.63014 0
M  V30 157 C 18.1931 0.451166 1.54445 0
M  V30 158 O 19.3851 0.702635 1.62456 0
M  V30 159 C 16.5141 1.63746 3.01732 0
M  V30 160 C 15.6001 2.83518 3.15402 0
M  V30 161 N 15.9911 4.07929 2.99045 0
M  V30 162 C 14.2891 2.80862 3.46457 0
M  V30 163 C 14.9901 4.8829 3.16146 0
M  V30 164 N 13.9661 4.21117 3.43746 0
M  V30 165 H 17.7681 2.53343 1.48978 0
M  V30 166 H 15.2821 1.44821 0.734885 0
M  V30 167 H 17.2791 1.69695 3.80801 0
M  V30 168 H 15.9391 0.709264 3.16859 0
M  V30 169 H 16.9501 4.38357 2.75796 0
M  V30 170 H 13.6271 1.97301 3.67938 0
M  V30 171 H 15.0171 5.97028 3.08232 0
M  V30 172 N 17.7372 -0.778329 1.37039 0
M  V30 173 C 18.6692 -1.90034 1.2814 0
M  V30 174 C 19.6822 -1.61585 0.198558 0
M  V30 175 O 20.8712 -1.72625 0.454175 0
M  V30 176 C 17.9712 -3.25108 0.956968 0
M  V30 177 C 17.1442 -3.81253 2.14394 0
M  V30 178 C 16.2032 -4.94789 1.79082 0
M  V30 179 O 15.2292 -5.10721 2.51301 0
M  V30 180 N 16.4312 -5.75878 0.731043 0
M  V30 181 H 19.1962 -1.98186 2.24816 0
M  V30 182 H 16.7572 -0.957129 1.30578 0
M  V30 183 H 18.7492 -3.9857 0.701701 0
M  V30 184 H 17.3192 -3.125 0.0789812 0
M  V30 185 H 16.5392 -2.99647 2.56135 0
M  V30 186 H 17.8272 -4.15495 2.93668 0
M  V30 187 H 17.2252 -5.65547 0.131618 0
M  V30 188 H 15.7822 -6.49596 0.535622 0
M  V30 189 N 19.2153 -1.21501 -1.00376 0
M  V30 190 C 20.1473 -0.933174 -2.09343 0
M  V30 191 C 21.1603 0.0840896 -1.62583 0
M  V30 192 O 22.3493 -0.148563 -1.77881 0
M  V30 193 C 19.4493 -0.379869 -3.36764 0
M  V30 194 C 18.6223 -1.45176 -4.12605 0
M  V30 195 C 17.6813 -0.907476 -5.18316 0
M  V30 196 O 16.7073 -1.5912 -5.46507 0
M  V30 197 N 17.9093 0.276649 -5.7984 0
M  V30 198 H 20.6743 -1.87124 -2.34104 0
M  V30 199 H 18.2353 -1.12043 -1.16867 0
M  V30 200 H 20.2273 -0.00131488 -4.047 0
M  V30 201 H 18.7973 0.463048 -3.09151 0
M  V30 202 H 18.0173 -2.00411 -3.39454 0
M  V30 203 H 19.3053 -2.17328 -4.6005 0
M  V30 204 H 18.7033 0.849147 -5.59291 0
M  V30 205 H 17.2603 0.596702 -6.49063 0
M  V30 206 N 20.6934 1.19889 -1.02296 0
M  V30 207 C 22.1044 1.71124 -0.746568 0
M  V30 208 C 22.4554 1.81939 0.734335 0
M  V30 209 O 21.5804 1.48639 1.57275 0
M  V30 210 C 22.1754 3.10804 -1.34857 0
M  V30 211 C 20.7344 3.59323 -1.1209 0
M  V30 212 C 19.8814 2.3635 -1.45031 0
M  V30 213 H 22.8324 1.04813 -1.19163 0
M  V30 214 H 22.8534 3.73186 -0.742437 0
M  V30 215 H 22.3654 3.029 -2.42638 0
M  V30 216 H 20.4664 3.7255 -0.0610337 0
M  V30 217 H 20.5794 4.4378 -1.80544 0
M  V30 218 H 18.9434 2.39399 -0.869487 0
M  V30 219 H 19.7264 2.31081 -2.53883 0
M  V30 220 N 22.1715 0.800033 1.35784 0
M  V30 221 C 23.1195 0.193851 2.31791 0
M  V30 222 C 24.1135 -0.652744 1.56319 0
M  V30 223 O 25.3195 -0.546641 1.71499 0
M  V30 224 H 21.6945 0.04392 0.750716 0
M  V30 225 H 23.6655 1.01883 2.80468 0
M  V30 226 C 22.4145 -0.648338 3.41602 0
M  V30 227 H 21.7375 -0.00624665 3.998 0
M  V30 228 H 23.1775 -1.03898 4.11073 0
M  V30 229 C 21.6365 -1.8111 2.84079 0
M  V30 230 O 22.1665 -2.90825 2.77099 0
M  V30 231 N 20.3725 -1.62056 2.41218 0
M  V30 232 H 19.9195 -0.728123 2.47095 0
M  V30 233 H 19.8775 -2.40013 2.03079 0
M  V30 234 N 23.6496 -1.47581 0.552962 0
M  V30 235 C 24.8976 -2.02082 0.0272703 0
M  V30 236 C 25.2186 -1.4301 -1.32563 0
M  V30 237 O 24.4886 -0.603745 -1.86365 0
M  V30 238 H 23.0686 -0.746966 0.00709182 0
M  V30 239 H 25.7306 -1.81033 0.722008 0
M  V30 240 H 24.8266 -3.12034 -0.0639951 0
M  V30 241 N 25.1277 -0.289203 -1.54924 0
M  V30 242 C 26.3757 0.322879 -1.99504 0
M  V30 243 C 26.6967 1.55313 -1.1791 0
M  V30 244 O 25.9667 1.94001 -0.272097 0
M  V30 245 H 24.5467 0.122291 -0.736922 0
M  V30 246 H 27.2087 -0.397802 -1.90797 0
M  V30 247 H 26.3047 0.603061 -3.06218 0
M  V30 248 N 26.6058 1.57591 -0.0167156 0
M  V30 249 C 27.5158 2.1291 0.98521 0
M  V30 250 C 28.5318 1.07834 1.36557 0
M  V30 251 O 29.7078 1.39826 1.44951 0
M  V30 252 C 26.7728 2.63512 2.25305 0
M  V30 253 C 25.8338 3.83256 1.93426 0
M  V30 254 C 25.0668 4.31435 3.14165 0
M  V30 255 O 25.2898 3.78851 4.26413 0
M  V30 256 O 24.2238 5.23416 2.97186 0
M  V30 257 H 28.0498 2.98772 0.544888 0
M  V30 258 H 25.6348 1.48012 0.203141 0
M  V30 259 H 27.5168 2.96183 2.99756 0
M  V30 260 H 26.1918 1.8074 2.68542 0
M  V30 261 H 25.0988 3.55531 1.16398 0
M  V30 262 H 26.4318 4.67153 1.55013 0
M  V30 263 N 28.0839 -0.256276 1.55502 0
M  V30 264 C 29.4949 -0.826068 1.67431 0
M  V30 265 C 29.8459 -1.86396 0.612446 0
M  V30 266 O 28.9709 -2.15031 -0.243025 0
M  V30 267 C 29.5659 -1.50512 3.03532 0
M  V30 268 C 28.1249 -2.02273 3.17431 0
M  V30 269 C 27.2719 -0.870548 2.63281 0
M  V30 270 H 30.2229 -0.0322728 1.58667 0
M  V30 271 H 30.2439 -2.37279 2.97454 0
M  V30 272 H 29.7559 -0.749484 3.80794 0
M  V30 273 H 27.8569 -2.80746 2.44974 0
M  V30 274 H 27.9699 -2.22655 4.24219 0
M  V30 275 H 26.3339 -1.26851 2.20864 0
M  V30 276 H 27.1169 -0.128149 3.43061 0
M  V30 277 N 29.562 -1.4872 -0.521534 0
M  V30 278 C 30.809 -1.57168 -1.27689 0
M  V30 279 C 31.137 -0.249275 -1.92896 0
M  V30 280 O 30.392 0.761162 -1.80291 0
M  V30 281 C 30.691 -2.66497 -2.38148 0
M  V30 282 C 30.357 -4.08664 -1.90538 0
M  V30 283 C 29.019 -4.47357 -1.77271 0
M  V30 284 C 31.371 -4.97724 -1.54663 0
M  V30 285 C 28.699 -5.72905 -1.26478 0
M  V30 286 C 31.051 -6.2377 -1.05329 0
M  V30 287 C 29.715 -6.61311 -0.906861 0
M  V30 288 H 28.985 -0.575117 -0.467249 0
M  V30 289 H 31.632 -1.82472 -0.581051 0
M  V30 290 H 29.937 -2.35085 -3.13437 0
M  V30 291 H 31.634 -2.70246 -2.96257 0
M  V30 292 H 28.224 -3.78111 -2.01816 0
M  V30 293 H 32.408 -4.68501 -1.63768 0
M  V30 294 H 27.664 -6.00709 -1.13835 0
M  V30 295 H 31.838 -6.9217 -0.76644 0
M  V30 296 H 29.465 -7.5848 -0.511083 0
M  V30 297 N 31.0401 0.771051 -1.3745 0
M  V30 298 C 31.9701 1.89827 -1.3597 0
M  V30 299 C 32.9511 1.68562 -0.228216 0
M  V30 300 O 34.1361 1.8941 -0.428675 0
M  V30 301 C 31.2661 3.2712 -1.16662 0
M  V30 302 C 30.2201 3.6295 -2.2683 0
M  V30 303 C 29.5461 4.98791 -1.92644 0
M  V30 304 C 30.8461 3.69627 -3.69017 0
M  V30 305 H 32.5401 1.91323 -2.30295 0
M  V30 306 H 30.0861 0.919082 -1.10855 0
M  V30 307 H 32.0391 4.05615 -1.14256 0
M  V30 308 H 30.7631 3.26059 -0.187926 0
M  V30 309 H 29.4221 2.86763 -2.28392 0
M  V30 310 H 29.0701 4.94271 -0.933021 0
M  V30 311 H 28.7701 5.23733 -2.66416 0
M  V30 312 H 30.2941 5.79685 -1.91826 0
M  V30 313 H 31.7081 4.38273 -3.69581 0
M  V30 314 H 30.1051 4.06067 -4.41848 0
M  V30 315 H 31.1751 2.70273 -4.02592 0
M  V30 316 N 32.5182 1.22032 0.997298 0
M  V30 317 C 33.7672 1.03637 1.73038 0
M  V30 318 C 34.0802 -0.429475 1.90827 0
M  V30 319 O 35.2862 -0.732995 2.61418 0
M  V30 320 C 33.7422 1.80582 3.11317 0
M  V30 321 C 33.3502 3.31387 3.01474 0
M  V30 322 C 35.0942 1.70621 3.88701 0
M  V30 323 C 33.0012 4.00791 4.3488 0
M  V30 324 H 31.9312 0.384179 0.648785 0
M  V30 325 H 34.5822 1.4584 1.11368 0
M  V30 326 H 32.9642 1.31175 3.73643 0
M  V30 327 H 34.1382 3.88155 2.4834 0
M  V30 328 H 32.4532 3.41976 2.37575 0
M  V30 329 H 35.0502 2.19799 4.87434 0
M  V30 330 H 35.3932 0.665823 4.10941 0
M  V30 331 H 35.9262 2.17547 3.33044 0
M  V30 332 H 32.6652 5.05064 4.1784 0
M  V30 333 H 32.1852 3.48811 4.87945 0
M  V30 334 H 33.8642 4.06139 5.03647 0
M  V30 335 N 33.9963 -1.19345 1.0293 0
M  V30 336 C 35.2443 -1.88665 0.724574 0
M  V30 337 C 35.5653 -1.80036 -0.749144 0
M  V30 338 O 34.8353 -1.2111 -1.53978 0
M  V30 339 H 33.4153 -0.698406 0.265025 0
M  V30 340 H 36.0773 -1.44885 1.30362 0
M  V30 341 H 35.1733 -2.94987 1.01926 0
M  V30 342 N 35.4744 -0.807222 -1.35358 0
M  V30 343 C 36.7204 -0.388463 -1.99045 0
M  V30 344 C 37.0534 1.04184 -1.63888 0
M  V30 345 O 36.3284 1.72292 -0.902535 0
M  V30 346 C 36.6114 -0.572783 -3.55515 0
M  V30 347 C 36.4644 -2.04807 -4.00468 0
M  V30 348 C 37.7834 0.00114064 -4.401 0
M  V30 349 H 34.9024 -0.142619 -0.723069 0
M  V30 350 H 37.5444 -1.01687 -1.60498 0
M  V30 351 H 35.6944 -0.0378425 -3.88482 0
M  V30 352 H 37.3664 -2.64544 -3.77908 0
M  V30 353 H 35.6094 -2.54427 -3.51353 0
M  V30 354 H 36.2804 -2.12792 -5.09337 0
M  V30 355 H 38.7564 -0.455716 -4.13597 0
M  V30 356 H 37.6324 -0.157737 -5.48673 0
M  V30 357 H 37.8934 1.09488 -4.28328 0
M  V30 358 N 36.9525 1.47285 -0.560781 0
M  V30 359 C 38.1775 2.07359 -0.0410566 0
M  V30 360 C 38.6025 1.41017 1.24483 0
M  V30 361 O 37.9605 0.486368 1.74654 0
M  V30 362 C 38.0085 3.6035 0.134123 0
M  V30 363 O 37.1125 3.94681 1.19587 0
M  V30 364 H 36.4535 0.661887 -0.0529291 0
M  V30 365 H 38.9835 1.89252 -0.777482 0
M  V30 366 H 38.9935 4.0652 0.347207 0
M  V30 367 H 37.6685 4.08034 -0.805047 0
M  V30 368 H 36.2455 3.60251 0.962987 0
M  V30 369 N 38.4306 0.297415 1.54768 0
M  V30 370 C 39.6786 -0.312295 1.99673 0
M  V30 371 C 39.9996 -1.54686 1.18732 0
M  V30 372 O 39.2696 -1.93854 0.282382 0
M  V30 373 H 37.8496 -0.118381 0.73756 0
M  V30 374 H 40.5116 0.407915 1.90583 0
M  V30 375 H 39.6076 -0.586813 3.06534 0
M  V30 376 N 39.9087 -1.5758 0.0250728 0
M  V30 377 C 41.1567 -1.91255 -0.653151 0
M  V30 378 C 41.4777 -0.901691 -1.729 0
M  V30 379 O 40.7477 0.0573785 -1.95816 0
M  V30 380 H 39.3277 -0.705942 -0.244243 0
M  V30 381 H 41.9897 -1.94767 0.0719209 0
M  V30 382 H 41.0857 -2.91752 -1.10847 0
M  V30 383 N 41.3868 0.248026 -1.55636 0
M  V30 384 C 42.6148 0.993808 -1.81469 0
M  V30 385 C 43.0298 1.78991 -0.60064 0
M  V30 386 O 42.3868 1.77345 0.430682 0
M  V30 387 C 42.4378 1.93258 -3.05506 0
M  V30 388 O 42.1588 1.16869 -4.22224 0
M  V30 389 C 43.6598 2.79444 -3.4413 0
M  V30 390 H 40.8798 0.292486 -0.603898 0
M  V30 391 H 43.4238 0.271253 -2.02693 0
M  V30 392 H 41.5788 2.60943 -2.86335 0
M  V30 393 H 41.9928 1.80359 -4.92515 0
M  V30 394 H 43.4668 3.41066 -4.34026 0
M  V30 395 H 43.9438 3.50499 -2.64665 0
M  V30 396 H 44.5498 2.17214 -3.65648 0
M  V30 397 N 42.8649 1.48995 0.513639 0
M  V30 398 C 43.8279 1.64229 1.59879 0
M  V30 399 C 44.8279 0.514696 1.5234 0
M  V30 400 O 46.0179 0.78087 1.55718 0
M  V30 401 C 43.1499 1.62783 2.99524 0
M  V30 402 H 44.3429 2.61004 1.47705 0
M  V30 403 H 41.8959 1.37837 0.736936 0
M  V30 404 H 42.6309 0.675461 3.17188 0
M  V30 405 H 42.4159 2.4466 3.06404 0
M  V30 406 H 43.9059 1.76669 3.78388 0
M  V30 407 N 44.343 -0.763751 1.37857 0
M  V30 408 C 45.568 -1.55805 1.36893 0
M  V30 409 C 45.993 -1.88054 -0.0416135 0
M  V30 410 O 45.351 -1.49825 -1.02089 0
M  V30 411 C 45.399 -2.84012 2.22192 0
M  V30 412 O 44.503 -3.78732 1.63204 0
M  V30 413 H 43.844 -0.471638 0.46739 0
M  V30 414 H 46.374 -0.944657 1.81487 0
M  V30 415 H 46.384 -3.33037 2.35691 0
M  V30 416 H 45.059 -2.59869 3.24716 0
M  V30 417 H 43.636 -3.37402 1.58791 0
M  V30 418 N 45.8211 -1.22559 -0.990812 0
M  V30 419 C 47.0691 -1.04933 -1.72724 0
M  V30 420 C 47.3901 0.416158 -1.90508 0
M  V30 421 O 46.6601 1.29918 -1.46622 0
M  V30 422 H 45.2401 -0.385296 -0.639965 0
M  V30 423 H 47.9021 -1.54105 -1.19322 0
M  V30 424 H 46.9981 -1.52886 -2.72089 0
M  V30 425 N 47.2992 1.18797 -1.03562 0
M  V30 426 C 48.2462 2.22253 -0.622259 0
M  V30 427 C 49.2162 1.61987 0.36736 0
M  V30 428 O 50.4012 1.88986 0.262492 0
M  V30 429 C 47.5412 3.45097 0.0138462 0
M  V30 430 C 46.6542 4.19722 -1.02263 0
M  V30 431 C 45.7892 5.30009 -0.355573 0
M  V30 432 C 44.8282 5.96399 -1.37749 0
M  V30 433 N 43.9652 6.98234 -0.735766 0
M  V30 434 H 48.8052 2.56968 -1.50903 0
M  V30 435 H 46.3422 1.26245 -0.755017 0
M  V30 436 H 48.3002 4.15279 0.399948 0
M  V30 437 H 46.9302 3.11018 0.864158 0
M  V30 438 H 45.9822 3.48418 -1.52673 0
M  V30 439 H 47.2942 4.65227 -1.79903 0
M  V30 440 H 46.4482 6.0664 0.0850095 0
M  V30 441 H 45.1872 4.85592 0.452967 0
M  V30 442 H 44.1922 5.18512 -1.82826 0
M  V30 443 H 45.4172 6.42899 -2.18764 0
M  V30 444 H 43.3632 6.55979 0.0525597 0
M  V30 445 H 43.2802 7.41965 -1.44995 0
M  V30 446 H 44.5482 7.78845 -0.31941 0
M  V30 447 N 48.7773 0.814389 1.34928 0
M  V30 448 C 50.0023 0.410097 2.03305 0
M  V30 449 C 50.4273 -0.973464 1.60951 0
M  V30 450 O 49.7853 -1.63185 0.789964 0
M  V30 451 C 49.8333 0.51049 3.56968 0
M  V30 452 O 48.9373 -0.473035 4.09678 0
M  V30 453 H 48.2783 0.170088 0.641846 0
M  V30 454 H 50.8083 1.10244 1.72358 0
M  V30 455 H 50.8183 0.383135 4.06197 0
M  V30 456 H 49.4933 1.51963 3.87144 0
M  V30 457 H 48.0703 -0.305272 3.71648 0
M  V30 458 N 50.2554 -1.46986 0.568584 0
M  V30 459 C 51.4804 -2.07335 0.0520528 0
M  V30 460 C 51.9054 -1.41675 -1.23733 0
M  V30 461 O 51.2634 -0.495623 -1.74394 0
M  V30 462 C 51.3114 -3.60417 -0.11501 0
M  V30 463 O 50.4154 -3.95309 -1.17492 0
M  V30 464 H 49.7564 -0.661597 0.0564385 0
M  V30 465 H 52.2864 -1.88837 0.787507 0
M  V30 466 H 52.2964 -4.06698 -0.325644 0
M  V30 467 H 50.9714 -4.07601 0.826675 0
M  V30 468 H 49.5484 -3.60757 -0.943869 0
M  V30 469 N 51.7335 -0.305618 -1.54608 0
M  V30 470 C 52.9795 0.302746 -2.00528 0
M  V30 471 C 53.3125 1.53184 -1.19367 0
M  V30 472 O 52.5875 1.92598 -0.271321 0
M  V30 473 C 52.8705 0.654756 -3.54097 0
M  V30 474 C 52.7235 -0.583793 -4.45995 0
M  V30 475 C 54.0425 1.47947 -4.14487 0
M  V30 476 H 51.1615 0.108564 -0.72896 0
M  V30 477 H 53.8035 -0.418634 -1.85331 0
M  V30 478 H 51.9535 1.26935 -3.67178 0
M  V30 479 H 53.6255 -1.22224 -4.44814 0
M  V30 480 H 51.8685 -1.21615 -4.16404 0
M  V30 481 H 52.5395 -0.293287 -5.5122 0
M  V30 482 H 55.0155 0.96013 -4.04871 0
M  V30 483 H 53.8915 1.69454 -5.22088 0
M  V30 484 H 54.1525 2.47011 -3.66658 0
M  V30 485 N 53.2116 1.57565 -0.0334293 0
M  V30 486 C 54.4516 1.93844 0.648379 0
M  V30 487 C 54.8156 0.910387 1.69044 0
M  V30 488 O 56.0166 1.15952 2.42505 0
M  V30 489 C 54.2876 3.35017 1.24492 0
M  V30 490 S 55.8466 3.93229 1.94721 0
M  V30 491 H 52.6646 0.678231 0.213364 0
M  V30 492 H 55.2666 1.95254 -0.0981253 0
M  V30 493 H 53.9706 4.07652 0.474128 0
M  V30 494 H 53.5016 3.37061 2.02864 0
M  V30 495 H 55.5166 3.77014 3.22606 0
M  V30 496 N 54.6897 -0.239769 1.55765 0
M  V30 497 C 55.6527 -1.28038 1.90103 0
M  V30 498 C 56.6527 -1.40723 0.778055 0
M  V30 499 O 57.8427 -1.39301 1.04599 0
M  V30 500 C 54.9747 -2.65702 2.13577 0
M  V30 501 H 56.1677 -0.988048 2.83157 0
M  V30 502 H 53.7207 -0.479382 1.48767 0
M  V30 503 H 54.4557 -3.00063 1.23015 0
M  V30 504 H 54.2407 -2.57875 2.95369 0
M  V30 505 H 55.7307 -3.40828 2.41301 0
M  V30 506 N 56.1678 -1.49265 -0.50573 0
M  V30 507 C 57.1148 -1.65585 -1.6078 0
M  V30 508 C 58.0848 -0.497396 -1.58478 0
M  V30 509 O 59.2698 -0.72385 -1.76536 0
M  V30 510 C 56.4098 -1.72408 -2.98948 0
M  V30 511 C 55.5228 -2.99525 -3.11301 0
M  V30 512 C 54.6578 -2.97356 -4.40174 0
M  V30 513 C 53.6968 -4.19074 -4.46143 0
M  V30 514 N 52.8338 -4.14841 -5.66437 0
M  V30 515 H 57.6738 -2.59688 -1.46172 0
M  V30 516 H 55.2108 -1.28761 -0.711261 0
M  V30 517 H 57.1688 -1.74344 -3.79025 0
M  V30 518 H 55.7988 -0.817753 -3.1227 0
M  V30 519 H 54.8508 -3.07222 -2.24318 0
M  V30 520 H 56.1628 -3.89518 -3.11572 0
M  V30 521 H 55.3168 -2.97829 -5.28567 0
M  V30 522 H 54.0558 -2.05133 -4.42461 0
M  V30 523 H 53.0608 -4.1885 -3.56153 0
M  V30 524 H 54.2858 -5.12483 -4.45575 0
M  V30 525 H 52.2318 -3.25453 -5.69575 0
M  V30 526 H 52.1488 -4.98564 -5.68304 0
M  V30 527 H 53.4168 -4.1941 -6.57051 0
M  V30 528 N 57.6459 0.756429 -1.3826 0
M  V30 529 C 58.8949 1.51082 -1.3363 0
M  V30 530 C 59.2079 1.95467 0.0720068 0
M  V30 531 O 60.4139 2.7043 0.240834 0
M  V30 532 C 58.8699 2.72893 -2.34644 0
M  V30 533 C 58.4779 2.35544 -3.81081 0
M  V30 534 C 60.2219 3.50791 -2.39052 0
M  V30 535 C 58.1289 3.53948 -4.73787 0
M  V30 536 H 57.0589 0.56727 -0.49671 0
M  V30 537 H 59.7099 0.827147 -1.638 0
M  V30 538 H 58.0919 3.43227 -1.97513 0
M  V30 539 H 59.2659 1.72894 -4.27135 0
M  V30 540 H 57.5809 1.70786 -3.79764 0
M  V30 541 H 60.1779 4.38823 -3.05513 0
M  V30 542 H 60.5209 3.91745 -1.40861 0
M  V30 543 H 61.0539 2.87467 -2.74968 0
M  V30 544 H 57.7929 3.18064 -5.73163 0
M  V30 545 H 57.3129 4.15651 -4.32428 0
M  V30 546 H 58.9919 4.20566 -4.91663 0
M  V30 547 N 59.124 1.23083 0.984299 0
M  V30 548 C 60.37 1.06214 1.72761 0
M  V30 549 C 60.703 -0.400584 1.90024 0
M  V30 550 O 59.978 -1.29672 1.44967 0
M  V30 551 C 60.261 1.78375 3.12817 0
M  V30 552 C 60.114 3.32296 3.03149 0
M  V30 553 C 61.433 1.54309 4.12161 0
M  V30 554 H 58.552 0.387251 0.627061 0
M  V30 555 H 61.194 1.51536 1.14616 0
M  V30 556 H 59.344 1.39848 3.62457 0
M  V30 557 H 61.016 3.8032 2.61064 0
M  V30 558 H 59.259 3.6153 2.39747 0
M  V30 559 H 59.93 3.77972 4.02295 0
M  V30 560 H 62.406 1.87791 3.71314 0
M  V30 561 H 61.282 2.07281 5.08258 0
M  V30 562 H 61.543 0.477572 4.39513 0
M  V30 563 N 60.6021 -1.18246 1.0419 0
M  V30 564 C 61.5341 -2.2142 0.592088 0
M  V30 565 C 62.5471 -1.59233 -0.338909 0
M  V30 566 O 63.7361 -1.78002 -0.133231 0
M  V30 567 C 60.8361 -3.38546 -0.154854 0
M  V30 568 C 60.0091 -4.3031 0.784328 0
M  V30 569 C 59.0681 -5.26138 0.0804583 0
M  V30 570 O 58.0941 -5.64738 0.711292 0
M  V30 571 N 59.2961 -5.68261 -1.18574 0
M  V30 572 H 62.0611 -2.60636 1.47949 0
M  V30 573 H 59.6221 -1.33044 0.922544 0
M  V30 574 H 61.6141 -3.99678 -0.635606 0
M  V30 575 H 60.1841 -2.98012 -0.943811 0
M  V30 576 H 59.4041 -3.66764 1.44491 0
M  V30 577 H 60.6921 -4.8852 1.42218 0
M  V30 578 H 60.0901 -5.38957 -1.71876 0
M  V30 579 H 58.6471 -6.31584 -1.61074 0
M  V30 580 N 62.0802 -0.821533 -1.34494 0
M  V30 581 C 63.0102 -0.257138 -2.3208 0
M  V30 582 C 63.9912 0.625645 -1.58176 0
M  V30 583 O 65.1762 0.552811 -1.86166 0
M  V30 584 C 62.3062 0.582958 -3.42372 0
M  V30 585 C 61.2602 -0.202571 -4.2752 0
M  V30 586 C 60.5862 0.760179 -5.29269 0
M  V30 587 C 61.8862 -1.40998 -5.02908 0
M  V30 588 H 63.5802 -1.07247 -2.79532 0
M  V30 589 H 61.1262 -0.517163 -1.34393 0
M  V30 590 H 63.0792 0.987972 -4.09655 0
M  V30 591 H 61.8032 1.43133 -2.93565 0
M  V30 592 H 60.4622 -0.588936 -3.61838 0
M  V30 593 H 60.1102 1.60447 -4.76724 0
M  V30 594 H 59.8102 0.238809 -5.87115 0
M  V30 595 H 61.3342 1.16308 -5.9942 0
M  V30 596 H 62.7482 -1.07905 -5.63054 0
M  V30 597 H 61.1452 -1.86689 -5.70322 0
M  V30 598 H 62.2152 -2.1889 -4.32684 0
M  V30 599 N 63.5583 1.46682 -0.576371 0
M  V30 600 C 64.4883 2.33028 0.148397 0
M  V30 601 C 65.4693 1.44961 0.889956 0
M  V30 602 O 66.6543 1.73789 0.866662 0
M  V30 603 C 63.7843 3.27117 1.1667 0
M  V30 604 C 62.7383 4.24575 0.540386 0
M  V30 605 C 62.0643 5.08126 1.6647 0
M  V30 606 C 63.3643 5.19722 -0.518331 0
M  V30 607 H 65.0583 2.93875 -0.572509 0
M  V30 608 H 62.6043 1.41315 -0.276768 0
M  V30 609 H 64.5573 3.86374 1.68204 0
M  V30 610 H 63.2813 2.64364 1.9178 0
M  V30 611 H 61.9403 3.66571 0.0461769 0
M  V30 612 H 61.5883 4.41762 2.40531 0
M  V30 613 H 61.2883 5.74122 1.25131 0
M  V30 614 H 62.8123 5.70246 2.18293 0
M  V30 615 H 64.2263 5.73232 -0.0883058 0
M  V30 616 H 62.6233 5.94026 -0.851679 0
M  V30 617 H 63.6933 4.64037 -1.40703 0
M  V30 618 N 65.0364 0.313813 1.54444 0
M  V30 619 C 66.2844 -0.291099 1.99993 0
M  V30 620 C 66.6054 -1.53418 1.20366 0
M  V30 621 O 65.8754 -1.93544 0.302927 0
M  V30 622 H 64.4554 -0.110552 0.738774 0
M  V30 623 H 67.1174 0.428106 1.9014 0
M  V30 624 H 66.2134 -0.554268 3.07139 0
M  V30 625 N 66.5145 -1.57545 0.0417849 0
M  V30 626 C 67.4465 -2.07904 -0.964799 0
M  V30 627 C 68.4595 -1.00497 -1.28079 0
M  V30 628 O 69.6485 -1.28087 -1.24322 0
M  V30 629 C 66.7485 -2.49928 -2.28887 0
M  V30 630 C 65.9215 -3.80562 -2.15619 0
M  V30 631 C 64.9805 -4.08999 -3.31069 0
M  V30 632 O 64.0065 -4.79061 -3.0739 0
M  V30 633 N 65.2085 -3.6017 -4.55256 0
M  V30 634 H 67.9735 -2.94886 -0.535029 0
M  V30 635 H 65.5345 -1.61252 -0.144681 0
M  V30 636 H 67.5265 -2.66034 -3.04972 0
M  V30 637 H 66.0965 -1.68245 -2.63463 0
M  V30 638 H 65.3165 -3.74129 -1.24183 0
M  V30 639 H 66.6045 -4.66126 -2.03971 0
M  V30 640 H 66.0025 -3.03512 -4.77386 0
M  V30 641 H 64.5595 -3.81532 -5.28466 0
M  V30 642 N 67.9926 0.231505 -1.5589 0
M  V30 643 C 68.9406 1.30649 -1.92441 0
M  V30 644 C 69.9346 1.49037 -0.805254 0
M  V30 645 O 71.1406 1.50329 -0.990007 0
M  V30 646 H 67.5156 0.437812 -0.611412 0
M  V30 647 H 69.4866 0.970973 -2.82161 0
M  V30 648 C 68.2356 2.65179 -2.24889 0
M  V30 649 H 67.5586 2.51835 -3.10514 0
M  V30 650 H 68.9986 3.39234 -2.54355 0
M  V30 651 C 67.4576 3.19439 -1.07054 0
M  V30 652 O 67.9876 4.00371 -0.326499 0
M  V30 653 N 66.1936 2.77675 -0.85703 0
M  V30 654 H 65.7406 2.11969 -1.46379 0
M  V30 655 H 65.6986 3.14321 -0.0703223 0
M  V30 656 N 69.4707 1.49531 0.497807 0
M  V30 657 C 70.3807 1.69176 1.62532 0
M  V30 658 C 71.3967 0.5744 1.64246 0
M  V30 659 O 72.5727 0.849497 1.82608 0
M  V30 660 C 69.6377 1.75695 2.98885 0
M  V30 661 C 68.6987 2.9929 3.07773 0
M  V30 662 C 67.9317 3.05488 4.37622 0
M  V30 663 O 68.1547 2.19192 5.26603 0
M  V30 664 O 67.0887 3.9798 4.51548 0
M  V30 665 H 70.9147 2.647 1.48887 0
M  V30 666 H 68.4997 1.3331 0.674441 0
M  V30 667 H 70.3817 1.82317 3.79919 0
M  V30 668 H 69.0567 0.8335 3.12785 0
M  V30 669 H 67.9637 2.98183 2.25915 0
M  V30 670 H 69.2967 3.91125 2.98801 0
M  V30 671 N 70.9488 -0.749086 1.3866 0
M  V30 672 C 72.1948 -1.51056 1.35314 0
M  V30 673 C 72.5278 -1.94121 -0.0553751 0
M  V30 674 O 71.8028 -1.65763 -1.01749 0
M  V30 675 C 72.0858 -2.76003 2.31288 0
M  V30 676 C 71.9388 -2.39047 3.8102 0
M  V30 677 C 73.2578 -3.78046 2.2532 0
M  V30 678 H 70.3768 -0.547972 0.492844 0
M  V30 679 H 73.0188 -0.857628 1.69543 0
M  V30 680 H 71.1688 -3.31716 2.02229 0
M  V30 681 H 72.8408 -1.89074 4.20771 0
M  V30 682 H 71.0838 -1.71449 3.98482 0
M  V30 683 H 71.7548 -3.28462 4.4364 0
M  V30 684 H 74.2308 -3.31884 2.50983 0
M  V30 685 H 73.1068 -4.63159 2.94576 0
M  V30 686 H 73.3678 -4.23957 1.25352 0
M  V30 687 N 72.4269 -1.23603 -0.977757 0
M  V30 688 C 73.7039 -0.977897 -1.69401 0
M  V30 689 C 74.0839 0.502738 -2.05026 0
M  V30 690 O 73.4319 1.47459 -1.74551 0
M  V30 691 C 73.6419 -1.89077 -2.93345 0
M  V30 692 C 74.9899 -2.15579 -3.65802 0
M  V30 693 O 76.0139 -1.86648 -3.03383 0
M  V30 694 O 74.8729 -2.64658 -4.78141 0
M  V30 695 H 71.9669 -0.369025 -0.740101 0
M  V30 696 H 74.5129 -1.34657 -1.03274 0
M  V30 697 H 73.2849 -2.89158 -2.63634 0
M  V30 698 H 72.9079 -1.52463 -3.67207 0
M  V30 699 N 73.905 1.17692 -1.04816 0
M  V30 700 C 75.135 1.91508 -0.775128 0
M  V30 701 C 75.543 1.76844 0.67253 0
M  V30 702 O 74.886 1.10057 1.47082 0
M  V30 703 C 74.948 3.43167 -1.0713 0
M  V30 704 C 74.612 3.81612 -2.51438 0
M  V30 705 C 75.609 3.84772 -3.49638 0
M  V30 706 C 73.294 4.12687 -2.86348 0
M  V30 707 C 75.288 4.18469 -4.80794 0
M  V30 708 C 72.975 4.46053 -4.17708 0
M  V30 709 C 73.973 4.48921 -5.14741 0
M  V30 710 O 73.661 4.81504 -6.43746 0
M  V30 711 H 73.393 0.614575 -0.281555 0
M  V30 712 H 75.947 1.50206 -1.40098 0
M  V30 713 H 74.177 3.84745 -0.388342 0
M  V30 714 H 75.866 3.98239 -0.784883 0
M  V30 715 H 76.632 3.60893 -3.24008 0
M  V30 716 H 72.511 4.09627 -2.11486 0
M  V30 717 H 76.055 4.20623 -5.56527 0
M  V30 718 H 71.952 4.69393 -4.43103 0
M  V30 719 H 72.72 4.99377 -6.4851 0
M  V30 720 N 75.3831 0.828654 1.34056 0
M  V30 721 C 76.7991 0.515135 1.51058 0
M  V30 722 C 76.9991 -0.959581 1.77184 0
M  V30 723 O 76.0551 -1.74382 1.82612 0
M  V30 724 C 77.3681 1.37963 2.67183 0
M  V30 725 C 78.9161 1.37735 2.81066 0
M  V30 726 C 79.3911 2.22645 4.00241 0
M  V30 727 N 80.8821 2.203 4.07458 0
M  V30 728 C 81.6171 2.82744 4.98842 0
M  V30 729 N 81.1131 3.54201 5.9541 0
M  V30 730 N 82.9061 2.72268 4.91759 0
M  V30 731 H 75.0571 1.78343 1.15358 0
M  V30 732 H 77.3201 0.760304 0.566252 0
M  V30 733 H 77.0261 2.42714 2.54525 0
M  V30 734 H 76.9001 1.0484 3.62338 0
M  V30 735 H 79.2871 0.337593 2.93163 0
M  V30 736 H 79.3681 1.74859 1.86703 0
M  V30 737 H 79.0121 3.26674 3.88905 0
M  V30 738 H 78.9421 1.82869 4.93829 0
M  V30 739 H 81.4331 1.68327 3.38341 0
M  V30 740 H 81.7461 3.9908 6.61782 0
M  V30 741 H 80.0911 3.58308 5.95517 0
M  V30 742 H 83.2821 2.16014 4.15278 0
M  V30 743 H 83.4551 3.21219 5.62781 0
M  V30 744 N 76.8612 -1.46375 0.584142 0
M  V30 745 C 77.7932 -2.28443 -0.186119 0
M  V30 746 C 78.8062 -1.38596 -0.854115 0
M  V30 747 O 79.9952 -1.63183 -0.723438 0
M  V30 748 C 77.0952 -3.13671 -1.28311 0
M  V30 749 C 76.2682 -4.31652 -0.706758 0
M  V30 750 C 75.3272 -4.98267 -1.69163 0
M  V30 751 O 74.3532 -5.55815 -1.22712 0
M  V30 752 N 75.5552 -4.95408 -3.02575 0
M  V30 753 H 78.3202 -2.9519 0.517986 0
M  V30 754 H 75.8812 -1.56303 0.42201 0
M  V30 755 H 77.8732 -3.55101 -1.94128 0
M  V30 756 H 76.4432 -2.48989 -1.89005 0
M  V30 757 H 75.6632 -3.93989 0.128908 0
M  V30 758 H 76.9512 -5.07906 -0.301506 0
M  V30 759 H 76.3492 -4.49902 -3.42936 0
M  V30 760 H 74.9062 -5.40774 -3.63877 0
M  V30 761 N 78.3393 -0.321999 -1.54275 0
M  V30 762 C 79.2863 0.544664 -2.24281 0
M  V30 763 C 80.2563 1.1129 -1.23303 0
M  V30 764 O 81.4413 1.15354 -1.51981 0
M  V30 765 C 78.5813 1.70045 -3.00298 0
M  V30 766 C 77.6943 1.16159 -4.1609 0
M  V30 767 C 76.8293 2.28293 -4.79641 0
M  V30 768 C 75.8683 1.71648 -5.8754 0
M  V30 769 N 75.0053 2.77438 -6.44959 0
M  V30 770 H 79.8453 -0.0588907 -2.97942 0
M  V30 771 H 77.3823 -0.0408345 -1.47043 0
M  V30 772 H 79.3403 2.38054 -3.42616 0
M  V30 773 H 77.9703 2.27531 -2.28975 0
M  V30 774 H 77.0223 0.373092 -3.78566 0
M  V30 775 H 78.3343 0.707087 -4.93763 0
M  V30 776 H 77.4883 3.0421 -5.2492 0
M  V30 777 H 76.2273 2.77079 -4.01346 0
M  V30 778 H 75.2323 0.942282 -5.41665 0
M  V30 779 H 76.4573 1.23741 -6.67731 0
M  V30 780 H 74.4033 3.25519 -5.69538 0
M  V30 781 H 74.3203 2.36547 -7.1804 0
M  V30 782 H 75.5883 3.53189 -6.94894 0
M  V30 783 N 79.8174 1.5752 -0.0501392 0
M  V30 784 C 80.7494 2.08413 0.95376 0
M  V30 785 C 81.7624 1.01175 1.27544 0
M  V30 786 O 82.9514 1.28744 1.23641 0
M  V30 787 C 80.0514 2.51138 2.27559 0
M  V30 788 C 79.2244 3.817 2.13598 0
M  V30 789 C 78.2834 4.10749 3.28895 0
M  V30 790 O 77.3094 4.80685 3.04845 0
M  V30 791 N 78.5114 3.62579 4.5334 0
M  V30 792 H 81.2764 2.95165 0.519383 0
M  V30 793 H 78.8374 1.61327 0.136127 0
M  V30 794 H 80.8294 2.67648 3.03557 0
M  V30 795 H 79.3994 1.6964 2.62567 0
M  V30 796 H 78.6194 3.74782 1.22197 0
M  V30 797 H 79.9074 4.67201 2.01496 0
M  V30 798 H 79.3054 3.06039 4.75769 0
M  V30 799 H 77.8624 3.84329 5.26436 0
M  V30 800 N 81.2955 -0.223234 1.56011 0
M  V30 801 C 82.5415 -0.949279 1.79211 0
M  V30 802 C 82.8745 -1.84054 0.619494 0
M  V30 803 O 82.1495 -1.90726 -0.381317 0
M  V30 804 C 82.4325 -1.78965 3.12479 0
M  V30 805 C 82.2855 -0.924997 4.40186 0
M  V30 806 C 83.6045 -2.76774 3.42175 0
M  V30 807 H 80.7235 -0.343676 0.651963 0
M  V30 808 H 83.3655 -0.218253 1.88742 0
M  V30 809 H 81.5155 -2.41291 3.04485 0
M  V30 810 H 83.1875 -0.318615 4.60198 0
M  V30 811 H 81.4305 -0.230344 4.33188 0
M  V30 812 H 82.1015 -1.54735 5.29869 0
M  V30 813 H 84.5775 -2.24584 3.50287 0
M  V30 814 H 83.4535 -3.32678 4.36597 0
M  V30 815 H 83.7145 -3.54429 2.64258 0
M  V30 816 N 82.7736 -1.49793 -0.48987 0
M  V30 817 C 84.0196 -1.60078 -1.24511 0
M  V30 818 C 84.3526 -0.291608 -1.91998 0
M  V30 819 O 83.6276 0.705647 -1.81248 0
M  V30 820 C 83.9106 -2.76791 -2.30345 0
M  V30 821 C 83.7636 -4.17535 -1.67286 0
M  V30 822 C 85.0826 -2.89111 -3.31817 0
M  V30 823 H 82.2016 -0.582645 -0.451324 0
M  V30 824 H 84.8436 -1.82117 -0.541612 0
M  V30 825 H 82.9936 -2.5813 -2.90346 0
M  V30 826 H 84.6656 -4.4774 -1.11026 0
M  V30 827 H 82.9086 -4.22665 -0.976577 0
M  V30 828 H 83.5796 -4.95094 -2.44103 0
M  V30 829 H 86.0556 -3.06133 -2.81819 0
M  V30 830 H 84.9316 -3.72433 -4.03219 0
M  V30 831 H 85.1926 -1.9893 -3.94815 0
M  V30 832 N 84.2517 0.741722 -1.39055 0
M  V30 833 C 85.5007 1.49656 -1.35225 0
M  V30 834 C 85.8137 1.95533 0.0512708 0
M  V30 835 O 87.0197 2.7067 0.212138 0
M  V30 836 C 85.4757 2.70389 -2.37525 0
M  V30 837 C 85.0837 2.31489 -3.83558 0
M  V30 838 C 86.8277 3.48236 -2.42759 0
M  V30 839 C 84.7347 3.48903 -4.77515 0
M  V30 840 H 83.6647 0.56197 -0.502699 0
M  V30 841 H 86.3157 0.809727 -1.64668 0
M  V30 842 H 84.6977 3.41113 -2.01142 0
M  V30 843 H 85.8717 1.68354 -4.28945 0
M  V30 844 H 84.1867 1.66749 -3.81554 0
M  V30 845 H 86.7837 4.35558 -3.1015 0
M  V30 846 H 87.1267 3.90229 -1.45008 0
M  V30 847 H 87.6597 2.84535 -2.78002 0
M  V30 848 H 84.3987 3.11966 -5.76504 0
M  V30 849 H 83.9187 4.11041 -4.36813 0
M  V30 850 H 85.5977 4.15328 -4.96096 0
M  V30 851 N 85.7298 1.2412 0.971189 0
M  V30 852 C 86.6598 1.05508 2.08304 0
M  V30 853 C 87.6408 -0.0308864 1.70072 0
M  V30 854 O 88.8258 0.135521 1.93727 0
M  V30 855 C 85.9558 0.655365 3.4106 0
M  V30 856 C 84.9098 1.68971 3.93234 0
M  V30 857 C 84.2358 1.14516 5.22293 0
M  V30 858 C 85.5358 3.08487 4.21465 0
M  V30 859 H 87.2298 1.98507 2.24132 0
M  V30 860 H 84.7758 0.955821 1.07704 0
M  V30 861 H 86.7288 0.51217 4.18276 0
M  V30 862 H 85.4528 -0.31032 3.25122 0
M  V30 863 H 84.1118 1.82106 3.18171 0
M  V30 864 H 83.7598 0.170189 5.02712 0
M  V30 865 H 83.4598 1.83635 5.58168 0
M  V30 866 H 84.9838 1.01401 6.02121 0
M  V30 867 H 86.3978 2.98601 4.89398 0
M  V30 868 H 84.7948 3.74926 4.68562 0
M  V30 869 H 85.8648 3.56787 3.28376 0
M  V30 870 N 87.2079 -1.17134 1.05439 0
M  V30 871 C 88.4329 -1.91913 0.786396 0
M  V30 872 C 88.8579 -1.7643 -0.652234 0
M  V30 873 O 88.2159 -1.08372 -1.45345 0
M  V30 874 C 88.2639 -3.40921 1.17497 0
M  V30 875 O 87.3679 -4.11244 0.308589 0
M  V30 876 H 86.7089 -0.598215 0.288158 0
M  V30 877 H 89.2389 -1.48457 1.4079 0
M  V30 878 H 89.2489 -3.91668 1.14281 0
M  V30 879 H 87.9239 -3.5151 2.22292 0
M  V30 880 H 86.5009 -3.70731 0.40157 0
M  V30 881 N 88.686 -0.835752 -1.33615 0
M  V30 882 C 89.618 -0.224151 -2.28101 0
M  V30 883 C 90.631 0.593331 -1.51603 0
M  V30 884 O 91.82 0.420911 -1.73466 0
M  V30 885 C 88.92 0.703309 -3.31522 0
M  V30 886 C 88.093 -0.0741528 -4.37337 0
M  V30 887 C 87.152 0.776176 -5.20444 0
M  V30 888 O 86.178 0.216506 -5.68788 0
M  V30 889 N 87.38 2.09401 -5.41416 0
M  V30 890 H 90.145 -1.03598 -2.81225 0
M  V30 891 H 87.706 -0.69392 -1.46275 0
M  V30 892 H 89.698 1.27707 -3.84022 0
M  V30 893 H 88.268 1.41585 -2.78698 0
M  V30 894 H 87.488 -0.82928 -3.85378 0
M  V30 895 H 88.776 -0.608863 -5.05144 0
M  V30 896 H 88.174 2.57229 -5.03835 0
M  V30 897 H 86.731 2.61633 -5.96985 0
M  V30 898 N 90.1641 1.46063 -0.591896 0
M  V30 899 C 91.4411 1.95595 -0.0137119 0
M  V30 900 C 91.8211 1.5345 1.4497 0
M  V30 901 O 91.1691 0.789543 2.14426 0
M  V30 902 C 91.3791 3.48453 -0.195373 0
M  V30 903 C 92.7271 4.24546 -0.0679765 0
M  V30 904 O 93.7511 3.55982 -0.124681 0
M  V30 905 O 92.6101 5.46467 0.0600579 0
M  V30 906 H 89.7041 0.825795 0.0446279 0
M  V30 907 H 92.2501 1.56303 -0.660859 0
M  V30 908 H 91.0221 3.72045 -1.21235 0
M  V30 909 H 90.6451 3.94597 0.487775 0
M  V30 910 N 91.6422 0.330177 1.54103 0
M  V30 911 C 92.8672 -0.274893 2.0557 0
M  V30 912 C 93.2922 -1.44487 1.20437 0
M  V30 913 O 92.6502 -1.80021 0.214991 0
M  V30 914 C 92.6982 -0.68079 3.54115 0
M  V30 915 O 91.8022 -1.7824 3.71893 0
M  V30 916 H 91.1432 -0.0483849 0.662235 0
M  V30 917 H 93.6732 0.480508 1.98878 0
M  V30 918 H 93.6832 -0.961635 3.96505 0
M  V30 919 H 92.3582 0.174903 4.15532 0
M  V30 920 H 90.9352 -1.49985 3.41407 0
M  V30 921 N 93.1203 -1.57491 0.0584922 0
M  V30 922 C 94.3673 -1.92978 -0.613648 0
M  V30 923 C 94.6953 -0.937461 -1.70417 0
M  V30 924 O 93.9503 0.049078 -1.95638 0
M  V30 925 C 94.2493 -3.3513 -1.24188 0
M  V30 926 C 93.9153 -4.50037 -0.278826 0
M  V30 927 C 92.5773 -4.81198 -0.0138447 0
M  V30 928 C 94.9293 -5.19807 0.380777 0
M  V30 929 C 92.2573 -5.79473 0.918052 0
M  V30 930 C 94.6093 -6.19079 1.30091 0
M  V30 931 C 93.2733 -6.48665 1.57449 0
M  V30 932 H 92.5433 -0.706157 -0.22455 0
M  V30 933 H 95.1903 -1.91082 0.126533 0
M  V30 934 H 93.4953 -3.33429 -2.05749 0
M  V30 935 H 95.1923 -3.59871 -1.769 0
M  V30 936 H 91.7823 -4.25726 -0.495539 0
M  V30 937 H 95.9663 -4.95939 0.189158 0
M  V30 938 H 91.2223 -6.00727 1.1374 0
M  V30 939 H 95.3963 -6.7225 1.81804 0
M  V30 940 H 93.0233 -7.24628 2.29822 0
M  V30 941 N 94.5984 0.214957 -1.56127 0
M  V30 942 C 95.8284 0.953707 -1.8327 0
M  V30 943 C 96.2364 1.78181 -0.636262 0
M  V30 944 O 95.5794 1.79191 0.404516 0
M  V30 945 C 95.6414 1.91516 -3.0424 0
M  V30 946 C 95.3054 1.27094 -4.38972 0
M  V30 947 C 96.3024 0.657575 -5.15725 0
M  V30 948 C 93.9874 1.28073 -4.85698 0
M  V30 949 C 95.9814 0.0625968 -6.37369 0
M  V30 950 C 93.6684 0.681914 -6.07283 0
M  V30 951 C 94.6664 0.0739046 -6.8296 0
M  V30 952 O 94.3544 -0.515582 -8.02245 0
M  V30 953 H 94.0864 0.284764 -0.613095 0
M  V30 954 H 96.6404 0.233283 -2.04071 0
M  V30 955 H 94.8704 2.67475 -2.79274 0
M  V30 956 H 96.5594 2.52001 -3.18198 0
M  V30 957 H 97.3254 0.642288 -4.80728 0
M  V30 958 H 93.2044 1.74337 -4.26764 0
M  V30 959 H 96.7484 -0.412593 -6.96379 0
M  V30 960 H 92.6454 0.694636 -6.41752 0
M  V30 961 H 93.4134 -0.410544 -8.1747 0
M  V30 962 N 96.0765 1.50051 0.48192 0
M  V30 963 C 97.4925 1.37237 0.814756 0
M  V30 964 C 97.6925 0.420109 1.97072 0
M  V30 965 O 96.7485 -0.141246 2.52105 0
M  V30 966 C 98.0615 2.78375 1.13701 0
M  V30 967 C 99.6095 2.87213 1.2441 0
M  V30 968 C 100.084 4.29161 1.59954 0
M  V30 969 N 101.575 4.32061 1.66967 0
M  V30 970 C 102.31 5.38879 1.95952 0
M  V30 971 N 101.806 6.55918 2.23031 0
M  V30 972 N 103.599 5.26312 1.97363 0
M  V30 973 H 95.7505 2.10546 -0.28005 0
M  V30 974 H 98.0135 0.945921 -0.0627454 0
M  V30 975 H 97.7195 3.49845 0.360787 0
M  V30 976 H 97.5935 3.14941 2.07586 0
M  V30 977 H 99.9805 2.15969 2.01101 0
M  V30 978 H 100.061 2.54204 0.285299 0
M  V30 979 H 99.7055 5.00938 0.838067 0
M  V30 980 H 99.6355 4.59648 2.56966 0
M  V30 981 H 102.126 3.47661 1.48123 0
M  V30 982 H 102.439 7.33139 2.44391 0
M  V30 983 H 100.784 6.59112 2.20447 0
M  V30 984 H 103.975 4.33876 1.75697 0
M  V30 985 H 104.148 6.09649 2.19618 0
M  V30 986 N 97.5546 -0.734337 1.39446 0
M  V30 987 C 98.8006 -1.49613 1.36908 0
M  V30 988 C 99.1336 -1.94169 -0.0347829 0
M  V30 989 O 98.4086 -1.66833 -0.999847 0
M  V30 990 C 98.6916 -2.73534 2.34203 0
M  V30 991 C 98.5446 -2.34993 3.83534 0
M  V30 992 C 99.8636 -3.75635 2.29317 0
M  V30 993 H 96.9826 -0.542714 0.498629 0
M  V30 994 H 99.6246 -0.839597 1.70443 0
M  V30 995 H 97.7746 -3.29553 2.05736 0
M  V30 996 H 99.4466 -1.84601 4.22753 0
M  V30 997 H 97.6896 -1.67213 4.00278 0
M  V30 998 H 98.3606 -3.23738 4.47099 0
M  V30 999 H 100.837 -3.29203 2.54489 0
M  V30 1000 H 99.7126 -4.60008 2.99472 0
M  V30 1001 H 99.9736 -4.22603 1.29842 0
M  V30 1002 N 99.0327 -1.24633 -0.964593 0
M  V30 1003 C 99.9627 -1.06611 -2.07741 0
M  V30 1004 C 100.944 0.0218666 -1.70086 0
M  V30 1005 O 102.129 -0.145793 -1.93652 0
M  V30 1006 C 99.2587 -0.673444 -3.40708 0
M  V30 1007 C 98.2127 -1.71054 -3.92332 0
M  V30 1008 C 97.5387 -1.17285 -5.21678 0
M  V30 1009 C 98.8387 -3.10718 -4.19824 0
M  V30 1010 H 100.533 -1.99693 -2.23076 0
M  V30 1011 H 98.0787 -0.96152 -1.07195 0
M  V30 1012 H 100.032 -0.534345 -4.17998 0
M  V30 1013 H 98.7557 0.293073 -3.25282 0
M  V30 1014 H 97.4147 -1.83791 -3.17201 0
M  V30 1015 H 97.0627 -0.196847 -5.02615 0
M  V30 1016 H 96.7627 -1.86592 -5.57187 0
M  V30 1017 H 98.2867 -1.04593 -6.01575 0
M  V30 1018 H 99.7007 -3.01192 -4.87808 0
M  V30 1019 H 98.0977 -3.77406 -4.66567 0
M  V30 1020 H 99.1677 -3.58524 -3.26479 0
M  V30 1021 N 100.511 1.16574 -1.06058 0
M  V30 1022 C 101.739 1.90952 -0.796552 0
M  V30 1023 C 102.154 1.77302 0.648808 0
M  V30 1024 O 101.511 1.11605 1.44397 0
M  V30 1025 C 101.562 3.41736 -1.17894 0
M  V30 1026 O 101.283 3.54975 -2.56758 0
M  V30 1027 C 102.784 4.33169 -0.942308 0
M  V30 1028 H 100.004 0.605594 -0.288959 0
M  V30 1029 H 102.548 1.47777 -1.41358 0
M  V30 1030 H 100.703 3.82623 -0.606491 0
M  V30 1031 H 101.117 4.4846 -2.72 0
M  V30 1032 H 102.591 5.37439 -1.25952 0
M  V30 1033 H 103.068 4.3903 0.122078 0
M  V30 1034 H 103.674 3.98007 -1.49902 0
M  V30 1035 N 101.989 0.842826 1.3317 0
M  V30 1036 C 103.214 0.453129 2.02389 0
M  V30 1037 C 103.639 -0.939105 1.6298 0
M  V30 1038 O 102.997 -1.61472 0.8244 0
M  V30 1039 C 103.045 0.586094 3.55805 0
M  V30 1040 O 102.149 -0.386029 4.10589 0
M  V30 1041 H 101.49 0.183664 0.638094 0
M  V30 1042 H 104.02 1.13875 1.69981 0
M  V30 1043 H 104.03 0.469209 4.05293 0
M  V30 1044 H 102.705 1.6014 3.83833 0
M  V30 1045 H 101.282 -0.226371 3.72212 0
M  V30 1046 N 103.467 -1.45747 0.599634 0
M  V30 1047 C 104.377 -2.34262 -0.125888 0
M  V30 1048 C 105.393 -1.50768 -0.868625 0
M  V30 1049 O 106.569 -1.83592 -0.828003 0
M  V30 1050 C 103.634 -3.28252 -1.11587 0
M  V30 1051 C 102.695 -4.27651 -0.375956 0
M  V30 1052 C 101.928 -5.1715 -1.31877 0
M  V30 1053 O 102.151 -5.09916 -2.55621 0
M  V30 1054 O 101.085 -5.96286 -0.820157 0
M  V30 1055 H 104.911 -2.97688 0.601315 0
M  V30 1056 H 102.496 -1.44999 0.359934 0
M  V30 1057 H 104.378 -3.86191 -1.68626 0
M  V30 1058 H 103.053 -2.67401 -1.82424 0
M  V30 1059 H 101.96 -3.7335 0.236698 0
M  V30 1060 H 103.293 -4.91334 0.29177 0
M  V30 1061 N 104.945 -0.338344 -1.53925 0
M  V30 1062 C 105.877 0.555117 -2.22376 0
M  V30 1063 C 106.89 1.06812 -1.22862 0
M  V30 1064 O 108.079 0.979163 -1.49247 0
M  V30 1065 C 105.179 1.77609 -2.88631 0
M  V30 1066 C 104.352 1.39927 -4.14414 0
M  V30 1067 C 103.411 2.47936 -4.64127 0
M  V30 1068 O 102.437 2.11461 -5.28463 0
M  V30 1069 N 103.639 3.79107 -4.39612 0
M  V30 1070 H 106.404 -0.0310778 -2.99684 0
M  V30 1071 H 103.965 -0.162226 -1.61085 0
M  V30 1072 H 105.957 2.49287 -3.18807 0
M  V30 1073 H 104.527 2.26978 -2.14941 0
M  V30 1074 H 103.747 0.513481 -3.90841 0
M  V30 1075 H 105.035 1.12341 -4.96243 0
M  V30 1076 H 104.433 4.11531 -3.88148 0
M  V30 1077 H 102.99 4.4697 -4.74406 0
M  V30 1078 N 106.423 1.57458 -0.0668435 0
M  V30 1079 C 107.37 2.12439 0.902122 0
M  V30 1080 C 108.34 1.03565 1.2986 0
M  V30 1081 O 109.525 1.312 1.38532 0
M  V30 1082 C 106.665 2.6865 2.16614 0
M  V30 1083 C 105.778 3.91663 1.82274 0
M  V30 1084 C 104.913 4.36134 3.0325 0
M  V30 1085 C 103.952 5.51808 2.64904 0
M  V30 1086 N 103.089 5.9126 3.78624 0
M  V30 1087 H 107.929 2.94934 0.426382 0
M  V30 1088 H 105.466 1.4575 0.198819 0
M  V30 1089 H 107.424 2.99346 2.90599 0
M  V30 1090 H 106.054 1.88928 2.61737 0
M  V30 1091 H 105.106 3.6746 0.983719 0
M  V30 1092 H 106.418 4.75693 1.50059 0
M  V30 1093 H 105.572 4.68465 3.85519 0
M  V30 1094 H 104.311 3.50948 3.38655 0
M  V30 1095 H 103.316 5.19133 1.81055 0
M  V30 1096 H 104.541 6.38722 2.30675 0
M  V30 1097 H 102.487 5.09024 4.138 0
M  V30 1098 H 102.404 6.70018 3.5016 0
M  V30 1099 H 103.672 6.28212 4.61486 0
M  V30 1100 N 107.901 -0.206675 1.56239 0
M  V30 1101 C 108.864 -1.23976 1.92776 0
M  V30 1102 C 109.864 -1.39041 0.807729 0
M  V30 1103 O 111.054 -1.37051 1.0753 0
M  V30 1104 C 108.186 -2.61112 2.19165 0
M  V30 1105 H 109.379 -0.927764 2.85189 0
M  V30 1106 H 106.932 -0.447718 1.4975 0
M  V30 1107 H 107.667 -2.97386 1.29352 0
M  V30 1108 H 107.452 -2.51552 3.00772 0
M  V30 1109 H 108.942 -3.35633 2.48476 0
M  V30 1110 N 109.379 -1.50304 -0.473955 0
M  V30 1111 C 110.326 -1.68959 -1.57231 0
M  V30 1112 C 111.296 -0.530899 -1.57387 0
M  V30 1113 O 112.481 -0.761133 -1.74961 0
M  V30 1114 C 109.621 -1.7871 -2.95223 0
M  V30 1115 C 108.734 -3.06061 -3.04878 0
M  V30 1116 C 107.869 -3.06626 -4.33767 0
M  V30 1117 C 106.908 -4.28443 -4.37154 0
M  V30 1118 N 106.045 -4.26763 -5.5751 0
M  V30 1119 H 110.885 -2.6273 -1.40631 0
M  V30 1120 H 108.422 -1.30241 -0.683789 0
M  V30 1121 H 110.38 -1.82344 -3.75242 0
M  V30 1122 H 109.01 -0.883806 -3.10465 0
M  V30 1123 H 108.062 -3.11911 -2.17751 0
M  V30 1124 H 109.374 -3.96039 -3.0324 0
M  V30 1125 H 108.528 -3.08973 -5.22131 0
M  V30 1126 H 107.267 -2.14473 -4.3801 0
M  V30 1127 H 106.272 -4.2631 -3.47188 0
M  V30 1128 H 107.497 -5.2182 -4.34605 0
M  V30 1129 H 105.443 -3.37462 -5.62544 0
M  V30 1130 H 105.36 -5.10507 -5.57601 0
M  V30 1131 H 106.628 -4.33253 -6.48006 0
M  V30 1132 N 110.857 0.726932 -1.39834 0
M  V30 1133 C 111.82 1.82269 -1.38962 0
M  V30 1134 C 112.82 1.58248 -0.285334 0
M  V30 1135 O 114.01 1.65499 -0.54366 0
M  V30 1136 C 111.142 3.20186 -1.17019 0
M  V30 1137 H 112.335 1.84443 -2.36476 0
M  V30 1138 H 109.888 0.931416 -1.25516 0
M  V30 1139 H 110.623 3.23669 -0.202204 0
M  V30 1140 H 110.408 3.3902 -1.96998 0
M  V30 1141 H 111.898 4.00235 -1.1917 0
M  V30 1142 N 112.336 1.25143 0.95797 0
M  V30 1143 C 113.266 1.07711 2.07173 0
M  V30 1144 C 114.247 -0.0128462 1.70095 0
M  V30 1145 O 115.432 0.156061 1.93572 0
M  V30 1146 C 112.562 0.691503 3.40346 0
M  V30 1147 C 111.516 1.73132 3.9142 0
M  V30 1148 C 110.842 1.20049 5.21049 0
M  V30 1149 C 112.142 3.1294 4.1817 0
M  V30 1150 H 113.836 2.00873 2.22014 0
M  V30 1151 H 111.382 0.967191 1.06684 0
M  V30 1152 H 113.335 0.556505 4.17709 0
M  V30 1153 H 112.059 -0.275819 3.25433 0
M  V30 1154 H 110.718 1.8547 3.16222 0
M  V30 1155 H 110.366 0.223499 5.02503 0
M  V30 1156 H 110.066 1.89545 5.56189 0
M  V30 1157 H 111.59 1.07782 6.01012 0
M  V30 1158 H 113.004 3.03775 4.86203 0
M  V30 1159 H 111.401 3.79875 4.64559 0
M  V30 1160 H 112.471 3.6025 3.24573 0
M  V30 1161 N 113.814 -1.1601 1.06675 0
M  V30 1162 C 114.761 -2.20525 0.680967 0
M  V30 1163 C 115.731 -1.62904 -0.324283 0
M  V30 1164 O 116.916 -1.89615 -0.212294 0
M  V30 1165 C 114.056 -3.45013 0.0776551 0
M  V30 1166 C 113.169 -4.16863 1.13355 0
M  V30 1167 C 112.304 -5.2888 0.49597 0
M  V30 1168 C 111.343 -5.92537 1.53513 0
M  V30 1169 N 110.48 -6.96038 0.920631 0
M  V30 1170 H 115.32 -2.52876 1.57663 0
M  V30 1171 H 112.857 -1.24199 0.788223 0
M  V30 1172 H 114.815 -4.16193 -0.289704 0
M  V30 1173 H 113.445 -3.132 -0.781393 0
M  V30 1174 H 112.497 -3.44248 1.61857 0
M  V30 1175 H 113.809 -4.60294 1.92174 0
M  V30 1176 H 112.963 -6.06653 0.0758604 0
M  V30 1177 H 111.702 -4.86622 -0.324062 0
M  V30 1178 H 110.707 -5.13482 1.9651 0
M  V30 1179 H 111.932 -6.36873 2.35733 0
M  V30 1180 H 109.878 -6.55888 0.12138 0
M  V30 1181 H 109.795 -7.3786 1.64616 0
M  V30 1182 H 111.063 -7.77725 0.525795 0
M  V30 1183 N 115.292 -0.849877 -1.32721 0
M  V30 1184 C 116.54 -0.450032 -1.97026 0
M  V30 1185 C 116.861 0.996604 -1.67609 0
M  V30 1186 O 116.131 1.6958 -0.980786 0
M  V30 1187 H 114.711 -0.163426 -0.728904 0
M  V30 1188 H 117.373 -1.08526 -1.6189 0
M  V30 1189 H 116.469 -0.591146 -3.0645 0
M  V30 1190 N 116.77 1.45427 -0.607355 0
M  V30 1191 C 117.702 2.2871 0.149752 0
M  V30 1192 C 118.715 1.39937 0.831958 0
M  V30 1193 O 119.904 1.64313 0.697385 0
M  V30 1194 C 117.004 3.15673 1.23304 0
M  V30 1195 C 116.177 4.32722 0.637996 0
M  V30 1196 C 115.236 5.00895 1.61215 0
M  V30 1197 O 114.262 5.57697 1.13854 0
M  V30 1198 N 115.464 5.00159 2.94655 0
M  V30 1199 H 118.229 2.94328 -0.564882 0
M  V30 1200 H 115.79 1.55612 -0.446823 0
M  V30 1201 H 117.782 3.58144 1.88454 0
M  V30 1202 H 116.352 2.51965 1.8502 0
M  V30 1203 H 115.572 3.93734 -0.191572 0
M  V30 1204 H 116.86 5.08321 0.220665 0
M  V30 1205 H 116.258 4.553 3.35735 0
M  V30 1206 H 114.815 5.46495 3.55228 0
M  V30 1207 N 118.248 0.346503 1.53744 0
M  V30 1208 C 119.495 -0.249104 2.00962 0
M  V30 1209 C 119.823 -1.5032 1.23426 0
M  V30 1210 O 119.078 -1.93217 0.310761 0
M  V30 1211 C 119.377 -0.605809 3.52228 0
M  V30 1212 C 119.043 0.551747 4.47512 0
M  V30 1213 C 117.705 0.86941 4.73281 0
M  V30 1214 C 120.057 1.32818 5.03993 0
M  V30 1215 C 117.385 1.96582 5.52786 0
M  V30 1216 C 119.737 2.41486 5.84694 0
M  V30 1217 C 118.401 2.73808 6.08757 0
M  V30 1218 H 117.671 -0.0911538 0.735372 0
M  V30 1219 H 120.318 0.475027 1.85515 0
M  V30 1220 H 118.623 -1.4107 3.65522 0
M  V30 1221 H 120.32 -1.07858 3.86222 0
M  V30 1222 H 116.91 0.294102 4.2759 0
M  V30 1223 H 121.094 1.09602 4.84047 0
M  V30 1224 H 116.35 2.22045 5.69654 0
M  V30 1225 H 120.524 3.02078 6.27473 0
M  V30 1226 H 118.151 3.58892 6.7015 0
M  V30 1227 N 119.726 -1.57421 0.075193 0
M  V30 1228 C 120.674 -2.14124 -0.908508 0
M  V30 1229 C 121.668 -1.07898 -1.30592 0
M  V30 1230 O 122.874 -1.26273 -1.28277 0
M  V30 1231 H 119.249 -0.684707 -0.310935 0
M  V30 1232 H 121.22 -2.95634 -0.405374 0
M  V30 1233 C 119.969 -2.72044 -2.16535 0
M  V30 1234 H 119.292 -3.53456 -1.86839 0
M  V30 1235 H 120.732 -3.15311 -2.83469 0
M  V30 1236 C 119.191 -1.66968 -2.92615 0
M  V30 1237 O 119.721 -1.0967 -3.86439 0
M  V30 1238 N 117.927 -1.37923 -2.55784 0
M  V30 1239 H 117.474 -1.84706 -1.79559 0
M  V30 1240 H 117.432 -0.67852 -3.06991 0
M  V30 1241 N 121.204 0.198386 -1.56346 0
M  V30 1242 C 122.451 0.919286 -1.80431 0
M  V30 1243 C 122.779 1.83393 -0.647866 0
M  V30 1244 O 122.034 1.92236 0.366556 0
M  V30 1245 C 122.333 1.77031 -3.10475 0
M  V30 1246 C 121.999 1.00693 -4.39513 0
M  V30 1247 C 120.661 0.796145 -4.74568 0
M  V30 1248 C 123.013 0.469559 -5.19081 0
M  V30 1249 C 120.341 0.0364588 -5.86689 0
M  V30 1250 C 122.693 -0.2769 -6.31994 0
M  V30 1251 C 121.357 -0.49873 -6.65634 0
M  V30 1252 H 120.627 0.336391 -0.660244 0
M  V30 1253 H 123.274 0.185872 -1.90596 0
M  V30 1254 H 121.579 2.5723 -2.95533 0
M  V30 1255 H 123.276 2.33065 -3.26315 0
M  V30 1256 H 119.866 1.18122 -4.12001 0
M  V30 1257 H 124.05 0.619816 -4.92414 0
M  V30 1258 H 119.306 -0.145412 -6.11227 0
M  V30 1259 H 123.48 -0.700684 -6.92866 0
M  V30 1260 H 121.107 -1.0893 -7.52355 0
M  V30 1261 N 122.682 1.50554 0.465978 0
M  V30 1262 C 123.959 1.5232 1.22712 0
M  V30 1263 C 124.339 0.270807 2.09356 0
M  V30 1264 O 123.687 -0.745541 2.15995 0
M  V30 1265 C 123.897 2.82175 2.05374 0
M  V30 1266 C 125.245 3.33033 2.6339 0
M  V30 1267 O 126.269 2.83531 2.15612 0
M  V30 1268 O 125.128 4.19336 3.50456 0
M  V30 1269 H 122.222 0.611183 0.557122 0
M  V30 1270 H 124.768 1.62847 0.477381 0
M  V30 1271 H 123.54 3.64797 1.41558 0
M  V30 1272 H 123.163 2.74675 2.87471 0
M  V30 1273 N 124.16 -0.719506 1.40217 0
M  V30 1274 C 125.11 -1.8251 1.36653 0
M  V30 1275 C 126.094 -1.59028 0.244732 0
M  V30 1276 O 127.286 -1.70268 0.483524 0
M  V30 1277 C 124.415 -3.20599 1.22763 0
M  V30 1278 C 123.501 -3.49858 2.39708 0
M  V30 1279 N 123.892 -3.49957 3.6519 0
M  V30 1280 C 122.19 -3.80297 2.33002 0
M  V30 1281 C 122.891 -3.77449 4.42614 0
M  V30 1282 N 121.867 -3.96002 3.72402 0
M  V30 1283 H 125.669 -1.80914 2.31619 0
M  V30 1284 H 123.183 -0.918455 1.33933 0
M  V30 1285 H 125.18 -3.99766 1.18292 0
M  V30 1286 H 123.84 -3.23424 0.287614 0
M  V30 1287 H 124.851 -3.309 3.98404 0
M  V30 1288 H 121.528 -3.90635 1.47346 0
M  V30 1289 H 122.918 -3.83863 5.51451 0
M  V30 1290 N 125.638 -1.25649 -0.95132 0
M  V30 1291 C 127.049 -1.09654 -1.51106 0
M  V30 1292 C 127.4 0.326615 -1.93462 0
M  V30 1293 O 126.525 1.21697 -1.78938 0
M  V30 1294 C 127.12 -1.98437 -2.74605 0
M  V30 1295 C 125.679 -1.86618 -3.2688 0
M  V30 1296 C 124.826 -1.9239 -1.99703 0
M  V30 1297 H 127.777 -1.38887 -0.767865 0
M  V30 1298 H 127.798 -1.5263 -3.48546 0
M  V30 1299 H 127.31 -3.02009 -2.43746 0
M  V30 1300 H 125.411 -0.859421 -3.62553 0
M  V30 1301 H 125.524 -2.71607 -3.94673 0
M  V30 1302 H 123.888 -1.36317 -2.15151 0
M  V30 1303 H 124.671 -2.97573 -1.71188 0
M  V30 1304 N 127.117 1.15442 -1.07289 0
M  V30 1305 C 128.394 1.82306 -0.708792 0
M  V30 1306 C 128.774 1.94991 0.808807 0
M  V30 1307 O 128.122 1.50085 1.72298 0
M  V30 1308 C 128.332 3.18695 -1.42247 0
M  V30 1309 C 129.68 3.94341 -1.57417 0
M  V30 1310 O 130.704 3.28247 -1.38319 0
M  V30 1311 O 129.563 5.12839 -1.88834 0
M  V30 1312 H 126.657 0.787628 -0.252132 0
M  V30 1313 H 129.203 1.22559 -1.17377 0
M  V30 1314 H 127.975 3.04557 -2.45684 0
M  V30 1315 H 127.598 3.86128 -0.948223 0
M  V30 1316 N 128.595 0.856903 1.32268 0
M  V30 1317 C 129.558 0.308171 2.27119 0
M  V30 1318 C 130.558 -0.533421 1.51695 0
M  V30 1319 O 131.748 -0.344607 1.70757 0
M  V30 1320 C 128.88 -0.563757 3.36206 0
M  V30 1321 H 130.073 1.14535 2.77167 0
M  V30 1322 H 127.626 0.631421 1.42978 0
M  V30 1323 H 128.361 -1.42266 2.91429 0
M  V30 1324 H 128.146 0.0386749 3.92081 0
M  V30 1325 H 129.636 -0.940386 4.06874 0
M  V30 1326 N 130.073 -1.45103 0.615059 0
M  V30 1327 C 131.32 -2.02183 0.113179 0
M  V30 1328 C 131.648 -1.48249 -1.25906 0
M  V30 1329 O 130.903 -0.650265 -1.84581 0
M  V30 1330 C 131.202 -3.57386 0.0318797 0
M  V30 1331 C 130.868 -4.30505 1.34077 0
M  V30 1332 C 129.53 -4.50197 1.69929 0
M  V30 1333 C 131.882 -4.72238 2.20546 0
M  V30 1334 C 129.21 -5.08881 2.91988 0
M  V30 1335 C 131.562 -5.32272 3.41861 0
M  V30 1336 C 130.226 -5.50187 3.77956 0
M  V30 1337 H 129.496 -0.739842 0.0414151 0
M  V30 1338 H 132.143 -1.74073 0.798168 0
M  V30 1339 H 130.448 -3.84817 -0.736409 0
M  V30 1340 H 132.145 -3.99264 -0.372712 0
M  V30 1341 H 128.735 -4.15496 1.05173 0
M  V30 1342 H 132.919 -4.56751 1.94146 0
M  V30 1343 H 128.175 -5.20939 3.2005 0
M  V30 1344 H 132.349 -5.63563 4.09109 0
M  V30 1345 H 129.976 -5.95427 4.72622 0
M  V30 1346 N 131.551 -0.354651 -1.53558 0
M  V30 1347 C 132.828 0.294281 -1.93374 0
M  V30 1348 C 133.208 1.67313 -1.28723 0
M  V30 1349 O 132.556 2.24179 -0.442247 0
M  V30 1350 C 132.766 0.355445 -3.47185 0
M  V30 1351 C 134.114 0.601007 -4.20325 0
M  V30 1352 O 135.138 0.437106 -3.53508 0
M  V30 1353 O 133.997 0.919322 -5.38712 0
M  V30 1354 H 131.091 0.174033 -0.808481 0
M  V30 1355 H 133.637 -0.406638 -1.64756 0
M  V30 1356 H 132.409 -0.611729 -3.86489 0
M  V30 1357 H 132.032 1.1027 -3.82003 0
M  V30 1358 N 133.029 1.57378 -0.0835403 0
M  V30 1359 C 133.977 2.14602 0.89714 0
M  V30 1360 C 134.971 1.08589 1.30018 0
M  V30 1361 O 136.177 1.26952 1.27606 0
M  V30 1362 H 132.552 0.686346 0.3073 0
M  V30 1363 H 134.523 2.95845 0.38969 0
M  V30 1364 C 133.272 2.73188 2.15089 0
M  V30 1365 H 132.595 3.54442 1.84962 0
M  V30 1366 H 134.035 3.1681 2.81793 0
M  V30 1367 C 132.494 1.68517 2.91725 0
M  V30 1368 O 133.024 1.11718 3.85852 0
M  V30 1369 N 131.23 1.39277 2.55049 0
M  V30 1370 H 130.777 1.85655 1.78577 0
M  V30 1371 H 130.735 0.694791 3.06627 0
M  V30 1372 N 134.507 -0.190092 1.56449 0
M  V30 1373 C 135.417 -1.25591 1.98152 0
M  V30 1374 C 136.433 -1.49519 0.889944 0
M  V30 1375 O 137.609 -1.62036 1.19609 0
M  V30 1376 C 134.674 -2.57916 2.3169 0
M  V30 1377 C 133.735 -2.42015 3.5458 0
M  V30 1378 C 132.968 -3.6803 3.8651 0
M  V30 1379 O 133.191 -4.72413 3.1966 0
M  V30 1380 O 132.125 -3.6326 4.79923 0
M  V30 1381 H 135.951 -0.931988 2.89046 0
M  V30 1382 H 133.536 -0.395488 1.4407 0
M  V30 1383 H 135.418 -3.36008 2.54316 0
M  V30 1384 H 134.093 -2.89925 1.43963 0
M  V30 1385 H 133 -1.62017 3.37196 0
M  V30 1386 H 134.333 -2.14937 4.4279 0
M  V30 1387 N 135.985 -1.50799 -0.457987 0
M  V30 1388 C 136.915 -1.73553 -1.5621 0
M  V30 1389 C 137.896 -0.584774 -1.59732 0
M  V30 1390 O 139.081 -0.825314 -1.7579 0
M  V30 1391 C 136.211 -1.84169 -2.94447 0
M  V30 1392 C 135.165 -2.99461 -3.0579 0
M  V30 1393 C 134.491 -2.95235 -4.45803 0
M  V30 1394 C 135.791 -4.39766 -2.81786 0
M  V30 1395 H 137.485 -2.66 -1.37421 0
M  V30 1396 H 135.031 -1.28002 -0.659662 0
M  V30 1397 H 136.984 -1.98672 -3.71628 0
M  V30 1398 H 135.708 -0.883545 -3.14422 0
M  V30 1399 H 134.367 -2.8463 -2.31044 0
M  V30 1400 H 134.015 -1.97239 -4.62715 0
M  V30 1401 H 133.715 -3.72642 -4.54326 0
M  V30 1402 H 135.239 -3.11803 -5.24987 0
M  V30 1403 H 136.653 -4.55054 -3.4871 0
M  V30 1404 H 135.05 -5.18722 -3.0174 0
M  V30 1405 H 136.12 -4.51229 -1.7754 0
M  V30 1406 N 137.463 0.71206 -1.40597 0
M  V30 1407 C 138.712 1.46754 -1.38369 0
M  V30 1408 C 139.025 1.95598 0.0097839 0
M  V30 1409 O 140.231 2.71059 0.154677 0
M  V30 1410 C 138.687 2.65289 -2.43207 0
M  V30 1411 C 138.295 2.23301 -3.88382 0
M  V30 1412 C 140.039 3.43008 -2.50091 0
M  V30 1413 C 137.946 3.38696 -4.84808 0
M  V30 1414 H 136.876 0.55118 -0.514506 0
M  V30 1415 H 139.527 0.774616 -1.66349 0
M  V30 1416 H 137.909 3.36769 -2.08332 0
M  V30 1417 H 139.083 1.59218 -4.32419 0
M  V30 1418 H 137.398 1.58618 -3.85006 0
M  V30 1419 H 139.995 4.28881 -3.1932 0
M  V30 1420 H 140.338 3.87065 -1.53253 0
M  V30 1421 H 140.871 2.78574 -2.83974 0
M  V30 1422 H 137.61 2.99668 -5.82992 0
M  V30 1423 H 137.13 4.01683 -4.45433 0
M  V30 1424 H 138.809 4.04712 -5.04794 0
M  V30 1425 N 138.941 1.26152 0.944643 0
M  V30 1426 C 139.871 1.09902 2.06019 0
M  V30 1427 C 140.852 0.00519538 1.70099 0
M  V30 1428 O 142.037 0.176583 1.93396 0
M  V30 1429 C 139.167 0.727562 3.39594 0
M  V30 1430 C 138.121 1.77274 3.89561 0
M  V30 1431 C 137.447 1.25569 5.19747 0
M  V30 1432 C 138.747 3.17357 4.14827 0
M  V30 1433 H 140.441 2.03217 2.19871 0
M  V30 1434 H 137.987 0.978452 1.05652 0
M  V30 1435 H 139.94 0.600777 4.17095 0
M  V30 1436 H 138.664 -0.241287 3.25707 0
M  V30 1437 H 137.323 1.88814 3.14237 0
M  V30 1438 H 136.971 0.276783 5.02238 0
M  V30 1439 H 136.671 1.95433 5.54148 0
M  V30 1440 H 138.195 1.1415 5.99835 0
M  V30 1441 H 139.609 3.08914 4.82954 0
M  V30 1442 H 138.006 3.84781 4.60504 0
M  V30 1443 H 139.076 3.63673 3.20734 0
M  V30 1444 N 140.419 -1.14872 1.07899 0
M  V30 1445 C 141.366 -2.19791 0.704319 0
M  V30 1446 C 142.336 -1.63238 -0.306987 0
M  V30 1447 O 143.521 -1.8983 -0.192171 0
M  V30 1448 C 140.661 -3.44911 0.114244 0
M  V30 1449 C 139.774 -4.15637 1.1777 0
M  V30 1450 C 138.909 -5.28324 0.552037 0
M  V30 1451 C 137.948 -5.90875 1.59789 0
M  V30 1452 N 137.085 -6.95022 0.994404 0
M  V30 1453 H 141.925 -2.5119 1.60336 0
M  V30 1454 H 139.462 -1.23356 0.801352 0
M  V30 1455 H 141.42 -4.16477 -0.245544 0
M  V30 1456 H 140.05 -3.14011 -0.74813 0
M  V30 1457 H 139.102 -3.42512 1.65499 0
M  V30 1458 H 140.414 -4.5823 1.97046 0
M  V30 1459 H 139.568 -6.06538 0.1402 0
M  V30 1460 H 138.307 -4.86939 -0.272431 0
M  V30 1461 H 137.312 -5.11369 2.01945 0
M  V30 1462 H 138.537 -6.34337 2.42474 0
M  V30 1463 H 136.483 -6.55722 0.190939 0
M  V30 1464 H 136.4 -7.36073 1.72432 0
M  V30 1465 H 137.668 -7.77123 0.608253 0
M  V30 1466 N 141.898 -0.863906 -1.31812 0
M  V30 1467 C 143.126 -0.486111 -2.01108 0
M  V30 1468 C 143.541 0.919755 -1.64882 0
M  V30 1469 O 142.898 1.60162 -0.874893 0
M  V30 1470 C 142.949 -0.626435 -3.56031 0
M  V30 1471 O 142.67 -1.97693 -3.90959 0
M  V30 1472 C 144.171 -0.248857 -4.42601 0
M  V30 1473 H 141.391 -0.190052 -0.643523 0
M  V30 1474 H 143.935 -1.1634 -1.68182 0
M  V30 1475 H 142.09 0.00322717 -3.874 0
M  V30 1476 H 142.504 -1.98034 -4.85678 0
M  V30 1477 H 143.978 -0.398016 -5.50563 0
M  V30 1478 H 144.455 0.811489 -4.31638 0
M  V30 1479 H 145.061 -0.853971 -4.16638 0
M  V30 1480 N 143.376 1.44774 -0.622745 0
M  V30 1481 C 144.306 2.33382 0.0741861 0
M  V30 1482 C 145.287 1.47719 0.843387 0
M  V30 1483 O 146.472 1.76458 0.810934 0
M  V30 1484 C 143.602 3.30663 1.06204 0
M  V30 1485 C 142.556 4.26079 0.405037 0
M  V30 1486 C 141.882 5.13165 1.5022 0
M  V30 1487 C 143.182 5.1781 -0.683414 0
M  V30 1488 H 144.876 2.91905 -0.665713 0
M  V30 1489 H 142.422 1.40363 -0.321587 0
M  V30 1490 H 144.375 3.9153 1.55827 0
M  V30 1491 H 143.099 2.70331 1.83272 0
M  V30 1492 H 141.758 3.66532 -0.0704683 0
M  V30 1493 H 141.406 4.49191 2.26355 0
M  V30 1494 H 141.106 5.77812 1.06803 0
M  V30 1495 H 142.63 5.76902 2.00041 0
M  V30 1496 H 144.044 5.72661 -0.270631 0
M  V30 1497 H 142.441 5.91015 -1.04023 0
M  V30 1498 H 143.511 4.59326 -1.55395 0
M  V30 1499 N 144.854 0.36279 1.53368 0
M  V30 1500 C 145.801 -0.485008 2.25646 0
M  V30 1501 C 146.771 -1.07982 1.2621 0
M  V30 1502 O 147.956 -1.11284 1.54986 0
M  V30 1503 C 145.096 -1.62023 3.04701 0
M  V30 1504 C 144.209 -1.05086 4.19024 0
M  V30 1505 C 143.344 -2.15496 4.85525 0
M  V30 1506 C 142.383 -1.5601 5.91884 0
M  V30 1507 N 141.52 -2.60241 6.52088 0
M  V30 1508 H 146.36 0.137864 2.97681 0
M  V30 1509 H 143.897 0.0798061 1.46883 0
M  V30 1510 H 145.855 -2.28887 3.48807 0
M  V30 1511 H 144.485 -2.2138 2.34927 0
M  V30 1512 H 143.537 -0.27259 3.79422 0
M  V30 1513 H 144.849 -0.575926 4.95464 0
M  V30 1514 H 144.003 -2.90186 5.32801 0
M  V30 1515 H 142.742 -2.66341 4.08551 0
M  V30 1516 H 141.747 -0.798338 5.43973 0
M  V30 1517 H 142.972 -1.05994 6.70777 0
M  V30 1518 H 140.918 -3.10304 5.77968 0
M  V30 1519 H 140.835 -2.17426 7.24059 0
M  V30 1520 H 142.103 -3.34641 7.04014 0
M  V30 1521 N 146.332 -1.57332 0.0918853 0
M  V30 1522 C 147.242 -2.17368 -0.882505 0
M  V30 1523 C 148.258 -1.14226 -1.31257 0
M  V30 1524 O 149.434 -1.46582 -1.38115 0
M  V30 1525 C 146.499 -2.73962 -2.12476 0
M  V30 1526 C 145.56 -3.92048 -1.7492 0
M  V30 1527 C 144.793 -4.45933 -2.93223 0
M  V30 1528 O 145.016 -3.98764 -4.07852 0
M  V30 1529 O 143.95 -5.36999 -2.71875 0
M  V30 1530 H 147.776 -3.01031 -0.40172 0
M  V30 1531 H 145.361 -1.48813 -0.132291 0
M  V30 1532 H 147.243 -3.10147 -2.85283 0
M  V30 1533 H 145.918 -1.93347 -2.59613 0
M  V30 1534 H 144.825 -3.6068 -0.993025 0
M  V30 1535 H 146.158 -4.74017 -1.32548 0
M  V30 1536 N 147.81 0.181792 -1.56548 0
M  V30 1537 C 149.059 0.898348 -1.8059 0
M  V30 1538 C 149.372 1.83862 -0.667379 0
M  V30 1539 O 150.578 2.59678 -0.792446 0
M  V30 1540 C 149.034 1.64791 -3.19956 0
M  V30 1541 C 148.642 0.751789 -4.41647 0
M  V30 1542 C 150.386 2.35331 -3.53298 0
M  V30 1543 C 148.293 1.50098 -5.72035 0
M  V30 1544 H 147.223 0.339194 -0.673397 0
M  V30 1545 H 149.874 0.151413 -1.82874 0
M  V30 1546 H 148.256 2.43921 -3.11959 0
M  V30 1547 H 149.43 -0.0018076 -4.608 0
M  V30 1548 H 147.745 0.156562 -4.16106 0
M  V30 1549 H 150.342 2.91958 -4.47956 0
M  V30 1550 H 150.685 3.10164 -2.77676 0
M  V30 1551 H 151.218 1.63154 -3.62803 0
M  V30 1552 H 147.957 0.795175 -6.50659 0
M  V30 1553 H 147.477 2.22817 -5.56878 0
M  V30 1554 H 149.156 2.05125 -6.13622 0
M  V30 1555 N 149.288 1.51039 0.449983 0
M  V30 1556 C 150.516 1.66869 1.2232 0
M  V30 1557 C 150.931 0.360727 1.85322 0
M  V30 1558 O 150.288 -0.659531 1.70166 0
M  V30 1559 C 150.339 2.77524 2.31652 0
M  V30 1560 O 150.06 4.03252 1.7123 0
M  V30 1561 C 151.561 3.04512 3.2216 0
M  V30 1562 H 148.781 0.560326 0.369155 0
M  V30 1563 H 151.325 1.97385 0.534719 0
M  V30 1564 H 149.48 2.49642 2.96239 0
M  V30 1565 H 149.894 4.64609 2.43389 0
M  V30 1566 H 151.368 3.85551 3.95038 0
M  V30 1567 H 151.845 2.16415 3.8218 0
M  V30 1568 H 152.451 3.34005 2.63288 0
M  V30 1569 N 150.766 -0.704594 1.40972 0
M  V30 1570 C 151.676 -1.84856 1.44448 0
M  V30 1571 C 152.692 -1.70726 0.335961 0
M  V30 1572 O 153.868 -1.92799 0.582276 0
M  V30 1573 C 150.933 -3.20758 1.31587 0
M  V30 1574 C 149.994 -3.47063 2.52677 0
M  V30 1575 C 149.227 -4.76481 2.4042 0
M  V30 1576 O 149.45 -5.52341 1.42391 0
M  V30 1577 O 148.384 -5.03367 3.30007 0
M  V30 1578 H 152.21 -1.8488 2.40942 0
M  V30 1579 H 149.795 -0.85647 1.22413 0
M  V30 1580 H 151.677 -4.01913 1.26665 0
M  V30 1581 H 150.352 -3.21438 0.382049 0
M  V30 1582 H 149.259 -2.65873 2.63177 0
M  V30 1583 H 150.592 -3.5119 3.44858 0
M  V30 1584 N 152.244 -1.26651 -0.937939 0
M  V30 1585 C 153.492 -1.12165 -1.68118 0
M  V30 1586 C 153.813 0.334983 -1.92101 0
M  V30 1587 O 153.083 1.23583 -1.52 0
M  V30 1588 H 151.663 -0.412093 -0.623048 0
M  V30 1589 H 154.325 -1.59027 -1.12678 0
M  V30 1590 H 153.421 -1.64289 -2.6536 0
M  V30 1591 N 153.722 1.14298 -1.08507 0
M  V30 1592 C 154.669 2.19414 -0.715965 0
M  V30 1593 C 155.639 1.63399 0.298326 0
M  V30 1594 O 156.824 1.89929 0.182101 0
M  V30 1595 C 153.964 3.44845 -0.132534 0
M  V30 1596 C 153.077 4.15007 -1.19973 0
M  V30 1597 C 152.212 5.28024 -0.580048 0
M  V30 1598 C 151.251 5.9002 -1.62921 0
M  V30 1599 N 150.388 6.94485 -1.03125 0
M  V30 1600 H 155.228 2.50336 -1.61666 0
M  V30 1601 H 152.765 1.2293 -0.807882 0
M  V30 1602 H 154.723 4.16601 0.223454 0
M  V30 1603 H 153.353 3.14403 0.731467 0
M  V30 1604 H 152.405 3.41629 -1.67313 0
M  V30 1605 H 153.717 4.57178 -1.99473 0
M  V30 1606 H 152.871 6.06455 -0.172364 0
M  V30 1607 H 151.61 4.87076 0.246603 0
M  V30 1608 H 150.615 5.10291 -2.04654 0
M  V30 1609 H 151.84 6.33042 -2.45835 0
M  V30 1610 H 149.786 6.55612 -0.225711 0
M  V30 1611 H 149.703 7.35148 -1.76334 0
M  V30 1612 H 150.971 7.7679 -0.649458 0
M  V30 1613 N 155.201 0.870884 1.31352 0
M  V30 1614 C 156.429 0.49677 2.00848 0
M  V30 1615 C 156.844 -0.910998 1.65367 0
M  V30 1616 O 156.201 -1.59696 0.883374 0
M  V30 1617 C 156.252 0.645308 3.55694 0
M  V30 1618 O 155.973 1.99764 3.89905 0
M  V30 1619 C 157.474 0.272326 4.42463 0
M  V30 1620 H 154.694 0.193462 0.642506 0
M  V30 1621 H 157.238 1.1723 1.67563 0
M  V30 1622 H 155.393 0.0173176 3.87396 0
M  V30 1623 H 155.807 2.00607 4.84621 0
M  V30 1624 H 157.281 0.427208 5.50344 0
M  V30 1625 H 157.758 -0.788587 4.32062 0
M  V30 1626 H 158.364 0.876054 4.1618 0
M  V30 1627 N 156.679 -1.44442 0.630414 0
M  V30 1628 C 157.925 -2.02351 0.134816 0
M  V30 1629 C 158.258 -1.4947 -1.23986 0
M  V30 1630 O 157.533 -0.678475 -1.82283 0
M  V30 1631 C 157.816 -3.59898 0.120707 0
M  V30 1632 C 157.669 -4.23063 1.52767 0
M  V30 1633 C 158.988 -4.36585 -0.555127 0
M  V30 1634 H 156.107 -0.73527 0.0504646 0
M  V30 1635 H 158.749 -1.72022 0.806751 0
M  V30 1636 H 156.899 -3.85868 -0.451477 0
M  V30 1637 H 158.571 -4.08202 2.14869 0
M  V30 1638 H 156.814 -3.80586 2.08175 0
M  V30 1639 H 157.485 -5.32071 1.46984 0
M  V30 1640 H 159.961 -4.16044 -0.0685429 0
M  V30 1641 H 158.837 -5.46294 -0.534185 0
M  V30 1642 H 159.098 -4.11138 -1.62535 0
M  V30 1643 N 158.157 -0.370918 -1.53173 0
M  V30 1644 C 159.089 0.507823 -2.23503 0
M  V30 1645 C 160.102 1.04182 -1.251 0
M  V30 1646 O 161.291 0.947286 -1.5129 0
M  V30 1647 C 158.391 1.71447 -2.92334 0
M  V30 1648 C 157.564 1.31105 -4.17289 0
M  V30 1649 C 156.623 2.38035 -4.69282 0
M  V30 1650 O 155.649 2.00204 -5.32829 0
M  V30 1651 N 156.851 3.69697 -4.47554 0
M  V30 1652 H 159.616 -0.0946382 -2.99551 0
M  V30 1653 H 157.177 -0.196358 -1.60705 0
M  V30 1654 H 159.169 2.42469 -3.24023 0
M  V30 1655 H 157.739 2.22368 -2.19707 0
M  V30 1656 H 156.959 0.430462 -3.91843 0
M  V30 1657 H 158.247 1.0179 -4.98514 0
M  V30 1658 H 157.645 4.03205 -3.9679 0
M  V30 1659 H 156.202 4.36807 -4.8378 0
M  V30 1660 N 159.635 1.57281 -0.100228 0
M  V30 1661 C 160.884 1.93713 0.561984 0
M  V30 1662 C 161.197 0.984492 1.69018 0
M  V30 1663 O 162.403 1.24273 2.41389 0
M  V30 1664 C 160.859 3.4421 1.05106 0
M  V30 1665 C 160.467 4.47975 -0.0476628 0
M  V30 1666 C 162.211 3.89595 1.68571 0
M  V30 1667 C 160.118 5.89631 0.457055 0
M  V30 1668 H 159.048 0.723082 0.2137 0
M  V30 1669 H 161.699 1.82644 -0.177057 0
M  V30 1670 H 160.081 3.50449 1.84395 0
M  V30 1671 H 161.255 4.53385 -0.823333 0
M  V30 1672 H 159.57 4.1223 -0.587816 0
M  V30 1673 H 162.167 4.92832 2.07414 0
M  V30 1674 H 162.51 3.28526 2.55688 0
M  V30 1675 H 163.043 3.86078 0.958562 0
M  V30 1676 H 159.782 6.54411 -0.377616 0
M  V30 1677 H 159.302 5.87681 1.19962 0
M  V30 1678 H 160.981 6.40363 0.92437 0
M  V30 1679 N 161.113 -0.173488 1.56642 0
M  V30 1680 C 162.524 -0.736155 1.71574 0
M  V30 1681 C 162.875 -1.82888 0.710389 0
M  V30 1682 O 162 -2.16017 -0.1287 0
M  V30 1683 C 162.595 -1.34211 3.11083 0
M  V30 1684 C 161.154 -1.85162 3.27707 0
M  V30 1685 C 160.301 -0.729765 2.67525 0
M  V30 1686 H 163.252 0.0518786 1.58615 0
M  V30 1687 H 163.273 -2.21178 3.09613 0
M  V30 1688 H 162.785 -0.546579 3.84232 0
M  V30 1689 H 160.886 -2.67366 2.59512 0
M  V30 1690 H 160.999 -1.99855 4.35425 0
M  V30 1691 H 159.363 -1.14965 2.27278 0
M  V30 1692 H 160.146 0.0538806 3.43258 0
M  V30 1693 N 162.591 -1.51276 -0.441967 0
M  V30 1694 C 163.837 -1.63958 -1.19355 0
M  V30 1695 C 164.17 -0.352543 -1.90973 0
M  V30 1696 O 163.445 0.647627 -1.83401 0
M  V30 1697 C 163.728 -2.83979 -2.21422 0
M  V30 1698 C 163.581 -4.22646 -1.53918 0
M  V30 1699 C 164.9 -2.99521 -3.22451 0
M  V30 1700 H 162.019 -0.596709 -0.432559 0
M  V30 1701 H 164.661 -1.83748 -0.483398 0
M  V30 1702 H 162.811 -2.67237 -2.81987 0
M  V30 1703 H 164.483 -4.51045 -0.967256 0
M  V30 1704 H 162.726 -4.25558 -0.841615 0
M  V30 1705 H 163.397 -5.02609 -2.28229 0
M  V30 1706 H 165.873 -3.14944 -2.71937 0
M  V30 1707 H 164.749 -3.85072 -3.91166 0
M  V30 1708 H 165.01 -2.11391 -3.88287 0
M  V30 1709 N 164.069 0.697108 -1.41344 0
M  V30 1710 C 165.299 1.48377 -1.43763 0
M  V30 1711 C 165.707 1.89156 -0.0408726 0
M  V30 1712 O 165.05 1.57239 0.949812 0
M  V30 1713 C 165.112 2.7781 -2.2817 0
M  V30 1714 C 164.776 2.59244 -3.76353 0
M  V30 1715 C 165.773 2.25292 -4.68551 0
M  V30 1716 C 163.458 2.74933 -4.20378 0
M  V30 1717 C 165.452 2.07264 -6.02761 0
M  V30 1718 C 163.139 2.56521 -5.54653 0
M  V30 1719 C 164.137 2.22737 -6.4566 0
M  V30 1720 O 163.825 2.04485 -7.77458 0
M  V30 1721 H 163.557 0.463842 -0.491759 0
M  V30 1722 H 166.111 0.865934 -1.86255 0
M  V30 1723 H 164.341 3.41995 -1.8049 0
M  V30 1724 H 166.03 3.39608 -2.22309 0
M  V30 1725 H 166.796 2.12787 -4.35829 0
M  V30 1726 H 162.675 3.00213 -3.49848 0
M  V30 1727 H 166.219 1.80817 -6.73759 0
M  V30 1728 H 162.116 2.68616 -5.86955 0
M  V30 1729 H 162.884 2.1926 -7.88586 0
M  V30 1730 N 165.547 1.27147 0.931209 0
M  V30 1731 C 166.824 1.0401 1.65654 0
M  V30 1732 C 167.204 -0.426297 2.06751 0
M  V30 1733 O 166.552 -1.40879 1.79904 0
M  V30 1734 C 166.762 1.99834 2.86125 0
M  V30 1735 C 168.11 2.29007 3.57549 0
M  V30 1736 O 169.134 1.97779 2.96246 0
M  V30 1737 O 167.993 2.82222 4.67989 0
M  V30 1738 H 165.087 0.396239 0.725895 0
M  V30 1739 H 167.633 1.38397 0.982056 0
M  V30 1740 H 166.405 2.98744 2.52721 0
M  V30 1741 H 166.028 1.65987 3.61295 0
M  V30 1742 N 167.025 -1.13721 1.09112 0
M  V30 1743 C 168.272 -1.84924 0.825192 0
M  V30 1744 C 168.6 -1.83347 -0.649151 0
M  V30 1745 O 167.855 -1.26449 -1.49362 0
M  V30 1746 C 168.154 -3.32861 1.30146 0
M  V30 1747 C 167.82 -3.54621 2.78486 0
M  V30 1748 C 166.482 -3.60268 3.18999 0
M  V30 1749 C 168.834 -3.62855 3.74146 0
M  V30 1750 C 166.162 -3.71679 4.53951 0
M  V30 1751 C 168.514 -3.75793 5.08883 0
M  V30 1752 C 167.178 -3.79692 5.4899 0
M  V30 1753 H 166.448 -0.676684 0.301959 0
M  V30 1754 H 169.095 -1.3428 1.36533 0
M  V30 1755 H 167.4 -3.85835 0.681064 0
M  V30 1756 H 169.097 -3.86395 1.07236 0
M  V30 1757 H 165.687 -3.50879 2.46134 0
M  V30 1758 H 169.871 -3.57775 3.43963 0
M  V30 1759 H 165.127 -3.72963 4.84467 0
M  V30 1760 H 169.301 -3.81107 5.82864 0
M  V30 1761 H 166.928 -3.88287 6.53558 0
M  V30 1762 N 168.503 -0.877838 -1.30888 0
M  V30 1763 C 169.749 -0.493426 -1.96706 0
M  V30 1764 C 170.082 0.953504 -1.6918 0
M  V30 1765 O 169.357 1.67266 -0.992594 0
M  V30 1766 C 169.64 -0.760429 -3.51979 0
M  V30 1767 C 169.493 -2.25747 -3.89048 0
M  V30 1768 C 170.812 -0.232148 -4.39487 0
M  V30 1769 H 167.931 -0.180746 -0.714493 0
M  V30 1770 H 170.573 -1.10052 -1.54882 0
M  V30 1771 H 168.723 -0.243715 -3.87735 0
M  V30 1772 H 170.395 -2.84204 -3.63354 0
M  V30 1773 H 168.638 -2.72694 -3.37373 0
M  V30 1774 H 169.309 -2.39491 -4.97341 0
M  V30 1775 H 171.785 -0.674314 -4.106 0
M  V30 1776 H 170.661 -0.448355 -5.47066 0
M  V30 1777 H 170.922 0.866297 -4.33529 0
M  V30 1778 N 169.982 1.44106 -0.638065 0
M  V30 1779 C 171.207 2.0685 -0.150916 0
M  V30 1780 C 171.632 1.47417 1.16833 0
M  V30 1781 O 170.99 0.578264 1.71831 0
M  V30 1782 C 171.038 3.60555 -0.05708 0
M  V30 1783 O 170.142 4.00465 0.984972 0
M  V30 1784 H 169.483 0.658151 -0.0879399 0
M  V30 1785 H 172.013 1.84865 -0.876707 0
M  V30 1786 H 172.023 4.07789 0.131232 0
M  V30 1787 H 170.698 4.03193 -1.02021 0
M  V30 1788 H 169.275 3.64849 0.770672 0
M  V30 1789 N 171.46 0.379036 1.52974 0
M  V30 1790 C 172.41 -0.477772 2.22938 0
M  V30 1791 C 173.394 -1.03792 1.22948 0
M  V30 1792 O 174.586 -0.965725 1.48333 0
M  V30 1793 C 171.715 -1.60994 3.03209 0
M  V30 1794 C 170.801 -1.06203 4.10587 0
M  V30 1795 N 171.192 -0.238214 5.05239 0
M  V30 1796 C 169.49 -1.33554 4.25534 0
M  V30 1797 C 170.191 0.0633235 5.81666 0
M  V30 1798 N 169.167 -0.537901 5.40932 0
M  V30 1799 H 172.969 0.158295 2.93473 0
M  V30 1800 H 170.483 0.187778 1.61311 0
M  V30 1801 H 172.48 -2.23607 3.5186 0
M  V30 1802 H 171.14 -2.24893 2.34207 0
M  V30 1803 H 172.151 0.123695 5.17752 0
M  V30 1804 H 168.828 -1.97632 3.6776 0
M  V30 1805 H 170.218 0.730161 6.67921 0
M  V30 1806 N 172.938 -1.57226 0.108567 0
M  V30 1807 C 174.163 -1.99604 -0.563303 0
M  V30 1808 C 174.588 -0.987563 -1.6009 0
M  V30 1809 O 173.946 0.0421687 -1.81251 0
M  V30 1810 C 173.994 -3.40902 -1.17552 0
M  V30 1811 O 173.098 -3.42896 -2.2912 0
M  V30 1812 H 172.439 -0.648704 -0.1417 0
M  V30 1813 H 174.969 -2.03679 0.193961 0
M  V30 1814 H 174.979 -3.78886 -1.51357 0
M  V30 1815 H 173.654 -4.1382 -0.415445 0
M  V30 1816 H 172.231 -3.1672 -1.96832 0
M  V30 1817 N 174.416 0.165178 -1.56732 0
M  V30 1818 C 175.832 0.517174 -1.50988 0
M  V30 1819 C 176.032 1.84331 -0.813894 0
M  V30 1820 O 175.088 2.49672 -0.37682 0
M  V30 1821 C 176.401 0.544261 -2.95733 0
M  V30 1822 C 177.949 0.631039 -3.06573 0
M  V30 1823 C 178.424 0.68896 -4.52788 0
M  V30 1824 N 179.915 0.751683 -4.5706 0
M  V30 1825 C 180.65 0.817177 -5.67547 0
M  V30 1826 N 180.146 0.843129 -6.8765 0
M  V30 1827 N 181.939 0.856668 -5.55534 0
M  V30 1828 H 174.09 -0.704318 -2.00382 0
M  V30 1829 H 176.353 -0.254687 -0.913148 0
M  V30 1830 H 176.059 -0.361607 -3.49836 0
M  V30 1831 H 175.933 1.3886 -3.5071 0
M  V30 1832 H 178.32 1.52733 -2.52501 0
M  V30 1833 H 178.401 -0.240095 -2.54671 0
M  V30 1834 H 178.045 -0.2031 -5.07494 0
M  V30 1835 H 177.975 1.57633 -5.02454 0
M  V30 1836 H 180.466 0.739661 -3.70591 0
M  V30 1837 H 180.779 0.894448 -7.67606 0
M  V30 1838 H 179.124 0.811304 -6.90248 0
M  V30 1839 H 182.315 0.833437 -4.60621 0
M  V30 1840 H 182.488 0.904247 -6.4166 0
M  V30 1841 N 175.894 1.51508 0.433938 0
M  V30 1842 C 176.841 1.73068 1.52696 0
M  V30 1843 C 177.811 0.572441 1.55924 0
M  V30 1844 O 178.996 0.807253 1.72882 0
M  V30 1845 C 176.136 1.86474 2.90381 0
M  V30 1846 C 175.249 3.14037 2.96656 0
M  V30 1847 C 174.384 3.18019 4.25485 0
M  V30 1848 C 173.423 4.39882 4.2564 0
M  V30 1849 N 172.56 4.41394 5.45999 0
M  V30 1850 H 177.4 2.66366 1.33615 0
M  V30 1851 H 174.937 1.32008 0.649018 0
M  V30 1852 H 176.895 1.92229 3.70275 0
M  V30 1853 H 175.525 0.965809 3.08013 0
M  V30 1854 H 174.577 3.17575 2.09404 0
M  V30 1855 H 175.889 4.0394 2.92633 0
M  V30 1856 H 175.043 3.22708 5.13755 0
M  V30 1857 H 173.782 2.2601 4.3217 0
M  V30 1858 H 172.787 4.35366 3.35763 0
M  V30 1859 H 174.012 5.33159 4.20617 0
M  V30 1860 H 171.958 3.52258 5.53399 0
M  V30 1861 H 171.875 5.25111 5.4387 0
M  V30 1862 H 173.143 4.50281 6.36292 0
M  V30 1863 N 177.372 -0.689602 1.41712 0
M  V30 1864 C 178.282 -1.83314 1.46401 0
M  V30 1865 C 179.298 -1.7036 0.35405 0
M  V30 1866 O 180.474 -1.92171 0.602692 0
M  V30 1867 C 177.539 -3.19344 1.34982 0
M  V30 1868 C 176.6 -3.44363 2.56344 0
M  V30 1869 C 175.833 -4.73904 2.45461 0
M  V30 1870 O 176.056 -5.508 1.48241 0
M  V30 1871 O 174.99 -4.99839 3.35328 0
M  V30 1872 H 178.816 -1.82314 2.42889 0
M  V30 1873 H 176.401 -0.843438 1.23315 0
M  V30 1874 H 178.283 -4.00547 1.3092 0
M  V30 1875 H 176.958 -3.21014 0.41612 0
M  V30 1876 H 175.865 -2.63067 2.65982 0
M  V30 1877 H 177.198 -3.47512 3.48563 0
M  V30 1878 N 178.85 -1.27639 -0.924453 0
M  V30 1879 C 179.76 -1.12466 -2.05885 0
M  V30 1880 C 180.776 -0.053869 -1.73917 0
M  V30 1881 O 181.952 -0.261012 -1.99702 0
M  V30 1882 C 179.017 -0.776768 -3.37886 0
M  V30 1883 C 178.078 -1.92878 -3.83532 0
M  V30 1884 C 177.311 -1.59739 -5.09234 0
M  V30 1885 O 177.534 -0.506782 -5.68144 0
M  V30 1886 O 176.468 -2.43761 -5.50331 0
M  V30 1887 H 180.294 -2.07671 -2.21599 0
M  V30 1888 H 177.879 -1.06857 -1.04413 0
M  V30 1889 H 179.761 -0.596229 -4.17161 0
M  V30 1890 H 178.436 0.145732 -3.23372 0
M  V30 1891 H 177.343 -2.1644 -3.0513 0
M  V30 1892 H 178.676 -2.8316 -4.02593 0
M  V30 1893 N 180.328 1.1314 -1.09713 0
M  V30 1894 C 181.556 1.88321 -0.856898 0
M  V30 1895 C 181.971 1.79276 0.592073 0
M  V30 1896 O 181.328 1.16142 1.40774 0
M  V30 1897 C 181.379 3.37812 -1.28706 0
M  V30 1898 O 181.1 3.46627 -2.67921 0
M  V30 1899 C 182.601 4.29952 -1.07964 0
M  V30 1900 H 179.821 0.596094 -0.308079 0
M  V30 1901 H 182.365 1.43205 -1.45988 0
M  V30 1902 H 180.52 3.805 -0.727912 0
M  V30 1903 H 180.934 4.39579 -2.8613 0
M  V30 1904 H 182.408 5.33159 -1.42986 0
M  V30 1905 H 182.885 4.39196 -0.0176577 0
M  V30 1906 H 183.491 3.93036 -1.62489 0
M  V30 1907 N 181.806 0.884767 1.30421 0
M  V30 1908 C 183.052 0.503851 1.96441 0
M  V30 1909 C 183.385 -0.944518 1.69684 0
M  V30 1910 O 182.66 -1.66737 1.00145 0
M  V30 1911 C 182.943 0.779085 3.51571 0
M  V30 1912 C 182.796 2.27807 3.87846 0
M  V30 1913 C 184.115 0.255452 4.39358 0
M  V30 1914 H 181.234 0.184533 0.713524 0
M  V30 1915 H 183.876 1.10872 1.54297 0
M  V30 1916 H 182.026 0.264274 3.876 0
M  V30 1917 H 183.698 2.86127 3.61841 0
M  V30 1918 H 181.941 2.74479 3.35922 0
M  V30 1919 H 182.612 2.42125 4.96064 0
M  V30 1920 H 185.088 0.696079 4.10236 0
M  V30 1921 H 183.964 0.477361 5.4682 0
M  V30 1922 H 184.225 -0.843293 4.33983 0
M  V30 1923 N 183.284 -1.43765 0.645699 0
M  V30 1924 C 184.512 -2.06253 0.163556 0
M  V30 1925 C 184.927 -1.48352 -1.16778 0
M  V30 1926 O 184.284 -0.611932 -1.71935 0
M  V30 1927 C 184.335 -3.61453 0.0583186 0
M  V30 1928 O 184.056 -4.172 1.33702 0
M  V30 1929 C 185.557 -4.41002 -0.450795 0
M  V30 1930 H 182.777 -0.665413 0.0864077 0
M  V30 1931 H 185.321 -1.84396 0.884222 0
M  V30 1932 H 183.476 -3.82522 -0.612865 0
M  V30 1933 H 183.89 -5.10791 1.19131 0
M  V30 1934 H 185.364 -5.49966 -0.473403 0
M  V30 1935 H 185.841 -4.13488 -1.48068 0
M  V30 1936 H 186.447 -4.24886 0.187637 0
M  V30 1937 N 184.763 -0.387143 -1.52771 0
M  V30 1938 C 186.009 0.196025 -2.0185 0
M  V30 1939 C 186.342 1.46641 -1.27319 0
M  V30 1940 O 185.617 1.90889 -0.373032 0
M  V30 1941 C 185.9 0.466136 -3.5707 0
M  V30 1942 C 185.753 -0.819385 -4.42274 0
M  V30 1943 C 187.072 1.25768 -4.21747 0
M  V30 1944 H 184.191 0.0697708 -0.73369 0
M  V30 1945 H 186.833 -0.516286 -1.82851 0
M  V30 1946 H 184.983 1.07293 -3.7339 0
M  V30 1947 H 186.655 -1.4563 -4.37709 0
M  V30 1948 H 184.898 -1.43517 -4.09372 0
M  V30 1949 H 185.569 -0.585065 -5.48891 0
M  V30 1950 H 188.045 0.744167 -4.09391 0
M  V30 1951 H 186.921 1.41541 -5.30337 0
M  V30 1952 H 187.182 2.27228 -3.79236 0
M  V30 1953 N 186.241 1.57166 -0.116904 0
M  V30 1954 C 187.471 1.99184 0.548586 0
M  V30 1955 C 187.879 0.995436 1.60897 0
M  V30 1956 O 187.222 -0.0201293 1.83689 0
M  V30 1957 C 187.284 3.37611 1.23526 0
M  V30 1958 C 186.948 4.55857 0.323077 0
M  V30 1959 C 187.945 5.18056 -0.437476 0
M  V30 1960 C 185.63 5.01751 0.234761 0
M  V30 1961 C 187.624 6.24536 -1.2741 0
M  V30 1962 C 185.311 6.08093 -0.605496 0
M  V30 1963 C 186.309 6.69352 -1.35856 0
M  V30 1964 O 185.997 7.7364 -2.18487 0
M  V30 1965 H 185.729 0.659148 0.149999 0
M  V30 1966 H 188.283 2.0443 -0.199428 0
M  V30 1967 H 186.513 3.29113 2.0303 0
M  V30 1968 H 188.202 3.63932 1.79745 0
M  V30 1969 H 188.968 4.83516 -0.379105 0
M  V30 1970 H 184.847 4.53817 0.810601 0
M  V30 1971 H 188.391 6.72281 -1.86237 0
M  V30 1972 H 184.288 6.42063 -0.665268 0
M  V30 1973 H 185.056 7.90727 -2.11406 0
M  V30 1974 N 187.719 -0.156864 1.56817 0
M  V30 1975 C 189.13 -0.717916 1.72345 0
M  V30 1976 C 189.481 -1.82124 0.729747 0
M  V30 1977 O 188.606 -2.16141 -0.105781 0
M  V30 1978 C 189.201 -1.30904 3.12489 0
M  V30 1979 C 187.76 -1.81676 3.29653 0
M  V30 1980 C 186.907 -0.701349 2.68284 0
M  V30 1981 H 189.858 0.0686989 1.58551 0
M  V30 1982 H 189.879 -2.17882 3.11942 0
M  V30 1983 H 189.391 -0.505796 3.8479 0
M  V30 1984 H 187.492 -2.64598 2.62333 0
M  V30 1985 H 187.605 -1.95226 4.3752 0
M  V30 1986 H 185.969 -1.12548 2.28484 0
M  V30 1987 H 186.752 0.0902846 3.43181 0
M  V30 1988 N 189.197 -1.51736 -0.425897 0
M  V30 1989 C 190.16 -1.73271 -1.50032 0
M  V30 1990 C 191.16 -0.602639 -1.4908 0
M  V30 1991 O 192.35 -0.87033 -1.509 0
M  V30 1992 C 189.482 -1.79969 -2.89523 0
M  V30 1993 H 190.675 -2.69172 -1.32237 0
M  V30 1994 H 188.228 -1.41899 -0.65532 0
M  V30 1995 H 188.963 -0.859241 -3.1271 0
M  V30 1996 H 188.748 -2.62109 -2.91619 0
M  V30 1997 H 190.238 -1.9843 -3.67444 0
M  V30 1998 N 190.675 0.682077 -1.42076 0
M  V30 1999 C 191.952 1.43755 -1.32642 0
M  V30 2000 C 192.332 2.11063 0.0396611 0
M  V30 2001 O 191.68 2.02701 1.05474 0
M  V30 2002 C 191.89 2.44596 -2.48946 0
M  V30 2003 C 193.238 3.09454 -2.9073 0
M  V30 2004 O 194.262 2.54922 -2.48783 0
M  V30 2005 O 193.121 4.08253 -3.63307 0
M  V30 2006 H 190.215 0.640857 -0.522715 0
M  V30 2007 H 192.761 0.711415 -1.54068 0
M  V30 2008 H 191.533 1.93609 -3.40046 0
M  V30 2009 H 191.156 3.24701 -2.29467 0
M  V30 2010 N 192.153 1.28127 0.917671 0
M  V30 2011 C 193.399 1.15223 1.66888 0
M  V30 2012 C 193.732 -0.299293 1.9188 0
M  V30 2013 O 193.007 -1.21805 1.51637 0
M  V30 2014 C 193.29 1.94706 3.02922 0
M  V30 2015 C 193.143 3.47898 2.85109 0
M  V30 2016 C 194.462 1.75939 4.03402 0
M  V30 2017 H 191.581 0.419946 0.605652 0
M  V30 2018 H 194.223 1.57398 1.06423 0
M  V30 2019 H 192.373 1.58864 3.54534 0
M  V30 2020 H 194.045 3.93624 2.40537 0
M  V30 2021 H 192.288 3.7373 2.20246 0
M  V30 2022 H 192.959 3.98765 3.81694 0
M  V30 2023 H 195.435 2.07209 3.60837 0
M  V30 2024 H 194.311 2.33931 4.96556 0
M  V30 2025 H 194.572 0.709877 4.36364 0
M  V30 2026 N 193.631 -1.12557 1.10312 0
M  V30 2027 C 194.877 -1.84311 0.846011 0
M  V30 2028 C 195.21 -1.83805 -0.626859 0
M  V30 2029 O 194.485 -1.28268 -1.46211 0
M  V30 2030 C 194.768 -3.32048 1.39341 0
M  V30 2031 C 194.621 -3.41016 2.93305 0
M  V30 2032 C 195.94 -4.27764 1.03468 0
M  V30 2033 H 193.059 -0.669192 0.30879 0
M  V30 2034 H 195.701 -1.32057 1.36605 0
M  V30 2035 H 193.851 -3.76678 0.951087 0
M  V30 2036 H 195.523 -3.05031 3.46055 0
M  V30 2037 H 193.766 -2.81603 3.29973 0
M  V30 2038 H 194.437 -4.44948 3.26689 0
M  V30 2039 H 196.913 -3.91253 1.41633 0
M  V30 2040 H 195.789 -5.29549 1.44463 0
M  V30 2041 H 196.05 -4.42064 -0.0560404 0
M  V30 2042 N 195.109 -0.891671 -1.2995 0
M  V30 2043 C 196.039 -0.379797 -2.30391 0
M  V30 2044 C 197.02 0.540919 -1.6127 0
M  V30 2045 O 198.205 0.453352 -1.88834 0
M  V30 2046 C 195.335 0.400654 -3.44981 0
M  V30 2047 C 194.289 -0.428905 -4.25846 0
M  V30 2048 C 193.615 0.478557 -5.32554 0
M  V30 2049 C 194.915 -1.67458 -4.94727 0
M  V30 2050 H 196.609 -1.21914 -2.73454 0
M  V30 2051 H 194.155 -0.587675 -1.31462 0
M  V30 2052 H 196.108 0.769434 -4.14316 0
M  V30 2053 H 194.832 1.27371 -3.0074 0
M  V30 2054 H 193.491 -0.779911 -3.58208 0
M  V30 2055 H 193.139 1.34951 -4.84559 0
M  V30 2056 H 192.839 -0.0727433 -5.87555 0
M  V30 2057 H 194.363 0.843705 -6.04743 0
M  V30 2058 H 195.777 -1.376 -5.56542 0
M  V30 2059 H 194.174 -2.16659 -5.59624 0
M  V30 2060 H 195.244 -2.41518 -4.20473 0
M  V30 2061 N 196.587 1.43421 -0.653314 0
M  V30 2062 C 197.834 2.01812 -0.166745 0
M  V30 2063 C 198.162 1.51535 1.21931 0
M  V30 2064 O 197.417 0.698975 1.82792 0
M  V30 2065 C 197.716 3.57176 -0.126623 0
M  V30 2066 C 197.382 4.26798 -1.45444 0
M  V30 2067 C 196.044 4.45534 -1.81805 0
M  V30 2068 C 198.396 4.66225 -2.32989 0
M  V30 2069 C 195.724 5.00961 -3.05377 0
M  V30 2070 C 198.076 5.23021 -3.55853 0
M  V30 2071 C 196.74 5.39973 -3.9241 0
M  V30 2072 H 196.01 0.738484 -0.0610162 0
M  V30 2073 H 198.657 1.71896 -0.84404 0
M  V30 2074 H 196.962 3.86634 0.634123 0
M  V30 2075 H 198.659 4.00112 0.266723 0
M  V30 2076 H 195.249 4.12561 -1.16153 0
M  V30 2077 H 199.433 4.51443 -2.06187 0
M  V30 2078 H 194.689 5.12271 -3.3375 0
M  V30 2079 H 198.863 5.52518 -4.23907 0
M  V30 2080 H 196.49 5.82687 -4.88242 0
M  V30 2081 N 198.065 0.39524 1.52563 0
M  V30 2082 C 198.975 -0.444232 2.30356 0
M  V30 2083 C 199.991 -1.06615 1.37511 0
M  V30 2084 O 201.167 -1.07067 1.70583 0
M  V30 2085 C 198.232 -1.55315 3.09964 0
M  V30 2086 C 197.293 -0.955734 4.18526 0
M  V30 2087 C 196.526 -2.01181 4.9433 0
M  V30 2088 O 196.749 -3.22781 4.70285 0
M  V30 2089 O 195.683 -1.62579 5.79527 0
M  V30 2090 H 199.509 0.189667 3.03107 0
M  V30 2091 H 197.094 0.1588 1.48554 0
M  V30 2092 H 198.976 -2.19724 3.59582 0
M  V30 2093 H 197.651 -2.17191 2.4002 0
M  V30 2094 H 196.558 -0.274743 3.7309 0
M  V30 2095 H 197.891 -0.381109 4.90722 0
M  V30 2096 N 199.544 -1.57102 0.125237 0
M  V30 2097 C 200.792 -1.95021 -0.530198 0
M  V30 2098 C 201.113 -1.00982 -1.66816 0
M  V30 2099 O 200.383 -0.0672693 -1.95784 0
M  V30 2100 H 198.963 -0.720046 -0.198853 0
M  V30 2101 H 201.625 -1.93916 0.19564 0
M  V30 2102 H 200.721 -2.98211 -0.920681 0
M  V30 2103 N 201.022 0.148545 -1.56898 0
M  V30 2104 C 202.271 0.85984 -1.82454 0
M  V30 2105 C 202.584 1.82406 -0.706229 0
M  V30 2106 O 203.79 2.57938 -0.847349 0
M  V30 2107 C 202.246 1.57967 -3.2338 0
M  V30 2108 C 201.854 0.65794 -4.43142 0
M  V30 2109 C 203.598 2.27784 -3.58211 0
M  V30 2110 C 201.505 1.3793 -5.75091 0
M  V30 2111 H 200.435 0.324834 -0.68044 0
M  V30 2112 H 203.086 0.112588 -1.83154 0
M  V30 2113 H 201.468 2.37249 -3.17063 0
M  V30 2114 H 202.642 -0.0995497 -4.60692 0
M  V30 2115 H 200.957 0.0682643 -4.16344 0
M  V30 2116 H 203.554 2.8239 -4.54048 0
M  V30 2117 H 203.897 3.04204 -2.84193 0
M  V30 2118 H 204.43 1.55421 -3.66182 0
M  V30 2119 H 201.169 0.656982 -6.52199 0
M  V30 2120 H 200.689 2.10954 -5.61479 0
M  V30 2121 H 202.368 1.92063 -6.17835 0
M  V30 2122 N 202.5 1.5196 0.417844 0
M  V30 2123 C 203.43 1.77634 1.51554 0
M  V30 2124 C 204.411 0.626918 1.58126 0
M  V30 2125 O 205.596 0.871632 1.7354 0
M  V30 2126 C 202.726 1.91911 2.8946 0
M  V30 2127 C 201.68 3.07463 2.97743 0
M  V30 2128 C 201.006 3.06951 4.37819 0
M  V30 2129 C 202.306 4.47082 2.70027 0
M  V30 2130 H 204 2.6955 1.3032 0
M  V30 2131 H 201.546 1.29706 0.625492 0
M  V30 2132 H 203.499 2.08455 3.6623 0
M  V30 2133 H 202.223 0.966598 3.11969 0
M  V30 2134 H 200.882 2.90656 2.23416 0
M  V30 2135 H 200.53 2.09438 4.57323 0
M  V30 2136 H 200.23 3.84556 4.44286 0
M  V30 2137 H 201.754 3.25613 5.16535 0
M  V30 2138 H 203.168 4.6414 3.36522 0
M  V30 2139 H 201.565 5.2654 2.87881 0
M  V30 2140 H 202.635 4.55777 1.65514 0
M  V30 2141 N 203.978 -0.674533 1.42435 0
M  V30 2142 C 204.941 -1.76986 1.45632 0
M  V30 2143 C 205.941 -1.5708 0.343871 0
M  V30 2144 O 207.131 -1.63367 0.604709 0
M  V30 2145 C 204.263 -3.15623 1.28822 0
M  V30 2146 H 205.456 -1.75539 2.43158 0
M  V30 2147 H 203.009 -0.884189 1.28887 0
M  V30 2148 H 203.744 -3.22696 0.322193 0
M  V30 2149 H 203.529 -3.31475 2.09444 0
M  V30 2150 H 205.019 -3.95537 1.33942 0
M  V30 2151 N 205.456 -1.28612 -0.910864 0
M  V30 2152 C 206.703 -1.15934 -1.66029 0
M  V30 2153 C 207.031 0.291483 -1.92303 0
M  V30 2154 O 206.286 1.22816 -1.52364 0
M  V30 2155 C 206.585 -1.90624 -3.0232 0
M  V30 2156 C 206.251 -3.40405 -2.95695 0
M  V30 2157 C 204.913 -3.81255 -2.93595 0
M  V30 2158 C 207.265 -4.359 -2.85728 0
M  V30 2159 C 204.593 -5.15936 -2.79334 0
M  V30 2160 C 206.945 -5.70657 -2.73007 0
M  V30 2161 C 205.609 -6.10779 -2.69267 0
M  V30 2162 H 204.879 -0.424234 -0.607541 0
M  V30 2163 H 207.526 -1.5942 -1.06101 0
M  V30 2164 H 205.831 -1.39696 -3.6605 0
M  V30 2165 H 207.528 -1.78228 -3.59215 0
M  V30 2166 H 204.118 -3.07927 -2.98125 0
M  V30 2167 H 208.302 -4.053 -2.86436 0
M  V30 2168 H 203.558 -5.46146 -2.74835 0
M  V30 2169 H 207.732 -6.44311 -2.64264 0
M  V30 2170 H 205.359 -7.1509 -2.57974 0
M  V30 2171 N 206.934 1.1197 -1.10907 0
M  V30 2172 C 208.164 1.8713 -0.875553 0
M  V30 2173 C 208.572 1.8016 0.577843 0
M  V30 2174 O 207.915 1.17699 1.41042 0
M  V30 2175 C 207.977 3.37005 -1.2517 0
M  V30 2176 C 207.641 3.67748 -2.71313 0
M  V30 2177 C 208.638 3.65698 -3.69542 0
M  V30 2178 C 206.323 3.96928 -3.07821 0
M  V30 2179 C 208.317 3.92395 -5.023 0
M  V30 2180 C 206.004 4.23284 -4.40765 0
M  V30 2181 C 207.002 4.21005 -5.37814 0
M  V30 2182 O 206.69 4.46704 -6.68364 0
M  V30 2183 H 206.422 0.598786 -0.313737 0
M  V30 2184 H 208.976 1.42568 -1.47863 0
M  V30 2185 H 207.206 3.82146 -0.591741 0
M  V30 2186 H 208.895 3.93519 -0.994877 0
M  V30 2187 H 209.661 3.43211 -3.42682 0
M  V30 2188 H 205.54 3.97841 -2.32902 0
M  V30 2189 H 209.084 3.90531 -5.78041 0
M  V30 2190 H 204.981 4.45246 -4.67361 0
M  V30 2191 H 205.749 4.64299 -6.74069 0
M  V30 2192 N 208.412 0.89855 1.29475 0
M  V30 2193 C 209.637 0.538561 2.00285 0
M  V30 2194 C 210.062 -0.869135 1.66816 0
M  V30 2195 O 209.42 -1.57831 0.892145 0
M  V30 2196 C 209.468 0.736475 3.52999 0
M  V30 2197 O 208.572 -0.211537 4.11857 0
M  V30 2198 H 207.913 0.210563 0.62973 0
M  V30 2199 H 210.443 1.20982 1.64998 0
M  V30 2200 H 210.453 0.640685 4.02938 0
M  V30 2201 H 209.128 1.76276 3.76696 0
M  V30 2202 H 207.705 -0.0682991 3.72837 0
M  V30 2203 N 209.89 -1.43072 0.660911 0
M  V30 2204 C 210.822 -2.29108 -0.0647641 0
M  V30 2205 C 211.835 -1.42928 -0.779448 0
M  V30 2206 O 213.024 -1.66788 -0.635921 0
M  V30 2207 C 210.124 -3.20032 -1.11503 0
M  V30 2208 C 209.297 -4.34792 -0.476955 0
M  V30 2209 C 208.356 -5.06534 -1.42513 0
M  V30 2210 O 207.382 -5.61538 -0.930771 0
M  V30 2211 N 208.584 -5.1075 -2.75889 0
M  V30 2212 H 211.349 -2.92029 0.673731 0
M  V30 2213 H 208.91 -1.53846 0.50427 0
M  V30 2214 H 210.902 -3.64892 -1.75032 0
M  V30 2215 H 209.472 -2.58658 -1.75541 0
M  V30 2216 H 208.692 -3.92752 0.337572 0
M  V30 2217 H 209.98 -5.0879 -0.0318525 0
M  V30 2218 H 209.378 -4.67447 -3.18606 0
M  V30 2219 H 207.935 -5.59302 -3.347 0
M  V30 2220 N 211.368 -0.403325 -1.52352 0
M  V30 2221 C 212.278 0.432009 -2.30588 0
M  V30 2222 C 213.294 1.05884 -1.38075 0
M  V30 2223 O 214.47 1.06161 -1.71148 0
M  V30 2224 C 211.535 1.53669 -3.10784 0
M  V30 2225 C 210.596 0.933525 -4.19027 0
M  V30 2226 C 209.829 1.98557 -4.9539 0
M  V30 2227 O 210.052 3.20283 -4.71991 0
M  V30 2228 O 208.986 1.59504 -5.80381 0
M  V30 2229 H 212.812 -0.205739 -3.03002 0
M  V30 2230 H 210.397 -0.166675 -1.48467 0
M  V30 2231 H 212.279 2.17814 -3.60742 0
M  V30 2232 H 210.954 2.15915 -2.41169 0
M  V30 2233 H 209.861 0.254954 -3.7323 0
M  V30 2234 H 211.194 0.35508 -4.90918 0
M  V30 2235 N 212.846 1.57033 -0.133567 0
M  V30 2236 C 214.092 1.95976 0.521649 0
M  V30 2237 C 214.425 1.01779 1.65393 0
M  V30 2238 O 213.7 0.0576581 1.94415 0
M  V30 2239 C 213.983 3.44738 1.04057 0
M  V30 2240 C 213.836 4.49711 -0.0892897 0
M  V30 2241 C 215.155 3.95682 1.92675 0
M  V30 2242 H 212.274 0.712579 0.188149 0
M  V30 2243 H 214.916 1.88813 -0.212076 0
M  V30 2244 H 213.066 3.50973 1.66583 0
M  V30 2245 H 214.738 4.55565 -0.725152 0
M  V30 2246 H 212.981 4.27261 -0.750378 0
M  V30 2247 H 213.652 5.51099 0.315284 0
M  V30 2248 H 216.128 3.91841 1.39998 0
M  V30 2249 H 215.004 5.00262 2.25897 0
M  V30 2250 H 215.265 3.37239 2.85872 0
M  V30 2251 N 214.325 -0.140222 1.56975 0
M  V30 2252 C 215.741 -0.493088 1.51792 0
M  V30 2253 C 215.941 -1.83013 0.843116 0
M  V30 2254 O 214.997 -2.49041 0.416493 0
M  V30 2255 C 216.31 -0.497144 2.96562 0
M  V30 2256 C 217.858 -0.582186 3.07538 0
M  V30 2257 C 218.333 -0.616838 4.53827 0
M  V30 2258 N 219.824 -0.678873 4.58198 0
M  V30 2259 C 220.559 -0.726782 5.68775 0
M  V30 2260 N 220.055 -0.733623 6.88905 0
M  V30 2261 N 221.848 -0.768179 5.56826 0
M  V30 2262 H 213.999 0.736108 1.99237 0
M  V30 2263 H 216.262 0.269182 0.90898 0
M  V30 2264 H 215.968 0.417217 3.49217 0
M  V30 2265 H 215.842 -1.33263 3.52875 0
M  V30 2266 H 218.229 -1.48697 2.54899 0
M  V30 2267 H 218.31 0.280581 2.54257 0
M  V30 2268 H 217.954 0.283812 5.07106 0
M  V30 2269 H 217.884 -1.49619 5.04898 0
M  V30 2270 H 220.375 -0.68061 3.7172 0
M  V30 2271 H 220.688 -0.772215 7.68932 0
M  V30 2272 H 219.033 -0.701389 6.91452 0
M  V30 2273 H 222.224 -0.760051 4.61888 0
M  V30 2274 H 222.397 -0.80205 6.43017 0
M  V30 2275 N 215.803 -1.52179 -0.40978 0
M  V30 2276 C 217.08 -1.56769 -1.16974 0
M  V30 2277 C 217.46 -0.348322 -2.08206 0
M  V30 2278 O 216.808 0.664862 -2.18613 0
M  V30 2279 C 217.018 -2.89603 -1.9476 0
M  V30 2280 C 218.366 -3.42579 -2.50849 0
M  V30 2281 O 219.39 -2.91338 -2.04941 0
M  V30 2282 O 218.249 -4.32054 -3.34652 0
M  V30 2283 H 215.343 -0.631439 -0.534054 0
M  V30 2284 H 217.889 -1.64507 -0.416613 0
M  V30 2285 H 216.661 -3.698 -1.27921 0
M  V30 2286 H 216.284 -2.85155 -2.77079 0
M  V30 2287 N 217.281 0.66697 -1.42791 0
M  V30 2288 C 218.211 1.79218 -1.49677 0
M  V30 2289 C 219.192 1.66405 -0.352623 0
M  V30 2290 O 220.377 1.85708 -0.567993 0
M  V30 2291 C 217.507 3.17565 -1.40605 0
M  V30 2292 C 216.461 3.45124 -2.53127 0
M  V30 2293 C 215.787 4.83127 -2.29112 0
M  V30 2294 C 217.087 3.41236 -3.95418 0
M  V30 2295 H 218.781 1.73713 -2.43853 0
M  V30 2296 H 216.327 0.83432 -1.17367 0
M  V30 2297 H 218.28 3.96022 -1.44029 0
M  V30 2298 H 217.004 3.23767 -0.429271 0
M  V30 2299 H 215.663 2.69031 -2.49034 0
M  V30 2300 H 215.311 4.85988 -1.29709 0
M  V30 2301 H 215.011 5.02528 -3.04531 0
M  V30 2302 H 216.535 5.63859 -2.34297 0
M  V30 2303 H 217.949 4.09651 -4.01073 0
M  V30 2304 H 216.346 3.72173 -4.70752 0
M  V30 2305 H 217.416 2.39665 -4.21532 0
M  V30 2306 N 218.759 1.29093 0.90403 0
M  V30 2307 C 220.006 1.16813 1.65411 0
M  V30 2308 C 220.334 -0.28128 1.92455 0
M  V30 2309 O 219.589 -1.22006 1.53013 0
M  V30 2310 C 219.888 1.92224 3.01305 0
M  V30 2311 C 219.554 3.41968 2.93885 0
M  V30 2312 C 218.216 3.82807 2.91569 0
M  V30 2313 C 220.568 4.37409 2.83413 0
M  V30 2314 C 217.896 5.1741 2.76594 0
M  V30 2315 C 220.248 5.72097 2.69977 0
M  V30 2316 C 218.912 6.12199 2.66024 0
M  V30 2317 H 218.182 0.42745 0.605283 0
M  V30 2318 H 220.829 1.59981 1.05254 0
M  V30 2319 H 219.134 1.41635 3.65304 0
M  V30 2320 H 220.831 1.80131 3.58265 0
M  V30 2321 H 217.421 3.09504 2.96488 0
M  V30 2322 H 221.605 4.06813 2.84283 0
M  V30 2323 H 216.861 5.47596 2.71935 0
M  V30 2324 H 221.035 6.45704 2.60844 0
M  V30 2325 H 218.662 7.16448 2.54178 0
M  V30 2326 N 220.237 -1.11381 1.11499 0
M  V30 2327 C 221.169 -2.17207 0.731704 0
M  V30 2328 C 222.182 -1.61066 -0.236957 0
M  V30 2329 O 223.371 -1.78489 -0.0197591 0
M  V30 2330 C 220.471 -3.38846 0.0607624 0
M  V30 2331 C 219.644 -4.24451 1.0564 0
M  V30 2332 C 218.703 -5.24562 0.4149 0
M  V30 2333 O 217.729 -5.59071 1.069 0
M  V30 2334 N 218.931 -5.74651 -0.821943 0
M  V30 2335 H 221.696 -2.50699 1.64225 0
M  V30 2336 H 219.257 -1.26908 1.00529 0
M  V30 2337 H 221.249 -4.02911 -0.380139 0
M  V30 2338 H 219.819 -3.03411 -0.752376 0
M  V30 2339 H 219.039 -3.56833 1.67524 0
M  V30 2340 H 220.327 -4.78486 1.72998 0
M  V30 2341 H 219.725 -5.48797 -1.37252 0
M  V30 2342 H 218.282 -6.40549 -1.20582 0
M  V30 2343 N 221.715 -0.905404 -1.28997 0
M  V30 2344 C 222.648 -0.331959 -2.25773 0
M  V30 2345 C 223.626 0.559099 -1.52685 0
M  V30 2346 O 224.81 0.50463 -1.8162 0
M  V30 2347 C 221.937 0.526276 -3.34586 0
M  V30 2348 C 220.983 -0.298249 -4.25456 0
M  V30 2349 S 221.816 -1.69968 -5.0781 0
M  V30 2350 C 222.972 -0.848519 -6.20122 0
M  V30 2351 H 223.205 -1.15222 -2.74064 0
M  V30 2352 H 220.738 -0.706112 -1.37308 0
M  V30 2353 H 222.696 1.01565 -3.97737 0
M  V30 2354 H 221.357 1.32084 -2.84978 0
M  V30 2355 H 220.55 0.357607 -5.0273 0
M  V30 2356 H 220.152 -0.720968 -3.66985 0
M  V30 2357 H 222.444 -0.0744325 -6.77459 0
M  V30 2358 H 223.387 -1.59353 -6.89937 0
M  V30 2359 H 223.795 -0.400383 -5.63078 0
M  V30 2360 N 223.193 1.4272 -0.668489 0
M  V30 2361 C 224.14 2.30796 0.0137489 0
M  V30 2362 C 225.11 1.4561 0.799177 0
M  V30 2363 O 226.295 1.74453 0.772702 0
M  V30 2364 C 223.435 3.31377 0.963507 0
M  V30 2365 C 222.548 4.31655 0.172569 0
M  V30 2366 C 221.683 5.19312 1.1175 0
M  V30 2367 C 220.722 6.11274 0.317886 0
M  V30 2368 N 219.859 6.91504 1.2152 0
M  V30 2369 H 224.699 2.88585 -0.743161 0
M  V30 2370 H 222.236 1.42154 -0.378226 0
M  V30 2371 H 224.194 3.88214 1.52792 0
M  V30 2372 H 222.824 2.75202 1.68712 0
M  V30 2373 H 221.876 3.76988 -0.508374 0
M  V30 2374 H 223.188 4.96779 -0.448527 0
M  V30 2375 H 222.342 5.80851 1.75206 0
M  V30 2376 H 221.081 4.5435 1.77249 0
M  V30 2377 H 220.086 5.48809 -0.329918 0
M  V30 2378 H 221.311 6.78283 -0.332917 0
M  V30 2379 H 219.257 6.29176 1.85671 0
M  V30 2380 H 219.174 7.53209 0.649036 0
M  V30 2381 H 220.442 7.57535 1.83742 0
M  V30 2382 N 224.671 0.411399 1.52136 0
M  V30 2383 C 225.601 -0.404015 2.29978 0
M  V30 2384 C 226.582 -1.04412 1.34284 0
M  V30 2385 O 227.767 -1.0527 1.63192 0
M  V30 2386 C 224.897 -1.5197 3.12286 0
M  V30 2387 C 223.851 -1.00448 4.16046 0
M  V30 2388 C 223.177 -2.21393 4.86712 0
M  V30 2389 C 224.477 -0.0569336 5.22269 0
M  V30 2390 H 226.171 0.245529 2.98392 0
M  V30 2391 H 223.717 0.119525 1.43503 0
M  V30 2392 H 225.67 -2.09715 3.6551 0
M  V30 2393 H 224.394 -2.19716 2.41646 0
M  V30 2394 H 223.053 -0.449421 3.63835 0
M  V30 2395 H 222.701 -2.87699 4.12599 0
M  V30 2396 H 222.401 -1.87571 5.56858 0
M  V30 2397 H 223.925 -2.7974 5.4275 0
M  V30 2398 H 225.339 -0.54325 5.7072 0
M  V30 2399 H 223.736 0.192594 5.99791 0
M  V30 2400 H 224.806 0.887663 4.76706 0
M  V30 2401 N 226.149 -1.5696 0.141893 0
M  V30 2402 C 227.396 -1.9596 -0.510492 0
M  V30 2403 C 227.724 -1.02648 -1.65208 0
M  V30 2404 O 226.979 -0.0546947 -1.95624 0
M  V30 2405 C 227.278 -3.41242 -1.06249 0
M  V30 2406 C 226.944 -4.50882 -0.0398791 0
M  V30 2407 C 225.606 -4.80595 0.241247 0
M  V30 2408 C 227.958 -5.17058 0.65578 0
M  V30 2409 C 225.286 -5.73792 1.22393 0
M  V30 2410 C 227.638 -6.11313 1.62724 0
M  V30 2411 C 226.302 -6.39407 1.91612 0
M  V30 2412 H 225.572 -0.717068 -0.186802 0
M  V30 2413 H 228.219 -1.90142 0.227643 0
M  V30 2414 H 226.524 -3.43866 -1.87785 0
M  V30 2415 H 228.221 -3.68742 -1.57576 0
M  V30 2416 H 224.811 -4.27754 -0.269174 0
M  V30 2417 H 228.995 -4.94239 0.451779 0
M  V30 2418 H 224.251 -5.93853 1.45424 0
M  V30 2419 H 228.425 -6.61668 2.17183 0
M  V30 2420 H 226.052 -7.11427 2.6791 0
M  V30 2421 N 227.627 0.131896 -1.57047 0
M  V30 2422 C 228.873 0.843179 -1.84441 0
M  V30 2423 C 229.206 1.80129 -0.725749 0
M  V30 2424 O 228.481 1.92624 0.269469 0
M  V30 2425 C 228.764 1.60442 -3.22382 0
M  V30 2426 C 228.617 0.666782 -4.4483 0
M  V30 2427 C 229.936 2.56354 -3.5773 0
M  V30 2428 H 227.055 0.305081 -0.670891 0
M  V30 2429 H 229.697 0.107839 -1.89694 0
M  V30 2430 H 227.847 2.23128 -3.18035 0
M  V30 2431 H 229.519 0.0497646 -4.61273 0
M  V30 2432 H 227.762 -0.022609 -4.33794 0
M  V30 2433 H 228.433 1.23579 -5.37989 0
M  V30 2434 H 230.909 2.0378 -3.62785 0
M  V30 2435 H 229.785 3.06657 -4.5525 0
M  V30 2436 H 230.046 3.38419 -2.84473 0
M  V30 2437 N 229.106 1.52395 0.401703 0
M  V30 2438 C 230.383 1.57387 1.16141 0
M  V30 2439 C 230.763 0.359359 2.08019 0
M  V30 2440 O 230.111 -0.65326 2.18963 0
M  V30 2441 C 230.321 2.90631 1.93221 0
M  V30 2442 C 231.669 3.43904 2.49028 0
M  V30 2443 O 232.693 2.92421 2.03393 0
M  V30 2444 O 231.552 4.33823 3.32356 0
M  V30 2445 H 228.646 0.634262 0.530698 0
M  V30 2446 H 231.192 1.64725 0.407883 0
M  V30 2447 H 229.964 3.70473 1.25958 0
M  V30 2448 H 229.587 2.8662 2.75563 0
M  V30 2449 N 230.584 -0.659388 1.43143 0
M  V30 2450 C 231.812 -1.44723 1.47861 0
M  V30 2451 C 232.227 -1.88563 0.0945886 0
M  V30 2452 O 231.584 -1.59108 -0.893915 0
M  V30 2453 C 231.635 -2.68627 2.41913 0
M  V30 2454 O 231.356 -2.26623 3.74932 0
M  V30 2455 C 232.857 -3.62045 2.55809 0
M  V30 2456 H 230.077 -0.444801 0.502387 0
M  V30 2457 H 232.621 -0.808916 1.87821 0
M  V30 2458 H 230.776 -3.28613 2.05164 0
M  V30 2459 H 231.19 -3.06745 4.2545 0
M  V30 2460 H 232.664 -4.45666 3.25708 0
M  V30 2461 H 233.141 -4.08981 1.60099 0
M  V30 2462 H 233.747 -3.07944 2.93344 0
M  V30 2463 N 232.062 -1.29571 -0.897171 0
M  V30 2464 C 233.339 -1.08365 -1.62839 0
M  V30 2465 C 233.719 0.371331 -2.07808 0
M  V30 2466 O 233.067 1.3606 -1.83576 0
M  V30 2467 C 233.277 -2.0735 -2.80726 0
M  V30 2468 C 234.625 -2.38406 -3.51351 0
M  V30 2469 O 235.649 -2.05564 -2.90898 0
M  V30 2470 O 234.508 -2.9453 -4.60341 0
M  V30 2471 H 231.602 -0.415345 -0.715134 0
M  V30 2472 H 234.148 -1.40952 -0.945018 0
M  V30 2473 H 232.92 -3.05339 -2.44711 0
M  V30 2474 H 232.543 -1.75507 -3.56767 0
M  V30 2475 N 233.54 1.10788 -1.12088 0
M  V30 2476 C 234.503 2.15207 -0.788577 0
M  V30 2477 C 235.503 1.59609 0.195317 0
M  V30 2478 O 236.693 1.74174 -0.0300193 0
M  V30 2479 C 233.825 3.4047 -0.171174 0
M  V30 2480 H 235.018 2.46116 -1.71368 0
M  V30 2481 H 232.571 1.26089 -0.923652 0
M  V30 2482 H 233.306 3.15176 0.763832 0
M  V30 2483 H 233.091 3.82109 -0.879514 0
M  V30 2484 H 234.581 4.17576 0.04496 0
M  V30 2485 N 235.018 0.912232 1.28515 0
M  V30 2486 C 236.295 0.463597 1.90027 0
M  V30 2487 C 236.675 -1.05753 1.82701 0
M  V30 2488 O 236.023 -1.90492 1.26194 0
M  V30 2489 C 236.233 0.992253 3.34597 0
M  V30 2490 C 237.581 1.04344 4.11579 0
M  V30 2491 O 238.605 0.94079 3.43551 0
M  V30 2492 O 237.464 1.1995 5.33174 0
M  V30 2493 H 234.558 0.146666 0.813891 0
M  V30 2494 H 237.104 1.00292 1.36893 0
M  V30 2495 H 235.876 2.03623 3.34146 0
M  V30 2496 H 235.499 0.433672 3.95228 0
M  V30 2497 N 236.496 -1.42363 0.676048 0
M  V30 2498 C 237.724 -2.05859 0.207268 0
M  V30 2499 C 238.139 -1.50796 -1.13605 0
M  V30 2500 O 237.496 -0.648265 -1.70598 0
M  V30 2501 C 237.547 -3.61248 0.134975 0
M  V30 2502 O 237.268 -4.1427 1.42521 0
M  V30 2503 C 238.769 -4.41859 -0.357151 0
M  V30 2504 H 235.989 -0.663431 0.100503 0
M  V30 2505 H 238.533 -1.82479 0.923136 0
M  V30 2506 H 236.688 -3.83735 -0.531588 0
M  V30 2507 H 237.102 -5.0815 1.29939 0
M  V30 2508 H 238.576 -5.50847 -0.356641 0
M  V30 2509 H 239.053 -4.16536 -1.39264 0
M  V30 2510 H 239.659 -4.24392 0.27772 0
M  V30 2511 N 237.974 -0.419461 -1.51915 0
M  V30 2512 C 239.39 -0.0708431 -1.59443 0
M  V30 2513 C 239.59 1.41796 -1.43164 0
M  V30 2514 O 238.646 2.18596 -1.26381 0
M  V30 2515 C 239.959 -0.574991 -2.95151 0
M  V30 2516 C 241.507 -0.533867 -3.08413 0
M  V30 2517 C 241.982 -1.01469 -4.46618 0
M  V30 2518 N 243.473 -0.971939 -4.52888 0
M  V30 2519 C 244.208 -1.31505 -5.58116 0
M  V30 2520 N 243.704 -1.73014 -6.70849 0
M  V30 2521 N 245.497 -1.23436 -5.48379 0
M  V30 2522 H 237.648 -1.38836 -1.60743 0
M  V30 2523 H 239.911 -0.570998 -0.756747 0
M  V30 2524 H 239.617 -1.61597 -3.12377 0
M  V30 2525 H 239.491 0.00979777 -3.77199 0
M  V30 2526 H 241.878 0.498086 -2.90866 0
M  V30 2527 H 241.959 -1.15484 -2.28248 0
M  V30 2528 H 241.603 -2.04502 -4.6491 0
M  V30 2529 H 241.533 -0.370433 -5.25295 0
M  V30 2530 H 244.024 -0.666893 -3.71969 0
M  V30 2531 H 244.337 -1.97479 -7.47143 0
M  V30 2532 H 242.682 -1.76926 -6.72103 0
M  V30 2533 H 245.873 -0.908869 -4.59192 0
M  V30 2534 H 246.046 -1.50506 -6.30279 0
M  V30 2535 N 239.452 1.56882 -0.150215 0
M  V30 2536 C 240.382 2.19935 0.784284 0
M  V30 2537 C 241.363 1.14854 1.25469 0
M  V30 2538 O 242.548 1.43209 1.31168 0
M  V30 2539 C 239.678 2.82349 2.02229 0
M  V30 2540 C 238.632 3.93285 1.68853 0
M  V30 2541 C 237.958 4.42649 2.99944 0
M  V30 2542 C 239.258 5.13904 0.932714 0
M  V30 2543 H 240.952 2.9828 0.258781 0
M  V30 2544 H 238.498 1.43473 0.123029 0
M  V30 2545 H 240.451 3.25126 2.68088 0
M  V30 2546 H 239.175 2.0134 2.57157 0
M  V30 2547 H 237.834 3.5113 1.05371 0
M  V30 2548 H 237.482 3.58458 3.52869 0
M  V30 2549 H 237.182 5.17476 2.78374 0
M  V30 2550 H 238.706 4.88099 3.66868 0
M  V30 2551 H 240.12 5.53506 1.49345 0
M  V30 2552 H 238.517 5.94515 0.81684 0
M  V30 2553 H 239.587 4.84842 -0.0749568 0
M  V30 2554 N 240.93 -0.123565 1.57115 0
M  V30 2555 C 242.155 -0.850398 1.89164 0
M  V30 2556 C 242.58 -1.7286 0.741688 0
M  V30 2557 O 241.938 -1.78665 -0.307958 0
M  V30 2558 C 241.986 -1.66353 3.19936 0
M  V30 2559 O 241.09 -2.77004 3.0552 0
M  V30 2560 H 240.431 -0.235454 0.620852 0
M  V30 2561 H 242.961 -0.107335 2.04318 0
M  V30 2562 H 242.971 -2.05372 3.52543 0
M  V30 2563 H 241.646 -1.01881 4.03228 0
M  V30 2564 H 240.223 -2.41221 2.84371 0
M  V30 2565 N 242.408 -1.52605 -0.393616 0
M  V30 2566 C 243.824 -1.41753 -0.733357 0
M  V30 2567 C 244.024 -0.534293 -1.94287 0
M  V30 2568 O 243.08 -0.0059787 -2.52499 0
M  V30 2569 C 244.393 -2.84531 -0.972772 0
M  V30 2570 C 245.941 -2.93978 -1.07453 0
M  V30 2571 C 246.416 -4.37756 -1.3466 0
M  V30 2572 N 247.907 -4.4106 -1.41492 0
M  V30 2573 C 248.642 -5.49387 -1.642 0
M  V30 2574 N 248.138 -6.67806 -1.8441 0
M  V30 2575 N 249.931 -5.36923 -1.66342 0
M  V30 2576 H 242.082 -2.08555 0.402328 0
M  V30 2577 H 244.345 -0.940654 0.117789 0
M  V30 2578 H 244.051 -3.51353 -0.156204 0
M  V30 2579 H 243.925 -3.26508 -1.88871 0
M  V30 2580 H 246.312 -2.27326 -1.88167 0
M  V30 2581 H 246.393 -2.55435 -0.136605 0
M  V30 2582 H 246.037 -5.04972 -0.544581 0
M  V30 2583 H 245.967 -4.73848 -2.2973 0
M  V30 2584 H 248.458 -3.55705 -1.27601 0
M  V30 2585 H 248.771 -7.46141 -2.01231 0
M  V30 2586 H 247.116 -6.70843 -1.81644 0
M  V30 2587 H 250.307 -4.43381 -1.50102 0
M  V30 2588 H 250.48 -6.21416 -1.837 0
M  V30 2589 N 243.887 0.651787 -1.4349 0
M  V30 2590 C 245.303 0.96762 -1.26922 0
M  V30 2591 C 245.503 2.00602 -0.189982 0
M  V30 2592 O 244.559 2.48793 0.431107 0
M  V30 2593 C 245.872 1.45052 -2.63401 0
M  V30 2594 C 247.42 1.5671 -2.70945 0
M  V30 2595 C 247.895 2.0839 -4.07845 0
M  V30 2596 N 249.386 2.1569 -4.09917 0
M  V30 2597 C 250.121 2.56804 -5.12679 0
M  V30 2598 N 249.617 2.97203 -6.25813 0
M  V30 2599 N 251.41 2.56756 -5.00033 0
M  V30 2600 H 243.561 -0.0353158 -2.12371 0
M  V30 2601 H 245.824 0.0467858 -0.946845 0
M  V30 2602 H 245.53 0.761926 -3.43348 0
M  V30 2603 H 245.404 2.42529 -2.88894 0
M  V30 2604 H 247.791 2.2467 -1.9133 0
M  V30 2605 H 247.872 0.57662 -2.49216 0
M  V30 2606 H 247.516 1.41031 -4.87927 0
M  V30 2607 H 247.446 3.08271 -4.26938 0
M  V30 2608 H 249.937 1.87237 -3.28254 0
M  V30 2609 H 250.25 3.27328 -7.00055 0
M  V30 2610 H 248.595 2.95004 -6.29283 0
M  V30 2611 H 251.786 2.24572 -4.10713 0
M  V30 2612 H 251.959 2.88475 -5.80247 0
M  V30 2613 N 245.365 1.30045 0.890287 0
M  V30 2614 C 246.611 1.18737 1.64406 0
M  V30 2615 C 246.944 -0.258525 1.92472 0
M  V30 2616 O 246.219 -1.18562 1.54186 0
M  V30 2617 C 246.502 2.01087 2.98724 0
M  V30 2618 C 246.355 3.53867 2.77665 0
M  V30 2619 C 247.674 1.84457 3.9958 0
M  V30 2620 H 244.793 0.432698 0.596608 0
M  V30 2621 H 247.435 1.5962 1.0306 0
M  V30 2622 H 245.585 1.66349 3.51084 0
M  V30 2623 H 247.257 3.98637 2.32133 0
M  V30 2624 H 245.5 3.78318 2.12269 0
M  V30 2625 H 246.171 4.06772 3.7315 0
M  V30 2626 H 248.647 2.14817 3.56361 0
M  V30 2627 H 247.523 2.44411 4.91482 0
M  V30 2628 H 247.784 0.802276 4.3476 0
M  V30 2629 N 246.843 -1.10192 1.12674 0
M  V30 2630 C 247.773 -2.18652 0.819362 0
M  V30 2631 C 248.754 -1.68698 -0.217915 0
M  V30 2632 O 249.939 -1.94041 -0.0785581 0
M  V30 2633 C 247.069 -3.46202 0.27594 0
M  V30 2634 C 246.023 -4.09444 1.24656 0
M  V30 2635 C 245.349 -5.31725 0.563258 0
M  V30 2636 C 246.649 -4.52863 2.60217 0
M  V30 2637 H 248.343 -2.44622 1.72628 0
M  V30 2638 H 245.889 -1.17571 0.831451 0
M  V30 2639 H 247.842 -4.21372 0.0486149 0
M  V30 2640 H 246.566 -3.1973 -0.666331 0
M  V30 2641 H 245.225 -3.36284 1.45974 0
M  V30 2642 H 244.873 -5.0153 -0.384235 0
M  V30 2643 H 244.573 -5.74991 1.21075 0
M  V30 2644 H 246.097 -6.09624 0.34503 0
M  V30 2645 H 247.511 -5.19294 2.42913 0
M  V30 2646 H 245.908 -5.06986 3.21068 0
M  V30 2647 H 246.978 -3.65656 3.18471 0
M  V30 2648 N 248.321 -0.919034 -1.28029 0
M  V30 2649 C 249.737 -0.617972 -1.4715 0
M  V30 2650 C 249.937 0.835242 -1.83374 0
M  V30 2651 O 248.993 1.61388 -1.94191 0
M  V30 2652 C 250.306 -1.56041 -2.57044 0
M  V30 2653 C 251.854 -1.56769 -2.7091 0
M  V30 2654 C 252.329 -2.49688 -3.83953 0
M  V30 2655 N 253.82 -2.47845 -3.91314 0
M  V30 2656 C 254.555 -3.16437 -4.78179 0
M  V30 2657 N 254.051 -3.94376 -5.69596 0
M  V30 2658 N 255.844 -3.05498 -4.71834 0
M  V30 2659 H 247.995 -1.85866 -1.02798 0
M  V30 2660 H 250.258 -0.797506 -0.512531 0
M  V30 2661 H 249.964 -2.59671 -2.372 0
M  V30 2662 H 249.838 -1.29551 -3.54255 0
M  V30 2663 H 252.225 -0.538745 -2.90141 0
M  V30 2664 H 252.306 -1.87305 -1.74214 0
M  V30 2665 H 251.95 -3.52688 -3.65477 0
M  V30 2666 H 251.88 -2.16453 -4.80058 0
M  V30 2667 H 254.371 -1.91234 -3.25941 0
M  V30 2668 H 254.684 -4.43721 -6.32718 0
M  V30 2669 H 253.029 -3.98481 -5.69419 0
M  V30 2670 H 256.22 -2.44108 -3.99411 0
M  V30 2671 H 256.393 -3.59225 -5.39316 0
M  V30 2672 N 249.799 1.42003 -0.683588 0
M  V30 2673 C 251.076 1.95112 -0.138075 0
M  V30 2674 C 251.456 1.62359 1.34918 0
M  V30 2675 O 250.804 0.924311 2.08971 0
M  V30 2676 C 251.014 3.46505 -0.416581 0
M  V30 2677 C 252.362 4.23254 -0.337834 0
M  V30 2678 O 253.386 3.54468 -0.35082 0
M  V30 2679 O 252.245 5.45743 -0.287596 0
M  V30 2680 H 249.339 0.826961 -0.00797996 0
M  V30 2681 H 251.885 1.51784 -0.758924 0
M  V30 2682 H 250.657 3.63582 -1.4465 0
M  V30 2683 H 250.28 3.969 0.235839 0
M  V30 2684 N 251.277 0.427512 1.51691 0
M  V30 2685 C 252.526 -0.143679 2.01188 0
M  V30 2686 C 252.839 -1.44642 1.31674 0
M  V30 2687 O 254.045 -2.09997 1.72086 0
M  V30 2688 C 252.501 -0.306602 3.58592 0
M  V30 2689 C 252.109 0.985125 4.37035 0
M  V30 2690 C 253.853 -0.832091 4.16265 0
M  V30 2691 C 251.76 0.788382 5.86122 0
M  V30 2692 H 250.69 -0.0574701 0.751807 0
M  V30 2693 H 253.341 0.555772 1.74881 0
M  V30 2694 H 251.723 -1.06882 3.81303 0
M  V30 2695 H 252.897 1.75492 4.26074 0
M  V30 2696 H 251.212 1.4384 3.90767 0
M  V30 2697 H 253.809 -0.995617 5.25349 0
M  V30 2698 H 254.152 -1.81186 3.74803 0
M  V30 2699 H 254.685 -0.128444 3.97593 0
M  V30 2700 H 251.424 1.74025 6.31978 0
M  V30 2701 H 250.944 0.0582143 5.99772 0
M  V30 2702 H 252.623 0.437722 6.45518 0
M  V30 2703 N 252.755 -1.56801 0.158532 0
M  V30 2704 C 253.98 -2.01295 -0.499516 0
M  V30 2705 C 254.405 -1.03799 -1.56867 0
M  V30 2706 O 253.763 -0.0155162 -1.81293 0
M  V30 2707 C 253.811 -3.44469 -1.06647 0
M  V30 2708 O 252.915 -3.50012 -2.18095 0
M  V30 2709 H 252.256 -0.652884 -0.12099 0
M  V30 2710 H 254.786 -2.02958 0.258661 0
M  V30 2711 H 254.796 -3.8351 -1.39227 0
M  V30 2712 H 253.471 -4.14932 -0.283581 0
M  V30 2713 H 252.048 -3.22822 -1.86656 0
M  V30 2714 N 254.233 0.115231 -1.57178 0
M  V30 2715 C 255.143 1.15994 -2.03918 0
M  V30 2716 C 256.159 1.45103 -0.960268 0
M  V30 2717 O 257.335 1.56144 -1.27204 0
M  V30 2718 C 254.4 2.46568 -2.43732 0
M  V30 2719 C 253.461 2.24822 -3.65723 0
M  V30 2720 C 252.694 3.4917 -4.03629 0
M  V30 2721 O 252.917 4.56623 -3.41835 0
M  V30 2722 O 251.851 3.39949 -4.96708 0
M  V30 2723 H 255.677 0.793019 -2.93164 0
M  V30 2724 H 253.262 0.3263 -1.45793 0
M  V30 2725 H 255.144 3.23492 -2.70057 0
M  V30 2726 H 253.819 2.82726 -1.57631 0
M  V30 2727 H 252.726 1.45744 -3.44542 0
M  V30 2728 H 254.059 1.93566 -4.52541 0
M  V30 2729 N 255.711 1.52812 0.385517 0
M  V30 2730 C 257.127 1.4214 0.725829 0
M  V30 2731 C 257.327 0.544589 1.94001 0
M  V30 2732 O 256.383 0.0193693 2.52493 0
M  V30 2733 C 257.696 2.85042 0.957668 0
M  V30 2734 C 259.244 2.94543 1.05892 0
M  V30 2735 C 259.719 4.38464 1.32337 0
M  V30 2736 N 261.21 4.41804 1.39151 0
M  V30 2737 C 261.945 5.5025 1.61285 0
M  V30 2738 N 261.441 6.68775 1.80866 0
M  V30 2739 N 263.234 5.37798 1.63492 0
M  V30 2740 H 255.385 2.08338 -0.413383 0
M  V30 2741 H 257.648 0.940016 -0.122775 0
M  V30 2742 H 257.354 3.51431 0.137568 0
M  V30 2743 H 257.228 3.27505 1.87137 0
M  V30 2744 H 259.615 2.28321 1.86959 0
M  V30 2745 H 259.696 2.55504 0.123057 0
M  V30 2746 H 259.34 5.05254 0.517793 0
M  V30 2747 H 259.27 4.75059 2.27214 0
M  V30 2748 H 261.761 3.56377 1.25713 0
M  V30 2749 H 262.074 7.47197 1.97271 0
M  V30 2750 H 260.419 6.71797 1.78083 0
M  V30 2751 H 263.61 4.44171 1.47749 0
M  V30 2752 H 263.783 6.22382 1.80402 0
M  V30 2753 N 257.189 -0.644168 1.43834 0
M  V30 2754 C 258.437 -1.40117 1.45642 0
M  V30 2755 C 258.758 -1.94814 0.0852413 0
M  V30 2756 O 258.028 -1.74988 -0.880688 0
M  V30 2757 H 256.608 -0.52005 0.536243 0
M  V30 2758 H 259.27 -0.7591 1.7951 0
M  V30 2759 H 258.366 -2.23902 2.17427 0
M  V30 2760 N 258.668 -1.30515 -0.883378 0
M  V30 2761 C 260.084 -1.08881 -1.16692 0
M  V30 2762 C 260.284 0.149409 -2.00945 0
M  V30 2763 O 259.34 0.84257 -2.38027 0
M  V30 2764 C 260.653 -2.35319 -1.87204 0
M  V30 2765 C 262.201 -2.40799 -1.99962 0
M  V30 2766 C 262.676 -3.67083 -2.73887 0
M  V30 2767 N 264.167 -3.679 -2.81432 0
M  V30 2768 C 264.902 -4.62303 -3.3921 0
M  V30 2769 N 264.398 -5.67052 -3.98025 0
M  V30 2770 N 266.191 -4.49845 -3.3704 0
M  V30 2771 H 258.342 -2.09951 -0.321633 0
M  V30 2772 H 260.605 -0.92556 -0.205043 0
M  V30 2773 H 260.311 -3.25689 -1.3274 0
M  V30 2774 H 260.185 -2.44089 -2.87577 0
M  V30 2775 H 262.572 -1.50907 -2.53597 0
M  V30 2776 H 262.653 -2.36003 -0.98673 0
M  V30 2777 H 262.297 -4.57334 -2.20925 0
M  V30 2778 H 262.227 -3.69141 -3.75556 0
M  V30 2779 H 264.718 -2.92171 -2.39676 0
M  V30 2780 H 265.031 -6.35184 -4.40183 0
M  V30 2781 H 263.376 -5.70842 -3.96439 0
M  V30 2782 H 266.567 -3.67194 -2.90321 0
M  V30 2783 H 266.74 -5.23597 -3.81772 0
M  V30 2784 N 260.146 1.09593 -1.13257 0
M  V30 2785 C 261.423 1.78293 -0.804432 0
M  V30 2786 C 261.803 1.99004 0.70431 0
M  V30 2787 O 261.151 1.59007 1.641 0
M  V30 2788 C 261.361 3.10707 -1.5894 0
M  V30 2789 C 262.709 3.85443 -1.78099 0
M  V30 2790 O 263.733 3.20454 -1.55525 0
M  V30 2791 O 262.592 5.02108 -2.15753 0
M  V30 2792 H 259.686 0.773156 -0.293528 0
M  V30 2793 H 262.232 1.16164 -1.23709 0
M  V30 2794 H 261.004 2.91106 -2.61482 0
M  V30 2795 H 260.627 3.80558 -1.15157 0
M  V30 2796 N 261.624 0.925811 1.2754 0
M  V30 2797 C 262.554 0.440748 2.29303 0
M  V30 2798 C 263.535 -0.497971 1.62648 0
M  V30 2799 O 264.72 -0.403126 1.8997 0
M  V30 2800 C 261.85 -0.309048 3.45922 0
M  V30 2801 C 260.804 0.54166 4.24559 0
M  V30 2802 C 260.13 -0.337191 5.33636 0
M  V30 2803 C 261.43 1.80516 4.90114 0
M  V30 2804 H 263.124 1.29121 2.70126 0
M  V30 2805 H 260.67 0.622323 1.29858 0
M  V30 2806 H 262.623 -0.659315 4.1621 0
M  V30 2807 H 261.347 -1.19352 3.04011 0
M  V30 2808 H 260.006 0.874609 3.56014 0
M  V30 2809 H 259.654 -1.22056 4.87966 0
M  V30 2810 H 259.354 0.228497 5.87156 0
M  V30 2811 H 260.878 -0.683072 6.06767 0
M  V30 2812 H 262.292 1.52307 5.52698 0
M  V30 2813 H 260.689 2.3142 5.53683 0
M  V30 2814 H 261.759 2.52581 4.13921 0
M  V30 2815 N 263.102 -1.41638 0.69111 0
M  V30 2816 C 264.012 -2.34588 0.0233487 0
M  V30 2817 C 265.028 -1.55987 -0.770984 0
M  V30 2818 O 266.204 -1.88486 -0.709569 0
M  V30 2819 C 263.269 -3.34684 -0.904851 0
M  V30 2820 C 262.33 -4.29176 -0.103225 0
M  V30 2821 C 261.563 -5.2449 -0.987216 0
M  V30 2822 O 261.786 -5.2514 -2.22674 0
M  V30 2823 O 260.72 -6.00295 -0.439281 0
M  V30 2824 H 264.546 -2.93261 0.789416 0
M  V30 2825 H 262.131 -1.42417 0.45142 0
M  V30 2826 H 264.013 -3.96133 -1.43724 0
M  V30 2827 H 262.688 -2.78461 -1.65049 0
M  V30 2828 H 261.595 -3.71089 0.473655 0
M  V30 2829 H 262.928 -4.88484 0.60365 0
M  V30 2830 N 264.58 -0.43555 -1.51462 0
M  V30 2831 C 265.512 0.41257 -2.25456 0
M  V30 2832 C 266.525 0.987822 -1.29406 0
M  V30 2833 O 267.714 0.882266 -1.55172 0
M  V30 2834 C 264.814 1.58894 -2.99342 0
M  V30 2835 C 263.987 1.13288 -4.22474 0
M  V30 2836 C 263.046 2.17917 -4.78956 0
M  V30 2837 O 262.072 1.77425 -5.40841 0
M  V30 2838 N 263.274 3.50382 -4.62832 0
M  V30 2839 H 266.039 -0.221603 -2.9888 0
M  V30 2840 H 263.6 -0.264342 -1.59727 0
M  V30 2841 H 265.592 2.28508 -3.34015 0
M  V30 2842 H 264.162 2.12849 -2.28941 0
M  V30 2843 H 263.382 0.263881 -3.93316 0
M  V30 2844 H 264.67 0.805542 -5.02383 0
M  V30 2845 H 264.068 3.86013 -4.13534 0
M  V30 2846 H 262.625 4.15895 -5.01871 0
M  V30 2847 N 266.058 1.56714 -0.166846 0
M  V30 2848 C 267.307 1.95922 0.479318 0
M  V30 2849 C 267.62 1.05529 1.6469 0
M  V30 2850 O 268.826 1.34399 2.35901 0
M  V30 2851 C 267.282 3.48359 0.90412 0
M  V30 2852 C 266.89 4.47369 -0.237621 0
M  V30 2853 C 268.634 3.96394 1.51896 0
M  V30 2854 C 266.541 5.91039 0.206561 0
M  V30 2855 H 265.471 0.731495 0.18284 0
M  V30 2856 H 268.122 1.81728 -0.254363 0
M  V30 2857 H 266.504 3.57955 1.69365 0
M  V30 2858 H 267.678 4.49485 -1.01489 0
M  V30 2859 H 265.993 4.09366 -0.762128 0
M  V30 2860 H 268.59 5.01186 1.86325 0
M  V30 2861 H 268.933 3.39075 2.41524 0
M  V30 2862 H 269.466 3.89796 0.79395 0
M  V30 2863 H 266.205 6.52221 -0.654834 0
M  V30 2864 H 265.725 5.9224 0.949282 0
M  V30 2865 H 267.404 6.43707 0.651939 0
M  V30 2866 N 267.536 -0.106894 1.57237 0
M  V30 2867 C 268.466 -1.13148 2.04254 0
M  V30 2868 C 269.447 -1.42476 0.929224 0
M  V30 2869 O 270.632 -1.52709 1.19973 0
M  V30 2870 C 267.762 -2.4545 2.45706 0
M  V30 2871 C 266.716 -2.30558 3.60592 0
M  V30 2872 C 266.042 -3.67931 3.87983 0
M  V30 2873 C 267.342 -1.75597 4.91897 0
M  V30 2874 H 269.036 -0.740374 2.90101 0
M  V30 2875 H 266.582 -0.354696 1.39563 0
M  V30 2876 H 268.535 -3.17389 2.77205 0
M  V30 2877 H 267.259 -2.86475 1.56843 0
M  V30 2878 H 265.918 -1.61067 3.29322 0
M  V30 2879 H 265.566 -4.06462 2.96306 0
M  V30 2880 H 265.266 -3.58817 4.65322 0
M  V30 2881 H 266.79 -4.41356 4.21945 0
M  V30 2882 H 268.204 -2.37364 5.21854 0
M  V30 2883 H 266.601 -1.77272 5.73319 0
M  V30 2884 H 267.671 -0.714451 4.79608 0
M  V30 2885 N 269.014 -1.53014 -0.377408 0
M  V30 2886 C 270.239 -1.72818 -1.14668 0
M  V30 2887 C 270.664 -0.450725 -1.8262 0
M  V30 2888 O 270.022 0.59439 -1.7128 0
M  V30 2889 C 270.07 -2.88627 -2.16164 0
M  V30 2890 O 269.174 -2.56409 -3.22998 0
M  V30 2891 H 268.515 -0.574301 -0.333278 0
M  V30 2892 H 271.045 -1.99853 -0.438152 0
M  V30 2893 H 271.055 -3.14455 -2.59966 0
M  V30 2894 H 269.73 -3.81294 -1.66095 0
M  V30 2895 H 268.307 -2.4136 -2.84253 0
M  V30 2896 N 270.492 0.636531 -1.44174 0
M  V30 2897 C 271.424 1.7618 -1.46606 0
M  V30 2898 C 272.437 1.58768 -0.360091 0
M  V30 2899 O 273.626 1.67181 -0.625518 0
M  V30 2900 C 270.726 3.13833 -1.27915 0
M  V30 2901 C 269.899 3.57753 -2.51658 0
M  V30 2902 C 268.958 4.74265 -2.27945 0
M  V30 2903 O 267.984 4.82852 -3.01401 0
M  V30 2904 N 269.186 5.65604 -1.30662 0
M  V30 2905 H 271.951 1.74567 -2.43612 0
M  V30 2906 H 269.512 0.820924 -1.39544 0
M  V30 2907 H 271.504 3.8949 -1.09907 0
M  V30 2908 H 270.074 3.10121 -0.39293 0
M  V30 2909 H 269.294 2.72362 -2.84978 0
M  V30 2910 H 270.582 3.83847 -3.33974 0
M  V30 2911 H 269.98 5.61354 -0.699844 0
M  V30 2912 H 268.537 6.40913 -1.18634 0
M  V30 2913 N 271.97 1.30982 0.876444 0
M  V30 2914 C 273.2 1.23063 1.65949 0
M  V30 2915 C 273.608 -0.207537 1.88058 0
M  V30 2916 O 272.951 -1.14781 1.43426 0
M  V30 2917 C 273.013 1.89768 3.05333 0
M  V30 2918 C 272.677 3.39106 3.0636 0
M  V30 2919 C 273.674 4.3496 2.84791 0
M  V30 2920 C 271.359 3.80693 3.27686 0
M  V30 2921 C 273.353 5.70375 2.84519 0
M  V30 2922 C 271.04 5.16223 3.27043 0
M  V30 2923 C 272.038 6.10875 3.05485 0
M  V30 2924 O 271.726 7.43928 3.04674 0
M  V30 2925 H 271.458 0.426685 0.524324 0
M  V30 2926 H 274.012 1.7329 1.10271 0
M  V30 2927 H 272.242 1.34082 3.6271 0
M  V30 2928 H 273.931 1.75853 3.65829 0
M  V30 2929 H 274.697 4.0416 2.68103 0
M  V30 2930 H 270.576 3.07457 3.43499 0
M  V30 2931 H 274.12 6.44228 2.67611 0
M  V30 2932 H 270.017 5.4666 3.43269 0
M  V30 2933 H 270.785 7.53022 3.2078 0
M  V30 2934 N 273.449 -1.08991 1.13837 0
M  V30 2935 C 274.698 -1.80631 0.897509 0
M  V30 2936 C 275.011 -1.86872 -0.57777 0
M  V30 2937 O 276.217 -2.54866 -0.935701 0
M  V30 2938 C 274.673 -3.24517 1.55618 0
M  V30 2939 C 274.281 -3.26529 3.0673 0
M  V30 2940 C 276.025 -4.00882 1.3962 0
M  V30 2941 C 273.932 -4.64965 3.65461 0
M  V30 2942 H 272.862 -0.67691 0.332129 0
M  V30 2943 H 275.513 -1.2246 1.3666 0
M  V30 2944 H 273.895 -3.82778 1.01476 0
M  V30 2945 H 275.069 -2.78008 3.67489 0
M  V30 2946 H 273.384 -2.63656 3.22296 0
M  V30 2947 H 275.981 -5.03167 1.80906 0
M  V30 2948 H 276.324 -4.14896 0.341578 0
M  V30 2949 H 276.857 -3.49075 1.90766 0
M  V30 2950 H 273.596 -4.56153 4.70749 0
M  V30 2951 H 273.116 -5.13792 3.09481 0
M  V30 2952 H 274.795 -5.3394 3.654 0
M  V30 2953 N 274.927 -0.932562 -1.27047 0
M  V30 2954 C 276.155 -0.592031 -1.98249 0
M  V30 2955 C 276.57 0.831062 -1.69525 0
M  V30 2956 O 275.927 1.55299 -0.958561 0
M  V30 2957 C 275.978 -0.814279 -3.5221 0
M  V30 2958 O 275.699 -2.18139 -3.7993 0
M  V30 2959 C 277.2 -0.483121 -4.4066 0
M  V30 2960 H 274.42 -0.223896 -0.632544 0
M  V30 2961 H 276.964 -1.25091 -1.61779 0
M  V30 2962 H 275.119 -0.20213 -3.86872 0
M  V30 2963 H 275.533 -2.235 -4.74498 0
M  V30 2964 H 277.007 -0.689298 -5.47679 0
M  V30 2965 H 277.484 0.581546 -4.35333 0
M  V30 2966 H 278.09 -1.07362 -4.11526 0
M  V30 2967 N 276.405 1.4127 -0.698611 0
M  V30 2968 C 277.652 2.0118 -0.230865 0
M  V30 2969 C 277.98 1.55338 1.17049 0
M  V30 2970 O 277.235 0.756775 1.80475 0
M  V30 2971 C 277.534 3.56592 -0.240192 0
M  V30 2972 C 277.2 4.21955 -1.58948 0
M  V30 2973 C 275.862 4.39524 -1.95887 0
M  V30 2974 C 278.214 4.58576 -2.47704 0
M  V30 2975 C 275.542 4.90992 -3.2116 0
M  V30 2976 C 277.894 5.11435 -3.72313 0
M  V30 2977 C 276.558 5.27215 -4.0939 0
M  V30 2978 H 275.828 0.736169 -0.0844796 0
M  V30 2979 H 278.475 1.69124 -0.8983 0
M  V30 2980 H 276.78 3.88456 0.510797 0
M  V30 2981 H 278.477 4.00758 0.139296 0
M  V30 2982 H 275.067 4.08657 -1.29219 0
M  V30 2983 H 279.251 4.44654 -2.20445 0
M  V30 2984 H 274.507 5.01393 -3.49878 0
M  V30 2985 H 278.681 5.38752 -4.4127 0
M  V30 2986 H 276.308 5.66859 -5.06533 0
M  V30 2987 N 277.883 0.443576 1.51229 0
M  V30 2988 C 279.129 -0.120975 2.02439 0
M  V30 2989 C 279.462 -1.41815 1.32674 0
M  V30 2990 O 278.737 -1.89373 0.443622 0
M  V30 2991 C 279.02 -0.333291 3.58554 0
M  V30 2992 C 278.873 0.982968 4.38928 0
M  V30 2993 C 280.192 -1.10028 4.26124 0
M  V30 2994 H 277.311 -0.0424923 0.735774 0
M  V30 2995 H 279.953 0.583794 1.80809 0
M  V30 2996 H 278.103 -0.933614 3.77115 0
M  V30 2997 H 279.775 1.61775 4.32003 0
M  V30 2998 H 278.018 1.58611 4.03763 0
M  V30 2999 H 278.689 0.788379 5.46341 0
M  V30 3000 H 281.165 -0.591711 4.11871 0
M  V30 3001 H 280.041 -1.21761 5.35225 0
M  V30 3002 H 280.302 -2.12996 3.87408 0
M  V30 3003 N 279.361 -1.56624 0.175154 0
M  V30 3004 C 280.308 -2.18149 -0.753634 0
M  V30 3005 C 281.278 -1.12265 -1.22417 0
M  V30 3006 O 282.463 -1.40432 -1.29165 0
M  V30 3007 C 279.603 -2.82933 -1.97592 0
M  V30 3008 C 278.716 -4.03289 -1.5486 0
M  V30 3009 C 277.851 -4.55988 -2.72485 0
M  V30 3010 C 276.89 -5.68746 -2.26262 0
M  V30 3011 N 276.027 -6.15938 -3.36994 0
M  V30 3012 H 280.867 -2.9717 -0.222195 0
M  V30 3013 H 278.404 -1.46774 -0.0979422 0
M  V30 3014 H 280.362 -3.18653 -2.69288 0
M  V30 3015 H 278.992 -2.06509 -2.481 0
M  V30 3016 H 278.044 -3.73364 -0.728246 0
M  V30 3017 H 279.356 -4.849 -1.16933 0
M  V30 3018 H 278.51 -4.9391 -3.52332 0
M  V30 3019 H 277.249 -3.73443 -3.13674 0
M  V30 3020 H 276.254 -5.30372 -1.44863 0
M  V30 3021 H 277.479 -6.53095 -1.86127 0
M  V30 3022 H 275.425 -5.36321 -3.77751 0
M  V30 3023 H 275.342 -6.92548 -3.03172 0
M  V30 3024 H 276.61 -6.58511 -4.17114 0
M  V30 3025 N 280.839 0.0985539 -1.57292 0
M  V30 3026 C 282.25 0.653457 -1.74891 0
M  V30 3027 C 282.601 1.7929 -0.796838 0
M  V30 3028 O 281.726 2.16385 0.0254886 0
M  V30 3029 C 282.321 1.19216 -3.17133 0
M  V30 3030 C 280.88 1.69316 -3.36168 0
M  V30 3031 C 280.027 0.601294 -2.70702 0
M  V30 3032 H 282.978 -0.127497 -1.58187 0
M  V30 3033 H 282.999 2.06154 -3.19814 0
M  V30 3034 H 282.511 0.362635 -3.86402 0
M  V30 3035 H 280.612 2.5468 -2.71972 0
M  V30 3036 H 280.725 1.78853 -4.44464 0
M  V30 3037 H 279.089 1.0399 -2.32504 0
M  V30 3038 H 279.872 -0.217592 -3.4261 0
M  V30 3039 N 282.317 1.53212 0.369288 0
M  V30 3040 C 283.28 1.7872 1.43498 0
M  V30 3041 C 284.28 0.657554 1.46741 0
M  V30 3042 O 285.47 0.925736 1.47566 0
M  V30 3043 C 282.602 1.90591 2.82645 0
M  V30 3044 H 283.795 2.73894 1.22156 0
M  V30 3045 H 281.348 1.44233 0.602203 0
M  V30 3046 H 282.083 0.974709 3.09306 0
M  V30 3047 H 281.868 2.72751 2.8169 0
M  V30 3048 H 283.358 2.11931 3.59826 0
M  V30 3049 N 283.795 -0.628877 1.44509 0
M  V30 3050 C 285.042 -1.38839 1.47411 0
M  V30 3051 C 285.37 -1.94202 0.10757 0
M  V30 3052 O 284.625 -1.74243 -0.890947 0
M  V30 3053 C 284.924 -2.56995 2.48371 0
M  V30 3054 C 284.59 -2.19908 3.93639 0
M  V30 3055 C 283.252 -2.09506 4.33198 0
M  V30 3056 C 285.604 -1.9064 4.85083 0
M  V30 3057 C 282.932 -1.68028 5.62124 0
M  V30 3058 C 285.284 -1.50655 6.14399 0
M  V30 3059 C 283.948 -1.38796 6.5291 0
M  V30 3060 H 283.218 -0.508048 0.539414 0
M  V30 3061 H 285.865 -0.712913 1.77735 0
M  V30 3062 H 284.17 -3.29786 2.11538 0
M  V30 3063 H 285.867 -3.15223 2.47861 0
M  V30 3064 H 282.457 -2.28922 3.62343 0
M  V30 3065 H 286.641 -1.97585 4.55273 0
M  V30 3066 H 281.897 -1.57452 5.90778 0
M  V30 3067 H 286.071 -1.27048 6.84713 0
M  V30 3068 H 283.698 -1.06429 7.52713 0
M  V30 3069 N 285.273 -1.31445 -0.869486 0
M  V30 3070 C 286.183 -1.21097 -2.0093 0
M  V30 3071 C 287.199 -0.127584 -1.73532 0
M  V30 3072 O 288.375 -0.345477 -1.98415 0
M  V30 3073 C 285.44 -0.919378 -3.34288 0
M  V30 3074 C 284.501 -2.08971 -3.75006 0
M  V30 3075 C 283.734 -1.81194 -5.02001 0
M  V30 3076 O 283.957 -0.747296 -5.65484 0
M  V30 3077 O 282.891 -2.66883 -5.39497 0
M  V30 3078 H 286.717 -2.16883 -2.12592 0
M  V30 3079 H 284.302 -1.11189 -0.997868 0
M  V30 3080 H 286.184 -0.772625 -4.14257 0
M  V30 3081 H 284.859 0.00844772 -3.23699 0
M  V30 3082 H 283.766 -2.29187 -2.95676 0
M  V30 3083 H 285.099 -2.9998 -3.90221 0
M  V30 3084 N 286.751 1.08385 -1.14413 0
M  V30 3085 C 287.661 2.18856 -0.844951 0
M  V30 3086 C 288.677 1.73121 0.174668 0
M  V30 3087 O 289.853 2.014 0.00312857 0
M  V30 3088 C 286.918 3.45155 -0.32696 0
M  V30 3089 C 285.979 4.05513 -1.40916 0
M  V30 3090 C 285.212 5.25784 -0.915793 0
M  V30 3091 O 285.435 5.69884 0.242651 0
M  V30 3092 O 284.369 5.77545 -1.69487 0
M  V30 3093 H 288.195 2.46919 -1.76818 0
M  V30 3094 H 285.78 1.17524 -0.922411 0
M  V30 3095 H 287.662 4.21377 -0.0440211 0
M  V30 3096 H 286.337 3.18668 0.568539 0
M  V30 3097 H 285.244 3.30879 -1.74556 0
M  V30 3098 H 286.577 4.3625 -2.27919 0
M  V30 3099 N 288.23 0.939286 1.26551 0
M  V30 3100 C 289.477 0.585847 1.9384 0
M  V30 3101 C 289.805 -0.874784 1.73718 0
M  V30 3102 O 289.06 -1.64092 1.06642 0
M  V30 3103 C 289.359 0.872106 3.46596 0
M  V30 3104 C 289.025 2.31632 3.86856 0
M  V30 3105 C 287.687 2.71111 3.97558 0
M  V30 3106 C 290.039 3.25494 4.07066 0
M  V30 3107 C 287.367 4.03553 4.25866 0
M  V30 3108 C 289.719 4.57531 4.36862 0
M  V30 3109 C 288.383 4.96828 4.45778 0
M  V30 3110 H 287.653 0.214377 0.709312 0
M  V30 3111 H 290.3 1.18544 1.50398 0
M  V30 3112 H 288.605 0.18996 3.91339 0
M  V30 3113 H 290.302 0.577442 3.96821 0
M  V30 3114 H 286.892 2.00008 3.79071 0
M  V30 3115 H 291.076 2.9619 3.98227 0
M  V30 3116 H 286.332 4.33665 4.30981 0
M  V30 3117 H 290.506 5.30254 4.51446 0
M  V30 3118 H 288.133 5.99482 4.67468 0
M  V30 3119 N 289.708 -1.40897 0.706093 0
M  V30 3120 C 290.948 -2.02916 0.245827 0
M  V30 3121 C 291.312 -1.54751 -1.13649 0
M  V30 3122 O 292.513 -2.08768 -1.69321 0
M  V30 3123 C 290.784 -3.56031 0.312537 0
M  V30 3124 S 292.343 -4.38741 -0.0721388 0
M  V30 3125 H 289.161 -0.704186 0.0982007 0
M  V30 3126 H 291.763 -1.72168 0.926207 0
M  V30 3127 H 290.467 -3.88579 1.32039 0
M  V30 3128 H 289.998 -3.91495 -0.386641 0
M  V30 3129 H 292.013 -4.78952 -1.29692 0
M  V30 3130 N 291.186 -0.45159 -1.50991 0
M  V30 3131 C 292.116 0.342898 -2.30969 0
M  V30 3132 C 293.097 1.00815 -1.37005 0
M  V30 3133 O 294.282 1.00907 -1.65926 0
M  V30 3134 C 291.412 1.43637 -3.16205 0
M  V30 3135 C 290.366 0.893818 -4.18563 0
M  V30 3136 C 289.692 2.08411 -4.92411 0
M  V30 3137 C 290.992 -0.0815568 -5.22236 0
M  V30 3138 H 292.686 -0.324556 -2.97636 0
M  V30 3139 H 290.232 -0.157531 -1.43136 0
M  V30 3140 H 292.185 1.9995 -3.70942 0
M  V30 3141 H 290.909 2.13232 -2.47386 0
M  V30 3142 H 289.568 0.352798 -3.64898 0
M  V30 3143 H 289.216 2.76658 -4.20082 0
M  V30 3144 H 288.916 1.72741 -5.61636 0
M  V30 3145 H 290.44 2.65251 -5.49976 0
M  V30 3146 H 291.854 0.391742 -5.7196 0
M  V30 3147 H 290.251 -0.351551 -5.99069 0
M  V30 3148 H 291.321 -1.01374 -4.74185 0
M  V30 3149 N 292.664 1.56529 -0.183458 0
M  V30 3150 C 294.075 1.83739 0.331177 0
M  V30 3151 C 294.426 1.10373 1.62211 0
M  V30 3152 O 293.551 0.36071 2.13373 0
M  V30 3153 C 294.146 3.33306 0.607646 0
M  V30 3154 C 292.705 3.60969 1.06668 0
M  V30 3155 C 291.852 2.77086 0.109029 0
M  V30 3156 H 294.803 1.53379 -0.407484 0
M  V30 3157 H 294.824 3.51444 1.45832 0
M  V30 3158 H 294.336 3.86677 -0.332086 0
M  V30 3159 H 292.437 3.13021 2.0211 0
M  V30 3160 H 292.55 4.69231 0.967447 0
M  V30 3161 H 290.914 2.47319 0.608714 0
M  V30 3162 H 291.697 3.33241 -0.82494 0
M  V30 3163 N 294.142 -0.090211 1.57342 0
M  V30 3164 C 295.37 -0.806224 1.90546 0
M  V30 3165 C 295.785 -1.72041 0.777644 0
M  V30 3166 O 295.142 -1.80778 -0.250103 0
M  V30 3167 C 295.193 -1.61546 3.23396 0
M  V30 3168 O 294.914 -0.738043 4.31839 0
M  V30 3169 C 296.415 -2.4341 3.70495 0
M  V30 3170 H 293.635 -0.230256 0.630257 0
M  V30 3171 H 296.179 -0.0659843 2.04394 0
M  V30 3172 H 294.334 -2.30816 3.11131 0
M  V30 3173 H 294.748 -1.29901 5.08159 0
M  V30 3174 H 296.222 -2.95676 4.66133 0
M  V30 3175 H 296.699 -3.22098 2.98579 0
M  V30 3176 H 297.305 -1.79331 3.85643 0
M  V30 3177 N 295.62 -1.53406 -0.361157 0
M  V30 3178 C 296.567 -1.80156 -1.44265 0
M  V30 3179 C 297.537 -0.646183 -1.53015 0
M  V30 3180 O 298.722 -0.888818 -1.68833 0
M  V30 3181 C 295.862 -2.00116 -2.81154 0
M  V30 3182 C 294.975 -3.27833 -2.81335 0
M  V30 3183 C 294.11 -3.37957 -4.09828 0
M  V30 3184 C 293.149 -4.59689 -4.04168 0
M  V30 3185 N 292.286 -4.66942 -5.24318 0
M  V30 3186 H 297.126 -2.72438 -1.20754 0
M  V30 3187 H 294.663 -1.34954 -0.585296 0
M  V30 3188 H 296.621 -2.09677 -3.60682 0
M  V30 3189 H 295.251 -1.11167 -3.03054 0
M  V30 3190 H 294.303 -3.27204 -1.94014 0
M  V30 3191 H 295.615 -4.17442 -2.73027 0
M  V30 3192 H 294.769 -3.46853 -4.97773 0
M  V30 3193 H 293.508 -2.46372 -4.20894 0
M  V30 3194 H 292.513 -4.50889 -3.14609 0
M  V30 3195 H 293.738 -5.5262 -3.947 0
M  V30 3196 H 291.684 -3.7826 -5.35962 0
M  V30 3197 H 291.601 -5.50462 -5.18197 0
M  V30 3198 H 292.869 -4.80127 -6.14084 0
M  V30 3199 N 297.098 0.621204 -1.44841 0
M  V30 3200 C 298.045 1.73267 -1.5247 0
M  V30 3201 C 299.015 1.6189 -0.371611 0
M  V30 3202 O 300.2 1.81668 -0.58321 0
M  V30 3203 C 297.34 3.11545 -1.48438 0
M  V30 3204 C 296.453 3.33827 -2.74196 0
M  V30 3205 C 295.588 4.62133 -2.61929 0
M  V30 3206 C 294.627 4.77627 -3.82804 0
M  V30 3207 N 293.764 5.97219 -3.69153 0
M  V30 3208 H 298.604 1.66082 -2.47428 0
M  V30 3209 H 296.141 0.810026 -1.22788 0
M  V30 3210 H 298.099 3.91528 -1.4409 0
M  V30 3211 H 296.729 3.1772 -0.570402 0
M  V30 3212 H 295.781 2.47715 -2.88689 0
M  V30 3213 H 297.093 3.41153 -3.6389 0
M  V30 3214 H 296.247 5.50291 -2.5547 0
M  V30 3215 H 294.986 4.57182 -1.69811 0
M  V30 3216 H 293.991 3.87896 -3.89637 0
M  V30 3217 H 295.216 4.84385 -4.75971 0
M  V30 3218 H 293.162 5.93339 -2.79794 0
M  V30 3219 H 293.079 6.05644 -4.52472 0
M  V30 3220 H 294.347 6.87912 -3.66603 0
M  V30 3221 N 298.576 1.31904 0.862503 0
M  V30 3222 C 299.806 1.24817 1.64634 0
M  V30 3223 C 300.214 -0.187579 1.88268 0
M  V30 3224 O 299.557 -1.13253 1.44635 0
M  V30 3225 C 299.619 1.92996 3.03303 0
M  V30 3226 C 299.283 3.42336 3.02746 0
M  V30 3227 C 300.28 4.37956 2.80162 0
M  V30 3228 C 297.965 3.84147 3.2363 0
M  V30 3229 C 299.959 5.73361 2.78453 0
M  V30 3230 C 297.646 5.19663 3.21549 0
M  V30 3231 C 298.644 6.14081 2.98988 0
M  V30 3232 O 298.332 7.47118 2.96766 0
M  V30 3233 H 298.064 0.432222 0.519769 0
M  V30 3234 H 300.618 1.7445 1.08427 0
M  V30 3235 H 298.848 1.37922 3.61268 0
M  V30 3236 H 300.537 1.79723 3.63943 0
M  V30 3237 H 301.303 4.06981 2.63802 0
M  V30 3238 H 297.182 3.11083 3.40218 0
M  V30 3239 H 300.726 6.4703 2.60763 0
M  V30 3240 H 296.623 5.5027 3.37451 0
M  V30 3241 H 297.391 7.56382 3.12775 0
M  V30 3242 N 300.054 -1.07777 1.14986 0
M  V30 3243 C 301.017 -2.13041 0.845358 0
M  V30 3244 C 302.017 -1.60071 -0.152931 0
M  V30 3245 O 303.207 -1.74033 0.0761879 0
M  V30 3246 C 300.339 -3.39896 0.261383 0
M  V30 3247 H 301.532 -2.41485 1.77834 0
M  V30 3248 H 299.085 -1.23595 0.956757 0
M  V30 3249 H 299.82 -3.17091 -0.68 0
M  V30 3250 H 299.605 -3.79642 0.980514 0
M  V30 3251 H 301.095 -4.17548 0.0657687 0
M  V30 3252 N 301.532 -0.945985 -1.26051 0
M  V30 3253 C 302.809 -0.513816 -1.88731 0
M  V30 3254 C 303.189 1.00872 -1.8544 0
M  V30 3255 O 302.537 1.8708 -1.312 0
M  V30 3256 C 302.747 -1.08062 -3.31849 0
M  V30 3257 C 304.095 -1.1522 -4.08668 0
M  V30 3258 O 305.119 -1.03155 -3.40936 0
M  V30 3259 O 303.978 -1.34044 -5.29806 0
M  V30 3260 H 301.072 -0.168193 -0.809716 0
M  V30 3261 H 303.618 -1.03886 -1.34186 0
M  V30 3262 H 302.39 -2.1241 -3.2863 0
M  V30 3263 H 302.013 -0.538307 -3.93939 0
M  V30 3264 N 303.011 1.40521 -0.713556 0
M  V30 3265 C 304.257 2.01221 -0.252564 0
M  V30 3266 C 304.59 1.56444 1.1506 0
M  V30 3267 O 303.865 0.783597 1.78017 0
M  V30 3268 C 304.148 3.58582 -0.330332 0
M  V30 3269 C 304.001 4.13437 -1.77173 0
M  V30 3270 C 305.32 4.39079 0.299641 0
M  V30 3271 H 302.439 0.731077 -0.0932471 0
M  V30 3272 H 305.081 1.67026 -0.905673 0
M  V30 3273 H 303.231 3.87844 0.225737 0
M  V30 3274 H 304.903 3.9498 -2.38303 0
M  V30 3275 H 303.146 3.67801 -2.3001 0
M  V30 3276 H 303.817 5.22597 -1.77755 0
M  V30 3277 H 306.293 4.15735 -0.174139 0
M  V30 3278 H 305.169 5.4848 0.214771 0
M  V30 3279 H 305.43 4.19915 1.38288 0
M  V30 3280 N 304.489 0.459591 1.5075 0
M  V30 3281 C 305.738 -0.100971 2.01447 0
M  V30 3282 C 306.051 -1.41816 1.34713 0
M  V30 3283 O 307.257 -2.06299 1.76502 0
M  V30 3284 C 305.713 -0.23047 3.59161 0
M  V30 3285 C 305.321 1.0776 4.34847 0
M  V30 3286 C 307.065 -0.743608 4.17936 0
M  V30 3287 C 304.972 0.91253 5.84317 0
M  V30 3288 H 303.902 -0.0415102 0.752856 0
M  V30 3289 H 306.553 0.592742 1.73663 0
M  V30 3290 H 304.935 -0.987703 3.83485 0
M  V30 3291 H 306.109 1.8449 4.22256 0
M  V30 3292 H 304.424 1.52097 3.87628 0
M  V30 3293 H 307.021 -0.883959 5.27343 0
M  V30 3294 H 307.364 -1.73196 3.78562 0
M  V30 3295 H 307.897 -0.04408 3.97776 0
M  V30 3296 H 304.636 1.87391 6.28144 0
M  V30 3297 H 304.156 0.185422 5.99513 0
M  V30 3298 H 305.835 0.574547 6.44444 0
M  V30 3299 N 305.967 -1.56429 0.191757 0
M  V30 3300 C 307.216 -1.9666 -0.448088 0
M  V30 3301 C 307.529 -1.08136 -1.62991 0
M  V30 3302 O 308.735 -1.38135 -2.33733 0
M  V30 3303 C 307.191 -3.49753 -0.848585 0
M  V30 3304 C 306.799 -4.46935 0.308764 0
M  V30 3305 C 308.543 -3.9876 -1.4557 0
M  V30 3306 C 306.45 -5.91293 -0.112506 0
M  V30 3307 H 305.38 -0.734312 -0.171179 0
M  V30 3308 H 308.031 -1.81301 0.283242 0
M  V30 3309 H 306.413 -3.60604 -1.63649 0
M  V30 3310 H 307.587 -4.47813 1.08627 0
M  V30 3311 H 305.902 -4.08102 0.827158 0
M  V30 3312 H 308.499 -5.04086 -1.78328 0
M  V30 3313 H 308.842 -3.42875 -2.36099 0
M  V30 3314 H 309.375 -3.9101 -0.731836 0
M  V30 3315 H 306.114 -6.51097 0.758514 0
M  V30 3316 H 305.634 -5.93676 -0.854941 0
M  V30 3317 H 307.313 -6.44663 -0.549448 0
M  V30 3318 N 307.445 0.0818655 -1.57387 0
M  V30 3319 C 308.856 0.634871 -1.75574 0
M  V30 3320 C 309.207 1.78435 -0.815809 0
M  V30 3321 O 308.332 2.164 0.0025366 0
M  V30 3322 C 308.927 1.15845 -3.18379 0
M  V30 3323 C 307.486 1.65741 -3.37945 0
M  V30 3324 C 306.633 0.572549 -2.71325 0
M  V30 3325 H 309.584 -0.144268 -1.58043 0
M  V30 3326 H 309.605 2.02751 -3.21982 0
M  V30 3327 H 309.117 0.321631 -3.86765 0
M  V30 3328 H 307.218 2.51781 -2.74658 0
M  V30 3329 H 307.331 1.74129 -4.46336 0
M  V30 3330 H 305.695 1.01518 -2.33594 0
M  V30 3331 H 306.478 -0.253918 -3.4236 0
M  V30 3332 N 308.923 1.53595 0.353017 0
M  V30 3333 C 310.339 1.43648 0.695516 0
M  V30 3334 C 310.539 0.585617 1.92802 0
M  V30 3335 O 309.595 0.0729223 2.52395 0
M  V30 3336 C 310.908 2.8701 0.896991 0
M  V30 3337 C 312.456 2.96723 0.996209 0
M  V30 3338 C 312.931 4.41173 1.23007 0
M  V30 3339 N 314.422 4.44657 1.29749 0
M  V30 3340 C 315.157 5.53547 1.49577 0
M  V30 3341 N 314.653 6.72461 1.66639 0
M  V30 3342 N 316.446 5.41145 1.52048 0
M  V30 3343 H 308.597 2.07415 -0.457481 0
M  V30 3344 H 310.86 0.9372 -0.142687 0
M  V30 3345 H 310.566 3.51644 0.0629938 0
M  V30 3346 H 310.44 3.31401 1.80148 0
M  V30 3347 H 312.827 2.32235 1.82074 0
M  V30 3348 H 312.908 2.55707 0.0688331 0
M  V30 3349 H 312.552 5.06238 0.410505 0
M  V30 3350 H 312.482 4.79772 2.17086 0
M  V30 3351 H 314.973 3.58963 1.18126 0
M  V30 3352 H 315.286 7.51214 1.81378 0
M  V30 3353 H 313.631 6.75423 1.63794 0
M  V30 3354 H 316.822 4.47205 1.38294 0
M  V30 3355 H 316.995 6.26068 1.67159 0
M  V30 3356 N 310.401 -0.613514 1.45168 0
M  V30 3357 C 311.649 -1.36997 1.48581 0
M  V30 3358 C 311.97 -1.94589 0.126545 0
M  V30 3359 O 311.24 -1.76816 -0.843372 0
M  V30 3360 H 309.82 -0.508558 0.547154 0
M  V30 3361 H 312.482 -0.720853 1.81079 0
M  V30 3362 H 311.578 -2.1924 2.22127 0
M  V30 3363 N 311.879 -1.3236 -0.855495 0
M  V30 3364 C 312.842 -1.21164 -1.94556 0
M  V30 3365 C 313.842 -0.134908 -1.60233 0
M  V30 3366 O 315.032 -0.385249 -1.69887 0
M  V30 3367 C 312.164 -0.863192 -3.29791 0
M  V30 3368 H 313.357 -2.18038 -2.05911 0
M  V30 3369 H 310.91 -1.16179 -1.04557 0
M  V30 3370 H 311.645 0.103769 -3.24134 0
M  V30 3371 H 311.43 -1.64166 -3.56078 0
M  V30 3372 H 312.92 -0.809156 -4.09686 0
M  V30 3373 N 313.357 1.07166 -1.15556 0
M  V30 3374 C 314.634 1.76546 -0.842069 0
M  V30 3375 C 315.014 2.00453 0.661939 0
M  V30 3376 O 314.362 1.62452 1.60691 0
M  V30 3377 C 314.572 3.07266 -1.65495 0
M  V30 3378 C 315.92 3.81578 -1.86234 0
M  V30 3379 O 316.944 3.17083 -1.62287 0
M  V30 3380 O 315.803 4.97419 -2.26355 0
M  V30 3381 H 312.897 0.766756 -0.309862 0
M  V30 3382 H 315.443 1.13514 -1.26145 0
M  V30 3383 H 314.215 2.85494 -2.67598 0
M  V30 3384 H 313.838 3.7803 -1.23203 0
M  V30 3385 N 314.835 0.952656 1.25548 0
M  V30 3386 C 315.783 0.462354 2.27958 0
M  V30 3387 C 316.777 -0.46634 1.62855 0
M  V30 3388 O 317.983 -0.343287 1.76696 0
M  V30 3389 H 314.358 0.13101 0.7405 0
M  V30 3390 H 316.329 1.33839 2.66702 0
M  V30 3391 C 315.078 -0.24628 3.46827 0
M  V30 3392 H 314.401 0.459192 3.97154 0
M  V30 3393 H 315.841 -0.553393 4.20373 0
M  V30 3394 C 314.3 -1.4681 3.0323 0
M  V30 3395 O 314.83 -2.56591 3.09069 0
M  V30 3396 N 313.036 -1.32874 2.58443 0
M  V30 3397 H 312.583 -0.435536 2.53891 0
M  V30 3398 H 312.541 -2.14742 2.29637 0
M  V30 3399 N 316.313 -1.40141 0.720998 0
M  V30 3400 C 317.243 -2.33339 0.0867621 0
M  V30 3401 C 318.224 -1.53178 -0.739622 0
M  V30 3402 O 319.409 -1.81625 -0.687449 0
M  V30 3403 C 316.539 -3.37194 -0.831728 0
M  V30 3404 C 315.493 -4.27857 -0.110558 0
M  V30 3405 C 314.819 -5.22294 -1.14513 0
M  V30 3406 C 316.119 -5.11872 1.0385 0
M  V30 3407 H 317.813 -2.86626 0.865219 0
M  V30 3408 H 315.359 -1.37814 0.417516 0
M  V30 3409 H 317.312 -4.01335 -1.28485 0
M  V30 3410 H 316.036 -2.82314 -1.64214 0
M  V30 3411 H 314.695 -3.65176 0.322797 0
M  V30 3412 H 314.343 -4.63717 -1.94874 0
M  V30 3413 H 314.043 -5.83797 -0.667446 0
M  V30 3414 H 315.567 -5.89312 -1.59824 0
M  V30 3415 H 316.981 -5.69436 0.664482 0
M  V30 3416 H 315.378 -5.82445 1.4449 0
M  V30 3417 H 316.448 -4.4753 1.86668 0
M  V30 3418 N 317.792 -0.46758 -1.50504 0
M  V30 3419 C 319.038 0.0887532 -2.02606 0
M  V30 3420 C 319.371 1.39686 -1.34913 0
M  V30 3421 O 318.646 1.88644 -0.473694 0
M  V30 3422 C 318.929 0.276206 -3.59039 0
M  V30 3423 C 318.782 -1.05267 -4.37309 0
M  V30 3424 C 320.101 1.03235 -4.27821 0
M  V30 3425 H 317.22 0.0307814 -0.736357 0
M  V30 3426 H 319.862 -0.612485 -1.79857 0
M  V30 3427 H 318.012 0.8735 -3.78553 0
M  V30 3428 H 319.684 -1.68628 -4.29374 0
M  V30 3429 H 317.927 -1.65015 -4.01189 0
M  V30 3430 H 318.598 -0.875197 -5.45018 0
M  V30 3431 H 321.074 0.526111 -4.12761 0
M  V30 3432 H 319.95 1.1323 -5.37094 0
M  V30 3433 H 320.211 2.06806 -3.90748 0
M  V30 3434 N 319.27 1.56325 -0.20005 0
M  V30 3435 C 320.233 2.18084 0.705132 0
M  V30 3436 C 321.233 1.13666 1.1374 0
M  V30 3437 O 322.423 1.39023 1.04968 0
M  V30 3438 C 319.555 2.78689 1.96329 0
M  V30 3439 H 320.748 2.99435 0.167023 0
M  V30 3440 H 318.301 1.56221 0.0495725 0
M  V30 3441 H 319.036 2.0115 2.5438 0
M  V30 3442 H 318.821 3.55133 1.66202 0
M  V30 3443 H 320.311 3.26096 2.60866 0
M  V30 3444 N 320.748 -0.0735177 1.57428 0
M  V30 3445 C 321.997 -0.771809 1.86349 0
M  V30 3446 C 322.31 -1.78828 0.792452 0
M  V30 3447 O 323.516 -2.53602 0.96945 0
M  V30 3448 C 321.972 -1.42358 3.30548 0
M  V30 3449 C 321.58 -0.445761 4.45777 0
M  V30 3450 C 323.324 -2.10434 3.6867 0
M  V30 3451 C 321.231 -1.10335 5.81016 0
M  V30 3452 H 320.161 -0.291999 0.695164 0
M  V30 3453 H 322.812 -0.0250749 1.83483 0
M  V30 3454 H 321.194 -2.21852 3.28021 0
M  V30 3455 H 322.368 0.319239 4.59693 0
M  V30 3456 H 320.683 0.130457 4.16196 0
M  V30 3457 H 323.28 -2.60405 4.67004 0
M  V30 3458 H 323.623 -2.90298 2.98383 0
M  V30 3459 H 324.156 -1.37773 3.7318 0
M  V30 3460 H 320.895 -0.345061 6.54591 0
M  V30 3461 H 320.415 -1.83925 5.70904 0
M  V30 3462 H 322.094 -1.62367 6.26295 0
M  V30 3463 N 322.226 -1.5378 -0.344866 0
M  V30 3464 C 323.174 -1.82373 -1.4437 0
M  V30 3465 C 324.168 -0.694128 -1.54526 0
M  V30 3466 O 325.374 -0.877442 -1.57165 0
M  V30 3467 H 321.749 -0.577765 -0.481344 0
M  V30 3468 H 323.72 -2.74306 -1.17468 0
M  V30 3469 C 322.469 -2.04898 -2.80913 0
M  V30 3470 H 321.792 -2.9127 -2.73865 0
M  V30 3471 H 323.232 -2.28871 -3.56923 0
M  V30 3472 C 321.691 -0.834116 -3.26411 0
M  V30 3473 O 322.221 -0.0328885 -4.01687 0
M  V30 3474 N 320.427 -0.65171 -2.83198 0
M  V30 3475 H 319.974 -1.30489 -2.22104 0
M  V30 3476 H 319.932 0.159686 -3.13994 0
M  V30 3477 N 323.704 0.605807 -1.45491 0
M  V30 3478 C 324.634 1.72709 -1.57143 0
M  V30 3479 C 325.615 1.6476 -0.422884 0
M  V30 3480 O 326.8 1.83132 -0.646247 0
M  V30 3481 C 323.93 3.11316 -1.53948 0
M  V30 3482 C 322.884 3.34077 -2.67537 0
M  V30 3483 C 322.21 4.72975 -2.49397 0
M  V30 3484 C 323.51 3.24158 -4.09535 0
M  V30 3485 H 325.204 1.63214 -2.51001 0
M  V30 3486 H 322.75 0.78379 -1.208 0
M  V30 3487 H 324.703 3.89557 -1.60696 0
M  V30 3488 H 323.427 3.21655 -0.566205 0
M  V30 3489 H 322.086 2.58227 -2.6022 0
M  V30 3490 H 321.734 4.8005 -1.50205 0
M  V30 3491 H 321.434 4.8916 -3.25571 0
M  V30 3492 H 322.958 5.53414 -2.58002 0
M  V30 3493 H 324.372 3.92271 -4.18086 0
M  V30 3494 H 322.769 3.51872 -4.86113 0
M  V30 3495 H 323.839 2.2157 -4.31317 0
M  V30 3496 N 325.182 1.32811 0.848464 0
M  V30 3497 C 326.431 1.23075 1.59798 0
M  V30 3498 C 326.744 -0.204419 1.94529 0
M  V30 3499 O 327.95 -0.423701 2.68173 0
M  V30 3500 C 326.406 2.15594 2.88179 0
M  V30 3501 C 326.014 3.64228 2.60849 0
M  V30 3502 C 327.758 2.14709 3.66197 0
M  V30 3503 C 325.665 4.48689 3.85269 0
M  V30 3504 H 324.595 0.457091 0.599653 0
M  V30 3505 H 327.246 1.57813 0.936342 0
M  V30 3506 H 325.628 1.73778 3.55833 0
M  V30 3507 H 326.802 4.14424 2.01467 0
M  V30 3508 H 325.117 3.67306 1.96151 0
M  V30 3509 H 327.714 2.75046 4.58534 0
M  V30 3510 H 328.057 1.13966 4.00397 0
M  V30 3511 H 328.59 2.54837 3.05455 0
M  V30 3512 H 325.329 5.5027 3.56207 0
M  V30 3513 H 324.849 4.03241 4.44024 0
M  V30 3514 H 326.528 4.62006 4.52946 0
M  V30 3515 N 326.66 -1.06551 1.16123 0
M  V30 3516 C 327.906 -1.79567 0.94252 0
M  V30 3517 C 328.239 -1.86869 -0.528547 0
M  V30 3518 O 327.514 -1.35838 -1.39206 0
M  V30 3519 C 327.797 -3.24195 1.56747 0
M  V30 3520 C 327.65 -3.24989 3.10969 0
M  V30 3521 C 328.969 -4.21678 1.25998 0
M  V30 3522 H 326.088 -0.651883 0.343828 0
M  V30 3523 H 328.73 -1.2463 1.43413 0
M  V30 3524 H 326.88 -3.71107 1.14942 0
M  V30 3525 H 328.552 -2.86258 3.61737 0
M  V30 3526 H 326.795 -2.63716 3.44436 0
M  V30 3527 H 327.466 -4.27005 3.49815 0
M  V30 3528 H 329.942 -3.83196 1.62174 0
M  V30 3529 H 328.818 -5.21146 1.7233 0
M  V30 3530 H 329.079 -4.4174 0.178367 0
M  V30 3531 N 328.138 -0.959301 -1.25041 0
M  V30 3532 C 329.07 -0.440543 -2.24926 0
M  V30 3533 C 330.083 0.446131 -1.56568 0
M  V30 3534 O 331.272 0.253657 -1.76689 0
M  V30 3535 C 328.372 0.38412 -3.36716 0
M  V30 3536 C 327.545 -0.490658 -4.34639 0
M  V30 3537 C 326.604 0.276587 -5.25473 0
M  V30 3538 O 325.63 -0.326614 -5.68262 0
M  V30 3539 N 326.832 1.56844 -5.5891 0
M  V30 3540 H 329.597 -1.29931 -2.70071 0
M  V30 3541 H 327.158 -0.830181 -1.38995 0
M  V30 3542 H 329.15 0.905228 -3.94446 0
M  V30 3543 H 327.72 1.14377 -2.90924 0
M  V30 3544 H 326.94 -1.19282 -3.7572 0
M  V30 3545 H 328.228 -1.08756 -4.97041 0
M  V30 3546 H 327.626 2.08036 -5.26059 0
M  V30 3547 H 326.183 2.03541 -6.19205 0
M  V30 3548 N 329.616 1.39756 -0.72842 0
M  V30 3549 C 330.566 2.2792 -0.0603424 0
M  V30 3550 C 331.55 1.43922 0.719399 0
M  V30 3551 O 332.742 1.66895 0.589489 0
M  V30 3552 C 329.871 3.32582 0.851104 0
M  V30 3553 C 328.957 4.24049 0.0658641 0
M  V30 3554 N 329.348 4.96653 -0.957578 0
M  V30 3555 C 327.646 4.45013 0.296509 0
M  V30 3556 C 328.347 5.63836 -1.43052 0
M  V30 3557 N 327.323 5.38397 -0.750315 0
M  V30 3558 H 331.125 2.81504 -0.84455 0
M  V30 3559 H 328.639 1.5236 -0.562155 0
M  V30 3560 H 330.636 3.94603 1.34514 0
M  V30 3561 H 329.296 2.80558 1.63454 0
M  V30 3562 H 330.307 5.00297 -1.33877 0
M  V30 3563 H 326.984 4.03943 1.05527 0
M  V30 3564 H 328.374 6.31974 -2.28163 0
M  V30 3565 N 331.094 0.475555 1.50254 0
M  V30 3566 C 332.343 -0.0795996 2.01543 0
M  V30 3567 C 332.656 -1.4038 1.36209 0
M  V30 3568 O 333.862 -2.04415 1.7868 0
M  V30 3569 C 332.318 -0.192363 3.59386 0
M  V30 3570 C 331.926 1.12367 4.33679 0
M  V30 3571 C 333.67 -0.699238 4.18701 0
M  V30 3572 C 331.577 0.974453 5.83317 0
M  V30 3573 H 330.507 -0.0335228 0.753254 0
M  V30 3574 H 333.158 0.611128 1.73025 0
M  V30 3575 H 331.54 -0.946974 3.84511 0
M  V30 3576 H 332.714 1.88958 4.20276 0
M  V30 3577 H 331.029 1.562 3.85993 0
M  V30 3578 H 333.626 -0.827978 5.28251 0
M  V30 3579 H 333.969 -1.69171 3.80377 0
M  V30 3580 H 334.502 -0.00188807 3.978 0
M  V30 3581 H 331.241 1.94042 6.26121 0
M  V30 3582 H 330.761 0.248998 5.99283 0
M  V30 3583 H 332.44 0.642867 6.43798 0
M  V30 3584 N 332.573 -1.56217 0.208337 0
M  V30 3585 C 333.505 -2.1695 -0.739276 0
M  V30 3586 C 334.518 -1.13492 -1.1672 0
M  V30 3587 O 335.707 -1.40529 -1.10063 0
M  V30 3588 C 332.807 -2.72755 -2.01142 0
M  V30 3589 C 331.98 -4.0125 -1.74118 0
M  V30 3590 C 331.039 -4.41749 -2.85909 0
M  V30 3591 O 330.065 -5.08912 -2.54946 0
M  V30 3592 N 331.267 -4.06342 -4.14568 0
M  V30 3593 H 334.032 -2.98893 -0.219837 0
M  V30 3594 H 331.593 -1.61878 0.0268445 0
M  V30 3595 H 333.585 -2.96826 -2.75094 0
M  V30 3596 H 332.155 -1.95191 -2.4417 0
M  V30 3597 H 331.375 -3.85173 -0.838775 0
M  V30 3598 H 332.663 -4.851 -1.53477 0
M  V30 3599 H 332.061 -3.52345 -4.42571 0
M  V30 3600 H 330.618 -4.35335 -4.85105 0
M  V30 3601 N 334.051 0.0651679 -1.57465 0
M  V30 3602 C 335.328 0.79644 -1.78651 0
M  V30 3603 C 335.708 1.95454 -0.797566 0
M  V30 3604 O 335.056 2.27882 0.167946 0
M  V30 3605 C 335.266 1.26322 -3.25337 0
M  V30 3606 C 336.614 1.6939 -3.89348 0
M  V30 3607 O 337.638 1.35872 -3.29268 0
M  V30 3608 O 336.497 2.31471 -4.95059 0
M  V30 3609 H 333.591 0.382157 -0.733407 0
M  V30 3610 H 336.137 0.0447311 -1.69641 0
M  V30 3611 H 334.909 0.434859 -3.88876 0
M  V30 3612 H 334.532 2.07604 -3.39096 0
M  V30 3613 N 335.529 1.53961 0.336706 0
M  V30 3614 C 336.778 1.70751 1.07363 0
M  V30 3615 C 337.091 0.481061 1.89592 0
M  V30 3616 O 338.297 0.530046 2.66276 0
M  V30 3617 C 336.753 3.01965 1.95818 0
M  V30 3618 C 336.361 4.31971 1.18764 0
M  V30 3619 C 338.105 3.28121 2.69327 0
M  V30 3620 C 336.012 5.54255 2.06289 0
M  V30 3621 H 334.942 0.636292 0.404535 0
M  V30 3622 H 337.593 1.80459 0.332681 0
M  V30 3623 H 335.975 2.86132 2.7376 0
M  V30 3624 H 337.149 4.5853 0.456849 0
M  V30 3625 H 335.464 4.12481 0.569946 0
M  V30 3626 H 338.061 4.16673 3.35094 0
M  V30 3627 H 338.404 2.45426 3.36261 0
M  V30 3628 H 338.937 3.44762 1.98454 0
M  V30 3629 H 335.676 6.39513 1.43885 0
M  V30 3630 H 335.196 5.31935 2.77138 0
M  V30 3631 H 336.875 5.90159 2.65182 0
M  V30 3632 N 337.007 -0.598083 1.45811 0
M  V30 3633 C 337.937 -1.71873 1.58057 0
M  V30 3634 C 338.918 -1.64533 0.431615 0
M  V30 3635 O 340.103 -1.82787 0.65595 0
M  V30 3636 C 337.233 -3.10495 1.55597 0
M  V30 3637 C 336.187 -3.32654 2.69305 0
M  V30 3638 C 335.513 -4.71646 2.51902 0
M  V30 3639 C 336.813 -3.21981 4.11248 0
M  V30 3640 H 338.507 -1.61881 2.51863 0
M  V30 3641 H 336.053 -0.777372 1.21214 0
M  V30 3642 H 338.006 -3.88699 1.6276 0
M  V30 3643 H 336.73 -3.2135 0.583255 0
M  V30 3644 H 335.389 -2.56843 2.61586 0
M  V30 3645 H 335.037 -4.79246 1.52748 0
M  V30 3646 H 334.737 -4.87426 3.2816 0
M  V30 3647 H 336.261 -5.52038 2.60933 0
M  V30 3648 H 337.675 -3.90049 4.20161 0
M  V30 3649 H 336.072 -3.49289 4.87972 0
M  V30 3650 H 337.142 -2.1928 4.32486 0
M  V30 3651 N 338.485 -1.33259 -0.841409 0
M  V30 3652 C 339.433 -1.23279 -1.97244 0
M  V30 3653 C 340.427 -0.134706 -1.68864 0
M  V30 3654 O 341.633 -0.298501 -1.77508 0
M  V30 3655 H 338.008 -0.382497 -0.647457 0
M  V30 3656 H 339.979 -2.18906 -2.02787 0
M  V30 3657 C 338.728 -0.986268 -3.33419 0
M  V30 3658 H 338.051 -1.82347 -3.55794 0
M  V30 3659 H 339.491 -0.956728 -4.13065 0
M  V30 3660 C 337.95 0.310842 -3.35463 0
M  V30 3661 O 338.48 1.31838 -3.79449 0
M  V30 3662 N 336.686 0.337485 -2.88634 0
M  V30 3663 H 336.233 -0.482967 -2.53032 0
M  V30 3664 H 336.191 1.20518 -2.90384 0
M  V30 3665 N 339.963 1.05934 -1.16686 0
M  V30 3666 C 341.211 1.78447 -0.948744 0
M  V30 3667 C 341.532 1.87813 0.524523 0
M  V30 3668 O 340.802 1.38945 1.38098 0
M  V30 3669 H 339.382 0.660971 -0.348033 0
M  V30 3670 H 342.044 1.27947 -1.47022 0
M  V30 3671 H 341.14 2.80394 -1.37061 0
M  V30 3672 N 341.441 0.965919 1.2453 0
M  V30 3673 C 342.689 0.625593 1.92174 0
M  V30 3674 C 343.01 -0.841652 1.75901 0
M  V30 3675 O 342.28 -1.60061 1.12948 0
M  V30 3676 H 340.86 0.228388 0.71123 0
M  V30 3677 H 343.522 1.2266 1.51461 0
M  V30 3678 H 342.618 0.864653 2.99884 0
M  V30 3679 N 342.919 -1.39368 0.735821 0
M  V30 3680 C 344.33 -1.83313 0.354015 0
M  V30 3681 C 344.681 -1.61461 -1.11466 0
M  V30 3682 O 343.806 -1.10621 -1.85989 0
M  V30 3683 C 344.401 -3.32781 0.635769 0
M  V30 3684 C 342.96 -3.75142 0.307448 0
M  V30 3685 C 342.107 -2.62358 0.897974 0
M  V30 3686 H 345.058 -1.28349 0.933398 0
M  V30 3687 H 345.079 -3.80388 -0.0921773 0
M  V30 3688 H 344.591 -3.48654 1.70476 0
M  V30 3689 H 342.692 -3.64857 -0.755674 0
M  V30 3690 H 342.805 -4.72532 0.790583 0
M  V30 3691 H 341.169 -2.52624 0.324551 0
M  V30 3692 H 341.952 -2.81036 1.97164 0
M  V30 3693 N 344.397 -0.483516 -1.5 0
M  V30 3694 C 345.622 0.0667119 -2.07293 0
M  V30 3695 C 346.047 1.3164 -1.3436 0
M  V30 3696 O 345.405 1.76945 -0.394987 0
M  V30 3697 C 345.453 0.321126 -3.59167 0
M  V30 3698 O 344.557 1.39927 -3.87936 0
M  V30 3699 H 343.898 -0.0184758 -0.663743 0
M  V30 3700 H 346.428 -0.678125 -1.93035 0
M  V30 3701 H 346.438 0.557906 -4.04168 0
M  V30 3702 H 345.113 -0.592007 -4.11665 0
M  V30 3703 H 343.69 1.14882 -3.54763 0
M  V30 3704 N 345.875 1.56104 -0.216619 0
M  V30 3705 C 346.822 2.2007 0.695531 0
M  V30 3706 C 347.792 1.15471 1.19397 0
M  V30 3707 O 348.977 1.43807 1.25396 0
M  V30 3708 C 346.117 2.88073 1.90021 0
M  V30 3709 C 345.23 4.07253 1.44113 0
M  V30 3710 C 344.365 4.63052 2.603 0
M  V30 3711 C 343.404 5.74545 2.11103 0
M  V30 3712 N 342.541 6.24656 3.20545 0
M  V30 3713 H 347.381 2.97655 0.143327 0
M  V30 3714 H 344.918 1.46982 0.0589934 0
M  V30 3715 H 346.876 3.25681 2.60745 0
M  V30 3716 H 345.506 2.13015 2.42538 0
M  V30 3717 H 344.558 3.75164 0.628999 0
M  V30 3718 H 345.87 4.8783 1.04036 0
M  V30 3719 H 345.024 5.03078 3.39113 0
M  V30 3720 H 343.763 3.81628 3.03663 0
M  V30 3721 H 342.768 5.34027 1.3075 0
M  V30 3722 H 343.993 6.57801 1.68746 0
M  V30 3723 H 341.939 5.46148 3.63399 0
M  V30 3724 H 341.856 7.00343 2.84704 0
M  V30 3725 H 343.124 6.69338 3.99508 0
M  V30 3726 N 347.353 -0.0568162 1.57498 0
M  V30 3727 C 348.769 -0.411933 1.54192 0
M  V30 3728 C 348.969 -1.78287 0.938942 0
M  V30 3729 O 348.025 -2.46483 0.547919 0
M  V30 3730 C 349.338 -0.339244 2.9878 0
M  V30 3731 C 350.886 -0.418348 3.10192 0
M  V30 3732 C 351.361 -0.375407 4.56459 0
M  V30 3733 N 352.852 -0.435038 4.61153 0
M  V30 3734 C 353.587 -0.424265 5.71828 0
M  V30 3735 N 353.083 -0.367418 6.91825 0
M  V30 3736 N 354.876 -0.471938 5.60115 0
M  V30 3737 H 347.027 0.840684 1.95055 0
M  V30 3738 H 349.29 0.316987 0.893433 0
M  V30 3739 H 348.996 0.601742 3.46514 0
M  V30 3740 H 348.87 -1.14371 3.59443 0
M  V30 3741 H 351.257 -1.34976 2.62422 0
M  V30 3742 H 351.338 0.414962 2.52412 0
M  V30 3743 H 350.982 0.552219 5.04889 0
M  V30 3744 H 350.912 -1.22645 5.12119 0
M  V30 3745 H 353.403 -0.482612 3.74806 0
M  V30 3746 H 353.716 -0.363535 7.71944 0
M  V30 3747 H 352.061 -0.333879 6.94198 0
M  V30 3748 H 355.252 -0.514145 4.65268 0
M  V30 3749 H 355.425 -0.460073 6.46365 0
M  V30 3750 N 348.832 -1.54138 -0.328536 0
M  V30 3751 C 349.764 -1.79509 -1.4251 0
M  V30 3752 C 350.777 -0.67688 -1.48061 0
M  V30 3753 O 351.966 -0.953898 -1.50874 0
M  V30 3754 C 349.066 -1.89337 -2.81078 0
M  V30 3755 C 348.239 -3.19443 -2.98789 0
M  V30 3756 C 347.298 -3.20036 -4.17688 0
M  V30 3757 O 346.324 -3.93697 -4.11086 0
M  V30 3758 N 347.526 -2.43467 -5.26976 0
M  V30 3759 H 350.291 -2.74139 -1.21111 0
M  V30 3760 H 347.852 -1.53373 -0.518499 0
M  V30 3761 H 349.844 -1.87167 -3.58818 0
M  V30 3762 H 348.414 -1.01826 -2.95551 0
M  V30 3763 H 347.634 -3.34614 -2.08391 0
M  V30 3764 H 348.922 -4.05354 -3.07515 0
M  V30 3765 H 348.32 -1.83201 -5.35214 0
M  V30 3766 H 346.877 -2.4708 -6.03154 0
M  V30 3767 N 350.31 0.590341 -1.46126 0
M  V30 3768 C 351.538 1.37504 -1.54597 0
M  V30 3769 C 351.953 1.87897 -0.184447 0
M  V30 3770 O 351.31 1.63192 0.816984 0
M  V30 3771 C 351.361 2.56779 -2.54454 0
M  V30 3772 O 351.082 2.08476 -3.85317 0
M  V30 3773 C 352.583 3.49427 -2.72792 0
M  V30 3774 H 349.803 0.420325 -0.523037 0
M  V30 3775 H 352.347 0.718383 -1.91467 0
M  V30 3776 H 350.502 3.1845 -2.20609 0
M  V30 3777 H 350.916 2.86097 -4.396 0
M  V30 3778 H 352.39 4.29619 -3.466 0
M  V30 3779 H 352.867 4.00876 -1.79429 0
M  V30 3780 H 353.473 2.93598 -3.07702 0
M  V30 3781 N 351.788 1.33704 0.83433 0
M  V30 3782 C 352.736 1.24323 1.96587 0
M  V30 3783 C 353.73 0.143659 1.6879 0
M  V30 3784 O 354.936 0.30791 1.77347 0
M  V30 3785 H 351.311 0.385925 0.645419 0
M  V30 3786 H 353.282 2.19978 2.01624 0
M  V30 3787 C 352.031 1.00394 3.32891 0
M  V30 3788 H 351.354 1.84231 3.54822 0
M  V30 3789 H 352.794 0.97862 4.12552 0
M  V30 3790 C 351.253 -0.293047 3.35623 0
M  V30 3791 O 351.783 -1.29823 3.80143 0
M  V30 3792 N 349.989 -0.322174 2.88809 0
M  V30 3793 H 349.536 0.496379 2.52772 0
M  V30 3794 H 349.494 -1.18977 2.91019 0
M  V30 3795 N 353.266 -1.05314 1.17247 0
M  V30 3796 C 354.514 -1.77941 0.958194 0
M  V30 3797 C 354.835 -1.88089 -0.514556 0
M  V30 3798 O 354.105 -1.39676 -1.37359 0
M  V30 3799 H 352.685 -0.659116 0.351533 0
M  V30 3800 H 355.347 -1.27166 1.47699 0
M  V30 3801 H 354.443 -2.79663 1.38546 0
M  V30 3802 N 354.744 -0.972509 -1.24016 0
M  V30 3803 C 355.984 -0.644951 -1.93958 0
M  V30 3804 C 356.348 0.80559 -1.74282 0
M  V30 3805 O 357.549 1.2436 -2.38302 0
M  V30 3806 C 355.82 -1.01521 -3.42678 0
M  V30 3807 S 357.379 -0.802927 -4.31391 0
M  V30 3808 H 354.197 -0.236452 -0.670531 0
M  V30 3809 H 356.799 -1.25048 -1.50277 0
M  V30 3810 H 355.503 -2.06769 -3.54506 0
M  V30 3811 H 355.034 -0.400648 -3.91355 0
M  V30 3812 H 357.049 0.317256 -4.95185 0
M  V30 3813 N 356.222 1.38976 -0.743202 0
M  V30 3814 C 357.152 2.33171 -0.123873 0
M  V30 3815 C 358.133 1.54336 0.71516 0
M  V30 3816 O 359.318 1.82696 0.658467 0
M  V30 3817 C 356.448 3.38474 0.777978 0
M  V30 3818 C 355.402 4.27979 0.0424758 0
M  V30 3819 C 354.728 5.2405 1.06189 0
M  V30 3820 C 356.028 5.10155 -1.1198 0
M  V30 3821 H 357.722 2.85213 -0.910709 0
M  V30 3822 H 355.268 1.37133 -0.439388 0
M  V30 3823 H 357.221 4.03328 1.22084 0
M  V30 3824 H 355.945 2.84891 1.59702 0
M  V30 3825 H 354.604 3.64616 -0.380853 0
M  V30 3826 H 354.252 4.66758 1.87472 0
M  V30 3827 H 353.952 5.84785 0.574485 0
M  V30 3828 H 355.476 5.9178 1.50428 0
M  V30 3829 H 356.89 5.68307 -0.75499 0
M  V30 3830 H 355.287 5.80073 -1.53738 0
M  V30 3831 H 356.357 4.44504 -1.93764 0
M  V30 3832 N 357.7 0.491464 1.49741 0
M  V30 3833 C 358.648 -0.305837 2.30581 0
M  V30 3834 C 359.642 -0.971642 1.38764 0
M  V30 3835 O 360.848 -0.90042 1.5586 0
M  V30 3836 H 357.223 -0.117482 0.742767 0
M  V30 3837 H 359.194 0.396093 2.95759 0
M  V30 3838 C 357.943 -1.36319 3.19863 0
M  V30 3839 H 357.266 -0.860258 3.90435 0
M  V30 3840 H 358.706 -1.89323 3.79385 0
M  V30 3841 C 357.165 -2.37621 2.38826 0
M  V30 3842 O 357.695 -3.43311 2.08567 0
M  V30 3843 N 355.901 -2.09849 2.01026 0
M  V30 3844 H 355.448 -1.23922 2.25834 0
M  V30 3845 H 355.406 -2.77859 1.47112 0
M  V30 3846 N 359.178 -1.55987 0.224894 0
M  V30 3847 C 360.426 -1.97998 -0.405099 0
M  V30 3848 C 360.747 -1.11387 -1.60056 0
M  V30 3849 O 360.017 -0.191645 -1.9496 0
M  V30 3850 H 358.597 -0.731235 -0.152658 0
M  V30 3851 H 361.259 -1.92279 0.318567 0
M  V30 3852 H 360.355 -3.03463 -0.729167 0
M  V30 3853 N 360.656 0.0484629 -1.57525 0
M  V30 3854 C 361.886 0.754326 -1.92337 0
M  V30 3855 C 362.294 1.70443 -0.82132 0
M  V30 3856 O 361.637 1.82466 0.21254 0
M  V30 3857 C 361.699 1.58231 -3.22805 0
M  V30 3858 C 361.363 0.799074 -4.4996 0
M  V30 3859 C 362.36 0.1079 -5.19788 0
M  V30 3860 C 360.045 0.759345 -4.96527 0
M  V30 3861 C 362.039 -0.612516 -6.3445 0
M  V30 3862 C 359.726 0.0351713 -6.1109 0
M  V30 3863 C 360.724 -0.649537 -6.79904 0
M  V30 3864 O 360.412 -1.36199 -7.92278 0
M  V30 3865 H 360.144 0.218257 -0.639797 0
M  V30 3866 H 362.698 0.0159295 -2.05394 0
M  V30 3867 H 360.928 2.36406 -3.06021 0
M  V30 3868 H 362.617 2.16898 -3.43089 0
M  V30 3869 H 363.383 0.129748 -4.84826 0
M  V30 3870 H 359.262 1.28177 -4.42822 0
M  V30 3871 H 362.806 -1.14751 -6.88097 0
M  V30 3872 H 358.703 0.0113314 -6.45499 0
M  V30 3873 H 359.471 -1.27366 -8.0853 0
M  V30 3874 N 362.134 1.5431 0.320358 0
M  V30 3875 C 363.362 1.76636 1.07738 0
M  V30 3876 C 363.777 0.51649 1.81598 0
M  V30 3877 O 363.134 -0.512942 1.75143 0
M  V30 3878 C 363.185 2.96158 2.07299 0
M  V30 3879 O 362.906 4.16313 1.36438 0
M  V30 3880 C 364.407 3.3072 2.95193 0
M  V30 3881 H 361.627 0.589597 0.320339 0
M  V30 3882 H 364.171 2.01207 0.36551 0
M  V30 3883 H 362.326 2.73851 2.74016 0
M  V30 3884 H 362.74 4.83565 2.03138 0
M  V30 3885 H 364.214 4.17643 3.60941 0
M  V30 3886 H 364.691 2.48026 3.62463 0
M  V30 3887 H 365.297 3.55117 2.34034 0
M  V30 3888 N 363.613 -0.582584 1.46437 0
M  V30 3889 C 365.024 -1.1647 1.45916 0
M  V30 3890 C 365.375 -1.95177 0.200077 0
M  V30 3891 O 364.5 -2.04874 -0.696819 0
M  V30 3892 C 365.095 -2.11885 2.64367 0
M  V30 3893 C 363.654 -2.65421 2.66887 0
M  V30 3894 C 362.801 -1.41294 2.38603 0
M  V30 3895 H 365.752 -0.370514 1.54314 0
M  V30 3896 H 365.773 -2.9535 2.39892 0
M  V30 3897 H 365.285 -1.54573 3.5599 0
M  V30 3898 H 363.386 -3.26602 1.79338 0
M  V30 3899 H 363.499 -3.08147 3.66854 0
M  V30 3900 H 361.863 -1.71109 1.88663 0
M  V30 3901 H 362.646 -0.858125 3.32402 0
M  V30 3902 N 365.091 -1.34144 -0.827227 0
M  V30 3903 C 366.316 -1.29476 -1.62021 0
M  V30 3904 C 366.741 0.129292 -1.87655 0
M  V30 3905 O 366.099 1.08967 -1.449 0
M  V30 3906 C 366.147 -2.08702 -2.94068 0
M  V30 3907 O 365.251 -1.45359 -3.85933 0
M  V30 3908 H 364.592 -0.444881 -0.492927 0
M  V30 3909 H 367.122 -1.76882 -1.02829 0
M  V30 3910 H 367.132 -2.19898 -3.43669 0
M  V30 3911 H 365.807 -3.12241 -2.74734 0
M  V30 3912 H 364.384 -1.42879 -3.44442 0
M  V30 3913 N 366.569 1.04691 -1.17803 0
M  V30 3914 C 367.985 1.29963 -0.926379 0
M  V30 3915 C 368.185 1.97251 0.411635 0
M  V30 3916 O 367.241 2.24922 1.14744 0
M  V30 3917 C 368.554 2.16447 -2.08737 0
M  V30 3918 C 370.102 2.29814 -2.12496 0
M  V30 3919 C 370.577 3.19661 -3.27995 0
M  V30 3920 N 372.068 3.27247 -3.27816 0
M  V30 3921 C 372.803 3.96906 -4.13827 0
M  V30 3922 N 372.299 4.6895 -5.09959 0
M  V30 3923 N 374.092 3.93122 -4.01761 0
M  V30 3924 H 366.243 0.594182 -2.0392 0
M  V30 3925 H 368.506 0.324649 -0.890678 0
M  V30 3926 H 368.212 1.74304 -3.05469 0
M  V30 3927 H 368.086 3.17103 -2.04268 0
M  V30 3928 H 370.473 2.71196 -1.16347 0
M  V30 3929 H 370.554 1.2877 -2.21025 0
M  V30 3930 H 370.198 2.78991 -4.24413 0
M  V30 3931 H 370.128 4.20722 -3.16703 0
M  V30 3932 H 372.619 2.75921 -2.58217 0
M  V30 3933 H 372.932 5.19679 -5.71974 0
M  V30 3934 H 371.277 4.67875 -5.13924 0
M  V30 3935 H 374.468 3.35967 -3.2595 0
M  V30 3936 H 374.641 4.47139 -4.6901 0
M  V30 3937 N 368.047 0.979072 1.23499 0
M  V30 3938 C 368.994 0.517904 2.24914 0
M  V30 3939 C 369.964 -0.442525 1.60097 0
M  V30 3940 O 371.149 -0.350365 1.87556 0
M  V30 3941 C 368.289 -0.174813 3.44657 0
M  V30 3942 C 367.402 0.825721 4.24035 0
M  V30 3943 C 366.537 0.107946 5.3109 0
M  V30 3944 C 365.576 1.09778 6.02175 0
M  V30 3945 N 364.713 0.40925 7.00906 0
M  V30 3946 H 369.553 1.38751 2.63727 0
M  V30 3947 H 367.09 0.695303 1.2963 0
M  V30 3948 H 369.048 -0.593233 4.12961 0
M  V30 3949 H 367.678 -1.0083 3.06648 0
M  V30 3950 H 366.73 1.36253 3.55161 0
M  V30 3951 H 368.042 1.58005 4.73113 0
M  V30 3952 H 367.196 -0.367904 6.05583 0
M  V30 3953 H 365.935 -0.678994 4.8295 0
M  V30 3954 H 364.94 1.5844 5.26476 0
M  V30 3955 H 366.165 1.88536 6.52404 0
M  V30 3956 H 364.111 -0.358506 6.5502 0
M  V30 3957 H 364.028 1.10226 7.47921 0
M  V30 3958 H 365.296 -0.0442557 7.79487 0
M  V30 3959 N 369.525 -1.3858 0.750561 0
M  V30 3960 C 370.941 -1.53759 0.427824 0
M  V30 3961 C 371.141 -1.71401 -1.05943 0
M  V30 3962 O 370.197 -1.72331 -1.84549 0
M  V30 3963 C 371.51 -2.74642 1.22443 0
M  V30 3964 C 373.058 -2.88489 1.2142 0
M  V30 3965 C 373.533 -4.12329 1.9937 0
M  V30 3966 N 375.024 -4.194 1.96616 0
M  V30 3967 C 375.759 -5.14209 2.53727 0
M  V30 3968 N 375.255 -6.14709 3.19539 0
M  V30 3969 N 377.048 -5.06537 2.43673 0
M  V30 3970 H 369.199 -1.25377 1.71447 0
M  V30 3971 H 371.462 -0.608844 0.726645 0
M  V30 3972 H 371.168 -2.68 2.27747 0
M  V30 3973 H 371.042 -3.67745 0.839273 0
M  V30 3974 H 373.429 -2.94614 0.169232 0
M  V30 3975 H 373.51 -1.96406 1.63885 0
M  V30 3976 H 373.154 -4.06966 3.03877 0
M  V30 3977 H 373.084 -5.03486 1.54302 0
M  V30 3978 H 375.575 -3.47421 1.48684 0
M  V30 3979 H 375.888 -6.8354 3.60545 0
M  V30 3980 H 374.233 -6.1505 3.23633 0
M  V30 3981 H 377.424 -4.26962 1.91889 0
M  V30 3982 H 377.597 -5.80245 2.88479 0
M  V30 3983 N 371.003 -0.499398 -1.49478 0
M  V30 3984 C 371.935 0.316575 -2.27003 0
M  V30 3985 C 372.948 0.932047 -1.33479 0
M  V30 3986 O 374.137 0.815658 -1.58774 0
M  V30 3987 C 371.237 1.46055 -3.05812 0
M  V30 3988 C 370.41 0.952679 -4.26899 0
M  V30 3989 C 369.469 1.97407 -4.87767 0
M  V30 3990 O 368.495 1.54326 -5.4788 0
M  V30 3991 N 369.697 3.30436 -4.77276 0
M  V30 3992 H 372.462 -0.348168 -2.97671 0
M  V30 3993 H 370.023 -0.33185 -1.58463 0
M  V30 3994 H 372.015 2.14135 -3.43407 0
M  V30 3995 H 370.585 2.02948 -2.37762 0
M  V30 3996 H 369.805 0.0968248 -3.94081 0
M  V30 3997 H 371.093 0.59174 -5.05347 0
M  V30 3998 H 370.491 3.68126 -4.29534 0
M  V30 3999 H 369.048 3.94235 -5.19059 0
M  V30 4000 N 372.481 1.55866 -0.233164 0
M  V30 4001 C 373.444 2.1953 0.658715 0
M  V30 4002 C 374.444 1.16053 1.11303 0
M  V30 4003 O 375.634 1.41218 1.01996 0
M  V30 4004 C 372.766 2.82791 1.90373 0
M  V30 4005 H 373.959 2.99721 0.10347 0
M  V30 4006 H 371.512 1.56291 0.0164245 0
M  V30 4007 H 372.247 2.06501 2.50056 0
M  V30 4008 H 372.032 3.58578 1.58632 0
M  V30 4009 H 373.522 3.31556 2.53891 0
M  V30 4010 N 373.959 -0.0401083 1.57549 0
M  V30 4011 C 375.184 -0.748931 1.93406 0
M  V30 4012 C 375.609 -1.68686 0.832274 0
M  V30 4013 O 374.967 -1.80047 -0.212818 0
M  V30 4014 C 375.015 -1.4916 3.28304 0
M  V30 4015 O 374.119 -2.6042 3.19774 0
M  V30 4016 H 373.46 -0.202212 0.63246 0
M  V30 4017 H 375.99 0.00112086 2.046 0
M  V30 4018 H 376 -1.86395 3.62934 0
M  V30 4019 H 374.675 -0.80364 4.08062 0
M  V30 4020 H 373.252 -2.25808 2.96758 0
M  V30 4021 N 375.437 -1.54477 -0.31217 0
M  V30 4022 C 376.347 -1.87695 -1.4074 0
M  V30 4023 C 377.363 -0.769975 -1.56036 0
M  V30 4024 O 378.539 -1.06537 -1.70915 0
M  V30 4025 C 375.604 -2.10755 -2.75287 0
M  V30 4026 C 374.665 -3.34514 -2.69071 0
M  V30 4027 C 373.898 -3.56465 -3.97201 0
M  V30 4028 O 374.121 -2.81637 -4.96021 0
M  V30 4029 O 373.055 -4.49964 -3.9977 0
M  V30 4030 H 376.881 -2.80849 -1.15574 0
M  V30 4031 H 374.466 -1.40526 -0.507228 0
M  V30 4032 H 376.348 -2.27188 -3.54913 0
M  V30 4033 H 375.023 -1.20788 -3.0032 0
M  V30 4034 H 373.93 -3.23456 -1.87955 0
M  V30 4035 H 375.263 -4.24575 -2.48992 0
M  V30 4036 N 376.915 0.57481 -1.46744 0
M  V30 4037 C 378.14 1.36341 -1.56288 0
M  V30 4038 C 378.565 1.86954 -0.207347 0
M  V30 4039 O 377.923 1.62006 0.813871 0
M  V30 4040 C 377.971 2.52147 -2.57787 0
M  V30 4041 O 377.075 3.53834 -2.11838 0
M  V30 4042 H 376.416 0.405713 -0.525636 0
M  V30 4043 H 378.946 0.696453 -1.92382 0
M  V30 4044 H 378.956 2.98958 -2.77648 0
M  V30 4045 H 377.631 2.14663 -3.5622 0
M  V30 4046 H 376.208 3.1345 -2.01999 0
M  V30 4047 N 378.394 1.34581 0.820102 0
M  V30 4048 C 379.619 1.30333 1.61332 0
M  V30 4049 C 380.044 -0.119339 1.87721 0
M  V30 4050 O 379.402 -1.08197 1.45475 0
M  V30 4051 C 379.45 2.10258 2.92957 0
M  V30 4052 O 378.554 1.47404 3.85157 0
M  V30 4053 H 377.895 0.447488 0.490561 0
M  V30 4054 H 380.425 1.77425 1.01889 0
M  V30 4055 H 380.435 2.21718 3.42498 0
M  V30 4056 H 379.11 3.13693 2.73074 0
M  V30 4057 H 377.687 1.44703 3.43679 0
M  V30 4058 N 379.872 -1.04064 1.18357 0
M  V30 4059 C 381.097 -1.81454 1.00445 0
M  V30 4060 C 381.522 -1.82823 -0.442423 0
M  V30 4061 O 380.88 -1.24555 -1.31741 0
M  V30 4062 C 380.928 -3.24925 1.56384 0
M  V30 4063 O 380.032 -4.04856 0.785209 0
M  V30 4064 H 379.373 -0.560604 0.355835 0
M  V30 4065 H 381.903 -1.31059 1.57114 0
M  V30 4066 H 381.913 -3.75702 1.59097 0
M  V30 4067 H 380.588 -3.23244 2.61699 0
M  V30 4068 H 379.165 -3.63537 0.830399 0
M  V30 4069 N 381.35 -0.985608 -1.22978 0
M  V30 4070 C 382.766 -0.695104 -1.43668 0
M  V30 4071 C 382.966 0.736866 -1.87543 0
M  V30 4072 O 382.022 1.50868 -2.02473 0
M  V30 4073 C 383.335 -1.69447 -2.48412 0
M  V30 4074 C 384.883 -1.70909 -2.62219 0
M  V30 4075 C 385.358 -2.6969 -3.70178 0
M  V30 4076 N 386.849 -2.6824 -3.77626 0
M  V30 4077 C 387.584 -3.41339 -4.60733 0
M  V30 4078 N 387.08 -4.24015 -5.4789 0
M  V30 4079 N 388.873 -3.30079 -4.54977 0
M  V30 4080 H 381.024 -1.91054 -0.928016 0
M  V30 4081 H 383.287 -0.823553 -0.469536 0
M  V30 4082 H 382.993 -2.7188 -2.23102 0
M  V30 4083 H 382.867 -1.48147 -3.46889 0
M  V30 4084 H 385.254 -0.691785 -2.86877 0
M  V30 4085 H 385.335 -1.96276 -1.6404 0
M  V30 4086 H 384.979 -3.71566 -3.46268 0
M  V30 4087 H 384.909 -2.41595 -4.67909 0
M  V30 4088 H 387.4 -2.08243 -3.15346 0
M  V30 4089 H 387.713 -4.76636 -6.08308 0
M  V30 4090 H 386.058 -4.28104 -5.47496 0
M  V30 4091 H 389.249 -2.64937 -3.85909 0
M  V30 4092 H 389.422 -3.87308 -5.19516 0
M  V30 4093 N 382.828 1.3818 -0.7579 0
M  V30 4094 C 384.239 1.82726 -0.383134 0
M  V30 4095 C 384.59 1.63214 1.08884 0
M  V30 4096 O 383.715 1.13566 1.84205 0
M  V30 4097 C 384.31 3.31728 -0.688631 0
M  V30 4098 C 382.869 3.74606 -0.367091 0
M  V30 4099 C 382.016 2.60896 -0.939599 0
M  V30 4100 H 384.967 1.26847 -0.953699 0
M  V30 4101 H 384.988 3.80487 0.0316492 0
M  V30 4102 H 384.5 3.45898 -1.76001 0
M  V30 4103 H 382.601 3.66013 0.697532 0
M  V30 4104 H 382.714 4.71215 -0.865658 0
M  V30 4105 H 381.078 2.52075 -0.3647 0
M  V30 4106 H 381.861 2.77864 -2.0161 0
M  V30 4107 N 384.306 0.507319 1.49211 0
M  V30 4108 C 385.256 -0.287112 2.26185 0
M  V30 4109 C 386.24 -0.929983 1.31302 0
M  V30 4110 O 387.432 -0.836538 1.55984 0
M  V30 4111 C 384.561 -1.34718 3.15763 0
M  V30 4112 C 383.647 -0.710235 4.18111 0
M  V30 4113 N 384.038 0.190836 5.0544 0
M  V30 4114 C 382.336 -0.97009 4.35322 0
M  V30 4115 C 383.037 0.55606 5.79036 0
M  V30 4116 N 382.013 -0.0775232 5.43545 0
M  V30 4117 H 385.815 0.406445 2.91076 0
M  V30 4118 H 383.329 0.323814 1.59139 0
M  V30 4119 H 385.326 -1.92982 3.69545 0
M  V30 4120 H 383.986 -2.04235 2.52424 0
M  V30 4121 H 384.997 0.562047 5.14841 0
M  V30 4122 H 381.674 -1.65753 3.83187 0
M  V30 4123 H 383.064 1.2936 6.5933 0
M  V30 4124 O 385.823 -1.56889 0.38316 0
M  V30 4125 H 386.514 -1.93009 -0.163415 0
M  V30 END ATOM
M  V30 BEGIN BOND
M  V30 END BOND
M  V30 END CTAB
M  END
$$$$
