drugbank_target|O32723 Anti-sigma F factor antagonist (DB04522)
 OpenBabel12092120023D

  0  0  0     0  0            999 V3000
M  V30 BEGIN CTAB
M  V30 COUNTS 1844 1859 0 0 0
M  V30 BEGIN ATOM
M  V30 1 H -0.908 1.98254 -0.117106 0
M  V30 2 N 0 1.576 0 0
M  V30 3 C 0.933 2.03868 1.02534 0
M  V30 4 C 1.911 0.928543 1.3348 0
M  V30 5 O 3.095 1.19667 1.45644 0
M  V30 6 C 0.222 2.43627 2.35294 0
M  V30 7 C -0.732 3.65373 2.2001 0
M  V30 8 S 0.101 5.13292 1.52614 0
M  V30 9 C 1.257 5.56322 2.86805 0
M  V30 10 H 1.49 2.90518 0.631377 0
M  V30 11 H -0.977 1.52953 0.210867 0
M  V30 12 H 0.981 2.67203 3.11629 0
M  V30 13 H -0.358 1.57376 2.7183 0
M  V30 14 H -1.165 3.90944 3.18086 0
M  V30 15 H -1.563 3.418 1.51819 0
M  V30 16 H 0.729 5.58782 3.83104 0
M  V30 17 H 1.672 6.56266 2.65933 0
M  V30 18 H 2.08 4.83886 2.90714 0
M  V30 19 N 1.4781 -0.272755 1.55222 0
M  V30 20 C 2.4281 -1.33946 1.84506 0
M  V30 21 C 3.4121 -1.44682 0.70399 0
M  V30 22 O 4.6041 -1.48358 0.965338 0
M  V30 23 C 1.7331 -2.69968 2.12067 0
M  V30 24 C 0.8191 -2.63341 3.32434 0
M  V30 25 N 1.2101 -2.26335 4.52334 0
M  V30 26 C -0.4919 -2.94402 3.35028 0
M  V30 27 C 0.2091 -2.29705 5.34425 0
M  V30 28 N -0.8149 -2.68188 4.72838 0
M  V30 29 H 2.9871 -1.04343 2.74754 0
M  V30 30 H 0.5011 -0.481389 1.55101 0
M  V30 31 H 2.4981 -3.46916 2.31202 0
M  V30 32 H 1.1581 -3.00459 1.23103 0
M  V30 33 H 2.1691 -1.98309 4.78429 0
M  V30 34 H -1.1539 -3.29603 2.56257 0
M  V30 35 H 0.2361 -2.03653 6.40293 0
M  V30 36 N 2.9562 -1.48159 -0.537278 0
M  V30 37 C 4.2032 -1.55804 -1.29349 0
M  V30 38 C 4.5312 -0.228802 -1.9315 0
M  V30 39 O 3.7862 0.780242 -1.79473 0
M  V30 40 C 4.0852 -2.63956 -2.40961 0
M  V30 41 C 3.7512 -4.0662 -1.94861 0
M  V30 42 C 2.4132 -4.45452 -1.82006 0
M  V30 43 C 4.7652 -4.96055 -1.59933 0
M  V30 44 C 2.0932 -5.71531 -1.32547 0
M  V30 45 C 4.4452 -6.22617 -1.11939 0
M  V30 46 C 3.1092 -6.60312 -0.976951 0
M  V30 47 H 2.3792 -0.570129 -0.473322 0
M  V30 48 H 5.0262 -1.81845 -0.600372 0
M  V30 49 H 3.3312 -2.31747 -3.15912 0
M  V30 50 H 5.0282 -2.67089 -2.99107 0
M  V30 51 H 1.6182 -3.75949 -2.05815 0
M  V30 52 H 5.8022 -4.66738 -1.68728 0
M  V30 53 H 1.0582 -5.99468 -1.202 0
M  V30 54 H 5.2322 -6.91318 -0.839811 0
M  V30 55 H 2.8592 -7.57895 -0.591501 0
M  V30 56 N 4.4343 0.785586 -1.36625 0
M  V30 57 C 5.3663 1.90711 -1.2713 0
M  V30 58 C 6.3793 1.61688 -0.189986 0
M  V30 59 O 7.5683 1.72864 -0.445014 0
M  V30 60 C 4.6683 3.25611 -0.939713 0
M  V30 61 C 3.8413 3.82385 -2.12369 0
M  V30 62 C 2.9003 4.95732 -1.76456 0
M  V30 63 O 1.9263 5.12047 -2.48589 0
M  V30 64 N 3.1283 5.76258 -0.700492 0
M  V30 65 H 5.8933 1.99376 -2.23762 0
M  V30 66 H 3.4543 0.964041 -1.30069 0
M  V30 67 H 5.4463 3.98937 -0.680554 0
M  V30 68 H 4.0163 3.12538 -0.0624074 0
M  V30 69 H 3.2363 3.01001 -2.54543 0
M  V30 70 H 4.5243 4.17047 -2.9146 0
M  V30 71 H 3.9223 5.65609 -0.101624 0
M  V30 72 H 2.4793 6.4987 -0.501165 0
M  V30 73 N 5.9124 1.20967 1.01018 0
M  V30 74 C 6.8424 0.988272 2.11555 0
M  V30 75 C 7.8234 -0.0849778 1.69888 0
M  V30 76 O 9.0084 0.0738202 1.9406 0
M  V30 77 C 6.1384 0.546528 3.42973 0
M  V30 78 C 5.0924 1.56375 3.9841 0
M  V30 79 C 4.4184 0.97842 5.25672 0
M  V30 80 C 5.7184 2.94922 4.31066 0
M  V30 81 H 7.4124 1.91276 2.30334 0
M  V30 82 H 4.9584 0.921073 1.1069 0
M  V30 83 H 6.9114 0.378839 4.19694 0
M  V30 84 H 5.6354 -0.413598 3.23971 0
M  V30 85 H 4.2944 1.71891 3.23804 0
M  V30 86 H 3.9424 0.0101688 5.02999 0
M  V30 87 H 3.6424 1.65784 5.63728 0
M  V30 88 H 5.1664 0.821939 6.05043 0
M  V30 89 H 6.5804 2.8288 4.9865 0
M  V30 90 H 4.9774 3.5983 4.80253 0
M  V30 91 H 6.0474 3.4616 3.39561 0
M  V30 92 N 7.3905 -1.2043 1.01659 0
M  V30 93 C 8.3005 -2.2689 0.596484 0
M  V30 94 C 9.3165 -1.70107 -0.36599 0
M  V30 95 O 10.4925 -2.00117 -0.226942 0
M  V30 96 C 7.5575 -3.4665 -0.0586659 0
M  V30 97 C 6.6185 -4.18662 0.949751 0
M  V30 98 C 5.8515 -5.32705 0.32577 0
M  V30 99 O 6.0745 -5.63656 -0.874509 0
M  V30 100 O 5.0085 -5.92803 1.04249 0
M  V30 101 H 8.8345 -2.65041 1.4828 0
M  V30 102 H 6.4195 -1.27048 0.786082 0
M  V30 103 H 8.3015 -4.19256 -0.424564 0
M  V30 104 H 6.9765 -3.10375 -0.91918 0
M  V30 105 H 5.8835 -3.48229 1.36702 0
M  V30 106 H 7.2165 -4.58878 1.78023 0
M  V30 107 N 8.8686 -0.792821 -1.36206 0
M  V30 108 C 9.8016 -0.139422 -2.27774 0
M  V30 109 C 10.7796 0.68649 -1.47398 0
M  V30 110 O 11.9636 0.656738 -1.7669 0
M  V30 111 C 9.0906 0.807947 -3.28922 0
M  V30 112 C 8.1366 0.0633999 -4.26453 0
M  V30 113 S 8.9696 -1.26319 -5.20388 0
M  V30 114 C 10.1256 -0.31991 -6.25082 0
M  V30 115 H 10.3586 -0.915809 -2.82843 0
M  V30 116 H 7.8916 -0.587203 -1.42798 0
M  V30 117 H 9.8496 1.34908 -3.87699 0
M  V30 118 H 8.5106 1.55761 -2.72759 0
M  V30 119 H 7.7036 0.782386 -4.9789 0
M  V30 120 H 7.3056 -0.407352 -3.71775 0
M  V30 121 H 9.5976 0.499985 -6.75653 0
M  V30 122 H 10.5406 -1.00307 -7.00959 0
M  V30 123 H 10.9486 0.0782694 -5.64446 0
M  V30 124 N 10.3467 1.47872 -0.545128 0
M  V30 125 C 11.5927 2.02793 -0.0166104 0
M  V30 126 C 11.9257 1.41987 1.32489 0
M  V30 127 O 11.2007 0.571045 1.85928 0
M  V30 128 C 11.4837 3.59989 0.0893294 0
M  V30 129 C 11.3367 4.3125 -1.27841 0
M  V30 130 C 12.6557 4.32606 0.808724 0
M  V30 131 H 9.7747 0.736962 -0.00751035 0
M  V30 132 H 12.4167 1.76433 -0.705085 0
M  V30 133 H 10.5667 3.82579 0.675681 0
M  V30 134 H 12.2387 4.20035 -1.90704 0
M  V30 135 H 10.4817 3.92076 -1.85632 0
M  V30 136 H 11.1527 5.39736 -1.15713 0
M  V30 137 H 13.6287 4.14936 0.310992 0
M  V30 138 H 12.5047 5.42251 0.851782 0
M  V30 139 H 12.7657 4.00963 1.86229 0
M  V30 140 N 11.8248 0.280983 1.55075 0
M  V30 141 C 13.0528 -0.337293 2.04132 0
M  V30 142 C 13.4678 -1.4903 1.15912 0
M  V30 143 O 12.8248 -1.81606 0.180459 0
M  V30 144 C 12.8758 -0.812706 3.52246 0
M  V30 145 O 12.5968 0.294387 4.3711 0
M  V30 146 C 14.0978 -1.4982 4.17216 0
M  V30 147 H 11.3178 -0.0761638 0.666663 0
M  V30 148 H 13.8618 0.414787 2.00249 0
M  V30 149 H 12.0168 -1.51486 3.56554 0
M  V30 150 H 12.4308 -0.0721325 5.2445 0
M  V30 151 H 13.9048 -1.7822 5.22438 0
M  V30 152 H 14.3818 -2.43168 3.65741 0
M  V30 153 H 14.9878 -0.839742 4.16927 0
M  V30 154 N 13.3029 -1.57598 0.00835791 0
M  V30 155 C 14.7189 -1.55764 -0.347822 0
M  V30 156 C 14.9189 -1.01186 -1.74252 0
M  V30 157 O 13.9749 -0.649371 -2.44007 0
M  V30 158 C 15.2879 -2.99927 -0.215407 0
M  V30 159 C 16.8359 -3.11656 -0.289725 0
M  V30 160 C 17.3109 -4.57621 -0.18634 0
M  V30 161 N 18.8019 -4.62557 -0.243978 0
M  V30 162 C 19.5369 -5.73094 -0.18745 0
M  V30 163 N 19.0329 -6.92753 -0.0810331 0
M  V30 164 N 20.8259 -5.61588 -0.239925 0
M  V30 165 H 12.9769 -1.91411 0.92062 0
M  V30 166 H 15.2399 -0.879562 0.353659 0
M  V30 167 H 14.9459 -3.43729 0.744512 0
M  V30 168 H 14.8199 -3.63865 -0.994097 0
M  V30 169 H 17.2069 -2.67779 -1.24009 0
M  V30 170 H 17.2879 -2.5048 0.51898 0
M  V30 171 H 16.9319 -5.02174 0.760519 0
M  V30 172 H 16.8619 -5.16752 -1.01364 0
M  V30 173 H 19.3529 -3.76481 -0.327217 0
M  V30 174 H 19.6659 -7.72787 -0.0440241 0
M  V30 175 H 18.0109 -6.94984 -0.0465419 0
M  V30 176 H 21.2019 -4.66996 -0.321317 0
M  V30 177 H 21.3749 -6.47714 -0.192407 0
M  V30 178 N 14.781 0.264519 -1.55364 0
M  V30 179 C 15.691 1.34902 -1.91934 0
M  V30 180 C 16.707 1.53595 -0.817593 0
M  V30 181 O 17.883 1.67558 -1.11742 0
M  V30 182 C 14.948 2.68676 -2.19121 0
M  V30 183 C 14.009 2.58657 -3.4263 0
M  V30 184 C 13.242 3.86051 -3.68511 0
M  V30 185 O 13.465 4.87126 -2.96757 0
M  V30 186 O 12.399 3.85744 -4.62045 0
M  V30 187 H 16.225 1.06883 -2.8427 0
M  V30 188 H 13.81 0.463775 -1.42019 0
M  V30 189 H 15.692 3.47759 -2.37995 0
M  V30 190 H 14.367 2.96463 -1.29966 0
M  V30 191 H 13.274 1.7792 -3.29082 0
M  V30 192 H 14.607 2.35818 -4.32031 0
M  V30 193 N 16.2591 1.48442 0.529413 0
M  V30 194 C 17.4871 1.60151 1.30994 0
M  V30 195 C 17.9021 0.261985 1.86973 0
M  V30 196 O 17.2591 -0.748805 1.66431 0
M  V30 197 C 17.3101 2.64854 2.46038 0
M  V30 198 O 17.0311 3.93608 1.92365 0
M  V30 199 C 18.5321 2.87007 3.37849 0
M  V30 200 H 15.7521 0.539971 0.398338 0
M  V30 201 H 18.2961 1.94273 0.638597 0
M  V30 202 H 16.4511 2.33589 3.09055 0
M  V30 203 H 16.8651 4.51055 2.67675 0
M  V30 204 H 18.3391 3.64068 4.14919 0
M  V30 205 H 18.8161 1.95852 3.93114 0
M  V30 206 H 19.4221 3.19579 2.80623 0
M  V30 207 N 17.7372 -0.778329 1.37039 0
M  V30 208 C 18.9832 -1.53892 1.32079 0
M  V30 209 C 19.3162 -1.9396 -0.0965386 0
M  V30 210 O 18.5912 -1.63568 -1.05242 0
M  V30 211 C 18.8742 -2.80847 2.25382 0
M  V30 212 C 18.7272 -2.47076 3.75864 0
M  V30 213 C 20.0462 -3.82741 2.1725 0
M  V30 214 H 17.1652 -0.558303 0.48111 0
M  V30 215 H 19.8072 -0.893397 1.67685 0
M  V30 216 H 17.9572 -3.35931 1.95148 0
M  V30 217 H 19.6292 -1.97957 4.16666 0
M  V30 218 H 17.8722 -1.79863 3.94755 0
M  V30 219 H 18.5432 -3.37798 4.36574 0
M  V30 220 H 21.0192 -3.37133 2.43887 0
M  V30 221 H 19.8952 -4.69303 2.84686 0
M  V30 222 H 20.1562 -4.2652 1.16331 0
M  V30 223 N 19.2153 -1.21501 -1.00376 0
M  V30 224 C 20.4613 -1.03452 -1.74429 0
M  V30 225 C 20.7943 0.430764 -1.89362 0
M  V30 226 O 20.0693 1.31962 -1.42886 0
M  V30 227 C 20.3523 -1.73375 -3.15615 0
M  V30 228 C 20.2053 -3.27431 -3.08397 0
M  V30 229 C 21.5243 -1.47732 -4.14564 0
M  V30 230 H 18.6433 -0.377226 -0.633143 0
M  V30 231 H 21.2853 -1.49693 -1.17013 0
M  V30 232 H 19.4353 -1.34064 -3.64636 0
M  V30 233 H 21.1073 -3.76119 -2.67081 0
M  V30 234 H 19.3503 -3.5767 -2.45468 0
M  V30 235 H 20.0213 -3.71524 -4.08258 0
M  V30 236 H 22.4973 -1.8186 -3.74254 0
M  V30 237 H 21.3733 -1.99169 -5.11491 0
M  V30 238 H 21.6343 -0.407589 -4.40217 0
M  V30 239 N 20.6934 1.19889 -1.02296 0
M  V30 240 C 21.9424 1.88743 -0.711257 0
M  V30 241 C 22.2554 1.80112 0.762817 0
M  V30 242 O 23.4614 2.44161 1.18733 0
M  V30 243 C 21.9174 3.38525 -1.22185 0
M  V30 244 C 21.5254 3.55727 -2.72328 0
M  V30 245 C 23.2694 4.12893 -0.985864 0
M  V30 246 C 21.1764 4.99369 -3.16835 0
M  V30 247 H 20.1064 0.706885 -0.262353 0
M  V30 248 H 22.7574 1.35586 -1.23648 0
M  V30 249 H 21.1394 3.91044 -0.624571 0
M  V30 250 H 22.3134 3.13564 -3.3766 0
M  V30 251 H 20.6284 2.94739 -2.9414 0
M  V30 252 H 23.2254 5.18813 -1.29374 0
M  V30 253 H 23.5684 4.16228 0.0775055 0
M  V30 254 H 24.1014 3.66494 -1.54684 0
M  V30 255 H 20.8404 5.01193 -4.22476 0
M  V30 256 H 20.3604 5.42317 -2.56228 0
M  V30 257 H 22.0394 5.67988 -3.09837 0
M  V30 258 N 22.1715 0.800033 1.35784 0
M  V30 259 C 23.5875 0.482977 1.52117 0
M  V30 260 C 23.7875 -0.996948 1.75109 0
M  V30 261 O 22.8435 -1.78216 1.78872 0
M  V30 262 C 24.1565 1.32264 2.70049 0
M  V30 263 C 25.7045 1.31742 2.83924 0
M  V30 264 C 26.1795 2.14106 4.04874 0
M  V30 265 N 27.6705 2.11607 4.12039 0
M  V30 266 C 28.4055 2.72099 5.04727 0
M  V30 267 N 27.9015 3.41492 6.02789 0
M  V30 268 N 29.6945 2.61776 4.97423 0
M  V30 269 H 21.8455 1.75856 1.19115 0
M  V30 270 H 24.1085 0.748122 0.582252 0
M  V30 271 H 23.8145 2.37261 2.59616 0
M  V30 272 H 23.6885 0.971303 3.6448 0
M  V30 273 H 26.0755 0.275333 2.93813 0
M  V30 274 H 26.1565 1.70859 1.9037 0
M  V30 275 H 25.8005 3.18351 3.95746 0
M  V30 276 H 25.7305 1.72353 4.97596 0
M  V30 277 H 28.2215 1.61112 3.41835 0
M  V30 278 H 28.5345 3.84953 6.70098 0
M  V30 279 H 26.8795 3.45596 6.02983 0
M  V30 280 H 30.0705 2.07157 4.19766 0
M  V30 281 H 30.2435 3.0921 5.69468 0
M  V30 282 N 23.6496 -1.47581 0.552962 0
M  V30 283 C 24.5796 -2.32762 -0.185451 0
M  V30 284 C 25.5606 -1.43527 -0.912905 0
M  V30 285 O 26.7456 -1.72388 -0.894201 0
M  V30 286 C 23.8756 -3.25219 -1.21859 0
M  V30 287 C 22.8296 -4.23661 -0.607864 0
M  V30 288 C 22.1556 -5.05413 -1.74533 0
M  V30 289 C 23.4556 -5.20481 0.435582 0
M  V30 290 H 25.1496 -2.94749 0.525684 0
M  V30 291 H 22.6956 -1.41738 0.254251 0
M  V30 292 H 24.6486 -3.8365 -1.7433 0
M  V30 293 H 23.3726 -2.61279 -1.95961 0
M  V30 294 H 22.0316 -3.66451 -0.104489 0
M  V30 295 H 21.6796 -4.3788 -2.47529 0
M  V30 296 H 21.3796 -5.72059 -1.34249 0
M  V30 297 H 22.9036 -5.66701 -2.27338 0
M  V30 298 H 24.3176 -5.733 -0.00290157 0
M  V30 299 H 22.7146 -5.95305 0.757067 0
M  V30 300 H 23.7846 -4.66217 1.33303 0
M  V30 301 N 25.1277 -0.289203 -1.54924 0
M  V30 302 C 26.3747 0.323519 -1.99899 0
M  V30 303 C 26.7027 1.54797 -1.17762 0
M  V30 304 O 25.9577 1.94237 -0.238835 0
M  V30 305 C 26.2567 0.736119 -3.49737 0
M  V30 306 C 25.9227 -0.385276 -4.49251 0
M  V30 307 C 24.5847 -0.693156 -4.76181 0
M  V30 308 C 26.9367 -1.14021 -5.08575 0
M  V30 309 C 24.2647 -1.7593 -5.59701 0
M  V30 310 C 26.6167 -2.19619 -5.93254 0
M  V30 311 C 25.2807 -2.51026 -6.185 0
M  V30 312 H 24.5507 0.118384 -0.731482 0
M  V30 313 H 27.1977 -0.405847 -1.8715 0
M  V30 314 H 25.5027 1.54539 -3.60035 0
M  V30 315 H 27.1997 1.22118 -3.81953 0
M  V30 316 H 23.7897 -0.135202 -4.28387 0
M  V30 317 H 27.9737 -0.915611 -4.87781 0
M  V30 318 H 23.2297 -2.0075 -5.77503 0
M  V30 319 H 27.4037 -2.78581 -6.38252 0
M  V30 320 H 25.0307 -3.33772 -6.83008 0
M  V30 321 N 26.6058 1.57591 -0.0167156 0
M  V30 322 C 27.8538 1.90906 0.663285 0
M  V30 323 C 28.1748 0.892509 1.73376 0
M  V30 324 O 27.4448 -0.0677623 1.95783 0
M  V30 325 H 26.0248 0.704637 0.247983 0
M  V30 326 H 28.6868 1.94803 -0.0615909 0
M  V30 327 H 27.7828 2.9116 1.12393 0
M  V30 328 N 28.0839 -0.256276 1.55502 0
M  V30 329 C 28.9939 -1.33882 1.92647 0
M  V30 330 C 30.0099 -1.53159 0.825727 0
M  V30 331 O 31.1859 -1.66963 1.12629 0
M  V30 332 C 28.2509 -2.6751 2.20543 0
M  V30 333 C 27.3119 -2.56836 3.43997 0
M  V30 334 C 26.5449 -3.84092 3.70553 0
M  V30 335 O 26.7679 -4.85545 2.99336 0
M  V30 336 O 25.7019 -3.83288 4.64084 0
M  V30 337 H 29.5279 -1.05374 2.84833 0
M  V30 338 H 27.1129 -0.456237 1.42263 0
M  V30 339 H 28.9949 -3.46492 2.39835 0
M  V30 340 H 27.6699 -2.9577 1.31536 0
M  V30 341 H 26.5769 -1.76172 3.30021 0
M  V30 342 H 27.9099 -2.33523 4.33275 0
M  V30 343 N 29.562 -1.4872 -0.521534 0
M  V30 344 C 30.492 -1.66771 -1.63431 0
M  V30 345 C 31.473 -0.516499 -1.62069 0
M  V30 346 O 32.658 -0.750013 -1.79132 0
M  V30 347 C 29.788 -1.71515 -3.01993 0
M  V30 348 C 28.742 -2.86222 -3.18216 0
M  V30 349 C 28.068 -2.76061 -4.57924 0
M  V30 350 C 29.368 -4.27419 -3.00184 0
M  V30 351 H 31.062 -2.59932 -1.48579 0
M  V30 352 H 28.608 -1.25089 -0.713358 0
M  V30 353 H 30.561 -1.82731 -3.7972 0
M  V30 354 H 29.285 -0.749393 -3.17886 0
M  V30 355 H 27.944 -2.74575 -2.42908 0
M  V30 356 H 27.592 -1.77437 -4.70665 0
M  V30 357 H 27.292 -3.53037 -4.69722 0
M  V30 358 H 28.816 -2.89256 -5.37739 0
M  V30 359 H 30.23 -4.39855 -3.67697 0
M  V30 360 H 28.627 -5.05458 -3.2347 0
M  V30 361 H 29.697 -4.43293 -1.96518 0
M  V30 362 N 31.0401 0.771051 -1.3745 0
M  V30 363 C 32.3171 1.519 -1.23231 0
M  V30 364 C 32.6971 2.10383 0.173809 0
M  V30 365 O 32.0451 1.95583 1.18151 0
M  V30 366 C 32.2551 2.59933 -2.32886 0
M  V30 367 C 33.6031 3.27316 -2.70461 0
M  V30 368 O 34.6271 2.70228 -2.32068 0
M  V30 369 O 33.4861 4.30531 -3.36608 0
M  V30 370 H 30.5801 0.672803 -0.480901 0
M  V30 371 H 33.1261 0.807957 -1.49232 0
M  V30 372 H 31.8981 2.14842 -3.27045 0
M  V30 373 H 31.5211 3.38637 -2.08353 0
M  V30 374 N 32.5182 1.22032 0.997298 0
M  V30 375 C 33.4682 0.953838 2.07089 0
M  V30 376 C 34.4522 -0.0938669 1.60626 0
M  V30 377 O 35.6442 0.116078 1.76619 0
M  V30 378 C 32.7732 0.528726 3.39204 0
M  V30 379 C 31.8592 1.61092 3.92314 0
M  V30 380 N 32.2502 2.83768 4.18699 0
M  V30 381 C 30.5482 1.48158 4.20672 0
M  V30 382 C 31.2492 3.53715 4.61802 0
M  V30 383 N 30.2252 2.81174 4.65233 0
M  V30 384 H 34.0272 1.88577 2.25424 0
M  V30 385 H 31.5412 1.11719 1.17867 0
M  V30 386 H 33.5382 0.31915 4.15677 0
M  V30 387 H 32.1982 -0.39635 3.22272 0
M  V30 388 H 33.2092 3.20238 4.07023 0
M  V30 389 H 29.8862 0.622369 4.12835 0
M  V30 390 H 31.2762 4.58793 4.90875 0
M  V30 391 N 33.9963 -1.19345 1.0293 0
M  V30 392 C 34.9463 -2.20472 0.58104 0
M  V30 393 C 35.9303 -1.56578 -0.370442 0
M  V30 394 O 37.1223 -1.75963 -0.191344 0
M  V30 395 C 34.2513 -3.43236 -0.066306 0
M  V30 396 C 33.3373 -4.14274 0.907642 0
M  V30 397 N 33.7283 -4.61492 2.07023 0
M  V30 398 C 32.0263 -4.39966 0.731177 0
M  V30 399 C 32.7273 -5.1605 2.68454 0
M  V30 400 N 31.7033 -5.06875 1.96414 0
M  V30 401 H 35.5053 -2.54659 1.46717 0
M  V30 402 H 33.0193 -1.35423 0.896345 0
M  V30 403 H 35.0163 -4.14927 -0.405068 0
M  V30 404 H 33.6763 -3.10549 -0.948118 0
M  V30 405 H 34.6873 -4.56304 2.44963 0
M  V30 406 H 31.3643 -4.17377 -0.101507 0
M  V30 407 H 32.7543 -5.6287 3.66915 0
M  V30 408 N 35.4744 -0.807222 -1.35358 0
M  V30 409 C 36.4374 -0.223665 -2.28106 0
M  V30 410 C 37.4374 0.589354 -1.4961 0
M  V30 411 O 38.6274 0.407745 -1.69361 0
M  V30 412 C 35.7594 0.688149 -3.33882 0
M  V30 413 H 36.9524 -1.04169 -2.81227 0
M  V30 414 H 34.5054 -0.577921 -1.45223 0
M  V30 415 H 35.2404 1.52984 -2.85948 0
M  V30 416 H 35.0254 0.10687 -3.91954 0
M  V30 417 H 36.5154 1.09075 -4.03104 0
M  V30 418 N 36.9525 1.47285 -0.560781 0
M  V30 419 C 38.1985 2.02764 -0.0381184 0
M  V30 420 C 38.5315 1.43384 1.30976 0
M  V30 421 O 37.8065 0.590733 1.85312 0
M  V30 422 C 38.0895 3.60064 0.0511427 0
M  V30 423 C 37.9425 4.2987 -1.32408 0
M  V30 424 C 39.2615 4.33439 0.762795 0
M  V30 425 H 36.3805 0.736841 -0.0153264 0
M  V30 426 H 39.0225 1.75675 -0.723759 0
M  V30 427 H 37.1725 3.83274 0.635065 0
M  V30 428 H 38.8445 4.17989 -1.95148 0
M  V30 429 H 37.0875 3.90085 -1.8978 0
M  V30 430 H 37.7585 5.38478 -1.21431 0
M  V30 431 H 40.2345 4.15243 0.266965 0
M  V30 432 H 39.1105 5.43124 0.794221 0
M  V30 433 H 39.3715 4.02915 1.81966 0
M  V30 434 N 38.4306 0.297415 1.54768 0
M  V30 435 C 39.3406 -0.58983 2.27064 0
M  V30 436 C 40.3566 -1.15144 1.30453 0
M  V30 437 O 41.5326 -1.17699 1.63428 0
M  V30 438 C 38.5976 -1.74714 2.9946 0
M  V30 439 C 37.6586 -1.21997 4.11601 0
M  V30 440 C 36.8916 -2.32212 4.80535 0
M  V30 441 O 37.1146 -3.52036 4.48806 0
M  V30 442 O 36.0486 -1.99106 5.68014 0
M  V30 443 H 39.8746 -0.00348199 3.037 0
M  V30 444 H 37.4596 0.0640035 1.49263 0
M  V30 445 H 39.3416 -2.42147 3.44881 0
M  V30 446 H 38.0166 -2.32016 2.25722 0
M  V30 447 H 36.9236 -0.511458 3.70587 0
M  V30 448 H 38.2566 -0.692419 4.87305 0
M  V30 449 N 39.9087 -1.5758 0.0250728 0
M  V30 450 C 40.8407 -2.06869 -0.986796 0
M  V30 451 C 41.8537 -0.991332 -1.29137 0
M  V30 452 O 43.0427 -1.26761 -1.25674 0
M  V30 453 C 40.1427 -2.47486 -2.31525 0
M  V30 454 C 39.3157 -3.78253 -2.19643 0
M  V30 455 C 38.3747 -4.05464 -3.35388 0
M  V30 456 O 37.4007 -4.75774 -3.12454 0
M  V30 457 N 38.6027 -3.55321 -4.59051 0
M  V30 458 H 41.3677 -2.94302 -0.566276 0
M  V30 459 H 38.9287 -1.6109 -0.161776 0
M  V30 460 H 40.9207 -2.62785 -3.07776 0
M  V30 461 H 39.4907 -1.65441 -2.65232 0
M  V30 462 H 38.7107 -3.7279 -1.28144 0
M  V30 463 H 39.9987 -4.63936 -2.08903 0
M  V30 464 H 39.3967 -2.98431 -4.80578 0
M  V30 465 H 37.9537 -3.75905 -5.32483 0
M  V30 466 N 41.3868 0.248026 -1.55636 0
M  V30 467 C 42.6358 0.974134 -1.76617 0
M  V30 468 C 42.9488 1.86528 -0.588796 0
M  V30 469 O 44.1548 2.62805 -0.681594 0
M  V30 470 C 42.6108 1.78213 -3.12679 0
M  V30 471 C 42.2188 0.93843 -4.38061 0
M  V30 472 C 43.9628 2.50104 -3.42999 0
M  V30 473 C 41.8698 1.74225 -5.65155 0
M  V30 474 H 40.7998 0.36745 -0.658405 0
M  V30 475 H 43.4508 0.22884 -1.82067 0
M  V30 476 H 41.8328 2.56933 -3.01333 0
M  V30 477 H 43.0068 0.193635 -4.60393 0
M  V30 478 H 41.3218 0.332905 -4.15067 0
M  V30 479 H 43.9188 3.10694 -4.3517 0
M  V30 480 H 44.2618 3.21662 -2.64271 0
M  V30 481 H 44.7948 1.78395 -3.55556 0
M  V30 482 H 41.5338 1.07043 -6.46701 0
M  V30 483 H 41.0538 2.46235 -5.46926 0
M  V30 484 H 42.7328 2.30967 -6.0437 0
M  V30 485 N 42.8649 1.48995 0.513639 0
M  V30 486 C 44.2809 1.35478 0.843682 0
M  V30 487 C 44.4809 0.378213 1.97919 0
M  V30 488 O 43.5369 -0.194689 2.51748 0
M  V30 489 C 44.8499 2.75901 1.1958 0
M  V30 490 C 46.3979 2.84509 1.30474 0
M  V30 491 C 46.8729 4.25671 1.69021 0
M  V30 492 N 48.3639 4.28422 1.76094 0
M  V30 493 C 49.0989 5.34601 2.07338 0
M  V30 494 N 48.5949 6.5104 2.36894 0
M  V30 495 N 50.3879 5.22007 2.08483 0
M  V30 496 H 42.5389 2.11092 -0.235328 0
M  V30 497 H 44.8019 0.947039 -0.0426669 0
M  V30 498 H 44.5079 3.49001 0.434913 0
M  V30 499 H 44.3819 3.10467 2.1422 0
M  V30 500 H 46.7689 2.11655 2.05637 0
M  V30 501 H 46.8499 2.53542 0.339155 0
M  V30 502 H 46.4939 4.99048 0.944135 0
M  V30 503 H 46.4239 4.54094 2.66658 0
M  V30 504 H 48.9149 3.44441 1.55464 0
M  V30 505 H 49.2279 7.2779 2.59887 0
M  V30 506 H 47.5729 6.54287 2.34378 0
M  V30 507 H 50.7639 4.30051 1.84861 0
M  V30 508 H 50.9369 6.04854 2.325 0
M  V30 509 N 44.343 -0.763751 1.37857 0
M  V30 510 C 45.306 -1.85889 1.34081 0
M  V30 511 C 46.306 -1.58949 0.243277 0
M  V30 512 O 47.496 -1.66882 0.499589 0
M  V30 513 C 44.628 -3.23176 1.08489 0
M  V30 514 H 45.821 -1.90648 2.31502 0
M  V30 515 H 43.374 -0.964367 1.23003 0
M  V30 516 H 44.109 -3.24091 0.116318 0
M  V30 517 H 43.894 -3.44124 1.8794 0
M  V30 518 H 45.384 -4.03254 1.08517 0
M  V30 519 N 45.8211 -1.22559 -0.990812 0
M  V30 520 C 46.7681 -0.997519 -2.0813 0
M  V30 521 C 47.7381 0.0814702 -1.659 0
M  V30 522 O 48.9231 -0.0685424 -1.90677 0
M  V30 523 C 46.0631 -0.583615 -3.40129 0
M  V30 524 C 45.1761 -1.7336 -3.9569 0
M  V30 525 C 44.3111 -1.26748 -5.15857 0
M  V30 526 C 43.3501 -2.38888 -5.63559 0
M  V30 527 N 42.4871 -1.93308 -6.74964 0
M  V30 528 H 47.3271 -1.93099 -2.26973 0
M  V30 529 H 44.8641 -0.962114 -1.11273 0
M  V30 530 H 46.8221 -0.324801 -4.15934 0
M  V30 531 H 45.4521 0.312845 -3.2128 0
M  V30 532 H 44.5041 -2.10669 -3.16738 0
M  V30 533 H 45.8161 -2.57704 -4.27071 0
M  V30 534 H 44.9701 -0.966173 -5.98957 0
M  V30 535 H 43.7091 -0.394272 -4.86104 0
M  V30 536 H 42.7141 -2.69805 -4.79046 0
M  V30 537 H 43.9391 -3.26728 -5.95336 0
M  V30 538 H 41.8851 -1.08352 -6.4699 0
M  V30 539 H 41.8021 -2.71217 -7.05675 0
M  V30 540 H 43.0701 -1.66252 -7.61564 0
M  V30 541 N 47.2992 1.18797 -1.03562 0
M  V30 542 C 48.5482 1.87978 -0.731235 0
M  V30 543 C 48.8612 1.80911 0.743671 0
M  V30 544 O 50.0672 2.45407 1.16137 0
M  V30 545 C 48.5232 3.3721 -1.25768 0
M  V30 546 C 48.1312 3.52818 -2.76085 0
M  V30 547 C 49.8752 4.11825 -1.0296 0
M  V30 548 C 47.7822 4.9598 -3.22114 0
M  V30 549 H 46.7122 0.704063 -0.269835 0
M  V30 550 H 49.3632 1.34266 -1.25079 0
M  V30 551 H 47.7452 3.90359 -0.666011 0
M  V30 552 H 48.9192 3.09965 -3.40966 0
M  V30 553 H 47.2342 2.91602 -2.97249 0
M  V30 554 H 49.8312 5.17411 -1.34869 0
M  V30 555 H 50.1742 4.16287 0.0333546 0
M  V30 556 H 50.7072 3.64833 -1.58562 0
M  V30 557 H 47.4462 4.96684 -4.27768 0
M  V30 558 H 46.9662 5.39569 -2.61965 0
M  V30 559 H 48.6452 5.6467 -3.15844 0
M  V30 560 N 48.7773 0.814389 1.34928 0
M  V30 561 C 50.0023 0.410097 2.03305 0
M  V30 562 C 50.4273 -0.973464 1.60951 0
M  V30 563 O 49.7853 -1.63185 0.789964 0
M  V30 564 C 49.8333 0.51049 3.56968 0
M  V30 565 O 48.9373 -0.473035 4.09678 0
M  V30 566 H 48.2783 0.170088 0.641846 0
M  V30 567 H 50.8083 1.10244 1.72358 0
M  V30 568 H 50.8183 0.383135 4.06197 0
M  V30 569 H 49.4933 1.51963 3.87144 0
M  V30 570 H 48.0703 -0.305272 3.71648 0
M  V30 571 N 50.2554 -1.46986 0.568584 0
M  V30 572 C 51.2184 -2.28624 -0.162366 0
M  V30 573 C 52.2184 -1.37596 -0.832103 0
M  V30 574 O 53.4084 -1.60115 -0.68622 0
M  V30 575 C 50.5404 -3.17596 -1.23878 0
M  V30 576 H 51.7334 -2.94722 0.554899 0
M  V30 577 H 49.2864 -1.52863 0.325976 0
M  V30 578 H 50.0214 -2.56214 -1.98808 0
M  V30 579 H 49.8064 -3.846 -0.763219 0
M  V30 580 H 51.2964 -3.79078 -1.75185 0
M  V30 581 N 51.7335 -0.305618 -1.54608 0
M  V30 582 C 52.6965 0.555591 -2.22364 0
M  V30 583 C 53.6965 1.05768 -1.21119 0
M  V30 584 O 54.8865 0.952972 -1.45822 0
M  V30 585 C 52.0185 1.76974 -2.91364 0
M  V30 586 H 53.2115 -0.0364572 -2.99878 0
M  V30 587 H 50.7645 -0.0565007 -1.56198 0
M  V30 588 H 51.4995 2.40151 -2.17941 0
M  V30 589 H 51.2845 1.41732 -3.65588 0
M  V30 590 H 52.7745 2.38148 -3.43038 0
M  V30 591 N 53.2116 1.57565 -0.0334293 0
M  V30 592 C 54.4606 1.91155 0.643639 0
M  V30 593 C 54.7736 0.91192 1.73042 0
M  V30 594 O 55.9796 1.13923 2.46442 0
M  V30 595 C 54.4356 3.39443 1.1961 0
M  V30 596 C 54.0436 4.47774 0.142381 0
M  V30 597 C 55.7876 3.82094 1.84944 0
M  V30 598 C 53.6946 5.87162 0.706727 0
M  V30 599 H 52.6246 0.713368 0.244176 0
M  V30 600 H 55.2756 1.8323 -0.0994323 0
M  V30 601 H 53.6576 3.42313 1.99092 0
M  V30 602 H 54.8316 4.56469 -0.630296 0
M  V30 603 H 53.1466 4.14352 -0.412446 0
M  V30 604 H 55.7436 4.83591 2.2813 0
M  V30 605 H 56.0866 3.17386 2.69392 0
M  V30 606 H 56.6196 3.81665 1.12145 0
M  V30 607 H 53.3586 6.55424 -0.0997178 0
M  V30 608 H 52.8786 5.82064 1.44779 0
M  V30 609 H 54.5576 6.35866 1.19514 0
M  V30 610 N 54.6897 -0.239769 1.55765 0
M  V30 611 C 55.9367 -0.966801 1.7793 0
M  V30 612 C 56.2647 -1.85046 0.599015 0
M  V30 613 O 55.5197 -1.91197 -0.417395 0
M  V30 614 C 55.8187 -1.852 3.05672 0
M  V30 615 C 55.4847 -1.1231 4.36689 0
M  V30 616 C 54.1467 -0.921689 4.72291 0
M  V30 617 C 56.4987 -0.607019 5.17653 0
M  V30 618 C 53.8267 -0.191996 5.86386 0
M  V30 619 C 56.1787 0.109241 6.32506 0
M  V30 620 C 54.8427 0.322073 6.66723 0
M  V30 621 H 54.1127 -0.353778 0.651093 0
M  V30 622 H 56.7597 -0.23634 1.90036 0
M  V30 623 H 55.0647 -2.64975 2.8861 0
M  V30 624 H 56.7617 -2.41635 3.20021 0
M  V30 625 H 53.3517 -1.29004 4.08725 0
M  V30 626 H 57.5357 -0.750153 4.90598 0
M  V30 627 H 52.7917 -0.0166949 6.11398 0
M  V30 628 H 56.9657 0.516737 6.9448 0
M  V30 629 H 54.5927 0.88944 7.54979 0
M  V30 630 N 56.1678 -1.49265 -0.50573 0
M  V30 631 C 57.0998 -1.617 -1.62437 0
M  V30 632 C 58.1128 -0.499924 -1.54934 0
M  V30 633 O 59.3018 -0.771785 -1.60953 0
M  V30 634 C 56.4018 -1.5533 -3.01207 0
M  V30 635 C 55.5748 -2.8249 -3.33943 0
M  V30 636 C 54.6338 -2.69238 -4.52103 0
M  V30 637 O 53.6598 -3.43167 -4.5412 0
M  V30 638 N 54.8618 -1.80468 -5.51735 0
M  V30 639 H 57.6268 -2.58177 -1.52199 0
M  V30 640 H 55.1878 -1.46294 -0.693511 0
M  V30 641 H 57.1798 -1.44125 -3.78167 0
M  V30 642 H 55.7498 -0.667297 -3.05395 0
M  V30 643 H 54.9698 -3.08081 -2.45926 0
M  V30 644 H 56.2578 -3.66802 -3.5261 0
M  V30 645 H 55.6558 -1.19653 -5.52901 0
M  V30 646 H 54.2128 -1.75188 -6.27816 0
M  V30 647 N 57.6459 0.756429 -1.3826 0
M  V30 648 C 58.8939 1.51248 -1.34047 0
M  V30 649 C 59.2149 1.94875 0.0698372 0
M  V30 650 O 58.4849 1.67436 1.01696 0
M  V30 651 H 57.0649 0.561018 -0.493222 0
M  V30 652 H 59.7269 0.899347 -1.7291 0
M  V30 653 H 58.8229 2.40472 -1.98947 0
M  V30 654 N 59.124 1.23083 0.984299 0
M  V30 655 C 60.352 1.08714 1.76037 0
M  V30 656 C 60.767 -0.361691 1.85303 0
M  V30 657 O 60.124 -1.25034 1.32939 0
M  V30 658 C 60.175 1.70206 3.18923 0
M  V30 659 O 59.896 3.09423 3.10144 0
M  V30 660 C 61.397 1.61227 4.12941 0
M  V30 661 H 58.617 0.380664 0.552572 0
M  V30 662 H 61.161 1.62853 1.23689 0
M  V30 663 H 59.316 1.20109 3.6831 0
M  V30 664 H 59.73 3.39188 4.00065 0
M  V30 665 H 61.204 2.08962 5.10919 0
M  V30 666 H 61.681 0.570375 4.35481 0
M  V30 667 H 62.287 2.10671 3.69456 0
M  V30 668 N 60.6021 -1.18246 1.0419 0
M  V30 669 C 61.8481 -1.88536 0.747122 0
M  V30 670 C 62.1811 -1.80223 -0.723409 0
M  V30 671 O 61.4561 -1.20337 -1.52804 0
M  V30 672 C 61.7391 -3.38968 1.21544 0
M  V30 673 C 61.5921 -3.56084 2.74816 0
M  V30 674 C 62.9111 -4.32648 0.806482 0
M  V30 675 H 60.0301 -0.684619 0.272883 0
M  V30 676 H 62.6721 -1.39113 1.29413 0
M  V30 677 H 60.8221 -3.8119 0.750081 0
M  V30 678 H 62.4941 -3.22946 3.29399 0
M  V30 679 H 60.7371 -2.98699 3.14582 0
M  V30 680 H 61.4081 -4.61639 3.02644 0
M  V30 681 H 63.8841 -3.98211 1.20695 0
M  V30 682 H 62.7601 -5.36462 1.1619 0
M  V30 683 H 63.0211 -4.41146 -0.29029 0
M  V30 684 N 62.0802 -0.821533 -1.34494 0
M  V30 685 C 63.3082 -0.421884 -2.02553 0
M  V30 686 C 63.7232 0.971745 -1.61872 0
M  V30 687 O 63.0802 1.62864 -0.823496 0
M  V30 688 C 63.1312 -0.51285 -3.57844 0
M  V30 689 O 62.8522 -1.85155 -3.97051 0
M  V30 690 C 64.3532 -0.107921 -4.43169 0
M  V30 691 H 61.5732 -0.169482 -0.649243 0
M  V30 692 H 64.1172 -1.1093 -1.71798 0
M  V30 693 H 62.2722 0.126474 -3.87193 0
M  V30 694 H 62.6862 -1.82482 -4.91732 0
M  V30 695 H 64.1602 -0.222657 -5.51551 0
M  V30 696 H 64.6372 0.948401 -4.28838 0
M  V30 697 H 65.2432 -0.720989 -4.19144 0
M  V30 698 N 63.5583 1.46682 -0.576371 0
M  V30 699 C 64.7863 2.06798 -0.0649635 0
M  V30 700 C 65.2013 1.42612 1.23723 0
M  V30 701 O 64.5583 0.529203 1.74659 0
M  V30 702 C 64.6093 3.6132 0.114202 0
M  V30 703 O 64.3303 4.23104 -1.13644 0
M  V30 704 C 65.8313 4.38349 0.66069 0
M  V30 705 H 63.0513 0.668778 -0.0545616 0
M  V30 706 H 65.5953 1.88404 -0.795237 0
M  V30 707 H 63.7503 3.79162 0.794673 0
M  V30 708 H 64.1643 5.15894 -0.946253 0
M  V30 709 H 65.6383 5.47081 0.73526 0
M  V30 710 H 66.1153 4.05953 1.67627 0
M  V30 711 H 66.7213 4.25297 0.0152951 0
M  V30 712 N 65.0364 0.313813 1.54444 0
M  V30 713 C 66.2854 -0.292519 1.99568 0
M  V30 714 C 66.5984 -1.54011 1.20582 0
M  V30 715 O 67.8044 -2.22183 1.56035 0
M  V30 716 C 66.2604 -0.571752 3.55329 0
M  V30 717 C 65.8684 0.658229 4.43138 0
M  V30 718 C 67.6124 -1.13857 4.08946 0
M  V30 719 C 65.5194 0.351439 5.90355 0
M  V30 720 H 64.4494 -0.113079 0.745472 0
M  V30 721 H 67.1004 0.424518 1.78522 0
M  V30 722 H 65.4824 -1.34872 3.72325 0
M  V30 723 H 66.6564 1.43403 4.37918 0
M  V30 724 H 64.9714 1.14458 4.0036 0
M  V30 725 H 67.5684 -1.38257 5.16516 0
M  V30 726 H 67.9114 -2.08489 3.6033 0
M  V30 727 H 68.4444 -0.423015 3.95544 0
M  V30 728 H 65.1834 1.26667 6.43145 0
M  V30 729 H 64.7034 -0.386842 5.98551 0
M  V30 730 H 66.3824 -0.0423134 6.46986 0
M  V30 731 N 66.5145 -1.57545 0.0417849 0
M  V30 732 C 67.7635 -1.91494 -0.633492 0
M  V30 733 C 68.0765 -0.921084 -1.72556 0
M  V30 734 O 69.2825 -1.15228 -2.45835 0
M  V30 735 C 67.7385 -3.40072 -1.17808 0
M  V30 736 C 67.3465 -4.47843 -0.118633 0
M  V30 737 C 69.0905 -3.8307 -1.82915 0
M  V30 738 C 66.9975 -5.87529 -0.675578 0
M  V30 739 H 65.9275 -0.714653 -0.24039 0
M  V30 740 H 68.5785 -1.83175 0.109148 0
M  V30 741 H 66.9605 -3.43364 -1.97274 0
M  V30 742 H 68.1345 -4.56128 0.654494 0
M  V30 743 H 66.4495 -4.14128 0.434414 0
M  V30 744 H 69.0465 -4.84794 -2.25563 0
M  V30 745 H 69.3895 -3.1881 -2.67705 0
M  V30 746 H 69.9225 -3.82255 -1.10119 0
M  V30 747 H 66.6615 -6.55362 0.134475 0
M  V30 748 H 66.1815 -5.82824 -1.4169 0
M  V30 749 H 67.8605 -6.36491 -1.1614 0
M  V30 750 N 67.9926 0.231505 -1.5589 0
M  V30 751 C 69.2386 0.954429 -1.79617 0
M  V30 752 C 69.5936 1.82367 -0.613199 0
M  V30 753 O 68.8866 1.87524 0.393094 0
M  V30 754 C 69.0806 1.83577 -3.0665 0
M  V30 755 C 68.9096 1.05334 -4.3719 0
M  V30 756 C 67.6796 0.75225 -4.99669 0
M  V30 757 C 69.8776 0.423444 -5.12554 0
M  V30 758 N 67.8596 -0.052627 -6.13877 0
M  V30 759 C 69.2306 -0.245287 -6.19515 0
M  V30 760 C 71.2856 0.335466 -4.96769 0
M  V30 761 C 69.9886 -0.993566 -7.12405 0
M  V30 762 C 72.0146 -0.399321 -5.9005 0
M  V30 763 C 71.3766 -1.05663 -6.9643 0
M  V30 764 H 67.4756 0.329846 -0.709031 0
M  V30 765 H 70.0596 0.226172 -1.93382 0
M  V30 766 H 68.2306 2.53592 -2.94186 0
M  V30 767 H 69.9626 2.49541 -3.18608 0
M  V30 768 H 66.7176 1.06783 -4.61405 0
M  V30 769 H 67.1416 -0.443609 -6.75545 0
M  V30 770 H 71.7836 0.829311 -4.14587 0
M  V30 771 H 69.5016 -1.49896 -7.94076 0
M  V30 772 H 73.0876 -0.468265 -5.79913 0
M  V30 773 H 71.9676 -1.61612 -7.67366 0
M  V30 774 N 69.4707 1.49531 0.497807 0
M  V30 775 C 70.4187 1.66926 1.61983 0
M  V30 776 C 71.4127 0.535167 1.60724 0
M  V30 777 O 72.6187 0.714896 1.65195 0
M  V30 778 H 68.9937 0.526415 0.537021 0
M  V30 779 H 70.9647 2.61098 1.44465 0
M  V30 780 C 69.7137 1.75602 3.00099 0
M  V30 781 H 69.0367 2.62244 3.01775 0
M  V30 782 H 70.4767 1.91807 3.78135 0
M  V30 783 C 68.9357 0.501543 3.33146 0
M  V30 784 O 69.4657 -0.371342 3.9998 0
M  V30 785 N 67.6717 0.363531 2.88317 0
M  V30 786 H 67.2187 1.07485 2.34104 0
M  V30 787 H 67.1767 -0.474728 3.10795 0
M  V30 788 N 70.9488 -0.749086 1.3866 0
M  V30 789 C 71.8788 -1.8764 1.38973 0
M  V30 790 C 72.8598 -1.68178 0.255004 0
M  V30 791 O 74.0448 -1.88704 0.458754 0
M  V30 792 C 71.1748 -3.25222 1.21851 0
M  V30 793 C 70.1288 -3.59295 2.32575 0
M  V30 794 C 69.4548 -4.95663 2.00555 0
M  V30 795 C 70.7548 -3.63709 3.7485 0
M  V30 796 H 72.4488 -1.87635 2.3331 0
M  V30 797 H 69.9948 -0.901329 1.12303 0
M  V30 798 H 71.9478 -4.03746 1.20695 0
M  V30 799 H 70.6718 -3.25719 0.239775 0
M  V30 800 H 69.3308 -2.83093 2.32925 0
M  V30 801 H 68.9788 -4.92724 1.01154 0
M  V30 802 H 68.6788 -5.19429 2.74714 0
M  V30 803 H 70.2028 -5.7656 2.01024 0
M  V30 804 H 71.6168 -4.32338 3.76506 0
M  V30 805 H 70.0138 -3.98986 4.48252 0
M  V30 806 H 71.0838 -2.63834 4.06841 0
M  V30 807 N 72.4269 -1.23603 -0.977757 0
M  V30 808 C 73.3369 -1.03632 -2.1047 0
M  V30 809 C 74.3529 0.0199435 -1.73989 0
M  V30 810 O 75.5289 -0.176076 -2.00629 0
M  V30 811 C 72.5939 -0.63276 -3.40877 0
M  V30 812 C 71.6549 -1.76437 -3.91367 0
M  V30 813 C 70.8879 -1.37997 -5.15551 0
M  V30 814 O 71.1109 -0.265357 -5.69782 0
M  V30 815 O 70.0449 -2.20201 -5.60174 0
M  V30 816 H 73.8709 -1.98086 -2.30208 0
M  V30 817 H 71.4559 -1.02332 -1.08851 0
M  V30 818 H 73.3379 -0.418761 -4.19314 0
M  V30 819 H 72.0129 0.282754 -3.22463 0
M  V30 820 H 70.9199 -2.03304 -3.14036 0
M  V30 821 H 72.2529 -2.6583 -4.14241 0
M  V30 822 N 73.905 1.17692 -1.04816 0
M  V30 823 C 75.153 1.87488 -0.754497 0
M  V30 824 C 75.474 1.81205 0.720407 0
M  V30 825 O 74.744 1.23544 1.52032 0
M  V30 826 H 73.324 0.694101 -0.276102 0
M  V30 827 H 75.986 1.42793 -1.32651 0
M  V30 828 H 75.082 2.93328 -1.06606 0
M  V30 829 N 75.3831 0.828654 1.34056 0
M  V30 830 C 76.3131 0.269443 2.3194 0
M  V30 831 C 77.2941 -0.617247 1.58506 0
M  V30 832 O 78.4791 -0.542931 1.86456 0
M  V30 833 C 75.6091 -0.564793 3.42677 0
M  V30 834 C 74.5631 0.225241 4.27407 0
M  V30 835 C 73.8891 -0.7321 5.29664 0
M  V30 836 C 75.1891 1.43663 5.02154 0
M  V30 837 H 76.8831 1.08728 2.7896 0
M  V30 838 H 74.4291 0.524283 1.34117 0
M  V30 839 H 76.3821 -0.966233 4.10173 0
M  V30 840 H 75.1061 -1.41574 2.9432 0
M  V30 841 H 73.7651 0.608117 3.61521 0
M  V30 842 H 73.4131 -1.57916 4.77568 0
M  V30 843 H 73.1131 -0.20767 5.87233 0
M  V30 844 H 74.6371 -1.13128 6.00029 0
M  V30 845 H 76.0511 1.1089 5.62473 0
M  V30 846 H 74.4481 1.89711 5.69324 0
M  V30 847 H 75.5181 2.21181 4.31517 0
M  V30 848 N 76.8612 -1.46375 0.584142 0
M  V30 849 C 78.0862 -2.07268 0.0740405 0
M  V30 850 C 78.5112 -1.42979 -1.22223 0
M  V30 851 O 77.8692 -0.514092 -1.73859 0
M  V30 852 C 77.9172 -3.60518 -0.0767769 0
M  V30 853 O 77.0212 -3.96533 -1.13292 0
M  V30 854 H 76.3622 -0.660961 0.0634524 0
M  V30 855 H 78.8922 -1.87991 0.807492 0
M  V30 856 H 78.9022 -4.07021 -0.282489 0
M  V30 857 H 77.5772 -4.06702 0.86986 0
M  V30 858 H 76.1542 -3.61738 -0.905553 0
M  V30 859 N 78.3393 -0.321999 -1.54275 0
M  V30 860 C 79.5863 0.281044 -2.0054 0
M  V30 861 C 79.9143 1.52265 -1.21019 0
M  V30 862 O 79.1693 1.93687 -0.279982 0
M  V30 863 C 79.4683 0.661769 -3.5122 0
M  V30 864 C 79.1343 -0.480482 -4.48333 0
M  V30 865 C 77.7963 -0.794005 -4.74604 0
M  V30 866 C 80.1483 -1.24783 -5.06042 0
M  V30 867 C 77.4763 -1.87763 -5.55844 0
M  V30 868 C 79.8283 -2.32153 -5.88462 0
M  V30 869 C 78.4923 -2.64089 -6.13036 0
M  V30 870 H 77.7623 0.102841 -0.733829 0
M  V30 871 H 80.4093 -0.445453 -1.86247 0
M  V30 872 H 78.7143 1.46867 -3.63232 0
M  V30 873 H 80.4113 1.13989 -3.84457 0
M  V30 874 H 77.0013 -0.226039 -4.28004 0
M  V30 875 H 81.1853 -1.01887 -4.85729 0
M  V30 876 H 76.4413 -2.12954 -5.73115 0
M  V30 877 H 80.6153 -2.92057 -6.32199 0
M  V30 878 H 78.2423 -3.48185 -6.75775 0
M  V30 879 N 79.8174 1.5752 -0.0501392 0
M  V30 880 C 80.7504 2.07026 0.959962 0
M  V30 881 C 81.7284 0.970539 1.30458 0
M  V30 882 O 82.9124 1.2424 1.41763 0
M  V30 883 C 80.0394 2.5099 2.27424 0
M  V30 884 C 79.0854 3.72188 2.08275 0
M  V30 885 S 79.9184 5.17888 1.36207 0
M  V30 886 C 81.0744 5.65165 2.6896 0
M  V30 887 H 81.3074 2.9238 0.538631 0
M  V30 888 H 78.8404 1.53547 0.162099 0
M  V30 889 H 80.7984 2.76982 3.02971 0
M  V30 890 H 79.4594 1.65944 2.66686 0
M  V30 891 H 78.6524 4.00866 3.05487 0
M  V30 892 H 78.2544 3.46457 1.40868 0
M  V30 893 H 80.5464 5.70687 3.65133 0
M  V30 894 H 81.4894 6.64394 2.4492 0
M  V30 895 H 81.8974 4.9289 2.75172 0
M  V30 896 N 81.2955 -0.223234 1.56011 0
M  V30 897 C 82.5725 -0.972108 1.69733 0
M  V30 898 C 82.9525 -2.02485 0.59691 0
M  V30 899 O 82.3005 -2.25037 -0.396324 0
M  V30 900 C 82.5105 -1.58407 3.10979 0
M  V30 901 C 83.8585 -2.07696 3.70334 0
M  V30 902 O 84.8825 -1.68304 3.1393 0
M  V30 903 O 83.7415 -2.80096 4.69264 0
M  V30 904 H 80.8355 -0.453993 0.691245 0
M  V30 905 H 83.3815 -0.215149 1.68331 0
M  V30 906 H 82.1535 -0.823831 3.82529 0
M  V30 907 H 81.7765 -2.40661 3.16493 0
M  V30 908 N 82.7736 -1.49793 -0.48987 0
M  V30 909 C 83.9986 -1.63836 -1.27172 0
M  V30 910 C 84.4236 -0.31402 -1.8546 0
M  V30 911 O 83.7816 0.719803 -1.66399 0
M  V30 912 C 83.8296 -2.71797 -2.36978 0
M  V30 913 O 82.9336 -2.31744 -3.41128 0
M  V30 914 H 82.2746 -0.547997 -0.37496 0
M  V30 915 H 84.8046 -1.96053 -0.585191 0
M  V30 916 H 84.8146 -2.94305 -2.82575 0
M  V30 917 H 83.4896 -3.67923 -1.93921 0
M  V30 918 H 82.0666 -2.1961 -3.01373 0
M  V30 919 N 84.2517 0.741722 -1.39055 0
M  V30 920 C 85.4767 1.53607 -1.39354 0
M  V30 921 C 85.9017 1.88096 0.0116905 0
M  V30 922 O 85.2597 1.5143 0.996924 0
M  V30 923 C 85.3077 2.80441 -2.26682 0
M  V30 924 O 84.4117 3.76088 -1.69208 0
M  V30 925 H 83.7527 0.464142 -0.474835 0
M  V30 926 H 86.2827 0.915665 -1.82967 0
M  V30 927 H 86.2927 3.29246 -2.40959 0
M  V30 928 H 84.9677 2.5467 -3.2881 0
M  V30 929 H 83.5447 3.34833 -1.64138 0
M  V30 930 N 85.7298 1.2412 0.971189 0
M  V30 931 C 86.9778 1.07668 1.71032 0
M  V30 932 C 87.2988 -0.385797 1.91146 0
M  V30 933 O 86.5688 -1.27569 1.4867 0
M  V30 934 H 85.1488 0.395429 0.633755 0
M  V30 935 H 87.8108 1.55984 1.16855 0
M  V30 936 H 86.9068 1.57195 2.69622 0
M  V30 937 N 87.2079 -1.17134 1.05439 0
M  V30 938 C 88.4539 -1.87733 0.767077 0
M  V30 939 C 88.7869 -1.8098 -0.704253 0
M  V30 940 O 88.0619 -1.21951 -1.5152 0
M  V30 941 C 88.3449 -3.37659 1.25133 0
M  V30 942 C 88.1979 -3.53149 2.78578 0
M  V30 943 C 89.5169 -4.31768 0.852324 0
M  V30 944 H 86.6359 -0.681687 0.280129 0
M  V30 945 H 89.2779 -1.37732 1.30881 0
M  V30 946 H 87.4279 -3.80373 0.790469 0
M  V30 947 H 89.0999 -3.19434 3.32806 0
M  V30 948 H 87.3429 -2.95345 3.17732 0
M  V30 949 H 88.0139 -4.58403 3.07523 0
M  V30 950 H 90.4899 -3.96909 1.24911 0
M  V30 951 H 89.3659 -5.35199 1.21873 0
M  V30 952 H 89.6269 -4.41429 -0.243485 0
M  V30 953 N 88.686 -0.835752 -1.33615 0
M  V30 954 C 89.934 -0.429109 -1.97492 0
M  V30 955 C 90.255 1.01433 -1.66543 0
M  V30 956 O 89.525 1.70611 -0.962744 0
M  V30 957 H 88.105 -0.155686 -0.730596 0
M  V30 958 H 90.767 -1.06802 -1.63031 0
M  V30 959 H 89.863 -0.55861 -3.0706 0
M  V30 960 N 90.1641 1.46063 -0.591896 0
M  V30 961 C 91.0941 2.33172 0.123673 0
M  V30 962 C 92.0751 1.45897 0.87453 0
M  V30 963 O 93.2601 1.74698 0.848181 0
M  V30 964 C 90.3901 3.28336 1.13194 0
M  V30 965 C 89.3441 4.25124 0.495324 0
M  V30 966 C 88.6701 5.09863 1.61071 0
M  V30 967 C 89.9701 5.19143 -0.573425 0
M  V30 968 H 91.6641 2.93252 -0.603646 0
M  V30 969 H 89.2101 1.41014 -0.291741 0
M  V30 970 H 91.1631 3.88137 1.64097 0
M  V30 971 H 89.8871 2.66383 1.88965 0
M  V30 972 H 88.5461 3.66599 0.00729452 0
M  V30 973 H 88.1941 4.44288 2.35832 0
M  V30 974 H 87.8941 5.75417 1.19035 0
M  V30 975 H 89.4181 5.72529 2.12233 0
M  V30 976 H 90.8321 5.73106 -0.1491 0
M  V30 977 H 89.2291 5.93089 -0.914636 0
M  V30 978 H 90.2991 4.62519 -1.45617 0
M  V30 979 N 91.6422 0.330177 1.54103 0
M  V30 980 C 92.8882 -0.270806 2.00984 0
M  V30 981 C 93.2212 -1.51265 1.21789 0
M  V30 982 O 92.4962 -1.92142 0.301927 0
M  V30 983 C 92.7792 -0.598339 3.55094 0
M  V30 984 C 92.6322 0.654674 4.4501 0
M  V30 985 C 93.9512 -1.41334 4.16789 0
M  V30 986 H 91.0702 -0.0969531 0.730595 0
M  V30 987 H 93.7122 0.448066 1.84641 0
M  V30 988 H 91.8622 -1.21078 3.69151 0
M  V30 989 H 93.5342 1.29285 4.42813 0
M  V30 990 H 91.7772 1.28224 4.14416 0
M  V30 991 H 92.4482 0.380944 5.50684 0
M  V30 992 H 94.9242 -0.895597 4.06347 0
M  V30 993 H 93.8002 -1.61127 5.24718 0
M  V30 994 H 94.0612 -2.41146 3.70541 0
M  V30 995 N 93.1203 -1.57491 0.0584922 0
M  V30 996 C 94.0503 -2.14988 -0.911178 0
M  V30 997 C 95.0313 -1.07343 -1.31952 0
M  V30 998 O 96.2163 -1.35318 -1.39294 0
M  V30 999 C 93.3463 -2.70078 -2.18347 0
M  V30 1000 C 92.3003 -3.82771 -1.91495 0
M  V30 1001 C 91.6263 -4.24408 -3.25241 0
M  V30 1002 C 92.9263 -5.07592 -1.23075 0
M  V30 1003 H 94.6203 -2.96263 -0.432246 0
M  V30 1004 H 92.1663 -1.42512 -0.206469 0
M  V30 1005 H 94.1193 -3.08943 -2.86587 0
M  V30 1006 H 92.8433 -1.86005 -2.68458 0
M  V30 1007 H 91.5023 -3.44389 -1.25664 0
M  V30 1008 H 91.1503 -3.37275 -3.73168 0
M  V30 1009 H 90.8503 -5.00366 -3.08071 0
M  V30 1010 H 92.3743 -4.65879 -3.94701 0
M  V30 1011 H 93.7883 -5.43857 -1.81362 0
M  V30 1012 H 92.1853 -5.88741 -1.16207 0
M  V30 1013 H 93.2553 -4.84454 -0.207847 0
M  V30 1014 N 94.5984 0.214957 -1.56127 0
M  V30 1015 C 95.8464 0.936518 -1.79091 0
M  V30 1016 C 96.1674 1.84606 -0.628148 0
M  V30 1017 O 95.4374 1.92664 0.35462 0
M  V30 1018 H 94.0174 0.3488 -0.660566 0
M  V30 1019 H 96.6794 0.22523 -1.93594 0
M  V30 1020 H 95.7754 1.53943 -2.71492 0
M  V30 1021 N 96.0765 1.50051 0.48192 0
M  V30 1022 C 97.4925 1.37237 0.814756 0
M  V30 1023 C 97.6925 0.420109 1.97072 0
M  V30 1024 O 96.7485 -0.141246 2.52105 0
M  V30 1025 C 98.0615 2.78375 1.13701 0
M  V30 1026 C 99.6095 2.87213 1.2441 0
M  V30 1027 C 100.084 4.29161 1.59954 0
M  V30 1028 N 101.575 4.32061 1.66967 0
M  V30 1029 C 102.31 5.38879 1.95952 0
M  V30 1030 N 101.806 6.55918 2.23031 0
M  V30 1031 N 103.599 5.26312 1.97363 0
M  V30 1032 H 95.7505 2.10546 -0.28005 0
M  V30 1033 H 98.0135 0.945921 -0.0627454 0
M  V30 1034 H 97.7195 3.49845 0.360787 0
M  V30 1035 H 97.5935 3.14941 2.07586 0
M  V30 1036 H 99.9805 2.15969 2.01101 0
M  V30 1037 H 100.061 2.54204 0.285299 0
M  V30 1038 H 99.7055 5.00938 0.838067 0
M  V30 1039 H 99.6355 4.59648 2.56966 0
M  V30 1040 H 102.126 3.47661 1.48123 0
M  V30 1041 H 102.439 7.33139 2.44391 0
M  V30 1042 H 100.784 6.59112 2.20447 0
M  V30 1043 H 103.975 4.33876 1.75697 0
M  V30 1044 H 104.148 6.09649 2.19618 0
M  V30 1045 N 97.5546 -0.734337 1.39446 0
M  V30 1046 C 98.4876 -1.85715 1.32609 0
M  V30 1047 C 99.4656 -1.6137 0.199636 0
M  V30 1048 O 100.65 -1.84626 0.380195 0
M  V30 1049 C 97.7766 -3.21709 1.05929 0
M  V30 1050 C 96.8226 -3.64913 2.20773 0
M  V30 1051 S 97.6556 -3.74203 3.83056 0
M  V30 1052 C 98.8116 -5.12986 3.58603 0
M  V30 1053 H 99.0446 -1.91232 2.27635 0
M  V30 1054 H 96.5776 -0.899263 1.25509 0
M  V30 1055 H 98.5356 -4.00236 0.912203 0
M  V30 1056 H 97.1966 -3.13848 0.125883 0
M  V30 1057 H 96.3896 -4.63606 1.97699 0
M  V30 1058 H 95.9916 -2.93593 2.31688 0
M  V30 1059 H 98.2836 -5.99339 3.15909 0
M  V30 1060 H 99.2266 -5.41088 4.5676 0
M  V30 1061 H 99.6346 -4.82694 2.9269 0
M  V30 1062 N 99.0327 -1.24633 -0.964593 0
M  V30 1063 C 100.449 -1.01239 -1.2338 0
M  V30 1064 C 100.649 0.2769 -1.99588 0
M  V30 1065 O 99.7047 0.992241 -2.32187 0
M  V30 1066 C 101.018 -2.22937 -2.01791 0
M  V30 1067 C 102.566 -2.27594 -2.14872 0
M  V30 1068 C 103.041 -3.48921 -2.96678 0
M  V30 1069 N 104.532 -3.49257 -3.04259 0
M  V30 1070 C 105.267 -4.39795 -3.67924 0
M  V30 1071 N 104.763 -5.40591 -4.33281 0
M  V30 1072 N 106.556 -4.275 -3.64966 0
M  V30 1073 H 98.7067 -2.0748 -0.454502 0
M  V30 1074 H 100.97 -0.910647 -0.26349 0
M  V30 1075 H 100.676 -3.16587 -1.53184 0
M  V30 1076 H 100.55 -2.25306 -3.02518 0
M  V30 1077 H 102.937 -1.34473 -2.6268 0
M  V30 1078 H 103.018 -2.2925 -1.13482 0
M  V30 1079 H 102.662 -4.42359 -2.49562 0
M  V30 1080 H 102.592 -3.4451 -3.98272 0
M  V30 1081 H 105.083 -2.76337 -2.57771 0
M  V30 1082 H 105.396 -6.05904 -4.79687 0
M  V30 1083 H 103.741 -5.44475 -4.3194 0
M  V30 1084 H 106.932 -3.47987 -3.13086 0
M  V30 1085 H 107.105 -4.98258 -4.14298 0
M  V30 1086 N 100.511 1.16574 -1.06058 0
M  V30 1087 C 101.421 2.2452 -0.680282 0
M  V30 1088 C 102.437 1.71348 0.302604 0
M  V30 1089 O 103.613 2.00822 0.152513 0
M  V30 1090 C 100.678 3.46629 -0.0700315 0
M  V30 1091 C 99.7388 4.14849 -1.10448 0
M  V30 1092 C 98.9718 5.31129 -0.523256 0
M  V30 1093 O 99.1948 5.66514 0.664709 0
M  V30 1094 O 98.1288 5.88526 -1.26179 0
M  V30 1095 H 101.955 2.59355 -1.58015 0
M  V30 1096 H 99.5398 1.24043 -0.832694 0
M  V30 1097 H 101.422 4.20543 0.268667 0
M  V30 1098 H 100.097 3.13573 0.803353 0
M  V30 1099 H 99.0038 3.42916 -1.49532 0
M  V30 1100 H 100.337 4.51954 -1.94931 0
M  V30 1101 N 101.989 0.842826 1.3317 0
M  V30 1102 C 102.919 0.294028 2.31641 0
M  V30 1103 C 103.9 -0.600401 1.59151 0
M  V30 1104 O 105.085 -0.523124 1.87022 0
M  V30 1105 C 102.215 -0.528416 3.43257 0
M  V30 1106 C 101.169 0.27056 4.27144 0
M  V30 1107 C 100.495 -0.675881 5.30411 0
M  V30 1108 C 101.795 1.48981 5.00602 0
M  V30 1109 H 103.489 1.11681 2.77791 0
M  V30 1110 H 101.035 0.538478 1.33553 0
M  V30 1111 H 102.988 -0.922674 4.11175 0
M  V30 1112 H 101.712 -1.38445 2.95805 0
M  V30 1113 H 100.371 0.646427 3.60856 0
M  V30 1114 H 100.019 -1.52842 4.79216 0
M  V30 1115 H 99.7189 -0.145374 5.8742 0
M  V30 1116 H 101.243 -1.06757 6.01195 0
M  V30 1117 H 102.657 1.16849 5.61266 0
M  V30 1118 H 101.054 1.95739 5.6728 0
M  V30 1119 H 102.124 2.25746 4.29147 0
M  V30 1120 N 103.467 -1.45747 0.599634 0
M  V30 1121 C 104.377 -2.34262 -0.125888 0
M  V30 1122 C 105.393 -1.50768 -0.868625 0
M  V30 1123 O 106.569 -1.83592 -0.828003 0
M  V30 1124 C 103.634 -3.28252 -1.11587 0
M  V30 1125 C 102.695 -4.27651 -0.375956 0
M  V30 1126 C 101.928 -5.1715 -1.31877 0
M  V30 1127 O 102.151 -5.09916 -2.55621 0
M  V30 1128 O 101.085 -5.96286 -0.820157 0
M  V30 1129 H 104.911 -2.97688 0.601315 0
M  V30 1130 H 102.496 -1.44999 0.359934 0
M  V30 1131 H 104.378 -3.86191 -1.68626 0
M  V30 1132 H 103.053 -2.67401 -1.82424 0
M  V30 1133 H 101.96 -3.7335 0.236698 0
M  V30 1134 H 103.293 -4.91334 0.29177 0
M  V30 1135 N 104.945 -0.338344 -1.53925 0
M  V30 1136 C 105.908 0.508299 -2.23493 0
M  V30 1137 C 106.908 1.03175 -1.23335 0
M  V30 1138 O 108.098 0.921826 -1.47811 0
M  V30 1139 C 105.23 1.70754 -2.95052 0
M  V30 1140 H 106.423 -0.100058 -2.99733 0
M  V30 1141 H 103.976 -0.0896198 -1.56043 0
M  V30 1142 H 104.711 2.35474 -2.22986 0
M  V30 1143 H 104.496 1.33946 -3.68512 0
M  V30 1144 H 105.986 2.30818 -3.48013 0
M  V30 1145 N 106.423 1.57458 -0.0668435 0
M  V30 1146 C 107.669 1.93587 0.6043 0
M  V30 1147 C 108.002 0.946722 1.69561 0
M  V30 1148 O 107.277 -0.0248516 1.94484 0
M  V30 1149 C 107.56 3.40014 1.18585 0
M  V30 1150 C 107.413 4.49685 0.101529 0
M  V30 1151 C 108.732 3.87154 2.09284 0
M  V30 1152 H 105.851 0.703958 0.218202 0
M  V30 1153 H 108.493 1.89542 -0.131804 0
M  V30 1154 H 106.643 3.43592 1.81319 0
M  V30 1155 H 108.315 4.5823 -0.531279 0
M  V30 1156 H 106.558 4.30059 -0.568487 0
M  V30 1157 H 107.229 5.49266 0.54874 0
M  V30 1158 H 109.705 3.85551 1.56491 0
M  V30 1159 H 108.581 4.90231 2.46911 0
M  V30 1160 H 108.842 3.2481 2.99918 0
M  V30 1161 N 107.901 -0.206675 1.56239 0
M  V30 1162 C 108.864 -1.23976 1.92776 0
M  V30 1163 C 109.864 -1.39041 0.807729 0
M  V30 1164 O 111.054 -1.37051 1.0753 0
M  V30 1165 C 108.186 -2.61112 2.19165 0
M  V30 1166 H 109.379 -0.927764 2.85189 0
M  V30 1167 H 106.932 -0.447718 1.4975 0
M  V30 1168 H 107.667 -2.97386 1.29352 0
M  V30 1169 H 107.452 -2.51552 3.00772 0
M  V30 1170 H 108.942 -3.35633 2.48476 0
M  V30 1171 N 109.379 -1.50304 -0.473955 0
M  V30 1172 C 110.627 -1.60832 -1.22382 0
M  V30 1173 C 110.948 -0.30939 -1.9253 0
M  V30 1174 O 110.218 0.67296 -1.83978 0
M  V30 1175 H 108.798 -0.592652 -0.454723 0
M  V30 1176 H 111.46 -1.87068 -0.546968 0
M  V30 1177 H 110.556 -2.41803 -1.97327 0
M  V30 1178 N 110.857 0.726932 -1.39834 0
M  V30 1179 C 112.273 1.03354 -1.21615 0
M  V30 1180 C 112.473 2.01327 -0.08338 0
M  V30 1181 O 111.529 2.46158 0.56238 0
M  V30 1182 C 112.842 1.58811 -2.55342 0
M  V30 1183 C 114.39 1.70851 -2.62257 0
M  V30 1184 C 114.865 2.29716 -3.96225 0
M  V30 1185 N 116.356 2.37116 -3.97907 0
M  V30 1186 C 117.091 2.83619 -4.98345 0
M  V30 1187 N 116.587 3.29958 -6.09179 0
M  V30 1188 N 118.38 2.82901 -4.8572 0
M  V30 1189 H 110.531 0.0773069 -2.12259 0
M  V30 1190 H 112.794 0.0969102 -0.943034 0
M  V30 1191 H 112.5 0.942855 -3.38826 0
M  V30 1192 H 112.374 2.57502 -2.75632 0
M  V30 1193 H 114.761 2.34497 -1.79152 0
M  V30 1194 H 114.842 0.707913 -2.45809 0
M  V30 1195 H 114.486 1.66696 -4.79765 0
M  V30 1196 H 114.416 3.30469 -4.09997 0
M  V30 1197 H 116.907 2.04374 -3.17868 0
M  V30 1198 H 117.22 3.63976 -6.8172 0
M  V30 1199 H 115.565 3.27946 -6.12761 0
M  V30 1200 H 118.756 2.46027 -3.98231 0
M  V30 1201 H 118.929 3.18827 -5.6414 0
M  V30 1202 N 112.336 1.25143 0.95797 0
M  V30 1203 C 113.564 1.12424 1.73691 0
M  V30 1204 C 113.979 -0.322304 1.86029 0
M  V30 1205 O 113.336 -1.22186 1.35561 0
M  V30 1206 C 113.387 1.76933 3.15241 0
M  V30 1207 O 113.108 3.15932 3.03511 0
M  V30 1208 C 114.609 1.6995 4.09429 0
M  V30 1209 H 111.829 0.3923 0.544373 0
M  V30 1210 H 114.373 1.6544 1.20207 0
M  V30 1211 H 112.528 1.27895 3.6568 0
M  V30 1212 H 112.942 3.47598 3.9278 0
M  V30 1213 H 114.416 2.19753 5.06372 0
M  V30 1214 H 114.893 0.662619 4.34173 0
M  V30 1215 H 115.499 2.18461 3.64904 0
M  V30 1216 N 113.814 -1.1601 1.06675 0
M  V30 1217 C 115.063 -1.85973 0.780818 0
M  V30 1218 C 115.376 -1.82819 -0.695444 0
M  V30 1219 O 116.582 -2.484 -1.09589 0
M  V30 1220 C 115.038 -3.33757 1.34665 0
M  V30 1221 C 114.646 -3.45374 2.85343 0
M  V30 1222 C 116.39 -4.0895 1.13843 0
M  V30 1223 C 114.297 -4.87266 3.35151 0
M  V30 1224 H 113.227 -0.696661 0.288407 0
M  V30 1225 H 115.878 -1.30903 1.28595 0
M  V30 1226 H 114.26 -3.88456 0.769274 0
M  V30 1227 H 115.434 -3.00816 3.49065 0
M  V30 1228 H 113.749 -2.83619 3.04876 0
M  V30 1229 H 116.346 -5.13654 1.4854 0
M  V30 1230 H 116.689 -4.16229 0.0770282 0
M  V30 1231 H 117.222 -3.605 1.68179 0
M  V30 1232 H 113.961 -4.85168 4.40786 0
M  V30 1233 H 113.481 -5.32433 2.76179 0
M  V30 1234 H 115.16 -5.56097 3.30704 0
M  V30 1235 N 115.292 -0.849877 -1.32721 0
M  V30 1236 C 116.222 -0.306308 -2.31482 0
M  V30 1237 C 117.203 0.591952 -1.59468 0
M  V30 1238 O 118.388 0.513199 -1.87296 0
M  V30 1239 C 115.518 0.510204 -3.43532 0
M  V30 1240 C 114.472 -0.293209 -4.26994 0
M  V30 1241 C 113.798 0.647743 -5.30762 0
M  V30 1242 C 115.098 -1.51634 -4.99804 0
M  V30 1243 H 116.792 -1.13153 -2.77195 0
M  V30 1244 H 114.338 -0.545553 -1.33266 0
M  V30 1245 H 116.291 0.900856 -4.11658 0
M  V30 1246 H 115.015 1.36874 -2.96535 0
M  V30 1247 H 113.674 -0.665555 -3.60508 0
M  V30 1248 H 113.322 1.50299 -4.8002 0
M  V30 1249 H 113.022 0.11422 -5.87489 0
M  V30 1250 H 114.546 1.03567 -6.01753 0
M  V30 1251 H 115.96 -1.19824 -5.60638 0
M  V30 1252 H 114.357 -1.98745 -5.66234 0
M  V30 1253 H 115.427 -2.28018 -4.27943 0
M  V30 1254 N 116.77 1.45427 -0.607355 0
M  V30 1255 C 117.7 2.3329 0.0989352 0
M  V30 1256 C 118.681 1.46816 0.859007 0
M  V30 1257 O 119.866 1.75588 0.829604 0
M  V30 1258 C 116.996 3.29518 1.09705 0
M  V30 1259 C 115.95 4.25626 0.450206 0
M  V30 1260 C 115.276 5.11542 1.55655 0
M  V30 1261 C 116.576 5.18505 -0.628455 0
M  V30 1262 H 118.27 2.92595 -0.634716 0
M  V30 1263 H 115.816 1.40696 -0.306681 0
M  V30 1264 H 117.769 3.89855 1.59971 0
M  V30 1265 H 116.493 2.68372 1.86129 0
M  V30 1266 H 115.152 3.66586 -0.0315886 0
M  V30 1267 H 114.8 4.46765 2.31107 0
M  V30 1268 H 114.5 5.76647 1.12925 0
M  V30 1269 H 116.024 5.74748 2.06148 0
M  V30 1270 H 117.438 5.72916 -0.209877 0
M  V30 1271 H 115.835 5.92085 -0.977489 0
M  V30 1272 H 116.905 4.60948 -1.50514 0
M  V30 1273 N 118.248 0.346503 1.53744 0
M  V30 1274 C 119.196 -0.52422 2.26616 0
M  V30 1275 C 120.19 -1.09948 1.28871 0
M  V30 1276 O 121.396 -1.04488 1.46568 0
M  V30 1277 H 117.771 -0.187743 0.728187 0
M  V30 1278 H 119.742 0.11239 2.98188 0
M  V30 1279 C 118.491 -1.66186 3.05414 0
M  V30 1280 H 117.814 -1.22848 3.80458 0
M  V30 1281 H 119.254 -2.24622 3.59612 0
M  V30 1282 C 117.713 -2.59302 2.1509 0
M  V30 1283 O 118.243 -3.61628 1.74895 0
M  V30 1284 N 116.449 -2.28055 1.8011 0
M  V30 1285 H 115.996 -1.44883 2.12994 0
M  V30 1286 H 115.954 -2.90615 1.19958 0
M  V30 1287 N 119.726 -1.57421 0.075193 0
M  V30 1288 C 121.137 -1.81021 -0.456964 0
M  V30 1289 C 121.488 -0.98936 -1.69429 0
M  V30 1290 O 120.613 -0.212865 -2.15351 0
M  V30 1291 C 121.208 -3.28329 -0.83581 0
M  V30 1292 C 119.767 -3.52764 -1.31281 0
M  V30 1293 C 118.914 -2.75676 -0.299648 0
M  V30 1294 H 121.865 -1.55822 0.300856 0
M  V30 1295 H 121.886 -3.40564 -1.69696 0
M  V30 1296 H 121.398 -3.88046 0.0649238 0
M  V30 1297 H 119.499 -2.98355 -2.23193 0
M  V30 1298 H 119.612 -4.61451 -1.28839 0
M  V30 1299 H 117.976 -2.42538 -0.777641 0
M  V30 1300 H 118.759 -3.38132 0.593417 0
M  V30 1301 N 121.204 0.198386 -1.56346 0
M  V30 1302 C 122.429 0.939682 -1.84891 0
M  V30 1303 C 122.854 1.76202 -0.658369 0
M  V30 1304 O 122.212 1.76993 0.392851 0
M  V30 1305 C 122.26 1.81428 -3.11635 0
M  V30 1306 O 121.364 2.91265 -2.91956 0
M  V30 1307 H 120.705 0.264807 -0.608912 0
M  V30 1308 H 123.235 0.204695 -2.03573 0
M  V30 1309 H 123.245 2.21958 -3.42343 0
M  V30 1310 H 121.92 1.21004 -3.97908 0
M  V30 1311 H 120.497 2.54514 -2.72538 0
M  V30 1312 N 122.682 1.50554 0.465978 0
M  V30 1313 C 124.093 1.54599 1.04671 0
M  V30 1314 C 124.444 0.352488 1.93008 0
M  V30 1315 O 123.569 -0.534044 2.09707 0
M  V30 1316 C 124.164 2.80166 1.90505 0
M  V30 1317 C 122.723 2.86876 2.43678 0
M  V30 1318 C 121.87 2.48947 1.22151 0
M  V30 1319 H 124.821 1.56744 0.248384 0
M  V30 1320 H 124.842 2.62311 2.75633 0
M  V30 1321 H 124.354 3.67013 1.26186 0
M  V30 1322 H 122.455 2.04393 3.11536 0
M  V30 1323 H 122.568 3.89885 2.78436 0
M  V30 1324 H 120.932 2.01498 1.5579 0
M  V30 1325 H 121.715 3.38107 0.594866 0
M  V30 1326 N 124.16 -0.719506 1.40217 0
M  V30 1327 C 125.388 -1.50864 1.41589 0
M  V30 1328 C 125.803 -1.88794 0.0145275 0
M  V30 1329 O 125.16 -1.55174 -0.960594 0
M  V30 1330 C 125.211 -2.78646 2.30302 0
M  V30 1331 O 124.932 -2.42321 3.64983 0
M  V30 1332 C 126.433 -3.72569 2.40224 0
M  V30 1333 H 123.653 -0.465709 0.48307 0
M  V30 1334 H 126.197 -0.88785 1.84221 0
M  V30 1335 H 124.352 -3.37019 1.91042 0
M  V30 1336 H 124.766 -3.24514 4.12057 0
M  V30 1337 H 126.24 -4.5908 3.06512 0
M  V30 1338 H 126.717 -4.15403 1.42608 0
M  V30 1339 H 127.323 -3.20109 2.80019 0
M  V30 1340 N 125.638 -1.25649 -0.95132 0
M  V30 1341 C 126.571 -1.00644 -2.04807 0
M  V30 1342 C 127.549 0.0654271 -1.62468 0
M  V30 1343 O 128.733 -0.074911 -1.88351 0
M  V30 1344 C 125.86 -0.522052 -3.34653 0
M  V30 1345 C 124.906 -1.58495 -3.95957 0
M  V30 1346 S 125.739 -3.17108 -4.31512 0
M  V30 1347 C 126.895 -2.70412 -5.64471 0
M  V30 1348 H 127.128 -1.93508 -2.25703 0
M  V30 1349 H 124.661 -1.09216 -1.09139 0
M  V30 1350 H 126.619 -0.24923 -4.09743 0
M  V30 1351 H 125.28 0.386146 -3.11717 0
M  V30 1352 H 124.473 -1.1968 -4.89584 0
M  V30 1353 H 124.075 -1.80862 -3.2736 0
M  V30 1354 H 126.367 -2.14245 -6.42733 0
M  V30 1355 H 127.31 -3.62693 -6.08161 0
M  V30 1356 H 127.718 -2.10302 -5.23864 0
M  V30 1357 N 127.117 1.15442 -1.07289 0
M  V30 1358 C 128.533 1.38201 -0.798288 0
M  V30 1359 C 128.733 1.92429 0.597769 0
M  V30 1360 O 127.789 2.12962 1.3566 0
M  V30 1361 C 129.102 2.35357 -1.87156 0
M  V30 1362 C 130.65 2.49021 -1.89624 0
M  V30 1363 C 131.125 3.49468 -2.96034 0
M  V30 1364 N 132.616 3.57003 -2.95132 0
M  V30 1365 C 133.351 4.34543 -3.74112 0
M  V30 1366 N 132.847 5.15421 -4.6294 0
M  V30 1367 N 134.64 4.29625 -3.62462 0
M  V30 1368 H 126.791 0.78584 -1.97328 0
M  V30 1369 H 129.054 0.408065 -0.855679 0
M  V30 1370 H 128.76 2.02626 -2.87464 0
M  V30 1371 H 128.634 3.35129 -1.73114 0
M  V30 1372 H 131.021 2.81051 -0.899687 0
M  V30 1373 H 131.102 1.4925 -2.07745 0
M  V30 1374 H 130.746 3.18173 -3.95889 0
M  V30 1375 H 130.676 4.48992 -2.75161 0
M  V30 1376 H 133.167 2.99276 -2.30743 0
M  V30 1377 H 133.48 5.7183 -5.19837 0
M  V30 1378 H 131.825 5.14729 -4.66989 0
M  V30 1379 H 135.016 3.65505 -2.92444 0
M  V30 1380 H 135.189 4.89807 -4.24256 0
M  V30 1381 N 128.595 0.856903 1.32268 0
M  V30 1382 C 129.542 0.301172 2.28827 0
M  V30 1383 C 130.512 -0.593104 1.5515 0
M  V30 1384 O 131.697 -0.527537 1.83362 0
M  V30 1385 C 128.837 -0.502523 3.41422 0
M  V30 1386 C 127.95 0.417797 4.29975 0
M  V30 1387 C 127.085 -0.398749 5.29701 0
M  V30 1388 C 126.124 0.518827 6.09897 0
M  V30 1389 N 125.261 -0.260674 7.01616 0
M  V30 1390 H 130.101 1.12983 2.75751 0
M  V30 1391 H 127.638 0.568582 1.35667 0
M  V30 1392 H 129.596 -0.984141 4.05426 0
M  V30 1393 H 128.226 -1.29599 2.95642 0
M  V30 1394 H 127.278 1.01781 3.66531 0
M  V30 1395 H 128.59 1.12191 4.86019 0
M  V30 1396 H 127.744 -0.943435 5.9932 0
M  V30 1397 H 126.483 -1.13622 4.7428 0
M  V30 1398 H 125.488 1.07538 5.39181 0
M  V30 1399 H 126.713 1.25495 6.67404 0
M  V30 1400 H 124.659 -0.981198 6.4862 0
M  V30 1401 H 124.576 0.384364 7.55022 0
M  V30 1402 H 125.844 -0.787014 7.75517 0
M  V30 1403 N 130.073 -1.45103 0.615059 0
M  V30 1404 C 131.319 -2.02483 0.113347 0
M  V30 1405 C 131.652 -1.48146 -1.25564 0
M  V30 1406 O 130.927 -0.659104 -1.82992 0
M  V30 1407 C 131.21 -3.60005 0.0825278 0
M  V30 1408 C 131.063 -4.2466 1.48271 0
M  V30 1409 C 132.382 -4.35972 -0.601401 0
M  V30 1410 H 129.501 -0.735764 0.0426632 0
M  V30 1411 H 132.143 -1.72868 0.788461 0
M  V30 1412 H 130.293 -3.85367 -0.492378 0
M  V30 1413 H 131.965 -4.10458 2.10527 0
M  V30 1414 H 130.208 -3.82772 2.04127 0
M  V30 1415 H 130.879 -5.336 1.41332 0
M  V30 1416 H 133.355 -4.15947 -0.112666 0
M  V30 1417 H 132.231 -5.45697 -0.592097 0
M  V30 1418 H 132.492 -4.09391 -1.66887 0
M  V30 1419 N 131.551 -0.354651 -1.53558 0
M  V30 1420 C 132.798 0.238443 -2.01091 0
M  V30 1421 C 133.126 1.49663 -1.24222 0
M  V30 1422 O 132.381 1.93049 -0.321003 0
M  V30 1423 C 132.68 0.587121 -3.52545 0
M  V30 1424 C 132.346 -0.575472 -4.47213 0
M  V30 1425 C 131.008 -0.894497 -4.72813 0
M  V30 1426 C 133.36 -1.35489 -5.03281 0
M  V30 1427 C 130.688 -1.99511 -5.51736 0
M  V30 1428 C 133.04 -2.44583 -5.83405 0
M  V30 1429 C 131.704 -2.77033 -6.07296 0
M  V30 1430 H 130.974 0.0872526 -0.735845 0
M  V30 1431 H 133.621 -0.484859 -1.8526 0
M  V30 1432 H 131.926 1.39129 -3.66265 0
M  V30 1433 H 133.623 1.05809 -3.86789 0
M  V30 1434 H 130.213 -0.316774 -4.27428 0
M  V30 1435 H 134.397 -1.12167 -4.83459 0
M  V30 1436 H 129.653 -2.25063 -5.68469 0
M  V30 1437 H 133.827 -3.05401 -6.25862 0
M  V30 1438 H 131.454 -3.6244 -6.68237 0
M  V30 1439 N 133.029 1.57378 -0.0835403 0
M  V30 1440 C 133.961 2.10389 0.909338 0
M  V30 1441 C 134.974 1.03858 1.25369 0
M  V30 1442 O 136.163 1.31338 1.20882 0
M  V30 1443 C 133.263 2.55908 2.2218 0
M  V30 1444 C 132.436 3.86145 2.05453 0
M  V30 1445 C 131.495 4.17633 3.20108 0
M  V30 1446 O 130.521 4.87043 2.94581 0
M  V30 1447 N 131.723 3.72113 4.45547 0
M  V30 1448 H 134.488 2.962 0.456657 0
M  V30 1449 H 132.049 1.61579 0.101877 0
M  V30 1450 H 134.041 2.74027 2.97811 0
M  V30 1451 H 132.611 1.75171 2.58909 0
M  V30 1452 H 131.831 3.7729 1.1422 0
M  V30 1453 H 133.119 4.7137 1.91541 0
M  V30 1454 H 132.517 3.16062 4.69171 0
M  V30 1455 H 131.074 3.95409 5.18165 0
M  V30 1456 N 134.507 -0.190092 1.56449 0
M  V30 1457 C 135.754 -0.909705 1.80916 0
M  V30 1458 C 136.082 -1.83047 0.657583 0
M  V30 1459 O 135.337 -1.92428 -0.356356 0
M  V30 1460 C 135.636 -1.75382 3.1141 0
M  V30 1461 C 135.302 -0.983606 4.40041 0
M  V30 1462 C 133.964 -0.770967 4.74984 0
M  V30 1463 C 136.316 -0.442024 5.19322 0
M  V30 1464 C 133.644 -0.0053448 5.867 0
M  V30 1465 C 135.996 0.310412 6.31838 0
M  V30 1466 C 134.66 0.534023 6.6536 0
M  V30 1467 H 133.93 -0.332885 0.662019 0
M  V30 1468 H 136.577 -0.175762 1.90692 0
M  V30 1469 H 134.882 -2.55659 2.96893 0
M  V30 1470 H 136.579 -2.31331 3.27547 0
M  V30 1471 H 133.169 -1.15936 4.12622 0
M  V30 1472 H 137.353 -0.593693 4.92736 0
M  V30 1473 H 132.609 0.177825 6.11141 0
M  V30 1474 H 136.783 0.737419 6.92485 0
M  V30 1475 H 134.41 1.12918 7.51767 0
M  V30 1476 N 135.985 -1.50799 -0.457987 0
M  V30 1477 C 137.21 -1.66496 -1.23668 0
M  V30 1478 C 137.635 -0.353288 -1.84752 0
M  V30 1479 O 136.993 0.684346 -1.67888 0
M  V30 1480 C 137.041 -2.76763 -2.3116 0
M  V30 1481 O 136.145 -2.38928 -3.36136 0
M  V30 1482 H 135.486 -0.555828 -0.363252 0
M  V30 1483 H 138.016 -1.9725 -0.543474 0
M  V30 1484 H 138.026 -3.00232 -2.76269 0
M  V30 1485 H 136.701 -3.71954 -1.86073 0
M  V30 1486 H 135.278 -2.25953 -2.96647 0
M  V30 1487 N 137.463 0.71206 -1.40597 0
M  V30 1488 C 138.711 1.46907 -1.38791 0
M  V30 1489 C 139.032 1.94998 0.00780391 0
M  V30 1490 O 138.302 1.70587 0.963174 0
M  V30 1491 H 136.882 0.545043 -0.51082 0
M  V30 1492 H 139.544 0.843882 -1.75683 0
M  V30 1493 H 138.64 2.34021 -2.06496 0
M  V30 1494 N 138.941 1.26152 0.944643 0
M  V30 1495 C 139.871 1.09902 2.06019 0
M  V30 1496 C 140.852 0.00519538 1.70099 0
M  V30 1497 O 142.037 0.176583 1.93396 0
M  V30 1498 C 139.167 0.727562 3.39594 0
M  V30 1499 C 138.121 1.77274 3.89561 0
M  V30 1500 C 137.447 1.25569 5.19747 0
M  V30 1501 C 138.747 3.17357 4.14827 0
M  V30 1502 H 140.441 2.03217 2.19871 0
M  V30 1503 H 137.987 0.978452 1.05652 0
M  V30 1504 H 139.94 0.600777 4.17095 0
M  V30 1505 H 138.664 -0.241287 3.25707 0
M  V30 1506 H 137.323 1.88814 3.14237 0
M  V30 1507 H 136.971 0.276783 5.02238 0
M  V30 1508 H 136.671 1.95433 5.54148 0
M  V30 1509 H 138.195 1.1415 5.99835 0
M  V30 1510 H 139.609 3.08914 4.82954 0
M  V30 1511 H 138.006 3.84781 4.60504 0
M  V30 1512 H 139.076 3.63673 3.20734 0
M  V30 1513 N 140.419 -1.14872 1.07899 0
M  V30 1514 C 141.667 -1.85422 0.803941 0
M  V30 1515 C 141.988 -1.83051 -0.67211 0
M  V30 1516 O 141.258 -1.27532 -1.48703 0
M  V30 1517 H 139.838 -0.686537 0.294408 0
M  V30 1518 H 142.5 -1.39226 1.3639 0
M  V30 1519 H 141.596 -2.90399 1.14346 0
M  V30 1520 N 141.898 -0.863906 -1.31812 0
M  V30 1521 C 143.309 -0.52522 -1.7916 0
M  V30 1522 C 143.66 0.957518 -1.71248 0
M  V30 1523 O 142.785 1.74734 -1.27659 0
M  V30 1524 C 143.38 -0.9466 -3.25307 0
M  V30 1525 C 141.939 -0.659668 -3.70574 0
M  V30 1526 C 141.086 -1.14126 -2.52726 0
M  V30 1527 H 144.037 -1.05022 -1.1898 0
M  V30 1528 H 144.058 -0.266766 -3.79564 0
M  V30 1529 H 143.57 -2.02579 -3.31034 0
M  V30 1530 H 141.671 0.408416 -3.70355 0
M  V30 1531 H 141.784 -1.23245 -4.62977 0
M  V30 1532 H 140.148 -0.561216 -2.4844 0
M  V30 1533 H 140.931 -2.22775 -2.61201 0
M  V30 1534 N 143.376 1.44774 -0.622745 0
M  V30 1535 C 144.622 2.02968 -0.13257 0
M  V30 1536 C 144.977 1.48047 1.22881 0
M  V30 1537 O 144.27 0.651625 1.80179 0
M  V30 1538 C 144.464 3.57364 -0.0508323 0
M  V30 1539 C 144.293 4.27262 -1.40275 0
M  V30 1540 C 143.063 4.64577 -1.98737 0
M  V30 1541 C 145.261 4.58248 -2.3348 0
M  V30 1542 N 143.243 5.19404 -3.27251 0
M  V30 1543 C 144.614 5.14069 -3.46603 0
M  V30 1544 C 146.669 4.40195 -2.32664 0
M  V30 1545 C 145.372 5.53738 -4.59093 0
M  V30 1546 C 147.398 4.80907 -3.44213 0
M  V30 1547 C 146.76 5.36834 -4.56058 0
M  V30 1548 H 142.859 0.776541 -0.0922354 0
M  V30 1549 H 145.443 1.76385 -0.82441 0
M  V30 1550 H 143.614 3.83576 0.610265 0
M  V30 1551 H 145.346 4.02219 0.447397 0
M  V30 1552 H 142.101 4.48622 -1.51774 0
M  V30 1553 H 142.525 5.51301 -3.92933 0
M  V30 1554 H 147.167 3.96257 -1.47446 0
M  V30 1555 H 144.885 5.96635 -5.45025 0
M  V30 1556 H 148.471 4.68659 -3.44747 0
M  V30 1557 H 147.351 5.67755 -5.40947 0
M  V30 1558 N 144.854 0.36279 1.53368 0
M  V30 1559 C 145.787 -0.528507 2.21996 0
M  V30 1560 C 146.765 -1.0852 1.21087 0
M  V30 1561 O 147.949 -1.14186 1.4998 0
M  V30 1562 C 145.076 -1.72893 2.91249 0
M  V30 1563 C 144.122 -1.29994 4.06207 0
M  V30 1564 S 144.955 -0.303575 5.34639 0
M  V30 1565 C 146.111 -1.51039 6.07403 0
M  V30 1566 H 146.344 0.0543423 2.9725 0
M  V30 1567 H 143.877 0.146889 1.537 0
M  V30 1568 H 145.835 -2.41751 3.31763 0
M  V30 1569 H 144.496 -2.28303 2.15724 0
M  V30 1570 H 143.689 -2.19549 4.53667 0
M  V30 1571 H 143.291 -0.690608 3.67569 0
M  V30 1572 H 145.583 -2.44186 6.31965 0
M  V30 1573 H 146.526 -1.07721 6.99858 0
M  V30 1574 H 146.934 -1.71518 5.37812 0
M  V30 1575 N 146.332 -1.57332 0.0918853 0
M  V30 1576 C 147.265 -2.09499 -0.904735 0
M  V30 1577 C 148.243 -1.00479 -1.27839 0
M  V30 1578 O 149.427 -1.27954 -1.38419 0
M  V30 1579 C 146.554 -2.56931 -2.2069 0
M  V30 1580 C 145.6 -3.77579 -1.98334 0
M  V30 1581 S 146.433 -5.21317 -1.22428 0
M  V30 1582 C 147.589 -5.72097 -2.53882 0
M  V30 1583 H 147.822 -2.93705 -0.460922 0
M  V30 1584 H 145.355 -1.53923 -0.121332 0
M  V30 1585 H 147.313 -2.84917 -2.95521 0
M  V30 1586 H 145.974 -1.72956 -2.62192 0
M  V30 1587 H 145.167 -4.08824 -2.94752 0
M  V30 1588 H 144.769 -3.5007 -1.31633 0
M  V30 1589 H 147.061 -5.80168 -3.49874 0
M  V30 1590 H 148.004 -6.70654 -2.27219 0
M  V30 1591 H 148.412 -5.00012 -2.62007 0
M  V30 1592 N 147.81 0.181792 -1.56548 0
M  V30 1593 C 149.087 0.926765 -1.72251 0
M  V30 1594 C 149.467 2.00831 -0.650386 0
M  V30 1595 O 148.815 2.26008 0.336521 0
M  V30 1596 C 149.025 1.50106 -3.1507 0
M  V30 1597 C 150.373 1.97805 -3.75711 0
M  V30 1598 O 151.397 1.59922 -3.18282 0
M  V30 1599 O 150.256 2.67555 -4.76525 0
M  V30 1600 H 147.35 0.435506 -0.703039 0
M  V30 1601 H 149.896 0.170443 -1.68842 0
M  V30 1602 H 148.668 0.72212 -3.84579 0
M  V30 1603 H 148.291 2.32186 -3.22763 0
M  V30 1604 N 149.288 1.51039 0.449983 0
M  V30 1605 C 150.251 1.70863 1.5277 0
M  V30 1606 C 151.251 0.578846 1.5002 0
M  V30 1607 O 152.441 0.846213 1.52266 0
M  V30 1608 C 149.573 1.75341 2.9235 0
M  V30 1609 H 150.766 2.67034 1.36502 0
M  V30 1610 H 148.319 1.40838 0.677812 0
M  V30 1611 H 149.054 0.809383 3.14037 0
M  V30 1612 H 148.839 2.57436 2.95752 0
M  V30 1613 H 150.329 1.92559 3.70555 0
M  V30 1614 N 150.766 -0.704594 1.40972 0
M  V30 1615 C 151.994 -1.49354 1.43182 0
M  V30 1616 C 152.409 -1.88768 0.0345508 0
M  V30 1617 O 151.766 -1.56184 -0.944081 0
M  V30 1618 C 151.817 -2.76187 2.33244 0
M  V30 1619 O 151.538 -2.38436 3.67532 0
M  V30 1620 C 153.039 -3.7 2.44162 0
M  V30 1621 H 150.259 -0.460559 0.487982 0
M  V30 1622 H 152.803 -0.868261 1.85153 0
M  V30 1623 H 150.958 -3.34974 1.94606 0
M  V30 1624 H 151.372 -3.20126 4.15475 0
M  V30 1625 H 152.846 -4.55803 3.11364 0
M  V30 1626 H 153.323 -4.13867 1.47006 0
M  V30 1627 H 153.929 -3.17121 2.83398 0
M  V30 1628 N 152.244 -1.26651 -0.937939 0
M  V30 1629 C 153.154 -1.10276 -2.07066 0
M  V30 1630 C 154.17 -0.0354197 -1.73964 0
M  V30 1631 O 155.346 -0.239816 -1.99967 0
M  V30 1632 C 152.411 -0.740887 -3.38691 0
M  V30 1633 C 151.472 -1.88799 -3.85556 0
M  V30 1634 C 150.705 -1.54329 -5.10899 0
M  V30 1635 O 150.928 -0.446494 -5.6865 0
M  V30 1636 O 149.862 -2.37911 -5.52885 0
M  V30 1637 H 153.688 -2.05309 -2.23789 0
M  V30 1638 H 151.273 -1.05743 -1.0554 0
M  V30 1639 H 153.155 -0.55195 -4.1777 0
M  V30 1640 H 151.83 0.180022 -3.23199 0
M  V30 1641 H 150.737 -2.13191 -3.07409 0
M  V30 1642 H 152.07 -2.78874 -4.05574 0
M  V30 1643 N 153.722 1.14298 -1.08507 0
M  V30 1644 C 154.632 2.23027 -0.727753 0
M  V30 1645 C 155.648 1.71952 0.26619 0
M  V30 1646 O 156.824 2.011 0.109882 0
M  V30 1647 C 153.889 3.46403 -0.143541 0
M  V30 1648 C 152.95 4.12413 -1.19223 0
M  V30 1649 C 152.183 5.29899 -0.635798 0
M  V30 1650 O 152.406 5.67796 0.544393 0
M  V30 1651 O 151.34 5.85717 -1.38634 0
M  V30 1652 H 155.166 2.55945 -1.63481 0
M  V30 1653 H 152.751 1.22248 -0.858817 0
M  V30 1654 H 154.633 4.21018 0.179404 0
M  V30 1655 H 153.308 3.15206 0.736659 0
M  V30 1656 H 152.215 3.39667 -1.56772 0
M  V30 1657 H 153.548 4.47718 -2.04474 0
M  V30 1658 N 155.201 0.870884 1.31352 0
M  V30 1659 C 156.133 0.28455 2.27427 0
M  V30 1660 C 157.146 -0.552927 1.53123 0
M  V30 1661 O 158.335 -0.374771 1.74521 0
M  V30 1662 C 155.435 -0.615164 3.3327 0
M  V30 1663 C 154.608 0.190079 4.36987 0
M  V30 1664 C 153.667 -0.637917 5.22319 0
M  V30 1665 O 152.693 -0.065626 5.69162 0
M  V30 1666 N 153.895 -1.94973 5.46778 0
M  V30 1667 H 156.66 1.11017 2.7838 0
M  V30 1668 H 154.221 0.732458 1.44384 0
M  V30 1669 H 156.213 -1.1748 3.87273 0
M  V30 1670 H 154.783 -1.34146 2.82354 0
M  V30 1671 H 154.003 0.931165 3.83044 0
M  V30 1672 H 155.291 0.742579 5.03352 0
M  V30 1673 H 154.689 -2.4378 5.10478 0
M  V30 1674 H 153.246 -2.45713 6.03712 0
M  V30 1675 N 156.679 -1.44442 0.630414 0
M  V30 1676 C 157.642 -2.29107 -0.0652523 0
M  V30 1677 C 158.642 -1.41002 -0.772995 0
M  V30 1678 O 159.832 -1.62881 -0.617692 0
M  V30 1679 C 156.964 -3.22564 -1.10296 0
M  V30 1680 H 158.157 -2.92103 0.679401 0
M  V30 1681 H 155.71 -1.51343 0.390517 0
M  V30 1682 H 156.445 -2.64416 -1.87762 0
M  V30 1683 H 156.23 -3.87491 -0.59941 0
M  V30 1684 H 157.72 -3.86167 -1.5895 0
M  V30 1685 N 158.157 -0.370918 -1.53173 0
M  V30 1686 C 159.406 0.218249 -2.00516 0
M  V30 1687 C 159.719 1.49429 -1.26215 0
M  V30 1688 O 160.925 2.16239 -1.64174 0
M  V30 1689 C 159.381 0.43948 -3.57207 0
M  V30 1690 C 158.989 -0.822244 -4.4039 0
M  V30 1691 C 160.733 0.986012 -4.1289 0
M  V30 1692 C 158.64 -0.570304 -5.88644 0
M  V30 1693 H 157.57 0.0853333 -0.749156 0
M  V30 1694 H 160.221 -0.490483 -1.76823 0
M  V30 1695 H 158.603 1.20961 -3.77074 0
M  V30 1696 H 159.777 -1.59557 -4.32294 0
M  V30 1697 H 158.092 -1.29238 -3.95836 0
M  V30 1698 H 160.689 1.18991 -5.21292 0
M  V30 1699 H 161.032 1.94972 -3.6782 0
M  V30 1700 H 161.565 0.27592 -3.96842 0
M  V30 1701 H 158.304 -1.50449 -6.38001 0
M  V30 1702 H 157.824 0.164427 -5.99575 0
M  V30 1703 H 159.503 -0.19784 -6.46697 0
M  V30 1704 N 159.635 1.57281 -0.100228 0
M  V30 1705 C 160.912 1.86014 0.604812 0
M  V30 1706 C 161.292 0.998025 1.86018 0
M  V30 1707 O 160.64 0.0718184 2.28387 0
M  V30 1708 C 160.85 3.36784 0.915278 0
M  V30 1709 C 162.198 4.04957 1.27651 0
M  V30 1710 O 163.222 3.41695 1.00613 0
M  V30 1711 O 162.081 5.16593 1.7831 0
M  V30 1712 H 159.175 0.76942 0.303185 0
M  V30 1713 H 161.721 1.69176 -0.133313 0
M  V30 1714 H 160.493 3.91292 0.0248896 0
M  V30 1715 H 160.116 3.58987 1.70921 0
M  V30 1716 N 161.113 -0.173488 1.56642 0
M  V30 1717 C 162.529 -0.525174 1.50712 0
M  V30 1718 C 162.729 -1.8476 0.804107 0
M  V30 1719 O 161.785 -2.49869 0.363574 0
M  V30 1720 C 163.098 -0.559937 2.95441 0
M  V30 1721 C 164.646 -0.647288 3.06234 0
M  V30 1722 C 165.121 -0.712963 4.52417 0
M  V30 1723 N 166.612 -0.775911 4.56655 0
M  V30 1724 C 167.347 -0.847264 5.67106 0
M  V30 1725 N 166.843 -0.879585 6.87194 0
M  V30 1726 N 168.636 -0.886117 5.55071 0
M  V30 1727 H 160.787 0.693681 2.00753 0
M  V30 1728 H 163.05 0.249841 0.914485 0
M  V30 1729 H 162.756 0.343049 3.50023 0
M  V30 1730 H 162.63 -1.40718 3.49969 0
M  V30 1731 H 165.017 -1.5407 2.51687 0
M  V30 1732 H 165.098 0.226586 2.54794 0
M  V30 1733 H 164.742 0.176183 5.07594 0
M  V30 1734 H 164.672 -1.60295 5.0161 0
M  V30 1735 H 167.163 -0.759304 3.70193 0
M  V30 1736 H 167.476 -0.935144 7.67121 0
M  V30 1737 H 165.821 -0.847898 6.89808 0
M  V30 1738 H 169.012 -0.857853 4.60172 0
M  V30 1739 H 169.185 -0.938263 6.41171 0
M  V30 1740 N 162.591 -1.51276 -0.441967 0
M  V30 1741 C 163.837 -1.63958 -1.19355 0
M  V30 1742 C 164.17 -0.352543 -1.90973 0
M  V30 1743 O 163.445 0.647627 -1.83401 0
M  V30 1744 C 163.728 -2.83979 -2.21422 0
M  V30 1745 C 163.581 -4.22646 -1.53918 0
M  V30 1746 C 164.9 -2.99521 -3.22451 0
M  V30 1747 H 162.019 -0.596709 -0.432559 0
M  V30 1748 H 164.661 -1.83748 -0.483398 0
M  V30 1749 H 162.811 -2.67237 -2.81987 0
M  V30 1750 H 164.483 -4.51045 -0.967256 0
M  V30 1751 H 162.726 -4.25558 -0.841615 0
M  V30 1752 H 163.397 -5.02609 -2.28229 0
M  V30 1753 H 165.873 -3.14944 -2.71937 0
M  V30 1754 H 164.749 -3.85072 -3.91166 0
M  V30 1755 H 165.01 -2.11391 -3.88287 0
M  V30 1756 N 164.069 0.697108 -1.41344 0
M  V30 1757 C 165.485 1.00751 -1.2378 0
M  V30 1758 C 165.685 2.01105 -0.126066 0
M  V30 1759 O 164.741 2.47295 0.51004 0
M  V30 1760 C 166.054 1.53359 -2.58653 0
M  V30 1761 C 167.602 1.6525 -2.65822 0
M  V30 1762 C 168.077 2.2126 -4.01009 0
M  V30 1763 N 169.568 2.28622 -4.02847 0
M  V30 1764 C 170.303 2.72984 -5.04249 0
M  V30 1765 N 169.799 3.16962 -6.16041 0
M  V30 1766 N 171.592 2.72534 -4.91611 0
M  V30 1767 H 163.743 0.0322662 -2.12375 0
M  V30 1768 H 166.006 0.0768853 -0.944877 0
M  V30 1769 H 165.712 0.870773 -3.4075 0
M  V30 1770 H 165.586 2.51597 -2.81032 0
M  V30 1771 H 167.973 2.30644 -1.84086 0
M  V30 1772 H 168.054 0.655614 -2.47256 0
M  V30 1773 H 167.698 1.56482 -4.83193 0
M  V30 1774 H 167.628 3.21698 -4.16915 0
M  V30 1775 H 170.119 1.97585 -3.22131 0
M  V30 1776 H 170.432 3.49434 -6.89287 0
M  V30 1777 H 168.777 3.14875 -6.1958 0
M  V30 1778 H 171.968 2.37525 -4.0336 0
M  V30 1779 H 172.141 3.06789 -5.70775 0
M  V30 1780 N 165.547 1.27147 0.931209 0
M  V30 1781 C 166.795 1.13055 1.6752 0
M  V30 1782 C 167.116 -0.324791 1.92276 0
M  V30 1783 O 166.386 -1.22775 1.52654 0
M  V30 1784 H 164.966 0.415391 0.620854 0
M  V30 1785 H 167.628 1.59623 1.11833 0
M  V30 1786 H 166.724 1.65694 2.64485 0
M  V30 1787 N 167.025 -1.13721 1.09112 0
M  V30 1788 C 168.274 -1.84275 0.82009 0
M  V30 1789 C 168.587 -1.84253 -0.656509 0
M  V30 1790 O 169.793 -2.50668 -1.04296 0
M  V30 1791 C 168.249 -3.30825 1.41714 0
M  V30 1792 C 167.857 -3.39244 2.92605 0
M  V30 1793 C 169.601 -4.06443 1.22492 0
M  V30 1794 C 167.508 -4.80047 3.45411 0
M  V30 1795 H 166.438 -0.690387 0.30312 0
M  V30 1796 H 169.089 -1.28146 1.31343 0
M  V30 1797 H 167.471 -3.86737 0.851498 0
M  V30 1798 H 168.645 -2.93344 3.55367 0
M  V30 1799 H 166.96 -2.77088 3.10823 0
M  V30 1800 H 169.557 -5.10387 1.59402 0
M  V30 1801 H 169.9 -4.15972 0.165299 0
M  V30 1802 H 170.433 -3.56852 1.75788 0
M  V30 1803 H 167.172 -4.75709 4.50978 0
M  V30 1804 H 166.692 -5.26455 2.87411 0
M  V30 1805 H 168.371 -5.48957 3.42425 0
M  V30 1806 N 168.503 -0.877838 -1.30888 0
M  V30 1807 C 169.749 -0.493426 -1.96706 0
M  V30 1808 C 170.082 0.953504 -1.6918 0
M  V30 1809 O 169.357 1.67266 -0.992594 0
M  V30 1810 C 169.64 -0.760429 -3.51979 0
M  V30 1811 C 169.493 -2.25747 -3.89048 0
M  V30 1812 C 170.812 -0.232148 -4.39487 0
M  V30 1813 H 167.931 -0.180746 -0.714493 0
M  V30 1814 H 170.573 -1.10052 -1.54882 0
M  V30 1815 H 168.723 -0.243715 -3.87735 0
M  V30 1816 H 170.395 -2.84204 -3.63354 0
M  V30 1817 H 168.638 -2.72694 -3.37373 0
M  V30 1818 H 169.309 -2.39491 -4.97341 0
M  V30 1819 H 171.785 -0.674314 -4.106 0
M  V30 1820 H 170.661 -0.448355 -5.47066 0
M  V30 1821 H 170.922 0.866297 -4.33529 0
M  V30 1822 N 169.982 1.44106 -0.638065 0
M  V30 1823 C 170.93 2.3248 0.0748149 0
M  V30 1824 C 171.924 1.47746 0.828702 0
M  V30 1825 O 173.13 1.64049 0.740816 0
M  V30 1826 H 169.505 0.750771 0.0429686 0
M  V30 1827 H 171.476 2.90348 -0.688504 0
M  V30 1828 C 170.225 3.31843 1.03805 0
M  V30 1829 H 169.548 3.97059 0.467375 0
M  V30 1830 H 170.988 3.96345 1.50622 0
M  V30 1831 C 169.447 2.61291 2.1267 0
M  V30 1832 O 169.977 2.41702 3.20847 0
M  V30 1833 N 168.183 2.20915 1.88798 0
M  V30 1834 H 167.73 2.37047 1.00829 0
M  V30 1835 H 167.688 1.74038 2.61836 0
M  V30 1836 N 171.46 0.379036 1.52974 0
M  V30 1837 C 172.708 -0.206014 2.01047 0
M  V30 1838 C 173.029 -1.48175 1.26765 0
M  V30 1839 O 172.299 -1.92085 0.384743 0
M  V30 1840 H 170.879 -0.0791184 0.742798 0
M  V30 1841 H 173.541 0.508366 1.88153 0
M  V30 1842 H 172.637 -0.423501 3.09213 0
M  V30 1843 O 172.977 -1.59572 0.248817 0
M  V30 1844 H 173.668 -1.9093 -0.326403 0
M  V30 END ATOM
M  V30 BEGIN BOND
M  V30 END BOND
M  V30 END CTAB
M  END
$$$$
