drugbank_target|Q9UHA3 Probable ribosome biogenesis protein RLP24 (DB02494; DB07374; DB08437)
 OpenBabel12092120423D

  0  0  0     0  0            999 V3000
M  V30 BEGIN CTAB
M  V30 COUNTS 6173 6614 0 0 0
M  V30 BEGIN ATOM
M  V30 1 H -1.547 9.37743 -1.21644 0
M  V30 2 O -1.44 8.89599 -0.40059 0
M  V30 3 P 0 8.91 0 0
M  V30 4 O 0.22 10.1746 0.733838 0
M  V30 5 O 0.79 8.73346 -1.23964 0
M  V30 6 O 0.25 7.66872 0.971405 0
M  V30 7 C -0.69 7.42405 2.04668 0
M  V30 8 C 0.04 6.86059 3.24661 0
M  V30 9 O 0.25 5.42934 3.03695 0
M  V30 10 C 1.44 7.41287 3.50796 0
M  V30 11 O 1.83 7.27073 4.86816 0
M  V30 12 C 2.32 6.5273 2.63741 0
M  V30 13 C 1.61 5.1842 2.73198 0
M  V30 14 N 1.66 4.38762 1.4784 0
M  V30 15 H -1.178 8.36899 2.3252 0
M  V30 16 H -1.45 6.70391 1.71179 0
M  V30 17 H -0.582 7.03638 4.13219 0
M  V30 18 H 2.073 4.59931 3.54016 0
M  V30 19 H 2.353 6.88995 1.59871 0
M  V30 20 H 3.344 6.4684 3.0373 0
M  V30 21 H 1.51 8.47002 3.20749 0
M  V30 22 P 3.37998 7.20834 5.23717 0
M  V30 23 O 3.59998 7.79853 6.57286 0
M  V30 24 O 4.16998 7.79239 4.12957 0
M  V30 25 O 3.62998 5.63315 5.29344 0
M  V30 26 C 2.68998 4.80255 6.01876 0
M  V30 27 C 3.41998 3.64202 6.65911 0
M  V30 28 O 3.62998 2.60694 5.64732 0
M  V30 29 C 4.81998 3.93473 7.1943 0
M  V30 30 O 5.20998 3.02071 8.21205 0
M  V30 31 C 5.69998 3.73047 5.97036 0
M  V30 32 C 4.98998 2.58828 5.25741 0
M  V30 33 N 5.03998 2.68068 3.77503 0
M  V30 34 C 4.95998 3.79715 2.96723 0
M  V30 35 N 5.03998 3.5377 1.68852 0
M  V30 36 C 5.17998 2.15054 1.63254 0
M  V30 37 C 5.30998 1.28964 0.518571 0
M  V30 38 N 5.42998 -0.0538097 0.918425 0
M  V30 39 C 5.42998 -0.494275 2.22578 0
M  V30 40 N 5.55998 -1.81086 2.40434 0
M  V30 41 N 5.29998 0.313645 3.27502 0
M  V30 42 C 5.17998 1.61829 2.91033 0
M  V30 43 H 2.20098 5.40332 6.79951 0
M  V30 44 H 1.93098 4.41613 5.32378 0
M  V30 45 H 2.79798 3.26331 7.47797 0
M  V30 46 P 6.75996 2.75334 8.47391 0
M  V30 47 O 6.97996 2.44571 9.90142 0
M  V30 48 O 7.54996 3.87688 7.92115 0
M  V30 49 O 7.00996 1.4459 7.59357 0
M  V30 50 C 6.06996 0.347608 7.69215 0
M  V30 51 C 6.79996 -0.96767 7.52806 0
M  V30 52 O 7.00996 -1.21036 6.1011 0
M  V30 53 C 8.19996 -1.04544 8.13308 0
M  V30 54 O 8.58996 -2.38311 8.41922 0
M  V30 55 C 9.07996 -0.491279 7.02284 0
M  V30 56 C 8.36996 -0.996264 5.77469 0
M  V30 57 N 8.41996 -0.0501916 4.62973 0
M  V30 58 H 5.58096 0.374722 8.67691 0
M  V30 59 H 5.31096 0.443485 6.90277 0
M  V30 60 H 6.17796 -1.75537 7.96793 0
M  V30 61 P 10.1399 -2.75334 8.47391 0
M  V30 62 O 10.3599 -3.84128 9.44797 0
M  V30 63 O 10.9299 -1.51947 8.68712 0
M  V30 64 O 10.3899 -3.29363 6.99321 0
M  V30 65 C 9.44994 -4.24011 6.4274 0
M  V30 66 C 10.1799 -5.20775 5.52155 0
M  V30 67 O 10.3899 -4.56534 4.22446 0
M  V30 68 C 11.5799 -5.62629 5.96531 0
M  V30 69 O 11.9699 -6.87667 5.41053 0
M  V30 70 C 12.4599 -4.52537 5.39283 0
M  V30 71 C 11.7499 -4.20027 4.08623 0
M  V30 72 N 11.7999 -2.76189 3.71603 0
M  V30 73 H 8.96094 -4.797 7.24003 0
M  V30 74 H 8.69094 -3.69856 5.84513 0
M  V30 75 H 9.55794 -6.10356 5.41441 0
M  V30 76 P 13.5199 -7.20834 5.23717 0
M  V30 77 O 13.7399 -8.66104 5.38572 0
M  V30 78 O 14.3099 -6.33544 6.1349 0
M  V30 79 O 13.7699 -6.7751 3.72168 0
M  V30 80 C 12.8299 -7.20825 2.7076 0
M  V30 81 C 13.5599 -7.45864 1.40599 0
M  V30 82 O 13.7699 -6.17651 0.734225 0
M  V30 83 C 14.9599 -8.05808 1.51899 0
M  V30 84 O 15.3499 -8.74358 0.335205 0
M  V30 85 C 15.8399 -6.83093 1.70294 0
M  V30 86 C 15.1299 -5.79992 0.836974 0
M  V30 87 N 15.1799 -4.41864 1.38293 0
M  V30 88 H 12.3409 -8.13644 3.0377 0
M  V30 89 H 12.0709 -6.42788 2.55485 0
M  V30 90 H 12.9379 -8.12039 0.792769 0
M  V30 91 P 16.8999 -8.91 1.09116e-15 0
M  V30 92 O 17.1199 -10.1736 -0.733766 0
M  V30 93 O 17.6899 -8.73247 1.2395 0
M  V30 94 O 17.1499 -7.66872 -0.971405 0
M  V30 95 C 16.2099 -7.42309 -2.04641 0
M  V30 96 C 16.9399 -6.86059 -3.24661 0
M  V30 97 O 17.1499 -5.42847 -3.03646 0
M  V30 98 C 18.3399 -7.41196 -3.50753 0
M  V30 99 O 18.7299 -7.27073 -4.86816 0
M  V30 100 C 19.2199 -6.5273 -2.63741 0
M  V30 101 C 18.5099 -5.1842 -2.73198 0
M  V30 102 N 18.5599 -4.38668 -1.47808 0
M  V30 103 C 18.7099 -3.00789 -1.58511 0
M  V30 104 O 18.7999 -2.50116 -2.71298 0
M  V30 105 N 18.7599 -2.29703 -0.253698 0
M  V30 106 C 18.6599 -2.84269 0.750133 0
M  V30 107 N 18.7099 -2.06951 1.82612 0
M  V30 108 C 18.5099 -4.25803 0.889776 0
M  V30 109 C 18.4599 -4.98326 -0.259363 0
M  V30 110 H 15.7199 -8.36707 -2.32466 0
M  V30 111 H 15.4509 -6.701 -1.71105 0
M  V30 112 H 16.3179 -7.03638 -4.13219 0
M  V30 113 H 18.9729 -4.59852 -3.53955 0
M  V30 114 H 19.2519 -6.88995 -1.59871 0
M  V30 115 H 20.2439 -6.46749 -3.03687 0
M  V30 116 H 18.4099 -8.46908 -3.20714 0
M  V30 117 H 18.3379 -6.06349 -0.206238 0
M  V30 118 H 18.4399 -4.73163 1.86796 0
M  V30 119 H 18.8279 -1.05099 1.72271 0
M  V30 120 H 18.6309 -2.48716 2.76361 0
M  V30 121 P 20.2799 -7.20834 -5.23717 0
M  V30 122 O 20.4999 -7.7993 -6.57351 0
M  V30 123 O 21.0699 -7.79328 -4.13004 0
M  V30 124 O 20.5299 -5.63315 -5.29344 0
M  V30 125 C 19.5899 -4.80193 -6.01798 0
M  V30 126 C 20.3199 -3.64202 -6.65911 0
M  V30 127 O 20.5299 -2.60694 -5.64732 0
M  V30 128 C 21.7199 -3.93473 -7.1943 0
M  V30 129 O 22.1099 -3.02071 -8.21205 0
M  V30 130 C 22.5999 -3.73047 -5.97036 0
M  V30 131 C 21.8899 -2.58828 -5.25741 0
M  V30 132 N 21.9399 -2.6801 -3.77422 0
M  V30 133 C 22.0899 -1.50443 -3.07133 0
M  V30 134 O 22.1799 -0.419406 -3.61576 0
M  V30 135 N 22.1299 -1.6403 -1.69677 0
M  V30 136 C 22.0399 -2.81206 -0.986255 0
M  V30 137 C 21.8899 -3.99158 -1.80325 0
M  V30 138 C 21.8399 -3.89779 -3.1476 0
M  V30 139 H 19.0999 -5.40332 -6.79951 0
M  V30 140 H 18.8309 -4.41549 -5.32301 0
M  V30 141 H 19.6979 -3.26331 -7.47797 0
M  V30 142 H 22.3529 -1.6395 -5.56554 0
M  V30 143 H 22.6319 -4.63439 -5.3432 0
M  V30 144 H 23.6239 -3.44728 -6.25838 0
M  V30 145 H 21.7899 -4.96652 -7.57263 0
M  V30 146 H 21.7189 -4.80159 -3.74441 0
M  V30 147 P 23.6599 -2.75334 -8.47391 0
M  V30 148 O 23.8799 -2.44571 -9.90142 0
M  V30 149 O 24.4499 -3.87688 -7.92115 0
M  V30 150 O 23.9099 -1.4459 -7.59357 0
M  V30 151 C 22.9699 -0.347608 -7.69215 0
M  V30 152 C 23.6999 0.96767 -7.52806 0
M  V30 153 O 23.9099 1.21036 -6.1011 0
M  V30 154 C 25.0999 1.04544 -8.13308 0
M  V30 155 O 25.4899 2.38311 -8.41922 0
M  V30 156 C 25.9799 0.491279 -7.02284 0
M  V30 157 C 25.2699 0.996264 -5.77469 0
M  V30 158 N 25.3199 0.0501916 -4.62973 0
M  V30 159 H 22.4809 -0.374722 -8.67691 0
M  V30 160 H 22.2109 -0.443485 -6.90277 0
M  V30 161 H 23.0779 1.75537 -7.96793 0
M  V30 162 P 27.0398 2.75334 -8.47391 0
M  V30 163 O 27.2598 3.84166 -9.4489 0
M  V30 164 O 27.8298 1.51964 -8.6881 0
M  V30 165 O 27.2898 3.29363 -6.99321 0
M  V30 166 C 26.3498 4.24011 -6.4274 0
M  V30 167 C 27.0798 5.20775 -5.52155 0
M  V30 168 O 27.2898 4.56534 -4.22446 0
M  V30 169 C 28.4798 5.62629 -5.96531 0
M  V30 170 O 28.8698 6.87667 -5.41053 0
M  V30 171 C 29.3598 4.52537 -5.39283 0
M  V30 172 C 28.6498 4.20027 -4.08623 0
M  V30 173 N 28.6998 2.7613 -3.71522 0
M  V30 174 C 28.8498 2.43702 -2.37085 0
M  V30 175 O 28.9398 3.3531 -1.54039 0
M  V30 176 N 28.8998 0.951103 -2.10621 0
M  V30 177 C 28.7998 0.165021 -2.93537 0
M  V30 178 N 28.8498 -1.09723 -2.53253 0
M  V30 179 C 28.6498 0.469576 -4.32458 0
M  V30 180 C 28.5998 1.78658 -4.65921 0
M  V30 181 H 25.8598 4.79645 -7.23919 0
M  V30 182 H 25.5908 3.69802 -5.84429 0
M  V30 183 H 26.4578 6.10431 -5.41508 0
M  V30 184 H 29.1128 4.78733 -3.27967 0
M  V30 185 H 29.3918 3.64957 -6.05871 0
M  V30 186 H 30.3838 4.8868 -5.2125 0
M  V30 187 H 28.5498 5.66726 -7.06352 0
M  V30 188 H 28.4778 2.06987 -5.70299 0
M  V30 189 H 28.5798 -0.314383 -5.07728 0
M  V30 190 H 28.9678 -1.31363 -1.5319 0
M  V30 191 H 28.7708 -1.85978 -3.21943 0
M  V30 192 P 30.4198 7.20834 -5.23717 0
M  V30 193 O 30.6398 8.66104 -5.38572 0
M  V30 194 O 31.2098 6.33544 -6.1349 0
M  V30 195 O 30.6698 6.7751 -3.72168 0
M  V30 196 C 29.7298 7.20825 -2.7076 0
M  V30 197 C 30.4598 7.45864 -1.40599 0
M  V30 198 O 30.6698 6.17651 -0.734225 0
M  V30 199 C 31.8598 8.05808 -1.51899 0
M  V30 200 O 32.2498 8.74358 -0.335205 0
M  V30 201 C 32.7398 6.83093 -1.70294 0
M  V30 202 C 32.0298 5.79992 -0.836974 0
M  V30 203 N 32.0798 4.41864 -1.38293 0
M  V30 204 H 29.2408 8.13644 -3.0377 0
M  V30 205 H 28.9708 6.42788 -2.55485 0
M  V30 206 H 29.8378 8.12039 -0.792769 0
M  V30 207 P 33.7998 8.91 -2.18232e-15 0
M  V30 208 O 34.0198 10.1726 0.733694 0
M  V30 209 O 34.5898 8.73148 -1.23936 0
M  V30 210 O 34.0498 7.66872 0.971405 0
M  V30 211 C 33.1098 7.42309 2.04641 0
M  V30 212 C 33.8398 6.86059 3.24661 0
M  V30 213 O 34.0498 5.42847 3.03646 0
M  V30 214 C 35.2398 7.41196 3.50753 0
M  V30 215 O 35.6298 7.27073 4.86816 0
M  V30 216 C 36.1198 6.5273 2.63741 0
M  V30 217 C 35.4098 5.1842 2.73198 0
M  V30 218 N 35.4598 4.38762 1.4784 0
M  V30 219 C 35.3798 4.81605 0.168631 0
M  V30 220 N 35.4598 3.85454 -0.713363 0
M  V30 221 C 35.5998 2.6994 0.0566958 0
M  V30 222 C 35.7298 1.34815 -0.338502 0
M  V30 223 O 35.7498 0.869548 -1.47125 0
M  V30 224 N 35.8498 0.496304 0.77465 0
M  V30 225 C 35.8498 0.908403 2.09122 0
M  V30 226 N 35.9798 -0.0517805 3.00955 0
M  V30 227 N 35.7198 2.17875 2.46519 0
M  V30 228 C 35.5998 3.01988 1.4033 0
M  V30 229 H 32.6208 8.36803 2.32493 0
M  V30 230 H 32.3508 6.70197 1.71129 0
M  V30 231 H 33.2178 7.03551 4.13168 0
M  V30 232 H 35.8728 4.59498 3.54415 0
M  V30 233 H 36.1518 6.88898 1.59848 0
M  V30 234 H 37.1438 6.46749 3.03687 0
M  V30 235 H 35.3098 8.46908 3.20714 0
M  V30 236 H 35.2608 5.86405 -0.105564 0
M  V30 237 H 35.9428 -0.483664 0.597855 0
M  V30 238 H 35.9798 0.187865 4.0116 0
M  V30 239 H 36.0808 -1.03585 2.71726 0
M  V30 240 P 37.1798 7.20834 5.23717 0
M  V30 241 O 37.3998 7.79853 6.57286 0
M  V30 242 O 37.9698 7.79239 4.12957 0
M  V30 243 O 37.4298 5.63315 5.29344 0
M  V30 244 C 36.4898 4.80255 6.01876 0
M  V30 245 C 37.2198 3.64202 6.65911 0
M  V30 246 O 37.4298 2.60694 5.64732 0
M  V30 247 C 38.6198 3.93473 7.1943 0
M  V30 248 O 39.0098 3.02071 8.21205 0
M  V30 249 C 39.4998 3.73047 5.97036 0
M  V30 250 C 38.7898 2.58828 5.25741 0
M  V30 251 N 38.8398 2.68068 3.77503 0
M  V30 252 H 36.0008 5.40332 6.79951 0
M  V30 253 H 35.7308 4.41613 5.32378 0
M  V30 254 H 36.5978 3.26331 7.47797 0
M  V30 255 P 40.5598 2.75334 8.47391 0
M  V30 256 O 40.7798 2.44571 9.90142 0
M  V30 257 O 41.3498 3.87688 7.92115 0
M  V30 258 O 40.8098 1.4459 7.59357 0
M  V30 259 C 39.8698 0.347608 7.69215 0
M  V30 260 C 40.5998 -0.96767 7.52806 0
M  V30 261 O 40.8098 -1.21036 6.1011 0
M  V30 262 C 41.9998 -1.04544 8.13308 0
M  V30 263 O 42.3898 -2.38311 8.41922 0
M  V30 264 C 42.8798 -0.491279 7.02284 0
M  V30 265 C 42.1698 -0.996264 5.77469 0
M  V30 266 N 42.2198 -0.0501916 4.62973 0
M  V30 267 H 39.3808 0.374722 8.67691 0
M  V30 268 H 39.1108 0.443485 6.90277 0
M  V30 269 H 39.9778 -1.75537 7.96793 0
M  V30 270 P 43.9397 -2.75334 8.47391 0
M  V30 271 O 44.1597 -3.84166 9.4489 0
M  V30 272 O 44.7297 -1.51964 8.6881 0
M  V30 273 O 44.1897 -3.29363 6.99321 0
M  V30 274 C 43.2497 -4.23956 6.42656 0
M  V30 275 C 43.9797 -5.20775 5.52155 0
M  V30 276 O 44.1897 -4.56534 4.22446 0
M  V30 277 C 45.3797 -5.62629 5.96531 0
M  V30 278 O 45.7697 -6.87667 5.41053 0
M  V30 279 C 46.2597 -4.52537 5.39283 0
M  V30 280 C 45.5497 -4.20027 4.08623 0
M  V30 281 N 45.5997 -2.7613 3.71522 0
M  V30 282 C 45.7497 -2.45612 2.37989 0
M  V30 283 O 45.8397 -3.30919 1.51621 0
M  V30 284 N 45.7897 -1.10684 2.08435 0
M  V30 285 C 45.6997 -0.0690084 2.9792 0
M  V30 286 C 45.5497 -0.481522 4.35345 0
M  V30 287 C 45.4997 -1.78906 4.67968 0
M  V30 288 H 42.7597 -4.797 7.24003 0
M  V30 289 H 42.4907 -3.69802 5.84429 0
M  V30 290 H 43.3577 -6.10356 5.41441 0
M  V30 291 H 46.0127 -4.78651 3.27911 0
M  V30 292 H 46.2917 -3.64957 6.05871 0
M  V30 293 H 47.2837 -4.8868 5.2125 0
M  V30 294 H 45.4497 -5.66726 7.06352 0
M  V30 295 H 45.3787 -2.07737 5.72367 0
M  V30 296 P 47.3197 -7.20834 5.23717 0
M  V30 297 O 47.5397 -8.66104 5.38572 0
M  V30 298 O 48.1097 -6.33544 6.1349 0
M  V30 299 O 47.5697 -6.7751 3.72168 0
M  V30 300 C 46.6297 -7.20825 2.7076 0
M  V30 301 C 47.3597 -7.45864 1.40599 0
M  V30 302 O 47.5697 -6.17651 0.734225 0
M  V30 303 C 48.7597 -8.05808 1.51899 0
M  V30 304 O 49.1497 -8.74358 0.335205 0
M  V30 305 C 49.6397 -6.83093 1.70294 0
M  V30 306 C 48.9297 -5.79992 0.836974 0
M  V30 307 N 48.9797 -4.41864 1.38293 0
M  V30 308 H 46.1407 -8.13644 3.0377 0
M  V30 309 H 45.8707 -6.42788 2.55485 0
M  V30 310 H 46.7377 -8.12039 0.792769 0
M  V30 311 P 50.6997 -8.91 3.27348e-15 0
M  V30 312 O 50.9197 -10.1726 -0.733694 0
M  V30 313 O 51.4897 -8.73148 1.23936 0
M  V30 314 O 50.9497 -7.66872 -0.971405 0
M  V30 315 C 50.0097 -7.42309 -2.04641 0
M  V30 316 C 50.7397 -6.86059 -3.24661 0
M  V30 317 O 50.9497 -5.42847 -3.03646 0
M  V30 318 C 52.1397 -7.41196 -3.50753 0
M  V30 319 O 52.5297 -7.27073 -4.86816 0
M  V30 320 C 53.0197 -6.5273 -2.63741 0
M  V30 321 C 52.3097 -5.1842 -2.73198 0
M  V30 322 N 52.3597 -4.38762 -1.4784 0
M  V30 323 C 52.2797 -4.81605 -0.168631 0
M  V30 324 N 52.3597 -3.85454 0.713363 0
M  V30 325 C 52.4997 -2.6994 -0.0566958 0
M  V30 326 C 52.6297 -1.34815 0.338502 0
M  V30 327 O 52.6497 -0.869548 1.47125 0
M  V30 328 N 52.7497 -0.496304 -0.77465 0
M  V30 329 C 52.7497 -0.908403 -2.09122 0
M  V30 330 N 52.8797 0.0517805 -3.00955 0
M  V30 331 N 52.6197 -2.17875 -2.46519 0
M  V30 332 C 52.4997 -3.01988 -1.4033 0
M  V30 333 H 49.5207 -8.36803 -2.32493 0
M  V30 334 H 49.2507 -6.70197 -1.71129 0
M  V30 335 H 50.1177 -7.03551 -4.13168 0
M  V30 336 H 52.7727 -4.59498 -3.54415 0
M  V30 337 H 53.0517 -6.88898 -1.59848 0
M  V30 338 H 54.0437 -6.46749 -3.03687 0
M  V30 339 H 52.2097 -8.46908 -3.20714 0
M  V30 340 H 52.1607 -5.86405 0.105564 0
M  V30 341 H 52.8427 0.483664 -0.597855 0
M  V30 342 H 52.8797 -0.187865 -4.0116 0
M  V30 343 H 52.9807 1.03585 -2.71726 0
M  V30 344 P 54.0797 -7.20834 -5.23717 0
M  V30 345 O 54.2997 -7.80006 -6.57415 0
M  V30 346 O 54.8697 -7.79416 -4.13051 0
M  V30 347 O 54.3297 -5.63315 -5.29344 0
M  V30 348 C 53.3897 -4.80318 -6.01954 0
M  V30 349 C 54.1197 -3.64202 -6.65911 0
M  V30 350 O 54.3297 -2.60736 -5.64823 0
M  V30 351 C 55.5197 -3.93521 -7.19518 0
M  V30 352 O 55.9097 -3.02071 -8.21205 0
M  V30 353 C 56.3997 -3.73047 -5.97036 0
M  V30 354 C 55.6897 -2.58828 -5.25741 0
M  V30 355 N 55.7397 -2.68068 -3.77503 0
M  V30 356 H 52.9017 -5.40394 -6.8003 0
M  V30 357 H 52.6297 -4.41741 -5.32532 0
M  V30 358 H 53.4977 -3.26371 -7.47889 0
M  V30 359 H 56.1527 -1.64007 -5.56746 0
M  V30 360 H 56.4327 -4.63439 -5.3432 0
M  V30 361 H 57.4237 -3.44776 -6.25925 0
M  V30 362 H 55.5897 -4.96707 -7.57347 0
M  V30 363 P 57.4597 -2.75334 -8.47391 0
M  V30 364 O 57.6797 -2.44571 -9.90142 0
M  V30 365 O 58.2497 -3.87688 -7.92115 0
M  V30 366 O 57.7097 -1.4459 -7.59357 0
M  V30 367 C 56.7697 -0.347608 -7.69215 0
M  V30 368 C 57.4997 0.96767 -7.52806 0
M  V30 369 O 57.7097 1.21036 -6.1011 0
M  V30 370 C 58.8997 1.04544 -8.13308 0
M  V30 371 O 59.2897 2.38311 -8.41922 0
M  V30 372 C 59.7797 0.491279 -7.02284 0
M  V30 373 C 59.0697 0.996264 -5.77469 0
M  V30 374 N 59.1197 0.0501916 -4.62973 0
M  V30 375 C 59.0397 -1.32786 -4.63244 0
M  V30 376 N 59.1197 -1.86957 -3.44545 0
M  V30 377 C 59.2597 -0.780241 -2.58481 0
M  V30 378 C 59.3897 -0.738536 -1.17757 0
M  V30 379 O 59.4097 -1.66794 -0.372349 0
M  V30 380 N 59.5097 0.58337 -0.711393 0
M  V30 381 C 59.5097 1.70816 -1.51017 0
M  V30 382 N 59.6397 2.87826 -0.880757 0
M  V30 383 N 59.3797 1.67126 -2.8339 0
M  V30 384 C 59.2597 0.401421 -3.30572 0
M  V30 385 H 56.2807 -0.374722 -8.67691 0
M  V30 386 H 56.0107 -0.443485 -6.90277 0
M  V30 387 H 56.8777 1.75537 -7.96793 0
M  V30 388 H 59.5327 1.95076 -5.46529 0
M  V30 389 H 59.8117 -0.608565 -7.04577 0
M  V30 390 H 60.8037 0.889672 -7.08939 0
M  V30 391 H 58.9697 0.43308 -9.04564 0
M  V30 392 H 58.9207 -1.91249 -5.54442 0
M  V30 393 H 59.6027 0.718054 0.275244 0
M  V30 394 H 59.6397 3.75721 -1.41832 0
M  V30 395 H 59.7407 2.90436 0.145468 0
M  V30 396 P 60.8396 2.75334 -8.47391 0
M  V30 397 O 61.0596 3.84204 -9.44982 0
M  V30 398 O 61.6296 1.51982 -8.68909 0
M  V30 399 O 61.0896 3.29363 -6.99321 0
M  V30 400 C 60.1496 4.24066 -6.42823 0
M  V30 401 C 60.8796 5.20775 -5.52155 0
M  V30 402 O 61.0896 4.56607 -4.22514 0
M  V30 403 C 62.2796 5.62697 -5.96604 0
M  V30 404 O 62.6696 6.87667 -5.41053 0
M  V30 405 C 63.1596 4.52537 -5.39283 0
M  V30 406 C 62.4496 4.20027 -4.08623 0
M  V30 407 N 62.4996 2.76189 -3.71603 0
M  V30 408 H 59.6616 4.79756 -7.24086 0
M  V30 409 H 59.3896 3.69963 -5.84682 0
M  V30 410 H 60.2576 6.10431 -5.41508 0
M  V30 411 H 62.9126 4.78816 -3.28024 0
M  V30 412 H 63.1926 3.64957 -6.05871 0
M  V30 413 H 64.1836 4.88748 -5.21323 0
M  V30 414 H 62.3496 5.66789 -7.0643 0
M  V30 415 P 64.2196 7.20834 -5.23717 0
M  V30 416 O 64.4396 8.66274 -5.38678 0
M  V30 417 O 65.0096 6.33687 -6.13629 0
M  V30 418 O 64.4696 6.7751 -3.72168 0
M  V30 419 C 63.5296 7.20919 -2.70795 0
M  V30 420 C 64.2596 7.45864 -1.40599 0
M  V30 421 O 64.4696 6.17751 -0.734343 0
M  V30 422 C 65.6596 8.05906 -1.51917 0
M  V30 423 O 66.0496 8.74358 -0.335205 0
M  V30 424 C 66.5396 6.83093 -1.70294 0
M  V30 425 C 65.8296 5.79992 -0.836974 0
M  V30 426 N 65.8796 4.41864 -1.38293 0
M  V30 427 H 63.0416 8.13738 -3.03804 0
M  V30 428 H 62.7696 6.42974 -2.55559 0
M  V30 429 H 63.6376 8.12139 -0.792866 0
M  V30 430 H 66.2926 5.80178 0.160643 0
M  V30 431 H 66.5726 6.51379 -2.75643 0
M  V30 432 H 67.5636 7.01832 -1.3448 0
M  V30 433 H 65.7296 8.73771 -2.38364 0
M  V30 434 P 67.5996 8.91 -4.36464e-15 0
M  V30 435 O 67.8196 10.1726 0.733694 0
M  V30 436 O 68.3896 8.73148 -1.23936 0
M  V30 437 O 67.8496 7.66872 0.971405 0
M  V30 438 C 66.9096 7.42309 2.04641 0
M  V30 439 C 67.6396 6.86059 3.24661 0
M  V30 440 O 67.8496 5.42847 3.03646 0
M  V30 441 C 69.0396 7.41196 3.50753 0
M  V30 442 O 69.4296 7.27073 4.86816 0
M  V30 443 C 69.9196 6.5273 2.63741 0
M  V30 444 C 69.2096 5.1842 2.73198 0
M  V30 445 N 69.2596 4.38762 1.4784 0
M  V30 446 H 66.4206 8.36803 2.32493 0
M  V30 447 H 66.1506 6.70197 1.71129 0
M  V30 448 H 67.0176 7.03551 4.13168 0
M  V30 449 P 70.9796 7.20834 5.23717 0
M  V30 450 O 71.1996 7.79853 6.57286 0
M  V30 451 O 71.7696 7.79239 4.12957 0
M  V30 452 O 71.2296 5.63315 5.29344 0
M  V30 453 C 70.2896 4.80255 6.01876 0
M  V30 454 C 71.0196 3.64202 6.65911 0
M  V30 455 O 71.2296 2.60694 5.64732 0
M  V30 456 C 72.4196 3.93473 7.1943 0
M  V30 457 O 72.8096 3.02071 8.21205 0
M  V30 458 C 73.2996 3.73047 5.97036 0
M  V30 459 C 72.5896 2.58828 5.25741 0
M  V30 460 N 72.6396 2.68068 3.77503 0
M  V30 461 H 69.8006 5.40332 6.79951 0
M  V30 462 H 69.5306 4.41613 5.32378 0
M  V30 463 H 70.3976 3.26331 7.47797 0
M  V30 464 P 74.3596 2.75334 8.47391 0
M  V30 465 O 74.5796 2.44571 9.90142 0
M  V30 466 O 75.1496 3.87688 7.92115 0
M  V30 467 O 74.6096 1.4459 7.59357 0
M  V30 468 C 73.6696 0.347608 7.69215 0
M  V30 469 C 74.3996 -0.96767 7.52806 0
M  V30 470 O 74.6096 -1.21036 6.1011 0
M  V30 471 C 75.7996 -1.04544 8.13308 0
M  V30 472 O 76.1896 -2.38311 8.41922 0
M  V30 473 C 76.6796 -0.491279 7.02284 0
M  V30 474 C 75.9696 -0.996264 5.77469 0
M  V30 475 N 76.0196 -0.0501916 4.62973 0
M  V30 476 C 75.9396 1.32786 4.63244 0
M  V30 477 N 76.0196 1.86957 3.44545 0
M  V30 478 C 76.1596 0.780241 2.58481 0
M  V30 479 C 76.2896 0.738536 1.17757 0
M  V30 480 N 76.4096 -0.58337 0.711393 0
M  V30 481 C 76.4096 -1.70816 1.51017 0
M  V30 482 N 76.5396 -2.87826 0.880757 0
M  V30 483 N 76.2796 -1.67126 2.8339 0
M  V30 484 C 76.1596 -0.401421 3.30572 0
M  V30 485 H 73.1806 0.374722 8.67691 0
M  V30 486 H 72.9106 0.443485 6.90277 0
M  V30 487 H 73.7776 -1.75537 7.96793 0
M  V30 488 P 77.7395 -2.75334 8.47391 0
M  V30 489 O 77.9595 -3.84128 9.44797 0
M  V30 490 O 78.5295 -1.51947 8.68712 0
M  V30 491 O 77.9895 -3.29363 6.99321 0
M  V30 492 C 77.0495 -4.24011 6.4274 0
M  V30 493 C 77.7795 -5.20775 5.52155 0
M  V30 494 O 77.9895 -4.56534 4.22446 0
M  V30 495 C 79.1795 -5.62629 5.96531 0
M  V30 496 O 79.5695 -6.87667 5.41053 0
M  V30 497 C 80.0595 -4.52537 5.39283 0
M  V30 498 C 79.3495 -4.20027 4.08623 0
M  V30 499 N 79.3995 -2.76189 3.71603 0
M  V30 500 H 76.5605 -4.797 7.24003 0
M  V30 501 H 76.2905 -3.69856 5.84513 0
M  V30 502 H 77.1575 -6.10356 5.41441 0
M  V30 503 P 81.1195 -7.20834 5.23717 0
M  V30 504 O 81.3395 -8.66104 5.38572 0
M  V30 505 O 81.9095 -6.33544 6.1349 0
M  V30 506 O 81.3695 -6.7751 3.72168 0
M  V30 507 C 80.4295 -7.20825 2.7076 0
M  V30 508 C 81.1595 -7.45864 1.40599 0
M  V30 509 O 81.3695 -6.17651 0.734225 0
M  V30 510 C 82.5595 -8.05808 1.51899 0
M  V30 511 O 82.9495 -8.74358 0.335205 0
M  V30 512 C 83.4395 -6.83093 1.70294 0
M  V30 513 C 82.7295 -5.79992 0.836974 0
M  V30 514 N 82.7795 -4.41864 1.38293 0
M  V30 515 H 79.9405 -8.13644 3.0377 0
M  V30 516 H 79.6705 -6.42788 2.55485 0
M  V30 517 H 80.5375 -8.12039 0.792769 0
M  V30 518 P 84.4995 -8.91 5.4558e-15 0
M  V30 519 O 84.7195 -10.1736 -0.733766 0
M  V30 520 O 85.2895 -8.73247 1.2395 0
M  V30 521 O 84.7495 -7.66872 -0.971405 0
M  V30 522 C 83.8095 -7.42309 -2.04641 0
M  V30 523 C 84.5395 -6.86059 -3.24661 0
M  V30 524 O 84.7495 -5.42847 -3.03646 0
M  V30 525 C 85.9395 -7.41196 -3.50753 0
M  V30 526 O 86.3295 -7.27073 -4.86816 0
M  V30 527 C 86.8195 -6.5273 -2.63741 0
M  V30 528 C 86.1095 -5.1842 -2.73198 0
M  V30 529 N 86.1595 -4.38668 -1.47808 0
M  V30 530 C 86.3095 -3.00789 -1.58511 0
M  V30 531 O 86.3995 -2.50116 -2.71298 0
M  V30 532 N 86.3595 -2.29703 -0.253698 0
M  V30 533 C 86.2595 -2.84269 0.750133 0
M  V30 534 N 86.3095 -2.06951 1.82612 0
M  V30 535 C 86.1095 -4.25803 0.889776 0
M  V30 536 C 86.0595 -4.98326 -0.259363 0
M  V30 537 H 83.3195 -8.36707 -2.32466 0
M  V30 538 H 83.0505 -6.701 -1.71105 0
M  V30 539 H 83.9175 -7.03638 -4.13219 0
M  V30 540 H 86.5725 -4.59852 -3.53955 0
M  V30 541 H 86.8515 -6.88995 -1.59871 0
M  V30 542 H 87.8435 -6.46749 -3.03687 0
M  V30 543 H 86.0095 -8.46908 -3.20714 0
M  V30 544 H 85.9375 -6.06349 -0.206238 0
M  V30 545 H 86.0395 -4.73163 1.86796 0
M  V30 546 H 86.4275 -1.05099 1.72271 0
M  V30 547 H 86.2305 -2.48716 2.76361 0
M  V30 548 P 87.8795 -7.20834 -5.23717 0
M  V30 549 O 88.0995 -7.79853 -6.57286 0
M  V30 550 O 88.6695 -7.79239 -4.12957 0
M  V30 551 O 88.1295 -5.63315 -5.29344 0
M  V30 552 C 87.1895 -4.80255 -6.01876 0
M  V30 553 C 87.9195 -3.64202 -6.65911 0
M  V30 554 O 88.1295 -2.60694 -5.64732 0
M  V30 555 C 89.3195 -3.93473 -7.1943 0
M  V30 556 O 89.7095 -3.02071 -8.21205 0
M  V30 557 C 90.1995 -3.73047 -5.97036 0
M  V30 558 C 89.4895 -2.58828 -5.25741 0
M  V30 559 N 89.5395 -2.68068 -3.77503 0
M  V30 560 H 86.7005 -5.40332 -6.79951 0
M  V30 561 H 86.4305 -4.41613 -5.32378 0
M  V30 562 H 87.2975 -3.26331 -7.47797 0
M  V30 563 P 91.2595 -2.75334 -8.47391 0
M  V30 564 O 91.4795 -2.44571 -9.90142 0
M  V30 565 O 92.0495 -3.87688 -7.92115 0
M  V30 566 O 91.5095 -1.4459 -7.59357 0
M  V30 567 C 90.5695 -0.347608 -7.69215 0
M  V30 568 C 91.2995 0.96767 -7.52806 0
M  V30 569 O 91.5095 1.21036 -6.1011 0
M  V30 570 C 92.6995 1.04544 -8.13308 0
M  V30 571 O 93.0895 2.38311 -8.41922 0
M  V30 572 C 93.5795 0.491279 -7.02284 0
M  V30 573 C 92.8695 0.996264 -5.77469 0
M  V30 574 N 92.9195 0.0501916 -4.62973 0
M  V30 575 H 90.0805 -0.374722 -8.67691 0
M  V30 576 H 89.8105 -0.443485 -6.90277 0
M  V30 577 H 90.6775 1.75537 -7.96793 0
M  V30 578 P 94.6394 2.75334 -8.47391 0
M  V30 579 O 94.8594 3.84128 -9.44797 0
M  V30 580 O 95.4294 1.51947 -8.68712 0
M  V30 581 O 94.8894 3.29363 -6.99321 0
M  V30 582 C 93.9494 4.24011 -6.4274 0
M  V30 583 C 94.6794 5.20775 -5.52155 0
M  V30 584 O 94.8894 4.56534 -4.22446 0
M  V30 585 C 96.0794 5.62629 -5.96531 0
M  V30 586 O 96.4694 6.87667 -5.41053 0
M  V30 587 C 96.9594 4.52537 -5.39283 0
M  V30 588 C 96.2494 4.20027 -4.08623 0
M  V30 589 N 96.2994 2.76189 -3.71603 0
M  V30 590 H 93.4604 4.797 -7.24003 0
M  V30 591 H 93.1904 3.69856 -5.84513 0
M  V30 592 H 94.0574 6.10356 -5.41441 0
M  V30 593 P 98.0194 7.20834 -5.23717 0
M  V30 594 O 98.2394 8.66104 -5.38572 0
M  V30 595 O 98.8094 6.33544 -6.1349 0
M  V30 596 O 98.2694 6.7751 -3.72168 0
M  V30 597 C 97.3294 7.20825 -2.7076 0
M  V30 598 C 98.0594 7.45864 -1.40599 0
M  V30 599 O 98.2694 6.17651 -0.734225 0
M  V30 600 C 99.4594 8.05808 -1.51899 0
M  V30 601 O 99.8494 8.74358 -0.335205 0
M  V30 602 C 100.339 6.83093 -1.70294 0
M  V30 603 C 99.6294 5.79992 -0.836974 0
M  V30 604 N 99.6794 4.41864 -1.38293 0
M  V30 605 C 99.5994 3.99538 -2.69438 0
M  V30 606 N 99.6794 2.69909 -2.84277 0
M  V30 607 C 99.8194 2.21719 -1.5408 0
M  V30 608 C 99.9494 0.891712 -1.06628 0
M  V30 609 N 100.069 0.856846 0.334985 0
M  V30 610 C 100.069 1.9641 1.15789 0
M  V30 611 N 100.199 1.72708 2.46522 0
M  V30 612 N 99.9394 3.21165 0.713741 0
M  V30 613 C 99.8194 3.26797 -0.639748 0
M  V30 614 H 96.8404 8.13644 -3.0377 0
M  V30 615 H 96.5704 6.42788 -2.55485 0
M  V30 616 H 97.4374 8.12039 -0.792769 0
M  V30 617 P 101.399 8.91 -6.54696e-15 0
M  V30 618 O 101.619 10.1726 0.733694 0
M  V30 619 O 102.189 8.73148 -1.23936 0
M  V30 620 O 101.649 7.66872 0.971405 0
M  V30 621 C 100.709 7.42309 2.04641 0
M  V30 622 C 101.439 6.86059 3.24661 0
M  V30 623 O 101.649 5.42847 3.03646 0
M  V30 624 C 102.839 7.41196 3.50753 0
M  V30 625 O 103.229 7.27073 4.86816 0
M  V30 626 C 103.719 6.5273 2.63741 0
M  V30 627 C 103.009 5.1842 2.73198 0
M  V30 628 N 103.059 4.38762 1.4784 0
M  V30 629 H 100.22 8.36803 2.32493 0
M  V30 630 H 99.9504 6.70197 1.71129 0
M  V30 631 H 100.817 7.03551 4.13168 0
M  V30 632 P 104.779 7.20834 5.23717 0
M  V30 633 O 104.999 7.7993 6.57351 0
M  V30 634 O 105.569 7.79328 4.13004 0
M  V30 635 O 105.029 5.63315 5.29344 0
M  V30 636 C 104.089 4.80255 6.01876 0
M  V30 637 C 104.819 3.64202 6.65911 0
M  V30 638 O 105.029 2.60694 5.64732 0
M  V30 639 C 106.219 3.93473 7.1943 0
M  V30 640 O 106.609 3.02071 8.21205 0
M  V30 641 C 107.099 3.73047 5.97036 0
M  V30 642 C 106.389 2.58828 5.25741 0
M  V30 643 N 106.439 2.6801 3.77422 0
M  V30 644 C 106.589 1.50173 3.05038 0
M  V30 645 O 106.679 0.428832 3.665 0
M  V30 646 N 106.639 1.70922 1.55541 0
M  V30 647 C 106.539 2.7407 1.06402 0
M  V30 648 N 106.589 2.74764 -0.260931 0
M  V30 649 C 106.389 3.96781 1.78296 0
M  V30 650 C 106.339 3.87909 3.13891 0
M  V30 651 H 103.599 5.4027 6.79873 0
M  V30 652 H 103.33 4.41549 5.32301 0
M  V30 653 H 104.197 3.26371 7.47889 0
M  V30 654 H 106.852 1.63978 5.5665 0
M  V30 655 H 107.131 4.63439 5.3432 0
M  V30 656 H 108.123 3.44728 6.25838 0
M  V30 657 H 106.289 4.96652 7.57263 0
M  V30 658 H 106.217 4.78425 3.73088 0
M  V30 659 H 106.319 4.92593 1.26997 0
M  V30 660 H 106.707 1.86285 -0.77595 0
M  V30 661 H 106.51 3.63657 -0.773896 0
M  V30 662 P 108.159 2.75334 8.47391 0
M  V30 663 O 108.379 2.44571 9.90142 0
M  V30 664 O 108.949 3.87688 7.92115 0
M  V30 665 O 108.409 1.4459 7.59357 0
M  V30 666 C 107.469 0.347608 7.69215 0
M  V30 667 C 108.199 -0.96767 7.52806 0
M  V30 668 O 108.409 -1.21036 6.1011 0
M  V30 669 C 109.599 -1.04544 8.13308 0
M  V30 670 O 109.989 -2.38311 8.41922 0
M  V30 671 C 110.479 -0.491279 7.02284 0
M  V30 672 C 109.769 -0.996264 5.77469 0
M  V30 673 N 109.819 -0.0501916 4.62973 0
M  V30 674 H 106.98 0.374722 8.67691 0
M  V30 675 H 106.71 0.443485 6.90277 0
M  V30 676 H 107.577 -1.75537 7.96793 0
M  V30 677 P 111.539 -2.75334 8.47391 0
M  V30 678 O 111.759 -3.84128 9.44797 0
M  V30 679 O 112.329 -1.51947 8.68712 0
M  V30 680 O 111.789 -3.29363 6.99321 0
M  V30 681 C 110.849 -4.24011 6.4274 0
M  V30 682 C 111.579 -5.20775 5.52155 0
M  V30 683 O 111.789 -4.56534 4.22446 0
M  V30 684 C 112.979 -5.62629 5.96531 0
M  V30 685 O 113.369 -6.87667 5.41053 0
M  V30 686 C 113.859 -4.52537 5.39283 0
M  V30 687 C 113.149 -4.20027 4.08623 0
M  V30 688 N 113.199 -2.76189 3.71603 0
M  V30 689 H 110.36 -4.797 7.24003 0
M  V30 690 H 110.09 -3.69856 5.84513 0
M  V30 691 H 110.957 -6.10356 5.41441 0
M  V30 692 P 114.919 -7.20834 5.23717 0
M  V30 693 O 115.139 -8.66104 5.38572 0
M  V30 694 O 115.709 -6.33544 6.1349 0
M  V30 695 O 115.169 -6.7751 3.72168 0
M  V30 696 C 114.229 -7.20825 2.7076 0
M  V30 697 C 114.959 -7.45864 1.40599 0
M  V30 698 O 115.169 -6.17651 0.734225 0
M  V30 699 C 116.359 -8.05808 1.51899 0
M  V30 700 O 116.749 -8.74358 0.335205 0
M  V30 701 C 117.239 -6.83093 1.70294 0
M  V30 702 C 116.529 -5.79992 0.836974 0
M  V30 703 N 116.579 -4.41864 1.38293 0
M  V30 704 H 113.74 -8.13644 3.0377 0
M  V30 705 H 113.47 -6.42788 2.55485 0
M  V30 706 H 114.337 -8.12039 0.792769 0
M  V30 707 P 118.299 -8.91 7.63812e-15 0
M  V30 708 O 118.519 -10.1736 -0.733766 0
M  V30 709 O 119.089 -8.73247 1.2395 0
M  V30 710 O 118.549 -7.66872 -0.971405 0
M  V30 711 C 117.609 -7.42309 -2.04641 0
M  V30 712 C 118.339 -6.86059 -3.24661 0
M  V30 713 O 118.549 -5.42847 -3.03646 0
M  V30 714 C 119.739 -7.41196 -3.50753 0
M  V30 715 O 120.129 -7.27073 -4.86816 0
M  V30 716 C 120.619 -6.5273 -2.63741 0
M  V30 717 C 119.909 -5.1842 -2.73198 0
M  V30 718 N 119.959 -4.38668 -1.47808 0
M  V30 719 C 120.109 -3.00789 -1.58511 0
M  V30 720 O 120.199 -2.50116 -2.71298 0
M  V30 721 N 120.159 -2.29703 -0.253698 0
M  V30 722 C 120.059 -2.84269 0.750133 0
M  V30 723 N 120.109 -2.06951 1.82612 0
M  V30 724 C 119.909 -4.25803 0.889776 0
M  V30 725 C 119.859 -4.98326 -0.259363 0
M  V30 726 H 117.119 -8.36707 -2.32466 0
M  V30 727 H 116.85 -6.701 -1.71105 0
M  V30 728 H 117.717 -7.03638 -4.13219 0
M  V30 729 H 120.372 -4.59852 -3.53955 0
M  V30 730 H 120.651 -6.88995 -1.59871 0
M  V30 731 H 121.643 -6.46749 -3.03687 0
M  V30 732 H 119.809 -8.46908 -3.20714 0
M  V30 733 H 119.737 -6.06349 -0.206238 0
M  V30 734 H 119.839 -4.73163 1.86796 0
M  V30 735 H 120.227 -1.05099 1.72271 0
M  V30 736 H 120.03 -2.48716 2.76361 0
M  V30 737 P 121.679 -7.20834 -5.23717 0
M  V30 738 O 121.899 -7.80006 -6.57415 0
M  V30 739 O 122.469 -7.79416 -4.13051 0
M  V30 740 O 121.929 -5.63315 -5.29344 0
M  V30 741 C 120.989 -4.80318 -6.01954 0
M  V30 742 C 121.719 -3.64202 -6.65911 0
M  V30 743 O 121.929 -2.60736 -5.64823 0
M  V30 744 C 123.119 -3.93521 -7.19518 0
M  V30 745 O 123.509 -3.02071 -8.21205 0
M  V30 746 C 123.999 -3.73047 -5.97036 0
M  V30 747 C 123.289 -2.58828 -5.25741 0
M  V30 748 N 123.339 -2.68068 -3.77503 0
M  V30 749 H 120.501 -5.40394 -6.8003 0
M  V30 750 H 120.229 -4.41741 -5.32532 0
M  V30 751 H 121.097 -3.26371 -7.47889 0
M  V30 752 H 123.752 -1.64007 -5.56746 0
M  V30 753 H 124.032 -4.63439 -5.3432 0
M  V30 754 H 125.023 -3.44776 -6.25925 0
M  V30 755 H 123.189 -4.96707 -7.57347 0
M  V30 756 P 125.059 -2.75334 -8.47391 0
M  V30 757 O 125.279 -2.44571 -9.90142 0
M  V30 758 O 125.849 -3.87688 -7.92115 0
M  V30 759 O 125.309 -1.4459 -7.59357 0
M  V30 760 C 124.369 -0.347608 -7.69215 0
M  V30 761 C 125.099 0.96767 -7.52806 0
M  V30 762 O 125.309 1.21036 -6.1011 0
M  V30 763 C 126.499 1.04544 -8.13308 0
M  V30 764 O 126.889 2.38311 -8.41922 0
M  V30 765 C 127.379 0.491279 -7.02284 0
M  V30 766 C 126.669 0.996264 -5.77469 0
M  V30 767 N 126.719 0.0501916 -4.62973 0
M  V30 768 H 123.88 -0.374722 -8.67691 0
M  V30 769 H 123.61 -0.443485 -6.90277 0
M  V30 770 H 124.477 1.75537 -7.96793 0
M  V30 771 P 128.439 2.75334 -8.47391 0
M  V30 772 O 128.659 3.84128 -9.44797 0
M  V30 773 O 129.229 1.51947 -8.68712 0
M  V30 774 O 128.689 3.29363 -6.99321 0
M  V30 775 C 127.749 4.24011 -6.4274 0
M  V30 776 C 128.479 5.20775 -5.52155 0
M  V30 777 O 128.689 4.56534 -4.22446 0
M  V30 778 C 129.879 5.62629 -5.96531 0
M  V30 779 O 130.269 6.87667 -5.41053 0
M  V30 780 C 130.759 4.52537 -5.39283 0
M  V30 781 C 130.049 4.20027 -4.08623 0
M  V30 782 N 130.099 2.76189 -3.71603 0
M  V30 783 H 127.26 4.797 -7.24003 0
M  V30 784 H 126.99 3.69856 -5.84513 0
M  V30 785 H 127.857 6.10356 -5.41441 0
M  V30 786 P 131.819 7.20834 -5.23717 0
M  V30 787 O 132.039 8.66104 -5.38572 0
M  V30 788 O 132.609 6.33544 -6.1349 0
M  V30 789 O 132.069 6.7751 -3.72168 0
M  V30 790 C 131.129 7.20825 -2.7076 0
M  V30 791 C 131.859 7.45864 -1.40599 0
M  V30 792 O 132.069 6.17651 -0.734225 0
M  V30 793 C 133.259 8.05808 -1.51899 0
M  V30 794 O 133.649 8.74358 -0.335205 0
M  V30 795 C 134.139 6.83093 -1.70294 0
M  V30 796 C 133.429 5.79992 -0.836974 0
M  V30 797 N 133.479 4.41864 -1.38293 0
M  V30 798 H 130.64 8.13644 -3.0377 0
M  V30 799 H 130.37 6.42788 -2.55485 0
M  V30 800 H 131.237 8.12039 -0.792769 0
M  V30 801 P 135.199 8.91 -8.72928e-15 0
M  V30 802 O 135.419 10.1726 0.733694 0
M  V30 803 O 135.989 8.73148 -1.23936 0
M  V30 804 O 135.449 7.66872 0.971405 0
M  V30 805 C 134.509 7.42309 2.04641 0
M  V30 806 C 135.239 6.86059 3.24661 0
M  V30 807 O 135.449 5.42847 3.03646 0
M  V30 808 C 136.639 7.41196 3.50753 0
M  V30 809 O 137.029 7.27073 4.86816 0
M  V30 810 C 137.519 6.5273 2.63741 0
M  V30 811 C 136.809 5.1842 2.73198 0
M  V30 812 N 136.859 4.38762 1.4784 0
M  V30 813 H 134.02 8.36803 2.32493 0
M  V30 814 H 133.75 6.70197 1.71129 0
M  V30 815 H 134.617 7.03551 4.13168 0
M  V30 816 P 138.579 7.20834 5.23717 0
M  V30 817 O 138.799 7.79853 6.57286 0
M  V30 818 O 139.369 7.79239 4.12957 0
M  V30 819 O 138.829 5.63315 5.29344 0
M  V30 820 C 137.889 4.80255 6.01876 0
M  V30 821 C 138.619 3.64202 6.65911 0
M  V30 822 O 138.829 2.60694 5.64732 0
M  V30 823 C 140.019 3.93473 7.1943 0
M  V30 824 O 140.409 3.02071 8.21205 0
M  V30 825 C 140.899 3.73047 5.97036 0
M  V30 826 C 140.189 2.58828 5.25741 0
M  V30 827 N 140.239 2.68068 3.77503 0
M  V30 828 H 137.4 5.40332 6.79951 0
M  V30 829 H 137.13 4.41613 5.32378 0
M  V30 830 H 137.997 3.26331 7.47797 0
M  V30 831 P 141.959 2.75334 8.47391 0
M  V30 832 O 142.179 2.44571 9.90142 0
M  V30 833 O 142.749 3.87688 7.92115 0
M  V30 834 O 142.209 1.4459 7.59357 0
M  V30 835 C 141.269 0.347608 7.69215 0
M  V30 836 C 141.999 -0.96767 7.52806 0
M  V30 837 O 142.209 -1.21036 6.1011 0
M  V30 838 C 143.399 -1.04544 8.13308 0
M  V30 839 O 143.789 -2.38311 8.41922 0
M  V30 840 C 144.279 -0.491279 7.02284 0
M  V30 841 C 143.569 -0.996264 5.77469 0
M  V30 842 N 143.619 -0.0501916 4.62973 0
M  V30 843 H 140.78 0.374722 8.67691 0
M  V30 844 H 140.51 0.443485 6.90277 0
M  V30 845 H 141.377 -1.75537 7.96793 0
M  V30 846 P 145.339 -2.75334 8.47391 0
M  V30 847 O 145.559 -3.84128 9.44797 0
M  V30 848 O 146.129 -1.51947 8.68712 0
M  V30 849 O 145.589 -3.29363 6.99321 0
M  V30 850 C 144.649 -4.24011 6.4274 0
M  V30 851 C 145.379 -5.20775 5.52155 0
M  V30 852 O 145.589 -4.56534 4.22446 0
M  V30 853 C 146.779 -5.62629 5.96531 0
M  V30 854 O 147.169 -6.87667 5.41053 0
M  V30 855 C 147.659 -4.52537 5.39283 0
M  V30 856 C 146.949 -4.20027 4.08623 0
M  V30 857 N 146.999 -2.76189 3.71603 0
M  V30 858 C 146.919 -1.64862 4.52822 0
M  V30 859 N 146.999 -0.512671 3.88633 0
M  V30 860 C 147.139 -0.888083 2.54977 0
M  V30 861 C 147.269 -0.094668 1.38677 0
M  V30 862 N 147.389 -0.890102 0.232633 0
M  V30 863 C 147.389 -2.26958 0.21772 0
M  V30 864 N 147.519 -2.84626 -0.97925 0
M  V30 865 N 147.259 -3.0178 1.31033 0
M  V30 866 C 147.139 -2.26781 2.43843 0
M  V30 867 H 144.16 -4.797 7.24003 0
M  V30 868 H 143.89 -3.69856 5.84513 0
M  V30 869 H 144.757 -6.10356 5.41441 0
M  V30 870 P 148.719 -7.20834 5.23717 0
M  V30 871 O 148.939 -8.66104 5.38572 0
M  V30 872 O 149.509 -6.33544 6.1349 0
M  V30 873 O 148.969 -6.7751 3.72168 0
M  V30 874 C 148.029 -7.20825 2.7076 0
M  V30 875 C 148.759 -7.45864 1.40599 0
M  V30 876 O 148.969 -6.17651 0.734225 0
M  V30 877 C 150.159 -8.05808 1.51899 0
M  V30 878 O 150.549 -8.74358 0.335205 0
M  V30 879 C 151.039 -6.83093 1.70294 0
M  V30 880 C 150.329 -5.79992 0.836974 0
M  V30 881 N 150.379 -4.41864 1.38293 0
M  V30 882 H 147.54 -8.13644 3.0377 0
M  V30 883 H 147.27 -6.42788 2.55485 0
M  V30 884 H 148.137 -8.12039 0.792769 0
M  V30 885 P 152.099 -8.91 9.82044e-15 0
M  V30 886 O 152.319 -10.1726 -0.733694 0
M  V30 887 O 152.889 -8.73148 1.23936 0
M  V30 888 O 152.349 -7.66872 -0.971405 0
M  V30 889 C 151.409 -7.42309 -2.04641 0
M  V30 890 C 152.139 -6.86059 -3.24661 0
M  V30 891 O 152.349 -5.42847 -3.03646 0
M  V30 892 C 153.539 -7.41196 -3.50753 0
M  V30 893 O 153.929 -7.27073 -4.86816 0
M  V30 894 C 154.419 -6.5273 -2.63741 0
M  V30 895 C 153.709 -5.1842 -2.73198 0
M  V30 896 N 153.759 -4.38762 -1.4784 0
M  V30 897 H 150.92 -8.36803 -2.32493 0
M  V30 898 H 150.65 -6.70197 -1.71129 0
M  V30 899 H 151.517 -7.03551 -4.13168 0
M  V30 900 P 155.479 -7.20834 -5.23717 0
M  V30 901 O 155.699 -7.79853 -6.57286 0
M  V30 902 O 156.269 -7.79239 -4.12957 0
M  V30 903 O 155.729 -5.63315 -5.29344 0
M  V30 904 C 154.789 -4.80255 -6.01876 0
M  V30 905 C 155.519 -3.64202 -6.65911 0
M  V30 906 O 155.729 -2.60694 -5.64732 0
M  V30 907 C 156.919 -3.93473 -7.1943 0
M  V30 908 O 157.309 -3.02071 -8.21205 0
M  V30 909 C 157.799 -3.73047 -5.97036 0
M  V30 910 C 157.089 -2.58828 -5.25741 0
M  V30 911 N 157.139 -2.68068 -3.77503 0
M  V30 912 C 157.059 -3.79715 -2.96723 0
M  V30 913 N 157.139 -3.5377 -1.68852 0
M  V30 914 C 157.279 -2.15054 -1.63254 0
M  V30 915 C 157.409 -1.28964 -0.518571 0
M  V30 916 N 157.529 0.0538097 -0.918425 0
M  V30 917 C 157.529 0.494275 -2.22578 0
M  V30 918 N 157.659 1.81086 -2.40434 0
M  V30 919 N 157.399 -0.313645 -3.27502 0
M  V30 920 C 157.279 -1.61829 -2.91033 0
M  V30 921 H 154.3 -5.40332 -6.79951 0
M  V30 922 H 154.03 -4.41613 -5.32378 0
M  V30 923 H 154.897 -3.26331 -7.47797 0
M  V30 924 P 158.859 -2.75334 -8.47391 0
M  V30 925 O 159.079 -2.44571 -9.90142 0
M  V30 926 O 159.649 -3.87688 -7.92115 0
M  V30 927 O 159.109 -1.4459 -7.59357 0
M  V30 928 C 158.169 -0.347608 -7.69215 0
M  V30 929 C 158.899 0.96767 -7.52806 0
M  V30 930 O 159.109 1.21036 -6.1011 0
M  V30 931 C 160.299 1.04544 -8.13308 0
M  V30 932 O 160.689 2.38311 -8.41922 0
M  V30 933 C 161.179 0.491279 -7.02284 0
M  V30 934 C 160.469 0.996264 -5.77469 0
M  V30 935 N 160.519 0.0501916 -4.62973 0
M  V30 936 H 157.68 -0.374722 -8.67691 0
M  V30 937 H 157.41 -0.443485 -6.90277 0
M  V30 938 H 158.277 1.75537 -7.96793 0
M  V30 939 P 162.239 2.75334 -8.47391 0
M  V30 940 O 162.459 3.84128 -9.44797 0
M  V30 941 O 163.029 1.51947 -8.68712 0
M  V30 942 O 162.489 3.29363 -6.99321 0
M  V30 943 C 161.549 4.24011 -6.4274 0
M  V30 944 C 162.279 5.20775 -5.52155 0
M  V30 945 O 162.489 4.56534 -4.22446 0
M  V30 946 C 163.679 5.62629 -5.96531 0
M  V30 947 O 164.069 6.87667 -5.41053 0
M  V30 948 C 164.559 4.52537 -5.39283 0
M  V30 949 C 163.849 4.20027 -4.08623 0
M  V30 950 N 163.899 2.76189 -3.71603 0
M  V30 951 H 161.06 4.797 -7.24003 0
M  V30 952 H 160.79 3.69856 -5.84513 0
M  V30 953 H 161.657 6.10356 -5.41441 0
M  V30 954 P 165.619 7.20834 -5.23717 0
M  V30 955 O 165.839 8.66104 -5.38572 0
M  V30 956 O 166.409 6.33544 -6.1349 0
M  V30 957 O 165.869 6.7751 -3.72168 0
M  V30 958 C 164.929 7.20825 -2.7076 0
M  V30 959 C 165.659 7.45864 -1.40599 0
M  V30 960 O 165.869 6.17651 -0.734225 0
M  V30 961 C 167.059 8.05808 -1.51899 0
M  V30 962 O 167.449 8.74358 -0.335205 0
M  V30 963 C 167.939 6.83093 -1.70294 0
M  V30 964 C 167.229 5.79992 -0.836974 0
M  V30 965 N 167.279 4.41864 -1.38293 0
M  V30 966 C 167.199 3.99538 -2.69438 0
M  V30 967 N 167.279 2.69909 -2.84277 0
M  V30 968 C 167.419 2.21719 -1.5408 0
M  V30 969 C 167.549 0.891712 -1.06628 0
M  V30 970 N 167.669 0.856846 0.334985 0
M  V30 971 C 167.669 1.9641 1.15789 0
M  V30 972 N 167.799 1.72708 2.46522 0
M  V30 973 N 167.539 3.21165 0.713741 0
M  V30 974 C 167.419 3.26797 -0.639748 0
M  V30 975 H 164.44 8.13644 -3.0377 0
M  V30 976 H 164.17 6.42788 -2.55485 0
M  V30 977 H 165.037 8.12039 -0.792769 0
M  V30 978 P 168.999 8.91 -1.09116e-14 0
M  V30 979 O 169.219 10.1746 0.733838 0
M  V30 980 O 169.789 8.73346 -1.23964 0
M  V30 981 O 169.249 7.66872 0.971405 0
M  V30 982 C 168.309 7.42405 2.04668 0
M  V30 983 C 169.039 6.86059 3.24661 0
M  V30 984 O 169.249 5.42934 3.03695 0
M  V30 985 C 170.439 7.41287 3.50796 0
M  V30 986 O 170.829 7.27073 4.86816 0
M  V30 987 C 171.319 6.5273 2.63741 0
M  V30 988 C 170.609 5.1842 2.73198 0
M  V30 989 N 170.659 4.38762 1.4784 0
M  V30 990 H 167.821 8.36899 2.3252 0
M  V30 991 H 167.549 6.70391 1.71179 0
M  V30 992 H 168.417 7.03638 4.13219 0
M  V30 993 H 171.072 4.59931 3.54016 0
M  V30 994 H 171.352 6.88995 1.59871 0
M  V30 995 H 172.343 6.4684 3.0373 0
M  V30 996 H 170.509 8.47002 3.20749 0
M  V30 997 P 172.379 7.20834 5.23717 0
M  V30 998 O 172.599 7.7993 6.57351 0
M  V30 999 O 173.169 7.79328 4.13004 0
M  V30 1000 O 172.629 5.63315 5.29344 0
M  V30 1001 C 171.689 4.80193 6.01798 0
M  V30 1002 C 172.419 3.64202 6.65911 0
M  V30 1003 O 172.629 2.60694 5.64732 0
M  V30 1004 C 173.819 3.93473 7.1943 0
M  V30 1005 O 174.209 3.02071 8.21205 0
M  V30 1006 C 174.699 3.73047 5.97036 0
M  V30 1007 C 173.989 2.58828 5.25741 0
M  V30 1008 N 174.039 2.6801 3.77422 0
M  V30 1009 C 174.189 1.50443 3.07133 0
M  V30 1010 O 174.279 0.419406 3.61576 0
M  V30 1011 N 174.229 1.6403 1.69677 0
M  V30 1012 C 174.139 2.81206 0.986255 0
M  V30 1013 O 174.189 2.80892 -0.249754 0
M  V30 1014 C 173.989 3.99158 1.80325 0
M  V30 1015 C 173.879 5.29309 1.06921 0
M  V30 1016 C 173.939 3.89779 3.1476 0
M  V30 1017 H 171.199 5.40332 6.79951 0
M  V30 1018 H 170.93 4.41549 5.32301 0
M  V30 1019 H 171.797 3.26331 7.47797 0
M  V30 1020 H 174.452 1.6395 5.56554 0
M  V30 1021 H 174.731 4.63439 5.3432 0
M  V30 1022 H 175.723 3.44728 6.25838 0
M  V30 1023 H 173.889 4.96652 7.57263 0
M  V30 1024 H 173.818 4.80159 3.74441 0
M  V30 1025 H 174.848 5.81459 1.09608 0
M  V30 1026 H 173.111 5.9187 1.54487 0
M  V30 1027 H 173.599 5.10095 0.0220288 0
M  V30 1028 H 174.335 0.798962 1.16664 0
M  V30 1029 P 175.759 2.75334 8.47391 0
M  V30 1030 O 175.979 2.44571 9.90142 0
M  V30 1031 O 176.549 3.87688 7.92115 0
M  V30 1032 O 176.009 1.4459 7.59357 0
M  V30 1033 C 175.069 0.347608 7.69215 0
M  V30 1034 C 175.799 -0.96767 7.52806 0
M  V30 1035 O 176.009 -1.21036 6.1011 0
M  V30 1036 C 177.199 -1.04544 8.13308 0
M  V30 1037 O 177.589 -2.38311 8.41922 0
M  V30 1038 C 178.079 -0.491279 7.02284 0
M  V30 1039 C 177.369 -0.996264 5.77469 0
M  V30 1040 N 177.419 -0.0501916 4.62973 0
M  V30 1041 H 174.58 0.374722 8.67691 0
M  V30 1042 H 174.31 0.443485 6.90277 0
M  V30 1043 H 175.177 -1.75537 7.96793 0
M  V30 1044 P 179.139 -2.75334 8.47391 0
M  V30 1045 O 179.359 -3.84204 9.44982 0
M  V30 1046 O 179.929 -1.51982 8.68909 0
M  V30 1047 O 179.389 -3.29363 6.99321 0
M  V30 1048 C 178.449 -4.24066 6.42823 0
M  V30 1049 C 179.179 -5.20775 5.52155 0
M  V30 1050 O 179.389 -4.56607 4.22514 0
M  V30 1051 C 180.579 -5.62697 5.96604 0
M  V30 1052 O 180.969 -6.87667 5.41053 0
M  V30 1053 C 181.459 -4.52537 5.39283 0
M  V30 1054 C 180.749 -4.20027 4.08623 0
M  V30 1055 N 180.799 -2.76189 3.71603 0
M  V30 1056 C 180.719 -1.66944 4.54297 0
M  V30 1057 N 180.789 -0.536169 3.91344 0
M  V30 1058 C 180.939 -0.901569 2.58849 0
M  V30 1059 C 181.069 -0.146599 1.40236 0
M  V30 1060 N 181.079 1.18234 1.37046 0
M  V30 1061 N 181.189 -0.822941 0.249738 0
M  V30 1062 C 181.179 -2.15179 0.280525 0
M  V30 1063 N 181.059 -2.96414 1.30822 0
M  V30 1064 C 180.939 -2.25804 2.44748 0
M  V30 1065 H 177.961 -4.79756 7.24086 0
M  V30 1066 H 177.689 -3.69963 5.84682 0
M  V30 1067 H 178.557 -6.10431 5.41508 0
M  V30 1068 H 181.212 -4.78816 3.28024 0
M  V30 1069 H 181.492 -3.64957 6.05871 0
M  V30 1070 H 182.483 -4.88748 5.21323 0
M  V30 1071 H 180.649 -5.66789 7.0643 0
M  V30 1072 H 180.608 -1.74684 5.62396 0
M  V30 1073 H 180.989 1.71949 2.24394 0
M  V30 1074 H 181.178 1.67511 0.470742 0
M  V30 1075 H 181.286 -2.63704 -0.6828 0
M  V30 1076 P 182.519 -7.20834 5.23717 0
M  V30 1077 O 182.739 -8.66104 5.38572 0
M  V30 1078 O 183.309 -6.33544 6.1349 0
M  V30 1079 O 182.769 -6.7751 3.72168 0
M  V30 1080 C 181.829 -7.20825 2.7076 0
M  V30 1081 C 182.559 -7.45864 1.40599 0
M  V30 1082 O 182.769 -6.17651 0.734225 0
M  V30 1083 C 183.959 -8.05808 1.51899 0
M  V30 1084 O 184.349 -8.74358 0.335205 0
M  V30 1085 C 184.839 -6.83093 1.70294 0
M  V30 1086 C 184.129 -5.79992 0.836974 0
M  V30 1087 N 184.179 -4.41864 1.38293 0
M  V30 1088 H 181.34 -8.13644 3.0377 0
M  V30 1089 H 181.07 -6.42788 2.55485 0
M  V30 1090 H 181.937 -8.12039 0.792769 0
M  V30 1091 P 185.899 -8.91 -8.29613e-14 0
M  V30 1092 O 186.119 -10.1726 -0.733694 0
M  V30 1093 O 186.689 -8.73148 1.23936 0
M  V30 1094 O 186.149 -7.66872 -0.971405 0
M  V30 1095 C 185.209 -7.42309 -2.04641 0
M  V30 1096 C 185.939 -6.86059 -3.24661 0
M  V30 1097 O 186.149 -5.42847 -3.03646 0
M  V30 1098 C 187.339 -7.41196 -3.50753 0
M  V30 1099 O 187.729 -7.27073 -4.86816 0
M  V30 1100 C 188.219 -6.5273 -2.63741 0
M  V30 1101 C 187.509 -5.1842 -2.73198 0
M  V30 1102 N 187.559 -4.38762 -1.4784 0
M  V30 1103 C 187.479 -4.81605 -0.168631 0
M  V30 1104 N 187.559 -3.85454 0.713363 0
M  V30 1105 C 187.699 -2.6994 -0.0566958 0
M  V30 1106 C 187.829 -1.34815 0.338502 0
M  V30 1107 N 187.949 -0.496304 -0.77465 0
M  V30 1108 C 187.949 -0.908403 -2.09122 0
M  V30 1109 N 188.079 0.0517805 -3.00955 0
M  V30 1110 N 187.819 -2.17875 -2.46519 0
M  V30 1111 C 187.699 -3.01988 -1.4033 0
M  V30 1112 H 184.72 -8.36803 -2.32493 0
M  V30 1113 H 184.45 -6.70197 -1.71129 0
M  V30 1114 H 185.317 -7.03551 -4.13168 0
M  V30 1115 P 189.279 -7.20834 -5.23717 0
M  V30 1116 O 189.499 -7.79853 -6.57286 0
M  V30 1117 O 190.069 -7.79239 -4.12957 0
M  V30 1118 O 189.529 -5.63315 -5.29344 0
M  V30 1119 C 188.589 -4.80255 -6.01876 0
M  V30 1120 C 189.319 -3.64202 -6.65911 0
M  V30 1121 O 189.529 -2.60694 -5.64732 0
M  V30 1122 C 190.719 -3.93473 -7.1943 0
M  V30 1123 O 191.109 -3.02071 -8.21205 0
M  V30 1124 C 191.599 -3.73047 -5.97036 0
M  V30 1125 C 190.889 -2.58828 -5.25741 0
M  V30 1126 N 190.939 -2.68068 -3.77503 0
M  V30 1127 H 188.1 -5.40332 -6.79951 0
M  V30 1128 H 187.83 -4.41613 -5.32378 0
M  V30 1129 H 188.697 -3.26331 -7.47797 0
M  V30 1130 P 192.659 -2.75334 -8.47391 0
M  V30 1131 O 192.879 -2.44619 -9.90336 0
M  V30 1132 O 193.449 -3.87776 -7.92294 0
M  V30 1133 O 192.909 -1.4459 -7.59357 0
M  V30 1134 C 191.969 -0.347653 -7.69315 0
M  V30 1135 C 192.699 0.96767 -7.52806 0
M  V30 1136 O 192.909 1.21055 -6.10208 0
M  V30 1137 C 194.099 1.04557 -8.13408 0
M  V30 1138 O 194.489 2.38311 -8.41922 0
M  V30 1139 C 194.979 0.491279 -7.02284 0
M  V30 1140 C 194.269 0.996264 -5.77469 0
M  V30 1141 N 194.319 0.0501916 -4.62973 0
M  V30 1142 C 194.239 -1.31969 -4.65661 0
M  V30 1143 N 194.309 -1.86649 -3.48119 0
M  V30 1144 C 194.459 -0.792089 -2.62406 0
M  V30 1145 C 194.589 -0.705684 -1.2207 0
M  V30 1146 N 194.599 -1.76207 -0.413762 0
M  V30 1147 N 194.709 0.518981 -0.685754 0
M  V30 1148 C 194.699 1.57595 -1.49174 0
M  V30 1149 N 194.579 1.62909 -2.80066 0
M  V30 1150 C 194.459 0.388195 -3.3073 0
M  V30 1151 H 191.481 -0.374765 -8.67791 0
M  V30 1152 H 191.209 -0.443613 -6.90476 0
M  V30 1153 H 192.077 1.75559 -7.96891 0
M  V30 1154 H 194.732 1.94563 -5.46818 0
M  V30 1155 H 195.012 -0.608651 -7.04676 0
M  V30 1156 H 196.003 0.889796 -7.09039 0
M  V30 1157 H 194.169 0.433128 -9.04664 0
M  V30 1158 H 194.128 -1.89246 -5.57664 0
M  V30 1159 H 194.509 -2.71005 -0.804694 0
M  V30 1160 H 194.698 -1.63189 0.603768 0
M  V30 1161 H 194.806 2.53475 -0.997614 0
M  V30 1162 P 196.039 2.75334 -8.47391 0
M  V30 1163 O 196.259 3.84204 -9.44982 0
M  V30 1164 O 196.829 1.51982 -8.68909 0
M  V30 1165 O 196.289 3.29363 -6.99321 0
M  V30 1166 C 195.349 4.24066 -6.42823 0
M  V30 1167 C 196.079 5.20775 -5.52155 0
M  V30 1168 O 196.289 4.56607 -4.22514 0
M  V30 1169 C 197.479 5.62697 -5.96604 0
M  V30 1170 O 197.869 6.87667 -5.41053 0
M  V30 1171 C 198.359 4.52537 -5.39283 0
M  V30 1172 C 197.649 4.20027 -4.08623 0
M  V30 1173 N 197.699 2.76189 -3.71603 0
M  V30 1174 C 197.619 1.66944 -4.54297 0
M  V30 1175 N 197.689 0.536169 -3.91344 0
M  V30 1176 C 197.839 0.901569 -2.58849 0
M  V30 1177 C 197.969 0.146599 -1.40236 0
M  V30 1178 N 197.979 -1.18234 -1.37046 0
M  V30 1179 N 198.089 0.822941 -0.249738 0
M  V30 1180 C 198.079 2.15179 -0.280525 0
M  V30 1181 N 197.959 2.96414 -1.30822 0
M  V30 1182 C 197.839 2.25804 -2.44748 0
M  V30 1183 H 194.861 4.79756 -7.24086 0
M  V30 1184 H 194.589 3.69963 -5.84682 0
M  V30 1185 H 195.457 6.10431 -5.41508 0
M  V30 1186 H 198.112 4.78816 -3.28024 0
M  V30 1187 H 198.392 3.64957 -6.05871 0
M  V30 1188 H 199.383 4.88748 -5.21323 0
M  V30 1189 H 197.549 5.66789 -7.0643 0
M  V30 1190 H 197.508 1.74684 -5.62396 0
M  V30 1191 H 197.889 -1.71949 -2.24394 0
M  V30 1192 H 198.078 -1.67511 -0.470742 0
M  V30 1193 H 198.186 2.63704 0.6828 0
M  V30 1194 P 199.419 7.20834 -5.23717 0
M  V30 1195 O 199.639 8.66104 -5.38572 0
M  V30 1196 O 200.209 6.33544 -6.1349 0
M  V30 1197 O 199.669 6.7751 -3.72168 0
M  V30 1198 C 198.729 7.20825 -2.7076 0
M  V30 1199 C 199.459 7.45864 -1.40599 0
M  V30 1200 O 199.669 6.17651 -0.734225 0
M  V30 1201 C 200.859 8.05808 -1.51899 0
M  V30 1202 O 201.249 8.74358 -0.335205 0
M  V30 1203 C 201.739 6.83093 -1.70294 0
M  V30 1204 C 201.029 5.79992 -0.836974 0
M  V30 1205 N 201.079 4.41864 -1.38293 0
M  V30 1206 C 200.999 3.99538 -2.69438 0
M  V30 1207 N 201.079 2.69909 -2.84277 0
M  V30 1208 C 201.219 2.21719 -1.5408 0
M  V30 1209 C 201.349 0.891712 -1.06628 0
M  V30 1210 O 201.369 -0.161298 -1.70137 0
M  V30 1211 N 201.469 0.856846 0.334985 0
M  V30 1212 C 201.469 1.9641 1.15789 0
M  V30 1213 N 201.599 1.72708 2.46522 0
M  V30 1214 N 201.339 3.21165 0.713741 0
M  V30 1215 C 201.219 3.26797 -0.639748 0
M  V30 1216 H 198.24 8.13644 -3.0377 0
M  V30 1217 H 197.97 6.42788 -2.55485 0
M  V30 1218 H 198.837 8.12039 -0.792769 0
M  V30 1219 H 201.492 5.80061 0.166416 0
M  V30 1220 H 201.771 6.51287 -2.75604 0
M  V30 1221 H 202.763 7.01734 -1.34462 0
M  V30 1222 H 200.929 8.73674 -2.38337 0
M  V30 1223 H 200.88 4.68207 -3.53221 0
M  V30 1224 H 201.562 -0.0398818 0.767965 0
M  V30 1225 H 201.599 2.50995 3.13503 0
M  V30 1226 H 201.7 0.759148 2.80716 0
M  V30 1227 P 202.799 8.91 2.40144e-13 0
M  V30 1228 O 203.019 10.1726 0.733694 0
M  V30 1229 O 203.589 8.73148 -1.23936 0
M  V30 1230 O 203.049 7.66872 0.971405 0
M  V30 1231 C 202.109 7.42309 2.04641 0
M  V30 1232 C 202.839 6.86059 3.24661 0
M  V30 1233 O 203.049 5.42847 3.03646 0
M  V30 1234 C 204.239 7.41196 3.50753 0
M  V30 1235 O 204.629 7.27073 4.86816 0
M  V30 1236 C 205.119 6.5273 2.63741 0
M  V30 1237 C 204.409 5.1842 2.73198 0
M  V30 1238 N 204.459 4.38762 1.4784 0
M  V30 1239 H 201.62 8.36803 2.32493 0
M  V30 1240 H 201.35 6.70197 1.71129 0
M  V30 1241 H 202.217 7.03551 4.13168 0
M  V30 1242 P 206.179 7.20834 5.23717 0
M  V30 1243 O 206.399 7.79853 6.57286 0
M  V30 1244 O 206.969 7.79239 4.12957 0
M  V30 1245 O 206.429 5.63315 5.29344 0
M  V30 1246 C 205.489 4.80255 6.01876 0
M  V30 1247 C 206.219 3.64202 6.65911 0
M  V30 1248 O 206.429 2.60694 5.64732 0
M  V30 1249 C 207.619 3.93473 7.1943 0
M  V30 1250 O 208.009 3.02071 8.21205 0
M  V30 1251 C 208.499 3.73047 5.97036 0
M  V30 1252 C 207.789 2.58828 5.25741 0
M  V30 1253 N 207.839 2.68068 3.77503 0
M  V30 1254 H 205 5.40332 6.79951 0
M  V30 1255 H 204.73 4.41613 5.32378 0
M  V30 1256 H 205.597 3.26331 7.47797 0
M  V30 1257 P 209.559 2.75334 8.47391 0
M  V30 1258 O 209.779 2.44571 9.90142 0
M  V30 1259 O 210.349 3.87688 7.92115 0
M  V30 1260 O 209.809 1.4459 7.59357 0
M  V30 1261 C 208.869 0.347608 7.69215 0
M  V30 1262 C 209.599 -0.96767 7.52806 0
M  V30 1263 O 209.809 -1.21036 6.1011 0
M  V30 1264 C 210.999 -1.04544 8.13308 0
M  V30 1265 O 211.389 -2.38311 8.41922 0
M  V30 1266 C 211.879 -0.491279 7.02284 0
M  V30 1267 C 211.169 -0.996264 5.77469 0
M  V30 1268 N 211.219 -0.0501916 4.62973 0
M  V30 1269 H 208.38 0.374722 8.67691 0
M  V30 1270 H 208.11 0.443485 6.90277 0
M  V30 1271 H 208.977 -1.75537 7.96793 0
M  V30 1272 P 212.939 -2.75334 8.47391 0
M  V30 1273 O 213.159 -3.84166 9.4489 0
M  V30 1274 O 213.729 -1.51964 8.6881 0
M  V30 1275 O 213.189 -3.29363 6.99321 0
M  V30 1276 C 212.249 -4.23956 6.42656 0
M  V30 1277 C 212.979 -5.20775 5.52155 0
M  V30 1278 O 213.189 -4.56534 4.22446 0
M  V30 1279 C 214.379 -5.62629 5.96531 0
M  V30 1280 O 214.769 -6.87667 5.41053 0
M  V30 1281 C 215.259 -4.52537 5.39283 0
M  V30 1282 C 214.549 -4.20027 4.08623 0
M  V30 1283 N 214.599 -2.7613 3.71522 0
M  V30 1284 C 214.749 -2.45612 2.37989 0
M  V30 1285 O 214.839 -3.30919 1.51621 0
M  V30 1286 N 214.789 -1.10684 2.08435 0
M  V30 1287 C 214.699 -0.0690084 2.9792 0
M  V30 1288 O 214.749 1.10553 2.59426 0
M  V30 1289 C 214.549 -0.481522 4.35345 0
M  V30 1290 C 214.439 0.618778 5.36443 0
M  V30 1291 C 214.499 -1.78906 4.67968 0
M  V30 1292 H 211.759 -4.797 7.24003 0
M  V30 1293 H 211.49 -3.69802 5.84429 0
M  V30 1294 H 212.357 -6.10356 5.41441 0
M  V30 1295 H 215.012 -4.78651 3.27911 0
M  V30 1296 H 215.291 -3.64957 6.05871 0
M  V30 1297 H 216.283 -4.8868 5.2125 0
M  V30 1298 H 214.449 -5.66726 7.06352 0
M  V30 1299 H 214.378 -2.07737 5.72367 0
M  V30 1300 H 215.408 0.754375 5.86871 0
M  V30 1301 H 213.671 0.359721 6.10641 0
M  V30 1302 H 214.159 1.55533 4.8581 0
M  V30 1303 H 214.895 -0.862651 1.12037 0
M  V30 1304 P 216.319 -7.20834 5.23717 0
M  V30 1305 O 216.539 -8.66104 5.38572 0
M  V30 1306 O 217.109 -6.33544 6.1349 0
M  V30 1307 O 216.569 -6.7751 3.72168 0
M  V30 1308 C 215.629 -7.20825 2.7076 0
M  V30 1309 C 216.359 -7.45864 1.40599 0
M  V30 1310 O 216.569 -6.17651 0.734225 0
M  V30 1311 C 217.759 -8.05808 1.51899 0
M  V30 1312 O 218.149 -8.74358 0.335205 0
M  V30 1313 C 218.639 -6.83093 1.70294 0
M  V30 1314 C 217.929 -5.79992 0.836974 0
M  V30 1315 N 217.979 -4.41864 1.38293 0
M  V30 1316 H 215.14 -8.13644 3.0377 0
M  V30 1317 H 214.87 -6.42788 2.55485 0
M  V30 1318 H 215.737 -8.12039 0.792769 0
M  V30 1319 P 219.699 -8.91 -3.97326e-13 0
M  V30 1320 O 219.919 -10.1726 -0.733694 0
M  V30 1321 O 220.489 -8.73148 1.23936 0
M  V30 1322 O 219.949 -7.66872 -0.971405 0
M  V30 1323 C 219.009 -7.42309 -2.04641 0
M  V30 1324 C 219.739 -6.86059 -3.24661 0
M  V30 1325 O 219.949 -5.42847 -3.03646 0
M  V30 1326 C 221.139 -7.41196 -3.50753 0
M  V30 1327 O 221.529 -7.27073 -4.86816 0
M  V30 1328 C 222.019 -6.5273 -2.63741 0
M  V30 1329 C 221.309 -5.1842 -2.73198 0
M  V30 1330 N 221.359 -4.38762 -1.4784 0
M  V30 1331 H 218.52 -8.36803 -2.32493 0
M  V30 1332 H 218.25 -6.70197 -1.71129 0
M  V30 1333 H 219.117 -7.03551 -4.13168 0
M  V30 1334 P 223.079 -7.20834 -5.23717 0
M  V30 1335 O 223.299 -7.79853 -6.57286 0
M  V30 1336 O 223.869 -7.79239 -4.12957 0
M  V30 1337 O 223.329 -5.63315 -5.29344 0
M  V30 1338 C 222.389 -4.80255 -6.01876 0
M  V30 1339 C 223.119 -3.64202 -6.65911 0
M  V30 1340 O 223.329 -2.60694 -5.64732 0
M  V30 1341 C 224.519 -3.93473 -7.1943 0
M  V30 1342 O 224.909 -3.02071 -8.21205 0
M  V30 1343 C 225.399 -3.73047 -5.97036 0
M  V30 1344 C 224.689 -2.58828 -5.25741 0
M  V30 1345 N 224.739 -2.68068 -3.77503 0
M  V30 1346 H 221.9 -5.40332 -6.79951 0
M  V30 1347 H 221.63 -4.41613 -5.32378 0
M  V30 1348 H 222.497 -3.26331 -7.47797 0
M  V30 1349 P 226.459 -2.75334 -8.47391 0
M  V30 1350 O 226.679 -2.44571 -9.90142 0
M  V30 1351 O 227.249 -3.87688 -7.92115 0
M  V30 1352 O 226.709 -1.4459 -7.59357 0
M  V30 1353 C 225.769 -0.347608 -7.69215 0
M  V30 1354 C 226.499 0.96767 -7.52806 0
M  V30 1355 O 226.709 1.21036 -6.1011 0
M  V30 1356 C 227.899 1.04544 -8.13308 0
M  V30 1357 O 228.289 2.38311 -8.41922 0
M  V30 1358 C 228.779 0.491279 -7.02284 0
M  V30 1359 C 228.069 0.996264 -5.77469 0
M  V30 1360 N 228.119 0.0501916 -4.62973 0
M  V30 1361 H 225.28 -0.374722 -8.67691 0
M  V30 1362 H 225.01 -0.443485 -6.90277 0
M  V30 1363 H 225.877 1.75537 -7.96793 0
M  V30 1364 P 229.839 2.75334 -8.47391 0
M  V30 1365 O 230.059 3.84128 -9.44797 0
M  V30 1366 O 230.629 1.51947 -8.68712 0
M  V30 1367 O 230.089 3.29363 -6.99321 0
M  V30 1368 C 229.149 4.24011 -6.4274 0
M  V30 1369 C 229.879 5.20775 -5.52155 0
M  V30 1370 O 230.089 4.56534 -4.22446 0
M  V30 1371 C 231.279 5.62629 -5.96531 0
M  V30 1372 O 231.669 6.87667 -5.41053 0
M  V30 1373 C 232.159 4.52537 -5.39283 0
M  V30 1374 C 231.449 4.20027 -4.08623 0
M  V30 1375 N 231.499 2.76189 -3.71603 0
M  V30 1376 H 228.66 4.797 -7.24003 0
M  V30 1377 H 228.39 3.69856 -5.84513 0
M  V30 1378 H 229.257 6.10356 -5.41441 0
M  V30 1379 P 233.219 7.20834 -5.23717 0
M  V30 1380 O 233.439 8.66104 -5.38572 0
M  V30 1381 O 234.009 6.33544 -6.1349 0
M  V30 1382 O 233.469 6.7751 -3.72168 0
M  V30 1383 C 232.529 7.20825 -2.7076 0
M  V30 1384 C 233.259 7.45864 -1.40599 0
M  V30 1385 O 233.469 6.17651 -0.734225 0
M  V30 1386 C 234.659 8.05808 -1.51899 0
M  V30 1387 O 235.049 8.74358 -0.335205 0
M  V30 1388 C 235.539 6.83093 -1.70294 0
M  V30 1389 C 234.829 5.79992 -0.836974 0
M  V30 1390 N 234.879 4.41864 -1.38293 0
M  V30 1391 H 232.04 8.13644 -3.0377 0
M  V30 1392 H 231.77 6.42788 -2.55485 0
M  V30 1393 H 232.637 8.12039 -0.792769 0
M  V30 1394 P 236.599 8.91 5.54508e-13 0
M  V30 1395 O 236.819 10.1726 0.733694 0
M  V30 1396 O 237.389 8.73148 -1.23936 0
M  V30 1397 O 236.849 7.66872 0.971405 0
M  V30 1398 C 235.909 7.42309 2.04641 0
M  V30 1399 C 236.639 6.86059 3.24661 0
M  V30 1400 O 236.849 5.42847 3.03646 0
M  V30 1401 C 238.039 7.41196 3.50753 0
M  V30 1402 O 238.429 7.27073 4.86816 0
M  V30 1403 C 238.919 6.5273 2.63741 0
M  V30 1404 C 238.209 5.1842 2.73198 0
M  V30 1405 N 238.259 4.38762 1.4784 0
M  V30 1406 H 235.42 8.36803 2.32493 0
M  V30 1407 H 235.15 6.70197 1.71129 0
M  V30 1408 H 236.017 7.03551 4.13168 0
M  V30 1409 P 239.979 7.20834 5.23717 0
M  V30 1410 O 240.199 7.79853 6.57286 0
M  V30 1411 O 240.769 7.79239 4.12957 0
M  V30 1412 O 240.229 5.63315 5.29344 0
M  V30 1413 C 239.289 4.80255 6.01876 0
M  V30 1414 C 240.019 3.64202 6.65911 0
M  V30 1415 O 240.229 2.60694 5.64732 0
M  V30 1416 C 241.419 3.93473 7.1943 0
M  V30 1417 O 241.809 3.02071 8.21205 0
M  V30 1418 C 242.299 3.73047 5.97036 0
M  V30 1419 C 241.589 2.58828 5.25741 0
M  V30 1420 N 241.639 2.68068 3.77503 0
M  V30 1421 H 238.8 5.40332 6.79951 0
M  V30 1422 H 238.53 4.41613 5.32378 0
M  V30 1423 H 239.397 3.26331 7.47797 0
M  V30 1424 P 243.359 2.75334 8.47391 0
M  V30 1425 O 243.579 2.44571 9.90142 0
M  V30 1426 O 244.149 3.87688 7.92115 0
M  V30 1427 O 243.609 1.4459 7.59357 0
M  V30 1428 C 242.669 0.347608 7.69215 0
M  V30 1429 C 243.399 -0.96767 7.52806 0
M  V30 1430 O 243.609 -1.21036 6.1011 0
M  V30 1431 C 244.799 -1.04544 8.13308 0
M  V30 1432 O 245.189 -2.38311 8.41922 0
M  V30 1433 C 245.679 -0.491279 7.02284 0
M  V30 1434 C 244.969 -0.996264 5.77469 0
M  V30 1435 N 245.019 -0.0501916 4.62973 0
M  V30 1436 H 242.18 0.374722 8.67691 0
M  V30 1437 H 241.91 0.443485 6.90277 0
M  V30 1438 H 242.777 -1.75537 7.96793 0
M  V30 1439 P 246.739 -2.75334 8.47391 0
M  V30 1440 O 246.959 -3.84128 9.44797 0
M  V30 1441 O 247.529 -1.51947 8.68712 0
M  V30 1442 O 246.989 -3.29363 6.99321 0
M  V30 1443 C 246.049 -4.24011 6.4274 0
M  V30 1444 C 246.779 -5.20775 5.52155 0
M  V30 1445 O 246.989 -4.56534 4.22446 0
M  V30 1446 C 248.179 -5.62629 5.96531 0
M  V30 1447 O 248.569 -6.87667 5.41053 0
M  V30 1448 C 249.059 -4.52537 5.39283 0
M  V30 1449 C 248.349 -4.20027 4.08623 0
M  V30 1450 N 248.399 -2.76189 3.71603 0
M  V30 1451 C 248.319 -1.64862 4.52822 0
M  V30 1452 N 248.399 -0.512671 3.88633 0
M  V30 1453 C 248.539 -0.888083 2.54977 0
M  V30 1454 C 248.669 -0.094668 1.38677 0
M  V30 1455 N 248.789 -0.890102 0.232633 0
M  V30 1456 C 248.789 -2.26958 0.21772 0
M  V30 1457 N 248.919 -2.84626 -0.97925 0
M  V30 1458 N 248.659 -3.0178 1.31033 0
M  V30 1459 C 248.539 -2.26781 2.43843 0
M  V30 1460 H 245.56 -4.797 7.24003 0
M  V30 1461 H 245.29 -3.69856 5.84513 0
M  V30 1462 H 246.157 -6.10356 5.41441 0
M  V30 1463 P 250.119 -7.20834 5.23717 0
M  V30 1464 O 250.339 -8.66104 5.38572 0
M  V30 1465 O 250.909 -6.33544 6.1349 0
M  V30 1466 O 250.369 -6.7751 3.72168 0
M  V30 1467 C 249.429 -7.20825 2.7076 0
M  V30 1468 C 250.159 -7.45864 1.40599 0
M  V30 1469 O 250.369 -6.17651 0.734225 0
M  V30 1470 C 251.559 -8.05808 1.51899 0
M  V30 1471 O 251.949 -8.74358 0.335205 0
M  V30 1472 C 252.439 -6.83093 1.70294 0
M  V30 1473 C 251.729 -5.79992 0.836974 0
M  V30 1474 N 251.779 -4.41864 1.38293 0
M  V30 1475 C 251.699 -3.99538 2.69438 0
M  V30 1476 N 251.779 -2.69909 2.84277 0
M  V30 1477 C 251.919 -2.21719 1.5408 0
M  V30 1478 C 252.049 -0.891712 1.06628 0
M  V30 1479 N 252.169 -0.856846 -0.334985 0
M  V30 1480 C 252.169 -1.9641 -1.15789 0
M  V30 1481 N 252.299 -1.72708 -2.46522 0
M  V30 1482 N 252.039 -3.21165 -0.713741 0
M  V30 1483 C 251.919 -3.26797 0.639748 0
M  V30 1484 H 248.94 -8.13644 3.0377 0
M  V30 1485 H 248.67 -6.42788 2.55485 0
M  V30 1486 H 249.537 -8.12039 0.792769 0
M  V30 1487 P 253.498 -8.91 -7.1169e-13 0
M  V30 1488 O 253.718 -10.1726 -0.733694 0
M  V30 1489 O 254.288 -8.73148 1.23936 0
M  V30 1490 O 253.748 -7.66872 -0.971405 0
M  V30 1491 C 252.808 -7.42309 -2.04641 0
M  V30 1492 C 253.538 -6.86059 -3.24661 0
M  V30 1493 O 253.748 -5.42847 -3.03646 0
M  V30 1494 C 254.938 -7.41196 -3.50753 0
M  V30 1495 O 255.328 -7.27073 -4.86816 0
M  V30 1496 C 255.818 -6.5273 -2.63741 0
M  V30 1497 C 255.108 -5.1842 -2.73198 0
M  V30 1498 N 255.158 -4.38762 -1.4784 0
M  V30 1499 H 252.319 -8.36803 -2.32493 0
M  V30 1500 H 252.049 -6.70197 -1.71129 0
M  V30 1501 H 252.916 -7.03551 -4.13168 0
M  V30 1502 P 256.878 -7.20834 -5.23717 0
M  V30 1503 O 257.098 -7.79853 -6.57286 0
M  V30 1504 O 257.668 -7.79239 -4.12957 0
M  V30 1505 O 257.128 -5.63315 -5.29344 0
M  V30 1506 C 256.188 -4.80255 -6.01876 0
M  V30 1507 C 256.918 -3.64202 -6.65911 0
M  V30 1508 O 257.128 -2.60694 -5.64732 0
M  V30 1509 C 258.318 -3.93473 -7.1943 0
M  V30 1510 O 258.708 -3.02071 -8.21205 0
M  V30 1511 C 259.198 -3.73047 -5.97036 0
M  V30 1512 C 258.488 -2.58828 -5.25741 0
M  V30 1513 N 258.538 -2.68068 -3.77503 0
M  V30 1514 H 255.699 -5.40332 -6.79951 0
M  V30 1515 H 255.429 -4.41613 -5.32378 0
M  V30 1516 H 256.296 -3.26331 -7.47797 0
M  V30 1517 P 260.258 -2.75334 -8.47391 0
M  V30 1518 O 260.478 -2.44571 -9.90142 0
M  V30 1519 O 261.048 -3.87688 -7.92115 0
M  V30 1520 O 260.508 -1.4459 -7.59357 0
M  V30 1521 C 259.568 -0.347608 -7.69215 0
M  V30 1522 C 260.298 0.96767 -7.52806 0
M  V30 1523 O 260.508 1.21036 -6.1011 0
M  V30 1524 C 261.698 1.04544 -8.13308 0
M  V30 1525 O 262.088 2.38311 -8.41922 0
M  V30 1526 C 262.578 0.491279 -7.02284 0
M  V30 1527 C 261.868 0.996264 -5.77469 0
M  V30 1528 N 261.918 0.0501916 -4.62973 0
M  V30 1529 H 259.079 -0.374722 -8.67691 0
M  V30 1530 H 258.809 -0.443485 -6.90277 0
M  V30 1531 H 259.676 1.75537 -7.96793 0
M  V30 1532 P 263.638 2.75334 -8.47391 0
M  V30 1533 O 263.858 3.84128 -9.44797 0
M  V30 1534 O 264.428 1.51947 -8.68712 0
M  V30 1535 O 263.888 3.29363 -6.99321 0
M  V30 1536 C 262.948 4.24011 -6.4274 0
M  V30 1537 C 263.678 5.20775 -5.52155 0
M  V30 1538 O 263.888 4.56534 -4.22446 0
M  V30 1539 C 265.078 5.62629 -5.96531 0
M  V30 1540 O 265.468 6.87667 -5.41053 0
M  V30 1541 C 265.958 4.52537 -5.39283 0
M  V30 1542 C 265.248 4.20027 -4.08623 0
M  V30 1543 N 265.298 2.76189 -3.71603 0
M  V30 1544 H 262.459 4.797 -7.24003 0
M  V30 1545 H 262.189 3.69856 -5.84513 0
M  V30 1546 H 263.056 6.10356 -5.41441 0
M  V30 1547 P 267.018 7.20834 -5.23717 0
M  V30 1548 O 267.238 8.66104 -5.38572 0
M  V30 1549 O 267.808 6.33544 -6.1349 0
M  V30 1550 O 267.268 6.7751 -3.72168 0
M  V30 1551 C 266.328 7.20825 -2.7076 0
M  V30 1552 C 267.058 7.45864 -1.40599 0
M  V30 1553 O 267.268 6.17651 -0.734225 0
M  V30 1554 C 268.458 8.05808 -1.51899 0
M  V30 1555 O 268.848 8.74358 -0.335205 0
M  V30 1556 C 269.338 6.83093 -1.70294 0
M  V30 1557 C 268.628 5.79992 -0.836974 0
M  V30 1558 N 268.678 4.41864 -1.38293 0
M  V30 1559 H 265.839 8.13644 -3.0377 0
M  V30 1560 H 265.569 6.42788 -2.55485 0
M  V30 1561 H 266.436 8.12039 -0.792769 0
M  V30 1562 P 270.398 8.91 8.68872e-13 0
M  V30 1563 O 270.618 10.1736 0.733766 0
M  V30 1564 O 271.188 8.73247 -1.2395 0
M  V30 1565 O 270.648 7.66872 0.971405 0
M  V30 1566 C 269.708 7.42212 2.04614 0
M  V30 1567 C 270.438 6.86059 3.24661 0
M  V30 1568 O 270.648 5.42847 3.03646 0
M  V30 1569 C 271.838 7.41196 3.50753 0
M  V30 1570 O 272.228 7.27073 4.86816 0
M  V30 1571 C 272.718 6.5273 2.63741 0
M  V30 1572 C 272.008 5.1842 2.73198 0
M  V30 1573 N 272.058 4.38668 1.47808 0
M  V30 1574 C 272.208 3.02239 1.60048 0
M  V30 1575 O 272.298 2.46459 2.67869 0
M  V30 1576 N 272.248 2.32436 0.408571 0
M  V30 1577 C 272.158 2.85471 -0.854993 0
M  V30 1578 C 272.008 4.28918 -0.887335 0
M  V30 1579 C 271.958 5.00349 0.255399 0
M  V30 1580 H 269.218 8.36803 2.32493 0
M  V30 1581 H 268.949 6.701 1.71105 0
M  V30 1582 H 269.816 7.03551 4.13168 0
M  V30 1583 H 272.471 4.59773 3.53894 0
M  V30 1584 H 272.75 6.88995 1.59871 0
M  V30 1585 H 273.742 6.46749 3.03687 0
M  V30 1586 H 271.908 8.46908 3.20714 0
M  V30 1587 H 271.837 6.08548 0.206986 0
M  V30 1588 P 273.778 7.20834 5.23717 0
M  V30 1589 O 273.998 7.79853 6.57286 0
M  V30 1590 O 274.568 7.79239 4.12957 0
M  V30 1591 O 274.028 5.63315 5.29344 0
M  V30 1592 C 273.088 4.80255 6.01876 0
M  V30 1593 C 273.818 3.64202 6.65911 0
M  V30 1594 O 274.028 2.60694 5.64732 0
M  V30 1595 C 275.218 3.93473 7.1943 0
M  V30 1596 O 275.608 3.02071 8.21205 0
M  V30 1597 C 276.098 3.73047 5.97036 0
M  V30 1598 C 275.388 2.58828 5.25741 0
M  V30 1599 N 275.438 2.68068 3.77503 0
M  V30 1600 H 272.599 5.40332 6.79951 0
M  V30 1601 H 272.329 4.41613 5.32378 0
M  V30 1602 H 273.196 3.26331 7.47797 0
M  V30 1603 P 277.158 2.75334 8.47391 0
M  V30 1604 O 277.378 2.44571 9.90142 0
M  V30 1605 O 277.948 3.87688 7.92115 0
M  V30 1606 O 277.408 1.4459 7.59357 0
M  V30 1607 C 276.468 0.347608 7.69215 0
M  V30 1608 C 277.198 -0.96767 7.52806 0
M  V30 1609 O 277.408 -1.21036 6.1011 0
M  V30 1610 C 278.598 -1.04544 8.13308 0
M  V30 1611 O 278.988 -2.38311 8.41922 0
M  V30 1612 C 279.478 -0.491279 7.02284 0
M  V30 1613 C 278.768 -0.996264 5.77469 0
M  V30 1614 N 278.818 -0.0501916 4.62973 0
M  V30 1615 C 278.738 1.32786 4.63244 0
M  V30 1616 N 278.818 1.86957 3.44545 0
M  V30 1617 C 278.958 0.780241 2.58481 0
M  V30 1618 C 279.088 0.738536 1.17757 0
M  V30 1619 N 279.208 -0.58337 0.711393 0
M  V30 1620 C 279.208 -1.70816 1.51017 0
M  V30 1621 N 279.338 -2.87826 0.880757 0
M  V30 1622 N 279.078 -1.67126 2.8339 0
M  V30 1623 C 278.958 -0.401421 3.30572 0
M  V30 1624 H 275.979 0.374722 8.67691 0
M  V30 1625 H 275.709 0.443485 6.90277 0
M  V30 1626 H 276.576 -1.75537 7.96793 0
M  V30 1627 P 280.538 -2.75334 8.47391 0
M  V30 1628 O 280.758 -3.84128 9.44797 0
M  V30 1629 O 281.328 -1.51947 8.68712 0
M  V30 1630 O 280.788 -3.29363 6.99321 0
M  V30 1631 C 279.848 -4.24011 6.4274 0
M  V30 1632 C 280.578 -5.20775 5.52155 0
M  V30 1633 O 280.788 -4.56534 4.22446 0
M  V30 1634 C 281.978 -5.62629 5.96531 0
M  V30 1635 O 282.368 -6.87667 5.41053 0
M  V30 1636 C 282.858 -4.52537 5.39283 0
M  V30 1637 C 282.148 -4.20027 4.08623 0
M  V30 1638 N 282.198 -2.76189 3.71603 0
M  V30 1639 H 279.359 -4.797 7.24003 0
M  V30 1640 H 279.089 -3.69856 5.84513 0
M  V30 1641 H 279.956 -6.10356 5.41441 0
M  V30 1642 P 283.918 -7.20834 5.23717 0
M  V30 1643 O 284.138 -8.66104 5.38572 0
M  V30 1644 O 284.708 -6.33544 6.1349 0
M  V30 1645 O 284.168 -6.7751 3.72168 0
M  V30 1646 C 283.228 -7.20825 2.7076 0
M  V30 1647 C 283.958 -7.45864 1.40599 0
M  V30 1648 O 284.168 -6.17651 0.734225 0
M  V30 1649 C 285.358 -8.05808 1.51899 0
M  V30 1650 O 285.748 -8.74358 0.335205 0
M  V30 1651 C 286.238 -6.83093 1.70294 0
M  V30 1652 C 285.528 -5.79992 0.836974 0
M  V30 1653 N 285.578 -4.41864 1.38293 0
M  V30 1654 H 282.739 -8.13644 3.0377 0
M  V30 1655 H 282.469 -6.42788 2.55485 0
M  V30 1656 H 283.336 -8.12039 0.792769 0
M  V30 1657 P 287.298 -8.91 -1.02605e-12 0
M  V30 1658 O 287.518 -10.1746 -0.733838 0
M  V30 1659 O 288.088 -8.73346 1.23964 0
M  V30 1660 O 287.548 -7.66872 -0.971405 0
M  V30 1661 C 286.608 -7.42405 -2.04668 0
M  V30 1662 C 287.338 -6.86059 -3.24661 0
M  V30 1663 O 287.548 -5.42934 -3.03695 0
M  V30 1664 C 288.738 -7.41287 -3.50796 0
M  V30 1665 O 289.128 -7.27073 -4.86816 0
M  V30 1666 C 289.618 -6.5273 -2.63741 0
M  V30 1667 C 288.908 -5.1842 -2.73198 0
M  V30 1668 N 288.958 -4.38762 -1.4784 0
M  V30 1669 H 286.12 -8.36899 -2.3252 0
M  V30 1670 H 285.848 -6.70391 -1.71179 0
M  V30 1671 H 286.716 -7.03638 -4.13219 0
M  V30 1672 H 289.371 -4.59931 -3.54016 0
M  V30 1673 H 289.651 -6.88995 -1.59871 0
M  V30 1674 H 290.642 -6.4684 -3.0373 0
M  V30 1675 H 288.808 -8.47002 -3.20749 0
M  V30 1676 P 290.678 -7.20834 -5.23717 0
M  V30 1677 O 290.898 -7.79853 -6.57286 0
M  V30 1678 O 291.468 -7.79239 -4.12957 0
M  V30 1679 O 290.928 -5.63315 -5.29344 0
M  V30 1680 C 289.988 -4.80255 -6.01876 0
M  V30 1681 C 290.718 -3.64202 -6.65911 0
M  V30 1682 O 290.928 -2.60694 -5.64732 0
M  V30 1683 C 292.118 -3.93473 -7.1943 0
M  V30 1684 O 292.508 -3.02071 -8.21205 0
M  V30 1685 C 292.998 -3.73047 -5.97036 0
M  V30 1686 C 292.288 -2.58828 -5.25741 0
M  V30 1687 N 292.338 -2.68068 -3.77503 0
M  V30 1688 H 289.499 -5.40332 -6.79951 0
M  V30 1689 H 289.229 -4.41613 -5.32378 0
M  V30 1690 H 290.096 -3.26331 -7.47797 0
M  V30 1691 P 294.058 -2.75334 -8.47391 0
M  V30 1692 O 294.278 -2.44571 -9.90142 0
M  V30 1693 O 294.848 -3.87688 -7.92115 0
M  V30 1694 O 294.308 -1.4459 -7.59357 0
M  V30 1695 C 293.368 -0.347608 -7.69215 0
M  V30 1696 C 294.098 0.96767 -7.52806 0
M  V30 1697 O 294.308 1.21036 -6.1011 0
M  V30 1698 C 295.498 1.04544 -8.13308 0
M  V30 1699 O 295.888 2.38311 -8.41922 0
M  V30 1700 C 296.378 0.491279 -7.02284 0
M  V30 1701 C 295.668 0.996264 -5.77469 0
M  V30 1702 N 295.718 0.0501916 -4.62973 0
M  V30 1703 H 292.879 -0.374722 -8.67691 0
M  V30 1704 H 292.609 -0.443485 -6.90277 0
M  V30 1705 H 293.476 1.75537 -7.96793 0
M  V30 1706 P 297.438 2.75334 -8.47391 0
M  V30 1707 O 297.658 3.84166 -9.4489 0
M  V30 1708 O 298.228 1.51964 -8.6881 0
M  V30 1709 O 297.688 3.29363 -6.99321 0
M  V30 1710 C 296.748 4.23956 -6.42656 0
M  V30 1711 C 297.478 5.20775 -5.52155 0
M  V30 1712 O 297.688 4.56534 -4.22446 0
M  V30 1713 C 298.878 5.62629 -5.96531 0
M  V30 1714 O 299.268 6.87667 -5.41053 0
M  V30 1715 C 299.758 4.52537 -5.39283 0
M  V30 1716 C 299.048 4.20027 -4.08623 0
M  V30 1717 N 299.098 2.7613 -3.71522 0
M  V30 1718 C 299.248 2.45612 -2.37989 0
M  V30 1719 O 299.338 3.30919 -1.51621 0
M  V30 1720 N 299.288 1.10684 -2.08435 0
M  V30 1721 C 299.198 0.0690084 -2.9792 0
M  V30 1722 O 299.248 -1.10553 -2.59426 0
M  V30 1723 C 299.048 0.481522 -4.35345 0
M  V30 1724 C 298.938 -0.618778 -5.36443 0
M  V30 1725 C 298.998 1.78906 -4.67968 0
M  V30 1726 H 296.258 4.797 -7.24003 0
M  V30 1727 H 295.989 3.69802 -5.84429 0
M  V30 1728 H 296.856 6.10356 -5.41441 0
M  V30 1729 H 299.511 4.78651 -3.27911 0
M  V30 1730 H 299.79 3.64957 -6.05871 0
M  V30 1731 H 300.782 4.8868 -5.2125 0
M  V30 1732 H 298.948 5.66726 -7.06352 0
M  V30 1733 H 298.877 2.07737 -5.72367 0
M  V30 1734 H 299.907 -0.754375 -5.86871 0
M  V30 1735 H 298.17 -0.359721 -6.10641 0
M  V30 1736 H 298.658 -1.55533 -4.8581 0
M  V30 1737 H 299.394 0.862651 -1.12037 0
M  V30 1738 P 300.818 7.20834 -5.23717 0
M  V30 1739 O 301.038 8.66104 -5.38572 0
M  V30 1740 O 301.608 6.33544 -6.1349 0
M  V30 1741 O 301.068 6.7751 -3.72168 0
M  V30 1742 C 300.128 7.20825 -2.7076 0
M  V30 1743 C 300.858 7.45864 -1.40599 0
M  V30 1744 O 301.068 6.17651 -0.734225 0
M  V30 1745 C 302.258 8.05808 -1.51899 0
M  V30 1746 O 302.648 8.74358 -0.335205 0
M  V30 1747 C 303.138 6.83093 -1.70294 0
M  V30 1748 C 302.428 5.79992 -0.836974 0
M  V30 1749 N 302.478 4.41864 -1.38293 0
M  V30 1750 H 299.639 8.13644 -3.0377 0
M  V30 1751 H 299.369 6.42788 -2.55485 0
M  V30 1752 H 300.236 8.12039 -0.792769 0
M  V30 1753 P 304.198 8.91 1.18324e-12 0
M  V30 1754 O 304.418 10.1726 0.733694 0
M  V30 1755 O 304.988 8.73148 -1.23936 0
M  V30 1756 O 304.448 7.66872 0.971405 0
M  V30 1757 C 303.508 7.42309 2.04641 0
M  V30 1758 C 304.238 6.86059 3.24661 0
M  V30 1759 O 304.448 5.42847 3.03646 0
M  V30 1760 C 305.638 7.41196 3.50753 0
M  V30 1761 O 306.028 7.27073 4.86816 0
M  V30 1762 C 306.518 6.5273 2.63741 0
M  V30 1763 C 305.808 5.1842 2.73198 0
M  V30 1764 N 305.858 4.38762 1.4784 0
M  V30 1765 H 303.019 8.36803 2.32493 0
M  V30 1766 H 302.749 6.70197 1.71129 0
M  V30 1767 H 303.616 7.03551 4.13168 0
M  V30 1768 P 307.578 7.20834 5.23717 0
M  V30 1769 O 307.798 7.80006 6.57415 0
M  V30 1770 O 308.368 7.79416 4.13051 0
M  V30 1771 O 307.828 5.63315 5.29344 0
M  V30 1772 C 306.888 4.80318 6.01954 0
M  V30 1773 C 307.618 3.64202 6.65911 0
M  V30 1774 O 307.828 2.60736 5.64823 0
M  V30 1775 C 309.018 3.93521 7.19518 0
M  V30 1776 O 309.408 3.02071 8.21205 0
M  V30 1777 C 309.898 3.73047 5.97036 0
M  V30 1778 C 309.188 2.58828 5.25741 0
M  V30 1779 N 309.238 2.68068 3.77503 0
M  V30 1780 C 309.158 3.80474 2.99159 0
M  V30 1781 N 309.228 3.55622 1.71925 0
M  V30 1782 C 309.378 2.1832 1.65733 0
M  V30 1783 C 309.508 1.28842 0.572777 0
M  V30 1784 N 309.518 1.66875 -0.70098 0
M  V30 1785 N 309.628 -0.016788 0.859836 0
M  V30 1786 C 309.618 -0.398145 2.13316 0
M  V30 1787 N 309.498 0.328224 3.22333 0
M  V30 1788 C 309.378 1.62992 2.90383 0
M  V30 1789 H 306.4 5.40394 6.8003 0
M  V30 1790 H 306.128 4.41741 5.32532 0
M  V30 1791 H 306.996 3.26371 7.47889 0
M  V30 1792 H 309.651 1.64007 5.56746 0
M  V30 1793 H 309.931 4.63439 5.3432 0
M  V30 1794 H 310.922 3.44776 6.25925 0
M  V30 1795 H 309.088 4.96707 7.57347 0
M  V30 1796 H 309.047 4.8089 3.39924 0
M  V30 1797 H 309.428 2.66547 -0.941919 0
M  V30 1798 H 309.617 0.965341 -1.44766 0
M  V30 1799 H 309.725 -1.46427 2.29697 0
M  V30 1800 P 310.958 2.75334 8.47391 0
M  V30 1801 O 311.178 2.44619 9.90336 0
M  V30 1802 O 311.748 3.87776 7.92294 0
M  V30 1803 O 311.208 1.4459 7.59357 0
M  V30 1804 C 310.268 0.347653 7.69315 0
M  V30 1805 C 310.998 -0.96767 7.52806 0
M  V30 1806 O 311.208 -1.21055 6.10208 0
M  V30 1807 C 312.398 -1.04557 8.13408 0
M  V30 1808 O 312.788 -2.38311 8.41922 0
M  V30 1809 C 313.278 -0.491279 7.02284 0
M  V30 1810 C 312.568 -0.996264 5.77469 0
M  V30 1811 N 312.618 -0.0501916 4.62973 0
M  V30 1812 H 309.78 0.374765 8.67791 0
M  V30 1813 H 309.508 0.443613 6.90476 0
M  V30 1814 H 310.376 -1.75559 7.96891 0
M  V30 1815 H 313.031 -1.94563 5.46818 0
M  V30 1816 H 313.311 0.608651 7.04676 0
M  V30 1817 H 314.302 -0.889796 7.09039 0
M  V30 1818 H 312.468 -0.433128 9.04664 0
M  V30 1819 P 314.338 -2.75334 8.47391 0
M  V30 1820 O 314.558 -3.84128 9.44797 0
M  V30 1821 O 315.128 -1.51947 8.68712 0
M  V30 1822 O 314.588 -3.29363 6.99321 0
M  V30 1823 C 313.648 -4.24011 6.4274 0
M  V30 1824 C 314.378 -5.20775 5.52155 0
M  V30 1825 O 314.588 -4.56534 4.22446 0
M  V30 1826 C 315.778 -5.62629 5.96531 0
M  V30 1827 O 316.168 -6.87667 5.41053 0
M  V30 1828 C 316.658 -4.52537 5.39283 0
M  V30 1829 C 315.948 -4.20027 4.08623 0
M  V30 1830 N 315.998 -2.76189 3.71603 0
M  V30 1831 H 313.159 -4.797 7.24003 0
M  V30 1832 H 312.889 -3.69856 5.84513 0
M  V30 1833 H 313.756 -6.10356 5.41441 0
M  V30 1834 P 317.718 -7.20834 5.23717 0
M  V30 1835 O 317.938 -8.66104 5.38572 0
M  V30 1836 O 318.508 -6.33544 6.1349 0
M  V30 1837 O 317.968 -6.7751 3.72168 0
M  V30 1838 C 317.028 -7.20825 2.7076 0
M  V30 1839 C 317.758 -7.45864 1.40599 0
M  V30 1840 O 317.968 -6.17651 0.734225 0
M  V30 1841 C 319.158 -8.05808 1.51899 0
M  V30 1842 O 319.548 -8.74358 0.335205 0
M  V30 1843 C 320.038 -6.83093 1.70294 0
M  V30 1844 C 319.328 -5.79992 0.836974 0
M  V30 1845 N 319.378 -4.41864 1.38293 0
M  V30 1846 C 319.298 -3.99538 2.69438 0
M  V30 1847 N 319.378 -2.69909 2.84277 0
M  V30 1848 C 319.518 -2.21719 1.5408 0
M  V30 1849 C 319.648 -0.891712 1.06628 0
M  V30 1850 N 319.768 -0.856846 -0.334985 0
M  V30 1851 C 319.768 -1.9641 -1.15789 0
M  V30 1852 N 319.898 -1.72708 -2.46522 0
M  V30 1853 N 319.638 -3.21165 -0.713741 0
M  V30 1854 C 319.518 -3.26797 0.639748 0
M  V30 1855 H 316.539 -8.13644 3.0377 0
M  V30 1856 H 316.269 -6.42788 2.55485 0
M  V30 1857 H 317.136 -8.12039 0.792769 0
M  V30 1858 P 321.098 -8.91 -1.34042e-12 0
M  V30 1859 O 321.318 -10.1726 -0.733694 0
M  V30 1860 O 321.888 -8.73148 1.23936 0
M  V30 1861 O 321.348 -7.66872 -0.971405 0
M  V30 1862 C 320.408 -7.42309 -2.04641 0
M  V30 1863 C 321.138 -6.86059 -3.24661 0
M  V30 1864 O 321.348 -5.42847 -3.03646 0
M  V30 1865 C 322.538 -7.41196 -3.50753 0
M  V30 1866 O 322.928 -7.27073 -4.86816 0
M  V30 1867 C 323.418 -6.5273 -2.63741 0
M  V30 1868 C 322.708 -5.1842 -2.73198 0
M  V30 1869 N 322.758 -4.38762 -1.4784 0
M  V30 1870 H 319.919 -8.36803 -2.32493 0
M  V30 1871 H 319.649 -6.70197 -1.71129 0
M  V30 1872 H 320.516 -7.03551 -4.13168 0
M  V30 1873 P 324.478 -7.20834 -5.23717 0
M  V30 1874 O 324.698 -7.79853 -6.57286 0
M  V30 1875 O 325.268 -7.79239 -4.12957 0
M  V30 1876 O 324.728 -5.63315 -5.29344 0
M  V30 1877 C 323.788 -4.80255 -6.01876 0
M  V30 1878 C 324.518 -3.64202 -6.65911 0
M  V30 1879 O 324.728 -2.60694 -5.64732 0
M  V30 1880 C 325.918 -3.93473 -7.1943 0
M  V30 1881 O 326.308 -3.02071 -8.21205 0
M  V30 1882 C 326.798 -3.73047 -5.97036 0
M  V30 1883 C 326.088 -2.58828 -5.25741 0
M  V30 1884 N 326.138 -2.68068 -3.77503 0
M  V30 1885 H 323.299 -5.40332 -6.79951 0
M  V30 1886 H 323.029 -4.41613 -5.32378 0
M  V30 1887 H 323.896 -3.26331 -7.47797 0
M  V30 1888 P 327.858 -2.75334 -8.47391 0
M  V30 1889 O 328.078 -2.44571 -9.90142 0
M  V30 1890 O 328.648 -3.87688 -7.92115 0
M  V30 1891 O 328.108 -1.4459 -7.59357 0
M  V30 1892 C 327.168 -0.347608 -7.69215 0
M  V30 1893 C 327.898 0.96767 -7.52806 0
M  V30 1894 O 328.108 1.21036 -6.1011 0
M  V30 1895 C 329.298 1.04544 -8.13308 0
M  V30 1896 O 329.688 2.38311 -8.41922 0
M  V30 1897 C 330.178 0.491279 -7.02284 0
M  V30 1898 C 329.468 0.996264 -5.77469 0
M  V30 1899 N 329.518 0.0501916 -4.62973 0
M  V30 1900 H 326.679 -0.374722 -8.67691 0
M  V30 1901 H 326.409 -0.443485 -6.90277 0
M  V30 1902 H 327.276 1.75537 -7.96793 0
M  V30 1903 P 331.238 2.75334 -8.47391 0
M  V30 1904 O 331.458 3.84128 -9.44797 0
M  V30 1905 O 332.028 1.51947 -8.68712 0
M  V30 1906 O 331.488 3.29363 -6.99321 0
M  V30 1907 C 330.548 4.24011 -6.4274 0
M  V30 1908 C 331.278 5.20775 -5.52155 0
M  V30 1909 O 331.488 4.56534 -4.22446 0
M  V30 1910 C 332.678 5.62629 -5.96531 0
M  V30 1911 O 333.068 6.87667 -5.41053 0
M  V30 1912 C 333.558 4.52537 -5.39283 0
M  V30 1913 C 332.848 4.20027 -4.08623 0
M  V30 1914 N 332.898 2.76189 -3.71603 0
M  V30 1915 H 330.059 4.797 -7.24003 0
M  V30 1916 H 329.789 3.69856 -5.84513 0
M  V30 1917 H 330.656 6.10356 -5.41441 0
M  V30 1918 P 334.618 7.20834 -5.23717 0
M  V30 1919 O 334.838 8.66104 -5.38572 0
M  V30 1920 O 335.408 6.33544 -6.1349 0
M  V30 1921 O 334.868 6.7751 -3.72168 0
M  V30 1922 C 333.928 7.20825 -2.7076 0
M  V30 1923 C 334.658 7.45864 -1.40599 0
M  V30 1924 O 334.868 6.17651 -0.734225 0
M  V30 1925 C 336.058 8.05808 -1.51899 0
M  V30 1926 O 336.448 8.74358 -0.335205 0
M  V30 1927 C 336.938 6.83093 -1.70294 0
M  V30 1928 C 336.228 5.79992 -0.836974 0
M  V30 1929 N 336.278 4.41864 -1.38293 0
M  V30 1930 H 333.439 8.13644 -3.0377 0
M  V30 1931 H 333.169 6.42788 -2.55485 0
M  V30 1932 H 334.036 8.12039 -0.792769 0
M  V30 1933 P 337.998 8.91 1.4976e-12 0
M  V30 1934 O 338.218 10.1726 0.733694 0
M  V30 1935 O 338.788 8.73148 -1.23936 0
M  V30 1936 O 338.248 7.66872 0.971405 0
M  V30 1937 C 337.308 7.42309 2.04641 0
M  V30 1938 C 338.038 6.86059 3.24661 0
M  V30 1939 O 338.248 5.42847 3.03646 0
M  V30 1940 C 339.438 7.41196 3.50753 0
M  V30 1941 O 339.828 7.27073 4.86816 0
M  V30 1942 C 340.318 6.5273 2.63741 0
M  V30 1943 C 339.608 5.1842 2.73198 0
M  V30 1944 N 339.658 4.38762 1.4784 0
M  V30 1945 H 336.819 8.36803 2.32493 0
M  V30 1946 H 336.549 6.70197 1.71129 0
M  V30 1947 H 337.416 7.03551 4.13168 0
M  V30 1948 P 341.378 7.20834 5.23717 0
M  V30 1949 O 341.598 7.79853 6.57286 0
M  V30 1950 O 342.168 7.79239 4.12957 0
M  V30 1951 O 341.628 5.63315 5.29344 0
M  V30 1952 C 340.688 4.80255 6.01876 0
M  V30 1953 C 341.418 3.64202 6.65911 0
M  V30 1954 O 341.628 2.60694 5.64732 0
M  V30 1955 C 342.818 3.93473 7.1943 0
M  V30 1956 O 343.208 3.02071 8.21205 0
M  V30 1957 C 343.698 3.73047 5.97036 0
M  V30 1958 C 342.988 2.58828 5.25741 0
M  V30 1959 N 343.038 2.68068 3.77503 0
M  V30 1960 H 340.199 5.40332 6.79951 0
M  V30 1961 H 339.929 4.41613 5.32378 0
M  V30 1962 H 340.796 3.26331 7.47797 0
M  V30 1963 P 344.758 2.75334 8.47391 0
M  V30 1964 O 344.978 2.44571 9.90142 0
M  V30 1965 O 345.548 3.87688 7.92115 0
M  V30 1966 O 345.008 1.4459 7.59357 0
M  V30 1967 C 344.068 0.347608 7.69215 0
M  V30 1968 C 344.798 -0.96767 7.52806 0
M  V30 1969 O 345.008 -1.21036 6.1011 0
M  V30 1970 C 346.198 -1.04544 8.13308 0
M  V30 1971 O 346.588 -2.38311 8.41922 0
M  V30 1972 C 347.078 -0.491279 7.02284 0
M  V30 1973 C 346.368 -0.996264 5.77469 0
M  V30 1974 N 346.418 -0.0501916 4.62973 0
M  V30 1975 C 346.338 1.32786 4.63244 0
M  V30 1976 N 346.418 1.86957 3.44545 0
M  V30 1977 C 346.558 0.780241 2.58481 0
M  V30 1978 C 346.688 0.738536 1.17757 0
M  V30 1979 N 346.808 -0.58337 0.711393 0
M  V30 1980 C 346.808 -1.70816 1.51017 0
M  V30 1981 N 346.938 -2.87826 0.880757 0
M  V30 1982 N 346.678 -1.67126 2.8339 0
M  V30 1983 C 346.558 -0.401421 3.30572 0
M  V30 1984 H 343.579 0.374722 8.67691 0
M  V30 1985 H 343.309 0.443485 6.90277 0
M  V30 1986 H 344.176 -1.75537 7.96793 0
M  V30 1987 P 348.138 -2.75334 8.47391 0
M  V30 1988 O 348.358 -3.84128 9.44797 0
M  V30 1989 O 348.928 -1.51947 8.68712 0
M  V30 1990 O 348.388 -3.29363 6.99321 0
M  V30 1991 C 347.448 -4.24011 6.4274 0
M  V30 1992 C 348.178 -5.20775 5.52155 0
M  V30 1993 O 348.388 -4.56534 4.22446 0
M  V30 1994 C 349.578 -5.62629 5.96531 0
M  V30 1995 O 349.968 -6.87667 5.41053 0
M  V30 1996 C 350.458 -4.52537 5.39283 0
M  V30 1997 C 349.748 -4.20027 4.08623 0
M  V30 1998 N 349.798 -2.76189 3.71603 0
M  V30 1999 H 346.959 -4.797 7.24003 0
M  V30 2000 H 346.689 -3.69856 5.84513 0
M  V30 2001 H 347.556 -6.10356 5.41441 0
M  V30 2002 P 351.518 -7.20834 5.23717 0
M  V30 2003 O 351.738 -8.66274 5.38678 0
M  V30 2004 O 352.308 -6.33687 6.13629 0
M  V30 2005 O 351.768 -6.7751 3.72168 0
M  V30 2006 C 350.828 -7.20919 2.70795 0
M  V30 2007 C 351.558 -7.45864 1.40599 0
M  V30 2008 O 351.768 -6.17751 0.734343 0
M  V30 2009 C 352.958 -8.05906 1.51917 0
M  V30 2010 O 353.348 -8.74358 0.335205 0
M  V30 2011 C 353.838 -6.83093 1.70294 0
M  V30 2012 C 353.128 -5.79992 0.836974 0
M  V30 2013 N 353.178 -4.41864 1.38293 0
M  V30 2014 C 353.098 -4.02089 2.69407 0
M  V30 2015 N 353.168 -2.73403 2.85089 0
M  V30 2016 C 353.318 -2.25086 1.5642 0
M  V30 2017 C 353.448 -0.942887 1.04836 0
M  V30 2018 N 353.458 0.150999 1.80369 0
M  V30 2019 N 353.568 -0.812565 -0.28167 0
M  V30 2020 C 353.558 -1.90572 -1.03784 0
M  V30 2021 N 353.438 -3.167 -0.683905 0
M  V30 2022 C 353.318 -3.26538 0.652815 0
M  V30 2023 H 350.34 -8.13738 3.03804 0
M  V30 2024 H 350.068 -6.42974 2.55559 0
M  V30 2025 H 350.936 -8.12139 0.792866 0
M  V30 2026 H 353.591 -5.80178 -0.160643 0
M  V30 2027 H 353.871 -6.51379 2.75643 0
M  V30 2028 H 354.862 -7.01832 1.3448 0
M  V30 2029 H 353.028 -8.73771 2.38364 0
M  V30 2030 H 352.987 -4.7189 3.52311 0
M  V30 2031 H 353.368 0.0721434 2.82608 0
M  V30 2032 H 353.557 1.0785 1.36544 0
M  V30 2033 H 353.665 -1.73207 -2.10241 0
M  V30 2034 P 354.898 -8.91 -1.65478e-12 0
M  V30 2035 O 355.118 -10.1726 -0.733694 0
M  V30 2036 O 355.688 -8.73148 1.23936 0
M  V30 2037 O 355.148 -7.66872 -0.971405 0
M  V30 2038 C 354.208 -7.42309 -2.04641 0
M  V30 2039 C 354.938 -6.86059 -3.24661 0
M  V30 2040 O 355.148 -5.42847 -3.03646 0
M  V30 2041 C 356.338 -7.41196 -3.50753 0
M  V30 2042 O 356.728 -7.27073 -4.86816 0
M  V30 2043 C 357.218 -6.5273 -2.63741 0
M  V30 2044 C 356.508 -5.1842 -2.73198 0
M  V30 2045 N 356.558 -4.38762 -1.4784 0
M  V30 2046 H 353.719 -8.36803 -2.32493 0
M  V30 2047 H 353.449 -6.70197 -1.71129 0
M  V30 2048 H 354.316 -7.03551 -4.13168 0
M  V30 2049 P 358.278 -7.20834 -5.23717 0
M  V30 2050 O 358.498 -7.79853 -6.57286 0
M  V30 2051 O 359.068 -7.79239 -4.12957 0
M  V30 2052 O 358.528 -5.63315 -5.29344 0
M  V30 2053 C 357.588 -4.80255 -6.01876 0
M  V30 2054 C 358.318 -3.64202 -6.65911 0
M  V30 2055 O 358.528 -2.60694 -5.64732 0
M  V30 2056 C 359.718 -3.93473 -7.1943 0
M  V30 2057 O 360.108 -3.02071 -8.21205 0
M  V30 2058 C 360.598 -3.73047 -5.97036 0
M  V30 2059 C 359.888 -2.58828 -5.25741 0
M  V30 2060 N 359.938 -2.68068 -3.77503 0
M  V30 2061 H 357.099 -5.40332 -6.79951 0
M  V30 2062 H 356.829 -4.41613 -5.32378 0
M  V30 2063 H 357.696 -3.26331 -7.47797 0
M  V30 2064 P 361.658 -2.75334 -8.47391 0
M  V30 2065 O 361.878 -2.44571 -9.90142 0
M  V30 2066 O 362.448 -3.87688 -7.92115 0
M  V30 2067 O 361.908 -1.4459 -7.59357 0
M  V30 2068 C 360.968 -0.347608 -7.69215 0
M  V30 2069 C 361.698 0.96767 -7.52806 0
M  V30 2070 O 361.908 1.21036 -6.1011 0
M  V30 2071 C 363.098 1.04544 -8.13308 0
M  V30 2072 O 363.488 2.38311 -8.41922 0
M  V30 2073 C 363.978 0.491279 -7.02284 0
M  V30 2074 C 363.268 0.996264 -5.77469 0
M  V30 2075 N 363.318 0.0501916 -4.62973 0
M  V30 2076 H 360.479 -0.374722 -8.67691 0
M  V30 2077 H 360.209 -0.443485 -6.90277 0
M  V30 2078 H 361.076 1.75537 -7.96793 0
M  V30 2079 P 365.038 2.75334 -8.47391 0
M  V30 2080 O 365.258 3.84204 -9.44982 0
M  V30 2081 O 365.828 1.51982 -8.68909 0
M  V30 2082 O 365.288 3.29363 -6.99321 0
M  V30 2083 C 364.348 4.24066 -6.42823 0
M  V30 2084 C 365.078 5.20775 -5.52155 0
M  V30 2085 O 365.288 4.56607 -4.22514 0
M  V30 2086 C 366.478 5.62697 -5.96604 0
M  V30 2087 O 366.868 6.87667 -5.41053 0
M  V30 2088 C 367.358 4.52537 -5.39283 0
M  V30 2089 C 366.648 4.20027 -4.08623 0
M  V30 2090 N 366.698 2.76189 -3.71603 0
M  V30 2091 H 363.86 4.79756 -7.24086 0
M  V30 2092 H 363.588 3.69963 -5.84682 0
M  V30 2093 H 364.456 6.10431 -5.41508 0
M  V30 2094 H 367.111 4.78816 -3.28024 0
M  V30 2095 H 367.391 3.64957 -6.05871 0
M  V30 2096 H 368.382 4.88748 -5.21323 0
M  V30 2097 H 366.548 5.66789 -7.0643 0
M  V30 2098 P 368.418 7.20834 -5.23717 0
M  V30 2099 O 368.638 8.66104 -5.38572 0
M  V30 2100 O 369.208 6.33544 -6.1349 0
M  V30 2101 O 368.668 6.7751 -3.72168 0
M  V30 2102 C 367.728 7.20825 -2.7076 0
M  V30 2103 C 368.458 7.45864 -1.40599 0
M  V30 2104 O 368.668 6.17651 -0.734225 0
M  V30 2105 C 369.858 8.05808 -1.51899 0
M  V30 2106 O 370.248 8.74358 -0.335205 0
M  V30 2107 C 370.738 6.83093 -1.70294 0
M  V30 2108 C 370.028 5.79992 -0.836974 0
M  V30 2109 N 370.078 4.41864 -1.38293 0
M  V30 2110 H 367.239 8.13644 -3.0377 0
M  V30 2111 H 366.969 6.42788 -2.55485 0
M  V30 2112 H 367.836 8.12039 -0.792769 0
M  V30 2113 P 371.798 8.91 1.81197e-12 0
M  V30 2114 O 372.018 10.1726 0.733694 0
M  V30 2115 O 372.588 8.73148 -1.23936 0
M  V30 2116 O 372.048 7.66872 0.971405 0
M  V30 2117 C 371.108 7.42309 2.04641 0
M  V30 2118 C 371.838 6.86059 3.24661 0
M  V30 2119 O 372.048 5.42847 3.03646 0
M  V30 2120 C 373.238 7.41196 3.50753 0
M  V30 2121 O 373.628 7.27073 4.86816 0
M  V30 2122 C 374.118 6.5273 2.63741 0
M  V30 2123 C 373.408 5.1842 2.73198 0
M  V30 2124 N 373.458 4.38762 1.4784 0
M  V30 2125 C 373.378 4.81605 0.168631 0
M  V30 2126 N 373.458 3.85454 -0.713363 0
M  V30 2127 C 373.598 2.6994 0.0566958 0
M  V30 2128 C 373.728 1.34815 -0.338502 0
M  V30 2129 N 373.848 0.496304 0.77465 0
M  V30 2130 C 373.848 0.908403 2.09122 0
M  V30 2131 N 373.978 -0.0517805 3.00955 0
M  V30 2132 N 373.718 2.17875 2.46519 0
M  V30 2133 C 373.598 3.01988 1.4033 0
M  V30 2134 H 370.619 8.36803 2.32493 0
M  V30 2135 H 370.349 6.70197 1.71129 0
M  V30 2136 H 371.216 7.03551 4.13168 0
M  V30 2137 P 375.178 7.20834 5.23717 0
M  V30 2138 O 375.398 7.79853 6.57286 0
M  V30 2139 O 375.968 7.79239 4.12957 0
M  V30 2140 O 375.428 5.63315 5.29344 0
M  V30 2141 C 374.488 4.80255 6.01876 0
M  V30 2142 C 375.218 3.64202 6.65911 0
M  V30 2143 O 375.428 2.60694 5.64732 0
M  V30 2144 C 376.618 3.93473 7.1943 0
M  V30 2145 O 377.008 3.02071 8.21205 0
M  V30 2146 C 377.498 3.73047 5.97036 0
M  V30 2147 C 376.788 2.58828 5.25741 0
M  V30 2148 N 376.838 2.68068 3.77503 0
M  V30 2149 H 373.999 5.40332 6.79951 0
M  V30 2150 H 373.729 4.41613 5.32378 0
M  V30 2151 H 374.596 3.26331 7.47797 0
M  V30 2152 P 378.558 2.75334 8.47391 0
M  V30 2153 O 378.778 2.44571 9.90142 0
M  V30 2154 O 379.348 3.87688 7.92115 0
M  V30 2155 O 378.808 1.4459 7.59357 0
M  V30 2156 C 377.868 0.347608 7.69215 0
M  V30 2157 C 378.598 -0.96767 7.52806 0
M  V30 2158 O 378.808 -1.21036 6.1011 0
M  V30 2159 C 379.998 -1.04544 8.13308 0
M  V30 2160 O 380.388 -2.38311 8.41922 0
M  V30 2161 C 380.878 -0.491279 7.02284 0
M  V30 2162 C 380.168 -0.996264 5.77469 0
M  V30 2163 N 380.218 -0.0501916 4.62973 0
M  V30 2164 H 377.379 0.374722 8.67691 0
M  V30 2165 H 377.109 0.443485 6.90277 0
M  V30 2166 H 377.976 -1.75537 7.96793 0
M  V30 2167 P 381.938 -2.75334 8.47391 0
M  V30 2168 O 382.158 -3.84128 9.44797 0
M  V30 2169 O 382.728 -1.51947 8.68712 0
M  V30 2170 O 382.188 -3.29363 6.99321 0
M  V30 2171 C 381.248 -4.24011 6.4274 0
M  V30 2172 C 381.978 -5.20775 5.52155 0
M  V30 2173 O 382.188 -4.56534 4.22446 0
M  V30 2174 C 383.378 -5.62629 5.96531 0
M  V30 2175 O 383.768 -6.87667 5.41053 0
M  V30 2176 C 384.258 -4.52537 5.39283 0
M  V30 2177 C 383.548 -4.20027 4.08623 0
M  V30 2178 N 383.598 -2.76189 3.71603 0
M  V30 2179 H 380.759 -4.797 7.24003 0
M  V30 2180 H 380.489 -3.69856 5.84513 0
M  V30 2181 H 381.356 -6.10356 5.41441 0
M  V30 2182 P 385.318 -7.20834 5.23717 0
M  V30 2183 O 385.538 -8.66104 5.38572 0
M  V30 2184 O 386.108 -6.33544 6.1349 0
M  V30 2185 O 385.568 -6.7751 3.72168 0
M  V30 2186 C 384.628 -7.20825 2.7076 0
M  V30 2187 C 385.358 -7.45864 1.40599 0
M  V30 2188 O 385.568 -6.17651 0.734225 0
M  V30 2189 C 386.758 -8.05808 1.51899 0
M  V30 2190 O 387.148 -8.74358 0.335205 0
M  V30 2191 C 387.638 -6.83093 1.70294 0
M  V30 2192 C 386.928 -5.79992 0.836974 0
M  V30 2193 N 386.978 -4.41864 1.38293 0
M  V30 2194 H 384.139 -8.13644 3.0377 0
M  V30 2195 H 383.869 -6.42788 2.55485 0
M  V30 2196 H 384.736 -8.12039 0.792769 0
M  V30 2197 P 388.698 -8.91 -1.96915e-12 0
M  V30 2198 O 388.918 -10.1726 -0.733694 0
M  V30 2199 O 389.488 -8.73148 1.23936 0
M  V30 2200 O 388.948 -7.66872 -0.971405 0
M  V30 2201 C 388.008 -7.42309 -2.04641 0
M  V30 2202 C 388.738 -6.86059 -3.24661 0
M  V30 2203 O 388.948 -5.42847 -3.03646 0
M  V30 2204 C 390.138 -7.41196 -3.50753 0
M  V30 2205 O 390.528 -7.27073 -4.86816 0
M  V30 2206 C 391.018 -6.5273 -2.63741 0
M  V30 2207 C 390.308 -5.1842 -2.73198 0
M  V30 2208 N 390.358 -4.38762 -1.4784 0
M  V30 2209 H 387.519 -8.36803 -2.32493 0
M  V30 2210 H 387.249 -6.70197 -1.71129 0
M  V30 2211 H 388.116 -7.03551 -4.13168 0
M  V30 2212 P 392.078 -7.20834 -5.23717 0
M  V30 2213 O 392.298 -7.79853 -6.57286 0
M  V30 2214 O 392.868 -7.79239 -4.12957 0
M  V30 2215 O 392.328 -5.63315 -5.29344 0
M  V30 2216 C 391.388 -4.80255 -6.01876 0
M  V30 2217 C 392.118 -3.64202 -6.65911 0
M  V30 2218 O 392.328 -2.60694 -5.64732 0
M  V30 2219 C 393.518 -3.93473 -7.1943 0
M  V30 2220 O 393.908 -3.02071 -8.21205 0
M  V30 2221 C 394.398 -3.73047 -5.97036 0
M  V30 2222 C 393.688 -2.58828 -5.25741 0
M  V30 2223 N 393.738 -2.68068 -3.77503 0
M  V30 2224 H 390.899 -5.40332 -6.79951 0
M  V30 2225 H 390.629 -4.41613 -5.32378 0
M  V30 2226 H 391.496 -3.26331 -7.47797 0
M  V30 2227 P 395.458 -2.75334 -8.47391 0
M  V30 2228 O 395.678 -2.44571 -9.90142 0
M  V30 2229 O 396.248 -3.87688 -7.92115 0
M  V30 2230 O 395.708 -1.4459 -7.59357 0
M  V30 2231 C 394.768 -0.347608 -7.69215 0
M  V30 2232 C 395.498 0.96767 -7.52806 0
M  V30 2233 O 395.708 1.21036 -6.1011 0
M  V30 2234 C 396.898 1.04544 -8.13308 0
M  V30 2235 O 397.288 2.38311 -8.41922 0
M  V30 2236 C 397.778 0.491279 -7.02284 0
M  V30 2237 C 397.068 0.996264 -5.77469 0
M  V30 2238 N 397.118 0.0501916 -4.62973 0
M  V30 2239 H 394.279 -0.374722 -8.67691 0
M  V30 2240 H 394.009 -0.443485 -6.90277 0
M  V30 2241 H 394.876 1.75537 -7.96793 0
M  V30 2242 P 398.838 2.75334 -8.47391 0
M  V30 2243 O 399.058 3.84128 -9.44797 0
M  V30 2244 O 399.628 1.51947 -8.68712 0
M  V30 2245 O 399.088 3.29363 -6.99321 0
M  V30 2246 C 398.148 4.24011 -6.4274 0
M  V30 2247 C 398.878 5.20775 -5.52155 0
M  V30 2248 O 399.088 4.56534 -4.22446 0
M  V30 2249 C 400.278 5.62629 -5.96531 0
M  V30 2250 O 400.668 6.87667 -5.41053 0
M  V30 2251 C 401.158 4.52537 -5.39283 0
M  V30 2252 C 400.448 4.20027 -4.08623 0
M  V30 2253 N 400.498 2.76189 -3.71603 0
M  V30 2254 H 397.659 4.797 -7.24003 0
M  V30 2255 H 397.389 3.69856 -5.84513 0
M  V30 2256 H 398.256 6.10356 -5.41441 0
M  V30 2257 P 402.218 7.20834 -5.23717 0
M  V30 2258 O 402.438 8.66104 -5.38572 0
M  V30 2259 O 403.008 6.33544 -6.1349 0
M  V30 2260 O 402.468 6.7751 -3.72168 0
M  V30 2261 C 401.528 7.20825 -2.7076 0
M  V30 2262 C 402.258 7.45864 -1.40599 0
M  V30 2263 O 402.468 6.17651 -0.734225 0
M  V30 2264 C 403.658 8.05808 -1.51899 0
M  V30 2265 O 404.048 8.74358 -0.335205 0
M  V30 2266 C 404.538 6.83093 -1.70294 0
M  V30 2267 C 403.828 5.79992 -0.836974 0
M  V30 2268 N 403.878 4.41864 -1.38293 0
M  V30 2269 H 401.039 8.13644 -3.0377 0
M  V30 2270 H 400.769 6.42788 -2.55485 0
M  V30 2271 H 401.636 8.12039 -0.792769 0
M  V30 2272 P 405.598 8.91 2.12633e-12 0
M  V30 2273 O 405.818 10.1726 0.733694 0
M  V30 2274 O 406.388 8.73148 -1.23936 0
M  V30 2275 O 405.848 7.66872 0.971405 0
M  V30 2276 C 404.908 7.42309 2.04641 0
M  V30 2277 C 405.638 6.86059 3.24661 0
M  V30 2278 O 405.848 5.42847 3.03646 0
M  V30 2279 C 407.038 7.41196 3.50753 0
M  V30 2280 O 407.428 7.27073 4.86816 0
M  V30 2281 C 407.918 6.5273 2.63741 0
M  V30 2282 C 407.208 5.1842 2.73198 0
M  V30 2283 N 407.258 4.38762 1.4784 0
M  V30 2284 H 404.419 8.36803 2.32493 0
M  V30 2285 H 404.149 6.70197 1.71129 0
M  V30 2286 H 405.016 7.03551 4.13168 0
M  V30 2287 P 408.978 7.20834 5.23717 0
M  V30 2288 O 409.198 7.79853 6.57286 0
M  V30 2289 O 409.768 7.79239 4.12957 0
M  V30 2290 O 409.228 5.63315 5.29344 0
M  V30 2291 C 408.288 4.80255 6.01876 0
M  V30 2292 C 409.018 3.64202 6.65911 0
M  V30 2293 O 409.228 2.60694 5.64732 0
M  V30 2294 C 410.418 3.93473 7.1943 0
M  V30 2295 O 410.808 3.02071 8.21205 0
M  V30 2296 C 411.298 3.73047 5.97036 0
M  V30 2297 C 410.588 2.58828 5.25741 0
M  V30 2298 N 410.638 2.68068 3.77503 0
M  V30 2299 H 407.799 5.40332 6.79951 0
M  V30 2300 H 407.529 4.41613 5.32378 0
M  V30 2301 H 408.396 3.26331 7.47797 0
M  V30 2302 P 412.358 2.75334 8.47391 0
M  V30 2303 O 412.578 2.44571 9.90142 0
M  V30 2304 O 413.148 3.87688 7.92115 0
M  V30 2305 O 412.608 1.4459 7.59357 0
M  V30 2306 C 411.668 0.347608 7.69215 0
M  V30 2307 C 412.398 -0.96767 7.52806 0
M  V30 2308 O 412.608 -1.21036 6.1011 0
M  V30 2309 C 413.798 -1.04544 8.13308 0
M  V30 2310 O 414.188 -2.38311 8.41922 0
M  V30 2311 C 414.678 -0.491279 7.02284 0
M  V30 2312 C 413.968 -0.996264 5.77469 0
M  V30 2313 N 414.018 -0.0501916 4.62973 0
M  V30 2314 H 411.179 0.374722 8.67691 0
M  V30 2315 H 410.909 0.443485 6.90277 0
M  V30 2316 H 411.776 -1.75537 7.96793 0
M  V30 2317 P 415.738 -2.75334 8.47391 0
M  V30 2318 O 415.958 -3.84128 9.44797 0
M  V30 2319 O 416.528 -1.51947 8.68712 0
M  V30 2320 O 415.988 -3.29363 6.99321 0
M  V30 2321 C 415.048 -4.24011 6.4274 0
M  V30 2322 C 415.778 -5.20775 5.52155 0
M  V30 2323 O 415.988 -4.56534 4.22446 0
M  V30 2324 C 417.178 -5.62629 5.96531 0
M  V30 2325 O 417.568 -6.87667 5.41053 0
M  V30 2326 C 418.058 -4.52537 5.39283 0
M  V30 2327 C 417.348 -4.20027 4.08623 0
M  V30 2328 N 417.398 -2.76189 3.71603 0
M  V30 2329 H 414.559 -4.797 7.24003 0
M  V30 2330 H 414.289 -3.69856 5.84513 0
M  V30 2331 H 415.156 -6.10356 5.41441 0
M  V30 2332 P 419.118 -7.20834 5.23717 0
M  V30 2333 O 419.338 -8.66104 5.38572 0
M  V30 2334 O 419.908 -6.33544 6.1349 0
M  V30 2335 O 419.368 -6.7751 3.72168 0
M  V30 2336 C 418.428 -7.20825 2.7076 0
M  V30 2337 C 419.158 -7.45864 1.40599 0
M  V30 2338 O 419.368 -6.17651 0.734225 0
M  V30 2339 C 420.558 -8.05808 1.51899 0
M  V30 2340 O 420.948 -8.74358 0.335205 0
M  V30 2341 C 421.438 -6.83093 1.70294 0
M  V30 2342 C 420.728 -5.79992 0.836974 0
M  V30 2343 N 420.778 -4.41864 1.38293 0
M  V30 2344 H 417.939 -8.13644 3.0377 0
M  V30 2345 H 417.669 -6.42788 2.55485 0
M  V30 2346 H 418.536 -8.12039 0.792769 0
M  V30 2347 P 422.497 -8.91 -2.28351e-12 0
M  V30 2348 O 422.717 -10.1726 -0.733694 0
M  V30 2349 O 423.287 -8.73148 1.23936 0
M  V30 2350 O 422.747 -7.66872 -0.971405 0
M  V30 2351 C 421.807 -7.42309 -2.04641 0
M  V30 2352 C 422.537 -6.86059 -3.24661 0
M  V30 2353 O 422.747 -5.42847 -3.03646 0
M  V30 2354 C 423.937 -7.41196 -3.50753 0
M  V30 2355 O 424.327 -7.27073 -4.86816 0
M  V30 2356 C 424.817 -6.5273 -2.63741 0
M  V30 2357 C 424.107 -5.1842 -2.73198 0
M  V30 2358 N 424.157 -4.38762 -1.4784 0
M  V30 2359 H 421.318 -8.36803 -2.32493 0
M  V30 2360 H 421.048 -6.70197 -1.71129 0
M  V30 2361 H 421.915 -7.03551 -4.13168 0
M  V30 2362 P 425.877 -7.20834 -5.23717 0
M  V30 2363 O 426.097 -7.79853 -6.57286 0
M  V30 2364 O 426.667 -7.79239 -4.12957 0
M  V30 2365 O 426.127 -5.63315 -5.29344 0
M  V30 2366 C 425.187 -4.80255 -6.01876 0
M  V30 2367 C 425.917 -3.64202 -6.65911 0
M  V30 2368 O 426.127 -2.60694 -5.64732 0
M  V30 2369 C 427.317 -3.93473 -7.1943 0
M  V30 2370 O 427.707 -3.02071 -8.21205 0
M  V30 2371 C 428.197 -3.73047 -5.97036 0
M  V30 2372 C 427.487 -2.58828 -5.25741 0
M  V30 2373 N 427.537 -2.68068 -3.77503 0
M  V30 2374 H 424.698 -5.40332 -6.79951 0
M  V30 2375 H 424.428 -4.41613 -5.32378 0
M  V30 2376 H 425.295 -3.26331 -7.47797 0
M  V30 2377 P 429.257 -2.75334 -8.47391 0
M  V30 2378 O 429.477 -2.44571 -9.90142 0
M  V30 2379 O 430.047 -3.87688 -7.92115 0
M  V30 2380 O 429.507 -1.4459 -7.59357 0
M  V30 2381 C 428.567 -0.347608 -7.69215 0
M  V30 2382 C 429.297 0.96767 -7.52806 0
M  V30 2383 O 429.507 1.21036 -6.1011 0
M  V30 2384 C 430.697 1.04544 -8.13308 0
M  V30 2385 O 431.087 2.38311 -8.41922 0
M  V30 2386 C 431.577 0.491279 -7.02284 0
M  V30 2387 C 430.867 0.996264 -5.77469 0
M  V30 2388 N 430.917 0.0501916 -4.62973 0
M  V30 2389 H 428.078 -0.374722 -8.67691 0
M  V30 2390 H 427.808 -0.443485 -6.90277 0
M  V30 2391 H 428.675 1.75537 -7.96793 0
M  V30 2392 P 432.637 2.75334 -8.47391 0
M  V30 2393 O 432.857 3.84128 -9.44797 0
M  V30 2394 O 433.427 1.51947 -8.68712 0
M  V30 2395 O 432.887 3.29363 -6.99321 0
M  V30 2396 C 431.947 4.24011 -6.4274 0
M  V30 2397 C 432.677 5.20775 -5.52155 0
M  V30 2398 O 432.887 4.56534 -4.22446 0
M  V30 2399 C 434.077 5.62629 -5.96531 0
M  V30 2400 O 434.467 6.87667 -5.41053 0
M  V30 2401 C 434.957 4.52537 -5.39283 0
M  V30 2402 C 434.247 4.20027 -4.08623 0
M  V30 2403 N 434.297 2.76189 -3.71603 0
M  V30 2404 H 431.458 4.797 -7.24003 0
M  V30 2405 H 431.188 3.69856 -5.84513 0
M  V30 2406 H 432.055 6.10356 -5.41441 0
M  V30 2407 P 436.017 7.20834 -5.23717 0
M  V30 2408 O 436.237 8.66104 -5.38572 0
M  V30 2409 O 436.807 6.33544 -6.1349 0
M  V30 2410 O 436.267 6.7751 -3.72168 0
M  V30 2411 C 435.327 7.20825 -2.7076 0
M  V30 2412 C 436.057 7.45864 -1.40599 0
M  V30 2413 O 436.267 6.17651 -0.734225 0
M  V30 2414 C 437.457 8.05808 -1.51899 0
M  V30 2415 O 437.847 8.74358 -0.335205 0
M  V30 2416 C 438.337 6.83093 -1.70294 0
M  V30 2417 C 437.627 5.79992 -0.836974 0
M  V30 2418 N 437.677 4.41864 -1.38293 0
M  V30 2419 H 434.838 8.13644 -3.0377 0
M  V30 2420 H 434.568 6.42788 -2.55485 0
M  V30 2421 H 435.435 8.12039 -0.792769 0
M  V30 2422 P 439.397 8.91 2.44069e-12 0
M  V30 2423 O 439.617 10.1726 0.733694 0
M  V30 2424 O 440.187 8.73148 -1.23936 0
M  V30 2425 O 439.647 7.66872 0.971405 0
M  V30 2426 C 438.707 7.42309 2.04641 0
M  V30 2427 C 439.437 6.86059 3.24661 0
M  V30 2428 O 439.647 5.42847 3.03646 0
M  V30 2429 C 440.837 7.41196 3.50753 0
M  V30 2430 O 441.227 7.27073 4.86816 0
M  V30 2431 C 441.717 6.5273 2.63741 0
M  V30 2432 C 441.007 5.1842 2.73198 0
M  V30 2433 N 441.057 4.38762 1.4784 0
M  V30 2434 H 438.218 8.36803 2.32493 0
M  V30 2435 H 437.948 6.70197 1.71129 0
M  V30 2436 H 438.815 7.03551 4.13168 0
M  V30 2437 P 442.777 7.20834 5.23717 0
M  V30 2438 O 442.997 7.80006 6.57415 0
M  V30 2439 O 443.567 7.79416 4.13051 0
M  V30 2440 O 443.027 5.63315 5.29344 0
M  V30 2441 C 442.087 4.80318 6.01954 0
M  V30 2442 C 442.817 3.64202 6.65911 0
M  V30 2443 O 443.027 2.60736 5.64823 0
M  V30 2444 C 444.217 3.93521 7.19518 0
M  V30 2445 O 444.607 3.02071 8.21205 0
M  V30 2446 C 445.097 3.73047 5.97036 0
M  V30 2447 C 444.387 2.58828 5.25741 0
M  V30 2448 N 444.437 2.68068 3.77503 0
M  V30 2449 H 441.599 5.40394 6.8003 0
M  V30 2450 H 441.327 4.41741 5.32532 0
M  V30 2451 H 442.195 3.26371 7.47889 0
M  V30 2452 H 444.85 1.64007 5.56746 0
M  V30 2453 H 445.13 4.63439 5.3432 0
M  V30 2454 H 446.121 3.44776 6.25925 0
M  V30 2455 H 444.287 4.96707 7.57347 0
M  V30 2456 P 446.157 2.75334 8.47391 0
M  V30 2457 O 446.377 2.44571 9.90142 0
M  V30 2458 O 446.947 3.87688 7.92115 0
M  V30 2459 O 446.407 1.4459 7.59357 0
M  V30 2460 C 445.467 0.347608 7.69215 0
M  V30 2461 C 446.197 -0.96767 7.52806 0
M  V30 2462 O 446.407 -1.21036 6.1011 0
M  V30 2463 C 447.597 -1.04544 8.13308 0
M  V30 2464 O 447.987 -2.38311 8.41922 0
M  V30 2465 C 448.477 -0.491279 7.02284 0
M  V30 2466 C 447.767 -0.996264 5.77469 0
M  V30 2467 N 447.817 -0.0501916 4.62973 0
M  V30 2468 H 444.978 0.374722 8.67691 0
M  V30 2469 H 444.708 0.443485 6.90277 0
M  V30 2470 H 445.575 -1.75537 7.96793 0
M  V30 2471 P 449.537 -2.75334 8.47391 0
M  V30 2472 O 449.757 -3.84128 9.44797 0
M  V30 2473 O 450.327 -1.51947 8.68712 0
M  V30 2474 O 449.787 -3.29363 6.99321 0
M  V30 2475 C 448.847 -4.24011 6.4274 0
M  V30 2476 C 449.577 -5.20775 5.52155 0
M  V30 2477 O 449.787 -4.56534 4.22446 0
M  V30 2478 C 450.977 -5.62629 5.96531 0
M  V30 2479 O 451.367 -6.87667 5.41053 0
M  V30 2480 C 451.857 -4.52537 5.39283 0
M  V30 2481 C 451.147 -4.20027 4.08623 0
M  V30 2482 N 451.197 -2.76189 3.71603 0
M  V30 2483 H 448.358 -4.797 7.24003 0
M  V30 2484 H 448.088 -3.69856 5.84513 0
M  V30 2485 H 448.955 -6.10356 5.41441 0
M  V30 2486 P 452.917 -7.20834 5.23717 0
M  V30 2487 O 453.137 -8.66104 5.38572 0
M  V30 2488 O 453.707 -6.33544 6.1349 0
M  V30 2489 O 453.167 -6.7751 3.72168 0
M  V30 2490 C 452.227 -7.20825 2.7076 0
M  V30 2491 C 452.957 -7.45864 1.40599 0
M  V30 2492 O 453.167 -6.17651 0.734225 0
M  V30 2493 C 454.357 -8.05808 1.51899 0
M  V30 2494 O 454.747 -8.74358 0.335205 0
M  V30 2495 C 455.237 -6.83093 1.70294 0
M  V30 2496 C 454.527 -5.79992 0.836974 0
M  V30 2497 N 454.577 -4.41864 1.38293 0
M  V30 2498 C 454.497 -3.99538 2.69438 0
M  V30 2499 N 454.577 -2.69909 2.84277 0
M  V30 2500 C 454.717 -2.21719 1.5408 0
M  V30 2501 C 454.847 -0.891712 1.06628 0
M  V30 2502 N 454.967 -0.856846 -0.334985 0
M  V30 2503 C 454.967 -1.9641 -1.15789 0
M  V30 2504 N 455.097 -1.72708 -2.46522 0
M  V30 2505 N 454.837 -3.21165 -0.713741 0
M  V30 2506 C 454.717 -3.26797 0.639748 0
M  V30 2507 H 451.738 -8.13644 3.0377 0
M  V30 2508 H 451.468 -6.42788 2.55485 0
M  V30 2509 H 452.335 -8.12039 0.792769 0
M  V30 2510 P 456.297 -8.91 -2.59788e-12 0
M  V30 2511 O 456.517 -10.1746 -0.733838 0
M  V30 2512 O 457.087 -8.73346 1.23964 0
M  V30 2513 O 456.547 -7.66872 -0.971405 0
M  V30 2514 C 455.607 -7.42405 -2.04668 0
M  V30 2515 C 456.337 -6.86059 -3.24661 0
M  V30 2516 O 456.547 -5.42934 -3.03695 0
M  V30 2517 C 457.737 -7.41287 -3.50796 0
M  V30 2518 O 458.127 -7.27073 -4.86816 0
M  V30 2519 C 458.617 -6.5273 -2.63741 0
M  V30 2520 C 457.907 -5.1842 -2.73198 0
M  V30 2521 N 457.957 -4.38762 -1.4784 0
M  V30 2522 C 457.877 -4.83651 -0.183876 0
M  V30 2523 N 457.947 -3.88759 0.699393 0
M  V30 2524 C 458.097 -2.7404 -0.0575568 0
M  V30 2525 C 458.227 -1.37902 0.293928 0
M  V30 2526 N 458.237 -0.938021 1.54797 0
M  V30 2527 N 458.347 -0.491817 -0.70549 0
M  V30 2528 C 458.337 -0.931735 -1.95979 0
M  V30 2529 N 458.217 -2.16017 -2.41481 0
M  V30 2530 C 458.097 -3.02547 -1.39121 0
M  V30 2531 H 455.119 -8.36899 -2.3252 0
M  V30 2532 H 454.847 -6.70391 -1.71179 0
M  V30 2533 H 455.715 -7.03638 -4.13219 0
M  V30 2534 H 458.37 -4.59931 -3.54016 0
M  V30 2535 H 458.65 -6.88995 -1.59871 0
M  V30 2536 H 459.641 -6.4684 -3.0373 0
M  V30 2537 H 457.807 -8.47002 -3.20749 0
M  V30 2538 H 457.766 -5.8885 0.0765548 0
M  V30 2539 H 458.147 -1.60276 2.32875 0
M  V30 2540 H 458.336 0.0699355 1.73859 0
M  V30 2541 H 458.444 -0.165507 -2.71897 0
M  V30 2542 P 459.677 -7.20834 -5.23717 0
M  V30 2543 O 459.897 -7.79853 -6.57286 0
M  V30 2544 O 460.467 -7.79239 -4.12957 0
M  V30 2545 O 459.927 -5.63315 -5.29344 0
M  V30 2546 C 458.987 -4.80255 -6.01876 0
M  V30 2547 C 459.717 -3.64202 -6.65911 0
M  V30 2548 O 459.927 -2.60694 -5.64732 0
M  V30 2549 C 461.117 -3.93473 -7.1943 0
M  V30 2550 O 461.507 -3.02071 -8.21205 0
M  V30 2551 C 461.997 -3.73047 -5.97036 0
M  V30 2552 C 461.287 -2.58828 -5.25741 0
M  V30 2553 N 461.337 -2.68068 -3.77503 0
M  V30 2554 H 458.498 -5.40332 -6.79951 0
M  V30 2555 H 458.228 -4.41613 -5.32378 0
M  V30 2556 H 459.095 -3.26331 -7.47797 0
M  V30 2557 P 463.057 -2.75334 -8.47391 0
M  V30 2558 O 463.277 -2.44571 -9.90142 0
M  V30 2559 O 463.847 -3.87688 -7.92115 0
M  V30 2560 O 463.307 -1.4459 -7.59357 0
M  V30 2561 C 462.367 -0.347608 -7.69215 0
M  V30 2562 C 463.097 0.96767 -7.52806 0
M  V30 2563 O 463.307 1.21036 -6.1011 0
M  V30 2564 C 464.497 1.04544 -8.13308 0
M  V30 2565 O 464.887 2.38311 -8.41922 0
M  V30 2566 C 465.377 0.491279 -7.02284 0
M  V30 2567 C 464.667 0.996264 -5.77469 0
M  V30 2568 N 464.717 0.0501916 -4.62973 0
M  V30 2569 H 461.878 -0.374722 -8.67691 0
M  V30 2570 H 461.608 -0.443485 -6.90277 0
M  V30 2571 H 462.475 1.75537 -7.96793 0
M  V30 2572 P 466.437 2.75334 -8.47391 0
M  V30 2573 O 466.657 3.84204 -9.44982 0
M  V30 2574 O 467.227 1.51982 -8.68909 0
M  V30 2575 O 466.687 3.29363 -6.99321 0
M  V30 2576 C 465.747 4.24066 -6.42823 0
M  V30 2577 C 466.477 5.20775 -5.52155 0
M  V30 2578 O 466.687 4.56607 -4.22514 0
M  V30 2579 C 467.877 5.62697 -5.96604 0
M  V30 2580 O 468.267 6.87667 -5.41053 0
M  V30 2581 C 468.757 4.52537 -5.39283 0
M  V30 2582 C 468.047 4.20027 -4.08623 0
M  V30 2583 N 468.097 2.76189 -3.71603 0
M  V30 2584 C 468.017 1.66944 -4.54297 0
M  V30 2585 N 468.087 0.536169 -3.91344 0
M  V30 2586 C 468.237 0.901569 -2.58849 0
M  V30 2587 C 468.367 0.146599 -1.40236 0
M  V30 2588 N 468.377 -1.18234 -1.37046 0
M  V30 2589 N 468.487 0.822941 -0.249738 0
M  V30 2590 C 468.477 2.15179 -0.280525 0
M  V30 2591 N 468.357 2.96414 -1.30822 0
M  V30 2592 C 468.237 2.25804 -2.44748 0
M  V30 2593 H 465.259 4.79756 -7.24086 0
M  V30 2594 H 464.987 3.69963 -5.84682 0
M  V30 2595 H 465.855 6.10431 -5.41508 0
M  V30 2596 H 468.51 4.78816 -3.28024 0
M  V30 2597 H 468.79 3.64957 -6.05871 0
M  V30 2598 H 469.781 4.88748 -5.21323 0
M  V30 2599 H 467.947 5.66789 -7.0643 0
M  V30 2600 H 467.906 1.74684 -5.62396 0
M  V30 2601 H 468.287 -1.71949 -2.24394 0
M  V30 2602 H 468.476 -1.67511 -0.470742 0
M  V30 2603 H 468.584 2.63704 0.6828 0
M  V30 2604 P 469.817 7.20834 -5.23717 0
M  V30 2605 O 470.037 8.66104 -5.38572 0
M  V30 2606 O 470.607 6.33544 -6.1349 0
M  V30 2607 O 470.067 6.7751 -3.72168 0
M  V30 2608 C 469.127 7.20825 -2.7076 0
M  V30 2609 C 469.857 7.45864 -1.40599 0
M  V30 2610 O 470.067 6.17651 -0.734225 0
M  V30 2611 C 471.257 8.05808 -1.51899 0
M  V30 2612 O 471.647 8.74358 -0.335205 0
M  V30 2613 C 472.137 6.83093 -1.70294 0
M  V30 2614 C 471.427 5.79992 -0.836974 0
M  V30 2615 N 471.477 4.41864 -1.38293 0
M  V30 2616 C 471.397 3.99538 -2.69438 0
M  V30 2617 N 471.477 2.69909 -2.84277 0
M  V30 2618 C 471.617 2.21719 -1.5408 0
M  V30 2619 C 471.747 0.891712 -1.06628 0
M  V30 2620 O 471.767 -0.161298 -1.70137 0
M  V30 2621 N 471.867 0.856846 0.334985 0
M  V30 2622 C 471.867 1.9641 1.15789 0
M  V30 2623 N 471.997 1.72708 2.46522 0
M  V30 2624 N 471.737 3.21165 0.713741 0
M  V30 2625 C 471.617 3.26797 -0.639748 0
M  V30 2626 H 468.638 8.13644 -3.0377 0
M  V30 2627 H 468.368 6.42788 -2.55485 0
M  V30 2628 H 469.235 8.12039 -0.792769 0
M  V30 2629 H 471.89 5.80061 0.166416 0
M  V30 2630 H 472.169 6.51287 -2.75604 0
M  V30 2631 H 473.161 7.01734 -1.34462 0
M  V30 2632 H 471.327 8.73674 -2.38337 0
M  V30 2633 H 471.278 4.68207 -3.53221 0
M  V30 2634 H 471.96 -0.0398818 0.767965 0
M  V30 2635 H 471.997 2.50995 3.13503 0
M  V30 2636 H 472.098 0.759148 2.80716 0
M  V30 2637 P 473.197 8.91 2.75506e-12 0
M  V30 2638 O 473.417 10.1726 0.733694 0
M  V30 2639 O 473.987 8.73148 -1.23936 0
M  V30 2640 O 473.447 7.66872 0.971405 0
M  V30 2641 C 472.507 7.42309 2.04641 0
M  V30 2642 C 473.237 6.86059 3.24661 0
M  V30 2643 O 473.447 5.42847 3.03646 0
M  V30 2644 C 474.637 7.41196 3.50753 0
M  V30 2645 O 475.027 7.27073 4.86816 0
M  V30 2646 C 475.517 6.5273 2.63741 0
M  V30 2647 C 474.807 5.1842 2.73198 0
M  V30 2648 N 474.857 4.38762 1.4784 0
M  V30 2649 H 472.018 8.36803 2.32493 0
M  V30 2650 H 471.748 6.70197 1.71129 0
M  V30 2651 H 472.615 7.03551 4.13168 0
M  V30 2652 P 476.577 7.20834 5.23717 0
M  V30 2653 O 476.797 7.79853 6.57286 0
M  V30 2654 O 477.367 7.79239 4.12957 0
M  V30 2655 O 476.827 5.63315 5.29344 0
M  V30 2656 C 475.887 4.80255 6.01876 0
M  V30 2657 C 476.617 3.64202 6.65911 0
M  V30 2658 O 476.827 2.60694 5.64732 0
M  V30 2659 C 478.017 3.93473 7.1943 0
M  V30 2660 O 478.407 3.02071 8.21205 0
M  V30 2661 C 478.897 3.73047 5.97036 0
M  V30 2662 C 478.187 2.58828 5.25741 0
M  V30 2663 N 478.237 2.68068 3.77503 0
M  V30 2664 C 478.157 3.79715 2.96723 0
M  V30 2665 N 478.237 3.5377 1.68852 0
M  V30 2666 C 478.377 2.15054 1.63254 0
M  V30 2667 C 478.507 1.28964 0.518571 0
M  V30 2668 O 478.527 1.56826 -0.679156 0
M  V30 2669 N 478.627 -0.0538097 0.918425 0
M  V30 2670 C 478.627 -0.494275 2.22578 0
M  V30 2671 N 478.757 -1.81086 2.40434 0
M  V30 2672 N 478.497 0.313645 3.27502 0
M  V30 2673 C 478.377 1.61829 2.91033 0
M  V30 2674 H 475.398 5.40332 6.79951 0
M  V30 2675 H 475.128 4.41613 5.32378 0
M  V30 2676 H 475.995 3.26331 7.47797 0
M  V30 2677 H 478.65 1.63422 5.56814 0
M  V30 2678 H 478.929 4.63374 5.34244 0
M  V30 2679 H 479.921 3.44728 6.25838 0
M  V30 2680 H 478.087 4.96652 7.57263 0
M  V30 2681 H 478.038 4.80617 3.3614 0
M  V30 2682 H 478.72 -0.742702 0.199384 0
M  V30 2683 H 478.757 -2.20598 3.35588 0
M  V30 2684 H 478.858 -2.43518 1.58945 0
M  V30 2685 P 479.957 2.75334 8.47391 0
M  V30 2686 O 480.177 2.44571 9.90142 0
M  V30 2687 O 480.747 3.87688 7.92115 0
M  V30 2688 O 480.207 1.4459 7.59357 0
M  V30 2689 C 479.267 0.347608 7.69215 0
M  V30 2690 C 479.997 -0.96767 7.52806 0
M  V30 2691 O 480.207 -1.21036 6.1011 0
M  V30 2692 C 481.397 -1.04544 8.13308 0
M  V30 2693 O 481.787 -2.38311 8.41922 0
M  V30 2694 C 482.277 -0.491279 7.02284 0
M  V30 2695 C 481.567 -0.996264 5.77469 0
M  V30 2696 N 481.617 -0.0501916 4.62973 0
M  V30 2697 H 478.778 0.374722 8.67691 0
M  V30 2698 H 478.508 0.443485 6.90277 0
M  V30 2699 H 479.375 -1.75537 7.96793 0
M  V30 2700 P 483.337 -2.75334 8.47391 0
M  V30 2701 O 483.557 -3.84128 9.44797 0
M  V30 2702 O 484.127 -1.51947 8.68712 0
M  V30 2703 O 483.587 -3.29363 6.99321 0
M  V30 2704 C 482.647 -4.24011 6.4274 0
M  V30 2705 C 483.377 -5.20775 5.52155 0
M  V30 2706 O 483.587 -4.56534 4.22446 0
M  V30 2707 C 484.777 -5.62629 5.96531 0
M  V30 2708 O 485.167 -6.87667 5.41053 0
M  V30 2709 C 485.657 -4.52537 5.39283 0
M  V30 2710 C 484.947 -4.20027 4.08623 0
M  V30 2711 N 484.997 -2.76189 3.71603 0
M  V30 2712 H 482.158 -4.797 7.24003 0
M  V30 2713 H 481.888 -3.69856 5.84513 0
M  V30 2714 H 482.755 -6.10356 5.41441 0
M  V30 2715 P 486.717 -7.20834 5.23717 0
M  V30 2716 O 486.937 -8.66104 5.38572 0
M  V30 2717 O 487.507 -6.33544 6.1349 0
M  V30 2718 O 486.967 -6.7751 3.72168 0
M  V30 2719 C 486.027 -7.20825 2.7076 0
M  V30 2720 C 486.757 -7.45864 1.40599 0
M  V30 2721 O 486.967 -6.17651 0.734225 0
M  V30 2722 C 488.157 -8.05808 1.51899 0
M  V30 2723 O 488.547 -8.74358 0.335205 0
M  V30 2724 C 489.037 -6.83093 1.70294 0
M  V30 2725 C 488.327 -5.79992 0.836974 0
M  V30 2726 N 488.377 -4.41864 1.38293 0
M  V30 2727 H 485.538 -8.13644 3.0377 0
M  V30 2728 H 485.268 -6.42788 2.55485 0
M  V30 2729 H 486.135 -8.12039 0.792769 0
M  V30 2730 P 490.097 -8.91 -2.91224e-12 0
M  V30 2731 O 490.317 -10.1726 -0.733694 0
M  V30 2732 O 490.887 -8.73148 1.23936 0
M  V30 2733 O 490.347 -7.66872 -0.971405 0
M  V30 2734 C 489.407 -7.42309 -2.04641 0
M  V30 2735 C 490.137 -6.86059 -3.24661 0
M  V30 2736 O 490.347 -5.42847 -3.03646 0
M  V30 2737 C 491.537 -7.41196 -3.50753 0
M  V30 2738 O 491.927 -7.27073 -4.86816 0
M  V30 2739 C 492.417 -6.5273 -2.63741 0
M  V30 2740 C 491.707 -5.1842 -2.73198 0
M  V30 2741 N 491.757 -4.38762 -1.4784 0
M  V30 2742 H 488.918 -8.36803 -2.32493 0
M  V30 2743 H 488.648 -6.70197 -1.71129 0
M  V30 2744 H 489.515 -7.03551 -4.13168 0
M  V30 2745 P 493.477 -7.20834 -5.23717 0
M  V30 2746 O 493.697 -7.79853 -6.57286 0
M  V30 2747 O 494.267 -7.79239 -4.12957 0
M  V30 2748 O 493.727 -5.63315 -5.29344 0
M  V30 2749 C 492.787 -4.80255 -6.01876 0
M  V30 2750 C 493.517 -3.64202 -6.65911 0
M  V30 2751 O 493.727 -2.60694 -5.64732 0
M  V30 2752 C 494.917 -3.93473 -7.1943 0
M  V30 2753 O 495.307 -3.02071 -8.21205 0
M  V30 2754 C 495.797 -3.73047 -5.97036 0
M  V30 2755 C 495.087 -2.58828 -5.25741 0
M  V30 2756 N 495.137 -2.68068 -3.77503 0
M  V30 2757 H 492.298 -5.40332 -6.79951 0
M  V30 2758 H 492.028 -4.41613 -5.32378 0
M  V30 2759 H 492.895 -3.26331 -7.47797 0
M  V30 2760 P 496.857 -2.75334 -8.47391 0
M  V30 2761 O 497.077 -2.44571 -9.90142 0
M  V30 2762 O 497.647 -3.87688 -7.92115 0
M  V30 2763 O 497.107 -1.4459 -7.59357 0
M  V30 2764 C 496.167 -0.347608 -7.69215 0
M  V30 2765 C 496.897 0.96767 -7.52806 0
M  V30 2766 O 497.107 1.21036 -6.1011 0
M  V30 2767 C 498.297 1.04544 -8.13308 0
M  V30 2768 O 498.687 2.38311 -8.41922 0
M  V30 2769 C 499.177 0.491279 -7.02284 0
M  V30 2770 C 498.467 0.996264 -5.77469 0
M  V30 2771 N 498.517 0.0501916 -4.62973 0
M  V30 2772 H 495.678 -0.374722 -8.67691 0
M  V30 2773 H 495.408 -0.443485 -6.90277 0
M  V30 2774 H 496.275 1.75537 -7.96793 0
M  V30 2775 P 500.237 2.75334 -8.47391 0
M  V30 2776 O 500.457 3.84204 -9.44982 0
M  V30 2777 O 501.027 1.51982 -8.68909 0
M  V30 2778 O 500.487 3.29363 -6.99321 0
M  V30 2779 C 499.547 4.24066 -6.42823 0
M  V30 2780 C 500.277 5.20775 -5.52155 0
M  V30 2781 O 500.487 4.56607 -4.22514 0
M  V30 2782 C 501.677 5.62697 -5.96604 0
M  V30 2783 O 502.067 6.87667 -5.41053 0
M  V30 2784 C 502.557 4.52537 -5.39283 0
M  V30 2785 C 501.847 4.20027 -4.08623 0
M  V30 2786 N 501.897 2.76189 -3.71603 0
M  V30 2787 H 499.059 4.79756 -7.24086 0
M  V30 2788 H 498.787 3.69963 -5.84682 0
M  V30 2789 H 499.655 6.10431 -5.41508 0
M  V30 2790 H 502.31 4.78816 -3.28024 0
M  V30 2791 H 502.59 3.64957 -6.05871 0
M  V30 2792 H 503.581 4.88748 -5.21323 0
M  V30 2793 H 501.747 5.66789 -7.0643 0
M  V30 2794 P 503.617 7.20834 -5.23717 0
M  V30 2795 O 503.837 8.66104 -5.38572 0
M  V30 2796 O 504.407 6.33544 -6.1349 0
M  V30 2797 O 503.867 6.7751 -3.72168 0
M  V30 2798 C 502.927 7.20825 -2.7076 0
M  V30 2799 C 503.657 7.45864 -1.40599 0
M  V30 2800 O 503.867 6.17651 -0.734225 0
M  V30 2801 C 505.057 8.05808 -1.51899 0
M  V30 2802 O 505.447 8.74358 -0.335205 0
M  V30 2803 C 505.937 6.83093 -1.70294 0
M  V30 2804 C 505.227 5.79992 -0.836974 0
M  V30 2805 N 505.277 4.41864 -1.38293 0
M  V30 2806 H 502.438 8.13644 -3.0377 0
M  V30 2807 H 502.168 6.42788 -2.55485 0
M  V30 2808 H 503.035 8.12039 -0.792769 0
M  V30 2809 P 506.997 8.91 3.06942e-12 0
M  V30 2810 O 507.217 10.1726 0.733694 0
M  V30 2811 O 507.787 8.73148 -1.23936 0
M  V30 2812 O 507.247 7.66872 0.971405 0
M  V30 2813 C 506.307 7.42309 2.04641 0
M  V30 2814 C 507.037 6.86059 3.24661 0
M  V30 2815 O 507.247 5.42847 3.03646 0
M  V30 2816 C 508.437 7.41196 3.50753 0
M  V30 2817 O 508.827 7.27073 4.86816 0
M  V30 2818 C 509.317 6.5273 2.63741 0
M  V30 2819 C 508.607 5.1842 2.73198 0
M  V30 2820 N 508.657 4.38762 1.4784 0
M  V30 2821 H 505.818 8.36803 2.32493 0
M  V30 2822 H 505.548 6.70197 1.71129 0
M  V30 2823 H 506.415 7.03551 4.13168 0
M  V30 2824 P 510.377 7.20834 5.23717 0
M  V30 2825 O 510.597 7.79853 6.57286 0
M  V30 2826 O 511.167 7.79239 4.12957 0
M  V30 2827 O 510.627 5.63315 5.29344 0
M  V30 2828 C 509.687 4.80255 6.01876 0
M  V30 2829 C 510.417 3.64202 6.65911 0
M  V30 2830 O 510.627 2.60694 5.64732 0
M  V30 2831 C 511.817 3.93473 7.1943 0
M  V30 2832 O 512.207 3.02071 8.21205 0
M  V30 2833 C 512.697 3.73047 5.97036 0
M  V30 2834 C 511.987 2.58828 5.25741 0
M  V30 2835 N 512.037 2.68068 3.77503 0
M  V30 2836 H 509.198 5.40332 6.79951 0
M  V30 2837 H 508.928 4.41613 5.32378 0
M  V30 2838 H 509.795 3.26331 7.47797 0
M  V30 2839 P 513.757 2.75334 8.47391 0
M  V30 2840 O 513.977 2.44571 9.90142 0
M  V30 2841 O 514.547 3.87688 7.92115 0
M  V30 2842 O 514.007 1.4459 7.59357 0
M  V30 2843 C 513.067 0.347608 7.69215 0
M  V30 2844 C 513.797 -0.96767 7.52806 0
M  V30 2845 O 514.007 -1.21036 6.1011 0
M  V30 2846 C 515.197 -1.04544 8.13308 0
M  V30 2847 O 515.587 -2.38311 8.41922 0
M  V30 2848 C 516.077 -0.491279 7.02284 0
M  V30 2849 C 515.367 -0.996264 5.77469 0
M  V30 2850 N 515.417 -0.0501916 4.62973 0
M  V30 2851 H 512.578 0.374722 8.67691 0
M  V30 2852 H 512.308 0.443485 6.90277 0
M  V30 2853 H 513.175 -1.75537 7.96793 0
M  V30 2854 P 517.137 -2.75334 8.47391 0
M  V30 2855 O 517.357 -3.84128 9.44797 0
M  V30 2856 O 517.927 -1.51947 8.68712 0
M  V30 2857 O 517.387 -3.29363 6.99321 0
M  V30 2858 C 516.447 -4.24011 6.4274 0
M  V30 2859 C 517.177 -5.20775 5.52155 0
M  V30 2860 O 517.387 -4.56534 4.22446 0
M  V30 2861 C 518.577 -5.62629 5.96531 0
M  V30 2862 O 518.967 -6.87667 5.41053 0
M  V30 2863 C 519.457 -4.52537 5.39283 0
M  V30 2864 C 518.747 -4.20027 4.08623 0
M  V30 2865 N 518.797 -2.76189 3.71603 0
M  V30 2866 H 515.958 -4.797 7.24003 0
M  V30 2867 H 515.688 -3.69856 5.84513 0
M  V30 2868 H 516.555 -6.10356 5.41441 0
M  V30 2869 P 520.517 -7.20834 5.23717 0
M  V30 2870 O 520.737 -8.66104 5.38572 0
M  V30 2871 O 521.307 -6.33544 6.1349 0
M  V30 2872 O 520.767 -6.7751 3.72168 0
M  V30 2873 C 519.827 -7.20825 2.7076 0
M  V30 2874 C 520.557 -7.45864 1.40599 0
M  V30 2875 O 520.767 -6.17651 0.734225 0
M  V30 2876 C 521.957 -8.05808 1.51899 0
M  V30 2877 O 522.347 -8.74358 0.335205 0
M  V30 2878 C 522.837 -6.83093 1.70294 0
M  V30 2879 C 522.127 -5.79992 0.836974 0
M  V30 2880 N 522.177 -4.41864 1.38293 0
M  V30 2881 H 519.338 -8.13644 3.0377 0
M  V30 2882 H 519.068 -6.42788 2.55485 0
M  V30 2883 H 519.935 -8.12039 0.792769 0
M  V30 2884 P 523.897 -8.91 -3.22661e-12 0
M  V30 2885 O 524.117 -10.1726 -0.733694 0
M  V30 2886 O 524.687 -8.73148 1.23936 0
M  V30 2887 O 524.147 -7.66872 -0.971405 0
M  V30 2888 C 523.207 -7.42309 -2.04641 0
M  V30 2889 C 523.937 -6.86059 -3.24661 0
M  V30 2890 O 524.147 -5.42847 -3.03646 0
M  V30 2891 C 525.337 -7.41196 -3.50753 0
M  V30 2892 O 525.727 -7.27073 -4.86816 0
M  V30 2893 C 526.217 -6.5273 -2.63741 0
M  V30 2894 C 525.507 -5.1842 -2.73198 0
M  V30 2895 N 525.557 -4.38762 -1.4784 0
M  V30 2896 H 522.718 -8.36803 -2.32493 0
M  V30 2897 H 522.448 -6.70197 -1.71129 0
M  V30 2898 H 523.315 -7.03551 -4.13168 0
M  V30 2899 P 527.277 -7.20834 -5.23717 0
M  V30 2900 O 527.497 -7.79853 -6.57286 0
M  V30 2901 O 528.067 -7.79239 -4.12957 0
M  V30 2902 O 527.527 -5.63315 -5.29344 0
M  V30 2903 C 526.587 -4.80255 -6.01876 0
M  V30 2904 C 527.317 -3.64202 -6.65911 0
M  V30 2905 O 527.527 -2.60694 -5.64732 0
M  V30 2906 C 528.717 -3.93473 -7.1943 0
M  V30 2907 O 529.107 -3.02071 -8.21205 0
M  V30 2908 C 529.597 -3.73047 -5.97036 0
M  V30 2909 C 528.887 -2.58828 -5.25741 0
M  V30 2910 N 528.937 -2.68068 -3.77503 0
M  V30 2911 H 526.098 -5.40332 -6.79951 0
M  V30 2912 H 525.828 -4.41613 -5.32378 0
M  V30 2913 H 526.695 -3.26331 -7.47797 0
M  V30 2914 P 530.657 -2.75334 -8.47391 0
M  V30 2915 O 530.877 -2.44571 -9.90142 0
M  V30 2916 O 531.447 -3.87688 -7.92115 0
M  V30 2917 O 530.907 -1.4459 -7.59357 0
M  V30 2918 C 529.967 -0.347608 -7.69215 0
M  V30 2919 C 530.697 0.96767 -7.52806 0
M  V30 2920 O 530.907 1.21036 -6.1011 0
M  V30 2921 C 532.097 1.04544 -8.13308 0
M  V30 2922 O 532.487 2.38311 -8.41922 0
M  V30 2923 C 532.977 0.491279 -7.02284 0
M  V30 2924 C 532.267 0.996264 -5.77469 0
M  V30 2925 N 532.317 0.0501916 -4.62973 0
M  V30 2926 H 529.478 -0.374722 -8.67691 0
M  V30 2927 H 529.208 -0.443485 -6.90277 0
M  V30 2928 H 530.075 1.75537 -7.96793 0
M  V30 2929 P 534.037 2.75334 -8.47391 0
M  V30 2930 O 534.257 3.84204 -9.44982 0
M  V30 2931 O 534.827 1.51982 -8.68909 0
M  V30 2932 O 534.287 3.29363 -6.99321 0
M  V30 2933 C 533.347 4.24066 -6.42823 0
M  V30 2934 C 534.077 5.20775 -5.52155 0
M  V30 2935 O 534.287 4.56607 -4.22514 0
M  V30 2936 C 535.477 5.62697 -5.96604 0
M  V30 2937 O 535.867 6.87667 -5.41053 0
M  V30 2938 C 536.357 4.52537 -5.39283 0
M  V30 2939 C 535.647 4.20027 -4.08623 0
M  V30 2940 N 535.697 2.76189 -3.71603 0
M  V30 2941 H 532.859 4.79756 -7.24086 0
M  V30 2942 H 532.587 3.69963 -5.84682 0
M  V30 2943 H 533.455 6.10431 -5.41508 0
M  V30 2944 H 536.11 4.78816 -3.28024 0
M  V30 2945 H 536.39 3.64957 -6.05871 0
M  V30 2946 H 537.381 4.88748 -5.21323 0
M  V30 2947 H 535.547 5.66789 -7.0643 0
M  V30 2948 P 537.417 7.20834 -5.23717 0
M  V30 2949 O 537.637 8.66104 -5.38572 0
M  V30 2950 O 538.207 6.33544 -6.1349 0
M  V30 2951 O 537.667 6.7751 -3.72168 0
M  V30 2952 C 536.727 7.20825 -2.7076 0
M  V30 2953 C 537.457 7.45864 -1.40599 0
M  V30 2954 O 537.667 6.17651 -0.734225 0
M  V30 2955 C 538.857 8.05808 -1.51899 0
M  V30 2956 O 539.247 8.74358 -0.335205 0
M  V30 2957 C 539.737 6.83093 -1.70294 0
M  V30 2958 C 539.027 5.79992 -0.836974 0
M  V30 2959 N 539.077 4.41864 -1.38293 0
M  V30 2960 H 536.238 8.13644 -3.0377 0
M  V30 2961 H 535.968 6.42788 -2.55485 0
M  V30 2962 H 536.835 8.12039 -0.792769 0
M  V30 2963 P 540.797 8.91 3.38379e-12 0
M  V30 2964 O 541.017 10.1726 0.733694 0
M  V30 2965 O 541.587 8.73148 -1.23936 0
M  V30 2966 O 541.047 7.66872 0.971405 0
M  V30 2967 C 540.107 7.42309 2.04641 0
M  V30 2968 C 540.837 6.86059 3.24661 0
M  V30 2969 O 541.047 5.42847 3.03646 0
M  V30 2970 C 542.237 7.41196 3.50753 0
M  V30 2971 O 542.627 7.27073 4.86816 0
M  V30 2972 C 543.117 6.5273 2.63741 0
M  V30 2973 C 542.407 5.1842 2.73198 0
M  V30 2974 N 542.457 4.38762 1.4784 0
M  V30 2975 H 539.618 8.36803 2.32493 0
M  V30 2976 H 539.348 6.70197 1.71129 0
M  V30 2977 H 540.215 7.03551 4.13168 0
M  V30 2978 P 544.177 7.20834 5.23717 0
M  V30 2979 O 544.397 7.80006 6.57415 0
M  V30 2980 O 544.967 7.79416 4.13051 0
M  V30 2981 O 544.427 5.63315 5.29344 0
M  V30 2982 C 543.487 4.80318 6.01954 0
M  V30 2983 C 544.217 3.64202 6.65911 0
M  V30 2984 O 544.427 2.60736 5.64823 0
M  V30 2985 C 545.617 3.93521 7.19518 0
M  V30 2986 O 546.007 3.02071 8.21205 0
M  V30 2987 C 546.497 3.73047 5.97036 0
M  V30 2988 C 545.787 2.58828 5.25741 0
M  V30 2989 N 545.837 2.68068 3.77503 0
M  V30 2990 C 545.757 3.80474 2.99159 0
M  V30 2991 N 545.827 3.55622 1.71925 0
M  V30 2992 C 545.977 2.1832 1.65733 0
M  V30 2993 C 546.107 1.28842 0.572777 0
M  V30 2994 N 546.117 1.66875 -0.70098 0
M  V30 2995 N 546.227 -0.016788 0.859836 0
M  V30 2996 C 546.217 -0.398145 2.13316 0
M  V30 2997 N 546.097 0.328224 3.22333 0
M  V30 2998 C 545.977 1.62992 2.90383 0
M  V30 2999 H 542.999 5.40394 6.8003 0
M  V30 3000 H 542.727 4.41741 5.32532 0
M  V30 3001 H 543.595 3.26371 7.47889 0
M  V30 3002 H 546.25 1.64007 5.56746 0
M  V30 3003 H 546.53 4.63439 5.3432 0
M  V30 3004 H 547.521 3.44776 6.25925 0
M  V30 3005 H 545.687 4.96707 7.57347 0
M  V30 3006 H 545.646 4.8089 3.39924 0
M  V30 3007 H 546.027 2.66547 -0.941919 0
M  V30 3008 H 546.216 0.965341 -1.44766 0
M  V30 3009 H 546.324 -1.46427 2.29697 0
M  V30 3010 P 547.557 2.75334 8.47391 0
M  V30 3011 O 547.777 2.44571 9.90142 0
M  V30 3012 O 548.347 3.87688 7.92115 0
M  V30 3013 O 547.807 1.4459 7.59357 0
M  V30 3014 C 546.867 0.347608 7.69215 0
M  V30 3015 C 547.597 -0.96767 7.52806 0
M  V30 3016 O 547.807 -1.21036 6.1011 0
M  V30 3017 C 548.997 -1.04544 8.13308 0
M  V30 3018 O 549.387 -2.38311 8.41922 0
M  V30 3019 C 549.877 -0.491279 7.02284 0
M  V30 3020 C 549.167 -0.996264 5.77469 0
M  V30 3021 N 549.217 -0.0501916 4.62973 0
M  V30 3022 H 546.378 0.374722 8.67691 0
M  V30 3023 H 546.108 0.443485 6.90277 0
M  V30 3024 H 546.975 -1.75537 7.96793 0
M  V30 3025 H 549.256 -2.92663 7.63961 0
M  V30 3026 H 553.278 -0.0909867 -9.51056 0
M  V30 3027 O 553.158 -0.778697 -8.86988 0
M  V30 3028 P 551.717 -1.17771 -8.83182 0
M  V30 3029 O 551.497 -2.07206 -9.98732 0
M  V30 3030 O 550.927 0.0743816 -8.81969 0
M  V30 3031 O 551.467 -1.97652 -7.47304 0
M  V30 3032 C 552.407 -3.01133 -7.08783 0
M  V30 3033 C 551.677 -4.12613 -6.37049 0
M  V30 3034 O 551.467 -3.72827 -4.97879 0
M  V30 3035 C 550.277 -4.45085 -6.88694 0
M  V30 3036 O 549.887 -5.7877 -6.5624 0
M  V30 3037 C 549.397 -3.47817 -6.12078 0
M  V30 3038 C 550.107 -3.39414 -4.77697 0
M  V30 3039 N 550.057 -2.04615 -4.15333 0
M  V30 3040 H 552.896 -3.41248 -7.98759 0
M  V30 3041 H 553.168 -2.5837 -6.41742 0
M  V30 3042 H 552.3 -5.02657 -6.42673 0
M  V30 3043 P 548.337 -6.144 -6.45285 0
M  V30 3044 O 548.117 -7.54673 -6.86199 0
M  V30 3045 O 547.547 -5.12391 -7.179 0
M  V30 3046 O 548.087 -5.99158 -4.88404 0
M  V30 3047 C 549.027 -6.60062 -3.96313 0
M  V30 3048 C 548.297 -7.08259 -2.72856 0
M  V30 3049 O 548.087 -5.9427 -1.83651 0
M  V30 3050 C 546.897 -7.65087 -2.94749 0
M  V30 3051 O 546.507 -8.53963 -1.90717 0
M  V30 3052 C 546.017 -6.41069 -2.90698 0
M  V30 3053 C 546.727 -5.5528 -1.86931 0
M  V30 3054 N 546.677 -4.09575 -2.15696 0
M  V30 3055 C 546.527 -3.24249 -1.08435 0
M  V30 3056 O 546.437 -3.63946 0.0628747 0
M  V30 3057 N 546.487 -1.90009 -1.39973 0
M  V30 3058 C 546.577 -1.34884 -2.65614 0
M  V30 3059 O 546.527 -0.123716 -2.81728 0
M  V30 3060 C 546.727 -2.3145 -3.71736 0
M  V30 3061 C 546.837 -1.75913 -5.10438 0
M  V30 3062 C 546.777 -3.63518 -3.44754 0
M  V30 3063 H 549.518 -7.45402 -4.45526 0
M  V30 3064 H 549.787 -5.86062 -3.67208 0
M  V30 3065 H 548.92 -7.84412 -2.24479 0
M  V30 3066 H 546.265 -5.73358 -0.888409 0
M  V30 3067 H 545.986 -5.90877 -3.88583 0
M  V30 3068 H 544.994 -6.65867 -2.58821 0
M  V30 3069 H 546.828 -8.16248 -3.92006 0
M  V30 3070 H 546.899 -4.34551 -4.26383 0
M  V30 3071 H 545.869 -1.85471 -5.61775 0
M  V30 3072 H 547.606 -2.31364 -5.66257 0
M  V30 3073 H 547.118 -0.695936 -5.05229 0
M  V30 3074 H 546.382 -1.26277 -0.63625 0
M  V30 3075 P 544.957 -8.7635 -1.60911 0
M  V30 3076 O 544.737 -10.1388 -1.11561 0
M  V30 3077 O 544.167 -8.36503 -2.79617 0
M  V30 3078 O 544.707 -7.71806 -0.42951 0
M  V30 3079 C 545.647 -7.67148 0.673689 0
M  V30 3080 C 544.917 -7.33374 1.95559 0
M  V30 3081 O 544.707 -5.88721 2.00726 0
M  V30 3082 C 543.517 -7.92526 2.10483 0
M  V30 3083 O 543.127 -8.02971 3.47653 0
M  V30 3084 C 542.637 -6.89602 1.41652 0
M  V30 3085 C 543.347 -5.59201 1.75185 0
M  V30 3086 N 543.297 -4.58301 0.657969 0
M  V30 3087 H 546.136 -8.65116 0.777161 0
M  V30 3088 H 546.408 -6.9022 0.46725 0
M  V30 3089 H 545.54 -7.66548 2.79458 0
M  V30 3090 H 542.885 -5.16165 2.65183 0
M  V30 3091 H 542.605 -7.06433 0.329384 0
M  V30 3092 H 541.614 -6.90926 1.82021 0
M  V30 3093 H 543.448 -8.90873 1.62657 0
M  V30 3094 P 541.577 -8.03563 3.84925 0
M  V30 3095 O 541.357 -8.85821 5.0569 0
M  V30 3096 O 540.787 -8.41101 2.65469 0
M  V30 3097 O 541.327 -6.4965 4.18908 0
M  V30 3098 C 542.267 -5.81037 5.05421 0
M  V30 3099 C 541.537 -4.78366 5.89277 0
M  V30 3100 O 541.327 -3.58302 5.08433 0
M  V30 3101 C 540.137 -5.17448 6.36119 0
M  V30 3102 O 539.747 -4.45271 7.53232 0
M  V30 3103 C 539.257 -4.74639 5.19936 0
M  V30 3104 C 539.967 -3.49432 4.70418 0
M  V30 3105 N 539.917 -3.31776 3.22945 0
M  V30 3106 H 542.756 -6.54213 5.71376 0
M  V30 3107 H 543.028 -5.30492 4.44033 0
M  V30 3108 H 542.16 -4.55889 6.76652 0
M  V30 3109 P 538.197 -4.23843 7.83734 0
M  V30 3110 O 537.977 -4.19407 9.29784 0
M  V30 3111 O 537.407 -5.24426 7.09156 0
M  V30 3112 O 537.947 -2.7935 7.20758 0
M  V30 3113 C 538.887 -1.7299 7.50419 0
M  V30 3114 C 538.157 -0.406376 7.57911 0
M  V30 3115 O 537.947 0.0897726 6.21935 0
M  V30 3116 C 536.757 -0.447224 8.1878 0
M  V30 3117 O 536.367 0.825065 8.71101 0
M  V30 3118 C 535.877 -0.783801 6.99623 0
M  V30 3119 C 536.587 -0.0619192 5.85967 0
M  V30 3120 N 536.537 -0.7859 4.56281 0
M  V30 3121 H 539.376 -1.93423 8.4679 0
M  V30 3122 H 539.648 -1.68181 6.71046 0
M  V30 3123 H 538.78 0.289041 8.15388 0
M  V30 3124 P 534.817 1.17771 8.83182 0
M  V30 3125 O 534.597 2.07206 9.98732 0
M  V30 3126 O 534.027 -0.0743816 8.81969 0
M  V30 3127 O 534.567 1.97652 7.47304 0
M  V30 3128 C 535.507 3.01133 7.08783 0
M  V30 3129 C 534.777 4.12613 6.37049 0
M  V30 3130 O 534.567 3.72827 4.97879 0
M  V30 3131 C 533.377 4.45085 6.88694 0
M  V30 3132 O 532.987 5.7877 6.5624 0
M  V30 3133 C 532.497 3.47817 6.12078 0
M  V30 3134 C 533.207 3.39414 4.77697 0
M  V30 3135 N 533.157 2.04199 4.15538 0
M  V30 3136 H 535.996 3.41248 7.98759 0
M  V30 3137 H 536.268 2.57728 6.42 0
M  V30 3138 H 535.4 5.02657 6.42673 0
M  V30 3139 H 532.745 4.11708 4.08956 0
M  V30 3140 H 532.465 2.49626 6.61679 0
M  V30 3141 H 531.474 3.8662 6.00862 0
M  V30 3142 H 533.308 4.29991 7.97006 0
M  V30 3143 P 531.437 6.144 6.45285 0
M  V30 3144 O 531.217 7.54673 6.86199 0
M  V30 3145 O 530.647 5.12391 7.179 0
M  V30 3146 O 531.187 5.99158 4.88404 0
M  V30 3147 C 532.127 6.60234 3.96415 0
M  V30 3148 C 531.397 7.08259 2.72856 0
M  V30 3149 O 531.187 5.9427 1.83651 0
M  V30 3150 C 529.997 7.64886 2.9555 0
M  V30 3151 O 529.607 8.53963 1.90717 0
M  V30 3152 C 529.117 6.4116 2.90739 0
M  V30 3153 C 529.827 5.55375 1.86963 0
M  V30 3154 N 529.777 4.09664 2.15742 0
M  V30 3155 H 532.616 7.45574 4.45629 0
M  V30 3156 H 532.888 5.86232 3.67314 0
M  V30 3157 H 532.02 7.84412 2.24479 0
M  V30 3158 P 528.057 8.7635 1.60911 0
M  V30 3159 O 527.837 10.1388 1.11561 0
M  V30 3160 O 527.267 8.36503 2.79617 0
M  V30 3161 O 527.807 7.71806 0.42951 0
M  V30 3162 C 528.747 7.67148 -0.673689 0
M  V30 3163 C 528.017 7.33374 -1.95559 0
M  V30 3164 O 527.807 5.88721 -2.00726 0
M  V30 3165 C 526.617 7.92526 -2.10483 0
M  V30 3166 O 526.227 8.02971 -3.47653 0
M  V30 3167 C 525.737 6.89602 -1.41652 0
M  V30 3168 C 526.447 5.59201 -1.75185 0
M  V30 3169 N 526.397 4.58301 -0.657969 0
M  V30 3170 H 529.236 8.65116 -0.777161 0
M  V30 3171 H 529.508 6.9022 -0.46725 0
M  V30 3172 H 528.64 7.66548 -2.79458 0
M  V30 3173 H 525.985 5.16165 -2.65183 0
M  V30 3174 H 525.705 7.06433 -0.329384 0
M  V30 3175 H 524.714 6.90926 -1.82021 0
M  V30 3176 H 526.548 8.90873 -1.62657 0
M  V30 3177 P 524.677 8.03563 -3.84925 0
M  V30 3178 O 524.457 8.85821 -5.0569 0
M  V30 3179 O 523.887 8.41101 -2.65469 0
M  V30 3180 O 524.427 6.4965 -4.18908 0
M  V30 3181 C 525.367 5.81037 -5.05421 0
M  V30 3182 C 524.637 4.78366 -5.89277 0
M  V30 3183 O 524.427 3.58302 -5.08433 0
M  V30 3184 C 523.237 5.17448 -6.36119 0
M  V30 3185 O 522.847 4.45271 -7.53232 0
M  V30 3186 C 522.357 4.74639 -5.19936 0
M  V30 3187 C 523.067 3.49432 -4.70418 0
M  V30 3188 N 523.017 3.31776 -3.22945 0
M  V30 3189 H 525.856 6.54213 -5.71376 0
M  V30 3190 H 526.128 5.30492 -4.44033 0
M  V30 3191 H 525.26 4.55889 -6.76652 0
M  V30 3192 P 521.297 4.23843 -7.83734 0
M  V30 3193 O 521.077 4.19407 -9.29784 0
M  V30 3194 O 520.507 5.24426 -7.09156 0
M  V30 3195 O 521.047 2.7935 -7.20758 0
M  V30 3196 C 521.987 1.7299 -7.50419 0
M  V30 3197 C 521.257 0.406376 -7.57911 0
M  V30 3198 O 521.047 -0.0897726 -6.21935 0
M  V30 3199 C 519.857 0.447224 -8.1878 0
M  V30 3200 O 519.467 -0.825065 -8.71101 0
M  V30 3201 C 518.977 0.783801 -6.99623 0
M  V30 3202 C 519.687 0.0619192 -5.85967 0
M  V30 3203 N 519.637 0.7859 -4.56281 0
M  V30 3204 H 522.476 1.93423 -8.4679 0
M  V30 3205 H 522.748 1.68181 -6.71046 0
M  V30 3206 H 521.88 -0.289041 -8.15388 0
M  V30 3207 P 517.917 -1.17771 -8.83182 0
M  V30 3208 O 517.697 -2.07206 -9.98732 0
M  V30 3209 O 517.127 0.0743816 -8.81969 0
M  V30 3210 O 517.667 -1.97652 -7.47304 0
M  V30 3211 C 518.607 -3.01133 -7.08783 0
M  V30 3212 C 517.877 -4.12613 -6.37049 0
M  V30 3213 O 517.667 -3.72827 -4.97879 0
M  V30 3214 C 516.477 -4.45085 -6.88694 0
M  V30 3215 O 516.087 -5.7877 -6.5624 0
M  V30 3216 C 515.597 -3.47817 -6.12078 0
M  V30 3217 C 516.307 -3.39414 -4.77697 0
M  V30 3218 N 516.257 -2.04615 -4.15333 0
M  V30 3219 H 519.096 -3.41248 -7.98759 0
M  V30 3220 H 519.368 -2.5837 -6.41742 0
M  V30 3221 H 518.5 -5.02657 -6.42673 0
M  V30 3222 P 514.537 -6.144 -6.45285 0
M  V30 3223 O 514.317 -7.54673 -6.86199 0
M  V30 3224 O 513.747 -5.12391 -7.179 0
M  V30 3225 O 514.287 -5.99158 -4.88404 0
M  V30 3226 C 515.227 -6.60234 -3.96415 0
M  V30 3227 C 514.497 -7.08259 -2.72856 0
M  V30 3228 O 514.287 -5.9427 -1.83651 0
M  V30 3229 C 513.097 -7.64886 -2.9555 0
M  V30 3230 O 512.707 -8.53963 -1.90717 0
M  V30 3231 C 512.217 -6.4116 -2.90739 0
M  V30 3232 C 512.927 -5.55375 -1.86963 0
M  V30 3233 N 512.877 -4.09664 -2.15742 0
M  V30 3234 H 515.716 -7.45574 -4.45629 0
M  V30 3235 H 515.988 -5.86232 -3.67314 0
M  V30 3236 H 515.12 -7.84412 -2.24479 0
M  V30 3237 P 511.157 -8.7635 -1.60911 0
M  V30 3238 O 510.937 -10.1388 -1.11561 0
M  V30 3239 O 510.367 -8.36503 -2.79617 0
M  V30 3240 O 510.907 -7.71806 -0.42951 0
M  V30 3241 C 511.847 -7.67148 0.673689 0
M  V30 3242 C 511.117 -7.33374 1.95559 0
M  V30 3243 O 510.907 -5.88721 2.00726 0
M  V30 3244 C 509.717 -7.92526 2.10483 0
M  V30 3245 O 509.327 -8.02971 3.47653 0
M  V30 3246 C 508.837 -6.89602 1.41652 0
M  V30 3247 C 509.547 -5.59201 1.75185 0
M  V30 3248 N 509.497 -4.58235 0.662552 0
M  V30 3249 H 512.336 -8.65116 0.777161 0
M  V30 3250 H 512.608 -6.90173 0.474152 0
M  V30 3251 H 511.74 -7.66548 2.79458 0
M  V30 3252 P 507.777 -8.03563 3.84925 0
M  V30 3253 O 507.557 -8.85821 5.0569 0
M  V30 3254 O 506.987 -8.41101 2.65469 0
M  V30 3255 O 507.527 -6.4965 4.18908 0
M  V30 3256 C 508.467 -5.81037 5.05421 0
M  V30 3257 C 507.737 -4.78366 5.89277 0
M  V30 3258 O 507.527 -3.58302 5.08433 0
M  V30 3259 C 506.337 -5.17448 6.36119 0
M  V30 3260 O 505.947 -4.45271 7.53232 0
M  V30 3261 C 505.457 -4.74639 5.19936 0
M  V30 3262 C 506.167 -3.49432 4.70418 0
M  V30 3263 N 506.117 -3.31776 3.22945 0
M  V30 3264 H 508.956 -6.54213 5.71376 0
M  V30 3265 H 509.228 -5.30492 4.44033 0
M  V30 3266 H 508.36 -4.55889 6.76652 0
M  V30 3267 P 504.397 -4.23843 7.83734 0
M  V30 3268 O 504.177 -4.19407 9.29784 0
M  V30 3269 O 503.607 -5.24426 7.09156 0
M  V30 3270 O 504.147 -2.7935 7.20758 0
M  V30 3271 C 505.087 -1.7299 7.50419 0
M  V30 3272 C 504.357 -0.406376 7.57911 0
M  V30 3273 O 504.147 0.0897726 6.21935 0
M  V30 3274 C 502.957 -0.447224 8.1878 0
M  V30 3275 O 502.567 0.825065 8.71101 0
M  V30 3276 C 502.077 -0.783801 6.99623 0
M  V30 3277 C 502.787 -0.0619192 5.85967 0
M  V30 3278 N 502.737 -0.7859 4.56281 0
M  V30 3279 H 505.576 -1.93423 8.4679 0
M  V30 3280 H 505.848 -1.68181 6.71046 0
M  V30 3281 H 504.98 0.289041 8.15388 0
M  V30 3282 P 501.017 1.17771 8.83182 0
M  V30 3283 O 500.797 2.07206 9.98732 0
M  V30 3284 O 500.227 -0.0743816 8.81969 0
M  V30 3285 O 500.767 1.97652 7.47304 0
M  V30 3286 C 501.707 3.01133 7.08783 0
M  V30 3287 C 500.977 4.12613 6.37049 0
M  V30 3288 O 500.767 3.72827 4.97879 0
M  V30 3289 C 499.577 4.45085 6.88694 0
M  V30 3290 O 499.187 5.7877 6.5624 0
M  V30 3291 C 498.697 3.47817 6.12078 0
M  V30 3292 C 499.407 3.39414 4.77697 0
M  V30 3293 N 499.357 2.04199 4.15538 0
M  V30 3294 H 502.196 3.41248 7.98759 0
M  V30 3295 H 502.468 2.57728 6.42 0
M  V30 3296 H 501.6 5.02657 6.42673 0
M  V30 3297 H 498.945 4.11708 4.08956 0
M  V30 3298 H 498.665 2.49626 6.61679 0
M  V30 3299 H 497.674 3.8662 6.00862 0
M  V30 3300 H 499.508 4.29991 7.97006 0
M  V30 3301 P 497.637 6.144 6.45285 0
M  V30 3302 O 497.417 7.54673 6.86199 0
M  V30 3303 O 496.847 5.12391 7.179 0
M  V30 3304 O 497.387 5.99158 4.88404 0
M  V30 3305 C 498.327 6.60234 3.96415 0
M  V30 3306 C 497.597 7.08259 2.72856 0
M  V30 3307 O 497.387 5.9427 1.83651 0
M  V30 3308 C 496.197 7.64886 2.9555 0
M  V30 3309 O 495.807 8.53963 1.90717 0
M  V30 3310 C 495.317 6.4116 2.90739 0
M  V30 3311 C 496.027 5.55375 1.86963 0
M  V30 3312 N 495.977 4.09664 2.15742 0
M  V30 3313 H 498.816 7.45574 4.45629 0
M  V30 3314 H 499.088 5.86232 3.67314 0
M  V30 3315 H 498.22 7.84412 2.24479 0
M  V30 3316 P 494.257 8.7635 1.60911 0
M  V30 3317 O 494.037 10.1388 1.11561 0
M  V30 3318 O 493.467 8.36503 2.79617 0
M  V30 3319 O 494.007 7.71806 0.42951 0
M  V30 3320 C 494.947 7.67148 -0.673689 0
M  V30 3321 C 494.217 7.33374 -1.95559 0
M  V30 3322 O 494.007 5.88721 -2.00726 0
M  V30 3323 C 492.817 7.92526 -2.10483 0
M  V30 3324 O 492.427 8.02971 -3.47653 0
M  V30 3325 C 491.937 6.89602 -1.41652 0
M  V30 3326 C 492.647 5.59201 -1.75185 0
M  V30 3327 N 492.597 4.58235 -0.662552 0
M  V30 3328 H 495.436 8.65116 -0.777161 0
M  V30 3329 H 495.708 6.90173 -0.474152 0
M  V30 3330 H 494.84 7.66548 -2.79458 0
M  V30 3331 P 490.877 8.03563 -3.84925 0
M  V30 3332 O 490.657 8.85821 -5.0569 0
M  V30 3333 O 490.087 8.41101 -2.65469 0
M  V30 3334 O 490.627 6.4965 -4.18908 0
M  V30 3335 C 491.567 5.81037 -5.05421 0
M  V30 3336 C 490.837 4.78366 -5.89277 0
M  V30 3337 O 490.627 3.58302 -5.08433 0
M  V30 3338 C 489.437 5.17448 -6.36119 0
M  V30 3339 O 489.047 4.45271 -7.53232 0
M  V30 3340 C 488.557 4.74639 -5.19936 0
M  V30 3341 C 489.267 3.49432 -4.70418 0
M  V30 3342 N 489.217 3.31776 -3.22945 0
M  V30 3343 H 492.056 6.54213 -5.71376 0
M  V30 3344 H 492.328 5.30492 -4.44033 0
M  V30 3345 H 491.46 4.55889 -6.76652 0
M  V30 3346 P 487.497 4.23843 -7.83734 0
M  V30 3347 O 487.277 4.19407 -9.29784 0
M  V30 3348 O 486.707 5.24426 -7.09156 0
M  V30 3349 O 487.247 2.7935 -7.20758 0
M  V30 3350 C 488.187 1.7299 -7.50419 0
M  V30 3351 C 487.457 0.406376 -7.57911 0
M  V30 3352 O 487.247 -0.0897726 -6.21935 0
M  V30 3353 C 486.057 0.447224 -8.1878 0
M  V30 3354 O 485.667 -0.825065 -8.71101 0
M  V30 3355 C 485.177 0.783801 -6.99623 0
M  V30 3356 C 485.887 0.0619192 -5.85967 0
M  V30 3357 N 485.837 0.7859 -4.56281 0
M  V30 3358 H 488.676 1.93423 -8.4679 0
M  V30 3359 H 488.948 1.68181 -6.71046 0
M  V30 3360 H 488.08 -0.289041 -8.15388 0
M  V30 3361 P 484.117 -1.17771 -8.83182 0
M  V30 3362 O 483.897 -2.07206 -9.98732 0
M  V30 3363 O 483.327 0.0743816 -8.81969 0
M  V30 3364 O 483.867 -1.97652 -7.47304 0
M  V30 3365 C 484.807 -3.01133 -7.08783 0
M  V30 3366 C 484.077 -4.12613 -6.37049 0
M  V30 3367 O 483.867 -3.72827 -4.97879 0
M  V30 3368 C 482.677 -4.45085 -6.88694 0
M  V30 3369 O 482.287 -5.7877 -6.5624 0
M  V30 3370 C 481.797 -3.47817 -6.12078 0
M  V30 3371 C 482.507 -3.39414 -4.77697 0
M  V30 3372 N 482.457 -2.04199 -4.15538 0
M  V30 3373 H 485.296 -3.41248 -7.98759 0
M  V30 3374 H 485.568 -2.57728 -6.42 0
M  V30 3375 H 484.7 -5.02657 -6.42673 0
M  V30 3376 H 482.045 -4.11708 -4.08956 0
M  V30 3377 H 481.765 -2.49626 -6.61679 0
M  V30 3378 H 480.774 -3.8662 -6.00862 0
M  V30 3379 H 482.608 -4.29991 -7.97006 0
M  V30 3380 P 480.737 -6.144 -6.45285 0
M  V30 3381 O 480.517 -7.54673 -6.86199 0
M  V30 3382 O 479.947 -5.12391 -7.179 0
M  V30 3383 O 480.487 -5.99236 -4.88467 0
M  V30 3384 C 481.427 -6.60234 -3.96415 0
M  V30 3385 C 480.697 -7.08079 -2.736 0
M  V30 3386 O 480.487 -5.94365 -1.8368 0
M  V30 3387 C 479.297 -7.64886 -2.9555 0
M  V30 3388 O 478.907 -8.5406 -1.90739 0
M  V30 3389 C 478.417 -6.4116 -2.90739 0
M  V30 3390 C 479.127 -5.55375 -1.86963 0
M  V30 3391 N 479.077 -4.09664 -2.15742 0
M  V30 3392 C 478.927 -3.22231 -1.08477 0
M  V30 3393 O 478.837 -3.68951 0.0600489 0
M  V30 3394 N 478.877 -1.76692 -1.48799 0
M  V30 3395 C 478.977 -1.41695 -2.57602 0
M  V30 3396 N 478.927 -0.107296 -2.75791 0
M  V30 3397 C 479.127 -2.29178 -3.69733 0
M  V30 3398 C 479.177 -3.62753 -3.42653 0
M  V30 3399 H 481.917 -7.45488 -4.45578 0
M  V30 3400 H 482.187 -5.86232 -3.67314 0
M  V30 3401 H 481.32 -7.84508 -2.24507 0
M  V30 3402 H 478.665 -5.73556 -0.888715 0
M  V30 3403 H 478.385 -5.9096 -3.88638 0
M  V30 3404 H 477.394 -6.66053 -2.58894 0
M  V30 3405 H 479.228 -8.16339 -3.92049 0
M  V30 3406 H 479.3 -4.33052 -4.24913 0
M  V30 3407 H 479.198 -1.9103 -4.71577 0
M  V30 3408 H 478.81 0.521221 -1.95056 0
M  V30 3409 H 479.006 0.286429 -3.70695 0
M  V30 3410 P 477.357 -8.7635 -1.60911 0
M  V30 3411 O 477.137 -10.1388 -1.11561 0
M  V30 3412 O 476.567 -8.36503 -2.79617 0
M  V30 3413 O 477.107 -7.71806 -0.42951 0
M  V30 3414 C 478.047 -7.67148 0.673689 0
M  V30 3415 C 477.317 -7.33374 1.95559 0
M  V30 3416 O 477.107 -5.88721 2.00726 0
M  V30 3417 C 475.917 -7.92526 2.10483 0
M  V30 3418 O 475.527 -8.02971 3.47653 0
M  V30 3419 C 475.037 -6.89602 1.41652 0
M  V30 3420 C 475.747 -5.59201 1.75185 0
M  V30 3421 N 475.697 -4.58301 0.657969 0
M  V30 3422 H 478.536 -8.65116 0.777161 0
M  V30 3423 H 478.808 -6.9022 0.46725 0
M  V30 3424 H 477.94 -7.66548 2.79458 0
M  V30 3425 H 475.285 -5.16165 2.65183 0
M  V30 3426 H 475.005 -7.06433 0.329384 0
M  V30 3427 H 474.014 -6.90926 1.82021 0
M  V30 3428 H 475.848 -8.90873 1.62657 0
M  V30 3429 P 473.977 -8.03563 3.84925 0
M  V30 3430 O 473.757 -8.85821 5.0569 0
M  V30 3431 O 473.187 -8.41101 2.65469 0
M  V30 3432 O 473.727 -6.49734 4.18962 0
M  V30 3433 C 474.667 -5.81037 5.05421 0
M  V30 3434 C 473.937 -4.79018 5.88876 0
M  V30 3435 O 473.727 -3.58359 5.08515 0
M  V30 3436 C 472.537 -5.17448 6.36119 0
M  V30 3437 O 472.147 -4.45322 7.53318 0
M  V30 3438 C 471.657 -4.74639 5.19936 0
M  V30 3439 C 472.367 -3.49432 4.70418 0
M  V30 3440 N 472.317 -3.31776 3.22945 0
M  V30 3441 C 472.167 -2.02742 2.72939 0
M  V30 3442 O 472.077 -1.08301 3.52749 0
M  V30 3443 N 472.117 -1.96117 1.22063 0
M  V30 3444 C 472.217 -2.8878 0.551566 0
M  V30 3445 N 472.167 -2.65609 -0.750198 0
M  V30 3446 C 472.367 -4.22457 1.03707 0
M  V30 3447 C 472.417 -4.37979 2.39113 0
M  V30 3448 H 475.157 -6.54138 5.7131 0
M  V30 3449 H 475.427 -5.30492 4.44033 0
M  V30 3450 H 474.56 -4.55945 6.76735 0
M  V30 3451 H 471.905 -2.6176 5.18021 0
M  V30 3452 H 471.625 -5.52233 4.41941 0
M  V30 3453 H 470.634 -4.52045 5.53452 0
M  V30 3454 H 472.468 -6.25124 6.55234 0
M  V30 3455 H 472.54 -5.37936 2.80552 0
M  V30 3456 H 472.438 -5.07528 0.359553 0
M  V30 3457 H 472.05 -1.69403 -1.09847 0
M  V30 3458 H 472.246 -3.43701 -1.41792 0
M  V30 3459 P 470.597 -4.23843 7.83734 0
M  V30 3460 O 470.377 -4.19407 9.29784 0
M  V30 3461 O 469.807 -5.24426 7.09156 0
M  V30 3462 O 470.347 -2.7935 7.20758 0
M  V30 3463 C 471.287 -1.72945 7.50224 0
M  V30 3464 C 470.557 -0.406376 7.57911 0
M  V30 3465 O 470.347 0.0897726 6.21935 0
M  V30 3466 C 469.157 -0.438983 8.18724 0
M  V30 3467 O 468.767 0.825065 8.71101 0
M  V30 3468 C 468.277 -0.783689 6.99524 0
M  V30 3469 C 468.987 -0.0619086 5.85867 0
M  V30 3470 N 468.937 -0.78573 4.56183 0
M  V30 3471 C 468.787 -0.0292889 3.41887 0
M  V30 3472 O 468.697 1.18445 3.4419 0
M  V30 3473 N 468.747 -0.744061 2.23964 0
M  V30 3474 C 468.837 -2.10932 2.10362 0
M  V30 3475 O 468.787 -2.64117 0.98825 0
M  V30 3476 C 468.987 -2.8202 3.34994 0
M  V30 3477 C 469.097 -4.31095 3.25037 0
M  V30 3478 C 469.037 -2.15547 4.52261 0
M  V30 3479 H 471.778 -1.93379 8.46595 0
M  V30 3480 H 472.047 -1.68132 6.70852 0
M  V30 3481 H 471.18 0.289041 8.15388 0
M  V30 3482 H 468.525 0.926847 5.72749 0
M  V30 3483 H 468.246 -1.86973 6.82036 0
M  V30 3484 H 467.254 -0.403896 7.13257 0
M  V30 3485 H 469.088 -1.20585 8.97435 0
M  V30 3486 H 469.159 -2.71231 5.45042 0
M  V30 3487 H 468.129 -4.76966 3.49992 0
M  V30 3488 H 469.866 -4.67047 3.95024 0
M  V30 3489 H 469.378 -4.58996 2.22312 0
M  V30 3490 H 468.642 -0.214893 1.39758 0
M  V30 3491 P 467.217 1.17771 8.83182 0
M  V30 3492 O 466.997 2.07206 9.98732 0
M  V30 3493 O 466.427 -0.0743816 8.81969 0
M  V30 3494 O 466.967 1.97652 7.47304 0
M  V30 3495 C 467.907 3.01133 7.08783 0
M  V30 3496 C 467.177 4.12613 6.37049 0
M  V30 3497 O 466.967 3.72827 4.97879 0
M  V30 3498 C 465.777 4.45085 6.88694 0
M  V30 3499 O 465.387 5.7877 6.5624 0
M  V30 3500 C 464.897 3.47817 6.12078 0
M  V30 3501 C 465.607 3.39414 4.77697 0
M  V30 3502 N 465.557 2.04615 4.15333 0
M  V30 3503 H 468.396 3.41248 7.98759 0
M  V30 3504 H 468.668 2.5837 6.41742 0
M  V30 3505 H 467.8 5.02657 6.42673 0
M  V30 3506 P 463.837 6.144 6.45285 0
M  V30 3507 O 463.617 7.54673 6.86199 0
M  V30 3508 O 463.047 5.12391 7.179 0
M  V30 3509 O 463.587 5.99158 4.88404 0
M  V30 3510 C 464.527 6.60234 3.96415 0
M  V30 3511 C 463.797 7.08259 2.72856 0
M  V30 3512 O 463.587 5.9427 1.83651 0
M  V30 3513 C 462.397 7.64886 2.9555 0
M  V30 3514 O 462.007 8.53963 1.90717 0
M  V30 3515 C 461.517 6.4116 2.90739 0
M  V30 3516 C 462.227 5.55375 1.86963 0
M  V30 3517 N 462.177 4.09664 2.15742 0
M  V30 3518 H 465.016 7.45574 4.45629 0
M  V30 3519 H 465.288 5.86232 3.67314 0
M  V30 3520 H 464.42 7.84412 2.24479 0
M  V30 3521 P 460.457 8.7635 1.60911 0
M  V30 3522 O 460.237 10.1388 1.11561 0
M  V30 3523 O 459.667 8.36503 2.79617 0
M  V30 3524 O 460.207 7.71806 0.42951 0
M  V30 3525 C 461.147 7.66948 -0.673514 0
M  V30 3526 C 460.417 7.33374 -1.95559 0
M  V30 3527 O 460.207 5.88721 -2.00726 0
M  V30 3528 C 459.017 7.92218 -2.1125 0
M  V30 3529 O 458.627 8.02971 -3.47653 0
M  V30 3530 C 458.137 6.89504 -1.41631 0
M  V30 3531 C 458.847 5.59106 -1.75155 0
M  V30 3532 N 458.797 4.58136 -0.662409 0
M  V30 3533 C 458.647 3.26059 -1.02863 0
M  V30 3534 O 458.557 2.90743 -2.19009 0
M  V30 3535 N 458.607 2.35995 0.0155585 0
M  V30 3536 C 458.697 2.65248 1.35603 0
M  V30 3537 O 458.647 1.75605 2.20651 0
M  V30 3538 C 458.847 4.05747 1.64698 0
M  V30 3539 C 458.957 4.42345 3.09553 0
M  V30 3540 C 458.897 4.96734 0.652411 0
M  V30 3541 H 461.638 8.64917 -0.776982 0
M  V30 3542 H 461.907 6.89974 -0.474015 0
M  V30 3543 H 461.04 7.66548 -2.79458 0
M  V30 3544 H 458.385 5.16076 -2.65138 0
M  V30 3545 H 458.106 7.06433 -0.329384 0
M  V30 3546 H 457.114 6.90829 -1.81996 0
M  V30 3547 H 458.948 8.90774 -1.62639 0
M  V30 3548 H 459.019 6.02181 0.895285 0
M  V30 3549 H 457.989 4.80252 3.45468 0
M  V30 3550 H 459.726 5.20015 3.22119 0
M  V30 3551 H 459.238 3.53269 3.67833 0
M  V30 3552 H 458.502 1.39558 -0.227499 0
M  V30 3553 P 457.077 8.03563 -3.84925 0
M  V30 3554 O 456.857 8.85821 -5.0569 0
M  V30 3555 O 456.287 8.41101 -2.65469 0
M  V30 3556 O 456.827 6.4965 -4.18908 0
M  V30 3557 C 457.767 5.80886 -5.05289 0
M  V30 3558 C 457.037 4.78366 -5.89277 0
M  V30 3559 O 456.827 3.58302 -5.08433 0
M  V30 3560 C 455.637 5.16748 -6.36559 0
M  V30 3561 O 455.247 4.45271 -7.53232 0
M  V30 3562 C 454.757 4.74572 -5.19863 0
M  V30 3563 C 455.467 3.49373 -4.70338 0
M  V30 3564 N 455.417 3.31704 -3.22876 0
M  V30 3565 C 455.267 2.03326 -2.74871 0
M  V30 3566 O 455.177 1.06486 -3.48076 0
M  V30 3567 N 455.227 1.91838 -1.37456 0
M  V30 3568 C 455.317 2.94295 -0.462035 0
M  V30 3569 C 455.467 4.25064 -1.05249 0
M  V30 3570 C 455.517 4.40214 -2.39192 0
M  V30 3571 H 458.258 6.54063 -5.71245 0
M  V30 3572 H 458.527 5.30339 -4.43905 0
M  V30 3573 H 457.66 4.55889 -6.76652 0
M  V30 3574 H 455.005 2.6167 -5.17842 0
M  V30 3575 H 454.726 5.52155 -4.41878 0
M  V30 3576 H 453.734 4.51918 -5.53297 0
M  V30 3577 H 455.568 6.25055 -6.55162 0
M  V30 3578 H 455.639 5.39798 -2.81523 0
M  V30 3579 P 453.697 4.23843 -7.83734 0
M  V30 3580 O 453.477 4.19407 -9.29784 0
M  V30 3581 O 452.907 5.24426 -7.09156 0
M  V30 3582 O 453.447 2.7935 -7.20758 0
M  V30 3583 C 454.387 1.7299 -7.50419 0
M  V30 3584 C 453.657 0.406376 -7.57911 0
M  V30 3585 O 453.447 -0.0897726 -6.21935 0
M  V30 3586 C 452.257 0.447224 -8.1878 0
M  V30 3587 O 451.867 -0.825065 -8.71101 0
M  V30 3588 C 451.377 0.783801 -6.99623 0
M  V30 3589 C 452.087 0.0619192 -5.85967 0
M  V30 3590 N 452.037 0.7859 -4.56281 0
M  V30 3591 H 454.876 1.93423 -8.4679 0
M  V30 3592 H 455.148 1.68181 -6.71046 0
M  V30 3593 H 454.28 -0.289041 -8.15388 0
M  V30 3594 P 450.317 -1.17771 -8.83182 0
M  V30 3595 O 450.097 -2.07206 -9.98732 0
M  V30 3596 O 449.527 0.0743816 -8.81969 0
M  V30 3597 O 450.067 -1.97652 -7.47304 0
M  V30 3598 C 451.007 -3.01133 -7.08783 0
M  V30 3599 C 450.277 -4.12613 -6.37049 0
M  V30 3600 O 450.067 -3.72827 -4.97879 0
M  V30 3601 C 448.877 -4.45085 -6.88694 0
M  V30 3602 O 448.487 -5.7877 -6.5624 0
M  V30 3603 C 447.997 -3.47817 -6.12078 0
M  V30 3604 C 448.707 -3.39414 -4.77697 0
M  V30 3605 N 448.657 -2.04615 -4.15333 0
M  V30 3606 H 451.496 -3.41248 -7.98759 0
M  V30 3607 H 451.768 -2.5837 -6.41742 0
M  V30 3608 H 450.9 -5.02657 -6.42673 0
M  V30 3609 P 446.937 -6.144 -6.45285 0
M  V30 3610 O 446.717 -7.54673 -6.86199 0
M  V30 3611 O 446.147 -5.12391 -7.179 0
M  V30 3612 O 446.687 -5.99158 -4.88404 0
M  V30 3613 C 447.627 -6.60234 -3.96415 0
M  V30 3614 C 446.897 -7.08259 -2.72856 0
M  V30 3615 O 446.687 -5.9427 -1.83651 0
M  V30 3616 C 445.497 -7.64886 -2.9555 0
M  V30 3617 O 445.107 -8.53963 -1.90717 0
M  V30 3618 C 444.617 -6.4116 -2.90739 0
M  V30 3619 C 445.327 -5.55375 -1.86963 0
M  V30 3620 N 445.277 -4.09664 -2.15742 0
M  V30 3621 H 448.116 -7.45574 -4.45629 0
M  V30 3622 H 448.388 -5.86232 -3.67314 0
M  V30 3623 H 447.52 -7.84412 -2.24479 0
M  V30 3624 P 443.557 -8.7635 -1.60911 0
M  V30 3625 O 443.337 -10.1388 -1.11561 0
M  V30 3626 O 442.767 -8.36503 -2.79617 0
M  V30 3627 O 443.307 -7.71806 -0.42951 0
M  V30 3628 C 444.247 -7.67148 0.673689 0
M  V30 3629 C 443.517 -7.33374 1.95559 0
M  V30 3630 O 443.307 -5.88721 2.00726 0
M  V30 3631 C 442.117 -7.92526 2.10483 0
M  V30 3632 O 441.727 -8.02971 3.47653 0
M  V30 3633 C 441.237 -6.89602 1.41652 0
M  V30 3634 C 441.947 -5.59201 1.75185 0
M  V30 3635 N 441.897 -4.58235 0.662552 0
M  V30 3636 H 444.736 -8.65116 0.777161 0
M  V30 3637 H 445.008 -6.90173 0.474152 0
M  V30 3638 H 444.14 -7.66548 2.79458 0
M  V30 3639 P 440.177 -8.03563 3.84925 0
M  V30 3640 O 439.957 -8.85821 5.0569 0
M  V30 3641 O 439.387 -8.41101 2.65469 0
M  V30 3642 O 439.927 -6.4965 4.18908 0
M  V30 3643 C 440.867 -5.81037 5.05421 0
M  V30 3644 C 440.137 -4.78366 5.89277 0
M  V30 3645 O 439.927 -3.58302 5.08433 0
M  V30 3646 C 438.737 -5.17448 6.36119 0
M  V30 3647 O 438.347 -4.45271 7.53232 0
M  V30 3648 C 437.857 -4.74639 5.19936 0
M  V30 3649 C 438.567 -3.49432 4.70418 0
M  V30 3650 N 438.517 -3.31776 3.22945 0
M  V30 3651 H 441.356 -6.54213 5.71376 0
M  V30 3652 H 441.628 -5.30492 4.44033 0
M  V30 3653 H 440.76 -4.55889 6.76652 0
M  V30 3654 P 436.797 -4.23843 7.83734 0
M  V30 3655 O 436.577 -4.19407 9.29784 0
M  V30 3656 O 436.007 -5.24426 7.09156 0
M  V30 3657 O 436.547 -2.7935 7.20758 0
M  V30 3658 C 437.487 -1.7299 7.50419 0
M  V30 3659 C 436.757 -0.406376 7.57911 0
M  V30 3660 O 436.547 0.0897726 6.21935 0
M  V30 3661 C 435.357 -0.447224 8.1878 0
M  V30 3662 O 434.967 0.825065 8.71101 0
M  V30 3663 C 434.477 -0.783801 6.99623 0
M  V30 3664 C 435.187 -0.0619192 5.85967 0
M  V30 3665 N 435.137 -0.7859 4.56281 0
M  V30 3666 H 437.976 -1.93423 8.4679 0
M  V30 3667 H 438.248 -1.68181 6.71046 0
M  V30 3668 H 437.38 0.289041 8.15388 0
M  V30 3669 P 433.417 1.17771 8.83182 0
M  V30 3670 O 433.197 2.07206 9.98732 0
M  V30 3671 O 432.627 -0.0743816 8.81969 0
M  V30 3672 O 433.167 1.97652 7.47304 0
M  V30 3673 C 434.107 3.01133 7.08783 0
M  V30 3674 C 433.377 4.12613 6.37049 0
M  V30 3675 O 433.167 3.72827 4.97879 0
M  V30 3676 C 431.977 4.45085 6.88694 0
M  V30 3677 O 431.587 5.7877 6.5624 0
M  V30 3678 C 431.097 3.47817 6.12078 0
M  V30 3679 C 431.807 3.39414 4.77697 0
M  V30 3680 N 431.757 2.04199 4.15538 0
M  V30 3681 H 434.596 3.41248 7.98759 0
M  V30 3682 H 434.868 2.57728 6.42 0
M  V30 3683 H 434 5.02657 6.42673 0
M  V30 3684 H 431.345 4.11708 4.08956 0
M  V30 3685 H 431.065 2.49626 6.61679 0
M  V30 3686 H 430.074 3.8662 6.00862 0
M  V30 3687 H 431.908 4.29991 7.97006 0
M  V30 3688 P 430.037 6.144 6.45285 0
M  V30 3689 O 429.817 7.54673 6.86199 0
M  V30 3690 O 429.247 5.12391 7.179 0
M  V30 3691 O 429.787 5.99158 4.88404 0
M  V30 3692 C 430.727 6.60234 3.96415 0
M  V30 3693 C 429.997 7.08259 2.72856 0
M  V30 3694 O 429.787 5.9427 1.83651 0
M  V30 3695 C 428.597 7.64886 2.9555 0
M  V30 3696 O 428.207 8.53963 1.90717 0
M  V30 3697 C 427.717 6.4116 2.90739 0
M  V30 3698 C 428.427 5.55375 1.86963 0
M  V30 3699 N 428.377 4.09664 2.15742 0
M  V30 3700 H 431.216 7.45574 4.45629 0
M  V30 3701 H 431.488 5.86232 3.67314 0
M  V30 3702 H 430.62 7.84412 2.24479 0
M  V30 3703 P 426.657 8.7635 1.60911 0
M  V30 3704 O 426.437 10.1388 1.11561 0
M  V30 3705 O 425.867 8.36503 2.79617 0
M  V30 3706 O 426.407 7.71806 0.42951 0
M  V30 3707 C 427.347 7.67148 -0.673689 0
M  V30 3708 C 426.617 7.33374 -1.95559 0
M  V30 3709 O 426.407 5.88721 -2.00726 0
M  V30 3710 C 425.217 7.92526 -2.10483 0
M  V30 3711 O 424.827 8.02971 -3.47653 0
M  V30 3712 C 424.337 6.89602 -1.41652 0
M  V30 3713 C 425.047 5.59201 -1.75185 0
M  V30 3714 N 424.997 4.58235 -0.662552 0
M  V30 3715 H 427.836 8.65116 -0.777161 0
M  V30 3716 H 428.108 6.90173 -0.474152 0
M  V30 3717 H 427.24 7.66548 -2.79458 0
M  V30 3718 P 423.278 8.03563 -3.84925 0
M  V30 3719 O 423.058 8.85821 -5.0569 0
M  V30 3720 O 422.488 8.41101 -2.65469 0
M  V30 3721 O 423.028 6.4965 -4.18908 0
M  V30 3722 C 423.968 5.81037 -5.05421 0
M  V30 3723 C 423.238 4.78366 -5.89277 0
M  V30 3724 O 423.028 3.58302 -5.08433 0
M  V30 3725 C 421.838 5.17448 -6.36119 0
M  V30 3726 O 421.448 4.45271 -7.53232 0
M  V30 3727 C 420.958 4.74639 -5.19936 0
M  V30 3728 C 421.668 3.49432 -4.70418 0
M  V30 3729 N 421.618 3.32099 -3.22613 0
M  V30 3730 H 424.457 6.54213 -5.71376 0
M  V30 3731 H 424.729 5.30936 -4.43503 0
M  V30 3732 H 423.861 4.55889 -6.76652 0
M  V30 3733 H 421.206 2.61715 -5.17932 0
M  V30 3734 H 420.926 5.52155 -4.41878 0
M  V30 3735 H 419.935 4.51981 -5.53374 0
M  V30 3736 H 421.769 6.25124 -6.55234 0
M  V30 3737 P 419.898 4.23843 -7.83734 0
M  V30 3738 O 419.678 4.19407 -9.29784 0
M  V30 3739 O 419.108 5.24426 -7.09156 0
M  V30 3740 O 419.648 2.7935 -7.20758 0
M  V30 3741 C 420.588 1.7299 -7.50419 0
M  V30 3742 C 419.858 0.406376 -7.57911 0
M  V30 3743 O 419.648 -0.0897726 -6.21935 0
M  V30 3744 C 418.458 0.447224 -8.1878 0
M  V30 3745 O 418.068 -0.825065 -8.71101 0
M  V30 3746 C 417.578 0.783801 -6.99623 0
M  V30 3747 C 418.288 0.0619192 -5.85967 0
M  V30 3748 N 418.238 0.7859 -4.56281 0
M  V30 3749 H 421.077 1.93423 -8.4679 0
M  V30 3750 H 421.349 1.68181 -6.71046 0
M  V30 3751 H 420.481 -0.289041 -8.15388 0
M  V30 3752 P 416.518 -1.17771 -8.83182 0
M  V30 3753 O 416.298 -2.07206 -9.98732 0
M  V30 3754 O 415.728 0.0743816 -8.81969 0
M  V30 3755 O 416.268 -1.97652 -7.47304 0
M  V30 3756 C 417.208 -3.01133 -7.08783 0
M  V30 3757 C 416.478 -4.12613 -6.37049 0
M  V30 3758 O 416.268 -3.72827 -4.97879 0
M  V30 3759 C 415.078 -4.45085 -6.88694 0
M  V30 3760 O 414.688 -5.7877 -6.5624 0
M  V30 3761 C 414.198 -3.47817 -6.12078 0
M  V30 3762 C 414.908 -3.39414 -4.77697 0
M  V30 3763 N 414.858 -2.04199 -4.15538 0
M  V30 3764 H 417.697 -3.41248 -7.98759 0
M  V30 3765 H 417.969 -2.57728 -6.42 0
M  V30 3766 H 417.101 -5.02657 -6.42673 0
M  V30 3767 H 414.446 -4.11708 -4.08956 0
M  V30 3768 H 414.166 -2.49626 -6.61679 0
M  V30 3769 H 413.175 -3.8662 -6.00862 0
M  V30 3770 H 415.009 -4.29991 -7.97006 0
M  V30 3771 P 413.138 -6.144 -6.45285 0
M  V30 3772 O 412.918 -7.54673 -6.86199 0
M  V30 3773 O 412.348 -5.12391 -7.179 0
M  V30 3774 O 412.888 -5.99158 -4.88404 0
M  V30 3775 C 413.828 -6.60234 -3.96415 0
M  V30 3776 C 413.098 -7.08259 -2.72856 0
M  V30 3777 O 412.888 -5.9427 -1.83651 0
M  V30 3778 C 411.698 -7.64886 -2.9555 0
M  V30 3779 O 411.308 -8.53963 -1.90717 0
M  V30 3780 C 410.818 -6.4116 -2.90739 0
M  V30 3781 C 411.528 -5.55375 -1.86963 0
M  V30 3782 N 411.478 -4.09664 -2.15742 0
M  V30 3783 H 414.317 -7.45574 -4.45629 0
M  V30 3784 H 414.589 -5.86232 -3.67314 0
M  V30 3785 H 413.721 -7.84412 -2.24479 0
M  V30 3786 P 409.758 -8.7635 -1.60911 0
M  V30 3787 O 409.538 -10.1388 -1.11561 0
M  V30 3788 O 408.968 -8.36503 -2.79617 0
M  V30 3789 O 409.508 -7.71806 -0.42951 0
M  V30 3790 C 410.448 -7.67148 0.673689 0
M  V30 3791 C 409.718 -7.33374 1.95559 0
M  V30 3792 O 409.508 -5.88721 2.00726 0
M  V30 3793 C 408.318 -7.92526 2.10483 0
M  V30 3794 O 407.928 -8.02971 3.47653 0
M  V30 3795 C 407.438 -6.89602 1.41652 0
M  V30 3796 C 408.148 -5.59201 1.75185 0
M  V30 3797 N 408.098 -4.58235 0.662552 0
M  V30 3798 H 410.937 -8.65116 0.777161 0
M  V30 3799 H 411.209 -6.90173 0.474152 0
M  V30 3800 H 410.341 -7.66548 2.79458 0
M  V30 3801 P 406.378 -8.03563 3.84925 0
M  V30 3802 O 406.158 -8.85821 5.0569 0
M  V30 3803 O 405.588 -8.41101 2.65469 0
M  V30 3804 O 406.128 -6.4965 4.18908 0
M  V30 3805 C 407.068 -5.81037 5.05421 0
M  V30 3806 C 406.338 -4.78366 5.89277 0
M  V30 3807 O 406.128 -3.58302 5.08433 0
M  V30 3808 C 404.938 -5.17448 6.36119 0
M  V30 3809 O 404.548 -4.45271 7.53232 0
M  V30 3810 C 404.058 -4.74639 5.19936 0
M  V30 3811 C 404.768 -3.49432 4.70418 0
M  V30 3812 N 404.718 -3.32099 3.22613 0
M  V30 3813 H 407.557 -6.54213 5.71376 0
M  V30 3814 H 407.829 -5.30936 4.43503 0
M  V30 3815 H 406.961 -4.55889 6.76652 0
M  V30 3816 H 404.306 -2.61715 5.17932 0
M  V30 3817 H 404.026 -5.52155 4.41878 0
M  V30 3818 H 403.035 -4.51981 5.53374 0
M  V30 3819 H 404.869 -6.25124 6.55234 0
M  V30 3820 P 402.998 -4.23843 7.83734 0
M  V30 3821 O 402.778 -4.19407 9.29784 0
M  V30 3822 O 402.208 -5.24426 7.09156 0
M  V30 3823 O 402.748 -2.7935 7.20758 0
M  V30 3824 C 403.688 -1.7299 7.50419 0
M  V30 3825 C 402.958 -0.406376 7.57911 0
M  V30 3826 O 402.748 0.0897726 6.21935 0
M  V30 3827 C 401.558 -0.447224 8.1878 0
M  V30 3828 O 401.168 0.825065 8.71101 0
M  V30 3829 C 400.678 -0.783801 6.99623 0
M  V30 3830 C 401.388 -0.0619192 5.85967 0
M  V30 3831 N 401.338 -0.7859 4.56281 0
M  V30 3832 H 404.177 -1.93423 8.4679 0
M  V30 3833 H 404.449 -1.68181 6.71046 0
M  V30 3834 H 403.581 0.289041 8.15388 0
M  V30 3835 P 399.618 1.17771 8.83182 0
M  V30 3836 O 399.398 2.07206 9.98732 0
M  V30 3837 O 398.828 -0.0743816 8.81969 0
M  V30 3838 O 399.368 1.97652 7.47304 0
M  V30 3839 C 400.308 3.01133 7.08783 0
M  V30 3840 C 399.578 4.12613 6.37049 0
M  V30 3841 O 399.368 3.72827 4.97879 0
M  V30 3842 C 398.178 4.45085 6.88694 0
M  V30 3843 O 397.788 5.7877 6.5624 0
M  V30 3844 C 397.298 3.47817 6.12078 0
M  V30 3845 C 398.008 3.39414 4.77697 0
M  V30 3846 N 397.958 2.04615 4.15333 0
M  V30 3847 H 400.797 3.41248 7.98759 0
M  V30 3848 H 401.069 2.5837 6.41742 0
M  V30 3849 H 400.201 5.02657 6.42673 0
M  V30 3850 P 396.238 6.144 6.45285 0
M  V30 3851 O 396.018 7.54673 6.86199 0
M  V30 3852 O 395.448 5.12391 7.179 0
M  V30 3853 O 395.988 5.99158 4.88404 0
M  V30 3854 C 396.928 6.60234 3.96415 0
M  V30 3855 C 396.198 7.08259 2.72856 0
M  V30 3856 O 395.988 5.9427 1.83651 0
M  V30 3857 C 394.798 7.64886 2.9555 0
M  V30 3858 O 394.408 8.53963 1.90717 0
M  V30 3859 C 393.918 6.4116 2.90739 0
M  V30 3860 C 394.628 5.55375 1.86963 0
M  V30 3861 N 394.578 4.09664 2.15742 0
M  V30 3862 H 397.417 7.45574 4.45629 0
M  V30 3863 H 397.689 5.86232 3.67314 0
M  V30 3864 H 396.821 7.84412 2.24479 0
M  V30 3865 P 392.858 8.7635 1.60911 0
M  V30 3866 O 392.638 10.1388 1.11561 0
M  V30 3867 O 392.068 8.36503 2.79617 0
M  V30 3868 O 392.608 7.71806 0.42951 0
M  V30 3869 C 393.548 7.67148 -0.673689 0
M  V30 3870 C 392.818 7.33374 -1.95559 0
M  V30 3871 O 392.608 5.88721 -2.00726 0
M  V30 3872 C 391.418 7.92526 -2.10483 0
M  V30 3873 O 391.028 8.02971 -3.47653 0
M  V30 3874 C 390.538 6.89602 -1.41652 0
M  V30 3875 C 391.248 5.59201 -1.75185 0
M  V30 3876 N 391.198 4.58301 -0.657969 0
M  V30 3877 H 394.037 8.65116 -0.777161 0
M  V30 3878 H 394.309 6.9022 -0.46725 0
M  V30 3879 H 393.441 7.66548 -2.79458 0
M  V30 3880 H 390.786 5.16165 -2.65183 0
M  V30 3881 H 390.506 7.06433 -0.329384 0
M  V30 3882 H 389.515 6.90926 -1.82021 0
M  V30 3883 H 391.349 8.90873 -1.62657 0
M  V30 3884 P 389.478 8.03563 -3.84925 0
M  V30 3885 O 389.258 8.85821 -5.0569 0
M  V30 3886 O 388.688 8.41101 -2.65469 0
M  V30 3887 O 389.228 6.4965 -4.18908 0
M  V30 3888 C 390.168 5.81037 -5.05421 0
M  V30 3889 C 389.438 4.78366 -5.89277 0
M  V30 3890 O 389.228 3.58302 -5.08433 0
M  V30 3891 C 388.038 5.17448 -6.36119 0
M  V30 3892 O 387.648 4.45271 -7.53232 0
M  V30 3893 C 387.158 4.74639 -5.19936 0
M  V30 3894 C 387.868 3.49432 -4.70418 0
M  V30 3895 N 387.818 3.31776 -3.22945 0
M  V30 3896 H 390.657 6.54213 -5.71376 0
M  V30 3897 H 390.929 5.30492 -4.44033 0
M  V30 3898 H 390.061 4.55889 -6.76652 0
M  V30 3899 P 386.098 4.23843 -7.83734 0
M  V30 3900 O 385.878 4.19407 -9.29784 0
M  V30 3901 O 385.308 5.24426 -7.09156 0
M  V30 3902 O 385.848 2.7935 -7.20758 0
M  V30 3903 C 386.788 1.7299 -7.50419 0
M  V30 3904 C 386.058 0.406376 -7.57911 0
M  V30 3905 O 385.848 -0.0897726 -6.21935 0
M  V30 3906 C 384.658 0.447224 -8.1878 0
M  V30 3907 O 384.268 -0.825065 -8.71101 0
M  V30 3908 C 383.778 0.783801 -6.99623 0
M  V30 3909 C 384.488 0.0619192 -5.85967 0
M  V30 3910 N 384.438 0.790462 -4.56202 0
M  V30 3911 H 387.277 1.93423 -8.4679 0
M  V30 3912 H 387.549 1.68852 -6.70877 0
M  V30 3913 H 386.681 -0.289041 -8.15388 0
M  V30 3914 H 384.026 -0.927006 -5.72848 0
M  V30 3915 H 383.746 1.86973 -6.82036 0
M  V30 3916 H 382.755 0.403953 -7.13357 0
M  V30 3917 H 384.589 1.20599 -8.97534 0
M  V30 3918 P 382.718 -1.17771 -8.83182 0
M  V30 3919 O 382.498 -2.07206 -9.98732 0
M  V30 3920 O 381.928 0.0743816 -8.81969 0
M  V30 3921 O 382.468 -1.97652 -7.47304 0
M  V30 3922 C 383.408 -3.01133 -7.08783 0
M  V30 3923 C 382.678 -4.12613 -6.37049 0
M  V30 3924 O 382.468 -3.72827 -4.97879 0
M  V30 3925 C 381.278 -4.45085 -6.88694 0
M  V30 3926 O 380.888 -5.7877 -6.5624 0
M  V30 3927 C 380.398 -3.47817 -6.12078 0
M  V30 3928 C 381.108 -3.39414 -4.77697 0
M  V30 3929 N 381.058 -2.04199 -4.15538 0
M  V30 3930 H 383.897 -3.41248 -7.98759 0
M  V30 3931 H 384.169 -2.57728 -6.42 0
M  V30 3932 H 383.301 -5.02657 -6.42673 0
M  V30 3933 H 380.646 -4.11708 -4.08956 0
M  V30 3934 H 380.366 -2.49626 -6.61679 0
M  V30 3935 H 379.375 -3.8662 -6.00862 0
M  V30 3936 H 381.209 -4.29991 -7.97006 0
M  V30 3937 P 379.338 -6.144 -6.45285 0
M  V30 3938 O 379.118 -7.54673 -6.86199 0
M  V30 3939 O 378.548 -5.12391 -7.179 0
M  V30 3940 O 379.088 -5.99158 -4.88404 0
M  V30 3941 C 380.028 -6.60234 -3.96415 0
M  V30 3942 C 379.298 -7.08259 -2.72856 0
M  V30 3943 O 379.088 -5.9427 -1.83651 0
M  V30 3944 C 377.898 -7.64886 -2.9555 0
M  V30 3945 O 377.508 -8.53963 -1.90717 0
M  V30 3946 C 377.018 -6.4116 -2.90739 0
M  V30 3947 C 377.728 -5.55375 -1.86963 0
M  V30 3948 N 377.678 -4.09664 -2.15742 0
M  V30 3949 H 380.517 -7.45574 -4.45629 0
M  V30 3950 H 380.789 -5.86232 -3.67314 0
M  V30 3951 H 379.921 -7.84412 -2.24479 0
M  V30 3952 P 375.958 -8.7635 -1.60911 0
M  V30 3953 O 375.738 -10.1388 -1.11561 0
M  V30 3954 O 375.168 -8.36503 -2.79617 0
M  V30 3955 O 375.708 -7.71806 -0.42951 0
M  V30 3956 C 376.648 -7.66948 0.673514 0
M  V30 3957 C 375.918 -7.33374 1.95559 0
M  V30 3958 O 375.708 -5.88721 2.00726 0
M  V30 3959 C 374.518 -7.92218 2.1125 0
M  V30 3960 O 374.128 -8.02971 3.47653 0
M  V30 3961 C 373.638 -6.89504 1.41631 0
M  V30 3962 C 374.348 -5.59106 1.75155 0
M  V30 3963 N 374.298 -4.58136 0.662409 0
M  V30 3964 C 374.148 -3.26059 1.02863 0
M  V30 3965 O 374.058 -2.90743 2.19009 0
M  V30 3966 N 374.108 -2.35995 -0.0155585 0
M  V30 3967 C 374.198 -2.65248 -1.35603 0
M  V30 3968 C 374.348 -4.05747 -1.64698 0
M  V30 3969 C 374.398 -4.96734 -0.652411 0
M  V30 3970 H 377.139 -8.64917 0.776982 0
M  V30 3971 H 377.408 -6.89974 0.474015 0
M  V30 3972 H 376.541 -7.66548 2.79458 0
M  V30 3973 H 373.886 -5.16076 2.65138 0
M  V30 3974 H 373.607 -7.06433 0.329384 0
M  V30 3975 H 372.615 -6.90829 1.81996 0
M  V30 3976 H 374.449 -8.90774 1.62639 0
M  V30 3977 H 374.52 -6.02181 -0.895285 0
M  V30 3978 P 372.578 -8.03563 3.84925 0
M  V30 3979 O 372.358 -8.85821 5.0569 0
M  V30 3980 O 371.788 -8.41101 2.65469 0
M  V30 3981 O 372.328 -6.4965 4.18908 0
M  V30 3982 C 373.268 -5.81037 5.05421 0
M  V30 3983 C 372.538 -4.78366 5.89277 0
M  V30 3984 O 372.328 -3.58302 5.08433 0
M  V30 3985 C 371.138 -5.17448 6.36119 0
M  V30 3986 O 370.748 -4.45271 7.53232 0
M  V30 3987 C 370.258 -4.74639 5.19936 0
M  V30 3988 C 370.968 -3.49432 4.70418 0
M  V30 3989 N 370.918 -3.31776 3.22945 0
M  V30 3990 H 373.757 -6.54213 5.71376 0
M  V30 3991 H 374.029 -5.30492 4.44033 0
M  V30 3992 H 373.161 -4.55889 6.76652 0
M  V30 3993 P 369.198 -4.23843 7.83734 0
M  V30 3994 O 368.978 -4.19407 9.29784 0
M  V30 3995 O 368.408 -5.24426 7.09156 0
M  V30 3996 O 368.948 -2.7935 7.20758 0
M  V30 3997 C 369.888 -1.7299 7.50419 0
M  V30 3998 C 369.158 -0.406376 7.57911 0
M  V30 3999 O 368.948 0.0897726 6.21935 0
M  V30 4000 C 367.758 -0.447224 8.1878 0
M  V30 4001 O 367.368 0.825065 8.71101 0
M  V30 4002 C 366.878 -0.783801 6.99623 0
M  V30 4003 C 367.588 -0.0619192 5.85967 0
M  V30 4004 N 367.538 -0.7859 4.56281 0
M  V30 4005 H 370.377 -1.93423 8.4679 0
M  V30 4006 H 370.649 -1.68181 6.71046 0
M  V30 4007 H 369.781 0.289041 8.15388 0
M  V30 4008 P 365.818 1.17771 8.83182 0
M  V30 4009 O 365.598 2.07206 9.98732 0
M  V30 4010 O 365.028 -0.0743816 8.81969 0
M  V30 4011 O 365.568 1.97652 7.47304 0
M  V30 4012 C 366.508 3.01133 7.08783 0
M  V30 4013 C 365.778 4.12613 6.37049 0
M  V30 4014 O 365.568 3.72827 4.97879 0
M  V30 4015 C 364.378 4.45085 6.88694 0
M  V30 4016 O 363.988 5.7877 6.5624 0
M  V30 4017 C 363.498 3.47817 6.12078 0
M  V30 4018 C 364.208 3.39414 4.77697 0
M  V30 4019 N 364.158 2.04615 4.15333 0
M  V30 4020 H 366.997 3.41248 7.98759 0
M  V30 4021 H 367.269 2.5837 6.41742 0
M  V30 4022 H 366.401 5.02657 6.42673 0
M  V30 4023 P 362.438 6.144 6.45285 0
M  V30 4024 O 362.218 7.54673 6.86199 0
M  V30 4025 O 361.648 5.12391 7.179 0
M  V30 4026 O 362.188 5.99158 4.88404 0
M  V30 4027 C 363.128 6.60234 3.96415 0
M  V30 4028 C 362.398 7.08259 2.72856 0
M  V30 4029 O 362.188 5.9427 1.83651 0
M  V30 4030 C 360.998 7.64886 2.9555 0
M  V30 4031 O 360.608 8.53963 1.90717 0
M  V30 4032 C 360.118 6.4116 2.90739 0
M  V30 4033 C 360.828 5.55375 1.86963 0
M  V30 4034 N 360.778 4.09664 2.15742 0
M  V30 4035 H 363.617 7.45574 4.45629 0
M  V30 4036 H 363.889 5.86232 3.67314 0
M  V30 4037 H 363.021 7.84412 2.24479 0
M  V30 4038 P 359.058 8.7635 1.60911 0
M  V30 4039 O 358.838 10.1388 1.11561 0
M  V30 4040 O 358.268 8.36503 2.79617 0
M  V30 4041 O 358.808 7.71806 0.42951 0
M  V30 4042 C 359.748 7.67148 -0.673689 0
M  V30 4043 C 359.018 7.33374 -1.95559 0
M  V30 4044 O 358.808 5.88721 -2.00726 0
M  V30 4045 C 357.618 7.92526 -2.10483 0
M  V30 4046 O 357.228 8.02971 -3.47653 0
M  V30 4047 C 356.738 6.89602 -1.41652 0
M  V30 4048 C 357.448 5.59201 -1.75185 0
M  V30 4049 N 357.398 4.58301 -0.657969 0
M  V30 4050 H 360.237 8.65116 -0.777161 0
M  V30 4051 H 360.509 6.9022 -0.46725 0
M  V30 4052 H 359.641 7.66548 -2.79458 0
M  V30 4053 H 356.986 5.16165 -2.65183 0
M  V30 4054 H 356.706 7.06433 -0.329384 0
M  V30 4055 H 355.715 6.90926 -1.82021 0
M  V30 4056 H 357.549 8.90873 -1.62657 0
M  V30 4057 P 355.678 8.03563 -3.84925 0
M  V30 4058 O 355.458 8.85821 -5.0569 0
M  V30 4059 O 354.888 8.41101 -2.65469 0
M  V30 4060 O 355.428 6.4965 -4.18908 0
M  V30 4061 C 356.368 5.80886 -5.05289 0
M  V30 4062 C 355.638 4.78366 -5.89277 0
M  V30 4063 O 355.428 3.58302 -5.08433 0
M  V30 4064 C 354.238 5.16748 -6.36559 0
M  V30 4065 O 353.848 4.45271 -7.53232 0
M  V30 4066 C 353.358 4.74572 -5.19863 0
M  V30 4067 C 354.068 3.49373 -4.70338 0
M  V30 4068 N 354.018 3.31704 -3.22876 0
M  V30 4069 C 353.868 2.03326 -2.74871 0
M  V30 4070 O 353.778 1.06486 -3.48076 0
M  V30 4071 N 353.828 1.91838 -1.37456 0
M  V30 4072 C 353.918 2.94295 -0.462035 0
M  V30 4073 O 353.868 2.71763 0.752928 0
M  V30 4074 C 354.068 4.25064 -1.05249 0
M  V30 4075 C 354.178 5.39815 -0.095697 0
M  V30 4076 C 354.118 4.40214 -2.39192 0
M  V30 4077 H 356.859 6.54063 -5.71245 0
M  V30 4078 H 357.128 5.30339 -4.43905 0
M  V30 4079 H 356.261 4.55889 -6.76652 0
M  V30 4080 H 353.606 2.6167 -5.17842 0
M  V30 4081 H 353.327 5.52155 -4.41878 0
M  V30 4082 H 352.335 4.51918 -5.53297 0
M  V30 4083 H 354.169 6.25055 -6.55162 0
M  V30 4084 H 354.24 5.39798 -2.81523 0
M  V30 4085 H 353.21 5.91593 -0.0279582 0
M  V30 4086 H 354.947 6.10038 -0.450573 0
M  V30 4087 H 354.459 5.02007 0.89937 0
M  V30 4088 H 353.723 0.995326 -1.00435 0
M  V30 4089 P 352.298 4.23843 -7.83734 0
M  V30 4090 O 352.078 4.19407 -9.29784 0
M  V30 4091 O 351.508 5.24426 -7.09156 0
M  V30 4092 O 352.048 2.7935 -7.20758 0
M  V30 4093 C 352.988 1.7299 -7.50419 0
M  V30 4094 C 352.258 0.406376 -7.57911 0
M  V30 4095 O 352.048 -0.0897726 -6.21935 0
M  V30 4096 C 350.858 0.447224 -8.1878 0
M  V30 4097 O 350.468 -0.825065 -8.71101 0
M  V30 4098 C 349.978 0.783801 -6.99623 0
M  V30 4099 C 350.688 0.0619192 -5.85967 0
M  V30 4100 N 350.638 0.7859 -4.56281 0
M  V30 4101 H 353.477 1.93423 -8.4679 0
M  V30 4102 H 353.749 1.68181 -6.71046 0
M  V30 4103 H 352.881 -0.289041 -8.15388 0
M  V30 4104 P 348.918 -1.17771 -8.83182 0
M  V30 4105 O 348.698 -2.07206 -9.98732 0
M  V30 4106 O 348.128 0.0743816 -8.81969 0
M  V30 4107 O 348.668 -1.97652 -7.47304 0
M  V30 4108 C 349.608 -3.01055 -7.08599 0
M  V30 4109 C 348.878 -4.12613 -6.37049 0
M  V30 4110 O 348.668 -3.72827 -4.97879 0
M  V30 4111 C 347.478 -4.45719 -6.88164 0
M  V30 4112 O 347.088 -5.7877 -6.5624 0
M  V30 4113 C 346.598 -3.47768 -6.11991 0
M  V30 4114 C 347.308 -3.39356 -4.77615 0
M  V30 4115 N 347.258 -2.04571 -4.15244 0
M  V30 4116 C 347.108 -1.98587 -2.78314 0
M  V30 4117 O 347.018 -2.98134 -2.08835 0
M  V30 4118 N 347.068 -0.714467 -2.24925 0
M  V30 4119 C 347.158 0.470001 -2.94169 0
M  V30 4120 C 347.308 0.312541 -4.36783 0
M  V30 4121 C 347.358 -0.914512 -4.92583 0
M  V30 4122 H 350.099 -3.41169 -7.98575 0
M  V30 4123 H 350.368 -2.58295 -6.41556 0
M  V30 4124 H 349.501 -5.02657 -6.42673 0
M  V30 4125 H 346.846 -4.11637 -4.08885 0
M  V30 4126 H 346.567 -2.49626 -6.61679 0
M  V30 4127 H 345.575 -3.86566 -6.00778 0
M  V30 4128 H 347.409 -4.29943 -7.96918 0
M  V30 4129 H 347.48 -1.00937 -6.00374 0
M  V30 4130 P 345.538 -6.144 -6.45285 0
M  V30 4131 O 345.318 -7.54673 -6.86199 0
M  V30 4132 O 344.748 -5.12391 -7.179 0
M  V30 4133 O 345.288 -5.99158 -4.88404 0
M  V30 4134 C 346.228 -6.60234 -3.96415 0
M  V30 4135 C 345.498 -7.08259 -2.72856 0
M  V30 4136 O 345.288 -5.9427 -1.83651 0
M  V30 4137 C 344.098 -7.64886 -2.9555 0
M  V30 4138 O 343.708 -8.53963 -1.90717 0
M  V30 4139 C 343.218 -6.4116 -2.90739 0
M  V30 4140 C 343.928 -5.55375 -1.86963 0
M  V30 4141 N 343.878 -4.09448 -2.16152 0
M  V30 4142 H 346.717 -7.45574 -4.45629 0
M  V30 4143 H 346.989 -5.85864 -3.679 0
M  V30 4144 H 346.121 -7.84412 -2.24479 0
M  V30 4145 H 343.466 -5.73457 -0.888562 0
M  V30 4146 H 343.186 -5.90877 -3.88583 0
M  V30 4147 H 342.195 -6.6596 -2.58858 0
M  V30 4148 H 344.029 -8.16339 -3.92049 0
M  V30 4149 P 342.158 -8.7635 -1.60911 0
M  V30 4150 O 341.938 -10.1388 -1.11561 0
M  V30 4151 O 341.368 -8.36503 -2.79617 0
M  V30 4152 O 341.908 -7.71806 -0.42951 0
M  V30 4153 C 342.848 -7.67148 0.673689 0
M  V30 4154 C 342.118 -7.33374 1.95559 0
M  V30 4155 O 341.908 -5.88721 2.00726 0
M  V30 4156 C 340.718 -7.92526 2.10483 0
M  V30 4157 O 340.328 -8.02971 3.47653 0
M  V30 4158 C 339.838 -6.89602 1.41652 0
M  V30 4159 C 340.548 -5.59201 1.75185 0
M  V30 4160 N 340.498 -4.58235 0.662552 0
M  V30 4161 H 343.337 -8.65116 0.777161 0
M  V30 4162 H 343.609 -6.90173 0.474152 0
M  V30 4163 H 342.741 -7.66548 2.79458 0
M  V30 4164 P 338.778 -8.03563 3.84925 0
M  V30 4165 O 338.558 -8.85821 5.0569 0
M  V30 4166 O 337.988 -8.41101 2.65469 0
M  V30 4167 O 338.528 -6.4965 4.18908 0
M  V30 4168 C 339.468 -5.81037 5.05421 0
M  V30 4169 C 338.738 -4.78366 5.89277 0
M  V30 4170 O 338.528 -3.58302 5.08433 0
M  V30 4171 C 337.338 -5.17448 6.36119 0
M  V30 4172 O 336.948 -4.45271 7.53232 0
M  V30 4173 C 336.458 -4.74639 5.19936 0
M  V30 4174 C 337.168 -3.49432 4.70418 0
M  V30 4175 N 337.118 -3.32099 3.22613 0
M  V30 4176 H 339.957 -6.54213 5.71376 0
M  V30 4177 H 340.229 -5.30936 4.43503 0
M  V30 4178 H 339.361 -4.55889 6.76652 0
M  V30 4179 H 336.706 -2.61715 5.17932 0
M  V30 4180 H 336.426 -5.52155 4.41878 0
M  V30 4181 H 335.435 -4.51981 5.53374 0
M  V30 4182 H 337.269 -6.25124 6.55234 0
M  V30 4183 P 335.398 -4.23843 7.83734 0
M  V30 4184 O 335.178 -4.19407 9.29784 0
M  V30 4185 O 334.608 -5.24426 7.09156 0
M  V30 4186 O 335.148 -2.7935 7.20758 0
M  V30 4187 C 336.088 -1.7299 7.50419 0
M  V30 4188 C 335.358 -0.406376 7.57911 0
M  V30 4189 O 335.148 0.0897726 6.21935 0
M  V30 4190 C 333.958 -0.447224 8.1878 0
M  V30 4191 O 333.568 0.825065 8.71101 0
M  V30 4192 C 333.078 -0.783801 6.99623 0
M  V30 4193 C 333.788 -0.0619192 5.85967 0
M  V30 4194 N 333.738 -0.7859 4.56281 0
M  V30 4195 H 336.577 -1.93423 8.4679 0
M  V30 4196 H 336.849 -1.68181 6.71046 0
M  V30 4197 H 335.981 0.289041 8.15388 0
M  V30 4198 P 332.018 1.17771 8.83182 0
M  V30 4199 O 331.798 2.07206 9.98732 0
M  V30 4200 O 331.228 -0.0743816 8.81969 0
M  V30 4201 O 331.768 1.97652 7.47304 0
M  V30 4202 C 332.708 3.01133 7.08783 0
M  V30 4203 C 331.978 4.12613 6.37049 0
M  V30 4204 O 331.768 3.72827 4.97879 0
M  V30 4205 C 330.578 4.45085 6.88694 0
M  V30 4206 O 330.188 5.7877 6.5624 0
M  V30 4207 C 329.698 3.47817 6.12078 0
M  V30 4208 C 330.408 3.39414 4.77697 0
M  V30 4209 N 330.358 2.04615 4.15333 0
M  V30 4210 H 333.197 3.41248 7.98759 0
M  V30 4211 H 333.469 2.5837 6.41742 0
M  V30 4212 H 332.601 5.02657 6.42673 0
M  V30 4213 P 328.638 6.144 6.45285 0
M  V30 4214 O 328.418 7.54673 6.86199 0
M  V30 4215 O 327.848 5.12391 7.179 0
M  V30 4216 O 328.388 5.99158 4.88404 0
M  V30 4217 C 329.328 6.60234 3.96415 0
M  V30 4218 C 328.598 7.08259 2.72856 0
M  V30 4219 O 328.388 5.9427 1.83651 0
M  V30 4220 C 327.198 7.64886 2.9555 0
M  V30 4221 O 326.808 8.53963 1.90717 0
M  V30 4222 C 326.318 6.4116 2.90739 0
M  V30 4223 C 327.028 5.55375 1.86963 0
M  V30 4224 N 326.978 4.09664 2.15742 0
M  V30 4225 H 329.817 7.45574 4.45629 0
M  V30 4226 H 330.089 5.86232 3.67314 0
M  V30 4227 H 329.221 7.84412 2.24479 0
M  V30 4228 P 325.258 8.7635 1.60911 0
M  V30 4229 O 325.038 10.1388 1.11561 0
M  V30 4230 O 324.468 8.36503 2.79617 0
M  V30 4231 O 325.008 7.71806 0.42951 0
M  V30 4232 C 325.948 7.67148 -0.673689 0
M  V30 4233 C 325.218 7.33374 -1.95559 0
M  V30 4234 O 325.008 5.88721 -2.00726 0
M  V30 4235 C 323.818 7.92526 -2.10483 0
M  V30 4236 O 323.428 8.02971 -3.47653 0
M  V30 4237 C 322.938 6.89602 -1.41652 0
M  V30 4238 C 323.648 5.59201 -1.75185 0
M  V30 4239 N 323.598 4.58235 -0.662552 0
M  V30 4240 H 326.437 8.65116 -0.777161 0
M  V30 4241 H 326.709 6.90173 -0.474152 0
M  V30 4242 H 325.841 7.66548 -2.79458 0
M  V30 4243 P 321.878 8.03563 -3.84925 0
M  V30 4244 O 321.658 8.85821 -5.0569 0
M  V30 4245 O 321.088 8.41101 -2.65469 0
M  V30 4246 O 321.628 6.4965 -4.18908 0
M  V30 4247 C 322.568 5.80886 -5.05289 0
M  V30 4248 C 321.838 4.78366 -5.89277 0
M  V30 4249 O 321.628 3.58302 -5.08433 0
M  V30 4250 C 320.438 5.16748 -6.36559 0
M  V30 4251 O 320.048 4.45271 -7.53232 0
M  V30 4252 C 319.558 4.74572 -5.19863 0
M  V30 4253 C 320.268 3.49373 -4.70338 0
M  V30 4254 N 320.218 3.31704 -3.22876 0
M  V30 4255 C 320.068 2.03326 -2.74871 0
M  V30 4256 O 319.978 1.06486 -3.48076 0
M  V30 4257 N 320.028 1.91838 -1.37456 0
M  V30 4258 C 320.118 2.94295 -0.462035 0
M  V30 4259 C 320.268 4.25064 -1.05249 0
M  V30 4260 C 320.318 4.40214 -2.39192 0
M  V30 4261 H 323.059 6.54063 -5.71245 0
M  V30 4262 H 323.328 5.30339 -4.43905 0
M  V30 4263 H 322.461 4.55889 -6.76652 0
M  V30 4264 H 319.806 2.6167 -5.17842 0
M  V30 4265 H 319.527 5.52155 -4.41878 0
M  V30 4266 H 318.535 4.51918 -5.53297 0
M  V30 4267 H 320.369 6.25055 -6.55162 0
M  V30 4268 H 320.44 5.39798 -2.81523 0
M  V30 4269 P 318.498 4.23843 -7.83734 0
M  V30 4270 O 318.278 4.19407 -9.29784 0
M  V30 4271 O 317.708 5.24426 -7.09156 0
M  V30 4272 O 318.248 2.7935 -7.20758 0
M  V30 4273 C 319.188 1.7299 -7.50419 0
M  V30 4274 C 318.458 0.406376 -7.57911 0
M  V30 4275 O 318.248 -0.0897726 -6.21935 0
M  V30 4276 C 317.058 0.447224 -8.1878 0
M  V30 4277 O 316.668 -0.825065 -8.71101 0
M  V30 4278 C 316.178 0.783801 -6.99623 0
M  V30 4279 C 316.888 0.0619192 -5.85967 0
M  V30 4280 N 316.838 0.790462 -4.56202 0
M  V30 4281 H 319.677 1.93423 -8.4679 0
M  V30 4282 H 319.949 1.68852 -6.70877 0
M  V30 4283 H 319.081 -0.289041 -8.15388 0
M  V30 4284 H 316.426 -0.927006 -5.72848 0
M  V30 4285 H 316.146 1.86973 -6.82036 0
M  V30 4286 H 315.155 0.403953 -7.13357 0
M  V30 4287 H 316.989 1.20599 -8.97534 0
M  V30 4288 P 315.118 -1.17771 -8.83182 0
M  V30 4289 O 314.898 -2.07206 -9.98732 0
M  V30 4290 O 314.328 0.0743816 -8.81969 0
M  V30 4291 O 314.868 -1.97652 -7.47304 0
M  V30 4292 C 315.808 -3.01133 -7.08783 0
M  V30 4293 C 315.078 -4.12613 -6.37049 0
M  V30 4294 O 314.868 -3.72827 -4.97879 0
M  V30 4295 C 313.678 -4.45085 -6.88694 0
M  V30 4296 O 313.288 -5.7877 -6.5624 0
M  V30 4297 C 312.798 -3.47817 -6.12078 0
M  V30 4298 C 313.508 -3.39414 -4.77697 0
M  V30 4299 N 313.458 -2.04615 -4.15333 0
M  V30 4300 H 316.297 -3.41248 -7.98759 0
M  V30 4301 H 316.569 -2.5837 -6.41742 0
M  V30 4302 H 315.701 -5.02657 -6.42673 0
M  V30 4303 P 311.738 -6.144 -6.45285 0
M  V30 4304 O 311.518 -7.54673 -6.86199 0
M  V30 4305 O 310.948 -5.12391 -7.179 0
M  V30 4306 O 311.488 -5.99158 -4.88404 0
M  V30 4307 C 312.428 -6.60062 -3.96313 0
M  V30 4308 C 311.698 -7.08259 -2.72856 0
M  V30 4309 O 311.488 -5.9427 -1.83651 0
M  V30 4310 C 310.298 -7.65087 -2.94749 0
M  V30 4311 O 309.908 -8.53963 -1.90717 0
M  V30 4312 C 309.418 -6.41069 -2.90698 0
M  V30 4313 C 310.128 -5.5528 -1.86931 0
M  V30 4314 N 310.078 -4.09575 -2.15696 0
M  V30 4315 C 309.928 -3.24249 -1.08435 0
M  V30 4316 O 309.838 -3.63946 0.0628747 0
M  V30 4317 N 309.888 -1.90009 -1.39973 0
M  V30 4318 C 309.978 -1.34884 -2.65614 0
M  V30 4319 O 309.928 -0.123716 -2.81728 0
M  V30 4320 C 310.128 -2.3145 -3.71736 0
M  V30 4321 C 310.238 -1.75913 -5.10438 0
M  V30 4322 C 310.178 -3.63518 -3.44754 0
M  V30 4323 H 312.919 -7.45402 -4.45526 0
M  V30 4324 H 313.188 -5.86062 -3.67208 0
M  V30 4325 H 312.321 -7.84412 -2.24479 0
M  V30 4326 H 309.666 -5.73358 -0.888409 0
M  V30 4327 H 309.387 -5.90877 -3.88583 0
M  V30 4328 H 308.395 -6.65867 -2.58821 0
M  V30 4329 H 310.229 -8.16248 -3.92006 0
M  V30 4330 H 310.3 -4.34551 -4.26383 0
M  V30 4331 H 309.27 -1.85471 -5.61775 0
M  V30 4332 H 311.007 -2.31364 -5.66257 0
M  V30 4333 H 310.519 -0.695936 -5.05229 0
M  V30 4334 H 309.783 -1.26277 -0.63625 0
M  V30 4335 P 308.358 -8.7635 -1.60911 0
M  V30 4336 O 308.138 -10.1388 -1.11561 0
M  V30 4337 O 307.568 -8.36503 -2.79617 0
M  V30 4338 O 308.108 -7.71806 -0.42951 0
M  V30 4339 C 309.048 -7.67148 0.673689 0
M  V30 4340 C 308.318 -7.33374 1.95559 0
M  V30 4341 O 308.108 -5.88721 2.00726 0
M  V30 4342 C 306.918 -7.92526 2.10483 0
M  V30 4343 O 306.528 -8.02971 3.47653 0
M  V30 4344 C 306.038 -6.89602 1.41652 0
M  V30 4345 C 306.748 -5.59201 1.75185 0
M  V30 4346 N 306.698 -4.58301 0.657969 0
M  V30 4347 H 309.537 -8.65116 0.777161 0
M  V30 4348 H 309.809 -6.9022 0.46725 0
M  V30 4349 H 308.941 -7.66548 2.79458 0
M  V30 4350 H 306.286 -5.16165 2.65183 0
M  V30 4351 H 306.006 -7.06433 0.329384 0
M  V30 4352 H 305.015 -6.90926 1.82021 0
M  V30 4353 H 306.849 -8.90873 1.62657 0
M  V30 4354 P 304.978 -8.03563 3.84925 0
M  V30 4355 O 304.758 -8.85821 5.0569 0
M  V30 4356 O 304.188 -8.41101 2.65469 0
M  V30 4357 O 304.728 -6.4965 4.18908 0
M  V30 4358 C 305.668 -5.81037 5.05421 0
M  V30 4359 C 304.938 -4.78366 5.89277 0
M  V30 4360 O 304.728 -3.58302 5.08433 0
M  V30 4361 C 303.538 -5.17448 6.36119 0
M  V30 4362 O 303.148 -4.45271 7.53232 0
M  V30 4363 C 302.658 -4.74639 5.19936 0
M  V30 4364 C 303.368 -3.49432 4.70418 0
M  V30 4365 N 303.318 -3.31776 3.22945 0
M  V30 4366 H 306.157 -6.54213 5.71376 0
M  V30 4367 H 306.429 -5.30492 4.44033 0
M  V30 4368 H 305.561 -4.55889 6.76652 0
M  V30 4369 P 301.598 -4.23843 7.83734 0
M  V30 4370 O 301.378 -4.19407 9.29784 0
M  V30 4371 O 300.808 -5.24426 7.09156 0
M  V30 4372 O 301.348 -2.7935 7.20758 0
M  V30 4373 C 302.288 -1.7299 7.50419 0
M  V30 4374 C 301.558 -0.406376 7.57911 0
M  V30 4375 O 301.348 0.0897726 6.21935 0
M  V30 4376 C 300.158 -0.447224 8.1878 0
M  V30 4377 O 299.768 0.825065 8.71101 0
M  V30 4378 C 299.278 -0.783801 6.99623 0
M  V30 4379 C 299.988 -0.0619192 5.85967 0
M  V30 4380 N 299.938 -0.790462 4.56202 0
M  V30 4381 C 300.018 -2.13895 4.34171 0
M  V30 4382 N 299.948 -2.46449 3.08687 0
M  V30 4383 C 299.798 -1.2525 2.43697 0
M  V30 4384 C 299.668 -0.914535 1.07318 0
M  V30 4385 N 299.658 -1.80782 0.0887348 0
M  V30 4386 N 299.548 0.386745 0.768133 0
M  V30 4387 C 299.558 1.28096 1.75159 0
M  V30 4388 N 299.678 1.09708 3.04861 0
M  V30 4389 C 299.798 -0.214857 3.32306 0
M  V30 4390 H 302.777 -1.93423 8.4679 0
M  V30 4391 H 303.049 -1.68852 6.70877 0
M  V30 4392 H 302.181 0.289041 8.15388 0
M  V30 4393 H 299.526 0.927006 5.72848 0
M  V30 4394 H 299.246 -1.86973 6.82036 0
M  V30 4395 H 298.255 -0.403953 7.13357 0
M  V30 4396 H 300.089 -1.20599 8.97534 0
M  V30 4397 H 300.13 -2.86846 5.14318 0
M  V30 4398 H 299.749 -2.81082 0.302037 0
M  V30 4399 H 299.56 -1.49688 -0.889064 0
M  V30 4400 H 299.452 2.31317 1.43855 0
M  V30 4401 P 298.218 1.17771 8.83182 0
M  V30 4402 O 297.998 2.07206 9.98732 0
M  V30 4403 O 297.428 -0.0743816 8.81969 0
M  V30 4404 O 297.968 1.97652 7.47304 0
M  V30 4405 C 298.908 3.01133 7.08783 0
M  V30 4406 C 298.178 4.12613 6.37049 0
M  V30 4407 O 297.968 3.72827 4.97879 0
M  V30 4408 C 296.778 4.45085 6.88694 0
M  V30 4409 O 296.388 5.7877 6.5624 0
M  V30 4410 C 295.898 3.47817 6.12078 0
M  V30 4411 C 296.608 3.39414 4.77697 0
M  V30 4412 N 296.558 2.04199 4.15538 0
M  V30 4413 H 299.397 3.41248 7.98759 0
M  V30 4414 H 299.669 2.57728 6.42 0
M  V30 4415 H 298.801 5.02657 6.42673 0
M  V30 4416 H 296.146 4.11708 4.08956 0
M  V30 4417 H 295.866 2.49626 6.61679 0
M  V30 4418 H 294.875 3.8662 6.00862 0
M  V30 4419 H 296.709 4.29991 7.97006 0
M  V30 4420 P 294.838 6.144 6.45285 0
M  V30 4421 O 294.618 7.54673 6.86199 0
M  V30 4422 O 294.048 5.12391 7.179 0
M  V30 4423 O 294.588 5.99158 4.88404 0
M  V30 4424 C 295.528 6.60234 3.96415 0
M  V30 4425 C 294.798 7.08259 2.72856 0
M  V30 4426 O 294.588 5.9427 1.83651 0
M  V30 4427 C 293.398 7.64886 2.9555 0
M  V30 4428 O 293.008 8.53963 1.90717 0
M  V30 4429 C 292.518 6.4116 2.90739 0
M  V30 4430 C 293.228 5.55375 1.86963 0
M  V30 4431 N 293.178 4.09664 2.15742 0
M  V30 4432 H 296.017 7.45574 4.45629 0
M  V30 4433 H 296.289 5.86232 3.67314 0
M  V30 4434 H 295.421 7.84412 2.24479 0
M  V30 4435 P 291.458 8.7635 1.60911 0
M  V30 4436 O 291.238 10.1388 1.11561 0
M  V30 4437 O 290.668 8.36503 2.79617 0
M  V30 4438 O 291.208 7.71806 0.42951 0
M  V30 4439 C 292.148 7.67148 -0.673689 0
M  V30 4440 C 291.418 7.33374 -1.95559 0
M  V30 4441 O 291.208 5.88721 -2.00726 0
M  V30 4442 C 290.018 7.92526 -2.10483 0
M  V30 4443 O 289.628 8.02971 -3.47653 0
M  V30 4444 C 289.138 6.89602 -1.41652 0
M  V30 4445 C 289.848 5.59201 -1.75185 0
M  V30 4446 N 289.798 4.58235 -0.662552 0
M  V30 4447 H 292.637 8.65116 -0.777161 0
M  V30 4448 H 292.909 6.90173 -0.474152 0
M  V30 4449 H 292.041 7.66548 -2.79458 0
M  V30 4450 P 288.078 8.03563 -3.84925 0
M  V30 4451 O 287.858 8.85821 -5.0569 0
M  V30 4452 O 287.288 8.41101 -2.65469 0
M  V30 4453 O 287.828 6.4965 -4.18908 0
M  V30 4454 C 288.768 5.81037 -5.05421 0
M  V30 4455 C 288.038 4.78366 -5.89277 0
M  V30 4456 O 287.828 3.58302 -5.08433 0
M  V30 4457 C 286.638 5.17448 -6.36119 0
M  V30 4458 O 286.248 4.45271 -7.53232 0
M  V30 4459 C 285.758 4.74639 -5.19936 0
M  V30 4460 C 286.468 3.49432 -4.70418 0
M  V30 4461 N 286.418 3.31776 -3.22945 0
M  V30 4462 H 289.257 6.54213 -5.71376 0
M  V30 4463 H 289.529 5.30492 -4.44033 0
M  V30 4464 H 288.661 4.55889 -6.76652 0
M  V30 4465 P 284.698 4.23843 -7.83734 0
M  V30 4466 O 284.478 4.19407 -9.29784 0
M  V30 4467 O 283.908 5.24426 -7.09156 0
M  V30 4468 O 284.448 2.7935 -7.20758 0
M  V30 4469 C 285.388 1.7299 -7.50419 0
M  V30 4470 C 284.658 0.406376 -7.57911 0
M  V30 4471 O 284.448 -0.0897726 -6.21935 0
M  V30 4472 C 283.258 0.447224 -8.1878 0
M  V30 4473 O 282.868 -0.825065 -8.71101 0
M  V30 4474 C 282.378 0.783801 -6.99623 0
M  V30 4475 C 283.088 0.0619192 -5.85967 0
M  V30 4476 N 283.038 0.7859 -4.56281 0
M  V30 4477 H 285.877 1.93423 -8.4679 0
M  V30 4478 H 286.149 1.68181 -6.71046 0
M  V30 4479 H 285.281 -0.289041 -8.15388 0
M  V30 4480 P 281.318 -1.17771 -8.83182 0
M  V30 4481 O 281.098 -2.07206 -9.98732 0
M  V30 4482 O 280.528 0.0743816 -8.81969 0
M  V30 4483 O 281.068 -1.97652 -7.47304 0
M  V30 4484 C 282.008 -3.01055 -7.08599 0
M  V30 4485 C 281.278 -4.12613 -6.37049 0
M  V30 4486 O 281.068 -3.72827 -4.97879 0
M  V30 4487 C 279.878 -4.45719 -6.88164 0
M  V30 4488 O 279.488 -5.7877 -6.5624 0
M  V30 4489 C 278.998 -3.47768 -6.11991 0
M  V30 4490 C 279.708 -3.39356 -4.77615 0
M  V30 4491 N 279.658 -2.04571 -4.15244 0
M  V30 4492 C 279.508 -1.98587 -2.78314 0
M  V30 4493 O 279.418 -2.98134 -2.08835 0
M  V30 4494 N 279.468 -0.714467 -2.24925 0
M  V30 4495 C 279.558 0.470001 -2.94169 0
M  V30 4496 C 279.708 0.312541 -4.36783 0
M  V30 4497 C 279.758 -0.914512 -4.92583 0
M  V30 4498 H 282.499 -3.41169 -7.98575 0
M  V30 4499 H 282.768 -2.58295 -6.41556 0
M  V30 4500 H 281.901 -5.02657 -6.42673 0
M  V30 4501 H 279.246 -4.11637 -4.08885 0
M  V30 4502 H 278.967 -2.49626 -6.61679 0
M  V30 4503 H 277.975 -3.86566 -6.00778 0
M  V30 4504 H 279.809 -4.29943 -7.96918 0
M  V30 4505 H 279.88 -1.00937 -6.00374 0
M  V30 4506 P 277.938 -6.144 -6.45285 0
M  V30 4507 O 277.718 -7.54673 -6.86199 0
M  V30 4508 O 277.148 -5.12391 -7.179 0
M  V30 4509 O 277.688 -5.99158 -4.88404 0
M  V30 4510 C 278.628 -6.60234 -3.96415 0
M  V30 4511 C 277.898 -7.08259 -2.72856 0
M  V30 4512 O 277.688 -5.9427 -1.83651 0
M  V30 4513 C 276.498 -7.64886 -2.9555 0
M  V30 4514 O 276.108 -8.53963 -1.90717 0
M  V30 4515 C 275.618 -6.4116 -2.90739 0
M  V30 4516 C 276.328 -5.55375 -1.86963 0
M  V30 4517 N 276.278 -4.09664 -2.15742 0
M  V30 4518 H 279.117 -7.45574 -4.45629 0
M  V30 4519 H 279.389 -5.86232 -3.67314 0
M  V30 4520 H 278.521 -7.84412 -2.24479 0
M  V30 4521 P 274.558 -8.7635 -1.60911 0
M  V30 4522 O 274.338 -10.1388 -1.11561 0
M  V30 4523 O 273.768 -8.36503 -2.79617 0
M  V30 4524 O 274.308 -7.71806 -0.42951 0
M  V30 4525 C 275.248 -7.67148 0.673689 0
M  V30 4526 C 274.518 -7.33374 1.95559 0
M  V30 4527 O 274.308 -5.88721 2.00726 0
M  V30 4528 C 273.118 -7.92526 2.10483 0
M  V30 4529 O 272.728 -8.02971 3.47653 0
M  V30 4530 C 272.238 -6.89602 1.41652 0
M  V30 4531 C 272.948 -5.59201 1.75185 0
M  V30 4532 N 272.898 -4.58235 0.662552 0
M  V30 4533 C 272.978 -4.7683 -0.704049 0
M  V30 4534 N 272.898 -3.66233 -1.39775 0
M  V30 4535 C 272.758 -2.66526 -0.431739 0
M  V30 4536 C 272.628 -1.26394 -0.575992 0
M  V30 4537 N 272.508 -0.62859 0.67177 0
M  V30 4538 C 272.508 -1.27134 1.89385 0
M  V30 4539 N 272.378 -0.492035 2.96951 0
M  V30 4540 N 272.638 -2.58978 2.02907 0
M  V30 4541 C 272.758 -3.22433 0.832218 0
M  V30 4542 H 275.737 -8.65116 0.777161 0
M  V30 4543 H 276.009 -6.90173 0.474152 0
M  V30 4544 H 275.141 -7.66548 2.79458 0
M  V30 4545 P 271.178 -8.03563 3.84925 0
M  V30 4546 O 270.958 -8.85821 5.0569 0
M  V30 4547 O 270.388 -8.41101 2.65469 0
M  V30 4548 O 270.928 -6.4965 4.18908 0
M  V30 4549 C 271.868 -5.81037 5.05421 0
M  V30 4550 C 271.138 -4.78366 5.89277 0
M  V30 4551 O 270.928 -3.58302 5.08433 0
M  V30 4552 C 269.738 -5.17448 6.36119 0
M  V30 4553 O 269.348 -4.45271 7.53232 0
M  V30 4554 C 268.858 -4.74639 5.19936 0
M  V30 4555 C 269.568 -3.49432 4.70418 0
M  V30 4556 N 269.518 -3.32099 3.22613 0
M  V30 4557 H 272.357 -6.54213 5.71376 0
M  V30 4558 H 272.629 -5.30936 4.43503 0
M  V30 4559 H 271.761 -4.55889 6.76652 0
M  V30 4560 H 269.106 -2.61715 5.17932 0
M  V30 4561 H 268.826 -5.52155 4.41878 0
M  V30 4562 H 267.835 -4.51981 5.53374 0
M  V30 4563 H 269.669 -6.25124 6.55234 0
M  V30 4564 P 267.798 -4.23843 7.83734 0
M  V30 4565 O 267.578 -4.19407 9.29784 0
M  V30 4566 O 267.008 -5.24426 7.09156 0
M  V30 4567 O 267.548 -2.7935 7.20758 0
M  V30 4568 C 268.488 -1.7299 7.50419 0
M  V30 4569 C 267.758 -0.406376 7.57911 0
M  V30 4570 O 267.548 0.0897726 6.21935 0
M  V30 4571 C 266.358 -0.447224 8.1878 0
M  V30 4572 O 265.968 0.825065 8.71101 0
M  V30 4573 C 265.478 -0.783801 6.99623 0
M  V30 4574 C 266.188 -0.0619192 5.85967 0
M  V30 4575 N 266.138 -0.7859 4.56281 0
M  V30 4576 H 268.977 -1.93423 8.4679 0
M  V30 4577 H 269.249 -1.68181 6.71046 0
M  V30 4578 H 268.381 0.289041 8.15388 0
M  V30 4579 P 264.418 1.17771 8.83182 0
M  V30 4580 O 264.198 2.07206 9.98732 0
M  V30 4581 O 263.628 -0.0743816 8.81969 0
M  V30 4582 O 264.168 1.97652 7.47304 0
M  V30 4583 C 265.108 3.01133 7.08783 0
M  V30 4584 C 264.378 4.12613 6.37049 0
M  V30 4585 O 264.168 3.72827 4.97879 0
M  V30 4586 C 262.978 4.45085 6.88694 0
M  V30 4587 O 262.588 5.7877 6.5624 0
M  V30 4588 C 262.098 3.47817 6.12078 0
M  V30 4589 C 262.808 3.39414 4.77697 0
M  V30 4590 N 262.758 2.04615 4.15333 0
M  V30 4591 H 265.597 3.41248 7.98759 0
M  V30 4592 H 265.869 2.5837 6.41742 0
M  V30 4593 H 265.001 5.02657 6.42673 0
M  V30 4594 P 261.038 6.144 6.45285 0
M  V30 4595 O 260.818 7.54673 6.86199 0
M  V30 4596 O 260.248 5.12391 7.179 0
M  V30 4597 O 260.788 5.99158 4.88404 0
M  V30 4598 C 261.728 6.60234 3.96415 0
M  V30 4599 C 260.998 7.08259 2.72856 0
M  V30 4600 O 260.788 5.9427 1.83651 0
M  V30 4601 C 259.598 7.64886 2.9555 0
M  V30 4602 O 259.208 8.53963 1.90717 0
M  V30 4603 C 258.718 6.4116 2.90739 0
M  V30 4604 C 259.428 5.55375 1.86963 0
M  V30 4605 N 259.378 4.09664 2.15742 0
M  V30 4606 H 262.217 7.45574 4.45629 0
M  V30 4607 H 262.489 5.86232 3.67314 0
M  V30 4608 H 261.621 7.84412 2.24479 0
M  V30 4609 P 257.658 8.7635 1.60911 0
M  V30 4610 O 257.438 10.1388 1.11561 0
M  V30 4611 O 256.868 8.36503 2.79617 0
M  V30 4612 O 257.408 7.71806 0.42951 0
M  V30 4613 C 258.348 7.67148 -0.673689 0
M  V30 4614 C 257.618 7.33374 -1.95559 0
M  V30 4615 O 257.408 5.88721 -2.00726 0
M  V30 4616 C 256.218 7.92526 -2.10483 0
M  V30 4617 O 255.828 8.02971 -3.47653 0
M  V30 4618 C 255.338 6.89602 -1.41652 0
M  V30 4619 C 256.048 5.59201 -1.75185 0
M  V30 4620 N 255.998 4.58235 -0.662552 0
M  V30 4621 H 258.837 8.65116 -0.777161 0
M  V30 4622 H 259.109 6.90173 -0.474152 0
M  V30 4623 H 258.241 7.66548 -2.79458 0
M  V30 4624 P 254.279 8.03563 -3.84925 0
M  V30 4625 O 254.059 8.85821 -5.0569 0
M  V30 4626 O 253.489 8.41101 -2.65469 0
M  V30 4627 O 254.029 6.4965 -4.18908 0
M  V30 4628 C 254.969 5.80886 -5.05289 0
M  V30 4629 C 254.239 4.78366 -5.89277 0
M  V30 4630 O 254.029 3.58302 -5.08433 0
M  V30 4631 C 252.839 5.16748 -6.36559 0
M  V30 4632 O 252.449 4.45271 -7.53232 0
M  V30 4633 C 251.959 4.74572 -5.19863 0
M  V30 4634 C 252.669 3.49373 -4.70338 0
M  V30 4635 N 252.619 3.31704 -3.22876 0
M  V30 4636 C 252.469 2.03326 -2.74871 0
M  V30 4637 O 252.379 1.06486 -3.48076 0
M  V30 4638 N 252.429 1.91838 -1.37456 0
M  V30 4639 C 252.519 2.94295 -0.462035 0
M  V30 4640 C 252.669 4.25064 -1.05249 0
M  V30 4641 C 252.719 4.40214 -2.39192 0
M  V30 4642 H 255.46 6.54063 -5.71245 0
M  V30 4643 H 255.729 5.30339 -4.43905 0
M  V30 4644 H 254.862 4.55889 -6.76652 0
M  V30 4645 H 252.207 2.6167 -5.17842 0
M  V30 4646 H 251.928 5.52155 -4.41878 0
M  V30 4647 H 250.936 4.51918 -5.53297 0
M  V30 4648 H 252.77 6.25055 -6.55162 0
M  V30 4649 H 252.841 5.39798 -2.81523 0
M  V30 4650 P 250.899 4.23843 -7.83734 0
M  V30 4651 O 250.679 4.19407 -9.29784 0
M  V30 4652 O 250.109 5.24426 -7.09156 0
M  V30 4653 O 250.649 2.7935 -7.20758 0
M  V30 4654 C 251.589 1.72945 -7.50224 0
M  V30 4655 C 250.859 0.406376 -7.57911 0
M  V30 4656 O 250.649 -0.0897726 -6.21935 0
M  V30 4657 C 249.459 0.438983 -8.18724 0
M  V30 4658 O 249.069 -0.825065 -8.71101 0
M  V30 4659 C 248.579 0.783689 -6.99524 0
M  V30 4660 C 249.289 0.0619086 -5.85867 0
M  V30 4661 N 249.239 0.78573 -4.56183 0
M  V30 4662 C 249.089 0.0292889 -3.41887 0
M  V30 4663 O 248.999 -1.18445 -3.4419 0
M  V30 4664 N 249.049 0.744061 -2.23964 0
M  V30 4665 C 249.139 2.10932 -2.10362 0
M  V30 4666 C 249.289 2.8202 -3.34994 0
M  V30 4667 C 249.339 2.15547 -4.52261 0
M  V30 4668 H 252.08 1.93379 -8.46595 0
M  V30 4669 H 252.349 1.68132 -6.70852 0
M  V30 4670 H 251.482 -0.289041 -8.15388 0
M  V30 4671 H 248.827 -0.926847 -5.72749 0
M  V30 4672 H 248.548 1.86973 -6.82036 0
M  V30 4673 H 247.556 0.403896 -7.13257 0
M  V30 4674 H 249.39 1.20585 -8.97435 0
M  V30 4675 H 249.461 2.71231 -5.45042 0
M  V30 4676 P 247.519 -1.17771 -8.83182 0
M  V30 4677 O 247.299 -2.07206 -9.98732 0
M  V30 4678 O 246.729 0.0743816 -8.81969 0
M  V30 4679 O 247.269 -1.97652 -7.47304 0
M  V30 4680 C 248.209 -3.01133 -7.08783 0
M  V30 4681 C 247.479 -4.12613 -6.37049 0
M  V30 4682 O 247.269 -3.72827 -4.97879 0
M  V30 4683 C 246.079 -4.45085 -6.88694 0
M  V30 4684 O 245.689 -5.7877 -6.5624 0
M  V30 4685 C 245.199 -3.47817 -6.12078 0
M  V30 4686 C 245.909 -3.39414 -4.77697 0
M  V30 4687 N 245.859 -2.04199 -4.15538 0
M  V30 4688 H 248.698 -3.41248 -7.98759 0
M  V30 4689 H 248.97 -2.57728 -6.42 0
M  V30 4690 H 248.102 -5.02657 -6.42673 0
M  V30 4691 H 245.447 -4.11708 -4.08956 0
M  V30 4692 H 245.167 -2.49626 -6.61679 0
M  V30 4693 H 244.176 -3.8662 -6.00862 0
M  V30 4694 H 246.01 -4.29991 -7.97006 0
M  V30 4695 P 244.139 -6.144 -6.45285 0
M  V30 4696 O 243.919 -7.54673 -6.86199 0
M  V30 4697 O 243.349 -5.12391 -7.179 0
M  V30 4698 O 243.889 -5.99158 -4.88404 0
M  V30 4699 C 244.829 -6.60234 -3.96415 0
M  V30 4700 C 244.099 -7.08259 -2.72856 0
M  V30 4701 O 243.889 -5.9427 -1.83651 0
M  V30 4702 C 242.699 -7.64886 -2.9555 0
M  V30 4703 O 242.309 -8.53963 -1.90717 0
M  V30 4704 C 241.819 -6.4116 -2.90739 0
M  V30 4705 C 242.529 -5.55375 -1.86963 0
M  V30 4706 N 242.479 -4.09664 -2.15742 0
M  V30 4707 H 245.318 -7.45574 -4.45629 0
M  V30 4708 H 245.59 -5.86232 -3.67314 0
M  V30 4709 H 244.722 -7.84412 -2.24479 0
M  V30 4710 P 240.759 -8.7635 -1.60911 0
M  V30 4711 O 240.539 -10.1388 -1.11561 0
M  V30 4712 O 239.969 -8.36503 -2.79617 0
M  V30 4713 O 240.509 -7.71806 -0.42951 0
M  V30 4714 C 241.449 -7.67148 0.673689 0
M  V30 4715 C 240.719 -7.33374 1.95559 0
M  V30 4716 O 240.509 -5.88721 2.00726 0
M  V30 4717 C 239.319 -7.92526 2.10483 0
M  V30 4718 O 238.929 -8.02971 3.47653 0
M  V30 4719 C 238.439 -6.89602 1.41652 0
M  V30 4720 C 239.149 -5.59201 1.75185 0
M  V30 4721 N 239.099 -4.58235 0.662552 0
M  V30 4722 H 241.938 -8.65116 0.777161 0
M  V30 4723 H 242.21 -6.90173 0.474152 0
M  V30 4724 H 241.342 -7.66548 2.79458 0
M  V30 4725 P 237.379 -8.03563 3.84925 0
M  V30 4726 O 237.159 -8.85821 5.0569 0
M  V30 4727 O 236.589 -8.41101 2.65469 0
M  V30 4728 O 237.129 -6.4965 4.18908 0
M  V30 4729 C 238.069 -5.81037 5.05421 0
M  V30 4730 C 237.339 -4.78366 5.89277 0
M  V30 4731 O 237.129 -3.58302 5.08433 0
M  V30 4732 C 235.939 -5.17448 6.36119 0
M  V30 4733 O 235.549 -4.45271 7.53232 0
M  V30 4734 C 235.059 -4.74639 5.19936 0
M  V30 4735 C 235.769 -3.49432 4.70418 0
M  V30 4736 N 235.719 -3.31776 3.22945 0
M  V30 4737 H 238.558 -6.54213 5.71376 0
M  V30 4738 H 238.83 -5.30492 4.44033 0
M  V30 4739 H 237.962 -4.55889 6.76652 0
M  V30 4740 P 233.999 -4.23843 7.83734 0
M  V30 4741 O 233.779 -4.19407 9.29784 0
M  V30 4742 O 233.209 -5.24426 7.09156 0
M  V30 4743 O 233.749 -2.7935 7.20758 0
M  V30 4744 C 234.689 -1.7299 7.50419 0
M  V30 4745 C 233.959 -0.406376 7.57911 0
M  V30 4746 O 233.749 0.0897726 6.21935 0
M  V30 4747 C 232.559 -0.447224 8.1878 0
M  V30 4748 O 232.169 0.825065 8.71101 0
M  V30 4749 C 231.679 -0.783801 6.99623 0
M  V30 4750 C 232.389 -0.0619192 5.85967 0
M  V30 4751 N 232.339 -0.7859 4.56281 0
M  V30 4752 H 235.178 -1.93423 8.4679 0
M  V30 4753 H 235.45 -1.68181 6.71046 0
M  V30 4754 H 234.582 0.289041 8.15388 0
M  V30 4755 P 230.619 1.17771 8.83182 0
M  V30 4756 O 230.399 2.07206 9.98732 0
M  V30 4757 O 229.829 -0.0743816 8.81969 0
M  V30 4758 O 230.369 1.97652 7.47304 0
M  V30 4759 C 231.309 3.01133 7.08783 0
M  V30 4760 C 230.579 4.12613 6.37049 0
M  V30 4761 O 230.369 3.72827 4.97879 0
M  V30 4762 C 229.179 4.45085 6.88694 0
M  V30 4763 O 228.789 5.7877 6.5624 0
M  V30 4764 C 228.299 3.47817 6.12078 0
M  V30 4765 C 229.009 3.39414 4.77697 0
M  V30 4766 N 228.959 2.04199 4.15538 0
M  V30 4767 H 231.798 3.41248 7.98759 0
M  V30 4768 H 232.07 2.57728 6.42 0
M  V30 4769 H 231.202 5.02657 6.42673 0
M  V30 4770 H 228.547 4.11708 4.08956 0
M  V30 4771 H 228.267 2.49626 6.61679 0
M  V30 4772 H 227.276 3.8662 6.00862 0
M  V30 4773 H 229.11 4.29991 7.97006 0
M  V30 4774 P 227.239 6.144 6.45285 0
M  V30 4775 O 227.019 7.54673 6.86199 0
M  V30 4776 O 226.449 5.12391 7.179 0
M  V30 4777 O 226.989 5.99158 4.88404 0
M  V30 4778 C 227.929 6.60234 3.96415 0
M  V30 4779 C 227.199 7.08259 2.72856 0
M  V30 4780 O 226.989 5.9427 1.83651 0
M  V30 4781 C 225.799 7.64886 2.9555 0
M  V30 4782 O 225.409 8.53963 1.90717 0
M  V30 4783 C 224.919 6.4116 2.90739 0
M  V30 4784 C 225.629 5.55375 1.86963 0
M  V30 4785 N 225.579 4.09664 2.15742 0
M  V30 4786 H 228.418 7.45574 4.45629 0
M  V30 4787 H 228.69 5.86232 3.67314 0
M  V30 4788 H 227.822 7.84412 2.24479 0
M  V30 4789 P 223.859 8.7635 1.60911 0
M  V30 4790 O 223.639 10.1388 1.11561 0
M  V30 4791 O 223.069 8.36503 2.79617 0
M  V30 4792 O 223.609 7.71806 0.42951 0
M  V30 4793 C 224.549 7.67148 -0.673689 0
M  V30 4794 C 223.819 7.33374 -1.95559 0
M  V30 4795 O 223.609 5.88721 -2.00726 0
M  V30 4796 C 222.419 7.92526 -2.10483 0
M  V30 4797 O 222.029 8.02971 -3.47653 0
M  V30 4798 C 221.539 6.89602 -1.41652 0
M  V30 4799 C 222.249 5.59201 -1.75185 0
M  V30 4800 N 222.199 4.58301 -0.657969 0
M  V30 4801 H 225.038 8.65116 -0.777161 0
M  V30 4802 H 225.31 6.9022 -0.46725 0
M  V30 4803 H 224.442 7.66548 -2.79458 0
M  V30 4804 H 221.787 5.16165 -2.65183 0
M  V30 4805 H 221.507 7.06433 -0.329384 0
M  V30 4806 H 220.516 6.90926 -1.82021 0
M  V30 4807 H 222.35 8.90873 -1.62657 0
M  V30 4808 P 220.479 8.03563 -3.84925 0
M  V30 4809 O 220.259 8.85821 -5.0569 0
M  V30 4810 O 219.689 8.41101 -2.65469 0
M  V30 4811 O 220.229 6.4965 -4.18908 0
M  V30 4812 C 221.169 5.81037 -5.05421 0
M  V30 4813 C 220.439 4.78366 -5.89277 0
M  V30 4814 O 220.229 3.58302 -5.08433 0
M  V30 4815 C 219.039 5.17448 -6.36119 0
M  V30 4816 O 218.649 4.45271 -7.53232 0
M  V30 4817 C 218.159 4.74639 -5.19936 0
M  V30 4818 C 218.869 3.49432 -4.70418 0
M  V30 4819 N 218.819 3.31776 -3.22945 0
M  V30 4820 H 221.658 6.54213 -5.71376 0
M  V30 4821 H 221.93 5.30492 -4.44033 0
M  V30 4822 H 221.062 4.55889 -6.76652 0
M  V30 4823 P 217.099 4.23843 -7.83734 0
M  V30 4824 O 216.879 4.19407 -9.29784 0
M  V30 4825 O 216.309 5.24426 -7.09156 0
M  V30 4826 O 216.849 2.7935 -7.20758 0
M  V30 4827 C 217.789 1.7299 -7.50419 0
M  V30 4828 C 217.059 0.406376 -7.57911 0
M  V30 4829 O 216.849 -0.0897726 -6.21935 0
M  V30 4830 C 215.659 0.447224 -8.1878 0
M  V30 4831 O 215.269 -0.825065 -8.71101 0
M  V30 4832 C 214.779 0.783801 -6.99623 0
M  V30 4833 C 215.489 0.0619192 -5.85967 0
M  V30 4834 N 215.439 0.790462 -4.56202 0
M  V30 4835 C 215.519 2.13895 -4.34171 0
M  V30 4836 N 215.449 2.46449 -3.08687 0
M  V30 4837 C 215.299 1.2525 -2.43697 0
M  V30 4838 C 215.169 0.914535 -1.07318 0
M  V30 4839 N 215.159 1.80782 -0.0887348 0
M  V30 4840 N 215.049 -0.386745 -0.768133 0
M  V30 4841 C 215.059 -1.28096 -1.75159 0
M  V30 4842 N 215.179 -1.09708 -3.04861 0
M  V30 4843 C 215.299 0.214857 -3.32306 0
M  V30 4844 H 218.278 1.93423 -8.4679 0
M  V30 4845 H 218.55 1.68852 -6.70877 0
M  V30 4846 H 217.682 -0.289041 -8.15388 0
M  V30 4847 H 215.027 -0.927006 -5.72848 0
M  V30 4848 H 214.747 1.86973 -6.82036 0
M  V30 4849 H 213.756 0.403953 -7.13357 0
M  V30 4850 H 215.59 1.20599 -8.97534 0
M  V30 4851 H 215.631 2.86846 -5.14318 0
M  V30 4852 H 215.25 2.81082 -0.302037 0
M  V30 4853 H 215.061 1.49688 0.889064 0
M  V30 4854 H 214.953 -2.31317 -1.43855 0
M  V30 4855 P 213.719 -1.17771 -8.83182 0
M  V30 4856 O 213.499 -2.07206 -9.98732 0
M  V30 4857 O 212.929 0.0743816 -8.81969 0
M  V30 4858 O 213.469 -1.97652 -7.47304 0
M  V30 4859 C 214.409 -3.01133 -7.08783 0
M  V30 4860 C 213.679 -4.12613 -6.37049 0
M  V30 4861 O 213.469 -3.72827 -4.97879 0
M  V30 4862 C 212.279 -4.45085 -6.88694 0
M  V30 4863 O 211.889 -5.7877 -6.5624 0
M  V30 4864 C 211.399 -3.47817 -6.12078 0
M  V30 4865 C 212.109 -3.39414 -4.77697 0
M  V30 4866 N 212.059 -2.04615 -4.15333 0
M  V30 4867 H 214.898 -3.41248 -7.98759 0
M  V30 4868 H 215.17 -2.5837 -6.41742 0
M  V30 4869 H 214.302 -5.02657 -6.42673 0
M  V30 4870 P 210.339 -6.144 -6.45285 0
M  V30 4871 O 210.119 -7.54673 -6.86199 0
M  V30 4872 O 209.549 -5.12391 -7.179 0
M  V30 4873 O 210.089 -5.99158 -4.88404 0
M  V30 4874 C 211.029 -6.60234 -3.96415 0
M  V30 4875 C 210.299 -7.08259 -2.72856 0
M  V30 4876 O 210.089 -5.9427 -1.83651 0
M  V30 4877 C 208.899 -7.64886 -2.9555 0
M  V30 4878 O 208.509 -8.53963 -1.90717 0
M  V30 4879 C 208.019 -6.4116 -2.90739 0
M  V30 4880 C 208.729 -5.55375 -1.86963 0
M  V30 4881 N 208.679 -4.09664 -2.15742 0
M  V30 4882 H 211.518 -7.45574 -4.45629 0
M  V30 4883 H 211.79 -5.86232 -3.67314 0
M  V30 4884 H 210.922 -7.84412 -2.24479 0
M  V30 4885 P 206.959 -8.7635 -1.60911 0
M  V30 4886 O 206.739 -10.1388 -1.11561 0
M  V30 4887 O 206.169 -8.36503 -2.79617 0
M  V30 4888 O 206.709 -7.71806 -0.42951 0
M  V30 4889 C 207.649 -7.67148 0.673689 0
M  V30 4890 C 206.919 -7.33374 1.95559 0
M  V30 4891 O 206.709 -5.88721 2.00726 0
M  V30 4892 C 205.519 -7.92526 2.10483 0
M  V30 4893 O 205.129 -8.02971 3.47653 0
M  V30 4894 C 204.639 -6.89602 1.41652 0
M  V30 4895 C 205.349 -5.59201 1.75185 0
M  V30 4896 N 205.299 -4.58301 0.657969 0
M  V30 4897 H 208.138 -8.65116 0.777161 0
M  V30 4898 H 208.41 -6.9022 0.46725 0
M  V30 4899 H 207.542 -7.66548 2.79458 0
M  V30 4900 H 204.887 -5.16165 2.65183 0
M  V30 4901 H 204.607 -7.06433 0.329384 0
M  V30 4902 H 203.616 -6.90926 1.82021 0
M  V30 4903 H 205.45 -8.90873 1.62657 0
M  V30 4904 P 203.579 -8.03563 3.84925 0
M  V30 4905 O 203.359 -8.85821 5.0569 0
M  V30 4906 O 202.789 -8.41101 2.65469 0
M  V30 4907 O 203.329 -6.49734 4.18962 0
M  V30 4908 C 204.269 -5.81037 5.05421 0
M  V30 4909 C 203.539 -4.79018 5.88876 0
M  V30 4910 O 203.329 -3.58359 5.08515 0
M  V30 4911 C 202.139 -5.17448 6.36119 0
M  V30 4912 O 201.749 -4.45322 7.53318 0
M  V30 4913 C 201.259 -4.74639 5.19936 0
M  V30 4914 C 201.969 -3.49432 4.70418 0
M  V30 4915 N 201.919 -3.31776 3.22945 0
M  V30 4916 C 201.769 -2.02742 2.72939 0
M  V30 4917 O 201.679 -1.08301 3.52749 0
M  V30 4918 N 201.719 -1.96117 1.22063 0
M  V30 4919 C 201.819 -2.8878 0.551566 0
M  V30 4920 N 201.769 -2.65609 -0.750198 0
M  V30 4921 C 201.969 -4.22457 1.03707 0
M  V30 4922 C 202.019 -4.37979 2.39113 0
M  V30 4923 H 204.759 -6.54138 5.7131 0
M  V30 4924 H 205.029 -5.30492 4.44033 0
M  V30 4925 H 204.162 -4.55945 6.76735 0
M  V30 4926 H 201.507 -2.6176 5.18021 0
M  V30 4927 H 201.227 -5.52233 4.41941 0
M  V30 4928 H 200.236 -4.52045 5.53452 0
M  V30 4929 H 202.07 -6.25124 6.55234 0
M  V30 4930 H 202.142 -5.37936 2.80552 0
M  V30 4931 H 202.04 -5.07528 0.359553 0
M  V30 4932 H 201.652 -1.69403 -1.09847 0
M  V30 4933 H 201.848 -3.43701 -1.41792 0
M  V30 4934 P 200.199 -4.23843 7.83734 0
M  V30 4935 O 199.979 -4.19407 9.29784 0
M  V30 4936 O 199.409 -5.24426 7.09156 0
M  V30 4937 O 199.949 -2.7935 7.20758 0
M  V30 4938 C 200.889 -1.72945 7.50224 0
M  V30 4939 C 200.159 -0.406376 7.57911 0
M  V30 4940 O 199.949 0.0897726 6.21935 0
M  V30 4941 C 198.759 -0.438983 8.18724 0
M  V30 4942 O 198.369 0.825065 8.71101 0
M  V30 4943 C 197.879 -0.783689 6.99524 0
M  V30 4944 C 198.589 -0.0619086 5.85867 0
M  V30 4945 N 198.539 -0.78573 4.56183 0
M  V30 4946 C 198.389 -0.0292889 3.41887 0
M  V30 4947 O 198.299 1.18445 3.4419 0
M  V30 4948 N 198.349 -0.744061 2.23964 0
M  V30 4949 C 198.439 -2.10932 2.10362 0
M  V30 4950 O 198.389 -2.64117 0.98825 0
M  V30 4951 C 198.589 -2.8202 3.34994 0
M  V30 4952 C 198.699 -4.31095 3.25037 0
M  V30 4953 C 198.639 -2.15547 4.52261 0
M  V30 4954 H 201.38 -1.93379 8.46595 0
M  V30 4955 H 201.649 -1.68132 6.70852 0
M  V30 4956 H 200.782 0.289041 8.15388 0
M  V30 4957 H 198.127 0.926847 5.72749 0
M  V30 4958 H 197.848 -1.86973 6.82036 0
M  V30 4959 H 196.856 -0.403896 7.13257 0
M  V30 4960 H 198.69 -1.20585 8.97435 0
M  V30 4961 H 198.761 -2.71231 5.45042 0
M  V30 4962 H 197.731 -4.76966 3.49992 0
M  V30 4963 H 199.468 -4.67047 3.95024 0
M  V30 4964 H 198.98 -4.58996 2.22312 0
M  V30 4965 H 198.244 -0.214893 1.39758 0
M  V30 4966 P 196.819 1.17771 8.83182 0
M  V30 4967 O 196.599 2.07206 9.98732 0
M  V30 4968 O 196.029 -0.0743816 8.81969 0
M  V30 4969 O 196.569 1.97652 7.47304 0
M  V30 4970 C 197.509 3.01055 7.08599 0
M  V30 4971 C 196.779 4.12613 6.37049 0
M  V30 4972 O 196.569 3.72827 4.97879 0
M  V30 4973 C 195.379 4.45719 6.88164 0
M  V30 4974 O 194.989 5.7877 6.5624 0
M  V30 4975 C 194.499 3.47768 6.11991 0
M  V30 4976 C 195.209 3.39356 4.77615 0
M  V30 4977 N 195.159 2.04571 4.15244 0
M  V30 4978 C 195.009 1.98587 2.78314 0
M  V30 4979 O 194.919 2.98134 2.08835 0
M  V30 4980 N 194.969 0.714467 2.24925 0
M  V30 4981 C 195.059 -0.470001 2.94169 0
M  V30 4982 O 195.009 -1.55587 2.35195 0
M  V30 4983 C 195.209 -0.312541 4.36783 0
M  V30 4984 C 195.319 -1.57711 5.16352 0
M  V30 4985 C 195.259 0.914512 4.92583 0
M  V30 4986 H 198 3.41169 7.98575 0
M  V30 4987 H 198.269 2.58295 6.41556 0
M  V30 4988 H 197.402 5.02657 6.42673 0
M  V30 4989 H 194.747 4.11637 4.08885 0
M  V30 4990 H 194.468 2.49626 6.61679 0
M  V30 4991 H 193.476 3.86566 6.00778 0
M  V30 4992 H 195.31 4.29943 7.96918 0
M  V30 4993 H 195.381 1.00937 6.00374 0
M  V30 4994 H 194.351 -1.80153 5.63503 0
M  V30 4995 H 196.088 -1.4566 5.94104 0
M  V30 4996 H 195.6 -2.40664 4.49645 0
M  V30 4997 H 194.864 0.647622 1.25697 0
M  V30 4998 P 193.439 6.144 6.45285 0
M  V30 4999 O 193.219 7.54673 6.86199 0
M  V30 5000 O 192.649 5.12391 7.179 0
M  V30 5001 O 193.189 5.99158 4.88404 0
M  V30 5002 C 194.129 6.60234 3.96415 0
M  V30 5003 C 193.399 7.08259 2.72856 0
M  V30 5004 O 193.189 5.9427 1.83651 0
M  V30 5005 C 191.999 7.64886 2.9555 0
M  V30 5006 O 191.609 8.53963 1.90717 0
M  V30 5007 C 191.119 6.4116 2.90739 0
M  V30 5008 C 191.829 5.55375 1.86963 0
M  V30 5009 N 191.779 4.09448 2.16152 0
M  V30 5010 H 194.618 7.45574 4.45629 0
M  V30 5011 H 194.89 5.85864 3.679 0
M  V30 5012 H 194.022 7.84412 2.24479 0
M  V30 5013 H 191.367 5.73457 0.888562 0
M  V30 5014 H 191.087 5.90877 3.88583 0
M  V30 5015 H 190.096 6.6596 2.58858 0
M  V30 5016 H 191.93 8.16339 3.92049 0
M  V30 5017 P 190.059 8.7635 1.60911 0
M  V30 5018 O 189.839 10.1388 1.11561 0
M  V30 5019 O 189.269 8.36503 2.79617 0
M  V30 5020 O 189.809 7.71806 0.42951 0
M  V30 5021 C 190.749 7.66948 -0.673514 0
M  V30 5022 C 190.019 7.33374 -1.95559 0
M  V30 5023 O 189.809 5.88721 -2.00726 0
M  V30 5024 C 188.619 7.92218 -2.1125 0
M  V30 5025 O 188.229 8.02971 -3.47653 0
M  V30 5026 C 187.739 6.89504 -1.41631 0
M  V30 5027 C 188.449 5.59106 -1.75155 0
M  V30 5028 N 188.399 4.58136 -0.662409 0
M  V30 5029 C 188.249 3.26059 -1.02863 0
M  V30 5030 O 188.159 2.90743 -2.19009 0
M  V30 5031 N 188.209 2.35995 0.0155585 0
M  V30 5032 C 188.299 2.65248 1.35603 0
M  V30 5033 C 188.449 4.05747 1.64698 0
M  V30 5034 C 188.499 4.96734 0.652411 0
M  V30 5035 H 191.24 8.64917 -0.776982 0
M  V30 5036 H 191.509 6.89974 -0.474015 0
M  V30 5037 H 190.642 7.66548 -2.79458 0
M  V30 5038 H 187.987 5.16076 -2.65138 0
M  V30 5039 H 187.708 7.06433 -0.329384 0
M  V30 5040 H 186.716 6.90829 -1.81996 0
M  V30 5041 H 188.55 8.90774 -1.62639 0
M  V30 5042 H 188.621 6.02181 0.895285 0
M  V30 5043 P 186.679 8.03563 -3.84925 0
M  V30 5044 O 186.459 8.85821 -5.0569 0
M  V30 5045 O 185.889 8.41101 -2.65469 0
M  V30 5046 O 186.429 6.4965 -4.18908 0
M  V30 5047 C 187.369 5.81037 -5.05421 0
M  V30 5048 C 186.639 4.78366 -5.89277 0
M  V30 5049 O 186.429 3.58302 -5.08433 0
M  V30 5050 C 185.239 5.17448 -6.36119 0
M  V30 5051 O 184.849 4.45271 -7.53232 0
M  V30 5052 C 184.359 4.74639 -5.19936 0
M  V30 5053 C 185.069 3.49432 -4.70418 0
M  V30 5054 N 185.019 3.31776 -3.22945 0
M  V30 5055 H 187.858 6.54213 -5.71376 0
M  V30 5056 H 188.13 5.30492 -4.44033 0
M  V30 5057 H 187.262 4.55889 -6.76652 0
M  V30 5058 P 183.299 4.23843 -7.83734 0
M  V30 5059 O 183.079 4.19407 -9.29784 0
M  V30 5060 O 182.509 5.24426 -7.09156 0
M  V30 5061 O 183.049 2.7935 -7.20758 0
M  V30 5062 C 183.989 1.72945 -7.50224 0
M  V30 5063 C 183.259 0.406376 -7.57911 0
M  V30 5064 O 183.049 -0.0897726 -6.21935 0
M  V30 5065 C 181.859 0.438983 -8.18724 0
M  V30 5066 O 181.469 -0.825065 -8.71101 0
M  V30 5067 C 180.979 0.783689 -6.99524 0
M  V30 5068 C 181.689 0.0619086 -5.85867 0
M  V30 5069 N 181.639 0.78573 -4.56183 0
M  V30 5070 C 181.489 0.0292889 -3.41887 0
M  V30 5071 O 181.399 -1.18445 -3.4419 0
M  V30 5072 N 181.449 0.744061 -2.23964 0
M  V30 5073 C 181.539 2.10932 -2.10362 0
M  V30 5074 O 181.489 2.64117 -0.98825 0
M  V30 5075 C 181.689 2.8202 -3.34994 0
M  V30 5076 C 181.799 4.31095 -3.25037 0
M  V30 5077 C 181.739 2.15547 -4.52261 0
M  V30 5078 H 184.48 1.93379 -8.46595 0
M  V30 5079 H 184.749 1.68132 -6.70852 0
M  V30 5080 H 183.882 -0.289041 -8.15388 0
M  V30 5081 H 181.227 -0.926847 -5.72749 0
M  V30 5082 H 180.948 1.86973 -6.82036 0
M  V30 5083 H 179.956 0.403896 -7.13257 0
M  V30 5084 H 181.79 1.20585 -8.97435 0
M  V30 5085 H 181.861 2.71231 -5.45042 0
M  V30 5086 H 180.831 4.76966 -3.49992 0
M  V30 5087 H 182.568 4.67047 -3.95024 0
M  V30 5088 H 182.08 4.58996 -2.22312 0
M  V30 5089 H 181.344 0.214893 -1.39758 0
M  V30 5090 P 179.919 -1.17771 -8.83182 0
M  V30 5091 O 179.699 -2.07206 -9.98732 0
M  V30 5092 O 179.129 0.0743816 -8.81969 0
M  V30 5093 O 179.669 -1.97652 -7.47304 0
M  V30 5094 C 180.609 -3.01133 -7.08783 0
M  V30 5095 C 179.879 -4.12613 -6.37049 0
M  V30 5096 O 179.669 -3.72827 -4.97879 0
M  V30 5097 C 178.479 -4.45085 -6.88694 0
M  V30 5098 O 178.089 -5.7877 -6.5624 0
M  V30 5099 C 177.599 -3.47817 -6.12078 0
M  V30 5100 C 178.309 -3.39414 -4.77697 0
M  V30 5101 N 178.259 -2.04199 -4.15538 0
M  V30 5102 H 181.098 -3.41248 -7.98759 0
M  V30 5103 H 181.37 -2.57728 -6.42 0
M  V30 5104 H 180.502 -5.02657 -6.42673 0
M  V30 5105 H 177.847 -4.11708 -4.08956 0
M  V30 5106 H 177.567 -2.49626 -6.61679 0
M  V30 5107 H 176.576 -3.8662 -6.00862 0
M  V30 5108 H 178.41 -4.29991 -7.97006 0
M  V30 5109 P 176.539 -6.144 -6.45285 0
M  V30 5110 O 176.319 -7.54673 -6.86199 0
M  V30 5111 O 175.749 -5.12391 -7.179 0
M  V30 5112 O 176.289 -5.99158 -4.88404 0
M  V30 5113 C 177.229 -6.60234 -3.96415 0
M  V30 5114 C 176.499 -7.08259 -2.72856 0
M  V30 5115 O 176.289 -5.9427 -1.83651 0
M  V30 5116 C 175.099 -7.64886 -2.9555 0
M  V30 5117 O 174.709 -8.53963 -1.90717 0
M  V30 5118 C 174.219 -6.4116 -2.90739 0
M  V30 5119 C 174.929 -5.55375 -1.86963 0
M  V30 5120 N 174.879 -4.09448 -2.16152 0
M  V30 5121 C 174.959 -3.46824 -3.37593 0
M  V30 5122 N 174.889 -2.17422 -3.29777 0
M  V30 5123 C 174.739 -1.93065 -1.94427 0
M  V30 5124 C 174.609 -0.738053 -1.20141 0
M  V30 5125 N 174.599 0.474256 -1.74676 0
M  V30 5126 N 174.489 -0.850049 0.13045 0
M  V30 5127 C 174.499 -2.06169 0.676992 0
M  V30 5128 N 174.619 -3.23842 0.101312 0
M  V30 5129 C 174.739 -3.09402 -1.23122 0
M  V30 5130 H 177.718 -7.45574 -4.45629 0
M  V30 5131 H 177.99 -5.85864 -3.679 0
M  V30 5132 H 177.122 -7.84412 -2.24479 0
M  V30 5133 H 174.467 -5.73457 -0.888562 0
M  V30 5134 H 174.187 -5.90877 -3.88583 0
M  V30 5135 H 173.196 -6.6596 -2.58858 0
M  V30 5136 H 175.03 -8.16339 -3.92049 0
M  V30 5137 H 175.071 -4.00505 -4.3174 0
M  V30 5138 H 174.69 0.581337 -2.76658 0
M  V30 5139 H 174.501 1.30811 -1.14888 0
M  V30 5140 H 174.393 -2.08295 1.75542 0
M  V30 5141 P 173.159 -8.7635 -1.60911 0
M  V30 5142 O 172.939 -10.1388 -1.11561 0
M  V30 5143 O 172.369 -8.36503 -2.79617 0
M  V30 5144 O 172.909 -7.71806 -0.42951 0
M  V30 5145 C 173.849 -7.67148 0.673689 0
M  V30 5146 C 173.119 -7.33374 1.95559 0
M  V30 5147 O 172.909 -5.88721 2.00726 0
M  V30 5148 C 171.719 -7.92526 2.10483 0
M  V30 5149 O 171.329 -8.02971 3.47653 0
M  V30 5150 C 170.839 -6.89602 1.41652 0
M  V30 5151 C 171.549 -5.59201 1.75185 0
M  V30 5152 N 171.499 -4.58235 0.662552 0
M  V30 5153 H 174.338 -8.65116 0.777161 0
M  V30 5154 H 174.61 -6.90173 0.474152 0
M  V30 5155 H 173.742 -7.66548 2.79458 0
M  V30 5156 P 169.779 -8.03563 3.84925 0
M  V30 5157 O 169.559 -8.85821 5.0569 0
M  V30 5158 O 168.989 -8.41101 2.65469 0
M  V30 5159 O 169.529 -6.4965 4.18908 0
M  V30 5160 C 170.469 -5.80886 5.05289 0
M  V30 5161 C 169.739 -4.78366 5.89277 0
M  V30 5162 O 169.529 -3.58302 5.08433 0
M  V30 5163 C 168.339 -5.16748 6.36559 0
M  V30 5164 O 167.949 -4.45271 7.53232 0
M  V30 5165 C 167.459 -4.74572 5.19863 0
M  V30 5166 C 168.169 -3.49373 4.70338 0
M  V30 5167 N 168.119 -3.31704 3.22876 0
M  V30 5168 C 167.969 -2.03326 2.74871 0
M  V30 5169 O 167.879 -1.06486 3.48076 0
M  V30 5170 N 167.929 -1.91838 1.37456 0
M  V30 5171 C 168.019 -2.94295 0.462035 0
M  V30 5172 C 168.169 -4.25064 1.05249 0
M  V30 5173 C 168.219 -4.40214 2.39192 0
M  V30 5174 H 170.96 -6.54063 5.71245 0
M  V30 5175 H 171.229 -5.30339 4.43905 0
M  V30 5176 H 170.362 -4.55889 6.76652 0
M  V30 5177 H 167.707 -2.6167 5.17842 0
M  V30 5178 H 167.428 -5.52155 4.41878 0
M  V30 5179 H 166.436 -4.51918 5.53297 0
M  V30 5180 H 168.27 -6.25055 6.55162 0
M  V30 5181 H 168.341 -5.39798 2.81523 0
M  V30 5182 P 166.399 -4.23843 7.83734 0
M  V30 5183 O 166.179 -4.19407 9.29784 0
M  V30 5184 O 165.609 -5.24426 7.09156 0
M  V30 5185 O 166.149 -2.7935 7.20758 0
M  V30 5186 C 167.089 -1.7299 7.50419 0
M  V30 5187 C 166.359 -0.406376 7.57911 0
M  V30 5188 O 166.149 0.0897726 6.21935 0
M  V30 5189 C 164.959 -0.447224 8.1878 0
M  V30 5190 O 164.569 0.825065 8.71101 0
M  V30 5191 C 164.079 -0.783801 6.99623 0
M  V30 5192 C 164.789 -0.0619192 5.85967 0
M  V30 5193 N 164.739 -0.7859 4.56281 0
M  V30 5194 H 167.578 -1.93423 8.4679 0
M  V30 5195 H 167.85 -1.68181 6.71046 0
M  V30 5196 H 166.982 0.289041 8.15388 0
M  V30 5197 P 163.019 1.17771 8.83182 0
M  V30 5198 O 162.799 2.07206 9.98732 0
M  V30 5199 O 162.229 -0.0743816 8.81969 0
M  V30 5200 O 162.769 1.97652 7.47304 0
M  V30 5201 C 163.709 3.01133 7.08783 0
M  V30 5202 C 162.979 4.12613 6.37049 0
M  V30 5203 O 162.769 3.72827 4.97879 0
M  V30 5204 C 161.579 4.45085 6.88694 0
M  V30 5205 O 161.189 5.7877 6.5624 0
M  V30 5206 C 160.699 3.47817 6.12078 0
M  V30 5207 C 161.409 3.39414 4.77697 0
M  V30 5208 N 161.359 2.04199 4.15538 0
M  V30 5209 H 164.198 3.41248 7.98759 0
M  V30 5210 H 164.47 2.57728 6.42 0
M  V30 5211 H 163.602 5.02657 6.42673 0
M  V30 5212 H 160.947 4.11708 4.08956 0
M  V30 5213 H 160.667 2.49626 6.61679 0
M  V30 5214 H 159.676 3.8662 6.00862 0
M  V30 5215 H 161.51 4.29991 7.97006 0
M  V30 5216 P 159.639 6.144 6.45285 0
M  V30 5217 O 159.419 7.54673 6.86199 0
M  V30 5218 O 158.849 5.12391 7.179 0
M  V30 5219 O 159.389 5.99158 4.88404 0
M  V30 5220 C 160.329 6.60062 3.96313 0
M  V30 5221 C 159.599 7.08259 2.72856 0
M  V30 5222 O 159.389 5.9427 1.83651 0
M  V30 5223 C 158.199 7.65087 2.94749 0
M  V30 5224 O 157.809 8.53963 1.90717 0
M  V30 5225 C 157.319 6.41069 2.90698 0
M  V30 5226 C 158.029 5.5528 1.86931 0
M  V30 5227 N 157.979 4.09575 2.15696 0
M  V30 5228 C 157.829 3.24249 1.08435 0
M  V30 5229 O 157.739 3.63946 -0.0628747 0
M  V30 5230 N 157.789 1.90009 1.39973 0
M  V30 5231 C 157.879 1.34884 2.65614 0
M  V30 5232 C 158.029 2.3145 3.71736 0
M  V30 5233 C 158.079 3.63518 3.44754 0
M  V30 5234 H 160.82 7.45402 4.45526 0
M  V30 5235 H 161.089 5.86062 3.67208 0
M  V30 5236 H 160.222 7.84412 2.24479 0
M  V30 5237 H 157.567 5.73358 0.888409 0
M  V30 5238 H 157.288 5.90877 3.88583 0
M  V30 5239 H 156.296 6.65867 2.58821 0
M  V30 5240 H 158.13 8.16248 3.92006 0
M  V30 5241 H 158.201 4.34551 4.26383 0
M  V30 5242 P 156.259 8.7635 1.60911 0
M  V30 5243 O 156.039 10.1388 1.11561 0
M  V30 5244 O 155.469 8.36503 2.79617 0
M  V30 5245 O 156.009 7.71806 0.42951 0
M  V30 5246 C 156.949 7.67148 -0.673689 0
M  V30 5247 C 156.219 7.33374 -1.95559 0
M  V30 5248 O 156.009 5.88721 -2.00726 0
M  V30 5249 C 154.819 7.92526 -2.10483 0
M  V30 5250 O 154.429 8.02971 -3.47653 0
M  V30 5251 C 153.939 6.89602 -1.41652 0
M  V30 5252 C 154.649 5.59201 -1.75185 0
M  V30 5253 N 154.599 4.58235 -0.662552 0
M  V30 5254 H 157.438 8.65116 -0.777161 0
M  V30 5255 H 157.71 6.90173 -0.474152 0
M  V30 5256 H 156.842 7.66548 -2.79458 0
M  V30 5257 P 152.879 8.03563 -3.84925 0
M  V30 5258 O 152.659 8.85821 -5.0569 0
M  V30 5259 O 152.089 8.41101 -2.65469 0
M  V30 5260 O 152.629 6.4965 -4.18908 0
M  V30 5261 C 153.569 5.81037 -5.05421 0
M  V30 5262 C 152.839 4.78366 -5.89277 0
M  V30 5263 O 152.629 3.58302 -5.08433 0
M  V30 5264 C 151.439 5.17448 -6.36119 0
M  V30 5265 O 151.049 4.45271 -7.53232 0
M  V30 5266 C 150.559 4.74639 -5.19936 0
M  V30 5267 C 151.269 3.49432 -4.70418 0
M  V30 5268 N 151.219 3.31776 -3.22945 0
M  V30 5269 H 154.058 6.54213 -5.71376 0
M  V30 5270 H 154.33 5.30492 -4.44033 0
M  V30 5271 H 153.462 4.55889 -6.76652 0
M  V30 5272 P 149.499 4.23843 -7.83734 0
M  V30 5273 O 149.279 4.19407 -9.29784 0
M  V30 5274 O 148.709 5.24426 -7.09156 0
M  V30 5275 O 149.249 2.7935 -7.20758 0
M  V30 5276 C 150.189 1.72945 -7.50224 0
M  V30 5277 C 149.459 0.406376 -7.57911 0
M  V30 5278 O 149.249 -0.0897726 -6.21935 0
M  V30 5279 C 148.059 0.438983 -8.18724 0
M  V30 5280 O 147.669 -0.825065 -8.71101 0
M  V30 5281 C 147.179 0.783689 -6.99524 0
M  V30 5282 C 147.889 0.0619086 -5.85867 0
M  V30 5283 N 147.839 0.78573 -4.56183 0
M  V30 5284 C 147.689 0.0292889 -3.41887 0
M  V30 5285 O 147.599 -1.18445 -3.4419 0
M  V30 5286 N 147.649 0.744061 -2.23964 0
M  V30 5287 C 147.739 2.10932 -2.10362 0
M  V30 5288 C 147.889 2.8202 -3.34994 0
M  V30 5289 C 147.939 2.15547 -4.52261 0
M  V30 5290 H 150.68 1.93379 -8.46595 0
M  V30 5291 H 150.949 1.68132 -6.70852 0
M  V30 5292 H 150.082 -0.289041 -8.15388 0
M  V30 5293 H 147.427 -0.926847 -5.72749 0
M  V30 5294 H 147.148 1.86973 -6.82036 0
M  V30 5295 H 146.156 0.403896 -7.13257 0
M  V30 5296 H 147.99 1.20585 -8.97435 0
M  V30 5297 H 148.061 2.71231 -5.45042 0
M  V30 5298 P 146.119 -1.17771 -8.83182 0
M  V30 5299 O 145.899 -2.07206 -9.98732 0
M  V30 5300 O 145.329 0.0743816 -8.81969 0
M  V30 5301 O 145.869 -1.97652 -7.47304 0
M  V30 5302 C 146.809 -3.01133 -7.08783 0
M  V30 5303 C 146.079 -4.12613 -6.37049 0
M  V30 5304 O 145.869 -3.72827 -4.97879 0
M  V30 5305 C 144.679 -4.45085 -6.88694 0
M  V30 5306 O 144.289 -5.7877 -6.5624 0
M  V30 5307 C 143.799 -3.47817 -6.12078 0
M  V30 5308 C 144.509 -3.39414 -4.77697 0
M  V30 5309 N 144.459 -2.04199 -4.15538 0
M  V30 5310 H 147.298 -3.41248 -7.98759 0
M  V30 5311 H 147.57 -2.57728 -6.42 0
M  V30 5312 H 146.702 -5.02657 -6.42673 0
M  V30 5313 H 144.047 -4.11708 -4.08956 0
M  V30 5314 H 143.767 -2.49626 -6.61679 0
M  V30 5315 H 142.776 -3.8662 -6.00862 0
M  V30 5316 H 144.61 -4.29991 -7.97006 0
M  V30 5317 P 142.739 -6.144 -6.45285 0
M  V30 5318 O 142.519 -7.54673 -6.86199 0
M  V30 5319 O 141.949 -5.12391 -7.179 0
M  V30 5320 O 142.489 -5.99158 -4.88404 0
M  V30 5321 C 143.429 -6.60234 -3.96415 0
M  V30 5322 C 142.699 -7.08259 -2.72856 0
M  V30 5323 O 142.489 -5.9427 -1.83651 0
M  V30 5324 C 141.299 -7.64886 -2.9555 0
M  V30 5325 O 140.909 -8.53963 -1.90717 0
M  V30 5326 C 140.419 -6.4116 -2.90739 0
M  V30 5327 C 141.129 -5.55375 -1.86963 0
M  V30 5328 N 141.079 -4.09448 -2.16152 0
M  V30 5329 H 143.918 -7.45574 -4.45629 0
M  V30 5330 H 144.19 -5.85864 -3.679 0
M  V30 5331 H 143.322 -7.84412 -2.24479 0
M  V30 5332 H 140.667 -5.73457 -0.888562 0
M  V30 5333 H 140.387 -5.90877 -3.88583 0
M  V30 5334 H 139.396 -6.6596 -2.58858 0
M  V30 5335 H 141.23 -8.16339 -3.92049 0
M  V30 5336 P 139.359 -8.7635 -1.60911 0
M  V30 5337 O 139.139 -10.1388 -1.11561 0
M  V30 5338 O 138.569 -8.36503 -2.79617 0
M  V30 5339 O 139.109 -7.71806 -0.42951 0
M  V30 5340 C 140.049 -7.67148 0.673689 0
M  V30 5341 C 139.319 -7.33374 1.95559 0
M  V30 5342 O 139.109 -5.88721 2.00726 0
M  V30 5343 C 137.919 -7.92526 2.10483 0
M  V30 5344 O 137.529 -8.02971 3.47653 0
M  V30 5345 C 137.039 -6.89602 1.41652 0
M  V30 5346 C 137.749 -5.59201 1.75185 0
M  V30 5347 N 137.699 -4.58301 0.657969 0
M  V30 5348 H 140.538 -8.65116 0.777161 0
M  V30 5349 H 140.81 -6.9022 0.46725 0
M  V30 5350 H 139.942 -7.66548 2.79458 0
M  V30 5351 H 137.287 -5.16165 2.65183 0
M  V30 5352 H 137.007 -7.06433 0.329384 0
M  V30 5353 H 136.016 -6.90926 1.82021 0
M  V30 5354 H 137.85 -8.90873 1.62657 0
M  V30 5355 P 135.979 -8.03563 3.84925 0
M  V30 5356 O 135.759 -8.85821 5.0569 0
M  V30 5357 O 135.189 -8.41101 2.65469 0
M  V30 5358 O 135.729 -6.4965 4.18908 0
M  V30 5359 C 136.669 -5.81037 5.05421 0
M  V30 5360 C 135.939 -4.78366 5.89277 0
M  V30 5361 O 135.729 -3.58302 5.08433 0
M  V30 5362 C 134.539 -5.17448 6.36119 0
M  V30 5363 O 134.149 -4.45271 7.53232 0
M  V30 5364 C 133.659 -4.74639 5.19936 0
M  V30 5365 C 134.369 -3.49432 4.70418 0
M  V30 5366 N 134.319 -3.31776 3.22945 0
M  V30 5367 H 137.158 -6.54213 5.71376 0
M  V30 5368 H 137.43 -5.30492 4.44033 0
M  V30 5369 H 136.562 -4.55889 6.76652 0
M  V30 5370 P 132.599 -4.23843 7.83734 0
M  V30 5371 O 132.379 -4.19407 9.29784 0
M  V30 5372 O 131.809 -5.24426 7.09156 0
M  V30 5373 O 132.349 -2.7935 7.20758 0
M  V30 5374 C 133.289 -1.7299 7.50419 0
M  V30 5375 C 132.559 -0.406376 7.57911 0
M  V30 5376 O 132.349 0.0897726 6.21935 0
M  V30 5377 C 131.159 -0.447224 8.1878 0
M  V30 5378 O 130.769 0.825065 8.71101 0
M  V30 5379 C 130.279 -0.783801 6.99623 0
M  V30 5380 C 130.989 -0.0619192 5.85967 0
M  V30 5381 N 130.939 -0.7859 4.56281 0
M  V30 5382 H 133.778 -1.93423 8.4679 0
M  V30 5383 H 134.05 -1.68181 6.71046 0
M  V30 5384 H 133.182 0.289041 8.15388 0
M  V30 5385 P 129.219 1.17771 8.83182 0
M  V30 5386 O 128.999 2.07206 9.98732 0
M  V30 5387 O 128.429 -0.0743816 8.81969 0
M  V30 5388 O 128.969 1.97652 7.47304 0
M  V30 5389 C 129.909 3.01133 7.08783 0
M  V30 5390 C 129.179 4.12613 6.37049 0
M  V30 5391 O 128.969 3.72827 4.97879 0
M  V30 5392 C 127.779 4.45085 6.88694 0
M  V30 5393 O 127.389 5.7877 6.5624 0
M  V30 5394 C 126.899 3.47817 6.12078 0
M  V30 5395 C 127.609 3.39414 4.77697 0
M  V30 5396 N 127.559 2.04199 4.15538 0
M  V30 5397 H 130.398 3.41248 7.98759 0
M  V30 5398 H 130.67 2.57728 6.42 0
M  V30 5399 H 129.802 5.02657 6.42673 0
M  V30 5400 H 127.147 4.11708 4.08956 0
M  V30 5401 H 126.867 2.49626 6.61679 0
M  V30 5402 H 125.876 3.8662 6.00862 0
M  V30 5403 H 127.71 4.29991 7.97006 0
M  V30 5404 P 125.839 6.144 6.45285 0
M  V30 5405 O 125.619 7.54673 6.86199 0
M  V30 5406 O 125.049 5.12391 7.179 0
M  V30 5407 O 125.589 5.99158 4.88404 0
M  V30 5408 C 126.529 6.60234 3.96415 0
M  V30 5409 C 125.799 7.08259 2.72856 0
M  V30 5410 O 125.589 5.9427 1.83651 0
M  V30 5411 C 124.399 7.64886 2.9555 0
M  V30 5412 O 124.009 8.53963 1.90717 0
M  V30 5413 C 123.519 6.4116 2.90739 0
M  V30 5414 C 124.229 5.55375 1.86963 0
M  V30 5415 N 124.179 4.09664 2.15742 0
M  V30 5416 H 127.018 7.45574 4.45629 0
M  V30 5417 H 127.29 5.86232 3.67314 0
M  V30 5418 H 126.422 7.84412 2.24479 0
M  V30 5419 P 122.459 8.7635 1.60911 0
M  V30 5420 O 122.239 10.1388 1.11561 0
M  V30 5421 O 121.669 8.36503 2.79617 0
M  V30 5422 O 122.209 7.71806 0.42951 0
M  V30 5423 C 123.149 7.67148 -0.673689 0
M  V30 5424 C 122.419 7.33374 -1.95559 0
M  V30 5425 O 122.209 5.88721 -2.00726 0
M  V30 5426 C 121.019 7.92526 -2.10483 0
M  V30 5427 O 120.629 8.02971 -3.47653 0
M  V30 5428 C 120.139 6.89602 -1.41652 0
M  V30 5429 C 120.849 5.59201 -1.75185 0
M  V30 5430 N 120.799 4.58235 -0.662552 0
M  V30 5431 C 120.879 4.7683 0.704049 0
M  V30 5432 N 120.799 3.66233 1.39775 0
M  V30 5433 C 120.659 2.66526 0.431739 0
M  V30 5434 C 120.529 1.26394 0.575992 0
M  V30 5435 O 120.509 0.589894 1.60503 0
M  V30 5436 N 120.409 0.62859 -0.67177 0
M  V30 5437 C 120.409 1.27134 -1.89385 0
M  V30 5438 N 120.279 0.492035 -2.96951 0
M  V30 5439 N 120.539 2.58978 -2.02907 0
M  V30 5440 C 120.659 3.22433 -0.832218 0
M  V30 5441 H 123.638 8.65116 -0.777161 0
M  V30 5442 H 123.91 6.90173 -0.474152 0
M  V30 5443 H 123.042 7.66548 -2.79458 0
M  V30 5444 H 120.387 5.16254 -2.65229 0
M  V30 5445 H 120.107 7.06532 -0.329431 0
M  V30 5446 H 119.116 6.91023 -1.82047 0
M  V30 5447 H 120.95 8.90971 -1.62675 0
M  V30 5448 H 120.999 5.74954 1.16305 0
M  V30 5449 H 120.317 -0.366713 -0.674793 0
M  V30 5450 H 120.28 0.908532 -3.91188 0
M  V30 5451 H 120.179 -0.528253 -2.85758 0
M  V30 5452 P 119.079 8.03563 -3.84925 0
M  V30 5453 O 118.859 8.85821 -5.0569 0
M  V30 5454 O 118.289 8.41101 -2.65469 0
M  V30 5455 O 118.829 6.4965 -4.18908 0
M  V30 5456 C 119.769 5.81037 -5.05421 0
M  V30 5457 C 119.039 4.78366 -5.89277 0
M  V30 5458 O 118.829 3.58302 -5.08433 0
M  V30 5459 C 117.639 5.17448 -6.36119 0
M  V30 5460 O 117.249 4.45271 -7.53232 0
M  V30 5461 C 116.759 4.74639 -5.19936 0
M  V30 5462 C 117.469 3.49432 -4.70418 0
M  V30 5463 N 117.419 3.32099 -3.22613 0
M  V30 5464 H 120.258 6.54213 -5.71376 0
M  V30 5465 H 120.53 5.30936 -4.43503 0
M  V30 5466 H 119.662 4.55889 -6.76652 0
M  V30 5467 H 117.007 2.61715 -5.17932 0
M  V30 5468 H 116.727 5.52155 -4.41878 0
M  V30 5469 H 115.736 4.51981 -5.53374 0
M  V30 5470 H 117.57 6.25124 -6.55234 0
M  V30 5471 P 115.699 4.23843 -7.83734 0
M  V30 5472 O 115.479 4.19407 -9.29784 0
M  V30 5473 O 114.909 5.24426 -7.09156 0
M  V30 5474 O 115.449 2.7935 -7.20758 0
M  V30 5475 C 116.389 1.7299 -7.50419 0
M  V30 5476 C 115.659 0.406376 -7.57911 0
M  V30 5477 O 115.449 -0.0897726 -6.21935 0
M  V30 5478 C 114.259 0.447224 -8.1878 0
M  V30 5479 O 113.869 -0.825065 -8.71101 0
M  V30 5480 C 113.379 0.783801 -6.99623 0
M  V30 5481 C 114.089 0.0619192 -5.85967 0
M  V30 5482 N 114.039 0.790462 -4.56202 0
M  V30 5483 H 116.878 1.93423 -8.4679 0
M  V30 5484 H 117.15 1.68852 -6.70877 0
M  V30 5485 H 116.282 -0.289041 -8.15388 0
M  V30 5486 H 113.627 -0.927006 -5.72848 0
M  V30 5487 H 113.347 1.86973 -6.82036 0
M  V30 5488 H 112.356 0.403953 -7.13357 0
M  V30 5489 H 114.19 1.20599 -8.97534 0
M  V30 5490 P 112.319 -1.17771 -8.83182 0
M  V30 5491 O 112.099 -2.07206 -9.98732 0
M  V30 5492 O 111.529 0.0743816 -8.81969 0
M  V30 5493 O 112.069 -1.97652 -7.47304 0
M  V30 5494 C 113.009 -3.01133 -7.08783 0
M  V30 5495 C 112.279 -4.12613 -6.37049 0
M  V30 5496 O 112.069 -3.72827 -4.97879 0
M  V30 5497 C 110.879 -4.45085 -6.88694 0
M  V30 5498 O 110.489 -5.7877 -6.5624 0
M  V30 5499 C 109.999 -3.47817 -6.12078 0
M  V30 5500 C 110.709 -3.39414 -4.77697 0
M  V30 5501 N 110.659 -2.04199 -4.15538 0
M  V30 5502 H 113.498 -3.41248 -7.98759 0
M  V30 5503 H 113.77 -2.57728 -6.42 0
M  V30 5504 H 112.902 -5.02657 -6.42673 0
M  V30 5505 H 110.247 -4.11708 -4.08956 0
M  V30 5506 H 109.967 -2.49626 -6.61679 0
M  V30 5507 H 108.976 -3.8662 -6.00862 0
M  V30 5508 H 110.81 -4.29991 -7.97006 0
M  V30 5509 P 108.939 -6.144 -6.45285 0
M  V30 5510 O 108.719 -7.54673 -6.86199 0
M  V30 5511 O 108.149 -5.12391 -7.179 0
M  V30 5512 O 108.689 -5.99158 -4.88404 0
M  V30 5513 C 109.629 -6.60234 -3.96415 0
M  V30 5514 C 108.899 -7.08259 -2.72856 0
M  V30 5515 O 108.689 -5.9427 -1.83651 0
M  V30 5516 C 107.499 -7.64886 -2.9555 0
M  V30 5517 O 107.109 -8.53963 -1.90717 0
M  V30 5518 C 106.619 -6.4116 -2.90739 0
M  V30 5519 C 107.329 -5.55375 -1.86963 0
M  V30 5520 N 107.279 -4.09664 -2.15742 0
M  V30 5521 C 107.359 -3.44381 -3.37233 0
M  V30 5522 N 107.279 -2.14131 -3.28347 0
M  V30 5523 C 107.139 -1.90247 -1.91588 0
M  V30 5524 C 107.009 -0.683992 -1.20892 0
M  V30 5525 O 106.989 0.46618 -1.64523 0
M  V30 5526 N 106.889 -0.903396 0.173998 0
M  V30 5527 C 106.889 -2.14171 0.784879 0
M  V30 5528 N 106.759 -2.1435 2.11317 0
M  V30 5529 N 107.019 -3.28784 0.119316 0
M  V30 5530 C 107.139 -3.0977 -1.22194 0
M  V30 5531 H 110.118 -7.45574 -4.45629 0
M  V30 5532 H 110.39 -5.86232 -3.67314 0
M  V30 5533 H 109.522 -7.84412 -2.24479 0
M  V30 5534 H 106.867 -5.73556 -0.888715 0
M  V30 5535 H 106.587 -5.9096 -3.88638 0
M  V30 5536 H 105.596 -6.66053 -2.58894 0
M  V30 5537 H 107.43 -8.16429 -3.92093 0
M  V30 5538 H 107.479 -3.96785 -4.32043 0
M  V30 5539 H 106.797 -0.0999567 0.761467 0
M  V30 5540 H 106.76 -3.03436 2.63076 0
M  V30 5541 H 106.659 -1.25228 2.62233 0
M  V30 5542 P 105.559 -8.7635 -1.60911 0
M  V30 5543 O 105.339 -10.1388 -1.11561 0
M  V30 5544 O 104.769 -8.36503 -2.79617 0
M  V30 5545 O 105.309 -7.71806 -0.42951 0
M  V30 5546 C 106.249 -7.67148 0.673689 0
M  V30 5547 C 105.519 -7.33374 1.95559 0
M  V30 5548 O 105.309 -5.88721 2.00726 0
M  V30 5549 C 104.119 -7.92526 2.10483 0
M  V30 5550 O 103.729 -8.02971 3.47653 0
M  V30 5551 C 103.239 -6.89602 1.41652 0
M  V30 5552 C 103.949 -5.59201 1.75185 0
M  V30 5553 N 103.899 -4.58235 0.662552 0
M  V30 5554 H 106.738 -8.65116 0.777161 0
M  V30 5555 H 107.01 -6.90173 0.474152 0
M  V30 5556 H 106.142 -7.66548 2.79458 0
M  V30 5557 P 102.179 -8.03563 3.84925 0
M  V30 5558 O 101.959 -8.85821 5.0569 0
M  V30 5559 O 101.389 -8.41101 2.65469 0
M  V30 5560 O 101.929 -6.4965 4.18908 0
M  V30 5561 C 102.869 -5.80886 5.05289 0
M  V30 5562 C 102.139 -4.78366 5.89277 0
M  V30 5563 O 101.929 -3.58302 5.08433 0
M  V30 5564 C 100.739 -5.16748 6.36559 0
M  V30 5565 O 100.349 -4.45271 7.53232 0
M  V30 5566 C 99.8594 -4.74572 5.19863 0
M  V30 5567 C 100.569 -3.49373 4.70338 0
M  V30 5568 N 100.519 -3.31704 3.22876 0
M  V30 5569 C 100.369 -2.03326 2.74871 0
M  V30 5570 O 100.279 -1.06486 3.48076 0
M  V30 5571 N 100.329 -1.91838 1.37456 0
M  V30 5572 C 100.419 -2.94295 0.462035 0
M  V30 5573 C 100.569 -4.25064 1.05249 0
M  V30 5574 C 100.619 -4.40214 2.39192 0
M  V30 5575 H 103.36 -6.54063 5.71245 0
M  V30 5576 H 103.629 -5.30339 4.43905 0
M  V30 5577 H 102.762 -4.55889 6.76652 0
M  V30 5578 H 100.107 -2.6167 5.17842 0
M  V30 5579 H 99.8284 -5.52155 4.41878 0
M  V30 5580 H 98.8364 -4.51918 5.53297 0
M  V30 5581 H 100.67 -6.25055 6.55162 0
M  V30 5582 H 100.741 -5.39798 2.81523 0
M  V30 5583 P 98.7994 -4.23843 7.83734 0
M  V30 5584 O 98.5794 -4.19407 9.29784 0
M  V30 5585 O 98.0094 -5.24426 7.09156 0
M  V30 5586 O 98.5494 -2.7935 7.20758 0
M  V30 5587 C 99.4894 -1.7299 7.50419 0
M  V30 5588 C 98.7594 -0.406376 7.57911 0
M  V30 5589 O 98.5494 0.0897726 6.21935 0
M  V30 5590 C 97.3594 -0.447224 8.1878 0
M  V30 5591 O 96.9694 0.825065 8.71101 0
M  V30 5592 C 96.4794 -0.783801 6.99623 0
M  V30 5593 C 97.1894 -0.0619192 5.85967 0
M  V30 5594 N 97.1394 -0.7859 4.56281 0
M  V30 5595 H 99.9784 -1.93423 8.4679 0
M  V30 5596 H 100.25 -1.68181 6.71046 0
M  V30 5597 H 99.3824 0.289041 8.15388 0
M  V30 5598 P 95.4195 1.17771 8.83182 0
M  V30 5599 O 95.1995 2.07206 9.98732 0
M  V30 5600 O 94.6295 -0.0743816 8.81969 0
M  V30 5601 O 95.1695 1.97652 7.47304 0
M  V30 5602 C 96.1095 3.01133 7.08783 0
M  V30 5603 C 95.3795 4.12613 6.37049 0
M  V30 5604 O 95.1695 3.72827 4.97879 0
M  V30 5605 C 93.9795 4.45085 6.88694 0
M  V30 5606 O 93.5895 5.7877 6.5624 0
M  V30 5607 C 93.0995 3.47817 6.12078 0
M  V30 5608 C 93.8095 3.39414 4.77697 0
M  V30 5609 N 93.7595 2.04615 4.15333 0
M  V30 5610 H 96.5985 3.41248 7.98759 0
M  V30 5611 H 96.8705 2.5837 6.41742 0
M  V30 5612 H 96.0025 5.02657 6.42673 0
M  V30 5613 P 92.0395 6.144 6.45285 0
M  V30 5614 O 91.8195 7.54673 6.86199 0
M  V30 5615 O 91.2495 5.12391 7.179 0
M  V30 5616 O 91.7895 5.99158 4.88404 0
M  V30 5617 C 92.7295 6.60234 3.96415 0
M  V30 5618 C 91.9995 7.08259 2.72856 0
M  V30 5619 O 91.7895 5.9427 1.83651 0
M  V30 5620 C 90.5995 7.64886 2.9555 0
M  V30 5621 O 90.2095 8.53963 1.90717 0
M  V30 5622 C 89.7195 6.4116 2.90739 0
M  V30 5623 C 90.4295 5.55375 1.86963 0
M  V30 5624 N 90.3795 4.09448 2.16152 0
M  V30 5625 H 93.2185 7.45574 4.45629 0
M  V30 5626 H 93.4905 5.85864 3.679 0
M  V30 5627 H 92.6225 7.84412 2.24479 0
M  V30 5628 H 89.9675 5.73457 0.888562 0
M  V30 5629 H 89.6875 5.90877 3.88583 0
M  V30 5630 H 88.6965 6.6596 2.58858 0
M  V30 5631 H 90.5305 8.16339 3.92049 0
M  V30 5632 P 88.6595 8.7635 1.60911 0
M  V30 5633 O 88.4395 10.1388 1.11561 0
M  V30 5634 O 87.8695 8.36503 2.79617 0
M  V30 5635 O 88.4095 7.71806 0.42951 0
M  V30 5636 C 89.3495 7.67148 -0.673689 0
M  V30 5637 C 88.6195 7.33374 -1.95559 0
M  V30 5638 O 88.4095 5.88721 -2.00726 0
M  V30 5639 C 87.2195 7.92526 -2.10483 0
M  V30 5640 O 86.8295 8.02971 -3.47653 0
M  V30 5641 C 86.3395 6.89602 -1.41652 0
M  V30 5642 C 87.0495 5.59201 -1.75185 0
M  V30 5643 N 86.9995 4.58235 -0.662552 0
M  V30 5644 C 87.0795 4.7683 0.704049 0
M  V30 5645 N 86.9995 3.66233 1.39775 0
M  V30 5646 C 86.8595 2.66526 0.431739 0
M  V30 5647 C 86.7295 1.26394 0.575992 0
M  V30 5648 O 86.7095 0.589894 1.60503 0
M  V30 5649 N 86.6095 0.62859 -0.67177 0
M  V30 5650 C 86.6095 1.27134 -1.89385 0
M  V30 5651 N 86.4795 0.492035 -2.96951 0
M  V30 5652 N 86.7395 2.58978 -2.02907 0
M  V30 5653 C 86.8595 3.22433 -0.832218 0
M  V30 5654 H 89.8385 8.65116 -0.777161 0
M  V30 5655 H 90.1105 6.90173 -0.474152 0
M  V30 5656 H 89.2425 7.66548 -2.79458 0
M  V30 5657 H 86.5875 5.16254 -2.65229 0
M  V30 5658 H 86.3075 7.06532 -0.329431 0
M  V30 5659 H 85.3165 6.91023 -1.82047 0
M  V30 5660 H 87.1505 8.90971 -1.62675 0
M  V30 5661 H 87.1995 5.74954 1.16305 0
M  V30 5662 H 86.5175 -0.366713 -0.674793 0
M  V30 5663 H 86.4805 0.908532 -3.91188 0
M  V30 5664 H 86.3795 -0.528253 -2.85758 0
M  V30 5665 P 85.2795 8.03563 -3.84925 0
M  V30 5666 O 85.0595 8.85821 -5.0569 0
M  V30 5667 O 84.4895 8.41101 -2.65469 0
M  V30 5668 O 85.0295 6.4965 -4.18908 0
M  V30 5669 C 85.9695 5.81037 -5.05421 0
M  V30 5670 C 85.2395 4.78366 -5.89277 0
M  V30 5671 O 85.0295 3.58302 -5.08433 0
M  V30 5672 C 83.8395 5.17448 -6.36119 0
M  V30 5673 O 83.4495 4.45271 -7.53232 0
M  V30 5674 C 82.9595 4.74639 -5.19936 0
M  V30 5675 C 83.6695 3.49432 -4.70418 0
M  V30 5676 N 83.6195 3.32099 -3.22613 0
M  V30 5677 H 86.4585 6.54213 -5.71376 0
M  V30 5678 H 86.7305 5.30936 -4.43503 0
M  V30 5679 H 85.8625 4.55889 -6.76652 0
M  V30 5680 H 83.2075 2.61715 -5.17932 0
M  V30 5681 H 82.9275 5.52155 -4.41878 0
M  V30 5682 H 81.9365 4.51981 -5.53374 0
M  V30 5683 H 83.7705 6.25124 -6.55234 0
M  V30 5684 P 81.8995 4.23843 -7.83734 0
M  V30 5685 O 81.6795 4.19407 -9.29784 0
M  V30 5686 O 81.1095 5.24426 -7.09156 0
M  V30 5687 O 81.6495 2.7935 -7.20758 0
M  V30 5688 C 82.5895 1.7299 -7.50419 0
M  V30 5689 C 81.8595 0.406376 -7.57911 0
M  V30 5690 O 81.6495 -0.0897726 -6.21935 0
M  V30 5691 C 80.4595 0.447224 -8.1878 0
M  V30 5692 O 80.0695 -0.825065 -8.71101 0
M  V30 5693 C 79.5795 0.783801 -6.99623 0
M  V30 5694 C 80.2895 0.0619192 -5.85967 0
M  V30 5695 N 80.2395 0.7859 -4.56281 0
M  V30 5696 H 83.0785 1.93423 -8.4679 0
M  V30 5697 H 83.3505 1.68181 -6.71046 0
M  V30 5698 H 82.4825 -0.289041 -8.15388 0
M  V30 5699 P 78.5196 -1.17771 -8.83182 0
M  V30 5700 O 78.2996 -2.07206 -9.98732 0
M  V30 5701 O 77.7296 0.0743816 -8.81969 0
M  V30 5702 O 78.2696 -1.97652 -7.47304 0
M  V30 5703 C 79.2096 -3.01055 -7.08599 0
M  V30 5704 C 78.4796 -4.12613 -6.37049 0
M  V30 5705 O 78.2696 -3.72827 -4.97879 0
M  V30 5706 C 77.0796 -4.45719 -6.88164 0
M  V30 5707 O 76.6896 -5.7877 -6.5624 0
M  V30 5708 C 76.1996 -3.47768 -6.11991 0
M  V30 5709 C 76.9096 -3.39356 -4.77615 0
M  V30 5710 N 76.8596 -2.04571 -4.15244 0
M  V30 5711 C 76.7096 -1.98587 -2.78314 0
M  V30 5712 O 76.6196 -2.98134 -2.08835 0
M  V30 5713 N 76.6696 -0.714467 -2.24925 0
M  V30 5714 C 76.7596 0.470001 -2.94169 0
M  V30 5715 C 76.9096 0.312541 -4.36783 0
M  V30 5716 C 76.9596 -0.914512 -4.92583 0
M  V30 5717 H 79.7006 -3.41169 -7.98575 0
M  V30 5718 H 79.9696 -2.58295 -6.41556 0
M  V30 5719 H 79.1026 -5.02657 -6.42673 0
M  V30 5720 H 76.4476 -4.11637 -4.08885 0
M  V30 5721 H 76.1686 -2.49626 -6.61679 0
M  V30 5722 H 75.1766 -3.86566 -6.00778 0
M  V30 5723 H 77.0106 -4.29943 -7.96918 0
M  V30 5724 H 77.0816 -1.00937 -6.00374 0
M  V30 5725 P 75.1396 -6.144 -6.45285 0
M  V30 5726 O 74.9196 -7.54673 -6.86199 0
M  V30 5727 O 74.3496 -5.12391 -7.179 0
M  V30 5728 O 74.8896 -5.99158 -4.88404 0
M  V30 5729 C 75.8296 -6.60234 -3.96415 0
M  V30 5730 C 75.0996 -7.08259 -2.72856 0
M  V30 5731 O 74.8896 -5.9427 -1.83651 0
M  V30 5732 C 73.6996 -7.64886 -2.9555 0
M  V30 5733 O 73.3096 -8.53963 -1.90717 0
M  V30 5734 C 72.8196 -6.4116 -2.90739 0
M  V30 5735 C 73.5296 -5.55375 -1.86963 0
M  V30 5736 N 73.4796 -4.09664 -2.15742 0
M  V30 5737 H 76.3186 -7.45574 -4.45629 0
M  V30 5738 H 76.5906 -5.86232 -3.67314 0
M  V30 5739 H 75.7226 -7.84412 -2.24479 0
M  V30 5740 P 71.7596 -8.7635 -1.60911 0
M  V30 5741 O 71.5396 -10.1388 -1.11561 0
M  V30 5742 O 70.9696 -8.36503 -2.79617 0
M  V30 5743 O 71.5096 -7.71806 -0.42951 0
M  V30 5744 C 72.4496 -7.67148 0.673689 0
M  V30 5745 C 71.7196 -7.33374 1.95559 0
M  V30 5746 O 71.5096 -5.88721 2.00726 0
M  V30 5747 C 70.3196 -7.92526 2.10483 0
M  V30 5748 O 69.9296 -8.02971 3.47653 0
M  V30 5749 C 69.4396 -6.89602 1.41652 0
M  V30 5750 C 70.1496 -5.59201 1.75185 0
M  V30 5751 N 70.0996 -4.58235 0.662552 0
M  V30 5752 H 72.9386 -8.65116 0.777161 0
M  V30 5753 H 73.2106 -6.90173 0.474152 0
M  V30 5754 H 72.3426 -7.66548 2.79458 0
M  V30 5755 P 68.3796 -8.03563 3.84925 0
M  V30 5756 O 68.1596 -8.85821 5.0569 0
M  V30 5757 O 67.5896 -8.41101 2.65469 0
M  V30 5758 O 68.1296 -6.4965 4.18908 0
M  V30 5759 C 69.0696 -5.81037 5.05421 0
M  V30 5760 C 68.3396 -4.78366 5.89277 0
M  V30 5761 O 68.1296 -3.58302 5.08433 0
M  V30 5762 C 66.9396 -5.17448 6.36119 0
M  V30 5763 O 66.5496 -4.45271 7.53232 0
M  V30 5764 C 66.0596 -4.74639 5.19936 0
M  V30 5765 C 66.7696 -3.49432 4.70418 0
M  V30 5766 N 66.7196 -3.31776 3.22945 0
M  V30 5767 H 69.5586 -6.54213 5.71376 0
M  V30 5768 H 69.8306 -5.30492 4.44033 0
M  V30 5769 H 68.9626 -4.55889 6.76652 0
M  V30 5770 P 64.9996 -4.23843 7.83734 0
M  V30 5771 O 64.7796 -4.19407 9.29784 0
M  V30 5772 O 64.2096 -5.24426 7.09156 0
M  V30 5773 O 64.7496 -2.7935 7.20758 0
M  V30 5774 C 65.6896 -1.7299 7.50419 0
M  V30 5775 C 64.9596 -0.406376 7.57911 0
M  V30 5776 O 64.7496 0.0897726 6.21935 0
M  V30 5777 C 63.5596 -0.447224 8.1878 0
M  V30 5778 O 63.1696 0.825065 8.71101 0
M  V30 5779 C 62.6796 -0.783801 6.99623 0
M  V30 5780 C 63.3896 -0.0619192 5.85967 0
M  V30 5781 N 63.3396 -0.7859 4.56281 0
M  V30 5782 H 66.1786 -1.93423 8.4679 0
M  V30 5783 H 66.4506 -1.68181 6.71046 0
M  V30 5784 H 65.5826 0.289041 8.15388 0
M  V30 5785 P 61.6197 1.17771 8.83182 0
M  V30 5786 O 61.3997 2.07206 9.98732 0
M  V30 5787 O 60.8297 -0.0743816 8.81969 0
M  V30 5788 O 61.3697 1.97678 7.474 0
M  V30 5789 C 62.3097 3.01133 7.08783 0
M  V30 5790 C 61.5797 4.1203 6.37546 0
M  V30 5791 O 61.3697 3.72887 4.9796 0
M  V30 5792 C 60.1797 4.45085 6.88694 0
M  V30 5793 O 59.7897 5.78836 6.56315 0
M  V30 5794 C 59.2997 3.47817 6.12078 0
M  V30 5795 C 60.0097 3.39414 4.77697 0
M  V30 5796 N 59.9597 2.04615 4.15333 0
M  V30 5797 C 59.8097 1.96929 2.77162 0
M  V30 5798 O 59.7197 3.02017 2.12006 0
M  V30 5799 N 59.7597 0.55485 2.24237 0
M  V30 5800 C 59.8597 -0.367808 2.9169 0
M  V30 5801 N 59.8097 -1.53426 2.29427 0
M  V30 5802 C 60.0097 -0.319148 4.33828 0
M  V30 5803 C 60.0597 0.920672 4.90433 0
M  V30 5804 H 62.7997 3.41209 7.98667 0
M  V30 5805 H 63.0697 2.5837 6.41742 0
M  V30 5806 H 62.2027 5.02718 6.42752 0
M  V30 5807 H 59.5477 4.11779 4.09026 0
M  V30 5808 H 59.2677 2.49661 6.61772 0
M  V30 5809 H 58.2767 3.86674 6.00946 0
M  V30 5810 H 60.1107 4.29991 7.97006 0
M  V30 5811 H 60.1827 1.00589 5.98303 0
M  V30 5812 H 60.0807 -1.22639 4.93799 0
M  V30 5813 H 59.6927 -1.56819 1.27167 0
M  V30 5814 H 59.8887 -2.41062 2.83063 0
M  V30 5815 P 58.2397 6.144 6.45285 0
M  V30 5816 O 58.0197 7.54673 6.86199 0
M  V30 5817 O 57.4497 5.12391 7.179 0
M  V30 5818 O 57.9897 5.99158 4.88404 0
M  V30 5819 C 58.9297 6.60234 3.96415 0
M  V30 5820 C 58.1997 7.08259 2.72856 0
M  V30 5821 O 57.9897 5.9427 1.83651 0
M  V30 5822 C 56.7997 7.64886 2.9555 0
M  V30 5823 O 56.4097 8.53963 1.90717 0
M  V30 5824 C 55.9197 6.4116 2.90739 0
M  V30 5825 C 56.6297 5.55375 1.86963 0
M  V30 5826 N 56.5797 4.09664 2.15742 0
M  V30 5827 H 59.4187 7.45574 4.45629 0
M  V30 5828 H 59.6907 5.86232 3.67314 0
M  V30 5829 H 58.8227 7.84412 2.24479 0
M  V30 5830 P 54.8597 8.7635 1.60911 0
M  V30 5831 O 54.6397 10.1388 1.11561 0
M  V30 5832 O 54.0697 8.36503 2.79617 0
M  V30 5833 O 54.6097 7.71906 0.429565 0
M  V30 5834 C 55.5497 7.67148 -0.673689 0
M  V30 5835 C 54.8197 7.33666 -1.94851 0
M  V30 5836 O 54.6097 5.88816 -2.00759 0
M  V30 5837 C 53.4197 7.92526 -2.10483 0
M  V30 5838 O 53.0297 8.03063 -3.47693 0
M  V30 5839 C 52.5397 6.89602 -1.41652 0
M  V30 5840 C 53.2497 5.59201 -1.75185 0
M  V30 5841 N 53.1997 4.58235 -0.662552 0
M  V30 5842 C 53.0497 3.24451 -1.01643 0
M  V30 5843 O 52.9597 2.94958 -2.21722 0
M  V30 5844 N 52.9997 2.30408 0.165238 0
M  V30 5845 C 53.0997 2.66048 1.25118 0
M  V30 5846 N 53.0497 1.70787 2.16813 0
M  V30 5847 C 53.2497 4.02732 1.64413 0
M  V30 5848 C 53.2997 4.9488 0.63991 0
M  V30 5849 H 56.0397 8.65017 -0.777072 0
M  V30 5850 H 56.3097 6.90173 -0.474152 0
M  V30 5851 H 55.4427 7.66642 -2.79492 0
M  V30 5852 H 52.7877 5.16254 -2.65229 0
M  V30 5853 H 52.5077 7.06532 -0.329431 0
M  V30 5854 H 51.5167 6.91023 -1.82047 0
M  V30 5855 H 53.3507 8.90873 -1.62657 0
M  V30 5856 H 53.4227 6.00104 0.892197 0
M  V30 5857 H 53.3207 4.31733 2.69229 0
M  V30 5858 H 52.9327 0.724835 1.8844 0
M  V30 5859 H 53.1287 1.94716 3.16734 0
M  V30 5860 P 51.4797 8.03563 -3.84925 0
M  V30 5861 O 51.2597 8.85821 -5.0569 0
M  V30 5862 O 50.6897 8.41101 -2.65469 0
M  V30 5863 O 51.2297 6.4965 -4.18908 0
M  V30 5864 C 52.1697 5.81037 -5.05421 0
M  V30 5865 C 51.4397 4.78366 -5.89277 0
M  V30 5866 O 51.2297 3.58302 -5.08433 0
M  V30 5867 C 50.0397 5.17448 -6.36119 0
M  V30 5868 O 49.6497 4.45271 -7.53232 0
M  V30 5869 C 49.1597 4.74639 -5.19936 0
M  V30 5870 C 49.8697 3.49432 -4.70418 0
M  V30 5871 N 49.8197 3.31776 -3.22945 0
M  V30 5872 H 52.6587 6.54213 -5.71376 0
M  V30 5873 H 52.9307 5.30492 -4.44033 0
M  V30 5874 H 52.0627 4.55889 -6.76652 0
M  V30 5875 P 48.0997 4.23843 -7.83734 0
M  V30 5876 O 47.8797 4.19407 -9.29784 0
M  V30 5877 O 47.3097 5.24426 -7.09156 0
M  V30 5878 O 47.8497 2.7935 -7.20758 0
M  V30 5879 C 48.7897 1.7299 -7.50419 0
M  V30 5880 C 48.0597 0.406376 -7.57911 0
M  V30 5881 O 47.8497 -0.0897726 -6.21935 0
M  V30 5882 C 46.6597 0.447224 -8.1878 0
M  V30 5883 O 46.2697 -0.825065 -8.71101 0
M  V30 5884 C 45.7797 0.783801 -6.99623 0
M  V30 5885 C 46.4897 0.0619192 -5.85967 0
M  V30 5886 N 46.4397 0.7859 -4.56281 0
M  V30 5887 C 46.5197 2.14308 -4.31736 0
M  V30 5888 N 46.4397 2.46106 -3.05116 0
M  V30 5889 C 46.2997 1.23422 -2.4014 0
M  V30 5890 C 46.1697 0.938381 -1.02409 0
M  V30 5891 N 46.0497 -0.444647 -0.805413 0
M  V30 5892 C 46.0497 -1.40829 -1.79435 0
M  V30 5893 N 45.9197 -2.67213 -1.38558 0
M  V30 5894 N 46.1797 -1.12947 -3.09005 0
M  V30 5895 C 46.2997 0.204887 -3.32369 0
M  V30 5896 H 49.2787 1.93423 -8.4679 0
M  V30 5897 H 49.5507 1.68181 -6.71046 0
M  V30 5898 H 48.6827 -0.289041 -8.15388 0
M  V30 5899 P 44.7198 -1.17771 -8.83182 0
M  V30 5900 O 44.4998 -2.07206 -9.98732 0
M  V30 5901 O 43.9298 0.0743816 -8.81969 0
M  V30 5902 O 44.4698 -1.97652 -7.47304 0
M  V30 5903 C 45.4098 -3.01133 -7.08783 0
M  V30 5904 C 44.6798 -4.12613 -6.37049 0
M  V30 5905 O 44.4698 -3.72827 -4.97879 0
M  V30 5906 C 43.2798 -4.45085 -6.88694 0
M  V30 5907 O 42.8898 -5.7877 -6.5624 0
M  V30 5908 C 42.3998 -3.47817 -6.12078 0
M  V30 5909 C 43.1098 -3.39414 -4.77697 0
M  V30 5910 N 43.0598 -2.04615 -4.15333 0
M  V30 5911 H 45.8988 -3.41248 -7.98759 0
M  V30 5912 H 46.1708 -2.5837 -6.41742 0
M  V30 5913 H 45.3028 -5.02657 -6.42673 0
M  V30 5914 P 41.3398 -6.144 -6.45285 0
M  V30 5915 O 41.1198 -7.54673 -6.86199 0
M  V30 5916 O 40.5498 -5.12391 -7.179 0
M  V30 5917 O 41.0898 -5.99158 -4.88404 0
M  V30 5918 C 42.0298 -6.60234 -3.96415 0
M  V30 5919 C 41.2998 -7.08259 -2.72856 0
M  V30 5920 O 41.0898 -5.9427 -1.83651 0
M  V30 5921 C 39.8998 -7.64886 -2.9555 0
M  V30 5922 O 39.5098 -8.53963 -1.90717 0
M  V30 5923 C 39.0198 -6.4116 -2.90739 0
M  V30 5924 C 39.7298 -5.55375 -1.86963 0
M  V30 5925 N 39.6798 -4.09664 -2.15742 0
M  V30 5926 H 42.5188 -7.45574 -4.45629 0
M  V30 5927 H 42.7908 -5.86232 -3.67314 0
M  V30 5928 H 41.9228 -7.84412 -2.24479 0
M  V30 5929 P 37.9598 -8.7635 -1.60911 0
M  V30 5930 O 37.7398 -10.1388 -1.11561 0
M  V30 5931 O 37.1698 -8.36503 -2.79617 0
M  V30 5932 O 37.7098 -7.71906 -0.429565 0
M  V30 5933 C 38.6498 -7.67148 0.673689 0
M  V30 5934 C 37.9198 -7.33666 1.94851 0
M  V30 5935 O 37.7098 -5.88816 2.00759 0
M  V30 5936 C 36.5198 -7.92526 2.10483 0
M  V30 5937 O 36.1298 -8.03063 3.47693 0
M  V30 5938 C 35.6398 -6.89602 1.41652 0
M  V30 5939 C 36.3498 -5.59201 1.75185 0
M  V30 5940 N 36.2998 -4.58235 0.662552 0
M  V30 5941 C 36.1498 -3.24451 1.01643 0
M  V30 5942 O 36.0598 -2.94958 2.21722 0
M  V30 5943 N 36.0998 -2.30408 -0.165238 0
M  V30 5944 C 36.1998 -2.66048 -1.25118 0
M  V30 5945 N 36.1498 -1.70787 -2.16813 0
M  V30 5946 C 36.3498 -4.02732 -1.64413 0
M  V30 5947 C 36.3998 -4.9488 -0.63991 0
M  V30 5948 H 39.1398 -8.65017 0.777072 0
M  V30 5949 H 39.4098 -6.90173 0.474152 0
M  V30 5950 H 38.5428 -7.66642 2.79492 0
M  V30 5951 H 35.8878 -5.16254 2.65229 0
M  V30 5952 H 35.6078 -7.06532 0.329431 0
M  V30 5953 H 34.6168 -6.91023 1.82047 0
M  V30 5954 H 36.4508 -8.90873 1.62657 0
M  V30 5955 H 36.5228 -6.00104 -0.892197 0
M  V30 5956 H 36.4208 -4.31733 -2.69229 0
M  V30 5957 H 36.0328 -0.724835 -1.8844 0
M  V30 5958 H 36.2288 -1.94716 -3.16734 0
M  V30 5959 P 34.5798 -8.03563 3.84925 0
M  V30 5960 O 34.3598 -8.85821 5.0569 0
M  V30 5961 O 33.7898 -8.41101 2.65469 0
M  V30 5962 O 34.3298 -6.4965 4.18908 0
M  V30 5963 C 35.2698 -5.81037 5.05421 0
M  V30 5964 C 34.5398 -4.78366 5.89277 0
M  V30 5965 O 34.3298 -3.58302 5.08433 0
M  V30 5966 C 33.1398 -5.17448 6.36119 0
M  V30 5967 O 32.7498 -4.45271 7.53232 0
M  V30 5968 C 32.2598 -4.74639 5.19936 0
M  V30 5969 C 32.9698 -3.49432 4.70418 0
M  V30 5970 N 32.9198 -3.32099 3.22613 0
M  V30 5971 H 35.7588 -6.54213 5.71376 0
M  V30 5972 H 36.0308 -5.30936 4.43503 0
M  V30 5973 H 35.1628 -4.55889 6.76652 0
M  V30 5974 H 32.5078 -2.61715 5.17932 0
M  V30 5975 H 32.2278 -5.52155 4.41878 0
M  V30 5976 H 31.2368 -4.51981 5.53374 0
M  V30 5977 H 33.0708 -6.25124 6.55234 0
M  V30 5978 P 31.1998 -4.23843 7.83734 0
M  V30 5979 O 30.9798 -4.19407 9.29784 0
M  V30 5980 O 30.4098 -5.24426 7.09156 0
M  V30 5981 O 30.9498 -2.7935 7.20758 0
M  V30 5982 C 31.8898 -1.7299 7.50419 0
M  V30 5983 C 31.1598 -0.406376 7.57911 0
M  V30 5984 O 30.9498 0.0897726 6.21935 0
M  V30 5985 C 29.7598 -0.447224 8.1878 0
M  V30 5986 O 29.3698 0.825065 8.71101 0
M  V30 5987 C 28.8798 -0.783801 6.99623 0
M  V30 5988 C 29.5898 -0.0619192 5.85967 0
M  V30 5989 N 29.5398 -0.7859 4.56281 0
M  V30 5990 C 29.6198 -2.14308 4.31736 0
M  V30 5991 N 29.5398 -2.46106 3.05116 0
M  V30 5992 C 29.3998 -1.23422 2.4014 0
M  V30 5993 C 29.2698 -0.938381 1.02409 0
M  V30 5994 O 29.2498 -1.70876 0.0650402 0
M  V30 5995 N 29.1498 0.444647 0.805413 0
M  V30 5996 C 29.1498 1.40829 1.79435 0
M  V30 5997 N 29.0198 2.67213 1.38558 0
M  V30 5998 N 29.2798 1.12947 3.09005 0
M  V30 5999 C 29.3998 -0.204887 3.32369 0
M  V30 6000 H 32.3788 -1.93423 8.4679 0
M  V30 6001 H 32.6508 -1.68181 6.71046 0
M  V30 6002 H 31.7828 0.289041 8.15388 0
M  V30 6003 H 29.1278 0.927166 5.72947 0
M  V30 6004 H 28.8478 -1.87 6.82132 0
M  V30 6005 H 27.8568 -0.404009 7.13457 0
M  V30 6006 H 29.6908 -1.20612 8.97633 0
M  V30 6007 H 29.7398 -2.88284 5.10874 0
M  V30 6008 H 29.0578 0.755087 -0.140242 0
M  V30 6009 H 29.0208 3.43967 2.0729 0
M  V30 6010 H 28.9198 2.88096 0.380644 0
M  V30 6011 P 27.8199 1.17771 8.83182 0
M  V30 6012 O 27.5999 2.07206 9.98732 0
M  V30 6013 O 27.0299 -0.0743816 8.81969 0
M  V30 6014 O 27.5699 1.97652 7.47304 0
M  V30 6015 C 28.5099 3.01133 7.08783 0
M  V30 6016 C 27.7799 4.12613 6.37049 0
M  V30 6017 O 27.5699 3.72827 4.97879 0
M  V30 6018 C 26.3799 4.45085 6.88694 0
M  V30 6019 O 25.9899 5.7877 6.5624 0
M  V30 6020 C 25.4999 3.47817 6.12078 0
M  V30 6021 C 26.2099 3.39414 4.77697 0
M  V30 6022 N 26.1599 2.04615 4.15333 0
M  V30 6023 H 28.9989 3.41248 7.98759 0
M  V30 6024 H 29.2709 2.5837 6.41742 0
M  V30 6025 H 28.4029 5.02657 6.42673 0
M  V30 6026 P 24.4399 6.144 6.45285 0
M  V30 6027 O 24.2199 7.54673 6.86199 0
M  V30 6028 O 23.6499 5.12391 7.179 0
M  V30 6029 O 24.1899 5.99158 4.88404 0
M  V30 6030 C 25.1299 6.60234 3.96415 0
M  V30 6031 C 24.3999 7.08259 2.72856 0
M  V30 6032 O 24.1899 5.9427 1.83651 0
M  V30 6033 C 22.9999 7.64886 2.9555 0
M  V30 6034 O 22.6099 8.53963 1.90717 0
M  V30 6035 C 22.1199 6.4116 2.90739 0
M  V30 6036 C 22.8299 5.55375 1.86963 0
M  V30 6037 N 22.7799 4.09664 2.15742 0
M  V30 6038 C 22.8599 3.44381 3.37233 0
M  V30 6039 N 22.7799 2.14131 3.28347 0
M  V30 6040 C 22.6399 1.90247 1.91588 0
M  V30 6041 C 22.5099 0.683992 1.20892 0
M  V30 6042 N 22.3899 0.903396 -0.173998 0
M  V30 6043 C 22.3899 2.14171 -0.784879 0
M  V30 6044 N 22.2599 2.1435 -2.11317 0
M  V30 6045 N 22.5199 3.28784 -0.119316 0
M  V30 6046 C 22.6399 3.0977 1.22194 0
M  V30 6047 H 25.6189 7.45574 4.45629 0
M  V30 6048 H 25.8909 5.86232 3.67314 0
M  V30 6049 H 25.0229 7.84412 2.24479 0
M  V30 6050 P 21.0599 8.7635 1.60911 0
M  V30 6051 O 20.8399 10.1388 1.11561 0
M  V30 6052 O 20.2699 8.36503 2.79617 0
M  V30 6053 O 20.8099 7.71806 0.42951 0
M  V30 6054 C 21.7499 7.67148 -0.673689 0
M  V30 6055 C 21.0199 7.33374 -1.95559 0
M  V30 6056 O 20.8099 5.88721 -2.00726 0
M  V30 6057 C 19.6199 7.92526 -2.10483 0
M  V30 6058 O 19.2299 8.02971 -3.47653 0
M  V30 6059 C 18.7399 6.89602 -1.41652 0
M  V30 6060 C 19.4499 5.59201 -1.75185 0
M  V30 6061 N 19.3999 4.58235 -0.662552 0
M  V30 6062 C 19.4799 4.7683 0.704049 0
M  V30 6063 N 19.3999 3.66233 1.39775 0
M  V30 6064 C 19.2599 2.66526 0.431739 0
M  V30 6065 C 19.1299 1.26394 0.575992 0
M  V30 6066 O 19.1099 0.589894 1.60503 0
M  V30 6067 N 19.0099 0.62859 -0.67177 0
M  V30 6068 C 19.0099 1.27134 -1.89385 0
M  V30 6069 N 18.8799 0.492035 -2.96951 0
M  V30 6070 N 19.1399 2.58978 -2.02907 0
M  V30 6071 C 19.2599 3.22433 -0.832218 0
M  V30 6072 H 22.2389 8.65116 -0.777161 0
M  V30 6073 H 22.5109 6.90173 -0.474152 0
M  V30 6074 H 21.6429 7.66548 -2.79458 0
M  V30 6075 H 18.9879 5.16254 -2.65229 0
M  V30 6076 H 18.7079 7.06532 -0.329431 0
M  V30 6077 H 17.7169 6.91023 -1.82047 0
M  V30 6078 H 19.5509 8.90971 -1.62675 0
M  V30 6079 H 19.5999 5.74954 1.16305 0
M  V30 6080 H 18.9179 -0.366713 -0.674793 0
M  V30 6081 H 18.8809 0.908532 -3.91188 0
M  V30 6082 H 18.7799 -0.528253 -2.85758 0
M  V30 6083 P 17.6799 8.03563 -3.84925 0
M  V30 6084 O 17.4599 8.85821 -5.0569 0
M  V30 6085 O 16.8899 8.41101 -2.65469 0
M  V30 6086 O 17.4299 6.4965 -4.18908 0
M  V30 6087 C 18.3699 5.81037 -5.05421 0
M  V30 6088 C 17.6399 4.78366 -5.89277 0
M  V30 6089 O 17.4299 3.58302 -5.08433 0
M  V30 6090 C 16.2399 5.17448 -6.36119 0
M  V30 6091 O 15.8499 4.45271 -7.53232 0
M  V30 6092 C 15.3599 4.74639 -5.19936 0
M  V30 6093 C 16.0699 3.49432 -4.70418 0
M  V30 6094 N 16.0199 3.32099 -3.22613 0
M  V30 6095 H 18.8589 6.54213 -5.71376 0
M  V30 6096 H 19.1309 5.30936 -4.43503 0
M  V30 6097 H 18.2629 4.55889 -6.76652 0
M  V30 6098 H 15.6079 2.61715 -5.17932 0
M  V30 6099 H 15.3279 5.52155 -4.41878 0
M  V30 6100 H 14.3369 4.51981 -5.53374 0
M  V30 6101 H 16.1709 6.25124 -6.55234 0
M  V30 6102 P 14.2999 4.23843 -7.83734 0
M  V30 6103 O 14.0799 4.19407 -9.29784 0
M  V30 6104 O 13.5099 5.24426 -7.09156 0
M  V30 6105 O 14.0499 2.7935 -7.20758 0
M  V30 6106 C 14.9899 1.7299 -7.50419 0
M  V30 6107 C 14.2599 0.406376 -7.57911 0
M  V30 6108 O 14.0499 -0.0897726 -6.21935 0
M  V30 6109 C 12.8599 0.447224 -8.1878 0
M  V30 6110 O 12.4699 -0.825065 -8.71101 0
M  V30 6111 C 11.9799 0.783801 -6.99623 0
M  V30 6112 C 12.6899 0.0619192 -5.85967 0
M  V30 6113 N 12.6399 0.7859 -4.56281 0
M  V30 6114 H 15.4789 1.93423 -8.4679 0
M  V30 6115 H 15.7509 1.68181 -6.71046 0
M  V30 6116 H 14.8829 -0.289041 -8.15388 0
M  V30 6117 P 10.92 -1.17771 -8.83182 0
M  V30 6118 O 10.7 -2.07206 -9.98732 0
M  V30 6119 O 10.13 0.0743816 -8.81969 0
M  V30 6120 O 10.67 -1.97652 -7.47304 0
M  V30 6121 C 11.61 -3.01133 -7.08783 0
M  V30 6122 C 10.88 -4.12613 -6.37049 0
M  V30 6123 O 10.67 -3.72827 -4.97879 0
M  V30 6124 C 9.47996 -4.45085 -6.88694 0
M  V30 6125 O 9.08996 -5.7877 -6.5624 0
M  V30 6126 C 8.59996 -3.47817 -6.12078 0
M  V30 6127 C 9.30996 -3.39414 -4.77697 0
M  V30 6128 N 9.25996 -2.04615 -4.15333 0
M  V30 6129 H 12.099 -3.41248 -7.98759 0
M  V30 6130 H 12.371 -2.5837 -6.41742 0
M  V30 6131 H 11.503 -5.02657 -6.42673 0
M  V30 6132 P 7.53998 -6.144 -6.45285 0
M  V30 6133 O 7.31998 -7.54673 -6.86199 0
M  V30 6134 O 6.74998 -5.12391 -7.179 0
M  V30 6135 O 7.28998 -5.99158 -4.88404 0
M  V30 6136 C 8.22998 -6.60062 -3.96313 0
M  V30 6137 C 7.49998 -7.08259 -2.72856 0
M  V30 6138 O 7.28998 -5.9427 -1.83651 0
M  V30 6139 C 6.09998 -7.65087 -2.94749 0
M  V30 6140 O 5.70998 -8.53963 -1.90717 0
M  V30 6141 C 5.21998 -6.41069 -2.90698 0
M  V30 6142 C 5.92998 -5.5528 -1.86931 0
M  V30 6143 N 5.87998 -4.09575 -2.15696 0
M  V30 6144 C 5.72998 -3.24249 -1.08435 0
M  V30 6145 O 5.63998 -3.63946 0.0628747 0
M  V30 6146 N 5.68998 -1.90009 -1.39973 0
M  V30 6147 C 5.77998 -1.34884 -2.65614 0
M  V30 6148 C 5.92998 -2.3145 -3.71736 0
M  V30 6149 C 5.97998 -3.63518 -3.44754 0
M  V30 6150 H 8.72098 -7.45402 -4.45526 0
M  V30 6151 H 8.98998 -5.86062 -3.67208 0
M  V30 6152 H 8.12298 -7.84412 -2.24479 0
M  V30 6153 H 5.46798 -5.73358 -0.888409 0
M  V30 6154 H 5.18898 -5.90877 -3.88583 0
M  V30 6155 H 4.19698 -6.65867 -2.58821 0
M  V30 6156 H 6.03098 -8.16248 -3.92006 0
M  V30 6157 H 6.10198 -4.34551 -4.26383 0
M  V30 6158 P 4.16 -8.7635 -1.60911 0
M  V30 6159 O 3.94 -10.1388 -1.11561 0
M  V30 6160 O 3.37 -8.36503 -2.79617 0
M  V30 6161 O 3.91 -7.71806 -0.42951 0
M  V30 6162 C 4.85 -7.67148 0.673689 0
M  V30 6163 C 4.12 -7.33374 1.95559 0
M  V30 6164 O 3.91 -5.88721 2.00726 0
M  V30 6165 C 2.72 -7.92526 2.10483 0
M  V30 6166 O 2.33 -8.02971 3.47653 0
M  V30 6167 C 1.84 -6.89602 1.41652 0
M  V30 6168 C 2.55 -5.59201 1.75185 0
M  V30 6169 N 2.5 -4.58235 0.662552 0
M  V30 6170 H 5.339 -8.65116 0.777161 0
M  V30 6171 H 5.611 -6.90173 0.474152 0
M  V30 6172 H 4.743 -7.66548 2.79458 0
M  V30 6173 H 1.613 -8.66322 3.55694 0
M  V30 END ATOM
M  V30 BEGIN BOND
M  V30 END BOND
M  V30 END CTAB
M  END
$$$$
