drugbank_target|O15403 Monocarboxylate transporter 7 (DB00119)
 OpenBabel12092119253D

  0  0  0     0  0            999 V3000
M  V30 BEGIN CTAB
M  V30 COUNTS 8172 8266 0 0 0
M  V30 BEGIN ATOM
M  V30 1 H -0.908 1.98254 -0.117106 0
M  V30 2 N 0 1.576 0 0
M  V30 3 C 0.933 2.03868 1.02534 0
M  V30 4 C 1.911 0.928543 1.3348 0
M  V30 5 O 3.095 1.19667 1.45644 0
M  V30 6 C 0.222 2.43627 2.35294 0
M  V30 7 C -0.732 3.65373 2.2001 0
M  V30 8 S 0.101 5.13292 1.52614 0
M  V30 9 C 1.257 5.56322 2.86805 0
M  V30 10 H 1.49 2.90518 0.631377 0
M  V30 11 H -0.977 1.52953 0.210867 0
M  V30 12 H 0.981 2.67203 3.11629 0
M  V30 13 H -0.358 1.57376 2.7183 0
M  V30 14 H -1.165 3.90944 3.18086 0
M  V30 15 H -1.563 3.418 1.51819 0
M  V30 16 H 0.729 5.58782 3.83104 0
M  V30 17 H 1.672 6.56266 2.65933 0
M  V30 18 H 2.08 4.83886 2.90714 0
M  V30 19 N 1.4781 -0.272755 1.55222 0
M  V30 20 C 2.7061 -1.02255 1.79865 0
M  V30 21 C 3.1211 -1.79924 0.572088 0
M  V30 22 O 2.4781 -1.76638 -0.458842 0
M  V30 23 C 2.5291 -1.98094 3.02392 0
M  V30 24 O 2.2501 -1.23572 4.20311 0
M  V30 25 C 3.7511 -2.84884 3.39641 0
M  V30 26 H 0.9711 -0.302057 0.599168 0
M  V30 27 H 3.5151 -0.303465 2.02236 0
M  V30 28 H 1.6701 -2.65465 2.82147 0
M  V30 29 H 2.0841 -1.88172 4.89583 0
M  V30 30 H 3.5581 -3.47927 4.28545 0
M  V30 31 H 4.0351 -3.54665 2.59055 0
M  V30 32 H 4.6411 -2.23003 3.62146 0
M  V30 33 N 2.9562 -1.48159 -0.537278 0
M  V30 34 C 3.8882 -1.58218 -1.65831 0
M  V30 35 C 4.9012 -0.466948 -1.5596 0
M  V30 36 O 6.0902 -0.73747 -1.62553 0
M  V30 37 C 3.1902 -1.48906 -3.04434 0
M  V30 38 C 2.3632 -2.75343 -3.3986 0
M  V30 39 C 1.4222 -2.59588 -4.57712 0
M  V30 40 O 0.4482 -3.33457 -4.61297 0
M  V30 41 N 1.6502 -1.68724 -5.55439 0
M  V30 42 H 4.4152 -2.54891 -1.57641 0
M  V30 43 H 1.9762 -1.4479 -0.724386 0
M  V30 44 H 3.9682 -1.36072 -3.81139 0
M  V30 45 H 2.5382 -0.602368 -3.06741 0
M  V30 46 H 1.7582 -3.02795 -2.52406 0
M  V30 47 H 3.0462 -3.5924 -3.60311 0
M  V30 48 H 2.4442 -1.07898 -5.55315 0
M  V30 49 H 1.0012 -1.61832 -6.3139 0
M  V30 50 N 4.4343 0.785586 -1.36625 0
M  V30 51 C 5.3823 1.91978 -1.31329 0
M  V30 52 C 6.3763 1.68162 -0.204416 0
M  V30 53 O 7.5823 1.76122 -0.371645 0
M  V30 54 H 3.9573 0.631087 -0.408942 0
M  V30 55 H 5.9283 1.93562 -2.27104 0
M  V30 56 C 4.6773 3.29055 -1.12329 0
M  V30 57 H 4.0003 3.4795 -1.96903 0
M  V30 58 H 5.4403 4.08756 -1.12671 0
M  V30 59 C 3.8993 3.36461 0.171861 0
M  V30 60 O 4.4293 3.84576 1.16035 0
M  V30 61 N 2.6353 2.89782 0.217846 0
M  V30 62 H 2.1823 2.50819 -0.587183 0
M  V30 63 H 2.1403 2.95119 1.08408 0
M  V30 64 N 5.9124 1.20967 1.01018 0
M  V30 65 C 6.8594 0.964281 2.09691 0
M  V30 66 C 7.8294 -0.107853 1.65749 0
M  V30 67 O 9.0144 0.0381987 1.90762 0
M  V30 68 C 6.1544 0.52943 3.41015 0
M  V30 69 C 5.2674 1.67043 3.98398 0
M  V30 70 C 4.4024 1.18525 5.17808 0
M  V30 71 C 3.4414 2.29892 5.67288 0
M  V30 72 N 2.5784 1.82546 6.77954 0
M  V30 73 H 7.4184 1.89463 2.30017 0
M  V30 74 H 4.9554 0.944289 1.1279 0
M  V30 75 H 6.9134 0.258588 4.16398 0
M  V30 76 H 5.5434 -0.363919 3.20742 0
M  V30 77 H 4.5954 2.05603 3.20049 0
M  V30 78 H 5.9074 2.50877 4.31117 0
M  V30 79 H 5.0614 0.870762 6.00419 0
M  V30 80 H 3.8004 0.316887 4.86669 0
M  V30 81 H 2.8054 2.6215 4.83278 0
M  V30 82 H 4.0304 3.17216 6.00459 0
M  V30 83 H 1.9764 0.980454 6.48632 0
M  V30 84 H 1.8934 2.59956 7.09901 0
M  V30 85 H 3.1614 1.54115 7.64113 0
M  V30 86 N 7.3905 -1.2043 1.01659 0
M  V30 87 C 8.3205 -2.25466 0.607226 0
M  V30 88 C 9.3015 -1.65853 -0.377716 0
M  V30 89 O 10.4865 -1.92409 -0.263149 0
M  V30 90 C 7.6165 -3.47256 -0.0552949 0
M  V30 91 C 6.5705 -4.19462 0.850632 0
M  V30 92 C 5.8965 -5.34673 0.0538859 0
M  V30 93 C 7.1965 -4.75603 2.15868 0
M  V30 94 H 8.8905 -2.59962 1.48526 0
M  V30 95 H 6.4365 -1.2496 0.715605 0
M  V30 96 H 8.3895 -4.19917 -0.353233 0
M  V30 97 H 7.1135 -3.11924 -0.968045 0
M  V30 98 H 5.7725 -3.48667 1.13257 0
M  V30 99 H 5.4205 -4.95585 -0.860514 0
M  V30 100 H 5.1205 -5.83913 0.657192 0
M  V30 101 H 6.6445 -6.10138 -0.237598 0
M  V30 102 H 8.0585 -5.40083 1.92311 0
M  V30 103 H 6.4555 -5.3528 2.71284 0
M  V30 104 H 7.5255 -3.94346 2.82169 0
M  V30 105 N 8.8686 -0.792821 -1.36206 0
M  V30 106 C 9.8156 -0.191653 -2.30003 0
M  V30 107 C 10.7856 0.666453 -1.52143 0
M  V30 108 O 11.9706 0.61442 -1.80636 0
M  V30 109 C 9.1106 0.664848 -3.38635 0
M  V30 110 C 8.2236 -0.212175 -4.31479 0
M  V30 111 C 7.3586 0.651022 -5.27196 0
M  V30 112 C 6.3976 -0.227247 -6.11678 0
M  V30 113 N 5.5346 0.595127 -6.99573 0
M  V30 114 H 10.3746 -0.996978 -2.80828 0
M  V30 115 H 7.9116 -0.503206 -1.38225 0
M  V30 116 H 9.8696 1.17645 -4.00269 0
M  V30 117 H 8.4996 1.43557 -2.89122 0
M  V30 118 H 7.5516 -0.841777 -3.70969 0
M  V30 119 H 8.8636 -0.888751 -4.90818 0
M  V30 120 H 8.0176 1.2283 -5.94136 0
M  V30 121 H 6.7566 1.36121 -4.68319 0
M  V30 122 H 5.7616 -0.816904 -5.43697 0
M  V30 123 H 6.9866 -0.93509 -6.72631 0
M  V30 124 H 4.9326 1.28955 -6.432 0
M  V30 125 H 4.8496 -0.0236952 -7.55996 0
M  V30 126 H 6.1176 1.15613 -7.70879 0
M  V30 127 N 10.3467 1.47872 -0.545128 0
M  V30 128 C 11.2767 2.32661 0.197793 0
M  V30 129 C 12.2577 1.43041 0.920504 0
M  V30 130 O 13.4427 1.71912 0.90333 0
M  V30 131 C 10.5727 3.24569 1.23582 0
M  V30 132 C 9.5267 4.23333 0.630323 0
M  V30 133 C 8.8527 5.0448 1.77211 0
M  V30 134 C 10.1527 5.20704 -0.407974 0
M  V30 135 H 11.8467 2.95024 -0.510045 0
M  V30 136 H 9.3927 1.4187 -0.246731 0
M  V30 137 H 11.3457 3.8272 1.76362 0
M  V30 138 H 10.0697 2.60236 1.97344 0
M  V30 139 H 8.7287 3.6639 0.123922 0
M  V30 140 H 8.3767 4.36561 2.49847 0
M  V30 141 H 8.0767 5.71339 1.37281 0
M  V30 142 H 9.6007 5.65487 2.3034 0
M  V30 143 H 11.0147 5.7329 0.033305 0
M  V30 144 H 9.4117 5.95699 -0.725486 0
M  V30 145 H 10.4817 4.66917 -1.30828 0
M  V30 146 N 11.8248 0.280983 1.55075 0
M  V30 147 C 13.0648 -0.335234 2.01632 0
M  V30 148 C 13.4288 -1.5261 1.16508 0
M  V30 149 O 14.6298 -2.21235 1.52672 0
M  V30 150 C 12.9008 -0.702172 3.50434 0
M  V30 151 S 14.4598 -1.30409 4.18974 0
M  V30 152 H 11.2778 -0.103967 0.703358 0
M  V30 153 H 13.8798 0.404187 1.91276 0
M  V30 154 H 12.5838 0.17333 4.10034 0
M  V30 155 H 12.1148 -1.4729 3.64786 0
M  V30 156 H 14.1298 -2.59253 4.23087 0
M  V30 157 N 13.3029 -1.57598 0.00835791 0
M  V30 158 C 14.5279 -1.95617 -0.689103 0
M  V30 159 C 14.9529 -0.883753 -1.66046 0
M  V30 160 O 14.3109 0.157352 -1.80616 0
M  V30 161 C 14.3589 -3.32736 -1.38994 0
M  V30 162 O 13.4629 -3.27631 -2.50463 0
M  V30 163 H 12.8039 -0.638379 -0.182668 0
M  V30 164 H 15.3339 -2.045 0.064036 0
M  V30 165 H 15.3439 -3.68494 -1.75147 0
M  V30 166 H 14.0189 -4.1034 -0.677778 0
M  V30 167 H 12.5959 -3.03561 -2.16576 0
M  V30 168 N 14.781 0.264519 -1.55364 0
M  V30 169 C 15.728 1.32717 -1.88825 0
M  V30 170 C 16.698 1.48675 -0.740605 0
M  V30 171 O 17.883 1.62945 -0.992657 0
M  V30 172 C 15.023 2.68089 -2.17307 0
M  V30 173 C 14.136 2.60284 -3.44785 0
M  V30 174 C 13.271 3.87892 -3.62924 0
M  V30 175 C 12.31 3.74631 -4.84064 0
M  V30 176 N 11.447 4.94092 -4.98816 0
M  V30 177 H 16.287 1.03481 -2.79456 0
M  V30 178 H 13.824 0.499757 -1.3835 0
M  V30 179 H 15.782 3.46864 -2.31821 0
M  V30 180 H 14.412 2.95509 -1.299 0
M  V30 181 H 13.464 1.73173 -3.38697 0
M  V30 182 H 14.776 2.46388 -4.33698 0
M  V30 183 H 13.93 4.75109 -3.77302 0
M  V30 184 H 12.669 4.04664 -2.7221 0
M  V30 185 H 11.674 2.85797 -4.69681 0
M  V30 186 H 12.899 3.5937 -5.76221 0
M  V30 187 H 10.845 5.11259 -4.11036 0
M  V30 188 H 10.762 4.8276 -5.81789 0
M  V30 189 H 12.03 5.82857 -5.17588 0
M  V30 190 N 16.2591 1.48442 0.529413 0
M  V30 191 C 17.2221 1.62524 1.61612 0
M  V30 192 C 18.2221 0.498509 1.52877 0
M  V30 193 O 19.4121 0.76431 1.56537 0
M  V30 194 C 16.5441 1.59597 3.01233 0
M  V30 195 H 17.7371 2.59423 1.50465 0
M  V30 196 H 15.2901 1.37047 0.751514 0
M  V30 197 H 16.0251 0.641781 3.17886 0
M  V30 198 H 15.8101 2.41397 3.08982 0
M  V30 199 H 17.3001 1.72646 3.80241 0
M  V30 200 N 17.7372 -0.778329 1.37039 0
M  V30 201 C 18.6852 -1.91278 1.32345 0
M  V30 202 C 19.6792 -1.68051 0.213331 0
M  V30 203 O 20.8852 -1.75922 0.38098 0
M  V30 204 H 17.2602 -0.628909 0.412283 0
M  V30 205 H 19.2312 -1.92355 2.28127 0
M  V30 206 C 17.9802 -3.28455 1.14073 0
M  V30 207 H 17.3032 -3.46901 1.98746 0
M  V30 208 H 18.7432 -4.08152 1.14837 0
M  V30 209 C 17.2022 -3.36548 -0.154015 0
M  V30 210 O 17.7322 -3.85186 -1.13993 0
M  V30 211 N 15.9382 -2.89894 -0.202475 0
M  V30 212 H 15.4852 -2.50504 0.600476 0
M  V30 213 H 15.4432 -2.9569 -1.06841 0
M  V30 214 N 19.2153 -1.21501 -1.00376 0
M  V30 215 C 20.4613 -1.03452 -1.74429 0
M  V30 216 C 20.7943 0.430764 -1.89362 0
M  V30 217 O 20.0693 1.31962 -1.42886 0
M  V30 218 C 20.3523 -1.73375 -3.15615 0
M  V30 219 C 20.2053 -3.27431 -3.08397 0
M  V30 220 C 21.5243 -1.47732 -4.14564 0
M  V30 221 H 18.6433 -0.377226 -0.633143 0
M  V30 222 H 21.2853 -1.49693 -1.17013 0
M  V30 223 H 19.4353 -1.34064 -3.64636 0
M  V30 224 H 21.1073 -3.76119 -2.67081 0
M  V30 225 H 19.3503 -3.5767 -2.45468 0
M  V30 226 H 20.0213 -3.71524 -4.08258 0
M  V30 227 H 22.4973 -1.8186 -3.74254 0
M  V30 228 H 21.3733 -1.99169 -5.11491 0
M  V30 229 H 21.6343 -0.407589 -4.40217 0
M  V30 230 N 20.6934 1.19889 -1.02296 0
M  V30 231 C 21.9234 1.93109 -0.734332 0
M  V30 232 C 22.3314 1.75377 0.709889 0
M  V30 233 O 21.6744 1.06912 1.49384 0
M  V30 234 C 21.7364 3.45362 -0.99827 0
M  V30 235 C 21.4004 3.8686 -2.43287 0
M  V30 236 C 22.3974 3.92102 -3.41397 0
M  V30 237 C 20.0824 4.18668 -2.77529 0
M  V30 238 C 22.0764 4.28573 -4.71809 0
M  V30 239 C 19.7634 4.54813 -4.08153 0
M  V30 240 C 20.7614 4.59739 -5.05103 0
M  V30 241 O 20.4494 4.95051 -6.33388 0
M  V30 242 H 20.1814 0.620409 -0.268456 0
M  V30 243 H 22.7354 1.53144 -1.3688 0
M  V30 244 H 20.9654 3.85482 -0.306645 0
M  V30 245 H 22.6544 3.99814 -0.700234 0
M  V30 246 H 23.4204 3.67685 -3.1628 0
M  V30 247 H 19.2994 4.14021 -2.0275 0
M  V30 248 H 22.8434 4.32333 -5.4748 0
M  V30 249 H 18.7404 4.78687 -4.33047 0
M  V30 250 H 19.5084 5.1302 -6.37772 0
M  V30 251 N 22.1715 0.800033 1.35784 0
M  V30 252 C 23.3995 0.389606 2.03199 0
M  V30 253 C 23.8145 -0.997375 1.60306 0
M  V30 254 O 23.1715 -1.64154 0.797481 0
M  V30 255 C 23.2225 0.455855 3.58614 0
M  V30 256 O 22.9435 1.78815 3.99946 0
M  V30 257 C 24.4445 0.0374032 4.43284 0
M  V30 258 H 21.6645 0.159132 0.651857 0
M  V30 259 H 24.2085 1.08183 1.73541 0
M  V30 260 H 22.3635 -0.188057 3.86943 0
M  V30 261 H 22.7775 1.74636 4.94573 0
M  V30 262 H 24.2515 0.134882 5.51835 0
M  V30 263 H 24.7285 -1.01651 4.27275 0
M  V30 264 H 25.3345 0.654215 4.20238 0
M  V30 265 N 23.6496 -1.47581 0.552962 0
M  V30 266 C 24.5596 -2.33743 -0.200353 0
M  V30 267 C 25.5756 -1.47928 -0.916151 0
M  V30 268 O 26.7516 -1.80865 -0.885993 0
M  V30 269 C 23.8166 -3.24536 -1.21973 0
M  V30 270 C 22.8776 -4.26238 -0.511819 0
M  V30 271 C 22.1106 -5.12693 -1.48263 0
M  V30 272 O 22.3336 -5.01525 -2.71714 0
M  V30 273 O 21.2676 -5.93375 -1.00945 0
M  V30 274 H 25.0936 -2.9945 0.506304 0
M  V30 275 H 22.6786 -1.46071 0.313622 0
M  V30 276 H 24.5606 -3.80631 -1.80827 0
M  V30 277 H 23.2356 -2.61462 -1.90839 0
M  V30 278 H 22.1426 -3.73914 0.117799 0
M  V30 279 H 23.4756 -4.92014 0.135308 0
M  V30 280 N 25.1277 -0.289203 -1.54924 0
M  V30 281 C 26.3737 0.323998 -2.00195 0
M  V30 282 C 26.7067 1.54441 -1.17735 0
M  V30 283 O 25.9817 1.92875 -0.250878 0
M  V30 284 C 26.2647 0.692276 -3.53383 0
M  V30 285 C 26.1177 -0.536457 -4.46589 0
M  V30 286 C 27.4367 1.52335 -4.12895 0
M  V30 287 H 24.5557 0.116289 -0.727768 0
M  V30 288 H 27.1977 -0.398954 -1.85764 0
M  V30 289 H 25.3477 1.30822 -3.65811 0
M  V30 290 H 27.0197 -1.17499 -4.46085 0
M  V30 291 H 25.2627 -1.17192 -4.1767 0
M  V30 292 H 25.9337 -0.234806 -5.515 0
M  V30 293 H 28.4097 1.00302 -4.0383 0
M  V30 294 H 27.2857 1.74982 -5.20262 0
M  V30 295 H 27.5467 2.50886 -3.64018 0
M  V30 296 N 26.6058 1.57591 -0.0167156 0
M  V30 297 C 28.0168 1.79201 0.523834 0
M  V30 298 C 28.3678 0.925796 1.72984 0
M  V30 299 O 27.4928 0.132792 2.15992 0
M  V30 300 C 28.0878 3.25 0.957091 0
M  V30 301 C 26.6468 3.47648 1.44283 0
M  V30 302 C 25.7938 2.74374 0.401757 0
M  V30 303 H 28.7448 1.56831 -0.242816 0
M  V30 304 H 28.7658 3.34031 1.82219 0
M  V30 305 H 28.2778 3.88019 0.0791415 0
M  V30 306 H 26.3788 2.89866 2.34113 0
M  V30 307 H 26.4918 4.56352 1.45877 0
M  V30 308 H 24.8558 2.39485 0.867121 0
M  V30 309 H 25.6388 3.40102 -0.467513 0
M  V30 310 N 28.0839 -0.256276 1.55502 0
M  V30 311 C 29.3609 -1.00789 1.67633 0
M  V30 312 C 29.7409 -2.03706 0.553826 0
M  V30 313 O 29.0889 -2.24145 -0.443969 0
M  V30 314 C 29.2989 -1.64968 3.07549 0
M  V30 315 C 30.6469 -2.15505 3.65845 0
M  V30 316 O 31.6709 -1.74925 3.1029 0
M  V30 317 O 30.5299 -2.89986 4.63217 0
M  V30 318 H 27.6239 -0.468553 0.681459 0
M  V30 319 H 30.1699 -0.250806 1.67836 0
M  V30 320 H 28.9419 -0.904785 3.80696 0
M  V30 321 H 28.5649 -2.47321 3.11317 0
M  V30 322 N 29.562 -1.4872 -0.521534 0
M  V30 323 C 30.81 -1.56857 -1.27437 0
M  V30 324 C 31.131 -0.247982 -1.93417 0
M  V30 325 O 30.401 0.731151 -1.81744 0
M  V30 326 H 28.981 -0.577885 -0.473347 0
M  V30 327 H 31.643 -1.85233 -0.606205 0
M  V30 328 H 30.739 -2.35402 -2.0492 0
M  V30 329 N 31.0401 0.771051 -1.3745 0
M  V30 330 C 32.2881 1.52661 -1.32435 0
M  V30 331 C 32.6091 1.9479 0.0905024 0
M  V30 332 O 31.8791 1.66348 1.03466 0
M  V30 333 H 30.4591 0.566218 -0.487244 0
M  V30 334 H 33.1211 0.917636 -1.71946 0
M  V30 335 H 32.2171 2.42568 -1.96385 0
M  V30 336 N 32.5182 1.22032 0.997298 0
M  V30 337 C 33.7642 1.05382 1.73972 0
M  V30 338 C 34.1192 -0.407419 1.88037 0
M  V30 339 O 33.4122 -1.29811 1.40924 0
M  V30 340 C 33.6062 1.69345 3.14733 0
M  V30 341 C 33.4352 3.21537 3.14395 0
M  V30 342 C 32.2052 3.9062 3.20537 0
M  V30 343 C 34.4032 4.18527 2.98897 0
M  V30 344 N 32.3852 5.29935 3.09906 0
M  V30 345 C 33.7562 5.44645 2.96247 0
M  V30 346 C 35.8112 4.09476 2.83255 0
M  V30 347 C 34.5142 6.62752 2.79557 0
M  V30 348 C 36.5402 5.27228 2.67926 0
M  V30 349 C 35.9022 6.52262 2.65959 0
M  V30 350 H 32.0012 0.440018 0.646458 0
M  V30 351 H 34.5852 1.54505 1.18475 0
M  V30 352 H 32.7562 1.22778 3.68484 0
M  V30 353 H 34.4882 1.45828 3.77513 0
M  V30 354 H 31.2432 3.41592 3.28043 0
M  V30 355 H 31.6672 6.02926 3.07912 0
M  V30 356 H 36.3092 3.13598 2.83577 0
M  V30 357 H 34.0272 7.58783 2.77982 0
M  V30 358 H 37.6132 5.22053 2.56812 0
M  V30 359 H 36.4932 7.41844 2.54239 0
M  V30 360 N 33.9963 -1.19345 1.0293 0
M  V30 361 C 35.2443 -1.88665 0.724574 0
M  V30 362 C 35.5653 -1.80036 -0.749144 0
M  V30 363 O 34.8353 -1.2111 -1.53978 0
M  V30 364 H 33.4153 -0.698406 0.265025 0
M  V30 365 H 36.0773 -1.44885 1.30362 0
M  V30 366 H 35.1733 -2.94987 1.01926 0
M  V30 367 N 35.4744 -0.807222 -1.35358 0
M  V30 368 C 36.7204 -0.397594 -1.99476 0
M  V30 369 C 37.0754 1.02405 -1.62883 0
M  V30 370 O 36.3684 1.70077 -0.882282 0
M  V30 371 C 36.5624 -0.519036 -3.53611 0
M  V30 372 C 36.3914 -1.95094 -4.05177 0
M  V30 373 C 35.1614 -2.57945 -4.34503 0
M  V30 374 C 37.3594 -2.91558 -4.23673 0
M  V30 375 N 35.3414 -3.92539 -4.72003 0
M  V30 376 C 36.7124 -4.11024 -4.64176 0
M  V30 377 C 38.7674 -2.88381 -4.05883 0
M  V30 378 C 37.4704 -5.27745 -4.88751 0
M  V30 379 C 39.4964 -4.04306 -4.31614 0
M  V30 380 C 38.8584 -5.22519 -4.72391 0
M  V30 381 H 34.9574 -0.193274 -0.75774 0
M  V30 382 H 37.5414 -1.0486 -1.6405 0
M  V30 383 H 35.7124 0.101979 -3.88266 0
M  V30 384 H 37.4444 -0.0839321 -4.04613 0
M  V30 385 H 34.1994 -2.09295 -4.24844 0
M  V30 386 H 34.6234 -4.61836 -4.95011 0
M  V30 387 H 39.2654 -1.98137 -3.73499 0
M  V30 388 H 36.9834 -6.1856 -5.20008 0
M  V30 389 H 40.5694 -4.03229 -4.19402 0
M  V30 390 H 39.4494 -6.1073 -4.91913 0
M  V30 391 N 36.9525 1.47285 -0.560781 0
M  V30 392 C 37.9155 2.28535 0.174488 0
M  V30 393 C 38.9155 1.37153 0.839388 0
M  V30 394 O 40.1055 1.59748 0.694702 0
M  V30 395 C 37.2375 3.16934 1.25561 0
M  V30 396 H 38.4305 2.95012 -0.539262 0
M  V30 397 H 35.9835 1.53034 -0.317865 0
M  V30 398 H 36.7185 2.55157 2.00164 0
M  V30 399 H 36.5035 3.8419 0.783604 0
M  V30 400 H 37.9935 3.78143 1.77193 0
M  V30 401 N 38.4306 0.297415 1.54768 0
M  V30 402 C 39.6766 -0.313376 2.00364 0
M  V30 403 C 40.0096 -1.53815 1.18553 0
M  V30 404 O 39.2846 -1.92739 0.261103 0
M  V30 405 C 39.5676 -0.673525 3.53745 0
M  V30 406 C 39.4206 0.560133 4.46299 0
M  V30 407 C 40.7396 -1.50143 4.13697 0
M  V30 408 H 37.8586 -0.112428 0.728374 0
M  V30 409 H 40.5006 0.4088 1.8555 0
M  V30 410 H 38.6506 -1.28881 3.665 0
M  V30 411 H 40.3226 1.19863 4.45455 0
M  V30 412 H 38.5656 1.19405 4.17043 0
M  V30 413 H 39.2366 0.26405 5.51368 0
M  V30 414 H 41.7126 -0.981588 4.04356 0
M  V30 415 H 40.5886 -1.72221 5.21182 0
M  V30 416 H 40.8496 -2.48952 3.65343 0
M  V30 417 N 39.9087 -1.5758 0.0250728 0
M  V30 418 C 40.8717 -2.08896 -0.943139 0
M  V30 419 C 41.8717 -1.00321 -1.25668 0
M  V30 420 O 43.0617 -1.26495 -1.19769 0
M  V30 421 C 40.1937 -2.55143 -2.26086 0
M  V30 422 H 41.3867 -2.95723 -0.498775 0
M  V30 423 H 38.9397 -1.54703 -0.222888 0
M  V30 424 H 39.6747 -1.71633 -2.75159 0
M  V30 425 H 39.4597 -3.34461 -2.04641 0
M  V30 426 H 40.9497 -2.95083 -2.95492 0
M  V30 427 N 41.3868 0.248026 -1.55636 0
M  V30 428 C 42.6328 0.97767 -1.77678 0
M  V30 429 C 42.9658 1.85016 -0.590135 0
M  V30 430 O 42.2408 1.90095 0.411611 0
M  V30 431 C 42.5238 1.83914 -3.09593 0
M  V30 432 C 42.3768 0.99491 -4.38659 0
M  V30 433 C 43.6958 2.82183 -3.37729 0
M  V30 434 H 40.8148 0.354005 -0.646413 0
M  V30 435 H 43.4568 0.248253 -1.88371 0
M  V30 436 H 41.6068 2.46104 -3.00608 0
M  V30 437 H 43.2788 0.391789 -4.59633 0
M  V30 438 H 41.5218 0.299231 -4.32767 0
M  V30 439 H 42.1928 1.63145 -5.2734 0
M  V30 440 H 44.6688 2.30129 -3.4667 0
M  V30 441 H 43.5448 3.39582 -4.31249 0
M  V30 442 H 43.8058 3.58588 -2.58586 0
M  V30 443 N 42.8649 1.48995 0.513639 0
M  V30 444 C 44.0899 1.61792 1.29762 0
M  V30 445 C 44.5149 0.284475 1.85936 0
M  V30 446 O 43.8729 -0.746185 1.65232 0
M  V30 447 C 43.9209 2.67993 2.41272 0
M  V30 448 O 43.0249 2.26287 3.44772 0
M  V30 449 H 42.3659 0.541963 0.38363 0
M  V30 450 H 44.8959 1.95097 0.616307 0
M  V30 451 H 44.9059 2.89772 2.87221 0
M  V30 452 H 43.5809 3.64791 1.9975 0
M  V30 453 H 42.1579 2.14788 3.04829 0
M  V30 454 N 44.343 -0.763751 1.37857 0
M  V30 455 C 45.59 -1.52257 1.33506 0
M  V30 456 C 45.918 -1.94343 -0.078022 0
M  V30 457 O 45.173 -1.64958 -1.05297 0
M  V30 458 C 45.472 -2.79499 2.22745 0
M  V30 459 C 45.138 -2.56426 3.70886 0
M  V30 460 C 43.8 -2.49842 4.11257 0
M  V30 461 C 46.152 -2.36008 4.64704 0
M  V30 462 C 43.48 -2.20841 5.43549 0
M  V30 463 C 45.832 -2.0853 5.97242 0
M  V30 464 C 44.496 -2.00396 6.36709 0
M  V30 465 H 43.766 -0.557149 0.488534 0
M  V30 466 H 46.413 -0.879073 1.70131 0
M  V30 467 H 44.718 -3.48447 1.79142 0
M  V30 468 H 46.415 -3.37413 2.16688 0
M  V30 469 H 43.005 -2.62416 3.38874 0
M  V30 470 H 47.189 -2.40079 4.34368 0
M  V30 471 H 42.445 -2.13045 5.73081 0
M  V30 472 H 46.619 -1.91732 6.69486 0
M  V30 473 H 44.246 -1.77688 7.39142 0
M  V30 474 N 45.8211 -1.22559 -0.990812 0
M  V30 475 C 47.0681 -1.05141 -1.73065 0
M  V30 476 C 47.3961 0.413191 -1.9006 0
M  V30 477 O 46.6511 1.32257 -1.44245 0
M  V30 478 C 46.9501 -1.71011 -3.13831 0
M  V30 479 C 46.6161 -3.20911 -3.16745 0
M  V30 480 C 45.2781 -3.61812 -3.17247 0
M  V30 481 C 47.6301 -4.16846 -3.12872 0
M  V30 482 C 44.9581 -4.97127 -3.1158 0
M  V30 483 C 47.3101 -5.5214 -3.08746 0
M  V30 484 C 45.9741 -5.92419 -3.07565 0
M  V30 485 H 45.2441 -0.384738 -0.633291 0
M  V30 486 H 47.8911 -1.5235 -1.16025 0
M  V30 487 H 46.1961 -1.16133 -3.74193 0
M  V30 488 H 47.8931 -1.55023 -3.69823 0
M  V30 489 H 44.4831 -2.88344 -3.17105 0
M  V30 490 H 48.6671 -3.86263 -3.11632 0
M  V30 491 H 43.9231 -5.27562 -3.09012 0
M  V30 492 H 48.0971 -6.26201 -3.04705 0
M  V30 493 H 45.7241 -6.97236 -3.02929 0
M  V30 494 N 47.2992 1.18797 -1.03562 0
M  V30 495 C 48.5462 1.8865 -0.736023 0
M  V30 496 C 48.8742 1.80041 0.735889 0
M  V30 497 O 48.1292 1.19179 1.55225 0
M  V30 498 C 48.4282 3.38692 -1.14117 0
M  V30 499 C 48.0942 3.67504 -2.6125 0
M  V30 500 C 46.7562 3.75078 -3.01447 0
M  V30 501 C 49.1082 3.80293 -3.56408 0
M  V30 502 C 46.4362 3.92915 -4.35701 0
M  V30 503 C 48.7882 3.99645 -4.90374 0
M  V30 504 C 47.4522 4.05453 -5.30249 0
M  V30 505 H 46.7222 0.690321 -0.26933 0
M  V30 506 H 49.3692 1.40641 -1.29971 0
M  V30 507 H 47.6742 3.88645 -0.496202 0
M  V30 508 H 49.3712 3.91072 -0.886789 0
M  V30 509 H 45.9612 3.62223 -2.29113 0
M  V30 510 H 50.1452 3.73779 -3.26501 0
M  V30 511 H 45.4012 3.95653 -4.66121 0
M  V30 512 H 49.5752 4.08482 -5.64017 0
M  V30 513 H 47.2022 4.19027 -6.34288 0
M  V30 514 N 48.7773 0.814389 1.34928 0
M  V30 515 C 50.0233 0.399013 1.98836 0
M  V30 516 C 50.3563 -1.03314 1.64438 0
M  V30 517 O 49.6313 -1.71811 0.911659 0
M  V30 518 C 49.9143 0.591629 3.55207 0
M  V30 519 C 49.7673 2.06928 3.99376 0
M  V30 520 C 51.0863 0.022199 4.40094 0
M  V30 521 H 48.2053 0.146451 0.722303 0
M  V30 522 H 50.8473 1.02537 1.59957 0
M  V30 523 H 48.9973 0.0584441 3.88456 0
M  V30 524 H 50.6693 2.66544 3.76499 0
M  V30 525 H 48.9123 2.56287 3.49999 0
M  V30 526 H 49.5833 2.1549 5.08201 0
M  V30 527 H 52.0593 0.477643 4.13349 0
M  V30 528 H 50.9353 0.186832 5.48582 0
M  V30 529 H 51.1963 -1.07215 4.28902 0
M  V30 530 N 50.2554 -1.46986 0.568584 0
M  V30 531 C 51.1654 -2.33942 -0.17555 0
M  V30 532 C 52.1814 -1.48891 -0.90041 0
M  V30 533 O 53.3574 -1.81794 -0.86676 0
M  V30 534 C 50.4224 -3.25811 -1.18524 0
M  V30 535 C 49.4834 -4.26757 -0.466582 0
M  V30 536 C 48.7164 -5.14236 -1.42817 0
M  V30 537 O 48.9394 -5.04379 -2.66379 0
M  V30 538 O 47.8734 -5.94412 -0.946453 0
M  V30 539 H 51.6994 -2.98896 0.538036 0
M  V30 540 H 49.2844 -1.4573 0.329097 0
M  V30 541 H 51.1664 -3.82527 -1.76779 0
M  V30 542 H 49.8414 -2.63471 -1.88055 0
M  V30 543 H 48.7484 -3.73769 0.157451 0
M  V30 544 H 50.0814 -4.91843 0.187485 0
M  V30 545 N 51.7335 -0.305618 -1.54608 0
M  V30 546 C 52.9795 0.302746 -2.00528 0
M  V30 547 C 53.3125 1.53184 -1.19367 0
M  V30 548 O 52.5875 1.92598 -0.271321 0
M  V30 549 C 52.8705 0.654756 -3.54097 0
M  V30 550 C 52.7235 -0.583793 -4.45995 0
M  V30 551 C 54.0425 1.47947 -4.14487 0
M  V30 552 H 51.1615 0.108564 -0.72896 0
M  V30 553 H 53.8035 -0.418634 -1.85331 0
M  V30 554 H 51.9535 1.26935 -3.67178 0
M  V30 555 H 53.6255 -1.22224 -4.44814 0
M  V30 556 H 51.8685 -1.21615 -4.16404 0
M  V30 557 H 52.5395 -0.293287 -5.5122 0
M  V30 558 H 55.0155 0.96013 -4.04871 0
M  V30 559 H 53.8915 1.69454 -5.22088 0
M  V30 560 H 54.1525 2.47011 -3.66658 0
M  V30 561 N 53.2116 1.57565 -0.0334293 0
M  V30 562 C 54.4586 1.91978 0.644272 0
M  V30 563 C 54.7866 0.910231 1.71887 0
M  V30 564 O 54.0416 -0.0801961 1.95536 0
M  V30 565 C 54.3406 3.33112 1.29504 0
M  V30 566 C 54.0066 4.49537 0.350388 0
M  V30 567 C 52.6686 4.81115 0.0903974 0
M  V30 568 C 55.0206 5.20347 -0.298032 0
M  V30 569 C 52.3486 5.8086 -0.825746 0
M  V30 570 C 54.7006 6.2107 -1.20226 0
M  V30 571 C 53.3646 6.51088 -1.4711 0
M  V30 572 H 52.6346 0.702496 0.235756 0
M  V30 573 H 55.2816 1.91259 -0.0961176 0
M  V30 574 H 53.5866 3.30113 2.11028 0
M  V30 575 H 55.2836 3.57011 1.82603 0
M  V30 576 H 51.8736 4.24883 0.563205 0
M  V30 577 H 56.0576 4.96178 -0.110234 0
M  V30 578 H 51.3136 6.02461 -1.04169 0
M  V30 579 H 55.4876 6.75057 -1.71086 0
M  V30 580 H 53.1146 7.28193 -2.18264 0
M  V30 581 N 54.6897 -0.239769 1.55765 0
M  V30 582 C 55.9177 -0.98417 1.81994 0
M  V30 583 C 56.3327 -1.7867 0.610124 0
M  V30 584 O 55.6897 -1.77571 -0.421271 0
M  V30 585 C 55.7407 -1.91635 3.06526 0
M  V30 586 O 55.4617 -1.14629 4.22838 0
M  V30 587 C 56.9627 -2.77616 3.45607 0
M  V30 588 H 54.1827 -0.28928 0.605441 0
M  V30 589 H 56.7267 -0.260499 2.02834 0
M  V30 590 H 54.8817 -2.5942 2.87715 0
M  V30 591 H 55.2957 -1.77745 4.93464 0
M  V30 592 H 56.7697 -3.38759 4.35828 0
M  V30 593 H 57.2467 -3.4909 2.6652 0
M  V30 594 H 57.8527 -2.15271 3.66795 0
M  V30 595 N 56.1678 -1.49265 -0.50573 0
M  V30 596 C 57.3978 -1.61979 -1.28243 0
M  V30 597 C 57.8058 -0.288576 -1.86986 0
M  V30 598 O 57.1488 0.735408 -1.68337 0
M  V30 599 C 57.2108 -2.62632 -2.45489 0
M  V30 600 C 56.8748 -4.071 -2.07651 0
M  V30 601 C 57.8718 -4.94049 -1.61901 0
M  V30 602 C 55.5568 -4.52801 -2.17431 0
M  V30 603 C 57.5508 -6.24736 -1.26428 0
M  V30 604 C 55.2378 -5.83503 -1.8157 0
M  V30 605 C 56.2358 -6.69294 -1.36142 0
M  V30 606 O 55.9238 -7.9756 -1.00764 0
M  V30 607 H 55.6558 -0.54834 -0.395347 0
M  V30 608 H 58.2098 -1.96002 -0.614204 0
M  V30 609 H 56.4398 -2.2378 -3.15372 0
M  V30 610 H 58.1288 -2.64925 -3.07522 0
M  V30 611 H 58.8948 -4.5997 -1.53795 0
M  V30 612 H 54.7738 -3.86196 -2.51742 0
M  V30 613 H 58.3178 -6.91652 -0.908992 0
M  V30 614 H 54.2148 -6.17112 -1.89324 0
M  V30 615 H 54.9828 -8.10529 -1.13952 0
M  V30 616 N 57.6459 0.756429 -1.3826 0
M  V30 617 C 58.8939 1.51248 -1.34047 0
M  V30 618 C 59.2149 1.94875 0.0698372 0
M  V30 619 O 58.4849 1.67436 1.01696 0
M  V30 620 H 57.0649 0.561018 -0.493222 0
M  V30 621 H 59.7269 0.899347 -1.7291 0
M  V30 622 H 58.8229 2.40472 -1.98947 0
M  V30 623 N 59.124 1.23083 0.984299 0
M  V30 624 C 60.373 1.05466 1.71929 0
M  V30 625 C 60.686 -0.409211 1.91272 0
M  V30 626 O 61.892 -0.705226 2.62181 0
M  V30 627 C 60.348 1.83874 3.09384 0
M  V30 628 C 59.956 3.34566 2.97943 0
M  V30 629 C 61.7 1.74734 3.8687 0
M  V30 630 C 59.607 4.05381 4.30605 0
M  V30 631 H 58.537 0.391039 0.644674 0
M  V30 632 H 61.188 1.47013 1.09815 0
M  V30 633 H 59.57 1.35131 3.72231 0
M  V30 634 H 60.744 3.90767 2.44209 0
M  V30 635 H 59.059 3.44476 2.33934 0
M  V30 636 H 61.656 2.24957 4.85076 0
M  V30 637 H 61.999 0.709372 4.10212 0
M  V30 638 H 62.532 2.21067 3.30717 0
M  V30 639 H 59.271 5.09467 4.1246 0
M  V30 640 H 58.791 3.53967 4.84218 0
M  V30 641 H 60.47 4.11458 4.99311 0
M  V30 642 N 60.6021 -1.18246 1.0419 0
M  V30 643 C 61.8511 -1.87588 0.741194 0
M  V30 644 C 62.1641 -1.81303 -0.734066 0
M  V30 645 O 63.3701 -2.46019 -1.14834 0
M  V30 646 C 61.8261 -3.36538 1.27555 0
M  V30 647 C 61.4341 -3.51349 2.77953 0
M  V30 648 C 63.1781 -4.11273 1.05143 0
M  V30 649 C 61.0851 -4.94265 3.2474 0
M  V30 650 H 60.0151 -0.702622 0.273565 0
M  V30 651 H 62.6661 -1.33601 1.25789 0
M  V30 652 H 61.0481 -3.9 0.686703 0
M  V30 653 H 62.2221 -3.08153 3.42605 0
M  V30 654 H 60.5371 -2.90022 2.98791 0
M  V30 655 H 63.1341 -5.16689 1.37611 0
M  V30 656 H 63.4771 -4.16298 -0.0112774 0
M  V30 657 H 64.0101 -3.63987 1.60495 0
M  V30 658 H 60.7491 -4.94408 4.30396 0
M  V30 659 H 60.2691 -5.38172 2.64823 0
M  V30 660 H 61.9481 -5.62987 3.18834 0
M  V30 661 N 62.0802 -0.821533 -1.34494 0
M  V30 662 C 63.0272 -0.240397 -2.29545 0
M  V30 663 C 63.9972 0.634031 -1.53523 0
M  V30 664 O 65.1822 0.575966 -1.81899 0
M  V30 665 C 62.3222 0.592869 -3.39969 0
M  V30 666 C 61.4352 -0.30365 -4.30932 0
M  V30 667 C 60.5702 0.539049 -5.28458 0
M  V30 668 C 59.6092 -0.356942 -6.11058 0
M  V30 669 N 58.7462 0.446603 -7.00678 0
M  V30 670 H 63.5862 -1.05632 -2.7865 0
M  V30 671 H 61.1232 -0.532413 -1.37127 0
M  V30 672 H 63.0812 1.09129 -4.02675 0
M  V30 673 H 61.7112 1.37392 -2.92102 0
M  V30 674 H 60.7632 -0.920276 -3.691 0
M  V30 675 H 62.0752 -0.992661 -4.88823 0
M  V30 676 H 61.2292 1.102 -5.96608 0
M  V30 677 H 59.9682 1.26157 -4.71101 0
M  V30 678 H 58.9732 -0.932047 -5.41842 0
M  V30 679 H 60.1982 -1.07755 -6.70497 0
M  V30 680 H 58.1442 1.15282 -6.45791 0
M  V30 681 H 58.0612 -0.184048 -7.55776 0
M  V30 682 H 59.3292 0.992352 -7.73158 0
M  V30 683 N 63.5583 1.46682 -0.576371 0
M  V30 684 C 64.7863 2.06798 -0.0649635 0
M  V30 685 C 65.2013 1.42612 1.23723 0
M  V30 686 O 64.5583 0.529203 1.74659 0
M  V30 687 C 64.6093 3.6132 0.114202 0
M  V30 688 O 64.3303 4.23104 -1.13644 0
M  V30 689 C 65.8313 4.38349 0.66069 0
M  V30 690 H 63.0513 0.668778 -0.0545616 0
M  V30 691 H 65.5953 1.88404 -0.795237 0
M  V30 692 H 63.7503 3.79162 0.794673 0
M  V30 693 H 64.1643 5.15894 -0.946253 0
M  V30 694 H 65.6383 5.47081 0.73526 0
M  V30 695 H 66.1153 4.05953 1.67627 0
M  V30 696 H 66.7213 4.25297 0.0152951 0
M  V30 697 N 65.0364 0.313813 1.54444 0
M  V30 698 C 66.2834 -0.291675 2.00388 0
M  V30 699 C 66.6114 -1.52904 1.2021 0
M  V30 700 O 65.8664 -1.93833 0.269707 0
M  V30 701 C 66.1654 -0.680386 3.50864 0
M  V30 702 C 65.8314 0.456699 4.48581 0
M  V30 703 C 64.4934 0.768824 4.75018 0
M  V30 704 C 66.8454 1.22098 5.06697 0
M  V30 705 C 64.1734 1.84812 5.56831 0
M  V30 706 C 66.5254 2.29029 5.89685 0
M  V30 707 C 65.1894 2.60834 6.14428 0
M  V30 708 H 64.4594 -0.106732 0.733273 0
M  V30 709 H 67.1064 0.43557 1.86481 0
M  V30 710 H 65.4114 -1.48791 3.62448 0
M  V30 711 H 67.1084 -1.16026 3.83847 0
M  V30 712 H 63.6984 0.203337 4.28117 0
M  V30 713 H 67.8824 0.993096 4.86263 0
M  V30 714 H 63.1384 2.09912 5.74236 0
M  V30 715 H 67.3124 2.887 6.33739 0
M  V30 716 H 64.9394 3.44596 6.77612 0
M  V30 717 N 66.5145 -1.57545 0.0417849 0
M  V30 718 C 67.7625 -1.91937 -0.632829 0
M  V30 719 C 68.0835 -0.919978 -1.71934 0
M  V30 720 O 67.3535 0.0366064 -1.95866 0
M  V30 721 H 65.9335 -0.708493 -0.236742 0
M  V30 722 H 68.5955 -1.9468 0.0925745 0
M  V30 723 H 67.6915 -2.92912 -1.07746 0
M  V30 724 N 67.9926 0.231505 -1.5589 0
M  V30 725 C 69.2386 0.95877 -1.78705 0
M  V30 726 C 69.5716 1.8438 -0.609725 0
M  V30 727 O 68.8466 1.90521 0.391426 0
M  V30 728 C 69.1296 1.8062 -3.11526 0
M  V30 729 C 68.9826 0.948328 -4.39689 0
M  V30 730 C 70.3016 2.78585 -3.40703 0
M  V30 731 H 67.4206 0.347129 -0.650131 0
M  V30 732 H 70.0626 0.228259 -1.88624 0
M  V30 733 H 68.2126 2.42902 -3.03201 0
M  V30 734 H 69.8846 0.343016 -4.60023 0
M  V30 735 H 68.1276 0.253314 -4.3306 0
M  V30 736 H 68.7986 1.57543 -5.29041 0
M  V30 737 H 71.2746 2.26439 -3.49091 0
M  V30 738 H 70.1506 3.34988 -4.34826 0
M  V30 739 H 70.4116 3.55825 -2.62375 0
M  V30 740 N 69.4707 1.49531 0.497807 0
M  V30 741 C 70.7177 1.59179 1.25173 0
M  V30 742 C 71.0457 0.279932 1.92475 0
M  V30 743 O 70.3007 -0.732383 1.81479 0
M  V30 744 C 70.5997 2.70252 2.33878 0
M  V30 745 C 70.2657 4.11644 1.84012 0
M  V30 746 C 68.9277 4.50121 1.70132 0
M  V30 747 C 71.2797 5.00121 1.46725 0
M  V30 748 C 68.6077 5.74845 1.17348 0
M  V30 749 C 70.9597 6.25366 0.95392 0
M  V30 750 C 69.6237 6.6267 0.801538 0
M  V30 751 H 68.8937 0.582478 0.45804 0
M  V30 752 H 71.5407 1.83373 0.551948 0
M  V30 753 H 69.8457 2.40041 3.09657 0
M  V30 754 H 71.5427 2.74925 2.9192 0
M  V30 755 H 68.1327 3.81274 1.95775 0
M  V30 756 H 72.3167 4.71048 1.56294 0
M  V30 757 H 67.5727 6.02444 1.04264 0
M  V30 758 H 71.7467 6.93301 0.656225 0
M  V30 759 H 69.3737 7.59197 0.390351 0
M  V30 760 N 70.9488 -0.749086 1.3866 0
M  V30 761 C 72.1958 -1.50833 1.35114 0
M  V30 762 C 72.5238 -1.94415 -0.0574049 0
M  V30 763 O 71.7788 -1.66065 -1.03541 0
M  V30 764 C 72.0778 -2.7712 2.25697 0
M  V30 765 C 71.7438 -2.52477 3.73585 0
M  V30 766 C 70.4058 -2.45466 4.13884 0
M  V30 767 C 72.7578 -2.31066 4.67181 0
M  V30 768 C 70.0858 -2.15064 5.45861 0
M  V30 769 C 72.4378 -2.02183 5.9942 0
M  V30 770 C 71.1018 -1.93631 6.38798 0
M  V30 771 H 70.3718 -0.551936 0.494416 0
M  V30 772 H 73.0188 -0.860979 1.71054 0
M  V30 773 H 71.3238 -3.46528 1.82827 0
M  V30 774 H 73.0208 -3.35096 2.20254 0
M  V30 775 H 69.6108 -2.58807 3.41638 0
M  V30 776 H 73.7948 -2.35459 4.3689 0
M  V30 777 H 69.0508 -2.06954 5.75308 0
M  V30 778 H 73.2248 -1.8462 6.71482 0
M  V30 779 H 70.8518 -1.69839 7.40985 0
M  V30 780 N 72.4269 -1.23603 -0.977757 0
M  V30 781 C 73.3749 -1.01704 -2.09187 0
M  V30 782 C 74.3689 0.0448214 -1.69341 0
M  V30 783 O 75.5749 -0.108902 -1.7967 0
M  V30 784 H 71.9499 -0.311803 -0.684312 0
M  V30 785 H 73.9209 -1.96207 -2.24823 0
M  V30 786 C 72.6699 -0.627746 -3.41986 0
M  V30 787 H 71.9929 -1.43656 -3.73099 0
M  V30 788 H 73.4329 -0.514053 -4.20872 0
M  V30 789 C 71.8919 0.664238 -3.30287 0
M  V30 790 O 72.4219 1.71268 -3.6336 0
M  V30 791 N 70.6279 0.641156 -2.83439 0
M  V30 792 H 70.1749 -0.212376 -2.56723 0
M  V30 793 H 70.1329 1.50583 -2.75993 0
M  V30 794 N 73.905 1.17692 -1.04816 0
M  V30 795 C 75.182 1.83768 -0.669963 0
M  V30 796 C 75.562 1.93232 0.849986 0
M  V30 797 O 74.91 1.46397 1.75443 0
M  V30 798 C 75.12 3.21641 -1.35455 0
M  V30 799 C 76.468 3.97592 -1.49017 0
M  V30 800 O 77.492 3.31107 -1.31326 0
M  V30 801 O 76.351 5.16729 -1.77914 0
M  V30 802 H 73.445 0.792799 -0.235368 0
M  V30 803 H 75.991 1.25021 -1.14751 0
M  V30 804 H 74.763 3.097 -2.39168 0
M  V30 805 H 74.386 3.88052 -0.866107 0
M  V30 806 N 75.3831 0.828654 1.34056 0
M  V30 807 C 76.3131 0.269443 2.3194 0
M  V30 808 C 77.2941 -0.617247 1.58506 0
M  V30 809 O 78.4791 -0.542931 1.86456 0
M  V30 810 C 75.6091 -0.564793 3.42677 0
M  V30 811 C 74.5631 0.225241 4.27407 0
M  V30 812 C 73.8891 -0.7321 5.29664 0
M  V30 813 C 75.1891 1.43663 5.02154 0
M  V30 814 H 76.8831 1.08728 2.7896 0
M  V30 815 H 74.4291 0.524283 1.34117 0
M  V30 816 H 76.3821 -0.966233 4.10173 0
M  V30 817 H 75.1061 -1.41574 2.9432 0
M  V30 818 H 73.7651 0.608117 3.61521 0
M  V30 819 H 73.4131 -1.57916 4.77568 0
M  V30 820 H 73.1131 -0.20767 5.87233 0
M  V30 821 H 74.6371 -1.13128 6.00029 0
M  V30 822 H 76.0511 1.1089 5.62473 0
M  V30 823 H 74.4481 1.89711 5.69324 0
M  V30 824 H 75.5181 2.21181 4.31517 0
M  V30 825 N 76.8612 -1.46375 0.584142 0
M  V30 826 C 77.7942 -2.27351 -0.196676 0
M  V30 827 C 78.7722 -1.35715 -0.895561 0
M  V30 828 O 79.9562 -1.65126 -0.90916 0
M  V30 829 C 77.0832 -3.13486 -1.28235 0
M  V30 830 C 76.1292 -4.20896 -0.689145 0
M  V30 831 S 76.9622 -5.33299 0.48507 0
M  V30 832 C 78.1182 -6.23 -0.601767 0
M  V30 833 H 78.3512 -2.93228 0.490395 0
M  V30 834 H 75.8842 -1.49875 0.371071 0
M  V30 835 H 77.8422 -3.63676 -1.90395 0
M  V30 836 H 76.5032 -2.4692 -1.94138 0
M  V30 837 H 75.6962 -4.80997 -1.50527 0
M  V30 838 H 75.2982 -3.73726 -0.143181 0
M  V30 839 H 77.5902 -6.60979 -1.48705 0
M  V30 840 H 78.5332 -7.0809 -0.0374799 0
M  V30 841 H 78.9412 -5.57173 -0.906557 0
M  V30 842 N 78.3393 -0.321999 -1.54275 0
M  V30 843 C 79.6163 0.335232 -1.92706 0
M  V30 844 C 79.9963 1.70006 -1.25145 0
M  V30 845 O 79.3443 2.25067 -0.394596 0
M  V30 846 C 79.5543 0.429008 -3.46353 0
M  V30 847 C 80.9023 0.690029 -4.18956 0
M  V30 848 O 81.9263 0.511992 -3.52501 0
M  V30 849 O 80.7853 1.03338 -5.36641 0
M  V30 850 H 77.8793 0.191143 -0.804608 0
M  V30 851 H 80.4253 -0.3716 -1.65581 0
M  V30 852 H 79.1973 -0.529611 -3.87699 0
M  V30 853 H 78.8203 1.18348 -3.79578 0
M  V30 854 N 79.8174 1.5752 -0.0501392 0
M  V30 855 C 81.0424 1.97376 0.636997 0
M  V30 856 C 81.4674 0.927466 1.63645 0
M  V30 857 O 80.8254 -0.10941 1.8097 0
M  V30 858 C 80.8734 3.36304 1.30123 0
M  V30 859 O 79.9774 3.34156 2.41689 0
M  V30 860 H 79.3184 0.642998 0.165679 0
M  V30 861 H 81.8484 2.04258 -0.118233 0
M  V30 862 H 81.8584 3.73008 1.65315 0
M  V30 863 H 80.5334 4.11993 0.568746 0
M  V30 864 H 79.1104 3.09196 2.08451 0
M  V30 865 N 81.2955 -0.223234 1.56011 0
M  V30 866 C 82.5425 -0.947875 1.78946 0
M  V30 867 C 82.8705 -1.844 0.618608 0
M  V30 868 O 82.1255 -1.91629 -0.397093 0
M  V30 869 C 82.4245 -1.81948 3.0762 0
M  V30 870 C 82.0905 -1.07672 4.37856 0
M  V30 871 C 80.7525 -0.871544 4.73242 0
M  V30 872 C 83.1045 -0.552081 5.18268 0
M  V30 873 C 80.4325 -0.129791 5.86556 0
M  V30 874 C 82.7845 0.17632 6.32354 0
M  V30 875 C 81.4485 0.39277 6.66343 0
M  V30 876 H 80.7185 -0.346852 0.654809 0
M  V30 877 H 83.3655 -0.216171 1.90276 0
M  V30 878 H 81.6705 -2.61899 2.91404 0
M  V30 879 H 83.3675 -2.38227 3.22566 0
M  V30 880 H 79.9575 -1.24662 4.1007 0
M  V30 881 H 84.1415 -0.698076 4.91366 0
M  V30 882 H 79.3975 0.048153 6.11381 0
M  V30 883 H 83.5715 0.590367 6.93893 0
M  V30 884 H 81.1985 0.969466 7.53993 0
M  V30 885 N 82.7736 -1.49793 -0.48987 0
M  V30 886 C 83.7216 -1.67783 -1.61095 0
M  V30 887 C 84.7156 -0.543683 -1.60438 0
M  V30 888 O 85.9216 -0.723647 -1.64813 0
M  V30 889 H 82.2966 -0.529255 -0.534222 0
M  V30 890 H 84.2676 -2.61861 -1.43078 0
M  V30 891 C 83.0166 -1.77191 -2.99164 0
M  V30 892 H 82.3396 -2.63841 -3.0038 0
M  V30 893 H 83.7796 -1.93809 -3.77113 0
M  V30 894 C 82.2386 -0.519203 -3.32875 0
M  V30 895 O 82.7686 0.350124 -4.00171 0
M  V30 896 N 80.9746 -0.378816 -2.8812 0
M  V30 897 H 80.5216 -1.08725 -2.33531 0
M  V30 898 H 80.4796 0.458239 -3.11043 0
M  V30 899 N 84.2517 0.741722 -1.39055 0
M  V30 900 C 85.1617 1.88621 -1.39496 0
M  V30 901 C 86.1777 1.71557 -0.290578 0
M  V30 902 O 87.3537 1.94275 -0.530954 0
M  V30 903 C 84.4187 3.24134 -1.23037 0
M  V30 904 C 83.4797 3.5364 -2.43387 0
M  V30 905 C 82.7127 4.82687 -2.27703 0
M  V30 906 O 82.9357 5.55922 -1.27696 0
M  V30 907 O 81.8697 5.1194 -3.16545 0
M  V30 908 H 85.6957 1.91203 -2.35956 0
M  V30 909 H 83.2807 0.888625 -1.20099 0
M  V30 910 H 85.1627 4.0513 -1.15964 0
M  V30 911 H 83.8377 3.22337 -0.296691 0
M  V30 912 H 82.7447 2.72758 -2.56035 0
M  V30 913 H 84.0777 3.60209 -3.35425 0
M  V30 914 N 85.7298 1.2412 0.971189 0
M  V30 915 C 86.9548 1.10667 1.75407 0
M  V30 916 C 87.3798 -0.337048 1.85056 0
M  V30 917 O 86.7378 -1.24396 1.31892 0
M  V30 918 C 86.7858 1.74726 3.15441 0
M  V30 919 O 85.8898 1.01566 3.99697 0
M  V30 920 H 85.2308 0.387341 0.539317 0
M  V30 921 H 87.7608 1.64358 1.2185 0
M  V30 922 H 87.7708 1.80341 3.6598 0
M  V30 923 H 86.4458 2.79773 3.07734 0
M  V30 924 H 85.0228 1.03713 3.58187 0
M  V30 925 N 87.2079 -1.17134 1.05439 0
M  V30 926 C 88.1559 -2.23289 0.651511 0
M  V30 927 C 89.1499 -1.66186 -0.328411 0
M  V30 928 O 90.3559 -1.78949 -0.194206 0
M  V30 929 H 86.7309 -0.726938 0.192523 0
M  V30 930 H 88.7019 -2.54565 1.55689 0
M  V30 931 C 87.4509 -3.47671 0.0448436 0
M  V30 932 H 86.7739 -3.91918 0.78996 0
M  V30 933 H 88.2139 -4.2353 -0.19964 0
M  V30 934 C 86.6729 -3.14453 -1.20918 0
M  V30 935 O 87.2029 -3.29459 -2.29825 0
M  V30 936 N 85.4089 -2.68657 -1.10779 0
M  V30 937 H 84.9559 -2.56646 -0.221526 0
M  V30 938 H 84.9139 -2.46804 -1.9477 0
M  V30 939 N 88.686 -0.835752 -1.33615 0
M  V30 940 C 89.911 -0.442389 -2.02627 0
M  V30 941 C 90.336 0.947735 -1.62479 0
M  V30 942 O 89.694 1.61907 -0.815826 0
M  V30 943 C 89.742 -0.567216 -3.56111 0
M  V30 944 O 88.846 0.407799 -4.10379 0
M  V30 945 H 88.187 -0.180278 -0.639059 0
M  V30 946 H 90.717 -1.12972 -1.70583 0
M  V30 947 H 90.727 -0.447708 -4.05536 0
M  V30 948 H 89.402 -1.58103 -3.84677 0
M  V30 949 H 87.979 0.246107 -3.72087 0
M  V30 950 N 90.1641 1.46063 -0.591896 0
M  V30 951 C 91.5801 1.57561 -0.254288 0
M  V30 952 C 91.7801 1.58565 1.24336 0
M  V30 953 O 90.8361 1.50753 2.02558 0
M  V30 954 C 92.1491 2.86549 -0.911611 0
M  V30 955 C 93.6971 3.00197 -0.886059 0
M  V30 956 C 94.1721 4.31933 -1.5231 0
M  V30 957 N 95.6631 4.38654 -1.48786 0
M  V30 958 C 96.3981 5.39222 -1.95006 0
M  V30 959 N 95.8941 6.46414 -2.49241 0
M  V30 960 N 97.6871 5.3048 -1.85868 0
M  V30 961 H 89.8381 1.43655 -1.56451 0
M  V30 962 H 92.1011 0.68583 -0.654478 0
M  V30 963 H 91.8071 2.91651 -1.96551 0
M  V30 964 H 91.6811 3.74794 -0.425368 0
M  V30 965 H 94.0681 2.9467 0.159246 0
M  V30 966 H 94.1491 2.13403 -1.41041 0
M  V30 967 H 93.7931 4.38217 -2.56765 0
M  V30 968 H 93.7231 5.17516 -0.973891 0
M  V30 969 H 96.2141 3.61793 -1.09151 0
M  V30 970 H 96.5271 7.19376 -2.82344 0
M  V30 971 H 94.8721 6.47208 -2.53272 0
M  V30 972 H 98.0631 4.45643 -1.43248 0
M  V30 973 H 98.2361 6.08711 -2.22204 0
M  V30 974 N 91.6422 0.330177 1.54103 0
M  V30 975 C 92.8912 -0.271336 1.99867 0
M  V30 976 C 93.2042 -1.52723 1.22209 0
M  V30 977 O 94.4102 -2.20515 1.58383 0
M  V30 978 C 92.8662 -0.534032 3.55916 0
M  V30 979 C 92.4742 0.705193 4.42415 0
M  V30 980 C 94.2182 -1.09514 4.1013 0
M  V30 981 C 92.1252 0.414035 5.89949 0
M  V30 982 H 91.0552 -0.105166 0.74663 0
M  V30 983 H 93.7062 0.443429 1.78062 0
M  V30 984 H 92.0882 -1.30915 3.73734 0
M  V30 985 H 93.2622 1.4804 4.36372 0
M  V30 986 H 91.5772 1.18698 3.99124 0
M  V30 987 H 94.1742 -1.3277 5.17954 0
M  V30 988 H 94.5172 -2.04656 3.62521 0
M  V30 989 H 95.0502 -0.381038 3.95971 0
M  V30 990 H 91.7892 1.33481 6.41766 0
M  V30 991 H 91.3092 -0.323336 5.98928 0
M  V30 992 H 92.9882 0.0263105 6.46995 0
M  V30 993 N 93.1203 -1.57491 0.0584922 0
M  V30 994 C 94.3453 -1.97711 -0.62652 0
M  V30 995 C 94.7703 -0.936132 -1.63151 0
M  V30 996 O 94.1283 0.099811 -1.81025 0
M  V30 997 C 94.1763 -3.36989 -1.28338 0
M  V30 998 O 93.2803 -3.35433 -2.39913 0
M  V30 999 H 92.6213 -0.643868 -0.162266 0
M  V30 1000 H 95.1513 -2.04193 0.129064 0
M  V30 1001 H 95.1613 -3.73879 -1.63335 0
M  V30 1002 H 93.8363 -4.12289 -0.546889 0
M  V30 1003 H 92.4133 -3.10298 -2.06809 0
M  V30 1004 N 94.5984 0.214957 -1.56127 0
M  V30 1005 C 95.8444 0.935325 -1.80619 0
M  V30 1006 C 96.1994 1.81706 -0.632507 0
M  V30 1007 O 95.4924 1.87931 0.373182 0
M  V30 1008 C 95.6864 1.80314 -3.0858 0
M  V30 1009 C 95.5154 1.00691 -4.38282 0
M  V30 1010 C 94.2854 0.699211 -5.00439 0
M  V30 1011 C 96.4834 0.369057 -5.12974 0
M  V30 1012 N 94.4654 -0.117734 -6.13787 0
M  V30 1013 C 95.8364 -0.310981 -6.1922 0
M  V30 1014 C 97.8914 0.282759 -4.97096 0
M  V30 1015 C 96.5944 -1.06907 -7.11311 0
M  V30 1016 C 98.6204 -0.461881 -5.89594 0
M  V30 1017 C 97.9824 -1.13044 -6.9527 0
M  V30 1018 H 94.0814 0.322307 -0.71249 0
M  V30 1019 H 96.6654 0.205649 -1.93611 0
M  V30 1020 H 94.8364 2.50458 -2.96859 0
M  V30 1021 H 96.5684 2.46148 -3.21237 0
M  V30 1022 H 93.3234 1.01884 -4.62511 0
M  V30 1023 H 93.7474 -0.515235 -6.75037 0
M  V30 1024 H 98.3894 0.785292 -4.15443 0
M  V30 1025 H 96.1074 -1.5831 -7.92442 0
M  V30 1026 H 99.6934 -0.529746 -5.79383 0
M  V30 1027 H 98.5734 -1.69742 -7.65609 0
M  V30 1028 N 96.0765 1.50051 0.48192 0
M  V30 1029 C 97.3255 1.59741 1.23149 0
M  V30 1030 C 97.6385 0.298163 1.93314 0
M  V30 1031 O 98.8445 0.273835 2.70116 0
M  V30 1032 C 97.3005 2.81926 2.23708 0
M  V30 1033 C 96.9085 4.18685 1.59396 0
M  V30 1034 C 98.6525 3.00956 2.99375 0
M  V30 1035 C 96.5595 5.3207 2.58178 0
M  V30 1036 H 95.4895 0.594838 0.46334 0
M  V30 1037 H 98.1405 1.76467 0.503169 0
M  V30 1038 H 96.5225 2.58736 2.99786 0
M  V30 1039 H 97.6965 4.52088 0.891811 0
M  V30 1040 H 96.0115 4.05171 0.960503 0
M  V30 1041 H 98.6085 3.82836 3.73283 0
M  V30 1042 H 98.9515 2.12258 3.58123 0
M  V30 1043 H 99.4845 3.24277 2.30411 0
M  V30 1044 H 96.2235 6.22888 2.04184 0
M  V30 1045 H 95.7435 5.03098 3.26577 0
M  V30 1046 H 97.4225 5.62196 3.20225 0
M  V30 1047 N 97.5546 -0.734337 1.39446 0
M  V30 1048 C 98.8036 -1.48937 1.36017 0
M  V30 1049 C 99.1166 -1.95557 -0.0409005 0
M  V30 1050 O 100.323 -2.70779 -0.19778 0
M  V30 1051 C 98.7786 -2.69125 2.38955 0
M  V30 1052 C 98.3866 -2.29452 3.8478 0
M  V30 1053 C 100.131 -3.46944 2.44603 0
M  V30 1054 C 98.0376 -3.46366 4.79358 0
M  V30 1055 H 96.9676 -0.559296 0.505672 0
M  V30 1056 H 99.6186 -0.800983 1.65095 0
M  V30 1057 H 98.0006 -3.40041 2.02948 0
M  V30 1058 H 99.1746 -1.66077 4.29831 0
M  V30 1059 H 97.4896 -1.64723 3.82433 0
M  V30 1060 H 100.087 -4.33907 3.12456 0
M  V30 1061 H 100.43 -3.89454 1.47076 0
M  V30 1062 H 100.963 -2.83056 2.79507 0
M  V30 1063 H 97.7016 -3.08905 5.78151 0
M  V30 1064 H 97.2216 -4.08719 4.38986 0
M  V30 1065 H 98.9006 -4.12691 4.98292 0
M  V30 1066 N 99.0327 -1.24633 -0.964593 0
M  V30 1067 C 100.258 -1.11596 -1.74818 0
M  V30 1068 C 100.683 0.32723 -1.85232 0
M  V30 1069 O 100.041 1.23695 -1.32549 0
M  V30 1070 C 100.089 -1.76397 -3.1451 0
M  V30 1071 O 99.1927 -1.03685 -3.99153 0
M  V30 1072 H 98.5337 -0.390196 -0.537255 0
M  V30 1073 H 101.064 -1.65002 -1.20977 0
M  V30 1074 H 101.074 -1.8228 -3.65018 0
M  V30 1075 H 99.7487 -2.81401 -3.06246 0
M  V30 1076 H 98.3257 -1.05611 -3.57632 0
M  V30 1077 N 100.511 1.16574 -1.06058 0
M  V30 1078 C 101.76 1.86385 -0.770944 0
M  V30 1079 C 102.073 1.82448 0.705129 0
M  V30 1080 O 103.279 2.47815 1.10905 0
M  V30 1081 C 101.735 3.34466 -1.32893 0
M  V30 1082 C 101.343 3.46883 -2.83507 0
M  V30 1083 C 103.087 4.09548 -1.11672 0
M  V30 1084 C 100.994 4.89036 -3.32562 0
M  V30 1085 H 99.9238 0.698181 -0.284709 0
M  V30 1086 H 102.575 1.31583 -1.27899 0
M  V30 1087 H 100.957 3.88859 -0.748662 0
M  V30 1088 H 102.131 3.02663 -3.47465 0
M  V30 1089 H 100.446 2.85232 -3.03368 0
M  V30 1090 H 103.043 5.14434 -1.45814 0
M  V30 1091 H 103.386 4.16264 -0.0549535 0
M  V30 1092 H 103.919 3.61387 -1.66265 0
M  V30 1093 H 100.658 4.87499 -4.38207 0
M  V30 1094 H 100.178 5.3389 -2.73351 0
M  V30 1095 H 101.857 5.57843 -3.2775 0
M  V30 1096 N 101.989 0.842826 1.3317 0
M  V30 1097 C 103.229 0.446574 1.99462 0
M  V30 1098 C 103.593 -0.976818 1.65295 0
M  V30 1099 O 104.794 -1.477 2.24584 0
M  V30 1100 C 103.065 0.665353 3.51152 0
M  V30 1101 S 104.624 0.364911 4.3728 0
M  V30 1102 H 101.442 0.167803 0.690915 0
M  V30 1103 H 104.044 1.09297 1.62094 0
M  V30 1104 H 102.748 1.7006 3.73507 0
M  V30 1105 H 102.279 0.00494568 3.934 0
M  V30 1106 H 104.294 -0.813761 4.89482 0
M  V30 1107 N 103.467 -1.45747 0.599634 0
M  V30 1108 C 104.713 -2.02592 0.0918643 0
M  V30 1109 C 105.046 -1.46806 -1.27128 0
M  V30 1110 O 104.321 -0.639658 -1.83681 0
M  V30 1111 C 104.604 -3.60073 0.0443398 0
M  V30 1112 C 104.457 -4.26208 1.43759 0
M  V30 1113 C 105.776 -4.35309 -0.647608 0
M  V30 1114 H 102.895 -0.736175 0.034857 0
M  V30 1115 H 105.537 -1.73694 0.770081 0
M  V30 1116 H 103.687 -3.84823 -0.533224 0
M  V30 1117 H 105.359 -4.12668 2.06162 0
M  V30 1118 H 103.602 -3.84916 2.00056 0
M  V30 1119 H 104.273 -5.35069 1.35665 0
M  V30 1120 H 106.749 -4.15805 -0.156776 0
M  V30 1121 H 105.625 -5.45038 -0.649942 0
M  V30 1122 H 105.886 -4.07598 -1.71219 0
M  V30 1123 N 104.945 -0.338344 -1.53925 0
M  V30 1124 C 106.192 0.259758 -2.00827 0
M  V30 1125 C 106.52 1.50973 -1.22628 0
M  V30 1126 O 105.775 1.93379 -0.300509 0
M  V30 1127 C 106.074 0.62448 -3.51902 0
M  V30 1128 C 105.74 -0.528006 -4.47798 0
M  V30 1129 C 104.402 -0.844298 -4.73735 0
M  V30 1130 C 106.754 -1.30143 -5.0469 0
M  V30 1131 C 104.082 -1.93648 -5.53821 0
M  V30 1132 C 106.434 -2.38382 -5.85967 0
M  V30 1133 C 105.098 -2.70576 -6.10201 0
M  V30 1134 H 104.368 0.0950523 -0.734878 0
M  V30 1135 H 107.015 -0.465182 -1.85764 0
M  V30 1136 H 105.32 1.43006 -3.64769 0
M  V30 1137 H 107.017 1.09905 -3.85645 0
M  V30 1138 H 103.607 -0.271421 -4.2774 0
M  V30 1139 H 107.791 -1.07033 -4.84621 0
M  V30 1140 H 103.047 -2.19021 -5.70824 0
M  V30 1141 H 107.221 -2.98746 -6.29066 0
M  V30 1142 H 104.848 -3.55333 -6.72044 0
M  V30 1143 N 106.423 1.57458 -0.0668435 0
M  V30 1144 C 107.669 1.93587 0.6043 0
M  V30 1145 C 108.002 0.946722 1.69561 0
M  V30 1146 O 107.277 -0.0248516 1.94484 0
M  V30 1147 C 107.56 3.40014 1.18585 0
M  V30 1148 C 107.413 4.49685 0.101529 0
M  V30 1149 C 108.732 3.87154 2.09284 0
M  V30 1150 H 105.851 0.703958 0.218202 0
M  V30 1151 H 108.493 1.89542 -0.131804 0
M  V30 1152 H 106.643 3.43592 1.81319 0
M  V30 1153 H 108.315 4.5823 -0.531279 0
M  V30 1154 H 106.558 4.30059 -0.568487 0
M  V30 1155 H 107.229 5.49266 0.54874 0
M  V30 1156 H 109.705 3.85551 1.56491 0
M  V30 1157 H 108.581 4.90231 2.46911 0
M  V30 1158 H 108.842 3.2481 2.99918 0
M  V30 1159 N 107.901 -0.206675 1.56239 0
M  V30 1160 C 108.831 -1.25909 1.96645 0
M  V30 1161 C 109.812 -1.48097 0.836734 0
M  V30 1162 O 110.997 -1.6003 1.10019 0
M  V30 1163 C 108.127 -2.6058 2.29599 0
M  V30 1164 C 107.081 -2.53024 3.452 0
M  V30 1165 C 106.407 -3.91861 3.63798 0
M  V30 1166 C 107.707 -2.06524 4.79734 0
M  V30 1167 H 109.401 -0.923369 2.84806 0
M  V30 1168 H 106.947 -0.442735 1.37025 0
M  V30 1169 H 108.9 -3.34375 2.56459 0
M  V30 1170 H 107.624 -2.95869 1.38307 0
M  V30 1171 H 106.283 -1.81684 3.18412 0
M  V30 1172 H 105.931 -4.24483 2.69857 0
M  V30 1173 H 105.631 -3.87683 4.4156 0
M  V30 1174 H 107.155 -4.67296 3.93022 0
M  V30 1175 H 108.569 -2.70072 5.05702 0
M  V30 1176 H 106.966 -2.13374 5.60885 0
M  V30 1177 H 108.036 -1.01802 4.74093 0
M  V30 1178 N 109.379 -1.50304 -0.473955 0
M  V30 1179 C 110.607 -1.64902 -1.24959 0
M  V30 1180 C 111.022 -0.331198 -1.85872 0
M  V30 1181 O 110.379 0.68652 -1.69095 0
M  V30 1182 C 110.43 -2.73803 -2.36038 0
M  V30 1183 O 110.151 -4.00477 -1.77624 0
M  V30 1184 C 111.652 -2.99349 -3.26964 0
M  V30 1185 H 108.872 -0.554383 -0.378022 0
M  V30 1186 H 111.416 -1.9651 -0.566054 0
M  V30 1187 H 109.571 -2.44898 -3.00173 0
M  V30 1188 H 109.985 -4.60678 -2.5075 0
M  V30 1189 H 111.459 -3.79217 -4.01121 0
M  V30 1190 H 111.936 -2.10307 -3.85574 0
M  V30 1191 H 112.542 -3.29774 -2.68569 0
M  V30 1192 N 110.857 0.726932 -1.39834 0
M  V30 1193 C 112.104 1.48664 -1.37496 0
M  V30 1194 C 112.432 1.94482 0.0264678 0
M  V30 1195 O 111.687 1.67692 1.00886 0
M  V30 1196 C 111.986 2.73495 -2.30077 0
M  V30 1197 C 111.652 2.46502 -3.77555 0
M  V30 1198 C 110.314 2.3885 -4.17737 0
M  V30 1199 C 112.666 2.23604 -4.70798 0
M  V30 1200 C 109.994 2.06352 -5.49214 0
M  V30 1201 C 112.346 1.92622 -6.02561 0
M  V30 1202 C 111.01 1.83444 -6.41798 0
M  V30 1203 H 110.28 0.544001 -0.503135 0
M  V30 1204 H 112.927 0.833657 -1.72402 0
M  V30 1205 H 111.232 3.43575 -1.88317 0
M  V30 1206 H 112.929 3.31549 -2.25558 0
M  V30 1207 H 109.519 2.5334 -3.45712 0
M  V30 1208 H 113.703 2.28479 -4.40581 0
M  V30 1209 H 108.959 1.97776 -5.78528 0
M  V30 1210 H 113.133 1.73914 -6.74334 0
M  V30 1211 H 110.76 1.58029 -7.43593 0
M  V30 1212 N 112.336 1.25143 0.95797 0
M  V30 1213 C 113.561 1.12521 1.74223 0
M  V30 1214 C 113.986 -0.317402 1.85403 0
M  V30 1215 O 113.344 -1.2299 1.33204 0
M  V30 1216 C 113.392 1.78062 3.1357 0
M  V30 1217 O 112.496 1.058 3.98598 0
M  V30 1218 H 111.837 0.39304 0.535178 0
M  V30 1219 H 114.367 1.65641 1.201 0
M  V30 1220 H 114.377 1.84213 3.64046 0
M  V30 1221 H 113.052 2.83021 3.04749 0
M  V30 1222 H 111.629 1.07506 3.57067 0
M  V30 1223 N 113.814 -1.1601 1.06675 0
M  V30 1224 C 114.777 -2.18724 0.685001 0
M  V30 1225 C 115.777 -1.58496 -0.271246 0
M  V30 1226 O 116.967 -1.74119 -0.0531156 0
M  V30 1227 C 114.099 -3.40899 0.00853648 0
M  V30 1228 H 115.292 -2.54011 1.59431 0
M  V30 1229 H 112.845 -1.30352 0.862441 0
M  V30 1230 H 113.58 -3.11173 -0.913337 0
M  V30 1231 H 113.365 -3.8587 0.696204 0
M  V30 1232 H 114.855 -4.16886 -0.24414 0
M  V30 1233 N 115.292 -0.849877 -1.32721 0
M  V30 1234 C 116.703 -0.506188 -1.79707 0
M  V30 1235 C 117.054 0.975627 -1.70223 0
M  V30 1236 O 116.179 1.76078 -1.25799 0
M  V30 1237 C 116.774 -0.912044 -3.26293 0
M  V30 1238 C 115.333 -0.620326 -3.71253 0
M  V30 1239 C 114.48 -1.11439 -2.53922 0
M  V30 1240 H 117.431 -1.03754 -1.20087 0
M  V30 1241 H 117.452 -0.226493 -3.79825 0
M  V30 1242 H 116.964 -1.99057 -3.33164 0
M  V30 1243 H 115.065 0.447674 -3.69901 0
M  V30 1244 H 115.178 -1.18327 -4.64258 0
M  V30 1245 H 113.542 -0.534834 -2.49021 0
M  V30 1246 H 114.325 -2.19992 -2.6355 0
M  V30 1247 N 116.77 1.45427 -0.607355 0
M  V30 1248 C 117.7 2.3329 0.0989352 0
M  V30 1249 C 118.681 1.46816 0.859007 0
M  V30 1250 O 119.866 1.75588 0.829604 0
M  V30 1251 C 116.996 3.29518 1.09705 0
M  V30 1252 C 115.95 4.25626 0.450206 0
M  V30 1253 C 115.276 5.11542 1.55655 0
M  V30 1254 C 116.576 5.18505 -0.628455 0
M  V30 1255 H 118.27 2.92595 -0.634716 0
M  V30 1256 H 115.816 1.40696 -0.306681 0
M  V30 1257 H 117.769 3.89855 1.59971 0
M  V30 1258 H 116.493 2.68372 1.86129 0
M  V30 1259 H 115.152 3.66586 -0.0315886 0
M  V30 1260 H 114.8 4.46765 2.31107 0
M  V30 1261 H 114.5 5.76647 1.12925 0
M  V30 1262 H 116.024 5.74748 2.06148 0
M  V30 1263 H 117.438 5.72916 -0.209877 0
M  V30 1264 H 115.835 5.92085 -0.977489 0
M  V30 1265 H 116.905 4.60948 -1.50514 0
M  V30 1266 N 118.248 0.346503 1.53744 0
M  V30 1267 C 119.211 -0.496439 2.23759 0
M  V30 1268 C 120.211 -1.0252 1.2388 0
M  V30 1269 O 121.401 -0.913974 1.48297 0
M  V30 1270 C 118.533 -1.69187 2.95954 0
M  V30 1271 H 119.726 0.115952 2.99676 0
M  V30 1272 H 117.279 0.0978939 1.55993 0
M  V30 1273 H 118.014 -2.34288 2.24231 0
M  V30 1274 H 117.799 -1.31989 3.69217 0
M  V30 1275 H 119.289 -2.28969 3.49232 0
M  V30 1276 N 119.726 -1.57421 0.075193 0
M  V30 1277 C 120.954 -1.97946 -0.602076 0
M  V30 1278 C 121.369 -0.953674 -1.62943 0
M  V30 1279 O 120.726 0.0592551 -1.82404 0
M  V30 1280 C 120.777 -3.38546 -1.26762 0
M  V30 1281 O 120.498 -4.37195 -0.281376 0
M  V30 1282 C 121.999 -3.93966 -2.03239 0
M  V30 1283 H 119.219 -0.650918 -0.162931 0
M  V30 1284 H 121.763 -2.03959 0.148601 0
M  V30 1285 H 119.918 -3.33609 -1.96936 0
M  V30 1286 H 120.332 -5.18975 -0.759267 0
M  V30 1287 H 121.806 -4.94555 -2.45193 0
M  V30 1288 H 122.283 -3.30693 -2.8903 0
M  V30 1289 H 122.889 -4.02315 -1.37924 0
M  V30 1290 N 121.204 0.198386 -1.56346 0
M  V30 1291 C 122.45 0.920648 -1.80698 0
M  V30 1292 C 122.783 1.83045 -0.648697 0
M  V30 1293 O 122.058 1.91308 0.350925 0
M  V30 1294 C 122.341 1.73971 -3.15287 0
M  V30 1295 C 122.194 0.85485 -4.41602 0
M  V30 1296 C 123.513 2.71296 -3.46535 0
M  V30 1297 H 120.632 0.333261 -0.657348 0
M  V30 1298 H 123.274 0.188198 -1.89066 0
M  V30 1299 H 121.424 2.36416 -3.08285 0
M  V30 1300 H 123.096 0.245362 -4.60647 0
M  V30 1301 H 121.339 0.161398 -4.335 0
M  V30 1302 H 122.01 1.46286 -5.32264 0
M  V30 1303 H 124.486 2.18983 -3.53816 0
M  V30 1304 H 123.362 3.2569 -4.41834 0
M  V30 1305 H 123.623 3.5018 -2.69864 0
M  V30 1306 N 122.682 1.50554 0.465978 0
M  V30 1307 C 123.612 1.72722 1.57128 0
M  V30 1308 C 124.593 0.576294 1.6004 0
M  V30 1309 O 125.778 0.81598 1.76225 0
M  V30 1310 C 122.908 1.82605 2.95419 0
M  V30 1311 C 121.862 2.97835 3.07373 0
M  V30 1312 C 121.188 2.92867 4.47363 0
M  V30 1313 C 122.488 4.38265 2.84114 0
M  V30 1314 H 124.182 2.65267 1.38829 0
M  V30 1315 H 121.728 1.2765 0.666441 0
M  V30 1316 H 123.681 1.96698 3.72677 0
M  V30 1317 H 122.405 0.866858 3.14886 0
M  V30 1318 H 121.064 2.83401 2.3255 0
M  V30 1319 H 120.712 1.94783 4.63755 0
M  V30 1320 H 120.412 3.70227 4.56296 0
M  V30 1321 H 121.936 3.09015 5.26633 0
M  V30 1322 H 123.35 4.53198 3.51118 0
M  V30 1323 H 121.747 5.17115 3.04487 0
M  V30 1324 H 122.817 4.50281 1.7993 0
M  V30 1325 N 124.16 -0.719506 1.40217 0
M  V30 1326 C 125.385 -1.51371 1.4178 0
M  V30 1327 C 125.81 -1.88091 0.0182355 0
M  V30 1328 O 125.168 -1.52997 -0.972707 0
M  V30 1329 C 125.216 -2.768 2.31115 0
M  V30 1330 O 124.32 -3.73349 1.7517 0
M  V30 1331 H 123.661 -0.456529 0.482159 0
M  V30 1332 H 126.191 -0.88644 1.844 0
M  V30 1333 H 126.201 -3.25371 2.46167 0
M  V30 1334 H 124.876 -2.49407 3.3282 0
M  V30 1335 H 123.453 -3.32179 1.69444 0
M  V30 1336 N 125.638 -1.25649 -0.95132 0
M  V30 1337 C 126.586 -1.06118 -2.06982 0
M  V30 1338 C 127.58 0.00889169 -1.69398 0
M  V30 1339 O 128.786 -0.146988 -1.79399 0
M  V30 1340 H 125.161 -0.326248 -0.677544 0
M  V30 1341 H 127.132 -2.00932 -2.2061 0
M  V30 1342 C 125.881 -0.700145 -3.40578 0
M  V30 1343 H 125.204 -1.51537 -3.69968 0
M  V30 1344 H 126.644 -0.603211 -4.19687 0
M  V30 1345 C 125.103 0.59403 -3.31622 0
M  V30 1346 O 125.633 1.63522 -3.66911 0
M  V30 1347 N 123.839 0.58089 -2.84735 0
M  V30 1348 H 123.386 -0.266783 -2.56215 0
M  V30 1349 H 123.344 1.44695 -2.79125 0
M  V30 1350 N 127.117 1.15442 -1.07289 0
M  V30 1351 C 128.533 1.38201 -0.798288 0
M  V30 1352 C 128.733 1.92429 0.597769 0
M  V30 1353 O 127.789 2.12962 1.3566 0
M  V30 1354 C 129.102 2.35357 -1.87156 0
M  V30 1355 C 130.65 2.49021 -1.89624 0
M  V30 1356 C 131.125 3.49468 -2.96034 0
M  V30 1357 N 132.616 3.57003 -2.95132 0
M  V30 1358 C 133.351 4.34543 -3.74112 0
M  V30 1359 N 132.847 5.15421 -4.6294 0
M  V30 1360 N 134.64 4.29625 -3.62462 0
M  V30 1361 H 126.791 0.78584 -1.97328 0
M  V30 1362 H 129.054 0.408065 -0.855679 0
M  V30 1363 H 128.76 2.02626 -2.87464 0
M  V30 1364 H 128.634 3.35129 -1.73114 0
M  V30 1365 H 131.021 2.81051 -0.899687 0
M  V30 1366 H 131.102 1.4925 -2.07745 0
M  V30 1367 H 130.746 3.18173 -3.95889 0
M  V30 1368 H 130.676 4.48992 -2.75161 0
M  V30 1369 H 133.167 2.99276 -2.30743 0
M  V30 1370 H 133.48 5.7183 -5.19837 0
M  V30 1371 H 131.825 5.14729 -4.66989 0
M  V30 1372 H 135.016 3.65505 -2.92444 0
M  V30 1373 H 135.189 4.89807 -4.24256 0
M  V30 1374 N 128.595 0.856903 1.32268 0
M  V30 1375 C 129.842 0.461386 1.97174 0
M  V30 1376 C 130.17 -0.983491 1.67803 0
M  V30 1377 O 129.425 -1.70541 0.959903 0
M  V30 1378 C 129.724 0.649919 3.51441 0
M  V30 1379 C 129.39 2.0656 4.00804 0
M  V30 1380 C 128.052 2.45279 4.13995 0
M  V30 1381 C 130.404 2.98947 4.26943 0
M  V30 1382 C 127.732 3.75653 4.50668 0
M  V30 1383 C 130.084 4.28822 4.65075 0
M  V30 1384 C 128.748 4.67472 4.76472 0
M  V30 1385 H 128.018 0.168833 0.72151 0
M  V30 1386 H 130.665 1.08739 1.57633 0
M  V30 1387 H 128.97 -0.0593018 3.91755 0
M  V30 1388 H 130.667 0.32391 3.9969 0
M  V30 1389 H 127.257 1.75495 3.91024 0
M  V30 1390 H 131.441 2.70265 4.16258 0
M  V30 1391 H 126.697 4.05379 4.57688 0
M  V30 1392 H 130.871 5.0047 4.84255 0
M  V30 1393 H 128.498 5.68539 5.04646 0
M  V30 1394 N 130.073 -1.45103 0.615059 0
M  V30 1395 C 131.321 -2.01784 0.112955 0
M  V30 1396 C 131.642 -1.48504 -1.26378 0
M  V30 1397 O 130.912 -0.682245 -1.83636 0
M  V30 1398 H 129.492 -0.745993 0.0387668 0
M  V30 1399 H 132.154 -1.77808 0.798141 0
M  V30 1400 H 131.25 -3.12025 0.0684069 0
M  V30 1401 N 131.551 -0.354651 -1.53558 0
M  V30 1402 C 132.501 0.513179 -2.2215 0
M  V30 1403 C 133.485 1.05734 -1.21281 0
M  V30 1404 O 134.677 0.989202 -1.46778 0
M  V30 1405 C 131.806 1.65798 -3.00609 0
M  V30 1406 C 130.892 1.12722 -4.08845 0
M  V30 1407 N 131.283 0.318563 -5.04796 0
M  V30 1408 C 129.581 1.40307 -4.23356 0
M  V30 1409 C 130.282 0.0292224 -5.81693 0
M  V30 1410 N 129.258 0.623891 -5.40008 0
M  V30 1411 H 133.06 -0.111586 -2.93688 0
M  V30 1412 H 130.574 -0.162091 -1.61589 0
M  V30 1413 H 132.571 2.29176 -3.48258 0
M  V30 1414 H 131.231 2.28591 -2.306 0
M  V30 1415 H 132.242 -0.0413091 -5.17884 0
M  V30 1416 H 128.919 2.03458 -3.6457 0
M  V30 1417 H 130.309 -0.623808 -6.68998 0
M  V30 1418 N 133.029 1.57378 -0.0835403 0
M  V30 1419 C 134.445 1.57246 0.273109 0
M  V30 1420 C 134.645 1.09385 1.69225 0
M  V30 1421 O 133.701 0.765051 2.40631 0
M  V30 1422 C 135.014 3.00614 0.0720628 0
M  V30 1423 C 136.562 3.12684 0.1407 0
M  V30 1424 C 137.037 4.57989 -0.0322094 0
M  V30 1425 N 138.528 4.63194 0.0230085 0
M  V30 1426 C 139.263 5.73335 -0.0861941 0
M  V30 1427 N 138.759 6.9235 -0.24958 0
M  V30 1428 N 140.552 5.62093 -0.0282886 0
M  V30 1429 H 132.703 1.86801 -1.0109 0
M  V30 1430 H 134.966 0.861687 -0.395222 0
M  V30 1431 H 134.672 3.39786 -0.907662 0
M  V30 1432 H 134.546 3.68193 0.81936 0
M  V30 1433 H 136.933 2.73391 1.11092 0
M  V30 1434 H 137.014 2.47719 -0.637896 0
M  V30 1435 H 136.658 4.97973 -0.999247 0
M  V30 1436 H 136.588 5.21 0.765937 0
M  V30 1437 H 139.079 3.77613 0.14722 0
M  V30 1438 H 139.392 7.72117 -0.324733 0
M  V30 1439 H 137.737 6.94415 -0.285097 0
M  V30 1440 H 140.928 4.67997 0.0981408 0
M  V30 1441 H 141.101 6.47895 -0.116845 0
M  V30 1442 N 134.507 -0.190092 1.56449 0
M  V30 1443 C 135.437 -1.23816 1.97969 0
M  V30 1444 C 136.418 -1.47201 0.852395 0
M  V30 1445 O 137.603 -1.58854 1.1171 0
M  V30 1446 C 134.733 -2.5813 2.3235 0
M  V30 1447 C 133.687 -2.49348 3.47864 0
M  V30 1448 C 133.013 -3.8798 3.67934 0
M  V30 1449 C 134.313 -2.01424 4.81898 0
M  V30 1450 H 136.007 -0.89311 2.85769 0
M  V30 1451 H 133.553 -0.428177 1.37487 0
M  V30 1452 H 135.506 -3.31637 2.59991 0
M  V30 1453 H 134.23 -2.94386 1.41438 0
M  V30 1454 H 132.889 -1.78297 3.20321 0
M  V30 1455 H 132.537 -4.21597 2.74344 0
M  V30 1456 H 132.237 -3.82978 4.45648 0
M  V30 1457 H 133.761 -4.63101 3.97957 0
M  V30 1458 H 135.175 -2.64693 5.08538 0
M  V30 1459 H 133.572 -2.07413 5.63116 0
M  V30 1460 H 134.642 -0.967677 4.75146 0
M  V30 1461 N 135.985 -1.50799 -0.457987 0
M  V30 1462 C 137.231 -1.62683 -1.21088 0
M  V30 1463 C 137.564 -0.332268 -1.91336 0
M  V30 1464 O 136.839 0.667043 -1.82704 0
M  V30 1465 C 137.122 -2.81615 -2.24422 0
M  V30 1466 C 136.975 -4.20989 -1.58392 0
M  V30 1467 C 138.294 -2.96085 -3.2561 0
M  V30 1468 H 135.413 -0.592087 -0.438864 0
M  V30 1469 H 138.055 -1.83225 -0.50286 0
M  V30 1470 H 136.205 -2.64231 -2.84806 0
M  V30 1471 H 137.877 -4.49994 -1.01504 0
M  V30 1472 H 136.12 -4.24641 -0.886704 0
M  V30 1473 H 136.791 -5.0016 -2.33547 0
M  V30 1474 H 139.267 -3.12042 -2.75262 0
M  V30 1475 H 138.143 -3.80902 -3.95228 0
M  V30 1476 H 138.404 -2.0726 -3.90507 0
M  V30 1477 N 137.463 0.71206 -1.40597 0
M  V30 1478 C 138.709 1.47416 -1.39271 0
M  V30 1479 C 139.042 1.942 0.00388791 0
M  V30 1480 O 138.317 1.68403 0.973179 0
M  V30 1481 C 138.6 2.69774 -2.38525 0
M  V30 1482 C 138.453 2.28861 -3.87224 0
M  V30 1483 C 139.772 3.71939 -2.35264 0
M  V30 1484 H 136.891 0.534713 -0.5072 0
M  V30 1485 H 139.533 0.812375 -1.71757 0
M  V30 1486 H 137.683 3.26238 -2.10953 0
M  V30 1487 H 139.355 1.77852 -4.25636 0
M  V30 1488 H 137.598 1.60824 -4.02887 0
M  V30 1489 H 138.269 3.16584 -4.52193 0
M  V30 1490 H 140.745 3.25113 -2.59694 0
M  V30 1491 H 139.621 4.55186 -3.06753 0
M  V30 1492 H 139.882 4.20484 -1.36549 0
M  V30 1493 N 138.941 1.26152 0.944643 0
M  V30 1494 C 139.874 1.01729 2.04271 0
M  V30 1495 C 140.852 -0.0568101 1.62501 0
M  V30 1496 O 142.036 0.0848987 1.88309 0
M  V30 1497 C 139.163 0.539792 3.34371 0
M  V30 1498 C 138.209 1.60593 3.9511 0
M  V30 1499 S 139.042 3.19392 4.29825 0
M  V30 1500 C 140.198 2.73402 5.63029 0
M  V30 1501 H 140.431 1.94703 2.24673 0
M  V30 1502 H 137.964 1.09793 1.08558 0
M  V30 1503 H 139.922 0.270956 4.09605 0
M  V30 1504 H 138.583 -0.369609 3.11918 0
M  V30 1505 H 137.776 1.22275 4.88943 0
M  V30 1506 H 137.378 1.82596 3.26397 0
M  V30 1507 H 139.67 2.1765 6.41588 0
M  V30 1508 H 140.613 3.65913 6.06229 0
M  V30 1509 H 141.021 2.13077 5.22741 0
M  V30 1510 N 140.419 -1.14872 1.07899 0
M  V30 1511 C 141.349 -2.2193 0.725887 0
M  V30 1512 C 142.33 -1.67622 -0.28927 0
M  V30 1513 O 143.515 -1.93533 -0.160787 0
M  V30 1514 C 140.645 -3.47061 0.128856 0
M  V30 1515 C 139.599 -4.14363 1.07178 0
M  V30 1516 C 138.925 -5.33636 0.337229 0
M  V30 1517 C 140.225 -4.63492 2.40775 0
M  V30 1518 H 141.919 -2.51724 1.62097 0
M  V30 1519 H 139.465 -1.20991 0.780838 0
M  V30 1520 H 141.418 -4.21199 -0.130147 0
M  V30 1521 H 140.142 -3.16617 -0.80134 0
M  V30 1522 H 138.801 -3.42173 1.3158 0
M  V30 1523 H 138.449 -4.99449 -0.596606 0
M  V30 1524 H 138.149 -5.79609 0.965788 0
M  V30 1525 H 139.673 -6.10539 0.0861567 0
M  V30 1526 H 141.087 -5.2913 2.20669 0
M  V30 1527 H 139.484 -5.20148 2.99276 0
M  V30 1528 H 140.554 -3.78834 3.02676 0
M  V30 1529 N 141.898 -0.863906 -1.31812 0
M  V30 1530 C 143.146 -0.470904 -1.96537 0
M  V30 1531 C 143.467 0.978771 -1.68657 0
M  V30 1532 O 142.737 1.6853 -0.998717 0
M  V30 1533 H 141.317 -0.171148 -0.72713 0
M  V30 1534 H 143.979 -1.10236 -1.60729 0
M  V30 1535 H 143.075 -0.623616 -3.05806 0
M  V30 1536 N 143.376 1.44774 -0.622745 0
M  V30 1537 C 144.624 2.01721 -0.123655 0
M  V30 1538 C 144.945 1.49172 1.25589 0
M  V30 1539 O 144.215 0.691974 1.83272 0
M  V30 1540 H 142.795 0.745777 -0.0427225 0
M  V30 1541 H 145.457 1.77382 -0.807559 0
M  V30 1542 H 144.553 3.11984 -0.0849534 0
M  V30 1543 N 144.854 0.36279 1.53368 0
M  V30 1544 C 145.784 -0.476976 2.28576 0
M  V30 1545 C 146.765 -1.08631 1.30894 0
M  V30 1546 O 147.95 -1.10409 1.59761 0
M  V30 1547 C 145.08 -1.61828 3.07293 0
M  V30 1548 C 144.034 -1.13633 4.1264 0
M  V30 1549 C 143.36 -2.36766 4.79423 0
M  V30 1550 C 144.66 -0.223061 5.21823 0
M  V30 1551 H 146.354 0.150474 2.99022 0
M  V30 1552 H 143.9 0.0738103 1.43811 0
M  V30 1553 H 145.853 -2.21237 3.58653 0
M  V30 1554 H 144.577 -2.27292 2.34533 0
M  V30 1555 H 143.236 -0.564945 3.62221 0
M  V30 1556 H 142.884 -3.0068 4.03238 0
M  V30 1557 H 142.584 -2.05192 5.50609 0
M  V30 1558 H 144.108 -2.96865 5.33576 0
M  V30 1559 H 145.522 -0.724545 5.68703 0
M  V30 1560 H 143.919 0.001678 6.001 0
M  V30 1561 H 144.989 0.735553 4.79289 0
M  V30 1562 N 146.332 -1.57332 0.0918853 0
M  V30 1563 C 147.262 -2.16872 -0.865371 0
M  V30 1564 C 148.243 -1.10118 -1.29646 0
M  V30 1565 O 149.428 -1.38242 -1.36392 0
M  V30 1566 C 146.558 -2.74649 -2.12569 0
M  V30 1567 C 145.512 -3.86747 -1.83333 0
M  V30 1568 C 144.838 -4.31212 -3.16166 0
M  V30 1569 C 146.138 -5.10089 -1.1228 0
M  V30 1570 H 147.832 -2.97114 -0.369307 0
M  V30 1571 H 145.378 -1.42918 -0.176194 0
M  V30 1572 H 147.331 -3.14952 -2.7997 0
M  V30 1573 H 146.055 -1.91657 -2.64452 0
M  V30 1574 H 144.714 -3.46978 -1.18331 0
M  V30 1575 H 144.362 -3.45115 -3.6593 0
M  V30 1576 H 144.062 -5.06788 -2.97388 0
M  V30 1577 H 145.586 -4.74146 -3.84731 0
M  V30 1578 H 147 -5.47582 -1.69785 0
M  V30 1579 H 145.397 -5.91073 -1.03693 0
M  V30 1580 H 146.467 -4.84786 -0.105041 0
M  V30 1581 N 147.81 0.181792 -1.56548 0
M  V30 1582 C 149.056 0.901431 -1.81665 0
M  V30 1583 C 149.389 1.82347 -0.668075 0
M  V30 1584 O 148.664 1.91669 0.330615 0
M  V30 1585 C 148.947 1.70618 -3.17115 0
M  V30 1586 C 148.8 0.807964 -4.42484 0
M  V30 1587 C 150.119 2.67605 -3.49393 0
M  V30 1588 H 147.238 0.32627 -0.660846 0
M  V30 1589 H 149.88 0.168134 -1.89255 0
M  V30 1590 H 148.03 2.33133 -3.10775 0
M  V30 1591 H 149.702 0.19649 -4.60881 0
M  V30 1592 H 147.945 0.115411 -4.33646 0
M  V30 1593 H 148.616 1.40632 -5.33785 0
M  V30 1594 H 151.092 2.15218 -3.56118 0
M  V30 1595 H 149.968 3.20985 -4.45264 0
M  V30 1596 H 150.229 3.47298 -2.73563 0
M  V30 1597 N 149.288 1.51039 0.449983 0
M  V30 1598 C 150.513 1.6715 1.22783 0
M  V30 1599 C 150.938 0.363081 1.84563 0
M  V30 1600 O 150.296 -0.675433 1.68249 0
M  V30 1601 C 150.344 2.77985 2.29689 0
M  V30 1602 O 149.448 2.40707 3.34864 0
M  V30 1603 H 148.789 0.557746 0.360299 0
M  V30 1604 H 151.319 1.97535 0.533005 0
M  V30 1605 H 151.329 3.01693 2.74673 0
M  V30 1606 H 150.004 3.72935 1.84098 0
M  V30 1607 H 148.581 2.27523 2.95445 0
M  V30 1608 N 150.766 -0.704594 1.40972 0
M  V30 1609 C 151.994 -1.49354 1.43182 0
M  V30 1610 C 152.409 -1.88768 0.0345508 0
M  V30 1611 O 151.766 -1.56184 -0.944081 0
M  V30 1612 C 151.817 -2.76187 2.33244 0
M  V30 1613 O 151.538 -2.38436 3.67532 0
M  V30 1614 C 153.039 -3.7 2.44162 0
M  V30 1615 H 150.259 -0.460559 0.487982 0
M  V30 1616 H 152.803 -0.868261 1.85153 0
M  V30 1617 H 150.958 -3.34974 1.94606 0
M  V30 1618 H 151.372 -3.20126 4.15475 0
M  V30 1619 H 152.846 -4.55803 3.11364 0
M  V30 1620 H 153.323 -4.13867 1.47006 0
M  V30 1621 H 153.929 -3.17121 2.83398 0
M  V30 1622 N 152.244 -1.26651 -0.937939 0
M  V30 1623 C 153.492 -1.12165 -1.68118 0
M  V30 1624 C 153.813 0.334983 -1.92101 0
M  V30 1625 O 153.083 1.23583 -1.52 0
M  V30 1626 H 151.663 -0.412093 -0.623048 0
M  V30 1627 H 154.325 -1.59027 -1.12678 0
M  V30 1628 H 153.421 -1.64289 -2.6536 0
M  V30 1629 N 153.722 1.14298 -1.08507 0
M  V30 1630 C 154.655 2.18447 -0.660004 0
M  V30 1631 C 155.633 1.59242 0.328749 0
M  V30 1632 O 156.817 1.87062 0.232367 0
M  V30 1633 C 153.944 3.38688 0.0290807 0
M  V30 1634 C 152.99 4.1646 -0.919982 0
M  V30 1635 S 153.823 4.77334 -2.42718 0
M  V30 1636 C 154.979 6.00931 -1.75024 0
M  V30 1637 H 155.212 2.54166 -1.54231 0
M  V30 1638 H 152.745 1.25446 -0.900149 0
M  V30 1639 H 154.703 4.08342 0.420378 0
M  V30 1640 H 153.364 3.01289 0.887895 0
M  V30 1641 H 152.557 5.02529 -0.384751 0
M  V30 1642 H 152.159 3.52414 -1.25223 0
M  V30 1643 H 154.451 6.69017 -1.06877 0
M  V30 1644 H 155.394 6.59044 -2.58971 0
M  V30 1645 H 155.802 5.51089 -1.22317 0
M  V30 1646 N 155.201 0.870884 1.31352 0
M  V30 1647 C 156.447 0.482987 1.96965 0
M  V30 1648 C 156.78 -0.962462 1.68672 0
M  V30 1649 O 156.055 -1.6779 0.98371 0
M  V30 1650 C 156.338 0.741752 3.52378 0
M  V30 1651 C 156.191 2.2368 3.9024 0
M  V30 1652 C 157.51 0.208838 4.39604 0
M  V30 1653 H 154.629 0.176955 0.715441 0
M  V30 1654 H 157.271 1.09229 1.55464 0
M  V30 1655 H 155.421 0.223149 3.87859 0
M  V30 1656 H 157.093 2.82273 3.64856 0
M  V30 1657 H 155.336 2.70901 3.38814 0
M  V30 1658 H 156.007 2.3685 4.98604 0
M  V30 1659 H 158.483 0.652529 4.10952 0
M  V30 1660 H 157.359 0.419336 5.47296 0
M  V30 1661 H 157.62 -0.889275 4.33064 0
M  V30 1662 N 156.679 -1.44442 0.630414 0
M  V30 1663 C 157.642 -2.29107 -0.0652523 0
M  V30 1664 C 158.642 -1.41002 -0.772995 0
M  V30 1665 O 159.832 -1.62881 -0.617692 0
M  V30 1666 C 156.964 -3.22564 -1.10296 0
M  V30 1667 H 158.157 -2.92103 0.679401 0
M  V30 1668 H 155.71 -1.51343 0.390517 0
M  V30 1669 H 156.445 -2.64416 -1.87762 0
M  V30 1670 H 156.23 -3.87491 -0.59941 0
M  V30 1671 H 157.72 -3.86167 -1.5895 0
M  V30 1672 N 158.157 -0.370918 -1.53173 0
M  V30 1673 C 159.12 0.460778 -2.24521 0
M  V30 1674 C 160.12 1.00536 -1.25496 0
M  V30 1675 O 161.31 0.890266 -1.49733 0
M  V30 1676 C 158.442 1.64457 -2.98608 0
M  V30 1677 H 159.635 -0.163613 -2.99453 0
M  V30 1678 H 157.188 -0.122699 -1.55818 0
M  V30 1679 H 157.923 2.30691 -2.2793 0
M  V30 1680 H 157.708 1.26099 -3.7127 0
M  V30 1681 H 159.198 2.23384 -3.5283 0
M  V30 1682 N 159.635 1.57281 -0.100228 0
M  V30 1683 C 160.86 1.99302 0.573881 0
M  V30 1684 C 161.285 0.979059 1.60611 0
M  V30 1685 O 160.643 -0.0517803 1.81226 0
M  V30 1686 C 160.691 3.40274 1.19358 0
M  V30 1687 O 159.795 3.41676 2.30935 0
M  V30 1688 H 159.136 0.647944 0.145138 0
M  V30 1689 H 161.666 2.03779 -0.183156 0
M  V30 1690 H 161.676 3.78078 1.53365 0
M  V30 1691 H 160.351 4.13594 0.437385 0
M  V30 1692 H 158.928 3.15672 1.98509 0
M  V30 1693 N 161.113 -0.173488 1.56642 0
M  V30 1694 C 162.36 -0.890465 1.81871 0
M  V30 1695 C 162.688 -1.82339 0.67696 0
M  V30 1696 O 161.943 -1.92795 -0.335926 0
M  V30 1697 C 162.242 -1.72069 3.13252 0
M  V30 1698 C 161.908 -0.936878 4.41059 0
M  V30 1699 C 160.57 -0.720545 4.75775 0
M  V30 1700 C 162.922 -0.386919 5.19762 0
M  V30 1701 C 160.25 0.0568829 5.86672 0
M  V30 1702 C 162.602 0.37741 6.31473 0
M  V30 1703 C 161.266 0.604563 6.64757 0
M  V30 1704 H 160.536 -0.325844 0.665512 0
M  V30 1705 H 163.183 -0.155527 1.90867 0
M  V30 1706 H 161.488 -2.52496 2.99588 0
M  V30 1707 H 163.185 -2.27844 3.29982 0
M  V30 1708 H 159.775 -1.11553 4.13828 0
M  V30 1709 H 163.959 -0.541398 4.93338 0
M  V30 1710 H 159.215 0.242635 6.10918 0
M  V30 1711 H 163.389 0.810825 6.91664 0
M  V30 1712 H 161.016 1.20885 7.50527 0
M  V30 1713 N 162.591 -1.51276 -0.441967 0
M  V30 1714 C 163.816 -1.67799 -1.21895 0
M  V30 1715 C 164.241 -0.372864 -1.84367 0
M  V30 1716 O 163.599 0.666501 -1.68604 0
M  V30 1717 C 163.647 -2.79199 -2.28211 0
M  V30 1718 O 162.751 -2.42479 -3.33583 0
M  V30 1719 H 162.092 -0.559649 -0.357336 0
M  V30 1720 H 164.622 -1.97815 -0.522522 0
M  V30 1721 H 164.632 -3.03146 -2.73069 0
M  V30 1722 H 163.307 -3.73906 -1.82118 0
M  V30 1723 H 161.884 -2.29087 -2.94234 0
M  V30 1724 N 164.069 0.697108 -1.41344 0
M  V30 1725 C 165.001 1.8224 -1.39001 0
M  V30 1726 C 166.014 1.60152 -0.292428 0
M  V30 1727 O 167.203 1.69684 -0.554048 0
M  V30 1728 C 164.303 3.18976 -1.14489 0
M  V30 1729 C 163.476 3.68105 -2.36258 0
M  V30 1730 C 162.535 4.83506 -2.07625 0
M  V30 1731 O 161.561 4.95201 -2.8065 0
M  V30 1732 N 162.763 5.70637 -1.06555 0
M  V30 1733 H 165.528 1.84742 -2.35988 0
M  V30 1734 H 163.089 0.87937 -1.35936 0
M  V30 1735 H 165.081 3.93801 -0.932885 0
M  V30 1736 H 163.651 3.11508 -0.261043 0
M  V30 1737 H 162.871 2.84204 -2.7317 0
M  V30 1738 H 164.159 3.97667 -3.17393 0
M  V30 1739 H 163.557 5.63817 -0.461125 0
M  V30 1740 H 162.114 6.45368 -0.913444 0
M  V30 1741 N 165.547 1.27147 0.931209 0
M  V30 1742 C 166.457 1.11372 2.06478 0
M  V30 1743 C 167.473 0.044645 1.73943 0
M  V30 1744 O 168.649 0.250417 1.99837 0
M  V30 1745 C 165.714 0.758838 3.38294 0
M  V30 1746 C 164.775 1.90841 3.84549 0
M  V30 1747 C 164.008 1.57036 5.10074 0
M  V30 1748 O 164.231 0.476645 5.68405 0
M  V30 1749 O 163.165 2.40839 5.51616 0
M  V30 1750 H 166.991 2.06493 2.22698 0
M  V30 1751 H 164.576 1.06301 1.04978 0
M  V30 1752 H 166.458 0.574098 4.17471 0
M  V30 1753 H 165.133 -0.162879 3.2329 0
M  V30 1754 H 164.04 2.14819 3.06274 0
M  V30 1755 H 165.373 2.81021 4.04089 0
M  V30 1756 N 167.025 -1.13721 1.09112 0
M  V30 1757 C 168.271 -1.85198 0.826414 0
M  V30 1758 C 168.604 -1.83129 -0.646319 0
M  V30 1759 O 167.879 -1.2671 -1.47563 0
M  V30 1760 C 168.162 -3.33507 1.35812 0
M  V30 1761 C 168.015 -3.44108 2.89672 0
M  V30 1762 C 169.334 -4.28838 0.989256 0
M  V30 1763 H 166.453 -0.67243 0.301675 0
M  V30 1764 H 169.095 -1.33499 1.35197 0
M  V30 1765 H 167.245 -3.77666 0.911082 0
M  V30 1766 H 168.917 -3.08684 3.428 0
M  V30 1767 H 167.16 -2.85087 3.26967 0
M  V30 1768 H 167.831 -4.48388 3.21951 0
M  V30 1769 H 170.307 -3.92734 1.37475 0
M  V30 1770 H 169.183 -5.31051 1.38838 0
M  V30 1771 H 169.444 -4.4198 -0.102924 0
M  V30 1772 N 168.503 -0.877838 -1.30888 0
M  V30 1773 C 169.728 -0.506629 -2.01117 0
M  V30 1774 C 170.153 0.895564 -1.65412 0
M  V30 1775 O 169.511 1.5923 -0.866922 0
M  V30 1776 C 169.559 -0.680223 -3.54126 0
M  V30 1777 O 168.663 0.277033 -4.11468 0
M  V30 1778 H 168.004 -0.200518 -0.633 0
M  V30 1779 H 170.534 -1.18342 -1.66902 0
M  V30 1780 H 170.544 -0.5765 -4.03907 0
M  V30 1781 H 169.219 -1.70261 -3.79452 0
M  V30 1782 H 167.796 0.127606 -3.72682 0
M  V30 1783 N 169.982 1.44106 -0.638065 0
M  V30 1784 C 170.932 2.27843 0.0847285 0
M  V30 1785 C 171.916 1.39055 0.809471 0
M  V30 1786 O 173.108 1.62808 0.694435 0
M  V30 1787 C 170.237 3.26497 1.06089 0
M  V30 1788 C 169.323 4.22772 0.33541 0
M  V30 1789 N 169.714 5.01737 -0.639787 0
M  V30 1790 C 168.012 4.42227 0.578921 0
M  V30 1791 C 168.713 5.71792 -1.06904 0
M  V30 1792 N 167.689 5.42079 -0.406395 0
M  V30 1793 H 171.491 2.86305 -0.663814 0
M  V30 1794 H 169.005 1.55627 -0.464122 0
M  V30 1795 H 171.002 3.8525 1.59337 0
M  V30 1796 H 169.662 2.69595 1.80966 0
M  V30 1797 H 170.673 5.07799 -1.01789 0
M  V30 1798 H 167.35 3.96415 1.31003 0
M  V30 1799 H 168.74 6.45205 -1.8751 0
M  V30 1800 N 171.46 0.379036 1.52974 0
M  V30 1801 C 172.393 -0.504932 2.22544 0
M  V30 1802 C 173.371 -1.0723 1.22231 0
M  V30 1803 O 174.555 -1.12589 1.51182 0
M  V30 1804 C 171.682 -1.69794 2.93066 0
M  V30 1805 C 170.728 -1.25678 4.07563 0
M  V30 1806 S 171.561 -0.246852 5.34931 0
M  V30 1807 C 172.717 -1.44588 6.08971 0
M  V30 1808 H 172.95 0.0858666 2.97176 0
M  V30 1809 H 170.483 0.163183 1.53535 0
M  V30 1810 H 172.441 -2.38219 3.34308 0
M  V30 1811 H 171.102 -2.26002 2.18133 0
M  V30 1812 H 170.295 -2.14725 4.5597 0
M  V30 1813 H 169.897 -0.651584 3.6828 0
M  V30 1814 H 172.189 -2.37469 6.34519 0
M  V30 1815 H 173.132 -1.00292 7.00962 0
M  V30 1816 H 173.54 -1.65804 5.39601 0
M  V30 1817 N 172.938 -1.57226 0.108567 0
M  V30 1818 C 174.168 -1.9889 -0.559142 0
M  V30 1819 C 174.576 -0.986889 -1.61422 0
M  V30 1820 O 173.919 0.0298705 -1.83676 0
M  V30 1821 C 173.981 -3.36952 -1.25315 0
M  V30 1822 C 173.645 -4.55679 -0.347248 0
M  V30 1823 C 174.642 -5.18281 0.409996 0
M  V30 1824 C 172.327 -5.0162 -0.261367 0
M  V30 1825 C 174.321 -6.25203 1.24096 0
M  V30 1826 C 172.008 -6.08405 0.573238 0
M  V30 1827 C 173.006 -6.70063 1.32304 0
M  V30 1828 O 172.694 -7.74788 2.14381 0
M  V30 1829 H 172.426 -0.658343 -0.153492 0
M  V30 1830 H 174.98 -2.04532 0.188584 0
M  V30 1831 H 173.21 -3.28032 -2.04773 0
M  V30 1832 H 174.899 -3.62974 -1.81673 0
M  V30 1833 H 175.665 -4.8371 0.353457 0
M  V30 1834 H 171.544 -4.53381 -0.834656 0
M  V30 1835 H 175.088 -6.73259 1.82669 0
M  V30 1836 H 170.985 -6.42406 0.631208 0
M  V30 1837 H 171.753 -7.91837 2.07209 0
M  V30 1838 N 174.416 0.165178 -1.56732 0
M  V30 1839 C 175.662 0.882112 -1.82611 0
M  V30 1840 C 175.995 1.81628 -0.687378 0
M  V30 1841 O 175.27 1.92009 0.310267 0
M  V30 1842 C 175.553 1.67245 -3.18906 0
M  V30 1843 C 175.406 0.760987 -4.43316 0
M  V30 1844 C 176.725 2.63884 -3.52212 0
M  V30 1845 H 173.844 0.319242 -0.664269 0
M  V30 1846 H 176.486 0.148052 -1.89422 0
M  V30 1847 H 174.636 2.29824 -3.1323 0
M  V30 1848 H 176.308 0.147596 -4.61064 0
M  V30 1849 H 174.551 0.0694102 -4.33744 0
M  V30 1850 H 175.222 1.34962 -5.35247 0
M  V30 1851 H 177.698 2.11429 -3.58381 0
M  V30 1852 H 176.574 3.16245 -4.48643 0
M  V30 1853 H 176.835 3.44377 -2.77231 0
M  V30 1854 N 175.894 1.51508 0.433938 0
M  V30 1855 C 176.857 1.72473 1.50949 0
M  V30 1856 C 177.857 0.594725 1.49398 0
M  V30 1857 O 179.047 0.862315 1.5136 0
M  V30 1858 C 176.179 1.78431 2.90474 0
M  V30 1859 H 177.372 2.68467 1.33662 0
M  V30 1860 H 174.925 1.41549 0.662836 0
M  V30 1861 H 175.66 0.842645 3.13161 0
M  V30 1862 H 175.445 2.60558 2.93005 0
M  V30 1863 H 176.935 1.96479 3.68491 0
M  V30 1864 N 177.372 -0.689602 1.41712 0
M  V30 1865 C 178.621 -1.44534 1.40686 0
M  V30 1866 C 178.934 -1.95588 0.0213352 0
M  V30 1867 O 180.14 -2.71271 -0.111534 0
M  V30 1868 C 178.596 -2.61387 2.47396 0
M  V30 1869 C 178.204 -2.17094 3.91885 0
M  V30 1870 C 179.948 -3.38986 2.55517 0
M  V30 1871 C 177.855 -3.3094 4.90135 0
M  V30 1872 H 176.785 -0.542925 0.52321 0
M  V30 1873 H 179.436 -0.748054 1.6756 0
M  V30 1874 H 177.818 -3.33412 2.13664 0
M  V30 1875 H 178.992 -1.52318 4.34897 0
M  V30 1876 H 177.307 -1.52473 3.8748 0
M  V30 1877 H 179.904 -4.23747 3.26102 0
M  V30 1878 H 180.247 -3.84578 1.59391 0
M  V30 1879 H 180.78 -2.74021 2.8837 0
M  V30 1880 H 177.519 -2.90355 5.87685 0
M  V30 1881 H 177.039 -3.94546 4.51767 0
M  V30 1882 H 178.718 -3.9663 5.11169 0
M  V30 1883 N 178.85 -1.27639 -0.924453 0
M  V30 1884 C 180.098 -1.13941 -1.66918 0
M  V30 1885 C 180.419 0.314589 -1.92446 0
M  V30 1886 O 179.689 1.21964 -1.53303 0
M  V30 1887 H 178.269 -0.418678 -0.618642 0
M  V30 1888 H 180.931 -1.60213 -1.10985 0
M  V30 1889 H 180.027 -1.67094 -2.63602 0
M  V30 1890 N 180.328 1.1314 -1.09713 0
M  V30 1891 C 181.577 1.83838 -0.829851 0
M  V30 1892 C 181.89 1.84599 0.646728 0
M  V30 1893 O 183.096 2.51218 1.02965 0
M  V30 1894 C 181.552 3.30069 -1.43466 0
M  V30 1895 C 181.16 3.37688 -2.94399 0
M  V30 1896 C 182.904 4.05788 -1.24645 0
M  V30 1897 C 180.811 4.78209 -3.47952 0
M  V30 1898 H 179.741 0.68877 -0.306777 0
M  V30 1899 H 182.392 1.27448 -1.3202 0
M  V30 1900 H 180.774 3.8628 -0.871996 0
M  V30 1901 H 181.948 2.91456 -3.56918 0
M  V30 1902 H 180.263 2.75436 -3.12289 0
M  V30 1903 H 182.86 5.09535 -1.62107 0
M  V30 1904 H 183.203 4.15878 -0.187357 0
M  V30 1905 H 183.736 3.55915 -1.77678 0
M  V30 1906 H 180.475 4.73311 -4.53495 0
M  V30 1907 H 179.995 5.24924 -2.90198 0
M  V30 1908 H 181.674 5.47133 -3.45332 0
M  V30 1909 N 181.806 0.884767 1.30421 0
M  V30 1910 C 183.055 0.499164 1.95426 0
M  V30 1911 C 183.368 -0.95645 1.70621 0
M  V30 1912 O 184.574 -1.44889 2.29607 0
M  V30 1913 C 183.03 0.84177 3.49917 0
M  V30 1914 C 182.638 2.31514 3.83543 0
M  V30 1915 C 184.382 0.525355 4.21237 0
M  V30 1916 C 182.289 2.59939 5.31212 0
M  V30 1917 H 181.219 0.182944 0.73147 0
M  V30 1918 H 183.87 1.07971 1.48373 0
M  V30 1919 H 182.252 0.190311 3.95542 0
M  V30 1920 H 183.426 3.0109 3.48829 0
M  V30 1921 H 181.741 2.59907 3.25326 0
M  V30 1922 H 184.338 0.714762 5.29901 0
M  V30 1923 H 184.681 -0.535222 4.12845 0
M  V30 1924 H 185.214 1.134 3.81294 0
M  V30 1925 H 181.953 3.64736 5.44654 0
M  V30 1926 H 181.473 1.94972 5.67227 0
M  V30 1927 H 183.152 2.45429 5.98643 0
M  V30 1928 N 183.284 -1.43765 0.645699 0
M  V30 1929 C 184.509 -2.06767 0.161883 0
M  V30 1930 C 184.934 -1.48034 -1.16049 0
M  V30 1931 O 184.292 -0.587369 -1.71522 0
M  V30 1932 C 184.34 -3.60519 0.0762003 0
M  V30 1933 O 183.444 -4.00982 -0.963721 0
M  V30 1934 H 182.785 -0.657675 0.091429 0
M  V30 1935 H 185.315 -1.84397 0.886499 0
M  V30 1936 H 185.325 -4.07853 -0.109604 0
M  V30 1937 H 184 -4.02646 1.04157 0
M  V30 1938 H 182.577 -3.65253 -0.751312 0
M  V30 1939 N 184.763 -0.387143 -1.52771 0
M  V30 1940 C 186.011 0.195349 -2.01154 0
M  V30 1941 C 186.332 1.475 -1.27549 0
M  V30 1942 O 185.602 1.91878 -0.394924 0
M  V30 1943 H 184.182 0.075178 -0.743207 0
M  V30 1944 H 186.844 -0.518337 -1.87881 0
M  V30 1945 H 185.94 0.407096 -3.09434 0
M  V30 1946 N 186.241 1.57166 -0.116904 0
M  V30 1947 C 187.171 2.18222 0.830759 0
M  V30 1948 C 188.152 1.12167 1.27877 0
M  V30 1949 O 189.337 1.40394 1.34176 0
M  V30 1950 C 186.467 2.77996 2.08172 0
M  V30 1951 C 185.421 3.89614 1.77157 0
M  V30 1952 C 184.747 4.36187 3.09265 0
M  V30 1953 C 186.047 5.1181 1.04151 0
M  V30 1954 H 187.741 2.97664 0.321992 0
M  V30 1955 H 185.287 1.4318 0.153434 0
M  V30 1956 H 187.24 3.19366 2.74924 0
M  V30 1957 H 185.964 1.9584 2.6137 0
M  V30 1958 H 184.623 3.48816 1.12796 0
M  V30 1959 H 184.271 3.50893 3.60393 0
M  V30 1960 H 183.971 5.11455 2.89288 0
M  V30 1961 H 185.495 4.80207 3.77139 0
M  V30 1962 H 186.909 5.50214 1.61052 0
M  V30 1963 H 185.306 5.92648 0.942762 0
M  V30 1964 H 186.376 4.84892 0.0279022 0
M  V30 1965 N 187.719 -0.156864 1.56817 0
M  V30 1966 C 188.967 -0.869404 1.82444 0
M  V30 1967 C 189.288 -1.82147 0.69623 0
M  V30 1968 O 188.558 -1.93847 -0.28287 0
M  V30 1969 H 187.138 -0.324043 0.673056 0
M  V30 1970 H 189.8 -0.153224 1.94297 0
M  V30 1971 H 188.896 -1.43761 2.77019 0
M  V30 1972 N 189.197 -1.51736 -0.425897 0
M  V30 1973 C 190.427 -1.68549 -1.19476 0
M  V30 1974 C 190.835 -0.387288 -1.85194 0
M  V30 1975 O 190.178 0.645142 -1.71999 0
M  V30 1976 C 190.24 -2.75275 -2.31223 0
M  V30 1977 C 189.904 -4.17534 -1.8578 0
M  V30 1978 C 190.901 -5.01936 -1.35485 0
M  V30 1979 C 188.586 -4.6369 -1.93123 0
M  V30 1980 C 190.58 -6.30559 -0.931347 0
M  V30 1981 C 188.267 -5.92307 -1.50384 0
M  V30 1982 C 189.265 -6.75569 -1.00473 0
M  V30 1983 O 188.953 -8.0178 -0.583452 0
M  V30 1984 H 188.685 -0.568525 -0.365725 0
M  V30 1985 H 191.239 -1.98982 -0.509444 0
M  V30 1986 H 189.469 -2.40182 -3.03067 0
M  V30 1987 H 191.158 -2.80853 -2.93047 0
M  V30 1988 H 191.924 -4.67475 -1.29197 0
M  V30 1989 H 187.803 -3.98997 -2.30916 0
M  V30 1990 H 191.347 -6.95498 -0.541084 0
M  V30 1991 H 187.244 -6.2628 -1.56346 0
M  V30 1992 H 188.012 -8.1543 -0.708275 0
M  V30 1993 N 190.675 0.682077 -1.42076 0
M  V30 1994 C 191.915 1.45424 -1.43636 0
M  V30 1995 C 192.279 1.91939 -0.0484001 0
M  V30 1996 O 193.48 2.6873 0.0612514 0
M  V30 1997 C 191.751 2.62427 -2.42625 0
M  V30 1998 S 193.31 3.51379 -2.62827 0
M  V30 1999 H 190.128 0.496779 -0.508657 0
M  V30 2000 H 192.73 0.794645 -1.78621 0
M  V30 2001 H 191.434 2.26481 -3.42249 0
M  V30 2002 H 190.965 3.33266 -2.09039 0
M  V30 2003 H 192.98 4.58141 -1.9058 0
M  V30 2004 N 192.153 1.28127 0.917671 0
M  V30 2005 C 193.4 1.15052 1.66641 0
M  V30 2006 C 193.728 -0.301677 1.92146 0
M  V30 2007 O 192.983 -1.23622 1.51711 0
M  V30 2008 C 193.282 1.89018 3.03327 0
M  V30 2009 C 192.948 3.38832 2.97496 0
M  V30 2010 C 191.61 3.79693 2.95613 0
M  V30 2011 C 193.962 4.34378 2.88036 0
M  V30 2012 C 191.29 5.14447 2.82066 0
M  V30 2013 C 193.642 5.69201 2.7603 0
M  V30 2014 C 192.306 6.09343 2.72502 0
M  V30 2015 H 191.576 0.421006 0.609783 0
M  V30 2016 H 194.223 1.58855 1.06945 0
M  V30 2017 H 192.528 1.37752 3.66785 0
M  V30 2018 H 194.225 1.76321 3.60156 0
M  V30 2019 H 190.815 3.06342 2.99754 0
M  V30 2020 H 194.999 4.03775 2.88581 0
M  V30 2021 H 190.255 5.44681 2.77728 0
M  V30 2022 H 194.429 6.42901 2.67678 0
M  V30 2023 H 192.056 7.13712 2.61762 0
M  V30 2024 N 193.631 -1.12557 1.10312 0
M  V30 2025 C 194.856 -1.88405 0.867085 0
M  V30 2026 C 195.281 -1.79038 -0.576817 0
M  V30 2027 O 194.639 -1.14439 -1.40618 0
M  V30 2028 C 194.687 -3.3563 1.31851 0
M  V30 2029 O 193.791 -4.09565 0.482734 0
M  V30 2030 H 193.132 -0.585455 0.313271 0
M  V30 2031 H 195.662 -1.42352 1.4696 0
M  V30 2032 H 195.672 -3.86469 1.3079 0
M  V30 2033 H 194.347 -3.41765 2.37001 0
M  V30 2034 H 192.924 -3.68695 0.558448 0
M  V30 2035 N 195.109 -0.891671 -1.2995 0
M  V30 2036 C 196.356 -0.513501 -1.95881 0
M  V30 2037 C 196.684 0.938655 -1.70351 0
M  V30 2038 O 195.939 1.67936 -1.00478 0
M  V30 2039 C 196.238 -0.742868 -3.49594 0
M  V30 2040 C 195.904 -2.17114 -3.95186 0
M  V30 2041 C 194.566 -2.56169 -4.07346 0
M  V30 2042 C 196.918 -3.10162 -4.18866 0
M  V30 2043 C 194.246 -3.87469 -4.4055 0
M  V30 2044 C 196.598 -4.41001 -4.53542 0
M  V30 2045 C 195.262 -4.79941 -4.63911 0
M  V30 2046 H 194.532 -0.187903 -0.71678 0
M  V30 2047 H 197.179 -1.1288 -1.54694 0
M  V30 2048 H 195.484 -0.044586 -3.91775 0
M  V30 2049 H 197.181 -0.429767 -3.9869 0
M  V30 2050 H 193.771 -1.85801 -3.86233 0
M  V30 2051 H 197.955 -2.81206 -4.08946 0
M  V30 2052 H 193.211 -4.17371 -4.46779 0
M  V30 2053 H 197.385 -5.13133 -4.70815 0
M  V30 2054 H 195.012 -5.81719 -4.89395 0
M  V30 2055 N 196.587 1.43421 -0.653314 0
M  V30 2056 C 197.517 2.33487 0.0246656 0
M  V30 2057 C 198.498 1.49475 0.811863 0
M  V30 2058 O 199.683 1.78139 0.773322 0
M  V30 2059 C 196.813 3.32841 0.99166 0
M  V30 2060 C 195.767 4.26842 0.314568 0
M  V30 2061 C 195.093 5.16236 1.39302 0
M  V30 2062 C 196.393 5.16243 -0.793095 0
M  V30 2063 H 198.087 2.90427 -0.727481 0
M  V30 2064 H 195.633 1.39649 -0.351287 0
M  V30 2065 H 197.586 3.94747 1.47487 0
M  V30 2066 H 196.31 2.74158 1.77497 0
M  V30 2067 H 194.969 3.663 -0.148199 0
M  V30 2068 H 194.617 4.53891 2.16776 0
M  V30 2069 H 194.317 5.79948 0.945223 0
M  V30 2070 H 195.841 5.81015 1.87759 0
M  V30 2071 H 197.255 5.71958 -0.392039 0
M  V30 2072 H 195.652 5.88676 -1.16536 0
M  V30 2073 H 196.722 4.55927 -1.65103 0
M  V30 2074 N 198.065 0.39524 1.52563 0
M  V30 2075 C 199.476 -0.0774719 1.86539 0
M  V30 2076 C 199.827 -1.45641 1.31466 0
M  V30 2077 O 198.952 -2.06459 0.648367 0
M  V30 2078 C 199.547 -0.147356 3.38479 0
M  V30 2079 C 198.106 -0.564373 3.72145 0
M  V30 2080 C 197.253 0.269919 2.75983 0
M  V30 2081 H 200.204 0.612876 1.46388 0
M  V30 2082 H 200.225 -0.965343 3.68051 0
M  V30 2083 H 199.737 0.856387 3.78534 0
M  V30 2084 H 197.838 -1.57527 3.37663 0
M  V30 2085 H 197.951 -0.318402 4.78041 0
M  V30 2086 H 196.315 -0.265696 2.5331 0
M  V30 2087 H 197.098 1.27175 3.18875 0
M  V30 2088 N 199.544 -1.57102 0.125237 0
M  V30 2089 C 200.772 -1.99761 -0.538797 0
M  V30 2090 C 201.187 -1.00503 -1.59827 0
M  V30 2091 O 200.544 0.00119474 -1.825 0
M  V30 2092 C 200.595 -3.42408 -1.15927 0
M  V30 2093 O 200.316 -4.37869 -0.142143 0
M  V30 2094 C 201.817 -4.00232 -1.90602 0
M  V30 2095 H 199.037 -0.655772 -0.14214 0
M  V30 2096 H 201.581 -2.03383 0.213413 0
M  V30 2097 H 199.736 -3.39706 -1.86223 0
M  V30 2098 H 200.15 -5.21128 -0.593775 0
M  V30 2099 H 201.624 -5.02105 -2.29335 0
M  V30 2100 H 202.101 -3.39721 -2.78363 0
M  V30 2101 H 202.707 -4.06499 -1.25055 0
M  V30 2102 N 201.022 0.148545 -1.56898 0
M  V30 2103 C 202.268 0.862694 -1.83536 0
M  V30 2104 C 202.601 1.80889 -0.706604 0
M  V30 2105 O 201.876 1.92328 0.289885 0
M  V30 2106 C 202.159 1.63853 -3.20662 0
M  V30 2107 C 202.012 0.713925 -4.44098 0
M  V30 2108 C 203.331 2.60133 -3.54991 0
M  V30 2109 H 200.45 0.312179 -0.667618 0
M  V30 2110 H 203.092 0.127953 -1.89569 0
M  V30 2111 H 201.242 2.26489 -3.1565 0
M  V30 2112 H 202.914 0.098686 -4.61194 0
M  V30 2113 H 201.157 0.0234019 -4.33794 0
M  V30 2114 H 201.828 1.29278 -5.36648 0
M  V30 2115 H 204.304 2.07616 -3.60603 0
M  V30 2116 H 203.18 3.11468 -4.51972 0
M  V30 2117 H 203.441 3.41417 -2.80868 0
M  V30 2118 N 202.5 1.5196 0.417844 0
M  V30 2119 C 203.728 1.69426 1.18753 0
M  V30 2120 C 204.143 0.399955 1.84515 0
M  V30 2121 O 203.5 -0.623288 1.71527 0
M  V30 2122 C 203.551 2.82375 2.25714 0
M  V30 2123 O 203.272 4.06793 1.62638 0
M  V30 2124 C 204.773 3.11277 3.15628 0
M  V30 2125 H 201.993 0.568031 0.357186 0
M  V30 2126 H 204.537 1.98475 0.49273 0
M  V30 2127 H 202.692 2.5587 2.90877 0
M  V30 2128 H 203.106 4.69667 2.3348 0
M  V30 2129 H 204.58 3.93843 3.86771 0
M  V30 2130 H 205.057 2.24473 3.77503 0
M  V30 2131 H 205.663 3.39515 2.56144 0
M  V30 2132 N 203.978 -0.674533 1.42435 0
M  V30 2133 C 205.227 -1.43034 1.42212 0
M  V30 2134 C 205.54 -1.95555 0.0420788 0
M  V30 2135 O 206.746 -2.71374 -0.0827558 0
M  V30 2136 C 205.202 -2.58748 2.50155 0
M  V30 2137 C 204.81 -2.12925 3.94166 0
M  V30 2138 C 206.554 -3.36257 2.59098 0
M  V30 2139 C 204.461 -3.25723 4.93618 0
M  V30 2140 H 203.391 -0.537345 0.528939 0
M  V30 2141 H 206.042 -0.73024 1.68344 0
M  V30 2142 H 204.424 -3.31128 2.17188 0
M  V30 2143 H 205.598 -1.47697 4.36488 0
M  V30 2144 H 203.913 -1.48354 3.89076 0
M  V30 2145 H 206.51 -4.20264 3.30578 0
M  V30 2146 H 206.853 -3.82866 1.63461 0
M  V30 2147 H 207.386 -2.70947 2.9126 0
M  V30 2148 H 204.125 -2.84105 5.90732 0
M  V30 2149 H 203.645 -3.89732 4.55926 0
M  V30 2150 H 205.324 -3.91186 5.15347 0
M  V30 2151 N 205.456 -1.28612 -0.910864 0
M  V30 2152 C 206.386 -1.15326 -2.03032 0
M  V30 2153 C 207.367 -0.0502924 -1.70026 0
M  V30 2154 O 208.552 -0.227797 -1.92859 0
M  V30 2155 C 205.682 -0.817343 -3.37545 0
M  V30 2156 C 204.636 -1.8754 -3.84724 0
M  V30 2157 C 203.962 -1.39305 -5.16235 0
M  V30 2158 C 205.262 -3.28244 -4.06267 0
M  V30 2159 H 206.956 -2.08975 -2.14406 0
M  V30 2160 H 204.502 -1.00612 -1.03021 0
M  V30 2161 H 206.455 -0.711151 -4.15356 0
M  V30 2162 H 205.179 0.154846 -3.26233 0
M  V30 2163 H 203.838 -1.97079 -3.09121 0
M  V30 2164 H 203.486 -0.409846 -5.01328 0
M  V30 2165 H 203.186 -2.10057 -5.48771 0
M  V30 2166 H 204.71 -1.30014 -5.96598 0
M  V30 2167 H 206.124 -3.21611 -4.74594 0
M  V30 2168 H 204.521 -3.96855 -4.5014 0
M  V30 2169 H 205.591 -3.72048 -3.10979 0
M  V30 2170 N 206.934 1.1197 -1.10907 0
M  V30 2171 C 208.159 1.87942 -0.877064 0
M  V30 2172 C 208.584 1.79341 0.567314 0
M  V30 2173 O 207.942 1.15184 1.40009 0
M  V30 2174 C 207.99 3.34926 -1.33629 0
M  V30 2175 O 207.094 4.09303 -0.504447 0
M  V30 2176 H 206.435 0.583785 -0.316371 0
M  V30 2177 H 208.965 1.4157 -1.47712 0
M  V30 2178 H 208.975 3.8577 -1.32837 0
M  V30 2179 H 207.65 3.40504 -2.3881 0
M  V30 2180 H 206.227 3.68393 -0.577993 0
M  V30 2181 N 208.412 0.89855 1.29475 0
M  V30 2182 C 209.344 0.332726 2.26772 0
M  V30 2183 C 210.357 -0.520323 1.54261 0
M  V30 2184 O 211.546 -0.337668 1.75277 0
M  V30 2185 C 208.646 -0.544334 3.345 0
M  V30 2186 C 207.819 0.282728 4.36485 0
M  V30 2187 C 206.878 -0.526982 5.23555 0
M  V30 2188 O 205.904 0.0551165 5.69173 0
M  V30 2189 N 207.106 -1.83331 5.5079 0
M  V30 2190 H 209.871 1.16897 2.75962 0
M  V30 2191 H 207.432 0.762919 1.42798 0
M  V30 2192 H 209.424 -1.09239 3.89678 0
M  V30 2193 H 207.994 -1.28127 2.85136 0
M  V30 2194 H 207.214 1.01221 3.80983 0
M  V30 2195 H 208.502 0.84918 5.01664 0
M  V30 2196 H 207.9 -2.32898 5.15534 0
M  V30 2197 H 206.457 -2.32852 6.08788 0
M  V30 2198 N 209.89 -1.43072 0.660911 0
M  V30 2199 C 211.12 -2.05769 0.185153 0
M  V30 2200 C 211.528 -1.49668 -1.15742 0
M  V30 2201 O 210.871 -0.625649 -1.72717 0
M  V30 2202 C 210.933 -3.59489 0.0278237 0
M  V30 2203 C 210.597 -4.38212 1.2969 0
M  V30 2204 C 211.594 -4.69772 2.22734 0
M  V30 2205 C 209.279 -4.7809 1.54063 0
M  V30 2206 C 211.273 -5.40129 3.38437 0
M  V30 2207 C 208.96 -5.4819 2.70058 0
M  V30 2208 C 209.958 -5.79132 3.62071 0
M  V30 2209 O 209.646 -6.47798 4.76039 0
M  V30 2210 H 209.378 -0.669873 0.0908086 0
M  V30 2211 H 211.932 -1.84436 0.90402 0
M  V30 2212 H 210.162 -3.79426 -0.746489 0
M  V30 2213 H 211.851 -4.03862 -0.406275 0
M  V30 2214 H 212.617 -4.39476 2.05149 0
M  V30 2215 H 208.496 -4.53408 0.833215 0
M  V30 2216 H 212.04 -5.64198 4.10277 0
M  V30 2217 H 207.937 -5.77902 2.87574 0
M  V30 2218 H 208.705 -6.66283 4.75404 0
M  V30 2219 N 211.368 -0.403325 -1.52352 0
M  V30 2220 C 212.615 0.174347 -2.01748 0
M  V30 2221 C 212.943 1.45636 -1.2892 0
M  V30 2222 O 212.198 1.9193 -0.382258 0
M  V30 2223 C 212.497 0.474665 -3.54234 0
M  V30 2224 C 212.163 -0.717458 -4.45155 0
M  V30 2225 C 210.825 -1.04447 -4.69728 0
M  V30 2226 C 213.177 -1.51432 -4.98716 0
M  V30 2227 C 210.505 -2.16963 -5.45109 0
M  V30 2228 C 212.857 -2.6302 -5.75329 0
M  V30 2229 C 211.521 -2.96213 -5.98175 0
M  V30 2230 H 210.791 0.0637981 -0.738248 0
M  V30 2231 H 213.438 -0.543553 -1.83624 0
M  V30 2232 H 211.743 1.27406 -3.70506 0
M  V30 2233 H 213.44 0.934496 -3.89959 0
M  V30 2234 H 210.03 -0.452596 -4.26204 0
M  V30 2235 H 214.214 -1.27491 -4.79645 0
M  V30 2236 H 209.47 -2.43034 -5.61021 0
M  V30 2237 H 213.644 -3.25158 -6.15829 0
M  V30 2238 H 211.271 -3.83516 -6.56368 0
M  V30 2239 N 212.846 1.57033 -0.133567 0
M  V30 2240 C 214.094 1.953 0.519848 0
M  V30 2241 C 214.415 1.01866 1.66278 0
M  V30 2242 O 213.685 0.0776513 1.95746 0
M  V30 2243 H 212.265 0.721091 0.195032 0
M  V30 2244 H 214.927 1.93809 -0.205921 0
M  V30 2245 H 214.023 2.98695 0.904854 0
M  V30 2246 N 214.325 -0.140222 1.56975 0
M  V30 2247 C 215.272 -1.17292 1.98774 0
M  V30 2248 C 216.242 -1.4232 0.856408 0
M  V30 2249 O 217.427 -1.54541 1.119 0
M  V30 2250 C 214.567 -2.49973 2.37923 0
M  V30 2251 C 213.68 -2.32062 3.64378 0
M  V30 2252 C 212.815 -3.57825 3.926 0
M  V30 2253 C 211.854 -3.3498 5.12303 0
M  V30 2254 N 210.991 -4.52891 5.36502 0
M  V30 2255 H 215.831 -0.809472 2.86795 0
M  V30 2256 H 213.368 -0.388237 1.41884 0
M  V30 2257 H 215.326 -3.27346 2.58652 0
M  V30 2258 H 213.956 -2.84252 1.52972 0
M  V30 2259 H 213.008 -1.45711 3.51387 0
M  V30 2260 H 214.32 -2.11145 4.51906 0
M  V30 2261 H 213.474 -4.43624 4.13863 0
M  V30 2262 H 212.213 -3.81753 3.03506 0
M  V30 2263 H 211.218 -2.4757 4.90906 0
M  V30 2264 H 212.443 -3.12444 6.02956 0
M  V30 2265 H 210.389 -4.76979 4.50363 0
M  V30 2266 H 210.306 -4.35001 6.18312 0
M  V30 2267 H 211.574 -5.39884 5.62268 0
M  V30 2268 N 215.803 -1.52179 -0.40978 0
M  V30 2269 C 217.219 -1.40968 -0.74835 0
M  V30 2270 C 217.419 -0.513657 -1.94843 0
M  V30 2271 O 216.475 0.0208026 -2.52491 0
M  V30 2272 C 217.788 -2.83483 -1.0029 0
M  V30 2273 C 219.336 -2.92821 -1.10565 0
M  V30 2274 C 219.811 -4.36303 -1.39296 0
M  V30 2275 N 221.302 -4.39535 -1.46162 0
M  V30 2276 C 222.037 -5.47614 -1.70018 0
M  V30 2277 N 221.533 -6.65812 -1.91483 0
M  V30 2278 N 223.326 -5.35129 -1.72027 0
M  V30 2279 H 215.477 -2.0897 0.380186 0
M  V30 2280 H 217.74 -0.94185 0.107805 0
M  V30 2281 H 217.446 -3.51168 -0.193461 0
M  V30 2282 H 217.32 -3.24487 -1.92323 0
M  V30 2283 H 219.707 -2.25318 -1.90568 0
M  V30 2284 H 219.788 -2.55276 -0.16369 0
M  V30 2285 H 219.432 -5.04366 -0.598109 0
M  V30 2286 H 219.362 -4.71385 -2.34743 0
M  V30 2287 H 221.853 -3.54332 -1.31367 0
M  V30 2288 H 222.166 -7.43964 -2.09134 0
M  V30 2289 H 220.511 -6.68879 -1.88749 0
M  V30 2290 H 223.702 -4.41764 -1.54796 0
M  V30 2291 H 223.875 -6.19433 -1.9028 0
M  V30 2292 N 217.281 0.66697 -1.42791 0
M  V30 2293 C 218.697 0.981027 -1.25889 0
M  V30 2294 C 218.897 2.00793 -0.168695 0
M  V30 2295 O 217.953 2.48321 0.45747 0
M  V30 2296 C 219.266 1.47838 -2.61848 0
M  V30 2297 C 220.814 1.59575 -2.69267 0
M  V30 2298 C 221.289 2.12704 -4.05612 0
M  V30 2299 N 222.78 2.20026 -4.07606 0
M  V30 2300 C 223.515 2.62227 -5.09926 0
M  V30 2301 N 223.011 3.03824 -6.22626 0
M  V30 2302 N 224.804 2.62045 -4.97281 0
M  V30 2303 H 216.955 -0.0127891 -2.12396 0
M  V30 2304 H 219.218 0.0568258 -0.946295 0
M  V30 2305 H 218.924 0.798299 -3.4252 0
M  V30 2306 H 218.798 2.45579 -2.86305 0
M  V30 2307 H 221.185 2.26687 -1.88936 0
M  V30 2308 H 221.266 0.60302 -2.48591 0
M  V30 2309 H 220.91 1.46198 -4.86404 0
M  V30 2310 H 220.84 3.12782 -4.23645 0
M  V30 2311 H 223.331 1.90708 -3.2625 0
M  V30 2312 H 223.644 3.34734 -6.96544 0
M  V30 2313 H 221.989 3.01662 -6.26119 0
M  V30 2314 H 225.18 2.28916 -4.08308 0
M  V30 2315 H 225.353 2.94613 -5.77154 0
M  V30 2316 N 218.759 1.29093 0.90403 0
M  V30 2317 C 219.984 1.19809 1.69294 0
M  V30 2318 C 220.409 -0.238481 1.86582 0
M  V30 2319 O 219.767 -1.1723 1.383 0
M  V30 2320 C 219.815 1.91202 3.05736 0
M  V30 2321 O 218.919 1.22611 3.93752 0
M  V30 2322 H 218.26 0.415385 0.518027 0
M  V30 2323 H 220.79 1.70586 1.12967 0
M  V30 2324 H 220.8 1.99487 3.55906 0
M  V30 2325 H 219.475 2.95692 2.92471 0
M  V30 2326 H 218.052 1.22554 3.52186 0
M  V30 2327 N 220.237 -1.11381 1.11499 0
M  V30 2328 C 221.486 -1.82494 0.858993 0
M  V30 2329 C 221.799 -1.85605 -0.617278 0
M  V30 2330 O 223.005 -2.52824 -0.989552 0
M  V30 2331 C 221.461 -3.27745 1.48699 0
M  V30 2332 C 221.069 -3.32961 2.99735 0
M  V30 2333 C 222.813 -4.03754 1.31085 0
M  V30 2334 C 220.72 -4.72612 3.55516 0
M  V30 2335 H 219.65 -0.683802 0.317696 0
M  V30 2336 H 222.301 -1.25331 1.34031 0
M  V30 2337 H 220.683 -3.84844 0.933339 0
M  V30 2338 H 221.857 -2.85741 3.61509 0
M  V30 2339 H 220.172 -2.70433 3.16631 0
M  V30 2340 H 222.769 -5.06891 1.70192 0
M  V30 2341 H 223.112 -4.15527 0.253496 0
M  V30 2342 H 223.645 -3.53043 1.83318 0
M  V30 2343 H 220.384 -4.66036 4.60967 0
M  V30 2344 H 219.904 -5.2024 2.98513 0
M  V30 2345 H 221.583 -5.4157 3.53992 0
M  V30 2346 N 221.715 -0.905404 -1.28997 0
M  V30 2347 C 222.961 -0.535039 -1.95615 0
M  V30 2348 C 223.294 0.917404 -1.71165 0
M  V30 2349 O 222.569 1.65123 -1.02785 0
M  V30 2350 C 222.852 -0.834918 -3.50287 0
M  V30 2351 C 222.705 -2.33948 -3.84172 0
M  V30 2352 C 224.024 -0.325318 -4.38896 0
M  V30 2353 H 221.143 -0.195861 -0.710498 0
M  V30 2354 H 223.785 -1.13313 -1.52513 0
M  V30 2355 H 221.935 -0.325904 -3.87131 0
M  V30 2356 H 223.607 -2.91847 -3.57243 0
M  V30 2357 H 221.85 -2.79789 -3.31513 0
M  V30 2358 H 222.521 -2.49987 -4.92149 0
M  V30 2359 H 224.997 -0.761256 -4.09077 0
M  V30 2360 H 223.873 -0.564295 -5.45992 0
M  V30 2361 H 224.134 0.774144 -4.35269 0
M  V30 2362 N 223.193 1.4272 -0.668489 0
M  V30 2363 C 224.421 2.05966 -0.196348 0
M  V30 2364 C 224.836 1.50191 1.14403 0
M  V30 2365 O 224.193 0.639208 1.7094 0
M  V30 2366 C 224.244 3.61314 -0.115815 0
M  V30 2367 O 223.965 4.1502 -1.40322 0
M  V30 2368 C 225.466 4.41663 0.380579 0
M  V30 2369 H 222.686 0.663954 -0.0969829 0
M  V30 2370 H 225.23 1.82966 -0.913446 0
M  V30 2371 H 223.385 3.83448 0.551931 0
M  V30 2372 H 223.799 5.08832 -1.27243 0
M  V30 2373 H 225.273 5.5065 0.385848 0
M  V30 2374 H 225.75 4.15792 1.41471 0
M  V30 2375 H 226.356 4.24534 -0.255209 0
M  V30 2376 N 224.671 0.411399 1.52136 0
M  V30 2377 C 225.634 -0.401089 2.25663 0
M  V30 2378 C 226.634 -0.971732 1.28117 0
M  V30 2379 O 227.824 -0.850254 1.52041 0
M  V30 2380 C 224.956 -1.56483 3.02863 0
M  V30 2381 H 226.149 0.24295 2.98914 0
M  V30 2382 H 223.702 0.163968 1.55438 0
M  V30 2383 H 224.437 -2.24567 2.33967 0
M  V30 2384 H 224.222 -1.16211 3.74483 0
M  V30 2385 H 225.712 -2.13951 3.58629 0
M  V30 2386 N 226.149 -1.5696 0.141893 0
M  V30 2387 C 227.395 -1.9625 -0.511248 0
M  V30 2388 C 227.728 -1.02654 -1.64851 0
M  V30 2389 O 227.003 -0.0679676 -1.94381 0
M  V30 2390 C 227.286 -3.45285 -1.02227 0
M  V30 2391 C 227.139 -4.49658 0.113138 0
M  V30 2392 C 228.458 -3.96698 -1.90574 0
M  V30 2393 H 225.577 -0.713567 -0.184367 0
M  V30 2394 H 228.219 -1.88698 0.222087 0
M  V30 2395 H 226.369 -3.51852 -1.64719 0
M  V30 2396 H 228.041 -4.55174 0.749302 0
M  V30 2397 H 226.284 -4.26857 0.773026 0
M  V30 2398 H 226.955 -5.51258 -0.286053 0
M  V30 2399 H 229.431 -3.92578 -1.37918 0
M  V30 2400 H 228.307 -5.01453 -2.2324 0
M  V30 2401 H 228.568 -3.3875 -2.84079 0
M  V30 2402 N 227.627 0.131896 -1.57047 0
M  V30 2403 C 228.59 1.14638 -1.98471 0
M  V30 2404 C 229.59 1.35029 -0.873148 0
M  V30 2405 O 230.78 1.31764 -1.13946 0
M  V30 2406 C 227.912 2.50358 -2.31373 0
M  V30 2407 H 229.105 0.79064 -2.8929 0
M  V30 2408 H 226.658 0.375761 -1.51716 0
M  V30 2409 H 227.393 2.90876 -1.43393 0
M  V30 2410 H 227.178 2.36915 -3.12432 0
M  V30 2411 H 228.668 3.23395 -2.64207 0
M  V30 2412 N 229.106 1.52395 0.401703 0
M  V30 2413 C 230.331 1.70972 1.17403 0
M  V30 2414 C 230.756 0.421615 1.83314 0
M  V30 2415 O 230.114 -0.621564 1.70312 0
M  V30 2416 C 230.162 2.85151 2.20728 0
M  V30 2417 O 229.266 2.51238 3.27037 0
M  V30 2418 H 228.607 0.568927 0.342372 0
M  V30 2419 H 231.137 1.99131 0.469891 0
M  V30 2420 H 231.147 3.10279 2.64936 0
M  V30 2421 H 229.822 3.78603 1.7214 0
M  V30 2422 H 228.399 2.36808 2.88057 0
M  V30 2423 N 230.584 -0.659388 1.43143 0
M  V30 2424 C 231.812 -1.44723 1.47861 0
M  V30 2425 C 232.227 -1.88563 0.0945886 0
M  V30 2426 O 231.584 -1.59108 -0.893915 0
M  V30 2427 C 231.635 -2.68627 2.41913 0
M  V30 2428 O 231.356 -2.26623 3.74932 0
M  V30 2429 C 232.857 -3.62045 2.55809 0
M  V30 2430 H 230.077 -0.444801 0.502387 0
M  V30 2431 H 232.621 -0.808916 1.87821 0
M  V30 2432 H 230.776 -3.28613 2.05164 0
M  V30 2433 H 231.19 -3.06745 4.2545 0
M  V30 2434 H 232.664 -4.45666 3.25708 0
M  V30 2435 H 233.141 -4.08981 1.60099 0
M  V30 2436 H 233.747 -3.07944 2.93344 0
M  V30 2437 N 232.062 -1.29571 -0.897171 0
M  V30 2438 C 233.31 -1.17456 -1.64464 0
M  V30 2439 C 233.631 0.273698 -1.9307 0
M  V30 2440 O 232.901 1.18684 -1.55855 0
M  V30 2441 H 231.481 -0.431706 -0.609622 0
M  V30 2442 H 234.143 -1.62531 -1.07562 0
M  V30 2443 H 233.239 -1.72648 -2.59998 0
M  V30 2444 N 233.54 1.10788 -1.12088 0
M  V30 2445 C 234.45 2.20599 -0.798338 0
M  V30 2446 C 235.466 1.72712 0.21135 0
M  V30 2447 O 236.642 2.01348 0.0458477 0
M  V30 2448 C 233.707 3.45771 -0.253674 0
M  V30 2449 C 232.768 4.08411 -1.32283 0
M  V30 2450 C 232.001 5.27608 -0.80406 0
M  V30 2451 O 232.224 5.69241 0.363478 0
M  V30 2452 O 231.158 5.8101 -1.57198 0
M  V30 2453 H 234.984 2.50614 -1.7154 0
M  V30 2454 H 232.569 1.19454 -0.897275 0
M  V30 2455 H 234.451 4.21376 0.0453691 0
M  V30 2456 H 233.126 3.1739 0.636005 0
M  V30 2457 H 232.033 3.34507 -1.67499 0
M  V30 2458 H 233.366 4.40986 -2.18614 0
M  V30 2459 N 235.018 0.912232 1.28515 0
M  V30 2460 C 236.258 0.551677 1.96814 0
M  V30 2461 C 236.622 -0.887825 1.7024 0
M  V30 2462 O 237.823 -1.35588 2.32098 0
M  V30 2463 C 236.094 0.850555 3.47132 0
M  V30 2464 S 237.653 0.59619 4.34731 0
M  V30 2465 H 234.471 0.204191 0.681049 0
M  V30 2466 H 237.073 1.17736 1.56072 0
M  V30 2467 H 235.777 1.8962 3.63968 0
M  V30 2468 H 235.308 0.213471 3.9282 0
M  V30 2469 H 237.323 -0.553154 4.93107 0
M  V30 2470 N 236.496 -1.42363 0.676048 0
M  V30 2471 C 237.743 -2.01522 0.19883 0
M  V30 2472 C 238.071 -1.53456 -1.19505 0
M  V30 2473 O 237.326 -0.727967 -1.81657 0
M  V30 2474 C 237.625 -3.56929 0.183431 0
M  V30 2475 C 237.291 -4.24431 1.52215 0
M  V30 2476 C 235.953 -4.42585 1.8887 0
M  V30 2477 C 238.305 -4.62459 2.40377 0
M  V30 2478 C 235.633 -4.96039 3.13309 0
M  V30 2479 C 237.985 -5.17294 3.64129 0
M  V30 2480 C 236.649 -5.33661 4.00951 0
M  V30 2481 H 235.919 -0.737419 0.0727571 0
M  V30 2482 H 238.566 -1.70531 0.871281 0
M  V30 2483 H 236.871 -3.87594 -0.572532 0
M  V30 2484 H 238.568 -4.00486 -0.203035 0
M  V30 2485 H 235.158 -4.10661 1.22701 0
M  V30 2486 H 239.342 -4.48105 2.13343 0
M  V30 2487 H 234.598 -5.06896 3.41857 0
M  V30 2488 H 238.772 -5.45704 4.32644 0
M  V30 2489 H 236.399 -5.74845 4.9745 0
M  V30 2490 N 237.974 -0.419461 -1.51915 0
M  V30 2491 C 238.937 0.389116 -2.25873 0
M  V30 2492 C 239.937 0.964924 -1.28631 0
M  V30 2493 O 241.127 0.842179 -1.52489 0
M  V30 2494 C 238.259 1.54874 -3.03689 0
M  V30 2495 H 239.452 -0.258799 -2.98781 0
M  V30 2496 H 237.005 -0.172209 -1.55348 0
M  V30 2497 H 237.74 2.23323 -2.35154 0
M  V30 2498 H 237.525 1.14223 -3.75094 0
M  V30 2499 H 239.015 2.12046 -3.59759 0
M  V30 2500 N 239.452 1.56882 -0.150215 0
M  V30 2501 C 240.698 1.96518 0.500834 0
M  V30 2502 C 241.031 1.03527 1.64304 0
M  V30 2503 O 240.306 0.0782751 1.94342 0
M  V30 2504 C 240.589 3.45822 1.00395 0
M  V30 2505 C 240.442 4.49591 -0.136983 0
M  V30 2506 C 241.761 3.97704 1.88467 0
M  V30 2507 H 238.88 0.714535 0.18058 0
M  V30 2508 H 241.522 1.88577 -0.232091 0
M  V30 2509 H 239.672 3.5272 1.62851 0
M  V30 2510 H 241.344 4.5477 -0.77343 0
M  V30 2511 H 239.587 4.26441 -0.795652 0
M  V30 2512 H 240.258 5.51402 0.256815 0
M  V30 2513 H 242.734 3.93304 1.35834 0
M  V30 2514 H 241.61 5.0263 2.20578 0
M  V30 2515 H 241.871 3.40252 2.82279 0
M  V30 2516 N 240.93 -0.123565 1.57115 0
M  V30 2517 C 242.177 -0.832153 1.84612 0
M  V30 2518 C 242.505 -1.80093 0.734627 0
M  V30 2519 O 241.76 -1.93766 -0.27442 0
M  V30 2520 C 242.059 -1.62016 3.18568 0
M  V30 2521 C 241.725 -0.796084 4.43817 0
M  V30 2522 C 240.387 -0.568816 4.77826 0
M  V30 2523 C 242.739 -0.221364 5.2073 0
M  V30 2524 C 240.067 0.243499 5.86194 0
M  V30 2525 C 242.419 0.578117 6.29953 0
M  V30 2526 C 241.083 0.815744 6.62497 0
M  V30 2527 H 240.353 -0.304507 0.675542 0
M  V30 2528 H 243 -0.0947248 1.91266 0
M  V30 2529 H 241.305 -2.42837 3.0747 0
M  V30 2530 H 243.002 -2.17231 3.37064 0
M  V30 2531 H 239.592 -0.983307 4.17168 0
M  V30 2532 H 243.776 -0.384173 4.94811 0
M  V30 2533 H 239.032 0.436871 6.09837 0
M  V30 2534 H 243.206 1.03046 6.88734 0
M  V30 2535 H 240.833 1.44701 7.46301 0
M  V30 2536 N 242.408 -1.52605 -0.393616 0
M  V30 2537 C 243.371 -1.76415 -1.46323 0
M  V30 2538 C 244.371 -0.634126 -1.47768 0
M  V30 2539 O 245.561 -0.902142 -1.4902 0
M  V30 2540 C 242.693 -1.8607 -2.85641 0
M  V30 2541 H 243.886 -2.71916 -1.26498 0
M  V30 2542 H 241.439 -1.43257 -0.625073 0
M  V30 2543 H 242.174 -0.925378 -3.10817 0
M  V30 2544 H 241.959 -2.68235 -2.85993 0
M  V30 2545 H 243.449 -2.06179 -3.63153 0
M  V30 2546 N 243.887 0.651787 -1.4349 0
M  V30 2547 C 245.134 1.41167 -1.45183 0
M  V30 2548 C 245.462 1.94349 -0.0766601 0
M  V30 2549 O 244.717 1.72804 0.918555 0
M  V30 2550 C 245.016 2.60914 -2.44251 0
M  V30 2551 C 244.682 2.26142 -3.9009 0
M  V30 2552 C 243.344 2.16371 -4.2981 0
M  V30 2553 C 245.696 1.98334 -4.81989 0
M  V30 2554 C 243.024 1.7695 -5.5938 0
M  V30 2555 C 245.376 1.6041 -6.11924 0
M  V30 2556 C 244.04 1.49166 -6.5062 0
M  V30 2557 H 243.31 0.516566 -0.531263 0
M  V30 2558 H 245.957 0.741099 -1.76579 0
M  V30 2559 H 244.262 3.3311 -2.06265 0
M  V30 2560 H 245.959 3.19127 -2.42815 0
M  V30 2561 H 242.549 2.34658 -3.58655 0
M  V30 2562 H 246.733 2.04803 -4.52072 0
M  V30 2563 H 241.989 1.66831 -5.88198 0
M  V30 2564 H 246.163 1.37925 -6.82605 0
M  V30 2565 H 243.79 1.1839 -7.50925 0
M  V30 2566 N 245.365 1.30045 0.890287 0
M  V30 2567 C 246.328 1.15963 1.977 0
M  V30 2568 C 247.328 0.0923777 1.60534 0
M  V30 2569 O 248.518 0.340071 1.70848 0
M  V30 2570 C 245.65 0.775451 3.31963 0
M  V30 2571 H 246.843 2.12502 2.11619 0
M  V30 2572 H 244.396 1.13366 1.07601 0
M  V30 2573 H 245.131 -0.189671 3.23745 0
M  V30 2574 H 244.916 1.54668 3.60306 0
M  V30 2575 H 246.406 0.700251 4.11687 0
M  V30 2576 N 246.843 -1.10192 1.12674 0
M  V30 2577 C 248.254 -1.63707 0.897604 0
M  V30 2578 C 248.605 -1.87812 -0.567546 0
M  V30 2579 O 247.73 -1.62196 -1.43253 0
M  V30 2580 C 248.325 -2.974 1.62292 0
M  V30 2581 C 246.884 -3.47772 1.43986 0
M  V30 2582 C 246.031 -2.22332 1.65722 0
M  V30 2583 H 248.982 -0.936587 1.28116 0
M  V30 2584 H 249.003 -3.64986 1.07541 0
M  V30 2585 H 248.515 -2.79824 2.68924 0
M  V30 2586 H 246.616 -3.70487 0.396206 0
M  V30 2587 H 246.729 -4.25723 2.19765 0
M  V30 2588 H 245.093 -2.30599 1.08149 0
M  V30 2589 H 245.876 -2.07285 2.73657 0
M  V30 2590 N 248.321 -0.919034 -1.28029 0
M  V30 2591 C 249.284 -0.416182 -2.2539 0
M  V30 2592 C 250.284 0.460438 -1.54067 0
M  V30 2593 O 251.474 0.262744 -1.72207 0
M  V30 2594 C 248.606 0.402707 -3.38513 0
M  V30 2595 H 249.799 -1.27629 -2.71387 0
M  V30 2596 H 247.352 -0.698919 -1.39803 0
M  V30 2597 H 248.087 1.282 -2.97885 0
M  V30 2598 H 247.872 -0.225698 -3.9145 0
M  V30 2599 H 249.362 0.745191 -4.10897 0
M  V30 2600 N 249.799 1.42003 -0.683588 0
M  V30 2601 C 251.048 2.00638 -0.206681 0
M  V30 2602 C 251.361 1.5472 1.19671 0
M  V30 2603 O 252.567 2.05833 1.77045 0
M  V30 2604 C 251.023 3.58487 -0.318632 0
M  V30 2605 C 250.631 4.1339 -1.72663 0
M  V30 2606 C 252.375 4.24384 0.0991141 0
M  V30 2607 C 250.282 5.63633 -1.79087 0
M  V30 2608 H 249.212 0.750408 -0.0735107 0
M  V30 2609 H 251.863 1.62624 -0.850048 0
M  V30 2610 H 250.245 3.94047 0.392781 0
M  V30 2611 H 251.419 3.89273 -2.46583 0
M  V30 2612 H 249.734 3.59976 -2.09299 0
M  V30 2613 H 252.331 5.34652 0.0713833 0
M  V30 2614 H 252.674 4.00505 1.13586 0
M  V30 2615 H 253.207 3.93816 -0.561599 0
M  V30 2616 H 249.946 5.92323 -2.80774 0
M  V30 2617 H 249.466 5.89714 -1.09535 0
M  V30 2618 H 251.145 6.28201 -1.5483 0
M  V30 2619 N 251.277 0.427512 1.51691 0
M  V30 2620 C 252.21 -0.433876 2.24037 0
M  V30 2621 C 253.188 -1.03287 1.25581 0
M  V30 2622 O 254.372 -1.07722 1.54688 0
M  V30 2623 C 251.499 -1.60385 2.98319 0
M  V30 2624 C 250.545 -1.12648 4.11355 0
M  V30 2625 S 251.378 -0.076543 5.35445 0
M  V30 2626 C 252.534 -1.25141 6.13262 0
M  V30 2627 H 252.767 0.180367 2.96752 0
M  V30 2628 H 250.3 0.211946 1.52938 0
M  V30 2629 H 252.258 -2.27462 3.41718 0
M  V30 2630 H 250.919 -2.18948 2.25213 0
M  V30 2631 H 250.112 -2.0011 4.62571 0
M  V30 2632 H 249.714 -0.534088 3.70167 0
M  V30 2633 H 252.006 -2.17162 6.41753 0
M  V30 2634 H 252.949 -0.779411 7.03797 0
M  V30 2635 H 253.357 -1.48553 5.44603 0
M  V30 2636 N 252.755 -1.56801 0.158532 0
M  V30 2637 C 253.718 -2.16138 -0.762705 0
M  V30 2638 C 254.718 -1.1061 -1.16713 0
M  V30 2639 O 255.908 -1.36191 -1.08617 0
M  V30 2640 C 253.04 -2.73386 -2.03649 0
M  V30 2641 H 254.233 -2.98886 -0.246354 0
M  V30 2642 H 251.786 -1.56035 -0.0909744 0
M  V30 2643 H 252.521 -1.94335 -2.59623 0
M  V30 2644 H 252.306 -3.50601 -1.75559 0
M  V30 2645 H 253.796 -3.19065 -2.6942 0
M  V30 2646 N 254.233 0.115231 -1.57178 0
M  V30 2647 C 255.163 1.1423 -2.03651 0
M  V30 2648 C 256.144 1.42967 -0.921655 0
M  V30 2649 O 257.329 1.53343 -1.19162 0
M  V30 2650 C 254.459 2.4675 -2.44401 0
M  V30 2651 C 253.413 2.32467 -3.59365 0
M  V30 2652 C 252.739 3.69984 -3.86026 0
M  V30 2653 C 254.039 1.78203 -4.90959 0
M  V30 2654 H 255.733 0.755749 -2.89705 0
M  V30 2655 H 253.279 0.362093 -1.39373 0
M  V30 2656 H 255.232 3.18854 -2.75517 0
M  V30 2657 H 253.956 2.87302 -1.55322 0
M  V30 2658 H 252.615 1.62811 -3.28463 0
M  V30 2659 H 252.263 4.08028 -2.94147 0
M  V30 2660 H 251.963 3.61279 -4.63412 0
M  V30 2661 H 253.487 4.43587 -4.19599 0
M  V30 2662 H 254.901 2.40128 -5.20587 0
M  V30 2663 H 253.298 1.8031 -5.72371 0
M  V30 2664 H 254.368 0.739876 -4.79222 0
M  V30 2665 N 255.711 1.52812 0.385517 0
M  V30 2666 C 256.658 1.77838 1.47113 0
M  V30 2667 C 257.628 0.621757 1.54024 0
M  V30 2668 O 258.813 0.861846 1.70226 0
M  V30 2669 C 255.953 1.95618 2.84302 0
M  V30 2670 C 255.066 3.23316 2.86515 0
M  V30 2671 C 254.201 3.31394 4.15152 0
M  V30 2672 C 253.24 4.53201 4.1143 0
M  V30 2673 N 252.377 4.58542 5.3168 0
M  V30 2674 H 257.217 2.70482 1.25073 0
M  V30 2675 H 254.754 1.34006 0.606692 0
M  V30 2676 H 256.712 2.03912 3.63972 0
M  V30 2677 H 255.342 1.06331 3.04784 0
M  V30 2678 H 254.394 3.24076 1.99195 0
M  V30 2679 H 255.706 4.13045 2.79634 0
M  V30 2680 H 254.86 3.3889 5.03228 0
M  V30 2681 H 253.599 2.39645 4.24761 0
M  V30 2682 H 252.604 4.45827 3.21742 0
M  V30 2683 H 253.829 5.46271 4.03442 0
M  V30 2684 H 251.775 3.69686 5.41912 0
M  V30 2685 H 251.692 5.42148 5.26889 0
M  V30 2686 H 252.96 4.70296 6.21644 0
M  V30 2687 N 257.189 -0.644168 1.43834 0
M  V30 2688 C 258.099 -1.78563 1.52159 0
M  V30 2689 C 259.115 -1.69147 0.408069 0
M  V30 2690 O 260.291 -1.90156 0.663524 0
M  V30 2691 C 257.356 -3.14888 1.45073 0
M  V30 2692 C 256.417 -3.36034 2.6717 0
M  V30 2693 C 255.65 -4.65855 2.60413 0
M  V30 2694 O 255.873 -5.45805 1.65689 0
M  V30 2695 O 254.807 -4.88918 3.5106 0
M  V30 2696 H 258.633 -1.74494 2.48567 0
M  V30 2697 H 256.218 -0.80378 1.25935 0
M  V30 2698 H 258.1 -3.96179 1.43597 0
M  V30 2699 H 256.775 -3.19528 0.518037 0
M  V30 2700 H 255.682 -2.54472 2.74217 0
M  V30 2701 H 257.015 -3.36247 3.59442 0
M  V30 2702 N 258.668 -1.30515 -0.883378 0
M  V30 2703 C 260.084 -1.08881 -1.16692 0
M  V30 2704 C 260.284 0.149409 -2.00945 0
M  V30 2705 O 259.34 0.84257 -2.38027 0
M  V30 2706 C 260.653 -2.35319 -1.87204 0
M  V30 2707 C 262.201 -2.40799 -1.99962 0
M  V30 2708 C 262.676 -3.67083 -2.73887 0
M  V30 2709 N 264.167 -3.679 -2.81432 0
M  V30 2710 C 264.902 -4.62303 -3.3921 0
M  V30 2711 N 264.398 -5.67052 -3.98025 0
M  V30 2712 N 266.191 -4.49845 -3.3704 0
M  V30 2713 H 258.342 -2.09951 -0.321633 0
M  V30 2714 H 260.605 -0.92556 -0.205043 0
M  V30 2715 H 260.311 -3.25689 -1.3274 0
M  V30 2716 H 260.185 -2.44089 -2.87577 0
M  V30 2717 H 262.572 -1.50907 -2.53597 0
M  V30 2718 H 262.653 -2.36003 -0.98673 0
M  V30 2719 H 262.297 -4.57334 -2.20925 0
M  V30 2720 H 262.227 -3.69141 -3.75556 0
M  V30 2721 H 264.718 -2.92171 -2.39676 0
M  V30 2722 H 265.031 -6.35184 -4.40183 0
M  V30 2723 H 263.376 -5.70842 -3.96439 0
M  V30 2724 H 266.567 -3.67194 -2.90321 0
M  V30 2725 H 266.74 -5.23597 -3.81772 0
M  V30 2726 N 260.146 1.09593 -1.13257 0
M  V30 2727 C 261.395 1.81105 -0.887917 0
M  V30 2728 C 261.708 1.86563 0.587672 0
M  V30 2729 O 262.914 2.54367 0.949204 0
M  V30 2730 C 261.37 3.25338 -1.53895 0
M  V30 2731 C 260.978 3.28151 -3.04994 0
M  V30 2732 C 262.722 4.01617 -1.37492 0
M  V30 2733 C 260.629 4.66897 -3.6299 0
M  V30 2734 H 259.559 0.678661 -0.328534 0
M  V30 2735 H 262.21 1.23183 -1.36008 0
M  V30 2736 H 260.592 3.8331 -0.994446 0
M  V30 2737 H 261.766 2.79953 -3.66009 0
M  V30 2738 H 260.081 2.65361 -3.20893 0
M  V30 2739 H 262.678 5.04119 -1.78235 0
M  V30 2740 H 263.021 4.15072 -0.31957 0
M  V30 2741 H 263.554 3.50082 -1.88912 0
M  V30 2742 H 260.293 4.58643 -4.68323 0
M  V30 2743 H 259.813 5.15426 -3.06752 0
M  V30 2744 H 261.492 5.3587 -3.62563 0
M  V30 2745 N 261.624 0.925811 1.2754 0
M  V30 2746 C 262.872 0.564138 1.94067 0
M  V30 2747 C 263.193 -0.897188 1.73134 0
M  V30 2748 O 262.463 -1.63573 1.07799 0
M  V30 2749 H 261.043 0.205645 0.718136 0
M  V30 2750 H 263.705 1.1778 1.55287 0
M  V30 2751 H 262.801 0.76881 3.02483 0
M  V30 2752 N 263.102 -1.41638 0.69111 0
M  V30 2753 C 264.348 -2.02104 0.229258 0
M  V30 2754 C 264.703 -1.53741 -1.15678 0
M  V30 2755 O 263.996 -0.736849 -1.76865 0
M  V30 2756 C 264.19 -3.56714 0.221277 0
M  V30 2757 C 264.019 -4.20083 1.605 0
M  V30 2758 C 262.789 -4.54566 2.20676 0
M  V30 2759 C 264.987 -4.46587 2.55078 0
M  V30 2760 N 262.969 -5.03199 3.5166 0
M  V30 2761 C 264.34 -4.96946 3.70735 0
M  V30 2762 C 266.395 -4.28593 2.53401 0
M  V30 2763 C 265.098 -5.31203 4.8499 0
M  V30 2764 C 267.124 -4.63936 3.66765 0
M  V30 2765 C 266.486 -5.14463 4.81152 0
M  V30 2766 H 262.585 -0.771256 0.12918 0
M  V30 2767 H 265.169 -1.72251 0.907626 0
M  V30 2768 H 263.34 -3.86051 -0.426562 0
M  V30 2769 H 265.072 -4.03896 -0.254983 0
M  V30 2770 H 261.827 -4.4087 1.73005 0
M  V30 2771 H 262.251 -5.31926 4.18789 0
M  V30 2772 H 266.893 -3.88771 1.66184 0
M  V30 2773 H 264.611 -5.69951 5.72871 0
M  V30 2774 H 268.197 -4.51677 3.66714 0
M  V30 2775 H 267.077 -5.41299 5.67419 0
M  V30 2776 N 264.58 -0.43555 -1.51462 0
M  V30 2777 C 265.996 -0.0877501 -1.59359 0
M  V30 2778 C 266.196 1.4027 -1.4466 0
M  V30 2779 O 265.252 2.17243 -1.28693 0
M  V30 2780 C 266.565 -0.606264 -2.94525 0
M  V30 2781 C 268.113 -0.566548 -3.0783 0
M  V30 2782 C 268.588 -1.06201 -4.45517 0
M  V30 2783 N 270.079 -1.01992 -4.51832 0
M  V30 2784 C 270.814 -1.37417 -5.5669 0
M  V30 2785 N 270.31 -1.80119 -6.68976 0
M  V30 2786 N 272.103 -1.29245 -5.47039 0
M  V30 2787 H 264.254 -1.40533 -1.59261 0
M  V30 2788 H 266.517 -0.578992 -0.750648 0
M  V30 2789 H 266.223 -1.64901 -3.10645 0
M  V30 2790 H 266.097 -0.0302097 -3.77188 0
M  V30 2791 H 268.484 0.467208 -2.91378 0
M  V30 2792 H 268.565 -1.17898 -2.2701 0
M  V30 2793 H 268.209 -2.09422 -4.62715 0
M  V30 2794 H 268.139 -0.426127 -5.24873 0
M  V30 2795 H 270.63 -0.706308 -3.71241 0
M  V30 2796 H 270.943 -2.05392 -7.45006 0
M  V30 2797 H 269.288 -1.84044 -6.70189 0
M  V30 2798 H 272.479 -0.957522 -4.58202 0
M  V30 2799 H 272.652 -1.57182 -6.28648 0
M  V30 2800 N 266.058 1.56714 -0.166846 0
M  V30 2801 C 267.288 2.00828 0.48494 0
M  V30 2802 C 267.696 1.04612 1.57648 0
M  V30 2803 O 267.039 0.0383201 1.8366 0
M  V30 2804 C 267.101 3.4137 1.12723 0
M  V30 2805 C 266.765 4.56654 0.177886 0
M  V30 2806 C 267.762 5.16402 -0.60207 0
M  V30 2807 C 265.447 5.02244 0.0750139 0
M  V30 2808 C 267.441 6.20167 -1.47215 0
M  V30 2809 C 265.128 6.05859 -0.798649 0
M  V30 2810 C 266.126 6.64691 -1.57082 0
M  V30 2811 O 265.814 7.66297 -2.42989 0
M  V30 2812 H 265.546 0.663587 0.128953 0
M  V30 2813 H 268.1 2.03692 -0.264365 0
M  V30 2814 H 266.33 3.35406 1.92457 0
M  V30 2815 H 268.019 3.69466 1.68076 0
M  V30 2816 H 268.785 4.82065 -0.53274 0
M  V30 2817 H 264.664 4.56167 0.665812 0
M  V30 2818 H 268.208 6.66016 -2.07531 0
M  V30 2819 H 264.105 6.39621 -0.869199 0
M  V30 2820 H 264.873 7.83601 -2.36455 0
M  V30 2821 N 267.536 -0.106894 1.57237 0
M  V30 2822 C 268.761 -0.830287 1.90055 0
M  V30 2823 C 269.186 -1.72064 0.75998 0
M  V30 2824 O 268.544 -1.78982 -0.288991 0
M  V30 2825 C 268.592 -1.6295 3.21683 0
M  V30 2826 O 267.696 -2.73748 3.08441 0
M  V30 2827 H 267.037 -0.228855 0.623315 0
M  V30 2828 H 269.567 -0.085658 2.04421 0
M  V30 2829 H 269.577 -2.01621 3.54701 0
M  V30 2830 H 268.252 -0.975989 4.04286 0
M  V30 2831 H 266.829 -2.38192 2.86913 0
M  V30 2832 N 269.014 -1.53014 -0.377408 0
M  V30 2833 C 269.944 -1.81589 -1.46791 0
M  V30 2834 C 270.925 -0.668622 -1.56408 0
M  V30 2835 O 272.11 -0.917337 -1.71168 0
M  V30 2836 C 269.24 -1.99519 -2.8427 0
M  V30 2837 C 268.194 -3.15249 -2.89486 0
M  V30 2838 C 267.52 -3.18451 -4.29527 0
M  V30 2839 C 268.82 -4.54084 -2.58079 0
M  V30 2840 H 270.514 -2.7291 -1.23127 0
M  V30 2841 H 268.06 -1.31319 -0.590883 0
M  V30 2842 H 270.013 -2.18092 -3.60575 0
M  V30 2843 H 268.737 -1.04897 -3.09296 0
M  V30 2844 H 267.396 -2.96477 -2.15631 0
M  V30 2845 H 267.044 -2.2149 -4.5161 0
M  V30 2846 H 266.744 -3.962 -4.33934 0
M  V30 2847 H 268.268 -3.39193 -5.07721 0
M  V30 2848 H 269.682 -4.72899 -3.24098 0
M  V30 2849 H 268.079 -5.33987 -2.7382 0
M  V30 2850 H 269.149 -4.60006 -1.53372 0
M  V30 2851 N 270.492 0.636531 -1.44174 0
M  V30 2852 C 271.422 1.76003 -1.53444 0
M  V30 2853 C 272.403 1.65619 -0.387841 0
M  V30 2854 O 273.588 1.84461 -0.607257 0
M  V30 2855 C 270.718 3.14511 -1.4731 0
M  V30 2856 C 269.672 3.39677 -2.60391 0
M  V30 2857 C 268.998 4.78159 -2.39308 0
M  V30 2858 C 270.298 3.32772 -4.02567 0
M  V30 2859 H 271.992 1.68501 -2.47483 0
M  V30 2860 H 269.538 0.809237 -1.19111 0
M  V30 2861 H 271.491 3.92878 -1.52397 0
M  V30 2862 H 270.215 3.22783 -0.49785 0
M  V30 2863 H 268.874 2.63688 -2.54684 0
M  V30 2864 H 268.522 4.83128 -1.39988 0
M  V30 2865 H 268.222 4.95956 -3.15122 0
M  V30 2866 H 269.746 5.58762 -2.46205 0
M  V30 2867 H 271.16 4.01051 -4.09672 0
M  V30 2868 H 269.557 3.62104 -4.7854 0
M  V30 2869 H 270.627 2.30669 -4.2652 0
M  V30 2870 N 271.97 1.30982 0.876444 0
M  V30 2871 C 273.217 1.20296 1.62896 0
M  V30 2872 C 273.545 -0.240395 1.93009 0
M  V30 2873 O 272.8 -1.18733 1.55567 0
M  V30 2874 C 273.099 1.98572 2.9716 0
M  V30 2875 C 272.765 3.48125 2.86566 0
M  V30 2876 C 271.427 3.88905 2.83383 0
M  V30 2877 C 273.779 4.43322 2.74071 0
M  V30 2878 C 271.107 5.2316 2.65556 0
M  V30 2879 C 273.459 5.77695 2.57781 0
M  V30 2880 C 272.123 6.17704 2.52979 0
M  V30 2881 H 271.393 0.440193 0.59608 0
M  V30 2882 H 274.04 1.62177 1.01837 0
M  V30 2883 H 272.345 1.49352 3.62217 0
M  V30 2884 H 274.042 1.8769 3.54364 0
M  V30 2885 H 270.632 3.15723 2.89856 0
M  V30 2886 H 274.816 4.12752 2.75589 0
M  V30 2887 H 270.072 5.53241 2.60259 0
M  V30 2888 H 274.246 6.51091 2.47089 0
M  V30 2889 H 271.873 7.21678 2.38924 0
M  V30 2890 N 273.449 -1.08991 1.13837 0
M  V30 2891 C 274.695 -1.81526 0.90422 0
M  V30 2892 C 275.028 -1.85706 -0.568066 0
M  V30 2893 O 274.303 -1.32855 -1.42056 0
M  V30 2894 C 274.586 -3.27447 1.49835 0
M  V30 2895 C 274.439 -3.31512 3.04006 0
M  V30 2896 C 275.758 -4.24256 1.17025 0
M  V30 2897 H 272.877 -0.659029 0.329923 0
M  V30 2898 H 275.519 -1.27644 1.40737 0
M  V30 2899 H 273.669 -3.73462 1.07044 0
M  V30 2900 H 275.341 -2.93867 3.55584 0
M  V30 2901 H 273.584 -2.70963 3.38765 0
M  V30 2902 H 274.255 -4.34329 3.40679 0
M  V30 2903 H 276.731 -3.86549 1.54009 0
M  V30 2904 H 275.607 -5.24684 1.61237 0
M  V30 2905 H 275.868 -4.42019 0.0846274 0
M  V30 2906 N 274.927 -0.932562 -1.27047 0
M  V30 2907 C 276.175 -0.574422 -1.93765 0
M  V30 2908 C 276.496 0.887993 -1.73608 0
M  V30 2909 O 275.766 1.62999 -1.08665 0
M  V30 2910 H 274.346 -0.209451 -0.717035 0
M  V30 2911 H 277.008 -1.18601 -1.5466 0
M  V30 2912 H 276.104 -0.784841 -3.02071 0
M  V30 2913 N 276.405 1.4127 -0.698611 0
M  V30 2914 C 277.335 2.33447 -0.049629 0
M  V30 2915 C 278.316 1.51982 0.763898 0
M  V30 2916 O 279.501 1.80509 0.716257 0
M  V30 2917 C 276.631 3.35828 0.885267 0
M  V30 2918 C 275.585 4.27627 0.178613 0
M  V30 2919 C 274.911 5.20406 1.22807 0
M  V30 2920 C 276.211 5.13459 -0.956933 0
M  V30 2921 H 277.905 2.87966 -0.81951 0
M  V30 2922 H 275.451 1.38461 -0.395538 0
M  V30 2923 H 277.404 3.9924 1.34854 0
M  V30 2924 H 276.128 2.79666 1.68685 0
M  V30 2925 H 274.787 3.65643 -0.26466 0
M  V30 2926 H 274.435 4.60558 2.02226 0
M  V30 2927 H 274.135 5.82661 0.760239 0
M  V30 2928 H 275.659 5.86695 1.69179 0
M  V30 2929 H 277.073 5.70421 -0.573805 0
M  V30 2930 H 275.47 5.8467 -1.35205 0
M  V30 2931 H 276.54 4.50443 -1.79524 0
M  V30 2932 N 277.883 0.443576 1.51229 0
M  V30 2933 C 278.813 -0.355142 2.30783 0
M  V30 2934 C 279.794 -1.0154 1.36468 0
M  V30 2935 O 280.979 -1.01785 1.65389 0
M  V30 2936 C 278.109 -1.45312 3.15439 0
M  V30 2937 C 277.063 -0.916002 4.18083 0
M  V30 2938 C 276.389 -2.1102 4.91299 0
M  V30 2939 C 277.689 0.0538602 5.22272 0
M  V30 2940 H 279.383 0.308767 2.97804 0
M  V30 2941 H 276.929 0.149937 1.43217 0
M  V30 2942 H 278.882 -2.01914 3.69876 0
M  V30 2943 H 277.606 -2.14541 2.46252 0
M  V30 2944 H 276.265 -0.372145 3.64706 0
M  V30 2945 H 275.913 -2.78882 4.18609 0
M  V30 2946 H 275.613 -1.75717 5.60712 0
M  V30 2947 H 277.137 -2.68164 5.48562 0
M  V30 2948 H 278.551 -0.422069 5.71744 0
M  V30 2949 H 276.948 0.319776 5.99247 0
M  V30 2950 H 278.018 0.98858 4.74716 0
M  V30 2951 N 279.361 -1.56624 0.175154 0
M  V30 2952 C 280.293 -2.15333 -0.785128 0
M  V30 2953 C 281.306 -1.1099 -1.19101 0
M  V30 2954 O 282.495 -1.38162 -1.13019 0
M  V30 2955 C 279.595 -2.68427 -2.06882 0
M  V30 2956 C 278.768 -3.97466 -1.8259 0
M  V30 2957 C 277.827 -4.35585 -2.95215 0
M  V30 2958 O 276.853 -5.03389 -2.65684 0
M  V30 2959 N 278.055 -3.97457 -4.23094 0
M  V30 2960 H 280.82 -2.98359 -0.283187 0
M  V30 2961 H 278.381 -1.61898 -0.00749817 0
M  V30 2962 H 280.373 -2.90924 -2.81328 0
M  V30 2963 H 278.943 -1.89968 -2.48256 0
M  V30 2964 H 278.163 -3.83307 -0.920287 0
M  V30 2965 H 279.451 -4.81736 -1.63733 0
M  V30 2966 H 278.849 -3.42878 -4.49945 0
M  V30 2967 H 277.406 -4.24947 -4.9423 0
M  V30 2968 N 280.839 0.0985539 -1.57292 0
M  V30 2969 C 281.769 1.12064 -2.04851 0
M  V30 2970 C 282.75 1.41981 -0.936767 0
M  V30 2971 O 283.935 1.52071 -1.20781 0
M  V30 2972 C 281.065 2.44144 -2.47004 0
M  V30 2973 C 280.019 2.28643 -3.6181 0
M  V30 2974 C 279.345 3.65869 -3.89929 0
M  V30 2975 C 280.645 1.72986 -4.92822 0
M  V30 2976 H 282.339 0.724979 -2.9049 0
M  V30 2977 H 279.885 0.34729 -1.39749 0
M  V30 2978 H 281.838 3.15914 -2.78884 0
M  V30 2979 H 280.562 2.85639 -1.5836 0
M  V30 2980 H 279.221 1.59318 -3.30172 0
M  V30 2981 H 278.869 4.04885 -2.98458 0
M  V30 2982 H 278.569 3.56344 -4.67218 0
M  V30 2983 H 280.093 4.39112 -4.2428 0
M  V30 2984 H 281.507 2.34593 -5.23105 0
M  V30 2985 H 279.904 1.74229 -5.74251 0
M  V30 2986 H 280.974 0.689007 -4.7998 0
M  V30 2987 N 282.317 1.53212 0.369288 0
M  V30 2988 C 283.265 1.80054 1.47253 0
M  V30 2989 C 284.259 0.669456 1.55611 0
M  V30 2990 O 285.465 0.852328 1.58541 0
M  V30 2991 H 281.84 0.570034 0.490475 0
M  V30 2992 H 283.811 2.72403 1.21817 0
M  V30 2993 C 282.56 2.00403 2.84137 0
M  V30 2994 H 281.883 2.86876 2.78464 0
M  V30 2995 H 283.323 2.23164 3.60519 0
M  V30 2996 C 281.782 0.782081 3.27697 0
M  V30 2997 O 282.312 -0.0310205 4.01688 0
M  V30 2998 N 280.518 0.606573 2.84199 0
M  V30 2999 H 280.065 1.26939 2.24152 0
M  V30 3000 H 280.023 -0.20962 3.137 0
M  V30 3001 N 283.795 -0.628877 1.44509 0
M  V30 3002 C 285.044 -1.38437 1.4669 0
M  V30 3003 C 285.357 -1.95322 0.104272 0
M  V30 3004 O 286.563 -2.715 0.00362163 0
M  V30 3005 C 285.019 -2.50659 2.5826 0
M  V30 3006 C 284.627 -2.00277 4.0074 0
M  V30 3007 C 286.371 -3.27844 2.69664 0
M  V30 3008 C 284.278 -3.09854 5.0373 0
M  V30 3009 H 283.208 -0.520245 0.545766 0
M  V30 3010 H 285.859 -0.676313 1.70582 0
M  V30 3011 H 284.241 -3.2405 2.27612 0
M  V30 3012 H 285.415 -1.33736 4.40966 0
M  V30 3013 H 283.73 -1.35901 3.93599 0
M  V30 3014 H 286.327 -4.09534 3.43781 0
M  V30 3015 H 286.67 -3.77471 1.75559 0
M  V30 3016 H 287.203 -2.61543 2.99733 0
M  V30 3017 H 283.942 -2.65168 5.99472 0
M  V30 3018 H 283.462 -3.7503 4.68095 0
M  V30 3019 H 285.141 -3.74592 5.27532 0
M  V30 3020 N 285.273 -1.31445 -0.869486 0
M  V30 3021 C 286.519 -1.21337 -1.62496 0
M  V30 3022 C 286.852 0.227872 -1.92858 0
M  V30 3023 O 286.127 1.16094 -1.56053 0
M  V30 3024 C 286.41 -2.05814 -2.95487 0
M  V30 3025 C 286.263 -3.5824 -2.72 0
M  V30 3026 C 287.582 -1.9079 -3.96594 0
M  V30 3027 H 284.701 -0.442135 -0.589649 0
M  V30 3028 H 287.343 -1.6124 -1.00507 0
M  V30 3029 H 285.493 -1.71913 -3.48394 0
M  V30 3030 H 287.165 -4.0228 -2.25762 0
M  V30 3031 H 285.408 -3.81647 -2.06224 0
M  V30 3032 H 286.079 -4.12657 -3.66631 0
M  V30 3033 H 288.555 -2.20459 -3.52898 0
M  V30 3034 H 287.431 -2.52199 -4.87531 0
M  V30 3035 H 287.692 -0.871341 -4.33428 0
M  V30 3036 N 286.751 1.08385 -1.14413 0
M  V30 3037 C 288 1.80153 -0.907076 0
M  V30 3038 C 288.313 1.87176 0.567851 0
M  V30 3039 O 289.519 2.55359 0.922172 0
M  V30 3040 C 287.975 3.23687 -1.57336 0
M  V30 3041 C 287.583 3.24897 -3.08457 0
M  V30 3042 C 289.327 4.00136 -1.41744 0
M  V30 3043 C 287.234 4.6302 -3.67921 0
M  V30 3044 H 286.164 0.675139 -0.335714 0
M  V30 3045 H 288.815 1.21733 -1.37307 0
M  V30 3046 H 287.197 3.82234 -1.03505 0
M  V30 3047 H 288.371 2.76055 -3.68958 0
M  V30 3048 H 286.686 2.61943 -3.2369 0
M  V30 3049 H 289.283 5.02201 -1.83572 0
M  V30 3050 H 289.626 4.14709 -0.363576 0
M  V30 3051 H 290.159 3.48058 -1.92614 0
M  V30 3052 H 286.898 4.5365 -4.73161 0
M  V30 3053 H 286.418 5.12143 -3.12201 0
M  V30 3054 H 288.097 5.31994 -3.68227 0
M  V30 3055 N 288.23 0.939286 1.26551 0
M  V30 3056 C 289.477 0.585847 1.9384 0
M  V30 3057 C 289.805 -0.874784 1.73718 0
M  V30 3058 O 289.06 -1.64092 1.06642 0
M  V30 3059 C 289.359 0.872106 3.46596 0
M  V30 3060 C 289.025 2.31632 3.86856 0
M  V30 3061 C 287.687 2.71111 3.97558 0
M  V30 3062 C 290.039 3.25494 4.07066 0
M  V30 3063 C 287.367 4.03553 4.25866 0
M  V30 3064 C 289.719 4.57531 4.36862 0
M  V30 3065 C 288.383 4.96828 4.45778 0
M  V30 3066 H 287.653 0.214377 0.709312 0
M  V30 3067 H 290.3 1.18544 1.50398 0
M  V30 3068 H 288.605 0.18996 3.91339 0
M  V30 3069 H 290.302 0.577442 3.96821 0
M  V30 3070 H 286.892 2.00008 3.79071 0
M  V30 3071 H 291.076 2.9619 3.98227 0
M  V30 3072 H 286.332 4.33665 4.30981 0
M  V30 3073 H 290.506 5.30254 4.51446 0
M  V30 3074 H 288.133 5.99482 4.67468 0
M  V30 3075 N 289.708 -1.40897 0.706093 0
M  V30 3076 C 290.956 -2.00657 0.241054 0
M  V30 3077 C 291.277 -1.56241 -1.16678 0
M  V30 3078 O 290.547 -0.79765 -1.78926 0
M  V30 3079 H 289.127 -0.742018 0.0861308 0
M  V30 3080 H 291.789 -1.72372 0.909604 0
M  V30 3081 H 290.885 -3.10958 0.266705 0
M  V30 3082 N 291.186 -0.45159 -1.50991 0
M  V30 3083 C 292.149 0.341117 -2.26647 0
M  V30 3084 C 293.149 0.937422 -1.30649 0
M  V30 3085 O 294.339 0.809644 -1.54241 0
M  V30 3086 C 291.471 1.48398 -3.06905 0
M  V30 3087 H 292.664 -0.322117 -2.98165 0
M  V30 3088 H 290.217 -0.205122 -1.54948 0
M  V30 3089 H 290.952 2.18284 -2.39838 0
M  V30 3090 H 290.737 1.06241 -3.77432 0
M  V30 3091 H 292.227 2.04367 -3.64176 0
M  V30 3092 N 292.664 1.56529 -0.183458 0
M  V30 3093 C 293.594 2.21549 0.737456 0
M  V30 3094 C 294.575 1.17489 1.23005 0
M  V30 3095 O 295.76 1.45959 1.281 0
M  V30 3096 C 292.89 2.86575 1.96194 0
M  V30 3097 C 291.844 3.96778 1.60473 0
M  V30 3098 C 291.17 4.48911 2.90487 0
M  V30 3099 C 292.47 5.15767 0.823497 0
M  V30 3100 H 294.164 2.98761 0.195453 0
M  V30 3101 H 291.71 1.43702 0.0925686 0
M  V30 3102 H 293.663 3.30739 2.61131 0
M  V30 3103 H 292.387 2.06749 2.52828 0
M  V30 3104 H 291.046 3.53286 0.978997 0
M  V30 3105 H 290.694 3.65862 3.45186 0
M  V30 3106 H 290.394 5.23265 2.67335 0
M  V30 3107 H 291.918 4.95771 3.56432 0
M  V30 3108 H 293.332 5.56549 1.37571 0
M  V30 3109 H 291.729 5.96114 0.690551 0
M  V30 3110 H 292.799 4.84574 -0.177782 0
M  V30 3111 N 294.142 -0.090211 1.57342 0
M  V30 3112 C 295.072 -1.10976 2.05443 0
M  V30 3113 C 296.053 -1.41482 0.944284 0
M  V30 3114 O 297.238 -1.51428 1.21586 0
M  V30 3115 C 294.368 -2.42831 2.48295 0
M  V30 3116 C 293.322 -2.26721 3.63018 0
M  V30 3117 C 292.648 -3.63796 3.91863 0
M  V30 3118 C 293.948 -1.7037 4.93732 0
M  V30 3119 H 295.642 -0.709564 2.9087 0
M  V30 3120 H 293.188 -0.339874 1.39932 0
M  V30 3121 H 295.141 -3.14431 2.80555 0
M  V30 3122 H 293.865 -2.84795 1.59873 0
M  V30 3123 H 292.524 -1.57565 3.31012 0
M  V30 3124 H 292.172 -4.03297 3.00601 0
M  V30 3125 H 291.872 -3.53861 4.69101 0
M  V30 3126 H 293.396 -4.36855 4.26603 0
M  V30 3127 H 294.81 -2.31816 5.24342 0
M  V30 3128 H 293.207 -1.71181 5.75167 0
M  V30 3129 H 294.277 -0.663542 4.80339 0
M  V30 3130 N 295.62 -1.53406 -0.361157 0
M  V30 3131 C 297.036 -1.43277 -0.703124 0
M  V30 3132 C 297.236 -0.575384 -1.9311 0
M  V30 3133 O 296.292 -0.0595362 -2.5243 0
M  V30 3134 C 297.605 -2.8653 -0.9122 0
M  V30 3135 C 299.153 -2.96191 -1.01193 0
M  V30 3136 C 299.628 -4.40514 -1.25345 0
M  V30 3137 N 301.119 -4.43962 -1.32105 0
M  V30 3138 C 301.854 -5.52746 -1.5251 0
M  V30 3139 N 301.35 -6.71567 -1.70203 0
M  V30 3140 N 303.143 -5.40331 -1.54916 0
M  V30 3141 H 295.294 -2.07654 0.446475 0
M  V30 3142 H 297.557 -0.937944 0.137715 0
M  V30 3143 H 297.263 -3.51605 -0.0816414 0
M  V30 3144 H 297.137 -3.30441 -1.81903 0
M  V30 3145 H 299.524 -2.31266 -1.83303 0
M  V30 3146 H 299.605 -2.55667 -0.0823929 0
M  V30 3147 H 299.249 -5.06014 -0.437346 0
M  V30 3148 H 299.179 -4.78614 -2.19627 0
M  V30 3149 H 301.67 -3.58332 -1.20028 0
M  V30 3150 H 301.983 -7.50241 -1.85359 0
M  V30 3151 H 300.328 -6.74545 -1.67373 0
M  V30 3152 H 303.519 -4.46465 -1.40663 0
M  V30 3153 H 303.692 -6.25173 -1.70477 0
M  V30 3154 N 297.098 0.621204 -1.44841 0
M  V30 3155 C 298.509 1.20298 -1.42777 0
M  V30 3156 C 298.86 1.95639 -0.148259 0
M  V30 3157 O 297.985 2.02955 0.750892 0
M  V30 3158 C 298.58 2.1882 -2.58657 0
M  V30 3159 C 297.139 2.72403 -2.59756 0
M  V30 3160 C 296.286 1.4757 -2.34773 0
M  V30 3161 H 299.237 0.411297 -1.53278 0
M  V30 3162 H 299.258 3.01607 -2.31977 0
M  V30 3163 H 298.77 1.63957 -3.51766 0
M  V30 3164 H 296.871 3.31242 -1.70615 0
M  V30 3165 H 296.984 3.17765 -3.58556 0
M  V30 3166 H 295.348 1.76051 -1.8406 0
M  V30 3167 H 296.131 0.945954 -3.3001 0
M  V30 3168 N 298.576 1.31904 0.862503 0
M  V30 3169 C 299.825 1.21373 1.61094 0
M  V30 3170 C 300.138 -0.22504 1.94301 0
M  V30 3171 O 301.344 -0.452121 2.67709 0
M  V30 3172 C 299.8 2.12525 2.9045 0
M  V30 3173 C 299.408 3.61441 2.64697 0
M  V30 3174 C 301.152 2.10813 3.68454 0
M  V30 3175 C 299.059 4.44578 3.90006 0
M  V30 3176 H 297.989 0.450705 0.604468 0
M  V30 3177 H 300.64 1.56811 0.953027 0
M  V30 3178 H 299.022 1.69994 3.57656 0
M  V30 3179 H 300.196 4.12264 2.05851 0
M  V30 3180 H 298.511 3.65205 2.00036 0
M  V30 3181 H 301.108 2.70167 4.61426 0
M  V30 3182 H 301.451 1.09713 4.01583 0
M  V30 3183 H 301.984 2.51583 3.08141 0
M  V30 3184 H 298.723 5.46461 3.62023 0
M  V30 3185 H 298.243 3.98508 4.48276 0
M  V30 3186 H 299.922 4.57176 4.5782 0
M  V30 3187 N 300.054 -1.07777 1.14986 0
M  V30 3188 C 301.301 -1.8029 0.922056 0
M  V30 3189 C 301.629 -1.86531 -0.55105 0
M  V30 3190 O 300.884 -1.34189 -1.42449 0
M  V30 3191 C 301.183 -3.25495 1.47608 0
M  V30 3192 C 300.849 -3.39361 2.96893 0
M  V30 3193 C 299.511 -3.42852 3.37647 0
M  V30 3194 C 301.863 -3.42512 3.92854 0
M  V30 3195 C 299.191 -3.47094 4.73015 0
M  V30 3196 C 301.543 -3.4829 5.28088 0
M  V30 3197 C 300.207 -3.50058 5.68345 0
M  V30 3198 H 299.477 -0.659727 0.337404 0
M  V30 3199 H 302.124 -1.26854 1.43459 0
M  V30 3200 H 300.429 -3.81683 0.88463 0
M  V30 3201 H 302.126 -3.80168 1.27568 0
M  V30 3202 H 298.716 -3.37339 2.64387 0
M  V30 3203 H 302.9 -3.3904 3.62444 0
M  V30 3204 H 298.156 -3.46758 5.03556 0
M  V30 3205 H 302.33 -3.49675 6.02246 0
M  V30 3206 H 299.957 -3.53097 6.73221 0
M  V30 3207 N 301.532 -0.945985 -1.26051 0
M  V30 3208 C 302.781 -0.591836 -1.92822 0
M  V30 3209 C 303.094 0.873956 -1.7499 0
M  V30 3210 O 304.3 1.33769 -2.36259 0
M  V30 3211 C 302.756 -1.00776 -3.45503 0
M  V30 3212 C 302.364 -2.4955 -3.7206 0
M  V30 3213 C 304.108 -0.725735 -4.1825 0
M  V30 3214 C 302.015 -2.84988 -5.18205 0
M  V30 3215 H 300.945 -0.217635 -0.721908 0
M  V30 3216 H 303.596 -1.14927 -1.43052 0
M  V30 3217 H 301.978 -0.378812 -3.94184 0
M  V30 3218 H 303.152 -3.1739 -3.34066 0
M  V30 3219 H 301.467 -2.75133 -3.12555 0
M  V30 3220 H 304.064 -0.966771 -5.25887 0
M  V30 3221 H 304.407 0.337639 -4.14929 0
M  V30 3222 H 304.94 -1.31463 -3.7545 0
M  V30 3223 H 301.679 -3.90307 -5.26631 0
M  V30 3224 H 301.199 -2.21813 -5.57278 0
M  V30 3225 H 302.878 -2.73712 -5.86252 0
M  V30 3226 N 303.011 1.40521 -0.713556 0
M  V30 3227 C 304.427 1.54839 -0.386907 0
M  V30 3228 C 304.627 1.68532 1.1045 0
M  V30 3229 O 303.683 1.67377 1.89053 0
M  V30 3230 C 304.996 2.77792 -1.15118 0
M  V30 3231 C 306.544 2.91607 -1.13729 0
M  V30 3232 C 307.019 4.1747 -1.88368 0
M  V30 3233 N 308.51 4.24466 -1.85427 0
M  V30 3234 C 309.245 5.20755 -2.40004 0
M  V30 3235 N 308.741 6.22965 -3.03129 0
M  V30 3236 N 310.534 5.1282 -2.30158 0
M  V30 3237 H 302.685 1.29879 -1.68063 0
M  V30 3238 H 304.948 0.627896 -0.710247 0
M  V30 3239 H 304.654 2.73944 -2.20561 0
M  V30 3240 H 304.528 3.6984 -0.741477 0
M  V30 3241 H 306.915 2.94959 -0.0910608 0
M  V30 3242 H 306.996 2.00682 -1.5862 0
M  V30 3243 H 306.64 4.1488 -2.9298 0
M  V30 3244 H 306.57 5.074 -1.40898 0
M  V30 3245 H 309.061 3.51241 -1.3942 0
M  V30 3246 H 309.374 6.92859 -3.42295 0
M  V30 3247 H 307.719 6.23415 -3.07212 0
M  V30 3248 H 310.91 4.31899 -1.80501 0
M  V30 3249 H 311.083 5.87689 -2.72993 0
M  V30 3250 N 304.489 0.459591 1.5075 0
M  V30 3251 C 305.737 -0.0991532 2.01857 0
M  V30 3252 C 306.058 -1.41247 1.34441 0
M  V30 3253 O 305.328 -1.89775 0.486022 0
M  V30 3254 H 303.908 -0.039633 0.745948 0
M  V30 3255 H 306.57 0.607387 1.85194 0
M  V30 3256 H 305.666 -0.258998 3.11023 0
M  V30 3257 N 305.967 -1.56429 0.191757 0
M  V30 3258 C 307.378 -1.83912 -0.321428 0
M  V30 3259 C 307.729 -1.11231 -1.61623 0
M  V30 3260 O 306.854 -0.37202 -2.13178 0
M  V30 3261 C 307.449 -3.33624 -0.589961 0
M  V30 3262 C 306.008 -3.6153 -1.04753 0
M  V30 3263 C 305.155 -2.7714 -0.0943327 0
M  V30 3264 H 308.106 -1.53161 0.415612 0
M  V30 3265 H 308.127 -3.52213 -1.43966 0
M  V30 3266 H 307.639 -3.86495 0.352588 0
M  V30 3267 H 305.74 -3.14089 -2.00447 0
M  V30 3268 H 305.853 -4.69737 -0.942549 0
M  V30 3269 H 304.217 -2.47638 -0.595589 0
M  V30 3270 H 305 -3.32799 0.842601 0
M  V30 3271 N 307.445 0.0818655 -1.57387 0
M  V30 3272 C 308.408 1.08265 -2.02018 0
M  V30 3273 C 309.408 1.32183 -0.915664 0
M  V30 3274 O 310.598 1.28073 -1.18081 0
M  V30 3275 C 307.73 2.42871 -2.39221 0
M  V30 3276 H 308.923 0.698204 -2.91659 0
M  V30 3277 H 306.476 0.327303 -1.52835 0
M  V30 3278 H 307.211 2.86167 -1.52575 0
M  V30 3279 H 306.996 2.26855 -3.19811 0
M  V30 3280 H 308.486 3.14826 -2.74362 0
M  V30 3281 N 308.923 1.53595 0.353017 0
M  V30 3282 C 310.148 1.7462 1.11904 0
M  V30 3283 C 310.573 0.479721 1.8188 0
M  V30 3284 O 309.931 -0.567066 1.72204 0
M  V30 3285 C 309.979 2.92029 2.11545 0
M  V30 3286 O 309.083 2.61516 3.18878 0
M  V30 3287 H 308.424 0.579531 0.324099 0
M  V30 3288 H 310.954 2.00525 0.406301 0
M  V30 3289 H 310.964 3.18551 2.5493 0
M  V30 3290 H 309.639 3.83888 1.60008 0
M  V30 3291 H 308.216 2.45852 2.80377 0
M  V30 3292 N 310.401 -0.613514 1.45168 0
M  V30 3293 C 311.812 -1.19539 1.43413 0
M  V30 3294 C 312.163 -1.95558 0.158632 0
M  V30 3295 O 311.288 -2.0335 -0.740119 0
M  V30 3296 C 311.883 -2.17445 2.59813 0
M  V30 3297 C 310.442 -2.71022 2.61197 0
M  V30 3298 C 309.589 -1.46323 2.35552 0
M  V30 3299 H 312.54 -0.403163 1.53494 0
M  V30 3300 H 312.561 -3.00373 2.33574 0
M  V30 3301 H 312.073 -1.62089 3.52631 0
M  V30 3302 H 310.174 -3.30332 1.7237 0
M  V30 3303 H 310.287 -3.15859 3.60236 0
M  V30 3304 H 308.651 -1.75072 1.84992 0
M  V30 3305 H 309.434 -0.92844 3.30507 0
M  V30 3306 N 311.879 -1.3236 -0.855495 0
M  V30 3307 C 312.826 -1.21225 -1.964 0
M  V30 3308 C 313.796 -0.0946204 -1.6583 0
M  V30 3309 O 314.981 -0.27002 -1.8888 0
M  V30 3310 C 312.121 -0.940419 -3.32039 0
M  V30 3311 C 311.234 -2.14276 -3.75113 0
M  V30 3312 C 310.369 -1.80648 -4.9954 0
M  V30 3313 C 309.408 -2.97208 -5.35102 0
M  V30 3314 N 308.545 -2.63678 -6.50706 0
M  V30 3315 H 313.385 -2.16042 -2.05255 0
M  V30 3316 H 310.922 -1.07451 -1.00463 0
M  V30 3317 H 312.88 -0.763311 -4.10158 0
M  V30 3318 H 311.51 -0.0290413 -3.22787 0
M  V30 3319 H 310.562 -2.43017 -2.92655 0
M  V30 3320 H 311.874 -3.01468 -3.97389 0
M  V30 3321 H 311.028 -1.59484 -5.85363 0
M  V30 3322 H 309.767 -0.906678 -4.79198 0
M  V30 3323 H 308.772 -3.19004 -4.47791 0
M  V30 3324 H 309.997 -3.87918 -5.57401 0
M  V30 3325 H 307.943 -1.76238 -6.31883 0
M  V30 3326 H 307.86 -3.444 -6.72997 0
M  V30 3327 H 309.128 -2.45942 -7.39684 0
M  V30 3328 N 313.357 1.07166 -1.15556 0
M  V30 3329 C 314.606 1.79181 -0.926132 0
M  V30 3330 C 314.919 1.87768 0.547967 0
M  V30 3331 O 316.125 2.56323 0.895036 0
M  V30 3332 C 314.581 3.22 -1.60761 0
M  V30 3333 C 314.189 3.21607 -3.11886 0
M  V30 3334 C 315.933 3.9861 -1.4598 0
M  V30 3335 C 313.84 4.59092 -3.72812 0
M  V30 3336 H 312.77 0.67154 -0.342856 0
M  V30 3337 H 315.421 1.2027 -1.3859 0
M  V30 3338 H 313.803 3.81115 -1.07553 0
M  V30 3339 H 314.977 2.72127 -3.71865 0
M  V30 3340 H 313.292 2.58495 -3.2645 0
M  V30 3341 H 315.889 5.00225 -1.88888 0
M  V30 3342 H 316.232 4.143 -0.407541 0
M  V30 3343 H 316.765 3.45996 -1.96295 0
M  V30 3344 H 313.504 4.48606 -4.77946 0
M  V30 3345 H 313.024 5.08803 -3.17616 0
M  V30 3346 H 314.703 5.28059 -3.73848 0
M  V30 3347 N 314.835 0.952656 1.25548 0
M  V30 3348 C 316.081 0.607272 1.93494 0
M  V30 3349 C 316.414 -0.853245 1.74452 0
M  V30 3350 O 315.689 -1.61194 1.08843 0
M  V30 3351 C 315.972 0.96435 3.46947 0
M  V30 3352 C 315.825 2.48045 3.75225 0
M  V30 3353 C 317.144 0.487987 4.37386 0
M  V30 3354 H 314.263 0.222096 0.702739 0
M  V30 3355 H 316.905 1.18895 1.48203 0
M  V30 3356 H 315.055 0.469361 3.85654 0
M  V30 3357 H 316.727 3.04905 3.46166 0
M  V30 3358 H 314.97 2.919 3.209 0
M  V30 3359 H 315.641 2.6808 4.82532 0
M  V30 3360 H 318.117 0.912558 4.0597 0
M  V30 3361 H 316.993 0.766547 5.43521 0
M  V30 3362 H 317.254 -0.612063 4.37843 0
M  V30 3363 N 316.313 -1.40141 0.720998 0
M  V30 3364 C 317.562 -2.0002 0.259804 0
M  V30 3365 C 317.875 -1.57839 -1.15526 0
M  V30 3366 O 319.081 -2.10455 -1.71525 0
M  V30 3367 C 317.537 -3.57516 0.413566 0
M  V30 3368 C 317.145 -4.08667 1.83562 0
M  V30 3369 C 318.889 -4.24498 0.0134387 0
M  V30 3370 C 316.796 -5.58686 1.93968 0
M  V30 3371 H 315.726 -0.748195 0.0933806 0
M  V30 3372 H 318.377 -1.60313 0.892866 0
M  V30 3373 H 316.759 -3.9495 -0.288169 0
M  V30 3374 H 317.933 -3.82598 2.56817 0
M  V30 3375 H 316.248 -3.543 2.1877 0
M  V30 3376 H 318.845 -5.34654 0.0703954 0
M  V30 3377 H 319.188 -4.03375 -1.02927 0
M  V30 3378 H 319.721 -3.92188 0.665815 0
M  V30 3379 H 316.46 -5.8467 2.96379 0
M  V30 3380 H 315.98 -5.86602 1.25131 0
M  V30 3381 H 317.659 -6.23875 1.71431 0
M  V30 3382 N 317.792 -0.46758 -1.50504 0
M  V30 3383 C 318.724 0.364655 -2.26281 0
M  V30 3384 C 319.737 0.960151 -1.31472 0
M  V30 3385 O 320.926 0.849153 -1.57008 0
M  V30 3386 C 318.026 1.52509 -3.02645 0
M  V30 3387 C 317.199 1.04302 -4.24782 0
M  V30 3388 C 316.258 2.07709 -4.8347 0
M  V30 3389 O 315.284 1.65913 -5.44483 0
M  V30 3390 N 316.486 3.40485 -4.70159 0
M  V30 3391 H 319.251 -0.28495 -2.98342 0
M  V30 3392 H 316.812 -0.298163 -1.59131 0
M  V30 3393 H 318.804 2.21371 -3.38787 0
M  V30 3394 H 317.374 2.07945 -2.33404 0
M  V30 3395 H 316.594 0.180393 -3.93787 0
M  V30 3396 H 317.882 0.698798 -5.03978 0
M  V30 3397 H 317.28 3.77155 -4.21629 0
M  V30 3398 H 315.837 4.05156 -5.1058 0
M  V30 3399 N 319.27 1.56325 -0.20005 0
M  V30 3400 C 320.18 2.22931 0.730668 0
M  V30 3401 C 321.196 1.22997 1.23076 0
M  V30 3402 O 322.372 1.55748 1.27689 0
M  V30 3403 C 319.437 2.87948 1.93098 0
M  V30 3404 C 318.498 4.03166 1.47497 0
M  V30 3405 C 317.731 4.65073 2.61807 0
M  V30 3406 O 317.954 4.25913 3.79413 0
M  V30 3407 O 316.888 5.54452 2.34237 0
M  V30 3408 H 320.714 3.03084 0.193391 0
M  V30 3409 H 318.299 1.49371 0.0294621 0
M  V30 3410 H 320.181 3.29063 2.6324 0
M  V30 3411 H 318.856 2.10771 2.45677 0
M  V30 3412 H 317.763 3.66664 0.742201 0
M  V30 3413 H 319.096 4.82022 0.995796 0
M  V30 3414 N 320.748 -0.0735177 1.57428 0
M  V30 3415 C 321.696 -1.10628 2.04607 0
M  V30 3416 C 322.69 -1.40181 0.951088 0
M  V30 3417 O 323.896 -1.39608 1.1362 0
M  V30 3418 H 320.271 -0.374088 0.652351 0
M  V30 3419 H 322.242 -0.682218 2.90497 0
M  V30 3420 C 320.991 -2.41212 2.50423 0
M  V30 3421 H 320.314 -2.19322 3.34272 0
M  V30 3422 H 321.754 -3.11927 2.87189 0
M  V30 3423 C 320.213 -3.0705 1.38644 0
M  V30 3424 O 320.743 -3.95056 0.727582 0
M  V30 3425 N 318.949 -2.67645 1.132 0
M  V30 3426 H 318.496 -1.96169 1.66959 0
M  V30 3427 H 318.454 -3.1202 0.386147 0
M  V30 3428 N 322.226 -1.5378 -0.344866 0
M  V30 3429 C 323.642 -1.44015 -0.687888 0
M  V30 3430 C 323.842 -0.595834 -1.92489 0
M  V30 3431 O 322.898 -0.0863064 -2.52352 0
M  V30 3432 C 324.211 -2.87481 -0.881758 0
M  V30 3433 C 325.759 -2.97247 -0.980459 0
M  V30 3434 C 326.234 -4.41819 -1.20665 0
M  V30 3435 N 327.725 -4.45339 -1.27389 0
M  V30 3436 C 328.46 -5.54333 -1.46639 0
M  V30 3437 N 327.956 -6.73335 -1.63071 0
M  V30 3438 N 329.749 -5.41944 -1.49176 0
M  V30 3439 H 321.9 -2.07169 0.468475 0
M  V30 3440 H 324.163 -0.93643 0.147655 0
M  V30 3441 H 323.869 -3.51672 -0.0443444 0
M  V30 3442 H 323.743 -3.32352 -1.78388 0
M  V30 3443 H 326.13 -2.33197 -1.8084 0
M  V30 3444 H 326.211 -2.5574 -0.0552713 0
M  V30 3445 H 325.855 -5.06449 -0.383652 0
M  V30 3446 H 325.785 -4.80917 -2.14539 0
M  V30 3447 H 328.276 -3.59585 -1.1622 0
M  V30 3448 H 328.589 -7.52165 -1.77391 0
M  V30 3449 H 326.934 -6.76282 -1.60209 0
M  V30 3450 H 330.125 -4.47932 -1.3592 0
M  V30 3451 H 330.298 -6.26946 -1.63837 0
M  V30 3452 N 323.704 0.605807 -1.45491 0
M  V30 3453 C 324.651 1.7164 -1.54299 0
M  V30 3454 C 325.621 1.61486 -0.388761 0
M  V30 3455 O 326.806 1.81039 -0.602445 0
M  V30 3456 C 323.946 3.09953 -1.51734 0
M  V30 3457 C 323.059 3.309 -2.77721 0
M  V30 3458 C 322.194 4.59329 -2.66816 0
M  V30 3459 C 321.233 4.7354 -3.87848 0
M  V30 3460 N 320.37 5.9327 -3.75467 0
M  V30 3461 H 325.21 1.63449 -2.49176 0
M  V30 3462 H 322.747 0.796957 -1.23641 0
M  V30 3463 H 324.705 3.89977 -1.48235 0
M  V30 3464 H 323.335 3.17098 -0.604068 0
M  V30 3465 H 322.387 2.44639 -2.913 0
M  V30 3466 H 323.699 3.37274 -3.67488 0
M  V30 3467 H 322.853 5.4755 -2.61292 0
M  V30 3468 H 321.592 4.55355 -1.74651 0
M  V30 3469 H 320.597 3.83741 -3.93729 0
M  V30 3470 H 321.822 4.79309 -4.81082 0
M  V30 3471 H 319.768 5.90338 -2.86072 0
M  V30 3472 H 319.685 6.00811 -4.5887 0
M  V30 3473 H 320.953 6.83984 -3.73879 0
M  V30 3474 N 325.182 1.32811 0.848464 0
M  V30 3475 C 326.092 1.24278 1.98978 0
M  V30 3476 C 327.108 0.155176 1.73307 0
M  V30 3477 O 328.284 0.376999 1.9784 0
M  V30 3478 C 325.349 0.972444 3.32783 0
M  V30 3479 C 324.41 2.14911 3.71634 0
M  V30 3480 C 323.643 1.89157 4.99054 0
M  V30 3481 O 323.866 0.837165 5.64223 0
M  V30 3482 O 322.8 2.75433 5.35183 0
M  V30 3483 H 326.626 2.20238 2.09115 0
M  V30 3484 H 324.211 1.12762 0.980052 0
M  V30 3485 H 326.093 0.838432 4.12975 0
M  V30 3486 H 324.768 0.043051 3.23671 0
M  V30 3487 H 323.675 2.33862 2.91992 0
M  V30 3488 H 325.008 3.06151 3.85399 0
M  V30 3489 N 326.66 -1.06551 1.16123 0
M  V30 3490 C 327.623 -2.12132 0.867906 0
M  V30 3491 C 328.623 -1.60224 -0.135944 0
M  V30 3492 O 329.813 -1.73943 0.0946422 0
M  V30 3493 C 326.945 -3.396 0.297419 0
M  V30 3494 H 328.138 -2.39586 1.80385 0
M  V30 3495 H 325.691 -1.22574 0.969812 0
M  V30 3496 H 326.426 -3.17794 -0.64633 0
M  V30 3497 H 326.211 -3.78581 1.02073 0
M  V30 3498 H 327.701 -4.17455 0.110052 0
M  V30 3499 N 328.138 -0.959301 -1.25041 0
M  V30 3500 C 329.07 -0.440543 -2.24926 0
M  V30 3501 C 330.083 0.446131 -1.56568 0
M  V30 3502 O 331.272 0.253657 -1.76689 0
M  V30 3503 C 328.372 0.38412 -3.36716 0
M  V30 3504 C 327.545 -0.490658 -4.34639 0
M  V30 3505 C 326.604 0.276587 -5.25473 0
M  V30 3506 O 325.63 -0.326614 -5.68262 0
M  V30 3507 N 326.832 1.56844 -5.5891 0
M  V30 3508 H 329.597 -1.29931 -2.70071 0
M  V30 3509 H 327.158 -0.830181 -1.38995 0
M  V30 3510 H 329.15 0.905228 -3.94446 0
M  V30 3511 H 327.72 1.14377 -2.90924 0
M  V30 3512 H 326.94 -1.19282 -3.7572 0
M  V30 3513 H 328.228 -1.08756 -4.97041 0
M  V30 3514 H 327.626 2.08036 -5.26059 0
M  V30 3515 H 326.183 2.03541 -6.19205 0
M  V30 3516 N 329.616 1.39756 -0.72842 0
M  V30 3517 C 330.846 2.04651 -0.283117 0
M  V30 3518 C 331.254 1.5502 1.08469 0
M  V30 3519 O 330.597 0.707343 1.69536 0
M  V30 3520 C 330.659 3.58947 -0.199309 0
M  V30 3521 C 330.323 4.31525 -1.5045 0
M  V30 3522 C 331.32 4.5861 -2.44894 0
M  V30 3523 C 329.005 4.70195 -1.76698 0
M  V30 3524 C 330.999 5.23366 -3.63822 0
M  V30 3525 C 328.686 5.3468 -2.95906 0
M  V30 3526 C 329.684 5.61198 -3.89289 0
M  V30 3527 O 329.372 6.24347 -5.06404 0
M  V30 3528 H 329.104 0.664777 -0.122666 0
M  V30 3529 H 331.658 1.79913 -0.990987 0
M  V30 3530 H 329.888 3.82556 0.56461 0
M  V30 3531 H 331.577 4.0534 0.213125 0
M  V30 3532 H 332.343 4.29187 -2.25883 0
M  V30 3533 H 328.222 4.48916 -1.04859 0
M  V30 3534 H 331.766 5.4398 -4.36728 0
M  V30 3535 H 327.663 5.63524 -3.14819 0
M  V30 3536 H 328.431 6.42842 -5.06652 0
M  V30 3537 N 331.094 0.475555 1.50254 0
M  V30 3538 C 332.027 -0.362381 2.25304 0
M  V30 3539 C 333.005 -0.992393 1.28803 0
M  V30 3540 O 334.189 -1.02746 1.58036 0
M  V30 3541 C 331.316 -1.50813 3.03271 0
M  V30 3542 C 330.362 -0.995044 4.1473 0
M  V30 3543 S 331.195 0.0938436 5.35418 0
M  V30 3544 C 332.351 -1.05567 6.16933 0
M  V30 3545 H 332.584 0.274686 2.96028 0
M  V30 3546 H 330.117 0.260495 1.52187 0
M  V30 3547 H 332.075 -2.16476 3.48781 0
M  V30 3548 H 330.736 -2.11672 2.32064 0
M  V30 3549 H 329.929 -1.85293 4.68703 0
M  V30 3550 H 329.531 -0.416052 3.71679 0
M  V30 3551 H 331.823 -1.96636 6.48337 0
M  V30 3552 H 332.766 -0.555109 7.05921 0
M  V30 3553 H 333.174 -1.31151 5.49053 0
M  V30 3554 N 332.573 -1.56217 0.208337 0
M  V30 3555 C 333.503 -2.22694 -0.702116 0
M  V30 3556 C 334.484 -1.19432 -1.2112 0
M  V30 3557 O 335.669 -1.47978 -1.25762 0
M  V30 3558 C 332.799 -2.8966 -1.9161 0
M  V30 3559 C 331.753 -3.9928 -1.5414 0
M  V30 3560 C 331.079 -4.53476 -2.83308 0
M  V30 3561 C 332.379 -5.17012 -0.741339 0
M  V30 3562 H 334.073 -2.99034 -0.147898 0
M  V30 3563 H 331.619 -1.43831 -0.0696951 0
M  V30 3564 H 333.572 -3.34852 -2.55836 0
M  V30 3565 H 332.296 -2.10746 -2.49507 0
M  V30 3566 H 330.955 -3.54799 -0.922668 0
M  V30 3567 H 330.603 -3.71308 -3.39322 0
M  V30 3568 H 330.303 -5.27451 -2.58976 0
M  V30 3569 H 331.827 -5.01378 -3.485 0
M  V30 3570 H 333.241 -5.58667 -1.28699 0
M  V30 3571 H 331.638 -5.97137 -0.595627 0
M  V30 3572 H 332.708 -4.8423 0.254851 0
M  V30 3573 N 334.051 0.0651679 -1.57465 0
M  V30 3574 C 334.961 1.09448 -2.07505 0
M  V30 3575 C 335.977 1.41974 -1.00595 0
M  V30 3576 O 337.153 1.52018 -1.32107 0
M  V30 3577 C 334.218 2.38689 -2.51453 0
M  V30 3578 C 333.279 2.13073 -3.72691 0
M  V30 3579 C 332.512 3.36152 -4.14533 0
M  V30 3580 O 332.735 4.45517 -3.56189 0
M  V30 3581 O 331.669 3.23974 -5.07272 0
M  V30 3582 H 335.495 0.69935 -2.95538 0
M  V30 3583 H 333.08 0.279752 -1.46757 0
M  V30 3584 H 334.962 3.14736 -2.80212 0
M  V30 3585 H 333.637 2.77568 -1.66546 0
M  V30 3586 H 332.544 1.34709 -3.49005 0
M  V30 3587 H 333.877 1.79071 -4.5847 0
M  V30 3588 N 335.529 1.53961 0.336706 0
M  V30 3589 C 336.477 1.83136 1.43401 0
M  V30 3590 C 337.471 0.702313 1.54156 0
M  V30 3591 O 338.677 0.885765 1.56698 0
M  V30 3592 H 335.052 0.580309 0.478273 0
M  V30 3593 H 337.023 2.74925 1.16012 0
M  V30 3594 C 335.772 2.06385 2.79822 0
M  V30 3595 H 335.095 2.92718 2.72316 0
M  V30 3596 H 336.535 2.30761 3.55704 0
M  V30 3597 C 334.994 0.851414 3.25964 0
M  V30 3598 O 335.524 0.0541904 4.01663 0
M  V30 3599 N 333.73 0.66672 2.82848 0
M  V30 3600 H 333.277 1.31665 2.21409 0
M  V30 3601 H 333.235 -0.143032 3.14074 0
M  V30 3602 N 337.007 -0.598083 1.45811 0
M  V30 3603 C 337.917 -1.73632 1.57763 0
M  V30 3604 C 338.933 -1.67763 0.461676 0
M  V30 3605 O 340.109 -1.87949 0.723685 0
M  V30 3606 C 337.174 -3.10114 1.55018 0
M  V30 3607 C 336.235 -3.27364 2.77726 0
M  V30 3608 C 335.468 -4.57334 2.75102 0
M  V30 3609 O 335.691 -5.40258 1.8297 0
M  V30 3610 O 334.625 -4.77502 3.66437 0
M  V30 3611 H 338.451 -1.66498 2.53992 0
M  V30 3612 H 336.036 -0.763308 1.28429 0
M  V30 3613 H 337.918 -3.9141 1.56129 0
M  V30 3614 H 336.593 -3.17718 0.619431 0
M  V30 3615 H 335.5 -2.45619 2.82174 0
M  V30 3616 H 336.833 -3.24641 3.69958 0
M  V30 3617 N 338.485 -1.33259 -0.841409 0
M  V30 3618 C 339.432 -1.23302 -1.95103 0
M  V30 3619 C 340.402 -0.112204 -1.65721 0
M  V30 3620 O 341.587 -0.290038 -1.88583 0
M  V30 3621 C 338.727 -0.975583 -3.31023 0
M  V30 3622 C 337.84 -2.18243 -3.72819 0
M  V30 3623 C 336.975 -1.85936 -4.97595 0
M  V30 3624 C 336.014 -3.02866 -5.3192 0
M  V30 3625 N 335.151 -2.70565 -6.47873 0
M  V30 3626 H 339.991 -2.18207 -2.02952 0
M  V30 3627 H 337.528 -1.0851 -0.993173 0
M  V30 3628 H 339.486 -0.80677 -4.09325 0
M  V30 3629 H 338.116 -0.0632755 -3.22738 0
M  V30 3630 H 337.168 -2.46107 -2.90061 0
M  V30 3631 H 338.48 -3.05666 -3.94169 0
M  V30 3632 H 337.634 -1.65684 -5.83638 0
M  V30 3633 H 336.373 -0.957452 -4.78209 0
M  V30 3634 H 335.378 -3.23736 -4.44382 0
M  V30 3635 H 336.603 -3.93809 -5.53255 0
M  V30 3636 H 334.549 -1.8293 -6.29978 0
M  V30 3637 H 334.466 -3.51519 -6.69306 0
M  V30 3638 H 335.734 -2.53774 -7.37034 0
M  V30 3639 N 339.963 1.05934 -1.16686 0
M  V30 3640 C 341.191 1.8249 -0.974929 0
M  V30 3641 C 341.606 1.82679 0.476861 0
M  V30 3642 O 340.963 1.2486 1.33103 0
M  V30 3643 C 341.014 3.28943 -1.49929 0
M  V30 3644 O 340.735 3.28886 -2.89423 0
M  V30 3645 C 342.236 4.22215 -1.35089 0
M  V30 3646 H 339.456 0.575295 -0.345365 0
M  V30 3647 H 342 1.33631 -1.548 0
M  V30 3648 H 340.155 3.751 -0.968423 0
M  V30 3649 H 340.569 4.20493 -3.13506 0
M  V30 3650 H 342.043 5.22987 -1.76603 0
M  V30 3651 H 342.52 4.38195 -0.296935 0
M  V30 3652 H 343.126 3.81907 -1.87155 0
M  V30 3653 N 341.441 0.965919 1.2453 0
M  V30 3654 C 342.857 0.67216 1.44756 0
M  V30 3655 C 343.057 -0.766609 1.86347 0
M  V30 3656 O 342.113 -1.5407 2.00047 0
M  V30 3657 C 343.426 1.65473 2.51076 0
M  V30 3658 C 344.974 1.66716 2.64905 0
M  V30 3659 C 345.449 2.63766 3.74421 0
M  V30 3660 N 346.94 2.62198 3.81846 0
M  V30 3661 C 347.675 3.33966 4.66106 0
M  V30 3662 N 347.171 4.15245 5.54566 0
M  V30 3663 N 348.964 3.22799 4.60171 0
M  V30 3664 H 341.115 1.89553 0.958293 0
M  V30 3665 H 343.378 0.815979 0.482579 0
M  V30 3666 H 343.084 2.68296 2.27399 0
M  V30 3667 H 342.958 1.4261 3.49202 0
M  V30 3668 H 345.345 0.646057 2.87941 0
M  V30 3669 H 345.426 1.93642 1.67142 0
M  V30 3670 H 345.07 3.6601 3.52135 0
M  V30 3671 H 345 2.34121 4.71694 0
M  V30 3672 H 347.491 2.032 3.18619 0
M  V30 3673 H 347.804 4.66898 6.15814 0
M  V30 3674 H 346.149 4.1934 5.54237 0
M  V30 3675 H 349.34 2.58764 3.90075 0
M  V30 3676 H 349.513 3.78994 5.25612 0
M  V30 3677 N 342.919 -1.39368 0.735821 0
M  V30 3678 C 344.147 -2.04795 0.294393 0
M  V30 3679 C 344.562 -1.55478 -1.07107 0
M  V30 3680 O 343.919 -0.720038 -1.67695 0
M  V30 3681 C 343.97 -3.6035 0.288071 0
M  V30 3682 O 343.691 -4.07852 1.59963 0
M  V30 3683 C 345.192 -4.42976 -0.169422 0
M  V30 3684 H 342.412 -0.658571 0.128551 0
M  V30 3685 H 344.956 -1.78399 0.999701 0
M  V30 3686 H 343.111 -3.85645 -0.368355 0
M  V30 3687 H 343.525 -5.02181 1.51375 0
M  V30 3688 H 344.999 -5.51864 -0.122687 0
M  V30 3689 H 345.476 -4.22068 -1.21472 0
M  V30 3690 H 346.082 -4.22832 0.457469 0
M  V30 3691 N 344.397 -0.483516 -1.5 0
M  V30 3692 C 345.622 0.0667119 -2.07293 0
M  V30 3693 C 346.047 1.3164 -1.3436 0
M  V30 3694 O 345.405 1.76945 -0.394987 0
M  V30 3695 C 345.453 0.321126 -3.59167 0
M  V30 3696 O 344.557 1.39927 -3.87936 0
M  V30 3697 H 343.898 -0.0184758 -0.663743 0
M  V30 3698 H 346.428 -0.678125 -1.93035 0
M  V30 3699 H 346.438 0.557906 -4.04168 0
M  V30 3700 H 345.113 -0.592007 -4.11665 0
M  V30 3701 H 343.69 1.14882 -3.54763 0
M  V30 3702 N 345.875 1.56104 -0.216619 0
M  V30 3703 C 347.124 1.97348 0.416744 0
M  V30 3704 C 347.437 1.10715 1.6125 0
M  V30 3705 O 348.643 1.41836 2.31506 0
M  V30 3706 C 347.099 3.51059 0.792835 0
M  V30 3707 C 346.707 4.46387 -0.379828 0
M  V30 3708 C 348.451 4.01026 1.39208 0
M  V30 3709 C 346.358 5.91397 0.0184223 0
M  V30 3710 H 345.288 0.736942 0.159475 0
M  V30 3711 H 347.939 1.80827 -0.31205 0
M  V30 3712 H 346.321 3.63162 1.57891 0
M  V30 3713 H 347.495 4.46029 -1.15737 0
M  V30 3714 H 345.81 4.06734 -0.891979 0
M  V30 3715 H 348.407 5.0686 1.70286 0
M  V30 3716 H 348.75 3.46587 2.30614 0
M  V30 3717 H 349.283 3.92125 0.669537 0
M  V30 3718 H 346.022 6.49807 -0.862002 0
M  V30 3719 H 345.542 5.94961 0.760384 0
M  V30 3720 H 347.221 6.45455 0.446818 0
M  V30 3721 N 347.353 -0.0568162 1.57498 0
M  V30 3722 C 348.63 -0.786954 1.79071 0
M  V30 3723 C 349.01 -1.95028 0.80792 0
M  V30 3724 O 348.358 -2.27968 -0.155858 0
M  V30 3725 C 348.568 -1.24594 3.26002 0
M  V30 3726 C 349.916 -1.67323 3.90241 0
M  V30 3727 O 350.94 -1.34124 3.29984 0
M  V30 3728 O 349.799 -2.28842 4.9628 0
M  V30 3729 H 346.893 -0.378262 0.735423 0
M  V30 3730 H 349.439 -0.035734 1.69662 0
M  V30 3731 H 348.211 -0.41423 3.89101 0
M  V30 3732 H 347.834 -2.05803 3.40192 0
M  V30 3733 N 348.832 -1.54138 -0.328536 0
M  V30 3734 C 350.057 -1.76378 -1.09112 0
M  V30 3735 C 350.482 -0.508596 -1.81094 0
M  V30 3736 O 349.84 0.539598 -1.73084 0
M  V30 3737 C 349.888 -2.95358 -2.06872 0
M  V30 3738 O 348.992 -2.66556 -3.14677 0
M  V30 3739 H 348.333 -0.584614 -0.314838 0
M  V30 3740 H 350.863 -2.01146 -0.374348 0
M  V30 3741 H 350.873 -3.22566 -2.4983 0
M  V30 3742 H 349.548 -3.86385 -1.5388 0
M  V30 3743 H 348.125 -2.50282 -2.7643 0
M  V30 3744 N 350.31 0.590341 -1.46126 0
M  V30 3745 C 351.559 1.34499 -1.50309 0
M  V30 3746 C 351.872 1.94977 -0.156021 0
M  V30 3747 O 353.078 2.71395 -0.0756037 0
M  V30 3748 C 351.534 2.43723 -2.64815 0
M  V30 3749 C 351.142 1.89582 -4.0591 0
M  V30 3750 C 352.886 3.20579 -2.78262 0
M  V30 3751 C 350.793 2.9639 -5.11769 0
M  V30 3752 H 349.723 0.505593 -0.559368 0
M  V30 3753 H 352.374 0.630848 -1.72315 0
M  V30 3754 H 350.756 3.17902 -2.36124 0
M  V30 3755 H 351.93 1.21997 -4.44357 0
M  V30 3756 H 350.245 1.25418 -3.97063 0
M  V30 3757 H 352.842 4.00276 -3.54519 0
M  V30 3758 H 353.185 3.72684 -1.85505 0
M  V30 3759 H 353.718 2.53505 -3.06562 0
M  V30 3760 H 350.457 2.49181 -6.06291 0
M  V30 3761 H 349.977 3.62487 -4.77873 0
M  V30 3762 H 351.656 3.60474 -5.37278 0
M  V30 3763 N 351.788 1.33704 0.83433 0
M  V30 3764 C 353.065 1.16011 1.57483 0
M  V30 3765 C 353.445 -0.27176 2.09343 0
M  V30 3766 O 352.793 -1.27146 1.89858 0
M  V30 3767 C 353.003 2.20507 2.70514 0
M  V30 3768 C 354.351 2.54898 3.39577 0
M  V30 3769 O 355.375 2.19209 2.80759 0
M  V30 3770 O 354.234 3.16158 4.45765 0
M  V30 3771 H 351.328 0.448992 0.694503 0
M  V30 3772 H 353.874 1.453 0.876691 0
M  V30 3773 H 352.646 3.16667 2.29865 0
M  V30 3774 H 352.269 1.92329 3.47987 0
M  V30 3775 N 353.266 -1.05314 1.17247 0
M  V30 3776 C 354.491 -1.82509 0.985148 0
M  V30 3777 C 354.916 -1.82343 -0.461788 0
M  V30 3778 O 354.274 -1.23151 -1.33055 0
M  V30 3779 C 354.322 -3.26566 1.52929 0
M  V30 3780 O 353.426 -4.05666 0.742225 0
M  V30 3781 H 352.767 -0.564347 0.349869 0
M  V30 3782 H 355.297 -1.32718 1.55715 0
M  V30 3783 H 355.307 -3.77369 1.55103 0
M  V30 3784 H 353.982 -3.26001 2.58256 0
M  V30 3785 H 352.559 -3.64397 0.791794 0
M  V30 3786 N 354.744 -0.972509 -1.24016 0
M  V30 3787 C 355.992 -0.635776 -1.91839 0
M  V30 3788 C 356.313 0.832312 -1.76345 0
M  V30 3789 O 355.583 1.5946 -1.13795 0
M  V30 3790 H 354.163 -0.232157 -0.710009 0
M  V30 3791 H 356.825 -1.23462 -1.50809 0
M  V30 3792 H 355.921 -0.880545 -2.99421 0
M  V30 3793 N 356.222 1.38976 -0.743202 0
M  V30 3794 C 357.468 2.0064 -0.295189 0
M  V30 3795 C 357.801 1.5885 1.11716 0
M  V30 3796 O 357.076 0.821181 1.76315 0
M  V30 3797 C 357.359 3.578 -0.406318 0
M  V30 3798 C 357.212 4.09586 -1.85903 0
M  V30 3799 C 358.531 4.39616 0.206439 0
M  V30 3800 H 355.65 0.728935 -0.108733 0
M  V30 3801 H 358.292 1.65067 -0.940897 0
M  V30 3802 H 356.442 3.88235 0.143419 0
M  V30 3803 H 358.114 3.89837 -2.46627 0
M  V30 3804 H 356.357 3.6284 -2.3776 0
M  V30 3805 H 357.028 5.18708 -1.888 0
M  V30 3806 H 359.504 4.15273 -0.262283 0
M  V30 3807 H 358.38 5.48812 0.0983819 0
M  V30 3808 H 358.641 4.22754 1.2935 0
M  V30 3809 N 357.7 0.491464 1.49741 0
M  V30 3810 C 358.61 -0.296835 2.32715 0
M  V30 3811 C 359.626 -0.976536 1.44013 0
M  V30 3812 O 360.802 -0.960023 1.77047 0
M  V30 3813 C 357.867 -1.35288 3.19215 0
M  V30 3814 C 356.928 -0.687632 4.23757 0
M  V30 3815 C 356.161 -1.69336 5.06123 0
M  V30 3816 O 356.384 -2.92219 4.89861 0
M  V30 3817 O 355.318 -1.25394 5.88693 0
M  V30 3818 H 359.144 0.382048 3.01287 0
M  V30 3819 H 356.729 0.252953 1.47243 0
M  V30 3820 H 358.611 -1.96411 3.72828 0
M  V30 3821 H 357.286 -2.01487 2.53347 0
M  V30 3822 H 356.193 -0.0369159 3.74082 0
M  V30 3823 H 357.526 -0.0682566 4.92153 0
M  V30 3824 N 359.178 -1.55987 0.224894 0
M  V30 3825 C 360.108 -2.23426 -0.678457 0
M  V30 3826 C 361.089 -1.20709 -1.19847 0
M  V30 3827 O 362.274 -1.49304 -1.24186 0
M  V30 3828 C 359.404 -2.91676 -1.88527 0
M  V30 3829 C 358.358 -4.00893 -1.49896 0
M  V30 3830 C 357.684 -4.56455 -2.78483 0
M  V30 3831 C 358.984 -5.17769 -0.686461 0
M  V30 3832 H 360.678 -2.99175 -0.116173 0
M  V30 3833 H 358.224 -1.43897 -0.054436 0
M  V30 3834 H 360.177 -3.37547 -2.5227 0
M  V30 3835 H 358.901 -2.1338 -2.47258 0
M  V30 3836 H 357.56 -3.55758 -0.884985 0
M  V30 3837 H 357.208 -3.74886 -3.35365 0
M  V30 3838 H 356.908 -5.30169 -2.53368 0
M  V30 3839 H 358.432 -5.05047 -3.43162 0
M  V30 3840 H 359.846 -5.60001 -1.22767 0
M  V30 3841 H 358.243 -5.97735 -0.532259 0
M  V30 3842 H 359.313 -4.83932 0.306196 0
M  V30 3843 N 360.656 0.0484629 -1.57525 0
M  V30 3844 C 361.884 0.755421 -1.92616 0
M  V30 3845 C 362.299 1.69919 -0.822984 0
M  V30 3846 O 361.656 1.81378 0.202085 0
M  V30 3847 C 361.707 1.52915 -3.27566 0
M  V30 3848 O 361.428 0.62329 -4.33644 0
M  V30 3849 C 362.929 2.33502 -3.76818 0
M  V30 3850 H 360.149 0.213465 -0.63614 0
M  V30 3851 H 362.693 0.0117698 -2.04497 0
M  V30 3852 H 360.848 2.22486 -3.17142 0
M  V30 3853 H 361.262 1.16383 -5.11425 0
M  V30 3854 H 362.736 2.83214 -4.73808 0
M  V30 3855 H 363.213 3.14068 -3.07014 0
M  V30 3856 H 363.819 1.69043 -3.90262 0
M  V30 3857 N 362.134 1.5431 0.320358 0
M  V30 3858 C 363.362 1.76636 1.07738 0
M  V30 3859 C 363.777 0.51649 1.81598 0
M  V30 3860 O 363.134 -0.512942 1.75143 0
M  V30 3861 C 363.185 2.96158 2.07299 0
M  V30 3862 O 362.906 4.16313 1.36438 0
M  V30 3863 C 364.407 3.3072 2.95193 0
M  V30 3864 H 361.627 0.589597 0.320339 0
M  V30 3865 H 364.171 2.01207 0.36551 0
M  V30 3866 H 362.326 2.73851 2.74016 0
M  V30 3867 H 362.74 4.83565 2.03138 0
M  V30 3868 H 364.214 4.17643 3.60941 0
M  V30 3869 H 364.691 2.48026 3.62463 0
M  V30 3870 H 365.297 3.55117 2.34034 0
M  V30 3871 N 363.613 -0.582584 1.46437 0
M  V30 3872 C 364.838 -1.37168 1.55563 0
M  V30 3873 C 365.263 -1.87061 0.19743 0
M  V30 3874 O 364.621 -1.61572 -0.822451 0
M  V30 3875 C 364.669 -2.53511 2.56446 0
M  V30 3876 O 363.773 -3.54953 2.09958 0
M  V30 3877 H 363.114 -0.408494 0.523477 0
M  V30 3878 H 365.644 -0.706646 1.9201 0
M  V30 3879 H 365.654 -3.00426 2.76058 0
M  V30 3880 H 364.329 -2.16549 3.55076 0
M  V30 3881 H 362.906 -3.14516 2.00334 0
M  V30 3882 N 365.091 -1.34144 -0.827227 0
M  V30 3883 C 366.502 -1.23557 -1.39966 0
M  V30 3884 C 366.853 0.140731 -1.95695 0
M  V30 3885 O 365.978 1.04087 -1.89723 0
M  V30 3886 C 366.573 -2.23708 -2.54441 0
M  V30 3887 C 365.132 -2.16924 -3.07605 0
M  V30 3888 C 364.279 -2.10549 -1.80456 0
M  V30 3889 H 367.23 -1.45573 -0.631991 0
M  V30 3890 H 367.251 -1.85157 -3.32411 0
M  V30 3891 H 366.763 -3.23866 -2.13851 0
M  V30 3892 H 364.864 -1.20107 -3.52711 0
M  V30 3893 H 364.977 -3.07988 -3.66988 0
M  V30 3894 H 363.341 -1.56203 -2.01178 0
M  V30 3895 H 364.124 -3.12535 -1.42046 0
M  V30 3896 N 366.569 1.04691 -1.17803 0
M  V30 3897 C 367.516 2.12557 -0.899343 0
M  V30 3898 C 368.486 1.65339 0.158771 0
M  V30 3899 O 369.671 1.90789 0.0204797 0
M  V30 3900 C 366.811 3.42481 -0.424315 0
M  V30 3901 C 365.924 4.03346 -1.54713 0
M  V30 3902 C 365.059 5.21208 -1.02546 0
M  V30 3903 C 364.098 5.74089 -2.12339 0
M  V30 3904 N 363.235 6.83247 -1.61612 0
M  V30 3905 H 368.075 2.35734 -1.823 0
M  V30 3906 H 365.612 1.1564 -0.909159 0
M  V30 3907 H 367.57 4.16996 -0.130421 0
M  V30 3908 H 366.2 3.19471 0.462377 0
M  V30 3909 H 365.252 3.2622 -1.95664 0
M  V30 3910 H 366.564 4.38628 -2.37501 0
M  V30 3911 H 365.718 6.02812 -0.685718 0
M  V30 3912 H 364.457 4.87414 -0.167084 0
M  V30 3913 H 363.462 4.91111 -2.47165 0
M  V30 3914 H 364.687 6.0993 -2.98601 0
M  V30 3915 H 362.633 6.5134 -0.780533 0
M  V30 3916 H 362.55 7.17559 -2.38003 0
M  V30 3917 H 363.818 7.68491 -1.30545 0
M  V30 3918 N 368.047 0.979072 1.23499 0
M  V30 3919 C 368.995 0.510604 2.26926 0
M  V30 3920 C 369.989 -0.431691 1.63807 0
M  V30 3921 O 371.195 -0.30573 1.77385 0
M  V30 3922 H 367.57 0.146688 0.737554 0
M  V30 3923 H 369.541 1.39466 2.63803 0
M  V30 3924 C 368.29 -0.172658 3.47271 0
M  V30 3925 H 367.613 0.543331 3.96091 0
M  V30 3926 H 369.053 -0.464101 4.21452 0
M  V30 3927 C 367.512 -1.40345 3.06276 0
M  V30 3928 O 368.042 -2.49978 3.14442 0
M  V30 3929 N 366.248 -1.27362 2.61203 0
M  V30 3930 H 365.795 -0.381584 2.54758 0
M  V30 3931 H 365.753 -2.09822 2.34141 0
M  V30 3932 N 369.525 -1.3858 0.750561 0
M  V30 3933 C 370.771 -2.00481 0.305825 0
M  V30 3934 C 371.104 -1.5944 -1.10872 0
M  V30 3935 O 370.379 -0.83052 -1.75877 0
M  V30 3936 C 370.662 -3.5758 0.425287 0
M  V30 3937 C 370.515 -4.08594 1.88072 0
M  V30 3938 C 371.834 -4.39719 -0.183122 0
M  V30 3939 H 368.953 -0.728348 0.112598 0
M  V30 3940 H 371.595 -1.64566 0.949638 0
M  V30 3941 H 369.745 -3.88306 -0.122828 0
M  V30 3942 H 371.417 -3.88523 2.48691 0
M  V30 3943 H 369.66 -3.61574 2.39681 0
M  V30 3944 H 370.331 -5.177 1.91548 0
M  V30 3945 H 372.807 -4.15128 0.284303 0
M  V30 3946 H 371.683 -5.48856 -0.0692757 0
M  V30 3947 H 371.944 -4.23434 -1.27106 0
M  V30 3948 N 371.003 -0.499398 -1.49478 0
M  V30 3949 C 372.414 -0.051215 -1.8663 0
M  V30 3950 C 372.765 1.36238 -1.41186 0
M  V30 3951 O 371.89 2.01502 -0.789051 0
M  V30 3952 C 372.485 -0.0861651 -3.3869 0
M  V30 3953 C 371.044 0.30667 -3.75149 0
M  V30 3954 C 370.191 -0.459397 -2.73468 0
M  V30 3955 H 373.142 -0.712264 -1.41818 0
M  V30 3956 H 373.163 0.709507 -3.73826 0
M  V30 3957 H 372.675 -1.11512 -3.71735 0
M  V30 3958 H 370.776 1.33892 -3.47712 0
M  V30 3959 H 370.889 -0.0116669 -4.79099 0
M  V30 3960 H 369.253 0.0905645 -2.54539 0
M  V30 3961 H 370.036 -1.4884 -3.09357 0
M  V30 3962 N 372.481 1.55866 -0.233164 0
M  V30 3963 C 373.709 2.02998 0.399905 0
M  V30 3964 C 374.124 1.11274 1.52524 0
M  V30 3965 O 373.481 0.124528 1.82075 0
M  V30 3966 C 373.532 3.4958 0.920639 0
M  V30 3967 O 373.253 4.37808 -0.159834 0
M  V30 3968 C 374.754 4.12411 1.62578 0
M  V30 3969 H 371.974 0.664006 0.0966281 0
M  V30 3970 H 374.518 2.0143 -0.353013 0
M  V30 3971 H 372.673 3.51727 1.62379 0
M  V30 3972 H 373.087 5.23981 0.23337 0
M  V30 3973 H 374.561 5.16711 1.94201 0
M  V30 3974 H 375.038 3.5809 2.54299 0
M  V30 3975 H 375.644 4.14148 0.967553 0
M  V30 3976 N 373.959 -0.0401083 1.57549 0
M  V30 3977 C 374.909 -1.05175 2.02292 0
M  V30 3978 C 375.893 -1.32674 0.910294 0
M  V30 3979 O 377.085 -1.32444 1.17421 0
M  V30 3980 C 374.214 -2.35622 2.49674 0
M  V30 3981 C 373.3 -2.11261 3.67736 0
M  V30 3982 N 373.691 -1.56923 4.80842 0
M  V30 3983 C 371.989 -2.41596 3.74897 0
M  V30 3984 C 372.69 -1.48111 5.62528 0
M  V30 3985 N 371.666 -1.95282 5.07312 0
M  V30 3986 H 375.468 -0.625455 2.87168 0
M  V30 3987 H 372.982 -0.246624 1.60516 0
M  V30 3988 H 374.979 -3.08893 2.79983 0
M  V30 3989 H 373.639 -2.7894 1.662 0
M  V30 3990 H 374.65 -1.25345 5.02503 0
M  V30 3991 H 371.327 -2.88064 3.02201 0
M  V30 3992 H 372.717 -1.06683 6.63377 0
M  V30 3993 N 375.437 -1.54477 -0.31217 0
M  V30 3994 C 376.665 -1.77205 -1.068 0
M  V30 3995 C 377.08 -0.526114 -1.81321 0
M  V30 3996 O 376.437 0.503647 -1.75413 0
M  V30 3997 C 376.488 -2.97253 -2.05725 0
M  V30 3998 O 376.209 -4.1703 -1.34228 0
M  V30 3999 C 377.71 -3.32281 -2.93435 0
M  V30 4000 H 374.93 -0.591287 -0.317208 0
M  V30 4001 H 377.474 -2.01398 -0.354834 0
M  V30 4002 H 375.629 -2.753 -2.72559 0
M  V30 4003 H 376.043 -4.84636 -2.00571 0
M  V30 4004 H 377.517 -4.19551 -3.58721 0
M  V30 4005 H 377.994 -2.49945 -3.61143 0
M  V30 4006 H 378.6 -3.56353 -2.32147 0
M  V30 4007 N 376.915 0.57481 -1.46744 0
M  V30 4008 C 377.863 1.70435 -1.58286 0
M  V30 4009 C 378.857 1.63287 -0.450956 0
M  V30 4010 O 380.063 1.68685 -0.628121 0
M  V30 4011 H 376.438 0.56364 -0.497809 0
M  V30 4012 H 378.409 1.57833 -2.53242 0
M  V30 4013 C 377.158 3.08815 -1.59776 0
M  V30 4014 H 376.481 3.1499 -2.46214 0
M  V30 4015 H 377.921 3.87588 -1.71905 0
M  V30 4016 C 376.38 3.35301 -0.327812 0
M  V30 4017 O 376.91 3.97511 0.57861 0
M  V30 4018 N 375.116 2.89816 -0.213274 0
M  V30 4019 H 374.663 2.39371 -0.951798 0
M  V30 4020 H 374.621 3.0791 0.63553 0
M  V30 4021 N 378.394 1.34581 0.820102 0
M  V30 4022 C 379.324 1.29038 1.94606 0
M  V30 4023 C 380.305 0.1673 1.69275 0
M  V30 4024 O 381.49 0.360112 1.90832 0
M  V30 4025 C 378.62 1.04793 3.31113 0
M  V30 4026 C 377.574 2.13597 3.70891 0
M  V30 4027 C 376.9 1.74537 5.05412 0
M  V30 4028 C 378.2 3.55451 3.8269 0
M  V30 4029 H 379.894 2.23248 1.99501 0
M  V30 4030 H 377.44 1.0747 0.958449 0
M  V30 4031 H 379.393 0.995592 4.0947 0
M  V30 4032 H 378.117 0.0702565 3.26524 0
M  V30 4033 H 376.776 2.17905 2.9481 0
M  V30 4034 H 376.424 0.754226 4.97313 0
M  V30 4035 H 376.124 2.47361 5.32997 0
M  V30 4036 H 377.648 1.70803 5.86224 0
M  V30 4037 H 379.062 3.5354 4.51312 0
M  V30 4038 H 377.459 4.26922 4.21732 0
M  V30 4039 H 378.529 3.92587 2.84611 0
M  V30 4040 N 379.872 -1.04064 1.18357 0
M  V30 4041 C 380.782 -2.15569 0.925596 0
M  V30 4042 C 381.798 -1.7365 -0.110295 0
M  V30 4043 O 382.974 -2.01273 0.0716218 0
M  V30 4044 C 380.039 -3.43704 0.454836 0
M  V30 4045 C 379.1 -4.00004 1.55869 0
M  V30 4046 C 378.333 -5.22023 1.1103 0
M  V30 4047 O 378.556 -5.70392 -0.0309756 0
M  V30 4048 O 377.49 -5.70856 1.90805 0
M  V30 4049 H 381.316 -2.40187 1.8586 0
M  V30 4050 H 378.901 -1.1402 0.965394 0
M  V30 4051 H 380.783 -4.20923 0.200382 0
M  V30 4052 H 379.458 -3.20559 -0.449876 0
M  V30 4053 H 378.365 -3.24172 1.86716 0
M  V30 4054 H 379.698 -4.2749 2.43953 0
M  V30 4055 N 381.35 -0.985608 -1.22978 0
M  V30 4056 C 382.28 -0.549649 -2.26939 0
M  V30 4057 C 383.261 0.419803 -1.64838 0
M  V30 4058 O 384.446 0.31203 -1.91677 0
M  V30 4059 C 381.576 0.143652 -3.47003 0
M  V30 4060 C 380.53 -0.743606 -4.21491 0
M  V30 4061 C 379.856 0.0822027 -5.34637 0
M  V30 4062 C 381.156 -2.03694 -4.80943 0
M  V30 4063 H 382.85 -1.41862 -2.63658 0
M  V30 4064 H 380.396 -0.683571 -1.26741 0
M  V30 4065 H 382.349 0.459985 -4.18882 0
M  V30 4066 H 381.073 1.04711 -3.09359 0
M  V30 4067 H 379.732 -1.04347 -3.51436 0
M  V30 4068 H 379.38 0.986359 -4.93234 0
M  V30 4069 H 379.08 -0.508377 -5.85397 0
M  V30 4070 H 380.604 0.392797 -6.09335 0
M  V30 4071 H 382.018 -1.78504 -5.44802 0
M  V30 4072 H 380.415 -2.57573 -5.42011 0
M  V30 4073 H 381.485 -2.72042 -4.01399 0
M  V30 4074 N 382.828 1.3818 -0.7579 0
M  V30 4075 C 383.738 2.3421 -0.135247 0
M  V30 4076 C 384.754 1.59487 0.695683 0
M  V30 4077 O 385.93 1.91657 0.618832 0
M  V30 4078 C 382.995 3.3862 0.744139 0
M  V30 4079 C 382.056 4.2918 -0.101658 0
M  V30 4080 C 381.289 5.28603 0.735851 0
M  V30 4081 O 381.512 5.35166 1.97366 0
M  V30 4082 O 380.446 6.01707 0.152372 0
M  V30 4083 H 384.272 2.8916 -0.928436 0
M  V30 4084 H 381.857 1.40101 -0.518855 0
M  V30 4085 H 383.739 4.02539 1.2466 0
M  V30 4086 H 382.414 2.86019 1.51575 0
M  V30 4087 H 381.321 3.68407 -0.650167 0
M  V30 4088 H 382.654 4.85048 -0.836024 0
M  V30 4089 N 384.306 0.507319 1.49211 0
M  V30 4090 C 385.717 0.0611118 1.866 0
M  V30 4091 C 386.068 -1.35488 1.41907 0
M  V30 4092 O 385.193 -2.0108 0.799726 0
M  V30 4093 C 385.788 0.104125 3.3864 0
M  V30 4094 C 384.347 -0.28677 3.75306 0
M  V30 4095 C 383.494 0.473893 2.73221 0
M  V30 4096 H 386.445 0.719775 1.41439 0
M  V30 4097 H 386.466 -0.689672 3.74198 0
M  V30 4098 H 385.978 1.13482 3.71138 0
M  V30 4099 H 384.079 -1.32046 3.48417 0
M  V30 4100 H 384.192 0.0370745 4.79086 0
M  V30 4101 H 382.556 -0.0770644 2.54583 0
M  V30 4102 H 383.339 1.50478 3.08563 0
M  V30 4103 N 385.784 -1.5574 0.241426 0
M  V30 4104 C 386.731 -2.21149 -0.660432 0
M  V30 4105 C 387.701 -1.17356 -1.17545 0
M  V30 4106 O 388.886 -1.45784 -1.23093 0
M  V30 4107 C 386.026 -2.91059 -1.85414 0
M  V30 4108 C 385.139 -4.09495 -1.37616 0
M  V30 4109 C 384.274 -4.67135 -2.529 0
M  V30 4110 C 383.313 -5.77831 -2.01936 0
M  V30 4111 N 382.45 -6.29677 -3.10566 0
M  V30 4112 H 387.29 -2.97845 -0.095955 0
M  V30 4113 H 384.827 -1.47057 -0.0356024 0
M  V30 4114 H 386.785 -3.29788 -2.5553 0
M  V30 4115 H 385.415 -2.16846 -2.39118 0
M  V30 4116 H 384.467 -3.76117 -0.569235 0
M  V30 4117 H 385.779 -4.89423 -0.962618 0
M  V30 4118 H 384.933 -5.08409 -3.31067 0
M  V30 4119 H 383.672 -3.86411 -2.97553 0
M  V30 4120 H 382.677 -5.36039 -1.22238 0
M  V30 4121 H 383.902 -6.60402 -1.58259 0
M  V30 4122 H 381.848 -5.5186 -3.54664 0
M  V30 4123 H 381.765 -7.04783 -2.73526 0
M  V30 4124 H 383.033 -6.75609 -3.88809 0
M  V30 4125 N 387.262 0.0317525 -1.57568 0
M  V30 4126 C 388.225 1.01783 -2.0536 0
M  V30 4127 C 389.225 1.29203 -0.957253 0
M  V30 4128 O 390.415 1.24251 -1.22095 0
M  V30 4129 C 387.547 2.35137 -2.46827 0
M  V30 4130 H 388.74 0.605062 -2.93733 0
M  V30 4131 H 386.293 0.278514 -1.53799 0
M  V30 4132 H 387.028 2.81168 -1.61602 0
M  V30 4133 H 386.813 2.16566 -3.26866 0
M  V30 4134 H 388.303 3.05938 -2.84239 0
M  V30 4135 N 388.74 1.54641 0.303973 0
M  V30 4136 C 390.017 1.64455 1.05896 0
M  V30 4137 C 390.397 0.490923 2.05312 0
M  V30 4138 O 389.745 -0.512685 2.22674 0
M  V30 4139 C 389.955 3.02331 1.74347 0
M  V30 4140 C 391.303 3.59045 2.26653 0
M  V30 4141 O 392.327 3.04764 1.84384 0
M  V30 4142 O 391.186 4.54081 3.04093 0
M  V30 4143 H 388.28 0.666729 0.489287 0
M  V30 4144 H 390.826 1.66986 0.302298 0
M  V30 4145 H 389.598 3.77734 1.02142 0
M  V30 4146 H 389.221 3.03565 2.56777 0
M  V30 4147 N 390.218 -0.567019 1.47046 0
M  V30 4148 C 391.151 -1.69016 1.53326 0
M  V30 4149 C 392.129 -1.57949 0.386126 0
M  V30 4150 O 393.313 -1.78945 0.592529 0
M  V30 4151 C 390.44 -3.07191 1.42658 0
M  V30 4152 C 389.486 -3.36733 2.6175 0
M  V30 4153 S 390.319 -3.27069 4.24012 0
M  V30 4154 C 391.475 -4.67755 4.1588 0
M  V30 4155 H 391.708 -1.63434 2.48348 0
M  V30 4156 H 389.241 -0.747048 1.35124 0
M  V30 4157 H 391.199 -3.86897 1.37191 0
M  V30 4158 H 389.86 -3.10249 0.490369 0
M  V30 4159 H 389.053 -4.37441 2.50323 0
M  V30 4160 H 388.655 -2.64627 2.64289 0
M  V30 4161 H 390.947 -5.58491 3.83529 0
M  V30 4162 H 391.89 -4.84239 5.16641 0
M  V30 4163 H 392.298 -4.45341 3.46889 0
M  V30 4164 N 391.696 -1.35014 -0.812953 0
M  V30 4165 C 392.628 -1.23262 -1.93233 0
M  V30 4166 C 393.641 -0.157371 -1.62038 0
M  V30 4167 O 394.83 -0.410096 -1.73725 0
M  V30 4168 C 391.93 -0.87392 -3.27438 0
M  V30 4169 C 391.103 -2.04622 -3.86586 0
M  V30 4170 C 390.162 -1.66432 -4.99186 0
M  V30 4171 O 389.188 -2.38222 -5.16951 0
M  V30 4172 N 390.39 -0.584248 -5.77552 0
M  V30 4173 H 393.155 -2.19699 -2.03844 0
M  V30 4174 H 390.716 -1.281 -0.99005 0
M  V30 4175 H 392.708 -0.600039 -4.00227 0
M  V30 4176 H 391.278 0.00057392 -3.126 0
M  V30 4177 H 390.498 -2.48427 -3.06068 0
M  V30 4178 H 391.786 -2.82999 -4.22835 0
M  V30 4179 H 391.184 0.0123526 -5.65699 0
M  V30 4180 H 389.741 -0.37013 -6.50748 0
M  V30 4181 N 393.175 1.03435 -1.18907 0
M  V30 4182 C 394.107 2.1165 -0.879595 0
M  V30 4183 C 395.12 1.62316 0.125439 0
M  V30 4184 O 396.309 1.78201 -0.103245 0
M  V30 4185 C 393.409 3.37622 -0.294042 0
M  V30 4186 C 392.582 4.16166 -1.34629 0
M  V30 4187 C 391.641 5.20457 -0.775274 0
M  V30 4188 O 390.667 5.50379 -1.4516 0
M  V30 4189 N 391.869 5.78949 0.424126 0
M  V30 4190 H 394.634 2.38791 -1.81105 0
M  V30 4191 H 392.195 1.19681 -1.09032 0
M  V30 4192 H 394.187 4.04572 0.101679 0
M  V30 4193 H 392.757 3.07873 0.541575 0
M  V30 4194 H 391.977 3.44444 -1.91707 0
M  V30 4195 H 393.265 4.65432 -2.05549 0
M  V30 4196 H 392.663 5.56948 0.991209 0
M  V30 4197 H 391.22 6.47334 0.761691 0
M  V30 4198 N 394.653 0.992116 1.22453 0
M  V30 4199 C 395.899 0.668523 1.91464 0
M  V30 4200 C 396.232 -0.797313 1.77078 0
M  V30 4201 O 395.507 -1.5765 1.13916 0
M  V30 4202 C 395.79 1.07424 3.43703 0
M  V30 4203 C 395.643 2.59857 3.67143 0
M  V30 4204 C 396.962 0.626891 4.35612 0
M  V30 4205 H 394.081 0.244341 0.695318 0
M  V30 4206 H 396.723 1.2355 1.44345 0
M  V30 4207 H 394.873 0.591816 3.83966 0
M  V30 4208 H 396.545 3.15764 3.3629 0
M  V30 4209 H 394.788 3.01961 3.11451 0
M  V30 4210 H 395.459 2.83296 4.73759 0
M  V30 4211 H 397.935 1.04125 4.02861 0
M  V30 4212 H 396.811 0.939076 5.40807 0
M  V30 4213 H 397.072 -0.472457 4.39568 0
M  V30 4214 N 396.131 -1.37776 0.765217 0
M  V30 4215 C 397.061 -2.32945 0.160953 0
M  V30 4216 C 398.042 -1.55454 -0.690516 0
M  V30 4217 O 399.227 -1.83721 -0.629318 0
M  V30 4218 C 396.357 -3.39669 -0.724031 0
M  V30 4219 C 395.311 -4.27992 0.0256173 0
M  V30 4220 C 394.637 -5.25673 -0.978383 0
M  V30 4221 C 395.937 -5.08309 1.20082 0
M  V30 4222 H 397.631 -2.83728 0.955969 0
M  V30 4223 H 395.177 -1.36416 0.461149 0
M  V30 4224 H 397.13 -4.05219 -1.15652 0
M  V30 4225 H 395.854 -2.87396 -1.5515 0
M  V30 4226 H 394.513 -3.63964 0.438812 0
M  V30 4227 H 394.161 -4.69682 -1.80022 0
M  V30 4228 H 393.861 -5.85625 -0.481378 0
M  V30 4229 H 395.385 -5.94098 -1.40995 0
M  V30 4230 H 396.799 -5.67034 0.845307 0
M  V30 4231 H 395.196 -5.77554 1.62947 0
M  V30 4232 H 396.266 -4.41365 2.00811 0
M  V30 4233 N 397.609 -0.515225 -1.4894 0
M  V30 4234 C 398.855 0.0242508 -2.02785 0
M  V30 4235 C 399.188 1.35323 -1.39289 0
M  V30 4236 O 398.463 1.87041 -0.533469 0
M  V30 4237 C 398.746 0.16184 -3.59736 0
M  V30 4238 C 398.599 -1.19127 -4.33738 0
M  V30 4239 C 399.918 0.895719 -4.30888 0
M  V30 4240 H 397.037 0.00733914 -0.736963 0
M  V30 4241 H 399.679 -0.669395 -1.77818 0
M  V30 4242 H 397.829 0.752624 -3.8114 0
M  V30 4243 H 399.501 -1.82202 -4.23792 0
M  V30 4244 H 397.744 -1.77695 -3.95736 0
M  V30 4245 H 398.415 -1.04815 -5.41957 0
M  V30 4246 H 400.891 0.394528 -4.14225 0
M  V30 4247 H 399.767 0.960859 -5.40425 0
M  V30 4248 H 400.028 1.9427 -3.97129 0
M  V30 4249 N 399.087 1.5561 -0.249682 0
M  V30 4250 C 400.034 2.21496 0.648694 0
M  V30 4251 C 401.004 1.17977 1.16921 0
M  V30 4252 O 402.189 1.46434 1.22318 0
M  V30 4253 C 399.329 2.92039 1.83868 0
M  V30 4254 C 398.442 4.10219 1.35442 0
M  V30 4255 C 397.577 4.6847 2.50419 0
M  V30 4256 C 396.616 5.78893 1.98869 0
M  V30 4257 N 395.753 6.31315 3.07223 0
M  V30 4258 H 400.593 2.97892 0.0801582 0
M  V30 4259 H 398.13 1.47074 0.0278031 0
M  V30 4260 H 400.088 3.31138 2.53778 0
M  V30 4261 H 398.718 2.18111 2.37965 0
M  V30 4262 H 397.77 3.76413 0.54928 0
M  V30 4263 H 399.082 4.89927 0.936649 0
M  V30 4264 H 398.236 5.10158 3.28366 0
M  V30 4265 H 396.975 3.87984 2.95499 0
M  V30 4266 H 395.98 5.3668 1.19393 0
M  V30 4267 H 397.205 6.61232 1.54755 0
M  V30 4268 H 395.151 5.53733 3.51732 0
M  V30 4269 H 395.068 7.06224 2.69784 0
M  V30 4270 H 396.336 6.77662 3.8522 0
M  V30 4271 N 400.565 -0.0233959 1.57583 0
M  V30 4272 C 401.793 -0.724682 1.93794 0
M  V30 4273 C 402.208 -1.68588 0.849912 0
M  V30 4274 O 401.565 -1.81676 -0.173204 0
M  V30 4275 C 401.616 -1.47684 3.29957 0
M  V30 4276 O 401.337 -0.554222 4.3458 0
M  V30 4277 C 402.838 -2.27477 3.80485 0
M  V30 4278 H 400.058 -0.203317 0.639455 0
M  V30 4279 H 402.602 0.0207653 2.04489 0
M  V30 4280 H 400.757 -2.17412 3.20641 0
M  V30 4281 H 401.171 -1.08232 5.13212 0
M  V30 4282 H 402.645 -2.7564 4.78254 0
M  V30 4283 H 403.122 -3.09144 3.11972 0
M  V30 4284 H 403.728 -1.62813 3.92902 0
M  V30 4285 N 402.043 -1.548 -0.295768 0
M  V30 4286 C 403.268 -1.78653 -1.05346 0
M  V30 4287 C 403.693 -0.546894 -1.79974 0
M  V30 4288 O 403.051 0.502763 -1.7419 0
M  V30 4289 C 403.099 -2.99679 -2.00561 0
M  V30 4290 O 402.203 -2.7317 -3.08953 0
M  V30 4291 H 401.544 -0.59116 -0.302367 0
M  V30 4292 H 404.074 -2.01895 -0.331598 0
M  V30 4293 H 404.084 -3.27793 -2.42932 0
M  V30 4294 H 402.759 -3.89562 -1.4565 0
M  V30 4295 H 401.336 -2.56089 -2.71059 0
M  V30 4296 N 403.521 0.559213 -1.47345 0
M  V30 4297 C 404.932 1.14134 -1.47751 0
M  V30 4298 C 405.283 1.94834 -0.231103 0
M  V30 4299 O 404.408 2.05957 0.664137 0
M  V30 4300 C 405.003 2.07653 -2.67705 0
M  V30 4301 C 403.562 2.61141 -2.71076 0
M  V30 4302 C 402.709 1.3748 -2.40821 0
M  V30 4303 H 405.66 0.345917 -1.54884 0
M  V30 4304 H 405.681 2.91497 -2.44561 0
M  V30 4305 H 405.193 1.4889 -3.58404 0
M  V30 4306 H 403.294 3.23707 -1.84511 0
M  V30 4307 H 403.407 3.02272 -3.7171 0
M  V30 4308 H 401.771 1.68086 -1.91362 0
M  V30 4309 H 402.554 0.805135 -3.33725 0
M  V30 4310 N 404.999 1.35443 0.805782 0
M  V30 4311 C 406.415 1.15499 1.10146 0
M  V30 4312 C 406.615 -0.0319975 2.01475 0
M  V30 4313 O 405.671 -0.70236 2.42535 0
M  V30 4314 C 406.984 2.45833 1.73166 0
M  V30 4315 C 408.532 2.52047 1.85583 0
M  V30 4316 C 409.007 3.82427 2.52019 0
M  V30 4317 N 410.498 3.83682 2.59504 0
M  V30 4318 C 411.233 4.81294 3.11679 0
M  V30 4319 N 410.729 5.89294 3.64287 0
M  V30 4320 N 412.522 4.6873 3.1024 0
M  V30 4321 H 404.673 2.11469 0.198678 0
M  V30 4322 H 406.936 0.93594 0.150731 0
M  V30 4323 H 406.642 3.32874 1.13526 0
M  V30 4324 H 406.516 2.6044 2.72857 0
M  V30 4325 H 408.903 1.65435 2.44367 0
M  V30 4326 H 408.984 2.41354 0.847455 0
M  V30 4327 H 408.628 4.69437 1.93885 0
M  V30 4328 H 408.558 3.90409 3.53395 0
M  V30 4329 H 411.049 3.05648 2.22234 0
M  V30 4330 H 411.362 6.59768 4.02401 0
M  V30 4331 H 409.707 5.92985 3.62483 0
M  V30 4332 H 412.898 3.83496 2.68419 0
M  V30 4333 H 413.071 5.44965 3.50596 0
M  V30 4334 N 406.477 -1.02803 1.19454 0
M  V30 4335 C 407.888 -1.57667 0.999899 0
M  V30 4336 C 408.239 -1.91041 -0.446956 0
M  V30 4337 O 407.364 -1.70978 -1.32648 0
M  V30 4338 C 407.959 -2.86477 1.80877 0
M  V30 4339 C 406.518 -3.37911 1.65811 0
M  V30 4340 C 405.665 -2.11343 1.79526 0
M  V30 4341 H 408.616 -0.853214 1.33813 0
M  V30 4342 H 408.637 -3.57408 1.30536 0
M  V30 4343 H 408.149 -2.62155 2.86175 0
M  V30 4344 H 406.25 -3.67218 0.63102 0
M  V30 4345 H 406.363 -4.10885 2.46395 0
M  V30 4346 H 404.727 -2.23254 1.22596 0
M  V30 4347 H 405.51 -1.89461 2.86285 0
M  V30 4348 N 407.956 -0.998596 -1.21925 0
M  V30 4349 C 409.181 -0.696015 -1.95372 0
M  V30 4350 C 409.606 0.733826 -1.73195 0
M  V30 4351 O 408.964 1.50242 -1.01474 0
M  V30 4352 C 409.012 -1.01466 -3.4603 0
M  V30 4353 O 408.116 -0.116415 -4.12236 0
M  V30 4354 H 407.457 -0.259938 -0.611006 0
M  V30 4355 H 409.987 -1.33711 -1.54863 0
M  V30 4356 H 409.997 -0.958855 -3.96573 0
M  V30 4357 H 408.672 -2.05653 -3.61497 0
M  V30 4358 H 407.249 -0.228193 -3.72201 0
M  V30 4359 N 409.434 1.37368 -0.772513 0
M  V30 4360 C 410.344 2.34053 -0.160081 0
M  V30 4361 C 411.36 1.60216 0.678728 0
M  V30 4362 O 412.536 1.92303 0.59847 0
M  V30 4363 C 409.601 3.3939 0.708182 0
M  V30 4364 C 408.662 4.29048 -0.147172 0
M  V30 4365 C 407.895 5.29354 0.679744 0
M  V30 4366 O 408.118 5.3723 1.91678 0
M  V30 4367 O 407.052 6.01835 0.0885444 0
M  V30 4368 H 410.878 2.88159 -0.959053 0
M  V30 4369 H 408.463 1.39543 -0.533685 0
M  V30 4370 H 410.345 4.03839 1.20384 0
M  V30 4371 H 409.02 2.8761 1.48533 0
M  V30 4372 H 407.927 3.67697 -0.689205 0
M  V30 4373 H 409.26 4.84134 -0.887423 0
M  V30 4374 N 410.912 0.523116 1.48665 0
M  V30 4375 C 411.859 -0.243398 2.29513 0
M  V30 4376 C 412.829 -0.940139 1.36933 0
M  V30 4377 O 414.014 -0.942503 1.65896 0
M  V30 4378 C 411.154 -1.28855 3.20141 0
M  V30 4379 C 410.267 -0.60135 4.27794 0
M  V30 4380 C 409.402 -1.62884 5.05611 0
M  V30 4381 C 408.441 -0.924726 6.05075 0
M  V30 4382 N 407.578 -1.89744 6.75975 0
M  V30 4383 H 412.418 0.452234 2.94549 0
M  V30 4384 H 409.955 0.234858 1.45213 0
M  V30 4385 H 411.913 -1.90674 3.71079 0
M  V30 4386 H 410.543 -1.95266 2.57043 0
M  V30 4387 H 409.595 0.130623 3.80176 0
M  V30 4388 H 410.907 -0.0481585 4.98777 0
M  V30 4389 H 410.061 -2.32149 5.60528 0
M  V30 4390 H 408.8 -2.21592 4.34452 0
M  V30 4391 H 407.805 -0.217966 5.49368 0
M  V30 4392 H 409.03 -0.343851 6.78229 0
M  V30 4393 H 406.976 -2.47373 6.07571 0
M  V30 4394 H 406.893 -1.3955 7.43009 0
M  V30 4395 H 408.161 -2.58229 7.35485 0
M  V30 4396 N 412.39 -1.55475 0.257931 0
M  V30 4397 C 413.337 -2.21837 -0.636939 0
M  V30 4398 C 414.307 -1.18596 -1.16294 0
M  V30 4399 O 415.492 -1.47081 -1.21539 0
M  V30 4400 C 412.632 -2.9301 -1.82317 0
M  V30 4401 C 411.745 -4.10931 -1.33265 0
M  V30 4402 C 410.88 -4.69791 -2.47931 0
M  V30 4403 C 409.919 -5.7994 -1.95796 0
M  V30 4404 N 409.056 -6.32935 -3.0387 0
M  V30 4405 H 413.896 -2.9793 -0.0643591 0
M  V30 4406 H 411.433 -1.47086 -0.0200031 0
M  V30 4407 H 413.391 -3.3248 -2.52018 0
M  V30 4408 H 412.021 -2.1937 -2.36805 0
M  V30 4409 H 411.073 -3.76699 -0.52931 0
M  V30 4410 H 412.385 -4.90417 -0.910654 0
M  V30 4411 H 411.539 -5.11892 -3.25656 0
M  V30 4412 H 410.278 -3.89545 -2.93438 0
M  V30 4413 H 409.283 -5.37305 -1.16546 0
M  V30 4414 H 410.508 -6.62043 -1.51246 0
M  V30 4415 H 408.454 -5.55591 -3.48791 0
M  V30 4416 H 408.371 -7.07645 -2.66035 0
M  V30 4417 H 409.639 -6.79695 -3.81621 0
M  V30 4418 N 413.868 0.0150385 -1.57593 0
M  V30 4419 C 414.831 0.995996 -2.06428 0
M  V30 4420 C 415.831 1.2818 -0.970903 0
M  V30 4421 O 417.021 1.22949 -1.23406 0
M  V30 4422 C 414.153 2.32506 -2.49307 0
M  V30 4423 H 415.346 0.573873 -2.94358 0
M  V30 4424 H 412.899 0.262186 -1.54085 0
M  V30 4425 H 413.634 2.79438 -1.64575 0
M  V30 4426 H 413.419 2.13087 -3.29145 0
M  V30 4427 H 414.909 3.02906 -2.87468 0
M  V30 4428 N 415.346 1.54954 0.287554 0
M  V30 4429 C 416.757 1.65732 0.859634 0
M  V30 4430 C 417.108 0.574767 1.87592 0
M  V30 4431 O 416.233 -0.286299 2.14498 0
M  V30 4432 C 416.828 3.00438 1.56597 0
M  V30 4433 C 415.387 3.13292 2.08627 0
M  V30 4434 C 414.534 2.61473 0.923416 0
M  V30 4435 H 417.485 1.5857 0.0642338 0
M  V30 4436 H 417.506 2.92613 2.43224 0
M  V30 4437 H 417.018 3.79207 0.826053 0
M  V30 4438 H 415.119 2.39268 2.85625 0
M  V30 4439 H 415.232 4.19647 2.31157 0
M  V30 4440 H 413.596 2.18264 1.31275 0
M  V30 4441 H 414.379 3.42733 0.197241 0
M  V30 4442 N 416.824 -0.551391 1.4764 0
M  V30 4443 C 417.754 -1.66757 1.63445 0
M  V30 4444 C 418.735 -1.63077 0.483742 0
M  V30 4445 O 419.92 -1.80607 0.71377 0
M  V30 4446 C 417.05 -3.05387 1.65396 0
M  V30 4447 C 416.004 -3.23918 2.79752 0
M  V30 4448 C 415.33 -4.63393 2.66779 0
M  V30 4449 C 416.63 -3.08735 4.21284 0
M  V30 4450 H 418.324 -1.53786 2.56886 0
M  V30 4451 H 415.87 -0.738415 1.23626 0
M  V30 4452 H 417.823 -3.83325 1.75043 0
M  V30 4453 H 416.547 -3.19332 0.685195 0
M  V30 4454 H 415.206 -2.48391 2.69625 0
M  V30 4455 H 414.854 -4.74144 1.67918 0
M  V30 4456 H 414.554 -4.7674 3.43501 0
M  V30 4457 H 416.078 -5.43458 2.78364 0
M  V30 4458 H 417.492 -3.76484 4.32357 0
M  V30 4459 H 415.889 -3.33588 4.98838 0
M  V30 4460 H 416.959 -2.0541 4.39243 0
M  V30 4461 N 418.302 -1.35869 -0.798587 0
M  V30 4462 C 419.232 -1.32118 -1.92528 0
M  V30 4463 C 420.213 -0.194209 -1.68988 0
M  V30 4464 O 421.398 -0.390426 -1.90235 0
M  V30 4465 C 418.528 -1.10047 -3.29404 0
M  V30 4466 C 417.482 -2.19471 -3.67446 0
M  V30 4467 C 416.808 -1.82555 -5.02571 0
M  V30 4468 C 418.108 -3.61495 -3.76987 0
M  V30 4469 H 419.802 -2.26394 -1.95924 0
M  V30 4470 H 417.348 -1.08981 -0.94123 0
M  V30 4471 H 419.301 -1.06061 -4.07835 0
M  V30 4472 H 418.025 -0.122195 -3.26371 0
M  V30 4473 H 416.684 -2.22568 -2.91306 0
M  V30 4474 H 416.332 -0.833249 -4.9605 0
M  V30 4475 H 416.032 -2.5581 -5.28995 0
M  V30 4476 H 417.556 -1.80108 -5.83432 0
M  V30 4477 H 418.97 -3.60676 -4.4563 0
M  V30 4478 H 417.367 -4.33577 -4.14887 0
M  V30 4479 H 418.437 -3.97065 -2.78329 0
M  V30 4480 N 419.78 1.02168 -1.19998 0
M  V30 4481 C 421.057 1.72816 -0.916191 0
M  V30 4482 C 421.437 2.03081 0.576325 0
M  V30 4483 O 420.785 1.69122 1.53656 0
M  V30 4484 C 420.995 2.9997 -1.78378 0
M  V30 4485 C 422.343 3.73336 -2.02251 0
M  V30 4486 O 423.367 3.09914 -1.75589 0
M  V30 4487 O 422.226 4.87371 -2.47249 0
M  V30 4488 H 419.32 0.752924 -0.342103 0
M  V30 4489 H 421.866 1.08062 -1.30846 0
M  V30 4490 H 420.638 2.73888 -2.79466 0
M  V30 4491 H 420.261 3.72464 -1.39126 0
M  V30 4492 N 421.258 1.00505 1.21394 0
M  V30 4493 C 422.505 0.687774 1.90462 0
M  V30 4494 C 422.833 -0.78147 1.7811 0
M  V30 4495 O 422.088 -1.58208 1.1519 0
M  V30 4496 C 422.387 1.0546 3.41486 0
M  V30 4497 C 422.053 2.51812 3.74034 0
M  V30 4498 C 420.715 2.91804 3.82628 0
M  V30 4499 C 423.067 3.46614 3.8924 0
M  V30 4500 C 420.395 4.2556 4.03876 0
M  V30 4501 C 422.747 4.80044 4.11995 0
M  V30 4502 C 421.411 5.19759 4.18816 0
M  V30 4503 H 420.681 0.251674 0.696951 0
M  V30 4504 H 423.328 1.26349 1.43903 0
M  V30 4505 H 421.633 0.397133 3.89782 0
M  V30 4506 H 423.33 0.786976 3.93202 0
M  V30 4507 H 419.92 2.1982 3.67936 0
M  V30 4508 H 424.104 3.16883 3.81967 0
M  V30 4509 H 419.36 4.55901 4.07387 0
M  V30 4510 H 423.534 5.53439 4.22704 0
M  V30 4511 H 421.161 6.23418 4.35033 0
M  V30 4512 N 422.737 -1.36956 0.779787 0
M  V30 4513 C 423.962 -2.04283 0.358224 0
M  V30 4514 C 424.387 -1.58422 -1.01411 0
M  V30 4515 O 423.745 -0.748179 -1.65142 0
M  V30 4516 C 423.793 -3.58152 0.419479 0
M  V30 4517 O 422.897 -4.08342 -0.577142 0
M  V30 4518 H 422.238 -0.645967 0.153698 0
M  V30 4519 H 424.768 -1.75108 1.05822 0
M  V30 4520 H 424.778 -4.07041 0.279636 0
M  V30 4521 H 423.453 -3.90886 1.42061 0
M  V30 4522 H 422.03 -3.70751 -0.399755 0
M  V30 4523 N 424.215 -0.530993 -1.48385 0
M  V30 4524 C 425.464 0.00474348 -2.01699 0
M  V30 4525 C 425.777 1.35227 -1.41325 0
M  V30 4526 O 426.983 1.97643 -1.86144 0
M  V30 4527 C 425.439 0.0588473 -3.59852 0
M  V30 4528 C 425.047 -1.28385 -4.2921 0
M  V30 4529 C 426.791 0.543358 -4.21008 0
M  V30 4530 C 424.698 -1.19028 -5.79298 0
M  V30 4531 H 423.628 0.00554317 -0.75398 0
M  V30 4532 H 426.279 -0.674924 -1.70637 0
M  V30 4533 H 424.661 0.803612 -3.8776 0
M  V30 4534 H 425.835 -2.04426 -4.12973 0
M  V30 4535 H 424.15 -1.70418 -3.7993 0
M  V30 4536 H 426.747 0.631351 -5.3096 0
M  V30 4537 H 427.09 1.54937 -3.86394 0
M  V30 4538 H 427.623 -0.145754 -3.97533 0
M  V30 4539 H 424.362 -2.17147 -6.18488 0
M  V30 4540 H 423.882 -0.471246 -5.97946 0
M  V30 4541 H 425.561 -0.881365 -6.40969 0
M  V30 4542 N 425.693 1.55336 -0.266172 0
M  V30 4543 C 426.623 2.25146 0.618981 0
M  V30 4544 C 427.604 1.23845 1.16604 0
M  V30 4545 O 428.789 1.52544 1.20183 0
M  V30 4546 C 425.919 2.96572 1.80728 0
M  V30 4547 C 424.873 4.04726 1.39215 0
M  V30 4548 C 424.199 4.63678 2.66283 0
M  V30 4549 C 425.499 5.19407 0.548942 0
M  V30 4550 H 427.193 2.99377 0.0368116 0
M  V30 4551 H 424.739 1.43991 0.0162651 0
M  V30 4552 H 426.692 3.44116 2.43232 0
M  V30 4553 H 425.416 2.19861 2.41514 0
M  V30 4554 H 424.075 3.57979 0.790351 0
M  V30 4555 H 423.723 3.83646 3.25308 0
M  V30 4556 H 423.423 5.367 2.39222 0
M  V30 4557 H 424.947 5.13967 3.29651 0
M  V30 4558 H 426.361 5.63059 1.07876 0
M  V30 4559 H 424.758 5.98936 0.373593 0
M  V30 4560 H 425.828 4.8295 -0.434394 0
M  V30 4561 N 427.171 -0.0066808 1.57599 0
M  V30 4562 C 428.118 -1.00024 2.08 0
M  V30 4563 C 429.088 -1.34549 0.973943 0
M  V30 4564 O 430.273 -1.44502 1.24595 0
M  V30 4565 C 427.413 -2.2891 2.58252 0
M  V30 4566 C 426.526 -2.00346 3.82734 0
M  V30 4567 C 425.661 -3.23265 4.21513 0
M  V30 4568 C 424.7 -2.90357 5.3885 0
M  V30 4569 N 423.837 -4.05793 5.72954 0
M  V30 4570 H 428.677 -0.563499 2.92624 0
M  V30 4571 H 426.214 -0.266592 1.44664 0
M  V30 4572 H 428.172 -3.04247 2.85464 0
M  V30 4573 H 426.802 -2.70265 1.76512 0
M  V30 4574 H 425.854 -1.15406 3.62471 0
M  V30 4575 H 427.166 -1.72086 4.68175 0
M  V30 4576 H 426.32 -4.06953 4.49971 0
M  V30 4577 H 425.059 -3.54657 3.34768 0
M  V30 4578 H 424.064 -2.05075 5.10122 0
M  V30 4579 H 425.289 -2.60219 6.27266 0
M  V30 4580 H 423.235 -4.37094 4.89167 0
M  V30 4581 H 423.152 -3.81034 6.52954 0
M  V30 4582 H 424.42 -4.90289 6.06001 0
M  V30 4583 N 428.649 -1.55105 -0.279332 0
M  V30 4584 C 429.559 -1.90638 -1.36727 0
M  V30 4585 C 430.575 -0.802899 -1.54368 0
M  V30 4586 O 431.751 -1.10138 -1.68616 0
M  V30 4587 C 428.816 -2.16547 -2.70755 0
M  V30 4588 C 427.877 -3.40146 -2.61915 0
M  V30 4589 C 427.11 -3.6481 -3.8955 0
M  V30 4590 O 427.333 -2.92095 -4.89935 0
M  V30 4591 O 426.267 -4.58343 -3.90135 0
M  V30 4592 H 430.093 -2.83237 -1.09591 0
M  V30 4593 H 427.678 -1.4157 -0.477306 0
M  V30 4594 H 429.56 -2.34665 -3.50014 0
M  V30 4595 H 428.235 -1.27131 -2.9769 0
M  V30 4596 H 427.142 -3.2737 -1.81052 0
M  V30 4597 H 428.475 -4.29761 -2.3993 0
M  V30 4598 N 430.127 0.543554 -1.4793 0
M  V30 4599 C 431.074 1.64942 -1.6144 0
M  V30 4600 C 432.044 1.59692 -0.456903 0
M  V30 4601 O 433.229 1.78321 -0.678688 0
M  V30 4602 C 430.369 3.03238 -1.64744 0
M  V30 4603 C 429.482 3.18823 -2.91506 0
M  V30 4604 C 428.617 4.47599 -2.86057 0
M  V30 4605 C 427.656 4.56664 -4.07584 0
M  V30 4606 N 426.793 5.76811 -4.00292 0
M  V30 4607 H 431.633 1.52733 -2.55884 0
M  V30 4608 H 429.17 0.7438 -1.2691 0
M  V30 4609 H 431.128 3.83339 -1.64641 0
M  V30 4610 H 429.758 3.1425 -0.738017 0
M  V30 4611 H 428.81 2.32064 -3.01414 0
M  V30 4612 H 430.122 3.21384 -3.81463 0
M  V30 4613 H 429.276 5.35975 -2.84281 0
M  V30 4614 H 428.015 4.47538 -1.93807 0
M  V30 4615 H 427.02 3.66697 -4.09651 0
M  V30 4616 H 428.245 4.58474 -5.00978 0
M  V30 4617 H 426.191 5.77673 -3.10853 0
M  V30 4618 H 426.108 5.80808 -4.8394 0
M  V30 4619 H 427.376 6.67512 -4.02553 0
M  V30 4620 N 431.605 1.3629 0.791371 0
M  V30 4621 C 432.83 1.33726 1.58531 0
M  V30 4622 C 433.255 -0.0794933 1.87932 0
M  V30 4623 O 432.613 -1.05087 1.47738 0
M  V30 4624 C 432.661 2.16425 2.88431 0
M  V30 4625 O 431.765 1.5554 3.81944 0
M  V30 4626 H 431.106 0.457793 0.480959 0
M  V30 4627 H 433.636 1.79547 0.981031 0
M  V30 4628 H 433.646 2.28933 3.37718 0
M  V30 4629 H 432.321 3.19415 2.66359 0
M  V30 4630 H 430.898 1.51961 3.40532 0
M  V30 4631 N 433.083 -1.0153 1.20538 0
M  V30 4632 C 434.33 -1.75149 1.01633 0
M  V30 4633 C 434.658 -1.89189 -0.451399 0
M  V30 4634 O 433.913 -1.41551 -1.35136 0
M  V30 4635 C 434.212 -3.17213 1.64654 0
M  V30 4636 C 433.878 -3.23146 3.14464 0
M  V30 4637 C 432.54 -3.24472 3.55347 0
M  V30 4638 C 434.892 -3.21207 4.10458 0
M  V30 4639 C 432.22 -3.21532 4.90748 0
M  V30 4640 C 434.572 -3.19808 5.45807 0
M  V30 4641 C 433.236 -3.19439 5.86102 0
M  V30 4642 H 432.506 -0.640914 0.3719 0
M  V30 4643 H 435.153 -1.19071 1.49981 0
M  V30 4644 H 433.458 -3.76457 1.08571 0
M  V30 4645 H 435.155 -3.72871 1.4754 0
M  V30 4646 H 431.745 -3.2285 2.81897 0
M  V30 4647 H 435.929 -3.19351 3.79906 0
M  V30 4648 H 431.185 -3.19578 5.21229 0
M  V30 4649 H 435.359 -3.1726 6.19935 0
M  V30 4650 H 432.986 -3.16915 6.90991 0
M  V30 4651 N 434.561 -1.01147 -1.20859 0
M  V30 4652 C 435.81 -0.693214 -1.89413 0
M  V30 4653 C 436.123 0.779969 -1.79376 0
M  V30 4654 O 437.329 1.21057 -2.43017 0
M  V30 4655 C 435.785 -1.18949 -3.39675 0
M  V30 4656 C 435.393 -2.68921 -3.58309 0
M  V30 4657 C 437.137 -0.94642 -4.13815 0
M  V30 4658 C 435.044 -3.12056 -5.0237 0
M  V30 4659 H 433.974 -0.255595 -0.709357 0
M  V30 4660 H 436.625 -1.22349 -1.36759 0
M  V30 4661 H 435.007 -0.587228 -3.91622 0
M  V30 4662 H 436.181 -3.34652 -3.16772 0
M  V30 4663 H 434.496 -2.91314 -2.97532 0
M  V30 4664 H 437.093 -1.24417 -5.20023 0
M  V30 4665 H 437.436 0.117219 -4.16135 0
M  V30 4666 H 437.969 -1.5118 -3.67953 0
M  V30 4667 H 434.708 -4.17674 -5.05202 0
M  V30 4668 H 434.228 -2.51041 -5.44737 0
M  V30 4669 H 435.907 -3.04403 -5.70918 0
M  V30 4670 N 436.039 1.36541 -0.78704 0
M  V30 4671 C 437.279 2.01138 -0.363714 0
M  V30 4672 C 437.643 1.61114 1.04433 0
M  V30 4673 O 438.844 2.18285 1.56861 0
M  V30 4674 C 437.115 3.53603 -0.519582 0
M  V30 4675 S 438.674 4.38415 -0.183782 0
M  V30 4676 H 435.492 0.697263 -0.13909 0
M  V30 4677 H 438.094 1.66475 -1.02501 0
M  V30 4678 H 436.798 3.8022 -1.5447 0
M  V30 4679 H 436.329 3.93084 0.15773 0
M  V30 4680 H 438.344 4.85698 1.01547 0
M  V30 4681 N 437.518 0.538854 1.48102 0
M  V30 4682 C 438.748 0.0122958 2.06596 0
M  V30 4683 C 439.156 -1.27861 1.39457 0
M  V30 4684 O 438.499 -1.77348 0.478907 0
M  V30 4685 C 438.561 -0.273131 3.58461 0
M  V30 4686 C 438.225 0.92561 4.47528 0
M  V30 4687 C 439.222 1.82637 4.86765 0
M  V30 4688 C 436.907 1.13511 4.89306 0
M  V30 4689 C 438.901 2.92047 5.66558 0
M  V30 4690 C 436.588 2.23233 5.68868 0
M  V30 4691 C 437.586 3.12333 6.07402 0
M  V30 4692 O 437.274 4.20155 6.85365 0
M  V30 4693 H 437.006 0.0344283 0.675123 0
M  V30 4694 H 439.56 0.746494 1.91355 0
M  V30 4695 H 437.79 -1.06141 3.71848 0
M  V30 4696 H 439.479 -0.742842 3.99045 0
M  V30 4697 H 440.245 1.67649 4.55103 0
M  V30 4698 H 436.124 0.450835 4.5879 0
M  V30 4699 H 439.668 3.6162 5.96554 0
M  V30 4700 H 435.565 2.38201 5.99942 0
M  V30 4701 H 436.333 4.17975 7.03732 0
M  V30 4702 N 438.996 -1.55193 0.274407 0
M  V30 4703 C 439.959 -2.212 -0.600279 0
M  V30 4704 C 440.959 -1.18963 -1.08187 0
M  V30 4705 O 442.149 -1.43873 -0.982158 0
M  V30 4706 C 439.281 -2.87739 -1.82809 0
M  V30 4707 H 440.474 -2.9989 -0.0239682 0
M  V30 4708 H 438.027 -1.5628 0.0250192 0
M  V30 4709 H 438.762 -2.13058 -2.44493 0
M  V30 4710 H 438.547 -3.62658 -1.49069 0
M  V30 4711 H 440.037 -3.38171 -2.45011 0
M  V30 4712 N 440.474 -0.00167713 -1.576 0
M  V30 4713 C 441.404 0.988091 -2.11563 0
M  V30 4714 C 442.385 1.35736 -1.02517 0
M  V30 4715 O 443.57 1.44082 -1.30208 0
M  V30 4716 C 440.7 2.27941 -2.62031 0
M  V30 4717 C 439.654 2.0517 -3.75619 0
M  V30 4718 C 438.98 3.4033 -4.12407 0
M  V30 4719 C 440.28 1.41294 -5.02825 0
M  V30 4720 H 441.974 0.538771 -2.94513 0
M  V30 4721 H 439.52 0.257712 -1.41675 0
M  V30 4722 H 441.473 2.97539 -2.9841 0
M  V30 4723 H 440.197 2.74989 -1.76205 0
M  V30 4724 H 438.856 1.37998 -3.39635 0
M  V30 4725 H 438.504 3.85085 -3.23603 0
M  V30 4726 H 438.204 3.25909 -4.88935 0
M  V30 4727 H 439.728 4.1124 -4.51347 0
M  V30 4728 H 441.142 2.00851 -5.36965 0
M  V30 4729 H 439.539 1.37356 -5.84169 0
M  V30 4730 H 440.609 0.382362 -4.8339 0
M  V30 4731 N 441.952 1.55251 0.271103 0
M  V30 4732 C 443.199 1.75946 1.00245 0
M  V30 4733 C 443.527 0.561611 1.86215 0
M  V30 4734 O 442.782 -0.455832 1.90317 0
M  V30 4735 C 443.081 3.01879 1.91321 0
M  V30 4736 C 442.747 4.34337 1.21086 0
M  V30 4737 C 441.409 4.70338 1.01666 0
M  V30 4738 C 443.761 5.16325 0.71119 0
M  V30 4739 C 441.089 5.8588 0.310099 0
M  V30 4740 C 443.441 6.32597 0.0182157 0
M  V30 4741 C 442.105 6.67236 -0.18768 0
M  V30 4742 H 441.375 0.643833 0.366824 0
M  V30 4743 H 444.022 1.89521 0.27458 0
M  V30 4744 H 442.327 2.83212 2.70736 0
M  V30 4745 H 444.024 3.15088 2.48033 0
M  V30 4746 H 440.614 4.06043 1.37213 0
M  V30 4747 H 444.798 4.88987 0.848844 0
M  V30 4748 H 440.054 6.1124 0.139873 0
M  V30 4749 H 444.228 6.9538 -0.376711 0
M  V30 4750 H 441.855 7.56618 -0.73715 0
M  V30 4751 N 443.43 -0.535701 1.48216 0
M  V30 4752 C 444.678 -1.28928 1.55634 0
M  V30 4753 C 444.999 -1.93645 0.229514 0
M  V30 4754 O 444.269 -1.81038 -0.74846 0
M  V30 4755 H 442.849 -0.47884 0.573342 0
M  V30 4756 H 445.511 -0.623853 1.84646 0
M  V30 4757 H 444.607 -2.07157 2.33436 0
M  V30 4758 N 444.908 -1.36708 -0.784132 0
M  V30 4759 C 445.838 -1.34153 -1.91116 0
M  V30 4760 C 446.819 -0.212121 -1.68772 0
M  V30 4761 O 448.004 -0.410581 -1.8981 0
M  V30 4762 C 445.134 -1.13535 -3.28218 0
M  V30 4763 C 444.088 -2.23356 -3.65097 0
M  V30 4764 C 443.414 -1.87875 -5.00607 0
M  V30 4765 C 444.714 -3.65473 -3.73131 0
M  V30 4766 H 446.408 -2.28459 -1.93512 0
M  V30 4767 H 443.954 -1.09973 -0.929618 0
M  V30 4768 H 445.907 -1.10381 -4.06687 0
M  V30 4769 H 444.631 -0.156804 -3.26223 0
M  V30 4770 H 443.29 -2.25645 -2.88929 0
M  V30 4771 H 442.938 -0.885814 -4.95139 0
M  V30 4772 H 442.638 -2.61406 -5.26252 0
M  V30 4773 H 444.162 -1.86286 -5.81489 0
M  V30 4774 H 445.576 -3.65382 -4.41779 0
M  V30 4775 H 443.973 -4.37953 -4.10265 0
M  V30 4776 H 445.043 -3.99995 -2.74102 0
M  V30 4777 N 446.386 1.0089 -1.21074 0
M  V30 4778 C 447.633 1.74607 -1.0256 0
M  V30 4779 C 447.961 1.89426 0.44136 0
M  V30 4780 O 447.216 1.42266 1.34384 0
M  V30 4781 C 447.515 3.16335 -1.66334 0
M  V30 4782 C 447.181 3.21474 -3.16173 0
M  V30 4783 C 445.843 3.22583 -3.57062 0
M  V30 4784 C 448.195 3.19025 -4.12156 0
M  V30 4785 C 445.523 3.18925 -4.92446 0
M  V30 4786 C 447.875 3.16909 -5.47496 0
M  V30 4787 C 446.539 3.16326 -5.87787 0
M  V30 4788 H 445.809 0.638933 -0.375294 0
M  V30 4789 H 448.456 1.18274 -1.50611 0
M  V30 4790 H 446.761 3.75876 -1.10566 0
M  V30 4791 H 448.458 3.72083 -1.49516 0
M  V30 4792 H 445.048 3.2135 -2.83605 0
M  V30 4793 H 449.232 3.17332 -3.81595 0
M  V30 4794 H 444.488 3.16809 -5.22917 0
M  V30 4795 H 448.662 3.13968 -6.21609 0
M  V30 4796 H 446.289 3.13246 -6.92662 0
M  V30 4797 N 447.864 1.01787 1.20321 0
M  V30 4798 C 448.827 0.593972 2.2137 0
M  V30 4799 C 449.827 -0.336553 1.57239 0
M  V30 4800 O 451.017 -0.125069 1.7375 0
M  V30 4801 C 448.149 -0.132433 3.40643 0
M  V30 4802 H 449.342 1.48791 2.60387 0
M  V30 4803 H 446.895 0.807803 1.33807 0
M  V30 4804 H 447.63 -1.04123 3.0713 0
M  V30 4805 H 447.415 0.53605 3.88418 0
M  V30 4806 H 448.905 -0.416314 4.1552 0
M  V30 4807 N 449.342 -1.36122 0.79427 0
M  V30 4808 C 450.57 -2.03362 0.380989 0
M  V30 4809 C 450.985 -1.59881 -1.00416 0
M  V30 4810 O 450.342 -0.790515 -1.6449 0
M  V30 4811 C 450.393 -3.58804 0.440649 0
M  V30 4812 O 450.114 -4.007 1.77118 0
M  V30 4813 C 451.615 -4.43296 0.0186117 0
M  V30 4814 H 448.835 -0.652526 0.156367 0
M  V30 4815 H 451.379 -1.73998 1.07447 0
M  V30 4816 H 449.534 -3.8686 -0.204458 0
M  V30 4817 H 449.948 -4.95309 1.72538 0
M  V30 4818 H 451.422 -5.51887 0.111488 0
M  V30 4819 H 451.899 -4.2684 -1.03461 0
M  V30 4820 H 452.505 -4.20512 0.636395 0
M  V30 4821 N 450.82 -0.546701 -1.47814 0
M  V30 4822 C 451.75 0.195317 -2.32682 0
M  V30 4823 C 452.731 0.918981 -1.43139 0
M  V30 4824 O 453.916 0.901501 -1.72008 0
M  V30 4825 C 451.046 1.23237 -3.247 0
M  V30 4826 C 450 0.625818 -4.234 0
M  V30 4827 C 449.326 1.76674 -5.04669 0
M  V30 4828 C 450.626 -0.413515 -5.2066 0
M  V30 4829 H 452.32 -0.513184 -2.94969 0
M  V30 4830 H 449.866 -0.248241 -1.41844 0
M  V30 4831 H 451.819 1.75955 -3.82907 0
M  V30 4832 H 450.543 1.97067 -2.60446 0
M  V30 4833 H 449.202 0.120023 -3.66403 0
M  V30 4834 H 448.85 2.49383 -4.36826 0
M  V30 4835 H 448.55 1.36673 -5.71484 0
M  V30 4836 H 450.074 2.29738 -5.65732 0
M  V30 4837 H 451.488 0.0272042 -5.73294 0
M  V30 4838 H 449.885 -0.731825 -5.95621 0
M  V30 4839 H 450.955 -1.31325 -4.66778 0
M  V30 4840 N 452.299 1.55045 -0.282633 0
M  V30 4841 C 453.547 1.99365 0.331334 0
M  V30 4842 C 453.868 1.1725 1.55812 0
M  V30 4843 O 453.138 0.263871 1.94115 0
M  V30 4844 H 451.718 0.736397 0.125414 0
M  V30 4845 H 454.38 1.90964 -0.389711 0
M  V30 4846 H 453.476 3.0596 0.616036 0
M  V30 4847 N 453.777 0.010035 1.57597 0
M  V30 4848 C 455.024 -0.6727 1.91 0
M  V30 4849 C 455.352 -1.73219 0.884614 0
M  V30 4850 O 454.607 -1.95395 -0.109215 0
M  V30 4851 C 454.906 -1.34434 3.31153 0
M  V30 4852 C 454.572 -0.417083 4.48967 0
M  V30 4853 C 453.234 -0.161809 4.80928 0
M  V30 4854 C 455.586 0.220753 5.20732 0
M  V30 4855 C 452.914 0.739426 5.82022 0
M  V30 4856 C 455.266 1.10993 6.22787 0
M  V30 4857 C 453.93 1.37428 6.532 0
M  V30 4858 H 453.2 -0.246158 0.698918 0
M  V30 4859 H 455.847 0.0677145 1.9138 0
M  V30 4860 H 454.152 -2.15905 3.26944 0
M  V30 4861 H 455.849 -1.87883 3.54261 0
M  V30 4862 H 452.439 -0.626217 4.24001 0
M  V30 4863 H 456.623 0.0365643 4.96287 0
M  V30 4864 H 451.879 0.952139 6.03941 0
M  V30 4865 H 456.053 1.61046 6.77523 0
M  V30 4866 H 453.68 2.0743 7.31353 0
M  V30 4867 N 455.255 -1.55392 -0.262866 0
M  V30 4868 C 456.502 -1.76476 -0.993109 0
M  V30 4869 C 456.83 -0.571479 -1.85915 0
M  V30 4870 O 456.085 0.445733 -1.90556 0
M  V30 4871 C 456.384 -3.02889 -1.89718 0
M  V30 4872 C 456.05 -4.34974 -1.18781 0
M  V30 4873 C 454.712 -4.7087 -0.991699 0
M  V30 4874 C 457.064 -5.16695 -0.683798 0
M  V30 4875 C 454.392 -5.86036 -0.279024 0
M  V30 4876 C 456.744 -6.32598 0.0153327 0
M  V30 4877 C 455.408 -6.67127 0.223062 0
M  V30 4878 H 454.678 -0.64577 -0.363404 0
M  V30 4879 H 457.325 -1.89664 -0.264525 0
M  V30 4880 H 455.63 -2.84644 -2.6923 0
M  V30 4881 H 457.327 -3.16399 -2.46359 0
M  V30 4882 H 453.917 -4.06765 -1.35058 0
M  V30 4883 H 458.101 -4.8943 -0.8229 0
M  V30 4884 H 453.357 -6.11306 -0.107456 0
M  V30 4885 H 457.531 -6.95171 0.413584 0
M  V30 4886 H 455.158 -7.56216 0.777265 0
M  V30 4887 N 456.733 0.527833 -1.48498 0
M  V30 4888 C 457.696 1.61439 -1.62696 0
M  V30 4889 C 458.696 1.52824 -0.500136 0
M  V30 4890 O 459.886 1.56456 -0.765976 0
M  V30 4891 C 457.018 3.01063 -1.59918 0
M  V30 4892 H 458.211 1.50189 -2.59583 0
M  V30 4893 H 455.764 0.750055 -1.37127 0
M  V30 4894 H 456.499 3.17818 -0.645163 0
M  V30 4895 H 456.284 3.08725 -2.41726 0
M  V30 4896 H 457.774 3.80057 -1.73051 0
M  V30 4897 N 458.211 1.37122 0.776871 0
M  V30 4898 C 459.622 1.28667 1.35284 0
M  V30 4899 C 459.973 -0.0680035 1.96082 0
M  V30 4900 O 459.098 -0.969743 1.93455 0
M  V30 4901 C 459.693 2.32997 2.45963 0
M  V30 4902 C 458.252 2.28191 2.99342 0
M  V30 4903 C 457.399 2.17101 1.72517 0
M  V30 4904 H 460.35 1.47819 0.577527 0
M  V30 4905 H 460.371 1.97366 3.2531 0
M  V30 4906 H 459.883 3.3158 2.01684 0
M  V30 4907 H 457.984 1.33115 3.4801 0
M  V30 4908 H 458.097 3.21397 3.55304 0
M  V30 4909 H 456.461 1.63562 1.95242 0
M  V30 4910 H 457.244 3.17591 1.30348 0
M  V30 4911 N 459.689 -1.00246 1.21608 0
M  V30 4912 C 460.914 -1.78167 1.06167 0
M  V30 4913 C 461.339 -1.84138 -0.384035 0
M  V30 4914 O 460.697 -1.28683 -1.27712 0
M  V30 4915 C 460.745 -3.19786 1.66642 0
M  V30 4916 O 459.849 -4.02153 0.913613 0
M  V30 4917 H 459.19 -0.549 0.37349 0
M  V30 4918 H 461.72 -1.25994 1.61204 0
M  V30 4919 H 461.73 -3.70451 1.70969 0
M  V30 4920 H 460.405 -3.14754 2.7185 0
M  V30 4921 H 458.982 -3.60711 0.945635 0
M  V30 4922 N 461.167 -1.02423 -1.1978 0
M  V30 4923 C 462.097 -0.62157 -2.25075 0
M  V30 4924 C 463.078 0.367148 -1.6609 0
M  V30 4925 O 464.263 0.250892 -1.92573 0
M  V30 4926 C 461.393 0.0331826 -3.47284 0
M  V30 4927 C 460.347 -0.877323 -4.18912 0
M  V30 4928 C 459.673 -0.0879296 -5.34628 0
M  V30 4929 C 460.973 -2.18892 -4.74219 0
M  V30 4930 H 462.667 -1.50179 -2.59011 0
M  V30 4931 H 460.213 -0.723547 -1.24502 0
M  V30 4932 H 462.166 0.326488 -4.20133 0
M  V30 4933 H 460.89 0.948164 -3.12534 0
M  V30 4934 H 459.549 -1.15475 -3.47938 0
M  V30 4935 H 459.197 0.828941 -4.96123 0
M  V30 4936 H 458.897 -0.694359 -5.83483 0
M  V30 4937 H 460.421 0.198743 -6.10276 0
M  V30 4938 H 461.835 -1.95746 -5.38847 0
M  V30 4939 H 460.232 -2.74686 -5.33542 0
M  V30 4940 H 461.302 -2.84674 -3.92541 0
M  V30 4941 N 462.645 1.35699 -0.801477 0
M  V30 4942 C 463.875 2.02862 -0.3912 0
M  V30 4943 C 464.283 1.60552 1.00099 0
M  V30 4944 O 463.626 0.796215 1.65548 0
M  V30 4945 C 463.688 3.57386 -0.389299 0
M  V30 4946 C 463.352 4.22943 -1.73113 0
M  V30 4947 C 464.349 4.44984 -2.68859 0
M  V30 4948 C 462.034 4.60167 -2.01373 0
M  V30 4949 C 464.028 5.03345 -3.91053 0
M  V30 4950 C 461.715 5.18243 -3.23832 0
M  V30 4951 C 462.713 5.39773 -4.1849 0
M  V30 4952 O 462.401 5.96626 -5.38788 0
M  V30 4953 H 462.133 0.657341 -0.157732 0
M  V30 4954 H 464.687 1.74407 -1.08496 0
M  V30 4955 H 462.917 3.85011 0.361031 0
M  V30 4956 H 464.606 4.059 -0.0020365 0
M  V30 4957 H 465.372 4.1661 -2.48316 0
M  V30 4958 H 461.251 4.42726 -1.28508 0
M  V30 4959 H 464.795 5.20065 -4.64949 0
M  V30 4960 H 460.692 5.46044 -3.44248 0
M  V30 4961 H 461.46 6.15082 -5.40015 0
M  V30 4962 N 464.123 0.554532 1.47522 0
M  V30 4963 C 465.372 0.0273458 2.01681 0
M  V30 4964 C 465.685 -1.32962 1.43459 0
M  V30 4965 O 466.891 -1.94657 1.89265 0
M  V30 4966 C 465.347 -0.00159057 3.599 0
M  V30 4967 C 464.955 1.35197 4.27113 0
M  V30 4968 C 466.699 -0.476311 4.21819 0
M  V30 4969 C 464.606 1.28229 5.77331 0
M  V30 4970 H 463.536 0.00645269 0.753972 0
M  V30 4971 H 466.187 0.701985 1.69542 0
M  V30 4972 H 464.569 -0.741821 3.8899 0
M  V30 4973 H 465.743 2.1097 4.09668 0
M  V30 4974 H 464.058 1.76441 3.77171 0
M  V30 4975 H 466.655 -0.5468 5.31897 0
M  V30 4976 H 466.998 -1.4877 3.8881 0
M  V30 4977 H 467.531 0.20898 3.97251 0
M  V30 4978 H 464.27 2.26959 6.14955 0
M  V30 4979 H 463.79 0.566314 5.97121 0
M  V30 4980 H 465.469 0.983226 6.39485 0
M  V30 4981 N 465.601 -1.54893 0.290851 0
M  V30 4982 C 466.85 -1.99111 -0.322113 0
M  V30 4983 C 467.163 -1.18283 -1.55784 0
M  V30 4984 O 468.369 -1.5272 -2.24475 0
M  V30 4985 C 466.825 -3.54442 -0.624438 0
M  V30 4986 C 466.433 -4.44066 0.592373 0
M  V30 4987 C 468.177 -4.07211 -1.19916 0
M  V30 4988 C 466.084 -5.90812 0.263762 0
M  V30 4989 H 465.014 -0.743712 -0.124133 0
M  V30 4990 H 467.665 -1.79132 0.39797 0
M  V30 4991 H 466.047 -3.70281 -1.40384 0
M  V30 4992 H 467.221 -4.39999 1.36886 0
M  V30 4993 H 465.536 -4.02015 1.08502 0
M  V30 4994 H 468.133 -5.14407 -1.45909 0
M  V30 4995 H 468.476 -3.57196 -2.13815 0
M  V30 4996 H 469.009 -3.94873 -0.481687 0
M  V30 4997 H 465.748 -6.44955 1.17105 0
M  V30 4998 H 465.268 -5.97911 -0.475655 0
M  V30 4999 H 466.947 -6.46852 -0.138354 0
M  V30 5000 N 467.08 -0.0183926 -1.57589 0
M  V30 5001 C 468.491 0.521927 -1.79256 0
M  V30 5002 C 468.842 1.72885 -0.927636 0
M  V30 5003 O 467.967 2.15978 -0.135091 0
M  V30 5004 C 468.562 0.953632 -3.25102 0
M  V30 5005 C 467.121 1.43913 -3.47801 0
M  V30 5006 C 466.268 0.398837 -2.74417 0
M  V30 5007 H 469.219 -0.244485 -1.56805 0
M  V30 5008 H 469.24 1.81863 -3.34224 0
M  V30 5009 H 468.752 0.0750123 -3.88028 0
M  V30 5010 H 466.853 2.33804 -2.90115 0
M  V30 5011 H 466.966 1.45391 -4.56507 0
M  V30 5012 H 465.33 0.864572 -2.39577 0
M  V30 5013 H 466.113 -0.471132 -3.40052 0
M  V30 5014 N 468.558 1.5553 0.254621 0
M  V30 5015 C 469.488 1.9268 1.31897 0
M  V30 5016 C 470.469 0.790797 1.506 0
M  V30 5017 O 471.654 1.05045 1.63337 0
M  V30 5018 C 468.784 2.21477 2.67517 0
M  V30 5019 C 467.738 3.37256 2.63519 0
M  V30 5020 C 467.064 3.51576 4.02862 0
M  V30 5021 C 468.364 4.73157 2.21179 0
M  V30 5022 H 470.058 2.81832 1.01051 0
M  V30 5023 H 467.604 1.35599 0.484662 0
M  V30 5024 H 469.557 2.46055 3.42104 0
M  V30 5025 H 468.281 1.29144 2.99982 0
M  V30 5026 H 466.94 3.12675 1.9139 0
M  V30 5027 H 466.588 2.56676 4.32581 0
M  V30 5028 H 466.288 4.2943 4.01078 0
M  V30 5029 H 467.812 3.78467 4.79161 0
M  V30 5030 H 469.226 4.97158 2.85494 0
M  V30 5031 H 467.623 5.54058 2.30521 0
M  V30 5032 H 468.693 4.70739 1.16332 0
M  V30 5033 N 470.036 -0.519951 1.48776 0
M  V30 5034 C 471.284 -1.2727 1.56993 0
M  V30 5035 C 471.605 -1.9339 0.25004 0
M  V30 5036 O 470.875 -1.81822 -0.729216 0
M  V30 5037 H 469.455 -0.472732 0.578389 0
M  V30 5038 H 472.117 -0.604234 1.85297 0
M  V30 5039 H 471.213 -2.04669 2.3562 0
M  V30 5040 N 471.514 -1.37532 -0.769588 0
M  V30 5041 C 472.763 -1.32183 -1.5235 0
M  V30 5042 C 473.076 0.0906555 -1.9539 0
M  V30 5043 O 474.282 0.266628 -2.70188 0
M  V30 5044 C 472.738 -2.32029 -2.75119 0
M  V30 5045 C 472.346 -3.78816 -2.3917 0
M  V30 5046 C 474.09 -2.35694 -3.53056 0
M  V30 5047 C 471.997 -4.70388 -3.58453 0
M  V30 5048 H 470.927 -0.491275 -0.571984 0
M  V30 5049 H 473.578 -1.63004 -0.842739 0
M  V30 5050 H 471.96 -1.94229 -3.45096 0
M  V30 5051 H 473.134 -4.25466 -1.76962 0
M  V30 5052 H 471.449 -3.78117 -1.74402 0
M  V30 5053 H 474.046 -3.01312 -4.41718 0
M  V30 5054 H 474.389 -1.37117 -3.93071 0
M  V30 5055 H 474.922 -2.72212 -2.90078 0
M  V30 5056 H 471.661 -5.70102 -3.23518 0
M  V30 5057 H 471.181 -4.28442 -4.19758 0
M  V30 5058 H 472.86 -4.87628 -4.25239 0
M  V30 5059 N 472.992 0.995999 -1.22138 0
M  V30 5060 C 474.217 1.77601 -1.0711 0
M  V30 5061 C 474.642 1.84339 0.374264 0
M  V30 5062 O 474 1.29359 1.27028 0
M  V30 5063 C 474.048 3.18897 -1.68336 0
M  V30 5064 O 473.152 4.01663 -0.934928 0
M  V30 5065 H 472.493 0.547011 -0.376397 0
M  V30 5066 H 475.023 1.25137 -1.6187 0
M  V30 5067 H 475.033 3.69539 -1.72931 0
M  V30 5068 H 473.708 3.13308 -2.73516 0
M  V30 5069 H 472.285 3.60204 -0.964751 0
M  V30 5070 N 474.47 1.03057 1.19235 0
M  V30 5071 C 475.4 0.633497 2.24742 0
M  V30 5072 C 476.381 -0.358335 1.66283 0
M  V30 5073 O 477.566 -0.240676 1.92703 0
M  V30 5074 C 474.696 -0.0147648 3.47297 0
M  V30 5075 C 473.65 0.899527 4.18441 0
M  V30 5076 C 472.976 0.116281 5.34574 0
M  V30 5077 C 474.276 2.21404 4.73051 0
M  V30 5078 H 475.97 1.5155 2.58211 0
M  V30 5079 H 473.516 0.73014 1.24117 0
M  V30 5080 H 475.469 -0.304202 4.20301 0
M  V30 5081 H 474.193 -0.931577 3.13032 0
M  V30 5082 H 472.852 1.17319 3.47321 0
M  V30 5083 H 472.5 -0.802619 4.96555 0
M  V30 5084 H 472.2 0.725293 5.83107 0
M  V30 5085 H 473.724 -0.166376 6.10373 0
M  V30 5086 H 475.138 1.98601 5.37802 0
M  V30 5087 H 473.535 2.77512 5.32078 0
M  V30 5088 H 474.605 2.86752 3.91026 0
M  V30 5089 N 475.948 -1.35272 0.808662 0
M  V30 5090 C 477.196 -1.98316 0.389233 0
M  V30 5091 C 477.517 -1.64465 -1.04767 0
M  V30 5092 O 476.787 -0.928175 -1.72516 0
M  V30 5093 H 475.367 -0.733585 0.140935 0
M  V30 5094 H 478.029 -1.6515 1.03496 0
M  V30 5095 H 477.125 -3.08123 0.496631 0
M  V30 5096 N 477.426 -0.562348 -1.47226 0
M  V30 5097 C 478.675 -0.038041 -2.01664 0
M  V30 5098 C 478.988 1.32199 -1.44162 0
M  V30 5099 O 480.194 1.9365 -1.90294 0
M  V30 5100 C 478.65 -0.0174958 -3.59896 0
M  V30 5101 C 478.258 -1.3746 -4.2639 0
M  V30 5102 C 480.002 0.453934 -4.22066 0
M  V30 5103 C 477.909 -1.31289 -5.76643 0
M  V30 5104 H 476.839 -0.0104511 -0.753928 0
M  V30 5105 H 479.49 -0.710966 -1.69167 0
M  V30 5106 H 477.872 0.721182 -3.89378 0
M  V30 5107 H 479.046 -2.1314 -4.08544 0
M  V30 5108 H 477.361 -1.78438 -3.7623 0
M  V30 5109 H 479.958 0.518584 -5.32179 0
M  V30 5110 H 480.301 1.46706 -3.89594 0
M  V30 5111 H 480.834 -0.230044 -3.97134 0
M  V30 5112 H 477.573 -2.30217 -6.13743 0
M  V30 5113 H 477.093 -0.597973 -5.96812 0
M  V30 5114 H 478.772 -1.01713 -6.38955 0
M  V30 5115 N 478.904 1.54736 -0.299062 0
M  V30 5116 C 480.181 1.92187 0.363802 0
M  V30 5117 C 480.561 1.22607 1.71845 0
M  V30 5118 O 479.909 0.361141 2.25628 0
M  V30 5119 C 480.119 3.45678 0.480377 0
M  V30 5120 C 481.467 4.17885 0.752147 0
M  V30 5121 O 482.491 3.51702 0.564264 0
M  V30 5122 O 481.35 5.35048 1.11294 0
M  V30 5123 H 478.444 0.801681 0.203066 0
M  V30 5124 H 480.99 1.66115 -0.346978 0
M  V30 5125 H 479.762 3.88443 -0.471999 0
M  V30 5126 H 479.385 3.77779 1.2397 0
M  V30 5127 N 480.382 0.0267497 1.57577 0
M  V30 5128 C 481.314 -0.984594 2.06974 0
M  V30 5129 C 482.327 -1.29032 0.992705 0
M  V30 5130 O 483.516 -1.25539 1.26895 0
M  V30 5131 C 480.616 -2.31262 2.47732 0
M  V30 5132 C 479.789 -2.1924 3.78487 0
M  V30 5133 C 478.848 -3.34956 4.05821 0
M  V30 5134 O 477.874 -3.11948 4.76106 0
M  V30 5135 N 479.076 -4.58672 3.55809 0
M  V30 5136 H 481.841 -0.563143 2.94362 0
M  V30 5137 H 479.402 -0.160061 1.61107 0
M  V30 5138 H 481.394 -3.07496 2.63112 0
M  V30 5139 H 479.964 -2.65056 1.65723 0
M  V30 5140 H 479.184 -1.27747 3.72927 0
M  V30 5141 H 480.472 -2.08409 4.64158 0
M  V30 5142 H 479.87 -4.8026 2.98942 0
M  V30 5143 H 478.427 -5.32083 3.76472 0
M  V30 5144 N 481.861 -1.55662 -0.24637 0
M  V30 5145 C 483.138 -1.68272 -0.997198 0
M  V30 5146 C 483.518 -0.566785 -2.03349 0
M  V30 5147 O 482.866 0.429688 -2.24424 0
M  V30 5148 C 483.076 -3.08594 -1.63006 0
M  V30 5149 C 484.424 -3.6721 -2.13171 0
M  V30 5150 O 485.448 -3.11397 -1.72946 0
M  V30 5151 O 484.307 -4.65054 -2.87031 0
M  V30 5152 H 481.401 -0.684429 -0.464205 0
M  V30 5153 H 483.947 -1.67993 -0.240114 0
M  V30 5154 H 482.719 -3.81264 -0.880527 0
M  V30 5155 H 482.342 -3.12886 -2.45333 0
M  V30 5156 N 483.339 0.512053 -1.4905 0
M  V30 5157 C 484.755 0.84224 -1.35567 0
M  V30 5158 C 484.955 1.97878 -0.380319 0
M  V30 5159 O 484.011 2.51769 0.19201 0
M  V30 5160 C 485.324 1.19286 -2.76028 0
M  V30 5161 C 486.872 1.30171 -2.84648 0
M  V30 5162 C 487.347 1.68568 -4.25851 0
M  V30 5163 N 488.838 1.75638 -4.28609 0
M  V30 5164 C 489.573 2.06769 -5.34821 0
M  V30 5165 N 489.069 2.36201 -6.51292 0
M  V30 5166 N 490.862 2.07927 -5.22229 0
M  V30 5167 H 483.013 -0.237574 -2.11067 0
M  V30 5168 H 485.276 -0.0436747 -0.946993 0
M  V30 5169 H 484.982 0.431199 -3.49047 0
M  V30 5170 H 484.856 2.13889 -3.10695 0
M  V30 5171 H 487.243 2.05411 -2.11873 0
M  V30 5172 H 487.324 0.336457 -2.53578 0
M  V30 5173 H 486.968 0.938824 -4.99148 0
M  V30 5174 H 486.898 2.66174 -4.54377 0
M  V30 5175 H 489.389 1.55097 -3.44606 0
M  V30 5176 H 489.702 2.59112 -7.28066 0
M  V30 5177 H 488.047 2.33681 -6.54536 0
M  V30 5178 H 491.238 1.84403 -4.30248 0
M  V30 5179 H 491.411 2.31856 -6.05101 0
M  V30 5180 N 484.817 1.37938 0.762283 0
M  V30 5181 C 485.78 1.34279 1.85747 0
M  V30 5182 C 486.78 0.244969 1.58923 0
M  V30 5183 O 487.97 0.501365 1.66829 0
M  V30 5184 C 485.102 1.08833 3.23061 0
M  V30 5185 H 486.295 2.31705 1.90401 0
M  V30 5186 H 483.848 1.23105 0.963057 0
M  V30 5187 H 484.583 0.119767 3.24079 0
M  V30 5188 H 484.368 1.88306 3.43923 0
M  V30 5189 H 485.858 1.08946 4.03138 0
M  V30 5190 N 486.295 -0.989507 1.22664 0
M  V30 5191 C 487.258 -2.06183 1.00106 0
M  V30 5192 C 488.258 -1.60765 -0.0337726 0
M  V30 5193 O 489.448 -1.72989 0.205072 0
M  V30 5194 C 486.58 -3.37021 0.51279 0
M  V30 5195 H 487.773 -2.27629 1.95256 0
M  V30 5196 H 485.326 -1.16158 1.0458 0
M  V30 5197 H 486.061 -3.21261 -0.442917 0
M  V30 5198 H 485.846 -3.71323 1.25942 0
M  V30 5199 H 487.336 -4.1591 0.375315 0
M  V30 5200 N 487.773 -1.03688 -1.18687 0
M  V30 5201 C 489.02 -0.73803 -1.88572 0
M  V30 5202 C 489.348 0.733973 -1.8012 0
M  V30 5203 O 488.603 1.55098 -1.19344 0
M  V30 5204 C 488.902 -1.14477 -3.3857 0
M  V30 5205 C 488.568 -2.61641 -3.67226 0
M  V30 5206 C 487.23 -3.01846 -3.74757 0
M  V30 5207 C 489.582 -3.56812 -3.79914 0
M  V30 5208 C 486.91 -4.36118 -3.92451 0
M  V30 5209 C 489.262 -4.90799 -3.99123 0
M  V30 5210 C 487.926 -5.3068 -4.04888 0
M  V30 5211 H 487.196 -0.270064 -0.690034 0
M  V30 5212 H 489.843 -1.3012 -1.40503 0
M  V30 5213 H 488.148 -0.500337 -3.88592 0
M  V30 5214 H 489.845 -0.89095 -3.90977 0
M  V30 5215 H 486.435 -2.29498 -3.61979 0
M  V30 5216 H 490.619 -3.26899 -3.73431 0
M  V30 5217 H 485.875 -4.66542 -3.95157 0
M  V30 5218 H 490.049 -5.64451 -4.07882 0
M  V30 5219 H 487.676 -6.34733 -4.18351 0
M  V30 5220 N 489.251 1.34841 -0.815825 0
M  V30 5221 C 490.181 2.32187 -0.247298 0
M  V30 5222 C 491.162 1.5791 0.632344 0
M  V30 5223 O 492.347 1.8593 0.560698 0
M  V30 5224 C 489.477 3.42122 0.597466 0
M  V30 5225 C 488.431 4.27602 -0.184446 0
M  V30 5226 C 487.757 5.28942 0.782609 0
M  V30 5227 C 489.057 5.03502 -1.38865 0
M  V30 5228 H 490.751 2.79985 -1.06061 0
M  V30 5229 H 488.297 1.34611 -0.511461 0
M  V30 5230 H 490.25 4.09232 1.00533 0
M  V30 5231 H 488.974 2.92956 1.44376 0
M  V30 5232 H 487.633 3.62085 -0.573592 0
M  V30 5233 H 487.281 4.7604 1.62466 0
M  V30 5234 H 486.981 5.87008 0.263695 0
M  V30 5235 H 488.505 5.98922 1.18848 0
M  V30 5236 H 489.919 5.63506 -1.05518 0
M  V30 5237 H 488.316 5.71108 -1.8427 0
M  V30 5238 H 489.386 4.33608 -2.17054 0
M  V30 5239 N 490.729 0.570148 1.46925 0
M  V30 5240 C 491.659 -0.158274 2.32963 0
M  V30 5241 C 492.64 -0.896093 1.44583 0
M  V30 5242 O 493.825 -0.874022 1.7342 0
M  V30 5243 C 490.955 -1.18055 3.26619 0
M  V30 5244 C 489.909 -0.558379 4.24342 0
M  V30 5245 C 489.235 -1.68623 5.07415 0
M  V30 5246 C 490.535 0.496295 5.19937 0
M  V30 5247 H 492.229 0.560046 2.94115 0
M  V30 5248 H 489.775 0.270775 1.41431 0
M  V30 5249 H 491.728 -1.69841 3.85658 0
M  V30 5250 H 490.452 -1.92899 2.63548 0
M  V30 5251 H 489.111 -0.0617157 3.66548 0
M  V30 5252 H 488.759 -2.42402 4.40738 0
M  V30 5253 H 488.459 -1.27564 5.73586 0
M  V30 5254 H 489.983 -2.20709 5.69315 0
M  V30 5255 H 491.397 0.0640052 5.73264 0
M  V30 5256 H 489.794 0.82649 5.94381 0
M  V30 5257 H 490.864 1.38735 4.6463 0
M  V30 5258 N 492.207 -1.54576 0.307264 0
M  V30 5259 C 493.432 -2.05139 -0.305379 0
M  V30 5260 C 493.857 -1.18278 -1.46259 0
M  V30 5261 O 493.215 -0.188243 -1.8032 0
M  V30 5262 C 493.263 -3.53066 -0.733283 0
M  V30 5263 O 492.367 -3.69206 -1.83741 0
M  V30 5264 H 491.708 -0.661444 -0.0582105 0
M  V30 5265 H 494.238 -1.99569 0.450931 0
M  V30 5266 H 494.248 -3.95034 -1.02039 0
M  V30 5267 H 492.923 -4.15746 0.113198 0
M  V30 5268 H 491.5 -3.39143 -1.55037 0
M  V30 5269 N 493.685 -0.035106 -1.57561 0
M  V30 5270 C 494.913 0.652258 -1.9635 0
M  V30 5271 C 495.328 1.65317 -0.911897 0
M  V30 5272 O 494.685 1.82194 0.105657 0
M  V30 5273 C 494.736 1.35337 -3.35211 0
M  V30 5274 O 494.457 0.392548 -4.36338 0
M  V30 5275 C 495.958 2.13199 -3.88666 0
M  V30 5276 H 493.178 0.179444 -0.646561 0
M  V30 5277 H 495.722 -0.0966459 -2.04271 0
M  V30 5278 H 493.877 2.05362 -3.28489 0
M  V30 5279 H 494.291 0.891097 -5.16875 0
M  V30 5280 H 495.765 2.577 -4.88154 0
M  V30 5281 H 496.242 2.97353 -3.23231 0
M  V30 5282 H 496.848 1.48118 -3.98674 0
M  V30 5283 N 495.163 1.55791 0.238111 0
M  V30 5284 C 496.096 1.86036 1.32158 0
M  V30 5285 C 497.074 0.716216 1.45976 0
M  V30 5286 O 498.258 0.962882 1.62052 0
M  V30 5287 C 495.385 2.05281 2.69402 0
M  V30 5288 C 494.431 3.27939 2.72687 0
M  V30 5289 S 495.264 4.84342 2.28413 0
M  V30 5290 C 496.42 5.06604 3.67565 0
M  V30 5291 H 496.653 2.77644 1.06306 0
M  V30 5292 H 494.186 1.48012 0.439537 0
M  V30 5293 H 496.144 2.17053 3.48423 0
M  V30 5294 H 494.805 1.14499 2.92487 0
M  V30 5295 H 493.998 3.38398 3.73501 0
M  V30 5296 H 493.6 3.14938 2.01717 0
M  V30 5297 H 495.892 4.94486 4.6313 0
M  V30 5298 H 496.835 6.08554 3.62033 0
M  V30 5299 H 497.243 4.34409 3.60485 0
M  V30 5300 N 496.642 -0.504142 1.49319 0
M  V30 5301 C 497.605 -1.5883 1.65244 0
M  V30 5302 C 498.605 -1.52009 0.524386 0
M  V30 5303 O 499.795 -1.55218 0.79077 0
M  V30 5304 C 496.927 -2.98481 1.64687 0
M  V30 5305 H 498.12 -1.4604 2.61939 0
M  V30 5306 H 495.673 -0.728144 1.38303 0
M  V30 5307 H 496.408 -3.16751 0.695644 0
M  V30 5308 H 496.193 -3.0484 2.46607 0
M  V30 5309 H 497.683 -3.77256 1.79075 0
M  V30 5310 N 498.12 -1.38341 -0.754957 0
M  V30 5311 C 499.369 -1.33791 -1.5094 0
M  V30 5312 C 499.682 0.0699267 -1.95475 0
M  V30 5313 O 500.888 0.237956 -2.70455 0
M  V30 5314 C 499.344 -2.34934 -2.72643 0
M  V30 5315 C 498.952 -3.81332 -2.35138 0
M  V30 5316 C 500.696 -2.39425 -3.50536 0
M  V30 5317 C 498.603 -4.74164 -3.53444 0
M  V30 5318 H 497.533 -0.497314 -0.566741 0
M  V30 5319 H 500.184 -1.63888 -0.825403 0
M  V30 5320 H 498.566 -1.97878 -3.43017 0
M  V30 5321 H 499.74 -4.27319 -1.7244 0
M  V30 5322 H 498.055 -3.79946 -1.70382 0
M  V30 5323 H 500.652 -3.0598 -4.38498 0
M  V30 5324 H 500.995 -1.41278 -3.91594 0
M  V30 5325 H 501.528 -2.75274 -2.87174 0
M  V30 5326 H 498.267 -5.73501 -3.17453 0
M  V30 5327 H 497.787 -4.3287 -4.15191 0
M  V30 5328 H 499.466 -4.92111 -4.20043 0
M  V30 5329 N 499.598 0.982988 -1.23187 0
M  V30 5330 C 500.561 2.05649 -1.01198 0
M  V30 5331 C 501.561 1.6078 0.0252464 0
M  V30 5332 O 502.751 1.72878 -0.214243 0
M  V30 5333 C 499.883 3.36744 -0.530656 0
M  V30 5334 H 501.076 2.2659 -1.96461 0
M  V30 5335 H 498.629 1.15602 -1.05195 0
M  V30 5336 H 499.364 3.21492 0.425873 0
M  V30 5337 H 499.149 3.7065 -1.2791 0
M  V30 5338 H 500.639 4.15705 -0.397366 0
M  V30 5339 N 501.076 1.04316 1.18135 0
M  V30 5340 C 501.986 0.646876 2.25505 0
M  V30 5341 C 503.002 -0.328008 1.7088 0
M  V30 5342 O 504.178 -0.182309 2.00573 0
M  V30 5343 C 501.243 0.0185664 3.46695 0
M  V30 5344 C 500.304 1.04277 4.16443 0
M  V30 5345 C 499.537 0.444352 5.31847 0
M  V30 5346 O 499.76 -0.748735 5.65465 0
M  V30 5347 O 498.694 1.17428 5.90334 0
M  V30 5348 H 502.52 1.54147 2.61672 0
M  V30 5349 H 500.105 0.814188 1.25265 0
M  V30 5350 H 501.987 -0.331068 4.20097 0
M  V30 5351 H 500.662 -0.849814 3.12346 0
M  V30 5352 H 499.569 1.44425 3.45098 0
M  V30 5353 H 500.902 1.882 4.54798 0
M  V30 5354 N 502.554 -1.34406 0.822964 0
M  V30 5355 C 503.8 -1.98578 0.411666 0
M  V30 5356 C 504.133 -1.65093 -1.02264 0
M  V30 5357 O 503.408 -0.92258 -1.71227 0
M  V30 5358 C 503.691 -3.54823 0.614235 0
M  V30 5359 C 503.544 -3.9805 2.09466 0
M  V30 5360 C 504.863 -4.40071 0.050221 0
M  V30 5361 H 501.982 -0.721355 0.151047 0
M  V30 5362 H 504.624 -1.59301 1.03554 0
M  V30 5363 H 502.774 -3.88411 0.0831774 0
M  V30 5364 H 504.446 -3.74795 2.68936 0
M  V30 5365 H 502.689 -3.4836 2.5851 0
M  V30 5366 H 503.36 -5.06819 2.18721 0
M  V30 5367 H 505.836 -4.13037 0.503953 0
M  V30 5368 H 504.712 -5.48452 0.221759 0
M  V30 5369 H 504.973 -4.29576 -1.04482 0
M  V30 5370 N 504.032 -0.577932 -1.46621 0
M  V30 5371 C 505.279 -0.0616879 -2.02406 0
M  V30 5372 C 505.607 1.29638 -1.44997 0
M  V30 5373 O 504.862 1.86176 -0.60308 0
M  V30 5374 C 505.161 0.0590832 -3.57351 0
M  V30 5375 C 504.827 -1.23077 -4.33777 0
M  V30 5376 C 503.489 -1.58416 -4.54376 0
M  V30 5377 C 505.841 -2.08457 -4.77698 0
M  V30 5378 C 503.169 -2.78943 -5.16147 0
M  V30 5379 C 505.521 -3.28204 -5.408 0
M  V30 5380 C 504.185 -3.63832 -5.59627 0
M  V30 5381 H 503.455 -0.0225732 -0.740656 0
M  V30 5382 H 506.102 -0.753609 -1.76048 0
M  V30 5383 H 504.407 0.834104 -3.82818 0
M  V30 5384 H 506.104 0.474202 -3.98186 0
M  V30 5385 H 502.694 -0.945652 -4.18038 0
M  V30 5386 H 506.878 -1.82459 -4.61544 0
M  V30 5387 H 502.134 -3.06689 -5.28916 0
M  V30 5388 H 506.308 -3.94634 -5.73792 0
M  V30 5389 H 503.935 -4.57315 -6.07262 0
M  V30 5390 N 505.51 1.54411 -0.315457 0
M  V30 5391 C 506.758 2.00023 0.288971 0
M  V30 5392 C 507.079 1.20529 1.5329 0
M  V30 5393 O 506.349 0.304986 1.93511 0
M  V30 5394 H 504.929 0.738891 0.109766 0
M  V30 5395 H 507.591 1.90094 -0.430129 0
M  V30 5396 H 506.687 3.07198 0.550999 0
M  V30 5397 N 506.988 0.0434614 1.5754 0
M  V30 5398 C 508.404 -0.313039 1.565 0
M  V30 5399 C 508.604 -1.71954 1.05043 0
M  V30 5400 O 507.66 -2.425 0.703564 0
M  V30 5401 C 508.973 -0.148544 3.00333 0
M  V30 5402 C 510.521 -0.220231 3.12224 0
M  V30 5403 C 510.996 -0.0843565 4.57922 0
M  V30 5404 N 512.487 -0.140881 4.62986 0
M  V30 5405 C 513.222 -0.0597443 5.73369 0
M  V30 5406 N 512.718 0.0733004 6.92761 0
M  V30 5407 N 514.511 -0.11477 5.61983 0
M  V30 5408 H 506.662 0.96303 1.89313 0
M  V30 5409 H 508.925 0.373164 0.871466 0
M  V30 5410 H 508.631 0.820894 3.41986 0
M  V30 5411 H 508.505 -0.912798 3.65989 0
M  V30 5412 H 510.892 -1.18014 2.70475 0
M  V30 5413 H 510.973 0.574646 2.49262 0
M  V30 5414 H 510.617 0.872192 5.00355 0
M  V30 5415 H 510.547 -0.898281 5.18882 0
M  V30 5416 H 513.038 -0.243273 3.77116 0
M  V30 5417 H 513.351 0.128128 7.72694 0
M  V30 5418 H 511.696 0.10828 6.94916 0
M  V30 5419 H 514.887 -0.217212 4.67596 0
M  V30 5420 H 515.06 -0.0480779 6.47982 0
M  V30 5421 N 508.466 -1.55915 -0.229846 0
M  V30 5422 C 509.715 -1.77742 -0.953455 0
M  V30 5423 C 510.028 -0.610524 -1.85828 0
M  V30 5424 O 511.234 -0.712219 -2.61992 0
M  V30 5425 C 509.69 -3.14738 -1.74551 0
M  V30 5426 C 509.298 -4.39126 -0.887242 0
M  V30 5427 C 511.042 -3.45895 -2.46084 0
M  V30 5428 C 508.949 -5.67149 -1.67617 0
M  V30 5429 H 507.879 -0.662648 -0.359741 0
M  V30 5430 H 510.53 -1.82322 -0.207576 0
M  V30 5431 H 508.912 -3.04311 -2.53399 0
M  V30 5432 H 510.086 -4.60588 -0.139892 0
M  V30 5433 H 508.401 -4.15427 -0.284443 0
M  V30 5434 H 510.998 -4.38767 -3.05594 0
M  V30 5435 H 511.341 -2.68007 -3.18556 0
M  V30 5436 H 511.874 -3.57614 -1.74233 0
M  V30 5437 H 508.613 -6.47906 -0.994881 0
M  V30 5438 H 508.133 -5.49763 -2.39836 0
M  V30 5439 H 509.812 -6.07025 -2.23898 0
M  V30 5440 N 509.944 0.496216 -1.49584 0
M  V30 5441 C 511.192 1.24756 -1.58998 0
M  V30 5442 C 511.513 1.92968 -0.280775 0
M  V30 5443 O 510.783 1.82959 0.700198 0
M  V30 5444 H 509.363 0.463471 -0.585836 0
M  V30 5445 H 512.025 0.574678 -1.86235 0
M  V30 5446 H 511.121 2.00895 -2.38847 0
M  V30 5447 N 511.423 1.38739 0.74761 0
M  V30 5448 C 512.386 1.36241 1.84312 0
M  V30 5449 C 513.386 0.261811 1.58654 0
M  V30 5450 O 514.576 0.519031 1.66288 0
M  V30 5451 C 511.708 1.12253 3.21888 0
M  V30 5452 H 512.901 2.33712 1.87933 0
M  V30 5453 H 510.454 1.2412 0.949946 0
M  V30 5454 H 511.189 0.154133 3.23934 0
M  V30 5455 H 510.974 1.91943 3.41907 0
M  V30 5456 H 512.464 1.13215 4.0196 0
M  V30 5457 N 512.901 -0.976442 1.23707 0
M  V30 5458 C 514.149 -1.71487 1.06942 0
M  V30 5459 C 514.47 -1.9098 -0.393897 0
M  V30 5460 O 513.74 -1.48128 -1.28198 0
M  V30 5461 H 512.32 -0.635425 0.392739 0
M  V30 5462 H 514.982 -1.17515 1.55487 0
M  V30 5463 H 514.078 -2.70286 1.56051 0
M  V30 5464 N 514.379 -1.04941 -1.1758 0
M  V30 5465 C 515.626 -0.757989 -1.87779 0
M  V30 5466 C 515.954 0.714827 -1.80888 0
M  V30 5467 O 515.209 1.53824 -1.20982 0
M  V30 5468 C 515.508 -1.18062 -3.37337 0
M  V30 5469 C 515.174 -2.65521 -3.6443 0
M  V30 5470 C 513.836 -3.05804 -3.71534 0
M  V30 5471 C 516.188 -3.60822 -3.76108 0
M  V30 5472 C 513.516 -4.40256 -3.87803 0
M  V30 5473 C 515.868 -4.95005 -3.93895 0
M  V30 5474 C 514.532 -5.34945 -3.99237 0
M  V30 5475 H 513.802 -0.277368 -0.68713 0
M  V30 5476 H 516.449 -1.31603 -1.39115 0
M  V30 5477 H 514.754 -0.541525 -3.8804 0
M  V30 5478 H 516.451 -0.932368 -3.9001 0
M  V30 5479 H 513.041 -2.33324 -3.59524 0
M  V30 5480 H 517.225 -3.30841 -3.69943 0
M  V30 5481 H 512.481 -4.70707 -3.90186 0
M  V30 5482 H 516.655 -5.68746 -4.01872 0
M  V30 5483 H 514.282 -6.39135 -4.11596 0
M  V30 5484 N 515.857 1.33968 -0.830081 0
M  V30 5485 C 517.103 1.98357 -0.422191 0
M  V30 5486 C 517.436 1.65633 1.01387 0
M  V30 5487 O 516.711 0.931648 1.70735 0
M  V30 5488 C 516.994 3.54492 -0.633043 0
M  V30 5489 C 516.847 3.96934 -2.11574 0
M  V30 5490 C 518.166 4.40039 -0.0735584 0
M  V30 5491 H 515.285 0.720544 -0.154871 0
M  V30 5492 H 517.927 1.58749 -1.04397 0
M  V30 5493 H 516.077 3.88361 -0.103775 0
M  V30 5494 H 517.749 3.73363 -2.7092 0
M  V30 5495 H 515.992 3.46984 -2.60354 0
M  V30 5496 H 516.663 5.05651 -2.21406 0
M  V30 5497 H 519.139 4.12764 -0.52585 0
M  V30 5498 H 518.015 5.48327 -0.250841 0
M  V30 5499 H 518.276 4.30124 1.02202 0
M  V30 5500 N 517.335 0.585699 1.46312 0
M  V30 5501 C 518.265 -0.133556 2.33118 0
M  V30 5502 C 519.246 -0.880707 1.45525 0
M  V30 5503 O 520.431 -0.855579 1.74337 0
M  V30 5504 C 517.561 -1.14585 3.27853 0
M  V30 5505 C 516.515 -0.513341 4.2491 0
M  V30 5506 C 515.841 -1.63231 5.09175 0
M  V30 5507 C 517.141 0.551413 5.19381 0
M  V30 5508 H 518.835 0.59121 2.93505 0
M  V30 5509 H 516.381 0.285761 1.41136 0
M  V30 5510 H 518.334 -1.65741 3.87438 0
M  V30 5511 H 517.058 -1.90093 2.65579 0
M  V30 5512 H 515.717 -0.0228349 3.66593 0
M  V30 5513 H 515.365 -2.37713 4.43285 0
M  V30 5514 H 515.065 -1.21473 5.74907 0
M  V30 5515 H 516.589 -2.14658 5.71624 0
M  V30 5516 H 518.003 0.124804 5.73164 0
M  V30 5517 H 516.4 0.889486 5.93471 0
M  V30 5518 H 517.47 1.43655 4.63132 0
M  V30 5519 N 518.813 -1.54241 0.323641 0
M  V30 5520 C 519.761 -2.25813 -0.557804 0
M  V30 5521 C 520.755 -1.27225 -1.11849 0
M  V30 5522 O 521.961 -1.45001 -1.06652 0
M  V30 5523 H 518.336 -0.72532 -0.198532 0
M  V30 5524 H 520.307 -2.98322 0.0681112 0
M  V30 5525 C 519.056 -3.02913 -1.70701 0
M  V30 5526 H 518.379 -3.78593 -1.28482 0
M  V30 5527 H 519.819 -3.56238 -2.29935 0
M  V30 5528 C 518.278 -2.11217 -2.62467 0
M  V30 5529 O 518.808 -1.69508 -3.64184 0
M  V30 5530 N 517.014 -1.76704 -2.30703 0
M  V30 5531 H 516.561 -2.1082 -1.48029 0
M  V30 5532 H 516.519 -1.15631 -2.92364 0
M  V30 5533 N 520.291 -0.0518155 -1.57515 0
M  V30 5534 C 521.707 0.304735 -1.56664 0
M  V30 5535 C 521.907 1.71395 -1.05953 0
M  V30 5536 O 520.963 2.42123 -0.716414 0
M  V30 5537 C 522.276 0.132614 -3.00407 0
M  V30 5538 C 523.824 0.20367 -3.12337 0
M  V30 5539 C 524.299 0.0600706 -4.57961 0
M  V30 5540 N 525.79 0.116326 -4.63054 0
M  V30 5541 C 526.525 0.0293363 -5.73392 0
M  V30 5542 N 526.021 -0.110038 -6.92713 0
M  V30 5543 N 527.814 0.0849651 -5.62036 0
M  V30 5544 H 519.965 -0.973056 -1.888 0
M  V30 5545 H 522.228 -0.377781 -0.869474 0
M  V30 5546 H 521.934 -0.839019 -3.41546 0
M  V30 5547 H 521.808 0.893376 -3.66468 0
M  V30 5548 H 524.195 1.16578 -2.71097 0
M  V30 5549 H 524.276 -0.587857 -2.48954 0
M  V30 5550 H 523.92 -0.898715 -4.99886 0
M  V30 5551 H 523.85 0.87075 -5.19351 0
M  V30 5552 H 526.341 0.22327 -3.7724 0
M  V30 5553 H 526.654 -0.169104 -7.72615 0
M  V30 5554 H 524.999 -0.145132 -6.94848 0
M  V30 5555 H 528.19 0.192411 -4.67704 0
M  V30 5556 H 528.363 0.0137131 -6.47999 0
M  V30 5557 N 521.769 1.56035 0.221574 0
M  V30 5558 C 522.679 1.95581 1.29558 0
M  V30 5559 C 523.695 0.859639 1.51282 0
M  V30 5560 O 524.871 1.16321 1.64413 0
M  V30 5561 C 521.936 2.26447 2.62531 0
M  V30 5562 C 520.997 3.49632 2.4911 0
M  V30 5563 C 520.23 3.79017 3.75742 0
M  V30 5564 O 520.453 3.10077 4.78757 0
M  V30 5565 O 519.387 4.72507 3.72855 0
M  V30 5566 H 523.213 2.8711 0.990035 0
M  V30 5567 H 520.798 1.43244 0.424434 0
M  V30 5568 H 522.68 2.47494 3.41064 0
M  V30 5569 H 521.355 1.38092 2.92766 0
M  V30 5570 H 520.262 3.33864 1.68777 0
M  V30 5571 H 521.595 4.3837 2.23814 0
M  V30 5572 N 523.247 -0.488276 1.49845 0
M  V30 5573 C 524.658 -1.06955 1.53028 0
M  V30 5574 C 525.009 -1.9351 0.323797 0
M  V30 5575 O 524.134 -2.08891 -0.565116 0
M  V30 5576 C 524.729 -1.94643 2.77307 0
M  V30 5577 C 523.288 -2.4791 2.83227 0
M  V30 5578 C 522.435 -1.25833 2.47106 0
M  V30 5579 H 525.386 -0.271626 1.56358 0
M  V30 5580 H 525.407 -2.79496 2.5819 0
M  V30 5581 H 524.919 -1.31621 3.65099 0
M  V30 5582 H 523.02 -3.14535 1.99745 0
M  V30 5583 H 523.133 -2.84193 3.85709 0
M  V30 5584 H 521.497 -1.58764 1.99163 0
M  V30 5585 H 522.28 -0.644993 3.37186 0
M  V30 5586 N 524.725 -1.39134 -0.740242 0
M  V30 5587 C 525.974 -1.35384 -1.49512 0
M  V30 5588 C 526.287 0.04919 -1.95538 0
M  V30 5589 O 527.493 0.209257 -2.70692 0
M  V30 5590 C 525.949 -2.37812 -2.70136 0
M  V30 5591 C 525.557 -3.83804 -2.31081 0
M  V30 5592 C 527.301 -2.4313 -3.47977 0
M  V30 5593 C 525.208 -4.77886 -3.48395 0
M  V30 5594 H 524.138 -0.503297 -0.561434 0
M  V30 5595 H 526.789 -1.64754 -0.807974 0
M  V30 5596 H 525.171 -2.01505 -3.40899 0
M  V30 5597 H 526.345 -4.29123 -1.67898 0
M  V30 5598 H 524.66 -3.81732 -1.66343 0
M  V30 5599 H 527.257 -3.10614 -4.35228 0
M  V30 5600 H 527.6 -1.45423 -3.90074 0
M  V30 5601 H 528.133 -2.78304 -2.84239 0
M  V30 5602 H 524.872 -5.76836 -3.11353 0
M  V30 5603 H 524.392 -4.3725 -4.10576 0
M  V30 5604 H 526.071 -4.96538 -4.148 0
M  V30 5605 N 526.204 0.969867 -1.24223 0
M  V30 5606 C 527.62 1.23809 -1.00716 0
M  V30 5607 C 527.82 1.99469 0.285358 0
M  V30 5608 O 526.876 2.31764 1.00207 0
M  V30 5609 C 528.189 2.02734 -2.2208 0
M  V30 5610 C 529.737 2.15834 -2.26681 0
M  V30 5611 C 530.212 2.98154 -3.47661 0
M  V30 5612 N 531.703 3.05737 -3.47964 0
M  V30 5613 C 532.438 3.69785 -4.38231 0
M  V30 5614 N 531.934 4.35569 -5.3875 0
M  V30 5615 N 533.727 3.66775 -4.25949 0
M  V30 5616 H 525.878 0.463294 -2.07286 0
M  V30 5617 H 528.141 0.267348 -0.909521 0
M  V30 5618 H 527.847 1.54524 -3.15935 0
M  V30 5619 H 527.721 3.0347 -2.24021 0
M  V30 5620 H 530.108 2.63248 -1.33359 0
M  V30 5621 H 530.189 1.14453 -2.28767 0
M  V30 5622 H 529.833 2.51435 -4.41297 0
M  V30 5623 H 529.763 3.99729 -3.42818 0
M  V30 5624 H 532.254 2.58941 -2.75242 0
M  V30 5625 H 532.567 4.82251 -6.03866 0
M  V30 5626 H 530.912 4.34244 -5.42639 0
M  V30 5627 H 534.103 3.14558 -3.46657 0
M  V30 5628 H 534.276 4.16407 -4.96497 0
M  V30 5629 N 527.682 1.05563 1.17022 0
M  V30 5630 C 528.629 0.659893 2.21165 0
M  V30 5631 C 529.599 -0.339813 1.62587 0
M  V30 5632 O 530.784 -0.230378 1.89404 0
M  V30 5633 C 527.924 0.0447297 3.45071 0
M  V30 5634 C 527.037 1.09372 4.17926 0
M  V30 5635 C 526.172 0.445481 5.29329 0
M  V30 5636 C 525.211 1.47852 5.93975 0
M  V30 5637 N 524.348 0.854172 6.96885 0
M  V30 5638 H 529.188 1.55243 2.54369 0
M  V30 5639 H 526.725 0.776336 1.24946 0
M  V30 5640 H 528.683 -0.329404 4.15898 0
M  V30 5641 H 527.313 -0.811244 3.1244 0
M  V30 5642 H 526.365 1.58564 3.45777 0
M  V30 5643 H 527.677 1.87773 4.62107 0
M  V30 5644 H 526.831 0.0179688 6.06697 0
M  V30 5645 H 525.57 -0.370481 4.86291 0
M  V30 5646 H 524.575 1.91601 5.15334 0
M  V30 5647 H 525.8 2.29645 6.39093 0
M  V30 5648 H 523.746 0.0587882 6.55974 0
M  V30 5649 H 523.663 1.57567 7.39397 0
M  V30 5650 H 524.931 0.451559 7.78191 0
M  V30 5651 N 529.16 -1.33526 0.837174 0
M  V30 5652 C 530.409 -1.97098 0.428387 0
M  V30 5653 C 530.722 -1.67062 -1.01734 0
M  V30 5654 O 531.928 -2.24235 -1.53072 0
M  V30 5655 C 530.384 -3.52725 0.715075 0
M  V30 5656 C 529.992 -3.9164 2.17537 0
M  V30 5657 C 531.736 -4.22857 0.373154 0
M  V30 5658 C 529.643 -5.40237 2.40619 0
M  V30 5659 H 528.573 -0.737589 0.156455 0
M  V30 5660 H 531.224 -1.52169 1.02552 0
M  V30 5661 H 529.606 -3.95971 0.0475904 0
M  V30 5662 H 530.78 -3.59456 2.88319 0
M  V30 5663 H 529.095 -3.34485 2.4801 0
M  V30 5664 H 531.692 -5.32133 0.523264 0
M  V30 5665 H 532.035 -4.10647 -0.683708 0
M  V30 5666 H 532.568 -3.85135 0.995801 0
M  V30 5667 H 529.307 -5.57449 3.44864 0
M  V30 5668 H 528.827 -5.73887 1.74396 0
M  V30 5669 H 530.506 -6.07102 2.23688 0
M  V30 5670 N 530.638 -0.59345 -1.46 0
M  V30 5671 C 531.868 -0.0889642 -2.06408 0
M  V30 5672 C 532.276 1.22597 -1.44106 0
M  V30 5673 O 531.619 1.75448 -0.544398 0
M  V30 5674 C 531.681 0.139902 -3.59228 0
M  V30 5675 C 531.345 -1.09107 -4.43784 0
M  V30 5676 C 532.342 -2.00577 -4.79651 0
M  V30 5677 C 530.027 -1.31593 -4.84756 0
M  V30 5678 C 532.021 -3.12873 -5.55328 0
M  V30 5679 C 529.708 -2.44192 -5.60191 0
M  V30 5680 C 530.706 -3.34661 -5.95392 0
M  V30 5681 O 530.394 -4.45302 -6.69299 0
M  V30 5682 H 530.126 -0.0594613 -0.67338 0
M  V30 5683 H 532.68 -0.817 -1.88452 0
M  V30 5684 H 530.91 0.922672 -3.75531 0
M  V30 5685 H 532.599 0.594228 -4.01527 0
M  V30 5686 H 533.365 -1.84425 -4.48567 0
M  V30 5687 H 529.244 -0.620801 -4.56801 0
M  V30 5688 H 532.788 -3.83511 -5.82722 0
M  V30 5689 H 528.685 -2.60303 -5.90688 0
M  V30 5690 H 529.453 -4.43805 -6.87735 0
M  V30 5691 N 532.116 1.54067 -0.331816 0
M  V30 5692 C 533.365 1.99895 0.269209 0
M  V30 5693 C 533.678 1.22371 1.52593 0
M  V30 5694 O 534.884 1.58618 2.20347 0
M  V30 5695 C 533.34 3.55972 0.530244 0
M  V30 5696 C 532.948 4.4234 -0.709901 0
M  V30 5697 C 534.692 4.10247 1.09077 0
M  V30 5698 C 532.599 5.89905 -0.420312 0
M  V30 5699 H 531.529 0.746741 0.104371 0
M  V30 5700 H 534.18 1.78014 -0.445324 0
M  V30 5701 H 532.562 3.73873 1.30518 0
M  V30 5702 H 533.736 4.36215 -1.48504 0
M  V30 5703 H 532.051 3.98997 -1.19123 0
M  V30 5704 H 534.648 5.18095 1.32219 0
M  V30 5705 H 534.991 3.62739 2.0427 0
M  V30 5706 H 535.524 3.96011 0.376824 0
M  V30 5707 H 532.263 6.41623 -1.34164 0
M  V30 5708 H 531.783 5.98962 0.316962 0
M  V30 5709 H 533.462 6.46991 -0.0331956 0
M  V30 5710 N 533.594 0.0601682 1.57485 0
M  V30 5711 C 534.504 -0.926121 2.15546 0
M  V30 5712 C 535.52 -1.33532 1.11558 0
M  V30 5713 O 536.696 -1.4104 1.4377 0
M  V30 5714 C 533.761 -2.17952 2.69625 0
M  V30 5715 C 532.822 -1.82783 3.88444 0
M  V30 5716 C 532.055 -3.02148 4.39935 0
M  V30 5717 O 532.278 -4.15803 3.90466 0
M  V30 5718 O 531.212 -2.82639 5.31412 0
M  V30 5719 H 535.038 -0.462289 3.00161 0
M  V30 5720 H 532.623 -0.162246 1.48516 0
M  V30 5721 H 534.505 -2.91474 3.04337 0
M  V30 5722 H 533.18 -2.63456 1.88077 0
M  V30 5723 H 532.087 -1.06549 3.58606 0
M  V30 5724 H 533.42 -1.42072 4.7125 0
M  V30 5725 N 535.072 -1.5615 -0.213296 0
M  V30 5726 C 536.002 -1.96109 -1.26742 0
M  V30 5727 C 536.983 -0.830448 -1.48451 0
M  V30 5728 O 538.168 -1.09339 -1.60495 0
M  V30 5729 C 535.298 -2.28492 -2.61551 0
M  V30 5730 C 534.252 -3.44124 -2.54485 0
M  V30 5731 C 533.578 -3.62134 -3.93399 0
M  V30 5732 C 534.878 -4.78855 -2.08556 0
M  V30 5733 H 536.572 -2.84412 -0.935434 0
M  V30 5734 H 534.118 -1.36836 -0.44854 0
M  V30 5735 H 536.071 -2.55039 -3.3546 0
M  V30 5736 H 534.795 -1.37052 -2.96453 0
M  V30 5737 H 533.454 -3.17639 -1.83033 0
M  V30 5738 H 533.102 -2.68055 -4.25623 0
M  V30 5739 H 532.802 -4.39913 -3.89551 0
M  V30 5740 H 534.326 -3.91038 -4.68958 0
M  V30 5741 H 535.74 -5.04552 -2.72213 0
M  V30 5742 H 534.137 -5.59975 -2.1575 0
M  V30 5743 H 535.207 -4.73657 -1.03811 0
M  V30 5744 N 536.55 0.480323 -1.50102 0
M  V30 5745 C 537.799 1.22979 -1.59872 0
M  V30 5746 C 538.112 1.93282 -0.30022 0
M  V30 5747 O 539.318 2.70086 -0.276709 0
M  V30 5748 C 537.774 2.23408 -2.82164 0
M  V30 5749 C 537.382 1.5895 -4.18854 0
M  V30 5750 C 539.126 2.99055 -3.01275 0
M  V30 5751 C 537.033 2.57611 -5.32344 0
M  V30 5752 H 535.963 0.462707 -0.59533 0
M  V30 5753 H 538.614 0.501291 -1.7652 0
M  V30 5754 H 536.996 2.99511 -2.59055 0
M  V30 5755 H 538.17 0.887 -4.52182 0
M  V30 5756 H 536.485 0.956191 -4.05273 0
M  V30 5757 H 539.082 3.72876 -3.83233 0
M  V30 5758 H 539.425 3.57897 -2.12639 0
M  V30 5759 H 539.958 2.30066 -3.24522 0
M  V30 5760 H 536.697 2.03521 -6.23105 0
M  V30 5761 H 536.217 3.26041 -5.03445 0
M  V30 5762 H 537.896 3.19627 -5.62537 0
M  V30 5763 N 538.028 1.39524 0.732853 0
M  V30 5764 C 539.268 1.383 1.50508 0
M  V30 5765 C 539.632 -0.0208271 1.91989 0
M  V30 5766 O 540.833 -0.158091 2.68335 0
M  V30 5767 C 539.104 2.33007 2.71003 0
M  V30 5768 S 540.663 2.49989 3.60626 0
M  V30 5769 H 537.481 0.490417 0.514794 0
M  V30 5770 H 540.083 1.75641 0.858524 0
M  V30 5771 H 538.787 3.33862 2.38672 0
M  V30 5772 H 538.318 1.96889 3.40585 0
M  V30 5773 H 540.333 1.7394 4.64714 0
M  V30 5774 N 539.506 -0.963266 1.24736 0
M  V30 5775 C 540.752 -1.70933 1.09131 0
M  V30 5776 C 541.085 -1.90676 -0.368273 0
M  V30 5777 O 540.36 -1.47147 -1.27193 0
M  V30 5778 C 540.643 -3.09744 1.83658 0
M  V30 5779 C 540.496 -2.97465 3.37394 0
M  V30 5780 C 541.815 -4.09483 1.61282 0
M  V30 5781 H 538.934 -0.620398 0.397838 0
M  V30 5782 H 541.576 -1.12028 1.53459 0
M  V30 5783 H 539.726 -3.60031 1.4598 0
M  V30 5784 H 541.398 -2.54571 3.84696 0
M  V30 5785 H 539.641 -2.33576 3.65547 0
M  V30 5786 H 540.312 -3.95822 3.84745 0
M  V30 5787 H 542.788 -3.68073 1.94066 0
M  V30 5788 H 541.664 -5.04666 2.15878 0
M  V30 5789 H 541.925 -4.38639 0.552102 0
M  V30 5790 N 540.985 -1.06182 -1.16461 0
M  V30 5791 C 542.234 -0.772927 -1.86303 0
M  V30 5792 C 542.547 0.703187 -1.82523 0
M  V30 5793 O 543.753 1.10641 -2.47933 0
M  V30 5794 C 542.209 -1.33249 -3.34324 0
M  V30 5795 C 541.817 -2.83876 -3.46581 0
M  V30 5796 C 543.561 -1.12108 -4.09429 0
M  V30 5797 C 541.468 -3.33082 -4.88682 0
M  V30 5798 H 540.398 -0.285452 -0.697878 0
M  V30 5799 H 543.049 -1.28039 -1.31447 0
M  V30 5800 H 541.431 -0.7528 -3.88779 0
M  V30 5801 H 542.605 -3.47786 -3.02293 0
M  V30 5802 H 540.92 -3.03671 -2.84909 0
M  V30 5803 H 543.517 -1.46361 -5.14279 0
M  V30 5804 H 543.86 -0.0593832 -4.16258 0
M  V30 5805 H 544.393 -1.6665 -3.6121 0
M  V30 5806 H 541.132 -4.38726 -4.87032 0
M  V30 5807 H 540.652 -2.73919 -5.33599 0
M  V30 5808 H 542.331 -3.28344 -5.57494 0
M  V30 5809 N 542.463 1.3308 -0.844243 0
M  V30 5810 C 543.393 2.3161 -0.296493 0
M  V30 5811 C 544.374 1.59215 0.598707 0
M  V30 5812 O 545.559 1.87077 0.521134 0
M  V30 5813 C 542.689 3.43313 0.524762 0
M  V30 5814 C 541.643 4.27115 -0.275106 0
M  V30 5815 C 540.969 5.30483 0.670236 0
M  V30 5816 C 542.269 5.00443 -1.49514 0
M  V30 5817 H 543.963 2.77672 -1.11976 0
M  V30 5818 H 541.509 1.33496 -0.539899 0
M  V30 5819 H 543.462 4.11273 0.918298 0
M  V30 5820 H 542.186 2.95952 1.3813 0
M  V30 5821 H 540.845 3.60787 -0.650267 0
M  V30 5822 H 540.493 4.79379 1.52332 0
M  V30 5823 H 540.193 5.87435 0.139123 0
M  V30 5824 H 541.717 6.01308 1.06117 0
M  V30 5825 H 543.131 5.61141 -1.17447 0
M  V30 5826 H 541.528 5.67071 -1.96343 0
M  V30 5827 H 542.598 4.28906 -2.26202 0
M  V30 5828 N 543.941 0.601185 1.45683 0
M  V30 5829 C 544.871 -0.108824 2.33246 0
M  V30 5830 C 545.852 -0.865223 1.46451 0
M  V30 5831 O 547.037 -0.83704 1.75235 0
M  V30 5832 C 544.167 -1.11101 3.2905 0
M  V30 5833 C 543.121 -0.468244 4.25431 0
M  V30 5834 C 542.447 -1.57822 5.10878 0
M  V30 5835 C 543.747 0.606469 5.18767 0
M  V30 5836 H 545.441 0.622306 2.92861 0
M  V30 5837 H 542.987 0.300714 1.40825 0
M  V30 5838 H 544.94 -1.61622 3.89174 0
M  V30 5839 H 543.664 -1.87265 2.67581 0
M  V30 5840 H 542.323 0.0160484 3.66596 0
M  V30 5841 H 541.971 -2.32998 4.45781 0
M  V30 5842 H 541.671 -1.15369 5.76163 0
M  V30 5843 H 543.195 -2.08583 5.73869 0
M  V30 5844 H 544.609 0.185589 5.73 0
M  V30 5845 H 543.006 0.952381 5.92494 0
M  V30 5846 H 544.076 1.48559 4.61582 0
M  V30 5847 N 545.419 -1.53889 0.339982 0
M  V30 5848 C 546.647 -2.05271 -0.259114 0
M  V30 5849 C 547.062 -1.21517 -1.44496 0
M  V30 5850 O 546.419 -0.24966 -1.80784 0
M  V30 5851 C 546.47 -3.55092 -0.677634 0
M  V30 5852 O 546.191 -4.35667 0.461051 0
M  V30 5853 C 547.692 -4.22631 -1.33782 0
M  V30 5854 H 544.912 -0.669085 -0.0506566 0
M  V30 5855 H 547.456 -1.9852 0.490935 0
M  V30 5856 H 545.611 -3.62077 -1.37763 0
M  V30 5857 H 546.025 -5.24343 0.128144 0
M  V30 5858 H 547.499 -5.28861 -1.58145 0
M  V30 5859 H 547.976 -3.74758 -2.29027 0
M  V30 5860 H 548.582 -4.19829 -0.679957 0
M  V30 5861 N 546.897 -0.0685191 -1.57451 0
M  V30 5862 C 548.143 0.602239 -1.93652 0
M  V30 5863 C 548.476 1.6946 -0.948526 0
M  V30 5864 O 547.751 1.94487 0.022782 0
M  V30 5865 C 548.034 1.18223 -3.4014 0
M  V30 5866 C 547.887 0.0967431 -4.49696 0
M  V30 5867 C 549.206 2.08872 -3.87377 0
M  V30 5868 H 546.325 0.217453 -0.70419 0
M  V30 5869 H 548.967 -0.133821 -1.89528 0
M  V30 5870 H 547.117 1.80953 -3.43785 0
M  V30 5871 H 548.789 -0.536155 -4.58174 0
M  V30 5872 H 547.032 -0.573063 -4.29998 0
M  V30 5873 H 547.703 0.542894 -5.49324 0
M  V30 5874 H 550.179 1.56081 -3.85717 0
M  V30 5875 H 549.055 2.46389 -4.90493 0
M  V30 5876 H 549.316 2.99572 -3.25129 0
M  V30 5877 N 548.375 1.56261 0.205012 0
M  V30 5878 C 549.6 1.84491 0.947512 0
M  V30 5879 C 550.025 0.650894 1.76479 0
M  V30 5880 O 549.383 -0.40035 1.76824 0
M  V30 5881 C 549.431 3.10863 1.82747 0
M  V30 5882 O 548.535 2.90719 2.925 0
M  V30 5883 H 547.876 0.607783 0.267386 0
M  V30 5884 H 550.406 2.03485 0.213323 0
M  V30 5885 H 550.416 3.41399 2.23407 0
M  V30 5886 H 549.091 3.97392 1.2269 0
M  V30 5887 H 547.668 2.71457 2.55667 0
M  V30 5888 N 549.853 -0.472356 1.50355 0
M  V30 5889 C 550.783 -1.57859 1.72055 0
M  V30 5890 C 551.764 -1.60283 0.569505 0
M  V30 5891 O 552.949 -1.7657 0.808503 0
M  V30 5892 C 550.079 -2.96191 1.81351 0
M  V30 5893 C 549.033 -3.08633 2.96529 0
M  V30 5894 C 548.359 -4.486 2.90968 0
M  V30 5895 C 549.659 -2.85969 4.37057 0
M  V30 5896 H 551.353 -1.39953 2.64676 0
M  V30 5897 H 548.899 -0.671846 1.27367 0
M  V30 5898 H 550.852 -3.73507 1.95117 0
M  V30 5899 H 549.576 -3.15251 0.853502 0
M  V30 5900 H 548.235 -2.33749 2.82413 0
M  V30 5901 H 547.883 -4.64577 1.92815 0
M  V30 5902 H 547.583 -4.57861 3.68289 0
M  V30 5903 H 549.107 -5.27938 3.0678 0
M  V30 5904 H 550.521 -3.53036 4.51706 0
M  V30 5905 H 548.918 -3.06677 5.15819 0
M  V30 5906 H 549.988 -1.81838 4.49514 0
M  V30 5907 N 551.331 -1.39911 -0.725443 0
M  V30 5908 C 552.578 -1.37654 -1.48518 0
M  V30 5909 C 552.906 0.0243982 -1.94485 0
M  V30 5910 O 552.161 1.00708 -1.67799 0
M  V30 5911 C 552.46 -2.30368 -2.7325 0
M  V30 5912 C 552.126 -3.77817 -2.461 0
M  V30 5913 C 550.788 -4.17991 -2.38405 0
M  V30 5914 C 553.14 -4.71036 -2.23103 0
M  V30 5915 C 550.468 -5.49433 -2.05768 0
M  V30 5916 C 552.82 -6.02766 -1.9198 0
M  V30 5917 C 551.484 -6.41993 -1.82761 0
M  V30 5918 H 550.754 -0.503713 -0.543465 0
M  V30 5919 H 553.401 -1.7249 -0.831822 0
M  V30 5920 H 551.706 -1.88683 -3.43375 0
M  V30 5921 H 553.403 -2.2591 -3.31309 0
M  V30 5922 H 549.993 -3.45982 -2.52972 0
M  V30 5923 H 554.177 -4.40823 -2.2801 0
M  V30 5924 H 549.433 -5.78738 -1.9716 0
M  V30 5925 H 553.607 -6.74519 -1.73197 0
M  V30 5926 H 551.234 -7.43761 -1.57237 0
M  V30 5927 N 552.809 0.956637 -1.25245 0
M  V30 5928 C 553.772 2.03457 -1.05537 0
M  V30 5929 C 554.772 1.60798 -0.00886317 0
M  V30 5930 O 555.962 1.72384 -0.250865 0
M  V30 5931 C 553.094 3.35543 -0.601965 0
M  V30 5932 H 554.287 2.22372 -2.01223 0
M  V30 5933 H 551.84 1.13344 -1.07623 0
M  V30 5934 H 552.575 3.22323 0.357584 0
M  V30 5935 H 552.36 3.67854 -1.35743 0
M  V30 5936 H 553.85 4.14769 -0.485454 0
M  V30 5937 N 554.287 1.06798 1.15896 0
M  V30 5938 C 555.534 0.787767 1.86549 0
M  V30 5939 C 555.862 -0.685959 1.82002 0
M  V30 5940 O 555.117 -1.5188 1.23414 0
M  V30 5941 C 555.416 1.23414 3.35416 0
M  V30 5942 C 555.082 2.71285 3.6016 0
M  V30 5943 C 553.744 3.11676 3.66622 0
M  V30 5944 C 556.096 3.6676 3.7032 0
M  V30 5945 C 553.424 4.4637 3.8075 0
M  V30 5946 C 555.776 5.01209 3.8597 0
M  V30 5947 C 554.44 5.41229 3.90676 0
M  V30 5948 H 553.71 0.288264 0.682631 0
M  V30 5949 H 556.357 1.338 1.37003 0
M  V30 5950 H 554.662 0.60319 3.87129 0
M  V30 5951 H 556.359 0.994298 3.88477 0
M  V30 5952 H 552.949 2.39015 3.55767 0
M  V30 5953 H 557.133 3.36685 3.64633 0
M  V30 5954 H 552.389 4.76855 3.82648 0
M  V30 5955 H 556.563 5.75067 3.92773 0
M  V30 5956 H 554.19 6.45602 4.01375 0
M  V30 5957 N 555.766 -1.3263 0.851289 0
M  V30 5958 C 556.994 -2.01563 0.466899 0
M  V30 5959 C 557.409 -1.63996 -0.935447 0
M  V30 5960 O 556.766 -0.85957 -1.6099 0
M  V30 5961 C 556.817 -3.56613 0.592433 0
M  V30 5962 O 556.538 -3.92828 1.93954 0
M  V30 5963 C 558.039 -4.42818 0.206612 0
M  V30 5964 H 555.259 -0.645307 0.183902 0
M  V30 5965 H 557.803 -1.69285 1.1473 0
M  V30 5966 H 555.958 -3.87379 -0.0401936 0
M  V30 5967 H 556.372 -4.87545 1.9339 0
M  V30 5968 H 557.846 -5.50918 0.345462 0
M  V30 5969 H 558.323 -4.30844 -0.85264 0
M  V30 5970 H 558.929 -4.17434 0.814176 0
M  V30 5971 N 557.244 -0.608902 -1.45362 0
M  V30 5972 C 558.491 -0.104607 -2.0223 0
M  V30 5973 C 558.819 1.26534 -1.47714 0
M  V30 5974 O 558.074 1.84855 -0.642435 0
M  V30 5975 C 558.373 -0.0167296 -3.57396 0
M  V30 5976 C 558.039 -1.32251 -4.31069 0
M  V30 5977 C 556.701 -1.68019 -4.50914 0
M  V30 5978 C 559.053 -2.18542 -4.73169 0
M  V30 5979 C 556.381 -2.89828 -5.10114 0
M  V30 5980 C 558.733 -3.39602 -5.33717 0
M  V30 5981 C 557.397 -3.7562 -5.51784 0
M  V30 5982 H 556.667 -0.0382785 -0.740011 0
M  V30 5983 H 559.314 -0.790782 -1.7441 0
M  V30 5984 H 557.619 0.752715 -3.84502 0
M  V30 5985 H 559.316 0.389634 -3.99103 0
M  V30 5986 H 555.906 -1.03411 -4.15938 0
M  V30 5987 H 560.09 -1.92208 -4.5757 0
M  V30 5988 H 555.346 -3.17839 -5.22291 0
M  V30 5989 H 559.52 -4.06716 -5.65292 0
M  V30 5990 H 557.147 -4.70093 -5.97425 0
M  V30 5991 N 558.722 1.53707 -0.348139 0
M  V30 5992 C 559.685 2.23812 0.494058 0
M  V30 5993 C 560.685 1.23989 1.02388 0
M  V30 5994 O 561.875 1.48395 0.912396 0
M  V30 5995 C 559.007 2.96133 1.68872 0
M  V30 5996 H 560.2 2.99663 -0.119141 0
M  V30 5997 H 557.753 1.55983 -0.0995539 0
M  V30 5998 H 558.488 2.24481 2.34049 0
M  V30 5999 H 558.273 3.69357 1.31596 0
M  V30 6000 H 559.763 3.49475 2.28597 0
M  V30 6001 N 560.2 0.0768682 1.57412 0
M  V30 6002 C 561.428 -0.59997 1.9801 0
M  V30 6003 C 561.843 -1.62842 0.955408 0
M  V30 6004 O 561.2 -1.8241 -0.057314 0
M  V30 6005 C 561.251 -1.26401 3.38681 0
M  V30 6006 O 560.972 -0.276723 4.37225 0
M  V30 6007 C 562.473 -2.0282 3.94182 0
M  V30 6008 H 559.693 -0.162239 0.651091 0
M  V30 6009 H 562.237 0.150771 2.03943 0
M  V30 6010 H 560.392 -1.96581 3.33819 0
M  V30 6011 H 560.806 -0.753744 5.19056 0
M  V30 6012 H 562.28 -2.44667 4.94815 0
M  V30 6013 H 562.757 -2.88678 3.31001 0
M  V30 6014 H 563.363 -1.37496 4.02461 0
M  V30 6015 N 561.678 -1.56367 -0.196722 0
M  V30 6016 C 562.588 -1.97617 -1.2643 0
M  V30 6017 C 563.604 -0.883598 -1.49895 0
M  V30 6018 O 564.78 -1.18921 -1.62541 0
M  V30 6019 C 561.845 -2.30595 -2.58895 0
M  V30 6020 C 560.906 -3.53551 -2.43516 0
M  V30 6021 C 560.139 -3.84946 -3.69665 0
M  V30 6022 O 560.362 -3.17655 -4.73763 0
M  V30 6023 O 559.296 -4.78379 -3.65291 0
M  V30 6024 H 563.122 -2.88648 -0.944233 0
M  V30 6025 H 560.707 -1.43901 -0.401592 0
M  V30 6026 H 562.589 -2.52889 -3.37083 0
M  V30 6027 H 561.264 -1.42732 -2.90533 0
M  V30 6028 H 560.171 -3.36507 -1.63445 0
M  V30 6029 H 561.504 -4.41875 -2.16812 0
M  V30 6030 N 563.156 0.464375 -1.50603 0
M  V30 6031 C 564.403 1.21596 -1.61928 0
M  V30 6032 C 564.731 1.91804 -0.322737 0
M  V30 6033 O 563.986 1.83065 0.691776 0
M  V30 6034 C 564.285 2.278 -2.75394 0
M  V30 6035 C 563.951 1.74797 -4.1564 0
M  V30 6036 C 562.613 1.60063 -4.53799 0
M  V30 6037 C 564.965 1.35548 -5.03266 0
M  V30 6038 C 562.293 1.04514 -5.77316 0
M  V30 6039 C 564.645 0.814381 -6.27336 0
M  V30 6040 C 563.309 0.653726 -6.64291 0
M  V30 6041 H 562.579 0.444951 -0.592536 0
M  V30 6042 H 565.226 0.510964 -1.84557 0
M  V30 6043 H 563.531 3.04233 -2.46879 0
M  V30 6044 H 565.228 2.85723 -2.81359 0
M  V30 6045 H 561.818 1.87234 -3.8554 0
M  V30 6046 H 566.002 1.45763 -4.74412 0
M  V30 6047 H 561.258 0.908186 -6.04617 0
M  V30 6048 H 565.432 0.501626 -6.94591 0
M  V30 6049 H 563.059 0.22114 -7.59878 0
M  V30 6050 N 564.634 1.40294 0.718013 0
M  V30 6051 C 565.88 1.39648 1.47885 0
M  V30 6052 C 566.235 -0.0023879 1.924 0
M  V30 6053 O 565.528 -0.972304 1.65096 0
M  V30 6054 C 565.722 2.31814 2.72024 0
M  V30 6055 C 565.551 3.80523 2.3965 0
M  V30 6056 C 564.321 4.49351 2.3111 0
M  V30 6057 C 566.519 4.72077 2.04079 0
M  V30 6058 N 564.501 5.83305 1.91385 0
M  V30 6059 C 565.872 5.94809 1.74935 0
M  V30 6060 C 567.927 4.59935 1.90694 0
M  V30 6061 C 566.63 7.06755 1.33753 0
M  V30 6062 C 568.656 5.7182 1.50915 0
M  V30 6063 C 568.018 6.93637 1.22668 0
M  V30 6064 H 564.117 0.566263 0.539324 0
M  V30 6065 H 566.701 1.75986 0.832891 0
M  V30 6066 H 564.872 1.97607 3.34374 0
M  V30 6067 H 566.604 2.22042 3.38348 0
M  V30 6068 H 563.359 4.03002 2.4877 0
M  V30 6069 H 563.783 6.54239 1.74068 0
M  V30 6070 H 568.425 3.66274 2.11194 0
M  V30 6071 H 566.143 8.00302 1.11995 0
M  V30 6072 H 569.729 5.64421 1.4114 0
M  V30 6073 H 568.609 7.78743 0.923502 0
M  V30 6074 N 566.112 -0.949982 1.2575 0
M  V30 6075 C 567.36 -1.6918 1.10555 0
M  V30 6076 C 567.681 -1.91773 -0.353298 0
M  V30 6077 O 566.951 -1.50814 -1.25027 0
M  V30 6078 H 565.531 -0.626952 0.406129 0
M  V30 6079 H 568.193 -1.1419 1.57945 0
M  V30 6080 H 567.289 -2.66915 1.61749 0
M  V30 6081 N 567.59 -1.07411 -1.15328 0
M  V30 6082 C 568.52 -0.716472 -2.22236 0
M  V30 6083 C 569.501 0.296373 -1.67498 0
M  V30 6084 O 570.686 0.168989 -1.93463 0
M  V30 6085 C 567.816 -0.114142 -3.47112 0
M  V30 6086 C 566.77 -1.05421 -4.14814 0
M  V30 6087 C 566.096 -0.314604 -5.33774 0
M  V30 6088 C 567.396 -2.38808 -4.64508 0
M  V30 6089 H 569.09 -1.61029 -2.52408 0
M  V30 6090 H 566.636 -0.775702 -1.21321 0
M  V30 6091 H 568.589 0.148001 -4.2114 0
M  V30 6092 H 567.313 0.814755 -3.16274 0
M  V30 6093 H 565.972 -1.30128 -3.42728 0
M  V30 6094 H 565.62 0.617772 -4.99192 0
M  V30 6095 H 565.32 -0.941209 -5.80013 0
M  V30 6096 H 566.844 -0.0602747 -6.1057 0
M  V30 6097 H 568.258 -2.18424 -5.3006 0
M  V30 6098 H 566.655 -2.97069 -5.21412 0
M  V30 6099 H 567.725 -3.01067 -3.80114 0
M  V30 6100 N 569.068 1.32177 -0.85831 0
M  V30 6101 C 570.001 2.26823 -0.25035 0
M  V30 6102 C 570.979 1.50571 0.61378 0
M  V30 6103 O 572.163 1.79682 0.569777 0
M  V30 6104 C 569.29 3.32472 0.646556 0
M  V30 6105 C 568.336 4.26255 -0.144675 0
M  V30 6106 S 569.169 5.13608 -1.5155 0
M  V30 6107 C 570.325 6.22778 -0.624408 0
M  V30 6108 H 570.558 2.7804 -1.05267 0
M  V30 6109 H 568.091 1.39764 -0.656152 0
M  V30 6110 H 570.049 3.93817 1.15837 0
M  V30 6111 H 568.71 2.80031 1.42272 0
M  V30 6112 H 567.903 5.01114 0.538613 0
M  V30 6113 H 567.505 3.69346 -0.588198 0
M  V30 6114 H 569.797 6.77287 0.169846 0
M  V30 6115 H 570.74 6.95233 -1.34376 0
M  V30 6116 H 571.148 5.64156 -0.197128 0
M  V30 6117 N 570.547 0.616602 1.45037 0
M  V30 6118 C 571.772 0.120192 2.07051 0
M  V30 6119 C 572.197 -1.19008 1.45666 0
M  V30 6120 O 571.555 -1.7267 0.552692 0
M  V30 6121 C 571.603 0.00354901 3.606 0
M  V30 6122 O 570.707 -1.04431 3.98958 0
M  V30 6123 H 570.048 0.0781599 0.659384 0
M  V30 6124 H 572.578 0.849167 1.86146 0
M  V30 6125 H 572.588 -0.191754 4.07549 0
M  V30 6126 H 571.263 0.960239 4.04663 0
M  V30 6127 H 569.84 -0.824749 3.63665 0
M  V30 6128 N 572.025 -1.5352 0.356285 0
M  V30 6129 C 573.265 -2.03027 -0.23649 0
M  V30 6130 C 573.629 -1.23813 -1.46746 0
M  V30 6131 O 574.83 -1.63281 -2.13525 0
M  V30 6132 C 573.101 -3.53442 -0.530415 0
M  V30 6133 S 574.66 -4.24836 -1.09819 0
M  V30 6134 H 571.478 -0.707591 -0.0695378 0
M  V30 6135 H 574.08 -1.89077 0.496999 0
M  V30 6136 H 572.784 -4.087 0.373114 0
M  V30 6137 H 572.315 -3.71536 -1.29323 0
M  V30 6138 H 574.33 -4.35228 -2.38309 0
M  V30 6139 N 573.503 -0.0852151 -1.57369 0
M  V30 6140 C 574.728 0.592872 -1.98746 0
M  V30 6141 C 575.153 1.61538 -0.963689 0
M  V30 6142 O 574.511 1.81168 0.069071 0
M  V30 6143 C 574.559 1.22599 -3.39119 0
M  V30 6144 O 573.663 2.34185 -3.39457 0
M  V30 6145 H 573.004 0.151314 -0.646529 0
M  V30 6146 H 575.534 -0.163703 -2.03944 0
M  V30 6147 H 575.544 1.56965 -3.76598 0
M  V30 6148 H 574.219 0.476831 -4.13158 0
M  V30 6149 H 572.796 2.01512 -3.13763 0
M  V30 6150 N 574.981 1.5647 0.188427 0
M  V30 6151 C 576.23 1.80207 0.905995 0
M  V30 6152 C 576.543 0.659579 1.84144 0
M  V30 6153 O 577.749 0.781431 2.60011 0
M  V30 6154 C 576.205 3.19255 1.66145 0
M  V30 6155 C 575.813 4.41324 0.770504 0
M  V30 6156 C 577.557 3.52298 2.36826 0
M  V30 6157 C 575.464 5.71394 1.52521 0
M  V30 6158 H 574.394 0.671953 0.342045 0
M  V30 6159 H 577.045 1.82808 0.159164 0
M  V30 6160 H 575.427 3.10922 2.45242 0
M  V30 6161 H 576.601 4.60797 0.0177261 0
M  V30 6162 H 574.916 4.16035 0.174199 0
M  V30 6163 H 577.513 4.46715 2.93854 0
M  V30 6164 H 577.856 2.76359 3.11338 0
M  V30 6165 H 578.389 3.62108 1.6469 0
M  V30 6166 H 575.128 6.50316 0.82275 0
M  V30 6167 H 574.648 5.55928 2.25175 0
M  V30 6168 H 576.327 6.12747 2.07725 0
M  V30 6169 N 576.459 -0.456382 1.50847 0
M  V30 6170 C 577.706 -1.20736 1.62571 0
M  V30 6171 C 578.034 -1.9163 0.332904 0
M  V30 6172 O 577.289 -1.8343 -0.682058 0
M  V30 6173 C 577.588 -2.26336 2.76599 0
M  V30 6174 C 577.254 -1.7259 4.16562 0
M  V30 6175 C 575.916 -1.57654 4.54641 0
M  V30 6176 C 578.268 -1.32877 5.03977 0
M  V30 6177 C 575.596 -1.0145 5.77862 0
M  V30 6178 C 577.948 -0.7811 6.27759 0
M  V30 6179 C 576.612 -0.618488 6.64628 0
M  V30 6180 H 575.882 -0.441803 0.594888 0
M  V30 6181 H 578.529 -0.501169 1.84826 0
M  V30 6182 H 576.834 -3.0292 2.48489 0
M  V30 6183 H 578.531 -2.84227 2.82871 0
M  V30 6184 H 575.121 -1.85187 3.86528 0
M  V30 6185 H 579.305 -1.43245 4.75179 0
M  V30 6186 H 574.561 -0.876109 6.0509 0
M  V30 6187 H 578.735 -0.464783 6.94847 0
M  V30 6188 H 576.362 -0.180838 7.59985 0
M  V30 6189 N 577.937 -1.40673 -0.710563 0
M  V30 6190 C 579.184 -1.39222 -1.47049 0
M  V30 6191 C 579.512 0.0037691 -1.945 0
M  V30 6192 O 578.767 0.989224 -1.68857 0
M  V30 6193 C 579.066 -2.33253 -2.70791 0
M  V30 6194 C 578.732 -3.80406 -2.42079 0
M  V30 6195 C 577.394 -4.20496 -2.33959 0
M  V30 6196 C 579.746 -4.73375 -2.18094 0
M  V30 6197 C 577.074 -5.51584 -1.99929 0
M  V30 6198 C 579.426 -6.04768 -1.85576 0
M  V30 6199 C 578.09 -6.43895 -1.75941 0
M  V30 6200 H 577.36 -0.509449 -0.538092 0
M  V30 6201 H 580.007 -1.73363 -0.81348 0
M  V30 6202 H 578.312 -1.92314 -3.41354 0
M  V30 6203 H 580.009 -2.29412 -3.28894 0
M  V30 6204 H 576.599 -3.48645 -2.49288 0
M  V30 6205 H 580.783 -4.43217 -2.23321 0
M  V30 6206 H 576.039 -5.80797 -1.91011 0
M  V30 6207 H 580.213 -6.76318 -1.66033 0
M  V30 6208 H 577.84 -7.45387 -1.4934 0
M  V30 6209 N 579.415 0.9433 -1.26252 0
M  V30 6210 C 580.663 1.68592 -1.11451 0
M  V30 6211 C 580.984 1.91957 0.343123 0
M  V30 6212 O 580.254 1.51475 1.24226 0
M  V30 6213 H 578.834 0.624789 -0.409448 0
M  V30 6214 H 581.496 1.13351 -1.58548 0
M  V30 6215 H 580.592 2.66054 -1.63162 0
M  V30 6216 N 580.893 1.08022 1.14757 0
M  V30 6217 C 582.14 0.807509 1.85703 0
M  V30 6218 C 582.468 -0.666617 1.8272 0
M  V30 6219 O 581.723 -1.50562 1.25018 0
M  V30 6220 C 582.022 1.26964 3.34088 0
M  V30 6221 C 581.688 2.7509 3.57262 0
M  V30 6222 C 580.35 3.15547 3.63296 0
M  V30 6223 C 582.702 3.70667 3.66409 0
M  V30 6224 C 580.03 4.50384 3.75994 0
M  V30 6225 C 582.382 5.05274 3.80632 0
M  V30 6226 C 581.046 5.45342 3.84913 0
M  V30 6227 H 580.316 0.295488 0.679535 0
M  V30 6228 H 582.963 1.35245 1.35577 0
M  V30 6229 H 581.268 0.644216 3.86467 0
M  V30 6230 H 582.965 1.03544 3.87401 0
M  V30 6231 H 579.555 2.42775 3.53212 0
M  V30 6232 H 583.739 3.40533 3.61041 0
M  V30 6233 H 578.995 4.80886 3.77569 0
M  V30 6234 H 583.169 5.79201 3.86652 0
M  V30 6235 H 580.796 6.49823 3.94505 0
M  V30 6236 N 582.371 -1.3172 0.865308 0
M  V30 6237 C 583.304 -2.26687 0.262376 0
M  V30 6238 C 584.282 -1.50894 -0.605787 0
M  V30 6239 O 585.466 -1.79982 -0.56024 0
M  V30 6240 C 582.593 -3.3281 -0.628915 0
M  V30 6241 C 581.639 -4.26172 0.167278 0
M  V30 6242 S 582.472 -5.12797 1.54272 0
M  V30 6243 C 583.628 -6.22438 0.657427 0
M  V30 6244 H 583.861 -2.77478 1.0674 0
M  V30 6245 H 581.394 -1.39414 0.663555 0
M  V30 6246 H 583.352 -3.94426 -1.13747 0
M  V30 6247 H 582.013 -2.80782 -1.40785 0
M  V30 6248 H 581.206 -5.01392 -0.51203 0
M  V30 6249 H 580.808 -3.69029 0.607777 0
M  V30 6250 H 583.1 -6.77368 -0.133925 0
M  V30 6251 H 584.043 -6.9451 1.38061 0
M  V30 6252 H 584.451 -5.64043 0.227044 0
M  V30 6253 N 583.85 -0.624285 -1.44708 0
M  V30 6254 C 585.096 -0.126237 -2.02407 0
M  V30 6255 C 585.428 1.24618 -1.48943 0
M  V30 6256 O 584.704 1.82569 -0.670742 0
M  V30 6257 C 584.986 -0.105449 -3.59946 0
M  V30 6258 C 584.84 -1.50972 -4.23707 0
M  V30 6259 C 586.159 0.573629 -4.36346 0
M  V30 6260 H 583.278 -0.0473472 -0.735478 0
M  V30 6261 H 585.92 -0.799452 -1.72362 0
M  V30 6262 H 584.07 0.46783 -3.85673 0
M  V30 6263 H 585.742 -2.13136 -4.0911 0
M  V30 6264 H 583.985 -2.0656 -3.81465 0
M  V30 6265 H 584.656 -1.44727 -5.32689 0
M  V30 6266 H 587.132 0.0861787 -4.16011 0
M  V30 6267 H 586.008 0.557338 -5.46063 0
M  V30 6268 H 586.269 1.64276 -4.10446 0
M  V30 6269 N 585.328 1.53329 -0.364422 0
M  V30 6270 C 586.576 2.00842 0.225189 0
M  V30 6271 C 586.897 1.25345 1.49378 0
M  V30 6272 O 586.167 0.366396 1.92443 0
M  V30 6273 H 584.747 0.742009 0.0862027 0
M  V30 6274 H 587.409 1.8863 -0.490389 0
M  V30 6275 H 586.505 3.08795 0.452987 0
M  V30 6276 N 586.806 0.0935595 1.57322 0
M  V30 6277 C 588.034 -0.578934 1.98635 0
M  V30 6278 C 588.449 -1.61819 0.972626 0
M  V30 6279 O 587.806 -1.82461 -0.0379638 0
M  V30 6280 C 587.857 -1.22802 3.40003 0
M  V30 6281 O 587.578 -0.230334 4.37494 0
M  V30 6282 C 589.079 -1.98627 3.96311 0
M  V30 6283 H 586.299 -0.155324 0.652775 0
M  V30 6284 H 588.843 0.172393 2.03772 0
M  V30 6285 H 586.998 -1.93029 3.35885 0
M  V30 6286 H 587.412 -0.698649 5.19826 0
M  V30 6287 H 588.886 -2.39405 4.97382 0
M  V30 6288 H 589.363 -2.85151 3.34044 0
M  V30 6289 H 589.969 -1.3322 4.03897 0
M  V30 6290 N 588.284 -1.56567 -0.180126 0
M  V30 6291 C 589.533 -1.80685 -0.896426 0
M  V30 6292 C 589.846 -0.669335 -1.83791 0
M  V30 6293 O 591.052 -0.795209 -2.59593 0
M  V30 6294 C 589.508 -3.20132 -1.6445 0
M  V30 6295 C 589.116 -4.41727 -0.747088 0
M  V30 6296 C 590.86 -3.53549 -2.34955 0
M  V30 6297 C 588.767 -5.72195 -1.49489 0
M  V30 6298 H 587.697 -0.673758 -0.338477 0
M  V30 6299 H 590.348 -1.8289 -0.149467 0
M  V30 6300 H 588.73 -3.12218 -2.43589 0
M  V30 6301 H 589.904 -4.608 0.00671129 0
M  V30 6302 H 588.219 -4.16122 -0.152134 0
M  V30 6303 H 590.816 -4.48267 -2.91481 0
M  V30 6304 H 591.159 -2.78006 -3.09868 0
M  V30 6305 H 591.692 -3.62976 -1.62768 0
M  V30 6306 H 588.431 -6.50743 -0.788251 0
M  V30 6307 H 587.951 -5.57115 -2.22224 0
M  V30 6308 H 589.63 -6.1384 -2.04472 0
M  V30 6309 N 589.762 0.448376 -1.51087 0
M  V30 6310 C 591.01 1.19635 -1.62886 0
M  V30 6311 C 591.331 1.91977 -0.342024 0
M  V30 6312 O 590.601 1.85094 0.641636 0
M  V30 6313 H 589.181 0.444598 -0.600285 0
M  V30 6314 H 591.843 0.515138 -1.87969 0
M  V30 6315 H 590.939 1.93194 -2.45117 0
M  V30 6316 N 591.24 1.41047 0.703093 0
M  V30 6317 C 592.488 1.39723 1.4602 0
M  V30 6318 C 592.809 0.00461257 1.94999 0
M  V30 6319 O 592.079 -0.952292 1.71196 0
M  V30 6320 H 590.659 0.514281 0.541779 0
M  V30 6321 H 593.321 1.76217 0.832678 0
M  V30 6322 H 592.417 2.07982 2.32701 0
M  V30 6323 N 592.718 -0.936591 1.26751 0
M  V30 6324 C 593.946 -1.71758 1.15355 0
M  V30 6325 C 594.361 -1.86549 -0.290683 0
M  V30 6326 O 593.718 -1.37616 -1.19868 0
M  V30 6327 C 593.769 -3.12193 1.82258 0
M  V30 6328 O 593.49 -2.98105 3.21038 0
M  V30 6329 C 594.991 -4.06485 1.76875 0
M  V30 6330 H 592.211 -0.537636 0.401483 0
M  V30 6331 H 594.755 -1.17382 1.67457 0
M  V30 6332 H 592.91 -3.63456 1.34083 0
M  V30 6333 H 593.324 -3.86824 3.54214 0
M  V30 6334 H 594.798 -5.02569 2.28316 0
M  V30 6335 H 595.275 -4.32986 0.736216 0
M  V30 6336 H 595.881 -3.61144 2.24623 0
M  V30 6337 N 594.196 -1.08629 -1.14182 0
M  V30 6338 C 595.146 -0.687882 -2.17376 0
M  V30 6339 C 596.13 0.293632 -1.58198 0
M  V30 6340 O 597.322 0.105292 -1.76687 0
M  V30 6341 C 594.451 -0.101184 -3.43151 0
M  V30 6342 C 593.537 -1.10862 -4.09354 0
M  V30 6343 N 593.928 -2.29285 -4.50846 0
M  V30 6344 C 592.226 -0.944897 -4.35876 0
M  V30 6345 C 592.927 -2.93305 -5.02342 0
M  V30 6346 N 591.903 -2.20903 -4.96692 0
M  V30 6347 H 595.705 -1.58963 -2.472 0
M  V30 6348 H 593.219 -0.961329 -1.3089 0
M  V30 6349 H 595.216 0.202209 -4.16409 0
M  V30 6350 H 593.876 0.795522 -3.14804 0
M  V30 6351 H 594.887 -2.66927 -4.43813 0
M  V30 6352 H 591.564 -0.102186 -4.17375 0
M  V30 6353 H 592.954 -3.93932 -5.44304 0
M  V30 6354 N 595.674 1.31259 -0.872281 0
M  V30 6355 C 596.923 1.95893 -0.480493 0
M  V30 6356 C 597.236 1.697 0.972688 0
M  V30 6357 O 598.442 2.28214 1.47073 0
M  V30 6358 C 596.898 3.50705 -0.808342 0
M  V30 6359 C 596.506 3.85735 -2.27844 0
M  V30 6360 C 598.25 4.21719 -0.485136 0
M  V30 6361 C 596.157 5.33668 -2.54858 0
M  V30 6362 H 595.087 0.733182 -0.175955 0
M  V30 6363 H 597.738 1.49396 -1.0655 0
M  V30 6364 H 596.12 3.95706 -0.152558 0
M  V30 6365 H 597.294 3.51686 -2.97748 0
M  V30 6366 H 595.609 3.27792 -2.56791 0
M  V30 6367 H 598.206 5.30559 -0.664166 0
M  V30 6368 H 598.549 4.12316 0.574592 0
M  V30 6369 H 599.082 3.82359 -1.09756 0
M  V30 6370 H 595.821 5.48109 -3.59523 0
M  V30 6371 H 595.341 5.69061 -1.8955 0
M  V30 6372 H 597.02 6.00958 -2.39706 0
M  V30 6373 N 597.152 0.631951 1.44375 0
M  V30 6374 C 598.563 0.219036 1.85411 0
M  V30 6375 C 598.914 -1.22974 1.52879 0
M  V30 6376 O 598.039 -1.93579 0.967266 0
M  V30 6377 C 598.634 0.39075 3.36539 0
M  V30 6378 C 597.193 0.0323351 3.76386 0
M  V30 6379 C 596.34 0.703744 2.68221 0
M  V30 6380 H 599.291 0.837056 1.3483 0
M  V30 6381 H 599.312 -0.370056 3.78696 0
M  V30 6382 H 598.824 1.44527 3.60185 0
M  V30 6383 H 596.925 -1.02042 3.58355 0
M  V30 6384 H 597.038 0.442969 4.77048 0
M  V30 6385 H 595.402 0.138974 2.54321 0
M  V30 6386 H 596.185 1.76088 2.947 0
M  V30 6387 N 598.631 -1.53133 0.372548 0
M  V30 6388 C 599.561 -2.28876 -0.462412 0
M  V30 6389 C 600.542 -1.31583 -1.07796 0
M  V30 6390 O 601.727 -1.60461 -1.09389 0
M  V30 6391 C 598.857 -3.08317 -1.59868 0
M  V30 6392 C 597.811 -4.13355 -1.11003 0
M  V30 6393 C 597.137 -4.8092 -2.33708 0
M  V30 6394 C 598.437 -5.21955 -0.18983 0
M  V30 6395 H 600.131 -2.9892 0.169511 0
M  V30 6396 H 597.677 -1.43761 0.0829658 0
M  V30 6397 H 599.63 -3.60055 -2.18949 0
M  V30 6398 H 598.354 -2.35976 -2.25794 0
M  V30 6399 H 597.013 -3.62573 -0.541869 0
M  V30 6400 H 596.661 -4.05144 -2.98106 0
M  V30 6401 H 596.361 -5.51904 -2.01682 0
M  V30 6402 H 597.885 -5.35455 -2.93462 0
M  V30 6403 H 599.299 -5.69153 -0.688319 0
M  V30 6404 H 597.696 -6.00087 0.0398887 0
M  V30 6405 H 598.766 -4.78811 0.766057 0
M  V30 6406 N 600.109 -0.101901 -1.5727 0
M  V30 6407 C 601.039 0.851544 -2.17419 0
M  V30 6408 C 602.02 1.28942 -1.10941 0
M  V30 6409 O 603.205 1.35509 -1.39107 0
M  V30 6410 C 600.335 2.10816 -2.75996 0
M  V30 6411 C 599.289 1.80867 -3.87906 0
M  V30 6412 C 598.615 3.13413 -4.33216 0
M  V30 6413 C 599.915 1.0903 -5.10793 0
M  V30 6414 H 601.609 0.350381 -2.97343 0
M  V30 6415 H 599.155 0.16709 -1.43027 0
M  V30 6416 H 601.108 2.77959 -3.16729 0
M  V30 6417 H 599.832 2.63227 -1.93337 0
M  V30 6418 H 598.491 1.16119 -3.47724 0
M  V30 6419 H 598.139 3.63725 -3.47438 0
M  V30 6420 H 597.839 2.94155 -5.08671 0
M  V30 6421 H 599.363 3.81704 -4.76586 0
M  V30 6422 H 600.777 1.66295 -5.48652 0
M  V30 6423 H 599.174 0.99927 -5.91722 0
M  V30 6424 H 600.244 0.0741704 -4.84843 0
M  V30 6425 N 601.587 1.56661 0.17182 0
M  V30 6426 C 602.55 1.9549 1.19651 0
M  V30 6427 C 603.55 0.838501 1.37207 0
M  V30 6428 O 604.74 1.10556 1.34622 0
M  V30 6429 C 601.872 2.24927 2.56166 0
M  V30 6430 H 603.065 2.87184 0.864007 0
M  V30 6431 H 600.618 1.50711 0.41425 0
M  V30 6432 H 601.353 1.35944 2.94431 0
M  V30 6433 H 601.138 3.06301 2.4479 0
M  V30 6434 H 602.628 2.55891 3.30014 0
M  V30 6435 N 603.065 -0.440357 1.51323 0
M  V30 6436 C 603.975 -1.55955 1.75258 0
M  V30 6437 C 604.991 -1.61933 0.636687 0
M  V30 6438 O 606.167 -1.79231 0.918593 0
M  V30 6439 C 603.232 -2.9196 1.86977 0
M  V30 6440 C 602.293 -2.96122 3.10822 0
M  V30 6441 C 601.526 -4.2564 3.21973 0
M  V30 6442 O 601.749 -5.17851 2.39137 0
M  V30 6443 O 600.683 -4.36025 4.14929 0
M  V30 6444 H 604.509 -1.38673 2.70191 0
M  V30 6445 H 602.094 -0.623055 1.35788 0
M  V30 6446 H 603.976 -3.72682 1.96688 0
M  V30 6447 H 602.651 -3.09375 0.952307 0
M  V30 6448 H 601.558 -2.14366 3.06591 0
M  V30 6449 H 602.891 -2.83651 4.02247 0
M  V30 6450 N 604.543 -1.41418 -0.695603 0
M  V30 6451 C 605.82 -1.31264 -1.45014 0
M  V30 6452 C 606.2 0.0597994 -2.11015 0
M  V30 6453 O 605.548 1.07403 -2.01685 0
M  V30 6454 C 605.758 -2.466 -2.4696 0
M  V30 6455 C 607.106 -2.87763 -3.12214 0
M  V30 6456 O 608.13 -2.46339 -2.57285 0
M  V30 6457 O 606.989 -3.59395 -4.11701 0
M  V30 6458 H 604.083 -0.516576 -0.645816 0
M  V30 6459 H 606.629 -1.53382 -0.726084 0
M  V30 6460 H 605.401 -3.38183 -1.96845 0
M  V30 6461 H 605.024 -2.26358 -3.26876 0
M  V30 6462 N 606.021 0.929856 -1.27246 0
M  V30 6463 C 607.298 1.65544 -1.04186 0
M  V30 6464 C 607.678 2.06796 0.424097 0
M  V30 6465 O 607.026 1.80053 1.40688 0
M  V30 6466 C 607.236 2.85912 -2.00138 0
M  V30 6467 C 608.584 3.57305 -2.29387 0
M  V30 6468 O 609.608 2.96036 -1.98094 0
M  V30 6469 O 608.467 4.67688 -2.82719 0
M  V30 6470 H 605.561 0.725473 -0.397011 0
M  V30 6471 H 608.107 0.980583 -1.38501 0
M  V30 6472 H 606.879 2.52403 -2.99013 0
M  V30 6473 H 606.502 3.61118 -1.66371 0
M  V30 6474 N 607.499 1.09233 1.13605 0
M  V30 6475 C 608.745 0.828385 1.8511 0
M  V30 6476 C 609.078 -0.64437 1.83198 0
M  V30 6477 O 608.353 -1.47428 1.26867 0
M  V30 6478 C 608.636 1.36167 3.33363 0
M  V30 6479 C 608.489 2.90038 3.438 0
M  V30 6480 C 609.808 0.993819 4.28732 0
M  V30 6481 H 606.927 0.30239 0.672108 0
M  V30 6482 H 609.569 1.35339 1.33355 0
M  V30 6483 H 607.719 0.9151 3.77569 0
M  V30 6484 H 609.391 3.43128 3.08319 0
M  V30 6485 H 607.634 3.27271 2.84739 0
M  V30 6486 H 608.305 3.22428 4.48045 0
M  V30 6487 H 610.781 1.37893 3.92587 0
M  V30 6488 H 609.657 1.39403 5.30903 0
M  V30 6489 H 609.918 -0.0982206 4.41991 0
M  V30 6490 N 608.977 -1.30795 0.87923 0
M  V30 6491 C 610.223 -1.96653 0.495519 0
M  V30 6492 C 610.556 -1.69282 -0.951703 0
M  V30 6493 O 609.831 -0.994374 -1.6716 0
M  V30 6494 C 610.114 -3.51898 0.764174 0
M  V30 6495 C 609.967 -3.88808 2.2616 0
M  V30 6496 C 611.286 -4.39462 0.236825 0
M  V30 6497 H 608.405 -0.7143 0.181507 0
M  V30 6498 H 611.047 -1.54765 1.10217 0
M  V30 6499 H 609.197 -3.87709 0.247841 0
M  V30 6500 H 610.869 -3.63051 2.8459 0
M  V30 6501 H 609.112 -3.37082 2.73053 0
M  V30 6502 H 609.783 -4.97086 2.4002 0
M  V30 6503 H 612.259 -4.10528 0.678683 0
M  V30 6504 H 611.135 -5.47018 0.454176 0
M  V30 6505 H 611.396 -4.33621 -0.861683 0
M  V30 6506 N 610.455 -0.639598 -1.44038 0
M  V30 6507 C 611.703 -0.147188 -2.01563 0
M  V30 6508 C 612.024 1.2384 -1.50628 0
M  V30 6509 O 611.294 1.82452 -0.713316 0
M  V30 6510 H 609.874 -0.0514231 -0.745228 0
M  V30 6511 H 612.536 -0.828205 -1.76428 0
M  V30 6512 H 611.632 -0.121358 -3.11864 0
M  V30 6513 N 611.933 1.52934 -0.380664 0
M  V30 6514 C 613.182 2.00651 0.205477 0
M  V30 6515 C 613.495 1.27164 1.48623 0
M  V30 6516 O 614.701 1.65547 2.15189 0
M  V30 6517 C 613.157 3.57479 0.416726 0
M  V30 6518 C 612.765 4.39857 -0.850268 0
M  V30 6519 C 614.509 4.13509 0.959702 0
M  V30 6520 C 612.416 5.88269 -0.607773 0
M  V30 6521 H 611.346 0.749684 0.0805614 0
M  V30 6522 H 613.997 1.76508 -0.501732 0
M  V30 6523 H 612.379 3.77836 1.18557 0
M  V30 6524 H 613.553 4.31269 -1.62307 0
M  V30 6525 H 611.868 3.95005 -1.31756 0
M  V30 6526 H 614.465 5.22039 1.15669 0
M  V30 6527 H 614.808 3.69054 1.92626 0
M  V30 6528 H 615.341 3.9701 0.250645 0
M  V30 6529 H 612.08 6.3703 -1.54509 0
M  V30 6530 H 611.6 5.99667 0.126247 0
M  V30 6531 H 613.279 6.46558 -0.239014 0
M  V30 6532 N 613.412 0.11024 1.57214 0
M  V30 6533 C 614.322 -0.857077 2.18383 0
M  V30 6534 C 615.338 -1.29915 1.1575 0
M  V30 6535 O 616.514 -1.36394 1.48184 0
M  V30 6536 C 613.579 -2.09264 2.76423 0
M  V30 6537 C 612.64 -1.70333 3.94063 0
M  V30 6538 C 611.873 -2.87999 4.49324 0
M  V30 6539 O 612.096 -4.0317 4.03497 0
M  V30 6540 O 611.03 -2.6559 5.40135 0
M  V30 6541 H 614.856 -0.366561 3.0148 0
M  V30 6542 H 612.441 -0.114914 1.48957 0
M  V30 6543 H 614.323 -2.81644 3.13456 0
M  V30 6544 H 612.998 -2.57339 1.96363 0
M  V30 6545 H 611.905 -0.950864 3.61814 0
M  V30 6546 H 613.238 -1.27007 4.75531 0
M  V30 6547 N 614.89 -1.56749 -0.16351 0
M  V30 6548 C 615.837 -1.97011 -1.2023 0
M  V30 6549 C 616.807 -0.835186 -1.43575 0
M  V30 6550 O 617.992 -1.09594 -1.56185 0
M  V30 6551 C 615.132 -2.34186 -2.53478 0
M  V30 6552 C 614.245 -3.60893 -2.37446 0
M  V30 6553 C 613.38 -3.87245 -3.63614 0
M  V30 6554 C 612.419 -5.07274 -3.42548 0
M  V30 6555 N 611.556 -5.29719 -4.60806 0
M  V30 6556 H 616.396 -2.85562 -0.851958 0
M  V30 6557 H 613.933 -1.41292 -0.409257 0
M  V30 6558 H 615.891 -2.53764 -3.31149 0
M  V30 6559 H 614.521 -1.48736 -2.86492 0
M  V30 6560 H 613.573 -3.49185 -1.50911 0
M  V30 6561 H 614.885 -4.48722 -2.1783 0
M  V30 6562 H 614.039 -4.07232 -4.49719 0
M  V30 6563 H 612.778 -2.97806 -3.86216 0
M  V30 6564 H 611.783 -4.87177 -2.5483 0
M  V30 6565 H 613.008 -5.98251 -3.2136 0
M  V30 6566 H 610.954 -4.43233 -4.83612 0
M  V30 6567 H 610.871 -6.11786 -4.44132 0
M  V30 6568 H 612.139 -5.54192 -5.48171 0
M  V30 6569 N 616.368 0.432326 -1.51554 0
M  V30 6570 C 617.301 1.54525 -1.6792 0
M  V30 6571 C 618.279 1.53831 -0.526764 0
M  V30 6572 O 619.463 1.72884 -0.751233 0
M  V30 6573 C 616.59 2.931 -1.69736 0
M  V30 6574 C 615.636 3.11799 -2.91005 0
M  V30 6575 S 616.469 2.87565 -4.51737 0
M  V30 6576 C 617.625 4.28412 -4.56305 0
M  V30 6577 H 617.858 1.4041 -2.62054 0
M  V30 6578 H 615.391 0.622357 -1.41301 0
M  V30 6579 H 617.349 3.72974 -1.71467 0
M  V30 6580 H 616.01 3.04574 -0.767705 0
M  V30 6581 H 615.203 4.13127 -2.8869 0
M  V30 6582 H 614.805 2.39757 -2.87041 0
M  V30 6583 H 617.097 5.21692 -4.32254 0
M  V30 6584 H 618.04 4.35758 -5.58141 0
M  V30 6585 H 618.448 4.12301 -3.85576 0
M  V30 6586 N 617.846 1.41785 0.688094 0
M  V30 6587 C 619.071 1.45117 1.48175 0
M  V30 6588 C 619.496 0.060129 1.88004 0
M  V30 6589 O 618.854 -0.938385 1.55126 0
M  V30 6590 C 618.902 2.37224 2.71583 0
M  V30 6591 O 618.006 1.83443 3.69354 0
M  V30 6592 H 617.347 0.492208 0.445676 0
M  V30 6593 H 619.877 1.86329 0.845145 0
M  V30 6594 H 619.887 2.53353 3.19806 0
M  V30 6595 H 618.562 3.38293 2.41931 0
M  V30 6596 H 617.139 1.76802 3.28322 0
M  V30 6597 N 619.324 -0.923095 1.27737 0
M  V30 6598 C 620.549 -1.71054 1.17283 0
M  V30 6599 C 620.974 -1.86208 -0.266153 0
M  V30 6600 O 620.332 -1.36545 -1.1927 0
M  V30 6601 C 620.38 -3.0854 1.86642 0
M  V30 6602 O 619.484 -3.95528 1.16752 0
M  V30 6603 H 618.825 -0.524136 0.407649 0
M  V30 6604 H 621.355 -1.15487 1.6889 0
M  V30 6605 H 621.365 -3.58828 1.94182 0
M  V30 6606 H 620.04 -2.96828 2.91317 0
M  V30 6607 H 618.617 -3.53967 1.17312 0
M  V30 6608 N 620.802 -1.09834 -1.13024 0
M  V30 6609 C 621.765 -0.745058 -2.16752 0
M  V30 6610 C 622.765 0.227435 -1.59183 0
M  V30 6611 O 623.955 0.0050786 -1.74199 0
M  V30 6612 C 621.087 -0.102543 -3.40746 0
M  V30 6613 H 622.28 -1.66375 -2.49518 0
M  V30 6614 H 619.833 -0.898061 -1.27924 0
M  V30 6615 H 620.568 0.827177 -3.13573 0
M  V30 6616 H 620.353 -0.80235 -3.83803 0
M  V30 6617 H 621.843 0.129082 -4.174 0
M  V30 6618 N 622.28 1.30327 -0.886154 0
M  V30 6619 C 623.243 2.26376 -0.358687 0
M  V30 6620 C 624.243 1.52845 0.499498 0
M  V30 6621 O 625.433 1.71483 0.306485 0
M  V30 6622 C 622.565 3.37379 0.488726 0
M  V30 6623 H 623.758 2.74547 -1.20681 0
M  V30 6624 H 621.311 1.41536 -0.663113 0
M  V30 6625 H 622.046 2.94526 1.35739 0
M  V30 6626 H 621.831 3.91897 -0.126003 0
M  V30 6627 H 623.321 4.08868 0.84952 0
M  V30 6628 N 623.758 0.647228 1.43697 0
M  V30 6629 C 625.006 0.157876 2.01482 0
M  V30 6630 C 625.327 -1.23039 1.51282 0
M  V30 6631 O 624.597 -1.82071 0.722982 0
M  V30 6632 H 623.177 0.0553745 0.744945 0
M  V30 6633 H 625.839 0.83755 1.75986 0
M  V30 6634 H 624.935 0.137895 3.11795 0
M  V30 6635 N 625.236 -1.5273 0.388769 0
M  V30 6636 C 626.482 -2.01871 -0.193877 0
M  V30 6637 C 626.815 -1.27475 -1.46505 0
M  V30 6638 O 626.09 -0.375063 -1.90849 0
M  V30 6639 C 626.373 -3.5712 -0.462336 0
M  V30 6640 C 626.226 -4.42186 0.824091 0
M  V30 6641 C 627.545 -4.21881 -1.25319 0
M  V30 6642 H 624.664 -0.733764 -0.0689899 0
M  V30 6643 H 627.306 -1.82796 0.518231 0
M  V30 6644 H 625.456 -3.73504 -1.06896 0
M  V30 6645 H 627.128 -4.37554 1.46096 0
M  V30 6646 H 625.371 -4.09219 1.43952 0
M  V30 6647 H 626.042 -5.48828 0.590905 0
M  V30 6648 H 628.518 -4.0947 -0.73981 0
M  V30 6649 H 627.394 -5.30487 -1.40977 0
M  V30 6650 H 627.655 -3.79478 -2.26824 0
M  V30 6651 N 626.714 -0.118576 -1.57153 0
M  V30 6652 C 627.944 0.546466 -1.99242 0
M  V30 6653 C 628.352 1.60791 -0.997148 0
M  V30 6654 O 627.695 1.83691 0.0181745 0
M  V30 6655 C 627.757 1.23167 -3.37743 0
M  V30 6656 C 627.421 0.318226 -4.55891 0
M  V30 6657 C 628.418 -0.442988 -5.18009 0
M  V30 6658 C 626.103 0.229421 -5.01776 0
M  V30 6659 C 628.097 -1.28074 -6.244 0
M  V30 6660 C 625.784 -0.611966 -6.08028 0
M  V30 6661 C 626.782 -1.36568 -6.69207 0
M  V30 6662 O 626.47 -2.1931 -7.73407 0
M  V30 6663 H 626.202 0.149297 -0.659307 0
M  V30 6664 H 628.756 -0.201603 -2.04408 0
M  V30 6665 H 626.986 2.0268 -3.29329 0
M  V30 6666 H 628.675 1.79358 -3.64123 0
M  V30 6667 H 629.441 -0.38425 -4.83475 0
M  V30 6668 H 625.32 0.805771 -4.53903 0
M  V30 6669 H 628.864 -1.86952 -6.72082 0
M  V30 6670 H 624.761 -0.6721 -6.41991 0
M  V30 6671 H 625.529 -2.12247 -7.90502 0
M  V30 6672 N 628.193 1.56834 0.155195 0
M  V30 6673 C 629.442 1.82088 0.867567 0
M  V30 6674 C 629.755 0.69849 1.82703 0
M  V30 6675 O 630.961 0.836407 2.58295 0
M  V30 6676 C 629.417 3.22707 1.59336 0
M  V30 6677 C 629.025 4.42859 0.676719 0
M  V30 6678 C 630.769 3.57242 2.293 0
M  V30 6679 C 628.676 5.74501 1.40367 0
M  V30 6680 H 627.606 0.679057 0.327715 0
M  V30 6681 H 630.257 1.83105 0.120351 0
M  V30 6682 H 628.639 3.16054 2.38591 0
M  V30 6683 H 629.813 4.60731 -0.0800196 0
M  V30 6684 H 628.128 4.16311 0.0859129 0
M  V30 6685 H 630.725 4.52847 2.84312 0
M  V30 6686 H 631.068 2.82901 3.05406 0
M  V30 6687 H 631.601 3.6552 1.56972 0
M  V30 6688 H 628.34 6.51915 0.684623 0
M  V30 6689 H 627.86 5.60579 2.13332 0
M  V30 6690 H 629.539 6.17016 1.94681 0
M  V30 6691 N 629.671 -0.424282 1.51781 0
M  V30 6692 C 630.918 -1.1726 1.65095 0
M  V30 6693 C 631.246 -1.90881 0.373477 0
M  V30 6694 O 630.501 -1.84835 -0.642997 0
M  V30 6695 C 630.8 -2.20418 2.81337 0
M  V30 6696 C 630.466 -1.63715 4.20129 0
M  V30 6697 C 629.128 -1.47975 4.57883 0
M  V30 6698 C 631.48 -1.22157 5.06682 0
M  V30 6699 C 628.808 -0.891703 5.79884 0
M  V30 6700 C 631.16 -0.647767 6.29275 0
M  V30 6701 C 629.824 -0.477371 6.65791 0
M  V30 6702 H 629.094 -0.429085 0.604125 0
M  V30 6703 H 631.741 -0.461852 1.85847 0
M  V30 6704 H 630.046 -2.97581 2.54859 0
M  V30 6705 H 631.743 -2.78163 2.88836 0
M  V30 6706 H 628.333 -1.76946 3.90369 0
M  V30 6707 H 632.517 -1.33133 4.7811 0
M  V30 6708 H 627.773 -0.747563 6.06813 0
M  V30 6709 H 631.947 -0.317291 6.95677 0
M  V30 6710 H 629.574 -0.0195936 7.60197 0
M  V30 6711 N 631.149 -1.42148 -0.680565 0
M  V30 6712 C 632.398 -1.41604 -1.43636 0
M  V30 6713 C 632.711 -0.0337887 -1.95571 0
M  V30 6714 O 633.917 0.0942588 -2.71336 0
M  V30 6715 C 632.373 -2.49056 -2.59806 0
M  V30 6716 C 631.981 -3.9326 -2.14594 0
M  V30 6717 C 633.725 -2.5767 -3.37352 0
M  V30 6718 C 631.632 -4.92232 -3.27813 0
M  V30 6719 H 630.562 -0.526656 -0.539583 0
M  V30 6720 H 633.213 -1.68033 -0.737369 0
M  V30 6721 H 631.595 -2.15782 -3.32045 0
M  V30 6722 H 632.769 -4.35858 -1.49546 0
M  V30 6723 H 631.084 -3.88443 -1.50002 0
M  V30 6724 H 633.681 -3.28794 -4.21662 0
M  V30 6725 H 634.024 -1.61837 -3.83555 0
M  V30 6726 H 634.557 -2.90109 -2.72179 0
M  V30 6727 H 631.296 -5.89522 -2.86607 0
M  V30 6728 H 630.816 -4.5427 -3.91661 0
M  V30 6729 H 632.495 -5.13684 -3.93367 0
M  V30 6730 N 632.627 0.916307 -1.28225 0
M  V30 6731 C 633.559 2.02303 -1.07732 0
M  V30 6732 C 634.572 1.62773 -0.0298421 0
M  V30 6733 O 635.761 1.76406 -0.272626 0
M  V30 6734 C 632.861 3.33282 -0.614504 0
M  V30 6735 C 632.034 4.01439 -1.73682 0
M  V30 6736 C 631.093 5.10698 -1.26781 0
M  V30 6737 O 630.119 5.34038 -1.96958 0
M  V30 6738 N 631.321 5.80355 -0.129624 0
M  V30 6739 H 634.086 2.20442 -2.03041 0
M  V30 6740 H 631.647 1.08744 -1.19943 0
M  V30 6741 H 633.639 4.03699 -0.284397 0
M  V30 6742 H 632.209 3.11633 0.245664 0
M  V30 6743 H 631.429 3.24604 -2.23665 0
M  V30 6744 H 632.717 4.43721 -2.48976 0
M  V30 6745 H 632.115 5.6386 0.455847 0
M  V30 6746 H 630.672 6.51647 0.141224 0
M  V30 6747 N 634.105 1.10431 1.1244 0
M  V30 6748 C 635.33 0.869089 1.88313 0
M  V30 6749 C 635.755 -0.574912 1.79099 0
M  V30 6750 O 635.113 -1.40496 1.14589 0
M  V30 6751 C 635.161 1.32208 3.3549 0
M  V30 6752 O 634.265 0.487092 4.09513 0
M  V30 6753 H 633.606 0.313894 0.585121 0
M  V30 6754 H 636.136 1.47111 1.42195 0
M  V30 6755 H 636.146 1.31201 3.86329 0
M  V30 6756 H 634.821 2.37364 3.41513 0
M  V30 6757 H 633.398 0.562372 3.68635 0
M  V30 6758 N 635.583 -1.29855 0.893053 0
M  V30 6759 C 636.832 -1.95104 0.511597 0
M  V30 6760 C 637.145 -1.71226 -0.945567 0
M  V30 6761 O 638.351 -2.30525 -1.43424 0
M  V30 6762 C 636.807 -3.49374 0.864034 0
M  V30 6763 C 636.415 -3.82061 2.33952 0
M  V30 6764 C 638.159 -4.20894 0.552167 0
M  V30 6765 C 636.066 -5.29546 2.63316 0
M  V30 6766 H 634.996 -0.73029 0.187597 0
M  V30 6767 H 637.647 -1.47682 1.08914 0
M  V30 6768 H 636.029 -3.95413 0.215493 0
M  V30 6769 H 637.203 -3.46904 3.03305 0
M  V30 6770 H 635.518 -3.23665 2.61973 0
M  V30 6771 H 638.115 -5.29435 0.748489 0
M  V30 6772 H 638.458 -4.13178 -0.508924 0
M  V30 6773 H 638.991 -3.80564 1.15825 0
M  V30 6774 H 635.73 -5.4232 3.68197 0
M  V30 6775 H 635.25 -5.65974 1.9858 0
M  V30 6776 H 636.929 -5.97068 2.49236 0
M  V30 6777 N 637.061 -0.65484 -1.43351 0
M  V30 6778 C 638.024 0.0263562 -2.29185 0
M  V30 6779 C 639.024 0.748951 -1.42293 0
M  V30 6780 O 640.214 0.589957 -1.63906 0
M  V30 6781 C 637.346 1.04806 -3.2439 0
M  V30 6782 H 638.539 -0.728883 -2.90908 0
M  V30 6783 H 636.092 -0.416149 -1.50658 0
M  V30 6784 H 636.827 1.83247 -2.67565 0
M  V30 6785 H 636.612 0.533554 -3.88453 0
M  V30 6786 H 638.102 1.52372 -3.88809 0
M  V30 6787 N 638.539 1.52521 -0.396863 0
M  V30 6788 C 639.787 2.01274 0.182536 0
M  V30 6789 C 640.108 1.28485 1.46685 0
M  V30 6790 O 639.378 0.407134 1.91623 0
M  V30 6791 H 637.958 0.743671 0.0704442 0
M  V30 6792 H 640.62 1.87547 -0.530289 0
M  V30 6793 H 639.716 3.09687 0.387385 0
M  V30 6794 N 640.017 0.126909 1.57088 0
M  V30 6795 C 640.947 -0.816847 2.18746 0
M  V30 6796 C 641.928 -1.27161 1.12979 0
M  V30 6797 O 643.113 -1.33279 1.41246 0
M  V30 6798 C 640.243 -2.06398 2.79315 0
M  V30 6799 C 639.197 -1.74673 3.90735 0
M  V30 6800 C 638.523 -3.06482 4.38147 0
M  V30 6801 C 639.823 -1.0089 5.12463 0
M  V30 6802 H 641.517 -0.303032 2.97863 0
M  V30 6803 H 639.063 -0.144314 1.43275 0
M  V30 6804 H 641.016 -2.72885 3.2111 0
M  V30 6805 H 639.74 -2.60118 1.975 0
M  V30 6806 H 638.399 -1.10572 3.49527 0
M  V30 6807 H 638.047 -3.58152 3.5318 0
M  V30 6808 H 637.747 -2.86025 5.13287 0
M  V30 6809 H 639.271 -3.74073 4.82599 0
M  V30 6810 H 640.685 -1.57546 5.51228 0
M  V30 6811 H 639.082 -0.905006 5.93237 0
M  V30 6812 H 640.152 0.00297335 4.849 0
M  V30 6813 N 641.495 -1.56914 -0.146875 0
M  V30 6814 C 642.458 -1.97368 -1.16526 0
M  V30 6815 C 643.458 -0.860223 -1.35856 0
M  V30 6816 O 644.648 -1.12684 -1.32846 0
M  V30 6817 C 641.78 -2.28974 -2.52555 0
M  V30 6818 H 642.973 -2.88523 -0.818209 0
M  V30 6819 H 640.526 -1.5135 -0.390221 0
M  V30 6820 H 641.261 -1.40611 -2.92231 0
M  V30 6821 H 641.046 -3.10157 -2.39886 0
M  V30 6822 H 642.536 -2.61109 -3.25902 0
M  V30 6823 N 642.974 0.416227 -1.52004 0
M  V30 6824 C 644.222 1.16153 -1.65387 0
M  V30 6825 C 644.543 1.91208 -0.382669 0
M  V30 6826 O 643.813 1.86413 0.602231 0
M  V30 6827 H 642.393 0.431765 -0.60958 0
M  V30 6828 H 645.055 0.475151 -1.89019 0
M  V30 6829 H 644.151 1.87952 -2.4916 0
M  V30 6830 N 644.452 1.42507 0.673017 0
M  V30 6831 C 645.863 1.38347 1.25367 0
M  V30 6832 C 646.214 0.0776327 1.96046 0
M  V30 6833 O 645.339 -0.823571 2.00116 0
M  V30 6834 C 645.934 2.506 2.28002 0
M  V30 6835 C 644.493 2.49767 2.81591 0
M  V30 6836 C 643.64 2.293 1.55938 0
M  V30 6837 H 646.591 1.51695 0.466288 0
M  V30 6838 H 646.612 2.20953 3.09774 0
M  V30 6839 H 646.124 3.45627 1.76532 0
M  V30 6840 H 644.225 1.58563 3.37177 0
M  V30 6841 H 644.338 3.46867 3.30485 0
M  V30 6842 H 642.702 1.77594 1.82572 0
M  V30 6843 H 643.485 3.26385 1.06431 0
M  V30 6844 N 645.93 -0.909495 1.28709 0
M  V30 6845 C 647.341 -1.47419 1.14563 0
M  V30 6846 C 647.692 -1.94432 -0.262832 0
M  V30 6847 O 646.817 -1.82842 -1.15748 0
M  V30 6848 C 647.412 -2.67933 2.07358 0
M  V30 6849 C 645.971 -3.20568 1.97264 0
M  V30 6850 C 645.118 -1.93269 1.98852 0
M  V30 6851 H 648.069 -0.721787 1.41336 0
M  V30 6852 H 648.09 -3.43339 1.64007 0
M  V30 6853 H 647.602 -2.33685 3.09859 0
M  V30 6854 H 645.703 -3.59531 0.978157 0
M  V30 6855 H 645.816 -3.85529 2.84436 0
M  V30 6856 H 644.18 -2.10553 1.43317 0
M  V30 6857 H 644.963 -1.61312 3.0304 0
M  V30 6858 N 647.408 -1.11026 -1.11852 0
M  V30 6859 C 648.338 -0.786812 -2.19844 0
M  V30 6860 C 649.319 0.242935 -1.68356 0
M  V30 6861 O 650.504 0.107355 -1.93903 0
M  V30 6862 C 647.634 -0.224516 -3.46574 0
M  V30 6863 C 646.588 -1.18564 -4.1125 0
M  V30 6864 C 645.914 -0.484261 -5.32503 0
M  V30 6865 C 647.214 -2.53465 -4.56676 0
M  V30 6866 H 648.908 -1.68978 -2.47158 0
M  V30 6867 H 646.454 -0.813906 -1.18792 0
M  V30 6868 H 648.407 0.0139435 -4.21398 0
M  V30 6869 H 647.131 0.713722 -3.18706 0
M  V30 6870 H 645.79 -1.40966 -3.38414 0
M  V30 6871 H 645.438 0.458646 -5.00905 0
M  V30 6872 H 645.138 -1.12526 -5.76725 0
M  V30 6873 H 646.662 -0.254492 -6.10069 0
M  V30 6874 H 648.076 -2.35177 -5.22843 0
M  V30 6875 H 646.473 -3.13507 -5.11697 0
M  V30 6876 H 647.543 -3.13008 -3.70343 0
M  V30 6877 N 648.886 1.2938 -0.899927 0
M  V30 6878 C 649.849 2.25983 -0.382677 0
M  V30 6879 C 650.849 1.53366 0.483259 0
M  V30 6880 O 652.039 1.71798 0.28828 0
M  V30 6881 C 649.171 3.37878 0.452915 0
M  V30 6882 H 650.364 2.73252 -1.23586 0
M  V30 6883 H 647.917 1.40825 -0.678088 0
M  V30 6884 H 648.652 2.95949 1.32608 0
M  V30 6885 H 648.437 3.91742 -0.167562 0
M  V30 6886 H 649.927 4.09746 0.806107 0
M  V30 6887 N 650.364 0.662433 1.43002 0
M  V30 6888 C 651.612 0.179237 2.01304 0
M  V30 6889 C 651.933 -1.21428 1.52579 0
M  V30 6890 O 651.203 -1.81294 0.742252 0
M  V30 6891 H 649.783 0.0632725 0.744316 0
M  V30 6892 H 652.445 0.856169 1.75088 0
M  V30 6893 H 651.541 0.170957 3.11631 0
M  V30 6894 N 651.842 -1.52309 0.404946 0
M  V30 6895 C 652.772 -2.29805 -0.41376 0
M  V30 6896 C 653.753 -1.3384 -1.0498 0
M  V30 6897 O 654.938 -1.62745 -1.05961 0
M  V30 6898 C 652.068 -3.11639 -1.53292 0
M  V30 6899 C 651.022 -4.15616 -1.02211 0
M  V30 6900 C 650.348 -4.8577 -2.23455 0
M  V30 6901 C 651.648 -5.2224 -0.0790725 0
M  V30 6902 H 653.342 -2.98493 0.232878 0
M  V30 6903 H 650.888 -1.43552 0.113441 0
M  V30 6904 H 652.841 -3.64618 -2.11262 0
M  V30 6905 H 651.565 -2.40712 -2.20738 0
M  V30 6906 H 650.224 -3.63641 -0.46484 0
M  V30 6907 H 649.872 -4.11376 -2.89445 0
M  V30 6908 H 649.572 -5.56058 -1.89929 0
M  V30 6909 H 651.096 -5.4156 -2.82038 0
M  V30 6910 H 652.51 -5.70485 -0.567438 0
M  V30 6911 H 650.907 -5.99867 0.167167 0
M  V30 6912 H 651.977 -4.77078 0.867447 0
M  V30 6913 N 653.32 -0.135238 -1.57019 0
M  V30 6914 C 654.25 0.805235 -2.19176 0
M  V30 6915 C 655.231 1.2656 -1.13651 0
M  V30 6916 O 656.416 1.32528 -1.4195 0
M  V30 6917 C 653.546 2.04914 -2.80406 0
M  V30 6918 C 652.5 1.72598 -3.91655 0
M  V30 6919 C 651.826 3.04154 -4.39766 0
M  V30 6920 C 653.126 0.981709 -5.12991 0
M  V30 6921 H 654.82 0.287232 -2.98019 0
M  V30 6922 H 652.366 0.136714 -1.4335 0
M  V30 6923 H 654.319 2.71178 -3.22553 0
M  V30 6924 H 653.043 2.59067 -1.98877 0
M  V30 6925 H 651.702 1.08717 -3.50109 0
M  V30 6926 H 651.35 3.56274 -3.55075 0
M  V30 6927 H 651.05 2.83299 -5.14796 0
M  V30 6928 H 652.574 3.71509 -4.84576 0
M  V30 6929 H 653.988 1.5462 -5.52056 0
M  V30 6930 H 652.385 0.873533 -5.93708 0
M  V30 6931 H 653.455 -0.0286887 -4.84892 0
M  V30 6932 N 654.798 1.5699 0.138552 0
M  V30 6933 C 656.044 1.84081 0.85099 0
M  V30 6934 C 656.377 0.718107 1.80435 0
M  V30 6935 O 655.652 -0.277633 1.92508 0
M  V30 6936 C 655.935 3.21699 1.61808 0
M  V30 6937 C 655.788 4.44544 0.685633 0
M  V30 6938 C 657.107 3.5664 2.57868 0
M  V30 6939 H 654.226 0.669592 0.307922 0
M  V30 6940 H 656.868 1.89646 0.11588 0
M  V30 6941 H 655.018 3.17086 2.24474 0
M  V30 6942 H 656.69 4.61248 0.0693179 0
M  V30 6943 H 654.933 4.338 -0.00421993 0
M  V30 6944 H 655.604 5.3746 1.25858 0
M  V30 6945 H 658.08 3.61918 2.05316 0
M  V30 6946 H 656.956 4.53946 3.08584 0
M  V30 6947 H 657.217 2.83036 3.39622 0
M  V30 6948 N 656.276 -0.40816 1.52223 0
M  V30 6949 C 657.553 -1.16807 1.56893 0
M  V30 6950 C 657.933 -2.08169 0.350537 0
M  V30 6951 O 657.281 -2.18684 -0.662536 0
M  V30 6952 C 657.491 -1.94451 2.8981 0
M  V30 6953 C 658.839 -2.50484 3.42845 0
M  V30 6954 O 659.863 -2.0463 2.91556 0
M  V30 6955 O 658.722 -3.34192 4.3241 0
M  V30 6956 H 655.816 -0.533382 0.632007 0
M  V30 6957 H 658.362 -0.414862 1.64551 0
M  V30 6958 H 657.134 -1.27527 3.69936 0
M  V30 6959 H 656.757 -2.76775 2.85449 0
M  V30 6960 N 657.755 -1.42862 -0.66545 0
M  V30 6961 C 658.687 -1.43026 -1.79098 0
M  V30 6962 C 659.7 -0.32803 -1.59461 0
M  V30 6963 O 660.889 -0.591709 -1.68407 0
M  V30 6964 C 657.989 -1.21566 -3.16346 0
M  V30 6965 C 657.162 -2.44399 -3.62751 0
M  V30 6966 C 656.221 -2.18344 -4.78761 0
M  V30 6967 O 655.247 -2.91611 -4.88827 0
M  V30 6968 N 656.449 -1.1924 -5.68122 0
M  V30 6969 H 659.214 -2.40045 -1.79439 0
M  V30 6970 H 656.775 -1.37861 -0.848872 0
M  V30 6971 H 658.767 -1.02037 -3.91625 0
M  V30 6972 H 657.337 -0.330368 -3.10849 0
M  V30 6973 H 656.557 -2.79433 -2.78048 0
M  V30 6974 H 657.845 -3.26173 -3.90498 0
M  V30 6975 H 657.243 -0.586603 -5.6265 0
M  V30 6976 H 655.8 -1.05698 -6.43173 0
M  V30 6977 N 659.233 0.902656 -1.29189 0
M  V30 6978 C 660.458 1.69167 -1.19989 0
M  V30 6979 C 660.883 1.86607 0.236495 0
M  V30 6980 O 660.241 1.38425 1.17082 0
M  V30 6981 C 660.289 3.05532 -1.91527 0
M  V30 6982 O 659.393 3.93621 -1.2303 0
M  V30 6983 H 658.734 0.517584 -0.415936 0
M  V30 6984 H 661.264 1.12785 -1.70706 0
M  V30 6985 H 661.274 3.55693 -1.99866 0
M  V30 6986 H 659.949 2.92156 -2.96003 0
M  V30 6987 H 658.526 3.52055 -1.22928 0
M  V30 6988 N 660.711 1.11618 1.11262 0
M  V30 6989 C 661.658 0.7762 2.17356 0
M  V30 6990 C 662.628 -0.253152 1.6416 0
M  V30 6991 O 663.813 -0.129655 1.90359 0
M  V30 6992 C 660.953 0.227581 3.44349 0
M  V30 6993 C 660.066 1.31372 4.1154 0
M  V30 6994 C 659.201 0.72544 5.26223 0
M  V30 6995 C 658.24 1.7913 5.85302 0
M  V30 6996 N 657.377 1.22237 6.91377 0
M  V30 6997 H 662.217 1.68508 2.45783 0
M  V30 6998 H 659.754 0.841475 1.20655 0
M  V30 6999 H 661.712 -0.108483 4.17059 0
M  V30 7000 H 660.342 -0.644486 3.16301 0
M  V30 7001 H 659.394 1.7667 3.36885 0
M  V30 7002 H 660.706 2.12005 4.51504 0
M  V30 7003 H 659.86 0.339541 6.05749 0
M  V30 7004 H 658.599 -0.112188 4.87571 0
M  V30 7005 H 657.604 2.18648 5.04453 0
M  V30 7006 H 658.829 2.63199 6.26022 0
M  V30 7007 H 656.775 0.406423 6.5474 0
M  V30 7008 H 656.692 1.9654 7.30006 0
M  V30 7009 H 657.96 0.863426 7.74703 0
M  V30 7010 N 662.189 -1.289 0.906776 0
M  V30 7011 C 663.438 -1.9455 0.532262 0
M  V30 7012 C 663.751 -1.72219 -0.927353 0
M  V30 7013 O 664.957 -2.32033 -1.40971 0
M  V30 7014 C 663.413 -3.48438 0.901041 0
M  V30 7015 C 663.021 -3.79558 2.37991 0
M  V30 7016 C 664.765 -4.20284 0.596777 0
M  V30 7017 C 662.672 -5.26723 2.68918 0
M  V30 7018 H 661.602 -0.728259 0.195333 0
M  V30 7019 H 664.253 -1.46519 1.10474 0
M  V30 7020 H 662.635 -3.95162 0.257419 0
M  V30 7021 H 663.809 -3.43668 3.06967 0
M  V30 7022 H 662.124 -3.20868 2.65391 0
M  V30 7023 H 664.721 -5.28612 0.8046 0
M  V30 7024 H 665.064 -4.13694 -0.465072 0
M  V30 7025 H 665.597 -3.79315 1.19855 0
M  V30 7026 H 662.336 -5.38384 3.73928 0
M  V30 7027 H 661.856 -5.63836 2.04571 0
M  V30 7028 H 663.535 -5.94391 2.55555 0
M  V30 7029 N 663.667 -0.670007 -1.42649 0
M  V30 7030 C 664.897 -0.198252 -2.05647 0
M  V30 7031 C 665.305 1.14786 -1.50402 0
M  V30 7032 O 664.648 1.72316 -0.636634 0
M  V30 7033 C 664.71 -0.0507132 -3.59464 0
M  V30 7034 C 664.374 -1.32478 -4.37377 0
M  V30 7035 C 665.371 -2.2572 -4.68344 0
M  V30 7036 C 663.056 -1.57104 -4.77099 0
M  V30 7037 C 665.05 -3.4187 -5.37963 0
M  V30 7038 C 662.737 -2.73543 -5.46459 0
M  V30 7039 C 663.735 -3.65751 -5.76815 0
M  V30 7040 O 663.423 -4.80154 -6.44753 0
M  V30 7041 H 663.155 -0.0950721 -0.669281 0
M  V30 7042 H 665.709 -0.915745 -1.83857 0
M  V30 7043 H 663.939 0.722314 -3.79894 0
M  V30 7044 H 665.628 0.380552 -4.04112 0
M  V30 7045 H 666.394 -2.07943 -4.38161 0
M  V30 7046 H 662.273 -0.862069 -4.52868 0
M  V30 7047 H 665.817 -4.13861 -5.61574 0
M  V30 7048 H 661.714 -2.91248 -5.7606 0
M  V30 7049 H 662.482 -4.79637 -6.63243 0
M  V30 7050 N 665.145 1.52092 -0.413018 0
M  V30 7051 C 666.37 2.06756 0.163338 0
M  V30 7052 C 666.795 1.28073 1.37764 0
M  V30 7053 O 666.153 0.312015 1.78595 0
M  V30 7054 C 666.201 3.57278 0.488322 0
M  V30 7055 O 665.305 3.80986 1.57871 0
M  V30 7056 H 664.646 0.663882 0.0125068 0
M  V30 7057 H 667.176 1.95988 -0.587339 0
M  V30 7058 H 667.186 4.01125 0.745836 0
M  V30 7059 H 665.861 4.13978 -0.399327 0
M  V30 7060 H 664.438 3.49017 1.31306 0
M  V30 7061 N 666.623 0.143563 1.56945 0
M  V30 7062 C 668.039 -0.212877 1.58174 0
M  V30 7063 C 668.239 -1.64926 1.15766 0
M  V30 7064 O 667.295 -2.37535 0.856361 0
M  V30 7065 C 668.608 0.0427573 3.0067 0
M  V30 7066 C 670.156 -0.0212221 3.12993 0
M  V30 7067 C 670.631 0.207036 4.57532 0
M  V30 7068 N 672.122 0.153845 4.62944 0
M  V30 7069 C 672.857 0.305018 5.72588 0
M  V30 7070 N 672.353 0.513722 6.90893 0
M  V30 7071 N 674.146 0.242862 5.61575 0
M  V30 7072 H 666.297 1.08148 1.82805 0
M  V30 7073 H 668.56 0.427831 0.84597 0
M  V30 7074 H 668.266 1.03672 3.36073 0
M  V30 7075 H 668.14 -0.678195 3.71053 0
M  V30 7076 H 670.527 -1.00574 2.77433 0
M  V30 7077 H 670.608 0.732004 2.45103 0
M  V30 7078 H 670.252 1.18863 4.93795 0
M  V30 7079 H 670.182 -0.566473 5.23544 0
M  V30 7080 H 672.673 -0.00294866 3.779 0
M  V30 7081 H 672.986 0.619273 7.70315 0
M  V30 7082 H 671.331 0.550001 6.9282 0
M  V30 7083 H 674.522 0.0806015 4.68031 0
M  V30 7084 H 674.695 0.364112 6.46976 0
M  V30 7085 N 668.101 -1.57061 -0.130224 0
M  V30 7086 C 669.064 -1.98593 -1.14426 0
M  V30 7087 C 670.064 -0.874584 -1.34936 0
M  V30 7088 O 671.254 -1.14086 -1.31643 0
M  V30 7089 C 668.386 -2.31639 -2.50112 0
M  V30 7090 H 669.579 -2.89374 -0.787561 0
M  V30 7091 H 667.132 -1.51756 -0.374146 0
M  V30 7092 H 667.867 -1.43703 -2.90723 0
M  V30 7093 H 667.652 -3.12684 -2.36583 0
M  V30 7094 H 669.142 -2.64551 -3.23114 0
M  V30 7095 N 669.579 0.400081 -1.52437 0
M  V30 7096 C 670.826 1.14619 -1.6694 0
M  V30 7097 C 671.154 1.90262 -0.403797 0
M  V30 7098 O 670.409 1.85835 0.61351 0
M  V30 7099 C 670.708 2.15914 -2.84808 0
M  V30 7100 C 670.374 1.57011 -4.2268 0
M  V30 7101 C 669.036 1.40672 -4.60179 0
M  V30 7102 C 671.388 1.14081 -5.08562 0
M  V30 7103 C 668.716 0.799335 -5.81229 0
M  V30 7104 C 671.068 0.547573 -6.30226 0
M  V30 7105 C 669.732 0.371389 -6.66466 0
M  V30 7106 H 669.002 0.419419 -0.610875 0
M  V30 7107 H 671.649 0.432227 -1.86558 0
M  V30 7108 H 669.954 2.93488 -2.59561 0
M  V30 7109 H 671.651 2.73533 -2.93225 0
M  V30 7110 H 668.241 1.70713 -3.93135 0
M  V30 7111 H 672.425 1.2551 -4.80168 0
M  V30 7112 H 667.681 0.65093 -6.07925 0
M  V30 7113 H 671.855 0.206575 -6.96094 0
M  V30 7114 H 669.482 -0.10135 -7.60132 0
M  V30 7115 N 671.057 1.43213 0.657864 0
M  V30 7116 C 672.287 1.478 1.44356 0
M  V30 7117 C 672.695 0.0930206 1.88971 0
M  V30 7118 O 672.038 -0.906089 1.59799 0
M  V30 7119 C 672.1 2.35745 2.71412 0
M  V30 7120 C 671.764 3.83359 2.48767 0
M  V30 7121 C 672.761 4.74585 2.12285 0
M  V30 7122 C 670.446 4.27799 2.63235 0
M  V30 7123 C 672.44 6.08247 1.90562 0
M  V30 7124 C 670.127 5.61516 2.41128 0
M  V30 7125 C 671.125 6.51557 2.04847 0
M  V30 7126 O 670.813 7.82802 1.82967 0
M  V30 7127 H 670.545 0.504363 0.450104 0
M  V30 7128 H 673.099 1.88572 0.814241 0
M  V30 7129 H 671.329 1.89852 3.36887 0
M  V30 7130 H 673.018 2.31589 3.33348 0
M  V30 7131 H 673.784 4.41531 2.00687 0
M  V30 7132 H 669.663 3.57993 2.90451 0
M  V30 7133 H 673.207 6.78489 1.62168 0
M  V30 7134 H 669.104 5.94139 2.52327 0
M  V30 7135 H 669.872 7.94332 1.97429 0
M  V30 7136 N 672.536 -0.895792 1.29666 0
M  V30 7137 C 673.761 -1.68528 1.20885 0
M  V30 7138 C 674.186 -1.8673 -0.226595 0
M  V30 7139 O 673.544 -1.39044 -1.16347 0
M  V30 7140 C 673.592 -3.04512 1.93144 0
M  V30 7141 O 672.696 -3.92963 1.25115 0
M  V30 7142 H 672.037 -0.515371 0.418675 0
M  V30 7143 H 674.567 -1.11878 1.71302 0
M  V30 7144 H 674.577 -3.54628 2.0175 0
M  V30 7145 H 673.252 -2.90582 2.97548 0
M  V30 7146 H 671.829 -3.51399 1.24794 0
M  V30 7147 N 674.014 -1.12206 -1.10668 0
M  V30 7148 C 675.254 -0.885935 -1.84202 0
M  V30 7149 C 675.618 0.577849 -1.83098 0
M  V30 7150 O 676.819 0.931051 -2.5216 0
M  V30 7151 C 675.09 -1.44197 -3.2702 0
M  V30 7152 S 676.649 -1.34402 -4.1771 0
M  V30 7153 H 673.467 -0.319653 -0.635093 0
M  V30 7154 H 676.069 -1.43112 -1.33189 0
M  V30 7155 H 674.773 -2.50096 -3.25392 0
M  V30 7156 H 674.304 -0.894173 -3.83103 0
M  V30 7157 H 676.319 -0.313873 -4.95206 0
M  V30 7158 N 675.492 1.28418 -0.913599 0
M  V30 7159 C 676.455 2.25564 -0.406624 0
M  V30 7160 C 677.455 1.5387 0.466965 0
M  V30 7161 O 678.645 1.72094 0.270042 0
M  V30 7162 C 675.777 3.38339 0.417053 0
M  V30 7163 H 676.97 2.71926 -1.26477 0
M  V30 7164 H 674.523 1.40098 -0.692986 0
M  V30 7165 H 675.258 2.97339 1.29461 0
M  V30 7166 H 675.043 3.91542 -0.209102 0
M  V30 7167 H 676.533 4.10578 0.762602 0
M  V30 7168 N 676.97 0.677563 1.42291 0
M  V30 7169 C 677.933 0.0101085 2.29198 0
M  V30 7170 C 678.933 -0.726219 1.43467 0
M  V30 7171 O 680.123 -0.563807 1.64824 0
M  V30 7172 C 677.255 -0.996316 3.26016 0
M  V30 7173 H 678.448 0.775071 2.89711 0
M  V30 7174 H 676.001 0.440065 1.49977 0
M  V30 7175 H 676.736 -1.78967 2.70446 0
M  V30 7176 H 676.521 -0.471687 3.89253 0
M  V30 7177 H 678.011 -1.46167 3.91184 0
M  V30 7178 N 678.448 -1.51871 0.421078 0
M  V30 7179 C 679.696 -2.01539 -0.150492 0
M  V30 7180 C 680.017 -1.30803 -1.44623 0
M  V30 7181 O 679.287 -0.437568 -1.90951 0
M  V30 7182 H 677.867 -0.744698 -0.0586041 0
M  V30 7183 H 680.529 -1.8668 0.560059 0
M  V30 7184 H 679.625 -3.10264 -0.338068 0
M  V30 7185 N 679.926 -0.151884 -1.56866 0
M  V30 7186 C 680.859 0.824094 -2.128 0
M  V30 7187 C 681.837 1.2391 -1.05286 0
M  V30 7188 O 683.021 1.33433 -1.33146 0
M  V30 7189 C 680.148 2.1072 -2.65169 0
M  V30 7190 C 679.194 1.83774 -3.84876 0
M  V30 7191 S 680.027 1.02436 -5.25611 0
M  V30 7192 C 681.183 2.31855 -5.81373 0
M  V30 7193 H 681.416 0.348456 -2.95251 0
M  V30 7194 H 678.949 0.0624794 -1.54274 0
M  V30 7195 H 680.907 2.84428 -2.95992 0
M  V30 7196 H 679.568 2.55398 -1.8284 0
M  V30 7197 H 678.761 2.78929 -4.19779 0
M  V30 7198 H 678.363 1.18172 -3.5484 0
M  V30 7199 H 680.655 3.27469 -5.93102 0
M  V30 7200 H 681.598 2.01449 -6.7884 0
M  V30 7201 H 682.006 2.42727 -5.09651 0
M  V30 7202 N 681.404 1.57128 0.121893 0
M  V30 7203 C 682.367 1.99197 1.13372 0
M  V30 7204 C 683.367 0.881728 1.3447 0
M  V30 7205 O 684.557 1.14783 1.31036 0
M  V30 7206 C 681.689 2.32963 2.4888 0
M  V30 7207 H 682.882 2.89788 0.772204 0
M  V30 7208 H 680.435 1.51952 0.366093 0
M  V30 7209 H 681.17 1.45243 2.89957 0
M  V30 7210 H 680.955 3.13934 2.34921 0
M  V30 7211 H 682.445 2.66261 3.21706 0
M  V30 7212 N 682.882 -0.391992 1.52647 0
M  V30 7213 C 683.812 -1.48517 1.8018 0
M  V30 7214 C 684.793 -1.57039 0.653667 0
M  V30 7215 O 685.978 -1.72036 0.900962 0
M  V30 7216 C 683.108 -2.86161 1.96797 0
M  V30 7217 C 682.062 -2.92481 3.12472 0
M  V30 7218 C 681.388 -4.32546 3.14338 0
M  V30 7219 C 682.688 -2.624 4.51601 0
M  V30 7220 H 684.382 -1.25726 2.71723 0
M  V30 7221 H 681.928 -0.603387 1.30749 0
M  V30 7222 H 683.881 -3.62639 2.14641 0
M  V30 7223 H 682.605 -3.10283 1.01941 0
M  V30 7224 H 681.264 -2.18451 2.94406 0
M  V30 7225 H 680.912 -4.53703 2.1717 0
M  V30 7226 H 680.612 -4.37695 3.92042 0
M  V30 7227 H 682.136 -5.10934 3.34333 0
M  V30 7228 H 683.55 -3.28596 4.69785 0
M  V30 7229 H 681.947 -2.78903 5.3135 0
M  V30 7230 H 683.017 -1.57754 4.58521 0
M  V30 7231 N 684.36 -1.4356 -0.65026 0
M  V30 7232 C 685.323 -1.48615 -1.74489 0
M  V30 7233 C 686.323 -0.370483 -1.56474 0
M  V30 7234 O 687.513 -0.632351 -1.62317 0
M  V30 7235 C 684.645 -1.34161 -3.13391 0
M  V30 7236 H 685.838 -2.46103 -1.71387 0
M  V30 7237 H 683.391 -1.30369 -0.862186 0
M  V30 7238 H 684.126 -0.376918 -3.22102 0
M  V30 7239 H 683.911 -2.1504 -3.27872 0
M  V30 7240 H 685.401 -1.40637 -3.93206 0
M  V30 7241 N 685.838 0.888903 -1.30139 0
M  V30 7242 C 686.801 1.97576 -1.16174 0
M  V30 7243 C 687.801 1.60525 -0.094086 0
M  V30 7244 O 688.991 1.70812 -0.341889 0
M  V30 7245 C 686.123 3.3188 -0.778983 0
M  V30 7246 H 687.316 2.11393 -2.12728 0
M  V30 7247 H 684.869 1.0748 -1.1348 0
M  V30 7248 H 685.604 3.23765 0.186225 0
M  V30 7249 H 685.389 3.60141 -1.55051 0
M  V30 7250 H 686.879 4.11612 -0.704631 0
M  V30 7251 N 687.317 1.12792 1.10072 0
M  V30 7252 C 688.563 0.886857 1.82381 0
M  V30 7253 C 688.896 -0.58576 1.85155 0
M  V30 7254 O 688.171 -1.43317 1.31493 0
M  V30 7255 C 688.454 1.46703 3.28862 0
M  V30 7256 C 688.307 3.00829 3.34398 0
M  V30 7257 C 689.626 1.12971 4.25353 0
M  V30 7258 H 686.745 0.32362 0.662148 0
M  V30 7259 H 689.387 1.39513 1.28982 0
M  V30 7260 H 687.537 1.03476 3.74466 0
M  V30 7261 H 689.209 3.52764 2.97247 0
M  V30 7262 H 687.452 3.36164 2.74183 0
M  V30 7263 H 688.123 3.36519 4.3756 0
M  V30 7264 H 690.599 1.50313 3.88001 0
M  V30 7265 H 689.475 1.56223 5.26199 0
M  V30 7266 H 689.736 0.0424452 4.4208 0
M  V30 7267 N 688.795 -1.27931 0.920396 0
M  V30 7268 C 690.035 -1.96459 0.564198 0
M  V30 7269 C 690.399 -1.70802 -0.876967 0
M  V30 7270 O 691.6 -2.32956 -1.34107 0
M  V30 7271 C 689.871 -3.46583 0.872641 0
M  V30 7272 S 691.43 -4.34343 0.623859 0
M  V30 7273 H 688.248 -0.679735 0.208523 0
M  V30 7274 H 690.85 -1.55319 1.18727 0
M  V30 7275 H 689.554 -3.62753 1.91933 0
M  V30 7276 H 689.085 -3.92677 0.238479 0
M  V30 7277 H 691.1 -4.93449 -0.521744 0
M  V30 7278 N 690.273 -0.685099 -1.4193 0
M  V30 7279 C 691.203 -0.0273506 -2.33484 0
M  V30 7280 C 692.184 0.778366 -1.51246 0
M  V30 7281 O 693.369 0.733449 -1.79817 0
M  V30 7282 C 690.499 0.917272 -3.34968 0
M  V30 7283 C 689.453 0.21941 -4.27437 0
M  V30 7284 C 688.779 1.27768 -5.1921 0
M  V30 7285 C 690.079 -0.907894 -5.14349 0
M  V30 7286 H 691.773 -0.791994 -2.88735 0
M  V30 7287 H 689.319 -0.382308 -1.38832 0
M  V30 7288 H 691.272 1.38657 -3.97935 0
M  V30 7289 H 689.996 1.71346 -2.78043 0
M  V30 7290 H 688.655 -0.229757 -3.65879 0
M  V30 7291 H 688.303 2.06612 -4.58607 0
M  V30 7292 H 688.003 0.815803 -5.81909 0
M  V30 7293 H 689.527 1.7477 -5.85054 0
M  V30 7294 H 690.941 -0.519348 -5.70943 0
M  V30 7295 H 689.338 -1.2962 -5.85934 0
M  V30 7296 H 690.408 -1.75218 -4.52136 0
M  V30 7297 N 691.751 1.51645 -0.429126 0
M  V30 7298 C 692.714 2.26116 0.374726 0
M  V30 7299 C 693.714 1.29242 0.956714 0
M  V30 7300 O 694.904 1.53022 0.832452 0
M  V30 7301 C 692.036 3.04669 1.52937 0
M  V30 7302 H 693.229 2.9861 -0.277818 0
M  V30 7303 H 690.782 1.55236 -0.182097 0
M  V30 7304 H 691.517 2.36571 2.21821 0
M  V30 7305 H 691.302 3.75814 1.11833 0
M  V30 7306 H 692.792 3.61102 2.09751 0
M  V30 7307 N 693.229 0.160201 1.56784 0
M  V30 7308 C 694.159 -0.770264 2.2043 0
M  V30 7309 C 695.14 -1.24736 1.15651 0
M  V30 7310 O 696.325 -1.30253 1.44041 0
M  V30 7311 C 693.455 -2.00427 2.83631 0
M  V30 7312 C 692.409 -1.66345 3.94352 0
M  V30 7313 C 691.735 -2.97119 4.4455 0
M  V30 7314 C 693.035 -0.899972 5.14488 0
M  V30 7315 H 694.729 -0.239783 2.98438 0
M  V30 7316 H 692.275 -0.113891 1.43549 0
M  V30 7317 H 694.228 -2.66012 3.26827 0
M  V30 7318 H 692.952 -2.5587 2.02973 0
M  V30 7319 H 691.611 -1.03133 3.51794 0
M  V30 7320 H 691.259 -3.5058 3.60698 0
M  V30 7321 H 690.959 -2.75073 5.19238 0
M  V30 7322 H 692.483 -3.63753 4.90425 0
M  V30 7323 H 693.897 -1.45818 5.54446 0
M  V30 7324 H 692.294 -0.778968 5.95023 0
M  V30 7325 H 693.364 0.105827 4.84785 0
M  V30 7326 N 694.707 -1.5719 -0.113559 0
M  V30 7327 C 695.953 -1.85412 -0.821597 0
M  V30 7328 C 696.286 -0.746722 -1.7927 0
M  V30 7329 O 695.561 0.246971 -1.92926 0
M  V30 7330 C 695.844 -3.24233 -1.56669 0
M  V30 7331 C 695.697 -4.45578 -0.614823 0
M  V30 7332 C 697.016 -3.60697 -2.52161 0
M  V30 7333 H 694.135 -0.674406 -0.29723 0
M  V30 7334 H 696.777 -1.89807 -0.085694 0
M  V30 7335 H 694.927 -3.20617 -2.19401 0
M  V30 7336 H 696.599 -4.613 0.00407137 0
M  V30 7337 H 694.842 -4.33738 0.0732332 0
M  V30 7338 H 695.513 -5.39395 -1.17292 0
M  V30 7339 H 697.989 -3.65139 -1.99532 0
M  V30 7340 H 696.865 -4.58798 -3.01323 0
M  V30 7341 H 697.126 -2.88403 -3.35076 0
M  V30 7342 N 696.185 0.383891 -1.52853 0
M  V30 7343 C 697.601 0.724316 -1.42218 0
M  V30 7344 C 697.801 1.93943 -0.546654 0
M  V30 7345 O 696.857 2.5249 -0.0220562 0
M  V30 7346 C 698.17 0.954635 -2.85144 0
M  V30 7347 C 699.718 1.05579 -2.94656 0
M  V30 7348 C 700.193 1.3187 -4.38605 0
M  V30 7349 N 701.684 1.38681 -4.41952 0
M  V30 7350 C 702.419 1.60699 -5.50421 0
M  V30 7351 N 701.915 1.80154 -6.68967 0
M  V30 7352 N 703.708 1.6292 -5.37972 0
M  V30 7353 H 695.859 -0.4156 -2.08294 0
M  V30 7354 H 698.122 -0.123776 -0.939885 0
M  V30 7355 H 697.828 0.133829 -3.51445 0
M  V30 7356 H 697.702 1.86788 -3.27704 0
M  V30 7357 H 700.089 1.86716 -2.2852 0
M  V30 7358 H 700.17 0.120338 -2.55517 0
M  V30 7359 H 699.814 0.512416 -5.05309 0
M  V30 7360 H 699.744 2.26708 -4.75301 0
M  V30 7361 H 702.235 1.25334 -3.56511 0
M  V30 7362 H 702.548 1.96476 -7.47407 0
M  V30 7363 H 700.893 1.77368 -6.71986 0
M  V30 7364 H 704.084 1.47276 -4.44328 0
M  V30 7365 H 704.257 1.79739 -6.22574 0
M  V30 7366 N 697.663 1.43903 0.642637 0
M  V30 7367 C 699.074 1.40975 1.22404 0
M  V30 7368 C 699.425 0.1192 1.95838 0
M  V30 7369 O 698.55 -0.780939 2.01818 0
M  V30 7370 C 699.145 2.5538 2.22636 0
M  V30 7371 C 697.704 2.55684 2.76229 0
M  V30 7372 C 696.851 2.32556 1.51039 0
M  V30 7373 H 699.802 1.5265 0.434006 0
M  V30 7374 H 699.823 2.27474 3.05017 0
M  V30 7375 H 699.335 3.49294 1.69161 0
M  V30 7376 H 697.436 1.65679 3.33738 0
M  V30 7377 H 697.549 3.53799 3.23053 0
M  V30 7378 H 695.913 1.81427 1.78764 0
M  V30 7379 H 696.696 3.28569 0.99484 0
M  V30 7380 N 699.141 -0.881989 1.30609 0
M  V30 7381 C 700.381 -1.64817 1.20891 0
M  V30 7382 C 700.745 -1.90593 -0.232043 0
M  V30 7383 O 701.946 -2.64964 -0.452516 0
M  V30 7384 C 700.217 -2.95006 2.01758 0
M  V30 7385 S 701.776 -3.85953 2.08771 0
M  V30 7386 H 698.594 -0.565651 0.430767 0
M  V30 7387 H 701.196 -1.04665 1.65122 0
M  V30 7388 H 699.9 -2.73973 3.0556 0
M  V30 7389 H 699.431 -3.60189 1.582 0
M  V30 7390 H 701.446 -4.81037 1.21727 0
M  V30 7391 N 700.619 -1.13374 -1.09472 0
M  V30 7392 C 701.566 -0.810682 -2.16094 0
M  V30 7393 C 702.536 0.227003 -1.64541 0
M  V30 7394 O 703.721 0.0993538 -1.90541 0
M  V30 7395 C 700.861 -0.282336 -3.43943 0
M  V30 7396 C 699.974 -1.37902 -4.09398 0
M  V30 7397 C 699.109 -0.809066 -5.25002 0
M  V30 7398 C 698.148 -1.88419 -5.82379 0
M  V30 7399 N 697.285 -1.33221 -6.89345 0
M  V30 7400 H 702.125 -1.72397 -2.43071 0
M  V30 7401 H 699.662 -0.860564 -1.19301 0
M  V30 7402 H 701.62 0.0421189 -4.17179 0
M  V30 7403 H 700.25 0.594083 -3.17286 0
M  V30 7404 H 699.302 -1.82008 -3.34032 0
M  V30 7405 H 700.614 -2.19161 -4.48074 0
M  V30 7406 H 699.768 -0.435867 -6.05132 0
M  V30 7407 H 698.507 0.0346058 -4.87688 0
M  V30 7408 H 697.512 -2.26646 -5.00911 0
M  V30 7409 H 698.737 -2.73125 -6.21755 0
M  V30 7410 H 696.683 -0.510535 -6.5401 0
M  V30 7411 H 696.6 -2.08129 -7.26786 0
M  V30 7412 H 697.868 -0.986565 -7.73232 0
M  V30 7413 N 702.098 1.27442 -0.927168 0
M  V30 7414 C 703.031 2.25177 -0.370232 0
M  V30 7415 C 704.009 1.53612 0.533103 0
M  V30 7416 O 705.193 1.8245 0.47373 0
M  V30 7417 C 702.32 3.35431 0.469411 0
M  V30 7418 C 701.366 4.24888 -0.370419 0
M  V30 7419 S 702.199 5.04852 -1.78562 0
M  V30 7420 C 703.355 6.18592 -0.953651 0
M  V30 7421 H 703.588 2.72069 -1.19858 0
M  V30 7422 H 701.121 1.36089 -0.729316 0
M  V30 7423 H 703.079 3.99404 0.947992 0
M  V30 7424 H 701.74 2.87179 1.27228 0
M  V30 7425 H 700.933 5.03264 0.272226 0
M  V30 7426 H 700.535 3.65709 -0.783153 0
M  V30 7427 H 702.827 6.77235 -0.189408 0
M  V30 7428 H 703.77 6.87132 -1.7104 0
M  V30 7429 H 704.178 5.62318 -0.495897 0
M  V30 7430 N 703.576 0.692616 1.41565 0
M  V30 7431 C 704.824 0.221896 2.00878 0
M  V30 7432 C 705.145 -1.18164 1.5512 0
M  V30 7433 O 704.415 -1.79679 0.78054 0
M  V30 7434 H 702.995 0.0790463 0.742806 0
M  V30 7435 H 705.657 0.893115 1.73232 0
M  V30 7436 H 704.753 0.23702 3.11199 0
M  V30 7437 N 705.054 -1.51416 0.437162 0
M  V30 7438 C 705.984 -2.30631 -0.364922 0
M  V30 7439 C 706.965 -1.36037 -1.02118 0
M  V30 7440 O 708.15 -1.64956 -1.02485 0
M  V30 7441 C 705.28 -3.1482 -1.46648 0
M  V30 7442 C 704.234 -4.17691 -0.933717 0
M  V30 7443 C 703.56 -4.904 -2.13101 0
M  V30 7444 C 704.86 -5.2229 0.0317201 0
M  V30 7445 H 706.554 -2.97932 0.29614 0
M  V30 7446 H 704.1 -1.4328 0.143865 0
M  V30 7447 H 706.053 -3.69017 -2.03481 0
M  V30 7448 H 704.777 -2.4534 -2.15583 0
M  V30 7449 H 703.436 -3.64545 -0.387602 0
M  V30 7450 H 703.084 -4.17423 -2.80654 0
M  V30 7451 H 702.784 -5.59962 -1.78092 0
M  V30 7452 H 704.308 -5.4742 -2.70487 0
M  V30 7453 H 705.722 -5.7156 -0.446302 0
M  V30 7454 H 704.119 -5.99378 0.29437 0
M  V30 7455 H 705.189 -4.75131 0.968447 0
M  V30 7456 N 706.532 -0.168513 -1.56696 0
M  V30 7457 C 707.772 0.479648 -1.98693 0
M  V30 7458 C 708.136 1.60609 -1.05209 0
M  V30 7459 O 709.337 2.3166 -1.36334 0
M  V30 7460 C 707.608 0.952852 -3.44464 0
M  V30 7461 S 709.167 1.60259 -4.08488 0
M  V30 7462 H 705.985 0.154377 -0.694038 0
M  V30 7463 H 708.587 -0.265312 -1.93691 0
M  V30 7464 H 707.291 0.12257 -4.10217 0
M  V30 7465 H 706.822 1.73192 -3.53225 0
M  V30 7466 H 708.837 2.89065 -4.03307 0
M  V30 7467 N 708.01 1.57248 0.105221 0
M  V30 7468 C 708.942 1.98008 1.15436 0
M  V30 7469 C 709.955 0.881236 1.36887 0
M  V30 7470 O 711.144 1.15943 1.35718 0
M  V30 7471 C 708.244 2.27509 2.51183 0
M  V30 7472 C 707.417 3.58811 2.50147 0
M  V30 7473 C 706.476 3.76365 3.67745 0
M  V30 7474 O 705.502 4.48329 3.50699 0
M  V30 7475 N 706.704 3.16174 4.86841 0
M  V30 7476 H 709.469 2.88616 0.807519 0
M  V30 7477 H 707.03 1.59202 0.29433 0
M  V30 7478 H 709.022 2.36455 3.28438 0
M  V30 7479 H 707.592 1.42959 2.77995 0
M  V30 7480 H 706.812 3.60927 1.5851 0
M  V30 7481 H 708.1 4.45088 2.46524 0
M  V30 7482 H 707.498 2.57701 5.03594 0
M  V30 7483 H 706.055 3.30621 5.61723 0
M  V30 7484 N 709.488 -0.375779 1.53054 0
M  V30 7485 C 710.438 -1.45965 1.75152 0
M  V30 7486 C 711.422 -1.49059 0.605823 0
M  V30 7487 O 712.614 -1.54472 0.864133 0
M  V30 7488 C 709.743 -2.83524 1.93569 0
M  V30 7489 C 708.829 -2.84949 3.1411 0
M  V30 7490 N 709.22 -2.56029 4.36214 0
M  V30 7491 C 707.518 -3.16113 3.14625 0
M  V30 7492 C 708.219 -2.64873 5.17897 0
M  V30 7493 N 707.195 -2.99159 4.53878 0
M  V30 7494 H 710.997 -1.22454 2.67175 0
M  V30 7495 H 708.511 -0.583867 1.51541 0
M  V30 7496 H 710.508 -3.61578 2.07525 0
M  V30 7497 H 709.168 -3.08008 1.02768 0
M  V30 7498 H 710.179 -2.29808 4.64121 0
M  V30 7499 H 706.856 -3.45977 2.3368 0
M  V30 7500 H 708.246 -2.45947 6.25268 0
M  V30 7501 N 710.966 -1.44241 -0.634997 0
M  V30 7502 C 711.916 -1.47247 -1.74076 0
M  V30 7503 C 712.9 -0.338708 -1.57295 0
M  V30 7504 O 714.092 -0.583751 -1.67097 0
M  V30 7505 C 711.221 -1.41579 -3.12746 0
M  V30 7506 C 710.307 -2.60055 -3.35011 0
M  V30 7507 N 710.698 -3.85321 -3.27661 0
M  V30 7508 C 708.996 -2.55168 -3.65794 0
M  V30 7509 C 709.697 -4.64241 -3.50508 0
M  V30 7510 N 708.673 -3.95254 -3.73196 0
M  V30 7511 H 712.475 -2.4195 -1.66845 0
M  V30 7512 H 709.989 -1.3915 -0.837326 0
M  V30 7513 H 711.986 -1.41816 -3.92038 0
M  V30 7514 H 710.646 -0.479108 -3.21146 0
M  V30 7515 H 711.657 -4.17345 -3.06665 0
M  V30 7516 H 708.334 -1.70276 -3.81198 0
M  V30 7517 H 709.724 -5.73267 -3.50449 0
M  V30 7518 N 712.444 0.87505 -1.31075 0
M  V30 7519 C 713.394 1.96933 -1.14898 0
M  V30 7520 C 714.378 1.60783 -0.0613703 0
M  V30 7521 O 715.57 1.74678 -0.285751 0
M  V30 7522 C 712.699 3.3253 -0.853166 0
M  V30 7523 C 711.785 3.74963 -1.98151 0
M  V30 7524 N 712.176 3.89403 -3.22799 0
M  V30 7525 C 710.474 4.04436 -1.8801 0
M  V30 7526 C 711.175 4.25563 -3.96574 0
M  V30 7527 N 710.151 4.3597 -3.24701 0
M  V30 7528 H 713.953 2.06201 -2.09424 0
M  V30 7529 H 711.467 1.06551 -1.22558 0
M  V30 7530 H 713.464 4.10666 -0.718266 0
M  V30 7531 H 712.124 3.24592 0.0839218 0
M  V30 7532 H 713.135 3.74266 -3.57974 0
M  V30 7533 H 709.812 4.04915 -1.01733 0
M  V30 7534 H 711.202 4.44375 -5.03965 0
M  V30 7535 N 713.922 1.13953 1.08869 0
M  V30 7536 C 715.147 0.928559 1.85452 0
M  V30 7537 C 715.572 -0.517642 1.80837 0
M  V30 7538 O 714.93 -1.36779 1.19001 0
M  V30 7539 C 714.978 1.42814 3.31114 0
M  V30 7540 O 714.082 0.617129 4.07756 0
M  V30 7541 H 713.423 0.33235 0.574839 0
M  V30 7542 H 715.953 1.5156 1.37443 0
M  V30 7543 H 715.963 1.43425 3.8196 0
M  V30 7544 H 714.638 2.48109 3.33788 0
M  V30 7545 H 713.215 0.679365 3.66659 0
M  V30 7546 N 715.4 -1.26948 0.933913 0
M  V30 7547 C 716.648 -1.93704 0.576484 0
M  V30 7548 C 716.969 -1.73702 -0.886145 0
M  V30 7549 O 716.239 -1.08838 -1.62884 0
M  V30 7550 H 714.819 -0.716812 0.210214 0
M  V30 7551 H 717.481 -1.54534 1.18766 0
M  V30 7552 H 716.577 -3.01987 0.788055 0
M  V30 7553 N 716.879 -0.700114 -1.41195 0
M  V30 7554 C 717.789 -0.0382854 -2.34569 0
M  V30 7555 C 718.805 0.761036 -1.56474 0
M  V30 7556 O 719.981 0.697553 -1.88934 0
M  V30 7557 C 717.046 0.883522 -3.35253 0
M  V30 7558 C 716.107 0.0758957 -4.29233 0
M  V30 7559 C 715.34 0.9538 -5.25108 0
M  V30 7560 O 715.563 2.19326 -5.26547 0
M  V30 7561 O 714.497 0.401049 -6.00562 0
M  V30 7562 H 718.323 -0.808073 -2.92752 0
M  V30 7563 H 715.908 -0.460479 -1.42127 0
M  V30 7564 H 717.79 1.41199 -3.9704 0
M  V30 7565 H 716.465 1.63272 -2.79506 0
M  V30 7566 H 715.372 -0.497274 -3.7078 0
M  V30 7567 H 716.705 -0.634741 -4.8809 0
M  V30 7568 N 718.357 1.51182 -0.445186 0
M  V30 7569 C 719.585 2.06568 0.117091 0
M  V30 7570 C 720 1.31182 1.35781 0
M  V30 7571 O 719.357 0.373605 1.78635 0
M  V30 7572 C 719.408 3.58917 0.431408 0
M  V30 7573 O 719.129 4.31456 -0.760078 0
M  V30 7574 C 720.63 4.30843 1.0435 0
M  V30 7575 H 717.85 0.670985 0.00444436 0
M  V30 7576 H 720.394 1.94666 -0.626525 0
M  V30 7577 H 718.549 3.70708 1.12493 0
M  V30 7578 H 718.963 5.22215 -0.489048 0
M  V30 7579 H 720.437 5.38499 1.21337 0
M  V30 7580 H 720.914 3.89644 2.02667 0
M  V30 7581 H 721.52 4.23516 0.38913 0
M  V30 7582 N 719.835 0.176821 1.56605 0
M  V30 7583 C 720.782 -0.751312 2.18229 0
M  V30 7584 C 721.752 -1.22297 1.12395 0
M  V30 7585 O 722.937 -1.29015 1.40569 0
M  V30 7586 C 720.077 -1.97291 2.83143 0
M  V30 7587 C 719.19 -1.54431 4.03454 0
M  V30 7588 C 718.325 -2.72 4.56278 0
M  V30 7589 C 717.364 -2.25657 5.68986 0
M  V30 7590 N 716.501 -3.36338 6.16296 0
M  V30 7591 H 721.341 -0.219033 2.97194 0
M  V30 7592 H 718.878 -0.0963803 1.46784 0
M  V30 7593 H 720.836 -2.68949 3.1894 0
M  V30 7594 H 719.466 -2.4788 2.06773 0
M  V30 7595 H 718.518 -0.724273 3.73441 0
M  V30 7596 H 719.83 -1.16417 4.85024 0
M  V30 7597 H 718.984 -3.51806 4.94285 0
M  V30 7598 H 717.723 -3.13277 3.73777 0
M  V30 7599 H 716.728 -1.44299 5.30526 0
M  V30 7600 H 717.953 -1.85432 6.53293 0
M  V30 7601 H 715.899 -3.7718 5.36723 0
M  V30 7602 H 715.816 -3.02435 6.9287 0
M  V30 7603 H 717.084 -4.16413 6.58954 0
M  V30 7604 N 721.313 -1.57302 -0.09688 0
M  V30 7605 C 722.559 -1.86273 -0.801885 0
M  V30 7606 C 722.892 -0.765694 -1.78468 0
M  V30 7607 O 722.167 0.226495 -1.93177 0
M  V30 7608 C 722.45 -3.25876 -1.53221 0
M  V30 7609 C 722.303 -4.46205 -0.567529 0
M  V30 7610 C 723.622 -3.63352 -2.48321 0
M  V30 7611 H 720.741 -0.67752 -0.29006 0
M  V30 7612 H 723.383 -1.89887 -0.0655577 0
M  V30 7613 H 721.533 -3.22926 -2.15988 0
M  V30 7614 H 723.205 -4.6127 0.0529982 0
M  V30 7615 H 721.448 -4.33636 0.119233 0
M  V30 7616 H 722.119 -5.40608 -1.11564 0
M  V30 7617 H 724.595 -3.67234 -1.95648 0
M  V30 7618 H 723.471 -4.61968 -2.9644 0
M  V30 7619 H 723.732 -2.91941 -3.31998 0
M  V30 7620 N 722.791 0.367657 -1.53252 0
M  V30 7621 C 724.037 1.11216 -1.69584 0
M  V30 7622 C 724.37 1.89026 -0.445269 0
M  V30 7623 O 723.645 1.86342 0.557404 0
M  V30 7624 C 723.928 2.07308 -2.94441 0
M  V30 7625 C 723.781 1.3312 -4.2965 0
M  V30 7626 C 725.1 3.07459 -3.14892 0
M  V30 7627 H 722.219 0.40294 -0.617096 0
M  V30 7628 H 724.861 0.393201 -1.85887 0
M  V30 7629 H 723.011 2.68617 -2.80673 0
M  V30 7630 H 724.683 0.746111 -4.55226 0
M  V30 7631 H 722.926 0.633051 -4.29156 0
M  V30 7632 H 723.597 2.03443 -5.13142 0
M  V30 7633 H 726.073 2.56252 -3.27832 0
M  V30 7634 H 724.949 3.71919 -4.03693 0
M  V30 7635 H 725.21 3.77514 -2.30077 0
M  V30 7636 N 724.269 1.44576 0.627338 0
M  V30 7637 C 725.494 1.51271 1.41887 0
M  V30 7638 C 725.919 0.139814 1.8758 0
M  V30 7639 O 725.277 -0.871746 1.58966 0
M  V30 7640 C 725.325 2.48529 2.61277 0
M  V30 7641 O 724.429 1.98944 3.61241 0
M  V30 7642 H 723.77 0.510668 0.424399 0
M  V30 7643 H 726.3 1.89746 0.765356 0
M  V30 7644 H 726.31 2.66689 3.08773 0
M  V30 7645 H 724.985 3.48249 2.27366 0
M  V30 7646 H 723.562 1.90568 3.20528 0
M  V30 7647 N 725.747 -0.868086 1.31537 0
M  V30 7648 C 726.697 -1.96321 1.1594 0
M  V30 7649 C 727.681 -1.60748 0.0698962 0
M  V30 7650 O 728.873 -1.74524 0.295011 0
M  V30 7651 C 726.002 -3.32073 0.870789 0
M  V30 7652 C 725.088 -3.73907 2.00136 0
M  V30 7653 N 725.479 -3.87685 3.24859 0
M  V30 7654 C 723.777 -4.03433 1.90152 0
M  V30 7655 C 724.478 -4.23454 3.98825 0
M  V30 7656 N 723.454 -4.34242 3.27009 0
M  V30 7657 H 727.256 -2.05088 2.10514 0
M  V30 7658 H 724.77 -1.059 1.23122 0
M  V30 7659 H 726.767 -4.10279 0.740034 0
M  V30 7660 H 725.427 -3.24631 -0.0667068 0
M  V30 7661 H 726.438 -3.72363 3.59953 0
M  V30 7662 H 723.115 -4.0437 1.03879 0
M  V30 7663 H 724.505 -4.41696 5.06314 0
M  V30 7664 N 727.225 -1.14528 -1.08264 0
M  V30 7665 C 728.641 -0.885976 -1.3275 0
M  V30 7666 C 728.841 0.472096 -1.95892 0
M  V30 7667 O 727.897 1.21606 -2.21288 0
M  V30 7668 C 729.21 -2.01982 -2.22764 0
M  V30 7669 C 730.758 -2.05329 -2.36239 0
M  V30 7670 C 731.233 -3.1801 -3.29596 0
M  V30 7671 N 732.724 -3.17598 -3.37173 0
M  V30 7672 C 733.459 -4.01426 -4.09444 0
M  V30 7673 N 732.955 -4.95297 -4.8441 0
M  V30 7674 N 734.748 -3.89482 -4.0529 0
M  V30 7675 H 726.899 -2.01996 -0.656607 0
M  V30 7676 H 729.162 -0.880274 -0.351884 0
M  V30 7677 H 728.868 -2.99964 -1.83615 0
M  V30 7678 H 728.742 -1.94421 -3.23234 0
M  V30 7679 H 731.129 -1.07953 -2.74646 0
M  V30 7680 H 731.21 -2.1696 -1.35506 0
M  V30 7681 H 730.854 -4.15633 -2.9191 0
M  V30 7682 H 730.784 -3.03616 -4.30261 0
M  V30 7683 H 733.275 -2.4961 -2.83731 0
M  V30 7684 H 733.588 -5.55723 -5.37021 0
M  V30 7685 H 731.933 -4.99293 -4.83457 0
M  V30 7686 H 735.124 -3.15465 -3.45832 0
M  V30 7687 H 735.297 -4.55039 -4.6135 0
M  V30 7688 N 728.703 1.26451 -0.940633 0
M  V30 7689 C 729.951 1.93395 -0.586748 0
M  V30 7690 C 730.272 1.7417 0.876921 0
M  V30 7691 O 729.542 1.097 1.62304 0
M  V30 7692 H 728.122 0.715687 -0.214012 0
M  V30 7693 H 730.784 1.53902 -1.19584 0
M  V30 7694 H 729.88 3.01565 -0.804059 0
M  V30 7695 N 730.181 0.707592 1.40822 0
M  V30 7696 C 731.128 0.0499029 2.30746 0
M  V30 7697 C 732.098 -0.758718 1.47759 0
M  V30 7698 O 733.283 -0.724299 1.76518 0
M  V30 7699 C 730.423 -0.871756 3.33908 0
M  V30 7700 C 729.536 -0.0534655 4.31967 0
M  V30 7701 C 728.671 -0.973869 5.22197 0
M  V30 7702 C 727.71 -0.149194 6.11918 0
M  V30 7703 N 726.847 -1.02404 6.94592 0
M  V30 7704 H 731.687 0.822461 2.86426 0
M  V30 7705 H 729.224 0.417285 1.41057 0
M  V30 7706 H 731.182 -1.42028 3.9228 0
M  V30 7707 H 729.812 -1.61058 2.7975 0
M  V30 7708 H 728.864 0.612142 3.75442 0
M  V30 7709 H 730.176 0.585354 4.95353 0
M  V30 7710 H 729.33 -1.59121 5.85462 0
M  V30 7711 H 728.069 -1.64652 4.59065 0
M  V30 7712 H 727.074 0.481137 5.47691 0
M  V30 7713 H 728.299 0.519841 6.77107 0
M  V30 7714 H 726.245 -1.6825 6.34057 0
M  V30 7715 H 726.162 -0.441076 7.54712 0
M  V30 7716 H 727.43 -1.62782 7.62314 0
M  V30 7717 N 731.66 -1.50943 0.453197 0
M  V30 7718 C 732.888 -2.06628 -0.106135 0
M  V30 7719 C 733.303 -1.31901 -1.35084 0
M  V30 7720 O 732.66 -0.383074 -1.78434 0
M  V30 7721 C 732.711 -3.5914 -0.412368 0
M  V30 7722 O 732.432 -4.31047 0.782948 0
M  V30 7723 C 733.933 -4.31391 -1.02064 0
M  V30 7724 H 731.153 -0.670999 -0.000885896 0
M  V30 7725 H 733.697 -1.94331 0.63684 0
M  V30 7726 H 731.852 -3.71299 -1.10526 0
M  V30 7727 H 732.266 -5.21948 0.516736 0
M  V30 7728 H 733.74 -5.39135 -1.1848 0
M  V30 7729 H 734.217 -3.90714 -2.00598 0
M  V30 7730 H 734.823 -4.23716 -0.366664 0
M  V30 7731 N 733.138 -0.185124 -1.56509 0
M  V30 7732 C 734.068 0.735098 -2.21627 0
M  V30 7733 C 735.049 1.2288 -1.1762 0
M  V30 7734 O 736.234 1.27945 -1.46095 0
M  V30 7735 C 733.364 1.95889 -2.86783 0
M  V30 7736 C 732.318 1.6005 -3.96948 0
M  V30 7737 C 731.644 2.90009 -4.4922 0
M  V30 7738 C 732.944 0.818008 -5.15855 0
M  V30 7739 H 734.638 0.192274 -2.98782 0
M  V30 7740 H 732.184 0.0910393 -1.43712 0
M  V30 7741 H 734.137 2.60779 -3.31017 0
M  V30 7742 H 732.861 2.52608 -2.07018 0
M  V30 7743 H 731.52 0.975237 -3.5339 0
M  V30 7744 H 731.168 3.44797 -3.6623 0
M  V30 7745 H 730.868 2.66778 -5.23549 0
M  V30 7746 H 732.392 3.55904 -4.9615 0
M  V30 7747 H 733.806 1.36979 -5.56695 0
M  V30 7748 H 732.203 0.684207 -5.96187 0
M  V30 7749 H 733.273 -0.182939 -4.84555 0
M  V30 7750 N 734.616 1.57351 0.0885366 0
M  V30 7751 C 735.548 1.99221 1.13329 0
M  V30 7752 C 736.561 0.895705 1.35945 0
M  V30 7753 O 737.75 1.17376 1.34481 0
M  V30 7754 C 734.85 2.3016 2.48756 0
M  V30 7755 C 734.023 3.61444 2.46327 0
M  V30 7756 C 733.082 3.80244 3.63732 0
M  V30 7757 O 732.108 4.52024 3.45924 0
M  V30 7758 N 733.31 3.2132 4.8346 0
M  V30 7759 H 736.075 2.89456 0.776862 0
M  V30 7760 H 733.636 1.59505 0.277428 0
M  V30 7761 H 735.628 2.39925 3.25911 0
M  V30 7762 H 734.198 1.459 2.76464 0
M  V30 7763 H 733.418 3.62588 1.54673 0
M  V30 7764 H 734.706 4.47678 2.41789 0
M  V30 7765 H 734.104 2.63028 5.00832 0
M  V30 7766 H 732.661 3.3656 5.58185 0
M  V30 7767 N 736.094 -0.359525 1.53444 0
M  V30 7768 C 737.371 -1.11756 1.6053 0
M  V30 7769 C 737.751 -2.06949 0.416587 0
M  V30 7770 O 737.099 -2.20681 -0.592628 0
M  V30 7771 C 737.309 -1.85133 2.95849 0
M  V30 7772 C 738.657 -2.3945 3.50641 0
M  V30 7773 O 739.681 -1.95251 2.97918 0
M  V30 7774 O 738.54 -3.20266 4.42823 0
M  V30 7775 H 735.634 -0.513005 0.648656 0
M  V30 7776 H 738.18 -0.362301 1.65787 0
M  V30 7777 H 736.952 -1.15694 3.73806 0
M  V30 7778 H 736.575 -2.67554 2.9411 0
M  V30 7779 N 737.572 -1.44907 -0.619662 0
M  V30 7780 C 738.821 -1.47569 -1.37501 0
M  V30 7781 C 739.134 -0.116707 -1.95252 0
M  V30 7782 O 740.34 -0.020909 -2.71492 0
M  V30 7783 C 738.796 -2.59851 -2.49009 0
M  V30 7784 C 738.404 -4.02008 -1.97722 0
M  V30 7785 C 740.148 -2.71746 -3.2612 0
M  V30 7786 C 738.055 -5.05693 -3.0664 0
M  V30 7787 H 736.985 -0.549068 -0.51676 0
M  V30 7788 H 739.636 -1.71009 -0.665437 0
M  V30 7789 H 738.018 -2.29671 -3.22594 0
M  V30 7790 H 739.192 -4.41809 -1.30925 0
M  V30 7791 H 737.507 -3.94456 -1.33392 0
M  V30 7792 H 740.104 -3.46382 -4.07337 0
M  V30 7793 H 740.447 -1.77959 -3.76346 0
M  V30 7794 H 740.98 -3.01392 -2.5963 0
M  V30 7795 H 737.719 -6.01148 -2.61345 0
M  V30 7796 H 737.239 -4.70473 -3.72042 0
M  V30 7797 H 738.918 -5.29906 -3.71226 0
M  V30 7798 N 739.05 0.861098 -1.31996 0
M  V30 7799 C 740.461 1.43065 -1.19955 0
M  V30 7800 C 740.812 1.95273 0.190489 0
M  V30 7801 O 739.937 1.87012 1.08882 0
M  V30 7802 C 740.532 2.60052 -2.1716 0
M  V30 7803 C 739.091 3.13026 -2.09026 0
M  V30 7804 C 738.238 1.85756 -2.05888 0
M  V30 7805 H 741.189 0.668834 -1.43918 0
M  V30 7806 H 741.21 3.37016 -1.76637 0
M  V30 7807 H 740.722 2.22024 -3.18319 0
M  V30 7808 H 738.823 3.55653 -1.11092 0
M  V30 7809 H 738.936 3.74707 -2.98549 0
M  V30 7810 H 737.3 2.05088 -1.51033 0
M  V30 7811 H 738.083 1.49954 -3.08818 0
M  V30 7812 N 740.528 1.15101 1.07655 0
M  V30 7813 C 741.438 0.858869 2.18313 0
M  V30 7814 C 742.454 -0.163641 1.73229 0
M  V30 7815 O 743.63 0.00969541 2.01398 0
M  V30 7816 C 740.695 0.34893 3.4494 0
M  V30 7817 C 739.756 1.43495 4.04608 0
M  V30 7818 C 738.989 0.949253 5.2519 0
M  V30 7819 O 739.212 -0.20636 5.70027 0
M  V30 7820 O 738.146 1.73161 5.76454 0
M  V30 7821 H 741.972 1.78386 2.45788 0
M  V30 7822 H 739.557 0.929876 1.16934 0
M  V30 7823 H 741.439 0.070851 4.2134 0
M  V30 7824 H 740.114 -0.548237 3.19024 0
M  V30 7825 H 739.021 1.7666 3.29761 0
M  V30 7826 H 740.354 2.30692 4.3479 0
M  V30 7827 N 742.006 -1.2595 0.947325 0
M  V30 7828 C 743.283 -1.88676 0.515824 0
M  V30 7829 C 743.663 -1.85547 -1.00675 0
M  V30 7830 O 743.011 -1.31399 -1.8694 0
M  V30 7831 C 743.221 -3.31734 1.08415 0
M  V30 7832 C 744.569 -4.08545 1.15654 0
M  V30 7833 O 745.593 -3.40826 1.03517 0
M  V30 7834 O 744.452 -5.29663 1.34608 0
M  V30 7835 H 741.546 -0.809537 0.169055 0
M  V30 7836 H 744.092 -1.34075 1.04029 0
M  V30 7837 H 742.864 -3.28404 2.1276 0
M  V30 7838 H 742.487 -3.93882 0.542499 0
M  V30 7839 N 743.484 -0.715051 -1.40445 0
M  V30 7840 C 744.731 -0.254328 -2.00897 0
M  V30 7841 C 745.059 1.15228 -1.56693 0
M  V30 7842 O 744.314 1.7958 -0.777786 0
M  V30 7843 C 744.613 -0.281791 -3.56287 0
M  V30 7844 C 744.279 -1.63862 -4.20071 0
M  V30 7845 C 742.941 -2.01003 -4.37208 0
M  V30 7846 C 745.293 -2.53039 -4.55654 0
M  V30 7847 C 742.621 -3.26869 -4.8721 0
M  V30 7848 C 744.973 -3.78256 -5.07055 0
M  V30 7849 C 743.637 -4.15515 -5.22401 0
M  V30 7850 H 742.907 -0.0930652 -0.735133 0
M  V30 7851 H 745.554 -0.917977 -1.68064 0
M  V30 7852 H 743.859 0.465428 -3.89026 0
M  V30 7853 H 745.556 0.0925158 -4.00893 0
M  V30 7854 H 742.146 -1.33979 -4.07121 0
M  V30 7855 H 746.33 -2.2562 -4.42051 0
M  V30 7856 H 741.586 -3.55706 -4.97276 0
M  V30 7857 H 745.76 -4.47528 -5.33565 0
M  V30 7858 H 743.387 -5.13114 -5.60909 0
M  V30 7859 N 744.962 1.50701 -0.461195 0
M  V30 7860 C 745.892 2.31182 0.328184 0
M  V30 7861 C 746.873 1.37644 0.999408 0
M  V30 7862 O 748.058 1.66565 0.99848 0
M  V30 7863 C 745.188 3.17113 1.41621 0
M  V30 7864 C 744.142 4.19124 0.867148 0
M  V30 7865 C 743.468 4.93728 2.05272 0
M  V30 7866 C 744.768 5.22174 -0.114808 0
M  V30 7867 H 746.462 2.97423 -0.343501 0
M  V30 7868 H 744.008 1.43033 -0.166641 0
M  V30 7869 H 745.961 3.72208 1.97584 0
M  V30 7870 H 744.685 2.48739 2.11652 0
M  V30 7871 H 743.344 3.65116 0.329557 0
M  V30 7872 H 742.992 4.21835 2.73978 0
M  V30 7873 H 742.692 5.62724 1.69161 0
M  V30 7874 H 744.216 5.51654 2.61744 0
M  V30 7875 H 745.63 5.72198 0.355316 0
M  V30 7876 H 744.027 5.98833 -0.389689 0
M  V30 7877 H 745.097 4.7353 -1.04391 0
M  V30 7878 N 746.441 0.193421 1.56409 0
M  V30 7879 C 747.351 -0.740112 2.2262 0
M  V30 7880 C 748.367 -1.23597 1.22474 0
M  V30 7881 O 749.543 -1.28348 1.55206 0
M  V30 7882 C 746.608 -1.94317 2.87127 0
M  V30 7883 C 745.669 -1.49205 4.02538 0
M  V30 7884 C 744.902 -2.63776 4.63959 0
M  V30 7885 O 745.125 -3.81215 4.24301 0
M  V30 7886 O 744.059 -2.36585 5.53454 0
M  V30 7887 H 747.885 -0.206238 3.02999 0
M  V30 7888 H 745.47 -0.0357938 1.49357 0
M  V30 7889 H 747.352 -2.64633 3.27944 0
M  V30 7890 H 746.027 -2.46568 2.09728 0
M  V30 7891 H 744.934 -0.757738 3.66346 0
M  V30 7892 H 746.267 -1.01622 4.81595 0
M  V30 7893 N 747.919 -1.57396 -0.0801906 0
M  V30 7894 C 748.852 -1.98386 -1.12774 0
M  V30 7895 C 749.83 -0.859423 -1.38031 0
M  V30 7896 O 751.014 -1.12101 -1.51544 0
M  V30 7897 C 748.141 -2.3134 -2.47386 0
M  V30 7898 C 747.187 -3.53706 -2.38316 0
M  V30 7899 S 748.02 -5.04862 -1.78534 0
M  V30 7900 C 749.176 -5.41008 -3.1474 0
M  V30 7901 H 749.409 -2.86929 -0.778382 0
M  V30 7902 H 746.942 -1.51682 -0.28842 0
M  V30 7903 H 748.9 -2.51 -3.24822 0
M  V30 7904 H 747.561 -1.4334 -2.79486 0
M  V30 7905 H 746.754 -3.74253 -3.37566 0
M  V30 7906 H 746.356 -3.33632 -1.69014 0
M  V30 7907 H 748.648 -5.38565 -4.1104 0
M  V30 7908 H 749.591 -6.41885 -2.98981 0
M  V30 7909 H 749.999 -4.68467 -3.14958 0
M  V30 7910 N 749.397 0.351382 -1.53633 0
M  V30 7911 C 750.674 1.10903 -1.6112 0
M  V30 7912 C 751.054 2.06725 -0.427556 0
M  V30 7913 O 750.402 2.20992 0.580916 0
M  V30 7914 C 750.612 1.83561 -2.96827 0
M  V30 7915 C 751.96 2.37587 -3.51906 0
M  V30 7916 O 752.984 1.93669 -2.9895 0
M  V30 7917 O 751.843 3.17913 -4.44515 0
M  V30 7918 H 748.937 0.509558 -0.651368 0
M  V30 7919 H 751.483 0.353504 -1.65977 0
M  V30 7920 H 750.255 1.1371 -3.74414 0
M  V30 7921 H 749.878 2.6599 -2.95525 0
M  V30 7922 N 750.875 1.45233 0.611969 0
M  V30 7923 C 751.805 1.5641 1.73373 0
M  V30 7924 C 752.786 0.415896 1.64937 0
M  V30 7925 O 753.971 0.638478 1.83404 0
M  V30 7926 C 751.101 1.52627 3.11965 0
M  V30 7927 C 750.055 2.66119 3.35208 0
M  V30 7928 C 749.381 2.4739 4.74028 0
M  V30 7929 C 750.681 4.08157 3.25891 0
M  V30 7930 H 752.375 2.50307 1.64277 0
M  V30 7931 H 749.921 1.20467 0.788904 0
M  V30 7932 H 751.874 1.59043 3.90235 0
M  V30 7933 H 750.598 0.552564 3.21892 0
M  V30 7934 H 749.257 2.59123 2.59327 0
M  V30 7935 H 748.905 1.48168 4.80682 0
M  V30 7936 H 748.605 3.23494 4.90536 0
M  V30 7937 H 750.129 2.55653 5.54503 0
M  V30 7938 H 751.543 4.1642 3.9404 0
M  V30 7939 H 749.94 4.84617 3.5393 0
M  V30 7940 H 751.01 4.30374 2.23397 0
M  V30 7941 N 752.353 -0.854086 1.3245 0
M  V30 7942 C 753.316 -1.94427 1.21371 0
M  V30 7943 C 754.316 -1.60219 0.136613 0
M  V30 7944 O 755.506 -1.69846 0.387057 0
M  V30 7945 C 752.638 -3.29698 0.866701 0
M  V30 7946 H 753.831 -2.05679 2.18257 0
M  V30 7947 H 751.384 -1.04434 1.1629 0
M  V30 7948 H 752.119 -3.24145 -0.100319 0
M  V30 7949 H 751.904 -3.55903 1.64545 0
M  V30 7950 H 753.394 -4.09599 0.813515 0
M  V30 7951 N 753.831 -1.1567 -1.07043 0
M  V30 7952 C 754.778 -0.856336 -2.14326 0
M  V30 7953 C 755.748 0.192051 -1.64986 0
M  V30 7954 O 756.933 0.0589148 -1.90709 0
M  V30 7955 C 754.073 -0.355227 -3.43267 0
M  V30 7956 C 753.186 -1.46555 -4.06381 0
M  V30 7957 C 752.321 -0.920245 -5.23168 0
M  V30 7958 C 751.36 -2.00729 -5.78251 0
M  V30 7959 N 750.497 -1.47813 -6.86364 0
M  V30 7960 H 755.337 -1.77514 -2.39359 0
M  V30 7961 H 752.874 -0.885676 -1.17449 0
M  V30 7962 H 754.832 -0.0463804 -4.17174 0
M  V30 7963 H 753.462 0.526649 -3.18475 0
M  V30 7964 H 752.514 -1.89052 -3.30096 0
M  V30 7965 H 753.826 -2.28616 -4.43324 0
M  V30 7966 H 752.98 -0.564127 -6.04072 0
M  V30 7967 H 751.719 -0.0688477 -4.87651 0
M  V30 7968 H 750.724 -2.3722 -4.95991 0
M  V30 7969 H 751.949 -2.86252 -6.15822 0
M  V30 7970 H 749.895 -0.649145 -6.5278 0
M  V30 7971 H 749.812 -2.23498 -7.22208 0
M  V30 7972 H 751.08 -1.15036 -7.70965 0
M  V30 7973 N 755.309 1.25446 -0.953992 0
M  V30 7974 C 756.257 2.27909 -0.46478 0
M  V30 7975 C 757.251 1.62904 0.464607 0
M  V30 7976 O 758.457 1.76733 0.341407 0
M  V30 7977 H 754.832 0.74036 -0.131798 0
M  V30 7978 H 756.803 2.66559 -1.34122 0
M  V30 7979 C 755.552 3.46853 0.242589 0
M  V30 7980 H 754.875 3.97105 -0.463418 0
M  V30 7981 H 756.315 4.20432 0.548919 0
M  V30 7982 C 754.774 3.03386 1.46487 0
M  V30 7983 O 755.304 3.09342 2.56262 0
M  V30 7984 N 753.51 2.58584 1.32599 0
M  V30 7985 H 753.057 2.53938 0.432834 0
M  V30 7986 H 753.015 2.29866 2.14497 0
M  V30 7987 N 756.787 0.722489 1.40064 0
M  V30 7988 C 757.697 0.0755984 2.34478 0
M  V30 7989 C 758.713 -0.736046 1.57665 0
M  V30 7990 O 759.889 -0.667407 1.9002 0
M  V30 7991 C 756.954 -0.830075 3.36616 0
M  V30 7992 C 756.015 -0.00759884 4.29299 0
M  V30 7993 C 755.248 -0.870139 5.26559 0
M  V30 7994 O 755.471 -2.10921 5.2997 0
M  V30 7995 O 754.405 -0.305454 6.01124 0
M  V30 7996 H 758.231 0.854545 2.9143 0
M  V30 7997 H 755.816 0.483032 1.41376 0
M  V30 7998 H 757.698 -1.34864 3.99236 0
M  V30 7999 H 756.373 -1.58805 2.82069 0
M  V30 8000 H 755.28 0.556199 3.69942 0
M  V30 8001 H 756.613 0.712312 4.87018 0
M  V30 8002 N 758.265 -1.50454 0.469181 0
M  V30 8003 C 759.215 -2.25381 -0.344582 0
M  V30 8004 C 760.199 -1.28892 -0.963098 0
M  V30 8005 O 761.391 -1.53805 -0.875964 0
M  V30 8006 C 758.52 -3.12232 -1.4271 0
M  V30 8007 C 757.606 -4.16168 -0.816411 0
M  V30 8008 N 757.997 -5.05762 0.0621424 0
M  V30 8009 C 756.295 -4.32712 -1.08056 0
M  V30 8010 C 756.996 -5.80264 0.408519 0
M  V30 8011 N 755.972 -5.43171 -0.215827 0
M  V30 8012 H 759.774 -2.92016 0.332237 0
M  V30 8013 H 757.288 -1.59911 0.283209 0
M  V30 8014 H 759.285 -3.64514 -2.02324 0
M  V30 8015 H 757.945 -2.47145 -2.10593 0
M  V30 8016 H 758.956 -5.16105 0.430841 0
M  V30 8017 H 755.633 -3.78844 -1.75452 0
M  V30 8018 H 757.023 -6.62408 1.12539 0
M  V30 8019 N 759.743 -0.201713 -1.56304 0
M  V30 8020 C 761.159 0.154025 -1.58855 0
M  V30 8021 C 761.359 1.60516 -1.21807 0
M  V30 8022 O 760.415 2.34193 -0.94393 0
M  V30 8023 C 761.728 -0.154319 -3.00304 0
M  V30 8024 C 763.276 -0.0949578 -3.12856 0
M  V30 8025 C 763.751 -0.376703 -4.56448 0
M  V30 8026 N 765.242 -0.325558 -4.62054 0
M  V30 8027 C 765.977 -0.51732 -5.71062 0
M  V30 8028 N 765.473 -0.769789 -6.8851 0
M  V30 8029 N 767.266 -0.45112 -5.60287 0
M  V30 8030 H 759.417 -1.14858 -1.78666 0
M  V30 8031 H 761.68 -0.458934 -0.829508 0
M  V30 8032 H 761.386 -1.16074 -3.31994 0
M  V30 8033 H 761.26 0.540014 -3.73314 0
M  V30 8034 H 763.647 0.902075 -2.80974 0
M  V30 8035 H 763.728 -0.822468 -2.42217 0
M  V30 8036 H 763.372 -1.37108 -4.89044 0
M  V30 8037 H 763.302 0.371772 -5.25286 0
M  V30 8038 H 765.793 -0.137308 -3.7765 0
M  V30 8039 H 766.106 -0.904744 -7.67486 0
M  V30 8040 H 764.451 -0.806758 -6.90302 0
M  V30 8041 H 767.642 -0.254253 -4.67409 0
M  V30 8042 H 767.815 -0.603982 -6.45179 0
M  V30 8043 N 761.222 1.57436 0.0718424 0
M  V30 8044 C 762.468 1.87525 0.772149 0
M  V30 8045 C 762.801 0.79399 1.77227 0
M  V30 8046 O 762.076 -0.195733 1.93513 0
M  V30 8047 C 762.359 3.28272 1.48018 0
M  V30 8048 C 762.212 4.47052 0.49647 0
M  V30 8049 C 763.531 3.67256 2.42509 0
M  V30 8050 H 760.65 0.682049 0.279245 0
M  V30 8051 H 763.292 1.89967 0.03534 0
M  V30 8052 H 761.442 3.26321 2.10824 0
M  V30 8053 H 763.114 4.61127 -0.126375 0
M  V30 8054 H 761.357 4.33392 -0.188205 0
M  V30 8055 H 762.028 5.42315 1.02949 0
M  V30 8056 H 764.504 3.70301 1.89781 0
M  V30 8057 H 763.38 4.66626 2.89053 0
M  V30 8058 H 763.641 2.97186 3.27312 0
M  V30 8059 N 762.7 -0.34323 1.53817 0
M  V30 8060 C 763.65 -1.42217 1.78208 0
M  V30 8061 C 764.634 -1.4774 0.637304 0
M  V30 8062 O 765.826 -1.52605 0.896705 0
M  V30 8063 C 762.955 -2.79354 1.9954 0
M  V30 8064 C 762.041 -2.78222 3.20084 0
M  V30 8065 N 762.432 -2.46719 4.41547 0
M  V30 8066 C 760.73 -3.09368 3.21259 0
M  V30 8067 C 761.431 -2.53828 5.23399 0
M  V30 8068 N 760.407 -2.89464 4.60121 0
M  V30 8069 H 764.209 -1.16759 2.69712 0
M  V30 8070 H 761.723 -0.551592 1.52746 0
M  V30 8071 H 763.72 -3.57095 2.15148 0
M  V30 8072 H 762.38 -3.05759 1.09278 0
M  V30 8073 H 763.391 -2.19912 4.68891 0
M  V30 8074 H 760.068 -3.40942 2.40966 0
M  V30 8075 H 761.458 -2.32629 6.30344 0
M  V30 8076 N 764.178 -1.45556 -0.604258 0
M  V30 8077 C 765.424 -1.49968 -1.36519 0
M  V30 8078 C 765.757 -0.142236 -1.93678 0
M  V30 8079 O 765.032 0.843717 -1.75247 0
M  V30 8080 C 765.315 -2.58146 -2.51063 0
M  V30 8081 C 765.168 -4.03346 -1.99078 0
M  V30 8082 C 766.487 -2.62581 -3.53184 0
M  V30 8083 H 763.606 -0.545993 -0.495036 0
M  V30 8084 H 766.248 -1.77382 -0.680845 0
M  V30 8085 H 764.398 -2.34901 -3.09441 0
M  V30 8086 H 766.07 -4.37811 -1.45323 0
M  V30 8087 H 764.313 -4.13845 -1.30055 0
M  V30 8088 H 764.984 -4.74731 -2.81664 0
M  V30 8089 H 767.46 -2.83419 -3.04652 0
M  V30 8090 H 766.336 -3.40131 -4.30816 0
M  V30 8091 H 766.597 -1.67798 -4.09019 0
M  V30 8092 N 765.656 0.84705 -1.32902 0
M  V30 8093 C 766.588 1.96308 -1.18304 0
M  V30 8094 C 767.601 1.62386 -0.116082 0
M  V30 8095 O 768.79 1.74713 -0.365751 0
M  V30 8096 C 765.89 3.29556 -0.790305 0
M  V30 8097 C 765.063 3.91668 -1.94717 0
M  V30 8098 C 764.122 5.0326 -1.53674 0
M  V30 8099 O 763.148 5.22847 -2.24989 0
M  V30 8100 N 764.35 5.78852 -0.437075 0
M  V30 8101 H 767.115 2.09369 -2.14441 0
M  V30 8102 H 764.676 1.02233 -1.25539 0
M  V30 8103 H 766.668 4.01624 -0.49799 0
M  V30 8104 H 765.238 3.12497 0.0801286 0
M  V30 8105 H 764.458 3.12292 -2.40557 0
M  V30 8106 H 765.746 4.299 -2.72146 0
M  V30 8107 H 765.144 5.65484 0.156316 0
M  V30 8108 H 763.701 6.51479 -0.204399 0
M  V30 8109 N 767.134 1.16236 1.06428 0
M  V30 8110 C 768.067 0.81119 2.13295 0
M  V30 8111 C 769.045 -0.216555 1.61151 0
M  V30 8112 O 770.229 -0.100949 1.88229 0
M  V30 8113 C 767.356 0.207901 3.38061 0
M  V30 8114 C 766.402 1.20904 4.09004 0
M  V30 8115 S 767.235 2.75513 4.59187 0
M  V30 8116 C 768.391 2.1663 5.87216 0
M  V30 8117 H 768.624 1.71632 2.42755 0
M  V30 8118 H 766.157 0.985693 1.18842 0
M  V30 8119 H 768.115 -0.133715 4.10282 0
M  V30 8120 H 766.776 -0.67497 3.06762 0
M  V30 8121 H 765.969 0.735326 4.98607 0
M  V30 8122 H 765.571 1.49567 3.42791 0
M  V30 8123 H 767.863 1.53413 6.59902 0
M  V30 8124 H 768.806 3.04437 6.39315 0
M  V30 8125 H 769.214 1.60565 5.41183 0
M  V30 8126 N 768.612 -1.24939 0.960631 0
M  V30 8127 C 769.522 -2.29374 0.492435 0
M  V30 8128 C 770.538 -1.68262 -0.443154 0
M  V30 8129 O 771.714 -1.98875 -0.31793 0
M  V30 8130 C 768.779 -3.46023 -0.216626 0
M  V30 8131 C 767.84 -4.22557 0.757915 0
M  V30 8132 C 767.073 -5.33636 0.0825969 0
M  V30 8133 O 767.296 -5.59084 -1.13054 0
M  V30 8134 O 766.23 -5.96939 0.771177 0
M  V30 8135 H 770.056 -2.71525 1.36044 0
M  V30 8136 H 767.641 -1.30499 0.72735 0
M  V30 8137 H 769.523 -4.16885 -0.615241 0
M  V30 8138 H 768.198 -3.05862 -1.05971 0
M  V30 8139 H 767.105 -3.54099 1.20685 0
M  V30 8140 H 768.438 -4.66516 1.5692 0
M  V30 8141 N 770.09 -0.729906 -1.39679 0
M  V30 8142 C 771.501 -0.346241 -1.83461 0
M  V30 8143 C 771.852 1.1215 -1.60987 0
M  V30 8144 O 770.977 1.86456 -1.09832 0
M  V30 8145 C 771.572 -0.621656 -3.33048 0
M  V30 8146 C 770.131 -0.291543 -3.75269 0
M  V30 8147 C 769.278 -0.886844 -2.62736 0
M  V30 8148 H 772.229 -0.927949 -1.28743 0
M  V30 8149 H 772.25 0.108301 -3.80346 0
M  V30 8150 H 771.762 -1.68996 -3.49373 0
M  V30 8151 H 769.863 0.771133 -3.64533 0
M  V30 8152 H 769.976 -0.770544 -4.72863 0
M  V30 8153 H 768.34 -0.313839 -2.52759 0
M  V30 8154 H 769.123 -1.95971 -2.81869 0
M  V30 8155 N 771.568 1.50203 -0.477153 0
M  V30 8156 C 772.814 2.02658 0.0758507 0
M  V30 8157 C 773.147 1.358 1.38824 0
M  V30 8158 O 772.422 0.485696 1.88338 0
M  V30 8159 C 772.705 3.59208 0.253339 0
M  V30 8160 C 772.558 4.36629 -1.0805 0
M  V30 8161 C 773.877 4.28469 1.00509 0
M  V30 8162 H 770.996 0.736538 0.0260921 0
M  V30 8163 H 773.638 1.79464 -0.623925 0
M  V30 8164 H 771.788 3.79101 0.849378 0
M  V30 8165 H 773.46 4.28292 -1.71358 0
M  V30 8166 H 771.703 4.0013 -1.67566 0
M  V30 8167 H 772.374 5.44449 -0.909883 0
M  V30 8168 H 774.85 4.13087 0.499818 0
M  V30 8169 H 773.726 5.37804 1.09808 0
M  V30 8170 H 773.987 3.92057 2.04314 0
M  V30 8171 O 773.085 0.351473 1.57629 0
M  V30 8172 H 773.776 -0.202268 1.92641 0
M  V30 END ATOM
M  V30 BEGIN BOND
M  V30 END BOND
M  V30 END CTAB
M  END
$$$$
