drugbank_target|P24752 Acetyl-CoA acetyltransferase, mitochondrial (DB00795; DB09061; DB14009; DB14011)
 OpenBabel12092119233D

  0  0  0     0  0            999 V3000
M  V30 BEGIN CTAB
M  V30 COUNTS 6442 6487 0 0 0
M  V30 BEGIN ATOM
M  V30 1 H -0.908 1.98254 -0.117106 0
M  V30 2 N 0 1.576 0 0
M  V30 3 C 0.933 2.03868 1.02534 0
M  V30 4 C 1.911 0.928543 1.3348 0
M  V30 5 O 3.095 1.19667 1.45644 0
M  V30 6 C 0.222 2.43627 2.35294 0
M  V30 7 C -0.732 3.65373 2.2001 0
M  V30 8 S 0.101 5.13292 1.52614 0
M  V30 9 C 1.257 5.56322 2.86805 0
M  V30 10 H 1.49 2.90518 0.631377 0
M  V30 11 H -0.977 1.52953 0.210867 0
M  V30 12 H 0.981 2.67203 3.11629 0
M  V30 13 H -0.358 1.57376 2.7183 0
M  V30 14 H -1.165 3.90944 3.18086 0
M  V30 15 H -1.563 3.418 1.51819 0
M  V30 16 H 0.729 5.58782 3.83104 0
M  V30 17 H 1.672 6.56266 2.65933 0
M  V30 18 H 2.08 4.83886 2.90714 0
M  V30 19 N 1.4781 -0.272755 1.55222 0
M  V30 20 C 2.4411 -1.32041 1.87344 0
M  V30 21 C 3.4411 -1.42342 0.74803 0
M  V30 22 O 4.6311 -1.41488 1.0162 0
M  V30 23 C 1.7631 -2.70173 2.07893 0
M  V30 24 H 2.9561 -1.04789 2.80997 0
M  V30 25 H 0.5091 -0.51083 1.47717 0
M  V30 26 H 1.2441 -3.02605 1.16622 0
M  V30 27 H 1.0291 -2.64082 2.89833 0
M  V30 28 H 2.5191 -3.45869 2.34017 0
M  V30 29 N 2.9562 -1.48159 -0.537278 0
M  V30 30 C 4.2022 -1.56035 -1.29541 0
M  V30 31 C 4.5352 -0.230377 -1.92829 0
M  V30 32 O 3.8102 0.762952 -1.78911 0
M  V30 33 C 4.0932 -2.69323 -2.39034 0
M  V30 34 C 3.9462 -4.12002 -1.80485 0
M  V30 35 C 5.2652 -2.78408 -3.40847 0
M  V30 36 H 2.3842 -0.567992 -0.469632 0
M  V30 37 H 5.0262 -1.80302 -0.599277 0
M  V30 38 H 3.1762 -2.48763 -2.98412 0
M  V30 39 H 4.8482 -4.43981 -1.25215 0
M  V30 40 H 3.0912 -4.19344 -1.11055 0
M  V30 41 H 3.7622 -4.87077 -2.59731 0
M  V30 42 H 6.2382 -2.97012 -2.91416 0
M  V30 43 H 5.1142 -3.59416 -4.14863 0
M  V30 44 H 5.3752 -1.86269 -4.00944 0
M  V30 45 N 4.4343 0.785586 -1.36625 0
M  V30 46 C 5.3643 1.91259 -1.33949 0
M  V30 47 C 6.3453 1.68795 -0.210325 0
M  V30 48 O 7.5303 1.89854 -0.408561 0
M  V30 49 C 4.6603 3.28339 -1.13186 0
M  V30 50 C 3.6143 3.65335 -2.22967 0
M  V30 51 C 2.9403 5.00806 -1.87342 0
M  V30 52 C 4.2403 3.7352 -3.65075 0
M  V30 53 H 5.9343 1.93755 -2.28253 0
M  V30 54 H 3.4803 0.930788 -1.09874 0
M  V30 55 H 5.4333 4.06804 -1.09948 0
M  V30 56 H 4.1573 3.2624 -0.153332 0
M  V30 57 H 2.8163 2.89169 -2.25337 0
M  V30 58 H 2.4643 4.95233 -0.880545 0
M  V30 59 H 2.1643 5.26529 -2.60846 0
M  V30 60 H 3.6883 5.81687 -1.85667 0
M  V30 61 H 5.1023 4.42168 -3.64911 0
M  V30 62 H 3.4993 4.10731 -4.37516 0
M  V30 63 H 4.5693 2.74527 -3.99703 0
M  V30 64 N 5.9124 1.20967 1.01018 0
M  V30 65 C 6.8754 0.965918 2.07853 0
M  V30 66 C 7.8754 -0.0610545 1.60684 0
M  V30 67 O 9.0654 0.175681 1.73312 0
M  V30 68 C 6.1974 0.455513 3.37843 0
M  V30 69 H 7.3904 1.91365 2.3091 0
M  V30 70 H 4.9434 1.02594 1.17916 0
M  V30 71 H 5.6784 -0.497381 3.20463 0
M  V30 72 H 5.4634 1.19622 3.73407 0
M  V30 73 H 6.9534 0.304667 4.16487 0
M  V30 74 N 7.3905 -1.2043 1.01659 0
M  V30 75 C 8.3535 -2.21433 0.591616 0
M  V30 76 C 9.3535 -1.57203 -0.338226 0
M  V30 77 O 10.5435 -1.73737 -0.126918 0
M  V30 78 C 7.6755 -3.40628 -0.136058 0
M  V30 79 H 8.8685 -2.60545 1.48514 0
M  V30 80 H 6.4215 -1.33893 0.806379 0
M  V30 81 H 7.1565 -3.07019 -1.04449 0
M  V30 82 H 6.9415 -3.88475 0.531917 0
M  V30 83 H 8.4315 -4.15475 -0.420735 0
M  V30 84 N 8.8686 -0.792821 -1.36206 0
M  V30 85 C 9.7986 -0.207853 -2.32573 0
M  V30 86 C 10.7796 0.659055 -1.56813 0
M  V30 87 O 11.9646 0.592176 -1.84951 0
M  V30 88 C 9.0946 0.655449 -3.41059 0
M  V30 89 C 8.0486 -0.111842 -4.27854 0
M  V30 90 C 7.3746 0.872274 -5.27537 0
M  V30 91 C 8.6746 -1.30299 -5.05786 0
M  V30 92 H 10.3686 -1.01294 -2.81744 0
M  V30 93 H 7.9146 -0.48854 -1.3546 0
M  V30 94 H 9.8676 1.07464 -4.07467 0
M  V30 95 H 8.5916 1.49328 -2.90463 0
M  V30 96 H 7.2506 -0.512053 -3.63006 0
M  V30 97 H 6.8986 1.70523 -4.73214 0
M  V30 98 H 6.5986 0.363291 -5.86476 0
M  V30 99 H 8.1226 1.28996 -5.96818 0
M  V30 100 H 9.5366 -0.959379 -5.65216 0
M  V30 101 H 7.9336 -1.7455 -5.74154 0
M  V30 102 H 9.0036 -2.09663 -4.37229 0
M  V30 103 N 10.3467 1.47872 -0.545128 0
M  V30 104 C 11.2767 2.32661 0.197793 0
M  V30 105 C 12.2577 1.43041 0.920504 0
M  V30 106 O 13.4427 1.71912 0.90333 0
M  V30 107 C 10.5727 3.24569 1.23582 0
M  V30 108 C 9.5267 4.23333 0.630323 0
M  V30 109 C 8.8527 5.0448 1.77211 0
M  V30 110 C 10.1527 5.20704 -0.407974 0
M  V30 111 H 11.8467 2.95024 -0.510045 0
M  V30 112 H 9.3927 1.4187 -0.246731 0
M  V30 113 H 11.3457 3.8272 1.76362 0
M  V30 114 H 10.0697 2.60236 1.97344 0
M  V30 115 H 8.7287 3.6639 0.123922 0
M  V30 116 H 8.3767 4.36561 2.49847 0
M  V30 117 H 8.0767 5.71339 1.37281 0
M  V30 118 H 9.6007 5.65487 2.3034 0
M  V30 119 H 11.0147 5.7329 0.033305 0
M  V30 120 H 9.4117 5.95699 -0.725486 0
M  V30 121 H 10.4817 4.66917 -1.30828 0
M  V30 122 N 11.8248 0.280983 1.55075 0
M  V30 123 C 13.2408 -0.0729964 1.59433 0
M  V30 124 C 13.4408 -1.5411 1.29817 0
M  V30 125 O 12.4968 -2.29086 1.06187 0
M  V30 126 C 13.8098 0.306921 2.9913 0
M  V30 127 C 15.3578 0.254023 3.11968 0
M  V30 128 C 15.8328 0.608467 4.5394 0
M  V30 129 N 17.3238 0.560241 4.59799 0
M  V30 130 C 18.0588 0.80722 5.6769 0
M  V30 131 N 17.5548 1.11912 6.83701 0
M  V30 132 N 19.3478 0.735623 5.57266 0
M  V30 133 H 11.4988 1.238 1.7259 0
M  V30 134 H 13.7618 0.500547 0.805082 0
M  V30 135 H 13.4678 1.32816 3.25657 0
M  V30 136 H 13.3418 -0.349363 3.75579 0
M  V30 137 H 15.7288 -0.75794 2.852 0
M  V30 138 H 15.8098 0.944649 2.37718 0
M  V30 139 H 15.4538 1.61814 4.81434 0
M  V30 140 H 15.3838 -0.104013 5.26497 0
M  V30 141 H 17.8748 0.329288 3.76463 0
M  V30 142 H 18.1878 1.29409 7.61888 0
M  V30 143 H 16.5328 1.15695 6.85303 0
M  V30 144 H 19.7238 0.491752 4.6551 0
M  V30 145 H 19.8968 0.931482 6.4127 0
M  V30 146 N 13.3029 -1.57598 0.00835791 0
M  V30 147 C 14.5279 -1.95617 -0.689103 0
M  V30 148 C 14.9529 -0.883753 -1.66046 0
M  V30 149 O 14.3109 0.157352 -1.80616 0
M  V30 150 C 14.3589 -3.32736 -1.38994 0
M  V30 151 O 13.4629 -3.27631 -2.50463 0
M  V30 152 H 12.8039 -0.638379 -0.182668 0
M  V30 153 H 15.3339 -2.045 0.064036 0
M  V30 154 H 15.3439 -3.68494 -1.75147 0
M  V30 155 H 14.0189 -4.1034 -0.677778 0
M  V30 156 H 12.5959 -3.03561 -2.16576 0
M  V30 157 N 14.781 0.264519 -1.55364 0
M  V30 158 C 16.029 0.993021 -1.76021 0
M  V30 159 C 16.35 1.86511 -0.569099 0
M  V30 160 O 15.62 1.91438 0.415735 0
M  V30 161 H 14.2 0.369639 -0.649135 0
M  V30 162 H 16.862 0.286707 -1.9278 0
M  V30 163 H 15.958 1.62502 -2.66457 0
M  V30 164 N 16.2591 1.48442 0.529413 0
M  V30 165 C 17.2221 1.62524 1.61612 0
M  V30 166 C 18.2221 0.498509 1.52877 0
M  V30 167 O 19.4121 0.76431 1.56537 0
M  V30 168 C 16.5441 1.59597 3.01233 0
M  V30 169 H 17.7371 2.59423 1.50465 0
M  V30 170 H 15.2901 1.37047 0.751514 0
M  V30 171 H 16.0251 0.641781 3.17886 0
M  V30 172 H 15.8101 2.41397 3.08982 0
M  V30 173 H 17.3001 1.72646 3.80241 0
M  V30 174 N 17.7372 -0.778329 1.37039 0
M  V30 175 C 19.1532 -1.07796 1.17695 0
M  V30 176 C 19.3532 -2.01498 0.00860115 0
M  V30 177 O 18.4092 -2.43901 -0.653352 0
M  V30 178 C 19.7222 -1.68178 2.49272 0
M  V30 179 C 21.2702 -1.80467 2.55735 0
M  V30 180 C 21.7452 -2.44263 3.87427 0
M  V30 181 N 23.2362 -2.51721 3.88833 0
M  V30 182 C 23.9712 -3.01919 4.87476 0
M  V30 183 N 23.4672 -3.5234 5.96513 0
M  V30 184 N 25.2602 -3.00733 4.74885 0
M  V30 185 H 17.4112 -0.156032 2.11826 0
M  V30 186 H 19.6742 -0.131844 0.938787 0
M  V30 187 H 19.3802 -1.06796 3.35093 0
M  V30 188 H 19.2542 -2.67554 2.65885 0
M  V30 189 H 21.6412 -2.40984 1.70325 0
M  V30 190 H 21.7222 -0.798656 2.43013 0
M  V30 191 H 21.3662 -1.84388 4.73248 0
M  V30 192 H 21.2962 -3.45458 3.9745 0
M  V30 193 H 23.7872 -2.1603 3.10063 0
M  V30 194 H 24.1002 -3.89027 6.67741 0
M  V30 195 H 22.4452 -3.50462 6.00168 0
M  V30 196 H 25.6362 -2.60638 3.88826 0
M  V30 197 H 25.8092 -3.39545 5.51918 0
M  V30 198 N 19.2153 -1.21501 -1.00376 0
M  V30 199 C 20.4403 -1.05977 -1.78279 0
M  V30 200 C 20.8653 0.385994 -1.84097 0
M  V30 201 O 20.2233 1.27849 -1.28547 0
M  V30 202 C 20.2713 -1.66302 -3.19963 0
M  V30 203 O 19.3753 -0.909333 -4.0225 0
M  V30 204 H 18.7163 -0.372906 -0.549397 0
M  V30 205 H 21.2463 -1.6107 -1.26165 0
M  V30 206 H 21.2563 -1.70574 -3.70632 0
M  V30 207 H 19.9313 -2.71515 -3.15043 0
M  V30 208 H 18.5083 -0.941795 -3.60811 0
M  V30 209 N 20.6934 1.19889 -1.02296 0
M  V30 210 C 22.1094 1.41462 -0.738954 0
M  V30 211 C 22.3094 1.89721 0.678846 0
M  V30 212 O 21.3654 2.07016 1.4457 0
M  V30 213 C 22.6784 2.43083 -1.77005 0
M  V30 214 C 24.2264 2.5684 -1.78892 0
M  V30 215 C 24.7014 3.61709 -2.80945 0
M  V30 216 N 26.1924 3.69199 -2.79725 0
M  V30 217 C 26.9274 4.50019 -3.55345 0
M  V30 218 N 26.4234 5.34592 -4.40662 0
M  V30 219 N 28.2164 4.44612 -3.43914 0
M  V30 220 H 20.3674 0.868827 -1.93817 0
M  V30 221 H 22.6304 0.44399 -0.837602 0
M  V30 222 H 22.3364 2.14636 -2.78612 0
M  V30 223 H 22.2104 3.4217 -1.58744 0
M  V30 224 H 24.5974 2.84614 -0.779674 0
M  V30 225 H 24.6784 1.57927 -2.01228 0
M  V30 226 H 24.3224 3.34678 -3.82038 0
M  V30 227 H 24.2524 4.60259 -2.5587 0
M  V30 228 H 26.7434 3.08794 -2.17842 0
M  V30 229 H 27.0564 5.93363 -4.95116 0
M  V30 230 H 25.4014 5.34073 -4.44737 0
M  V30 231 H 28.5924 3.7758 -2.76679 0
M  V30 232 H 28.7654 5.0736 -4.031 0
M  V30 233 N 22.1715 0.800033 1.35784 0
M  V30 234 C 23.3965 0.388511 2.03729 0
M  V30 235 C 23.8215 -0.990481 1.5991 0
M  V30 236 O 23.1795 -1.64013 0.772612 0
M  V30 237 C 23.2275 0.4726 3.5749 0
M  V30 238 O 22.3315 -0.51646 4.09153 0
M  V30 239 H 21.6725 0.163271 0.643614 0
M  V30 240 H 24.2025 1.0841 1.73518 0
M  V30 241 H 24.2125 0.34003 4.06581 0
M  V30 242 H 22.8875 1.47848 3.88734 0
M  V30 243 H 21.4645 -0.344673 3.71304 0
M  V30 244 N 23.6496 -1.47581 0.552962 0
M  V30 245 C 25.0606 -1.86324 0.118463 0
M  V30 246 C 25.4116 -1.46006 -1.3106 0
M  V30 247 O 24.5366 -0.861182 -1.98526 0
M  V30 248 C 25.1316 -3.3816 0.20821 0
M  V30 249 C 23.6906 -3.7601 -0.171226 0
M  V30 250 C 22.8376 -2.71634 0.557686 0
M  V30 251 H 25.7886 -1.39159 0.762928 0
M  V30 252 H 25.8096 -3.76141 -0.574278 0
M  V30 253 H 25.3216 -3.67473 1.24841 0
M  V30 254 H 23.4226 -3.52313 -1.21269 0
M  V30 255 H 23.5356 -4.78745 0.184379 0
M  V30 256 H 21.8996 -2.547 0.00125792 0
M  V30 257 H 22.6826 -3.0379 1.59896 0
M  V30 258 N 25.1277 -0.289203 -1.54924 0
M  V30 259 C 26.0577 0.58549 -2.2604 0
M  V30 260 C 27.0387 1.14753 -1.25562 0
M  V30 261 O 28.2237 1.17906 -1.54311 0
M  V30 262 C 25.3537 1.76305 -2.99222 0
M  V30 263 C 24.3077 1.33191 -4.06748 0
M  V30 264 C 23.6337 2.5937 -4.6758 0
M  V30 265 C 24.9337 0.471775 -5.20165 0
M  V30 266 H 26.6277 -0.00763532 -2.99399 0
M  V30 267 H 24.1737 -0.00511229 -1.43999 0
M  V30 268 H 26.1267 2.38097 -3.47689 0
M  V30 269 H 24.8507 2.38223 -2.23422 0
M  V30 270 H 23.5097 0.737121 -3.59113 0
M  V30 271 H 23.1577 3.19576 -3.88433 0
M  V30 272 H 22.8577 2.31228 -5.40192 0
M  V30 273 H 24.3817 3.21985 -5.18804 0
M  V30 274 H 25.7957 0.995056 -5.64599 0
M  V30 275 H 24.1927 0.284639 -5.99425 0
M  V30 276 H 25.2627 -0.506041 -4.82252 0
M  V30 277 N 26.6058 1.57591 -0.0167156 0
M  V30 278 C 27.5358 2.12496 0.967858 0
M  V30 279 C 28.5168 1.03807 1.34752 0
M  V30 280 O 29.7018 1.31577 1.42833 0
M  V30 281 C 26.8318 2.64194 2.25431 0
M  V30 282 C 25.7858 3.77559 2.01576 0
M  V30 283 C 25.1118 4.15636 3.36379 0
M  V30 284 C 26.4118 5.04151 1.36489 0
M  V30 285 H 28.1058 2.95013 0.510643 0
M  V30 286 H 25.6518 1.41915 0.244181 0
M  V30 287 H 27.6048 3.01236 2.94678 0
M  V30 288 H 26.3288 1.78821 2.73296 0
M  V30 289 H 24.9878 3.40937 1.34751 0
M  V30 290 H 24.6358 3.27263 3.81979 0
M  V30 291 H 24.3358 4.92022 3.21229 0
M  V30 292 H 25.8598 4.5525 4.06915 0
M  V30 293 H 27.2738 5.38857 1.95718 0
M  V30 294 H 25.6708 5.85453 1.31776 0
M  V30 295 H 26.7408 4.83733 0.336219 0
M  V30 296 N 28.0839 -0.256276 1.55502 0
M  V30 297 C 29.4999 -0.604325 1.47716 0
M  V30 298 C 29.6999 -1.88763 0.705039 0
M  V30 299 O 28.7559 -2.51445 0.230613 0
M  V30 300 C 30.0689 -0.715756 2.92057 0
M  V30 301 C 31.6169 -0.808706 3.02372 0
M  V30 302 C 32.0919 -0.951777 4.48001 0
M  V30 303 N 33.5829 -1.01688 4.519 0
M  V30 304 C 34.3179 -1.14668 5.61817 0
M  V30 305 N 33.8139 -1.24261 6.81565 0
M  V30 306 N 35.6069 -1.1791 5.49594 0
M  V30 307 H 27.7579 0.586291 2.04148 0
M  V30 308 H 30.0209 0.201015 0.926443 0
M  V30 309 H 29.7269 0.157027 3.51349 0
M  V30 310 H 29.6009 -1.59071 3.42018 0
M  V30 311 H 31.9879 -1.67195 2.43166 0
M  V30 312 H 32.0689 0.0912063 2.55637 0
M  V30 313 H 31.7129 -0.0931291 5.07815 0
M  V30 314 H 31.6429 -1.86659 4.92408 0
M  V30 315 H 34.1339 -0.954468 3.65648 0
M  V30 316 H 34.4469 -1.34046 7.61086 0
M  V30 317 H 32.7919 -1.21236 6.84344 0
M  V30 318 H 35.9829 -1.10057 4.54978 0
M  V30 319 H 36.1559 -1.27681 6.35296 0
M  V30 320 N 29.562 -1.4872 -0.521534 0
M  V30 321 C 30.978 -1.35028 -0.850855 0
M  V30 322 C 31.178 -0.367712 -1.98116 0
M  V30 323 O 30.234 0.208037 -2.51642 0
M  V30 324 C 31.547 -2.75263 -1.21041 0
M  V30 325 C 33.095 -2.83813 -1.31981 0
M  V30 326 C 33.57 -4.24769 -1.71276 0
M  V30 327 N 35.061 -4.27482 -1.78363 0
M  V30 328 C 35.796 -5.33494 -2.1017 0
M  V30 329 N 35.292 -6.49775 -2.40343 0
M  V30 330 N 37.085 -5.20894 -2.11248 0
M  V30 331 H 29.236 -2.11214 0.22413 0
M  V30 332 H 31.499 -0.947252 0.0376439 0
M  V30 333 H 31.205 -3.48765 -0.453415 0
M  V30 334 H 31.079 -3.09327 -2.15863 0
M  V30 335 H 33.466 -2.10561 -2.06756 0
M  V30 336 H 33.547 -2.53358 -0.352596 0
M  V30 337 H 33.191 -4.9854 -0.970588 0
M  V30 338 H 33.121 -4.52673 -2.69062 0
M  V30 339 H 35.612 -3.43611 -1.57288 0
M  V30 340 H 35.925 -7.26402 -2.63743 0
M  V30 341 H 34.27 -6.53035 -2.37844 0
M  V30 342 H 37.461 -4.29065 -1.87139 0
M  V30 343 H 37.634 -6.03612 -2.35704 0
M  V30 344 N 31.0401 0.771051 -1.3745 0
M  V30 345 C 31.9701 1.89827 -1.3597 0
M  V30 346 C 32.9511 1.68562 -0.228216 0
M  V30 347 O 34.1361 1.8941 -0.428675 0
M  V30 348 C 31.2661 3.2712 -1.16662 0
M  V30 349 C 30.2201 3.6295 -2.2683 0
M  V30 350 C 29.5461 4.98791 -1.92644 0
M  V30 351 C 30.8461 3.69627 -3.69017 0
M  V30 352 H 32.5401 1.91323 -2.30295 0
M  V30 353 H 30.0861 0.919082 -1.10855 0
M  V30 354 H 32.0391 4.05615 -1.14256 0
M  V30 355 H 30.7631 3.26059 -0.187926 0
M  V30 356 H 29.4221 2.86763 -2.28392 0
M  V30 357 H 29.0701 4.94271 -0.933021 0
M  V30 358 H 28.7701 5.23733 -2.66416 0
M  V30 359 H 30.2941 5.79685 -1.91826 0
M  V30 360 H 31.7081 4.38273 -3.69581 0
M  V30 361 H 30.1051 4.06067 -4.41848 0
M  V30 362 H 31.1751 2.70273 -4.02592 0
M  V30 363 N 32.5182 1.22032 0.997298 0
M  V30 364 C 33.7642 1.04376 1.73878 0
M  V30 365 C 34.0972 -0.420716 1.89588 0
M  V30 366 O 33.3722 -1.31202 1.43583 0
M  V30 367 C 33.6552 1.75047 3.14691 0
M  V30 368 C 33.5082 3.29062 3.06656 0
M  V30 369 C 34.8272 1.49928 4.13775 0
M  V30 370 H 31.9462 0.380578 0.631133 0
M  V30 371 H 34.5882 1.50312 1.16217 0
M  V30 372 H 32.7382 1.35996 3.63919 0
M  V30 373 H 34.4102 3.7753 2.65083 0
M  V30 374 H 32.6532 3.58967 2.43568 0
M  V30 375 H 33.3242 3.73683 4.06282 0
M  V30 376 H 35.8002 1.83842 3.73285 0
M  V30 377 H 34.6762 2.01878 5.10428 0
M  V30 378 H 34.9372 0.430929 4.39995 0
M  V30 379 N 33.9963 -1.19345 1.0293 0
M  V30 380 C 34.9283 -2.22036 0.56857 0
M  V30 381 C 35.9413 -1.58865 -0.355779 0
M  V30 382 O 37.1303 -1.77851 -0.152103 0
M  V30 383 C 34.2303 -3.38363 -0.190752 0
M  V30 384 C 33.4033 -4.31118 0.738643 0
M  V30 385 C 32.4623 -5.26194 0.0246497 0
M  V30 386 O 31.4883 -5.65461 0.651354 0
M  V30 387 N 32.6903 -5.66971 -1.24594 0
M  V30 388 H 35.4553 -2.6219 1.45177 0
M  V30 389 H 33.0163 -1.34015 0.908381 0
M  V30 390 H 35.0083 -3.98981 -0.677961 0
M  V30 391 H 33.5783 -2.96994 -0.975366 0
M  V30 392 H 32.7983 -3.68276 1.40593 0
M  V30 393 H 34.0863 -4.90001 1.37029 0
M  V30 394 H 33.4843 -5.37104 -1.77583 0
M  V30 395 H 32.0413 -6.2984 -1.67764 0
M  V30 396 N 35.4744 -0.807222 -1.35358 0
M  V30 397 C 36.3844 -0.219594 -2.3357 0
M  V30 398 C 37.4004 0.637734 -1.61892 0
M  V30 399 O 38.5764 0.549336 -1.93763 0
M  V30 400 C 35.6414 0.62158 -3.41083 0
M  V30 401 C 34.7024 -0.256315 -4.28534 0
M  V30 402 C 33.9354 0.544807 -5.30912 0
M  V30 403 O 34.1584 1.77944 -5.41934 0
M  V30 404 O 33.0924 -0.0646478 -6.01865 0
M  V30 405 H 36.9184 -1.03208 -2.85625 0
M  V30 406 H 34.5034 -0.569025 -1.38139 0
M  V30 407 H 36.3854 1.10067 -4.06772 0
M  V30 408 H 35.0604 1.41165 -2.91297 0
M  V30 409 H 33.9674 -0.782559 -3.65823 0
M  V30 410 H 35.3004 -1.01034 -4.81719 0
M  V30 411 N 36.9525 1.47285 -0.560781 0
M  V30 412 C 38.2015 2.01668 -0.035895 0
M  V30 413 C 38.5145 1.44021 1.32353 0
M  V30 414 O 39.7205 1.90088 1.93853 0
M  V30 415 C 38.1765 3.59897 -0.0136659 0
M  V30 416 C 37.7845 4.26536 -1.37006 0
M  V30 417 C 39.5285 4.22017 0.458425 0
M  V30 418 C 37.4355 5.76782 -1.30675 0
M  V30 419 H 36.3655 0.753938 -0.00964879 0
M  V30 420 H 39.0165 1.69243 -0.709166 0
M  V30 421 H 37.3985 3.89301 0.725325 0
M  V30 422 H 38.5725 4.0877 -2.12705 0
M  V30 423 H 36.8875 3.76419 -1.78038 0
M  V30 424 H 39.4845 5.32124 0.524247 0
M  V30 425 H 39.8275 3.89437 1.4712 0
M  V30 426 H 40.3605 3.97159 -0.225818 0
M  V30 427 H 37.0995 6.13988 -2.29564 0
M  V30 428 H 36.6195 5.96875 -0.591622 0
M  V30 429 H 38.2985 6.39063 -1.01033 0
M  V30 430 N 38.4306 0.297415 1.54768 0
M  V30 431 C 39.8466 -0.0560823 1.59501 0
M  V30 432 C 40.0466 -1.52725 1.31444 0
M  V30 433 O 39.1026 -2.27947 1.08611 0
M  V30 434 C 40.4156 0.338631 2.98787 0
M  V30 435 C 41.9636 0.287097 3.11681 0
M  V30 436 C 42.4386 0.656579 4.53269 0
M  V30 437 N 43.9296 0.608977 4.59179 0
M  V30 438 C 44.6646 0.867385 5.66802 0
M  V30 439 N 44.1606 1.19157 6.82476 0
M  V30 440 N 45.9536 0.794687 5.56454 0
M  V30 441 H 38.1046 1.25624 1.71267 0
M  V30 442 H 40.3676 0.509057 0.799728 0
M  V30 443 H 40.0736 1.36263 3.2423 0
M  V30 444 H 39.9476 -0.309508 3.75928 0
M  V30 445 H 42.3346 -0.727649 2.85988 0
M  V30 446 H 42.4156 0.969809 2.36703 0
M  V30 447 H 42.0596 1.66912 4.7969 0
M  V30 448 H 41.9896 -0.0481649 5.26578 0
M  V30 449 H 44.4806 0.369198 3.76092 0
M  V30 450 H 44.7936 1.37482 7.60473 0
M  V30 451 H 43.1386 1.22958 6.84037 0
M  V30 452 H 46.3296 0.541098 4.64962 0
M  V30 453 H 46.5026 0.999445 6.40246 0
M  V30 454 N 39.9087 -1.5758 0.0250728 0
M  V30 455 C 41.1387 -1.95646 -0.663783 0
M  V30 456 C 41.5467 -0.899935 -1.66427 0
M  V30 457 O 40.8897 0.127191 -1.83259 0
M  V30 458 C 40.9517 -3.29835 -1.43 0
M  V30 459 C 40.6157 -4.53197 -0.588305 0
M  V30 460 C 41.6127 -5.19726 0.13469 0
M  V30 461 C 39.2977 -4.99529 -0.526897 0
M  V30 462 C 41.2917 -6.30902 0.90781 0
M  V30 463 C 38.9787 -6.10589 0.24993 0
M  V30 464 C 39.9767 -6.76134 0.965994 0
M  V30 465 O 39.6647 -7.85062 1.7301 0
M  V30 466 H 39.3967 -0.649282 -0.188174 0
M  V30 467 H 41.9507 -2.05245 0.0799006 0
M  V30 468 H 40.1807 -3.16716 -2.21873 0
M  V30 469 H 41.8697 -3.52833 -2.00658 0
M  V30 470 H 42.6357 -4.84904 0.0965562 0
M  V30 471 H 38.5147 -4.48319 -1.07381 0
M  V30 472 H 42.0587 -6.81995 1.46724 0
M  V30 473 H 37.9557 -6.44849 0.289795 0
M  V30 474 H 38.7237 -8.01708 1.64944 0
M  V30 475 N 41.3868 0.248026 -1.55636 0
M  V30 476 C 42.6328 0.97767 -1.77678 0
M  V30 477 C 42.9658 1.85016 -0.590135 0
M  V30 478 O 42.2408 1.90095 0.411611 0
M  V30 479 C 42.5238 1.83914 -3.09593 0
M  V30 480 C 42.3768 0.99491 -4.38659 0
M  V30 481 C 43.6958 2.82183 -3.37729 0
M  V30 482 H 40.8148 0.354005 -0.646413 0
M  V30 483 H 43.4568 0.248253 -1.88371 0
M  V30 484 H 41.6068 2.46104 -3.00608 0
M  V30 485 H 43.2788 0.391789 -4.59633 0
M  V30 486 H 41.5218 0.299231 -4.32767 0
M  V30 487 H 42.1928 1.63145 -5.2734 0
M  V30 488 H 44.6688 2.30129 -3.4667 0
M  V30 489 H 43.5448 3.39582 -4.31249 0
M  V30 490 H 43.8058 3.58588 -2.58586 0
M  V30 491 N 42.8649 1.48995 0.513639 0
M  V30 492 C 43.7749 1.67443 1.64317 0
M  V30 493 C 44.7909 0.556947 1.64846 0
M  V30 494 O 45.9669 0.830082 1.83498 0
M  V30 495 C 43.0319 1.72515 3.00732 0
M  V30 496 C 42.0929 2.96009 3.1093 0
M  V30 497 C 41.3259 3.00829 4.40837 0
M  V30 498 O 41.5489 2.13594 5.28898 0
M  V30 499 O 40.4829 3.93168 4.55744 0
M  V30 500 H 44.3089 2.63106 1.51687 0
M  V30 501 H 41.8939 1.32588 0.688543 0
M  V30 502 H 43.7759 1.78277 3.81831 0
M  V30 503 H 42.4509 0.800278 3.13651 0
M  V30 504 H 41.3579 2.9577 2.29065 0
M  V30 505 H 42.6909 3.87934 3.02933 0
M  V30 506 N 44.343 -0.763751 1.37857 0
M  V30 507 C 45.759 -1.06542 1.18832 0
M  V30 508 C 45.959 -2.01478 0.0299722 0
M  V30 509 O 45.015 -2.4458 -0.627447 0
M  V30 510 C 46.328 -1.65525 2.51042 0
M  V30 511 C 47.876 -1.77745 2.57635 0
M  V30 512 C 48.351 -2.4014 3.89996 0
M  V30 513 N 49.842 -2.47582 3.91481 0
M  V30 514 C 50.577 -2.96732 4.9065 0
M  V30 515 N 50.073 -3.45993 6.00217 0
M  V30 516 N 51.866 -2.95679 4.78048 0
M  V30 517 H 44.017 -0.133556 2.1198 0
M  V30 518 H 46.28 -0.121879 0.940133 0
M  V30 519 H 45.986 -1.03236 3.36207 0
M  V30 520 H 45.86 -2.64719 2.68707 0
M  V30 521 H 48.247 -2.39164 1.72872 0
M  V30 522 H 48.328 -0.772836 2.43846 0
M  V30 523 H 47.972 -1.79358 4.75177 0
M  V30 524 H 47.902 -3.41223 4.01092 0
M  V30 525 H 50.393 -2.1273 3.12337 0
M  V30 526 H 50.706 -3.81922 6.7183 0
M  V30 527 H 49.051 -3.44077 6.03851 0
M  V30 528 H 52.242 -2.56499 3.91568 0
M  V30 529 H 52.415 -3.33672 5.55488 0
M  V30 530 N 45.8211 -1.22559 -0.990812 0
M  V30 531 C 47.0461 -1.07862 -1.77145 0
M  V30 532 C 47.4711 0.366447 -1.84496 0
M  V30 533 O 46.8291 1.26478 -1.29896 0
M  V30 534 C 46.8771 -1.69686 -3.18181 0
M  V30 535 O 45.9811 -0.951946 -4.01263 0
M  V30 536 H 45.3221 -0.378712 -0.545411 0
M  V30 537 H 47.8521 -1.62399 -1.2445 0
M  V30 538 H 47.8621 -1.74496 -3.68802 0
M  V30 539 H 46.5371 -2.74841 -3.12146 0
M  V30 540 H 45.1141 -0.980011 -3.59792 0
M  V30 541 N 47.2992 1.18797 -1.03562 0
M  V30 542 C 48.5292 1.92319 -0.754773 0
M  V30 543 C 48.9372 1.7612 0.691248 0
M  V30 544 O 48.2802 1.08491 1.48241 0
M  V30 545 C 48.3422 3.44284 -1.03484 0
M  V30 546 C 48.0062 3.84258 -2.47376 0
M  V30 547 C 49.0032 3.88459 -3.45537 0
M  V30 548 C 46.6882 4.15701 -2.81954 0
M  V30 549 C 48.6822 4.23545 -4.76328 0
M  V30 550 C 46.3692 4.50458 -4.12954 0
M  V30 551 C 47.3672 4.54356 -5.09951 0
M  V30 552 O 47.0552 4.88305 -6.38603 0
M  V30 553 H 46.7872 0.617527 -0.275021 0
M  V30 554 H 49.3412 1.51683 -1.38497 0
M  V30 555 H 47.5712 3.85135 -0.347513 0
M  V30 556 H 49.2602 3.99049 -0.7426 0
M  V30 557 H 50.0262 3.6431 -3.20162 0
M  V30 558 H 45.9052 4.11847 -2.0713 0
M  V30 559 H 49.4492 4.26502 -5.52035 0
M  V30 560 H 45.3462 4.74067 -4.38099 0
M  V30 561 H 46.1142 5.06227 -6.43177 0
M  V30 562 N 48.7773 0.814389 1.34928 0
M  V30 563 C 50.0233 0.399013 1.98836 0
M  V30 564 C 50.3563 -1.03314 1.64438 0
M  V30 565 O 49.6313 -1.71811 0.911659 0
M  V30 566 C 49.9143 0.591629 3.55207 0
M  V30 567 C 49.7673 2.06928 3.99376 0
M  V30 568 C 51.0863 0.022199 4.40094 0
M  V30 569 H 48.2053 0.146451 0.722303 0
M  V30 570 H 50.8473 1.02537 1.59957 0
M  V30 571 H 48.9973 0.0584441 3.88456 0
M  V30 572 H 50.6693 2.66544 3.76499 0
M  V30 573 H 48.9123 2.56287 3.49999 0
M  V30 574 H 49.5833 2.1549 5.08201 0
M  V30 575 H 52.0593 0.477643 4.13349 0
M  V30 576 H 50.9353 0.186832 5.48582 0
M  V30 577 H 51.1963 -1.07215 4.28902 0
M  V30 578 N 50.2554 -1.46986 0.568584 0
M  V30 579 C 51.4804 -2.07335 0.0520528 0
M  V30 580 C 51.9054 -1.41675 -1.23733 0
M  V30 581 O 51.2634 -0.495623 -1.74394 0
M  V30 582 C 51.3114 -3.60417 -0.11501 0
M  V30 583 O 50.4154 -3.95309 -1.17492 0
M  V30 584 H 49.7564 -0.661597 0.0564385 0
M  V30 585 H 52.2864 -1.88837 0.787507 0
M  V30 586 H 52.2964 -4.06698 -0.325644 0
M  V30 587 H 50.9714 -4.07601 0.826675 0
M  V30 588 H 49.5484 -3.60757 -0.943869 0
M  V30 589 N 51.7335 -0.305618 -1.54608 0
M  V30 590 C 52.6805 0.568421 -2.23691 0
M  V30 591 C 53.6505 1.12592 -1.22116 0
M  V30 592 O 54.8355 1.16959 -1.50749 0
M  V30 593 C 51.9755 1.7322 -2.98477 0
M  V30 594 C 51.0885 1.20566 -4.14835 0
M  V30 595 C 50.2235 2.33368 -4.77193 0
M  V30 596 C 49.2625 1.7787 -5.85686 0
M  V30 597 N 48.3995 2.84263 -6.4198 0
M  V30 598 H 53.2395 -0.0272867 -2.97988 0
M  V30 599 H 50.7765 -0.0252363 -1.47078 0
M  V30 600 H 52.7345 2.41675 -3.40072 0
M  V30 601 H 51.3645 2.29947 -2.26548 0
M  V30 602 H 50.4165 0.413223 -3.78149 0
M  V30 603 H 51.7285 0.759417 -4.92985 0
M  V30 604 H 50.8825 3.09761 -5.21664 0
M  V30 605 H 49.6215 2.8132 -3.98385 0
M  V30 606 H 48.6265 0.99968 -5.40635 0
M  V30 607 H 49.8515 1.30816 -6.66381 0
M  V30 608 H 47.7975 3.31541 -5.66053 0
M  V30 609 H 47.7145 2.44149 -7.15491 0
M  V30 610 H 48.9825 3.6054 -6.91109 0
M  V30 611 N 53.2116 1.57565 -0.0334293 0
M  V30 612 C 54.6226 1.79746 0.504798 0
M  V30 613 C 54.9736 0.944091 1.71992 0
M  V30 614 O 54.0986 0.155694 2.15839 0
M  V30 615 C 54.6936 3.25997 0.922567 0
M  V30 616 C 53.2526 3.49159 1.40588 0
M  V30 617 C 52.3996 2.74785 0.372633 0
M  V30 618 H 55.3506 1.56565 -0.259436 0
M  V30 619 H 55.3716 3.35945 1.78666 0
M  V30 620 H 54.8836 3.88081 0.0379825 0
M  V30 621 H 52.9846 2.92332 2.31025 0
M  V30 622 H 53.0976 4.57873 1.41028 0
M  V30 623 H 51.4616 2.40391 0.841672 0
M  V30 624 H 52.2446 3.39587 -0.503559 0
M  V30 625 N 54.6897 -0.239769 1.55765 0
M  V30 626 C 55.9177 -0.98417 1.81994 0
M  V30 627 C 56.3327 -1.7867 0.610124 0
M  V30 628 O 55.6897 -1.77571 -0.421271 0
M  V30 629 C 55.7407 -1.91635 3.06526 0
M  V30 630 O 55.4617 -1.14629 4.22838 0
M  V30 631 C 56.9627 -2.77616 3.45607 0
M  V30 632 H 54.1827 -0.28928 0.605441 0
M  V30 633 H 56.7267 -0.260499 2.02834 0
M  V30 634 H 54.8817 -2.5942 2.87715 0
M  V30 635 H 55.2957 -1.77745 4.93464 0
M  V30 636 H 56.7697 -3.38759 4.35828 0
M  V30 637 H 57.2467 -3.4909 2.6652 0
M  V30 638 H 57.8527 -2.15271 3.66795 0
M  V30 639 N 56.1678 -1.49265 -0.50573 0
M  V30 640 C 57.0978 -1.68495 -1.61653 0
M  V30 641 C 58.0788 -0.53366 -1.61512 0
M  V30 642 O 59.2638 -0.76897 -1.78327 0
M  V30 643 C 56.3938 -1.74709 -3.00157 0
M  V30 644 C 55.3478 -2.89581 -3.15162 0
M  V30 645 C 54.6738 -2.80903 -4.5497 0
M  V30 646 C 55.9738 -4.30578 -2.95634 0
M  V30 647 H 57.6678 -2.61493 -1.45814 0
M  V30 648 H 55.2138 -1.25838 -0.70005 0
M  V30 649 H 57.1668 -1.86748 -3.77761 0
M  V30 650 H 55.8908 -0.783067 -3.17074 0
M  V30 651 H 54.5498 -2.77136 -2.39982 0
M  V30 652 H 54.1978 -1.82419 -4.68756 0
M  V30 653 H 53.8978 -3.57999 -4.65951 0
M  V30 654 H 55.4218 -2.94944 -5.34641 0
M  V30 655 H 56.8358 -4.4373 -3.63011 0
M  V30 656 H 55.2328 -5.0886 -3.18091 0
M  V30 657 H 56.3028 -4.45352 -1.91806 0
M  V30 658 N 57.6459 0.756429 -1.3826 0
M  V30 659 C 58.5929 1.87011 -1.35261 0
M  V30 660 C 59.5629 1.64695 -0.215616 0
M  V30 661 O 60.7479 1.864 -0.407399 0
M  V30 662 C 57.8879 3.24275 -1.18068 0
M  V30 663 C 57.0009 3.58442 -2.41129 0
M  V30 664 C 56.1359 4.84994 -2.16689 0
M  V30 665 C 55.1749 5.11939 -3.35537 0
M  V30 666 N 54.3119 6.29685 -3.10549 0
M  V30 667 H 59.1519 1.8891 -2.30472 0
M  V30 668 H 56.6889 0.923373 -1.14509 0
M  V30 669 H 58.6469 4.03479 -1.06116 0
M  V30 670 H 57.2769 3.21711 -0.264973 0
M  V30 671 H 56.3289 2.74103 -2.63764 0
M  V30 672 H 57.6409 3.74283 -3.29717 0
M  V30 673 H 56.7949 5.72135 -2.01857 0
M  V30 674 H 55.5339 4.71286 -1.25462 0
M  V30 675 H 54.5389 4.23268 -3.50891 0
M  V30 676 H 55.7639 5.27546 -4.27635 0
M  V30 677 H 53.7099 6.17306 -2.21967 0
M  V30 678 H 53.6269 6.46014 -3.92686 0
M  V30 679 H 54.8949 7.19722 -2.99367 0
M  V30 680 N 59.124 1.23083 0.984299 0
M  V30 681 C 60.034 1.02515 2.11016 0
M  V30 682 C 61.05 -0.0291702 1.73976 0
M  V30 683 O 62.226 0.165434 2.00719 0
M  V30 684 C 59.291 0.614673 3.41208 0
M  V30 685 C 58.352 1.74359 3.92297 0
M  V30 686 C 57.585 1.35261 5.16275 0
M  V30 687 O 57.808 0.235136 5.69915 0
M  V30 688 O 56.742 2.17227 5.61334 0
M  V30 689 H 60.568 1.96862 2.31255 0
M  V30 690 H 58.153 1.01753 1.09392 0
M  V30 691 H 60.035 0.396518 4.1953 0
M  V30 692 H 58.71 -0.299851 3.22308 0
M  V30 693 H 57.617 2.01635 3.1511 0
M  V30 694 H 58.95 2.63629 4.15645 0
M  V30 695 N 60.6021 -1.18246 1.0419 0
M  V30 696 C 61.8481 -1.88536 0.747122 0
M  V30 697 C 62.1811 -1.80223 -0.723409 0
M  V30 698 O 61.4561 -1.20337 -1.52804 0
M  V30 699 C 61.7391 -3.38968 1.21544 0
M  V30 700 C 61.5921 -3.56084 2.74816 0
M  V30 701 C 62.9111 -4.32648 0.806482 0
M  V30 702 H 60.0301 -0.684619 0.272883 0
M  V30 703 H 62.6721 -1.39113 1.29413 0
M  V30 704 H 60.8221 -3.8119 0.750081 0
M  V30 705 H 62.4941 -3.22946 3.29399 0
M  V30 706 H 60.7371 -2.98699 3.14582 0
M  V30 707 H 61.4081 -4.61639 3.02644 0
M  V30 708 H 63.8841 -3.98211 1.20695 0
M  V30 709 H 62.7601 -5.36462 1.1619 0
M  V30 710 H 63.0211 -4.41146 -0.29029 0
M  V30 711 N 62.0802 -0.821533 -1.34494 0
M  V30 712 C 63.3262 -0.409552 -1.98622 0
M  V30 713 C 63.6592 1.0244 -1.64984 0
M  V30 714 O 62.9342 1.71325 -0.920758 0
M  V30 715 C 63.2172 -0.610458 -3.54888 0
M  V30 716 C 63.0702 -2.09043 -3.98273 0
M  V30 717 C 64.3892 -0.0455379 -4.40076 0
M  V30 718 H 61.5082 -0.15028 -0.721516 0
M  V30 719 H 64.1502 -1.03384 -1.59411 0
M  V30 720 H 62.3002 -0.079044 -3.8842 0
M  V30 721 H 63.9722 -2.68537 -3.75081 0
M  V30 722 H 62.2152 -2.58139 -3.48635 0
M  V30 723 H 62.8862 -2.18182 -5.07051 0
M  V30 724 H 65.3622 -0.499557 -4.1309 0
M  V30 725 H 64.2382 -0.215922 -5.48475 0
M  V30 726 H 64.4992 1.04939 -4.29465 0
M  V30 727 N 63.5583 1.46682 -0.576371 0
M  V30 728 C 64.8073 2.01619 -0.0572825 0
M  V30 729 C 65.1203 1.45417 1.30818 0
M  V30 730 O 66.3263 1.92133 1.91825 0
M  V30 731 C 64.7823 3.59863 -0.0518371 0
M  V30 732 C 64.3903 4.25059 -1.41523 0
M  V30 733 C 66.1343 4.2248 0.413639 0
M  V30 734 C 64.0413 5.75364 -1.36785 0
M  V30 735 H 62.9713 0.753794 -0.0176448 0
M  V30 736 H 65.6223 1.68481 -0.727076 0
M  V30 737 H 64.0043 3.90048 0.683994 0
M  V30 738 H 65.1783 4.06491 -2.17029 0
M  V30 739 H 63.4933 3.7451 -1.8202 0
M  V30 740 H 66.0903 5.3265 0.467779 0
M  V30 741 H 66.4333 3.90976 1.42982 0
M  V30 742 H 66.9663 3.96897 -0.267929 0
M  V30 743 H 63.7053 6.11518 -2.36063 0
M  V30 744 H 63.2253 5.96214 -0.654895 0
M  V30 745 H 64.9043 6.37955 -1.07805 0
M  V30 746 N 65.0364 0.313813 1.54444 0
M  V30 747 C 66.2824 -0.292108 2.00685 0
M  V30 748 C 66.6154 -1.52548 1.20177 0
M  V30 749 O 65.8904 -1.92452 0.281531 0
M  V30 750 C 66.1734 -0.635968 3.5444 0
M  V30 751 C 66.0264 0.607437 4.4568 0
M  V30 752 C 67.3454 -1.45747 4.15266 0
M  V30 753 H 64.4644 -0.104697 0.729526 0
M  V30 754 H 67.1064 0.428457 1.85106 0
M  V30 755 H 65.2564 -1.24986 3.67846 0
M  V30 756 H 66.9284 1.24581 4.44159 0
M  V30 757 H 65.1714 1.23822 4.15753 0
M  V30 758 H 65.8424 0.322515 5.51057 0
M  V30 759 H 68.3184 -0.938645 4.05375 0
M  V30 760 H 67.1944 -1.66683 5.2298 0
M  V30 761 H 67.4554 -2.45063 3.67963 0
M  V30 762 N 66.5145 -1.57545 0.0417849 0
M  V30 763 C 67.7395 -1.97035 -0.647455 0
M  V30 764 C 68.1645 -0.918775 -1.64135 0
M  V30 765 O 67.5225 0.119006 -1.80909 0
M  V30 766 C 67.5705 -3.35609 -1.31905 0
M  V30 767 O 66.6745 -3.3287 -2.43457 0
M  V30 768 H 66.0155 -0.64211 -0.169086 0
M  V30 769 H 68.5455 -2.04318 0.107399 0
M  V30 770 H 68.5555 -3.72126 -1.67291 0
M  V30 771 H 67.2305 -4.11685 -0.590586 0
M  V30 772 H 65.8075 -3.08087 -2.10088 0
M  V30 773 N 67.9926 0.231505 -1.5589 0
M  V30 774 C 68.9556 1.27028 -1.90779 0
M  V30 775 C 69.9556 1.40308 -0.785507 0
M  V30 776 O 71.1456 1.38744 -1.05336 0
M  V30 777 C 68.2776 2.64566 -2.14983 0
M  V30 778 H 69.4706 0.973017 -2.83677 0
M  V30 779 H 67.0236 0.471486 -1.49019 0
M  V30 780 H 67.7586 2.99406 -1.24604 0
M  V30 781 H 67.5436 2.56305 -2.96732 0
M  V30 782 H 69.0336 3.39543 -2.43105 0
M  V30 783 N 69.4707 1.49531 0.497807 0
M  V30 784 C 70.6987 1.62893 1.27567 0
M  V30 785 C 71.1137 0.301585 1.86376 0
M  V30 786 O 70.4707 -0.713335 1.67982 0
M  V30 787 C 70.5217 2.70013 2.40364 0
M  V30 788 O 70.2427 3.976 1.83972 0
M  V30 789 C 71.7437 2.94109 3.31685 0
M  V30 790 H 68.9637 0.548298 0.386794 0
M  V30 791 H 71.5077 1.95584 0.597245 0
M  V30 792 H 69.6627 2.40092 3.04031 0
M  V30 793 H 70.0767 4.56631 2.58047 0
M  V30 794 H 71.5507 3.72788 4.07104 0
M  V30 795 H 72.0277 2.04147 3.88871 0
M  V30 796 H 72.6337 3.2546 2.73781 0
M  V30 797 N 70.9488 -0.749086 1.3866 0
M  V30 798 C 72.3648 -1.05276 1.19955 0
M  V30 799 C 72.5648 -2.01435 0.05134 0
M  V30 800 O 71.6208 -2.45232 -0.60147 0
M  V30 801 C 72.9338 -1.62853 2.52783 0
M  V30 802 C 74.4818 -1.75002 2.59506 0
M  V30 803 C 74.9568 -2.35991 3.92521 0
M  V30 804 N 76.4478 -2.43416 3.94085 0
M  V30 805 C 77.1828 -2.91511 4.9377 0
M  V30 806 N 76.6788 -3.39608 6.03853 0
M  V30 807 N 78.4718 -2.90592 4.81157 0
M  V30 808 H 70.6228 -0.111066 2.12109 0
M  V30 809 H 72.8858 -0.111901 0.941373 0
M  V30 810 H 72.5918 -0.99664 3.37283 0
M  V30 811 H 72.4658 -2.61854 2.715 0
M  V30 812 H 74.8528 -2.37317 1.75398 0
M  V30 813 H 74.9338 -0.74693 2.44652 0
M  V30 814 H 74.5778 -1.74308 4.77053 0
M  V30 815 H 74.5078 -3.3695 4.04688 0
M  V30 816 H 76.9988 -2.09405 3.14576 0
M  V30 817 H 77.3118 -3.74775 6.75843 0
M  V30 818 H 75.6568 -3.37653 6.07466 0
M  V30 819 H 78.8478 -2.52332 3.94267 0
M  V30 820 H 79.0208 -3.27762 5.58996 0
M  V30 821 N 72.4269 -1.23603 -0.977757 0
M  V30 822 C 73.6549 -1.09646 -1.75458 0
M  V30 823 C 74.0699 0.351859 -1.85492 0
M  V30 824 O 73.4269 1.24327 -1.336 0
M  V30 825 C 73.4779 -1.71895 -3.18016 0
M  V30 826 O 73.1989 -3.11063 -3.08498 0
M  V30 827 C 74.6999 -1.63415 -4.12081 0
M  V30 828 H 71.9199 -0.38359 -0.550545 0
M  V30 829 H 74.4639 -1.63507 -1.22824 0
M  V30 830 H 72.6189 -1.22061 -3.67668 0
M  V30 831 H 73.0329 -3.41305 -3.9826 0
M  V30 832 H 74.5069 -2.11669 -5.09804 0
M  V30 833 H 74.9839 -0.593462 -4.35172 0
M  V30 834 H 75.5899 -2.12628 -3.68334 0
M  V30 835 N 73.905 1.17692 -1.04816 0
M  V30 836 C 75.316 1.69501 -0.782698 0
M  V30 837 C 75.667 1.83456 0.695577 0
M  V30 838 O 74.792 1.51942 1.54086 0
M  V30 839 C 75.387 3.07874 -1.41419 0
M  V30 840 C 73.946 3.56864 -1.19686 0
M  V30 841 C 73.093 2.3322 -1.50012 0
M  V30 842 H 76.044 1.02262 -1.2136 0
M  V30 843 H 76.065 3.71528 -0.821428 0
M  V30 844 H 75.577 2.97685 -2.49009 0
M  V30 845 H 73.678 3.72337 -0.140043 0
M  V30 846 H 73.791 4.39851 -1.89916 0
M  V30 847 H 72.155 2.37501 -0.920071 0
M  V30 848 H 72.938 2.25644 -2.58727 0
M  V30 849 N 75.3831 0.828654 1.34056 0
M  V30 850 C 76.6321 0.415828 1.97367 0
M  V30 851 C 76.9451 -1.02796 1.6641 0
M  V30 852 O 78.1511 -1.54497 2.23255 0
M  V30 853 C 76.6071 0.692601 3.53173 0
M  V30 854 C 76.2151 2.15038 3.93017 0
M  V30 855 C 77.9591 0.346222 4.23086 0
M  V30 856 C 75.8661 2.37174 5.41758 0
M  V30 857 H 74.7961 0.151755 0.738571 0
M  V30 858 H 77.4471 1.01581 1.52819 0
M  V30 859 H 75.8291 0.0223764 3.95994 0
M  V30 860 H 77.0031 2.86024 3.61285 0
M  V30 861 H 75.3181 2.45875 3.36057 0
M  V30 862 H 77.9151 0.48937 5.32456 0
M  V30 863 H 78.2581 -0.709842 4.10204 0
M  V30 864 H 78.7911 0.971258 3.85761 0
M  V30 865 H 75.5301 3.41308 5.59633 0
M  V30 866 H 75.0501 1.70738 5.74986 0
M  V30 867 H 76.7291 2.19818 6.08514 0
M  V30 868 N 76.8612 -1.46375 0.584142 0
M  V30 869 C 78.1092 -2.01978 0.0701287 0
M  V30 870 C 78.4302 -1.4579 -1.295 0
M  V30 871 O 77.7002 -0.64314 -1.85042 0
M  V30 872 H 76.2802 -0.746648 0.0229345 0
M  V30 873 H 78.9422 -1.79461 0.760245 0
M  V30 874 H 78.0382 -3.121 0.0022064 0
M  V30 875 N 78.3393 -0.321999 -1.54275 0
M  V30 876 C 79.5643 0.285791 -2.05422 0
M  V30 877 C 79.9893 1.45124 -1.19669 0
M  V30 878 O 79.3473 1.80132 -0.205441 0
M  V30 879 C 79.3953 0.69956 -3.53749 0
M  V30 880 O 78.4993 1.8021 -3.70942 0
M  V30 881 H 77.8403 0.0518962 -0.661969 0
M  V30 882 H 80.3703 -0.469954 -1.9913 0
M  V30 883 H 80.3803 0.982649 -3.9599 0
M  V30 884 H 79.0553 -0.152864 -4.15619 0
M  V30 885 H 77.6323 1.51794 -3.40607 0
M  V30 886 N 79.8174 1.5752 -0.0501392 0
M  V30 887 C 81.0644 1.9265 0.623874 0
M  V30 888 C 81.3924 0.928411 1.70912 0
M  V30 889 O 80.6474 -0.0594525 1.9561 0
M  V30 890 C 80.9464 3.34467 1.25963 0
M  V30 891 C 80.6124 4.49883 0.302689 0
M  V30 892 C 79.2744 4.81184 0.0393636 0
M  V30 893 C 81.6264 5.20002 -0.353205 0
M  V30 894 C 78.9544 5.79951 -0.887308 0
M  V30 895 C 81.3064 6.1976 -1.26806 0
M  V30 896 C 79.9704 6.49491 -1.54007 0
M  V30 897 H 79.2404 0.704957 0.228292 0
M  V30 898 H 81.8874 1.91146 -0.116398 0
M  V30 899 H 80.1924 3.32333 2.07514 0
M  V30 900 H 81.8894 3.58928 1.78806 0
M  V30 901 H 78.4794 4.25457 0.518109 0
M  V30 902 H 82.6634 4.96033 -0.162854 0
M  V30 903 H 77.9194 6.01322 -1.10553 0
M  V30 904 H 82.0934 6.73205 -1.78236 0
M  V30 905 H 79.7204 7.25837 -2.25976 0
M  V30 906 N 81.2955 -0.223234 1.56011 0
M  V30 907 C 82.2255 -1.27988 1.95298 0
M  V30 908 C 83.2065 -1.48976 0.820979 0
M  V30 909 O 84.3915 -1.61188 1.08315 0
M  V30 910 C 81.5215 -2.63 2.26822 0
M  V30 911 C 80.4755 -2.56671 3.42497 0
M  V30 912 C 79.8015 -3.95697 3.59622 0
M  V30 913 C 81.1015 -2.11601 4.77517 0
M  V30 914 H 82.7955 -0.953525 2.8381 0
M  V30 915 H 80.3415 -0.457244 1.36548 0
M  V30 916 H 82.2945 -3.37077 2.52898 0
M  V30 917 H 81.0185 -2.9732 1.35161 0
M  V30 918 H 79.6775 -1.85051 3.16467 0
M  V30 919 H 79.3255 -4.27322 2.6534 0
M  V30 920 H 79.0255 -3.92345 4.37424 0
M  V30 921 H 80.5495 -4.71438 3.88044 0
M  V30 922 H 81.9635 -2.7542 5.02809 0
M  V30 923 H 80.3605 -2.19311 5.5859 0
M  V30 924 H 81.4305 -1.06824 4.72987 0
M  V30 925 N 82.7736 -1.49793 -0.48987 0
M  V30 926 C 84.0216 -1.59525 -1.24081 0
M  V30 927 C 84.3426 -0.288953 -1.92847 0
M  V30 928 O 83.6126 0.692436 -1.83254 0
M  V30 929 H 82.1926 -0.587796 -0.460983 0
M  V30 930 H 84.8546 -1.86477 -0.566778 0
M  V30 931 H 83.9506 -2.39696 -1.99881 0
M  V30 932 N 84.2517 0.741722 -1.39055 0
M  V30 933 C 85.4767 1.53607 -1.39354 0
M  V30 934 C 85.9017 1.88096 0.0116905 0
M  V30 935 O 85.2597 1.5143 0.996924 0
M  V30 936 C 85.3077 2.80441 -2.26682 0
M  V30 937 O 84.4117 3.76088 -1.69208 0
M  V30 938 H 83.7527 0.464142 -0.474835 0
M  V30 939 H 86.2827 0.915665 -1.82967 0
M  V30 940 H 86.2927 3.29246 -2.40959 0
M  V30 941 H 84.9677 2.5467 -3.2881 0
M  V30 942 H 83.5447 3.34833 -1.64138 0
M  V30 943 N 85.7298 1.2412 0.971189 0
M  V30 944 C 86.6598 1.05508 2.08304 0
M  V30 945 C 87.6408 -0.0308864 1.70072 0
M  V30 946 O 88.8258 0.135521 1.93727 0
M  V30 947 C 85.9558 0.655365 3.4106 0
M  V30 948 C 84.9098 1.68971 3.93234 0
M  V30 949 C 84.2358 1.14516 5.22293 0
M  V30 950 C 85.5358 3.08487 4.21465 0
M  V30 951 H 87.2298 1.98507 2.24132 0
M  V30 952 H 84.7758 0.955821 1.07704 0
M  V30 953 H 86.7288 0.51217 4.18276 0
M  V30 954 H 85.4528 -0.31032 3.25122 0
M  V30 955 H 84.1118 1.82106 3.18171 0
M  V30 956 H 83.7598 0.170189 5.02712 0
M  V30 957 H 83.4598 1.83635 5.58168 0
M  V30 958 H 84.9838 1.01401 6.02121 0
M  V30 959 H 86.3978 2.98601 4.89398 0
M  V30 960 H 84.7948 3.74926 4.68562 0
M  V30 961 H 85.8648 3.56787 3.28376 0
M  V30 962 N 87.2079 -1.17134 1.05439 0
M  V30 963 C 88.4329 -1.91913 0.786396 0
M  V30 964 C 88.8579 -1.7643 -0.652234 0
M  V30 965 O 88.2159 -1.08372 -1.45345 0
M  V30 966 C 88.2639 -3.40921 1.17497 0
M  V30 967 O 87.3679 -4.11244 0.308589 0
M  V30 968 H 86.7089 -0.598215 0.288158 0
M  V30 969 H 89.2389 -1.48457 1.4079 0
M  V30 970 H 89.2489 -3.91668 1.14281 0
M  V30 971 H 87.9239 -3.5151 2.22292 0
M  V30 972 H 86.5009 -3.70731 0.40157 0
M  V30 973 N 88.686 -0.835752 -1.33615 0
M  V30 974 C 89.616 -0.281739 -2.31794 0
M  V30 975 C 90.597 0.608833 -1.58831 0
M  V30 976 O 91.782 0.533035 -1.86741 0
M  V30 977 C 88.912 0.546612 -3.42971 0
M  V30 978 C 87.866 -0.247904 -4.27281 0
M  V30 979 C 87.192 0.704001 -5.30045 0
M  V30 980 C 88.492 -1.46324 -5.01385 0
M  V30 981 H 90.186 -1.10206 -2.78379 0
M  V30 982 H 87.732 -0.531388 -1.33837 0
M  V30 983 H 89.685 0.944467 -4.1068 0
M  V30 984 H 88.409 1.40011 -2.95067 0
M  V30 985 H 87.068 -0.627281 -3.61194 0
M  V30 986 H 86.716 1.55381 -4.78399 0
M  V30 987 H 86.416 0.176524 -5.87335 0
M  V30 988 H 87.94 1.09944 -6.0062 0
M  V30 989 H 89.354 -1.13871 -5.61877 0
M  V30 990 H 87.751 -1.92728 -5.6831 0
M  V30 991 H 88.821 -2.23467 -4.30338 0
M  V30 992 N 90.1641 1.46063 -0.591896 0
M  V30 993 C 91.0941 2.33172 0.123673 0
M  V30 994 C 92.0751 1.45897 0.87453 0
M  V30 995 O 93.2601 1.74698 0.848181 0
M  V30 996 C 90.3901 3.28336 1.13194 0
M  V30 997 C 89.3441 4.25124 0.495324 0
M  V30 998 C 88.6701 5.09863 1.61071 0
M  V30 999 C 89.9701 5.19143 -0.573425 0
M  V30 1000 H 91.6641 2.93252 -0.603646 0
M  V30 1001 H 89.2101 1.41014 -0.291741 0
M  V30 1002 H 91.1631 3.88137 1.64097 0
M  V30 1003 H 89.8871 2.66383 1.88965 0
M  V30 1004 H 88.5461 3.66599 0.00729452 0
M  V30 1005 H 88.1941 4.44288 2.35832 0
M  V30 1006 H 87.8941 5.75417 1.19035 0
M  V30 1007 H 89.4181 5.72529 2.12233 0
M  V30 1008 H 90.8321 5.73106 -0.1491 0
M  V30 1009 H 89.2291 5.93089 -0.914636 0
M  V30 1010 H 90.2991 4.62519 -1.45617 0
M  V30 1011 N 91.6422 0.330177 1.54103 0
M  V30 1012 C 93.0532 -0.15652 1.86043 0
M  V30 1013 C 93.4042 -1.51086 1.2517 0
M  V30 1014 O 92.5292 -2.09023 0.560217 0
M  V30 1015 C 93.1242 -0.290784 3.3755 0
M  V30 1016 C 91.6832 -0.721705 3.69416 0
M  V30 1017 C 90.8302 0.152622 2.7688 0
M  V30 1018 H 93.7812 0.550237 1.48856 0
M  V30 1019 H 93.8022 -1.12058 3.63625 0
M  V30 1020 H 93.3142 0.695068 3.81825 0
M  V30 1021 H 91.4152 -1.71706 3.30678 0
M  V30 1022 H 91.5282 -0.520869 4.7626 0
M  V30 1023 H 89.8922 -0.372894 2.51956 0
M  V30 1024 H 90.6752 1.13536 3.23982 0
M  V30 1025 N 93.1203 -1.57491 0.0584922 0
M  V30 1026 C 94.0833 -2.1085 -0.898617 0
M  V30 1027 C 95.0833 -1.02964 -1.23511 0
M  V30 1028 O 96.2733 -1.29007 -1.17059 0
M  V30 1029 C 93.4053 -2.59881 -2.20623 0
M  V30 1030 H 94.5983 -2.96715 -0.435936 0
M  V30 1031 H 92.1513 -1.55141 -0.190023 0
M  V30 1032 H 92.8863 -1.77431 -2.71457 0
M  V30 1033 H 92.6713 -3.38727 -1.97501 0
M  V30 1034 H 94.1613 -3.01285 -2.89166 0
M  V30 1035 N 94.5984 0.214957 -1.56127 0
M  V30 1036 C 95.8264 0.955092 -1.83536 0
M  V30 1037 C 96.2414 1.77677 -0.638472 0
M  V30 1038 O 95.5984 1.78219 0.392968 0
M  V30 1039 C 95.6494 1.86734 -3.09536 0
M  V30 1040 O 95.3704 1.07887 -4.24608 0
M  V30 1041 C 96.8714 2.72082 -3.4998 0
M  V30 1042 H 94.0914 0.279611 -0.609966 0
M  V30 1043 H 96.6354 0.228197 -2.03223 0
M  V30 1044 H 94.7904 2.5481 -2.91806 0
M  V30 1045 H 95.2044 1.69872 -4.9623 0
M  V30 1046 H 96.6784 3.31782 -4.41163 0
M  V30 1047 H 97.1554 3.44806 -2.7204 0
M  V30 1048 H 97.7614 2.09409 -3.70173 0
M  V30 1049 N 96.0765 1.50051 0.48192 0
M  V30 1050 C 97.0235 1.68122 1.58125 0
M  V30 1051 C 97.9935 0.522545 1.57666 0
M  V30 1052 O 99.1785 0.751844 1.75362 0
M  V30 1053 C 96.3185 1.77142 2.96167 0
M  V30 1054 C 95.4315 3.0444 3.06497 0
M  V30 1055 C 94.5665 3.04321 4.35387 0
M  V30 1056 C 93.6055 4.26118 4.3942 0
M  V30 1057 N 92.7425 4.238 5.59766 0
M  V30 1058 H 97.5825 2.6198 1.42022 0
M  V30 1059 H 95.1195 1.29877 0.690687 0
M  V30 1060 H 97.0775 1.80352 3.76203 0
M  V30 1061 H 95.7075 0.867329 3.1093 0
M  V30 1062 H 94.7595 3.10752 2.19402 0
M  V30 1063 H 96.0715 3.94426 3.05336 0
M  V30 1064 H 95.2255 3.062 5.23762 0
M  V30 1065 H 93.9645 2.12147 4.39141 0
M  V30 1066 H 92.9695 4.24463 3.49444 0
M  V30 1067 H 94.1945 5.19507 4.37366 0
M  V30 1068 H 92.1405 3.34474 5.64326 0
M  V30 1069 H 92.0575 5.07542 5.60301 0
M  V30 1070 H 93.3255 4.2981 6.50295 0
M  V30 1071 N 97.5546 -0.734337 1.39446 0
M  V30 1072 C 98.4846 -1.86155 1.40955 0
M  V30 1073 C 99.4656 -1.67898 0.272827 0
M  V30 1074 O 100.651 -1.88207 0.478743 0
M  V30 1075 C 97.7806 -3.23912 1.25294 0
M  V30 1076 C 96.7346 -3.56808 2.36373 0
M  V30 1077 C 96.0606 -4.93508 2.058 0
M  V30 1078 C 97.3606 -3.59713 3.78687 0
M  V30 1079 H 99.0546 -1.8515 2.35287 0
M  V30 1080 H 96.6006 -0.889367 1.13253 0
M  V30 1081 H 98.5536 -4.02443 1.2497 0
M  V30 1082 H 97.2776 -3.25446 0.274308 0
M  V30 1083 H 95.9366 -2.80606 2.35914 0
M  V30 1084 H 95.5846 -4.91623 1.06374 0
M  V30 1085 H 95.2846 -5.16486 2.80208 0
M  V30 1086 H 96.8086 -5.74396 2.07128 0
M  V30 1087 H 98.2226 -4.2832 3.81071 0
M  V30 1088 H 96.6196 -3.94209 4.52459 0
M  V30 1089 H 97.6896 -2.59504 4.09617 0
M  V30 1090 N 99.0327 -1.24633 -0.964593 0
M  V30 1091 C 100.281 -1.08573 -1.70459 0
M  V30 1092 C 100.602 0.375655 -1.91347 0
M  V30 1093 O 99.8717 1.26779 -1.49345 0
M  V30 1094 H 98.4517 -0.398784 -0.631649 0
M  V30 1095 H 101.114 -1.56601 -1.16026 0
M  V30 1096 H 100.21 -1.58623 -2.68785 0
M  V30 1097 N 100.511 1.16574 -1.06058 0
M  V30 1098 C 101.736 1.91493 -0.796562 0
M  V30 1099 C 102.161 1.76773 0.642868 0
M  V30 1100 O 101.519 1.09142 1.44768 0
M  V30 1101 C 101.567 3.40293 -1.19303 0
M  V30 1102 O 100.671 4.11074 -0.330394 0
M  V30 1103 H 100.012 0.596678 -0.291326 0
M  V30 1104 H 102.542 1.47708 -1.41575 0
M  V30 1105 H 102.552 3.91057 -1.16356 0
M  V30 1106 H 101.227 3.50326 -2.24153 0
M  V30 1107 H 99.8038 3.70513 -0.421225 0
M  V30 1108 N 101.989 0.842826 1.3317 0
M  V30 1109 C 103.238 0.436738 1.96915 0
M  V30 1110 C 103.551 -1.01025 1.67491 0
M  V30 1111 O 104.757 -1.5212 2.24881 0
M  V30 1112 C 103.213 0.730021 3.52418 0
M  V30 1113 C 102.821 2.19195 3.90714 0
M  V30 1114 C 104.565 0.391076 4.22695 0
M  V30 1115 C 102.472 2.42907 5.39212 0
M  V30 1116 H 101.402 0.15958 0.736919 0
M  V30 1117 H 104.053 1.03196 1.51733 0
M  V30 1118 H 102.435 0.0643755 3.95948 0
M  V30 1119 H 103.609 2.8984 3.58231 0
M  V30 1120 H 101.924 2.49425 3.33431 0
M  V30 1121 H 104.521 0.545817 5.31907 0
M  V30 1122 H 104.864 -0.666294 4.10933 0
M  V30 1123 H 105.397 1.01212 3.84709 0
M  V30 1124 H 102.136 3.47224 5.55982 0
M  V30 1125 H 101.656 1.76827 5.73142 0
M  V30 1126 H 103.335 2.2626 6.06148 0
M  V30 1127 N 103.467 -1.45747 0.599634 0
M  V30 1128 C 104.43 -2.28917 -0.113835 0
M  V30 1129 C 105.43 -1.3933 -0.802729 0
M  V30 1130 O 106.62 -1.61534 -0.652103 0
M  V30 1131 C 103.752 -3.20152 -1.17114 0
M  V30 1132 H 104.945 -2.93478 0.617289 0
M  V30 1133 H 102.498 -1.52137 0.358327 0
M  V30 1134 H 103.233 -2.60374 -1.93329 0
M  V30 1135 H 103.018 -3.86133 -0.681468 0
M  V30 1136 H 104.508 -3.82708 -1.67105 0
M  V30 1137 N 104.945 -0.338344 -1.53925 0
M  V30 1138 C 106.194 0.260732 -2.00008 0
M  V30 1139 C 106.507 1.52073 -1.23017 0
M  V30 1140 O 107.713 2.19672 -1.5955 0
M  V30 1141 C 106.169 0.51515 -3.56194 0
M  V30 1142 C 105.777 -0.728645 -4.42035 0
M  V30 1143 C 107.521 1.07337 -4.10706 0
M  V30 1144 C 105.428 -0.445315 -5.89721 0
M  V30 1145 H 104.358 0.101205 -0.747177 0
M  V30 1146 H 107.009 -0.452866 -1.77824 0
M  V30 1147 H 105.391 1.28932 -3.74423 0
M  V30 1148 H 106.565 -1.50352 -4.35581 0
M  V30 1149 H 104.88 -1.20813 -3.98489 0
M  V30 1150 H 107.477 1.30022 -5.18651 0
M  V30 1151 H 107.82 2.0273 -3.63602 0
M  V30 1152 H 108.353 0.360034 -3.96167 0
M  V30 1153 H 105.092 -1.36883 -6.41049 0
M  V30 1154 H 104.612 0.291569 -5.99091 0
M  V30 1155 H 106.291 -0.0606218 -6.46972 0
M  V30 1156 N 106.423 1.57458 -0.0668435 0
M  V30 1157 C 107.355 2.09413 0.931601 0
M  V30 1158 C 108.368 1.02522 1.26464 0
M  V30 1159 O 109.557 1.30049 1.22269 0
M  V30 1160 C 106.657 2.53537 2.24882 0
M  V30 1161 C 105.83 3.83944 2.09537 0
M  V30 1162 C 104.889 4.14214 3.2452 0
M  V30 1163 O 103.915 4.83891 2.9973 0
M  V30 1164 N 105.117 3.67367 4.49469 0
M  V30 1165 H 107.882 2.95699 0.488048 0
M  V30 1166 H 105.443 1.61462 0.119009 0
M  V30 1167 H 107.435 2.70853 3.00701 0
M  V30 1168 H 106.005 1.72415 2.60753 0
M  V30 1169 H 105.225 3.76057 1.18215 0
M  V30 1170 H 106.513 4.69312 1.96529 0
M  V30 1171 H 105.911 3.11068 4.72497 0
M  V30 1172 H 104.468 3.89891 5.2233 0
M  V30 1173 N 107.901 -0.206675 1.56239 0
M  V30 1174 C 109.149 -0.927007 1.79586 0
M  V30 1175 C 109.47 -1.8427 0.637929 0
M  V30 1176 O 108.74 -1.92849 -0.344398 0
M  V30 1177 H 107.32 -0.345292 0.662407 0
M  V30 1178 H 109.982 -0.21496 1.93711 0
M  V30 1179 H 109.078 -1.52501 2.72305 0
M  V30 1180 N 109.379 -1.50304 -0.473955 0
M  V30 1181 C 110.342 -1.6841 -1.55469 0
M  V30 1182 C 111.342 -0.554905 -1.50922 0
M  V30 1183 O 112.532 -0.821882 -1.53593 0
M  V30 1184 C 109.664 -1.70667 -2.95102 0
M  V30 1185 H 110.857 -2.64828 -1.40733 0
M  V30 1186 H 108.41 -1.39742 -0.700132 0
M  V30 1187 H 109.145 -0.75932 -3.15285 0
M  V30 1188 H 108.93 -2.52698 -2.9981 0
M  V30 1189 H 110.42 -1.8664 -3.73571 0
M  V30 1190 N 110.857 0.726932 -1.39834 0
M  V30 1191 C 112.106 1.48214 -1.36805 0
M  V30 1192 C 112.419 1.95576 0.0305291 0
M  V30 1193 O 113.625 2.7088 0.183417 0
M  V30 1194 C 112.081 2.67854 -2.40379 0
M  V30 1195 C 111.689 2.27408 -3.85992 0
M  V30 1196 C 113.433 3.45641 -2.46439 0
M  V30 1197 C 111.34 3.43819 -4.81189 0
M  V30 1198 H 110.27 0.556606 -0.508631 0
M  V30 1199 H 112.921 0.792216 -1.65518 0
M  V30 1200 H 111.303 3.3896 -2.04749 0
M  V30 1201 H 112.477 1.63795 -4.30706 0
M  V30 1202 H 110.792 1.62692 -3.83302 0
M  V30 1203 H 113.389 4.32244 -3.14753 0
M  V30 1204 H 113.732 3.88669 -1.49139 0
M  V30 1205 H 114.265 2.8157 -2.81004 0
M  V30 1206 H 111.004 3.05834 -5.79781 0
M  V30 1207 H 110.524 4.06385 -4.41148 0
M  V30 1208 H 112.203 4.10043 -5.00474 0
M  V30 1209 N 112.336 1.25143 0.95797 0
M  V30 1210 C 113.246 1.06968 2.08794 0
M  V30 1211 C 114.262 0.00773911 1.73998 0
M  V30 1212 O 115.438 0.207972 2.00323 0
M  V30 1213 C 112.503 0.68691 3.39827 0
M  V30 1214 C 111.564 1.82641 3.88511 0
M  V30 1215 C 110.797 1.46181 5.1329 0
M  V30 1216 O 111.02 0.355971 5.69288 0
M  V30 1217 O 109.954 2.29085 5.566 0
M  V30 1218 H 113.78 2.01723 2.27027 0
M  V30 1219 H 111.365 1.04051 1.07209 0
M  V30 1220 H 113.247 0.485417 4.18595 0
M  V30 1221 H 111.922 -0.231417 3.22872 0
M  V30 1222 H 110.829 2.08274 3.10762 0
M  V30 1223 H 112.162 2.72386 4.09959 0
M  V30 1224 N 113.814 -1.1601 1.06675 0
M  V30 1225 C 114.761 -2.20525 0.680967 0
M  V30 1226 C 115.731 -1.62904 -0.324283 0
M  V30 1227 O 116.916 -1.89615 -0.212294 0
M  V30 1228 C 114.056 -3.45013 0.0776551 0
M  V30 1229 C 113.169 -4.16863 1.13355 0
M  V30 1230 C 112.304 -5.2888 0.49597 0
M  V30 1231 C 111.343 -5.92537 1.53513 0
M  V30 1232 N 110.48 -6.96038 0.920631 0
M  V30 1233 H 115.32 -2.52876 1.57663 0
M  V30 1234 H 112.857 -1.24199 0.788223 0
M  V30 1235 H 114.815 -4.16193 -0.289704 0
M  V30 1236 H 113.445 -3.132 -0.781393 0
M  V30 1237 H 112.497 -3.44248 1.61857 0
M  V30 1238 H 113.809 -4.60294 1.92174 0
M  V30 1239 H 112.963 -6.06653 0.0758604 0
M  V30 1240 H 111.702 -4.86622 -0.324062 0
M  V30 1241 H 110.707 -5.13482 1.9651 0
M  V30 1242 H 111.932 -6.36873 2.35733 0
M  V30 1243 H 109.878 -6.55888 0.12138 0
M  V30 1244 H 109.795 -7.3786 1.64616 0
M  V30 1245 H 111.063 -7.77725 0.525795 0
M  V30 1246 N 115.292 -0.849877 -1.32721 0
M  V30 1247 C 116.255 -0.296122 -2.27279 0
M  V30 1248 C 117.255 0.541458 -1.5141 0
M  V30 1249 O 118.445 0.353658 -1.70572 0
M  V30 1250 C 115.577 0.581579 -3.35902 0
M  V30 1251 H 116.77 -1.13064 -2.77771 0
M  V30 1252 H 114.323 -0.62383 -1.43311 0
M  V30 1253 H 115.058 1.43809 -2.9067 0
M  V30 1254 H 114.843 -0.0178814 -3.92096 0
M  V30 1255 H 116.333 0.961951 -4.0637 0
M  V30 1256 N 116.77 1.45427 -0.607355 0
M  V30 1257 C 118.018 2.01841 -0.102253 0
M  V30 1258 C 118.339 1.47832 1.27164 0
M  V30 1259 O 117.609 0.672497 1.83995 0
M  V30 1260 H 116.189 0.746188 -0.0348101 0
M  V30 1261 H 118.851 1.78229 -0.7887 0
M  V30 1262 H 117.947 3.12057 -0.0518585 0
M  V30 1263 N 118.248 0.346503 1.53744 0
M  V30 1264 C 119.497 -0.250122 2.00143 0
M  V30 1265 C 119.81 -1.51418 1.23822 0
M  V30 1266 O 121.016 -2.18823 1.60713 0
M  V30 1267 C 119.472 -0.496252 3.56462 0
M  V30 1268 C 119.08 0.752077 4.41642 0
M  V30 1269 C 120.824 -1.05157 4.11269 0
M  V30 1270 C 118.731 0.476583 5.89477 0
M  V30 1271 H 117.661 -0.0972409 0.747703 0
M  V30 1272 H 120.312 0.46229 1.77581 0
M  V30 1273 H 118.694 -1.26944 3.75102 0
M  V30 1274 H 119.868 1.5266 4.34778 0
M  V30 1275 H 118.183 1.22925 3.97842 0
M  V30 1276 H 120.78 -1.27269 5.19333 0
M  V30 1277 H 121.123 -2.00799 3.64672 0
M  V30 1278 H 121.656 -0.339019 3.96353 0
M  V30 1279 H 118.395 1.4028 6.40314 0
M  V30 1280 H 117.915 -0.259794 5.99237 0
M  V30 1281 H 119.594 0.0949315 6.4693 0
M  V30 1282 N 119.726 -1.57421 0.075193 0
M  V30 1283 C 121.137 -1.81021 -0.456964 0
M  V30 1284 C 121.488 -0.98936 -1.69429 0
M  V30 1285 O 120.613 -0.212865 -2.15351 0
M  V30 1286 C 121.208 -3.28329 -0.83581 0
M  V30 1287 C 119.767 -3.52764 -1.31281 0
M  V30 1288 C 118.914 -2.75676 -0.299648 0
M  V30 1289 H 121.865 -1.55822 0.300856 0
M  V30 1290 H 121.886 -3.40564 -1.69696 0
M  V30 1291 H 121.398 -3.88046 0.0649238 0
M  V30 1292 H 119.499 -2.98355 -2.23193 0
M  V30 1293 H 119.612 -4.61451 -1.28839 0
M  V30 1294 H 117.976 -2.42538 -0.777641 0
M  V30 1295 H 118.759 -3.38132 0.593417 0
M  V30 1296 N 121.204 0.198386 -1.56346 0
M  V30 1297 C 122.151 1.24589 -1.94284 0
M  V30 1298 C 123.121 1.454 -0.802997 0
M  V30 1299 O 124.306 1.58588 -1.06087 0
M  V30 1300 C 121.446 2.58631 -2.28482 0
M  V30 1301 C 120.559 2.45426 -3.55514 0
M  V30 1302 C 119.694 3.7215 -3.79049 0
M  V30 1303 C 118.733 3.53763 -4.99518 0
M  V30 1304 N 117.87 4.72491 -5.19323 0
M  V30 1305 H 122.71 0.915356 -2.83593 0
M  V30 1306 H 120.247 0.440629 -1.40346 0
M  V30 1307 H 122.205 3.3672 -2.46324 0
M  V30 1308 H 120.835 2.89734 -1.42317 0
M  V30 1309 H 119.887 1.58652 -3.45737 0
M  V30 1310 H 121.199 2.27772 -4.43758 0
M  V30 1311 H 120.353 4.58679 -3.97113 0
M  V30 1312 H 119.092 3.92754 -2.89129 0
M  V30 1313 H 118.097 2.65619 -4.8138 0
M  V30 1314 H 119.322 3.34607 -5.90944 0
M  V30 1315 H 117.268 4.93365 -4.3235 0
M  V30 1316 H 117.185 4.5765 -6.01741 0
M  V30 1317 H 118.453 5.6038 -5.41843 0
M  V30 1318 N 122.682 1.50554 0.465978 0
M  V30 1319 C 123.592 1.72585 1.58907 0
M  V30 1320 C 124.608 0.60911 1.6299 0
M  V30 1321 O 125.784 0.88804 1.80765 0
M  V30 1322 C 122.849 1.81995 2.95091 0
M  V30 1323 C 121.91 3.05751 3.01355 0
M  V30 1324 C 121.143 3.14702 4.31043 0
M  V30 1325 O 121.366 2.30313 5.21835 0
M  V30 1326 O 120.3 4.07468 4.43005 0
M  V30 1327 H 124.126 2.67799 1.43239 0
M  V30 1328 H 121.711 1.34711 0.646013 0
M  V30 1329 H 123.593 1.90335 3.75966 0
M  V30 1330 H 122.268 0.899659 3.10947 0
M  V30 1331 H 121.175 3.02908 2.19539 0
M  V30 1332 H 122.508 3.97375 2.90437 0
M  V30 1333 N 124.16 -0.719506 1.40217 0
M  V30 1334 C 125.07 -1.86378 1.42479 0
M  V30 1335 C 126.086 -1.71073 0.317834 0
M  V30 1336 O 127.262 -1.93406 0.561794 0
M  V30 1337 C 124.327 -3.22136 1.28178 0
M  V30 1338 C 123.388 -3.49723 2.48982 0
M  V30 1339 C 122.621 -4.79004 2.35353 0
M  V30 1340 O 122.844 -5.53821 1.36524 0
M  V30 1341 O 121.778 -5.06839 3.2465 0
M  V30 1342 H 125.604 -1.87425 2.38968 0
M  V30 1343 H 123.189 -0.869405 1.21498 0
M  V30 1344 H 125.071 -4.03234 1.22395 0
M  V30 1345 H 123.746 -3.21825 0.347934 0
M  V30 1346 H 122.653 -2.6865 2.60342 0
M  V30 1347 H 123.986 -3.54828 3.41113 0
M  V30 1348 N 125.638 -1.25649 -0.95132 0
M  V30 1349 C 126.884 -1.10757 -1.69884 0
M  V30 1350 C 127.217 0.350061 -1.91019 0
M  V30 1351 O 126.492 1.25783 -1.48354 0
M  V30 1352 C 126.775 -1.86606 -3.07978 0
M  V30 1353 C 126.628 -3.40217 -2.94232 0
M  V30 1354 C 127.947 -1.65182 -4.07925 0
M  V30 1355 H 125.066 -0.40374 -0.616574 0
M  V30 1356 H 127.708 -1.54521 -1.10558 0
M  V30 1357 H 125.858 -1.49409 -3.58621 0
M  V30 1358 H 127.53 -3.87108 -2.50889 0
M  V30 1359 H 125.773 -3.67759 -2.30078 0
M  V30 1360 H 126.444 -3.88505 -3.92133 0
M  V30 1361 H 128.92 -1.9757 -3.66204 0
M  V30 1362 H 127.796 -2.20683 -5.02583 0
M  V30 1363 H 128.057 -0.593933 -4.38092 0
M  V30 1364 N 127.117 1.15442 -1.07289 0
M  V30 1365 C 128.064 2.20161 -0.692653 0
M  V30 1366 C 129.034 1.63073 0.31564 0
M  V30 1367 O 130.219 1.89725 0.202235 0
M  V30 1368 C 127.359 3.44967 -0.0959509 0
M  V30 1369 C 126.472 4.16256 -1.15564 0
M  V30 1370 C 125.607 5.28609 -0.524011 0
M  V30 1371 C 124.646 5.91715 -1.56653 0
M  V30 1372 N 123.783 6.9554 -0.957531 0
M  V30 1373 H 128.623 2.52037 -1.59002 0
M  V30 1374 H 126.16 1.2378 -0.794798 0
M  V30 1375 H 128.118 4.16341 0.267628 0
M  V30 1376 H 126.748 3.1361 0.764772 0
M  V30 1377 H 125.8 3.43385 -1.6368 0
M  V30 1378 H 127.112 4.59268 -1.94613 0
M  V30 1379 H 126.266 6.06604 -0.108032 0
M  V30 1380 H 125.005 4.86787 0.29825 0
M  V30 1381 H 124.01 5.12433 -1.9923 0
M  V30 1382 H 125.235 6.35614 -2.39107 0
M  V30 1383 H 123.181 6.55814 -0.156162 0
M  V30 1384 H 123.098 7.36977 -1.68526 0
M  V30 1385 H 124.366 7.77435 -0.567032 0
M  V30 1386 N 128.595 0.856903 1.32268 0
M  V30 1387 C 129.505 0.306131 2.32594 0
M  V30 1388 C 130.521 -0.577209 1.64147 0
M  V30 1389 O 131.697 -0.477043 1.95669 0
M  V30 1390 C 128.762 -0.494561 3.43154 0
M  V30 1391 C 127.823 0.415186 4.27288 0
M  V30 1392 C 127.056 -0.347387 5.32568 0
M  V30 1393 O 127.279 -1.57708 5.48165 0
M  V30 1394 O 126.213 0.287982 6.01211 0
M  V30 1395 H 130.039 1.13737 2.81598 0
M  V30 1396 H 127.624 0.619902 1.35932 0
M  V30 1397 H 129.506 -0.948944 4.10576 0
M  V30 1398 H 128.181 -1.30257 2.96336 0
M  V30 1399 H 127.088 0.917793 3.62667 0
M  V30 1400 H 128.421 1.18844 4.77637 0
M  V30 1401 N 130.073 -1.45103 0.615059 0
M  V30 1402 C 131.036 -2.29025 -0.0895485 0
M  V30 1403 C 132.036 -1.40174 -0.787906 0
M  V30 1404 O 133.226 -1.62217 -0.634933 0
M  V30 1405 C 130.358 -3.21376 -1.13711 0
M  V30 1406 H 131.551 -2.92807 0.648382 0
M  V30 1407 H 129.104 -1.51749 0.374444 0
M  V30 1408 H 129.839 -2.6241 -1.90556 0
M  V30 1409 H 129.624 -3.86834 -0.640475 0
M  V30 1410 H 131.114 -3.84459 -1.63036 0
M  V30 1411 N 131.551 -0.354651 -1.53558 0
M  V30 1412 C 132.781 0.239167 -2.05211 0
M  V30 1413 C 133.189 1.43879 -1.22863 0
M  V30 1414 O 132.532 1.81857 -0.259565 0
M  V30 1415 C 132.594 0.707251 -3.52474 0
M  V30 1416 C 132.258 -0.374212 -4.55465 0
M  V30 1417 C 133.255 -1.22054 -5.0537 0
M  V30 1418 C 130.94 -0.531323 -4.99482 0
M  V30 1419 C 132.934 -2.20942 -5.97882 0
M  V30 1420 C 130.621 -1.52358 -5.91802 0
M  V30 1421 C 131.619 -2.36108 -6.40892 0
M  V30 1422 O 131.307 -3.33643 -7.31394 0
M  V30 1423 H 131.039 0.0479716 -0.674296 0
M  V30 1424 H 133.593 -0.508121 -1.99016 0
M  V30 1425 H 131.823 1.50596 -3.56171 0
M  V30 1426 H 133.512 1.22285 -3.87042 0
M  V30 1427 H 134.278 -1.1103 -4.7212 0
M  V30 1428 H 130.157 0.110738 -4.60867 0
M  V30 1429 H 133.701 -2.86348 -6.36121 0
M  V30 1430 H 129.598 -1.63434 -6.24467 0
M  V30 1431 H 130.366 -3.29244 -7.4936 0
M  V30 1432 N 133.029 1.57378 -0.0835403 0
M  V30 1433 C 133.962 2.09016 0.915833 0
M  V30 1434 C 134.94 0.997993 1.2837 0
M  V30 1435 O 136.124 1.27219 1.39096 0
M  V30 1436 C 133.251 2.55757 2.22049 0
M  V30 1437 C 132.297 3.76522 2.00333 0
M  V30 1438 S 133.13 5.20661 1.25191 0
M  V30 1439 C 134.286 5.70743 2.56912 0
M  V30 1440 H 134.519 2.93457 0.476492 0
M  V30 1441 H 132.052 1.53856 0.129493 0
M  V30 1442 H 134.01 2.83346 2.97027 0
M  V30 1443 H 132.671 1.71564 2.63106 0
M  V30 1444 H 131.864 4.07256 2.96916 0
M  V30 1445 H 131.466 3.49367 1.33488 0
M  V30 1446 H 133.758 5.78304 3.52946 0
M  V30 1447 H 134.701 6.6944 2.30772 0
M  V30 1448 H 135.109 4.98616 2.64655 0
M  V30 1449 N 134.507 -0.190092 1.56449 0
M  V30 1450 C 135.755 -0.907908 1.80559 0
M  V30 1451 C 136.076 -1.83583 0.657438 0
M  V30 1452 O 135.346 -1.93203 -0.323924 0
M  V30 1453 H 133.926 -0.338247 0.666032 0
M  V30 1454 H 136.588 -0.194403 1.93928 0
M  V30 1455 H 135.684 -1.49604 2.73907 0
M  V30 1456 N 135.985 -1.50799 -0.457987 0
M  V30 1457 C 136.933 -1.71162 -1.575 0
M  V30 1458 C 137.927 -0.577592 -1.59249 0
M  V30 1459 O 139.133 -0.758443 -1.63241 0
M  V30 1460 H 135.508 -0.540468 -0.522875 0
M  V30 1461 H 137.479 -2.64837 -1.37492 0
M  V30 1462 C 136.228 -1.83496 -2.95338 0
M  V30 1463 H 135.551 -2.70153 -2.94716 0
M  V30 1464 H 136.991 -2.01765 -3.72917 0
M  V30 1465 C 135.45 -0.589694 -3.31699 0
M  V30 1466 O 135.98 0.265163 -4.00824 0
M  V30 1467 N 134.186 -0.439845 -2.87252 0
M  V30 1468 H 133.733 -1.13655 -2.31172 0
M  V30 1469 H 133.691 0.392159 -3.11945 0
M  V30 1470 N 137.463 0.71206 -1.40597 0
M  V30 1471 C 138.709 1.47416 -1.39271 0
M  V30 1472 C 139.042 1.942 0.00388791 0
M  V30 1473 O 138.317 1.68403 0.973179 0
M  V30 1474 C 138.6 2.69774 -2.38525 0
M  V30 1475 C 138.453 2.28861 -3.87224 0
M  V30 1476 C 139.772 3.71939 -2.35264 0
M  V30 1477 H 136.891 0.534713 -0.5072 0
M  V30 1478 H 139.533 0.812375 -1.71757 0
M  V30 1479 H 137.683 3.26238 -2.10953 0
M  V30 1480 H 139.355 1.77852 -4.25636 0
M  V30 1481 H 137.598 1.60824 -4.02887 0
M  V30 1482 H 138.269 3.16584 -4.52193 0
M  V30 1483 H 140.745 3.25113 -2.59694 0
M  V30 1484 H 139.621 4.55186 -3.06753 0
M  V30 1485 H 139.882 4.20484 -1.36549 0
M  V30 1486 N 138.941 1.26152 0.944643 0
M  V30 1487 C 139.871 1.09902 2.06019 0
M  V30 1488 C 140.852 0.00519538 1.70099 0
M  V30 1489 O 142.037 0.176583 1.93396 0
M  V30 1490 C 139.167 0.727562 3.39594 0
M  V30 1491 C 138.121 1.77274 3.89561 0
M  V30 1492 C 137.447 1.25569 5.19747 0
M  V30 1493 C 138.747 3.17357 4.14827 0
M  V30 1494 H 140.441 2.03217 2.19871 0
M  V30 1495 H 137.987 0.978452 1.05652 0
M  V30 1496 H 139.94 0.600777 4.17095 0
M  V30 1497 H 138.664 -0.241287 3.25707 0
M  V30 1498 H 137.323 1.88814 3.14237 0
M  V30 1499 H 136.971 0.276783 5.02238 0
M  V30 1500 H 136.671 1.95433 5.54148 0
M  V30 1501 H 138.195 1.1415 5.99835 0
M  V30 1502 H 139.609 3.08914 4.82954 0
M  V30 1503 H 138.006 3.84781 4.60504 0
M  V30 1504 H 139.076 3.63673 3.20734 0
M  V30 1505 N 140.419 -1.14872 1.07899 0
M  V30 1506 C 141.351 -2.19425 0.662231 0
M  V30 1507 C 142.364 -1.60231 -0.288079 0
M  V30 1508 O 143.553 -1.78336 -0.076534 0
M  V30 1509 C 140.653 -3.38867 -0.0470695 0
M  V30 1510 C 139.826 -4.27597 0.920831 0
M  V30 1511 C 138.885 -5.25616 0.247805 0
M  V30 1512 O 137.911 -5.62189 0.890599 0
M  V30 1513 N 139.113 -5.71746 -1.00435 0
M  V30 1514 H 141.878 -2.55797 1.56166 0
M  V30 1515 H 139.439 -1.30042 0.964404 0
M  V30 1516 H 141.431 -4.01497 -0.50813 0
M  V30 1517 H 140.001 -3.00864 -0.848523 0
M  V30 1518 H 139.221 -3.61982 1.56087 0
M  V30 1519 H 140.509 -4.83748 1.57688 0
M  V30 1520 H 139.907 -5.44153 -1.54642 0
M  V30 1521 H 138.464 -6.36389 -1.40899 0
M  V30 1522 N 141.898 -0.863906 -1.31812 0
M  V30 1523 C 143.146 -0.470904 -1.96537 0
M  V30 1524 C 143.467 0.978771 -1.68657 0
M  V30 1525 O 142.737 1.6853 -0.998717 0
M  V30 1526 H 141.317 -0.171148 -0.72713 0
M  V30 1527 H 143.979 -1.10236 -1.60729 0
M  V30 1528 H 143.075 -0.623616 -3.05806 0
M  V30 1529 N 143.376 1.44774 -0.622745 0
M  V30 1530 C 144.624 2.01721 -0.123655 0
M  V30 1531 C 144.945 1.49172 1.25589 0
M  V30 1532 O 144.215 0.691974 1.83272 0
M  V30 1533 H 142.795 0.745777 -0.0427225 0
M  V30 1534 H 145.457 1.77382 -0.807559 0
M  V30 1535 H 144.553 3.11984 -0.0849534 0
M  V30 1536 N 144.854 0.36279 1.53368 0
M  V30 1537 C 145.764 -0.492994 2.29362 0
M  V30 1538 C 146.78 -1.09507 1.35219 0
M  V30 1539 O 147.956 -1.10662 1.68273 0
M  V30 1540 C 145.021 -1.61855 3.066 0
M  V30 1541 C 144.082 -1.04429 4.16405 0
M  V30 1542 C 143.315 -2.11621 4.89951 0
M  V30 1543 O 143.538 -3.32684 4.63333 0
M  V30 1544 O 142.472 -1.74835 5.75948 0
M  V30 1545 H 146.298 0.125331 3.03441 0
M  V30 1546 H 143.883 0.127253 1.48857 0
M  V30 1547 H 145.765 -2.27302 3.54841 0
M  V30 1548 H 144.44 -2.22233 2.3536 0
M  V30 1549 H 143.347 -0.353819 3.72423 0
M  V30 1550 H 144.68 -0.485113 4.89804 0
M  V30 1551 N 146.332 -1.57332 0.0918853 0
M  V30 1552 C 147.58 -1.93853 -0.571446 0
M  V30 1553 C 147.901 -0.974212 -1.6892 0
M  V30 1554 O 147.171 -0.0257254 -1.95883 0
M  V30 1555 H 145.751 -0.715666 -0.214082 0
M  V30 1556 H 148.413 -1.94287 0.154464 0
M  V30 1557 H 147.509 -2.96191 -0.983729 0
M  V30 1558 N 147.81 0.181792 -1.56548 0
M  V30 1559 C 148.742 1.24956 -1.92142 0
M  V30 1560 C 149.755 1.41022 -0.813422 0
M  V30 1561 O 150.944 1.41212 -1.09186 0
M  V30 1562 C 148.044 2.61981 -2.14987 0
M  V30 1563 C 147.217 2.6735 -3.46183 0
M  V30 1564 C 146.276 3.85664 -3.5798 0
M  V30 1565 O 145.302 3.72148 -4.30691 0
M  V30 1566 N 146.504 5.01683 -2.92053 0
M  V30 1567 H 149.269 0.947329 -2.84334 0
M  V30 1568 H 146.83 0.371629 -1.57577 0
M  V30 1569 H 148.822 3.3958 -2.20154 0
M  V30 1570 H 147.392 2.84637 -1.2923 0
M  V30 1571 H 146.612 1.75925 -3.52766 0
M  V30 1572 H 147.9 2.67939 -4.32534 0
M  V30 1573 H 147.298 5.15564 -2.32832 0
M  V30 1574 H 145.855 5.77181 -3.0283 0
M  V30 1575 N 149.288 1.51039 0.449983 0
M  V30 1576 C 150.251 1.70863 1.5277 0
M  V30 1577 C 151.251 0.578846 1.5002 0
M  V30 1578 O 152.441 0.846213 1.52266 0
M  V30 1579 C 149.573 1.75341 2.9235 0
M  V30 1580 H 150.766 2.67034 1.36502 0
M  V30 1581 H 148.319 1.40838 0.677812 0
M  V30 1582 H 149.054 0.809383 3.14037 0
M  V30 1583 H 148.839 2.57436 2.95752 0
M  V30 1584 H 150.329 1.92559 3.70555 0
M  V30 1585 N 150.766 -0.704594 1.40972 0
M  V30 1586 C 152.177 -1.28418 1.3552 0
M  V30 1587 C 152.528 -1.96171 0.0339434 0
M  V30 1588 O 151.653 -1.98231 -0.867944 0
M  V30 1589 C 152.248 -2.33528 2.45459 0
M  V30 1590 C 150.807 -2.87085 2.43433 0
M  V30 1591 C 149.954 -1.61007 2.2577 0
M  V30 1592 H 152.905 -0.499963 1.50619 0
M  V30 1593 H 152.926 -3.14619 2.13998 0
M  V30 1594 H 152.438 -1.84187 3.41609 0
M  V30 1595 H 150.539 -3.40626 1.51013 0
M  V30 1596 H 150.652 -3.3813 3.39419 0
M  V30 1597 H 149.016 -1.86482 1.73483 0
M  V30 1598 H 149.799 -1.13675 3.23933 0
M  V30 1599 N 152.244 -1.26651 -0.937939 0
M  V30 1600 C 153.472 -1.15173 -1.7188 0
M  V30 1601 C 153.887 0.292668 -1.86518 0
M  V30 1602 O 153.244 1.20014 -1.37488 0
M  V30 1603 C 153.295 -1.81925 -3.12387 0
M  V30 1604 O 153.016 -3.2072 -2.98446 0
M  V30 1605 C 154.517 -1.76442 -4.06673 0
M  V30 1606 H 151.737 -0.400911 -0.538063 0
M  V30 1607 H 154.281 -1.67332 -1.1756 0
M  V30 1608 H 152.436 -1.33696 -3.63599 0
M  V30 1609 H 152.85 -3.53802 -3.872 0
M  V30 1610 H 154.324 -2.27781 -5.02812 0
M  V30 1611 H 154.801 -0.731608 -4.33064 0
M  V30 1612 H 155.407 -2.24238 -3.61382 0
M  V30 1613 N 153.722 1.14298 -1.08507 0
M  V30 1614 C 155.138 1.37347 -0.812901 0
M  V30 1615 C 155.338 1.93052 0.577325 0
M  V30 1616 O 154.394 2.14389 1.33393 0
M  V30 1617 C 155.707 2.33359 -1.89642 0
M  V30 1618 C 157.255 2.46996 -1.92255 0
M  V30 1619 C 157.73 3.46309 -2.99724 0
M  V30 1620 N 159.221 3.53853 -2.98902 0
M  V30 1621 C 159.956 4.3055 -3.787 0
M  V30 1622 N 159.452 5.10482 -4.6838 0
M  V30 1623 N 161.245 4.25757 -3.66998 0
M  V30 1624 H 153.396 0.764867 -1.9815 0
M  V30 1625 H 155.659 0.398966 -0.859959 0
M  V30 1626 H 155.365 1.99565 -2.89597 0
M  V30 1627 H 155.239 3.33274 -1.76659 0
M  V30 1628 H 157.626 2.80081 -0.929445 0
M  V30 1629 H 157.707 1.47039 -2.09316 0
M  V30 1630 H 157.351 3.13957 -3.99241 0
M  V30 1631 H 157.281 4.46049 -2.79907 0
M  V30 1632 H 159.772 2.96812 -2.33904 0
M  V30 1633 H 160.085 5.66284 -5.25873 0
M  V30 1634 H 158.43 5.09747 -4.72422 0
M  V30 1635 H 161.621 3.62383 -2.96304 0
M  V30 1636 H 161.794 4.85279 -4.29427 0
M  V30 1637 N 155.201 0.870884 1.31352 0
M  V30 1638 C 156.133 0.28455 2.27427 0
M  V30 1639 C 157.146 -0.552927 1.53123 0
M  V30 1640 O 158.335 -0.374771 1.74521 0
M  V30 1641 C 155.435 -0.615164 3.3327 0
M  V30 1642 C 154.608 0.190079 4.36987 0
M  V30 1643 C 153.667 -0.637917 5.22319 0
M  V30 1644 O 152.693 -0.065626 5.69162 0
M  V30 1645 N 153.895 -1.94973 5.46778 0
M  V30 1646 H 156.66 1.11017 2.7838 0
M  V30 1647 H 154.221 0.732458 1.44384 0
M  V30 1648 H 156.213 -1.1748 3.87273 0
M  V30 1649 H 154.783 -1.34146 2.82354 0
M  V30 1650 H 154.003 0.931165 3.83044 0
M  V30 1651 H 155.291 0.742579 5.03352 0
M  V30 1652 H 154.689 -2.4378 5.10478 0
M  V30 1653 H 153.246 -2.45713 6.03712 0
M  V30 1654 N 156.679 -1.44442 0.630414 0
M  V30 1655 C 157.642 -2.29107 -0.0652523 0
M  V30 1656 C 158.642 -1.41002 -0.772995 0
M  V30 1657 O 159.832 -1.62881 -0.617692 0
M  V30 1658 C 156.964 -3.22564 -1.10296 0
M  V30 1659 H 158.157 -2.92103 0.679401 0
M  V30 1660 H 155.71 -1.51343 0.390517 0
M  V30 1661 H 156.445 -2.64416 -1.87762 0
M  V30 1662 H 156.23 -3.87491 -0.59941 0
M  V30 1663 H 157.72 -3.86167 -1.5895 0
M  V30 1664 N 158.157 -0.370918 -1.53173 0
M  V30 1665 C 159.403 0.217423 -2.01631 0
M  V30 1666 C 159.736 1.47983 -1.25756 0
M  V30 1667 O 159.011 1.91274 -0.352764 0
M  V30 1668 C 159.294 0.503982 -3.56556 0
M  V30 1669 C 159.147 -0.77243 -4.43118 0
M  V30 1670 C 160.466 1.30234 -4.20389 0
M  V30 1671 H 157.585 0.0775486 -0.732909 0
M  V30 1672 H 160.227 -0.496863 -1.83388 0
M  V30 1673 H 158.377 1.11248 -3.72231 0
M  V30 1674 H 160.049 -1.4098 -4.39229 0
M  V30 1675 H 158.292 -1.39167 -4.10871 0
M  V30 1676 H 158.963 -0.526815 -5.4948 0
M  V30 1677 H 161.439 0.787546 -4.08579 0
M  V30 1678 H 160.315 1.47158 -5.28806 0
M  V30 1679 H 160.576 2.31237 -3.76805 0
M  V30 1680 N 159.635 1.57281 -0.100228 0
M  V30 1681 C 160.565 2.17328 0.853857 0
M  V30 1682 C 161.546 1.10804 1.2906 0
M  V30 1683 O 162.731 1.38963 1.35657 0
M  V30 1684 C 159.861 2.75772 2.11109 0
M  V30 1685 C 158.815 3.87713 1.81279 0
M  V30 1686 C 158.141 4.32882 3.13874 0
M  V30 1687 C 159.441 5.10677 1.09574 0
M  V30 1688 H 161.135 2.97305 0.353545 0
M  V30 1689 H 158.681 1.43009 0.168612 0
M  V30 1690 H 160.634 3.16433 2.78296 0
M  V30 1691 H 159.358 1.93057 2.63432 0
M  V30 1692 H 158.017 3.476 1.16489 0
M  V30 1693 H 157.665 3.47051 3.64095 0
M  V30 1694 H 157.365 5.08358 2.94696 0
M  V30 1695 H 158.889 4.7618 3.82211 0
M  V30 1696 H 160.303 5.48474 1.66879 0
M  V30 1697 H 158.7 5.91615 1.00557 0
M  V30 1698 H 159.77 4.84835 0.0793299 0
M  V30 1699 N 161.113 -0.173488 1.56642 0
M  V30 1700 C 162.361 -0.888706 1.81512 0
M  V30 1701 C 162.682 -1.82875 0.676872 0
M  V30 1702 O 161.952 -1.93536 -0.303414 0
M  V30 1703 H 160.532 -0.331164 0.669582 0
M  V30 1704 H 163.194 -0.173823 1.94123 0
M  V30 1705 H 162.29 -1.46691 2.75478 0
M  V30 1706 N 162.591 -1.51276 -0.441967 0
M  V30 1707 C 163.554 -1.7167 -1.51862 0
M  V30 1708 C 164.554 -0.586793 -1.49711 0
M  V30 1709 O 165.744 -0.854276 -1.51815 0
M  V30 1710 C 162.876 -1.76889 -2.91416 0
M  V30 1711 H 164.069 -2.67754 -1.35084 0
M  V30 1712 H 161.622 -1.41196 -0.670333 0
M  V30 1713 H 162.357 -0.826026 -3.13604 0
M  V30 1714 H 162.142 -2.59001 -2.94382 0
M  V30 1715 H 163.632 -1.94522 -3.69528 0
M  V30 1716 N 164.069 0.697108 -1.41344 0
M  V30 1717 C 165.317 1.45426 -1.40341 0
M  V30 1718 C 165.638 1.94996 -0.0128787 0
M  V30 1719 O 164.908 1.71599 0.945027 0
M  V30 1720 H 163.488 0.539594 -0.516573 0
M  V30 1721 H 166.15 0.825201 -1.76569 0
M  V30 1722 H 165.246 2.31817 -2.08967 0
M  V30 1723 N 165.547 1.27147 0.931209 0
M  V30 1724 C 166.477 1.12081 2.04842 0
M  V30 1725 C 167.458 0.0232364 1.70084 0
M  V30 1726 O 168.643 0.197085 1.93197 0
M  V30 1727 C 165.773 0.76354 3.38803 0
M  V30 1728 C 164.727 1.81396 3.87659 0
M  V30 1729 C 164.053 1.31075 5.18385 0
M  V30 1730 C 165.353 3.21739 4.11438 0
M  V30 1731 H 167.047 2.05537 2.17703 0
M  V30 1732 H 164.593 0.989603 1.04608 0
M  V30 1733 H 166.546 0.644982 4.16435 0
M  V30 1734 H 165.27 -0.206727 3.25945 0
M  V30 1735 H 163.929 1.92136 3.12217 0
M  V30 1736 H 163.577 0.330037 5.01916 0
M  V30 1737 H 163.277 2.013 5.52044 0
M  V30 1738 H 164.801 1.20506 5.98591 0
M  V30 1739 H 166.215 3.14019 4.79651 0
M  V30 1740 H 164.612 3.89644 4.56397 0
M  V30 1741 H 165.682 3.67054 3.16859 0
M  V30 1742 N 167.025 -1.13721 1.09112 0
M  V30 1743 C 168.436 -1.6648 0.845068 0
M  V30 1744 C 168.787 -1.85911 -0.62701 0
M  V30 1745 O 167.912 -1.57556 -1.48341 0
M  V30 1746 C 168.507 -3.02413 1.52748 0
M  V30 1747 C 167.066 -3.52176 1.32849 0
M  V30 1748 C 166.213 -2.27492 1.58564 0
M  V30 1749 H 169.164 -0.976872 1.25072 0
M  V30 1750 H 169.185 -3.68223 0.958752 0
M  V30 1751 H 168.697 -2.88238 2.59885 0
M  V30 1752 H 166.798 -3.7156 0.278137 0
M  V30 1753 H 166.911 -4.32499 2.0611 0
M  V30 1754 H 165.275 -2.33923 1.00758 0
M  V30 1755 H 166.058 -2.15886 2.66924 0
M  V30 1756 N 168.503 -0.877838 -1.30888 0
M  V30 1757 C 169.752 -0.488793 -1.95688 0
M  V30 1758 C 170.065 0.965485 -1.70111 0
M  V30 1759 O 171.271 1.46104 -2.28836 0
M  V30 1760 C 169.727 -0.823201 -3.50359 0
M  V30 1761 C 169.335 -2.29477 -3.84765 0
M  V30 1762 C 171.079 -0.503009 -4.21509 0
M  V30 1763 C 168.986 -2.57118 -5.32583 0
M  V30 1764 H 167.916 -0.179062 -0.732429 0
M  V30 1765 H 170.567 -1.07183 -1.48943 0
M  V30 1766 H 168.949 -0.169331 -3.95638 0
M  V30 1767 H 170.123 -2.99236 -3.5042 0
M  V30 1768 H 168.438 -2.58178 -3.267 0
M  V30 1769 H 171.035 -0.68665 -5.30273 0
M  V30 1770 H 171.378 0.557109 -4.12555 0
M  V30 1771 H 171.911 -1.11376 -3.8189 0
M  V30 1772 H 168.65 -3.61843 -5.4658 0
M  V30 1773 H 168.17 -1.91961 -5.68253 0
M  V30 1774 H 169.849 -2.42251 -5.99936 0
M  V30 1775 N 169.982 1.44106 -0.638065 0
M  V30 1776 C 171.207 2.0685 -0.150916 0
M  V30 1777 C 171.632 1.47417 1.16833 0
M  V30 1778 O 170.99 0.578264 1.71831 0
M  V30 1779 C 171.038 3.60555 -0.05708 0
M  V30 1780 O 170.142 4.00465 0.984972 0
M  V30 1781 H 169.483 0.658151 -0.0879399 0
M  V30 1782 H 172.013 1.84865 -0.876707 0
M  V30 1783 H 172.023 4.07789 0.131232 0
M  V30 1784 H 170.698 4.03193 -1.02021 0
M  V30 1785 H 169.275 3.64849 0.770672 0
M  V30 1786 N 171.46 0.379036 1.52974 0
M  V30 1787 C 172.688 -0.20679 2.05864 0
M  V30 1788 C 173.103 -1.41356 1.25155 0
M  V30 1789 O 172.46 -1.8009 0.295588 0
M  V30 1790 C 172.511 -0.587045 3.56702 0
M  V30 1791 O 172.232 0.571776 4.34353 0
M  V30 1792 C 173.733 -1.22983 4.25899 0
M  V30 1793 H 170.953 -0.0336123 0.670158 0
M  V30 1794 H 173.497 0.541298 1.97206 0
M  V30 1795 H 171.652 -1.28504 3.65466 0
M  V30 1796 H 172.066 0.261544 5.23847 0
M  V30 1797 H 173.54 -1.44635 5.32715 0
M  V30 1798 H 174.017 -2.19416 3.80465 0
M  V30 1799 H 174.623 -0.572892 4.21424 0
M  V30 1800 N 172.938 -1.57226 0.108567 0
M  V30 1801 C 174.349 -1.8195 -0.418464 0
M  V30 1802 C 174.7 -1.02508 -1.67292 0
M  V30 1803 O 173.825 -0.258496 -2.14851 0
M  V30 1804 C 174.42 -3.30028 -0.765979 0
M  V30 1805 C 172.979 -3.55469 -1.23769 0
M  V30 1806 C 172.126 -2.7625 -0.241106 0
M  V30 1807 H 175.077 -1.55149 0.33384 0
M  V30 1808 H 175.098 -3.44086 -1.62434 0
M  V30 1809 H 174.61 -3.87821 0.147219 0
M  V30 1810 H 172.711 -3.03022 -2.16814 0
M  V30 1811 H 172.824 -4.6408 -1.19022 0
M  V30 1812 H 171.188 -2.44133 -0.72602 0
M  V30 1813 H 171.971 -3.36797 0.665007 0
M  V30 1814 N 174.416 0.165178 -1.56732 0
M  V30 1815 C 175.656 0.887231 -1.8414 0
M  V30 1816 C 176.02 1.79159 -0.690353 0
M  V30 1817 O 177.221 2.55172 -0.845032 0
M  V30 1818 C 175.492 1.65674 -3.16681 0
M  V30 1819 S 177.051 2.42671 -3.6559 0
M  V30 1820 H 173.869 0.297042 -0.645978 0
M  V30 1821 H 176.471 0.148439 -1.94936 0
M  V30 1822 H 175.175 0.983507 -3.98441 0
M  V30 1823 H 174.706 2.43679 -3.08843 0
M  V30 1824 H 176.721 3.67499 -3.33406 0
M  V30 1825 N 175.894 1.51508 0.433938 0
M  V30 1826 C 177.122 1.68157 1.20543 0
M  V30 1827 C 177.537 0.380362 1.84929 0
M  V30 1828 O 176.894 -0.641446 1.70856 0
M  V30 1829 C 176.945 2.79965 2.28696 0
M  V30 1830 O 176.666 4.05045 1.66943 0
M  V30 1831 C 178.167 3.07912 3.18912 0
M  V30 1832 H 175.387 0.56421 0.363191 0
M  V30 1833 H 177.931 1.97941 0.513754 0
M  V30 1834 H 176.086 2.5277 2.93574 0
M  V30 1835 H 176.5 4.67165 2.38448 0
M  V30 1836 H 177.974 3.89719 3.90926 0
M  V30 1837 H 178.451 2.20456 3.79863 0
M  V30 1838 H 179.057 3.36779 2.59731 0
M  V30 1839 N 177.372 -0.689602 1.41712 0
M  V30 1840 C 178.6 -1.47827 1.44758 0
M  V30 1841 C 179.015 -1.88721 0.0545703 0
M  V30 1842 O 178.372 -1.57176 -0.927463 0
M  V30 1843 C 178.423 -2.73698 2.3616 0
M  V30 1844 O 178.144 -2.34524 3.7004 0
M  V30 1845 C 179.645 -3.67389 2.48072 0
M  V30 1846 H 176.865 -0.455357 0.49284 0
M  V30 1847 H 179.409 -0.848574 1.86063 0
M  V30 1848 H 177.564 -3.32891 1.98148 0
M  V30 1849 H 177.978 -3.15701 4.18847 0
M  V30 1850 H 179.452 -4.52475 3.16181 0
M  V30 1851 H 179.929 -4.12284 1.51388 0
M  V30 1852 H 180.535 -3.14097 2.86746 0
M  V30 1853 N 178.85 -1.27639 -0.924453 0
M  V30 1854 C 180.099 -1.13549 -1.66702 0
M  V30 1855 C 180.412 0.317487 -1.93006 0
M  V30 1856 O 181.618 0.579333 -2.65247 0
M  V30 1857 C 180.074 -1.98426 -3.00259 0
M  V30 1858 C 179.682 -3.484 -2.81641 0
M  V30 1859 C 181.426 -1.92993 -3.78092 0
M  V30 1860 C 179.333 -4.25464 -4.10773 0
M  V30 1861 H 178.263 -0.421351 -0.625283 0
M  V30 1862 H 180.914 -1.52085 -1.02676 0
M  V30 1863 H 179.296 -1.52736 -3.6536 0
M  V30 1864 H 180.47 -4.01973 -2.25287 0
M  V30 1865 H 178.785 -3.55245 -2.17232 0
M  V30 1866 H 181.382 -2.47844 -4.7379 0
M  V30 1867 H 181.725 -0.904281 -4.0636 0
M  V30 1868 H 182.258 -2.36595 -3.19793 0
M  V30 1869 H 178.997 -5.28566 -3.87683 0
M  V30 1870 H 178.517 -3.76667 -4.66779 0
M  V30 1871 H 180.196 -4.34812 -4.79111 0
M  V30 1872 N 180.328 1.1314 -1.09713 0
M  V30 1873 C 181.276 2.20717 -0.733934 0
M  V30 1874 C 182.27 1.6729 0.266506 0
M  V30 1875 O 183.476 1.79547 0.127656 0
M  V30 1876 H 179.851 0.719292 -0.21937 0
M  V30 1877 H 181.822 2.48611 -1.6503 0
M  V30 1878 C 180.571 3.47265 -0.173849 0
M  V30 1879 H 179.894 3.88716 -0.934873 0
M  V30 1880 H 181.334 4.23979 0.0423126 0
M  V30 1881 C 179.793 3.18724 1.09164 0
M  V30 1882 O 180.323 3.37762 2.17439 0
M  V30 1883 N 178.529 2.72583 1.00732 0
M  V30 1884 H 178.076 2.57291 0.126121 0
M  V30 1885 H 178.034 2.53862 1.85476 0
M  V30 1886 N 181.806 0.884767 1.30421 0
M  V30 1887 C 182.753 0.349642 2.28136 0
M  V30 1888 C 183.723 -0.560061 1.56373 0
M  V30 1889 O 184.908 -0.488524 1.8444 0
M  V30 1890 C 182.048 -0.42999 3.42411 0
M  V30 1891 C 181.161 0.508907 4.28992 0
M  V30 1892 C 180.296 -0.286301 5.30428 0
M  V30 1893 C 179.335 0.648079 6.08659 0
M  V30 1894 N 178.472 -0.111792 7.02011 0
M  V30 1895 H 183.312 1.18807 2.73293 0
M  V30 1896 H 180.849 0.597231 1.3443 0
M  V30 1897 H 182.807 -0.897923 4.07423 0
M  V30 1898 H 181.437 -1.23299 2.98324 0
M  V30 1899 H 180.489 1.09533 3.64289 0
M  V30 1900 H 181.801 1.22475 4.8353 0
M  V30 1901 H 180.955 -0.816098 6.01186 0
M  V30 1902 H 179.694 -1.03536 4.76583 0
M  V30 1903 H 178.699 1.18951 5.36778 0
M  V30 1904 H 179.924 1.39623 6.64592 0
M  V30 1905 H 177.87 -0.843395 6.50556 0
M  V30 1906 H 177.787 0.544429 7.54037 0
M  V30 1907 H 179.055 -0.622339 7.77012 0
M  V30 1908 N 183.284 -1.43765 0.645699 0
M  V30 1909 C 184.53 -2.02197 0.156271 0
M  V30 1910 C 184.863 -1.50776 -1.22393 0
M  V30 1911 O 184.138 -0.697771 -1.81553 0
M  V30 1912 C 184.421 -3.59749 0.158872 0
M  V30 1913 C 184.274 -4.21419 1.57245 0
M  V30 1914 C 185.593 -4.37149 -0.50879 0
M  V30 1915 H 182.712 -0.734694 0.0582602 0
M  V30 1916 H 185.354 -1.71157 0.824951 0
M  V30 1917 H 183.504 -3.86325 -0.410525 0
M  V30 1918 H 185.176 -4.059 2.19186 0
M  V30 1919 H 183.419 -3.78356 2.122 0
M  V30 1920 H 184.09 -5.30482 1.52619 0
M  V30 1921 H 186.566 -4.16093 -0.024412 0
M  V30 1922 H 185.442 -5.4683 -0.476213 0
M  V30 1923 H 185.703 -4.12839 -1.58165 0
M  V30 1924 N 184.763 -0.387143 -1.52771 0
M  V30 1925 C 186.003 0.195537 -2.03463 0
M  V30 1926 C 186.367 1.44222 -1.26744 0
M  V30 1927 O 187.568 2.10192 -1.67549 0
M  V30 1928 C 185.839 0.459097 -3.54439 0
M  V30 1929 S 187.398 1.01237 -4.26962 0
M  V30 1930 H 184.216 0.0552675 -0.708849 0
M  V30 1931 H 186.818 -0.534992 -1.88037 0
M  V30 1932 H 185.522 -0.455382 -4.07866 0
M  V30 1933 H 185.053 1.21811 -3.74066 0
M  V30 1934 H 187.068 2.29492 -4.39941 0
M  V30 1935 N 186.241 1.57166 -0.116904 0
M  V30 1936 C 187.204 2.14039 0.819742 0
M  V30 1937 C 188.204 1.07477 1.19605 0
M  V30 1938 O 189.394 1.33263 1.1219 0
M  V30 1939 C 186.526 2.67891 2.10826 0
M  V30 1940 H 187.719 2.98128 0.325511 0
M  V30 1941 H 185.272 1.55739 0.132312 0
M  V30 1942 H 186.007 1.87384 2.64685 0
M  V30 1943 H 185.792 3.45823 1.84793 0
M  V30 1944 H 187.282 3.11809 2.77785 0
M  V30 1945 N 187.719 -0.156864 1.56817 0
M  V30 1946 C 188.944 -0.890331 1.87318 0
M  V30 1947 C 189.369 -1.74394 0.704855 0
M  V30 1948 O 188.727 -1.77972 -0.345786 0
M  V30 1949 C 188.775 -1.73102 3.16336 0
M  V30 1950 O 187.879 -2.83422 2.99576 0
M  V30 1951 H 187.22 -0.24857 0.615718 0
M  V30 1952 H 189.75 -0.150649 2.04045 0
M  V30 1953 H 189.76 -2.12803 3.48107 0
M  V30 1954 H 188.435 -1.10412 4.00976 0
M  V30 1955 H 187.012 -2.47199 2.7919 0
M  V30 1956 N 189.197 -1.51736 -0.425897 0
M  V30 1957 C 190.445 -1.64644 -1.17204 0
M  V30 1958 C 190.766 -0.370486 -1.91448 0
M  V30 1959 O 190.036 0.614088 -1.86026 0
M  V30 1960 H 188.616 -0.606819 -0.435638 0
M  V30 1961 H 191.278 -1.88713 -0.487177 0
M  V30 1962 H 190.374 -2.47958 -1.89534 0
M  V30 1963 N 190.675 0.682077 -1.42076 0
M  V30 1964 C 191.608 1.80666 -1.3941 0
M  V30 1965 C 192.586 1.60518 -0.25939 0
M  V30 1966 O 193.77 1.83088 -0.448456 0
M  V30 1967 C 190.897 3.17556 -1.17796 0
M  V30 1968 C 189.943 3.56468 -2.34164 0
M  V30 1969 S 190.776 3.59729 -3.96681 0
M  V30 1970 C 191.932 4.99323 -3.77395 0
M  V30 1971 H 192.165 1.82652 -2.34575 0
M  V30 1972 H 189.698 0.852062 -1.2876 0
M  V30 1973 H 191.656 3.96575 -1.06012 0
M  V30 1974 H 190.317 3.13164 -0.242279 0
M  V30 1975 H 189.51 4.5595 -2.1477 0
M  V30 1976 H 189.112 2.84792 -2.42425 0
M  V30 1977 H 191.404 5.87202 -3.37935 0
M  V30 1978 H 192.347 5.23763 -4.76527 0
M  V30 1979 H 192.755 4.71498 -3.10403 0
M  V30 1980 N 192.153 1.28127 0.917671 0
M  V30 1981 C 193.1 1.11717 2.0196 0
M  V30 1982 C 194.07 0.0153929 1.66093 0
M  V30 1983 O 195.255 0.179596 1.89953 0
M  V30 1984 C 192.395 0.780927 3.36148 0
M  V30 1985 C 191.508 1.96135 3.84909 0
M  V30 1986 C 190.643 1.56609 5.0759 0
M  V30 1987 C 189.682 2.71339 5.48673 0
M  V30 1988 N 188.819 2.32332 6.62545 0
M  V30 1989 H 193.659 2.06003 2.15329 0
M  V30 1990 H 191.196 1.02535 1.05475 0
M  V30 1991 H 193.154 0.56675 4.13333 0
M  V30 1992 H 191.784 -0.124998 3.22558 0
M  V30 1993 H 190.836 2.28777 3.03916 0
M  V30 1994 H 192.148 2.82165 4.1132 0
M  V30 1995 H 191.302 1.31374 5.92305 0
M  V30 1996 H 190.041 0.677014 4.82978 0
M  V30 1997 H 189.046 2.97276 4.62501 0
M  V30 1998 H 190.271 3.60882 5.75274 0
M  V30 1999 H 188.217 1.45889 6.39572 0
M  V30 2000 H 188.134 3.11899 6.88662 0
M  V30 2001 H 189.402 2.10371 7.50576 0
M  V30 2002 N 193.631 -1.12557 1.10312 0
M  V30 2003 C 194.594 -2.16434 0.75424 0
M  V30 2004 C 195.594 -1.59278 -0.220685 0
M  V30 2005 O 196.784 -1.742 0.00230591 0
M  V30 2006 C 193.916 -3.40699 0.116987 0
M  V30 2007 H 195.109 -2.48811 1.67431 0
M  V30 2008 H 192.662 -1.27542 0.903475 0
M  V30 2009 H 193.397 -3.13921 -0.813877 0
M  V30 2010 H 193.182 -3.83459 0.818613 0
M  V30 2011 H 194.672 -4.17451 -0.111387 0
M  V30 2012 N 195.109 -0.891671 -1.2995 0
M  V30 2013 C 196.358 -0.509521 -1.95158 0
M  V30 2014 C 196.671 0.947388 -1.71125 0
M  V30 2015 O 197.877 1.43669 -2.30372 0
M  V30 2016 C 196.333 -0.860315 -3.49466 0
M  V30 2017 C 195.941 -2.33545 -3.8231 0
M  V30 2018 C 197.685 -0.547687 -4.20952 0
M  V30 2019 C 195.592 -2.62752 -5.29826 0
M  V30 2020 H 194.522 -0.18682 -0.730489 0
M  V30 2021 H 197.173 -1.08756 -1.47798 0
M  V30 2022 H 195.555 -0.211285 -3.95436 0
M  V30 2023 H 196.729 -3.02936 -3.47227 0
M  V30 2024 H 195.044 -2.61629 -3.23944 0
M  V30 2025 H 197.641 -0.742854 -5.29515 0
M  V30 2026 H 197.984 0.51332 -4.13123 0
M  V30 2027 H 198.517 -1.1542 -3.80688 0
M  V30 2028 H 195.256 -3.6762 -5.42712 0
M  V30 2029 H 194.776 -1.97977 -5.66185 0
M  V30 2030 H 196.455 -2.48601 -5.97333 0
M  V30 2031 N 196.587 1.43421 -0.653314 0
M  V30 2032 C 197.52 2.2803 0.0879804 0
M  V30 2033 C 198.498 1.39833 0.82979 0
M  V30 2034 O 199.682 1.69275 0.829341 0
M  V30 2035 C 196.809 3.19247 1.13132 0
M  V30 2036 C 195.855 4.23704 0.487546 0
M  V30 2037 S 196.688 5.30377 -0.738961 0
M  V30 2038 C 197.844 6.25162 0.30384 0
M  V30 2039 H 198.077 2.90554 -0.629739 0
M  V30 2040 H 195.61 1.47934 -0.442156 0
M  V30 2041 H 197.568 3.72346 1.72827 0
M  V30 2042 H 196.229 2.55901 1.82136 0
M  V30 2043 H 195.422 4.87631 1.27407 0
M  V30 2044 H 195.024 3.73983 -0.0352915 0
M  V30 2045 H 197.316 6.67321 1.17 0
M  V30 2046 H 198.259 7.07463 -0.300402 0
M  V30 2047 H 198.667 5.60864 0.63969 0
M  V30 2048 N 198.065 0.39524 1.52563 0
M  V30 2049 C 198.998 -0.4813 2.23067 0
M  V30 2050 C 199.976 -1.05927 1.23362 0
M  V30 2051 O 201.16 -1.10979 1.52368 0
M  V30 2052 C 198.287 -1.66676 2.9485 0
M  V30 2053 C 197.333 -1.21348 4.08873 0
M  V30 2054 S 198.166 -0.190102 5.35162 0
M  V30 2055 C 199.322 -1.38121 6.1047 0
M  V30 2056 H 199.555 0.117381 2.97068 0
M  V30 2057 H 197.088 0.179458 1.53354 0
M  V30 2058 H 199.046 -2.3466 3.36816 0
M  V30 2059 H 197.707 -2.23676 2.20518 0
M  V30 2060 H 196.9 -2.09877 4.58222 0
M  V30 2061 H 196.502 -0.612486 3.68951 0
M  V30 2062 H 198.794 -2.30726 6.37002 0
M  V30 2063 H 199.737 -0.928521 7.01986 0
M  V30 2064 H 200.145 -1.60071 5.41329 0
M  V30 2065 N 199.544 -1.57102 0.125237 0
M  V30 2066 C 200.507 -2.14471 -0.80838 0
M  V30 2067 C 201.507 -1.0811 -1.19033 0
M  V30 2068 O 202.697 -1.33856 -1.11482 0
M  V30 2069 C 199.829 -2.69005 -2.09402 0
M  V30 2070 H 201.022 -2.98297 -0.309696 0
M  V30 2071 H 198.575 -1.55807 -0.124051 0
M  V30 2072 H 199.31 -1.88785 -2.63687 0
M  V30 2073 H 199.095 -3.46799 -1.82957 0
M  V30 2074 H 200.585 -3.13278 -2.76128 0
M  V30 2075 N 201.022 0.148545 -1.56898 0
M  V30 2076 C 202.247 0.880385 -1.87787 0
M  V30 2077 C 202.672 1.74018 -0.714093 0
M  V30 2078 O 202.03 1.78153 0.336343 0
M  V30 2079 C 202.078 1.71422 -3.17249 0
M  V30 2080 O 201.182 2.8183 -3.01074 0
M  V30 2081 H 200.523 0.245301 -0.617028 0
M  V30 2082 H 203.053 0.139826 -2.04122 0
M  V30 2083 H 203.063 2.10954 -3.49231 0
M  V30 2084 H 201.738 1.08284 -4.01556 0
M  V30 2085 H 200.315 2.45715 -2.80497 0
M  V30 2086 N 202.5 1.5196 0.417844 0
M  V30 2087 C 203.432 1.70895 1.52733 0
M  V30 2088 C 204.445 0.589405 1.51756 0
M  V30 2089 O 205.634 0.864312 1.56179 0
M  V30 2090 C 202.734 1.72627 2.91639 0
M  V30 2091 C 201.907 3.01479 3.16905 0
M  V30 2092 C 200.966 2.95139 4.35637 0
M  V30 2093 O 199.992 3.69059 4.3334 0
M  V30 2094 N 201.194 2.12328 5.40275 0
M  V30 2095 H 203.959 2.66612 1.36888 0
M  V30 2096 H 201.52 1.50089 0.607037 0
M  V30 2097 H 203.512 1.65928 3.6912 0
M  V30 2098 H 202.082 0.844216 3.00985 0
M  V30 2099 H 201.302 3.21895 2.27546 0
M  V30 2100 H 202.59 3.86736 3.30625 0
M  V30 2101 H 201.988 1.51685 5.44985 0
M  V30 2102 H 200.545 2.11494 6.16534 0
M  V30 2103 N 203.978 -0.674533 1.42435 0
M  V30 2104 C 205.203 -1.46784 1.46524 0
M  V30 2105 C 205.628 -1.87938 0.078066 0
M  V30 2106 O 204.986 -1.56014 -0.92354 0
M  V30 2107 C 205.034 -2.69307 2.39805 0
M  V30 2108 O 204.138 -3.67587 1.86959 0
M  V30 2109 H 203.479 -0.440959 0.496439 0
M  V30 2110 H 206.009 -0.827326 1.87127 0
M  V30 2111 H 206.019 -3.17374 2.56393 0
M  V30 2112 H 204.694 -2.38692 3.40586 0
M  V30 2113 H 203.271 -3.2662 1.79927 0
M  V30 2114 N 205.456 -1.28612 -0.910864 0
M  V30 2115 C 206.386 -1.15326 -2.03032 0
M  V30 2116 C 207.367 -0.0502924 -1.70026 0
M  V30 2117 O 208.552 -0.227797 -1.92859 0
M  V30 2118 C 205.682 -0.817343 -3.37545 0
M  V30 2119 C 204.636 -1.8754 -3.84724 0
M  V30 2120 C 203.962 -1.39305 -5.16235 0
M  V30 2121 C 205.262 -3.28244 -4.06267 0
M  V30 2122 H 206.956 -2.08975 -2.14406 0
M  V30 2123 H 204.502 -1.00612 -1.03021 0
M  V30 2124 H 206.455 -0.711151 -4.15356 0
M  V30 2125 H 205.179 0.154846 -3.26233 0
M  V30 2126 H 203.838 -1.97079 -3.09121 0
M  V30 2127 H 203.486 -0.409846 -5.01328 0
M  V30 2128 H 203.186 -2.10057 -5.48771 0
M  V30 2129 H 204.71 -1.30014 -5.96598 0
M  V30 2130 H 206.124 -3.21611 -4.74594 0
M  V30 2131 H 204.521 -3.96855 -4.5014 0
M  V30 2132 H 205.591 -3.72048 -3.10979 0
M  V30 2133 N 206.934 1.1197 -1.10907 0
M  V30 2134 C 207.867 2.16998 -0.706192 0
M  V30 2135 C 208.845 1.59903 0.294897 0
M  V30 2136 O 210.029 1.87513 0.192636 0
M  V30 2137 C 207.156 3.38673 -0.0427664 0
M  V30 2138 C 206.202 4.14414 -1.00811 0
M  V30 2139 S 207.035 4.72079 -2.52789 0
M  V30 2140 C 208.191 5.97083 -1.87731 0
M  V30 2141 H 208.424 2.50837 -1.59587 0
M  V30 2142 H 205.957 1.23508 -0.926555 0
M  V30 2143 H 207.915 4.09142 0.333668 0
M  V30 2144 H 206.576 3.03105 0.823788 0
M  V30 2145 H 205.769 5.016 -0.491259 0
M  V30 2146 H 205.371 3.49678 -1.3267 0
M  V30 2147 H 207.663 6.66599 -1.21044 0
M  V30 2148 H 208.606 6.53403 -2.72892 0
M  V30 2149 H 209.014 5.4837 -1.33979 0
M  V30 2150 N 208.412 0.89855 1.29475 0
M  V30 2151 C 209.652 0.530771 1.97388 0
M  V30 2152 C 210.016 -0.905832 1.69289 0
M  V30 2153 O 211.217 -1.38042 2.30646 0
M  V30 2154 C 209.488 0.81369 3.48014 0
M  V30 2155 S 211.047 0.550048 4.35339 0
M  V30 2156 H 207.865 0.196956 0.683176 0
M  V30 2157 H 210.467 1.16074 1.57312 0
M  V30 2158 H 209.171 1.85749 3.65958 0
M  V30 2159 H 208.702 0.171795 3.93025 0
M  V30 2160 H 210.717 -0.605423 4.92493 0
M  V30 2161 N 209.89 -1.43072 0.660911 0
M  V30 2162 C 211.138 -2.01323 0.177094 0
M  V30 2163 C 211.459 -1.5245 -1.2159 0
M  V30 2164 O 210.729 -0.740322 -1.81373 0
M  V30 2165 H 209.309 -0.744382 0.0624804 0
M  V30 2166 H 211.971 -1.75179 0.854305 0
M  V30 2167 H 211.067 -3.11649 0.167641 0
M  V30 2168 N 211.368 -0.403325 -1.52352 0
M  V30 2169 C 212.318 0.442244 -2.2367 0
M  V30 2170 C 213.302 1.01823 -1.24583 0
M  V30 2171 O 214.494 0.942005 -1.49851 0
M  V30 2172 C 211.623 1.5615 -3.05732 0
M  V30 2173 C 210.709 0.996575 -4.12225 0
M  V30 2174 N 211.1 0.157804 -5.05554 0
M  V30 2175 C 209.398 1.26767 -4.27605 0
M  V30 2176 C 210.099 -0.155853 -5.81491 0
M  V30 2177 N 209.075 0.451775 -5.41719 0
M  V30 2178 H 212.877 -0.204964 -2.93184 0
M  V30 2179 H 210.391 -0.213418 -1.60992 0
M  V30 2180 H 212.388 2.17981 -3.55373 0
M  V30 2181 H 211.048 2.21139 -2.37755 0
M  V30 2182 H 212.059 -0.206049 -5.1749 0
M  V30 2183 H 208.736 1.91757 -3.70858 0
M  V30 2184 H 210.126 -0.836329 -6.66675 0
M  V30 2185 N 212.846 1.57033 -0.133567 0
M  V30 2186 C 213.778 2.13176 0.841944 0
M  V30 2187 C 214.791 1.07794 1.22001 0
M  V30 2188 O 215.98 1.35117 1.16643 0
M  V30 2189 C 213.08 2.62847 2.13926 0
M  V30 2190 C 212.253 3.92486 1.93064 0
M  V30 2191 C 211.312 4.27605 3.0666 0
M  V30 2192 O 210.338 4.96168 2.78937 0
M  V30 2193 N 211.54 3.861 4.33483 0
M  V30 2194 H 214.305 2.97503 0.362192 0
M  V30 2195 H 211.866 1.61821 0.05042 0
M  V30 2196 H 213.858 2.83363 2.88942 0
M  V30 2197 H 212.428 1.83319 2.53205 0
M  V30 2198 H 211.648 3.80732 1.02159 0
M  V30 2199 H 212.936 4.77225 1.76447 0
M  V30 2200 H 212.334 3.30828 4.58878 0
M  V30 2201 H 210.891 4.11694 5.05323 0
M  V30 2202 N 214.325 -0.140222 1.56975 0
M  V30 2203 C 215.602 -0.880769 1.74648 0
M  V30 2204 C 215.982 -1.99036 0.703404 0
M  V30 2205 O 215.33 -2.26821 -0.27648 0
M  V30 2206 C 215.54 -1.417 3.18939 0
M  V30 2207 C 216.888 -1.87774 3.80823 0
M  V30 2208 O 217.912 -1.51427 3.2241 0
M  V30 2209 O 216.771 -2.54827 4.83452 0
M  V30 2210 H 213.865 -0.416713 0.714338 0
M  V30 2211 H 216.411 -0.125618 1.69234 0
M  V30 2212 H 215.183 -0.619902 3.86359 0
M  V30 2213 H 214.806 -2.23546 3.28805 0
M  V30 2214 N 215.803 -1.52179 -0.40978 0
M  V30 2215 C 217.049 -1.66453 -1.15851 0
M  V30 2216 C 217.382 -0.392972 -1.90182 0
M  V30 2217 O 216.657 0.608579 -1.84734 0
M  V30 2218 C 216.94 -2.88612 -2.15349 0
M  V30 2219 C 216.793 -4.25815 -1.44918 0
M  V30 2220 C 218.112 -3.06294 -3.16026 0
M  V30 2221 H 215.231 -0.60575 -0.419805 0
M  V30 2222 H 217.873 -1.84732 -0.444314 0
M  V30 2223 H 216.023 -2.73158 -2.76255 0
M  V30 2224 H 217.695 -4.52995 -0.871365 0
M  V30 2225 H 215.938 -4.27247 -0.751159 0
M  V30 2226 H 216.609 -5.07337 -2.17516 0
M  V30 2227 H 219.085 -3.20641 -2.65195 0
M  V30 2228 H 217.961 -3.93283 -3.8291 0
M  V30 2229 H 218.222 -2.19579 -3.83715 0
M  V30 2230 N 217.281 0.66697 -1.42791 0
M  V30 2231 C 218.214 1.79177 -1.41318 0
M  V30 2232 C 219.192 1.60234 -0.276401 0
M  V30 2233 O 220.376 1.82602 -0.46785 0
M  V30 2234 C 217.503 3.16289 -1.21157 0
M  V30 2235 C 216.549 3.53964 -2.37932 0
M  V30 2236 S 217.382 3.55501 -4.00474 0
M  V30 2237 C 218.538 4.95292 -3.8267 0
M  V30 2238 H 218.771 1.80153 -2.365 0
M  V30 2239 H 216.304 0.838357 -1.29657 0
M  V30 2240 H 218.262 3.95428 -1.10212 0
M  V30 2241 H 216.923 3.1289 -0.275481 0
M  V30 2242 H 216.116 4.53646 -2.19594 0
M  V30 2243 H 215.718 2.82204 -2.45432 0
M  V30 2244 H 218.01 5.83584 -3.44145 0
M  V30 2245 H 218.953 5.18679 -4.82055 0
M  V30 2246 H 219.361 4.68179 -3.15386 0
M  V30 2247 N 218.759 1.29093 0.90403 0
M  V30 2248 C 220.005 1.16986 1.65656 0
M  V30 2249 C 220.338 -0.278925 1.92186 0
M  V30 2250 O 219.613 -1.2019 1.5292 0
M  V30 2251 C 219.896 1.97908 3.0084 0
M  V30 2252 C 219.749 3.50903 2.81403 0
M  V30 2253 C 221.068 1.80208 4.01513 0
M  V30 2254 H 218.187 0.426346 0.601164 0
M  V30 2255 H 220.829 1.58518 1.04747 0
M  V30 2256 H 218.979 1.62616 3.52829 0
M  V30 2257 H 220.651 3.96153 2.36348 0
M  V30 2258 H 218.894 3.76045 2.1627 0
M  V30 2259 H 219.565 4.02791 3.77443 0
M  V30 2260 H 222.041 2.11025 3.58619 0
M  V30 2261 H 220.917 2.39184 4.94047 0
M  V30 2262 H 221.178 0.756119 4.35586 0
M  V30 2263 N 220.237 -1.11381 1.11499 0
M  V30 2264 C 221.2 -2.15622 0.777153 0
M  V30 2265 C 222.2 -1.59504 -0.203779 0
M  V30 2266 O 223.39 -1.74188 0.020782 0
M  V30 2267 C 220.522 -3.40556 0.153116 0
M  V30 2268 H 221.715 -2.47021 1.70061 0
M  V30 2269 H 219.268 -1.26577 0.916952 0
M  V30 2270 H 220.003 -3.14767 -0.780536 0
M  V30 2271 H 219.788 -3.8257 0.859238 0
M  V30 2272 H 221.278 -4.17546 -0.0671044 0
M  V30 2273 N 221.715 -0.905404 -1.28997 0
M  V30 2274 C 222.963 -0.533192 -1.9494 0
M  V30 2275 C 223.284 0.924618 -1.71685 0
M  V30 2276 O 222.554 1.65268 -1.05183 0
M  V30 2277 H 221.134 -0.194194 -0.721317 0
M  V30 2278 H 223.796 -1.15294 -1.57141 0
M  V30 2279 H 222.892 -0.72059 -3.03667 0
M  V30 2280 N 223.193 1.4272 -0.668489 0
M  V30 2281 C 224.441 2.01226 -0.187769 0
M  V30 2282 C 224.762 1.53092 1.2078 0
M  V30 2283 O 224.032 0.74993 1.80977 0
M  V30 2284 H 222.612 0.744041 -0.0664272 0
M  V30 2285 H 225.274 1.74723 -0.863583 0
M  V30 2286 H 224.37 3.11556 -0.184166 0
M  V30 2287 N 224.671 0.411399 1.52136 0
M  V30 2288 C 225.604 -0.457614 2.23565 0
M  V30 2289 C 226.582 -1.04613 1.24478 0
M  V30 2290 O 227.766 -1.09356 1.53536 0
M  V30 2291 C 224.893 -1.6354 2.96602 0
M  V30 2292 C 223.939 -1.17005 4.10137 0
M  V30 2293 S 224.772 -0.13333 5.35334 0
M  V30 2294 C 225.928 -1.31638 6.119 0
M  V30 2295 H 226.161 0.148883 2.96927 0
M  V30 2296 H 223.694 0.195713 1.53155 0
M  V30 2297 H 225.652 -2.31074 3.39286 0
M  V30 2298 H 224.313 -2.21324 2.22878 0
M  V30 2299 H 223.506 -2.05005 4.60422 0
M  V30 2300 H 223.108 -0.573319 3.6958 0
M  V30 2301 H 225.4 -2.23957 6.39413 0
M  V30 2302 H 226.343 -0.854014 7.02931 0
M  V30 2303 H 226.751 -1.54321 5.42997 0
M  V30 2304 N 226.149 -1.5696 0.141893 0
M  V30 2305 C 227.059 -2.20066 -0.812905 0
M  V30 2306 C 228.075 -1.18344 -1.27557 0
M  V30 2307 O 229.251 -1.50902 -1.33381 0
M  V30 2308 C 226.316 -2.80583 -2.03652 0
M  V30 2309 C 225.377 -3.97414 -1.62359 0
M  V30 2310 C 224.61 -4.55036 -2.78887 0
M  V30 2311 O 224.833 -4.11538 -3.94959 0
M  V30 2312 O 223.767 -5.45376 -2.54653 0
M  V30 2313 H 227.593 -3.02157 -0.305746 0
M  V30 2314 H 225.178 -1.49159 -0.0848799 0
M  V30 2315 H 227.06 -3.19067 -2.75272 0
M  V30 2316 H 225.735 -2.01508 -2.5333 0
M  V30 2317 H 224.642 -3.63656 -0.877775 0
M  V30 2318 H 225.975 -4.77994 -1.17401 0
M  V30 2319 N 227.627 0.131896 -1.57047 0
M  V30 2320 C 228.852 0.860418 -1.8871 0
M  V30 2321 C 229.277 1.73251 -0.73251 0
M  V30 2322 O 228.635 1.785 0.317429 0
M  V30 2323 C 228.683 1.68047 -3.19049 0
M  V30 2324 O 227.787 2.7862 -3.04047 0
M  V30 2325 H 227.128 0.238743 -0.619595 0
M  V30 2326 H 229.658 0.118169 -2.04258 0
M  V30 2327 H 229.668 2.07238 -3.51449 0
M  V30 2328 H 228.343 1.04018 -4.02682 0
M  V30 2329 H 226.92 2.42726 -2.83088 0
M  V30 2330 N 229.106 1.52395 0.401703 0
M  V30 2331 C 230.039 1.70999 1.51111 0
M  V30 2332 C 231.017 0.55765 1.52738 0
M  V30 2333 O 232.201 0.785912 1.71335 0
M  V30 2334 C 229.328 1.75607 2.8962 0
M  V30 2335 C 228.374 2.97227 3.05873 0
M  V30 2336 S 229.207 4.57439 2.78405 0
M  V30 2337 C 230.363 4.64844 4.19131 0
M  V30 2338 H 230.596 2.6483 1.35102 0
M  V30 2339 H 228.129 1.42527 0.593762 0
M  V30 2340 H 230.087 1.78947 3.69443 0
M  V30 2341 H 228.748 0.828914 3.02965 0
M  V30 2342 H 227.941 2.96955 4.07227 0
M  V30 2343 H 227.543 2.91813 2.33925 0
M  V30 2344 H 229.835 4.42677 5.12877 0
M  V30 2345 H 230.778 5.66807 4.24424 0
M  V30 2346 H 231.186 3.93804 4.04448 0
M  V30 2347 N 230.584 -0.659388 1.43143 0
M  V30 2348 C 231.809 -1.45221 1.48073 0
M  V30 2349 C 232.234 -1.87845 0.097995 0
M  V30 2350 O 231.592 -1.56985 -0.90694 0
M  V30 2351 C 231.64 -2.66748 2.42647 0
M  V30 2352 O 230.744 -3.65583 1.90848 0
M  V30 2353 H 230.085 -0.435669 0.501088 0
M  V30 2354 H 232.615 -0.807432 1.87994 0
M  V30 2355 H 232.625 -3.14637 2.59745 0
M  V30 2356 H 231.3 -2.35067 3.43098 0
M  V30 2357 H 229.877 -3.24693 1.83381 0
M  V30 2358 N 232.062 -1.29571 -0.897171 0
M  V30 2359 C 233.01 -1.14802 -2.02295 0
M  V30 2360 C 234.004 -0.0629637 -1.69283 0
M  V30 2361 O 235.21 -0.222945 -1.78614 0
M  V30 2362 H 231.585 -0.354692 -0.663097 0
M  V30 2363 H 233.556 -2.10108 -2.11889 0
M  V30 2364 C 232.305 -0.843966 -3.37302 0
M  V30 2365 H 231.628 -1.67093 -3.63208 0
M  V30 2366 H 233.068 -0.780672 -4.16751 0
M  V30 2367 C 231.527 0.452843 -3.33843 0
M  V30 2368 O 232.057 1.47813 -3.73516 0
M  V30 2369 N 230.263 0.459601 -2.86943 0
M  V30 2370 H 229.81 -0.375213 -2.54853 0
M  V30 2371 H 229.768 1.32726 -2.85011 0
M  V30 2372 N 233.54 1.10788 -1.12088 0
M  V30 2373 C 234.786 1.82942 -0.875226 0
M  V30 2374 C 235.119 1.84779 0.597538 0
M  V30 2375 O 234.394 1.30578 1.44152 0
M  V30 2376 C 234.677 3.29789 -1.44606 0
M  V30 2377 C 234.53 3.36307 -2.98693 0
M  V30 2378 C 235.849 4.26064 -1.10261 0
M  V30 2379 H 232.968 0.664195 -0.319397 0
M  V30 2380 H 235.61 1.29867 -1.38689 0
M  V30 2381 H 233.76 3.75118 -1.01089 0
M  V30 2382 H 235.432 2.99487 -3.50864 0
M  V30 2383 H 233.675 2.76318 -3.34411 0
M  V30 2384 H 234.346 4.39694 -3.33726 0
M  V30 2385 H 236.822 3.88951 -1.4784 0
M  V30 2386 H 235.698 5.27183 -1.52869 0
M  V30 2387 H 235.959 4.42098 -0.0142953 0
M  V30 2388 N 235.018 0.912232 1.28515 0
M  V30 2389 C 236.429 0.591352 1.77087 0
M  V30 2390 C 236.78 -0.8933 1.74684 0
M  V30 2391 O 235.905 -1.69876 1.34056 0
M  V30 2392 C 236.5 1.06668 3.2157 0
M  V30 2393 C 235.059 0.79675 3.67871 0
M  V30 2394 C 234.206 1.23427 2.48316 0
M  V30 2395 H 237.157 1.09365 1.15 0
M  V30 2396 H 237.178 0.407455 3.78312 0
M  V30 2397 H 236.69 2.14726 3.23287 0
M  V30 2398 H 234.791 -0.270679 3.71616 0
M  V30 2399 H 234.904 1.40343 4.58084 0
M  V30 2400 H 233.268 0.653036 2.46186 0
M  V30 2401 H 234.051 2.32316 2.52753 0
M  V30 2402 N 236.496 -1.42363 0.676048 0
M  V30 2403 C 237.726 -2.05561 0.206967 0
M  V30 2404 C 238.134 -1.50887 -1.14148 0
M  V30 2405 O 237.477 -0.643933 -1.72044 0
M  V30 2406 C 237.539 -3.5944 0.0659508 0
M  V30 2407 C 237.203 -4.36812 1.34331 0
M  V30 2408 C 238.2 -4.67383 2.27704 0
M  V30 2409 C 235.885 -4.76429 1.59125 0
M  V30 2410 C 237.879 -5.36509 3.44147 0
M  V30 2411 C 235.566 -5.45294 2.75857 0
M  V30 2412 C 236.564 -5.75259 3.68193 0
M  V30 2413 O 236.252 -6.42712 4.82883 0
M  V30 2414 H 235.984 -0.668872 0.0979084 0
M  V30 2415 H 238.538 -1.83467 0.923531 0
M  V30 2416 H 236.768 -3.80197 -0.706204 0
M  V30 2417 H 238.457 -4.0427 -0.363418 0
M  V30 2418 H 239.223 -4.37275 2.09799 0
M  V30 2419 H 235.102 -4.52498 0.881258 0
M  V30 2420 H 238.646 -5.59814 4.16238 0
M  V30 2421 H 234.543 -5.7482 2.93688 0
M  V30 2422 H 235.311 -6.61204 4.82444 0
M  V30 2423 N 237.974 -0.419461 -1.51915 0
M  V30 2424 C 239.22 0.153166 -2.02221 0
M  V30 2425 C 239.553 1.43907 -1.30401 0
M  V30 2426 O 238.828 1.90055 -0.413438 0
M  V30 2427 C 239.111 0.390291 -3.57979 0
M  V30 2428 C 238.964 -0.913014 -4.40436 0
M  V30 2429 C 240.283 1.16794 -4.2432 0
M  V30 2430 H 237.402 0.0541924 -0.735005 0
M  V30 2431 H 240.044 -0.554955 -1.81715 0
M  V30 2432 H 238.194 0.993491 -3.75582 0
M  V30 2433 H 239.866 -1.54882 -4.34522 0
M  V30 2434 H 238.109 -1.52168 -4.06236 0
M  V30 2435 H 238.78 -0.701361 -5.47526 0
M  V30 2436 H 241.256 0.657161 -4.10878 0
M  V30 2437 H 240.132 1.3026 -5.3322 0
M  V30 2438 H 240.393 2.19132 -3.83971 0
M  V30 2439 N 239.452 1.56882 -0.150215 0
M  V30 2440 C 240.385 2.12712 0.826358 0
M  V30 2441 C 241.363 1.05154 1.24022 0
M  V30 2442 O 242.547 1.33004 1.33575 0
M  V30 2443 C 239.674 2.64945 2.11002 0
M  V30 2444 C 238.72 3.8468 1.84183 0
M  V30 2445 S 239.553 5.25502 1.02995 0
M  V30 2446 C 240.709 5.81125 2.32474 0
M  V30 2447 H 240.942 2.95214 0.351598 0
M  V30 2448 H 238.475 1.54267 0.0641211 0
M  V30 2449 H 240.433 2.95689 2.84742 0
M  V30 2450 H 239.094 1.82568 2.55593 0
M  V30 2451 H 238.287 4.19482 2.79375 0
M  V30 2452 H 237.889 3.54714 1.1855 0
M  V30 2453 H 240.181 5.92753 3.281 0
M  V30 2454 H 241.124 6.78625 2.02171 0
M  V30 2455 H 241.532 5.09392 2.43269 0
M  V30 2456 N 240.93 -0.123565 1.57115 0
M  V30 2457 C 241.878 -1.17082 2.00984 0
M  V30 2458 C 242.872 -1.43136 0.906009 0
M  V30 2459 O 244.078 -1.43152 1.09121 0
M  V30 2460 H 240.453 -0.394653 0.64012 0
M  V30 2461 H 242.424 -0.774292 2.88179 0
M  V30 2462 C 241.173 -2.49057 2.42623 0
M  V30 2463 H 240.496 -2.29846 3.27125 0
M  V30 2464 H 241.936 -3.20906 2.7712 0
M  V30 2465 C 240.395 -3.11305 1.28805 0
M  V30 2466 O 240.925 -3.97171 0.60153 0
M  V30 2467 N 239.131 -2.71111 1.04628 0
M  V30 2468 H 238.678 -2.01382 1.60634 0
M  V30 2469 H 238.636 -3.1309 0.286685 0
M  V30 2470 N 242.408 -1.52605 -0.393616 0
M  V30 2471 C 243.824 -1.41753 -0.733357 0
M  V30 2472 C 244.024 -0.534293 -1.94287 0
M  V30 2473 O 243.08 -0.0059787 -2.52499 0
M  V30 2474 C 244.393 -2.84531 -0.972772 0
M  V30 2475 C 245.941 -2.93978 -1.07453 0
M  V30 2476 C 246.416 -4.37756 -1.3466 0
M  V30 2477 N 247.907 -4.4106 -1.41492 0
M  V30 2478 C 248.642 -5.49387 -1.642 0
M  V30 2479 N 248.138 -6.67806 -1.8441 0
M  V30 2480 N 249.931 -5.36923 -1.66342 0
M  V30 2481 H 242.082 -2.08555 0.402328 0
M  V30 2482 H 244.345 -0.940654 0.117789 0
M  V30 2483 H 244.051 -3.51353 -0.156204 0
M  V30 2484 H 243.925 -3.26508 -1.88871 0
M  V30 2485 H 246.312 -2.27326 -1.88167 0
M  V30 2486 H 246.393 -2.55435 -0.136605 0
M  V30 2487 H 246.037 -5.04972 -0.544581 0
M  V30 2488 H 245.967 -4.73848 -2.2973 0
M  V30 2489 H 248.458 -3.55705 -1.27601 0
M  V30 2490 H 248.771 -7.46141 -2.01231 0
M  V30 2491 H 247.116 -6.70843 -1.81644 0
M  V30 2492 H 250.307 -4.43381 -1.50102 0
M  V30 2493 H 250.48 -6.21416 -1.837 0
M  V30 2494 N 243.887 0.651787 -1.4349 0
M  V30 2495 C 245.135 1.40888 -1.44897 0
M  V30 2496 C 245.456 1.94856 -0.0749086 0
M  V30 2497 O 244.726 1.74518 0.889956 0
M  V30 2498 H 243.306 0.522887 -0.533478 0
M  V30 2499 H 245.968 0.768609 -1.79104 0
M  V30 2500 H 245.064 2.25052 -2.16236 0
M  V30 2501 N 245.365 1.30045 0.890287 0
M  V30 2502 C 246.59 1.21598 1.68014 0
M  V30 2503 C 247.015 -0.218678 1.86825 0
M  V30 2504 O 246.373 -1.15756 1.39536 0
M  V30 2505 C 246.421 1.94434 3.03691 0
M  V30 2506 O 245.525 1.2678 3.92429 0
M  V30 2507 H 244.866 0.420856 0.513592 0
M  V30 2508 H 247.396 1.71775 1.11151 0
M  V30 2509 H 247.406 2.03251 3.5377 0
M  V30 2510 H 246.081 2.98777 2.89318 0
M  V30 2511 H 244.658 1.26282 3.50866 0
M  V30 2512 N 246.843 -1.10192 1.12674 0
M  V30 2513 C 248.071 -1.85983 0.906527 0
M  V30 2514 C 248.486 -1.80783 -0.544333 0
M  V30 2515 O 247.843 -1.19834 -1.37645 0
M  V30 2516 C 247.894 -3.34281 1.37618 0
M  V30 2517 O 247.615 -3.39401 2.77017 0
M  V30 2518 C 249.116 -4.26938 1.19325 0
M  V30 2519 H 246.336 -0.587716 0.323775 0
M  V30 2520 H 248.88 -1.39284 1.49734 0
M  V30 2521 H 247.035 -3.78436 0.828539 0
M  V30 2522 H 247.449 -4.31838 2.97684 0
M  V30 2523 H 248.923 -5.29181 1.57071 0
M  V30 2524 H 249.4 -4.38995 0.134097 0
M  V30 2525 H 250.006 -3.8859 1.72852 0
M  V30 2526 N 248.321 -0.919034 -1.28029 0
M  V30 2527 C 249.732 -0.600735 -1.76771 0
M  V30 2528 C 250.083 0.884024 -1.75156 0
M  V30 2529 O 249.208 1.69163 -1.34956 0
M  V30 2530 C 249.803 -1.08372 -3.21 0
M  V30 2531 C 248.362 -0.816248 -3.67443 0
M  V30 2532 C 247.509 -1.24742 -2.47658 0
M  V30 2533 H 250.46 -1.09974 -1.14418 0
M  V30 2534 H 250.481 -0.427512 -3.78091 0
M  V30 2535 H 249.993 -2.16437 -3.22144 0
M  V30 2536 H 248.094 0.250968 -3.71754 0
M  V30 2537 H 248.207 -1.4277 -4.57333 0
M  V30 2538 H 246.571 -0.666083 -2.45836 0
M  V30 2539 H 247.354 -2.33653 -2.51518 0
M  V30 2540 N 249.799 1.42003 -0.683588 0
M  V30 2541 C 251.029 2.05448 -0.217866 0
M  V30 2542 C 251.437 1.51491 1.13346 0
M  V30 2543 O 250.78 0.653048 1.717 0
M  V30 2544 C 250.842 3.59399 -0.0850118 0
M  V30 2545 C 250.506 4.36093 -1.36645 0
M  V30 2546 C 251.503 4.66169 -2.30179 0
M  V30 2547 C 249.188 4.75578 -1.61649 0
M  V30 2548 C 251.182 5.34676 -3.46988 0
M  V30 2549 C 248.869 5.43824 -2.78745 0
M  V30 2550 C 249.867 5.73299 -3.71238 0
M  V30 2551 O 249.555 6.40142 -4.86285 0
M  V30 2552 H 249.287 0.668344 -0.101454 0
M  V30 2553 H 251.841 1.82974 -0.933248 0
M  V30 2554 H 250.071 3.80566 0.686031 0
M  V30 2555 H 251.76 4.04457 0.341973 0
M  V30 2556 H 252.526 4.36156 -2.12115 0
M  V30 2557 H 248.405 4.52025 -0.905243 0
M  V30 2558 H 251.949 5.57599 -4.19201 0
M  V30 2559 H 247.846 5.73254 -2.96732 0
M  V30 2560 H 248.614 6.58636 -4.85944 0
M  V30 2561 N 251.277 0.427512 1.51691 0
M  V30 2562 C 252.525 -0.141948 2.01601 0
M  V30 2563 C 252.846 -1.44067 1.31414 0
M  V30 2564 O 252.116 -1.90763 0.445658 0
M  V30 2565 H 250.696 -0.0554468 0.744939 0
M  V30 2566 H 253.358 0.567968 1.86441 0
M  V30 2567 H 252.454 -0.324913 3.10404 0
M  V30 2568 N 252.755 -1.56801 0.158532 0
M  V30 2569 C 254.003 -1.96102 -0.488712 0
M  V30 2570 C 254.324 -1.04498 -1.64636 0
M  V30 2571 O 253.594 -0.108783 -1.95598 0
M  V30 2572 H 252.174 -0.724102 -0.183535 0
M  V30 2573 H 254.836 -1.93457 0.236728 0
M  V30 2574 H 253.932 -3.00097 -0.857219 0
M  V30 2575 N 254.233 0.115231 -1.57178 0
M  V30 2576 C 255.479 0.82357 -1.85325 0
M  V30 2577 C 255.812 1.79349 -0.744814 0
M  V30 2578 O 255.087 1.92899 0.249024 0
M  V30 2579 C 255.37 1.57014 -3.24066 0
M  V30 2580 C 255.223 0.619565 -4.45513 0
M  V30 2581 C 256.542 2.52545 -3.60429 0
M  V30 2582 H 253.661 0.297948 -0.674089 0
M  V30 2583 H 256.303 0.0877138 -1.89797 0
M  V30 2584 H 254.453 2.19742 -3.20383 0
M  V30 2585 H 256.125 0.000837639 -4.613 0
M  V30 2586 H 254.368 -0.0686174 -4.33746 0
M  V30 2587 H 255.039 1.17866 -5.3927 0
M  V30 2588 H 257.515 1.9992 -3.64926 0
M  V30 2589 H 256.391 3.01811 -4.58477 0
M  V30 2590 H 256.652 3.35383 -2.88047 0
M  V30 2591 N 255.711 1.52812 0.385517 0
M  V30 2592 C 256.658 1.77838 1.47113 0
M  V30 2593 C 257.628 0.621757 1.54024 0
M  V30 2594 O 258.813 0.861846 1.70226 0
M  V30 2595 C 255.953 1.95618 2.84302 0
M  V30 2596 C 255.066 3.23316 2.86515 0
M  V30 2597 C 254.201 3.31394 4.15152 0
M  V30 2598 C 253.24 4.53201 4.1143 0
M  V30 2599 N 252.377 4.58542 5.3168 0
M  V30 2600 H 257.217 2.70482 1.25073 0
M  V30 2601 H 254.754 1.34006 0.606692 0
M  V30 2602 H 256.712 2.03912 3.63972 0
M  V30 2603 H 255.342 1.06331 3.04784 0
M  V30 2604 H 254.394 3.24076 1.99195 0
M  V30 2605 H 255.706 4.13045 2.79634 0
M  V30 2606 H 254.86 3.3889 5.03228 0
M  V30 2607 H 253.599 2.39645 4.24761 0
M  V30 2608 H 252.604 4.45827 3.21742 0
M  V30 2609 H 253.829 5.46271 4.03442 0
M  V30 2610 H 251.775 3.69686 5.41912 0
M  V30 2611 H 251.692 5.42148 5.26889 0
M  V30 2612 H 252.96 4.70296 6.21644 0
M  V30 2613 N 257.189 -0.644168 1.43834 0
M  V30 2614 C 258.119 -1.76814 1.52509 0
M  V30 2615 C 259.1 -1.65823 0.379052 0
M  V30 2616 O 260.285 -1.84781 0.597466 0
M  V30 2617 C 257.415 -3.15288 1.4564 0
M  V30 2618 C 256.369 -3.41053 2.58586 0
M  V30 2619 C 255.695 -4.79421 2.36769 0
M  V30 2620 C 256.995 -3.34902 4.00797 0
M  V30 2621 H 258.689 -1.69812 2.46586 0
M  V30 2622 H 256.235 -0.815542 1.1868 0
M  V30 2623 H 258.188 -3.93681 1.50311 0
M  V30 2624 H 256.912 -3.23043 0.480725 0
M  V30 2625 H 255.571 -2.65035 2.53282 0
M  V30 2626 H 255.219 -4.83863 1.37424 0
M  V30 2627 H 254.919 -4.9762 3.12487 0
M  V30 2628 H 256.443 -5.6006 2.43238 0
M  V30 2629 H 257.857 -4.03218 4.07539 0
M  V30 2630 H 256.254 -3.64637 4.76613 0
M  V30 2631 H 257.324 -2.32928 4.25291 0
M  V30 2632 N 258.668 -1.30515 -0.883378 0
M  V30 2633 C 259.578 -1.18959 -2.02203 0
M  V30 2634 C 260.594 -0.109172 -1.73657 0
M  V30 2635 O 261.77 -0.324413 -1.9877 0
M  V30 2636 C 258.835 -0.883871 -3.35244 0
M  V30 2637 C 257.896 -2.04982 -3.77201 0
M  V30 2638 C 257.129 -1.75859 -5.03894 0
M  V30 2639 O 257.352 -0.687276 -5.66244 0
M  V30 2640 O 256.286 -2.61146 -5.42297 0
M  V30 2641 H 260.112 -2.14616 -2.1488 0
M  V30 2642 H 257.697 -1.10124 -1.0096 0
M  V30 2643 H 259.579 -0.728644 -4.15053 0
M  V30 2644 H 258.254 0.0427798 -3.23672 0
M  V30 2645 H 257.161 -2.26038 -2.9809 0
M  V30 2646 H 258.494 -2.95825 -3.93381 0
M  V30 2647 N 260.146 1.09593 -1.13257 0
M  V30 2648 C 261.423 1.78293 -0.804432 0
M  V30 2649 C 261.803 1.99004 0.70431 0
M  V30 2650 O 261.151 1.59007 1.641 0
M  V30 2651 C 261.361 3.10707 -1.5894 0
M  V30 2652 C 262.709 3.85443 -1.78099 0
M  V30 2653 O 263.733 3.20454 -1.55525 0
M  V30 2654 O 262.592 5.02108 -2.15753 0
M  V30 2655 H 259.686 0.773156 -0.293528 0
M  V30 2656 H 262.232 1.16164 -1.23709 0
M  V30 2657 H 261.004 2.91106 -2.61482 0
M  V30 2658 H 260.627 3.80558 -1.15157 0
M  V30 2659 N 261.624 0.925811 1.2754 0
M  V30 2660 C 262.554 0.440748 2.29303 0
M  V30 2661 C 263.535 -0.497971 1.62648 0
M  V30 2662 O 264.72 -0.403126 1.8997 0
M  V30 2663 C 261.85 -0.309048 3.45922 0
M  V30 2664 C 260.804 0.54166 4.24559 0
M  V30 2665 C 260.13 -0.337191 5.33636 0
M  V30 2666 C 261.43 1.80516 4.90114 0
M  V30 2667 H 263.124 1.29121 2.70126 0
M  V30 2668 H 260.67 0.622323 1.29858 0
M  V30 2669 H 262.623 -0.659315 4.1621 0
M  V30 2670 H 261.347 -1.19352 3.04011 0
M  V30 2671 H 260.006 0.874609 3.56014 0
M  V30 2672 H 259.654 -1.22056 4.87966 0
M  V30 2673 H 259.354 0.228497 5.87156 0
M  V30 2674 H 260.878 -0.683072 6.06767 0
M  V30 2675 H 262.292 1.52307 5.52698 0
M  V30 2676 H 260.689 2.3142 5.53683 0
M  V30 2677 H 261.759 2.52581 4.13921 0
M  V30 2678 N 263.102 -1.41638 0.69111 0
M  V30 2679 C 264.351 -2.00526 0.217318 0
M  V30 2680 C 264.664 -1.55353 -1.18848 0
M  V30 2681 O 265.87 -2.06769 -1.75951 0
M  V30 2682 C 264.326 -3.58313 0.337639 0
M  V30 2683 C 263.934 -4.12469 1.74852 0
M  V30 2684 C 265.678 -4.24431 -0.0766066 0
M  V30 2685 C 263.585 -5.62675 1.82074 0
M  V30 2686 H 262.515 -0.750008 0.0774893 0
M  V30 2687 H 265.166 -1.6217 0.858661 0
M  V30 2688 H 263.548 -3.9425 -0.371879 0
M  V30 2689 H 264.722 -3.8796 2.48644 0
M  V30 2690 H 263.037 -3.58861 2.11205 0
M  V30 2691 H 265.634 -5.34683 -0.0430284 0
M  V30 2692 H 265.977 -4.01101 -1.1146 0
M  V30 2693 H 266.51 -3.93512 0.582476 0
M  V30 2694 H 263.249 -5.90826 2.83911 0
M  V30 2695 H 262.769 -5.89124 1.12661 0
M  V30 2696 H 264.448 -6.27371 1.58159 0
M  V30 2697 N 264.58 -0.43555 -1.51462 0
M  V30 2698 C 265.826 0.131709 -2.02372 0
M  V30 2699 C 266.159 1.42516 -1.3192 0
M  V30 2700 O 265.434 1.89606 -0.433573 0
M  V30 2701 C 265.717 0.352301 -3.58373 0
M  V30 2702 C 265.57 -0.959676 -4.39443 0
M  V30 2703 C 266.889 1.12286 -4.25535 0
M  V30 2704 H 264.008 0.0463936 -0.735538 0
M  V30 2705 H 266.65 -0.574197 -1.81116 0
M  V30 2706 H 264.8 0.9536 -3.76615 0
M  V30 2707 H 266.472 -1.59482 -4.32855 0
M  V30 2708 H 264.715 -1.56468 -4.04599 0
M  V30 2709 H 265.386 -0.759394 -5.46752 0
M  V30 2710 H 267.862 0.613545 -4.11552 0
M  V30 2711 H 266.738 1.24598 -5.34571 0
M  V30 2712 H 266.999 2.15048 -3.86273 0
M  V30 2713 N 266.058 1.56714 -0.166846 0
M  V30 2714 C 267.005 2.17746 0.765193 0
M  V30 2715 C 267.975 1.11614 1.23011 0
M  V30 2716 O 269.16 1.39745 1.29908 0
M  V30 2717 C 266.3 2.81882 1.9909 0
M  V30 2718 C 265.413 4.02462 1.56997 0
M  V30 2719 C 264.548 4.54537 2.749 0
M  V30 2720 C 263.587 5.67538 2.29275 0
M  V30 2721 N 262.724 6.14142 3.40255 0
M  V30 2722 H 267.564 2.97048 0.237952 0
M  V30 2723 H 265.101 1.4672 0.105725 0
M  V30 2724 H 267.059 3.17221 2.70974 0
M  V30 2725 H 265.689 2.05191 2.49192 0
M  V30 2726 H 264.741 3.72973 0.748037 0
M  V30 2727 H 266.053 4.84273 1.19503 0
M  V30 2728 H 265.207 4.92035 3.54946 0
M  V30 2729 H 263.946 3.71774 3.1565 0
M  V30 2730 H 262.951 5.29597 1.47674 0
M  V30 2731 H 264.176 6.52099 1.89588 0
M  V30 2732 H 262.122 5.3431 3.8059 0
M  V30 2733 H 262.039 6.9093 3.06841 0
M  V30 2734 H 263.307 6.56289 4.206 0
M  V30 2735 N 267.536 -0.106894 1.57237 0
M  V30 2736 C 268.813 -0.843526 1.76477 0
M  V30 2737 C 269.193 -1.97499 0.745464 0
M  V30 2738 O 268.541 -2.27357 -0.228306 0
M  V30 2739 C 268.751 -1.34903 3.21873 0
M  V30 2740 C 270.099 -1.79654 3.8472 0
M  V30 2741 O 271.123 -1.44554 3.2555 0
M  V30 2742 O 269.982 -2.44515 4.88748 0
M  V30 2743 H 267.076 -0.401468 0.723016 0
M  V30 2744 H 269.622 -0.0896927 1.69463 0
M  V30 2745 H 268.394 -0.53781 3.87586 0
M  V30 2746 H 268.017 -2.16522 3.33473 0
M  V30 2747 N 269.014 -1.53014 -0.377408 0
M  V30 2748 C 270.262 -1.6829 -1.11906 0
M  V30 2749 C 270.583 -0.431206 -1.90173 0
M  V30 2750 O 269.853 0.554595 -1.87886 0
M  V30 2751 H 268.433 -0.620371 -0.416112 0
M  V30 2752 H 271.095 -1.90167 -0.426893 0
M  V30 2753 H 270.191 -2.53862 -1.8155 0
M  V30 2754 N 270.492 0.636531 -1.44174 0
M  V30 2755 C 271.422 1.76003 -1.53444 0
M  V30 2756 C 272.403 1.65619 -0.387841 0
M  V30 2757 O 273.588 1.84461 -0.607257 0
M  V30 2758 C 270.718 3.14511 -1.4731 0
M  V30 2759 C 269.672 3.39677 -2.60391 0
M  V30 2760 C 268.998 4.78159 -2.39308 0
M  V30 2761 C 270.298 3.32772 -4.02567 0
M  V30 2762 H 271.992 1.68501 -2.47483 0
M  V30 2763 H 269.538 0.809237 -1.19111 0
M  V30 2764 H 271.491 3.92878 -1.52397 0
M  V30 2765 H 270.215 3.22783 -0.49785 0
M  V30 2766 H 268.874 2.63688 -2.54684 0
M  V30 2767 H 268.522 4.83128 -1.39988 0
M  V30 2768 H 268.222 4.95956 -3.15122 0
M  V30 2769 H 269.746 5.58762 -2.46205 0
M  V30 2770 H 271.16 4.01051 -4.09672 0
M  V30 2771 H 269.557 3.62104 -4.7854 0
M  V30 2772 H 270.627 2.30669 -4.2652 0
M  V30 2773 N 271.97 1.30982 0.876444 0
M  V30 2774 C 273.198 1.23242 1.6619 0
M  V30 2775 C 273.613 -0.203345 1.87702 0
M  V30 2776 O 272.97 -1.13317 1.43057 0
M  V30 2777 C 273.021 1.96623 3.03351 0
M  V30 2778 O 272.742 3.34594 2.82804 0
M  V30 2779 C 274.243 1.95644 3.97792 0
M  V30 2780 H 271.463 0.426126 0.518322 0
M  V30 2781 H 274.007 1.7275 1.09442 0
M  V30 2782 H 272.162 1.50892 3.56806 0
M  V30 2783 H 272.576 3.71873 3.69879 0
M  V30 2784 H 274.05 2.51511 4.91372 0
M  V30 2785 H 274.527 0.937395 4.2908 0
M  V30 2786 H 275.133 2.41225 3.50272 0
M  V30 2787 N 273.449 -1.08991 1.13837 0
M  V30 2788 C 274.726 -1.77863 0.813876 0
M  V30 2789 C 275.106 -1.99375 -0.693746 0
M  V30 2790 O 274.454 -1.59875 -1.63255 0
M  V30 2791 C 274.664 -3.0986 1.60586 0
M  V30 2792 C 276.012 -3.84493 1.8014 0
M  V30 2793 O 277.036 -3.19624 1.57222 0
M  V30 2794 O 275.895 -5.00957 2.18413 0
M  V30 2795 H 272.989 -0.771589 0.297624 0
M  V30 2796 H 275.535 -1.15507 1.24323 0
M  V30 2797 H 274.307 -2.89715 2.63022 0
M  V30 2798 H 273.93 -3.79942 1.17173 0
M  V30 2799 N 274.927 -0.932562 -1.27047 0
M  V30 2800 C 276.173 -0.576412 -1.94436 0
M  V30 2801 C 276.506 0.880891 -1.73072 0
M  V30 2802 O 275.781 1.62905 -1.06264 0
M  V30 2803 C 276.064 -0.909031 -3.48437 0
M  V30 2804 C 275.917 -2.42044 -3.79123 0
M  V30 2805 C 277.236 -0.418341 -4.38107 0
M  V30 2806 H 274.355 -0.210888 -0.706184 0
M  V30 2807 H 276.997 -1.16522 -1.50075 0
M  V30 2808 H 275.147 -0.407947 -3.86352 0
M  V30 2809 H 276.819 -2.99359 -3.50973 0
M  V30 2810 H 275.062 -2.86758 -3.25503 0
M  V30 2811 H 275.733 -2.6037 -4.86736 0
M  V30 2812 H 278.209 -0.847856 -4.0737 0
M  V30 2813 H 277.085 -0.679981 -5.44672 0
M  V30 2814 H 277.346 0.681642 -4.36814 0
M  V30 2815 N 276.405 1.4127 -0.698611 0
M  V30 2816 C 277.635 2.05205 -0.239644 0
M  V30 2817 C 278.043 1.52684 1.11733 0
M  V30 2818 O 277.386 0.671222 1.70998 0
M  V30 2819 C 277.448 3.59289 -0.123126 0
M  V30 2820 C 277.112 4.34619 -1.41263 0
M  V30 2821 C 278.109 4.63701 -2.35111 0
M  V30 2822 C 275.794 4.73837 -1.66684 0
M  V30 2823 C 277.788 5.30966 -3.52639 0
M  V30 2824 C 275.475 5.40837 -2.84498 0
M  V30 2825 C 276.473 5.69329 -3.77298 0
M  V30 2826 O 276.161 6.34949 -4.93047 0
M  V30 2827 H 275.893 0.66723 -0.108537 0
M  V30 2828 H 278.447 1.81974 -0.952602 0
M  V30 2829 H 276.677 3.81272 0.645628 0
M  V30 2830 H 278.366 4.04797 0.299056 0
M  V30 2831 H 279.132 4.33882 -2.16729 0
M  V30 2832 H 275.011 4.51039 -0.953135 0
M  V30 2833 H 278.555 5.53121 -4.25091 0
M  V30 2834 H 274.452 5.70075 -3.02795 0
M  V30 2835 H 275.22 6.53445 -4.92902 0
M  V30 2836 N 277.883 0.443576 1.51229 0
M  V30 2837 C 278.831 -0.37904 2.29491 0
M  V30 2838 C 279.825 -1.0153 1.35603 0
M  V30 2839 O 281.031 -0.94955 1.52917 0
M  V30 2840 H 277.406 -0.141053 0.738653 0
M  V30 2841 H 279.377 0.301799 2.9687 0
M  V30 2842 C 278.126 -1.46426 3.15364 0
M  V30 2843 H 277.449 -0.984037 3.87501 0
M  V30 2844 H 278.889 -2.01297 3.7317 0
M  V30 2845 C 277.348 -2.45099 2.31146 0
M  V30 2846 O 277.878 -3.49773 1.9754 0
M  V30 2847 N 276.084 -2.16139 1.94249 0
M  V30 2848 H 275.631 -1.31044 2.21777 0
M  V30 2849 H 275.589 -2.82398 1.38198 0
M  V30 2850 N 279.361 -1.56624 0.175154 0
M  V30 2851 C 280.308 -2.18149 -0.753634 0
M  V30 2852 C 281.278 -1.12265 -1.22417 0
M  V30 2853 O 282.463 -1.40432 -1.29165 0
M  V30 2854 C 279.603 -2.82933 -1.97592 0
M  V30 2855 C 278.716 -4.03289 -1.5486 0
M  V30 2856 C 277.851 -4.55988 -2.72485 0
M  V30 2857 C 276.89 -5.68746 -2.26262 0
M  V30 2858 N 276.027 -6.15938 -3.36994 0
M  V30 2859 H 280.867 -2.9717 -0.222195 0
M  V30 2860 H 278.404 -1.46774 -0.0979422 0
M  V30 2861 H 280.362 -3.18653 -2.69288 0
M  V30 2862 H 278.992 -2.06509 -2.481 0
M  V30 2863 H 278.044 -3.73364 -0.728246 0
M  V30 2864 H 279.356 -4.849 -1.16933 0
M  V30 2865 H 278.51 -4.9391 -3.52332 0
M  V30 2866 H 277.249 -3.73443 -3.13674 0
M  V30 2867 H 276.254 -5.30372 -1.44863 0
M  V30 2868 H 277.479 -6.53095 -1.86127 0
M  V30 2869 H 275.425 -5.36321 -3.77751 0
M  V30 2870 H 275.342 -6.92548 -3.03172 0
M  V30 2871 H 276.61 -6.58511 -4.17114 0
M  V30 2872 N 280.839 0.0985539 -1.57292 0
M  V30 2873 C 282.088 0.801358 -1.85098 0
M  V30 2874 C 282.401 1.80066 -0.763902 0
M  V30 2875 O 283.607 2.55112 -0.928981 0
M  V30 2876 C 282.063 1.47599 -3.28242 0
M  V30 2877 C 281.671 0.516624 -4.45011 0
M  V30 2878 C 283.415 2.16272 -3.65276 0
M  V30 2879 C 281.322 1.19564 -5.79188 0
M  V30 2880 H 280.252 0.303022 -0.69043 0
M  V30 2881 H 282.903 0.0542623 -1.8342 0
M  V30 2882 H 281.285 2.27042 -3.2445 0
M  V30 2883 H 282.459 -0.246065 -4.60143 0
M  V30 2884 H 280.774 -0.064227 -4.1635 0
M  V30 2885 H 283.371 2.67802 -4.62803 0
M  V30 2886 H 283.714 2.95009 -2.93727 0
M  V30 2887 H 284.247 1.43693 -3.70941 0
M  V30 2888 H 280.986 0.449157 -6.53959 0
M  V30 2889 H 280.506 1.92984 -5.67906 0
M  V30 2890 H 282.185 1.7231 -6.23633 0
M  V30 2891 N 282.317 1.53212 0.369288 0
M  V30 2892 C 283.267 1.75769 1.45222 0
M  V30 2893 C 284.251 0.612136 1.48801 0
M  V30 2894 O 285.443 0.870674 1.54105 0
M  V30 2895 C 282.572 1.94769 2.82701 0
M  V30 2896 C 281.658 3.15315 2.83615 0
M  V30 2897 N 282.049 4.37295 2.54178 0
M  V30 2898 C 280.347 3.15962 3.14776 0
M  V30 2899 C 281.048 5.19015 2.62675 0
M  V30 2900 N 280.024 4.55142 2.97232 0
M  V30 2901 H 283.826 2.67691 1.2132 0
M  V30 2902 H 281.34 1.51787 0.577438 0
M  V30 2903 H 283.337 2.09056 3.60696 0
M  V30 2904 H 281.997 1.04073 3.07569 0
M  V30 2905 H 283.008 4.65091 2.27839 0
M  V30 2906 H 279.685 2.35144 3.44983 0
M  V30 2907 H 281.075 6.26305 2.43294 0
M  V30 2908 N 283.795 -0.628877 1.44509 0
M  V30 2909 C 284.728 -1.75367 1.46019 0
M  V30 2910 C 285.706 -1.59444 0.318787 0
M  V30 2911 O 286.89 -1.81297 0.516099 0
M  V30 2912 C 284.017 -3.12965 1.29501 0
M  V30 2913 C 283.063 -3.47532 2.47233 0
M  V30 2914 S 283.896 -3.44758 4.09758 0
M  V30 2915 C 285.052 -4.84973 3.95667 0
M  V30 2916 H 285.285 -1.7382 2.41193 0
M  V30 2917 H 282.818 -0.803686 1.31834 0
M  V30 2918 H 284.776 -3.92367 1.20658 0
M  V30 2919 H 283.437 -3.12049 0.358341 0
M  V30 2920 H 282.63 -4.47664 2.31544 0
M  V30 2921 H 282.232 -2.75598 2.52828 0
M  V30 2922 H 284.524 -5.74255 3.59496 0
M  V30 2923 H 285.467 -5.05716 4.95638 0
M  V30 2924 H 285.875 -4.59653 3.27688 0
M  V30 2925 N 285.273 -1.31445 -0.869486 0
M  V30 2926 C 286.521 -1.20918 -1.61936 0
M  V30 2927 C 286.842 0.232683 -1.93607 0
M  V30 2928 O 286.112 1.15352 -1.58338 0
M  V30 2929 H 284.692 -0.44454 -0.600328 0
M  V30 2930 H 287.354 -1.64776 -1.0409 0
M  V30 2931 H 286.45 -1.78124 -2.56278 0
M  V30 2932 N 286.751 1.08385 -1.14413 0
M  V30 2933 C 287.976 1.85057 -0.936413 0
M  V30 2934 C 288.401 1.81055 0.509971 0
M  V30 2935 O 287.759 1.1958 1.36273 0
M  V30 2936 C 287.807 3.30505 -1.44217 0
M  V30 2937 O 286.911 4.07491 -0.634409 0
M  V30 2938 H 286.252 0.573425 -0.334784 0
M  V30 2939 H 288.782 1.36799 -1.52142 0
M  V30 2940 H 288.792 3.81348 -1.45043 0
M  V30 2941 H 287.467 3.32734 -2.49522 0
M  V30 2942 H 286.044 3.66368 -0.694902 0
M  V30 2943 N 288.23 0.939286 1.26551 0
M  V30 2944 C 289.47 0.5933 1.956 0
M  V30 2945 C 289.834 -0.851515 1.72085 0
M  V30 2946 O 291.035 -1.30634 2.34921 0
M  V30 2947 C 289.306 0.923996 3.45249 0
M  V30 2948 S 290.865 0.688269 4.33369 0
M  V30 2949 H 287.683 0.218591 0.676564 0
M  V30 2950 H 290.285 1.2102 1.5354 0
M  V30 2951 H 288.989 1.97297 3.59864 0
M  V30 2952 H 288.52 0.296746 3.92279 0
M  V30 2953 H 290.535 -0.448434 4.9417 0
M  V30 2954 N 289.708 -1.40897 0.706093 0
M  V30 2955 C 290.671 -2.29131 0.0562841 0
M  V30 2956 C 291.671 -1.44901 -0.697166 0
M  V30 2957 O 292.861 -1.65926 -0.530484 0
M  V30 2958 C 289.993 -3.27957 -0.93043 0
M  V30 2959 H 291.186 -2.88091 0.833284 0
M  V30 2960 H 288.739 -1.4906 0.470192 0
M  V30 2961 H 289.474 -2.73997 -1.73482 0
M  V30 2962 H 289.259 -3.90124 -0.393166 0
M  V30 2963 H 290.749 -3.94049 -1.38256 0
M  V30 2964 N 291.186 -0.45159 -1.50991 0
M  V30 2965 C 292.096 0.358431 -2.31846 0
M  V30 2966 C 293.112 1.01438 -1.41373 0
M  V30 2967 O 294.288 1.00663 -1.74439 0
M  V30 2968 C 291.353 1.43704 -3.15515 0
M  V30 2969 C 290.414 0.799742 -4.21785 0
M  V30 2970 C 289.647 1.82696 -5.01456 0
M  V30 2971 O 289.87 3.05105 -4.81941 0
M  V30 2972 O 288.804 1.40958 -5.85162 0
M  V30 2973 H 292.63 -0.302032 -3.02194 0
M  V30 2974 H 290.215 -0.213825 -1.47862 0
M  V30 2975 H 292.097 2.06227 -3.67489 0
M  V30 2976 H 290.772 2.08133 -2.47916 0
M  V30 2977 H 289.679 0.136084 -3.73852 0
M  V30 2978 H 291.012 0.198718 -4.91799 0
M  V30 2979 N 292.664 1.56529 -0.183458 0
M  V30 2980 C 293.612 2.19873 0.758845 0
M  V30 2981 C 294.606 1.16638 1.22849 0
M  V30 2982 O 295.812 1.3481 1.19274 0
M  V30 2983 H 292.187 0.7045 0.263029 0
M  V30 2984 H 294.158 2.97724 0.200755 0
M  V30 2985 C 292.907 2.86314 1.9728 0
M  V30 2986 H 292.23 3.65487 1.62047 0
M  V30 2987 H 293.67 3.3409 2.61075 0
M  V30 2988 C 292.129 1.86729 2.80418 0
M  V30 2989 O 292.659 1.36031 3.77966 0
M  V30 2990 N 290.865 1.55216 2.45675 0
M  V30 2991 H 290.412 1.96636 1.66409 0
M  V30 2992 H 290.37 0.888388 3.01588 0
M  V30 2993 N 294.142 -0.090211 1.57342 0
M  V30 2994 C 295.37 -0.806224 1.90546 0
M  V30 2995 C 295.785 -1.72041 0.777644 0
M  V30 2996 O 295.142 -1.80778 -0.250103 0
M  V30 2997 C 295.193 -1.61546 3.23396 0
M  V30 2998 O 294.914 -0.738043 4.31839 0
M  V30 2999 C 296.415 -2.4341 3.70495 0
M  V30 3000 H 293.635 -0.230256 0.630257 0
M  V30 3001 H 296.179 -0.0659843 2.04394 0
M  V30 3002 H 294.334 -2.30816 3.11131 0
M  V30 3003 H 294.748 -1.29901 5.08159 0
M  V30 3004 H 296.222 -2.95676 4.66133 0
M  V30 3005 H 296.699 -3.22098 2.98579 0
M  V30 3006 H 297.305 -1.79331 3.85643 0
M  V30 3007 N 295.62 -1.53406 -0.361157 0
M  V30 3008 C 296.583 -1.79479 -1.42548 0
M  V30 3009 C 297.583 -0.665327 -1.4639 0
M  V30 3010 O 298.773 -0.933549 -1.47073 0
M  V30 3011 C 295.905 -1.92087 -2.8163 0
M  V30 3012 H 297.098 -2.74538 -1.20701 0
M  V30 3013 H 294.651 -1.4455 -0.594546 0
M  V30 3014 H 295.386 -0.991099 -3.08784 0
M  V30 3015 H 295.171 -2.74241 -2.80239 0
M  V30 3016 H 296.661 -2.13836 -3.58697 0
M  V30 3017 N 297.098 0.621204 -1.44841 0
M  V30 3018 C 298.045 1.73267 -1.5247 0
M  V30 3019 C 299.015 1.6189 -0.371611 0
M  V30 3020 O 300.2 1.81668 -0.58321 0
M  V30 3021 C 297.34 3.11545 -1.48438 0
M  V30 3022 C 296.453 3.33827 -2.74196 0
M  V30 3023 C 295.588 4.62133 -2.61929 0
M  V30 3024 C 294.627 4.77627 -3.82804 0
M  V30 3025 N 293.764 5.97219 -3.69153 0
M  V30 3026 H 298.604 1.66082 -2.47428 0
M  V30 3027 H 296.141 0.810026 -1.22788 0
M  V30 3028 H 298.099 3.91528 -1.4409 0
M  V30 3029 H 296.729 3.1772 -0.570402 0
M  V30 3030 H 295.781 2.47715 -2.88689 0
M  V30 3031 H 297.093 3.41153 -3.6389 0
M  V30 3032 H 296.247 5.50291 -2.5547 0
M  V30 3033 H 294.986 4.57182 -1.69811 0
M  V30 3034 H 293.991 3.87896 -3.89637 0
M  V30 3035 H 295.216 4.84385 -4.75971 0
M  V30 3036 H 293.162 5.93339 -2.79794 0
M  V30 3037 H 293.079 6.05644 -4.52472 0
M  V30 3038 H 294.347 6.87912 -3.66603 0
M  V30 3039 N 298.576 1.31904 0.862503 0
M  V30 3040 C 299.523 1.20182 1.9704 0
M  V30 3041 C 300.493 0.0858247 1.65878 0
M  V30 3042 O 301.678 0.26 1.8902 0
M  V30 3043 C 298.818 0.922797 3.32533 0
M  V30 3044 C 297.931 2.12284 3.76244 0
M  V30 3045 C 297.066 1.77996 5.00491 0
M  V30 3046 C 296.105 2.94366 5.36671 0
M  V30 3047 N 295.242 2.60223 6.52095 0
M  V30 3048 H 300.082 2.14951 2.06398 0
M  V30 3049 H 297.619 1.06917 1.01031 0
M  V30 3050 H 299.577 0.741548 4.10557 0
M  V30 3051 H 298.207 0.0119227 3.22798 0
M  V30 3052 H 297.259 2.41461 2.9394 0
M  V30 3053 H 298.571 2.99357 3.98982 0
M  V30 3054 H 297.725 1.56377 5.862 0
M  V30 3055 H 296.464 0.881252 4.79672 0
M  V30 3056 H 295.469 3.16625 4.49476 0
M  V30 3057 H 296.694 3.84957 5.59451 0
M  V30 3058 H 294.64 1.72884 6.32809 0
M  V30 3059 H 294.557 3.40827 6.74814 0
M  V30 3060 H 295.825 2.42016 7.40978 0
M  V30 3061 N 300.054 -1.07777 1.14986 0
M  V30 3062 C 300.984 -2.16865 0.865557 0
M  V30 3063 C 301.965 -1.69123 -0.182083 0
M  V30 3064 O 303.15 -1.94164 -0.0373815 0
M  V30 3065 C 300.28 -3.45539 0.349313 0
M  V30 3066 C 299.234 -4.06708 1.33313 0
M  V30 3067 C 298.56 -5.30411 0.675918 0
M  V30 3068 C 299.86 -4.47241 2.69764 0
M  V30 3069 H 301.554 -2.40905 1.77778 0
M  V30 3070 H 299.1 -1.15781 0.856203 0
M  V30 3071 H 301.053 -4.21174 0.137983 0
M  V30 3072 H 299.777 -3.21072 -0.598362 0
M  V30 3073 H 298.436 -3.33112 1.53075 0
M  V30 3074 H 298.084 -5.02232 -0.277767 0
M  V30 3075 H 297.784 -5.72293 1.33244 0
M  V30 3076 H 299.308 -6.08755 0.474262 0
M  V30 3077 H 300.722 -5.14025 2.53873 0
M  V30 3078 H 299.119 -5.00062 3.3175 0
M  V30 3079 H 300.189 -3.58818 3.26156 0
M  V30 3080 N 301.532 -0.945985 -1.26051 0
M  V30 3081 C 302.48 -0.450259 -2.282 0
M  V30 3082 C 303.474 0.47497 -1.62605 0
M  V30 3083 O 304.68 0.352653 -1.76512 0
M  V30 3084 H 301.055 -0.127081 -0.741184 0
M  V30 3085 H 303.026 -1.32422 -2.67408 0
M  V30 3086 C 301.775 0.26467 -3.46691 0
M  V30 3087 H 301.098 -0.438123 -3.97392 0
M  V30 3088 H 302.538 0.575678 -4.20074 0
M  V30 3089 C 300.997 1.48416 -3.02447 0
M  V30 3090 O 301.527 2.58227 -3.07704 0
M  V30 3091 N 299.733 1.34243 -2.57735 0
M  V30 3092 H 299.28 0.448994 -2.53657 0
M  V30 3093 H 299.238 2.15957 -2.28495 0
M  V30 3094 N 303.011 1.40521 -0.713556 0
M  V30 3095 C 304.26 2.00155 -0.249192 0
M  V30 3096 C 304.573 1.57224 1.16362 0
M  V30 3097 O 305.779 2.09542 1.72639 0
M  V30 3098 C 304.235 3.5773 -0.3946 0
M  V30 3099 C 303.843 4.09635 -1.81392 0
M  V30 3100 C 305.587 4.24499 0.00907364 0
M  V30 3101 C 303.494 5.59707 -1.91003 0
M  V30 3102 H 302.424 0.74868 -0.0894114 0
M  V30 3103 H 305.075 1.60784 -0.884352 0
M  V30 3104 H 303.457 3.94792 0.30911 0
M  V30 3105 H 304.631 3.83955 -2.54785 0
M  V30 3106 H 302.946 3.55456 -2.16888 0
M  V30 3107 H 305.543 5.34683 -0.0420404 0
M  V30 3108 H 305.886 4.02824 1.05065 0
M  V30 3109 H 306.419 3.92536 -0.645007 0
M  V30 3110 H 303.158 5.86234 -2.93275 0
M  V30 3111 H 302.678 5.87258 -1.22019 0
M  V30 3112 H 304.357 6.24776 -1.6812 0
M  V30 3113 N 304.489 0.459591 1.5075 0
M  V30 3114 C 305.452 -0.329093 2.26825 0
M  V30 3115 C 306.452 -0.930481 1.31144 0
M  V30 3116 O 307.642 -0.801453 1.54669 0
M  V30 3117 C 304.774 -1.46768 3.07688 0
M  V30 3118 H 305.967 0.337924 2.9799 0
M  V30 3119 H 303.52 0.213336 1.54837 0
M  V30 3120 H 304.255 -2.17009 2.40993 0
M  V30 3121 H 304.04 -1.04238 3.77991 0
M  V30 3122 H 305.53 -2.02433 3.65254 0
M  V30 3123 N 305.967 -1.56429 0.191757 0
M  V30 3124 C 307.383 -1.58754 -0.164137 0
M  V30 3125 C 307.583 -1.20782 -1.61288 0
M  V30 3126 O 306.639 -0.928999 -2.34789 0
M  V30 3127 C 307.952 -3.00396 0.135195 0
M  V30 3128 C 309.5 -3.1291 0.0750351 0
M  V30 3129 C 309.975 -4.56679 0.347632 0
M  V30 3130 N 311.466 -4.62252 0.296131 0
M  V30 3131 C 312.201 -5.71379 0.480948 0
M  V30 3132 N 311.697 -6.88986 0.725933 0
M  V30 3133 N 313.49 -5.60563 0.415435 0
M  V30 3134 H 305.641 -1.79393 1.13718 0
M  V30 3135 H 307.904 -0.832414 0.453643 0
M  V30 3136 H 307.61 -3.32726 1.13958 0
M  V30 3137 H 307.484 -3.72963 -0.563773 0
M  V30 3138 H 309.871 -2.80394 -0.919948 0
M  V30 3139 H 309.952 -2.42736 0.807029 0
M  V30 3140 H 309.596 -4.89907 1.33992 0
M  V30 3141 H 309.526 -5.25039 -0.405212 0
M  V30 3142 H 312.017 -3.7773 0.113259 0
M  V30 3143 H 312.33 -7.68046 0.855857 0
M  V30 3144 H 310.675 -6.90801 0.762788 0
M  V30 3145 H 313.866 -4.67561 0.224486 0
M  V30 3146 H 314.039 -6.45551 0.562889 0
M  V30 3147 N 307.445 0.0818655 -1.57387 0
M  V30 3148 C 308.393 1.11712 -2.04018 0
M  V30 3149 C 309.387 1.40683 -0.94364 0
M  V30 3150 O 310.593 1.40209 -1.12878 0
M  V30 3151 H 306.968 0.377542 -0.650358 0
M  V30 3152 H 308.939 0.697614 -2.90131 0
M  V30 3153 C 307.688 2.42537 -2.49141 0
M  V30 3154 H 307.011 2.21092 -3.33104 0
M  V30 3155 H 308.451 3.13446 -2.85531 0
M  V30 3156 C 306.91 3.0778 -1.37014 0
M  V30 3157 O 307.44 3.95436 -0.706621 0
M  V30 3158 N 305.646 2.68242 -1.11779 0
M  V30 3159 H 305.193 1.97052 -1.65917 0
M  V30 3160 H 305.151 3.1222 -0.369594 0
M  V30 3161 N 308.923 1.53595 0.353017 0
M  V30 3162 C 309.833 1.83897 1.45667 0
M  V30 3163 C 310.849 0.728334 1.58023 0
M  V30 3164 O 312.025 1.01968 1.73679 0
M  V30 3165 C 309.09 2.03383 2.80778 0
M  V30 3166 C 308.151 3.27262 2.77845 0
M  V30 3167 C 307.384 3.45809 4.06512 0
M  V30 3168 O 307.607 2.68387 5.03314 0
M  V30 3169 O 306.541 4.39207 4.11559 0
M  V30 3170 H 310.367 2.77686 1.2298 0
M  V30 3171 H 307.952 1.39132 0.544308 0
M  V30 3172 H 309.834 2.17698 3.60812 0
M  V30 3173 H 308.509 1.12783 3.03417 0
M  V30 3174 H 307.416 3.18359 1.96465 0
M  V30 3175 H 308.749 4.17824 2.60161 0
M  V30 3176 N 310.401 -0.613514 1.45168 0
M  V30 3177 C 311.333 -1.73825 1.4939 0
M  V30 3178 C 312.346 -1.58175 0.385304 0
M  V30 3179 O 313.535 -1.66165 0.652036 0
M  V30 3180 C 310.635 -3.11758 1.32891 0
M  V30 3181 C 309.808 -3.53704 2.57317 0
M  V30 3182 C 308.867 -4.70579 2.35462 0
M  V30 3183 O 307.893 -4.77996 3.09044 0
M  V30 3184 N 309.095 -5.63454 1.39644 0
M  V30 3185 H 311.86 -1.70669 2.46358 0
M  V30 3186 H 309.421 -0.79862 1.40832 0
M  V30 3187 H 311.413 -3.87692 1.1609 0
M  V30 3188 H 309.983 -3.09456 0.442218 0
M  V30 3189 H 309.203 -2.67794 2.89275 0
M  V30 3190 H 310.491 -3.78486 3.40038 0
M  V30 3191 H 309.889 -5.6017 0.789062 0
M  V30 3192 H 308.446 -6.38944 1.28816 0
M  V30 3193 N 311.879 -1.3236 -0.855495 0
M  V30 3194 C 313.156 -1.13491 -1.59309 0
M  V30 3195 C 313.536 0.30503 -2.08885 0
M  V30 3196 O 312.884 1.30151 -1.87811 0
M  V30 3197 C 313.094 -2.16176 -2.73987 0
M  V30 3198 C 314.442 -2.49463 -3.43589 0
M  V30 3199 O 315.466 -2.14715 -2.84211 0
M  V30 3200 O 314.325 -3.09027 -4.50738 0
M  V30 3201 H 311.419 -0.437887 -0.701559 0
M  V30 3202 H 313.965 -1.43887 -0.899696 0
M  V30 3203 H 312.737 -3.1297 -2.34873 0
M  V30 3204 H 312.36 -1.86769 -3.51003 0
M  V30 3205 N 313.357 1.07166 -1.15556 0
M  V30 3206 C 314.32 2.12589 -0.856644 0
M  V30 3207 C 315.32 1.6015 0.14444 0
M  V30 3208 O 316.51 1.7399 -0.0854163 0
M  V30 3209 C 313.642 3.39753 -0.279405 0
M  V30 3210 H 314.835 2.40539 -1.79112 0
M  V30 3211 H 312.388 1.23086 -0.963298 0
M  V30 3212 H 313.123 3.17447 0.663174 0
M  V30 3213 H 312.908 3.79117 -1.00063 0
M  V30 3214 H 314.398 4.17507 -0.0879113 0
M  V30 3215 N 314.835 0.952656 1.25548 0
M  V30 3216 C 316.065 0.622592 1.96996 0
M  V30 3217 C 316.473 -0.809112 1.71026 0
M  V30 3218 O 315.816 -1.55258 0.981861 0
M  V30 3219 C 315.878 0.798946 3.5051 0
M  V30 3220 C 315.542 2.20744 4.00151 0
M  V30 3221 C 316.539 3.18394 4.11001 0
M  V30 3222 C 314.224 2.5311 4.33867 0
M  V30 3223 C 316.218 4.46504 4.54877 0
M  V30 3224 C 313.905 3.8145 4.7743 0
M  V30 3225 C 314.903 4.77959 4.87897 0
M  V30 3226 O 314.591 6.04012 5.30494 0
M  V30 3227 H 314.323 0.232503 0.634758 0
M  V30 3228 H 316.877 1.2789 1.60728 0
M  V30 3229 H 315.107 0.0854903 3.86605 0
M  V30 3230 H 316.796 0.47023 4.03167 0
M  V30 3231 H 317.562 2.94715 3.85186 0
M  V30 3232 H 313.441 1.78719 4.24948 0
M  V30 3233 H 316.985 5.21835 4.62962 0
M  V30 3234 H 312.882 4.04936 5.0269 0
M  V30 3235 H 313.65 6.0736 5.48685 0
M  V30 3236 N 316.313 -1.40141 0.720998 0
M  V30 3237 C 317.276 -2.29058 0.0805834 0
M  V30 3238 C 318.276 -1.45632 -0.681758 0
M  V30 3239 O 319.466 -1.6648 -0.512856 0
M  V30 3240 C 316.598 -3.28925 -0.895593 0
M  V30 3241 H 317.791 -2.87191 0.863793 0
M  V30 3242 H 315.344 -1.48553 0.485975 0
M  V30 3243 H 316.079 -2.75822 -1.70566 0
M  V30 3244 H 315.864 -3.90519 -0.351766 0
M  V30 3245 H 317.354 -3.95494 -1.34069 0
M  V30 3246 N 317.792 -0.46758 -1.50504 0
M  V30 3247 C 319.041 0.0902868 -2.01498 0
M  V30 3248 C 319.354 1.411 -1.35463 0
M  V30 3249 O 320.56 2.0536 -1.77594 0
M  V30 3250 C 319.016 0.21142 -3.59278 0
M  V30 3251 C 318.624 -1.10065 -4.34269 0
M  V30 3252 C 320.368 0.721433 -4.18325 0
M  V30 3253 C 318.275 -0.943505 -5.83825 0
M  V30 3254 H 317.205 0.037517 -0.753066 0
M  V30 3255 H 319.856 -0.601943 -1.73346 0
M  V30 3256 H 318.238 0.967352 -3.84003 0
M  V30 3257 H 319.412 -1.86726 -4.21272 0
M  V30 3258 H 317.727 -1.5415 -3.86816 0
M  V30 3259 H 320.324 0.85598 -5.27804 0
M  V30 3260 H 320.667 1.71186 -3.79475 0
M  V30 3261 H 321.2 0.0229843 -3.97793 0
M  V30 3262 H 317.939 -1.90719 -6.27141 0
M  V30 3263 H 317.459 -0.217213 -5.99407 0
M  V30 3264 H 319.138 -0.608715 -6.4413 0
M  V30 3265 N 319.27 1.56325 -0.20005 0
M  V30 3266 C 320.218 2.20666 0.735482 0
M  V30 3267 C 321.212 1.17934 1.21605 0
M  V30 3268 O 322.418 1.36068 1.17837 0
M  V30 3269 H 318.793 0.70725 0.255542 0
M  V30 3270 H 320.764 2.9792 0.169166 0
M  V30 3271 C 319.513 2.88391 1.94232 0
M  V30 3272 H 318.836 3.67185 1.58161 0
M  V30 3273 H 320.276 3.3684 2.57517 0
M  V30 3274 C 318.735 1.89692 2.78421 0
M  V30 3275 O 319.265 1.40032 3.76502 0
M  V30 3276 N 317.471 1.57813 2.44015 0
M  V30 3277 H 317.018 1.9839 1.64314 0
M  V30 3278 H 316.976 0.920325 3.00628 0
M  V30 3279 N 320.748 -0.0735177 1.57428 0
M  V30 3280 C 321.973 -0.789787 1.91774 0
M  V30 3281 C 322.398 -1.70413 0.796306 0
M  V30 3282 O 321.756 -1.79555 -0.250961 0
M  V30 3283 C 321.804 -1.5609 3.25067 0
M  V30 3284 O 320.908 -2.67144 3.14178 0
M  V30 3285 H 320.249 -0.215582 0.628029 0
M  V30 3286 H 322.779 -0.0422781 2.04556 0
M  V30 3287 H 322.789 -1.94052 3.58898 0
M  V30 3288 H 321.464 -0.890015 4.06265 0
M  V30 3289 H 320.041 -2.32052 2.91901 0
M  V30 3290 N 322.226 -1.5378 -0.344866 0
M  V30 3291 C 323.456 -1.74646 -1.10374 0
M  V30 3292 C 323.864 -0.48491 -1.8288 0
M  V30 3293 O 323.207 0.553062 -1.75177 0
M  V30 3294 C 323.269 -2.87145 -2.16306 0
M  V30 3295 C 322.933 -4.26795 -1.63386 0
M  V30 3296 C 323.93 -5.08412 -1.08688 0
M  V30 3297 C 321.615 -4.73276 -1.68272 0
M  V30 3298 C 323.609 -6.34609 -0.595792 0
M  V30 3299 C 321.296 -5.99446 -1.18776 0
M  V30 3300 C 322.294 -6.79946 -0.645215 0
M  V30 3301 O 321.982 -8.03745 -0.157626 0
M  V30 3302 H 321.714 -0.587112 -0.335075 0
M  V30 3303 H 324.268 -2.01403 -0.403252 0
M  V30 3304 H 322.498 -2.55909 -2.89909 0
M  V30 3305 H 324.187 -2.95992 -2.77747 0
M  V30 3306 H 324.953 -4.73666 -1.04236 0
M  V30 3307 H 320.832 -4.10677 -2.09442 0
M  V30 3308 H 324.376 -6.97389 -0.171654 0
M  V30 3309 H 320.273 -6.33687 -1.22928 0
M  V30 3310 H 321.041 -8.18038 -0.275037 0
M  V30 3311 N 323.704 0.605807 -1.45491 0
M  V30 3312 C 324.932 1.39136 -1.5313 0
M  V30 3313 C 325.347 1.88082 -0.164507 0
M  V30 3314 O 324.704 1.62316 0.834247 0
M  V30 3315 C 324.755 2.59463 -2.51716 0
M  V30 3316 O 324.476 2.12551 -3.83084 0
M  V30 3317 C 325.977 3.52301 -2.6907 0
M  V30 3318 H 323.197 0.425849 -0.51855 0
M  V30 3319 H 325.741 0.73865 -1.90694 0
M  V30 3320 H 323.896 3.20772 -2.17219 0
M  V30 3321 H 324.31 2.90744 -4.36541 0
M  V30 3322 H 325.784 4.33271 -3.42024 0
M  V30 3323 H 326.261 4.02757 -1.75167 0
M  V30 3324 H 326.867 2.96845 -3.04571 0
M  V30 3325 N 325.182 1.32811 0.848464 0
M  V30 3326 C 326.598 1.11937 1.13764 0
M  V30 3327 C 326.798 -0.0960789 2.01271 0
M  V30 3328 O 325.854 -0.779165 2.40178 0
M  V30 3329 C 327.167 2.402 1.809 0
M  V30 3330 C 328.715 2.46016 1.93508 0
M  V30 3331 C 329.19 3.74215 2.64059 0
M  V30 3332 N 330.681 3.75232 2.71579 0
M  V30 3333 C 331.416 4.71134 3.26833 0
M  V30 3334 N 330.912 5.77406 3.8285 0
M  V30 3335 N 332.705 4.58623 3.24995 0
M  V30 3336 H 324.856 2.1073 0.265855 0
M  V30 3337 H 327.119 0.930671 0.180431 0
M  V30 3338 H 326.825 3.29093 1.24058 0
M  V30 3339 H 326.699 2.51628 2.81004 0
M  V30 3340 H 329.086 1.57577 2.49506 0
M  V30 3341 H 329.167 2.38536 0.923811 0
M  V30 3342 H 328.811 4.63031 2.08722 0
M  V30 3343 H 328.741 3.78968 3.65637 0
M  V30 3344 H 331.232 2.98423 2.31845 0
M  V30 3345 H 331.545 6.46632 4.23187 0
M  V30 3346 H 329.89 5.81152 3.81165 0
M  V30 3347 H 333.081 3.74762 2.80484 0
M  V30 3348 H 333.254 5.33535 3.67756 0
M  V30 3349 N 326.66 -1.06551 1.16123 0
M  V30 3350 C 327.885 -1.83544 0.965735 0
M  V30 3351 C 328.31 -1.81843 -0.481102 0
M  V30 3352 O 327.668 -1.21732 -1.34354 0
M  V30 3353 C 327.716 -3.28169 1.49457 0
M  V30 3354 O 326.82 -4.0643 0.699157 0
M  V30 3355 H 326.161 -0.568026 0.343864 0
M  V30 3356 H 328.691 -1.34362 1.54299 0
M  V30 3357 H 328.701 -3.78992 1.51092 0
M  V30 3358 H 327.376 -3.28722 2.54784 0
M  V30 3359 H 325.953 -3.65216 0.7531 0
M  V30 3360 N 328.138 -0.959301 -1.25041 0
M  V30 3361 C 329.085 -0.482057 -2.2571 0
M  V30 3362 C 330.055 0.467939 -1.59372 0
M  V30 3363 O 331.24 0.380159 -1.86974 0
M  V30 3364 C 328.38 0.229623 -3.44335 0
M  V30 3365 C 327.493 -0.758156 -4.25295 0
M  V30 3366 C 326.628 -0.0234403 -5.31195 0
M  V30 3367 C 325.667 -1.00184 -6.03846 0
M  V30 3368 N 324.804 -0.29769 -7.01469 0
M  V30 3369 H 329.644 -1.34538 -2.65901 0
M  V30 3370 H 327.181 -0.674592 -1.3072 0
M  V30 3371 H 329.139 0.658856 -4.11965 0
M  V30 3372 H 327.769 1.05696 -3.05005 0
M  V30 3373 H 326.821 -1.30586 -3.57284 0
M  V30 3374 H 328.133 -1.50458 -4.75567 0
M  V30 3375 H 327.287 0.464201 -6.04922 0
M  V30 3376 H 326.026 0.755741 -4.81809 0
M  V30 3377 H 325.031 -1.50044 -5.2893 0
M  V30 3378 H 326.256 -1.78133 -6.55321 0
M  V30 3379 H 324.202 0.462668 -6.54366 0
M  V30 3380 H 324.119 -0.983128 -7.4958 0
M  V30 3381 H 325.387 0.16826 -7.79318 0
M  V30 3382 N 329.616 1.39756 -0.72842 0
M  V30 3383 C 330.579 2.29012 -0.0927297 0
M  V30 3384 C 331.579 1.45992 0.674025 0
M  V30 3385 O 332.769 1.66749 0.50402 0
M  V30 3386 C 329.901 3.29396 0.878137 0
M  V30 3387 H 331.094 2.86729 -0.879011 0
M  V30 3388 H 328.647 1.48293 -0.493847 0
M  V30 3389 H 329.382 2.76722 1.69101 0
M  V30 3390 H 329.167 3.907 0.331051 0
M  V30 3391 H 330.657 3.96199 1.3197 0
M  V30 3392 N 331.094 0.475555 1.50254 0
M  V30 3393 C 332.057 -0.305016 2.27161 0
M  V30 3394 C 333.057 -0.916519 1.32123 0
M  V30 3395 O 334.247 -0.785003 1.5551 0
M  V30 3396 C 331.379 -1.43496 3.09227 0
M  V30 3397 H 332.572 0.369511 2.97615 0
M  V30 3398 H 330.125 0.229747 1.54602 0
M  V30 3399 H 330.86 -2.14441 2.43281 0
M  V30 3400 H 330.645 -1.00223 3.79075 0
M  V30 3401 H 332.135 -1.98548 3.67381 0
M  V30 3402 N 332.573 -1.56217 0.208337 0
M  V30 3403 C 333.819 -1.98998 -0.42086 0
M  V30 3404 C 334.174 -1.09331 -1.58317 0
M  V30 3405 O 333.467 -0.140466 -1.91084 0
M  V30 3406 C 333.661 -3.45441 -0.916797 0
M  V30 3407 C 333.49 -4.49273 0.195925 0
M  V30 3408 C 332.26 -5.00998 0.657956 0
M  V30 3409 C 334.458 -5.04294 1.00956 0
M  V30 3410 N 332.44 -5.88514 1.74712 0
M  V30 3411 C 333.811 -5.88607 1.94785 0
M  V30 3412 C 335.866 -4.86692 1.05049 0
M  V30 3413 C 334.569 -6.572 2.9237 0
M  V30 3414 C 336.595 -5.56034 2.01446 0
M  V30 3415 C 335.957 -6.40105 2.94016 0
M  V30 3416 H 332.056 -0.772574 -0.121048 0
M  V30 3417 H 334.64 -1.92101 0.317075 0
M  V30 3418 H 332.811 -3.52812 -1.62413 0
M  V30 3419 H 334.543 -3.75164 -1.51771 0
M  V30 3420 H 331.298 -4.72945 0.248912 0
M  V30 3421 H 331.722 -6.36975 2.2933 0
M  V30 3422 H 336.364 -4.21359 0.348759 0
M  V30 3423 H 334.082 -7.21723 3.63512 0
M  V30 3424 H 337.668 -5.44385 2.0527 0
M  V30 3425 H 336.548 -6.92816 3.6739 0
M  V30 3426 N 334.051 0.0651679 -1.57465 0
M  V30 3427 C 334.961 1.09448 -2.07505 0
M  V30 3428 C 335.977 1.41974 -1.00595 0
M  V30 3429 O 337.153 1.52018 -1.32107 0
M  V30 3430 C 334.218 2.38689 -2.51453 0
M  V30 3431 C 333.279 2.13073 -3.72691 0
M  V30 3432 C 332.512 3.36152 -4.14533 0
M  V30 3433 O 332.735 4.45517 -3.56189 0
M  V30 3434 O 331.669 3.23974 -5.07272 0
M  V30 3435 H 335.495 0.69935 -2.95538 0
M  V30 3436 H 333.08 0.279752 -1.46757 0
M  V30 3437 H 334.962 3.14736 -2.80212 0
M  V30 3438 H 333.637 2.77568 -1.66546 0
M  V30 3439 H 332.544 1.34709 -3.49005 0
M  V30 3440 H 333.877 1.79071 -4.5847 0
M  V30 3441 N 335.529 1.53961 0.336706 0
M  V30 3442 C 336.492 1.81724 1.39675 0
M  V30 3443 C 337.492 0.688532 1.45313 0
M  V30 3444 O 338.682 0.956829 1.45569 0
M  V30 3445 C 335.814 1.96543 2.78538 0
M  V30 3446 H 337.007 2.76424 1.16318 0
M  V30 3447 H 334.56 1.45478 0.571474 0
M  V30 3448 H 335.295 1.0401 3.07168 0
M  V30 3449 H 335.08 2.78665 2.75841 0
M  V30 3450 H 336.57 2.19516 3.5525 0
M  V30 3451 N 337.007 -0.598083 1.45811 0
M  V30 3452 C 338.255 -1.35413 1.50026 0
M  V30 3453 C 338.576 -1.94444 0.147177 0
M  V30 3454 O 337.846 -1.77701 -0.824571 0
M  V30 3455 H 336.426 -0.502727 0.552517 0
M  V30 3456 H 339.088 -0.701606 1.81834 0
M  V30 3457 H 338.184 -2.16871 2.2444 0
M  V30 3458 N 338.485 -1.33259 -0.841409 0
M  V30 3459 C 339.432 -1.23302 -1.95103 0
M  V30 3460 C 340.402 -0.112204 -1.65721 0
M  V30 3461 O 341.587 -0.290038 -1.88583 0
M  V30 3462 C 338.727 -0.975583 -3.31023 0
M  V30 3463 C 337.84 -2.18243 -3.72819 0
M  V30 3464 C 336.975 -1.85936 -4.97595 0
M  V30 3465 C 336.014 -3.02866 -5.3192 0
M  V30 3466 N 335.151 -2.70565 -6.47873 0
M  V30 3467 H 339.991 -2.18207 -2.02952 0
M  V30 3468 H 337.528 -1.0851 -0.993173 0
M  V30 3469 H 339.486 -0.80677 -4.09325 0
M  V30 3470 H 338.116 -0.0632755 -3.22738 0
M  V30 3471 H 337.168 -2.46107 -2.90061 0
M  V30 3472 H 338.48 -3.05666 -3.94169 0
M  V30 3473 H 337.634 -1.65684 -5.83638 0
M  V30 3474 H 336.373 -0.957452 -4.78209 0
M  V30 3475 H 335.378 -3.23736 -4.44382 0
M  V30 3476 H 336.603 -3.93809 -5.53255 0
M  V30 3477 H 334.549 -1.8293 -6.29978 0
M  V30 3478 H 334.466 -3.51519 -6.69306 0
M  V30 3479 H 335.734 -2.53774 -7.37034 0
M  V30 3480 N 339.963 1.05934 -1.16686 0
M  V30 3481 C 341.21 1.788 -0.950622 0
M  V30 3482 C 341.538 1.87384 0.521305 0
M  V30 3483 O 340.793 1.36438 1.40297 0
M  V30 3484 C 341.092 3.23105 -1.52767 0
M  V30 3485 C 340.758 3.34594 -3.02254 0
M  V30 3486 C 339.42 3.37437 -3.43059 0
M  V30 3487 C 341.772 3.36219 -3.98254 0
M  V30 3488 C 339.1 3.39525 -4.78477 0
M  V30 3489 C 341.452 3.39845 -5.33562 0
M  V30 3490 C 340.116 3.40971 -5.73842 0
M  V30 3491 H 339.386 0.654275 -0.347857 0
M  V30 3492 H 342.033 1.24555 -1.45459 0
M  V30 3493 H 340.338 3.80227 -0.94524 0
M  V30 3494 H 342.035 3.7809 -1.336 0
M  V30 3495 H 338.625 3.3309 -2.6972 0
M  V30 3496 H 342.809 3.33231 -3.67792 0
M  V30 3497 H 338.065 3.38703 -5.09009 0
M  V30 3498 H 342.239 3.4005 -6.07733 0
M  V30 3499 H 339.866 3.42342 -6.78753 0
M  V30 3500 N 341.441 0.965919 1.2453 0
M  V30 3501 C 342.689 0.625593 1.92174 0
M  V30 3502 C 343.01 -0.841652 1.75901 0
M  V30 3503 O 342.28 -1.60061 1.12948 0
M  V30 3504 H 340.86 0.228388 0.71123 0
M  V30 3505 H 343.522 1.2266 1.51461 0
M  V30 3506 H 342.618 0.864653 2.99884 0
M  V30 3507 N 342.919 -1.39368 0.735821 0
M  V30 3508 C 343.867 -2.32443 0.0855131 0
M  V30 3509 C 344.861 -1.53104 -0.724954 0
M  V30 3510 O 346.067 -1.68762 -0.626047 0
M  V30 3511 H 342.442 -0.751948 0.00885257 0
M  V30 3512 H 344.413 -2.84916 0.886883 0
M  V30 3513 C 343.162 -3.38206 -0.806983 0
M  V30 3514 H 342.485 -3.99335 -0.19274 0
M  V30 3515 H 343.925 -4.05779 -1.2296 0
M  V30 3516 C 342.384 -2.75321 -1.94165 0
M  V30 3517 O 342.914 -2.63231 -3.03435 0
M  V30 3518 N 341.12 -2.33396 -1.73132 0
M  V30 3519 H 340.667 -2.4343 -0.842596 0
M  V30 3520 H 340.625 -1.91661 -2.49225 0
M  V30 3521 N 344.397 -0.483516 -1.5 0
M  V30 3522 C 345.307 0.309172 -2.32554 0
M  V30 3523 C 346.323 0.984159 -1.43493 0
M  V30 3524 O 347.499 0.969399 -1.76535 0
M  V30 3525 C 344.564 1.36979 -3.18493 0
M  V30 3526 C 343.625 0.710095 -4.23387 0
M  V30 3527 C 342.858 1.72018 -5.05218 0
M  V30 3528 O 343.081 2.94813 -4.88305 0
M  V30 3529 O 342.015 1.28515 -5.8802 0
M  V30 3530 H 345.841 -0.366064 -3.01486 0
M  V30 3531 H 343.426 -0.24514 -1.47375 0
M  V30 3532 H 345.308 1.98385 -3.71781 0
M  V30 3533 H 343.983 2.02828 -2.52275 0
M  V30 3534 H 342.89 0.0567539 -3.74057 0
M  V30 3535 H 344.223 0.0943557 -4.9211 0
M  V30 3536 N 345.875 1.56104 -0.216619 0
M  V30 3537 C 347.121 1.98466 0.417033 0
M  V30 3538 C 347.454 1.10403 1.59765 0
M  V30 3539 O 346.729 0.160632 1.93836 0
M  V30 3540 C 347.012 3.49769 0.85637 0
M  V30 3541 C 346.865 4.48606 -0.327546 0
M  V30 3542 C 348.184 4.05339 1.7143 0
M  V30 3543 H 345.303 0.721551 0.150112 0
M  V30 3544 H 347.945 1.87423 -0.311864 0
M  V30 3545 H 346.095 3.5931 1.47745 0
M  V30 3546 H 347.767 4.5108 -0.965618 0
M  V30 3547 H 346.01 4.22682 -0.975805 0
M  V30 3548 H 346.681 5.51995 0.0227149 0
M  V30 3549 H 349.157 3.98712 1.19031 0
M  V30 3550 H 348.033 5.11533 1.99061 0
M  V30 3551 H 348.294 3.51918 2.67593 0
M  V30 3552 N 347.353 -0.0568162 1.57498 0
M  V30 3553 C 348.602 -0.752001 1.87157 0
M  V30 3554 C 348.915 -1.77978 0.811375 0
M  V30 3555 O 350.121 -2.52559 0.996293 0
M  V30 3556 C 348.577 -1.38844 3.3204 0
M  V30 3557 C 348.185 -0.398456 4.46225 0
M  V30 3558 C 349.929 -2.06512 3.70882 0
M  V30 3559 C 347.836 -1.04166 5.82154 0
M  V30 3560 H 346.766 -0.28461 0.698222 0
M  V30 3561 H 349.417 -0.00561272 1.83499 0
M  V30 3562 H 347.799 -2.1836 3.30356 0
M  V30 3563 H 348.973 0.367977 4.59328 0
M  V30 3564 H 347.288 0.174592 4.16034 0
M  V30 3565 H 349.885 -2.55437 4.6974 0
M  V30 3566 H 350.228 -2.87117 3.01445 0
M  V30 3567 H 350.761 -1.33808 3.7462 0
M  V30 3568 H 347.5 -0.275614 6.5492 0
M  V30 3569 H 347.02 -1.7786 5.72823 0
M  V30 3570 H 348.699 -1.55715 6.27982 0
M  V30 3571 N 348.832 -1.54138 -0.328536 0
M  V30 3572 C 350.243 -1.63395 -0.903272 0
M  V30 3573 C 350.594 -0.524828 -1.8905 0
M  V30 3574 O 349.719 0.343068 -2.13663 0
M  V30 3575 C 350.314 -2.9618 -1.64507 0
M  V30 3576 C 348.873 -3.0765 -2.1686 0
M  V30 3577 C 348.02 -2.58933 -0.992416 0
M  V30 3578 H 350.971 -1.58344 -0.106253 0
M  V30 3579 H 350.992 -2.86061 -2.50897 0
M  V30 3580 H 350.504 -3.76884 -0.926302 0
M  V30 3581 H 348.605 -2.31611 -2.91868 0
M  V30 3582 H 348.718 -4.1337 -2.42202 0
M  V30 3583 H 347.082 -2.14706 -1.37016 0
M  V30 3584 H 347.865 -3.42089 -0.288041 0
M  V30 3585 N 350.31 0.590341 -1.46126 0
M  V30 3586 C 351.556 1.35082 -1.51264 0
M  V30 3587 C 351.889 1.93534 -0.160711 0
M  V30 3588 O 351.164 1.76045 0.826956 0
M  V30 3589 C 351.447 2.48588 -2.6053 0
M  V30 3590 C 351.3 1.95221 -4.05227 0
M  V30 3591 C 352.619 3.50662 -2.6594 0
M  V30 3592 H 349.738 0.489803 -0.550692 0
M  V30 3593 H 352.38 0.663887 -1.78024 0
M  V30 3594 H 350.53 3.07186 -2.37843 0
M  V30 3595 H 352.202 1.41139 -4.39178 0
M  V30 3596 H 350.445 1.26101 -4.15068 0
M  V30 3597 H 351.116 2.77121 -4.77397 0
M  V30 3598 H 353.592 3.01934 -2.86313 0
M  V30 3599 H 352.468 4.27551 -3.44226 0
M  V30 3600 H 352.729 4.07399 -1.71694 0
M  V30 3601 N 351.788 1.33704 0.83433 0
M  V30 3602 C 353.016 1.28467 1.62185 0
M  V30 3603 C 353.431 -0.143526 1.88254 0
M  V30 3604 O 352.788 -1.08709 1.4659 0
M  V30 3605 C 352.839 2.06174 2.96942 0
M  V30 3606 O 352.56 3.43422 2.72016 0
M  V30 3607 C 354.061 2.08201 3.91366 0
M  V30 3608 H 351.281 0.4424 0.504503 0
M  V30 3609 H 353.825 1.76145 1.03891 0
M  V30 3610 H 351.98 1.62167 3.51825 0
M  V30 3611 H 352.394 3.83453 3.57861 0
M  V30 3612 H 353.868 2.67017 4.83121 0
M  V30 3613 H 354.345 1.07343 4.2588 0
M  V30 3614 H 354.951 2.52246 3.42421 0
M  V30 3615 N 353.266 -1.05314 1.17247 0
M  V30 3616 C 354.512 -1.78557 0.961513 0
M  V30 3617 C 354.845 -1.87419 -0.508697 0
M  V30 3618 O 354.12 -1.37307 -1.37757 0
M  V30 3619 C 354.403 -3.22514 1.60176 0
M  V30 3620 C 354.256 -3.21673 3.14399 0
M  V30 3621 C 355.575 -4.20318 1.30463 0
M  V30 3622 H 352.694 -0.6482 0.350723 0
M  V30 3623 H 355.336 -1.23102 1.44727 0
M  V30 3624 H 353.486 -3.69867 1.18871 0
M  V30 3625 H 355.158 -2.82405 3.64753 0
M  V30 3626 H 353.401 -2.60048 3.47214 0
M  V30 3627 H 354.072 -4.23271 3.54324 0
M  V30 3628 H 356.548 -3.81454 1.66229 0
M  V30 3629 H 355.424 -5.19289 1.77848 0
M  V30 3630 H 355.685 -4.41526 0.22521 0
M  V30 3631 N 354.744 -0.972509 -1.24016 0
M  V30 3632 C 355.972 -0.654803 -1.96265 0
M  V30 3633 C 356.387 0.776708 -1.72083 0
M  V30 3634 O 355.744 1.52171 -1.00748 0
M  V30 3635 C 355.795 -0.92592 -3.49441 0
M  V30 3636 O 355.516 -2.30116 -3.72798 0
M  V30 3637 C 357.017 -0.623068 -4.38899 0
M  V30 3638 H 354.237 -0.243907 -0.6251 0
M  V30 3639 H 356.781 -1.30175 -1.57717 0
M  V30 3640 H 354.936 -0.325108 -3.86033 0
M  V30 3641 H 355.35 -2.38483 -4.67147 0
M  V30 3642 H 356.824 -0.863189 -5.45209 0
M  V30 3643 H 357.301 0.442754 -4.36963 0
M  V30 3644 H 357.907 -1.204 -4.07902 0
M  V30 3645 N 356.222 1.38976 -0.743202 0
M  V30 3646 C 357.468 2.0064 -0.295189 0
M  V30 3647 C 357.801 1.5885 1.11716 0
M  V30 3648 O 357.076 0.821181 1.76315 0
M  V30 3649 C 357.359 3.578 -0.406318 0
M  V30 3650 C 357.212 4.09586 -1.85903 0
M  V30 3651 C 358.531 4.39616 0.206439 0
M  V30 3652 H 355.65 0.728935 -0.108733 0
M  V30 3653 H 358.292 1.65067 -0.940897 0
M  V30 3654 H 356.442 3.88235 0.143419 0
M  V30 3655 H 358.114 3.89837 -2.46627 0
M  V30 3656 H 356.357 3.6284 -2.3776 0
M  V30 3657 H 357.028 5.18708 -1.888 0
M  V30 3658 H 359.504 4.15273 -0.262283 0
M  V30 3659 H 358.38 5.48812 0.0983819 0
M  V30 3660 H 358.641 4.22754 1.2935 0
M  V30 3661 N 357.7 0.491464 1.49741 0
M  V30 3662 C 358.647 -0.292027 2.28945 0
M  V30 3663 C 359.617 -0.968973 1.34908 0
M  V30 3664 O 360.802 -0.97748 1.6386 0
M  V30 3665 C 357.942 -1.35617 3.17336 0
M  V30 3666 C 357.055 -0.691957 4.26422 0
M  V30 3667 C 356.19 -1.73572 5.02042 0
M  V30 3668 C 355.229 -1.05286 6.02977 0
M  V30 3669 N 354.366 -2.0404 6.71798 0
M  V30 3670 H 359.206 0.389654 2.95442 0
M  V30 3671 H 356.743 0.204003 1.45679 0
M  V30 3672 H 358.701 -1.98502 3.66951 0
M  V30 3673 H 357.331 -2.00674 2.52844 0
M  V30 3674 H 356.383 0.0499523 3.80367 0
M  V30 3675 H 357.695 -0.153946 4.98562 0
M  V30 3676 H 356.849 -2.43987 5.55478 0
M  V30 3677 H 355.588 -2.30757 4.29654 0
M  V30 3678 H 354.593 -0.334446 5.48782 0
M  V30 3679 H 355.818 -0.487636 6.77347 0
M  V30 3680 H 353.764 -2.60205 6.02187 0
M  V30 3681 H 353.681 -1.55279 7.39881 0
M  V30 3682 H 354.949 -2.73772 7.29842 0
M  V30 3683 N 359.178 -1.55987 0.224894 0
M  V30 3684 C 360.426 -1.97998 -0.405099 0
M  V30 3685 C 360.747 -1.11387 -1.60056 0
M  V30 3686 O 360.017 -0.191645 -1.9496 0
M  V30 3687 H 358.597 -0.731235 -0.152658 0
M  V30 3688 H 361.259 -1.92279 0.318567 0
M  V30 3689 H 360.355 -3.03463 -0.729167 0
M  V30 3690 N 360.656 0.0484629 -1.57525 0
M  V30 3691 C 361.588 1.08222 -2.02041 0
M  V30 3692 C 362.601 1.33621 -0.930012 0
M  V30 3693 O 363.79 1.3145 -1.20761 0
M  V30 3694 C 360.89 2.42818 -2.36416 0
M  V30 3695 C 360.063 2.37049 -3.67596 0
M  V30 3696 C 359.122 3.53937 -3.89378 0
M  V30 3697 O 358.148 3.34308 -4.60681 0
M  V30 3698 N 359.35 4.75126 -3.3352 0
M  V30 3699 H 362.115 0.702946 -2.9134 0
M  V30 3700 H 359.676 0.236745 -1.6016 0
M  V30 3701 H 361.668 3.197 -2.48141 0
M  V30 3702 H 360.238 2.72661 -1.52888 0
M  V30 3703 H 359.458 1.45395 -3.66407 0
M  V30 3704 H 360.746 2.30318 -4.53686 0
M  V30 3705 H 360.144 4.93976 -2.75688 0
M  V30 3706 H 358.701 5.49439 -3.50656 0
M  V30 3707 N 362.134 1.5431 0.320358 0
M  V30 3708 C 363.545 1.63872 0.894594 0
M  V30 3709 C 363.896 0.534847 1.88769 0
M  V30 3710 O 363.021 -0.331732 2.13842 0
M  V30 3711 C 363.616 2.97049 1.62934 0
M  V30 3712 C 362.175 3.08796 2.15226 0
M  V30 3713 C 361.322 2.59456 0.978671 0
M  V30 3714 H 364.273 1.58398 0.0978544 0
M  V30 3715 H 364.294 2.87388 2.49376 0
M  V30 3716 H 363.806 3.7737 0.906302 0
M  V30 3717 H 361.907 2.33156 2.90636 0
M  V30 3718 H 362.02 4.14649 2.40006 0
M  V30 3719 H 360.384 2.1543 1.35875 0
M  V30 3720 H 361.167 3.42237 0.269895 0
M  V30 3721 N 363.613 -0.582584 1.46437 0
M  V30 3722 C 364.89 -1.34276 1.4223 0
M  V30 3723 C 365.27 -2.10835 0.10583 0
M  V30 3724 O 364.618 -2.09485 -0.912596 0
M  V30 3725 C 364.828 -2.26865 2.65204 0
M  V30 3726 C 366.176 -2.88691 3.11356 0
M  V30 3727 O 367.2 -2.37178 2.65753 0
M  V30 3728 O 366.059 -3.82255 3.90568 0
M  V30 3729 H 363.153 -0.603326 0.565621 0
M  V30 3730 H 365.699 -0.603591 1.58603 0
M  V30 3731 H 364.471 -1.69724 3.52576 0
M  V30 3732 H 364.094 -3.08122 2.5129 0
M  V30 3733 N 365.091 -1.34144 -0.827227 0
M  V30 3734 C 366.337 -1.26446 -1.58554 0
M  V30 3735 C 366.67 0.1664 -1.93486 0
M  V30 3736 O 365.945 1.1107 -1.59667 0
M  V30 3737 C 366.228 -2.15111 -2.8879 0
M  V30 3738 C 366.081 -3.66712 -2.60465 0
M  V30 3739 C 367.4 -2.03311 -3.90324 0
M  V30 3740 H 364.519 -0.46067 -0.575284 0
M  V30 3741 H 367.161 -1.64356 -0.953269 0
M  V30 3742 H 365.311 -1.8291 -3.42748 0
M  V30 3743 H 366.983 -4.09259 -2.1285 0
M  V30 3744 H 365.226 -3.88014 -1.93978 0
M  V30 3745 H 365.897 -4.24112 -3.53317 0
M  V30 3746 H 368.373 -2.31574 -3.45706 0
M  V30 3747 H 367.249 -2.67582 -4.79261 0
M  V30 3748 H 367.51 -1.00879 -4.30437 0
M  V30 3749 N 366.569 1.04691 -1.17803 0
M  V30 3750 C 367.815 1.78045 -0.970969 0
M  V30 3751 C 368.148 1.87686 0.498751 0
M  V30 3752 O 367.423 1.38035 1.37027 0
M  V30 3753 C 367.706 3.2166 -1.61884 0
M  V30 3754 C 367.559 3.20001 -3.161 0
M  V30 3755 C 368.878 4.1962 -1.3269 0
M  V30 3756 H 365.997 0.64633 -0.354155 0
M  V30 3757 H 368.639 1.22333 -1.45378 0
M  V30 3758 H 366.789 3.69232 -1.20831 0
M  V30 3759 H 368.461 2.80467 -3.66246 0
M  V30 3760 H 366.704 2.58203 -3.48588 0
M  V30 3761 H 367.375 4.21386 -3.56564 0
M  V30 3762 H 369.851 3.80567 -1.68249 0
M  V30 3763 H 368.727 5.18339 -1.80599 0
M  V30 3764 H 368.988 4.414 -0.248622 0
M  V30 3765 N 368.047 0.979072 1.23499 0
M  V30 3766 C 369.293 0.648178 1.92163 0
M  V30 3767 C 369.626 -0.816049 1.76222 0
M  V30 3768 O 368.901 -1.58849 1.12237 0
M  V30 3769 C 369.184 1.03773 3.44824 0
M  V30 3770 C 369.037 2.55948 3.69879 0
M  V30 3771 C 370.356 0.580653 4.36253 0
M  V30 3772 H 367.475 0.236952 0.69787 0
M  V30 3773 H 370.117 1.22012 1.45647 0
M  V30 3774 H 368.267 0.551058 3.84572 0
M  V30 3775 H 369.939 3.12179 3.3962 0
M  V30 3776 H 368.182 2.98641 3.14636 0
M  V30 3777 H 368.853 2.78255 4.76737 0
M  V30 3778 H 371.329 0.998465 4.03943 0
M  V30 3779 H 370.205 0.881663 5.41773 0
M  V30 3780 H 370.466 -0.519052 4.39042 0
M  V30 3781 N 369.525 -1.3858 0.750561 0
M  V30 3782 C 370.472 -2.30483 0.120835 0
M  V30 3783 C 371.442 -1.50022 -0.712923 0
M  V30 3784 O 372.627 -1.78662 -0.669676 0
M  V30 3785 C 369.767 -3.36431 -0.768666 0
M  V30 3786 C 368.88 -4.31927 0.0793922 0
M  V30 3787 C 368.015 -5.24944 -0.81283 0
M  V30 3788 C 367.054 -6.12088 0.0390447 0
M  V30 3789 N 366.191 -6.97412 -0.809969 0
M  V30 3790 H 371.031 -2.83761 0.91015 0
M  V30 3791 H 368.568 -1.39707 0.460463 0
M  V30 3792 H 370.526 -3.96462 -1.29898 0
M  V30 3793 H 369.156 -2.8457 -1.5238 0
M  V30 3794 H 368.208 -3.73382 0.727303 0
M  V30 3795 H 369.52 -4.93319 0.737401 0
M  V30 3796 H 368.674 -5.90078 -1.41042 0
M  V30 3797 H 367.413 -4.63911 -1.50458 0
M  V30 3798 H 366.418 -5.45952 0.649328 0
M  V30 3799 H 367.643 -6.75189 0.727809 0
M  V30 3800 H 365.589 -6.38931 -1.48672 0
M  V30 3801 H 365.506 -7.55712 -0.208789 0
M  V30 3802 H 366.774 -7.66959 -1.39263 0
M  V30 3803 N 371.003 -0.499398 -1.49478 0
M  V30 3804 C 371.913 0.284489 -2.32869 0
M  V30 3805 C 372.929 0.968885 -1.44529 0
M  V30 3806 O 374.105 0.95062 -1.77553 0
M  V30 3807 C 371.17 1.33594 -3.19928 0
M  V30 3808 C 370.231 0.665149 -4.24116 0
M  V30 3809 C 369.464 1.6665 -5.07014 0
M  V30 3810 O 369.687 2.89618 -4.91404 0
M  V30 3811 O 368.621 1.22271 -5.8935 0
M  V30 3812 H 372.447 -0.39802 -3.01081 0
M  V30 3813 H 370.032 -0.260758 -1.47107 0
M  V30 3814 H 371.914 1.94431 -3.73864 0
M  V30 3815 H 370.589 2.0014 -2.54412 0
M  V30 3816 H 369.496 0.0170769 -3.74096 0
M  V30 3817 H 370.829 0.0421555 -4.92182 0
M  V30 3818 N 372.481 1.55866 -0.233164 0
M  V30 3819 C 373.758 1.90471 0.444988 0
M  V30 3820 C 374.138 1.15209 1.7689 0
M  V30 3821 O 373.486 0.265119 2.26957 0
M  V30 3822 C 373.696 3.4333 0.626559 0
M  V30 3823 C 375.044 4.14319 0.92871 0
M  V30 3824 O 376.068 3.48993 0.712926 0
M  V30 3825 O 374.927 5.29846 1.33887 0
M  V30 3826 H 372.021 0.792347 0.236885 0
M  V30 3827 H 374.567 1.67437 -0.276211 0
M  V30 3828 H 373.339 3.90095 -0.306822 0
M  V30 3829 H 372.962 3.72181 1.39881 0
M  V30 3830 N 373.959 -0.0401083 1.57549 0
M  V30 3831 C 374.869 -1.06133 2.0922 0
M  V30 3832 C 375.885 -1.40356 1.0284 0
M  V30 3833 O 377.061 -1.49897 1.34509 0
M  V30 3834 C 374.126 -2.34658 2.55218 0
M  V30 3835 C 373.187 -2.07117 3.76033 0
M  V30 3836 C 372.42 -3.29514 4.19829 0
M  V30 3837 O 372.643 -4.39794 3.63232 0
M  V30 3838 O 371.577 -3.15863 5.12362 0
M  V30 3839 H 375.403 -0.652244 2.96613 0
M  V30 3840 H 372.988 -0.256368 1.47184 0
M  V30 3841 H 374.87 -3.10239 2.85184 0
M  V30 3842 H 373.545 -2.74883 1.70941 0
M  V30 3843 H 372.452 -1.29139 3.51104 0
M  V30 3844 H 373.785 -1.71754 4.61261 0
M  V30 3845 N 375.437 -1.54477 -0.31217 0
M  V30 3846 C 376.347 -1.87695 -1.4074 0
M  V30 3847 C 377.363 -0.769975 -1.56036 0
M  V30 3848 O 378.539 -1.06537 -1.70915 0
M  V30 3849 C 375.604 -2.10755 -2.75287 0
M  V30 3850 C 374.665 -3.34514 -2.69071 0
M  V30 3851 C 373.898 -3.56465 -3.97201 0
M  V30 3852 O 374.121 -2.81637 -4.96021 0
M  V30 3853 O 373.055 -4.49964 -3.9977 0
M  V30 3854 H 376.881 -2.80849 -1.15574 0
M  V30 3855 H 374.466 -1.40526 -0.507228 0
M  V30 3856 H 376.348 -2.27188 -3.54913 0
M  V30 3857 H 375.023 -1.20788 -3.0032 0
M  V30 3858 H 373.93 -3.23456 -1.87955 0
M  V30 3859 H 375.263 -4.24575 -2.48992 0
M  V30 3860 N 376.915 0.57481 -1.46744 0
M  V30 3861 C 378.145 1.35659 -1.55821 0
M  V30 3862 C 378.553 1.88129 -0.201036 0
M  V30 3863 O 377.896 1.64723 0.813134 0
M  V30 3864 C 377.958 2.57473 -2.50894 0
M  V30 3865 C 377.622 2.26415 -3.9697 0
M  V30 3866 C 378.619 1.84771 -4.85958 0
M  V30 3867 C 376.304 2.38316 -4.42166 0
M  V30 3868 C 378.298 1.55434 -6.18158 0
M  V30 3869 C 375.985 2.08591 -5.74398 0
M  V30 3870 C 376.983 1.67216 -6.62214 0
M  V30 3871 O 376.671 1.37859 -7.91991 0
M  V30 3872 H 376.403 0.420496 -0.529301 0
M  V30 3873 H 378.957 0.704967 -1.92923 0
M  V30 3874 H 377.187 3.25468 -2.08824 0
M  V30 3875 H 378.876 3.19546 -2.50291 0
M  V30 3876 H 379.642 1.75085 -4.52295 0
M  V30 3877 H 375.521 2.69483 -3.74032 0
M  V30 3878 H 379.065 1.23065 -6.86659 0
M  V30 3879 H 374.962 2.17905 -6.07608 0
M  V30 3880 H 375.73 1.51638 -8.04331 0
M  V30 3881 N 378.394 1.34581 0.820102 0
M  V30 3882 C 379.341 1.2639 1.93117 0
M  V30 3883 C 380.311 0.138554 1.65521 0
M  V30 3884 O 381.496 0.320004 1.88097 0
M  V30 3885 C 378.636 1.02812 3.29429 0
M  V30 3886 C 377.749 2.24146 3.693 0
M  V30 3887 C 376.884 1.93829 4.94574 0
M  V30 3888 C 375.923 3.1129 5.27034 0
M  V30 3889 N 375.06 2.80838 6.43486 0
M  V30 3890 H 379.9 2.21408 1.99455 0
M  V30 3891 H 377.437 1.10077 0.975784 0
M  V30 3892 H 379.395 0.871788 4.0799 0
M  V30 3893 H 378.025 0.114612 3.22596 0
M  V30 3894 H 377.077 2.50691 2.86109 0
M  V30 3895 H 378.389 3.11899 3.89257 0
M  V30 3896 H 377.543 1.74948 5.80929 0
M  V30 3897 H 376.282 1.03341 4.76626 0
M  V30 3898 H 375.287 3.30764 4.39175 0
M  V30 3899 H 376.512 4.02561 5.4692 0
M  V30 3900 H 374.458 1.92929 6.26988 0
M  V30 3901 H 374.375 3.62123 6.63629 0
M  V30 3902 H 375.643 2.65467 7.32903 0
M  V30 3903 N 379.872 -1.04064 1.18357 0
M  V30 3904 C 381.288 -1.2947 0.933258 0
M  V30 3905 C 381.488 -1.97466 -0.401169 0
M  V30 3906 O 380.544 -2.25528 -1.13549 0
M  V30 3907 C 381.857 -2.15337 2.09882 0
M  V30 3908 C 383.405 -2.28683 2.13712 0
M  V30 3909 C 383.88 -3.17917 3.29686 0
M  V30 3910 N 385.371 -3.25504 3.29547 0
M  V30 3911 C 386.106 -3.94706 4.15926 0
M  V30 3912 N 385.602 -4.66239 5.12439 0
M  V30 3913 N 387.395 -3.90986 4.0384 0
M  V30 3914 H 379.546 -0.583359 2.04232 0
M  V30 3915 H 381.809 -0.319921 0.892387 0
M  V30 3916 H 381.515 -1.72682 3.06389 0
M  V30 3917 H 381.389 -3.16015 2.05947 0
M  V30 3918 H 383.776 -2.70575 1.17784 0
M  V30 3919 H 383.857 -1.27596 2.21705 0
M  V30 3920 H 383.501 -2.76736 4.25887 0
M  V30 3921 H 383.431 -4.19036 3.1893 0
M  V30 3922 H 385.922 -2.74547 2.59677 0
M  V30 3923 H 386.235 -5.16638 5.74722 0
M  V30 3924 H 384.58 -4.65143 5.16398 0
M  V30 3925 H 387.771 -3.34234 3.27727 0
M  V30 3926 H 387.944 -4.44646 4.71375 0
M  V30 3927 N 381.35 -0.985608 -1.22978 0
M  V30 3928 C 382.596 -0.65836 -1.91816 0
M  V30 3929 C 382.929 0.806692 -1.76653 0
M  V30 3930 O 382.204 1.58252 -1.13078 0
M  V30 3931 C 382.487 -1.056 -3.44268 0
M  V30 3932 C 382.34 -2.57906 -3.68516 0
M  V30 3933 C 383.659 -0.603781 -4.35939 0
M  V30 3934 H 380.778 -0.24065 -0.696604 0
M  V30 3935 H 383.42 -1.22783 -1.44998 0
M  V30 3936 H 381.57 -0.571445 -3.84274 0
M  V30 3937 H 383.242 -3.13976 -3.3796 0
M  V30 3938 H 381.485 -3.00305 -3.13048 0
M  V30 3939 H 382.156 -2.80779 -4.75255 0
M  V30 3940 H 384.632 -1.01987 -4.03408 0
M  V30 3941 H 383.508 -0.910383 -5.41298 0
M  V30 3942 H 383.769 0.495761 -4.39312 0
M  V30 3943 N 382.828 1.3818 -0.7579 0
M  V30 3944 C 384.105 1.94106 -0.241306 0
M  V30 3945 C 384.485 1.69282 1.26122 0
M  V30 3946 O 383.833 1.03378 2.03777 0
M  V30 3947 C 384.043 3.43809 -0.59967 0
M  V30 3948 C 385.391 4.20868 -0.561717 0
M  V30 3949 O 386.415 3.5211 -0.538222 0
M  V30 3950 O 385.274 5.43451 -0.576478 0
M  V30 3951 H 382.368 0.825376 -0.0518042 0
M  V30 3952 H 384.914 1.47548 -0.838315 0
M  V30 3953 H 383.686 3.55403 -1.6372 0
M  V30 3954 H 383.309 3.97592 0.0251197 0
M  V30 3955 N 384.306 0.507319 1.49211 0
M  V30 3956 C 385.553 -0.0349529 2.0247 0
M  V30 3957 C 385.881 -1.36409 1.38647 0
M  V30 3958 O 385.136 -1.88841 0.513566 0
M  V30 3959 C 385.435 -0.229513 3.56662 0
M  V30 3960 C 385.101 1.02241 4.39156 0
M  V30 3961 C 383.763 1.36557 4.61417 0
M  V30 3962 C 386.115 1.85428 4.871 0
M  V30 3963 C 383.443 2.53999 5.28868 0
M  V30 3964 C 385.795 3.02028 5.55843 0
M  V30 3965 C 384.459 3.36717 5.76349 0
M  V30 3966 H 383.729 -0.0127902 0.74089 0
M  V30 3967 H 386.376 0.668756 1.79443 0
M  V30 3968 H 384.681 -1.0158 3.78403 0
M  V30 3969 H 386.378 -0.663641 3.9547 0
M  V30 3970 H 382.968 0.745124 4.22073 0
M  V30 3971 H 387.152 1.6023 4.69723 0
M  V30 3972 H 382.408 2.81105 5.42946 0
M  V30 3973 H 386.582 3.66808 5.91967 0
M  V30 3974 H 384.209 4.27821 6.28389 0
M  V30 3975 N 385.784 -1.5574 0.241426 0
M  V30 3976 C 387.009 -2.0366 -0.392111 0
M  V30 3977 C 387.434 -1.11969 -1.51144 0
M  V30 3978 O 386.792 -0.111594 -1.80956 0
M  V30 3979 C 386.84 -3.49638 -0.882371 0
M  V30 3980 O 385.944 -3.6108 -1.99235 0
M  V30 3981 H 385.285 -0.658379 -0.0862122 0
M  V30 3982 H 387.815 -2.01302 0.365881 0
M  V30 3983 H 387.825 -3.90351 -1.18702 0
M  V30 3984 H 386.5 -4.15852 -0.0632361 0
M  V30 3985 H 385.077 -3.32262 -1.69282 0
M  V30 3986 N 387.262 0.0317525 -1.57568 0
M  V30 3987 C 388.209 1.0332 -2.06382 0
M  V30 3988 C 389.179 1.36082 -0.952414 0
M  V30 3989 O 390.364 1.46466 -1.2228 0
M  V30 3990 C 387.504 2.32989 -2.54578 0
M  V30 3991 C 386.617 2.0641 -3.79498 0
M  V30 3992 C 385.752 3.2993 -4.16317 0
M  V30 3993 C 384.791 2.98893 -5.34162 0
M  V30 3994 N 383.928 4.14857 -5.66426 0
M  V30 3995 H 388.768 0.609982 -2.9169 0
M  V30 3996 H 386.305 0.289573 -1.44222 0
M  V30 3997 H 388.263 3.0875 -2.80587 0
M  V30 3998 H 386.893 2.73039 -1.7219 0
M  V30 3999 H 385.945 1.21158 -3.6059 0
M  V30 4000 H 387.257 1.79513 -4.65378 0
M  V30 4001 H 386.411 4.1406 -4.4344 0
M  V30 4002 H 385.15 3.59938 -3.29083 0
M  V30 4003 H 384.155 2.13164 -5.06795 0
M  V30 4004 H 385.38 2.70165 -6.23047 0
M  V30 4005 H 383.326 4.44821 -4.82151 0
M  V30 4006 H 383.243 3.91374 -6.4681 0
M  V30 4007 H 384.511 4.99868 -5.98124 0
M  V30 4008 N 388.74 1.54641 0.303973 0
M  V30 4009 C 389.986 1.74038 1.04109 0
M  V30 4010 C 390.319 0.523051 1.87024 0
M  V30 4011 O 389.594 -0.479874 1.88487 0
M  V30 4012 C 389.877 3.02761 1.94955 0
M  V30 4013 C 389.73 4.34787 1.1524 0
M  V30 4014 C 391.049 3.27336 2.94175 0
M  V30 4015 H 388.168 0.63323 0.377079 0
M  V30 4016 H 390.81 1.87354 0.316001 0
M  V30 4017 H 388.96 2.9154 2.56782 0
M  V30 4018 H 390.632 4.57922 0.557236 0
M  V30 4019 H 388.875 4.31407 0.455053 0
M  V30 4020 H 389.546 5.21116 1.8205 0
M  V30 4021 H 392.022 3.38148 2.42477 0
M  V30 4022 H 390.898 4.18726 3.54908 0
M  V30 4023 H 391.159 2.45491 3.67677 0
M  V30 4024 N 390.218 -0.567019 1.47046 0
M  V30 4025 C 391.629 -1.14916 1.47143 0
M  V30 4026 C 391.98 -1.94954 0.220767 0
M  V30 4027 O 391.105 -2.05602 -0.67505 0
M  V30 4028 C 391.7 -2.09069 2.666 0
M  V30 4029 C 390.259 -2.62575 2.69687 0
M  V30 4030 C 389.406 -1.38755 2.40088 0
M  V30 4031 H 392.357 -0.354126 1.54699 0
M  V30 4032 H 392.378 -2.92789 2.43011 0
M  V30 4033 H 391.89 -1.50789 3.57609 0
M  V30 4034 H 389.991 -3.24681 1.82792 0
M  V30 4035 H 390.104 -3.04239 3.70102 0
M  V30 4036 H 388.468 -1.69098 1.90468 0
M  V30 4037 H 389.251 -0.822822 3.33293 0
M  V30 4038 N 391.696 -1.35014 -0.812953 0
M  V30 4039 C 392.643 -1.27412 -1.92444 0
M  V30 4040 C 393.613 -0.14733 -1.65445 0
M  V30 4041 O 394.798 -0.329974 -1.87925 0
M  V30 4042 C 391.938 -1.04558 -3.28879 0
M  V30 4043 C 391.051 -2.26101 -3.68106 0
M  V30 4044 C 390.186 -1.96449 -4.9354 0
M  V30 4045 C 389.225 -3.14081 -5.25376 0
M  V30 4046 N 388.362 -2.84246 -6.41988 0
M  V30 4047 H 393.202 -2.22463 -1.98278 0
M  V30 4048 H 390.739 -1.10593 -0.969933 0
M  V30 4049 H 392.697 -0.893413 -4.07522 0
M  V30 4050 H 391.327 -0.131719 -3.22531 0
M  V30 4051 H 390.379 -2.52204 -2.84775 0
M  V30 4052 H 391.691 -3.13959 -3.87597 0
M  V30 4053 H 390.845 -1.78026 -5.79993 0
M  V30 4054 H 389.584 -1.05867 -4.76071 0
M  V30 4055 H 388.589 -3.33089 -4.37415 0
M  V30 4056 H 389.814 -4.05455 -5.44778 0
M  V30 4057 H 387.76 -1.96252 -6.25956 0
M  V30 4058 H 387.677 -3.65637 -6.61699 0
M  V30 4059 H 388.945 -2.6935 -7.31485 0
M  V30 4060 N 393.175 1.03435 -1.18907 0
M  V30 4061 C 394.105 2.13503 -0.945448 0
M  V30 4062 C 395.086 1.69682 0.119189 0
M  V30 4063 O 396.271 1.94169 -0.034707 0
M  V30 4064 C 393.401 3.44004 -0.477316 0
M  V30 4065 C 392.355 4.0148 -1.48316 0
M  V30 4066 C 391.681 5.27537 -0.872311 0
M  V30 4067 C 392.981 4.36921 -2.86177 0
M  V30 4068 H 394.675 2.34141 -1.86597 0
M  V30 4069 H 392.221 1.12523 -0.898584 0
M  V30 4070 H 394.174 4.20372 -0.294204 0
M  V30 4071 H 392.898 3.23072 0.478786 0
M  V30 4072 H 391.557 3.27201 -1.65332 0
M  V30 4073 H 391.205 5.02917 0.0911752 0
M  V30 4074 H 390.905 5.66954 -1.54393 0
M  V30 4075 H 392.429 6.06576 -0.699871 0
M  V30 4076 H 393.843 5.04248 -2.72776 0
M  V30 4077 H 392.24 4.87405 -3.50081 0
M  V30 4078 H 393.31 3.46466 -3.39248 0
M  V30 4079 N 394.653 0.992116 1.22453 0
M  V30 4080 C 395.6 0.541731 2.24352 0
M  V30 4081 C 396.57 -0.425519 1.60557 0
M  V30 4082 O 397.755 -0.330453 1.87917 0
M  V30 4083 C 394.895 -0.138248 3.44823 0
M  V30 4084 C 394.008 0.870649 4.23136 0
M  V30 4085 C 393.143 0.164269 5.30946 0
M  V30 4086 C 392.182 1.16159 6.00977 0
M  V30 4087 N 391.319 0.483568 7.00433 0
M  V30 4088 H 396.159 1.41541 2.62241 0
M  V30 4089 H 393.696 0.709013 1.28885 0
M  V30 4090 H 395.654 -0.5494 4.13567 0
M  V30 4091 H 394.284 -0.975721 3.077 0
M  V30 4092 H 393.336 1.40013 3.53696 0
M  V30 4093 H 394.648 1.63014 4.7141 0
M  V30 4094 H 393.802 -0.303653 6.0594 0
M  V30 4095 H 392.541 -0.627733 4.83643 0
M  V30 4096 H 391.546 1.64015 5.24766 0
M  V30 4097 H 392.771 1.95445 6.50368 0
M  V30 4098 H 390.717 -0.289012 6.55363 0
M  V30 4099 H 390.634 1.18152 7.4671 0
M  V30 4100 H 391.902 0.0384219 7.79491 0
M  V30 4101 N 396.131 -1.37776 0.765217 0
M  V30 4102 C 397.359 -2.04124 0.337767 0
M  V30 4103 C 397.774 -1.57715 -1.03785 0
M  V30 4104 O 397.131 -0.755447 -1.6613 0
M  V30 4105 C 397.182 -3.59658 0.364442 0
M  V30 4106 O 396.903 -4.04367 1.68579 0
M  V30 4107 C 398.404 -4.43236 -0.0754221 0
M  V30 4108 H 395.624 -0.655696 0.142491 0
M  V30 4109 H 398.168 -1.76238 1.03732 0
M  V30 4110 H 396.323 -3.86339 -0.286471 0
M  V30 4111 H 396.737 -4.98857 1.61993 0
M  V30 4112 H 398.211 -5.52 -0.00560067 0
M  V30 4113 H 398.688 -4.2455 -1.12491 0
M  V30 4114 H 399.294 -4.21767 0.547055 0
M  V30 4115 N 397.609 -0.515225 -1.4894 0
M  V30 4116 C 398.855 0.0242508 -2.02785 0
M  V30 4117 C 399.188 1.35323 -1.39289 0
M  V30 4118 O 398.463 1.87041 -0.533469 0
M  V30 4119 C 398.746 0.16184 -3.59736 0
M  V30 4120 C 398.599 -1.19127 -4.33738 0
M  V30 4121 C 399.918 0.895719 -4.30888 0
M  V30 4122 H 397.037 0.00733914 -0.736963 0
M  V30 4123 H 399.679 -0.669395 -1.77818 0
M  V30 4124 H 397.829 0.752624 -3.8114 0
M  V30 4125 H 399.501 -1.82202 -4.23792 0
M  V30 4126 H 397.744 -1.77695 -3.95736 0
M  V30 4127 H 398.415 -1.04815 -5.41957 0
M  V30 4128 H 400.891 0.394528 -4.14225 0
M  V30 4129 H 399.767 0.960859 -5.40425 0
M  V30 4130 H 400.028 1.9427 -3.97129 0
M  V30 4131 N 399.087 1.5561 -0.249682 0
M  V30 4132 C 400.334 1.99011 0.374287 0
M  V30 4133 C 400.662 1.13785 1.57744 0
M  V30 4134 O 399.917 0.189326 1.94782 0
M  V30 4135 C 400.216 3.4775 0.824887 0
M  V30 4136 C 399.882 4.50086 -0.270819 0
M  V30 4137 C 398.544 4.77791 -0.571746 0
M  V30 4138 C 400.896 5.11312 -1.01041 0
M  V30 4139 C 398.224 5.63997 -1.61629 0
M  V30 4140 C 400.576 5.98651 -2.0445 0
M  V30 4141 C 399.24 6.24688 -2.35204 0
M  V30 4142 H 398.51 0.728233 0.136961 0
M  V30 4143 H 401.157 1.88122 -0.358087 0
M  V30 4144 H 399.462 3.55985 1.63651 0
M  V30 4145 H 401.159 3.78721 1.31799 0
M  V30 4146 H 397.749 4.28592 -0.026136 0
M  V30 4147 H 401.933 4.89953 -0.791177 0
M  V30 4148 H 397.189 5.82425 -1.85988 0
M  V30 4149 H 401.363 6.45135 -2.62248 0
M  V30 4150 H 398.99 6.91281 -3.16282 0
M  V30 4151 N 400.565 -0.0233959 1.57583 0
M  V30 4152 C 401.497 -1.04994 2.03737 0
M  V30 4153 C 402.51 -1.32125 0.951152 0
M  V30 4154 O 403.699 -1.29512 1.22837 0
M  V30 4155 C 400.799 -2.39026 2.40249 0
M  V30 4156 C 399.972 -2.31171 3.7132 0
M  V30 4157 C 399.031 -3.47698 3.94959 0
M  V30 4158 O 398.057 -3.26937 4.65941 0
M  V30 4159 N 399.259 -4.6976 3.41037 0
M  V30 4160 H 402.024 -0.656507 2.92421 0
M  V30 4161 H 399.585 -0.211235 1.60516 0
M  V30 4162 H 401.577 -3.15712 2.53196 0
M  V30 4163 H 400.147 -2.70194 1.57207 0
M  V30 4164 H 399.367 -1.39547 3.68674 0
M  V30 4165 H 400.655 -2.23071 4.57293 0
M  V30 4166 H 400.053 -4.89528 2.83512 0
M  V30 4167 H 398.61 -5.43791 3.59353 0
M  V30 4168 N 402.043 -1.548 -0.295768 0
M  V30 4169 C 402.99 -1.86113 -1.36494 0
M  V30 4170 C 403.96 -0.7105 -1.50137 0
M  V30 4171 O 405.145 -0.959626 -1.64912 0
M  V30 4172 C 402.285 -2.11861 -2.72413 0
M  V30 4173 C 401.398 -3.39471 -2.67177 0
M  V30 4174 C 400.533 -3.55035 -3.95125 0
M  V30 4175 C 399.572 -4.76418 -3.84308 0
M  V30 4176 N 398.709 -4.8876 -5.04042 0
M  V30 4177 H 403.549 -2.77314 -1.09091 0
M  V30 4178 H 401.086 -1.37315 -0.52753 0
M  V30 4179 H 403.044 -2.24786 -3.51464 0
M  V30 4180 H 401.674 -1.2392 -2.98066 0
M  V30 4181 H 400.726 -3.35139 -1.79962 0
M  V30 4182 H 402.038 -4.28646 -2.55076 0
M  V30 4183 H 401.192 -3.67653 -4.82614 0
M  V30 4184 H 399.931 -2.64002 -4.10066 0
M  V30 4185 H 398.936 -4.63827 -2.95202 0
M  V30 4186 H 400.161 -5.68863 -3.70906 0
M  V30 4187 H 398.107 -4.00652 -5.19436 0
M  V30 4188 H 398.024 -5.71945 -4.94384 0
M  V30 4189 H 399.292 -5.0574 -5.93167 0
M  V30 4190 N 403.521 0.559213 -1.47345 0
M  V30 4191 C 404.431 1.69388 -1.62311 0
M  V30 4192 C 405.447 1.6648 -0.505993 0
M  V30 4193 O 406.623 1.85964 -0.773262 0
M  V30 4194 C 403.688 3.05894 -1.63185 0
M  V30 4195 C 402.749 3.19885 -2.86307 0
M  V30 4196 C 401.982 4.49879 -2.87131 0
M  V30 4197 O 402.205 5.35217 -1.97229 0
M  V30 4198 O 401.139 4.67618 -3.78968 0
M  V30 4199 H 404.965 1.59706 -2.58317 0
M  V30 4200 H 402.55 0.728989 -1.30407 0
M  V30 4201 H 404.432 3.87133 -1.66451 0
M  V30 4202 H 403.107 3.15964 -0.70345 0
M  V30 4203 H 402.014 2.38052 -2.88587 0
M  V30 4204 H 403.347 3.14718 -3.78435 0
M  V30 4205 N 404.999 1.35443 0.805782 0
M  V30 4206 C 405.947 1.28465 1.93906 0
M  V30 4207 C 406.941 0.17943 1.68447 0
M  V30 4208 O 408.147 0.345459 1.76654 0
M  V30 4209 H 404.522 0.399528 0.637088 0
M  V30 4210 H 406.493 2.24206 1.96912 0
M  V30 4211 C 405.242 1.07432 3.30687 0
M  V30 4212 H 404.565 1.91716 3.50835 0
M  V30 4213 H 406.005 1.06591 4.10383 0
M  V30 4214 C 404.464 -0.22179 3.36169 0
M  V30 4215 O 404.994 -1.21731 3.82811 0
M  V30 4216 N 403.2 -0.260841 2.89427 0
M  V30 4217 H 402.747 0.549884 2.51663 0
M  V30 4218 H 402.705 -1.12777 2.93477 0
M  V30 4219 N 406.477 -1.02803 1.19454 0
M  V30 4220 C 407.725 -1.75869 0.995722 0
M  V30 4221 C 408.046 -1.89138 -0.474543 0
M  V30 4222 O 407.316 -1.42558 -1.34366 0
M  V30 4223 H 405.896 -0.651511 0.365435 0
M  V30 4224 H 408.558 -1.24004 1.50363 0
M  V30 4225 H 407.654 -2.76661 1.44447 0
M  V30 4226 N 407.956 -0.998596 -1.21925 0
M  V30 4227 C 409.184 -0.696286 -1.94832 0
M  V30 4228 C 409.599 0.740032 -1.73692 0
M  V30 4229 O 408.956 1.5 -1.03953 0
M  V30 4230 C 409.007 -0.999833 -3.47398 0
M  V30 4231 O 408.728 -2.37972 -3.67833 0
M  V30 4232 C 410.229 -0.716025 -4.37479 0
M  V30 4233 H 407.449 -0.257111 -0.619786 0
M  V30 4234 H 409.993 -1.33491 -1.54921 0
M  V30 4235 H 408.148 -0.406918 -3.85257 0
M  V30 4236 H 408.562 -2.48338 -4.61983 0
M  V30 4237 H 410.036 -0.978642 -5.43256 0
M  V30 4238 H 410.513 0.349968 -4.37803 0
M  V30 4239 H 411.119 -1.29025 -4.05256 0
M  V30 4240 N 409.434 1.37368 -0.772513 0
M  V30 4241 C 410.68 1.99969 -0.337681 0
M  V30 4242 C 411.013 1.61184 1.08321 0
M  V30 4243 O 410.288 0.858395 1.74533 0
M  V30 4244 C 410.571 3.56858 -0.482121 0
M  V30 4245 C 410.424 4.0555 -1.94549 0
M  V30 4246 C 411.743 4.39955 0.113143 0
M  V30 4247 H 408.862 0.726464 -0.124171 0
M  V30 4248 H 411.504 1.63034 -0.975699 0
M  V30 4249 H 409.654 3.88452 0.0610361 0
M  V30 4250 H 411.326 3.84518 -2.54841 0
M  V30 4251 H 409.569 3.57715 -2.45403 0
M  V30 4252 H 410.24 5.14587 -1.9976 0
M  V30 4253 H 412.716 4.14623 -0.35031 0
M  V30 4254 H 411.592 5.48897 -0.0180514 0
M  V30 4255 H 411.853 4.25403 1.20354 0
M  V30 4256 N 410.912 0.523116 1.48665 0
M  V30 4257 C 412.14 -0.0096312 2.06898 0
M  V30 4258 C 412.555 -1.28784 1.38059 0
M  V30 4259 O 411.912 -1.76453 0.465893 0
M  V30 4260 C 411.963 -0.244386 3.60673 0
M  V30 4261 O 411.684 0.983172 4.26925 0
M  V30 4262 C 413.185 -0.818289 4.35682 0
M  V30 4263 H 410.405 0.0304161 0.67031 0
M  V30 4264 H 412.949 0.726799 1.91149 0
M  V30 4265 H 411.104 -0.930847 3.76051 0
M  V30 4266 H 411.518 0.759653 5.1897 0
M  V30 4267 H 412.992 -0.93201 5.44075 0
M  V30 4268 H 413.469 -1.82153 3.99646 0
M  V30 4269 H 414.075 -0.168609 4.24966 0
M  V30 4270 N 412.39 -1.55475 0.257931 0
M  V30 4271 C 413.353 -2.20551 -0.623706 0
M  V30 4272 C 414.353 -1.17809 -1.09443 0
M  V30 4273 O 415.543 -1.42823 -0.997362 0
M  V30 4274 C 412.675 -2.85784 -1.8585 0
M  V30 4275 H 413.868 -2.99848 -0.0557743 0
M  V30 4276 H 411.421 -1.56298 0.0084422 0
M  V30 4277 H 412.156 -2.10453 -2.46739 0
M  V30 4278 H 411.941 -3.61057 -1.52907 0
M  V30 4279 H 413.431 -3.35553 -2.48584 0
M  V30 4280 N 413.868 0.0150385 -1.57593 0
M  V30 4281 C 414.831 0.995996 -2.06428 0
M  V30 4282 C 415.831 1.2818 -0.970903 0
M  V30 4283 O 417.021 1.22949 -1.23406 0
M  V30 4284 C 414.153 2.32506 -2.49307 0
M  V30 4285 H 415.346 0.573873 -2.94358 0
M  V30 4286 H 412.899 0.262186 -1.54085 0
M  V30 4287 H 413.634 2.79438 -1.64575 0
M  V30 4288 H 413.419 2.13087 -3.29145 0
M  V30 4289 H 414.909 3.02906 -2.87468 0
M  V30 4290 N 415.346 1.54954 0.287554 0
M  V30 4291 C 416.294 1.87606 1.37502 0
M  V30 4292 C 417.288 0.751001 1.51843 0
M  V30 4293 O 418.494 0.935169 1.53801 0
M  V30 4294 H 414.869 0.595231 0.459569 0
M  V30 4295 H 416.84 2.78477 1.07206 0
M  V30 4296 C 415.589 2.15183 2.73115 0
M  V30 4297 H 414.912 3.01234 2.62866 0
M  V30 4298 H 416.352 2.4196 3.48183 0
M  V30 4299 C 414.811 0.954686 3.2309 0
M  V30 4300 O 415.341 0.181949 4.01288 0
M  V30 4301 N 413.547 0.756368 2.80584 0
M  V30 4302 H 413.094 1.38643 2.17108 0
M  V30 4303 H 413.052 -0.0430391 3.14371 0
M  V30 4304 N 416.824 -0.551391 1.4764 0
M  V30 4305 C 417.787 -1.64007 1.60107 0
M  V30 4306 C 418.787 -1.53601 0.47576 0
M  V30 4307 O 419.977 -1.57655 0.740988 0
M  V30 4308 C 417.109 -3.03569 1.55108 0
M  V30 4309 H 418.302 -1.543 2.57161 0
M  V30 4310 H 415.855 -0.771776 1.35917 0
M  V30 4311 H 416.59 -3.18804 0.594519 0
M  V30 4312 H 416.375 -3.12532 2.36783 0
M  V30 4313 H 417.865 -3.82762 1.66982 0
M  V30 4314 N 418.302 -1.35869 -0.798587 0
M  V30 4315 C 419.527 -1.32883 -1.59238 0
M  V30 4316 C 419.952 0.0894587 -1.87887 0
M  V30 4317 O 419.31 1.05869 -1.47178 0
M  V30 4318 C 419.358 -2.14892 -2.89575 0
M  V30 4319 O 418.462 -1.53512 -3.82763 0
M  V30 4320 H 417.803 -0.455236 -0.48338 0
M  V30 4321 H 420.333 -1.79024 -0.990539 0
M  V30 4322 H 420.343 -2.27139 -3.38928 0
M  V30 4323 H 419.018 -3.17998 -2.68049 0
M  V30 4324 H 417.595 -1.50153 -3.41334 0
M  V30 4325 N 419.78 1.02168 -1.19998 0
M  V30 4326 C 421.008 1.79296 -1.03249 0
M  V30 4327 C 421.423 1.84103 0.418502 0
M  V30 4328 O 420.78 1.29031 1.29063 0
M  V30 4329 C 420.831 3.24007 -1.60319 0
M  V30 4330 O 420.552 3.19512 -2.99739 0
M  V30 4331 C 422.053 4.17704 -1.48453 0
M  V30 4332 H 419.273 0.564016 -0.363493 0
M  V30 4333 H 421.817 1.28639 -1.58973 0
M  V30 4334 H 419.972 3.7183 -1.08727 0
M  V30 4335 H 420.386 4.10306 -3.26725 0
M  V30 4336 H 421.86 5.17104 -1.93153 0
M  V30 4337 H 422.337 4.37029 -0.436193 0
M  V30 4338 H 422.943 3.7576 -1.99211 0
M  V30 4339 N 421.258 1.00505 1.21394 0
M  V30 4340 C 422.188 0.585684 2.26035 0
M  V30 4341 C 423.169 -0.393525 1.65485 0
M  V30 4342 O 424.354 -0.281497 1.92149 0
M  V30 4343 C 421.484 -0.0884283 3.47187 0
M  V30 4344 C 420.438 0.810567 4.20254 0
M  V30 4345 C 419.764 0.00286382 5.347 0
M  V30 4346 C 421.064 2.1132 4.77641 0
M  V30 4347 H 422.758 1.46039 2.61368 0
M  V30 4348 H 420.304 0.703648 1.25638 0
M  V30 4349 H 422.257 -0.393286 4.19561 0
M  V30 4350 H 420.981 -0.997766 3.10986 0
M  V30 4351 H 419.64 1.09925 3.49731 0
M  V30 4352 H 419.288 -0.907765 4.94741 0
M  V30 4353 H 418.988 0.601444 5.84514 0
M  V30 4354 H 420.512 -0.295808 6.09883 0
M  V30 4355 H 421.926 1.87148 5.41893 0
M  V30 4356 H 420.323 2.66164 5.37845 0
M  V30 4357 H 421.393 2.78393 3.9702 0
M  V30 4358 N 422.737 -1.36956 0.779787 0
M  V30 4359 C 423.685 -2.32053 0.15942 0
M  V30 4360 C 424.679 -1.55333 -0.675878 0
M  V30 4361 O 425.885 -1.70668 -0.57204 0
M  V30 4362 H 422.26 -0.751286 0.0327707 0
M  V30 4363 H 424.231 -2.8195 0.977078 0
M  V30 4364 C 422.98 -3.40602 -0.698977 0
M  V30 4365 H 422.303 -3.99746 -0.0655966 0
M  V30 4366 H 423.743 -4.09486 -1.09989 0
M  V30 4367 C 422.202 -2.81359 -1.85307 0
M  V30 4368 O 422.732 -2.72751 -2.94906 0
M  V30 4369 N 420.938 -2.38786 -1.65619 0
M  V30 4370 H 420.485 -2.45987 -0.764725 0
M  V30 4371 H 420.443 -1.99493 -2.43002 0
M  V30 4372 N 424.215 -0.530993 -1.48385 0
M  V30 4373 C 425.492 0.0671788 -1.95485 0
M  V30 4374 C 425.872 1.51191 -1.47324 0
M  V30 4375 O 425.22 2.17507 -0.700202 0
M  V30 4376 C 425.43 -0.0511206 -3.48963 0
M  V30 4377 C 426.778 0.107632 -4.24464 0
M  V30 4378 O 427.802 0.0226248 -3.56193 0
M  V30 4379 O 426.661 0.285972 -5.45751 0
M  V30 4380 H 423.755 0.0787365 -0.823243 0
M  V30 4381 H 426.301 -0.595662 -1.58902 0
M  V30 4382 H 425.073 -1.05747 -3.7674 0
M  V30 4383 H 424.696 0.650525 -3.92242 0
M  V30 4384 N 425.693 1.55336 -0.266172 0
M  V30 4385 C 426.941 1.99003 0.35246 0
M  V30 4386 C 427.262 1.15591 1.57047 0
M  V30 4387 O 426.532 0.243268 1.94384 0
M  V30 4388 H 425.112 0.735025 0.133217 0
M  V30 4389 H 427.774 1.91367 -0.369434 0
M  V30 4390 H 426.87 3.05289 0.648453 0
M  V30 4391 N 427.171 -0.0066808 1.57599 0
M  V30 4392 C 428.134 -0.985035 2.06953 0
M  V30 4393 C 429.134 -1.27663 0.977687 0
M  V30 4394 O 430.324 -1.22293 1.24057 0
M  V30 4395 C 427.456 -2.3118 2.50536 0
M  V30 4396 H 428.649 -0.558255 2.94658 0
M  V30 4397 H 426.202 -0.254011 1.54222 0
M  V30 4398 H 426.937 -2.78561 1.66054 0
M  V30 4399 H 426.722 -2.11338 3.3027 0
M  V30 4400 H 428.212 -3.01377 2.8907 0
M  V30 4401 N 428.649 -1.55105 -0.279332 0
M  V30 4402 C 429.612 -1.86783 -1.32834 0
M  V30 4403 C 430.612 -0.74199 -1.42657 0
M  V30 4404 O 431.802 -1.0102 -1.41918 0
M  V30 4405 C 428.934 -2.06746 -2.71052 0
M  V30 4406 H 430.127 -2.8055 -1.05979 0
M  V30 4407 H 427.68 -1.47499 -0.517087 0
M  V30 4408 H 428.415 -1.15339 -3.03097 0
M  V30 4409 H 428.2 -2.88711 -2.65309 0
M  V30 4410 H 429.69 -2.32549 -3.46858 0
M  V30 4411 N 430.127 0.543554 -1.4793 0
M  V30 4412 C 431.09 1.63156 -1.60975 0
M  V30 4413 C 432.09 1.53346 -0.483899 0
M  V30 4414 O 433.28 1.5726 -0.749339 0
M  V30 4415 C 430.412 3.02743 -1.56716 0
M  V30 4416 H 431.605 1.52934 -2.57975 0
M  V30 4417 H 429.158 0.764557 -1.36324 0
M  V30 4418 H 429.893 3.18484 -0.611418 0
M  V30 4419 H 429.678 3.11272 -2.38438 0
M  V30 4420 H 431.168 3.81871 -1.6901 0
M  V30 4421 N 431.605 1.3629 0.791371 0
M  V30 4422 C 432.535 1.33137 1.91825 0
M  V30 4423 C 433.516 0.203168 1.68882 0
M  V30 4424 O 434.701 0.400509 1.90025 0
M  V30 4425 C 431.831 1.11793 3.28816 0
M  V30 4426 C 430.785 2.21417 3.66277 0
M  V30 4427 C 430.111 1.85218 5.01596 0
M  V30 4428 C 431.411 3.63489 3.75064 0
M  V30 4429 H 433.105 2.2743 1.9472 0
M  V30 4430 H 430.651 1.09479 0.935437 0
M  V30 4431 H 432.604 1.08222 4.07266 0
M  V30 4432 H 431.328 0.139501 3.26302 0
M  V30 4433 H 429.987 2.2411 2.90121 0
M  V30 4434 H 429.635 0.859544 4.95602 0
M  V30 4435 H 429.335 2.58611 5.27631 0
M  V30 4436 H 430.859 1.832 5.82469 0
M  V30 4437 H 432.273 3.63034 4.43711 0
M  V30 4438 H 430.67 4.35771 4.12582 0
M  V30 4439 H 431.74 3.98536 2.76219 0
M  V30 4440 N 433.083 -1.0153 1.20538 0
M  V30 4441 C 434.329 -1.75408 1.01783 0
M  V30 4442 C 434.662 -1.88943 -0.448814 0
M  V30 4443 O 433.937 -1.4162 -1.33319 0
M  V30 4444 C 434.22 -3.17255 1.70356 0
M  V30 4445 C 434.073 -3.11508 3.24473 0
M  V30 4446 C 435.392 -4.15955 1.43769 0
M  V30 4447 H 432.511 -0.636713 0.371167 0
M  V30 4448 H 435.153 -1.18436 1.4857 0
M  V30 4449 H 433.303 -3.65898 1.30578 0
M  V30 4450 H 434.975 -2.70658 3.73553 0
M  V30 4451 H 433.218 -2.4887 3.55311 0
M  V30 4452 H 433.889 -4.11784 3.67611 0
M  V30 4453 H 436.365 -3.75973 1.7828 0
M  V30 4454 H 435.241 -5.13368 1.94279 0
M  V30 4455 H 435.502 -4.40586 0.365564 0
M  V30 4456 N 434.561 -1.01147 -1.20859 0
M  V30 4457 C 435.491 -0.597663 -2.25722 0
M  V30 4458 C 436.472 0.384744 -1.65692 0
M  V30 4459 O 437.657 0.271303 -1.92296 0
M  V30 4460 C 434.787 0.0700149 -3.47229 0
M  V30 4461 C 433.741 -0.832843 -4.19819 0
M  V30 4462 C 433.067 -0.0312202 -5.34691 0
M  V30 4463 C 434.367 -2.1385 -4.76514 0
M  V30 4464 H 436.061 -1.47423 -2.60589 0
M  V30 4465 H 433.607 -0.710301 -1.25263 0
M  V30 4466 H 435.56 0.37103 -4.19763 0
M  V30 4467 H 434.284 0.981259 -3.11511 0
M  V30 4468 H 432.943 -1.11778 -3.49144 0
M  V30 4469 H 432.591 0.881515 -4.95215 0
M  V30 4470 H 432.291 -0.632434 -5.84187 0
M  V30 4471 H 433.815 0.26346 -6.10031 0
M  V30 4472 H 435.229 -1.9002 -5.40893 0
M  V30 4473 H 433.626 -2.69012 -5.36426 0
M  V30 4474 H 434.696 -2.80495 -3.95538 0
M  V30 4475 N 436.039 1.36541 -0.78704 0
M  V30 4476 C 436.972 2.27831 -0.129765 0
M  V30 4477 C 437.95 1.47105 0.692732 0
M  V30 4478 O 439.134 1.7641 0.664222 0
M  V30 4479 C 436.261 3.28577 0.821883 0
M  V30 4480 C 435.307 4.26422 0.0814771 0
M  V30 4481 S 436.14 5.20919 -1.24112 0
M  V30 4482 C 437.296 6.25212 -0.293409 0
M  V30 4483 H 437.529 2.83229 -0.903811 0
M  V30 4484 H 435.062 1.43046 -0.581144 0
M  V30 4485 H 437.02 3.87123 1.3655 0
M  V30 4486 H 435.681 2.72096 1.56916 0
M  V30 4487 H 434.874 4.97554 0.803485 0
M  V30 4488 H 434.476 3.71944 -0.391589 0
M  V30 4489 H 436.768 6.75435 0.528622 0
M  V30 4490 H 437.711 7.01378 -0.973344 0
M  V30 4491 H 438.119 5.64407 0.102196 0
M  V30 4492 N 437.518 0.538854 1.48102 0
M  V30 4493 C 438.746 0.0123136 2.06896 0
M  V30 4494 C 439.161 -1.27312 1.39417 0
M  V30 4495 O 438.518 -1.75949 0.484582 0
M  V30 4496 C 438.569 -0.206118 3.60912 0
M  V30 4497 O 438.29 1.0284 4.25859 0
M  V30 4498 C 439.791 -0.772033 4.36526 0
M  V30 4499 H 437.011 0.0375239 0.66995 0
M  V30 4500 H 439.555 0.747032 1.90367 0
M  V30 4501 H 437.71 -0.89091 3.77017 0
M  V30 4502 H 438.124 0.814654 5.18135 0
M  V30 4503 H 439.598 -0.874251 5.45033 0
M  V30 4504 H 440.075 -1.77904 4.01555 0
M  V30 4505 H 440.681 -0.123526 4.25121 0
M  V30 4506 N 438.996 -1.55193 0.274407 0
M  V30 4507 C 439.959 -2.212 -0.600279 0
M  V30 4508 C 440.959 -1.18963 -1.08187 0
M  V30 4509 O 442.149 -1.43873 -0.982158 0
M  V30 4510 C 439.281 -2.87739 -1.82809 0
M  V30 4511 H 440.474 -2.9989 -0.0239682 0
M  V30 4512 H 438.027 -1.5628 0.0250192 0
M  V30 4513 H 438.762 -2.13058 -2.44493 0
M  V30 4514 H 438.547 -3.62658 -1.49069 0
M  V30 4515 H 440.037 -3.38171 -2.45011 0
M  V30 4516 N 440.474 -0.00167713 -1.576 0
M  V30 4517 C 441.751 0.719951 -1.81868 0
M  V30 4518 C 442.131 1.91895 -0.879747 0
M  V30 4519 O 441.479 2.28389 0.0711423 0
M  V30 4520 C 441.689 1.12409 -3.30402 0
M  V30 4521 C 443.037 1.52724 -3.96182 0
M  V30 4522 O 444.061 1.21784 -3.34734 0
M  V30 4523 O 442.92 2.10265 -5.04431 0
M  V30 4524 H 440.014 0.350707 -0.748955 0
M  V30 4525 H 442.56 -0.0272597 -1.69678 0
M  V30 4526 H 441.332 0.269532 -3.90371 0
M  V30 4527 H 440.955 1.93035 -3.47596 0
M  V30 4528 N 441.952 1.55251 0.271103 0
M  V30 4529 C 442.915 1.87484 1.31842 0
M  V30 4530 C 443.915 0.749545 1.42262 0
M  V30 4531 O 445.105 1.01771 1.4138 0
M  V30 4532 C 442.237 2.0818 2.69951 0
M  V30 4533 H 443.43 2.81108 1.0449 0
M  V30 4534 H 440.983 1.47771 0.509258 0
M  V30 4535 H 441.718 1.16944 3.02481 0
M  V30 4536 H 441.503 2.90114 2.63774 0
M  V30 4537 H 442.993 2.34385 3.4562 0
M  V30 4538 N 443.43 -0.535701 1.48216 0
M  V30 4539 C 444.393 -1.623 1.61838 0
M  V30 4540 C 445.393 -1.53087 0.492024 0
M  V30 4541 O 446.583 -1.5686 0.757668 0
M  V30 4542 C 443.715 -3.01907 1.58319 0
M  V30 4543 H 444.908 -1.51564 2.58783 0
M  V30 4544 H 442.461 -0.757317 1.36727 0
M  V30 4545 H 443.196 -3.18155 0.628299 0
M  V30 4546 H 442.981 -3.10003 2.40085 0
M  V30 4547 H 444.471 -3.80969 1.71033 0
M  V30 4548 N 444.908 -1.36708 -0.784132 0
M  V30 4549 C 445.855 -1.31466 -1.89698 0
M  V30 4550 C 446.825 -0.18239 -1.65096 0
M  V30 4551 O 448.01 -0.369762 -1.87183 0
M  V30 4552 C 445.15 -1.1151 -3.26588 0
M  V30 4553 C 444.263 -2.33859 -3.63227 0
M  V30 4554 C 443.398 -2.06873 -4.89262 0
M  V30 4555 C 442.437 -3.25154 -5.18595 0
M  V30 4556 N 441.574 -2.978 -6.35814 0
M  V30 4557 H 446.414 -2.26619 -1.93515 0
M  V30 4558 H 443.951 -1.12625 -0.946256 0
M  V30 4559 H 445.909 -0.979653 -4.05535 0
M  V30 4560 H 444.539 -0.200103 -3.22179 0
M  V30 4561 H 443.591 -2.58188 -2.79362 0
M  V30 4562 H 444.903 -3.22109 -3.8085 0
M  V30 4563 H 444.057 -1.90289 -5.76086 0
M  V30 4564 H 442.796 -1.15942 -4.73718 0
M  V30 4565 H 441.801 -3.42292 -4.30251 0
M  V30 4566 H 443.026 -4.1692 -5.36055 0
M  V30 4567 H 440.972 -2.09485 -6.21653 0
M  V30 4568 H 440.889 -3.7959 -6.53794 0
M  V30 4569 H 442.157 -2.84805 -7.25607 0
M  V30 4570 N 446.386 1.0089 -1.21074 0
M  V30 4571 C 447.802 1.2695 -0.967257 0
M  V30 4572 C 448.002 1.9846 0.348673 0
M  V30 4573 O 447.058 2.28459 1.0753 0
M  V30 4574 C 448.371 2.09697 -2.15517 0
M  V30 4575 C 449.919 2.22937 -2.197 0
M  V30 4576 C 450.394 3.09064 -3.37999 0
M  V30 4577 N 451.885 3.16653 -3.38061 0
M  V30 4578 C 452.62 3.8354 -4.26245 0
M  V30 4579 N 452.116 4.52488 -5.2462 0
M  V30 4580 N 453.909 3.80141 -4.14064 0
M  V30 4581 H 446.06 0.529005 -2.05707 0
M  V30 4582 H 448.323 0.296148 -0.900556 0
M  V30 4583 H 448.029 1.64497 -3.10859 0
M  V30 4584 H 447.903 3.10444 -2.14253 0
M  V30 4585 H 450.29 2.67357 -1.24916 0
M  V30 4586 H 450.371 1.21673 -2.2501 0
M  V30 4587 H 450.015 2.65347 -4.33074 0
M  V30 4588 H 449.945 4.10433 -3.29928 0
M  V30 4589 H 452.436 2.67566 -2.66865 0
M  V30 4590 H 452.749 5.01219 -5.88217 0
M  V30 4591 H 451.094 4.51288 -5.28549 0
M  V30 4592 H 454.285 3.25427 -3.36474 0
M  V30 4593 H 454.458 4.31992 -4.82998 0
M  V30 4594 N 447.864 1.01787 1.20321 0
M  V30 4595 C 448.794 0.609625 2.25401 0
M  V30 4596 C 449.775 -0.375951 1.65893 0
M  V30 4597 O 450.96 -0.261101 1.92437 0
M  V30 4598 C 448.09 -0.0515995 3.47262 0
M  V30 4599 C 447.044 0.855095 4.19371 0
M  V30 4600 C 446.37 0.0595757 5.34667 0
M  V30 4601 C 447.67 2.16374 4.75373 0
M  V30 4602 H 449.364 1.48803 2.59804 0
M  V30 4603 H 446.91 0.716934 1.24884 0
M  V30 4604 H 448.863 -0.348764 4.19954 0
M  V30 4605 H 447.587 -0.964726 3.12027 0
M  V30 4606 H 446.246 1.13628 3.48546 0
M  V30 4607 H 445.894 -0.85524 4.95676 0
M  V30 4608 H 445.594 0.663406 5.83843 0
M  V30 4609 H 447.118 -0.231105 6.10162 0
M  V30 4610 H 448.532 1.92885 5.39878 0
M  V30 4611 H 446.929 2.71853 5.34991 0
M  V30 4612 H 447.999 2.82589 3.94045 0
M  V30 4613 N 449.342 -1.36122 0.79427 0
M  V30 4614 C 450.29 -2.31871 0.184023 0
M  V30 4615 C 451.284 -1.56041 -0.659365 0
M  V30 4616 O 452.49 -1.71266 -0.553906 0
M  V30 4617 H 448.865 -0.750896 0.0407373 0
M  V30 4618 H 450.836 -2.80898 1.00693 0
M  V30 4619 C 449.585 -3.41324 -0.662813 0
M  V30 4620 H 448.908 -3.99793 -0.0231944 0
M  V30 4621 H 450.348 -4.10629 -1.05639 0
M  V30 4622 C 448.807 -2.83308 -1.82313 0
M  V30 4623 O 449.337 -2.75863 -2.91997 0
M  V30 4624 N 447.543 -2.40529 -1.63077 0
M  V30 4625 H 447.09 -2.46785 -0.738591 0
M  V30 4626 H 447.048 -2.02059 -2.40872 0
M  V30 4627 N 450.82 -0.546701 -1.47814 0
M  V30 4628 C 452.066 -0.0187684 -2.02791 0
M  V30 4629 C 452.399 1.32338 -1.42128 0
M  V30 4630 O 451.674 1.85867 -0.573023 0
M  V30 4631 C 451.957 0.0854985 -3.59998 0
M  V30 4632 C 451.81 -1.283 -4.31114 0
M  V30 4633 C 453.129 0.80412 -4.32691 0
M  V30 4634 H 450.248 -0.0082946 -0.736953 0
M  V30 4635 H 452.89 -0.706962 -1.76358 0
M  V30 4636 H 451.04 0.671609 -3.82651 0
M  V30 4637 H 452.712 -1.91151 -4.19832 0
M  V30 4638 H 450.955 -1.86049 -3.91878 0
M  V30 4639 H 451.626 -1.16287 -5.39612 0
M  V30 4640 H 454.102 0.306576 -4.14969 0
M  V30 4641 H 452.978 0.846011 -5.42341 0
M  V30 4642 H 453.239 1.85802 -4.01161 0
M  V30 4643 N 452.299 1.55045 -0.282633 0
M  V30 4644 C 453.527 2.04168 0.33512 0
M  V30 4645 C 453.942 1.16071 1.48906 0
M  V30 4646 O 453.299 0.182391 1.81586 0
M  V30 4647 C 453.35 3.52332 0.808957 0
M  V30 4648 O 453.071 4.37078 -0.299038 0
M  V30 4649 C 454.572 4.17375 1.49375 0
M  V30 4650 H 451.792 0.666744 0.0754543 0
M  V30 4651 H 454.336 2.00205 -0.416918 0
M  V30 4652 H 452.491 3.56715 1.51106 0
M  V30 4653 H 452.905 5.24458 0.0665514 0
M  V30 4654 H 454.379 5.22627 1.77664 0
M  V30 4655 H 454.856 3.65999 2.42778 0
M  V30 4656 H 455.462 4.17016 0.835305 0
M  V30 4657 N 453.777 0.010035 1.57597 0
M  V30 4658 C 455.188 -0.531426 1.78977 0
M  V30 4659 C 455.539 -1.73375 0.918454 0
M  V30 4660 O 454.664 -2.16047 0.123635 0
M  V30 4661 C 455.259 -0.97086 3.24592 0
M  V30 4662 C 453.818 -1.45756 3.47033 0
M  V30 4663 C 452.965 -0.413384 2.74201 0
M  V30 4664 H 455.916 0.236166 1.56933 0
M  V30 4665 H 455.937 -1.83633 3.33255 0
M  V30 4666 H 455.449 -0.0955893 3.87982 0
M  V30 4667 H 453.55 -2.35339 2.88871 0
M  V30 4668 H 453.663 -1.4781 4.55729 0
M  V30 4669 H 452.027 -0.877266 2.39115 0
M  V30 4670 H 452.81 0.453092 3.40297 0
M  V30 4671 N 455.255 -1.55392 -0.262866 0
M  V30 4672 C 456.185 -1.91978 -1.32917 0
M  V30 4673 C 457.166 -0.7828 -1.51017 0
M  V30 4674 O 458.351 -1.04178 -1.63892 0
M  V30 4675 C 455.481 -2.20055 -2.68687 0
M  V30 4676 C 454.435 -3.35854 -2.65304 0
M  V30 4677 C 453.761 -3.49435 -4.04721 0
M  V30 4678 C 455.061 -4.71977 -2.23685 0
M  V30 4679 H 456.755 -2.81292 -1.02544 0
M  V30 4680 H 454.301 -1.3534 -0.491846 0
M  V30 4681 H 456.254 -2.44237 -3.43404 0
M  V30 4682 H 454.978 -1.27551 -3.00663 0
M  V30 4683 H 453.637 -3.11655 -1.93045 0
M  V30 4684 H 453.285 -2.54379 -4.33936 0
M  V30 4685 H 452.985 -4.27297 -4.0335 0
M  V30 4686 H 454.509 -3.7592 -4.81161 0
M  V30 4687 H 455.923 -4.95637 -2.88127 0
M  V30 4688 H 454.32 -5.52828 -2.33456 0
M  V30 4689 H 455.39 -4.70115 -1.18827 0
M  V30 4690 N 456.733 0.527833 -1.48498 0
M  V30 4691 C 457.696 1.61439 -1.62696 0
M  V30 4692 C 458.696 1.52824 -0.500136 0
M  V30 4693 O 459.886 1.56456 -0.765976 0
M  V30 4694 C 457.018 3.01063 -1.59918 0
M  V30 4695 H 458.211 1.50189 -2.59583 0
M  V30 4696 H 455.764 0.750055 -1.37127 0
M  V30 4697 H 456.499 3.17818 -0.645163 0
M  V30 4698 H 456.284 3.08725 -2.41726 0
M  V30 4699 H 457.774 3.80057 -1.73051 0
M  V30 4700 N 458.211 1.37122 0.776871 0
M  V30 4701 C 459.627 1.1781 1.07671 0
M  V30 4702 C 459.827 0.0107454 2.01497 0
M  V30 4703 O 458.883 -0.650756 2.4397 0
M  V30 4704 C 460.196 2.49451 1.67913 0
M  V30 4705 C 461.744 2.55927 1.80195 0
M  V30 4706 C 462.219 3.87686 2.43851 0
M  V30 4707 N 463.71 3.891 2.51307 0
M  V30 4708 C 464.445 4.87797 3.014 0
M  V30 4709 N 463.941 5.96888 3.51705 0
M  V30 4710 N 465.734 4.75205 3.00227 0
M  V30 4711 H 457.885 2.11843 0.153778 0
M  V30 4712 H 460.148 0.938927 0.130844 0
M  V30 4713 H 459.854 3.35207 1.06439 0
M  V30 4714 H 459.728 2.66169 2.67271 0
M  V30 4715 H 462.115 1.70582 2.40803 0
M  V30 4716 H 462.196 2.43097 0.796069 0
M  V30 4717 H 461.84 4.73444 1.83884 0
M  V30 4718 H 461.77 3.97817 3.45035 0
M  V30 4719 H 464.261 3.10293 2.157 0
M  V30 4720 H 464.574 6.68155 3.88316 0
M  V30 4721 H 462.919 6.0054 3.49824 0
M  V30 4722 H 466.11 3.89103 2.60224 0
M  V30 4723 H 466.283 5.52279 3.38957 0
M  V30 4724 N 459.689 -1.00246 1.21608 0
M  V30 4725 C 460.938 -1.73476 1.02902 0
M  V30 4726 C 461.251 -1.90643 -0.437561 0
M  V30 4727 O 462.457 -2.61105 -0.74407 0
M  V30 4728 C 460.913 -3.12079 1.79261 0
M  V30 4729 C 460.521 -3.02877 3.30106 0
M  V30 4730 C 462.265 -3.89421 1.68972 0
M  V30 4731 C 460.172 -4.36575 3.98944 0
M  V30 4732 H 459.102 -0.650408 0.381425 0
M  V30 4733 H 461.753 -1.11985 1.45367 0
M  V30 4734 H 460.135 -3.74196 1.2959 0
M  V30 4735 H 461.309 -2.49983 3.87098 0
M  V30 4736 H 459.624 -2.39022 3.40965 0
M  V30 4737 H 462.221 -4.88362 2.17731 0
M  V30 4738 H 462.564 -4.1122 0.648397 0
M  V30 4739 H 463.097 -3.33963 2.16133 0
M  V30 4740 H 459.836 -4.19978 5.03288 0
M  V30 4741 H 459.356 -4.8942 3.4674 0
M  V30 4742 H 461.035 -5.05364 4.04 0
M  V30 4743 N 461.167 -1.02423 -1.1978 0
M  V30 4744 C 462.413 -0.719051 -1.89625 0
M  V30 4745 C 462.746 0.750083 -1.7913 0
M  V30 4746 O 462.021 1.54574 -1.18056 0
M  V30 4747 C 462.304 -1.16499 -3.40735 0
M  V30 4748 C 462.157 -2.695 -3.60125 0
M  V30 4749 C 463.476 -0.742166 -4.33797 0
M  V30 4750 H 460.595 -0.26269 -0.688595 0
M  V30 4751 H 463.237 -1.27333 -1.41018 0
M  V30 4752 H 461.387 -0.69341 -3.82262 0
M  V30 4753 H 463.059 -3.24569 -3.278 0
M  V30 4754 H 461.302 -3.10113 -3.03336 0
M  V30 4755 H 461.973 -2.95757 -4.66081 0
M  V30 4756 H 464.449 -1.1477 -3.99959 0
M  V30 4757 H 463.325 -1.08213 -5.38127 0
M  V30 4758 H 463.586 0.355747 -4.40666 0
M  V30 4759 N 462.645 1.35699 -0.801477 0
M  V30 4760 C 463.608 2.28199 -0.213994 0
M  V30 4761 C 464.608 1.49359 0.595691 0
M  V30 4762 O 465.798 1.69186 0.414921 0
M  V30 4763 C 462.93 3.33587 0.702297 0
M  V30 4764 H 464.123 2.81666 -1.02976 0
M  V30 4765 H 461.676 1.45467 -0.571759 0
M  V30 4766 H 462.411 2.85297 1.54195 0
M  V30 4767 H 462.196 3.91906 0.123484 0
M  V30 4768 H 463.686 4.02638 1.10783 0
M  V30 4769 N 464.123 0.554532 1.47522 0
M  V30 4770 C 465.37 0.029479 2.02479 0
M  V30 4771 C 465.698 -1.31929 1.42916 0
M  V30 4772 O 464.953 -1.87112 0.573385 0
M  V30 4773 C 465.252 -0.115927 3.57212 0
M  V30 4774 C 464.918 1.16161 4.3568 0
M  V30 4775 C 463.58 1.51168 4.56839 0
M  V30 4776 C 465.932 2.0083 4.80954 0
M  V30 4777 C 463.26 2.70696 5.2052 0
M  V30 4778 C 465.612 3.19559 5.45953 0
M  V30 4779 C 464.276 3.54882 5.65345 0
M  V30 4780 H 463.546 0.0107871 0.740921 0
M  V30 4781 H 466.193 0.725506 1.77225 0
M  V30 4782 H 464.498 -0.894902 3.81443 0
M  V30 4783 H 466.195 -0.53749 3.97381 0
M  V30 4784 H 462.785 0.879026 4.19489 0
M  V30 4785 H 466.969 1.75093 4.64388 0
M  V30 4786 H 462.225 2.98236 5.33728 0
M  V30 4787 H 466.399 3.85456 5.79997 0
M  V30 4788 H 464.026 4.47596 6.1446 0
M  V30 4789 N 465.601 -1.54893 0.290851 0
M  V30 4790 C 466.564 -2.21824 -0.576784 0
M  V30 4791 C 467.564 -1.20104 -1.06919 0
M  V30 4792 O 468.754 -1.44906 -0.966843 0
M  V30 4793 C 465.886 -2.89662 -1.79747 0
M  V30 4794 H 467.079 -2.99899 0.00784051 0
M  V30 4795 H 464.632 -1.56245 0.0415934 0
M  V30 4796 H 465.367 -2.15639 -2.42219 0
M  V30 4797 H 465.152 -3.64219 -1.45214 0
M  V30 4798 H 466.642 -3.4075 -2.4141 0
M  V30 4799 N 467.08 -0.0183926 -1.57589 0
M  V30 4800 C 468.357 0.700621 -1.82622 0
M  V30 4801 C 468.737 1.90951 -0.90005 0
M  V30 4802 O 468.085 2.28452 0.0469145 0
M  V30 4803 C 468.295 1.08899 -3.31575 0
M  V30 4804 C 469.643 1.48514 -3.9778 0
M  V30 4805 O 470.667 1.18227 -3.36007 0
M  V30 4806 O 469.526 2.04903 -5.06633 0
M  V30 4807 H 466.62 0.342743 -0.752633 0
M  V30 4808 H 469.166 -0.0452548 -1.6964 0
M  V30 4809 H 467.938 0.228113 -3.90635 0
M  V30 4810 H 467.561 1.89338 -3.49624 0
M  V30 4811 N 468.558 1.5553 0.254621 0
M  V30 4812 C 469.521 1.88872 1.29846 0
M  V30 4813 C 470.521 0.764591 1.41459 0
M  V30 4814 O 471.711 1.03265 1.40293 0
M  V30 4815 C 468.843 2.11032 2.67728 0
M  V30 4816 H 470.036 2.82201 1.01502 0
M  V30 4817 H 467.589 1.48303 0.493556 0
M  V30 4818 H 468.324 1.20146 3.01223 0
M  V30 4819 H 468.109 2.92895 2.60682 0
M  V30 4820 H 469.599 2.38038 3.43115 0
M  V30 4821 N 470.036 -0.519951 1.48776 0
M  V30 4822 C 470.999 -1.60574 1.6355 0
M  V30 4823 C 471.999 -1.52557 0.508234 0
M  V30 4824 O 473.189 -1.56047 0.774262 0
M  V30 4825 C 470.321 -3.00211 1.61512 0
M  V30 4826 H 471.514 -1.4881 2.60376 0
M  V30 4827 H 469.067 -0.742772 1.37523 0
M  V30 4828 H 469.802 -3.17471 0.662009 0
M  V30 4829 H 469.587 -3.07439 2.43359 0
M  V30 4830 H 471.077 -3.79134 1.75064 0
M  V30 4831 N 471.514 -1.37532 -0.769588 0
M  V30 4832 C 472.76 -1.33057 -1.53048 0
M  V30 4833 C 473.093 0.0841865 -1.94017 0
M  V30 4834 O 472.368 1.04198 -1.64235 0
M  V30 4835 C 472.651 -2.27166 -2.79406 0
M  V30 4836 C 472.504 -3.77429 -2.44677 0
M  V30 4837 C 473.823 -2.19683 -3.81349 0
M  V30 4838 H 470.942 -0.484655 -0.555228 0
M  V30 4839 H 473.584 -1.68251 -0.882702 0
M  V30 4840 H 471.734 -1.97283 -3.34682 0
M  V30 4841 H 473.406 -4.17918 -1.953 0
M  V30 4842 H 471.649 -3.95892 -1.77346 0
M  V30 4843 H 472.32 -4.38716 -3.35011 0
M  V30 4844 H 474.796 -2.46029 -3.35573 0
M  V30 4845 H 473.672 -2.87668 -4.67481 0
M  V30 4846 H 473.933 -1.19045 -4.25771 0
M  V30 4847 N 472.992 0.995999 -1.22138 0
M  V30 4848 C 473.902 2.11985 -1.00496 0
M  V30 4849 C 474.918 1.7394 0.0457701 0
M  V30 4850 O 476.094 2.00868 -0.146273 0
M  V30 4851 C 473.159 3.41779 -0.582086 0
M  V30 4852 C 472.22 3.93943 -1.70608 0
M  V30 4853 C 471.453 5.17542 -1.30328 0
M  V30 4854 O 471.676 5.70114 -0.180743 0
M  V30 4855 O 470.61 5.63382 -2.11861 0
M  V30 4856 H 474.436 2.33123 -1.94647 0
M  V30 4857 H 472.021 1.10358 -1.00705 0
M  V30 4858 H 473.903 4.1989 -0.356467 0
M  V30 4859 H 472.578 3.22007 0.330592 0
M  V30 4860 H 471.485 3.17019 -1.98619 0
M  V30 4861 H 472.818 4.18141 -2.59651 0
M  V30 4862 N 474.47 1.03057 1.19235 0
M  V30 4863 C 475.881 0.757449 1.70645 0
M  V30 4864 C 476.232 -0.722735 1.82403 0
M  V30 4865 O 475.357 -1.56325 1.49638 0
M  V30 4866 C 475.952 1.36833 3.09939 0
M  V30 4867 C 474.511 1.14375 3.58602 0
M  V30 4868 C 473.658 1.46533 2.35422 0
M  V30 4869 H 476.609 1.19828 1.04052 0
M  V30 4870 H 476.63 0.766184 3.72706 0
M  V30 4871 H 476.142 2.44562 3.01349 0
M  V30 4872 H 474.243 0.0847542 3.72504 0
M  V30 4873 H 474.356 1.83366 4.42622 0
M  V30 4874 H 472.72 0.884712 2.38841 0
M  V30 4875 H 473.503 2.55349 2.2946 0
M  V30 4876 N 475.948 -1.35272 0.808662 0
M  V30 4877 C 477.197 -1.97963 0.386483 0
M  V30 4878 C 477.51 -1.64866 -1.05255 0
M  V30 4879 O 478.716 -2.20937 -1.57794 0
M  V30 4880 C 477.172 -3.54162 0.640096 0
M  V30 4881 C 476.78 -3.96166 2.0918 0
M  V30 4882 C 478.524 -4.23553 0.283376 0
M  V30 4883 C 476.431 -5.4522 2.29106 0
M  V30 4884 H 475.361 -0.740742 0.140774 0
M  V30 4885 H 478.012 -1.5431 0.993012 0
M  V30 4886 H 476.394 -3.95983 -0.0364117 0
M  V30 4887 H 477.568 -3.65491 2.80629 0
M  V30 4888 H 475.883 -3.3967 2.40859 0
M  V30 4889 H 478.48 -5.33124 0.410273 0
M  V30 4890 H 478.823 -4.09105 -0.770659 0
M  V30 4891 H 479.356 -3.8716 0.913884 0
M  V30 4892 H 476.095 -5.64638 3.32962 0
M  V30 4893 H 475.615 -5.77457 1.62184 0
M  V30 4894 H 477.294 -6.1171 2.1076 0
M  V30 4895 N 477.426 -0.562348 -1.47226 0
M  V30 4896 C 478.703 0.0256985 -1.95583 0
M  V30 4897 C 479.083 1.48032 -1.50498 0
M  V30 4898 O 478.431 2.15973 -0.746181 0
M  V30 4899 C 478.641 -0.125129 -3.48776 0
M  V30 4900 C 479.989 0.0175728 -4.24596 0
M  V30 4901 O 481.013 -0.0529341 -3.56161 0
M  V30 4902 O 479.872 0.170145 -5.46235 0
M  V30 4903 H 476.966 0.0612565 -0.824728 0
M  V30 4904 H 479.512 -0.629233 -1.57603 0
M  V30 4905 H 478.284 -1.13715 -3.74412 0
M  V30 4906 H 477.907 0.567178 -3.93534 0
M  V30 4907 N 478.904 1.54736 -0.299062 0
M  V30 4908 C 480.151 2.00101 0.310784 0
M  V30 4909 C 480.479 1.18746 1.54045 0
M  V30 4910 O 479.734 0.251198 1.94081 0
M  V30 4911 C 480.033 3.50199 0.713835 0
M  V30 4912 C 479.699 4.48997 -0.413873 0
M  V30 4913 C 478.361 4.7573 -0.723462 0
M  V30 4914 C 480.713 5.07839 -1.17257 0
M  V30 4915 C 478.041 5.5857 -1.79491 0
M  V30 4916 C 480.393 5.91844 -2.23392 0
M  V30 4917 C 479.057 6.16889 -2.54959 0
M  V30 4918 H 478.327 0.732221 0.113724 0
M  V30 4919 H 480.974 1.86888 -0.417756 0
M  V30 4920 H 479.279 3.61012 1.52243 0
M  V30 4921 H 480.976 3.82723 1.19684 0
M  V30 4922 H 477.566 4.28292 -0.162476 0
M  V30 4923 H 481.75 4.87188 -0.946651 0
M  V30 4924 H 477.006 5.76213 -2.04423 0
M  V30 4925 H 481.18 6.36465 -2.8264 0
M  V30 4926 H 478.807 6.80869 -3.38114 0
M  V30 4927 N 480.382 0.0267497 1.57577 0
M  V30 4928 C 481.793 -0.512413 1.79531 0
M  V30 4929 C 482.144 -1.72391 0.936791 0
M  V30 4930 O 481.269 -2.15903 0.146543 0
M  V30 4931 C 481.864 -0.936378 3.25603 0
M  V30 4932 C 480.423 -1.42067 3.4856 0
M  V30 4933 C 479.57 -0.384278 2.74624 0
M  V30 4934 H 482.521 0.252797 1.56674 0
M  V30 4935 H 482.542 -1.80088 3.35184 0
M  V30 4936 H 482.054 -0.0544332 3.88062 0
M  V30 4937 H 480.155 -2.32262 2.9135 0
M  V30 4938 H 480.268 -1.42968 4.57271 0
M  V30 4939 H 478.632 -0.851855 2.40032 0
M  V30 4940 H 479.415 0.489159 3.39797 0
M  V30 4941 N 481.861 -1.55662 -0.24637 0
M  V30 4942 C 483.11 -1.7672 -0.972254 0
M  V30 4943 C 483.423 -0.59078 -1.86465 0
M  V30 4944 O 484.629 -0.684391 -2.62732 0
M  V30 4945 C 483.085 -3.12869 -1.7788 0
M  V30 4946 C 482.693 -4.38161 -0.933768 0
M  V30 4947 C 484.437 -3.43265 -2.49738 0
M  V30 4948 C 482.344 -5.6534 -1.73623 0
M  V30 4949 H 481.274 -0.658795 -0.366749 0
M  V30 4950 H 483.925 -1.82092 -0.226902 0
M  V30 4951 H 482.307 -3.01606 -2.56612 0
M  V30 4952 H 483.481 -4.60413 -0.188736 0
M  V30 4953 H 481.796 -4.15102 -0.328488 0
M  V30 4954 H 484.393 -4.35501 -3.10231 0
M  V30 4955 H 484.736 -2.64614 -3.2138 0
M  V30 4956 H 485.269 -3.55746 -1.78016 0
M  V30 4957 H 482.008 -6.46814 -1.06354 0
M  V30 4958 H 481.528 -5.47188 -2.45653 0
M  V30 4959 H 483.207 -6.04616 -2.30323 0
M  V30 4960 N 483.339 0.512053 -1.4905 0
M  V30 4961 C 484.302 1.59704 -1.64399 0
M  V30 4962 C 485.302 1.52285 -0.516317 0
M  V30 4963 O 486.492 1.55635 -0.782527 0
M  V30 4964 C 483.624 2.9935 -1.63102 0
M  V30 4965 H 484.817 1.47428 -2.61161 0
M  V30 4966 H 482.37 0.735469 -1.37915 0
M  V30 4967 H 483.105 3.17116 -0.678836 0
M  V30 4968 H 482.89 3.06144 -2.44986 0
M  V30 4969 H 484.38 3.782 -1.77072 0
M  V30 4970 N 484.817 1.37938 0.762283 0
M  V30 4971 C 486.228 1.30094 1.33912 0
M  V30 4972 C 486.579 -0.0472026 1.96143 0
M  V30 4973 O 485.704 -0.94917 1.94473 0
M  V30 4974 C 486.299 2.35592 2.43478 0
M  V30 4975 C 484.858 2.31353 2.96905 0
M  V30 4976 C 484.005 2.18919 1.70205 0
M  V30 4977 H 486.956 1.48423 0.561816 0
M  V30 4978 H 486.977 2.00806 3.23199 0
M  V30 4979 H 486.489 3.33701 1.98155 0
M  V30 4980 H 484.59 1.36799 3.46579 0
M  V30 4981 H 484.703 3.25147 3.51875 0
M  V30 4982 H 483.067 1.65624 1.93496 0
M  V30 4983 H 483.85 3.18956 1.26973 0
M  V30 4984 N 486.295 -0.989507 1.22664 0
M  V30 4985 C 487.541 -1.7321 1.05481 0
M  V30 4986 C 487.874 -1.89852 -0.408635 0
M  V30 4987 O 487.149 -1.44416 -1.30285 0
M  V30 4988 C 487.432 -3.1357 1.77047 0
M  V30 4989 C 487.285 -3.04555 3.31008 0
M  V30 4990 C 488.604 -4.12812 1.5256 0
M  V30 4991 H 485.723 -0.628697 0.384589 0
M  V30 4992 H 488.365 -1.15258 1.51049 0
M  V30 4993 H 486.515 -3.63046 1.3831 0
M  V30 4994 H 488.187 -2.62674 3.7921 0
M  V30 4995 H 486.43 -2.41278 3.6051 0
M  V30 4996 H 487.101 -4.03894 3.76263 0
M  V30 4997 H 489.577 -3.72106 1.86215 0
M  V30 4998 H 488.453 -5.09132 2.05124 0
M  V30 4999 H 488.714 -4.39711 0.458936 0
M  V30 5000 N 487.773 -1.03688 -1.18687 0
M  V30 5001 C 489.003 -0.756819 -1.92239 0
M  V30 5002 C 489.411 0.689374 -1.76194 0
M  V30 5003 O 488.754 1.48126 -1.08648 0
M  V30 5004 C 488.816 -1.03851 -3.44173 0
M  V30 5005 C 488.48 -2.47785 -3.83994 0
M  V30 5006 C 489.477 -3.4595 -3.88091 0
M  V30 5007 C 487.162 -2.82397 -4.154 0
M  V30 5008 C 489.156 -4.76779 -4.23038 0
M  V30 5009 C 486.843 -4.13433 -4.50018 0
M  V30 5010 C 487.841 -5.10434 -4.53813 0
M  V30 5011 O 487.529 -6.39122 -4.87625 0
M  V30 5012 H 487.261 -0.275678 -0.617234 0
M  V30 5013 H 489.815 -1.38658 -1.51536 0
M  V30 5014 H 488.045 -0.351612 -3.85098 0
M  V30 5015 H 489.734 -0.746846 -3.9897 0
M  V30 5016 H 490.5 -3.20549 -3.63969 0
M  V30 5017 H 486.379 -2.07568 -4.11627 0
M  V30 5018 H 489.923 -5.52488 -4.25914 0
M  V30 5019 H 485.82 -4.38604 -4.736 0
M  V30 5020 H 486.588 -6.43715 -5.05542 0
M  V30 5021 N 489.251 1.34841 -0.815825 0
M  V30 5022 C 490.214 2.27959 -0.238185 0
M  V30 5023 C 491.214 1.49983 0.579816 0
M  V30 5024 O 492.404 1.69617 0.396953 0
M  V30 5025 C 489.536 3.34314 0.666876 0
M  V30 5026 H 490.729 2.80558 -1.05958 0
M  V30 5027 H 488.282 1.44852 -0.587156 0
M  V30 5028 H 489.017 2.86916 1.5116 0
M  V30 5029 H 488.802 3.92014 0.0819106 0
M  V30 5030 H 490.292 4.0379 1.06506 0
M  V30 5031 N 490.729 0.570148 1.46925 0
M  V30 5032 C 491.692 -0.159933 2.28641 0
M  V30 5033 C 492.692 -0.830638 1.37685 0
M  V30 5034 O 493.882 -0.684516 1.60187 0
M  V30 5035 C 491.014 -1.2354 3.17727 0
M  V30 5036 H 492.207 0.558035 2.94662 0
M  V30 5037 H 489.76 0.327603 1.52828 0
M  V30 5038 H 490.495 -1.98535 2.56426 0
M  V30 5039 H 490.28 -0.759125 3.84681 0
M  V30 5040 H 491.77 -1.74782 3.79264 0
M  V30 5041 N 492.207 -1.54576 0.307264 0
M  V30 5042 C 493.432 -2.05139 -0.305379 0
M  V30 5043 C 493.857 -1.18278 -1.46259 0
M  V30 5044 O 493.215 -0.188243 -1.8032 0
M  V30 5045 C 493.263 -3.53066 -0.733283 0
M  V30 5046 O 492.367 -3.69206 -1.83741 0
M  V30 5047 H 491.708 -0.661444 -0.0582105 0
M  V30 5048 H 494.238 -1.99569 0.450931 0
M  V30 5049 H 494.248 -3.95034 -1.02039 0
M  V30 5050 H 492.923 -4.15746 0.113198 0
M  V30 5051 H 491.5 -3.39143 -1.55037 0
M  V30 5052 N 493.685 -0.035106 -1.57561 0
M  V30 5053 C 494.618 0.979673 -2.06101 0
M  V30 5054 C 495.596 1.31378 -0.958046 0
M  V30 5055 O 496.78 1.42942 -1.22881 0
M  V30 5056 C 493.907 2.29809 -2.48808 0
M  V30 5057 C 492.953 2.11817 -3.70184 0
M  V30 5058 S 493.786 1.41143 -5.16565 0
M  V30 5059 C 494.942 2.74341 -5.62572 0
M  V30 5060 H 495.175 0.566506 -2.91853 0
M  V30 5061 H 492.708 0.176744 -1.53385 0
M  V30 5062 H 494.666 3.056 -2.74078 0
M  V30 5063 H 493.327 2.68257 -1.63392 0
M  V30 5064 H 492.52 3.09299 -3.97933 0
M  V30 5065 H 492.122 1.44168 -3.45097 0
M  V30 5066 H 494.414 3.70562 -5.67177 0
M  V30 5067 H 495.357 2.51249 -6.62027 0
M  V30 5068 H 495.765 2.79863 -4.90242 0
M  V30 5069 N 495.163 1.55791 0.238111 0
M  V30 5070 C 496.409 1.78297 0.966337 0
M  V30 5071 C 496.742 0.601903 1.84637 0
M  V30 5072 O 496.017 -0.399499 1.90353 0
M  V30 5073 C 496.3 3.10758 1.81939 0
M  V30 5074 C 496.153 4.39283 0.966958 0
M  V30 5075 C 497.472 3.39519 2.80027 0
M  V30 5076 H 494.591 0.648654 0.349882 0
M  V30 5077 H 497.233 1.88525 0.236253 0
M  V30 5078 H 495.383 3.02168 2.44185 0
M  V30 5079 H 497.055 4.59873 0.362514 0
M  V30 5080 H 495.298 4.32948 0.271669 0
M  V30 5081 H 495.969 5.28368 1.59784 0
M  V30 5082 H 498.445 3.48128 2.27917 0
M  V30 5083 H 497.321 4.33402 3.36829 0
M  V30 5084 H 497.582 2.60864 3.56934 0
M  V30 5085 N 496.642 -0.504142 1.49319 0
M  V30 5086 C 497.572 -1.61473 1.68667 0
M  V30 5087 C 498.553 -1.61455 0.535378 0
M  V30 5088 O 499.738 -1.78245 0.770868 0
M  V30 5089 C 496.868 -2.99971 1.75028 0
M  V30 5090 C 495.822 -3.14854 2.89916 0
M  V30 5091 C 495.148 -4.54671 2.81387 0
M  V30 5092 C 496.448 -2.95176 4.30893 0
M  V30 5093 H 498.142 -1.45535 2.61648 0
M  V30 5094 H 495.688 -0.698711 1.25913 0
M  V30 5095 H 497.641 -3.77562 1.8715 0
M  V30 5096 H 496.365 -3.1699 0.786441 0
M  V30 5097 H 495.024 -2.39687 2.77391 0
M  V30 5098 H 494.672 -4.68562 1.82917 0
M  V30 5099 H 494.372 -4.6557 3.58494 0
M  V30 5100 H 495.896 -5.34327 2.95512 0
M  V30 5101 H 497.31 -3.62538 4.44116 0
M  V30 5102 H 495.707 -3.17549 5.09198 0
M  V30 5103 H 496.777 -1.91332 4.45556 0
M  V30 5104 N 498.12 -1.38341 -0.754957 0
M  V30 5105 C 499.067 -1.3546 -1.86867 0
M  V30 5106 C 500.037 -0.217369 -1.64672 0
M  V30 5107 O 501.222 -0.409383 -1.86356 0
M  V30 5108 C 498.362 -1.18413 -3.24149 0
M  V30 5109 C 497.475 -2.41511 -3.58185 0
M  V30 5110 C 496.61 -2.17205 -4.84763 0
M  V30 5111 C 495.649 -3.36081 -5.11582 0
M  V30 5112 N 494.786 -3.11219 -6.29354 0
M  V30 5113 H 499.626 -2.30672 -1.88664 0
M  V30 5114 H 497.163 -1.14607 -0.922154 0
M  V30 5115 H 499.121 -1.06545 -4.03366 0
M  V30 5116 H 497.751 -0.268397 -3.21682 0
M  V30 5117 H 496.803 -2.64056 -2.73822 0
M  V30 5118 H 498.115 -3.30115 -3.73932 0
M  V30 5119 H 497.269 -2.02465 -5.7192 0
M  V30 5120 H 496.008 -1.25964 -4.71152 0
M  V30 5121 H 495.013 -3.51341 -4.22894 0
M  V30 5122 H 496.238 -4.28196 -5.27091 0
M  V30 5123 H 494.184 -2.22624 -6.17069 0
M  V30 5124 H 494.101 -3.93373 -6.45596 0
M  V30 5125 H 495.369 -3.00132 -7.19403 0
M  V30 5126 N 499.598 0.982988 -1.23187 0
M  V30 5127 C 500.875 1.69814 -0.970707 0
M  V30 5128 C 501.255 2.04811 0.511424 0
M  V30 5129 O 500.603 1.73924 1.48198 0
M  V30 5130 C 500.813 2.94143 -1.87831 0
M  V30 5131 C 502.161 3.66712 -2.14026 0
M  V30 5132 O 503.185 3.04171 -1.8536 0
M  V30 5133 O 502.044 4.79258 -2.62629 0
M  V30 5134 H 499.138 0.741659 -0.365884 0
M  V30 5135 H 501.684 1.03844 -1.34218 0
M  V30 5136 H 500.456 2.64858 -2.88038 0
M  V30 5137 H 500.079 3.6785 -1.50905 0
M  V30 5138 N 501.076 1.04316 1.18135 0
M  V30 5139 C 502.322 0.749128 1.88457 0
M  V30 5140 C 502.655 -0.72149 1.803 0
M  V30 5141 O 501.93 -1.52676 1.205 0
M  V30 5142 C 502.213 1.21905 3.38838 0
M  V30 5143 C 502.066 2.75195 3.55792 0
M  V30 5144 C 503.385 0.811085 4.32561 0
M  V30 5145 H 500.504 0.273611 0.684329 0
M  V30 5146 H 503.146 1.29561 1.38975 0
M  V30 5147 H 501.296 0.754137 3.8111 0
M  V30 5148 H 502.968 3.29743 3.22595 0
M  V30 5149 H 501.211 3.14899 2.98364 0
M  V30 5150 H 501.882 3.03135 4.61317 0
M  V30 5151 H 504.358 1.21118 3.98082 0
M  V30 5152 H 503.234 1.16761 5.36338 0
M  V30 5153 H 503.495 -0.285596 4.41177 0
M  V30 5154 N 502.554 -1.34406 0.822964 0
M  V30 5155 C 503.802 -1.97892 0.410245 0
M  V30 5156 C 504.123 -1.65567 -1.03017 0
M  V30 5157 O 503.393 -0.94642 -1.71522 0
M  V30 5158 H 501.973 -0.732049 0.148707 0
M  V30 5159 H 504.635 -1.64043 1.05242 0
M  V30 5160 H 503.731 -3.07579 0.529284 0
M  V30 5161 N 504.032 -0.577932 -1.46621 0
M  V30 5162 C 504.962 0.145917 -2.33044 0
M  V30 5163 C 505.943 0.888412 -1.45056 0
M  V30 5164 O 507.128 0.864812 -1.73881 0
M  V30 5165 C 504.258 1.16322 -3.27241 0
M  V30 5166 C 503.212 0.535868 -4.24632 0
M  V30 5167 C 502.538 1.65929 -5.08303 0
M  V30 5168 C 503.838 -0.523861 -5.19666 0
M  V30 5169 H 505.532 -0.575636 -2.93814 0
M  V30 5170 H 503.078 -0.278272 -1.41286 0
M  V30 5171 H 505.031 1.67793 -3.86553 0
M  V30 5172 H 503.755 1.91498 -2.64567 0
M  V30 5173 H 502.414 0.0422759 -3.66576 0
M  V30 5174 H 502.062 2.40061 -4.42018 0
M  V30 5175 H 501.762 1.2452 -5.74255 0
M  V30 5176 H 503.286 2.17686 -5.70478 0
M  V30 5177 H 504.7 -0.0944059 -5.73222 0
M  V30 5178 H 503.097 -0.858 -5.93935 0
M  V30 5179 H 504.167 -1.41197 -4.63887 0
M  V30 5180 N 505.51 1.54411 -0.315457 0
M  V30 5181 C 506.457 2.24048 0.554166 0
M  V30 5182 C 507.427 1.2283 1.11812 0
M  V30 5183 O 508.612 1.51491 1.15997 0
M  V30 5184 C 505.752 2.99574 1.71316 0
M  V30 5185 C 504.865 4.15594 1.17922 0
M  V30 5186 C 504 4.78669 2.30324 0
M  V30 5187 C 503.039 5.86807 1.74137 0
M  V30 5188 N 502.176 6.43777 2.8017 0
M  V30 5189 H 507.016 2.97964 -0.0462602 0
M  V30 5190 H 504.553 1.47059 -0.0346009 0
M  V30 5191 H 506.511 3.41604 2.39505 0
M  V30 5192 H 505.141 2.28008 2.285 0
M  V30 5193 H 504.193 3.78404 0.389136 0
M  V30 5194 H 505.505 4.93459 0.728012 0
M  V30 5195 H 504.659 5.23626 3.06433 0
M  V30 5196 H 503.398 4.00168 2.78778 0
M  V30 5197 H 502.403 5.41261 0.965236 0
M  V30 5198 H 503.628 6.67201 1.2657 0
M  V30 5199 H 501.574 5.68153 3.2793 0
M  V30 5200 H 501.491 7.17031 2.39588 0
M  V30 5201 H 502.759 6.9339 3.56132 0
M  V30 5202 N 506.988 0.0434614 1.5754 0
M  V30 5203 C 507.935 -0.93356 2.11077 0
M  V30 5204 C 508.905 -1.31383 1.01626 0
M  V30 5205 O 510.09 -1.40465 1.29129 0
M  V30 5206 C 507.23 -2.20578 2.65404 0
M  V30 5207 C 506.343 -1.88068 3.88914 0
M  V30 5208 C 505.478 -3.09691 4.31584 0
M  V30 5209 C 504.517 -2.73067 5.47815 0
M  V30 5210 N 503.654 -3.87359 5.85574 0
M  V30 5211 H 508.494 -0.470118 2.94268 0
M  V30 5212 H 506.031 -0.220434 1.45439 0
M  V30 5213 H 507.989 -2.95011 2.94999 0
M  V30 5214 H 506.619 -2.64513 1.85021 0
M  V30 5215 H 505.671 -1.03816 3.6596 0
M  V30 5216 H 506.983 -1.57104 4.73413 0
M  V30 5217 H 506.137 -3.92431 4.62691 0
M  V30 5218 H 504.876 -3.43827 3.45882 0
M  V30 5219 H 503.881 -1.88742 5.16388 0
M  V30 5220 H 505.106 -2.40131 6.35227 0
M  V30 5221 H 503.052 -4.21311 5.02825 0
M  V30 5222 H 502.969 -3.60068 6.64746 0
M  V30 5223 H 504.237 -4.70761 6.21292 0
M  V30 5224 N 508.466 -1.55915 -0.229846 0
M  V30 5225 C 509.376 -1.94891 -1.30593 0
M  V30 5226 C 510.392 -0.851604 -1.51736 0
M  V30 5227 O 511.568 -1.15447 -1.65027 0
M  V30 5228 C 508.633 -2.25052 -2.63728 0
M  V30 5229 C 507.694 -3.48306 -2.5096 0
M  V30 5230 C 506.927 -3.77019 -3.77747 0
M  V30 5231 O 507.15 -3.07534 -4.80395 0
M  V30 5232 O 506.084 -4.70523 -3.75356 0
M  V30 5233 H 509.91 -2.86581 -1.00525 0
M  V30 5234 H 507.495 -1.43017 -0.432025 0
M  V30 5235 H 509.377 -2.45682 -3.42372 0
M  V30 5236 H 508.052 -1.36538 -2.93495 0
M  V30 5237 H 506.959 -3.32964 -1.70546 0
M  V30 5238 H 508.292 -4.37177 -2.26136 0
M  V30 5239 N 509.944 0.496216 -1.49584 0
M  V30 5240 C 511.221 1.25755 -1.49816 0
M  V30 5241 C 511.601 2.09859 -0.228572 0
M  V30 5242 O 510.949 2.14449 0.788908 0
M  V30 5243 C 511.159 2.11017 -2.7798 0
M  V30 5244 C 512.507 2.70047 -3.27658 0
M  V30 5245 O 513.531 2.21281 -2.79129 0
M  V30 5246 O 512.39 3.58834 -4.1219 0
M  V30 5247 H 509.484 0.569322 -0.599834 0
M  V30 5248 H 512.03 0.510094 -1.61852 0
M  V30 5249 H 510.802 1.48879 -3.61871 0
M  V30 5250 H 510.425 2.92947 -2.68827 0
M  V30 5251 N 511.423 1.38739 0.74761 0
M  V30 5252 C 512.672 1.3459 1.50228 0
M  V30 5253 C 512.985 -0.0595592 1.95509 0
M  V30 5254 O 514.191 -0.22361 2.70578 0
M  V30 5255 C 512.647 2.36377 2.71393 0
M  V30 5256 C 512.255 3.82573 2.33113 0
M  V30 5257 C 513.999 2.41281 3.49262 0
M  V30 5258 C 511.906 4.76032 3.50924 0
M  V30 5259 H 510.836 0.500312 0.564096 0
M  V30 5260 H 513.487 1.64324 0.8167 0
M  V30 5261 H 511.869 1.99694 3.41962 0
M  V30 5262 H 513.043 4.28227 1.70171 0
M  V30 5263 H 511.358 3.80844 1.68365 0
M  V30 5264 H 513.955 3.08301 4.36869 0
M  V30 5265 H 514.298 1.43353 3.9084 0
M  V30 5266 H 514.831 2.76793 2.85711 0
M  V30 5267 H 511.57 5.75177 3.14408 0
M  V30 5268 H 511.09 4.35066 4.12889 0
M  V30 5269 H 512.769 4.94331 4.17427 0
M  V30 5270 N 512.901 -0.976442 1.23707 0
M  V30 5271 C 513.864 -2.0511 1.02287 0
M  V30 5272 C 514.864 -1.60791 -0.0167195 0
M  V30 5273 O 516.054 -1.72761 0.223408 0
M  V30 5274 C 513.186 -3.36458 0.548507 0
M  V30 5275 H 514.379 -2.25545 1.9766 0
M  V30 5276 H 511.932 -1.15042 1.05806 0
M  V30 5277 H 512.667 -3.21713 -0.408818 0
M  V30 5278 H 512.452 -3.69967 1.29874 0
M  V30 5279 H 513.942 -4.15489 0.419406 0
M  V30 5280 N 514.379 -1.04941 -1.1758 0
M  V30 5281 C 515.312 -0.592518 -2.20373 0
M  V30 5282 C 516.29 0.377561 -1.58156 0
M  V30 5283 O 517.474 0.28978 -1.86259 0
M  V30 5284 C 514.601 0.133215 -3.38438 0
M  V30 5285 C 513.647 -0.791484 -4.19092 0
M  V30 5286 S 514.48 -2.27925 -4.84572 0
M  V30 5287 C 515.636 -1.56462 -6.06028 0
M  V30 5288 H 515.869 -1.46342 -2.58788 0
M  V30 5289 H 513.402 -0.861148 -1.28155 0
M  V30 5290 H 515.36 0.545746 -4.06856 0
M  V30 5291 H 514.021 0.980124 -2.98416 0
M  V30 5292 H 513.214 -0.230039 -5.03475 0
M  V30 5293 H 512.816 -1.14326 -3.56098 0
M  V30 5294 H 515.108 -0.862539 -6.71987 0
M  V30 5295 H 516.051 -2.38583 -6.66696 0
M  V30 5296 H 516.459 -1.05313 -5.5459 0
M  V30 5297 N 515.857 1.33968 -0.830081 0
M  V30 5298 C 517.103 1.98773 -0.431394 0
M  V30 5299 C 517.458 1.64598 0.99626 0
M  V30 5300 O 516.751 0.911022 1.68555 0
M  V30 5301 C 516.945 3.52679 -0.57898 0
M  V30 5302 C 516.774 4.01807 -2.01943 0
M  V30 5303 C 515.544 4.30062 -2.65282 0
M  V30 5304 C 517.742 4.18663 -2.98707 0
M  V30 5305 N 515.724 4.65272 -4.00493 0
M  V30 5306 C 517.095 4.57133 -4.18843 0
M  V30 5307 C 519.15 4.00929 -2.95229 0
M  V30 5308 C 517.853 4.79723 -5.35965 0
M  V30 5309 C 519.879 4.2469 -4.11573 0
M  V30 5310 C 519.241 4.63454 -5.30462 0
M  V30 5311 H 515.34 0.75435 -0.206107 0
M  V30 5312 H 517.924 1.62247 -1.07629 0
M  V30 5313 H 516.095 3.88383 0.0360632 0
M  V30 5314 H 517.827 4.04412 -0.152596 0
M  V30 5315 H 514.582 4.21231 -2.16475 0
M  V30 5316 H 515.006 4.87101 -4.70172 0
M  V30 5317 H 519.648 3.70082 -2.04448 0
M  V30 5318 H 517.366 5.09434 -6.27297 0
M  V30 5319 H 520.952 4.12497 -4.10289 0
M  V30 5320 H 519.832 4.81476 -6.18992 0
M  V30 5321 N 517.335 0.585699 1.46312 0
M  V30 5322 C 518.245 -0.148236 2.34131 0
M  V30 5323 C 519.261 -0.882972 1.49932 0
M  V30 5324 O 520.437 -0.845484 1.82794 0
M  V30 5325 C 517.502 -1.14714 3.27172 0
M  V30 5326 C 516.563 -0.416746 4.27272 0
M  V30 5327 C 515.796 -1.36806 5.15868 0
M  V30 5328 O 516.019 -2.60475 5.07454 0
M  V30 5329 O 514.953 -0.877018 5.95476 0
M  V30 5330 H 518.779 0.572882 2.98248 0
M  V30 5331 H 516.364 0.346082 1.45336 0
M  V30 5332 H 518.246 -1.72303 3.84564 0
M  V30 5333 H 516.921 -1.84967 2.65648 0
M  V30 5334 H 515.828 0.201061 3.73559 0
M  V30 5335 H 517.161 0.244872 4.9159 0
M  V30 5336 N 518.813 -1.54241 0.323641 0
M  V30 5337 C 520.059 -2.00867 -0.279323 0
M  V30 5338 C 520.392 -1.21146 -1.5178 0
M  V30 5339 O 519.667 -0.29378 -1.92269 0
M  V30 5340 C 519.95 -3.54837 -0.613387 0
M  V30 5341 C 519.803 -4.45284 0.635803 0
M  V30 5342 C 521.122 -4.16186 -1.43099 0
M  V30 5343 H 518.241 -0.730177 -0.100049 0
M  V30 5344 H 520.883 -1.84829 0.440235 0
M  V30 5345 H 519.033 -3.68634 -1.22641 0
M  V30 5346 H 520.705 -4.43357 1.27406 0
M  V30 5347 H 518.948 -4.14956 1.26466 0
M  V30 5348 H 519.619 -5.5084 0.357597 0
M  V30 5349 H 522.095 -4.05964 -0.912814 0
M  V30 5350 H 520.971 -5.24031 -1.6335 0
M  V30 5351 H 521.232 -3.69516 -2.42715 0
M  V30 5352 N 520.291 -0.0518155 -1.57515 0
M  V30 5353 C 521.239 0.940195 -2.12751 0
M  V30 5354 C 522.233 1.3218 -1.05948 0
M  V30 5355 O 523.439 1.30138 -1.24355 0
M  V30 5356 H 519.814 0.321066 -0.680015 0
M  V30 5357 H 521.785 0.449217 -2.94999 0
M  V30 5358 C 520.534 2.2055 -2.68799 0
M  V30 5359 H 519.857 1.92066 -3.50643 0
M  V30 5360 H 521.297 2.88119 -3.11068 0
M  V30 5361 C 519.756 2.95061 -1.62605 0
M  V30 5362 O 520.286 3.88025 -1.03921 0
M  V30 5363 N 518.492 2.57804 -1.34111 0
M  V30 5364 H 518.039 1.82281 -1.8202 0
M  V30 5365 H 517.997 3.07964 -0.632872 0
M  V30 5366 N 521.769 1.56035 0.221574 0
M  V30 5367 C 522.679 1.95581 1.29558 0
M  V30 5368 C 523.695 0.859639 1.51282 0
M  V30 5369 O 524.871 1.16321 1.64413 0
M  V30 5370 C 521.936 2.26447 2.62531 0
M  V30 5371 C 520.997 3.49632 2.4911 0
M  V30 5372 C 520.23 3.79017 3.75742 0
M  V30 5373 O 520.453 3.10077 4.78757 0
M  V30 5374 O 519.387 4.72507 3.72855 0
M  V30 5375 H 523.213 2.8711 0.990035 0
M  V30 5376 H 520.798 1.43244 0.424434 0
M  V30 5377 H 522.68 2.47494 3.41064 0
M  V30 5378 H 521.355 1.38092 2.92766 0
M  V30 5379 H 520.262 3.33864 1.68777 0
M  V30 5380 H 521.595 4.3837 2.23814 0
M  V30 5381 N 523.247 -0.488276 1.49845 0
M  V30 5382 C 524.21 -1.57069 1.66919 0
M  V30 5383 C 525.21 -1.51445 0.540479 0
M  V30 5384 O 526.4 -1.5437 0.807188 0
M  V30 5385 C 523.532 -2.96718 1.67844 0
M  V30 5386 H 524.725 -1.43254 2.63474 0
M  V30 5387 H 522.278 -0.713435 1.39068 0
M  V30 5388 H 523.013 -3.15996 0.7292 0
M  V30 5389 H 522.798 -3.02208 2.49826 0
M  V30 5390 H 524.288 -3.75335 1.83066 0
M  V30 5391 N 524.725 -1.39134 -0.740242 0
M  V30 5392 C 525.972 -1.36071 -1.49969 0
M  V30 5393 C 526.3 0.0450245 -1.94448 0
M  V30 5394 O 525.555 1.02482 -1.66721 0
M  V30 5395 C 525.854 -2.27457 -2.75678 0
M  V30 5396 C 525.52 -3.75185 -2.50094 0
M  V30 5397 C 524.182 -4.15439 -2.42825 0
M  V30 5398 C 526.534 -4.68643 -2.28086 0
M  V30 5399 C 523.862 -5.4722 -2.11584 0
M  V30 5400 C 526.214 -6.00695 -1.98363 0
M  V30 5401 C 524.878 -6.40018 -1.8956 0
M  V30 5402 H 524.148 -0.497921 -0.548777 0
M  V30 5403 H 526.795 -1.71599 -0.85007 0
M  V30 5404 H 525.1 -1.8503 -3.45356 0
M  V30 5405 H 526.797 -2.22384 -3.33686 0
M  V30 5406 H 523.387 -3.43279 -2.56627 0
M  V30 5407 H 527.571 -4.3838 -2.32672 0
M  V30 5408 H 522.827 -5.76615 -2.03287 0
M  V30 5409 H 527.001 -6.72644 -1.80341 0
M  V30 5410 H 524.628 -7.42051 -1.65117 0
M  V30 5411 N 526.204 0.969867 -1.24223 0
M  V30 5412 C 527.429 1.75289 -1.10853 0
M  V30 5413 C 527.854 1.85091 0.335079 0
M  V30 5414 O 527.212 1.32024 1.24255 0
M  V30 5415 C 527.26 3.15255 -1.75062 0
M  V30 5416 O 526.364 3.99589 -1.01992 0
M  V30 5417 H 525.705 0.538904 -0.387915 0
M  V30 5418 H 528.235 1.21675 -1.64488 0
M  V30 5419 H 528.245 3.65787 -1.80731 0
M  V30 5420 H 526.92 3.07436 -2.801 0
M  V30 5421 H 525.497 3.58077 -1.04094 0
M  V30 5422 N 527.682 1.05563 1.17022 0
M  V30 5423 C 528.612 0.681026 2.23348 0
M  V30 5424 C 529.593 -0.322983 1.67005 0
M  V30 5425 O 530.778 -0.199746 1.9317 0
M  V30 5426 C 527.908 0.0589053 3.4725 0
M  V30 5427 C 526.862 0.988082 4.16438 0
M  V30 5428 C 526.188 0.229646 5.34207 0
M  V30 5429 C 527.488 2.31388 4.68249 0
M  V30 5430 H 529.182 1.56993 2.54938 0
M  V30 5431 H 526.728 0.756302 1.2254 0
M  V30 5432 H 528.681 -0.214982 4.20851 0
M  V30 5433 H 527.405 -0.864968 3.14938 0
M  V30 5434 H 526.064 1.24659 3.44754 0
M  V30 5435 H 525.712 -0.697111 4.98146 0
M  V30 5436 H 525.412 0.848815 5.81437 0
M  V30 5437 H 526.936 -0.0368694 6.10589 0
M  V30 5438 H 528.35 2.09964 5.33468 0
M  V30 5439 H 526.747 2.88736 5.26072 0
M  V30 5440 H 527.817 2.94982 3.84855 0
M  V30 5441 N 529.16 -1.33526 0.837174 0
M  V30 5442 C 530.406 -1.9813 0.432704 0
M  V30 5443 C 530.739 -1.66168 -1.00508 0
M  V30 5444 O 530.014 -0.94069 -1.70239 0
M  V30 5445 C 530.297 -3.54151 0.651834 0
M  V30 5446 C 530.15 -3.95806 2.13676 0
M  V30 5447 C 531.469 -4.39993 0.0968937 0
M  V30 5448 H 528.588 -0.719713 0.15869 0
M  V30 5449 H 531.23 -1.58193 1.05237 0
M  V30 5450 H 529.38 -3.88301 0.124369 0
M  V30 5451 H 531.052 -3.71921 2.72896 0
M  V30 5452 H 529.295 -3.45599 2.62191 0
M  V30 5453 H 529.966 -5.0447 2.24084 0
M  V30 5454 H 532.442 -4.12479 0.547733 0
M  V30 5455 H 531.318 -5.48186 0.279917 0
M  V30 5456 H 531.579 -4.3066 -0.9992 0
M  V30 5457 N 530.638 -0.59345 -1.46 0
M  V30 5458 C 531.884 -0.0832754 -2.02629 0
M  V30 5459 C 532.217 1.27749 -1.46266 0
M  V30 5460 O 531.492 1.8395 -0.631866 0
M  V30 5461 C 531.775 -0.0290756 -3.60088 0
M  V30 5462 C 531.628 -1.41951 -4.26814 0
M  V30 5463 C 532.947 0.666055 -4.35031 0
M  V30 5464 H 530.066 -0.031736 -0.736316 0
M  V30 5465 H 532.708 -0.762711 -1.74019 0
M  V30 5466 H 530.858 0.549532 -3.84594 0
M  V30 5467 H 532.53 -2.04411 -4.13538 0
M  V30 5468 H 530.773 -1.98422 -3.8576 0
M  V30 5469 H 531.444 -1.33395 -5.3564 0
M  V30 5470 H 533.92 0.174401 -4.15734 0
M  V30 5471 H 532.796 0.673041 -5.44758 0
M  V30 5472 H 533.057 1.72946 -4.06869 0
M  V30 5473 N 532.116 1.54067 -0.331816 0
M  V30 5474 C 533.046 2.27569 0.522932 0
M  V30 5475 C 534.027 1.28679 1.11247 0
M  V30 5476 O 535.212 1.57504 1.13605 0
M  V30 5477 C 532.342 3.0397 1.67987 0
M  V30 5478 C 531.296 4.10267 1.21924 0
M  V30 5479 C 530.622 4.74555 2.46377 0
M  V30 5480 C 531.922 5.21268 0.32815 0
M  V30 5481 H 533.616 2.99264 -0.0901977 0
M  V30 5482 H 531.162 1.4393 -0.044821 0
M  V30 5483 H 533.115 3.54123 2.28418 0
M  V30 5484 H 531.839 2.29906 2.31971 0
M  V30 5485 H 530.498 3.61009 0.637809 0
M  V30 5486 H 530.146 3.97098 3.08743 0
M  V30 5487 H 529.846 5.46363 2.16243 0
M  V30 5488 H 531.37 5.27487 3.07555 0
M  V30 5489 H 532.784 5.67128 0.838978 0
M  V30 5490 H 531.181 5.99982 0.119228 0
M  V30 5491 H 532.251 4.80673 -0.638839 0
M  V30 5492 N 533.594 0.0601682 1.57485 0
M  V30 5493 C 534.557 -0.896373 2.10945 0
M  V30 5494 C 535.557 -1.23402 1.03095 0
M  V30 5495 O 536.747 -1.16921 1.29132 0
M  V30 5496 C 533.879 -2.20346 2.60116 0
M  V30 5497 H 535.072 -0.432778 2.96761 0
M  V30 5498 H 532.625 -0.188372 1.55161 0
M  V30 5499 H 533.36 -2.71268 1.7772 0
M  V30 5500 H 533.145 -1.9714 3.38937 0
M  V30 5501 H 534.635 -2.88846 3.01592 0
M  V30 5502 N 535.072 -1.5615 -0.213296 0
M  V30 5503 C 536.02 -1.93953 -1.28394 0
M  V30 5504 C 537.014 -0.822592 -1.48087 0
M  V30 5505 O 538.22 -1.00748 -1.49164 0
M  V30 5506 H 534.595 -0.61648 -0.430646 0
M  V30 5507 H 536.566 -2.83275 -0.937977 0
M  V30 5508 C 535.315 -2.27969 -2.62537 0
M  V30 5509 H 534.638 -3.13432 -2.48194 0
M  V30 5510 H 536.078 -2.58297 -3.36242 0
M  V30 5511 C 534.537 -1.10775 -3.18167 0
M  V30 5512 O 535.067 -0.373201 -3.99963 0
M  V30 5513 N 533.273 -0.889377 -2.76656 0
M  V30 5514 H 532.82 -1.48843 -2.10246 0
M  V30 5515 H 532.778 -0.107 -3.14218 0
M  V30 5516 N 536.55 0.480323 -1.50102 0
M  V30 5517 C 537.799 1.22979 -1.59872 0
M  V30 5518 C 538.112 1.93282 -0.30022 0
M  V30 5519 O 539.318 2.70086 -0.276709 0
M  V30 5520 C 537.774 2.23408 -2.82164 0
M  V30 5521 C 537.382 1.5895 -4.18854 0
M  V30 5522 C 539.126 2.99055 -3.01275 0
M  V30 5523 C 537.033 2.57611 -5.32344 0
M  V30 5524 H 535.963 0.462707 -0.59533 0
M  V30 5525 H 538.614 0.501291 -1.7652 0
M  V30 5526 H 536.996 2.99511 -2.59055 0
M  V30 5527 H 538.17 0.887 -4.52182 0
M  V30 5528 H 536.485 0.956191 -4.05273 0
M  V30 5529 H 539.082 3.72876 -3.83233 0
M  V30 5530 H 539.425 3.57897 -2.12639 0
M  V30 5531 H 539.958 2.30066 -3.24522 0
M  V30 5532 H 536.697 2.03521 -6.23105 0
M  V30 5533 H 536.217 3.26041 -5.03445 0
M  V30 5534 H 537.896 3.19627 -5.62537 0
M  V30 5535 N 538.028 1.39524 0.732853 0
M  V30 5536 C 538.975 1.38416 1.84688 0
M  V30 5537 C 539.945 0.243539 1.64305 0
M  V30 5538 O 541.13 0.438979 1.85681 0
M  V30 5539 C 538.27 1.23555 3.22224 0
M  V30 5540 C 537.383 2.47179 3.54298 0
M  V30 5541 C 536.518 2.2489 4.81246 0
M  V30 5542 C 535.557 3.44178 5.0617 0
M  V30 5543 N 534.694 3.21192 6.24323 0
M  V30 5544 H 539.534 2.33645 1.84971 0
M  V30 5545 H 537.071 1.16059 0.903804 0
M  V30 5546 H 539.029 1.12949 4.0162 0
M  V30 5547 H 537.659 0.31954 3.21215 0
M  V30 5548 H 536.711 2.68379 2.69587 0
M  V30 5549 H 538.023 3.36022 3.68633 0
M  V30 5550 H 537.177 2.11538 5.68627 0
M  V30 5551 H 535.916 1.33443 4.69089 0
M  V30 5552 H 534.921 3.58025 4.17251 0
M  V30 5553 H 536.146 4.36528 5.20212 0
M  V30 5554 H 534.092 2.32413 6.1345 0
M  V30 5555 H 534.009 4.03594 6.39256 0
M  V30 5556 H 535.277 3.1154 7.14537 0
M  V30 5557 N 539.506 -0.963266 1.24736 0
M  V30 5558 C 540.439 -2.05758 0.986852 0
M  V30 5559 C 541.417 -1.62398 -0.0809272 0
M  V30 5560 O 542.601 -1.88414 0.0569347 0
M  V30 5561 C 539.728 -3.35135 0.490095 0
M  V30 5562 C 538.774 -3.97451 1.54709 0
M  V30 5563 S 539.607 -4.34519 3.12976 0
M  V30 5564 C 540.763 -5.67026 2.65014 0
M  V30 5565 H 540.996 -2.27539 1.91346 0
M  V30 5566 H 538.529 -1.10176 1.08169 0
M  V30 5567 H 540.487 -4.09962 0.21012 0
M  V30 5568 H 539.148 -3.11335 -0.415873 0
M  V30 5569 H 538.341 -4.90704 1.15003 0
M  V30 5570 H 537.943 -3.29071 1.77731 0
M  V30 5571 H 540.235 -6.44748 2.08102 0
M  V30 5572 H 541.178 -6.11594 3.56873 0
M  V30 5573 H 541.586 -5.25847 2.05294 0
M  V30 5574 N 540.985 -1.06182 -1.16461 0
M  V30 5575 C 541.915 -0.692861 -2.22984 0
M  V30 5576 C 542.896 0.314122 -1.67174 0
M  V30 5577 O 544.081 0.189499 -1.93273 0
M  V30 5578 C 541.211 -0.07732 -3.47214 0
M  V30 5579 C 540.165 -1.01015 -4.15909 0
M  V30 5580 C 539.491 -0.257973 -5.34077 0
M  V30 5581 C 540.791 -2.33868 -4.67015 0
M  V30 5582 H 542.485 -1.58343 -2.54102 0
M  V30 5583 H 540.031 -0.76279 -1.22137 0
M  V30 5584 H 541.984 0.19266 -4.20959 0
M  V30 5585 H 540.708 0.848254 -3.15392 0
M  V30 5586 H 539.367 -1.26486 -3.44088 0
M  V30 5587 H 539.015 0.670684 -4.98509 0
M  V30 5588 H 538.715 -0.879638 -5.80979 0
M  V30 5589 H 540.239 0.00448788 -6.106 0
M  V30 5590 H 541.653 -2.1279 -5.32347 0
M  V30 5591 H 540.05 -2.91522 -5.24533 0
M  V30 5592 H 541.12 -2.97019 -3.83286 0
M  V30 5593 N 542.463 1.3308 -0.844243 0
M  V30 5594 C 543.373 2.32876 -0.283922 0
M  V30 5595 C 544.389 1.63589 0.592846 0
M  V30 5596 O 545.565 1.95205 0.495693 0
M  V30 5597 C 542.63 3.42667 0.527283 0
M  V30 5598 C 541.691 4.27664 -0.374394 0
M  V30 5599 C 540.924 5.32212 0.39819 0
M  V30 5600 O 541.147 5.46635 1.62932 0
M  V30 5601 O 540.081 6.01458 -0.2306 0
M  V30 5602 H 543.907 2.82671 -1.11045 0
M  V30 5603 H 541.492 1.36518 -0.606903 0
M  V30 5604 H 543.374 4.09652 0.988078 0
M  V30 5605 H 542.049 2.95079 1.33078 0
M  V30 5606 H 540.956 3.63526 -0.883144 0
M  V30 5607 H 542.289 4.78749 -1.1428 0
M  V30 5608 N 543.941 0.601185 1.45683 0
M  V30 5609 C 545.19 0.0914953 2.01492 0
M  V30 5610 C 545.503 -1.28331 1.47616 0
M  V30 5611 O 546.709 -1.88537 1.95362 0
M  V30 5612 C 545.165 0.11291 3.59723 0
M  V30 5613 C 544.773 1.48717 4.22596 0
M  V30 5614 C 546.517 -0.341871 4.23121 0
M  V30 5615 C 544.424 1.46531 5.7296 0
M  V30 5616 H 543.354 0.0304365 0.753385 0
M  V30 5617 H 546.005 0.755568 1.67223 0
M  V30 5618 H 544.387 -0.617692 3.91153 0
M  V30 5619 H 545.561 2.23897 4.02749 0
M  V30 5620 H 543.876 1.88351 3.71366 0
M  V30 5621 H 546.473 -0.377304 5.33367 0
M  V30 5622 H 546.816 -1.36325 3.93346 0
M  V30 5623 H 547.349 0.335256 3.96385 0
M  V30 5624 H 544.088 2.46408 6.07423 0
M  V30 5625 H 543.608 0.755997 5.95017 0
M  V30 5626 H 545.287 1.18618 6.36034 0
M  V30 5627 N 545.419 -1.53889 0.339982 0
M  V30 5628 C 546.696 -1.93084 -0.312719 0
M  V30 5629 C 547.076 -1.2712 -1.68534 0
M  V30 5630 O 546.424 -0.420835 -2.24591 0
M  V30 5631 C 546.634 -3.4683 -0.388558 0
M  V30 5632 C 547.982 -4.19732 -0.641088 0
M  V30 5633 O 549.006 -3.53075 -0.470818 0
M  V30 5634 O 547.865 -5.3781 -0.970685 0
M  V30 5635 H 544.959 -0.806784 -0.18174 0
M  V30 5636 H 547.505 -1.65137 0.390898 0
M  V30 5637 H 546.277 -3.87055 0.574821 0
M  V30 5638 H 545.9 -3.80933 -1.1391 0
M  V30 5639 N 546.897 -0.0685191 -1.57451 0
M  V30 5640 C 548.308 0.464634 -1.80826 0
M  V30 5641 C 548.659 1.69847 -0.982169 0
M  V30 5642 O 547.784 2.15439 -0.203734 0
M  V30 5643 C 548.379 0.849721 -3.27971 0
M  V30 5644 C 546.938 1.32776 -3.52204 0
M  V30 5645 C 546.085 0.311332 -2.75547 0
M  V30 5646 H 549.036 -0.294248 -1.55948 0
M  V30 5647 H 549.057 1.71138 -3.39841 0
M  V30 5648 H 548.569 -0.0484736 -3.8807 0
M  V30 5649 H 546.67 2.24456 -2.97406 0
M  V30 5650 H 546.783 1.30794 -4.60901 0
M  V30 5651 H 545.147 0.787915 -2.42206 0
M  V30 5652 H 545.93 -0.579078 -3.38381 0
M  V30 5653 N 548.375 1.56261 0.205012 0
M  V30 5654 C 549.307 1.90266 1.27795 0
M  V30 5655 C 550.32 0.792397 1.42214 0
M  V30 5656 O 551.509 1.07077 1.42817 0
M  V30 5657 C 548.609 2.11074 2.65143 0
M  V30 5658 C 547.782 3.42176 2.7246 0
M  V30 5659 C 546.841 3.52216 3.90936 0
M  V30 5660 O 545.867 4.25119 3.78501 0
M  V30 5661 N 547.069 2.84573 5.05963 0
M  V30 5662 H 549.834 2.82896 0.989434 0
M  V30 5663 H 547.395 1.57008 0.394981 0
M  V30 5664 H 549.387 2.15089 3.4281 0
M  V30 5665 H 547.957 1.2499 2.86524 0
M  V30 5666 H 547.177 3.50116 1.81142 0
M  V30 5667 H 548.465 4.28509 2.74331 0
M  V30 5668 H 547.863 2.25152 5.18963 0
M  V30 5669 H 546.42 2.94228 5.81613 0
M  V30 5670 N 549.853 -0.472356 1.50355 0
M  V30 5671 C 550.8 -1.57051 1.69126 0
M  V30 5672 C 551.77 -1.5733 0.532574 0
M  V30 5673 O 552.955 -1.7488 0.762994 0
M  V30 5674 C 550.095 -2.95033 1.79024 0
M  V30 5675 C 549.208 -3.04552 3.06386 0
M  V30 5676 C 548.343 -4.33441 3.07087 0
M  V30 5677 C 547.382 -4.36697 4.28908 0
M  V30 5678 N 546.519 -5.57056 4.27356 0
M  V30 5679 H 551.359 -1.40351 2.62879 0
M  V30 5680 H 548.896 -0.682403 1.30314 0
M  V30 5681 H 550.854 -3.75048 1.82744 0
M  V30 5682 H 549.484 -3.10371 0.887109 0
M  V30 5683 H 548.536 -2.17419 3.12143 0
M  V30 5684 H 549.848 -3.02818 3.96362 0
M  V30 5685 H 549.002 -5.21801 3.09529 0
M  V30 5686 H 547.741 -4.37782 2.14939 0
M  V30 5687 H 546.746 -3.46734 4.2668 0
M  V30 5688 H 547.971 -4.34049 5.22282 0
M  V30 5689 H 545.917 -5.62184 3.3806 0
M  V30 5690 H 545.834 -5.57058 5.111 0
M  V30 5691 H 547.102 -6.47545 4.33942 0
M  V30 5692 N 551.331 -1.39911 -0.725443 0
M  V30 5693 C 552.577 -1.37858 -1.48738 0
M  V30 5694 C 552.91 0.0224187 -1.94187 0
M  V30 5695 O 552.185 0.989204 -1.67466 0
M  V30 5696 C 552.468 -2.3594 -2.72038 0
M  V30 5697 C 552.321 -3.85023 -2.32546 0
M  V30 5698 C 553.64 -2.31704 -3.74167 0
M  V30 5699 H 550.759 -0.502074 -0.539528 0
M  V30 5700 H 553.401 -1.70974 -0.828728 0
M  V30 5701 H 551.551 -2.0783 -3.28236 0
M  V30 5702 H 553.223 -4.2392 -1.81905 0
M  V30 5703 H 551.466 -4.01334 -1.64661 0
M  V30 5704 H 552.137 -4.49152 -3.20884 0
M  V30 5705 H 554.613 -2.5658 -3.27576 0
M  V30 5706 H 553.489 -3.02395 -4.58092 0
M  V30 5707 H 553.75 -1.3253 -4.21768 0
M  V30 5708 N 552.809 0.956637 -1.25245 0
M  V30 5709 C 553.757 2.0743 -1.0524 0
M  V30 5710 C 554.751 1.69392 0.0160725 0
M  V30 5711 O 555.957 1.7946 -0.139382 0
M  V30 5712 H 552.332 0.678921 -0.323373 0
M  V30 5713 H 554.303 2.2146 -1.99995 0
M  V30 5714 C 553.052 3.40872 -0.685702 0
M  V30 5715 H 552.375 3.70607 -1.49968 0
M  V30 5716 H 553.815 4.19939 -0.585415 0
M  V30 5717 C 552.274 3.31367 0.608082 0
M  V30 5718 O 552.804 3.66214 1.65076 0
M  V30 5719 N 551.01 2.84486 0.592955 0
M  V30 5720 H 550.557 2.56326 -0.25592 0
M  V30 5721 H 550.515 2.78509 1.45877 0
M  V30 5722 N 554.287 1.06798 1.15896 0
M  V30 5723 C 555.536 0.782796 1.8589 0
M  V30 5724 C 555.849 -0.693498 1.82893 0
M  V30 5725 O 557.055 -1.09325 2.48516 0
M  V30 5726 C 555.511 1.3502 3.33613 0
M  V30 5727 C 555.119 2.8571 3.45071 0
M  V30 5728 C 556.863 1.14278 4.08829 0
M  V30 5729 C 554.77 3.35669 4.86909 0
M  V30 5730 H 553.7 0.289149 0.696354 0
M  V30 5731 H 556.351 1.28734 1.30766 0
M  V30 5732 H 554.733 0.773407 3.88374 0
M  V30 5733 H 555.907 3.49385 3.00445 0
M  V30 5734 H 554.222 3.05178 2.83294 0
M  V30 5735 H 556.819 1.49087 5.13495 0
M  V30 5736 H 557.162 0.0814575 4.1622 0
M  V30 5737 H 557.695 1.68563 3.60321 0
M  V30 5738 H 554.434 4.41302 4.84698 0
M  V30 5739 H 553.954 2.76745 5.32139 0
M  V30 5740 H 555.633 3.31296 5.55745 0
M  V30 5741 N 555.766 -1.3263 0.851289 0
M  V30 5742 C 556.714 -2.30882 0.282202 0
M  V30 5743 C 557.708 -1.58697 -0.592589 0
M  V30 5744 O 558.914 -1.73461 -0.480768 0
M  V30 5745 H 555.289 -0.748492 0.0725487 0
M  V30 5746 H 557.26 -2.76374 1.12516 0
M  V30 5747 C 556.009 -3.43828 -0.517449 0
M  V30 5748 H 555.332 -3.99532 0.146392 0
M  V30 5749 H 556.772 -4.1474 -0.88128 0
M  V30 5750 C 555.231 -2.90786 -1.70133 0
M  V30 5751 O 555.761 -2.88 -2.80034 0
M  V30 5752 N 553.967 -2.4723 -1.52728 0
M  V30 5753 H 553.514 -2.49695 -0.633257 0
M  V30 5754 H 553.472 -2.12094 -2.32085 0
M  V30 5755 N 557.244 -0.608902 -1.45362 0
M  V30 5756 C 558.492 -0.104401 -2.0183 0
M  V30 5757 C 558.813 1.27007 -1.47967 0
M  V30 5758 O 558.083 1.83924 -0.674455 0
M  V30 5759 H 556.663 -0.0356042 -0.746151 0
M  V30 5760 H 559.325 -0.790596 -1.78145 0
M  V30 5761 H 558.421 -0.0551793 -3.12051 0
M  V30 5762 N 558.722 1.53707 -0.348139 0
M  V30 5763 C 559.97 2.00591 0.246478 0
M  V30 5764 C 560.291 1.23753 1.50699 0
M  V30 5765 O 559.561 0.345964 1.92821 0
M  V30 5766 H 558.141 0.741053 0.0940679 0
M  V30 5767 H 560.803 1.89139 -0.470354 0
M  V30 5768 H 559.899 3.08297 0.485714 0
M  V30 5769 N 560.2 0.0768682 1.57412 0
M  V30 5770 C 561.163 -0.873949 2.11884 0
M  V30 5771 C 562.163 -1.22301 1.04398 0
M  V30 5772 O 563.353 -1.15545 1.30365 0
M  V30 5773 C 560.485 -2.17575 2.62438 0
M  V30 5774 H 561.678 -0.401278 2.97203 0
M  V30 5775 H 559.231 -0.171904 1.55352 0
M  V30 5776 H 559.966 -2.69368 1.80587 0
M  V30 5777 H 559.751 -1.93534 3.41009 0
M  V30 5778 H 561.241 -2.85631 3.04639 0
M  V30 5779 N 561.678 -1.56367 -0.196722 0
M  V30 5780 C 562.924 -1.80796 -0.918725 0
M  V30 5781 C 563.257 -0.650645 -1.82976 0
M  V30 5782 O 562.532 0.348889 -1.91345 0
M  V30 5783 C 562.815 -3.15472 -1.73636 0
M  V30 5784 C 562.668 -4.41693 -0.85015 0
M  V30 5785 C 563.987 -3.46824 -2.70927 0
M  V30 5786 H 561.106 -0.657702 -0.332561 0
M  V30 5787 H 563.748 -1.89086 -0.186186 0
M  V30 5788 H 561.898 -3.08536 -2.36088 0
M  V30 5789 H 563.57 -4.60673 -0.240459 0
M  V30 5790 H 561.813 -4.33517 -0.156785 0
M  V30 5791 H 562.484 -5.32419 -1.45719 0
M  V30 5792 H 564.96 -3.54049 -2.18607 0
M  V30 5793 H 563.836 -4.4218 -3.25219 0
M  V30 5794 H 564.097 -2.70236 -3.49893 0
M  V30 5795 N 563.156 0.464375 -1.50603 0
M  V30 5796 C 564.381 1.24372 -1.65971 0
M  V30 5797 C 564.806 1.84901 -0.345453 0
M  V30 5798 O 564.164 1.67596 0.691457 0
M  V30 5799 C 564.212 2.32331 -2.7578 0
M  V30 5800 O 563.316 3.37146 -2.375 0
M  V30 5801 H 562.657 0.365604 -0.554283 0
M  V30 5802 H 565.187 0.55183 -1.97018 0
M  V30 5803 H 565.197 2.77539 -2.99059 0
M  V30 5804 H 563.872 1.87648 -3.71162 0
M  V30 5805 H 562.449 2.97602 -2.24694 0
M  V30 5806 N 564.634 1.40294 0.718013 0
M  V30 5807 C 565.564 1.43118 1.84498 0
M  V30 5808 C 566.545 0.292403 1.67568 0
M  V30 5809 O 567.73 0.500675 1.87635 0
M  V30 5810 C 564.86 1.29065 3.22427 0
M  V30 5811 C 563.814 2.40521 3.54025 0
M  V30 5812 C 563.14 2.11546 4.91073 0
M  V30 5813 C 564.44 3.82859 3.55269 0
M  V30 5814 H 566.134 2.37432 1.82391 0
M  V30 5815 H 563.68 1.14283 0.87609 0
M  V30 5816 H 565.633 1.29658 4.00957 0
M  V30 5817 H 564.357 0.312271 3.25104 0
M  V30 5818 H 563.016 2.39173 2.77834 0
M  V30 5819 H 562.664 1.12104 4.90348 0
M  V30 5820 H 562.364 2.86216 5.1318 0
M  V30 5821 H 563.888 2.13817 5.71939 0
M  V30 5822 H 565.302 3.86044 4.23843 0
M  V30 5823 H 563.699 4.57029 3.88902 0
M  V30 5824 H 564.769 4.12617 2.54706 0
M  V30 5825 N 566.112 -0.949982 1.2575 0
M  V30 5826 C 567.36 -1.6918 1.10555 0
M  V30 5827 C 567.681 -1.91773 -0.353298 0
M  V30 5828 O 566.951 -1.50814 -1.25027 0
M  V30 5829 H 565.531 -0.626952 0.406129 0
M  V30 5830 H 568.193 -1.1419 1.57945 0
M  V30 5831 H 567.289 -2.66915 1.61749 0
M  V30 5832 N 567.59 -1.07411 -1.15328 0
M  V30 5833 C 568.54 -0.664788 -2.18093 0
M  V30 5834 C 569.524 0.310395 -1.57878 0
M  V30 5835 O 570.716 0.124026 -1.76565 0
M  V30 5836 C 567.845 -0.0647822 -3.43239 0
M  V30 5837 C 566.931 -1.06514 -4.10506 0
M  V30 5838 N 567.322 -2.24491 -4.53252 0
M  V30 5839 C 565.62 -0.898613 -4.36853 0
M  V30 5840 C 566.321 -2.8796 -5.05424 0
M  V30 5841 N 565.297 -2.15622 -4.99007 0
M  V30 5842 H 569.099 -1.56333 -2.48872 0
M  V30 5843 H 566.613 -0.947393 -1.31902 0
M  V30 5844 H 568.61 0.246363 -4.16171 0
M  V30 5845 H 567.27 0.828866 -3.13943 0
M  V30 5846 H 568.281 -2.62205 -4.46619 0
M  V30 5847 H 564.958 -0.0579118 -4.1746 0
M  V30 5848 H 566.348 -3.88137 -5.48452 0
M  V30 5849 N 569.068 1.32177 -0.85831 0
M  V30 5850 C 570.479 1.79381 -0.517621 0
M  V30 5851 C 570.83 1.70841 0.964769 0
M  V30 5852 O 569.955 1.26917 1.75274 0
M  V30 5853 C 570.55 3.25706 -0.932801 0
M  V30 5854 C 569.109 3.70851 -0.643953 0
M  V30 5855 C 568.256 2.53208 -1.13054 0
M  V30 5856 H 571.207 1.19424 -1.04516 0
M  V30 5857 H 571.228 3.79673 -0.250674 0
M  V30 5858 H 570.74 3.31889 -2.01174 0
M  V30 5859 H 568.841 3.70178 0.424112 0
M  V30 5860 H 568.954 4.63495 -1.21281 0
M  V30 5861 H 567.318 2.48676 -0.550679 0
M  V30 5862 H 568.101 2.62143 -2.21666 0
M  V30 5863 N 570.547 0.616602 1.45037 0
M  V30 5864 C 571.796 0.112861 2.01384 0
M  V30 5865 C 572.109 -1.26758 1.48969 0
M  V30 5866 O 573.315 -1.86454 1.9735 0
M  V30 5867 C 571.771 0.151057 3.59583 0
M  V30 5868 C 571.379 1.53191 4.20995 0
M  V30 5869 C 573.123 -0.296974 4.2346 0
M  V30 5870 C 571.03 1.526 5.71373 0
M  V30 5871 H 569.96 0.0384254 0.75302 0
M  V30 5872 H 572.611 0.773262 1.66412 0
M  V30 5873 H 570.993 -0.57617 3.91786 0
M  V30 5874 H 572.167 2.28156 4.00352 0
M  V30 5875 H 570.482 1.92279 3.69348 0
M  V30 5876 H 573.079 -0.320712 5.33737 0
M  V30 5877 H 573.422 -1.32145 3.9477 0
M  V30 5878 H 573.955 0.377279 3.96007 0
M  V30 5879 H 570.694 2.52837 6.04776 0
M  V30 5880 H 570.214 0.819064 5.94181 0
M  V30 5881 H 571.893 1.25357 6.3474 0
M  V30 5882 N 572.025 -1.5352 0.356285 0
M  V30 5883 C 573.273 -2.00719 -0.235837 0
M  V30 5884 C 573.594 -1.24551 -1.5004 0
M  V30 5885 O 572.864 -0.356185 -1.92635 0
M  V30 5886 H 571.444 -0.741542 -0.0901366 0
M  V30 5887 H 574.106 -1.88887 0.480378 0
M  V30 5888 H 573.202 -3.08551 -0.469357 0
M  V30 5889 N 573.503 -0.0852151 -1.57369 0
M  V30 5890 C 574.436 0.913608 -2.09113 0
M  V30 5891 C 575.414 1.28264 -0.999358 0
M  V30 5892 O 576.598 1.3896 -1.27367 0
M  V30 5893 C 573.725 2.21777 -2.55993 0
M  V30 5894 C 572.771 1.99932 -3.76735 0
M  V30 5895 S 573.604 1.24637 -5.20794 0
M  V30 5896 C 574.76 2.56304 -5.71016 0
M  V30 5897 H 574.993 0.473369 -2.93507 0
M  V30 5898 H 572.526 0.127856 -1.5387 0
M  V30 5899 H 574.484 2.96726 -2.83662 0
M  V30 5900 H 573.145 2.62923 -1.71843 0
M  V30 5901 H 572.338 2.96482 -4.07571 0
M  V30 5902 H 571.94 1.33116 -3.49509 0
M  V30 5903 H 574.232 3.5233 -5.78679 0
M  V30 5904 H 575.175 2.3006 -6.69685 0
M  V30 5905 H 575.583 2.64125 -4.98897 0
M  V30 5906 N 574.981 1.5647 0.188427 0
M  V30 5907 C 576.206 1.85486 0.927891 0
M  V30 5908 C 576.631 0.669575 1.75779 0
M  V30 5909 O 575.989 -0.381573 1.77239 0
M  V30 5910 C 576.037 3.12784 1.7944 0
M  V30 5911 O 575.141 2.93805 2.894 0
M  V30 5912 H 574.482 0.610585 0.260925 0
M  V30 5913 H 577.012 2.037 0.191729 0
M  V30 5914 H 577.022 3.43749 2.19774 0
M  V30 5915 H 575.697 3.98671 1.18468 0
M  V30 5916 H 574.274 2.74153 2.52774 0
M  V30 5917 N 576.459 -0.456382 1.50847 0
M  V30 5918 C 577.707 -1.20497 1.62249 0
M  V30 5919 C 578.028 -1.92156 0.331839 0
M  V30 5920 O 577.298 -1.84751 -0.651443 0
M  V30 5921 H 575.878 -0.447775 0.597918 0
M  V30 5922 H 578.54 -0.525099 1.87693 0
M  V30 5923 H 577.636 -1.94492 2.44089 0
M  V30 5924 N 577.937 -1.40673 -0.710563 0
M  V30 5925 C 578.9 -1.4108 -1.80635 0
M  V30 5926 C 579.9 -0.303783 -1.57904 0
M  V30 5927 O 581.09 -0.562937 -1.64853 0
M  V30 5928 C 578.222 -1.20748 -3.18799 0
M  V30 5929 H 579.415 -2.38612 -1.81671 0
M  V30 5930 H 576.968 -1.26595 -0.916704 0
M  V30 5931 H 577.703 -0.239964 -3.23411 0
M  V30 5932 H 577.488 -2.00941 -3.36698 0
M  V30 5933 H 578.978 -1.23833 -3.98817 0
M  V30 5934 N 579.415 0.9433 -1.26252 0
M  V30 5935 C 580.831 1.21644 -1.03319 0
M  V30 5936 C 581.031 2.0003 0.242983 0
M  V30 5937 O 580.087 2.33838 0.952688 0
M  V30 5938 C 581.4 1.97978 -2.2633 0
M  V30 5939 C 582.948 2.10978 -2.31209 0
M  V30 5940 C 583.423 2.90713 -3.53907 0
M  V30 5941 N 584.914 2.98287 -3.54371 0
M  V30 5942 C 585.649 3.60406 -4.45976 0
M  V30 5943 N 585.145 4.24043 -5.47868 0
M  V30 5944 N 586.938 3.57658 -4.33633 0
M  V30 5945 H 579.089 0.419221 -2.08222 0
M  V30 5946 H 581.352 0.247995 -0.914988 0
M  V30 5947 H 581.058 1.47788 -3.19142 0
M  V30 5948 H 580.932 2.9865 -2.30408 0
M  V30 5949 H 583.319 2.6036 -1.38913 0
M  V30 5950 H 583.4 1.09575 -2.31143 0
M  V30 5951 H 583.044 2.42018 -4.46531 0
M  V30 5952 H 582.974 3.92367 -3.5122 0
M  V30 5953 H 585.465 2.53044 -2.80673 0
M  V30 5954 H 585.778 4.69334 -6.13959 0
M  V30 5955 H 584.123 4.22637 -5.51728 0
M  V30 5956 H 587.314 3.07134 -3.53251 0
M  V30 5957 H 587.487 4.05782 -5.05218 0
M  V30 5958 N 580.893 1.08022 1.14757 0
M  V30 5959 C 582.142 0.802468 1.8505 0
M  V30 5960 C 582.455 -0.674061 1.83619 0
M  V30 5961 O 583.661 -1.06683 2.49662 0
M  V30 5962 C 582.117 1.38551 3.32162 0
M  V30 5963 C 581.725 2.89354 3.42021 0
M  V30 5964 C 583.469 1.18608 4.07594 0
M  V30 5965 C 581.376 3.40815 4.83321 0
M  V30 5966 H 580.306 0.296518 0.693248 0
M  V30 5967 H 582.957 1.30114 1.29393 0
M  V30 5968 H 581.339 0.814556 3.87532 0
M  V30 5969 H 582.513 3.52552 2.96722 0
M  V30 5970 H 580.828 3.08165 2.80041 0
M  V30 5971 H 583.425 1.54525 5.11885 0
M  V30 5972 H 583.768 0.125599 4.1611 0
M  V30 5973 H 584.301 1.72375 3.58513 0
M  V30 5974 H 581.04 4.46418 4.79991 0
M  V30 5975 H 580.56 2.82374 5.29174 0
M  V30 5976 H 582.239 3.37171 5.522 0
M  V30 5977 N 582.371 -1.3172 0.865308 0
M  V30 5978 C 583.617 -1.97168 0.474633 0
M  V30 5979 C 583.95 -1.68263 -0.969604 0
M  V30 5980 O 583.225 -0.976588 -1.68205 0
M  V30 5981 C 583.508 -3.52689 0.726808 0
M  V30 5982 C 583.361 -3.91185 2.22024 0
M  V30 5983 C 584.68 -4.39689 0.190201 0
M  V30 5984 H 581.799 -0.716185 0.17392 0
M  V30 5985 H 584.441 -1.55925 1.08569 0
M  V30 5986 H 582.591 -3.8795 0.206705 0
M  V30 5987 H 584.263 -3.66049 2.80724 0
M  V30 5988 H 582.506 -3.3996 2.69462 0
M  V30 5989 H 583.177 -4.99604 2.34735 0
M  V30 5990 H 585.653 -4.11225 0.635103 0
M  V30 5991 H 584.529 -5.47469 0.396132 0
M  V30 5992 H 584.79 -4.32683 -0.907625 0
M  V30 5993 N 583.85 -0.624285 -1.44708 0
M  V30 5994 C 585.098 -0.125802 -2.01708 0
M  V30 5995 C 585.418 1.2543 -1.49306 0
M  V30 5996 O 584.689 1.83198 -0.693924 0
M  V30 5997 H 583.269 -0.0435161 -0.745731 0
M  V30 5998 H 585.931 -0.809446 -1.77296 0
M  V30 5999 H 585.027 -0.0882734 -3.11975 0
M  V30 6000 N 585.328 1.53329 -0.364422 0
M  V30 6001 C 586.278 2.22472 0.499024 0
M  V30 6002 C 587.262 1.21952 1.0496 0
M  V30 6003 O 588.454 1.47405 0.979836 0
M  V30 6004 C 585.583 3.01659 1.6388 0
M  V30 6005 C 584.669 4.09555 1.10116 0
M  V30 6006 N 585.06 5.04988 0.286414 0
M  V30 6007 C 583.358 4.2424 1.37608 0
M  V30 6008 C 584.059 5.81699 -0.00781682 0
M  V30 6009 N 583.035 5.40394 0.589494 0
M  V30 6010 H 586.837 2.93611 -0.130284 0
M  V30 6011 H 584.351 1.61483 -0.172377 0
M  V30 6012 H 586.348 3.4971 2.26954 0
M  V30 6013 H 585.008 2.32051 2.27118 0
M  V30 6014 H 586.019 5.17847 -0.0742839 0
M  V30 6015 H 582.696 3.65858 2.01133 0
M  V30 6016 H 584.086 6.68587 -0.666394 0
M  V30 6017 N 586.806 0.0935595 1.57322 0
M  V30 6018 C 587.736 -0.863062 2.16964 0
M  V30 6019 C 588.717 -1.29528 1.10256 0
M  V30 6020 O 589.902 -1.36245 1.38387 0
M  V30 6021 C 587.032 -2.12276 2.74875 0
M  V30 6022 C 585.986 -1.82921 3.86942 0
M  V30 6023 C 585.312 -3.15707 4.31548 0
M  V30 6024 C 586.612 -1.11737 5.10208 0
M  V30 6025 H 588.306 -0.366145 2.97153 0
M  V30 6026 H 585.852 -0.174673 1.42937 0
M  V30 6027 H 587.805 -2.79634 3.1525 0
M  V30 6028 H 586.529 -2.64248 1.91938 0
M  V30 6029 H 585.188 -1.17961 3.47103 0
M  V30 6030 H 584.836 -3.65563 3.45504 0
M  V30 6031 H 584.536 -2.96849 5.07104 0
M  V30 6032 H 586.06 -3.84226 4.74555 0
M  V30 6033 H 587.474 -1.69203 5.47762 0
M  V30 6034 H 585.871 -1.03064 5.91183 0
M  V30 6035 H 586.941 -0.0998818 4.84797 0
M  V30 6036 N 588.284 -1.56567 -0.180126 0
M  V30 6037 C 589.512 -1.85618 -0.913972 0
M  V30 6038 C 589.927 -0.677892 -1.7621 0
M  V30 6039 O 589.284 0.353171 -1.7905 0
M  V30 6040 C 589.335 -3.13619 -1.79793 0
M  V30 6041 O 589.056 -4.26906 -0.98402 0
M  V30 6042 C 590.557 -3.55954 -2.64219 0
M  V30 6043 H 587.777 -0.616043 -0.265954 0
M  V30 6044 H 590.321 -2.03681 -0.182872 0
M  V30 6045 H 588.476 -2.97409 -2.48247 0
M  V30 6046 H 588.89 -4.9989 -1.58776 0
M  V30 6047 H 590.364 -4.48444 -3.21873 0
M  V30 6048 H 590.841 -2.79653 -3.38661 0
M  V30 6049 H 591.447 -3.74746 -2.01111 0
M  V30 6050 N 589.762 0.448376 -1.51087 0
M  V30 6051 C 590.712 1.54156 -1.67988 0
M  V30 6052 C 591.696 1.5178 -0.534015 0
M  V30 6053 O 592.888 1.58419 -0.789448 0
M  V30 6054 C 590.017 2.92437 -1.79822 0
M  V30 6055 C 589.103 2.99611 -3.00157 0
M  V30 6056 N 589.494 2.7655 -4.23502 0
M  V30 6057 C 587.792 3.30764 -2.99184 0
M  V30 6058 C 588.493 2.89281 -5.0467 0
M  V30 6059 N 587.469 3.20473 -4.39088 0
M  V30 6060 H 591.271 1.35061 -2.61028 0
M  V30 6061 H 588.785 0.655504 -1.48583 0
M  V30 6062 H 590.782 3.71068 -1.90037 0
M  V30 6063 H 589.442 3.1256 -0.879554 0
M  V30 6064 H 590.453 2.5169 -4.52628 0
M  V30 6065 H 587.13 3.56732 -2.16907 0
M  V30 6066 H 588.52 2.75499 -6.12821 0
M  V30 6067 N 591.24 1.41047 0.703093 0
M  V30 6068 C 592.203 1.42036 1.79884 0
M  V30 6069 C 593.203 0.312153 1.57741 0
M  V30 6070 O 594.393 0.571672 1.64553 0
M  V30 6071 C 591.525 1.22437 3.18154 0
M  V30 6072 H 592.718 2.39572 1.80403 0
M  V30 6073 H 590.271 1.27079 0.909977 0
M  V30 6074 H 591.006 0.257112 3.23279 0
M  V30 6075 H 590.791 2.02723 3.35627 0
M  V30 6076 H 592.281 1.25946 3.98155 0
M  V30 6077 N 592.718 -0.936591 1.26751 0
M  V30 6078 C 593.648 -2.05315 1.11212 0
M  V30 6079 C 594.629 -1.70092 0.0160262 0
M  V30 6080 O 595.814 -1.93279 0.188894 0
M  V30 6081 C 592.944 -3.39123 0.749171 0
M  V30 6082 C 591.898 -3.88425 1.79751 0
M  V30 6083 C 591.224 -5.18936 1.28876 0
M  V30 6084 C 592.524 -4.12798 3.19992 0
M  V30 6085 H 594.218 -2.18573 2.04613 0
M  V30 6086 H 591.764 -1.05027 0.985159 0
M  V30 6087 H 593.717 -4.16704 0.627323 0
M  V30 6088 H 592.441 -3.25855 -0.220543 0
M  V30 6089 H 591.1 -3.13028 1.90811 0
M  V30 6090 H 590.748 -5.02051 0.308757 0
M  V30 6091 H 590.448 -5.52892 1.98958 0
M  V30 6092 H 591.972 -5.99096 1.17967 0
M  V30 6093 H 593.386 -4.80977 3.11983 0
M  V30 6094 H 591.783 -4.58044 3.87705 0
M  V30 6095 H 592.853 -3.18412 3.65707 0
M  V30 6096 N 594.196 -1.08629 -1.14182 0
M  V30 6097 C 595.143 -0.718299 -2.19338 0
M  V30 6098 C 596.113 0.296587 -1.63431 0
M  V30 6099 O 597.298 0.180079 -1.89948 0
M  V30 6100 C 594.438 -0.136203 -3.44831 0
M  V30 6101 C 593.551 -1.20414 -4.14879 0
M  V30 6102 C 592.686 -0.585666 -5.27962 0
M  V30 6103 C 591.725 -1.63548 -5.89846 0
M  V30 6104 N 590.862 -1.03864 -6.94375 0
M  V30 6105 H 595.702 -1.61932 -2.50164 0
M  V30 6106 H 593.239 -0.80919 -1.22844 0
M  V30 6107 H 595.197 0.219021 -4.16625 0
M  V30 6108 H 593.827 0.728121 -3.14481 0
M  V30 6109 H 592.879 -1.67676 -3.41451 0
M  V30 6110 H 594.191 -1.99959 -4.56966 0
M  V30 6111 H 593.345 -0.178818 -6.06436 0
M  V30 6112 H 592.084 0.24142 -4.87102 0
M  V30 6113 H 591.089 -2.05197 -5.10073 0
M  V30 6114 H 592.314 -2.46509 -6.3278 0
M  V30 6115 H 590.26 -0.232687 -6.55587 0
M  V30 6116 H 590.177 -1.77116 -7.3496 0
M  V30 6117 H 591.445 -0.657724 -7.7672 0
M  V30 6118 N 595.674 1.31259 -0.872281 0
M  V30 6119 C 596.606 2.27396 -0.28697 0
M  V30 6120 C 597.619 1.53181 0.551297 0
M  V30 6121 O 598.808 1.74561 0.372914 0
M  V30 6122 C 595.908 3.33335 0.611617 0
M  V30 6123 C 595.081 4.36966 -0.194729 0
M  V30 6124 C 594.14 5.22387 0.632358 0
M  V30 6125 O 593.166 5.69169 0.0595691 0
M  V30 6126 N 594.368 5.46985 1.94391 0
M  V30 6127 H 597.133 2.78261 -1.11314 0
M  V30 6128 H 594.694 1.44306 -0.733994 0
M  V30 6129 H 596.686 3.87398 1.17068 0
M  V30 6130 H 595.256 2.82496 1.33846 0
M  V30 6131 H 594.476 3.82945 -0.935241 0
M  V30 6132 H 595.764 5.03273 -0.747935 0
M  V30 6133 H 595.162 5.10737 2.43237 0
M  V30 6134 H 593.719 6.03973 2.45071 0
M  V30 6135 N 597.152 0.631951 1.44375 0
M  V30 6136 C 598.4 0.136497 2.01639 0
M  V30 6137 C 598.721 -1.24637 1.49969 0
M  V30 6138 O 597.991 -1.82827 0.70363 0
M  V30 6139 H 596.571 0.0474703 0.74549 0
M  V30 6140 H 599.233 0.818837 1.76865 0
M  V30 6141 H 598.329 0.104817 3.11924 0
M  V30 6142 N 598.631 -1.53133 0.372548 0
M  V30 6143 C 599.541 -2.29671 -0.478379 0
M  V30 6144 C 600.557 -1.35913 -1.08644 0
M  V30 6145 O 601.733 -1.68975 -1.09588 0
M  V30 6146 C 598.798 -3.07625 -1.599 0
M  V30 6147 C 597.859 -4.17061 -1.01776 0
M  V30 6148 C 597.092 -4.91289 -2.08497 0
M  V30 6149 O 597.315 -4.65442 -3.29727 0
M  V30 6150 O 596.249 -5.7705 -1.71164 0
M  V30 6151 H 600.075 -3.03355 0.144649 0
M  V30 6152 H 597.66 -1.48773 0.136729 0
M  V30 6153 H 599.542 -3.56281 -2.25038 0
M  V30 6154 H 598.217 -2.3677 -2.2073 0
M  V30 6155 H 597.124 -3.72641 -0.330098 0
M  V30 6156 H 598.457 -4.90102 -0.453915 0
M  V30 6157 N 600.109 -0.101901 -1.5727 0
M  V30 6158 C 601.339 0.567568 -1.98651 0
M  V30 6159 C 601.747 1.61839 -0.980037 0
M  V30 6160 O 601.09 1.83661 0.0376564 0
M  V30 6161 C 601.152 1.26742 -3.36417 0
M  V30 6162 C 600.816 0.366561 -4.55528 0
M  V30 6163 C 601.813 -0.388022 -5.1845 0
M  V30 6164 C 599.498 0.282629 -5.01504 0
M  V30 6165 C 601.492 -1.21445 -6.25724 0
M  V30 6166 C 599.179 -0.547443 -6.08643 0
M  V30 6167 C 600.177 -1.29462 -6.70618 0
M  V30 6168 O 599.865 -2.11095 -7.7569 0
M  V30 6169 H 599.597 0.156282 -0.657687 0
M  V30 6170 H 602.151 -0.179912 -2.04611 0
M  V30 6171 H 600.381 2.06162 -3.27161 0
M  V30 6172 H 602.07 1.8321 -3.622 0
M  V30 6173 H 602.836 -0.332949 -4.83856 0
M  V30 6174 H 598.715 0.853868 -4.53023 0
M  V30 6175 H 602.259 -1.79814 -6.74027 0
M  V30 6176 H 598.156 -0.603971 -6.42668 0
M  V30 6177 H 598.924 -2.03851 -7.92709 0
M  V30 6178 N 601.587 1.56661 0.17182 0
M  V30 6179 C 602.835 1.81606 0.886774 0
M  V30 6180 C 603.156 0.678818 1.82803 0
M  V30 6181 O 602.426 -0.301354 1.93568 0
M  V30 6182 H 601.006 0.669934 0.330451 0
M  V30 6183 H 603.668 1.94142 0.171757 0
M  V30 6184 H 602.764 2.75634 1.46398 0
M  V30 6185 N 603.065 -0.440357 1.51323 0
M  V30 6186 C 603.995 -1.54174 1.75364 0
M  V30 6187 C 604.976 -1.59039 0.603375 0
M  V30 6188 O 606.161 -1.74815 0.845774 0
M  V30 6189 C 603.291 -2.92277 1.87593 0
M  V30 6190 C 602.245 -3.02274 3.03009 0
M  V30 6191 C 601.571 -4.42327 3.00418 0
M  V30 6192 C 602.871 -2.76634 4.43024 0
M  V30 6193 H 604.565 -1.34307 2.67585 0
M  V30 6194 H 602.111 -0.644678 1.28763 0
M  V30 6195 H 604.064 -3.69284 2.02995 0
M  V30 6196 H 602.788 -3.13369 0.920179 0
M  V30 6197 H 601.447 -2.27706 2.87307 0
M  V30 6198 H 601.095 -4.60382 2.02626 0
M  V30 6199 H 600.795 -4.49946 3.77918 0
M  V30 6200 H 602.319 -5.21312 3.17909 0
M  V30 6201 H 603.733 -3.43376 4.59093 0
M  V30 6202 H 602.13 -2.95666 5.22208 0
M  V30 6203 H 603.2 -1.72262 4.5327 0
M  V30 6204 N 604.543 -1.41418 -0.695603 0
M  V30 6205 C 605.506 -1.42988 -1.79129 0
M  V30 6206 C 606.506 -0.320514 -1.57573 0
M  V30 6207 O 607.696 -0.58039 -1.64247 0
M  V30 6208 C 604.828 -1.24122 -3.175 0
M  V30 6209 H 606.021 -2.40526 -1.7913 0
M  V30 6210 H 603.574 -1.2756 -0.903225 0
M  V30 6211 H 604.309 -0.274253 -3.23138 0
M  V30 6212 H 604.094 -2.045 -3.34547 0
M  V30 6213 H 605.584 -1.28056 -3.97481 0
M  V30 6214 N 606.021 0.929856 -1.27246 0
M  V30 6215 C 607.246 1.71674 -1.16374 0
M  V30 6216 C 607.671 1.86064 0.276024 0
M  V30 6217 O 607.029 1.3591 1.19992 0
M  V30 6218 C 607.077 3.09526 -1.85003 0
M  V30 6219 O 606.181 3.96142 -1.14653 0
M  V30 6220 H 605.522 0.52629 -0.404863 0
M  V30 6221 H 608.052 1.16381 -1.68276 0
M  V30 6222 H 608.062 3.59852 -1.92276 0
M  V30 6223 H 606.737 2.98369 -2.89739 0
M  V30 6224 H 605.314 3.54584 -1.15433 0
M  V30 6225 N 607.499 1.09233 1.13605 0
M  V30 6226 C 608.748 0.82205 1.84188 0
M  V30 6227 C 609.061 -0.654548 1.84323 0
M  V30 6228 O 610.267 -1.04029 2.50779 0
M  V30 6229 C 608.723 1.42066 3.30674 0
M  V30 6230 C 608.331 2.92965 3.38933 0
M  V30 6231 C 610.075 1.22924 4.06313 0
M  V30 6232 C 607.982 3.45922 4.79679 0
M  V30 6233 H 606.912 0.303854 0.690064 0
M  V30 6234 H 609.563 1.31479 1.28006 0
M  V30 6235 H 607.945 0.855613 3.86646 0
M  V30 6236 H 609.119 3.55679 2.92966 0
M  V30 6237 H 607.434 3.11118 2.76757 0
M  V30 6238 H 610.031 1.59945 5.10217 0
M  V30 6239 H 610.374 0.169726 4.15954 0
M  V30 6240 H 610.907 1.76168 3.56665 0
M  V30 6241 H 607.646 4.51484 4.75229 0
M  V30 6242 H 607.166 2.87971 5.26149 0
M  V30 6243 H 608.845 3.43009 5.48592 0
M  V30 6244 N 608.977 -1.30795 0.87923 0
M  V30 6245 C 610.217 -1.98155 0.50141 0
M  V30 6246 C 610.581 -1.67925 -0.930863 0
M  V30 6247 O 611.782 -2.28572 -1.41451 0
M  V30 6248 C 610.053 -3.49184 0.761937 0
M  V30 6249 S 611.612 -4.36107 0.485361 0
M  V30 6250 H 608.43 -0.686025 0.186792 0
M  V30 6251 H 611.032 -1.59018 1.13726 0
M  V30 6252 H 609.736 -3.68676 1.80295 0
M  V30 6253 H 609.267 -3.93236 0.113432 0
M  V30 6254 H 611.282 -4.9154 -0.678467 0
M  V30 6255 N 610.455 -0.639598 -1.44038 0
M  V30 6256 C 611.403 0.0723409 -2.32487 0
M  V30 6257 C 612.397 0.827129 -1.47834 0
M  V30 6258 O 613.603 0.73907 -1.64127 0
M  V30 6259 H 609.978 0.0421696 -0.750817 0
M  V30 6260 H 611.949 -0.691593 -2.90275 0
M  V30 6261 C 610.698 1.03452 -3.31953 0
M  V30 6262 H 610.021 0.46315 -3.97108 0
M  V30 6263 H 611.461 1.502 -3.96505 0
M  V30 6264 C 609.92 2.12392 -2.61518 0
M  V30 6265 O 610.45 3.2059 -2.42044 0
M  V30 6266 N 608.656 1.88563 -2.21116 0
M  V30 6267 H 608.203 1.00577 -2.37154 0
M  V30 6268 H 608.161 2.61651 -1.74316 0
M  V30 6269 N 611.933 1.52934 -0.380664 0
M  V30 6270 C 613.181 2.01069 0.203874 0
M  V30 6271 C 613.502 1.26922 1.4804 0
M  V30 6272 O 612.772 0.386787 1.92044 0
M  V30 6273 H 611.352 0.742882 0.0783279 0
M  V30 6274 H 614.014 1.88099 -0.510368 0
M  V30 6275 H 613.11 3.09258 0.42021 0
M  V30 6276 N 613.412 0.11024 1.57214 0
M  V30 6277 C 614.66 -0.548783 1.94506 0
M  V30 6278 C 614.981 -1.67772 0.99386 0
M  V30 6279 O 614.251 -1.9584 0.0485841 0
M  V30 6280 H 612.831 -0.205715 0.718116 0
M  V30 6281 H 615.493 0.177127 1.94093 0
M  V30 6282 H 614.589 -0.949096 2.97319 0
M  V30 6283 N 614.89 -1.56749 -0.16351 0
M  V30 6284 C 616.138 -1.82074 -0.87713 0
M  V30 6285 C 616.459 -0.688503 -1.82441 0
M  V30 6286 O 615.729 0.291085 -1.93725 0
M  V30 6287 H 614.309 -0.671677 -0.326893 0
M  V30 6288 H 616.971 -1.9423 -0.161459 0
M  V30 6289 H 616.067 -2.76407 -1.44934 0
M  V30 6290 N 616.368 0.432326 -1.51554 0
M  V30 6291 C 617.616 1.17901 -1.64146 0
M  V30 6292 C 617.937 1.91604 -0.362367 0
M  V30 6293 O 617.207 1.85764 0.621968 0
M  V30 6294 H 615.787 0.438206 -0.604966 0
M  V30 6295 H 618.449 0.495172 -1.88505 0
M  V30 6296 H 617.545 1.90584 -2.47152 0
M  V30 6297 N 617.846 1.41785 0.688094 0
M  V30 6298 C 618.809 1.43936 1.78368 0
M  V30 6299 C 619.809 0.328866 1.57401 0
M  V30 6300 O 620.999 0.589093 1.63937 0
M  V30 6301 C 618.131 1.25804 3.16838 0
M  V30 6302 H 619.324 2.41472 1.77852 0
M  V30 6303 H 616.877 1.28037 0.896448 0
M  V30 6304 H 617.612 0.291386 3.22988 0
M  V30 6305 H 617.397 2.06272 3.33458 0
M  V30 6306 H 618.887 1.30162 3.96797 0
M  V30 6307 N 619.324 -0.923095 1.27737 0
M  V30 6308 C 620.549 -1.71054 1.17283 0
M  V30 6309 C 620.974 -1.86208 -0.266153 0
M  V30 6310 O 620.332 -1.36545 -1.1927 0
M  V30 6311 C 620.38 -3.0854 1.86642 0
M  V30 6312 O 619.484 -3.95528 1.16752 0
M  V30 6313 H 618.825 -0.524136 0.407649 0
M  V30 6314 H 621.355 -1.15487 1.6889 0
M  V30 6315 H 621.365 -3.58828 1.94182 0
M  V30 6316 H 620.04 -2.96828 2.91317 0
M  V30 6317 H 618.617 -3.53967 1.17312 0
M  V30 6318 N 620.802 -1.09834 -1.13024 0
M  V30 6319 C 621.765 -0.745058 -2.16752 0
M  V30 6320 C 622.765 0.227435 -1.59183 0
M  V30 6321 O 623.955 0.0050786 -1.74199 0
M  V30 6322 C 621.087 -0.102543 -3.40746 0
M  V30 6323 H 622.28 -1.66375 -2.49518 0
M  V30 6324 H 619.833 -0.898061 -1.27924 0
M  V30 6325 H 620.568 0.827177 -3.13573 0
M  V30 6326 H 620.353 -0.80235 -3.83803 0
M  V30 6327 H 621.843 0.129082 -4.174 0
M  V30 6328 N 622.28 1.30327 -0.886154 0
M  V30 6329 C 623.213 2.26241 -0.298407 0
M  V30 6330 C 624.191 1.51839 0.581704 0
M  V30 6331 O 625.375 1.80851 0.531536 0
M  V30 6332 C 622.502 3.33768 0.575888 0
M  V30 6333 C 621.548 4.25852 -0.235057 0
M  V30 6334 S 622.381 5.10277 -1.62411 0
M  V30 6335 C 623.537 6.21313 -0.756368 0
M  V30 6336 H 623.77 2.75744 -1.11141 0
M  V30 6337 H 621.303 1.38341 -0.685651 0
M  V30 6338 H 623.261 3.96186 1.07458 0
M  V30 6339 H 621.922 2.82986 1.363 0
M  V30 6340 H 621.115 5.02143 0.432198 0
M  V30 6341 H 620.717 3.68015 -0.666409 0
M  V30 6342 H 623.009 6.77495 0.0261451 0
M  V30 6343 H 623.952 6.92226 -1.49093 0
M  V30 6344 H 624.36 5.63611 -0.316749 0
M  V30 6345 N 623.758 0.647228 1.43697 0
M  V30 6346 C 624.688 -0.0345631 2.33474 0
M  V30 6347 C 625.669 -0.818193 1.4913 0
M  V30 6348 O 626.854 -0.780867 1.77809 0
M  V30 6349 C 623.984 -1.00576 3.32418 0
M  V30 6350 C 622.938 -0.33266 4.26705 0
M  V30 6351 C 622.264 -1.41489 5.1564 0
M  V30 6352 C 623.564 0.771204 5.16575 0
M  V30 6353 H 625.258 0.715163 2.90733 0
M  V30 6354 H 622.804 0.345364 1.39797 0
M  V30 6355 H 624.757 -1.49159 3.94119 0
M  V30 6356 H 623.481 -1.78657 2.73403 0
M  V30 6357 H 622.14 0.13267 3.6636 0
M  V30 6358 H 621.788 -2.18698 4.52968 0
M  V30 6359 H 621.488 -0.969799 5.79542 0
M  V30 6360 H 623.012 -1.9022 5.80214 0
M  V30 6361 H 624.426 0.36779 5.72119 0
M  V30 6362 H 622.823 1.1404 5.89165 0
M  V30 6363 H 623.893 1.63169 4.56622 0
M  V30 6364 N 625.236 -1.5273 0.388769 0
M  V30 6365 C 626.485 -2.00757 -0.194833 0
M  V30 6366 C 626.798 -1.27951 -1.47946 0
M  V30 6367 O 628.004 -1.66686 -2.14308 0
M  V30 6368 C 626.46 -3.57695 -0.397762 0
M  V30 6369 C 626.068 -4.394 0.873583 0
M  V30 6370 C 627.812 -4.14012 -0.937759 0
M  V30 6371 C 625.719 -5.87938 0.638962 0
M  V30 6372 H 624.649 -0.750101 -0.0765845 0
M  V30 6373 H 627.3 -1.76239 0.511086 0
M  V30 6374 H 625.682 -3.7846 -1.16552 0
M  V30 6375 H 626.856 -4.30403 1.64591 0
M  V30 6376 H 625.171 -3.94301 1.33849 0
M  V30 6377 H 627.768 -5.22645 -1.12899 0
M  V30 6378 H 628.111 -3.7007 -1.90666 0
M  V30 6379 H 628.644 -3.97137 -0.229588 0
M  V30 6380 H 625.383 -6.36202 1.57885 0
M  V30 6381 H 624.903 -5.99726 -0.094443 0
M  V30 6382 H 626.582 -6.46423 0.273299 0
M  V30 6383 N 626.714 -0.118576 -1.57153 0
M  V30 6384 C 627.646 0.862247 -2.12363 0
M  V30 6385 C 628.659 1.23025 -1.06625 0
M  V30 6386 O 629.848 1.17927 -1.33998 0
M  V30 6387 C 626.948 2.16425 -2.60794 0
M  V30 6388 C 626.121 1.96801 -3.90626 0
M  V30 6389 C 625.18 3.10726 -4.2466 0
M  V30 6390 O 624.206 2.83659 -4.93484 0
M  V30 6391 N 625.408 4.37147 -3.81946 0
M  V30 6392 H 628.173 0.390564 -2.97144 0
M  V30 6393 H 625.734 0.0658591 -1.61766 0
M  V30 6394 H 627.726 2.91633 -2.80593 0
M  V30 6395 H 626.296 2.54943 -1.80895 0
M  V30 6396 H 625.516 1.05787 -3.7974 0
M  V30 6397 H 626.804 1.80993 -4.7552 0
M  V30 6398 H 626.202 4.62014 -3.26435 0
M  V30 6399 H 624.759 5.09229 -4.06853 0
M  V30 6400 N 628.193 1.56834 0.155195 0
M  V30 6401 C 629.14 1.97646 1.19184 0
M  V30 6402 C 630.11 0.842788 1.4313 0
M  V30 6403 O 631.295 1.1042 1.55602 0
M  V30 6404 C 628.435 2.35527 2.52232 0
M  V30 6405 C 627.548 3.62147 2.35529 0
M  V30 6406 C 626.683 3.89167 3.61555 0
M  V30 6407 C 625.722 5.09084 3.39853 0
M  V30 6408 N 624.859 5.32156 4.5799 0
M  V30 6409 H 629.699 2.8601 0.836802 0
M  V30 6410 H 627.236 1.41507 0.401758 0
M  V30 6411 H 629.194 2.55516 3.29799 0
M  V30 6412 H 627.824 1.50253 2.85699 0
M  V30 6413 H 626.876 3.4998 1.49057 0
M  V30 6414 H 628.188 4.49871 2.15448 0
M  V30 6415 H 627.342 4.09611 4.47553 0
M  V30 6416 H 626.081 2.9985 3.84632 0
M  V30 6417 H 625.086 4.88522 2.52243 0
M  V30 6418 H 626.311 5.99947 3.18183 0
M  V30 6419 H 624.257 4.45791 4.81255 0
M  V30 6420 H 624.174 6.14133 4.40882 0
M  V30 6421 H 625.442 5.57091 5.45225 0
M  V30 6422 N 629.671 -0.424282 1.51781 0
M  V30 6423 C 630.601 -1.52305 1.7699 0
M  V30 6424 C 631.582 -1.5839 0.620209 0
M  V30 6425 O 632.767 -1.73908 0.864268 0
M  V30 6426 C 629.897 -2.90271 1.90683 0
M  V30 6427 C 628.851 -2.99043 3.06198 0
M  V30 6428 C 628.177 -4.39116 3.05092 0
M  V30 6429 C 629.477 -2.7192 4.45934 0
M  V30 6430 H 631.171 -1.31461 2.68995 0
M  V30 6431 H 628.717 -0.630985 1.29439 0
M  V30 6432 H 630.67 -3.6711 2.06901 0
M  V30 6433 H 629.394 -3.12376 0.953365 0
M  V30 6434 H 628.053 -2.24646 2.89706 0
M  V30 6435 H 627.701 -4.58207 2.07498 0
M  V30 6436 H 627.401 -4.45912 3.82669 0
M  V30 6437 H 628.925 -5.17911 3.2342 0
M  V30 6438 H 630.339 -3.38487 4.62709 0
M  V30 6439 H 628.736 -2.90111 5.25315 0
M  V30 6440 H 629.806 -1.67445 4.55072 0
M  V30 6441 O 631.188 -1.51103 -0.570103 0
M  V30 6442 H 631.879 -1.50032 -1.22516 0
M  V30 END ATOM
M  V30 BEGIN BOND
M  V30 END BOND
M  V30 END CTAB
M  END
$$$$
