drugbank_target|Q8DNB6 Penicillin-binding protein 2a (DB00319; DB00415; DB00456; DB00485; DB00493; DB00567; DB00607; DB00713; DB00739; DB01147; DB01163; DB01331; DB01603; DB03313; DB08795)
 OpenBabel12092120573D

  0  0  0     0  0            999 V3000
M  V30 BEGIN CTAB
M  V30 COUNTS 11290 11391 0 0 0
M  V30 BEGIN ATOM
M  V30 1 H -0.908 1.98254 -0.117106 0
M  V30 2 N 0 1.576 0 0
M  V30 3 C 0.933 2.03868 1.02534 0
M  V30 4 C 1.911 0.928543 1.3348 0
M  V30 5 O 3.095 1.19667 1.45644 0
M  V30 6 C 0.222 2.43627 2.35294 0
M  V30 7 C -0.732 3.65373 2.2001 0
M  V30 8 S 0.101 5.13292 1.52614 0
M  V30 9 C 1.257 5.56322 2.86805 0
M  V30 10 H 1.49 2.90518 0.631377 0
M  V30 11 H -0.977 1.52953 0.210867 0
M  V30 12 H 0.981 2.67203 3.11629 0
M  V30 13 H -0.358 1.57376 2.7183 0
M  V30 14 H -1.165 3.90944 3.18086 0
M  V30 15 H -1.563 3.418 1.51819 0
M  V30 16 H 0.729 5.58782 3.83104 0
M  V30 17 H 1.672 6.56266 2.65933 0
M  V30 18 H 2.08 4.83886 2.90714 0
M  V30 19 N 1.4781 -0.272755 1.55222 0
M  V30 20 C 2.4251 -1.33716 1.88119 0
M  V30 21 C 3.3951 -1.49066 0.73271 0
M  V30 22 O 4.5801 -1.63469 0.984002 0
M  V30 23 C 1.7201 -2.69238 2.15882 0
M  V30 24 C 0.8331 -2.62108 3.43399 0
M  V30 25 C -0.0319 -3.89811 3.60861 0
M  V30 26 C -0.9929 -3.77193 4.8207 0
M  V30 27 N -1.8559 -4.9673 4.96189 0
M  V30 28 H 2.9841 -1.04962 2.78903 0
M  V30 29 H 0.5211 -0.507088 1.38083 0
M  V30 30 H 2.4791 -3.48089 2.29978 0
M  V30 31 H 1.1091 -2.96194 1.28331 0
M  V30 32 H 0.1611 -1.74967 3.37773 0
M  V30 33 H 1.4731 -2.48685 4.32386 0
M  V30 34 H 0.6271 -4.77103 3.74777 0
M  V30 35 H -0.6339 -4.06102 2.7006 0
M  V30 36 H -1.6289 -2.88284 4.68159 0
M  V30 37 H -0.4039 -3.62421 5.74307 0
M  V30 38 H -2.4579 -5.13431 4.08319 0
M  V30 39 H -2.5409 -4.85839 5.79221 0
M  V30 40 H -1.2729 -5.85594 5.1449 0
M  V30 41 N 2.9562 -1.48159 -0.537278 0
M  V30 42 C 3.8862 -1.65029 -1.6519 0
M  V30 43 C 4.8672 -0.499281 -1.62607 0
M  V30 44 O 6.0522 -0.730972 -1.79918 0
M  V30 45 C 3.1822 -1.68303 -3.03795 0
M  V30 46 C 2.1362 -2.8283 -3.21234 0
M  V30 47 C 1.4622 -2.71189 -4.60826 0
M  V30 48 C 2.7622 -4.24211 -3.04701 0
M  V30 49 H 4.4562 -2.58341 -1.51328 0
M  V30 50 H 2.0022 -1.24325 -0.726585 0
M  V30 51 H 3.9552 -1.78693 -3.81637 0
M  V30 52 H 2.6792 -0.715635 -3.18663 0
M  V30 53 H 1.3382 -2.71983 -2.45807 0
M  V30 54 H 0.9862 -1.72435 -4.7252 0
M  V30 55 H 0.6862 -3.48035 -4.7344 0
M  V30 56 H 2.2102 -2.83537 -5.40777 0
M  V30 57 H 3.6242 -4.3593 -3.72341 0
M  V30 58 H 2.0212 -5.01998 -3.28813 0
M  V30 59 H 3.0912 -4.41184 -2.01209 0
M  V30 60 N 4.4343 0.785586 -1.36625 0
M  V30 61 C 5.7113 1.53198 -1.21613 0
M  V30 62 C 6.0913 2.10187 0.196113 0
M  V30 63 O 5.4393 1.94318 1.20219 0
M  V30 64 C 5.6493 2.62388 -2.30116 0
M  V30 65 C 6.9973 3.30167 -2.66974 0
M  V30 66 O 8.0213 2.72674 -2.29188 0
M  V30 67 O 6.8803 4.34077 -3.32023 0
M  V30 68 H 3.9743 0.677865 -0.473738 0
M  V30 69 H 6.5203 0.823739 -1.48367 0
M  V30 70 H 5.2923 2.18299 -3.24748 0
M  V30 71 H 4.9153 3.40827 -2.0475 0
M  V30 72 N 5.9124 1.20967 1.01018 0
M  V30 73 C 6.8594 0.964281 2.09691 0
M  V30 74 C 7.8294 -0.107853 1.65749 0
M  V30 75 O 9.0144 0.0381987 1.90762 0
M  V30 76 C 6.1544 0.52943 3.41015 0
M  V30 77 C 5.2674 1.67043 3.98398 0
M  V30 78 C 4.4024 1.18525 5.17808 0
M  V30 79 C 3.4414 2.29892 5.67288 0
M  V30 80 N 2.5784 1.82546 6.77954 0
M  V30 81 H 7.4184 1.89463 2.30017 0
M  V30 82 H 4.9554 0.944289 1.1279 0
M  V30 83 H 6.9134 0.258588 4.16398 0
M  V30 84 H 5.5434 -0.363919 3.20742 0
M  V30 85 H 4.5954 2.05603 3.20049 0
M  V30 86 H 5.9074 2.50877 4.31117 0
M  V30 87 H 5.0614 0.870762 6.00419 0
M  V30 88 H 3.8004 0.316887 4.86669 0
M  V30 89 H 2.8054 2.6215 4.83278 0
M  V30 90 H 4.0304 3.17216 6.00459 0
M  V30 91 H 1.9764 0.980454 6.48632 0
M  V30 92 H 1.8934 2.59956 7.09901 0
M  V30 93 H 3.1614 1.54115 7.64113 0
M  V30 94 N 7.3905 -1.2043 1.01659 0
M  V30 95 C 8.3205 -2.25466 0.607226 0
M  V30 96 C 9.3015 -1.65853 -0.377716 0
M  V30 97 O 10.4865 -1.92409 -0.263149 0
M  V30 98 C 7.6165 -3.47256 -0.0552949 0
M  V30 99 C 6.5705 -4.19462 0.850632 0
M  V30 100 C 5.8965 -5.34673 0.0538859 0
M  V30 101 C 7.1965 -4.75603 2.15868 0
M  V30 102 H 8.8905 -2.59962 1.48526 0
M  V30 103 H 6.4365 -1.2496 0.715605 0
M  V30 104 H 8.3895 -4.19917 -0.353233 0
M  V30 105 H 7.1135 -3.11924 -0.968045 0
M  V30 106 H 5.7725 -3.48667 1.13257 0
M  V30 107 H 5.4205 -4.95585 -0.860514 0
M  V30 108 H 5.1205 -5.83913 0.657192 0
M  V30 109 H 6.6445 -6.10138 -0.237598 0
M  V30 110 H 8.0585 -5.40083 1.92311 0
M  V30 111 H 6.4555 -5.3528 2.71284 0
M  V30 112 H 7.5255 -3.94346 2.82169 0
M  V30 113 N 8.8686 -0.792821 -1.36206 0
M  V30 114 C 10.1156 -0.366786 -1.99151 0
M  V30 115 C 10.4436 1.06243 -1.62919 0
M  V30 116 O 9.6986 1.74927 -0.877442 0
M  V30 117 C 9.9976 -0.481501 -3.54142 0
M  V30 118 C 9.6636 -1.87202 -4.10203 0
M  V30 119 C 8.3256 -2.25248 -4.25226 0
M  V30 120 C 10.6776 -2.78237 -4.40719 0
M  V30 121 C 8.0056 -3.53723 -4.68078 0
M  V30 122 C 10.3576 -4.06144 -4.85005 0
M  V30 123 C 9.0216 -4.44207 -4.98234 0
M  V30 124 H 8.2916 -0.134217 -0.728743 0
M  V30 125 H 10.9386 -1.01094 -1.62641 0
M  V30 126 H 9.2436 0.246146 -3.91026 0
M  V30 127 H 10.9406 -0.132844 -4.0078 0
M  V30 128 H 7.5306 -1.56639 -3.98951 0
M  V30 129 H 11.7146 -2.50097 -4.28679 0
M  V30 130 H 6.9706 -3.8308 -4.76508 0
M  V30 131 H 11.1446 -4.76796 -5.07581 0
M  V30 132 H 8.7716 -5.43814 -5.31197 0
M  V30 133 N 10.3467 1.47872 -0.545128 0
M  V30 134 C 11.2567 2.33633 0.212746 0
M  V30 135 C 12.2727 1.4744 0.923983 0
M  V30 136 O 13.4487 1.80393 0.895572 0
M  V30 137 C 10.5137 3.23884 1.23693 0
M  V30 138 C 9.5747 4.25961 0.534417 0
M  V30 139 C 8.8077 5.11899 1.5098 0
M  V30 140 O 9.0307 5.00077 2.7437 0
M  V30 141 O 7.9647 5.92831 1.0409 0
M  V30 142 H 11.7907 2.99714 -0.490416 0
M  V30 143 H 9.3757 1.46235 -0.305871 0
M  V30 144 H 11.2577 3.79666 1.82843 0
M  V30 145 H 9.9327 2.60446 1.92222 0
M  V30 146 H 8.8397 3.73972 -0.0979679 0
M  V30 147 H 10.1727 4.92079 -0.109213 0
M  V30 148 N 11.8248 0.280983 1.55075 0
M  V30 149 C 12.7718 -0.603937 2.22758 0
M  V30 150 C 13.7418 -1.1452 1.20309 0
M  V30 151 O 14.9268 -1.19343 1.48869 0
M  V30 152 C 12.0668 -1.77947 2.95684 0
M  V30 153 C 11.1798 -1.2715 4.12864 0
M  V30 154 C 10.3148 -2.4093 4.7342 0
M  V30 155 C 9.3538 -1.87165 5.82783 0
M  V30 156 N 8.4908 -2.94441 6.37377 0
M  V30 157 H 13.3308 -0.020124 2.97993 0
M  V30 158 H 10.8678 0.00183425 1.471 0
M  V30 159 H 12.8258 -2.47055 3.36184 0
M  V30 160 H 11.4558 -2.33522 2.22861 0
M  V30 161 H 10.5078 -0.473331 3.77444 0
M  V30 162 H 11.8198 -0.837751 4.91715 0
M  V30 163 H 10.9738 -3.18021 5.1667 0
M  V30 164 H 9.7128 -2.87623 3.93859 0
M  V30 165 H 8.7178 -1.08556 5.38976 0
M  V30 166 H 9.9428 -1.41401 6.64216 0
M  V30 167 H 7.8888 -3.40505 5.60707 0
M  V30 168 H 7.8058 -2.55501 7.11516 0
M  V30 169 H 9.0738 -3.71489 6.85285 0
M  V30 170 N 13.3029 -1.57598 0.00835791 0
M  V30 171 C 14.5499 -1.90928 -0.674732 0
M  V30 172 C 14.8779 -0.88277 -1.73313 0
M  V30 173 O 14.1329 0.111294 -1.95383 0
M  V30 174 C 14.4319 -3.3101 -1.34787 0
M  V30 175 C 14.0979 -4.48922 -0.421861 0
M  V30 176 C 12.7599 -4.8091 -0.166927 0
M  V30 177 C 15.1119 -5.20755 0.215211 0
M  V30 178 C 12.4399 -5.821 0.733232 0
M  V30 179 C 14.7919 -6.22905 1.1033 0
M  V30 180 C 13.4559 -6.53346 1.36733 0
M  V30 181 H 12.7259 -0.698656 -0.246902 0
M  V30 182 H 15.3729 -1.91387 0.0656779 0
M  V30 183 H 13.6779 -3.26714 -2.16253 0
M  V30 184 H 15.3749 -3.54061 -1.8826 0
M  V30 185 H 11.9649 -4.23934 -0.630729 0
M  V30 186 H 16.1489 -4.9629 0.0312829 0
M  V30 187 H 11.4049 -6.04042 0.945712 0
M  V30 188 H 15.5789 -6.77694 1.60325 0
M  V30 189 H 13.2059 -7.31573 2.06652 0
M  V30 190 N 14.781 0.264519 -1.55364 0
M  V30 191 C 15.711 1.33121 -1.91836 0
M  V30 192 C 16.692 1.51101 -0.781192 0
M  V30 193 O 17.877 1.64003 -1.04003 0
M  V30 194 C 15.007 2.68921 -2.19769 0
M  V30 195 C 13.961 2.65661 -3.35571 0
M  V30 196 C 13.287 4.05093 -3.49004 0
M  V30 197 C 14.587 2.24187 -4.71739 0
M  V30 198 H 16.281 1.02844 -2.81182 0
M  V30 199 H 13.827 0.493286 -1.35287 0
M  V30 200 H 15.78 3.43663 -2.43872 0
M  V30 201 H 14.504 3.00799 -1.27231 0
M  V30 202 H 13.163 1.93377 -3.1145 0
M  V30 203 H 12.811 4.34206 -2.53917 0
M  V30 204 H 12.511 4.03804 -4.26868 0
M  V30 205 H 14.035 4.81561 -3.75408 0
M  V30 206 H 15.449 2.88654 -4.9533 0
M  V30 207 H 13.846 2.34044 -5.52579 0
M  V30 208 H 14.916 1.19327 -4.69988 0
M  V30 209 N 16.2591 1.48442 0.529413 0
M  V30 210 C 17.4841 1.60406 1.31471 0
M  V30 211 C 17.9091 0.264738 1.86228 0
M  V30 212 O 17.2671 -0.763668 1.64432 0
M  V30 213 C 17.3151 2.65419 2.44101 0
M  V30 214 O 16.4191 2.22618 3.47153 0
M  V30 215 H 15.7601 0.537863 0.389357 0
M  V30 216 H 18.2901 1.94432 0.636965 0
M  V30 217 H 18.3001 2.86709 2.90279 0
M  V30 218 H 16.9751 3.62652 2.03608 0
M  V30 219 H 15.5521 2.11543 3.0709 0
M  V30 220 N 17.7372 -0.778329 1.37039 0
M  V30 221 C 18.6672 -1.90546 1.34962 0
M  V30 222 C 19.6482 -1.68681 0.219274 0
M  V30 223 O 20.8332 -1.89634 0.418624 0
M  V30 224 C 17.9632 -3.27734 1.14925 0
M  V30 225 C 16.9172 -3.64147 2.24902 0
M  V30 226 C 16.2432 -4.99806 1.89996 0
M  V30 227 C 17.5432 -3.71579 3.67051 0
M  V30 228 H 19.2372 -1.92541 2.29277 0
M  V30 229 H 16.7832 -0.924948 1.10366 0
M  V30 230 H 18.7362 -4.06215 1.12104 0
M  V30 231 H 17.4602 -3.26154 0.170631 0
M  V30 232 H 16.1192 -2.8797 2.26868 0
M  V30 233 H 15.7672 -4.94759 0.906796 0
M  V30 234 H 15.4672 -5.25139 2.63634 0
M  V30 235 H 16.9912 -5.80694 1.88749 0
M  V30 236 H 18.4052 -4.40227 3.67251 0
M  V30 237 H 16.8022 -4.08405 4.39688 0
M  V30 238 H 17.8722 -2.72404 4.01154 0
M  V30 239 N 19.2153 -1.21501 -1.00376 0
M  V30 240 C 20.4623 -1.03299 -1.74171 0
M  V30 241 C 20.7903 0.433326 -1.89612 0
M  V30 242 O 20.0453 1.33779 -1.42834 0
M  V30 243 C 20.3443 -1.67673 -3.15627 0
M  V30 244 C 20.0103 -3.17533 -3.2013 0
M  V30 245 C 18.6723 -3.58427 -3.21067 0
M  V30 246 C 21.0243 -4.13504 -3.17275 0
M  V30 247 C 18.3523 -4.93794 -3.16835 0
M  V30 248 C 20.7043 -5.48834 -3.14585 0
M  V30 249 C 19.3683 -5.89123 -3.13831 0
M  V30 250 H 18.6383 -0.377999 -0.637336 0
M  V30 251 H 21.2853 -1.51111 -1.17634 0
M  V30 252 H 19.5903 -1.12158 -3.75404 0
M  V30 253 H 21.2873 -1.51091 -3.71446 0
M  V30 254 H 17.8773 -2.84965 -3.20145 0
M  V30 255 H 22.0613 -3.82936 -3.15711 0
M  V30 256 H 17.3173 -5.24255 -3.1459 0
M  V30 257 H 21.4913 -6.22934 -3.1133 0
M  V30 258 H 19.1183 -6.93984 -3.10307 0
M  V30 259 N 20.6934 1.19889 -1.02296 0
M  V30 260 C 21.6404 2.22901 -0.598651 0
M  V30 261 C 22.6104 1.61588 0.384521 0
M  V30 262 O 23.7954 1.88697 0.282522 0
M  V30 263 C 20.9354 3.45063 0.0504476 0
M  V30 264 C 20.0484 4.20783 -0.978053 0
M  V30 265 C 19.1834 5.30356 -0.299338 0
M  V30 266 C 18.2224 5.97826 -1.31416 0
M  V30 267 N 17.3594 6.98975 -0.661667 0
M  V30 268 H 22.1994 2.58554 -1.48169 0
M  V30 269 H 19.7364 1.27039 -0.741584 0
M  V30 270 H 21.6944 4.14831 0.443971 0
M  V30 271 H 20.3244 3.10084 0.897097 0
M  V30 272 H 19.3764 3.50018 -1.48969 0
M  V30 273 H 20.6884 4.67109 -1.74958 0
M  V30 274 H 19.8424 6.06516 0.149347 0
M  V30 275 H 18.5814 4.85084 0.504445 0
M  V30 276 H 17.5864 5.20422 -1.77317 0
M  V30 277 H 18.8114 6.45183 -2.11933 0
M  V30 278 H 16.7574 6.55886 0.122132 0
M  V30 279 H 16.6744 7.43461 -1.37117 0
M  V30 280 H 17.9424 7.7914 -0.236785 0
M  V30 281 N 22.1715 0.800033 1.35784 0
M  V30 282 C 23.1185 0.203848 2.29898 0
M  V30 283 C 24.0885 -0.658375 1.52495 0
M  V30 284 O 25.2735 -0.604832 1.8096 0
M  V30 285 C 22.4135 -0.64688 3.38983 0
M  V30 286 C 21.5265 0.235054 4.3136 0
M  V30 287 C 20.6615 -0.623054 5.27533 0
M  V30 288 C 19.7005 0.259682 6.11549 0
M  V30 289 N 18.8375 -0.558019 6.99879 0
M  V30 290 H 23.6775 1.01186 2.80295 0
M  V30 291 H 21.2145 0.51053 1.37957 0
M  V30 292 H 23.1725 -1.15521 4.00887 0
M  V30 293 H 21.8025 -1.42021 2.89879 0
M  V30 294 H 20.8545 0.861438 3.70518 0
M  V30 295 H 22.1665 0.914768 4.9034 0
M  V30 296 H 21.3205 -1.19678 5.94779 0
M  V30 297 H 20.0595 -1.33636 4.69034 0
M  V30 298 H 19.0645 0.845726 5.43256 0
M  V30 299 H 20.2895 0.970748 6.72126 0
M  V30 300 H 18.2355 -1.25542 6.43875 0
M  V30 301 H 18.1525 0.0637872 7.55973 0
M  V30 302 H 19.4205 -1.11523 7.71481 0
M  V30 303 N 23.6496 -1.47581 0.552962 0
M  V30 304 C 24.5596 -2.33743 -0.200353 0
M  V30 305 C 25.5756 -1.47928 -0.916151 0
M  V30 306 O 26.7516 -1.80865 -0.885993 0
M  V30 307 C 23.8166 -3.24536 -1.21973 0
M  V30 308 C 22.8776 -4.26238 -0.511819 0
M  V30 309 C 22.1106 -5.12693 -1.48263 0
M  V30 310 O 22.3336 -5.01525 -2.71714 0
M  V30 311 O 21.2676 -5.93375 -1.00945 0
M  V30 312 H 25.0936 -2.9945 0.506304 0
M  V30 313 H 22.6786 -1.46071 0.313622 0
M  V30 314 H 24.5606 -3.80631 -1.80827 0
M  V30 315 H 23.2356 -2.61462 -1.90839 0
M  V30 316 H 22.1426 -3.73914 0.117799 0
M  V30 317 H 23.4756 -4.92014 0.135308 0
M  V30 318 N 25.1277 -0.289203 -1.54924 0
M  V30 319 C 26.3557 0.326463 -2.04308 0
M  V30 320 C 26.7707 1.48413 -1.16701 0
M  V30 321 O 26.1277 1.81507 -0.190087 0
M  V30 322 C 26.1787 0.794014 -3.52672 0
M  V30 323 O 25.8997 -0.317564 -4.36948 0
M  V30 324 C 27.4007 1.47605 -4.18004 0
M  V30 325 H 24.6207 0.0726272 -0.667058 0
M  V30 326 H 27.1647 -0.425401 -2.00026 0
M  V30 327 H 25.3197 1.49593 -3.57352 0
M  V30 328 H 25.7337 0.0443186 -5.24481 0
M  V30 329 H 27.2077 1.75447 -5.23376 0
M  V30 330 H 27.6847 2.41224 -3.67025 0
M  V30 331 H 28.2907 0.81762 -4.17367 0
M  V30 332 N 26.6058 1.57591 -0.0167156 0
M  V30 333 C 27.8308 1.9598 0.67872 0
M  V30 334 C 28.2558 0.892546 1.65575 0
M  V30 335 O 27.6138 -0.147772 1.80697 0
M  V30 336 C 27.6618 3.33468 1.37227 0
M  V30 337 O 26.7658 3.28954 2.48722 0
M  V30 338 H 26.1068 0.639339 0.17928 0
M  V30 339 H 28.6368 2.04463 -0.0748802 0
M  V30 340 H 28.6468 3.69417 1.7319 0
M  V30 341 H 27.3218 4.10694 0.656007 0
M  V30 342 H 25.8988 3.04705 2.14963 0
M  V30 343 N 28.0839 -0.256276 1.55502 0
M  V30 344 C 28.9939 -1.33882 1.92647 0
M  V30 345 C 30.0099 -1.53159 0.825727 0
M  V30 346 O 31.1859 -1.66963 1.12629 0
M  V30 347 C 28.2509 -2.6751 2.20543 0
M  V30 348 C 27.3119 -2.56836 3.43997 0
M  V30 349 C 26.5449 -3.84092 3.70553 0
M  V30 350 O 26.7679 -4.85545 2.99336 0
M  V30 351 O 25.7019 -3.83288 4.64084 0
M  V30 352 H 29.5279 -1.05374 2.84833 0
M  V30 353 H 27.1129 -0.456237 1.42263 0
M  V30 354 H 28.9949 -3.46492 2.39835 0
M  V30 355 H 27.6699 -2.9577 1.31536 0
M  V30 356 H 26.5769 -1.76172 3.30021 0
M  V30 357 H 27.9099 -2.33523 4.33275 0
M  V30 358 N 29.562 -1.4872 -0.521534 0
M  V30 359 C 30.492 -1.66771 -1.63431 0
M  V30 360 C 31.473 -0.516499 -1.62069 0
M  V30 361 O 32.658 -0.750013 -1.79132 0
M  V30 362 C 29.788 -1.71515 -3.01993 0
M  V30 363 C 28.742 -2.86222 -3.18216 0
M  V30 364 C 28.068 -2.76061 -4.57924 0
M  V30 365 C 29.368 -4.27419 -3.00184 0
M  V30 366 H 31.062 -2.59932 -1.48579 0
M  V30 367 H 28.608 -1.25089 -0.713358 0
M  V30 368 H 30.561 -1.82731 -3.7972 0
M  V30 369 H 29.285 -0.749393 -3.17886 0
M  V30 370 H 27.944 -2.74575 -2.42908 0
M  V30 371 H 27.592 -1.77437 -4.70665 0
M  V30 372 H 27.292 -3.53037 -4.69722 0
M  V30 373 H 28.816 -2.89256 -5.37739 0
M  V30 374 H 30.23 -4.39855 -3.67697 0
M  V30 375 H 28.627 -5.05458 -3.2347 0
M  V30 376 H 29.697 -4.43293 -1.96518 0
M  V30 377 N 31.0401 0.771051 -1.3745 0
M  V30 378 C 31.9501 1.91538 -1.35464 0
M  V30 379 C 32.9661 1.72134 -0.254123 0
M  V30 380 O 34.1421 1.95358 -0.489626 0
M  V30 381 C 31.2071 3.26671 -1.16134 0
M  V30 382 C 30.2681 3.58723 -2.35831 0
M  V30 383 C 29.5011 4.87409 -2.17413 0
M  V30 384 O 29.7241 5.58506 -1.15876 0
M  V30 385 O 28.6581 5.18539 -3.05615 0
M  V30 386 H 32.4841 1.96165 -2.31847 0
M  V30 387 H 30.0691 0.9139 -1.18187 0
M  V30 388 H 31.9511 4.07499 -1.07345 0
M  V30 389 H 30.6261 3.22894 -0.228251 0
M  V30 390 H 29.5331 2.78127 -2.50192 0
M  V30 391 H 30.8661 3.67243 -3.27709 0
M  V30 392 N 32.5182 1.22032 0.997298 0
M  V30 393 C 33.7952 0.950823 1.70935 0
M  V30 394 C 34.1752 -0.535292 2.042 0
M  V30 395 O 33.5232 -1.50217 1.72183 0
M  V30 396 C 33.7332 1.84386 2.96315 0
M  V30 397 C 35.0812 2.09732 3.69185 0
M  V30 398 O 36.1052 1.81798 3.06314 0
M  V30 399 O 34.9642 2.57018 4.82291 0
M  V30 400 H 32.0582 0.357204 0.745878 0
M  V30 401 H 34.6042 1.32997 1.05404 0
M  V30 402 H 33.3762 2.84928 2.68201 0
M  V30 403 H 32.9992 1.46602 3.69586 0
M  V30 404 N 33.9963 -1.19345 1.0293 0
M  V30 405 C 35.2213 -1.93538 0.745511 0
M  V30 406 C 35.6463 -1.75007 -0.689511 0
M  V30 407 O 35.0043 -1.05265 -1.47611 0
M  V30 408 C 35.0523 -3.43336 1.10239 0
M  V30 409 O 34.1563 -4.11806 0.221289 0
M  V30 410 H 33.4973 -0.604193 0.275404 0
M  V30 411 H 36.0273 -1.5141 1.37609 0
M  V30 412 H 36.0373 -3.94004 1.05947 0
M  V30 413 H 34.7123 -3.56146 2.14786 0
M  V30 414 H 33.2893 -3.715 0.322842 0
M  V30 415 N 35.4744 -0.807222 -1.35358 0
M  V30 416 C 36.7514 -0.311126 -1.9311 0
M  V30 417 C 37.1314 1.19937 -1.73719 0
M  V30 418 O 36.4794 1.99918 -1.10657 0
M  V30 419 C 36.6894 -0.723226 -3.41424 0
M  V30 420 C 38.0374 -0.713078 -4.18569 0
M  V30 421 O 39.0614 -0.664811 -3.49941 0
M  V30 422 O 37.9204 -0.772022 -5.41019 0
M  V30 423 H 35.0144 -0.081526 -0.822972 0
M  V30 424 H 37.5604 -0.890962 -1.4443 0
M  V30 425 H 36.3324 -1.76426 -3.4927 0
M  V30 426 H 35.9554 -0.118232 -3.97424 0
M  V30 427 N 36.9525 1.47285 -0.560781 0
M  V30 428 C 38.1775 2.07359 -0.0410566 0
M  V30 429 C 38.6025 1.41017 1.24483 0
M  V30 430 O 37.9605 0.486368 1.74654 0
M  V30 431 C 38.0085 3.6035 0.134123 0
M  V30 432 O 37.1125 3.94681 1.19587 0
M  V30 433 H 36.4535 0.661887 -0.0529291 0
M  V30 434 H 38.9835 1.89252 -0.777482 0
M  V30 435 H 38.9935 4.0652 0.347207 0
M  V30 436 H 37.6685 4.08034 -0.805047 0
M  V30 437 H 36.2455 3.60251 0.962987 0
M  V30 438 N 38.4306 0.297415 1.54768 0
M  V30 439 C 39.6586 -0.315623 2.04478 0
M  V30 440 C 40.0736 -1.47792 1.17486 0
M  V30 441 O 39.4306 -1.81404 0.19971 0
M  V30 442 C 39.4816 -0.7753 3.53088 0
M  V30 443 O 39.2026 0.340732 4.36773 0
M  V30 444 C 40.7036 -1.45386 4.18781 0
M  V30 445 H 37.9236 -0.0690887 0.667434 0
M  V30 446 H 40.4676 0.436003 1.99798 0
M  V30 447 H 38.6226 -1.47696 3.58141 0
M  V30 448 H 39.0366 -0.0165035 5.24497 0
M  V30 449 H 40.5106 -1.72669 5.24299 0
M  V30 450 H 40.9876 -2.39275 3.68299 0
M  V30 451 H 41.5936 -0.795475 4.17795 0
M  V30 452 N 39.9087 -1.5758 0.0250728 0
M  V30 453 C 41.1577 -1.90811 -0.653767 0
M  V30 454 C 41.4707 -0.90273 -1.73523 0
M  V30 455 O 42.6767 -1.12614 -2.47043 0
M  V30 456 C 41.1327 -3.38804 -1.21409 0
M  V30 457 C 40.7407 -4.47692 -0.166126 0
M  V30 458 C 42.4847 -3.81108 -1.86967 0
M  V30 459 C 40.3917 -5.86779 -0.737856 0
M  V30 460 H 39.3217 -0.712063 -0.247956 0
M  V30 461 H 41.9727 -1.83281 0.0897137 0
M  V30 462 H 40.3547 -3.41252 -2.00905 0
M  V30 463 H 41.5287 -4.56797 0.606079 0
M  V30 464 H 39.8437 -4.14565 0.390466 0
M  V30 465 H 42.4407 -4.82375 -2.30692 0
M  V30 466 H 42.7837 -3.15953 -2.71071 0
M  V30 467 H 43.3167 -3.81065 -1.14167 0
M  V30 468 H 40.0557 -6.55468 0.0649577 0
M  V30 469 H 39.5757 -5.81288 -1.47864 0
M  V30 470 H 41.2547 -6.35223 -1.22884 0
M  V30 471 N 41.3868 0.248026 -1.55636 0
M  V30 472 C 42.3168 1.31079 -1.93237 0
M  V30 473 C 43.2978 1.50264 -0.797174 0
M  V30 474 O 44.4828 1.62891 -1.05737 0
M  V30 475 C 41.6128 2.66575 -2.22609 0
M  V30 476 C 40.5668 2.62087 -3.3837 0
M  V30 477 C 39.8928 4.01369 -3.53281 0
M  V30 478 C 41.1928 2.19171 -4.7409 0
M  V30 479 H 42.8868 0.998556 -2.82257 0
M  V30 480 H 40.4328 0.47891 -1.35803 0
M  V30 481 H 42.3858 3.41057 -2.47503 0
M  V30 482 H 41.1098 2.99432 -1.30414 0
M  V30 483 H 39.7688 1.90063 -3.13483 0
M  V30 484 H 39.4168 4.31489 -2.58508 0
M  V30 485 H 39.1168 3.99254 -4.31127 0
M  V30 486 H 40.6408 4.77552 -3.80495 0
M  V30 487 H 42.0548 2.83384 -4.98363 0
M  V30 488 H 40.4518 2.2817 -5.5503 0
M  V30 489 H 41.5218 1.14336 -4.71227 0
M  V30 490 N 42.8649 1.48995 0.513639 0
M  V30 491 C 44.2809 1.35478 0.843682 0
M  V30 492 C 44.4809 0.378213 1.97919 0
M  V30 493 O 43.5369 -0.194689 2.51748 0
M  V30 494 C 44.8499 2.75901 1.1958 0
M  V30 495 C 46.3979 2.84509 1.30474 0
M  V30 496 C 46.8729 4.25671 1.69021 0
M  V30 497 N 48.3639 4.28422 1.76094 0
M  V30 498 C 49.0989 5.34601 2.07338 0
M  V30 499 N 48.5949 6.5104 2.36894 0
M  V30 500 N 50.3879 5.22007 2.08483 0
M  V30 501 H 42.5389 2.11092 -0.235328 0
M  V30 502 H 44.8019 0.947039 -0.0426669 0
M  V30 503 H 44.5079 3.49001 0.434913 0
M  V30 504 H 44.3819 3.10467 2.1422 0
M  V30 505 H 46.7689 2.11655 2.05637 0
M  V30 506 H 46.8499 2.53542 0.339155 0
M  V30 507 H 46.4939 4.99048 0.944135 0
M  V30 508 H 46.4239 4.54094 2.66658 0
M  V30 509 H 48.9149 3.44441 1.55464 0
M  V30 510 H 49.2279 7.2779 2.59887 0
M  V30 511 H 47.5729 6.54287 2.34378 0
M  V30 512 H 50.7639 4.30051 1.84861 0
M  V30 513 H 50.9369 6.04854 2.325 0
M  V30 514 N 44.343 -0.763751 1.37857 0
M  V30 515 C 45.759 -1.06542 1.18832 0
M  V30 516 C 45.959 -2.01478 0.0299722 0
M  V30 517 O 45.015 -2.4458 -0.627447 0
M  V30 518 C 46.328 -1.65525 2.51042 0
M  V30 519 C 47.876 -1.77745 2.57635 0
M  V30 520 C 48.351 -2.4014 3.89996 0
M  V30 521 N 49.842 -2.47582 3.91481 0
M  V30 522 C 50.577 -2.96732 4.9065 0
M  V30 523 N 50.073 -3.45993 6.00217 0
M  V30 524 N 51.866 -2.95679 4.78048 0
M  V30 525 H 44.017 -0.133556 2.1198 0
M  V30 526 H 46.28 -0.121879 0.940133 0
M  V30 527 H 45.986 -1.03236 3.36207 0
M  V30 528 H 45.86 -2.64719 2.68707 0
M  V30 529 H 48.247 -2.39164 1.72872 0
M  V30 530 H 48.328 -0.772836 2.43846 0
M  V30 531 H 47.972 -1.79358 4.75177 0
M  V30 532 H 47.902 -3.41223 4.01092 0
M  V30 533 H 50.393 -2.1273 3.12337 0
M  V30 534 H 50.706 -3.81922 6.7183 0
M  V30 535 H 49.051 -3.44077 6.03851 0
M  V30 536 H 52.242 -2.56499 3.91568 0
M  V30 537 H 52.415 -3.33672 5.55488 0
M  V30 538 N 45.8211 -1.22559 -0.990812 0
M  V30 539 C 47.0461 -1.07862 -1.77145 0
M  V30 540 C 47.4711 0.366447 -1.84496 0
M  V30 541 O 46.8291 1.26478 -1.29896 0
M  V30 542 C 46.8771 -1.69686 -3.18181 0
M  V30 543 O 45.9811 -0.951946 -4.01263 0
M  V30 544 H 45.3221 -0.378712 -0.545411 0
M  V30 545 H 47.8521 -1.62399 -1.2445 0
M  V30 546 H 47.8621 -1.74496 -3.68802 0
M  V30 547 H 46.5371 -2.74841 -3.12146 0
M  V30 548 H 45.1141 -0.980011 -3.59792 0
M  V30 549 N 47.2992 1.18797 -1.03562 0
M  V30 550 C 48.7152 1.40671 -0.753917 0
M  V30 551 C 48.9152 1.9043 0.658686 0
M  V30 552 O 47.9712 2.08538 1.42366 0
M  V30 553 C 49.2842 2.41192 -1.79574 0
M  V30 554 C 50.8322 2.54928 -1.81606 0
M  V30 555 C 51.3072 3.58709 -2.84766 0
M  V30 556 N 52.7982 3.66212 -2.83625 0
M  V30 557 C 53.5332 4.46225 -3.60098 0
M  V30 558 N 53.0292 5.29888 -4.46308 0
M  V30 559 N 54.8222 4.40939 -3.4861 0
M  V30 560 H 46.9732 0.848221 -1.94728 0
M  V30 561 H 49.2362 0.435081 -0.842264 0
M  V30 562 H 48.9422 2.11669 -2.80872 0
M  V30 563 H 48.8162 3.40467 -1.62365 0
M  V30 564 H 51.2032 2.83771 -0.809817 0
M  V30 565 H 51.2842 1.55784 -2.02891 0
M  V30 566 H 50.9282 3.30607 -3.85566 0
M  V30 567 H 50.8582 4.57519 -2.60737 0
M  V30 568 H 53.3492 3.06466 -2.21105 0
M  V30 569 H 53.6622 5.88078 -5.01382 0
M  V30 570 H 52.0072 5.29326 -4.50377 0
M  V30 571 H 55.1982 3.74624 -2.80668 0
M  V30 572 H 55.3712 5.03056 -4.08459 0
M  V30 573 N 48.7773 0.814389 1.34928 0
M  V30 574 C 50.0023 0.410097 2.03305 0
M  V30 575 C 50.4273 -0.973464 1.60951 0
M  V30 576 O 49.7853 -1.63185 0.789964 0
M  V30 577 C 49.8333 0.51049 3.56968 0
M  V30 578 O 48.9373 -0.473035 4.09678 0
M  V30 579 H 48.2783 0.170088 0.641846 0
M  V30 580 H 50.8083 1.10244 1.72358 0
M  V30 581 H 50.8183 0.383135 4.06197 0
M  V30 582 H 49.4933 1.51963 3.87144 0
M  V30 583 H 48.0703 -0.305272 3.71648 0
M  V30 584 N 50.2554 -1.46986 0.568584 0
M  V30 585 C 51.5324 -1.95592 -0.0174074 0
M  V30 586 C 51.9124 -1.51124 -1.47393 0
M  V30 587 O 51.2604 -0.755329 -2.15655 0
M  V30 588 C 51.4704 -3.48719 0.139913 0
M  V30 589 C 52.8184 -4.246 0.000426376 0
M  V30 590 O 53.8424 -3.56135 0.0680316 0
M  V30 591 O 52.7014 -5.46302 -0.146988 0
M  V30 592 H 49.7954 -0.82498 -0.0577599 0
M  V30 593 H 52.3414 -1.57335 0.635909 0
M  V30 594 H 51.1134 -3.73927 1.15301 0
M  V30 595 H 50.7364 -3.93771 -0.550491 0
M  V30 596 N 51.7335 -0.305618 -1.54608 0
M  V30 597 C 53.1495 0.0476228 -1.59529 0
M  V30 598 C 53.3495 1.52025 -1.32252 0
M  V30 599 O 52.4055 2.27368 -1.09818 0
M  V30 600 C 53.7185 -0.354471 -2.98603 0
M  V30 601 C 55.2665 -0.303622 -3.11524 0
M  V30 602 C 55.7415 -0.680608 -4.52915 0
M  V30 603 N 57.2325 -0.63332 -4.5885 0
M  V30 604 C 57.9675 -0.897432 -5.66334 0
M  V30 605 N 57.4635 -1.22775 -6.81834 0
M  V30 606 N 59.2565 -0.824186 -5.56025 0
M  V30 607 H 51.4075 -1.2653 -1.70599 0
M  V30 608 H 53.6705 -0.513291 -0.797017 0
M  V30 609 H 53.3765 -1.3798 -3.23503 0
M  V30 610 H 53.2505 0.289568 -3.76087 0
M  V30 611 H 55.6375 0.712472 -2.8637 0
M  V30 612 H 55.7185 -0.982348 -2.36185 0
M  V30 613 H 55.3625 -1.69453 -4.78799 0
M  V30 614 H 55.2925 0.0202385 -5.26596 0
M  V30 615 H 57.7835 -0.389138 -3.75891 0
M  V30 616 H 58.0965 -1.41513 -7.59733 0
M  V30 617 H 56.4415 -1.26583 -6.83375 0
M  V30 618 H 59.6325 -0.565748 -4.64669 0
M  V30 619 H 59.8055 -1.03338 -6.39707 0
M  V30 620 N 53.2116 1.57565 -0.0334293 0
M  V30 621 C 54.1586 2.10478 0.946981 0
M  V30 622 C 55.1286 1.00787 1.32027 0
M  V30 623 O 56.3136 1.28232 1.41284 0
M  V30 624 C 53.4536 2.63994 2.22263 0
M  V30 625 C 52.5666 3.87709 1.90541 0
M  V30 626 C 51.7016 4.29604 3.12433 0
M  V30 627 C 50.7406 5.46065 2.76549 0
M  V30 628 N 49.8776 5.83096 3.9108 0
M  V30 629 H 54.7176 2.93963 0.488846 0
M  V30 630 H 52.2546 1.45296 0.22969 0
M  V30 631 H 54.2126 2.93114 2.96884 0
M  V30 632 H 52.8426 1.83333 2.65685 0
M  V30 633 H 51.8946 3.65291 1.06144 0
M  V30 634 H 53.2066 4.72403 1.60116 0
M  V30 635 H 52.3606 4.60182 3.9537 0
M  V30 636 H 51.0996 3.43685 3.46023 0
M  V30 637 H 50.1046 5.15176 1.92026 0
M  V30 638 H 51.3296 6.33685 2.44171 0
M  V30 639 H 49.2756 5.00132 4.24504 0
M  V30 640 H 49.1926 6.6244 3.64293 0
M  V30 641 H 50.4606 6.18282 4.74708 0
M  V30 642 N 54.6897 -0.239769 1.55765 0
M  V30 643 C 55.6367 -1.29696 1.90913 0
M  V30 644 C 56.6067 -1.47478 0.764164 0
M  V30 645 O 57.7917 -1.61345 1.01845 0
M  V30 646 C 54.9317 -2.64598 2.21544 0
M  V30 647 C 54.0447 -2.54765 3.48882 0
M  V30 648 C 53.1797 -3.82069 3.69049 0
M  V30 649 C 52.2187 -3.66883 4.89963 0
M  V30 650 N 51.3557 -4.86094 5.06614 0
M  V30 651 H 56.1957 -0.990224 2.81067 0
M  V30 652 H 53.7327 -0.477684 1.39128 0
M  V30 653 H 55.6907 -3.43132 2.3731 0
M  V30 654 H 54.3207 -2.93405 1.34585 0
M  V30 655 H 53.3727 -1.67763 3.41409 0
M  V30 656 H 54.6847 -2.39457 4.37563 0
M  V30 657 H 53.8387 -4.69046 3.84812 0
M  V30 658 H 52.5777 -4.00282 2.78614 0
M  V30 659 H 51.5827 -2.78289 4.74168 0
M  V30 660 H 52.8077 -3.50157 5.81865 0
M  V30 661 H 50.7537 -5.04655 4.19117 0
M  V30 662 H 50.6707 -4.73443 5.89396 0
M  V30 663 H 51.9387 -5.74549 5.26795 0
M  V30 664 N 56.1678 -1.49265 -0.50573 0
M  V30 665 C 57.0978 -1.68495 -1.61653 0
M  V30 666 C 58.0788 -0.53366 -1.61512 0
M  V30 667 O 59.2638 -0.76897 -1.78327 0
M  V30 668 C 56.3938 -1.74709 -3.00157 0
M  V30 669 C 55.3478 -2.89581 -3.15162 0
M  V30 670 C 54.6738 -2.80903 -4.5497 0
M  V30 671 C 55.9738 -4.30578 -2.95634 0
M  V30 672 H 57.6678 -2.61493 -1.45814 0
M  V30 673 H 55.2138 -1.25838 -0.70005 0
M  V30 674 H 57.1668 -1.86748 -3.77761 0
M  V30 675 H 55.8908 -0.783067 -3.17074 0
M  V30 676 H 54.5498 -2.77136 -2.39982 0
M  V30 677 H 54.1978 -1.82419 -4.68756 0
M  V30 678 H 53.8978 -3.57999 -4.65951 0
M  V30 679 H 55.4218 -2.94944 -5.34641 0
M  V30 680 H 56.8358 -4.4373 -3.63011 0
M  V30 681 H 55.2328 -5.0886 -3.18091 0
M  V30 682 H 56.3028 -4.45352 -1.91806 0
M  V30 683 N 57.6459 0.756429 -1.3826 0
M  V30 684 C 58.6089 1.85176 -1.35065 0
M  V30 685 C 59.6089 1.58818 -0.251703 0
M  V30 686 O 60.7989 1.66615 -0.508433 0
M  V30 687 C 57.9309 3.22596 -1.10201 0
M  V30 688 H 59.1239 1.89417 -2.3251 0
M  V30 689 H 56.6769 0.95783 -1.23512 0
M  V30 690 H 57.4119 3.24025 -0.133504 0
M  V30 691 H 57.1969 3.43122 -1.89762 0
M  V30 692 H 58.6869 4.02673 -1.10654 0
M  V30 693 N 59.124 1.23083 0.984299 0
M  V30 694 C 60.056 0.96636 2.07832 0
M  V30 695 C 61.069 -0.0582135 1.62696 0
M  V30 696 O 62.258 0.176843 1.77622 0
M  V30 697 C 59.358 0.433397 3.36117 0
M  V30 698 C 58.531 1.51722 4.10243 0
M  V30 699 C 57.59 0.989821 5.16807 0
M  V30 700 O 56.616 1.67794 5.43906 0
M  V30 701 N 57.818 -0.184367 5.80207 0
M  V30 702 H 60.583 1.90824 2.31098 0
M  V30 703 H 58.144 1.13888 1.1507 0
M  V30 704 H 60.136 0.065699 4.04647 0
M  V30 705 H 58.706 -0.413806 3.09849 0
M  V30 706 H 57.926 2.05786 3.36223 0
M  V30 707 H 59.214 2.24619 4.56534 0
M  V30 708 H 58.612 -0.760062 5.60571 0
M  V30 709 H 57.169 -0.493366 6.4993 0
M  V30 710 N 60.6021 -1.18246 1.0419 0
M  V30 711 C 61.8481 -1.88536 0.747122 0
M  V30 712 C 62.1811 -1.80223 -0.723409 0
M  V30 713 O 61.4561 -1.20337 -1.52804 0
M  V30 714 C 61.7391 -3.38968 1.21544 0
M  V30 715 C 61.5921 -3.56084 2.74816 0
M  V30 716 C 62.9111 -4.32648 0.806482 0
M  V30 717 H 60.0301 -0.684619 0.272883 0
M  V30 718 H 62.6721 -1.39113 1.29413 0
M  V30 719 H 60.8221 -3.8119 0.750081 0
M  V30 720 H 62.4941 -3.22946 3.29399 0
M  V30 721 H 60.7371 -2.98699 3.14582 0
M  V30 722 H 61.4081 -4.61639 3.02644 0
M  V30 723 H 63.8841 -3.98211 1.20695 0
M  V30 724 H 62.7601 -5.36462 1.1619 0
M  V30 725 H 63.0211 -4.41146 -0.29029 0
M  V30 726 N 62.0802 -0.821533 -1.34494 0
M  V30 727 C 63.3282 -0.408139 -1.97936 0
M  V30 728 C 63.6492 1.03193 -1.65457 0
M  V30 729 O 62.9192 1.71622 -0.944595 0
M  V30 730 H 61.4992 -0.147928 -0.732206 0
M  V30 731 H 64.1612 -1.05067 -1.64155 0
M  V30 732 H 63.2572 -0.52601 -3.07635 0
M  V30 733 N 63.5583 1.46682 -0.576371 0
M  V30 734 C 64.9693 1.86112 -0.148091 0
M  V30 735 C 65.3203 1.48073 1.2872 0
M  V30 736 O 64.4453 0.892656 1.97131 0
M  V30 737 C 65.0403 3.37786 -0.261982 0
M  V30 738 C 63.5993 3.76235 0.111384 0
M  V30 739 C 62.7463 2.70713 -0.60083 0
M  V30 740 H 65.6973 1.37927 -0.78497 0
M  V30 741 H 65.7183 3.77007 0.514364 0
M  V30 742 H 65.2303 3.6544 -1.30671 0
M  V30 743 H 63.3313 3.54198 1.15649 0
M  V30 744 H 63.4443 4.78391 -0.26052 0
M  V30 745 H 61.8083 2.54666 -0.0417783 0
M  V30 746 H 62.5913 3.01208 -1.64708 0
M  V30 747 N 65.0364 0.313813 1.54444 0
M  V30 748 C 66.2854 -0.292519 1.99568 0
M  V30 749 C 66.5984 -1.54011 1.20582 0
M  V30 750 O 67.8044 -2.22183 1.56035 0
M  V30 751 C 66.2604 -0.571752 3.55329 0
M  V30 752 C 65.8684 0.658229 4.43138 0
M  V30 753 C 67.6124 -1.13857 4.08946 0
M  V30 754 C 65.5194 0.351439 5.90355 0
M  V30 755 H 64.4494 -0.113079 0.745472 0
M  V30 756 H 67.1004 0.424518 1.78522 0
M  V30 757 H 65.4824 -1.34872 3.72325 0
M  V30 758 H 66.6564 1.43403 4.37918 0
M  V30 759 H 64.9714 1.14458 4.0036 0
M  V30 760 H 67.5684 -1.38257 5.16516 0
M  V30 761 H 67.9114 -2.08489 3.6033 0
M  V30 762 H 68.4444 -0.423015 3.95544 0
M  V30 763 H 65.1834 1.26667 6.43145 0
M  V30 764 H 64.7034 -0.386842 5.98551 0
M  V30 765 H 66.3824 -0.0423134 6.46986 0
M  V30 766 N 66.5145 -1.57545 0.0417849 0
M  V30 767 C 67.9305 -1.56467 -0.314704 0
M  V30 768 C 68.1305 -1.04859 -1.72066 0
M  V30 769 O 67.1865 -0.700983 -2.42575 0
M  V30 770 C 68.4995 -3.00317 -0.15174 0
M  V30 771 C 70.0475 -3.12201 -0.223553 0
M  V30 772 C 70.5225 -4.57913 -0.0892295 0
M  V30 773 N 72.0135 -4.6297 -0.145808 0
M  V30 774 C 72.7485 -5.73362 -0.0658459 0
M  V30 775 N 72.2445 -6.92769 0.0659282 0
M  V30 776 N 74.0375 -5.6197 -0.12075 0
M  V30 777 H 66.1885 -1.89416 0.961014 0
M  V30 778 H 68.4515 -0.871862 0.372237 0
M  V30 779 H 68.1575 -3.42073 0.817254 0
M  V30 780 H 68.0315 -3.65892 -0.916692 0
M  V30 781 H 70.4185 -2.70349 -1.18301 0
M  V30 782 H 70.4995 -2.49323 0.571994 0
M  V30 783 H 70.1435 -5.00448 0.866867 0
M  V30 784 H 70.0735 -5.18786 -0.903802 0
M  V30 785 H 72.5645 -3.7709 -0.247286 0
M  V30 786 H 72.8775 -7.72707 0.119905 0
M  V30 787 H 71.2225 -6.94927 0.100885 0
M  V30 788 H 74.4135 -4.67572 -0.222187 0
M  V30 789 H 74.5865 -6.47977 -0.0549735 0
M  V30 790 N 67.9926 0.231505 -1.5589 0
M  V30 791 C 68.9396 1.28682 -1.91598 0
M  V30 792 C 69.9096 1.47071 -0.771974 0
M  V30 793 O 71.0946 1.60802 -1.027 0
M  V30 794 C 68.2346 2.6342 -2.22944 0
M  V30 795 C 67.3476 2.52912 -3.50228 0
M  V30 796 C 66.4826 3.80106 -3.7107 0
M  V30 797 C 65.5216 3.64279 -4.91902 0
M  V30 798 N 64.6586 4.834 -5.09184 0
M  V30 799 H 69.4986 0.975305 -2.81588 0
M  V30 800 H 67.0356 0.470299 -1.39379 0
M  V30 801 H 68.9936 3.41869 -2.39126 0
M  V30 802 H 67.6236 2.92687 -1.36139 0
M  V30 803 H 66.6756 1.6595 -3.42294 0
M  V30 804 H 67.9876 2.37133 -4.38827 0
M  V30 805 H 67.1416 4.66999 -3.87295 0
M  V30 806 H 65.8806 3.98799 -2.80733 0
M  V30 807 H 64.8856 2.7577 -4.75637 0
M  V30 808 H 66.1106 3.47067 -5.83714 0
M  V30 809 H 64.0566 5.02425 -4.21788 0
M  V30 810 H 63.9736 4.70311 -5.91898 0
M  V30 811 H 65.2416 5.71747 -5.29835 0
M  V30 812 N 69.4707 1.49531 0.497807 0
M  V30 813 C 70.7177 1.59179 1.25173 0
M  V30 814 C 71.0457 0.279932 1.92475 0
M  V30 815 O 70.3007 -0.732383 1.81479 0
M  V30 816 C 70.5997 2.70252 2.33878 0
M  V30 817 C 70.2657 4.11644 1.84012 0
M  V30 818 C 68.9277 4.50121 1.70132 0
M  V30 819 C 71.2797 5.00121 1.46725 0
M  V30 820 C 68.6077 5.74845 1.17348 0
M  V30 821 C 70.9597 6.25366 0.95392 0
M  V30 822 C 69.6237 6.6267 0.801538 0
M  V30 823 H 68.8937 0.582478 0.45804 0
M  V30 824 H 71.5407 1.83373 0.551948 0
M  V30 825 H 69.8457 2.40041 3.09657 0
M  V30 826 H 71.5427 2.74925 2.9192 0
M  V30 827 H 68.1327 3.81274 1.95775 0
M  V30 828 H 72.3167 4.71048 1.56294 0
M  V30 829 H 67.5727 6.02444 1.04264 0
M  V30 830 H 71.7467 6.93301 0.656225 0
M  V30 831 H 69.3737 7.59197 0.390351 0
M  V30 832 N 70.9488 -0.749086 1.3866 0
M  V30 833 C 72.1948 -1.50959 1.36319 0
M  V30 834 C 72.5498 -1.92347 -0.0452451 0
M  V30 835 O 71.8428 -1.6289 -1.00884 0
M  V30 836 C 72.0368 -2.7712 2.25697 0
M  V30 837 C 71.8658 -2.48067 3.7509 0
M  V30 838 C 70.6358 -2.41062 4.44091 0
M  V30 839 C 72.8338 -2.14544 4.67414 0
M  V30 840 N 70.8158 -2.04331 5.78897 0
M  V30 841 C 72.1868 -1.88141 5.90765 0
M  V30 842 C 74.2418 -2.00892 4.55573 0
M  V30 843 C 72.9448 -1.49463 7.036 0
M  V30 844 C 74.9708 -1.63616 5.68317 0
M  V30 845 C 74.3328 -1.38088 6.90732 0
M  V30 846 H 70.4318 -0.551804 0.554108 0
M  V30 847 H 73.0158 -0.871886 1.74087 0
M  V30 848 H 71.1868 -3.38693 1.9011 0
M  V30 849 H 72.9188 -3.4321 2.1445 0
M  V30 850 H 69.6738 -2.57685 3.9736 0
M  V30 851 H 70.0978 -1.88598 6.502 0
M  V30 852 H 74.7398 -2.19301 3.61479 0
M  V30 853 H 72.4578 -1.29794 7.97608 0
M  V30 854 H 76.0438 -1.53678 5.61137 0
M  V30 855 H 74.9238 -1.09674 7.76493 0
M  V30 856 N 72.4269 -1.23603 -0.977757 0
M  V30 857 C 73.8429 -0.999251 -1.24447 0
M  V30 858 C 74.0429 0.298053 -1.99283 0
M  V30 859 O 73.0989 1.01681 -2.31122 0
M  V30 860 C 74.4119 -2.20784 -2.04144 0
M  V30 861 C 75.9599 -2.25303 -2.17273 0
M  V30 862 C 76.4349 -3.45755 -3.00362 0
M  V30 863 N 77.9259 -3.4601 -3.07947 0
M  V30 864 C 78.6609 -4.35868 -3.72568 0
M  V30 865 N 78.1569 -5.35966 -4.38991 0
M  V30 866 N 79.9499 -4.23605 -3.6948 0
M  V30 867 H 72.1009 -2.06986 -0.476483 0
M  V30 868 H 74.3639 -0.907801 -0.273134 0
M  V30 869 H 74.0699 -3.14945 -1.56533 0
M  V30 870 H 73.9439 -2.22085 -3.04891 0
M  V30 871 H 76.3309 -1.3168 -2.64092 0
M  V30 872 H 76.4119 -2.28033 -1.15907 0
M  V30 873 H 76.0559 -4.39687 -2.5424 0
M  V30 874 H 75.9859 -3.40266 -4.01904 0
M  V30 875 H 78.4769 -2.73588 -2.60688 0
M  V30 876 H 78.7899 -6.00783 -4.86086 0
M  V30 877 H 77.1349 -5.39863 -4.37691 0
M  V30 878 H 80.3259 -3.44647 -3.16759 0
M  V30 879 H 80.4989 -4.93836 -4.1956 0
M  V30 880 N 73.905 1.17692 -1.04816 0
M  V30 881 C 75.321 1.39863 -0.768794 0
M  V30 882 C 75.521 1.91118 0.638451 0
M  V30 883 O 74.577 2.10036 1.40146 0
M  V30 884 C 75.89 2.39274 -1.82122 0
M  V30 885 C 77.438 2.52987 -1.843 0
M  V30 886 C 77.913 3.55669 -2.88555 0
M  V30 887 N 79.404 3.63183 -2.87493 0
M  V30 888 C 80.139 4.42381 -3.64811 0
M  V30 889 N 79.635 5.25125 -4.51903 0
M  V30 890 N 81.428 4.37217 -3.53267 0
M  V30 891 H 73.579 0.82752 -1.95617 0
M  V30 892 H 75.842 0.426123 -0.846831 0
M  V30 893 H 75.548 2.08678 -2.83102 0
M  V30 894 H 75.422 3.38725 -1.65967 0
M  V30 895 H 77.809 2.82896 -0.839869 0
M  V30 896 H 77.89 1.53623 -2.04532 0
M  V30 897 H 77.534 3.26499 -3.89051 0
M  V30 898 H 77.464 4.54728 -2.65575 0
M  V30 899 H 79.955 3.04103 -2.24343 0
M  V30 900 H 80.268 5.82728 -5.07591 0
M  V30 901 H 78.613 5.24519 -4.55966 0
M  V30 902 H 81.804 3.71626 -2.84625 0
M  V30 903 H 81.977 4.98696 -4.13771 0
M  V30 904 N 75.3831 0.828654 1.34056 0
M  V30 905 C 76.6131 0.431993 2.02033 0
M  V30 906 C 77.0211 -0.96844 1.62536 0
M  V30 907 O 76.3641 -1.6391 0.829408 0
M  V30 908 C 76.4261 0.461224 3.56529 0
M  V30 909 C 76.0901 1.81599 4.1937 0
M  V30 910 C 77.0871 2.7777 4.39477 0
M  V30 911 C 74.7721 2.10604 4.56017 0
M  V30 912 C 76.7661 4.01115 4.95364 0
M  V30 913 C 74.4531 3.34207 5.11614 0
M  V30 914 C 75.4511 4.2928 5.31232 0
M  V30 915 O 75.1391 5.50699 5.8565 0
M  V30 916 H 74.8711 0.170943 0.654029 0
M  V30 917 H 77.4251 1.11988 1.72185 0
M  V30 918 H 75.6551 -0.283388 3.8566 0
M  V30 919 H 77.3441 0.0838149 4.05813 0
M  V30 920 H 78.1101 2.56659 4.11523 0
M  V30 921 H 73.9891 1.37402 4.40047 0
M  V30 922 H 77.5331 4.75333 5.10592 0
M  V30 923 H 73.4301 3.55179 5.38997 0
M  V30 924 H 74.1981 5.52298 6.04077 0
M  V30 925 N 76.8612 -1.46375 0.584142 0
M  V30 926 C 77.8112 -2.27371 -0.169232 0
M  V30 927 C 78.7952 -1.35955 -0.860523 0
M  V30 928 O 79.9872 -1.60119 -0.754382 0
M  V30 929 C 77.1162 -3.22334 -1.18134 0
M  V30 930 C 76.2022 -4.21235 -0.492088 0
M  V30 931 N 76.5932 -5.03766 0.453129 0
M  V30 932 C 74.8912 -4.39773 -0.742652 0
M  V30 933 C 75.5922 -5.75366 0.85609 0
M  V30 934 N 74.5682 -5.43214 0.204926 0
M  V30 935 H 78.3702 -2.88572 0.557097 0
M  V30 936 H 75.8842 -1.57242 0.406042 0
M  V30 937 H 77.8812 -3.79071 -1.73525 0
M  V30 938 H 76.5412 -2.62693 -1.90847 0
M  V30 939 H 77.5522 -5.11227 0.828723 0
M  V30 940 H 74.2292 -3.91279 -1.45625 0
M  V30 941 H 75.6192 -6.5172 1.63434 0
M  V30 942 N 78.3393 -0.321999 -1.54275 0
M  V30 943 C 79.2693 0.537411 -2.27231 0
M  V30 944 C 80.2503 1.12064 -1.27968 0
M  V30 945 O 81.4353 1.14606 -1.56777 0
M  V30 946 C 78.5653 1.69919 -3.02894 0
M  V30 947 C 77.5193 1.24534 -4.09482 0
M  V30 948 C 76.8453 2.49394 -4.72977 0
M  V30 949 C 78.1453 0.361335 -5.21049 0
M  V30 950 H 79.8393 -0.0711406 -2.99315 0
M  V30 951 H 77.3853 -0.0356555 -1.43956 0
M  V30 952 H 79.3383 2.30668 -3.52662 0
M  V30 953 H 78.0623 2.33431 -2.28424 0
M  V30 954 H 76.7213 0.660782 -3.60596 0
M  V30 955 H 76.3693 3.11265 -3.95124 0
M  V30 956 H 76.0693 2.19718 -5.44975 0
M  V30 957 H 77.5933 3.10908 -5.25517 0
M  V30 958 H 79.0073 0.875072 -5.66582 0
M  V30 959 H 77.4043 0.157428 -5.99893 0
M  V30 960 H 78.4743 -0.60822 -4.8107 0
M  V30 961 N 79.8174 1.5752 -0.0501392 0
M  V30 962 C 81.0454 1.96963 0.633492 0
M  V30 963 C 81.4604 0.927631 1.6444 0
M  V30 964 O 80.8174 -0.0882665 1.82286 0
M  V30 965 C 80.8684 3.36487 1.32132 0
M  V30 966 O 80.5894 4.36693 0.350894 0
M  V30 967 C 82.0904 3.90682 2.09481 0
M  V30 968 H 79.3104 0.648244 0.173266 0
M  V30 969 H 81.8544 2.0417 -0.116134 0
M  V30 970 H 80.0094 3.30434 2.02218 0
M  V30 971 H 80.4234 5.17702 0.841735 0
M  V30 972 H 81.8974 4.90591 2.5303 0
M  V30 973 H 82.3744 3.26053 2.94255 0
M  V30 974 H 82.9804 4.00069 1.44307 0
M  V30 975 N 81.2955 -0.223234 1.56011 0
M  V30 976 C 82.2425 -1.27664 1.92277 0
M  V30 977 C 83.2125 -1.46659 0.779763 0
M  V30 978 O 84.3975 -1.60256 1.03551 0
M  V30 979 C 81.5375 -2.62234 2.24338 0
M  V30 980 C 80.6505 -2.51051 3.51564 0
M  V30 981 C 79.7855 -3.78133 3.7308 0
M  V30 982 C 78.8245 -3.61665 4.93827 0
M  V30 983 N 77.9615 -4.80693 5.11741 0
M  V30 984 H 82.8015 -0.960358 2.82101 0
M  V30 985 H 80.3385 -0.462901 1.39627 0
M  V30 986 H 82.2965 -3.40596 2.40936 0
M  V30 987 H 80.9265 -2.91961 1.3769 0
M  V30 988 H 79.9785 -1.64132 3.43169 0
M  V30 989 H 81.2905 -2.34803 4.40079 0
M  V30 990 H 80.4445 -4.64938 3.89766 0
M  V30 991 H 79.1835 -3.97304 2.82844 0
M  V30 992 H 78.1885 -2.73244 4.77093 0
M  V30 993 H 79.4135 -3.43966 5.85546 0
M  V30 994 H 77.3595 -5.00181 4.24446 0
M  V30 995 H 77.2765 -4.67165 5.94384 0
M  V30 996 H 78.5445 -5.6893 5.3286 0
M  V30 997 N 82.7736 -1.49793 -0.48987 0
M  V30 998 C 84.0226 -1.59085 -1.23995 0
M  V30 999 C 84.3356 -0.287907 -1.9347 0
M  V30 1000 O 85.5416 -0.259506 -2.70257 0
M  V30 1001 C 83.9976 -2.80736 -2.252 0
M  V30 1002 C 83.6056 -4.17833 -1.61614 0
M  V30 1003 C 85.3496 -2.99364 -3.00967 0
M  V30 1004 C 83.2566 -5.30693 -2.60996 0
M  V30 1005 H 82.1866 -0.592372 -0.466488 0
M  V30 1006 H 84.8376 -1.76197 -0.51252 0
M  V30 1007 H 83.2196 -2.57142 -3.01154 0
M  V30 1008 H 84.3936 -4.51608 -0.915774 0
M  V30 1009 H 82.7086 -4.04656 -0.981977 0
M  V30 1010 H 85.3056 -3.80851 -3.75308 0
M  V30 1011 H 85.6486 -2.10356 -3.59244 0
M  V30 1012 H 86.1816 -3.2305 -2.32128 0
M  V30 1013 H 82.9206 -6.21796 -2.07485 0
M  V30 1014 H 82.4406 -5.01359 -3.2924 0
M  V30 1015 H 84.1196 -5.6049 -3.23202 0
M  V30 1016 N 84.2517 0.741722 -1.39055 0
M  V30 1017 C 85.5007 1.49656 -1.35225 0
M  V30 1018 C 85.8137 1.95533 0.0512708 0
M  V30 1019 O 87.0197 2.7067 0.212138 0
M  V30 1020 C 85.4757 2.70389 -2.37525 0
M  V30 1021 C 85.0837 2.31489 -3.83558 0
M  V30 1022 C 86.8277 3.48236 -2.42759 0
M  V30 1023 C 84.7347 3.48903 -4.77515 0
M  V30 1024 H 83.6647 0.56197 -0.502699 0
M  V30 1025 H 86.3157 0.809727 -1.64668 0
M  V30 1026 H 84.6977 3.41113 -2.01142 0
M  V30 1027 H 85.8717 1.68354 -4.28945 0
M  V30 1028 H 84.1867 1.66749 -3.81554 0
M  V30 1029 H 86.7837 4.35558 -3.1015 0
M  V30 1030 H 87.1267 3.90229 -1.45008 0
M  V30 1031 H 87.6597 2.84535 -2.78002 0
M  V30 1032 H 84.3987 3.11966 -5.76504 0
M  V30 1033 H 83.9187 4.11041 -4.36813 0
M  V30 1034 H 85.5977 4.15328 -4.96096 0
M  V30 1035 N 85.7298 1.2412 0.971189 0
M  V30 1036 C 86.6598 1.05508 2.08304 0
M  V30 1037 C 87.6408 -0.0308864 1.70072 0
M  V30 1038 O 88.8258 0.135521 1.93727 0
M  V30 1039 C 85.9558 0.655365 3.4106 0
M  V30 1040 C 84.9098 1.68971 3.93234 0
M  V30 1041 C 84.2358 1.14516 5.22293 0
M  V30 1042 C 85.5358 3.08487 4.21465 0
M  V30 1043 H 87.2298 1.98507 2.24132 0
M  V30 1044 H 84.7758 0.955821 1.07704 0
M  V30 1045 H 86.7288 0.51217 4.18276 0
M  V30 1046 H 85.4528 -0.31032 3.25122 0
M  V30 1047 H 84.1118 1.82106 3.18171 0
M  V30 1048 H 83.7598 0.170189 5.02712 0
M  V30 1049 H 83.4598 1.83635 5.58168 0
M  V30 1050 H 84.9838 1.01401 6.02121 0
M  V30 1051 H 86.3978 2.98601 4.89398 0
M  V30 1052 H 84.7948 3.74926 4.68562 0
M  V30 1053 H 85.8648 3.56787 3.28376 0
M  V30 1054 N 87.2079 -1.17134 1.05439 0
M  V30 1055 C 88.4569 -1.86791 0.761049 0
M  V30 1056 C 88.7699 -1.82072 -0.714795 0
M  V30 1057 O 89.9759 -2.47223 -1.12218 0
M  V30 1058 C 88.4319 -3.35166 1.31117 0
M  V30 1059 C 88.0399 -3.48381 2.81664 0
M  V30 1060 C 89.7839 -4.10134 1.09499 0
M  V30 1061 C 87.6909 -4.90793 3.29964 0
M  V30 1062 H 86.6209 -0.699681 0.281002 0
M  V30 1063 H 89.2719 -1.3226 1.27199 0
M  V30 1064 H 87.6539 -3.8925 0.72803 0
M  V30 1065 H 88.8279 -3.04502 3.45855 0
M  V30 1066 H 87.1429 -2.86836 3.01851 0
M  V30 1067 H 89.7399 -5.152 1.43084 0
M  V30 1068 H 90.0829 -4.16287 0.0328772 0
M  V30 1069 H 90.6159 -3.62264 1.64346 0
M  V30 1070 H 87.3549 -4.89816 4.35616 0
M  V30 1071 H 86.8749 -5.35333 2.70516 0
M  V30 1072 H 88.5539 -5.59573 3.24787 0
M  V30 1073 N 88.686 -0.835752 -1.33615 0
M  V30 1074 C 89.616 -0.281739 -2.31794 0
M  V30 1075 C 90.597 0.608833 -1.58831 0
M  V30 1076 O 91.782 0.533035 -1.86741 0
M  V30 1077 C 88.912 0.546612 -3.42971 0
M  V30 1078 C 87.866 -0.247904 -4.27281 0
M  V30 1079 C 87.192 0.704001 -5.30045 0
M  V30 1080 C 88.492 -1.46324 -5.01385 0
M  V30 1081 H 90.186 -1.10206 -2.78379 0
M  V30 1082 H 87.732 -0.531388 -1.33837 0
M  V30 1083 H 89.685 0.944467 -4.1068 0
M  V30 1084 H 88.409 1.40011 -2.95067 0
M  V30 1085 H 87.068 -0.627281 -3.61194 0
M  V30 1086 H 86.716 1.55381 -4.78399 0
M  V30 1087 H 86.416 0.176524 -5.87335 0
M  V30 1088 H 87.94 1.09944 -6.0062 0
M  V30 1089 H 89.354 -1.13871 -5.61877 0
M  V30 1090 H 87.751 -1.92728 -5.6831 0
M  V30 1091 H 88.821 -2.23467 -4.30338 0
M  V30 1092 N 90.1641 1.46063 -0.591896 0
M  V30 1093 C 91.4121 2.01938 -0.0808391 0
M  V30 1094 C 91.7331 1.46475 1.28725 0
M  V30 1095 O 91.0031 0.652944 1.84698 0
M  V30 1096 H 89.5831 0.746516 -0.0268938 0
M  V30 1097 H 92.2451 1.79055 -0.769752 0
M  V30 1098 H 91.3411 3.12094 -0.0187578 0
M  V30 1099 N 91.6422 0.330177 1.54103 0
M  V30 1100 C 92.5722 -0.525353 2.27513 0
M  V30 1101 C 93.5532 -1.11383 1.2856 0
M  V30 1102 O 94.7382 -1.13773 1.57383 0
M  V30 1103 C 91.8682 -1.6831 3.03791 0
M  V30 1104 C 90.8222 -1.2236 4.10137 0
M  V30 1105 C 90.1482 -2.46882 4.74293 0
M  V30 1106 C 91.4482 -0.333697 5.21233 0
M  V30 1107 H 93.1422 0.087013 2.99274 0
M  V30 1108 H 90.6882 0.0432893 1.43935 0
M  V30 1109 H 92.6412 -2.28795 3.5388 0
M  V30 1110 H 91.3652 -2.32216 2.29659 0
M  V30 1111 H 90.0242 -0.64165 3.60941 0
M  V30 1112 H 89.6722 -3.09165 3.96769 0
M  V30 1113 H 89.3722 -2.16825 5.46133 0
M  V30 1114 H 90.8962 -3.08117 5.27159 0
M  V30 1115 H 92.3102 -0.845013 5.67038 0
M  V30 1116 H 90.7072 -0.125612 5.99969 0
M  V30 1117 H 91.7772 0.633724 4.80741 0
M  V30 1118 N 93.1203 -1.57491 0.0584922 0
M  V30 1119 C 94.3453 -1.97711 -0.62652 0
M  V30 1120 C 94.7703 -0.936132 -1.63151 0
M  V30 1121 O 94.1283 0.099811 -1.81025 0
M  V30 1122 C 94.1763 -3.36989 -1.28338 0
M  V30 1123 O 93.2803 -3.35433 -2.39913 0
M  V30 1124 H 92.6213 -0.643868 -0.162266 0
M  V30 1125 H 95.1513 -2.04193 0.129064 0
M  V30 1126 H 95.1613 -3.73879 -1.63335 0
M  V30 1127 H 93.8363 -4.12289 -0.546889 0
M  V30 1128 H 92.4133 -3.10298 -2.06809 0
M  V30 1129 N 94.5984 0.214957 -1.56127 0
M  V30 1130 C 95.5614 1.24997 -1.92116 0
M  V30 1131 C 96.5614 1.39467 -0.800344 0
M  V30 1132 O 97.7514 1.37619 -1.06802 0
M  V30 1133 C 94.8834 2.62271 -2.17777 0
M  V30 1134 H 96.0764 0.942875 -2.84693 0
M  V30 1135 H 93.6294 0.455654 -1.49511 0
M  V30 1136 H 94.3644 2.98068 -1.27773 0
M  V30 1137 H 94.1494 2.53143 -2.99434 0
M  V30 1138 H 95.6394 3.36946 -2.46693 0
M  V30 1139 N 96.0765 1.50051 0.48192 0
M  V30 1140 C 97.3245 1.60181 1.23234 0
M  V30 1141 C 97.6455 0.299176 1.92691 0
M  V30 1142 O 96.9155 -0.682708 1.83619 0
M  V30 1143 H 95.4955 0.590232 0.457859 0
M  V30 1144 H 98.1575 1.86775 0.556881 0
M  V30 1145 H 97.2535 2.40753 1.98607 0
M  V30 1146 N 97.5546 -0.734337 1.39446 0
M  V30 1147 C 98.4846 -1.86155 1.40955 0
M  V30 1148 C 99.4656 -1.67898 0.272827 0
M  V30 1149 O 100.651 -1.88207 0.478743 0
M  V30 1150 C 97.7806 -3.23912 1.25294 0
M  V30 1151 C 96.7346 -3.56808 2.36373 0
M  V30 1152 C 96.0606 -4.93508 2.058 0
M  V30 1153 C 97.3606 -3.59713 3.78687 0
M  V30 1154 H 99.0546 -1.8515 2.35287 0
M  V30 1155 H 96.6006 -0.889367 1.13253 0
M  V30 1156 H 98.5536 -4.02443 1.2497 0
M  V30 1157 H 97.2776 -3.25446 0.274308 0
M  V30 1158 H 95.9366 -2.80606 2.35914 0
M  V30 1159 H 95.5846 -4.91623 1.06374 0
M  V30 1160 H 95.2846 -5.16486 2.80208 0
M  V30 1161 H 96.8086 -5.74396 2.07128 0
M  V30 1162 H 98.2226 -4.2832 3.81071 0
M  V30 1163 H 96.6196 -3.94209 4.52459 0
M  V30 1164 H 97.6896 -2.59504 4.09617 0
M  V30 1165 N 99.0327 -1.24633 -0.964593 0
M  V30 1166 C 99.9627 -1.06611 -2.07741 0
M  V30 1167 C 100.944 0.0218666 -1.70086 0
M  V30 1168 O 102.129 -0.145793 -1.93652 0
M  V30 1169 C 99.2587 -0.673444 -3.40708 0
M  V30 1170 C 98.2127 -1.71054 -3.92332 0
M  V30 1171 C 97.5387 -1.17285 -5.21678 0
M  V30 1172 C 98.8387 -3.10718 -4.19824 0
M  V30 1173 H 100.533 -1.99693 -2.23076 0
M  V30 1174 H 98.0787 -0.96152 -1.07195 0
M  V30 1175 H 100.032 -0.534345 -4.17998 0
M  V30 1176 H 98.7557 0.293073 -3.25282 0
M  V30 1177 H 97.4147 -1.83791 -3.17201 0
M  V30 1178 H 97.0627 -0.196847 -5.02615 0
M  V30 1179 H 96.7627 -1.86592 -5.57187 0
M  V30 1180 H 98.2867 -1.04593 -6.01575 0
M  V30 1181 H 99.7007 -3.01192 -4.87808 0
M  V30 1182 H 98.0977 -3.77406 -4.66567 0
M  V30 1183 H 99.1677 -3.58524 -3.26479 0
M  V30 1184 N 100.511 1.16574 -1.06058 0
M  V30 1185 C 101.757 1.87324 -0.777022 0
M  V30 1186 C 102.09 1.81351 0.694645 0
M  V30 1187 O 101.365 1.22753 1.50871 0
M  V30 1188 C 101.648 3.36991 -1.26922 0
M  V30 1189 C 101.501 3.51667 -2.80447 0
M  V30 1190 C 102.82 4.3131 -0.87521 0
M  V30 1191 H 99.9388 0.680191 -0.28374 0
M  V30 1192 H 102.581 1.37036 -1.3161 0
M  V30 1193 H 100.731 3.79949 -0.81063 0
M  V30 1194 H 102.403 3.17664 -3.34495 0
M  V30 1195 H 100.646 2.93656 -3.19294 0
M  V30 1196 H 101.317 4.56766 -3.0995 0
M  V30 1197 H 103.793 3.9624 -1.27014 0
M  V30 1198 H 102.669 5.34545 -1.2471 0
M  V30 1199 H 102.93 4.41552 0.220071 0
M  V30 1200 N 101.989 0.842826 1.3317 0
M  V30 1201 C 103.237 0.439577 1.97262 0
M  V30 1202 C 103.558 -1.00548 1.67078 0
M  V30 1203 O 102.828 -1.70098 0.971779 0
M  V30 1204 H 101.408 0.159558 0.72976 0
M  V30 1205 H 104.07 1.07665 1.62463 0
M  V30 1206 H 103.166 0.574886 3.0676 0
M  V30 1207 N 103.467 -1.45747 0.599634 0
M  V30 1208 C 104.716 -2.01502 0.0893511 0
M  V30 1209 C 105.029 -1.4748 -1.28488 0
M  V30 1210 O 106.235 -1.95161 -1.88745 0
M  V30 1211 C 104.691 -3.59735 0.109082 0
M  V30 1212 C 104.299 -4.22754 1.48267 0
M  V30 1213 C 106.043 -4.23085 -0.346374 0
M  V30 1214 C 103.95 -5.73115 1.45921 0
M  V30 1215 H 102.88 -0.753417 0.0296347 0
M  V30 1216 H 105.531 -1.67303 0.753788 0
M  V30 1217 H 103.913 -3.91087 -0.621854 0
M  V30 1218 H 105.087 -4.02987 2.23468 0
M  V30 1219 H 103.402 -3.71567 1.87955 0
M  V30 1220 H 105.999 -5.33327 -0.38298 0
M  V30 1221 H 106.342 -3.93201 -1.36743 0
M  V30 1222 H 106.875 -3.9642 0.331038 0
M  V30 1223 H 103.614 -6.07685 2.45762 0
M  V30 1224 H 103.134 -5.95097 0.749665 0
M  V30 1225 H 104.813 -6.3616 1.17941 0
M  V30 1226 N 104.945 -0.338344 -1.53925 0
M  V30 1227 C 106.175 0.260919 -2.04946 0
M  V30 1228 C 106.583 1.45174 -1.2133 0
M  V30 1229 O 105.926 1.82122 -0.240262 0
M  V30 1230 C 105.988 0.744596 -3.51704 0
M  V30 1231 C 105.652 -0.325883 -4.55837 0
M  V30 1232 C 106.649 -1.16687 -5.06636 0
M  V30 1233 C 104.334 -0.478317 -5.00017 0
M  V30 1234 C 106.328 -2.14588 -6.00192 0
M  V30 1235 C 104.015 -1.46073 -5.93385 0
M  V30 1236 C 105.013 -2.29297 -6.4336 0
M  V30 1237 O 104.701 -3.25867 -7.34892 0
M  V30 1238 H 104.433 0.0551207 -0.673749 0
M  V30 1239 H 106.987 -0.486984 -1.99544 0
M  V30 1240 H 105.217 1.54366 -3.54553 0
M  V30 1241 H 106.906 1.26383 -3.85723 0
M  V30 1242 H 107.672 -1.06016 -4.73271 0
M  V30 1243 H 103.551 0.159613 -4.60724 0
M  V30 1244 H 107.095 -2.79585 -6.39123 0
M  V30 1245 H 102.992 -1.56802 -6.26166 0
M  V30 1246 H 103.76 -3.21278 -7.5281 0
M  V30 1247 N 106.423 1.57458 -0.0668435 0
M  V30 1248 C 107.353 2.15468 0.899764 0
M  V30 1249 C 108.334 1.08042 1.31381 0
M  V30 1250 O 109.519 1.36054 1.38574 0
M  V30 1251 C 106.649 2.71232 2.16911 0
M  V30 1252 C 105.603 3.83781 1.89463 0
M  V30 1253 C 104.929 4.26127 3.22986 0
M  V30 1254 C 106.229 5.08238 1.20381 0
M  V30 1255 H 107.923 2.96488 0.416529 0
M  V30 1256 H 105.469 1.4262 0.198908 0
M  V30 1257 H 107.422 3.10458 2.84945 0
M  V30 1258 H 106.146 1.87426 2.67468 0
M  V30 1259 H 104.805 3.45051 1.23836 0
M  V30 1260 H 104.453 3.39249 3.71374 0
M  V30 1261 H 104.153 5.01993 3.05413 0
M  V30 1262 H 105.677 4.67966 3.92225 0
M  V30 1263 H 107.091 5.44811 1.78475 0
M  V30 1264 H 105.488 5.89349 1.13083 0
M  V30 1265 H 106.558 4.84558 0.182153 0
M  V30 1266 N 107.901 -0.206675 1.56239 0
M  V30 1267 C 109.148 -0.928842 1.79941 0
M  V30 1268 C 109.476 -1.83734 0.638131 0
M  V30 1269 O 108.731 -1.92039 -0.376746 0
M  V30 1270 C 109.03 -1.78675 3.09532 0
M  V30 1271 C 108.696 -1.03022 4.38973 0
M  V30 1272 C 107.358 -0.821302 4.74139 0
M  V30 1273 C 109.71 -0.497081 5.18824 0
M  V30 1274 C 107.038 -0.0675719 5.86661 0
M  V30 1275 C 109.39 0.24338 6.32132 0
M  V30 1276 C 108.054 0.463422 6.65889 0
M  V30 1277 H 107.324 -0.339887 0.658451 0
M  V30 1278 H 109.971 -0.195977 1.90495 0
M  V30 1279 H 108.276 -2.58794 2.94165 0
M  V30 1280 H 109.973 -2.34792 3.25075 0
M  V30 1281 H 106.563 -1.20306 4.11369 0
M  V30 1282 H 110.747 -0.645921 4.92079 0
M  V30 1283 H 106.003 0.112995 6.11296 0
M  V30 1284 H 110.177 0.66393 6.93228 0
M  V30 1285 H 107.804 1.04938 7.52922 0
M  V30 1286 N 109.379 -1.50304 -0.473955 0
M  V30 1287 C 110.342 -1.6841 -1.55469 0
M  V30 1288 C 111.342 -0.554905 -1.50922 0
M  V30 1289 O 112.532 -0.821882 -1.53593 0
M  V30 1290 C 109.664 -1.70667 -2.95102 0
M  V30 1291 H 110.857 -2.64828 -1.40733 0
M  V30 1292 H 108.41 -1.39742 -0.700132 0
M  V30 1293 H 109.145 -0.75932 -3.15285 0
M  V30 1294 H 108.93 -2.52698 -2.9981 0
M  V30 1295 H 110.42 -1.8664 -3.73571 0
M  V30 1296 N 110.857 0.726932 -1.39834 0
M  V30 1297 C 112.103 1.48884 -1.377 0
M  V30 1298 C 112.436 1.94185 0.0244852 0
M  V30 1299 O 111.711 1.67361 0.990986 0
M  V30 1300 C 111.994 2.72288 -2.3565 0
M  V30 1301 C 111.847 2.32956 -3.84775 0
M  V30 1302 C 113.166 3.74414 -2.31306 0
M  V30 1303 H 110.285 0.540062 -0.5015 0
M  V30 1304 H 112.927 0.830547 -1.70886 0
M  V30 1305 H 111.077 3.28457 -2.07481 0
M  V30 1306 H 112.749 1.82356 -4.23726 0
M  V30 1307 H 110.992 1.65088 -4.01159 0
M  V30 1308 H 111.663 3.21362 -4.4881 0
M  V30 1309 H 114.139 3.27849 -2.56231 0
M  V30 1310 H 113.015 4.58414 -3.01907 0
M  V30 1311 H 113.276 4.21909 -1.32081 0
M  V30 1312 N 112.336 1.25143 0.95797 0
M  V30 1313 C 113.299 1.05321 2.03569 0
M  V30 1314 C 114.299 0.007152 1.60798 0
M  V30 1315 O 115.489 0.24903 1.72411 0
M  V30 1316 C 112.621 0.598394 3.35607 0
M  V30 1317 H 113.814 2.00986 2.22586 0
M  V30 1318 H 111.367 1.07502 1.13459 0
M  V30 1319 H 112.102 -0.361014 3.22284 0
M  V30 1320 H 111.887 1.35351 3.67998 0
M  V30 1321 H 113.377 0.48104 4.1482 0
M  V30 1322 N 113.814 -1.1601 1.06675 0
M  V30 1323 C 114.761 -2.20525 0.680967 0
M  V30 1324 C 115.731 -1.62904 -0.324283 0
M  V30 1325 O 116.916 -1.89615 -0.212294 0
M  V30 1326 C 114.056 -3.45013 0.0776551 0
M  V30 1327 C 113.169 -4.16863 1.13355 0
M  V30 1328 C 112.304 -5.2888 0.49597 0
M  V30 1329 C 111.343 -5.92537 1.53513 0
M  V30 1330 N 110.48 -6.96038 0.920631 0
M  V30 1331 H 115.32 -2.52876 1.57663 0
M  V30 1332 H 112.857 -1.24199 0.788223 0
M  V30 1333 H 114.815 -4.16193 -0.289704 0
M  V30 1334 H 113.445 -3.132 -0.781393 0
M  V30 1335 H 112.497 -3.44248 1.61857 0
M  V30 1336 H 113.809 -4.60294 1.92174 0
M  V30 1337 H 112.963 -6.06653 0.0758604 0
M  V30 1338 H 111.702 -4.86622 -0.324062 0
M  V30 1339 H 110.707 -5.13482 1.9651 0
M  V30 1340 H 111.932 -6.36873 2.35733 0
M  V30 1341 H 109.878 -6.55888 0.12138 0
M  V30 1342 H 109.795 -7.3786 1.64616 0
M  V30 1343 H 111.063 -7.77725 0.525795 0
M  V30 1344 N 115.292 -0.849877 -1.32721 0
M  V30 1345 C 116.517 -0.463856 -2.02146 0
M  V30 1346 C 116.942 0.930449 -1.63476 0
M  V30 1347 O 116.3 1.61033 -0.832952 0
M  V30 1348 C 116.348 -0.604955 -3.55489 0
M  V30 1349 O 115.452 0.36425 -4.10788 0
M  V30 1350 H 114.793 -0.187046 -0.637111 0
M  V30 1351 H 117.323 -1.14775 -1.69375 0
M  V30 1352 H 117.333 -0.490696 -4.05038 0
M  V30 1353 H 116.008 -1.62174 -3.82978 0
M  V30 1354 H 114.585 0.206628 -3.72327 0
M  V30 1355 N 116.77 1.45427 -0.607355 0
M  V30 1356 C 117.998 2.06614 -0.108814 0
M  V30 1357 C 118.413 1.45204 1.2067 0
M  V30 1358 O 117.77 0.566132 1.73497 0
M  V30 1359 C 117.821 3.61481 0.0375347 0
M  V30 1360 O 117.542 4.20598 -1.22593 0
M  V30 1361 C 119.043 4.39652 0.567561 0
M  V30 1362 H 116.263 0.66747 -0.0687351 0
M  V30 1363 H 118.807 1.86675 -0.835022 0
M  V30 1364 H 116.962 3.80762 0.714068 0
M  V30 1365 H 117.376 5.1377 -1.05547 0
M  V30 1366 H 118.85 5.48518 0.61905 0
M  V30 1367 H 119.327 4.09417 1.58978 0
M  V30 1368 H 119.933 4.25234 -0.0749202 0
M  V30 1369 N 118.248 0.346503 1.53744 0
M  V30 1370 C 119.196 -0.52422 2.26616 0
M  V30 1371 C 120.19 -1.09948 1.28871 0
M  V30 1372 O 121.396 -1.04488 1.46568 0
M  V30 1373 H 117.771 -0.187743 0.728187 0
M  V30 1374 H 119.742 0.11239 2.98188 0
M  V30 1375 C 118.491 -1.66186 3.05414 0
M  V30 1376 H 117.814 -1.22848 3.80458 0
M  V30 1377 H 119.254 -2.24622 3.59612 0
M  V30 1378 C 117.713 -2.59302 2.1509 0
M  V30 1379 O 118.243 -3.61628 1.74895 0
M  V30 1380 N 116.449 -2.28055 1.8011 0
M  V30 1381 H 115.996 -1.44883 2.12994 0
M  V30 1382 H 115.954 -2.90615 1.19958 0
M  V30 1383 N 119.726 -1.57421 0.075193 0
M  V30 1384 C 120.972 -1.93905 -0.594025 0
M  V30 1385 C 121.305 -0.955701 -1.69056 0
M  V30 1386 O 120.58 0.0145373 -1.94495 0
M  V30 1387 C 120.863 -3.40638 -1.1678 0
M  V30 1388 C 120.716 -4.49733 -0.0776792 0
M  V30 1389 C 122.035 -3.88259 -2.07228 0
M  V30 1390 H 119.154 -0.705105 -0.214466 0
M  V30 1391 H 121.796 -1.8947 0.141854 0
M  V30 1392 H 119.946 -3.44549 -1.79494 0
M  V30 1393 H 121.618 -4.57942 0.555573 0
M  V30 1394 H 119.861 -4.29751 0.591286 0
M  V30 1395 H 120.532 -5.49549 -0.519603 0
M  V30 1396 H 123.008 -3.86376 -1.54445 0
M  V30 1397 H 121.884 -4.91533 -2.44308 0
M  V30 1398 H 122.145 -3.26396 -2.98191 0
M  V30 1399 N 121.204 0.198386 -1.56346 0
M  V30 1400 C 122.152 1.26538 -1.95169 0
M  V30 1401 C 123.146 1.47295 -0.836685 0
M  V30 1402 O 124.352 1.48195 -1.02167 0
M  V30 1403 H 120.727 0.424744 -0.620561 0
M  V30 1404 H 122.698 0.910904 -2.84157 0
M  V30 1405 C 121.447 2.6035 -2.30463 0
M  V30 1406 H 120.77 2.45192 -3.15786 0
M  V30 1407 H 122.21 3.33762 -2.61494 0
M  V30 1408 C 120.669 3.17096 -1.13806 0
M  V30 1409 O 121.199 3.99588 -0.41135 0
M  V30 1410 N 119.405 2.75795 -0.915736 0
M  V30 1411 H 118.952 2.08816 -1.50843 0
M  V30 1412 H 118.91 3.14101 -0.136979 0
M  V30 1413 N 122.682 1.50554 0.465978 0
M  V30 1414 C 123.959 1.5232 1.22712 0
M  V30 1415 C 124.339 0.270807 2.09356 0
M  V30 1416 O 123.687 -0.745541 2.15995 0
M  V30 1417 C 123.897 2.82175 2.05374 0
M  V30 1418 C 125.245 3.33033 2.6339 0
M  V30 1419 O 126.269 2.83531 2.15612 0
M  V30 1420 O 125.128 4.19336 3.50456 0
M  V30 1421 H 122.222 0.611183 0.557122 0
M  V30 1422 H 124.768 1.62847 0.477381 0
M  V30 1423 H 123.54 3.64797 1.41558 0
M  V30 1424 H 123.163 2.74675 2.87471 0
M  V30 1425 N 124.16 -0.719506 1.40217 0
M  V30 1426 C 125.09 -1.8465 1.42922 0
M  V30 1427 C 126.071 -1.67599 0.29062 0
M  V30 1428 O 127.256 -1.87688 0.498677 0
M  V30 1429 C 124.386 -3.22565 1.28722 0
M  V30 1430 C 123.34 -3.54281 2.40144 0
M  V30 1431 C 122.666 -4.91298 2.11023 0
M  V30 1432 C 123.966 -3.55676 3.82481 0
M  V30 1433 H 125.66 -1.82644 2.37237 0
M  V30 1434 H 123.206 -0.877305 1.1419 0
M  V30 1435 H 125.159 -4.01095 1.29232 0
M  V30 1436 H 123.883 -3.25137 0.308811 0
M  V30 1437 H 122.542 -2.78088 2.38877 0
M  V30 1438 H 122.19 -4.90468 1.11582 0
M  V30 1439 H 121.89 -5.13485 2.8567 0
M  V30 1440 H 123.414 -5.72166 2.13209 0
M  V30 1441 H 124.828 -4.24254 3.85592 0
M  V30 1442 H 123.225 -3.89388 4.56614 0
M  V30 1443 H 124.295 -2.55144 4.12346 0
M  V30 1444 N 125.638 -1.25649 -0.95132 0
M  V30 1445 C 126.57 -1.02112 -2.05197 0
M  V30 1446 C 127.583 0.0150571 -1.62793 0
M  V30 1447 O 128.772 -0.223874 -1.77091 0
M  V30 1448 C 125.872 -0.522361 -3.3485 0
M  V30 1449 C 125.045 -1.62546 -4.06076 0
M  V30 1450 C 124.104 -1.12649 -5.14001 0
M  V30 1451 O 123.13 -1.82156 -5.39266 0
M  V30 1452 N 124.332 0.03047 -5.80492 0
M  V30 1453 H 127.097 -1.96885 -2.25957 0
M  V30 1454 H 124.658 -1.16899 -1.1201 0
M  V30 1455 H 126.65 -0.172961 -4.0433 0
M  V30 1456 H 125.22 0.33151 -3.10837 0
M  V30 1457 H 124.44 -2.14628 -3.30649 0
M  V30 1458 H 125.728 -2.36644 -4.50419 0
M  V30 1459 H 125.126 0.611169 -5.62389 0
M  V30 1460 H 123.683 0.320875 -6.5101 0
M  V30 1461 N 127.117 1.15442 -1.07289 0
M  V30 1462 C 128.065 2.22225 -0.686952 0
M  V30 1463 C 129.059 1.66688 0.30193 0
M  V30 1464 O 130.265 1.79236 0.165712 0
M  V30 1465 H 126.64 0.723783 -0.204064 0
M  V30 1466 H 128.611 2.52056 -1.5972 0
M  V30 1467 C 127.36 3.47556 -0.100149 0
M  V30 1468 H 126.683 3.90612 -0.852211 0
M  V30 1469 H 128.123 4.23794 0.132235 0
M  V30 1470 C 126.582 3.16337 1.159 0
M  V30 1471 O 127.112 3.33074 2.24555 0
M  V30 1472 N 125.318 2.70385 1.06491 0
M  V30 1473 H 124.865 2.56966 0.180668 0
M  V30 1474 H 124.823 2.49871 1.90819 0
M  V30 1475 N 128.595 0.856903 1.32268 0
M  V30 1476 C 129.558 0.308171 2.27119 0
M  V30 1477 C 130.558 -0.533421 1.51695 0
M  V30 1478 O 131.748 -0.344607 1.70757 0
M  V30 1479 C 128.88 -0.563757 3.36206 0
M  V30 1480 H 130.073 1.14535 2.77167 0
M  V30 1481 H 127.626 0.631421 1.42978 0
M  V30 1482 H 128.361 -1.42266 2.91429 0
M  V30 1483 H 128.146 0.0386749 3.92081 0
M  V30 1484 H 129.636 -0.940386 4.06874 0
M  V30 1485 N 130.073 -1.45103 0.615059 0
M  V30 1486 C 131.003 -2.33339 -0.0865619 0
M  V30 1487 C 131.984 -1.4727 -0.851209 0
M  V30 1488 O 133.169 -1.76026 -0.820281 0
M  V30 1489 C 130.299 -3.30095 -1.07956 0
M  V30 1490 C 129.253 -4.25858 -0.427628 0
M  V30 1491 C 128.579 -5.12361 -1.5294 0
M  V30 1492 C 129.879 -5.18165 0.655944 0
M  V30 1493 H 131.573 -2.92254 0.650224 0
M  V30 1494 H 129.119 -1.40532 0.314138 0
M  V30 1495 H 131.072 -3.90698 -1.57901 0
M  V30 1496 H 129.796 -2.69355 -1.84703 0
M  V30 1497 H 128.455 -3.66564 0.0510292 0
M  V30 1498 H 128.103 -4.47984 -2.28734 0
M  V30 1499 H 127.803 -5.77238 -1.09865 0
M  V30 1500 H 129.327 -5.75833 -2.03098 0
M  V30 1501 H 130.741 -5.72796 0.240257 0
M  V30 1502 H 129.138 -5.91559 1.00888 0
M  V30 1503 H 130.208 -4.60144 1.52957 0
M  V30 1504 N 131.551 -0.354651 -1.53558 0
M  V30 1505 C 132.498 0.496968 -2.25386 0
M  V30 1506 C 133.468 1.0865 -1.25636 0
M  V30 1507 O 134.653 1.12104 -1.54394 0
M  V30 1508 C 131.793 1.63637 -3.03837 0
M  V30 1509 C 130.906 1.07307 -4.18461 0
M  V30 1510 C 130.041 2.18068 -4.84376 0
M  V30 1511 C 129.08 1.59147 -5.91049 0
M  V30 1512 N 128.217 2.63695 -6.50699 0
M  V30 1513 H 133.057 -0.122075 -2.9775 0
M  V30 1514 H 130.594 -0.0720154 -1.46924 0
M  V30 1515 H 132.552 2.30734 -3.47589 0
M  V30 1516 H 131.182 2.22623 -2.33749 0
M  V30 1517 H 130.234 0.292708 -3.79272 0
M  V30 1518 H 131.546 0.602193 -4.95152 0
M  V30 1519 H 130.7 2.93007 -5.31255 0
M  V30 1520 H 129.439 2.68504 -4.07133 0
M  V30 1521 H 128.444 0.827175 -5.43542 0
M  V30 1522 H 129.669 1.09549 -6.70206 0
M  V30 1523 H 127.615 3.13365 -5.76315 0
M  V30 1524 H 127.532 2.21263 -7.22896 0
M  V30 1525 H 128.8 3.3837 -7.02229 0
M  V30 1526 N 133.029 1.57378 -0.0835403 0
M  V30 1527 C 134.257 1.98263 0.59157 0
M  V30 1528 C 134.672 0.962302 1.62435 0
M  V30 1529 O 134.029 -0.049581 1.82433 0
M  V30 1530 C 134.08 3.39214 1.24965 0
M  V30 1531 O 133.801 4.37339 0.258186 0
M  V30 1532 C 135.302 3.95038 2.01147 0
M  V30 1533 H 132.522 0.651773 0.159477 0
M  V30 1534 H 135.066 2.03878 -0.159415 0
M  V30 1535 H 133.221 3.34649 1.95164 0
M  V30 1536 H 133.635 5.19371 0.731734 0
M  V30 1537 H 135.109 4.95848 2.42567 0
M  V30 1538 H 135.586 3.32222 2.87272 0
M  V30 1539 H 136.192 4.0304 1.35789 0
M  V30 1540 N 134.507 -0.190092 1.56449 0
M  V30 1541 C 135.923 -0.54113 1.50146 0
M  V30 1542 C 136.123 -1.85603 0.784465 0
M  V30 1543 O 135.179 -2.5024 0.337051 0
M  V30 1544 C 136.492 -0.591241 2.9483 0
M  V30 1545 C 138.04 -0.679732 3.0553 0
M  V30 1546 C 138.515 -0.760908 4.51635 0
M  V30 1547 N 140.006 -0.824302 4.55806 0
M  V30 1548 C 140.741 -0.907365 5.66175 0
M  V30 1549 N 140.237 -0.952422 6.86222 0
M  V30 1550 N 142.03 -0.94494 5.541 0
M  V30 1551 H 134.181 0.67235 2.01478 0
M  V30 1552 H 136.444 0.240127 0.917084 0
M  V30 1553 H 136.15 0.305905 3.50367 0
M  V30 1554 H 136.024 -1.44422 3.48457 0
M  V30 1555 H 138.411 -1.56731 2.50039 0
M  V30 1556 H 138.492 0.199549 2.5502 0
M  V30 1557 H 138.136 0.122336 5.07753 0
M  V30 1558 H 138.066 -1.65606 4.99882 0
M  V30 1559 H 140.557 -0.798526 3.69367 0
M  V30 1560 H 140.87 -1.01645 7.66086 0
M  V30 1561 H 139.215 -0.921014 6.8887 0
M  V30 1562 H 142.406 -0.906612 4.59236 0
M  V30 1563 H 142.579 -1.00622 6.4014 0
M  V30 1564 N 135.985 -1.50799 -0.457987 0
M  V30 1565 C 137.213 -1.66218 -1.23203 0
M  V30 1566 C 137.628 -0.350894 -1.85511 0
M  V30 1567 O 136.985 0.668546 -1.69814 0
M  V30 1568 C 137.036 -2.76291 -2.33121 0
M  V30 1569 O 136.757 -4.02338 -1.73366 0
M  V30 1570 C 138.258 -3.028 -3.2377 0
M  V30 1571 H 135.478 -0.558361 -0.372121 0
M  V30 1572 H 138.022 -1.97099 -0.545179 0
M  V30 1573 H 136.177 -2.48068 -2.97558 0
M  V30 1574 H 136.591 -4.63312 -2.4585 0
M  V30 1575 H 138.065 -3.8345 -3.97077 0
M  V30 1576 H 138.542 -2.14385 -3.83322 0
M  V30 1577 H 139.148 -3.32604 -2.65056 0
M  V30 1578 N 137.463 0.71206 -1.40597 0
M  V30 1579 C 138.393 1.83889 -1.43899 0
M  V30 1580 C 139.374 1.67442 -0.299504 0
M  V30 1581 O 140.559 1.87421 -0.508624 0
M  V30 1582 C 137.689 3.21877 -1.30431 0
M  V30 1583 C 136.643 3.53002 -2.42019 0
M  V30 1584 C 135.969 4.90172 -2.13626 0
M  V30 1585 C 137.269 3.53643 -3.84362 0
M  V30 1586 H 138.963 1.81383 -2.38203 0
M  V30 1587 H 136.509 0.871237 -1.14654 0
M  V30 1588 H 138.462 4.00404 -1.31357 0
M  V30 1589 H 137.186 3.24968 -0.326049 0
M  V30 1590 H 135.845 2.76818 -2.40349 0
M  V30 1591 H 135.493 4.89869 -1.14182 0
M  V30 1592 H 135.193 5.11962 -2.88389 0
M  V30 1593 H 136.717 5.71028 -2.1624 0
M  V30 1594 H 138.131 4.22203 -3.87837 0
M  V30 1595 H 136.528 3.86961 -4.58673 0
M  V30 1596 H 137.598 2.52954 -4.13693 0
M  V30 1597 N 138.941 1.26152 0.944643 0
M  V30 1598 C 140.19 1.10883 1.68487 0
M  V30 1599 C 140.503 -0.348153 1.92477 0
M  V30 1600 O 141.709 -0.621459 2.64292 0
M  V30 1601 C 140.165 1.93624 3.03377 0
M  V30 1602 C 139.773 3.43875 2.87148 0
M  V30 1603 C 141.517 1.86954 3.81115 0
M  V30 1604 C 139.424 4.18875 4.1749 0
M  V30 1605 H 138.354 0.41135 0.631907 0
M  V30 1606 H 141.005 1.50433 1.05082 0
M  V30 1607 H 139.387 1.46904 3.67743 0
M  V30 1608 H 140.561 3.98338 2.31653 0
M  V30 1609 H 138.876 3.51744 2.22856 0
M  V30 1610 H 141.473 2.40275 4.77673 0
M  V30 1611 H 141.816 0.839518 4.07747 0
M  V30 1612 H 142.349 2.31477 3.23517 0
M  V30 1613 H 139.088 5.22332 3.96043 0
M  V30 1614 H 138.608 3.69193 4.72712 0
M  V30 1615 H 140.287 4.27134 4.85968 0
M  V30 1616 N 140.419 -1.14872 1.07899 0
M  V30 1617 C 141.666 -1.85789 0.805532 0
M  V30 1618 C 141.994 -1.82649 -0.668561 0
M  V30 1619 O 141.249 -1.24858 -1.50695 0
M  V30 1620 C 141.548 -3.34223 1.26609 0
M  V30 1621 C 141.214 -3.57555 2.74709 0
M  V30 1622 C 139.876 -3.63631 3.1516 0
M  V30 1623 C 142.228 -3.66803 3.70277 0
M  V30 1624 C 139.556 -3.76473 4.49983 0
M  V30 1625 C 141.908 -3.8117 5.04869 0
M  V30 1626 C 140.572 -3.85494 5.44932 0
M  V30 1627 H 139.842 -0.679849 0.294765 0
M  V30 1628 H 142.489 -1.3572 1.35101 0
M  V30 1629 H 140.794 -3.86536 0.640103 0
M  V30 1630 H 142.491 -3.87511 1.03132 0
M  V30 1631 H 139.081 -3.5347 2.42398 0
M  V30 1632 H 143.265 -3.61404 3.40149 0
M  V30 1633 H 138.521 -3.7808 4.80484 0
M  V30 1634 H 142.695 -3.87268 5.78789 0
M  V30 1635 H 140.322 -3.95197 6.49403 0
M  V30 1636 N 141.898 -0.863906 -1.31812 0
M  V30 1637 C 143.175 -0.39275 -1.91616 0
M  V30 1638 C 143.555 1.12461 -1.7865 0
M  V30 1639 O 142.903 1.95045 -1.19037 0
M  V30 1640 C 143.113 -0.867385 -3.38049 0
M  V30 1641 C 144.461 -0.889966 -4.15168 0
M  V30 1642 O 145.485 -0.812635 -3.46806 0
M  V30 1643 O 144.344 -1.00079 -5.37258 0
M  V30 1644 H 141.438 -0.116358 -0.818773 0
M  V30 1645 H 143.984 -0.951418 -1.40521 0
M  V30 1646 H 142.756 -1.91081 -3.41473 0
M  V30 1647 H 142.379 -0.286687 -3.96565 0
M  V30 1648 N 143.376 1.44774 -0.622745 0
M  V30 1649 C 144.792 1.56986 -0.287652 0
M  V30 1650 C 144.992 1.61167 1.20944 0
M  V30 1651 O 144.048 1.55015 1.99315 0
M  V30 1652 C 145.361 2.84551 -0.972188 0
M  V30 1653 C 146.909 2.9825 -0.949536 0
M  V30 1654 C 147.384 4.28605 -1.61437 0
M  V30 1655 N 148.875 4.35399 -1.58057 0
M  V30 1656 C 149.61 5.34964 -2.064 0
M  V30 1657 N 149.106 6.40981 -2.62897 0
M  V30 1658 N 150.899 5.26419 -1.97078 0
M  V30 1659 H 143.05 1.40304 -1.59463 0
M  V30 1660 H 145.313 0.671794 -0.668878 0
M  V30 1661 H 145.019 2.87417 -2.02693 0
M  V30 1662 H 144.893 3.73807 -0.504771 0
M  V30 1663 H 147.28 2.94941 0.0967067 0
M  V30 1664 H 147.361 2.10364 -1.45536 0
M  V30 1665 H 147.005 4.32672 -2.66002 0
M  V30 1666 H 146.935 5.15334 -1.08344 0
M  V30 1667 H 149.426 3.59397 -1.16801 0
M  V30 1668 H 149.739 7.13225 -2.97539 0
M  V30 1669 H 148.084 6.4169 -2.66943 0
M  V30 1670 H 151.275 4.42504 -1.52669 0
M  V30 1671 H 151.448 6.03861 -2.35066 0
M  V30 1672 N 144.854 0.36279 1.53368 0
M  V30 1673 C 145.764 -0.492994 2.29362 0
M  V30 1674 C 146.78 -1.09507 1.35219 0
M  V30 1675 O 147.956 -1.10662 1.68273 0
M  V30 1676 C 145.021 -1.61855 3.066 0
M  V30 1677 C 144.082 -1.04429 4.16405 0
M  V30 1678 C 143.315 -2.11621 4.89951 0
M  V30 1679 O 143.538 -3.32684 4.63333 0
M  V30 1680 O 142.472 -1.74835 5.75948 0
M  V30 1681 H 146.298 0.125331 3.03441 0
M  V30 1682 H 143.883 0.127253 1.48857 0
M  V30 1683 H 145.765 -2.27302 3.54841 0
M  V30 1684 H 144.44 -2.22233 2.3536 0
M  V30 1685 H 143.347 -0.353819 3.72423 0
M  V30 1686 H 144.68 -0.485113 4.89804 0
M  V30 1687 N 146.332 -1.57332 0.0918853 0
M  V30 1688 C 147.242 -2.17368 -0.882505 0
M  V30 1689 C 148.258 -1.14226 -1.31257 0
M  V30 1690 O 149.434 -1.46582 -1.38115 0
M  V30 1691 C 146.499 -2.73962 -2.12476 0
M  V30 1692 C 145.56 -3.92048 -1.7492 0
M  V30 1693 C 144.793 -4.45933 -2.93223 0
M  V30 1694 O 145.016 -3.98764 -4.07852 0
M  V30 1695 O 143.95 -5.36999 -2.71875 0
M  V30 1696 H 147.776 -3.01031 -0.40172 0
M  V30 1697 H 145.361 -1.48813 -0.132291 0
M  V30 1698 H 147.243 -3.10147 -2.85283 0
M  V30 1699 H 145.918 -1.93347 -2.59613 0
M  V30 1700 H 144.825 -3.6068 -0.993025 0
M  V30 1701 H 146.158 -4.74017 -1.32548 0
M  V30 1702 N 147.81 0.181792 -1.56548 0
M  V30 1703 C 148.757 1.22521 -1.95595 0
M  V30 1704 C 149.727 1.4454 -0.818373 0
M  V30 1705 O 150.912 1.57454 -1.07763 0
M  V30 1706 C 148.052 2.56193 -2.31212 0
M  V30 1707 C 147.165 2.41641 -3.58097 0
M  V30 1708 C 146.3 3.68108 -3.82975 0
M  V30 1709 C 145.339 3.48445 -5.03242 0
M  V30 1710 N 144.476 4.66956 -5.24306 0
M  V30 1711 H 149.316 0.885226 -2.84548 0
M  V30 1712 H 146.853 0.425718 -1.40805 0
M  V30 1713 H 148.811 3.34088 -2.49882 0
M  V30 1714 H 147.441 2.88208 -1.45382 0
M  V30 1715 H 146.493 1.54976 -3.474 0
M  V30 1716 H 147.805 2.23052 -4.46149 0
M  V30 1717 H 146.959 4.54441 -4.01956 0
M  V30 1718 H 145.698 3.89666 -2.93278 0
M  V30 1719 H 144.703 2.60499 -4.8417 0
M  V30 1720 H 145.928 3.2832 -5.9446 0
M  V30 1721 H 143.874 4.88752 -4.37559 0
M  V30 1722 H 143.791 4.51242 -6.06561 0
M  V30 1723 H 145.059 5.54602 -5.47756 0
M  V30 1724 N 149.288 1.51039 0.449983 0
M  V30 1725 C 150.198 1.74261 1.57067 0
M  V30 1726 C 151.214 0.626363 1.62335 0
M  V30 1727 O 152.39 0.907162 1.79812 0
M  V30 1728 C 149.455 1.85114 2.93144 0
M  V30 1729 C 148.516 3.0893 2.98095 0
M  V30 1730 C 147.749 3.19256 4.27681 0
M  V30 1731 O 147.972 2.35835 5.19363 0
M  V30 1732 O 146.906 4.12144 4.38658 0
M  V30 1733 H 150.732 2.69303 1.40391 0
M  V30 1734 H 148.317 1.35389 0.631688 0
M  V30 1735 H 150.199 1.94311 3.73926 0
M  V30 1736 H 148.874 0.932588 3.09975 0
M  V30 1737 H 147.781 3.0522 2.16314 0
M  V30 1738 H 149.114 4.00433 2.86206 0
M  V30 1739 N 150.766 -0.704594 1.40972 0
M  V30 1740 C 151.729 -1.80035 1.41845 0
M  V30 1741 C 152.729 -1.57774 0.310474 0
M  V30 1742 O 153.919 -1.64613 0.56992 0
M  V30 1743 C 151.051 -3.18284 1.22098 0
M  V30 1744 H 152.244 -1.80658 2.3938 0
M  V30 1745 H 149.797 -0.911329 1.26982 0
M  V30 1746 H 150.532 -3.23306 0.253672 0
M  V30 1747 H 150.317 -3.35843 2.02366 0
M  V30 1748 H 151.807 -3.98289 1.25522 0
M  V30 1749 N 152.244 -1.26651 -0.937939 0
M  V30 1750 C 153.492 -1.12165 -1.68118 0
M  V30 1751 C 153.813 0.334983 -1.92101 0
M  V30 1752 O 153.083 1.23583 -1.52 0
M  V30 1753 H 151.663 -0.412093 -0.623048 0
M  V30 1754 H 154.325 -1.59027 -1.12678 0
M  V30 1755 H 153.421 -1.64289 -2.6536 0
M  V30 1756 N 153.722 1.14298 -1.08507 0
M  V30 1757 C 154.685 2.17607 -0.719711 0
M  V30 1758 C 155.685 1.58907 0.245997 0
M  V30 1759 O 156.875 1.74181 0.0254081 0
M  V30 1760 C 154.007 3.40842 -0.0627695 0
M  V30 1761 H 155.2 2.51443 -1.63452 0
M  V30 1762 H 152.753 1.28963 -0.88307 0
M  V30 1763 H 153.488 3.12587 0.863716 0
M  V30 1764 H 153.273 3.84713 -0.757504 0
M  V30 1765 H 154.763 4.17221 0.177786 0
M  V30 1766 N 155.201 0.870884 1.31352 0
M  V30 1767 C 156.131 0.343096 2.30966 0
M  V30 1768 C 157.112 -0.566507 1.60389 0
M  V30 1769 O 158.297 -0.483336 1.88089 0
M  V30 1770 C 155.427 -0.455487 3.443 0
M  V30 1771 C 154.381 0.361103 4.26474 0
M  V30 1772 C 153.707 -0.563221 5.31725 0
M  V30 1773 C 155.007 1.59566 4.97329 0
M  V30 1774 H 156.701 1.17548 2.75359 0
M  V30 1775 H 154.247 0.566686 1.32381 0
M  V30 1776 H 156.2 -0.83525 4.13039 0
M  V30 1777 H 154.924 -1.32139 2.98675 0
M  V30 1778 H 153.583 0.722825 3.59403 0
M  V30 1779 H 153.231 -1.42643 4.82351 0
M  V30 1780 H 152.931 -0.0207409 5.87596 0
M  V30 1781 H 154.455 -0.939808 6.03324 0
M  V30 1782 H 155.869 1.28728 5.58661 0
M  V30 1783 H 154.266 2.07728 5.63 0
M  V30 1784 H 155.336 2.34798 4.24262 0
M  V30 1785 N 156.679 -1.44442 0.630414 0
M  V30 1786 C 157.904 -2.06927 0.139944 0
M  V30 1787 C 158.329 -1.46795 -1.17613 0
M  V30 1788 O 157.687 -0.569144 -1.72135 0
M  V30 1789 C 157.735 -3.6058 0.0379581 0
M  V30 1790 O 156.839 -3.99937 -1.0062 0
M  V30 1791 H 156.18 -0.658608 0.0844483 0
M  V30 1792 H 158.71 -1.85327 0.866891 0
M  V30 1793 H 158.72 -4.07714 -0.152856 0
M  V30 1794 H 157.395 -4.03728 0.998809 0
M  V30 1795 H 155.972 -3.64436 -0.79001 0
M  V30 1796 N 158.157 -0.370918 -1.53173 0
M  V30 1797 C 159.405 0.216673 -2.00935 0
M  V30 1798 C 159.726 1.48845 -1.25977 0
M  V30 1799 O 158.996 1.92286 -0.374551 0
M  V30 1800 H 157.576 0.0830565 -0.742368 0
M  V30 1801 H 160.238 -0.49838 -1.8842 0
M  V30 1802 H 159.334 0.439893 -3.08984 0
M  V30 1803 N 159.635 1.57281 -0.100228 0
M  V30 1804 C 160.567 2.11342 0.886972 0
M  V30 1805 C 161.58 1.05182 1.24261 0
M  V30 1806 O 162.769 1.32613 1.19483 0
M  V30 1807 C 159.869 2.5825 2.19454 0
M  V30 1808 C 159.042 3.88302 2.01346 0
M  V30 1809 C 158.101 4.21004 3.15661 0
M  V30 1810 O 157.127 4.9014 2.89398 0
M  V30 1811 N 158.329 3.76818 4.41575 0
M  V30 1812 H 161.094 2.96668 0.425216 0
M  V30 1813 H 158.655 1.61678 0.0847334 0
M  V30 1814 H 160.647 2.7717 2.94888 0
M  V30 1815 H 159.217 1.77907 2.57037 0
M  V30 1816 H 158.437 3.7848 1.10212 0
M  V30 1817 H 159.725 4.73375 1.8653 0
M  V30 1818 H 159.123 3.2102 4.65792 0
M  V30 1819 H 157.68 4.00882 5.13942 0
M  V30 1820 N 161.113 -0.173488 1.56642 0
M  V30 1821 C 162.06 -1.21482 1.96242 0
M  V30 1822 C 163.03 -1.44104 0.826027 0
M  V30 1823 O 164.215 -1.5688 1.08597 0
M  V30 1824 C 161.355 -2.54964 2.32567 0
M  V30 1825 C 160.468 -2.39739 3.59373 0
M  V30 1826 C 159.603 -3.66072 3.84921 0
M  V30 1827 C 158.642 -3.45771 5.05083 0
M  V30 1828 N 157.779 -4.64169 5.26775 0
M  V30 1829 H 162.619 -0.870123 2.85014 0
M  V30 1830 H 160.156 -0.418245 1.41029 0
M  V30 1831 H 162.114 -3.32758 2.5165 0
M  V30 1832 H 160.744 -2.87433 1.46908 0
M  V30 1833 H 159.796 -1.53131 3.48217 0
M  V30 1834 H 161.108 -2.20683 4.47326 0
M  V30 1835 H 160.262 -4.52303 4.0436 0
M  V30 1836 H 159.001 -3.88105 2.9534 0
M  V30 1837 H 158.006 -2.57927 4.85545 0
M  V30 1838 H 159.231 -3.25163 5.96193 0
M  V30 1839 H 157.177 -4.86425 4.40144 0
M  V30 1840 H 157.094 -4.48019 6.08946 0
M  V30 1841 H 158.362 -5.51689 5.5069 0
M  V30 1842 N 162.591 -1.51276 -0.441967 0
M  V30 1843 C 163.839 -1.63392 -1.18943 0
M  V30 1844 C 164.16 -0.350159 -1.9183 0
M  V30 1845 O 163.43 0.633784 -1.85364 0
M  V30 1846 H 162.01 -0.602164 -0.442049 0
M  V30 1847 H 164.672 -1.88186 -0.507165 0
M  V30 1848 H 163.768 -2.45934 -1.92154 0
M  V30 1849 N 164.069 0.697108 -1.41344 0
M  V30 1850 C 165.297 1.48593 -1.43972 0
M  V30 1851 C 165.712 1.88747 -0.0445612 0
M  V30 1852 O 165.069 1.56682 0.935785 0
M  V30 1853 C 165.12 2.74946 -2.34706 0
M  V30 1854 O 164.841 2.36484 -3.68791 0
M  V30 1855 C 166.342 3.687 -2.46121 0
M  V30 1856 H 163.562 0.457964 -0.490418 0
M  V30 1857 H 166.106 0.858429 -1.8561 0
M  V30 1858 H 164.261 3.33937 -1.9638 0
M  V30 1859 H 164.675 3.17918 -4.17167 0
M  V30 1860 H 166.149 4.54145 -3.13777 0
M  V30 1861 H 166.626 4.13081 -1.49199 0
M  V30 1862 H 167.232 3.15613 -2.85076 0
M  V30 1863 N 165.547 1.27147 0.931209 0
M  V30 1864 C 166.777 1.15914 1.71019 0
M  V30 1865 C 167.185 -0.287112 1.87009 0
M  V30 1866 O 166.528 -1.20761 1.38429 0
M  V30 1867 C 166.59 1.76647 3.13107 0
M  V30 1868 C 166.254 3.25807 3.20467 0
M  V30 1869 C 167.251 4.22489 3.02983 0
M  V30 1870 C 164.936 3.66452 3.43538 0
M  V30 1871 C 166.93 5.57794 3.08454 0
M  V30 1872 C 164.617 5.01888 3.48643 0
M  V30 1873 C 165.615 5.97369 3.31119 0
M  V30 1874 O 165.303 7.30337 3.35952 0
M  V30 1875 H 165.035 0.404062 0.54195 0
M  V30 1876 H 167.589 1.68457 1.17521 0
M  V30 1877 H 165.819 1.18578 3.68071 0
M  V30 1878 H 167.508 1.60179 3.72958 0
M  V30 1879 H 168.274 3.92425 2.85004 0
M  V30 1880 H 164.153 2.92611 3.5623 0
M  V30 1881 H 167.697 6.32298 2.94694 0
M  V30 1882 H 163.594 5.31609 3.66145 0
M  V30 1883 H 164.362 7.38739 3.5243 0
M  V30 1884 N 167.025 -1.13721 1.09112 0
M  V30 1885 C 168.271 -1.85198 0.826414 0
M  V30 1886 C 168.604 -1.83129 -0.646319 0
M  V30 1887 O 167.879 -1.2671 -1.47563 0
M  V30 1888 C 168.162 -3.33507 1.35812 0
M  V30 1889 C 168.015 -3.44108 2.89672 0
M  V30 1890 C 169.334 -4.28838 0.989256 0
M  V30 1891 H 166.453 -0.67243 0.301675 0
M  V30 1892 H 169.095 -1.33499 1.35197 0
M  V30 1893 H 167.245 -3.77666 0.911082 0
M  V30 1894 H 168.917 -3.08684 3.428 0
M  V30 1895 H 167.16 -2.85087 3.26967 0
M  V30 1896 H 167.831 -4.48388 3.21951 0
M  V30 1897 H 170.307 -3.92734 1.37475 0
M  V30 1898 H 169.183 -5.31051 1.38838 0
M  V30 1899 H 169.444 -4.4198 -0.102924 0
M  V30 1900 N 168.503 -0.877838 -1.30888 0
M  V30 1901 C 169.413 -0.343096 -2.32078 0
M  V30 1902 C 170.429 0.551022 -1.65045 0
M  V30 1903 O 171.605 0.445854 -1.96403 0
M  V30 1904 C 168.67 0.439905 -3.43898 0
M  V30 1905 C 167.731 -0.483111 -4.26573 0
M  V30 1906 C 166.964 0.262616 -5.33053 0
M  V30 1907 O 167.187 1.48967 -5.50604 0
M  V30 1908 O 166.121 -0.383593 -6.00676 0
M  V30 1909 H 169.947 -1.18203 -2.79753 0
M  V30 1910 H 167.532 -0.64145 -1.34929 0
M  V30 1911 H 169.414 0.883504 -4.12034 0
M  V30 1912 H 168.089 1.25526 -2.98371 0
M  V30 1913 H 166.996 -0.975374 -3.61161 0
M  V30 1914 H 168.329 -1.26427 -4.75686 0
M  V30 1915 N 169.982 1.44106 -0.638065 0
M  V30 1916 C 170.912 2.33448 0.0494287 0
M  V30 1917 C 171.893 1.48606 0.827672 0
M  V30 1918 O 173.078 1.77308 0.792173 0
M  V30 1919 C 170.208 3.31771 1.02691 0
M  V30 1920 C 169.162 4.26485 0.359823 0
M  V30 1921 C 168.488 5.14729 1.44769 0
M  V30 1922 C 169.788 5.17056 -0.738296 0
M  V30 1923 H 171.482 2.91183 -0.696636 0
M  V30 1924 H 169.028 1.40014 -0.336456 0
M  V30 1925 H 170.981 3.93161 1.51666 0
M  V30 1926 H 169.705 2.7226 1.80395 0
M  V30 1927 H 168.364 3.66437 -0.10934 0
M  V30 1928 H 168.012 4.51566 2.21578 0
M  V30 1929 H 167.712 5.78913 1.00668 0
M  V30 1930 H 169.236 5.78991 1.93911 0
M  V30 1931 H 170.65 5.72342 -0.331354 0
M  V30 1932 H 169.047 5.89879 -1.10286 0
M  V30 1933 H 170.117 4.57652 -1.60258 0
M  V30 1934 N 171.46 0.379036 1.52974 0
M  V30 1935 C 172.688 -0.20679 2.05864 0
M  V30 1936 C 173.103 -1.41356 1.25155 0
M  V30 1937 O 172.46 -1.8009 0.295588 0
M  V30 1938 C 172.511 -0.587045 3.56702 0
M  V30 1939 O 172.232 0.571776 4.34353 0
M  V30 1940 C 173.733 -1.22983 4.25899 0
M  V30 1941 H 170.953 -0.0336123 0.670158 0
M  V30 1942 H 173.497 0.541298 1.97206 0
M  V30 1943 H 171.652 -1.28504 3.65466 0
M  V30 1944 H 172.066 0.261544 5.23847 0
M  V30 1945 H 173.54 -1.44635 5.32715 0
M  V30 1946 H 174.017 -2.19416 3.80465 0
M  V30 1947 H 174.623 -0.572892 4.21424 0
M  V30 1948 N 172.938 -1.57226 0.108567 0
M  V30 1949 C 174.215 -1.86333 -0.594939 0
M  V30 1950 C 174.595 -1.00788 -1.85486 0
M  V30 1951 O 173.943 -0.0839293 -2.28346 0
M  V30 1952 C 174.153 -3.37265 -0.897405 0
M  V30 1953 C 175.501 -4.05629 -1.25501 0
M  V30 1954 O 176.525 -3.42224 -0.987998 0
M  V30 1955 O 175.384 -5.17531 -1.75567 0
M  V30 1956 H 172.478 -0.771018 -0.2991 0
M  V30 1957 H 175.024 -1.69102 0.142283 0
M  V30 1958 H 173.796 -3.913 -0.00413806 0
M  V30 1959 H 173.419 -3.59889 -1.69014 0
M  V30 1960 N 174.416 0.165178 -1.56732 0
M  V30 1961 C 175.665 0.879143 -1.81532 0
M  V30 1962 C 175.978 1.83144 -0.686842 0
M  V30 1963 O 177.184 2.58823 -0.819944 0
M  V30 1964 C 175.64 1.61388 -3.21686 0
M  V30 1965 C 175.248 0.704904 -4.4242 0
M  V30 1966 C 176.992 2.3157 -3.55774 0
M  V30 1967 C 174.899 1.44022 -5.73595 0
M  V30 1968 H 173.829 0.332033 -0.676957 0
M  V30 1969 H 176.48 0.132008 -1.83025 0
M  V30 1970 H 174.862 2.40599 -3.14529 0
M  V30 1971 H 176.036 -0.0506815 -4.60772 0
M  V30 1972 H 174.351 0.112419 -4.16248 0
M  V30 1973 H 176.948 2.8719 -4.51028 0
M  V30 1974 H 177.291 3.07201 -2.8095 0
M  V30 1975 H 177.824 1.59297 -3.64513 0
M  V30 1976 H 174.563 0.72612 -6.51466 0
M  V30 1977 H 174.083 2.16898 -5.5921 0
M  V30 1978 H 175.762 1.98606 -6.15764 0
M  V30 1979 N 175.894 1.51508 0.433938 0
M  V30 1980 C 177.119 1.68443 1.21003 0
M  V30 1981 C 177.544 0.382636 1.84167 0
M  V30 1982 O 176.902 -0.65755 1.68956 0
M  V30 1983 C 176.95 2.80405 2.26727 0
M  V30 1984 O 176.054 2.44245 3.32292 0
M  V30 1985 H 175.395 0.561536 0.354363 0
M  V30 1986 H 177.925 1.9809 0.512024 0
M  V30 1987 H 177.935 3.0459 2.71457 0
M  V30 1988 H 176.61 3.74867 1.80132 0
M  V30 1989 H 175.187 2.30644 2.93015 0
M  V30 1990 N 177.372 -0.689602 1.41712 0
M  V30 1991 C 178.319 -1.80345 1.44029 0
M  V30 1992 C 179.289 -1.63478 0.293948 0
M  V30 1993 O 180.474 -1.84244 0.495869 0
M  V30 1994 C 177.614 -3.18272 1.33405 0
M  V30 1995 C 176.727 -3.46529 2.57956 0
M  V30 1996 C 175.862 -4.74103 2.39582 0
M  V30 1997 C 174.901 -4.95347 3.5958 0
M  V30 1998 N 174.038 -6.14151 3.40239 0
M  V30 1999 H 178.878 -1.77698 2.39222 0
M  V30 2000 H 176.415 -0.867688 1.18784 0
M  V30 2001 H 178.373 -3.97956 1.25246 0
M  V30 2002 H 177.003 -3.2008 0.418164 0
M  V30 2003 H 176.055 -2.61207 2.76542 0
M  V30 2004 H 177.367 -3.58126 3.47199 0
M  V30 2005 H 176.521 -5.61853 2.28924 0
M  V30 2006 H 175.26 -4.64763 1.47805 0
M  V30 2007 H 174.265 -4.06044 3.70686 0
M  V30 2008 H 175.49 -5.06542 4.52318 0
M  V30 2009 H 173.436 -6.06013 2.51167 0
M  V30 2010 H 173.353 -6.26543 4.23061 0
M  V30 2011 H 174.621 -7.04619 3.33365 0
M  V30 2012 N 178.85 -1.27639 -0.924453 0
M  V30 2013 C 179.798 -1.10485 -2.04685 0
M  V30 2014 C 180.792 -0.0270421 -1.69378 0
M  V30 2015 O 181.998 -0.185008 -1.79047 0
M  V30 2016 H 178.373 -0.340546 -0.670472 0
M  V30 2017 H 180.344 -2.05566 -2.16298 0
M  V30 2018 C 179.093 -0.772229 -3.39016 0
M  V30 2019 H 178.416 -1.59351 -3.66671 0
M  V30 2020 H 179.856 -0.692097 -4.18313 0
M  V30 2021 C 178.315 0.523554 -3.32807 0
M  V30 2022 O 178.845 1.55702 -3.70297 0
M  V30 2023 N 177.051 0.520363 -2.85903 0
M  V30 2024 H 176.598 -0.32107 -2.55591 0
M  V30 2025 H 176.556 1.38742 -2.82131 0
M  V30 2026 N 180.328 1.1314 -1.09713 0
M  V30 2027 C 181.258 2.20748 -0.761102 0
M  V30 2028 C 182.239 1.68061 0.262566 0
M  V30 2029 O 183.424 1.93765 0.129977 0
M  V30 2030 C 180.554 3.46812 -0.184054 0
M  V30 2031 C 179.508 4.12606 -1.13757 0
M  V30 2032 C 178.834 5.33031 -0.422083 0
M  V30 2033 C 180.134 4.59603 -2.48118 0
M  V30 2034 H 181.828 2.49113 -1.66082 0
M  V30 2035 H 179.374 1.19734 -0.799987 0
M  V30 2036 H 181.327 4.21353 0.0631215 0
M  V30 2037 H 180.051 3.17851 0.750868 0
M  V30 2038 H 178.71 3.40036 -1.37007 0
M  V30 2039 H 178.358 5.00335 0.517072 0
M  V30 2040 H 178.058 5.77999 -1.05788 0
M  V30 2041 H 179.582 6.10325 -0.183277 0
M  V30 2042 H 180.996 5.25552 -2.29059 0
M  V30 2043 H 179.393 5.15321 -3.07514 0
M  V30 2044 H 180.463 3.73971 -3.08665 0
M  V30 2045 N 181.806 0.884767 1.30421 0
M  V30 2046 C 182.738 0.308655 2.27112 0
M  V30 2047 C 183.751 -0.536655 1.53701 0
M  V30 2048 O 184.94 -0.35624 1.74909 0
M  V30 2049 C 182.04 -0.579782 3.33904 0
M  V30 2050 C 181.213 0.236417 4.36761 0
M  V30 2051 C 180.272 -0.582482 5.22966 0
M  V30 2052 O 179.298 -0.00525502 5.692 0
M  V30 2053 N 180.5 -1.89163 5.48815 0
M  V30 2054 H 183.265 1.13964 2.77186 0
M  V30 2055 H 180.826 0.747731 1.43599 0
M  V30 2056 H 182.818 -1.13366 3.88497 0
M  V30 2057 H 181.388 -1.31144 2.83761 0
M  V30 2058 H 180.608 0.97174 3.82035 0
M  V30 2059 H 181.896 0.795924 5.02536 0
M  V30 2060 H 181.294 -2.38352 5.13035 0
M  V30 2061 H 179.851 -2.39296 6.06284 0
M  V30 2062 N 183.284 -1.43765 0.645699 0
M  V30 2063 C 184.232 -2.32516 -0.0624849 0
M  V30 2064 C 185.226 -1.48183 -0.820855 0
M  V30 2065 O 186.432 -1.64439 -0.732106 0
M  V30 2066 H 182.807 -0.750989 -0.0389864 0
M  V30 2067 H 184.778 -2.89979 0.703892 0
M  V30 2068 C 183.527 -3.32389 -1.02044 0
M  V30 2069 H 182.85 -3.97301 -0.446312 0
M  V30 2070 H 184.29 -3.97138 -1.48517 0
M  V30 2071 C 182.749 -2.62416 -2.11281 0
M  V30 2072 O 183.279 -2.434 -3.19561 0
M  V30 2073 N 181.485 -2.21913 -1.87624 0
M  V30 2074 H 181.032 -2.37578 -0.995703 0
M  V30 2075 H 180.99 -1.75424 -2.6091 0
M  V30 2076 N 184.763 -0.387143 -1.52771 0
M  V30 2077 C 185.726 0.436939 -2.24997 0
M  V30 2078 C 186.726 0.991991 -1.26555 0
M  V30 2079 O 187.916 0.874335 -1.50669 0
M  V30 2080 C 185.048 1.61281 -3.00335 0
M  V30 2081 H 186.241 -0.195365 -2.99263 0
M  V30 2082 H 183.794 -0.139218 -1.55679 0
M  V30 2083 H 184.529 2.2826 -2.30364 0
M  V30 2084 H 184.314 1.22154 -3.72587 0
M  V30 2085 H 185.804 2.19629 -3.5518 0
M  V30 2086 N 186.241 1.57166 -0.116904 0
M  V30 2087 C 187.487 1.95412 0.542405 0
M  V30 2088 C 187.82 1.00019 1.66463 0
M  V30 2089 O 187.095 0.0370346 1.94465 0
M  V30 2090 C 187.378 3.43615 1.07708 0
M  V30 2091 C 187.231 4.49781 -0.0415868 0
M  V30 2092 C 188.55 3.93616 1.96861 0
M  V30 2093 H 185.669 0.710543 0.195696 0
M  V30 2094 H 188.311 1.89027 -0.192038 0
M  V30 2095 H 186.461 3.49187 1.70296 0
M  V30 2096 H 188.133 4.56308 -0.676793 0
M  V30 2097 H 186.376 4.28033 -0.705019 0
M  V30 2098 H 187.047 5.50733 0.373717 0
M  V30 2099 H 189.523 3.90335 1.44146 0
M  V30 2100 H 188.399 4.97838 2.3119 0
M  V30 2101 H 188.66 3.34188 2.89432 0
M  V30 2102 N 187.719 -0.156864 1.56817 0
M  V30 2103 C 188.968 -0.869504 1.81996 0
M  V30 2104 C 189.281 -1.82777 0.696545 0
M  V30 2105 O 190.487 -2.58384 0.833658 0
M  V30 2106 C 188.943 -1.59679 3.22538 0
M  V30 2107 C 188.551 -0.681431 4.42787 0
M  V30 2108 C 190.295 -2.2968 3.56997 0
M  V30 2109 C 188.202 -1.40978 5.74351 0
M  V30 2110 H 187.132 -0.328438 0.678708 0
M  V30 2111 H 189.783 -0.1223 1.83092 0
M  V30 2112 H 188.165 -2.38927 3.158 0
M  V30 2113 H 189.339 0.0751166 4.60739 0
M  V30 2114 H 187.654 -0.0903431 4.16302 0
M  V30 2115 H 190.251 -2.84794 4.52544 0
M  V30 2116 H 190.594 -3.05707 2.82576 0
M  V30 2117 H 191.127 -1.57361 3.65352 0
M  V30 2118 H 187.866 -0.691561 6.51842 0
M  V30 2119 H 187.386 -2.13929 5.60352 0
M  V30 2120 H 189.065 -1.95337 6.16808 0
M  V30 2121 N 189.197 -1.51736 -0.425897 0
M  V30 2122 C 190.16 -1.73271 -1.50032 0
M  V30 2123 C 191.16 -0.602639 -1.4908 0
M  V30 2124 O 192.35 -0.87033 -1.509 0
M  V30 2125 C 189.482 -1.79969 -2.89523 0
M  V30 2126 H 190.675 -2.69172 -1.32237 0
M  V30 2127 H 188.228 -1.41899 -0.65532 0
M  V30 2128 H 188.963 -0.859241 -3.1271 0
M  V30 2129 H 188.748 -2.62109 -2.91619 0
M  V30 2130 H 190.238 -1.9843 -3.67444 0
M  V30 2131 N 190.675 0.682077 -1.42076 0
M  V30 2132 C 191.903 1.47057 -1.4554 0
M  V30 2133 C 192.318 1.8869 -0.0645779 0
M  V30 2134 O 191.675 1.57666 0.919115 0
M  V30 2135 C 191.726 2.72442 -2.37609 0
M  V30 2136 O 191.447 2.32559 -3.71279 0
M  V30 2137 C 192.948 3.66069 -2.50017 0
M  V30 2138 H 190.168 0.452737 -0.495248 0
M  V30 2139 H 192.712 0.838695 -1.8651 0
M  V30 2140 H 190.867 3.31835 -1.9991 0
M  V30 2141 H 191.281 3.13475 -4.20516 0
M  V30 2142 H 192.755 4.50792 -3.18576 0
M  V30 2143 H 193.232 4.11476 -1.53572 0
M  V30 2144 H 193.838 3.12572 -2.88407 0
M  V30 2145 N 192.153 1.28127 0.917671 0
M  V30 2146 C 193.063 1.13556 2.05286 0
M  V30 2147 C 194.079 0.0630914 1.73886 0
M  V30 2148 O 195.255 0.271598 1.9956 0
M  V30 2149 C 192.32 0.794676 3.3747 0
M  V30 2150 C 191.381 1.94909 3.82504 0
M  V30 2151 C 190.614 1.62437 5.0838 0
M  V30 2152 O 190.837 0.536905 5.67867 0
M  V30 2153 O 189.771 2.46677 5.4903 0
M  V30 2154 H 193.597 2.08844 2.20495 0
M  V30 2155 H 191.182 1.07409 1.03845 0
M  V30 2156 H 193.064 0.618344 4.16839 0
M  V30 2157 H 191.739 -0.128581 3.23445 0
M  V30 2158 H 190.646 2.18055 3.03978 0
M  V30 2159 H 191.979 2.85291 4.01086 0
M  V30 2160 N 193.631 -1.12557 1.10312 0
M  V30 2161 C 194.908 -1.80363 0.756878 0
M  V30 2162 C 195.288 -1.97067 -0.756824 0
M  V30 2163 O 194.636 -1.54601 -1.68259 0
M  V30 2164 C 194.846 -3.14812 1.50647 0
M  V30 2165 C 196.194 -3.90029 1.67817 0
M  V30 2166 O 197.218 -3.24464 1.46974 0
M  V30 2167 O 196.077 -5.07652 2.02365 0
M  V30 2168 H 193.171 -0.780667 0.272926 0
M  V30 2169 H 195.717 -1.19404 1.20586 0
M  V30 2170 H 194.489 -2.97936 2.53672 0
M  V30 2171 H 194.112 -3.83478 1.05026 0
M  V30 2172 N 195.109 -0.891671 -1.2995 0
M  V30 2173 C 196.525 -0.58662 -1.48428 0
M  V30 2174 C 196.725 0.873951 -1.81561 0
M  V30 2175 O 195.781 1.65471 -1.90724 0
M  V30 2176 C 197.094 -1.50553 -2.60296 0
M  V30 2177 C 198.642 -1.50988 -2.74175 0
M  V30 2178 C 199.117 -2.41488 -3.89163 0
M  V30 2179 N 200.608 -2.39489 -3.96483 0
M  V30 2180 C 201.343 -3.06223 -4.84784 0
M  V30 2181 N 200.839 -3.82206 -5.77833 0
M  V30 2182 N 202.632 -2.95421 -4.78208 0
M  V30 2183 H 194.783 -1.83644 -1.06718 0
M  V30 2184 H 197.046 -0.786455 -0.529332 0
M  V30 2185 H 196.752 -2.54581 -2.42654 0
M  V30 2186 H 196.626 -1.22008 -3.56923 0
M  V30 2187 H 199.013 -0.47708 -2.91218 0
M  V30 2188 H 199.094 -1.83567 -1.78148 0
M  V30 2189 H 198.738 -3.44857 -3.72876 0
M  V30 2190 H 198.668 -2.06222 -4.84541 0
M  V30 2191 H 201.159 -1.84278 -3.29924 0
M  V30 2192 H 201.472 -4.302 -6.41988 0
M  V30 2193 H 199.817 -3.86313 -5.77743 0
M  V30 2194 H 203.008 -2.35581 -4.04499 0
M  V30 2195 H 203.181 -3.47704 -5.46814 0
M  V30 2196 N 196.587 1.43421 -0.653314 0
M  V30 2197 C 197.812 2.06678 -0.172846 0
M  V30 2198 C 198.237 1.48648 1.15262 0
M  V30 2199 O 197.595 0.596457 1.71208 0
M  V30 2200 C 197.643 3.60474 -0.0953184 0
M  V30 2201 O 196.747 4.01487 0.942442 0
M  V30 2202 H 196.088 0.657181 -0.0949155 0
M  V30 2203 H 198.618 1.83925 -0.896265 0
M  V30 2204 H 198.628 4.07905 0.0879728 0
M  V30 2205 H 197.303 4.02088 -1.06291 0
M  V30 2206 H 195.88 3.65646 0.731932 0
M  V30 2207 N 198.065 0.39524 1.52563 0
M  V30 2208 C 199.312 -0.185044 2.01653 0
M  V30 2209 C 199.64 -1.46317 1.28146 0
M  V30 2210 O 198.895 -1.9213 0.372074 0
M  V30 2211 C 199.194 -0.493444 3.53977 0
M  V30 2212 C 198.86 0.69384 4.4553 0
M  V30 2213 C 197.522 1.01954 4.70275 0
M  V30 2214 C 199.874 1.48785 4.99512 0
M  V30 2215 C 197.202 2.14069 5.46252 0
M  V30 2216 C 199.554 2.59965 5.76716 0
M  V30 2217 C 198.218 2.93037 5.99738 0
M  V30 2218 H 197.488 -0.0677123 0.7379 0
M  V30 2219 H 200.135 0.533807 1.8391 0
M  V30 2220 H 198.44 -1.29369 3.69825 0
M  V30 2221 H 200.137 -0.955163 3.89458 0
M  V30 2222 H 196.727 0.429987 4.26438 0
M  V30 2223 H 200.911 1.24946 4.80315 0
M  V30 2224 H 196.167 2.40056 5.62302 0
M  V30 2225 H 200.341 3.21887 6.17545 0
M  V30 2226 H 197.968 3.8003 6.58393 0
M  V30 2227 N 199.544 -1.57102 0.125237 0
M  V30 2228 C 200.774 -1.99472 -0.538015 0
M  V30 2229 C 201.182 -1.00395 -1.60366 0
M  V30 2230 O 200.525 0.0103875 -1.83697 0
M  V30 2231 C 200.587 -3.38262 -1.21734 0
M  V30 2232 C 200.251 -4.56021 -0.298897 0
M  V30 2233 C 201.248 -5.17817 0.464943 0
M  V30 2234 C 198.933 -5.01869 -0.208149 0
M  V30 2235 C 200.927 -6.23852 1.3072 0
M  V30 2236 C 198.614 -6.07763 0.637736 0
M  V30 2237 C 199.612 -6.68622 1.39403 0
M  V30 2238 O 199.3 -7.7247 2.22586 0
M  V30 2239 H 199.032 -0.659934 -0.146501 0
M  V30 2240 H 201.586 -2.04321 0.210267 0
M  V30 2241 H 199.816 -3.30185 -2.01282 0
M  V30 2242 H 201.505 -3.6488 -1.77813 0
M  V30 2243 H 202.271 -4.83308 0.404741 0
M  V30 2244 H 198.15 -4.54241 -0.786522 0
M  V30 2245 H 201.694 -6.71284 1.898 0
M  V30 2246 H 197.591 -6.41701 0.699309 0
M  V30 2247 H 198.359 -7.89595 2.15596 0
M  V30 2248 N 201.022 0.148545 -1.56898 0
M  V30 2249 C 201.969 1.18345 -1.98149 0
M  V30 2250 C 202.939 1.42772 -0.848848 0
M  V30 2251 O 204.124 1.55132 -1.11079 0
M  V30 2252 C 201.264 2.51231 -2.36594 0
M  V30 2253 C 200.377 2.33991 -3.63142 0
M  V30 2254 C 199.512 3.59902 -3.90697 0
M  V30 2255 C 198.551 3.37692 -5.1052 0
M  V30 2256 N 197.688 4.5573 -5.34092 0
M  V30 2257 H 202.528 0.82467 -2.86362 0
M  V30 2258 H 200.065 0.395756 -1.41676 0
M  V30 2259 H 202.023 3.28713 -2.56912 0
M  V30 2260 H 200.653 2.85059 -1.51463 0
M  V30 2261 H 199.705 1.47572 -3.50609 0
M  V30 2262 H 201.017 2.13539 -4.5078 0
M  V30 2263 H 200.171 4.45813 -4.11505 0
M  V30 2264 H 198.91 3.83357 -3.01477 0
M  V30 2265 H 197.915 2.5017 -4.89587 0
M  V30 2266 H 199.14 3.15637 -6.0129 0
M  V30 2267 H 197.086 4.79361 -4.47827 0
M  V30 2268 H 197.003 4.38274 -6.15996 0
M  V30 2269 H 198.271 5.42858 -5.59397 0
M  V30 2270 N 202.5 1.5196 0.417844 0
M  V30 2271 C 203.448 1.75278 1.52907 0
M  V30 2272 C 204.442 0.619611 1.57662 0
M  V30 2273 O 205.648 0.801457 1.61173 0
M  V30 2274 H 202.023 0.554141 0.508362 0
M  V30 2275 H 203.994 2.68389 1.30422 0
M  V30 2276 C 202.743 1.91262 2.90369 0
M  V30 2277 H 202.066 2.77872 2.8745 0
M  V30 2278 H 203.506 2.11581 3.67436 0
M  V30 2279 C 201.965 0.677431 3.30019 0
M  V30 2280 O 202.495 -0.158799 4.01386 0
M  V30 2281 N 200.701 0.515851 2.85985 0
M  V30 2282 H 200.248 1.19744 2.28077 0
M  V30 2283 H 200.206 -0.309315 3.12875 0
M  V30 2284 N 203.978 -0.674533 1.42435 0
M  V30 2285 C 205.255 -1.4305 1.33402 0
M  V30 2286 C 205.635 -2.11081 -0.0284674 0
M  V30 2287 O 204.983 -2.03257 -1.04397 0
M  V30 2288 C 205.193 -2.43272 2.50239 0
M  V30 2289 C 206.541 -3.07907 2.92367 0
M  V30 2290 O 207.565 -2.53599 2.50132 0
M  V30 2291 O 206.424 -4.0632 3.65467 0
M  V30 2292 H 203.518 -0.638076 0.526106 0
M  V30 2293 H 206.064 -0.703235 1.54443 0
M  V30 2294 H 204.836 -1.91803 3.41068 0
M  V30 2295 H 204.459 -3.23479 2.31186 0
M  V30 2296 N 205.456 -1.28612 -0.910864 0
M  V30 2297 C 206.704 -1.15705 -1.65701 0
M  V30 2298 C 207.025 0.29416 -1.92769 0
M  V30 2299 O 206.295 1.20331 -1.54588 0
M  V30 2300 H 204.875 -0.425216 -0.614167 0
M  V30 2301 H 207.537 -1.61381 -1.0928 0
M  V30 2302 H 206.633 -1.6988 -2.61815 0
M  V30 2303 N 206.934 1.1197 -1.10907 0
M  V30 2304 C 208.183 1.82947 -0.849302 0
M  V30 2305 C 208.496 1.85275 0.627112 0
M  V30 2306 O 209.702 2.52296 1.00295 0
M  V30 2307 C 208.158 3.28529 -1.46959 0
M  V30 2308 C 207.766 3.34546 -2.97965 0
M  V30 2309 C 209.51 4.04443 -1.28942 0
M  V30 2310 C 207.417 4.74491 -3.53004 0
M  V30 2311 H 206.347 0.685477 -0.314065 0
M  V30 2312 H 208.998 1.2604 -1.33365 0
M  V30 2313 H 207.38 3.85333 -0.912917 0
M  V30 2314 H 208.554 2.87654 -3.59989 0
M  V30 2315 H 206.869 2.72108 -3.15192 0
M  V30 2316 H 209.466 5.07787 -1.67502 0
M  V30 2317 H 209.809 4.15656 -0.231456 0
M  V30 2318 H 210.342 3.5401 -1.81443 0
M  V30 2319 H 207.081 4.68474 -4.58489 0
M  V30 2320 H 206.601 5.21816 -2.9575 0
M  V30 2321 H 208.28 5.4344 -3.51115 0
M  V30 2322 N 208.412 0.89855 1.29475 0
M  V30 2323 C 209.36 0.365253 2.29714 0
M  V30 2324 C 210.354 -0.534993 1.6073 0
M  V30 2325 O 211.56 -0.417921 1.75081 0
M  V30 2326 H 207.935 0.0994853 0.74539 0
M  V30 2327 H 209.906 1.22406 2.72138 0
M  V30 2328 C 208.655 -0.393159 3.4547 0
M  V30 2329 H 207.978 0.290332 3.98744 0
M  V30 2330 H 209.418 -0.731189 4.17648 0
M  V30 2331 C 207.877 -1.59539 2.9673 0
M  V30 2332 O 208.407 -2.69469 2.97908 0
M  V30 2333 N 206.613 -1.43716 2.52575 0
M  V30 2334 H 206.16 -0.542828 2.51816 0
M  V30 2335 H 206.118 -2.24288 2.20323 0
M  V30 2336 N 209.89 -1.43072 0.660911 0
M  V30 2337 C 211.12 -2.05769 0.185153 0
M  V30 2338 C 211.528 -1.49668 -1.15742 0
M  V30 2339 O 210.871 -0.625649 -1.72717 0
M  V30 2340 C 210.933 -3.59489 0.0278237 0
M  V30 2341 C 210.597 -4.38212 1.2969 0
M  V30 2342 C 211.594 -4.69772 2.22734 0
M  V30 2343 C 209.279 -4.7809 1.54063 0
M  V30 2344 C 211.273 -5.40129 3.38437 0
M  V30 2345 C 208.96 -5.4819 2.70058 0
M  V30 2346 C 209.958 -5.79132 3.62071 0
M  V30 2347 O 209.646 -6.47798 4.76039 0
M  V30 2348 H 209.378 -0.669873 0.0908086 0
M  V30 2349 H 211.932 -1.84436 0.90402 0
M  V30 2350 H 210.162 -3.79426 -0.746489 0
M  V30 2351 H 211.851 -4.03862 -0.406275 0
M  V30 2352 H 212.617 -4.39476 2.05149 0
M  V30 2353 H 208.496 -4.53408 0.833215 0
M  V30 2354 H 212.04 -5.64198 4.10277 0
M  V30 2355 H 207.937 -5.77902 2.87574 0
M  V30 2356 H 208.705 -6.66283 4.75404 0
M  V30 2357 N 211.368 -0.403325 -1.52352 0
M  V30 2358 C 212.616 0.174003 -2.0135 0
M  V30 2359 C 212.937 1.46139 -1.29106 0
M  V30 2360 O 212.207 1.91448 -0.415253 0
M  V30 2361 H 210.787 0.0672911 -0.743963 0
M  V30 2362 H 213.449 -0.538235 -1.87321 0
M  V30 2363 H 212.545 0.374254 -3.09848 0
M  V30 2364 N 212.846 1.57033 -0.133567 0
M  V30 2365 C 214.262 1.58035 0.222944 0
M  V30 2366 C 214.462 1.14713 1.6566 0
M  V30 2367 O 213.518 0.841218 2.38075 0
M  V30 2368 C 214.831 3.00691 -0.0236116 0
M  V30 2369 C 216.379 3.12973 0.0411512 0
M  V30 2370 C 216.854 4.57654 -0.177899 0
M  V30 2371 N 218.345 4.63033 -0.124365 0
M  V30 2372 C 219.08 5.72771 -0.268553 0
M  V30 2373 N 218.576 6.91206 -0.46972 0
M  V30 2374 N 220.369 5.61718 -0.2071 0
M  V30 2375 H 212.52 1.8349 -1.06981 0
M  V30 2376 H 214.783 0.848677 -0.422436 0
M  V30 2377 H 214.489 3.36726 -1.0153 0
M  V30 2378 H 214.363 3.70614 0.701808 0
M  V30 2379 H 216.75 2.76787 1.02338 0
M  V30 2380 H 216.831 2.45564 -0.716383 0
M  V30 2381 H 216.475 4.94542 -1.15717 0
M  V30 2382 H 216.405 5.23173 0.599797 0
M  V30 2383 H 218.896 3.7789 0.027011 0
M  V30 2384 H 219.209 7.70693 -0.570212 0
M  V30 2385 H 217.554 6.93156 -0.505876 0
M  V30 2386 H 220.745 4.68072 -0.0507986 0
M  V30 2387 H 220.918 6.47195 -0.322909 0
M  V30 2388 N 214.325 -0.140222 1.56975 0
M  V30 2389 C 215.572 -0.851687 1.83719 0
M  V30 2390 C 215.9 -1.80862 0.715485 0
M  V30 2391 O 215.155 -1.93464 -0.294956 0
M  V30 2392 C 215.454 -1.65386 3.16832 0
M  V30 2393 C 215.12 -0.843112 4.42947 0
M  V30 2394 C 213.782 -0.619464 4.77196 0
M  V30 2395 C 216.134 -0.276582 5.20466 0
M  V30 2396 C 213.462 0.181312 5.8642 0
M  V30 2397 C 215.814 0.51127 6.30531 0
M  V30 2398 C 214.478 0.745432 6.63325 0
M  V30 2399 H 213.748 -0.311654 0.672274 0
M  V30 2400 H 216.395 -0.115006 1.91154 0
M  V30 2401 H 214.7 -2.46084 3.04877 0
M  V30 2402 H 216.397 -2.20793 3.34741 0
M  V30 2403 H 212.987 -1.0275 4.16101 0
M  V30 2404 H 217.171 -0.436632 4.94376 0
M  V30 2405 H 212.427 0.372165 6.10266 0
M  V30 2406 H 216.601 0.957354 6.89788 0
M  V30 2407 H 214.228 1.36778 7.47794 0
M  V30 2408 N 215.803 -1.52179 -0.40978 0
M  V30 2409 C 217.05 -1.66206 -1.15679 0
M  V30 2410 C 217.378 -0.391674 -1.90516 0
M  V30 2411 O 216.633 0.62533 -1.8544 0
M  V30 2412 C 216.932 -2.83428 -2.17723 0
M  V30 2413 C 216.598 -4.21672 -1.59699 0
M  V30 2414 C 215.26 -4.59274 -1.43599 0
M  V30 2415 C 217.612 -5.07825 -1.17317 0
M  V30 2416 C 214.94 -5.80709 -0.836328 0
M  V30 2417 C 217.292 -6.29864 -0.587691 0
M  V30 2418 C 215.956 -6.66216 -0.413818 0
M  V30 2419 H 215.226 -0.608192 -0.423301 0
M  V30 2420 H 217.873 -1.86279 -0.444097 0
M  V30 2421 H 216.178 -2.57687 -2.95135 0
M  V30 2422 H 217.875 -2.91477 -2.75394 0
M  V30 2423 H 214.465 -3.9204 -1.73213 0
M  V30 2424 H 218.649 -4.79359 -1.28565 0
M  V30 2425 H 213.905 -6.07498 -0.689626 0
M  V30 2426 H 218.079 -6.95948 -0.250894 0
M  V30 2427 H 215.706 -7.60182 0.0529471 0
M  V30 2428 N 217.281 0.66697 -1.42791 0
M  V30 2429 C 218.211 1.79218 -1.49677 0
M  V30 2430 C 219.192 1.66405 -0.352623 0
M  V30 2431 O 220.377 1.85708 -0.567993 0
M  V30 2432 C 217.507 3.17565 -1.40605 0
M  V30 2433 C 216.461 3.45124 -2.53127 0
M  V30 2434 C 215.787 4.83127 -2.29112 0
M  V30 2435 C 217.087 3.41236 -3.95418 0
M  V30 2436 H 218.781 1.73713 -2.43853 0
M  V30 2437 H 216.327 0.83432 -1.17367 0
M  V30 2438 H 218.28 3.96022 -1.44029 0
M  V30 2439 H 217.004 3.23767 -0.429271 0
M  V30 2440 H 215.663 2.69031 -2.49034 0
M  V30 2441 H 215.311 4.85988 -1.29709 0
M  V30 2442 H 215.011 5.02528 -3.04531 0
M  V30 2443 H 216.535 5.63859 -2.34297 0
M  V30 2444 H 217.949 4.09651 -4.01073 0
M  V30 2445 H 216.346 3.72173 -4.70752 0
M  V30 2446 H 217.416 2.39665 -4.21532 0
M  V30 2447 N 218.759 1.29093 0.90403 0
M  V30 2448 C 219.722 1.1386 1.98919 0
M  V30 2449 C 220.722 0.0753457 1.60623 0
M  V30 2450 O 221.912 0.321931 1.71199 0
M  V30 2451 C 219.044 0.740198 3.32767 0
M  V30 2452 H 220.237 2.10246 2.13861 0
M  V30 2453 H 217.79 1.12218 1.08797 0
M  V30 2454 H 218.525 -0.223997 3.23525 0
M  V30 2455 H 218.31 1.50838 3.61926 0
M  V30 2456 H 219.8 0.656546 4.12407 0
M  V30 2457 N 220.237 -1.11381 1.11499 0
M  V30 2458 C 221.486 -1.82494 0.858993 0
M  V30 2459 C 221.799 -1.85605 -0.617278 0
M  V30 2460 O 223.005 -2.52824 -0.989552 0
M  V30 2461 C 221.461 -3.27745 1.48699 0
M  V30 2462 C 221.069 -3.32961 2.99735 0
M  V30 2463 C 222.813 -4.03754 1.31085 0
M  V30 2464 C 220.72 -4.72612 3.55516 0
M  V30 2465 H 219.65 -0.683802 0.317696 0
M  V30 2466 H 222.301 -1.25331 1.34031 0
M  V30 2467 H 220.683 -3.84844 0.933339 0
M  V30 2468 H 221.857 -2.85741 3.61509 0
M  V30 2469 H 220.172 -2.70433 3.16631 0
M  V30 2470 H 222.769 -5.06891 1.70192 0
M  V30 2471 H 223.112 -4.15527 0.253496 0
M  V30 2472 H 223.645 -3.53043 1.83318 0
M  V30 2473 H 220.384 -4.66036 4.60967 0
M  V30 2474 H 219.904 -5.2024 2.98513 0
M  V30 2475 H 221.583 -5.4157 3.53992 0
M  V30 2476 N 221.715 -0.905404 -1.28997 0
M  V30 2477 C 222.961 -0.535039 -1.95615 0
M  V30 2478 C 223.294 0.917404 -1.71165 0
M  V30 2479 O 222.569 1.65123 -1.02785 0
M  V30 2480 C 222.852 -0.834918 -3.50287 0
M  V30 2481 C 222.705 -2.33948 -3.84172 0
M  V30 2482 C 224.024 -0.325318 -4.38896 0
M  V30 2483 H 221.143 -0.195861 -0.710498 0
M  V30 2484 H 223.785 -1.13313 -1.52513 0
M  V30 2485 H 221.935 -0.325904 -3.87131 0
M  V30 2486 H 223.607 -2.91847 -3.57243 0
M  V30 2487 H 221.85 -2.79789 -3.31513 0
M  V30 2488 H 222.521 -2.49987 -4.92149 0
M  V30 2489 H 224.997 -0.761256 -4.09077 0
M  V30 2490 H 223.873 -0.564295 -5.45992 0
M  V30 2491 H 224.134 0.774144 -4.35269 0
M  V30 2492 N 223.193 1.4272 -0.668489 0
M  V30 2493 C 224.421 2.05966 -0.196348 0
M  V30 2494 C 224.836 1.50191 1.14403 0
M  V30 2495 O 224.193 0.639208 1.7094 0
M  V30 2496 C 224.244 3.61314 -0.115815 0
M  V30 2497 O 223.965 4.1502 -1.40322 0
M  V30 2498 C 225.466 4.41663 0.380579 0
M  V30 2499 H 222.686 0.663954 -0.0969829 0
M  V30 2500 H 225.23 1.82966 -0.913446 0
M  V30 2501 H 223.385 3.83448 0.551931 0
M  V30 2502 H 223.799 5.08832 -1.27243 0
M  V30 2503 H 225.273 5.5065 0.385848 0
M  V30 2504 H 225.75 4.15792 1.41471 0
M  V30 2505 H 226.356 4.24534 -0.255209 0
M  V30 2506 N 224.671 0.411399 1.52136 0
M  V30 2507 C 225.634 -0.401089 2.25663 0
M  V30 2508 C 226.634 -0.971732 1.28117 0
M  V30 2509 O 227.824 -0.850254 1.52041 0
M  V30 2510 C 224.956 -1.56483 3.02863 0
M  V30 2511 H 226.149 0.24295 2.98914 0
M  V30 2512 H 223.702 0.163968 1.55438 0
M  V30 2513 H 224.437 -2.24567 2.33967 0
M  V30 2514 H 224.222 -1.16211 3.74483 0
M  V30 2515 H 225.712 -2.13951 3.58629 0
M  V30 2516 N 226.149 -1.5696 0.141893 0
M  V30 2517 C 227.397 -1.95573 -0.509484 0
M  V30 2518 C 227.718 -1.02746 -1.65736 0
M  V30 2519 O 226.988 -0.0880311 -1.95702 0
M  V30 2520 H 225.568 -0.722115 -0.191205 0
M  V30 2521 H 228.23 -1.93697 0.216196 0
M  V30 2522 H 227.326 -2.99171 -0.889 0
M  V30 2523 N 227.627 0.131896 -1.57047 0
M  V30 2524 C 229.043 0.485031 -1.52051 0
M  V30 2525 C 229.243 1.82563 -0.85281 0
M  V30 2526 O 228.299 2.48817 -0.429694 0
M  V30 2527 C 229.612 0.481409 -2.96821 0
M  V30 2528 C 231.16 0.565868 -3.07842 0
M  V30 2529 C 231.635 0.592762 -4.54148 0
M  V30 2530 N 233.126 0.654564 -4.58552 0
M  V30 2531 C 233.861 0.696608 -5.69153 0
M  V30 2532 N 233.357 0.697078 -6.89284 0
M  V30 2533 N 235.15 0.738639 -5.57226 0
M  V30 2534 H 227.301 -0.746664 -1.98843 0
M  V30 2535 H 229.564 -0.273999 -0.90754 0
M  V30 2536 H 229.27 -0.435731 -3.4899 0
M  V30 2537 H 229.144 1.3139 -3.53577 0
M  V30 2538 H 231.531 1.47343 -2.55684 0
M  V30 2539 H 231.612 -0.29406 -2.54104 0
M  V30 2540 H 231.256 -0.310701 -5.06949 0
M  V30 2541 H 231.186 1.46939 -5.05684 0
M  V30 2542 H 233.677 0.660887 -3.72076 0
M  V30 2543 H 233.99 0.731426 -7.69331 0
M  V30 2544 H 232.335 0.66471 -6.91814 0
M  V30 2545 H 235.526 0.735545 -4.62285 0
M  V30 2546 H 235.699 0.767938 -6.43434 0
M  V30 2547 N 229.106 1.52395 0.401703 0
M  V30 2548 C 230.331 1.70972 1.17403 0
M  V30 2549 C 230.756 0.421615 1.83314 0
M  V30 2550 O 230.114 -0.621564 1.70312 0
M  V30 2551 C 230.162 2.85151 2.20728 0
M  V30 2552 O 229.266 2.51238 3.27037 0
M  V30 2553 H 228.607 0.568927 0.342372 0
M  V30 2554 H 231.137 1.99131 0.469891 0
M  V30 2555 H 231.147 3.10279 2.64936 0
M  V30 2556 H 229.822 3.78603 1.7214 0
M  V30 2557 H 228.399 2.36808 2.88057 0
M  V30 2558 N 230.584 -0.659388 1.43143 0
M  V30 2559 C 231.832 -1.41654 1.44147 0
M  V30 2560 C 232.153 -1.94893 0.0645739 0
M  V30 2561 O 231.423 -1.74044 -0.899198 0
M  V30 2562 H 230.003 -0.525708 0.530697 0
M  V30 2563 H 232.665 -0.778097 1.78694 0
M  V30 2564 H 231.761 -2.26195 2.1504 0
M  V30 2565 N 232.062 -1.29571 -0.897171 0
M  V30 2566 C 233.31 -1.17456 -1.64464 0
M  V30 2567 C 233.631 0.273698 -1.9307 0
M  V30 2568 O 232.901 1.18684 -1.55855 0
M  V30 2569 H 231.481 -0.431706 -0.609622 0
M  V30 2570 H 234.143 -1.62531 -1.07562 0
M  V30 2571 H 233.239 -1.72648 -2.59998 0
M  V30 2572 N 233.54 1.10788 -1.12088 0
M  V30 2573 C 234.788 1.8231 -0.872205 0
M  V30 2574 C 235.109 1.85419 0.603709 0
M  V30 2575 O 234.379 1.32963 1.43867 0
M  V30 2576 H 232.959 0.675137 -0.319686 0
M  V30 2577 H 235.621 1.34068 -1.41463 0
M  V30 2578 H 234.717 2.85955 -1.25045 0
M  V30 2579 N 235.018 0.912232 1.28515 0
M  V30 2580 C 236.243 0.559774 1.99703 0
M  V30 2581 C 236.668 -0.851393 1.67729 0
M  V30 2582 O 236.026 -1.56875 0.908834 0
M  V30 2583 C 236.074 0.773874 3.52198 0
M  V30 2584 O 235.178 -0.167842 4.12058 0
M  V30 2585 H 234.519 0.21723 0.627461 0
M  V30 2586 H 237.049 1.22725 1.63706 0
M  V30 2587 H 237.059 0.683386 4.02236 0
M  V30 2588 H 235.734 1.80261 3.74805 0
M  V30 2589 H 234.311 -0.0287509 3.72889 0
M  V30 2590 N 236.496 -1.42363 0.676048 0
M  V30 2591 C 237.724 -2.05859 0.207268 0
M  V30 2592 C 238.139 -1.50796 -1.13605 0
M  V30 2593 O 237.496 -0.648265 -1.70598 0
M  V30 2594 C 237.547 -3.61248 0.134975 0
M  V30 2595 O 237.268 -4.1427 1.42521 0
M  V30 2596 C 238.769 -4.41859 -0.357151 0
M  V30 2597 H 235.989 -0.663431 0.100503 0
M  V30 2598 H 238.533 -1.82479 0.923136 0
M  V30 2599 H 236.688 -3.83735 -0.531588 0
M  V30 2600 H 237.102 -5.0815 1.29939 0
M  V30 2601 H 238.576 -5.50847 -0.356641 0
M  V30 2602 H 239.053 -4.16536 -1.39264 0
M  V30 2603 H 239.659 -4.24392 0.27772 0
M  V30 2604 N 237.974 -0.419461 -1.51915 0
M  V30 2605 C 239.223 0.154346 -2.01109 0
M  V30 2606 C 239.536 1.45338 -1.30905 0
M  V30 2607 O 240.742 2.10906 -1.7097 0
M  V30 2608 C 239.198 0.325615 -3.58424 0
M  V30 2609 C 238.806 -0.961934 -4.37551 0
M  V30 2610 C 240.55 0.854155 -4.15818 0
M  V30 2611 C 238.457 -0.757287 -5.86531 0
M  V30 2612 H 237.387 0.0614563 -0.751491 0
M  V30 2613 H 240.038 -0.54649 -1.75173 0
M  V30 2614 H 238.42 1.08903 -3.80731 0
M  V30 2615 H 239.594 -1.7323 -4.26999 0
M  V30 2616 H 237.909 -1.41766 -3.91524 0
M  V30 2617 H 240.506 1.02346 -5.24814 0
M  V30 2618 H 240.849 1.83172 -3.73837 0
M  V30 2619 H 241.382 0.149528 -3.97519 0
M  V30 2620 H 238.121 -1.70671 -6.32892 0
M  V30 2621 H 237.641 -0.0264061 -5.99794 0
M  V30 2622 H 239.32 -0.403482 -6.45741 0
M  V30 2623 N 239.452 1.56882 -0.150215 0
M  V30 2624 C 240.68 2.00593 0.506948 0
M  V30 2625 C 241.095 1.03033 1.58208 0
M  V30 2626 O 240.452 0.0278396 1.82479 0
M  V30 2627 C 240.503 3.44209 1.10465 0
M  V30 2628 O 240.224 4.3804 0.0724636 0
M  V30 2629 C 241.725 4.03214 1.84211 0
M  V30 2630 H 238.945 0.65795 0.13169 0
M  V30 2631 H 241.489 2.03018 -0.245743 0
M  V30 2632 H 239.644 3.42625 1.80795 0
M  V30 2633 H 240.058 5.22007 0.510793 0
M  V30 2634 H 241.532 5.0569 2.21318 0
M  V30 2635 H 242.009 3.44107 2.72923 0
M  V30 2636 H 242.615 4.08437 1.18572 0
M  V30 2637 N 240.93 -0.123565 1.57115 0
M  V30 2638 C 241.862 -1.17739 1.96648 0
M  V30 2639 C 242.875 -1.37906 0.865201 0
M  V30 2640 O 244.064 -1.37062 1.14351 0
M  V30 2641 C 241.164 -2.53821 2.24562 0
M  V30 2642 C 240.337 -2.54317 3.55867 0
M  V30 2643 C 239.396 -3.72112 3.72047 0
M  V30 2644 O 238.422 -3.55907 4.44206 0
M  V30 2645 N 239.624 -4.90498 3.10471 0
M  V30 2646 H 242.389 -0.841147 2.87654 0
M  V30 2647 H 239.95 -0.31289 1.58848 0
M  V30 2648 H 241.942 -3.31175 2.32606 0
M  V30 2649 H 240.512 -2.79645 1.39705 0
M  V30 2650 H 239.732 -1.62711 3.59053 0
M  V30 2651 H 241.02 -2.51701 4.42181 0
M  V30 2652 H 240.418 -5.06567 2.51806 0
M  V30 2653 H 238.975 -5.65544 3.24043 0
M  V30 2654 N 242.408 -1.52605 -0.393616 0
M  V30 2655 C 243.34 -1.73303 -1.49995 0
M  V30 2656 C 244.353 -0.613473 -1.50799 0
M  V30 2657 O 245.542 -0.889049 -1.54784 0
M  V30 2658 C 242.642 -1.77245 -2.88855 0
M  V30 2659 C 241.815 -3.06483 -3.12069 0
M  V30 2660 C 240.874 -3.02033 -4.30886 0
M  V30 2661 O 239.9 -3.75907 -4.27414 0
M  V30 2662 N 241.102 -2.20897 -5.36828 0
M  V30 2663 H 243.867 -2.68756 -1.32629 0
M  V30 2664 H 241.428 -1.51036 -0.583083 0
M  V30 2665 H 243.42 -1.7178 -3.66434 0
M  V30 2666 H 241.99 -0.891993 -2.99603 0
M  V30 2667 H 241.21 -3.25474 -2.22396 0
M  V30 2668 H 242.498 -3.91947 -3.2443 0
M  V30 2669 H 241.896 -1.60336 -5.42502 0
M  V30 2670 H 240.453 -2.21275 -6.13091 0
M  V30 2671 N 243.887 0.651787 -1.4349 0
M  V30 2672 C 244.817 1.77621 -1.51569 0
M  V30 2673 C 245.798 1.66022 -0.370253 0
M  V30 2674 O 246.983 1.85095 -0.587658 0
M  V30 2675 C 244.113 3.16056 -1.43966 0
M  V30 2676 C 243.067 3.4242 -2.56774 0
M  V30 2677 C 242.393 4.8067 -2.34223 0
M  V30 2678 C 243.693 3.37023 -3.99015 0
M  V30 2679 H 245.387 1.71117 -2.45681 0
M  V30 2680 H 242.933 0.821825 -1.18246 0
M  V30 2681 H 244.886 3.94472 -1.48221 0
M  V30 2682 H 243.61 3.23293 -0.463586 0
M  V30 2683 H 242.269 2.66375 -2.51873 0
M  V30 2684 H 241.917 4.84585 -1.34856 0
M  V30 2685 H 241.617 4.9927 -3.09844 0
M  V30 2686 H 243.141 5.61342 -2.40265 0
M  V30 2687 H 244.555 4.05374 -4.05395 0
M  V30 2688 H 242.952 3.67159 -4.74673 0
M  V30 2689 H 244.022 2.3518 -4.2405 0
M  V30 2690 N 245.365 1.30045 0.890287 0
M  V30 2691 C 246.328 1.15963 1.977 0
M  V30 2692 C 247.328 0.0923777 1.60534 0
M  V30 2693 O 248.518 0.340071 1.70848 0
M  V30 2694 C 245.65 0.775451 3.31963 0
M  V30 2695 H 246.843 2.12502 2.11619 0
M  V30 2696 H 244.396 1.13366 1.07601 0
M  V30 2697 H 245.131 -0.189671 3.23745 0
M  V30 2698 H 244.916 1.54668 3.60306 0
M  V30 2699 H 246.406 0.700251 4.11687 0
M  V30 2700 N 246.843 -1.10192 1.12674 0
M  V30 2701 C 247.79 -2.16606 0.796906 0
M  V30 2702 C 248.76 -1.64394 -0.237476 0
M  V30 2703 O 249.945 -1.90474 -0.111484 0
M  V30 2704 C 247.085 -3.44116 0.26043 0
M  V30 2705 C 246.198 -4.10268 1.35293 0
M  V30 2706 C 245.333 -5.25507 0.775621 0
M  V30 2707 C 244.372 -5.83567 1.84706 0
M  V30 2708 N 243.509 -6.90179 1.28829 0
M  V30 2709 H 248.349 -2.44163 1.70846 0
M  V30 2710 H 245.886 -1.19846 0.85295 0
M  V30 2711 H 247.844 -4.17143 -0.0686814 0
M  V30 2712 H 246.474 -3.16901 -0.614274 0
M  V30 2713 H 245.526 -3.35184 1.79877 0
M  V30 2714 H 246.838 -4.4946 2.16303 0
M  V30 2715 H 245.992 -6.05398 0.397327 0
M  V30 2716 H 244.731 -4.87656 -0.0656581 0
M  V30 2717 H 243.736 -5.02344 2.23452 0
M  V30 2718 H 244.961 -6.23482 2.69161 0
M  V30 2719 H 242.907 -6.54322 0.468881 0
M  V30 2720 H 242.824 -7.28097 2.03497 0
M  V30 2721 H 244.092 -7.73844 0.937311 0
M  V30 2722 N 248.321 -0.919034 -1.28029 0
M  V30 2723 C 249.269 -0.401753 -2.29104 0
M  V30 2724 C 250.263 0.509354 -1.61561 0
M  V30 2725 O 251.469 0.390014 -1.75724 0
M  V30 2726 H 247.844 -0.111331 -0.743713 0
M  V30 2727 H 249.815 -1.2672 -2.70156 0
M  V30 2728 C 248.564 0.338148 -3.46052 0
M  V30 2729 H 247.887 -0.353732 -3.98232 0
M  V30 2730 H 249.327 0.664653 -4.18758 0
M  V30 2731 C 247.786 1.54798 -2.99231 0
M  V30 2732 O 248.316 2.64696 -3.02157 0
M  V30 2733 N 246.522 1.3968 -2.54829 0
M  V30 2734 H 246.069 0.502698 -2.52647 0
M  V30 2735 H 246.027 2.20755 -2.23863 0
M  V30 2736 N 249.799 1.42003 -0.683588 0
M  V30 2737 C 250.762 2.29191 -0.0198243 0
M  V30 2738 C 251.762 1.43773 0.72013 0
M  V30 2739 O 252.952 1.65061 0.556815 0
M  V30 2740 C 250.084 3.26435 0.982487 0
M  V30 2741 H 251.277 2.8938 -0.787345 0
M  V30 2742 H 248.83 1.49789 -0.446418 0
M  V30 2743 H 249.565 2.71203 1.77819 0
M  V30 2744 H 249.35 3.89449 0.455182 0
M  V30 2745 H 250.84 3.918 1.44508 0
M  V30 2746 N 251.277 0.427512 1.51691 0
M  V30 2747 C 252.507 -0.140986 2.06118 0
M  V30 2748 C 252.915 -1.37854 1.29588 0
M  V30 2749 O 252.258 -1.80411 0.346036 0
M  V30 2750 C 252.32 -0.538276 3.55447 0
M  V30 2751 C 251.984 0.591095 4.53161 0
M  V30 2752 C 252.981 1.46027 4.98971 0
M  V30 2753 C 250.666 0.769028 4.96378 0
M  V30 2754 C 252.66 2.49216 5.8666 0
M  V30 2755 C 250.347 1.80421 5.83859 0
M  V30 2756 C 251.345 2.66417 6.28897 0
M  V30 2757 O 251.033 3.68159 7.14643 0
M  V30 2758 H 250.765 -0.0157455 0.675817 0
M  V30 2759 H 253.319 0.602495 1.96365 0
M  V30 2760 H 251.549 -1.33432 3.6295 0
M  V30 2761 H 253.238 -1.0368 3.92435 0
M  V30 2762 H 254.004 1.33429 4.66285 0
M  V30 2763 H 249.883 0.109273 4.6087 0
M  V30 2764 H 253.427 3.16372 6.21735 0
M  V30 2765 H 249.324 1.93042 6.15959 0
M  V30 2766 H 250.092 3.64622 7.32798 0
M  V30 2767 N 252.755 -1.56801 0.158532 0
M  V30 2768 C 253.685 -2.20347 -0.772609 0
M  V30 2769 C 254.666 -1.15518 -1.24859 0
M  V30 2770 O 255.851 -1.43902 -1.30406 0
M  V30 2771 C 252.981 -2.83417 -2.00729 0
M  V30 2772 C 251.935 -3.94174 -1.66765 0
M  V30 2773 C 251.261 -4.44233 -2.97592 0
M  V30 2774 C 252.561 -5.14392 -0.905447 0
M  V30 2775 H 254.255 -2.98413 -0.242959 0
M  V30 2776 H 251.801 -1.43537 -0.115419 0
M  V30 2777 H 253.754 -3.26543 -2.6636 0
M  V30 2778 H 252.478 -2.02701 -2.56086 0
M  V30 2779 H 251.137 -3.51684 -1.03508 0
M  V30 2780 H 250.785 -3.60325 -3.50963 0
M  V30 2781 H 250.485 -5.18945 -2.75626 0
M  V30 2782 H 252.009 -4.90037 -3.64274 0
M  V30 2783 H 253.423 -5.5429 -1.46408 0
M  V30 2784 H 251.82 -5.9494 -0.7853 0
M  V30 2785 H 252.89 -4.84795 0.100668 0
M  V30 2786 N 254.233 0.115231 -1.57178 0
M  V30 2787 C 255.458 0.840354 -1.89612 0
M  V30 2788 C 255.883 1.72464 -0.750845 0
M  V30 2789 O 255.241 1.78826 0.298478 0
M  V30 2790 C 255.289 1.64654 -3.20814 0
M  V30 2791 O 254.393 2.7538 -3.06985 0
M  V30 2792 H 253.734 0.232158 -0.622092 0
M  V30 2793 H 256.264 0.0964977 -2.04372 0
M  V30 2794 H 256.274 2.03499 -3.53627 0
M  V30 2795 H 254.949 0.997416 -4.03763 0
M  V30 2796 H 253.526 2.3971 -2.85646 0
M  V30 2797 N 255.711 1.52812 0.385517 0
M  V30 2798 C 256.643 1.74096 1.49074 0
M  V30 2799 C 257.656 0.621462 1.50472 0
M  V30 2800 O 258.845 0.897245 1.54311 0
M  V30 2801 C 255.945 1.78774 2.87911 0
M  V30 2802 C 255.118 3.08134 3.10439 0
M  V30 2803 C 254.177 3.04313 4.29278 0
M  V30 2804 O 253.203 3.78168 4.25415 0
M  V30 2805 N 254.405 2.23741 5.35649 0
M  V30 2806 H 257.17 2.69455 1.31202 0
M  V30 2807 H 254.731 1.51343 0.575065 0
M  V30 2808 H 256.723 1.73721 3.65518 0
M  V30 2809 H 255.293 0.907869 2.99126 0
M  V30 2810 H 254.513 3.26649 2.20667 0
M  V30 2811 H 255.801 3.93662 3.22347 0
M  V30 2812 H 255.199 1.63211 5.41645 0
M  V30 2813 H 253.756 2.24524 6.11909 0
M  V30 2814 N 257.189 -0.644168 1.43834 0
M  V30 2815 C 258.466 -1.40188 1.36406 0
M  V30 2816 C 258.846 -2.11094 0.0163124 0
M  V30 2817 O 258.194 -2.05426 -1.00062 0
M  V30 2818 C 258.404 -2.3791 2.55343 0
M  V30 2819 C 259.752 -3.01637 2.98832 0
M  V30 2820 O 260.776 -2.48237 2.55455 0
M  V30 2821 O 259.635 -3.98477 3.74003 0
M  V30 2822 H 256.729 -0.626773 0.539523 0
M  V30 2823 H 259.275 -0.670317 1.559 0
M  V30 2824 H 258.047 -1.84525 3.4506 0
M  V30 2825 H 257.67 -3.18503 2.37995 0
M  V30 2826 N 258.668 -1.30515 -0.883378 0
M  V30 2827 C 259.6 -1.12846 -1.99496 0
M  V30 2828 C 260.613 -0.0712571 -1.62644 0
M  V30 2829 O 261.802 -0.317432 -1.75655 0
M  V30 2830 C 258.902 -0.699123 -3.3161 0
M  V30 2831 C 258.075 -1.83842 -3.96889 0
M  V30 2832 C 257.134 -1.39737 -5.07307 0
M  V30 2833 O 256.16 -2.10485 -5.28852 0
M  V30 2834 N 257.362 -0.277279 -5.79837 0
M  V30 2835 H 260.127 -2.08585 -2.15203 0
M  V30 2836 H 257.688 -1.22672 -1.05656 0
M  V30 2837 H 259.68 -0.387044 -4.02845 0
M  V30 2838 H 258.25 0.166276 -3.12157 0
M  V30 2839 H 257.47 -2.31853 -3.18807 0
M  V30 2840 H 258.758 -2.60187 -4.37241 0
M  V30 2841 H 258.156 0.3122 -5.64838 0
M  V30 2842 H 256.713 -0.0246623 -6.51795 0
M  V30 2843 N 260.146 1.09593 -1.13257 0
M  V30 2844 C 261.374 1.855 -0.916378 0
M  V30 2845 C 261.789 1.81069 0.534738 0
M  V30 2846 O 261.146 1.20562 1.37007 0
M  V30 2847 C 261.197 3.33546 -1.39388 0
M  V30 2848 O 260.918 3.37927 -2.78813 0
M  V30 2849 C 262.419 4.26299 -1.21588 0
M  V30 2850 H 259.639 0.585991 -0.326887 0
M  V30 2851 H 262.183 1.38488 -1.5047 0
M  V30 2852 H 260.338 3.77992 -0.848597 0
M  V30 2853 H 260.752 4.30254 -2.9997 0
M  V30 2854 H 262.226 5.28341 -1.59876 0
M  V30 2855 H 262.703 4.38918 -0.157376 0
M  V30 2856 H 263.309 3.87668 -1.7491 0
M  V30 2857 N 261.624 0.925811 1.2754 0
M  V30 2858 C 262.87 0.566092 1.94739 0
M  V30 2859 C 263.203 -0.890057 1.72603 0
M  V30 2860 O 262.478 -1.63467 1.05399 0
M  V30 2861 C 262.761 0.89054 3.48915 0
M  V30 2862 C 262.614 2.4003 3.80402 0
M  V30 2863 C 263.933 0.395101 4.38323 0
M  V30 2864 H 261.052 0.20714 0.707292 0
M  V30 2865 H 263.694 1.15725 1.50691 0
M  V30 2866 H 261.844 0.387452 3.86563 0
M  V30 2867 H 263.516 2.97494 3.52555 0
M  V30 2868 H 261.759 2.85028 3.2702 0
M  V30 2869 H 262.43 2.57785 4.8811 0
M  V30 2870 H 264.906 0.826241 4.07814 0
M  V30 2871 H 263.782 0.651086 5.45025 0
M  V30 2872 H 264.043 -0.704798 4.36446 0
M  V30 2873 N 263.102 -1.41638 0.69111 0
M  V30 2874 C 264.012 -2.34588 0.0233487 0
M  V30 2875 C 265.028 -1.55987 -0.770984 0
M  V30 2876 O 266.204 -1.88486 -0.709569 0
M  V30 2877 C 263.269 -3.34684 -0.904851 0
M  V30 2878 C 262.33 -4.29176 -0.103225 0
M  V30 2879 C 261.563 -5.2449 -0.987216 0
M  V30 2880 O 261.786 -5.2514 -2.22674 0
M  V30 2881 O 260.72 -6.00295 -0.439281 0
M  V30 2882 H 264.546 -2.93261 0.789416 0
M  V30 2883 H 262.131 -1.42417 0.45142 0
M  V30 2884 H 264.013 -3.96133 -1.43724 0
M  V30 2885 H 262.688 -2.78461 -1.65049 0
M  V30 2886 H 261.595 -3.71089 0.473655 0
M  V30 2887 H 262.928 -4.88484 0.60365 0
M  V30 2888 N 264.58 -0.43555 -1.51462 0
M  V30 2889 C 265.996 -0.0877501 -1.59359 0
M  V30 2890 C 266.196 1.4027 -1.4466 0
M  V30 2891 O 265.252 2.17243 -1.28693 0
M  V30 2892 C 266.565 -0.606264 -2.94525 0
M  V30 2893 C 268.113 -0.566548 -3.0783 0
M  V30 2894 C 268.588 -1.06201 -4.45517 0
M  V30 2895 N 270.079 -1.01992 -4.51832 0
M  V30 2896 C 270.814 -1.37417 -5.5669 0
M  V30 2897 N 270.31 -1.80119 -6.68976 0
M  V30 2898 N 272.103 -1.29245 -5.47039 0
M  V30 2899 H 264.254 -1.40533 -1.59261 0
M  V30 2900 H 266.517 -0.578992 -0.750648 0
M  V30 2901 H 266.223 -1.64901 -3.10645 0
M  V30 2902 H 266.097 -0.0302097 -3.77188 0
M  V30 2903 H 268.484 0.467208 -2.91378 0
M  V30 2904 H 268.565 -1.17898 -2.2701 0
M  V30 2905 H 268.209 -2.09422 -4.62715 0
M  V30 2906 H 268.139 -0.426127 -5.24873 0
M  V30 2907 H 270.63 -0.706308 -3.71241 0
M  V30 2908 H 270.943 -2.05392 -7.45006 0
M  V30 2909 H 269.288 -1.84044 -6.70189 0
M  V30 2910 H 272.479 -0.957522 -4.58202 0
M  V30 2911 H 272.652 -1.57182 -6.28648 0
M  V30 2912 N 266.058 1.56714 -0.166846 0
M  V30 2913 C 267.005 2.17746 0.765193 0
M  V30 2914 C 267.975 1.11614 1.23011 0
M  V30 2915 O 269.16 1.39745 1.29908 0
M  V30 2916 C 266.3 2.81882 1.9909 0
M  V30 2917 C 265.413 4.02462 1.56997 0
M  V30 2918 C 264.548 4.54537 2.749 0
M  V30 2919 C 263.587 5.67538 2.29275 0
M  V30 2920 N 262.724 6.14142 3.40255 0
M  V30 2921 H 267.564 2.97048 0.237952 0
M  V30 2922 H 265.101 1.4672 0.105725 0
M  V30 2923 H 267.059 3.17221 2.70974 0
M  V30 2924 H 265.689 2.05191 2.49192 0
M  V30 2925 H 264.741 3.72973 0.748037 0
M  V30 2926 H 266.053 4.84273 1.19503 0
M  V30 2927 H 265.207 4.92035 3.54946 0
M  V30 2928 H 263.946 3.71774 3.1565 0
M  V30 2929 H 262.951 5.29597 1.47674 0
M  V30 2930 H 264.176 6.52099 1.89588 0
M  V30 2931 H 262.122 5.3431 3.8059 0
M  V30 2932 H 262.039 6.9093 3.06841 0
M  V30 2933 H 263.307 6.56289 4.206 0
M  V30 2934 N 267.536 -0.106894 1.57237 0
M  V30 2935 C 268.499 -1.11466 2.0027 0
M  V30 2936 C 269.499 -1.33623 0.894519 0
M  V30 2937 O 270.689 -1.29935 1.16028 0
M  V30 2938 C 267.821 -2.46646 2.35327 0
M  V30 2939 H 269.014 -0.744516 2.90512 0
M  V30 2940 H 266.567 -0.351576 1.52295 0
M  V30 2941 H 267.302 -2.88558 1.48003 0
M  V30 2942 H 267.087 -2.31915 3.16161 0
M  V30 2943 H 268.577 -3.19151 2.69318 0
M  V30 2944 N 269.014 -1.53014 -0.377408 0
M  V30 2945 C 269.961 -1.78616 -1.46168 0
M  V30 2946 C 270.931 -0.629917 -1.53692 0
M  V30 2947 O 272.116 -0.870861 -1.69766 0
M  V30 2948 C 269.256 -1.97123 -2.8326 0
M  V30 2949 C 268.369 -3.24831 -2.84796 0
M  V30 2950 C 267.504 -3.33591 -4.13389 0
M  V30 2951 C 266.543 -4.55377 -4.09021 0
M  V30 2952 N 265.68 -4.61355 -5.29241 0
M  V30 2953 H 270.52 -2.71142 -1.23637 0
M  V30 2954 H 268.057 -1.34326 -0.599577 0
M  V30 2955 H 270.015 -2.05839 -3.62886 0
M  V30 2956 H 268.645 -1.07946 -3.04216 0
M  V30 2957 H 267.697 -3.25128 -1.97474 0
M  V30 2958 H 269.009 -4.14523 -2.77439 0
M  V30 2959 H 268.163 -3.41554 -5.01424 0
M  V30 2960 H 266.902 -2.41894 -4.23484 0
M  V30 2961 H 265.907 -4.47527 -3.19373 0
M  V30 2962 H 267.132 -5.48402 -4.00539 0
M  V30 2963 H 265.078 -3.72554 -5.39944 0
M  V30 2964 H 264.995 -5.44935 -5.24006 0
M  V30 2965 H 266.263 -4.73586 -6.19141 0
M  V30 2966 N 270.492 0.636531 -1.44174 0
M  V30 2967 C 271.402 1.77754 -1.53103 0
M  V30 2968 C 272.418 1.68928 -0.417034 0
M  V30 2969 O 273.594 1.89801 -0.6736 0
M  V30 2970 C 270.659 3.14115 -1.46741 0
M  V30 2971 C 269.72 3.34612 -2.68948 0
M  V30 2972 C 268.953 4.64467 -2.6288 0
M  V30 2973 O 269.176 5.44919 -1.68581 0
M  V30 2974 O 268.11 4.87049 -3.53648 0
M  V30 2975 H 271.936 1.73174 -2.49489 0
M  V30 2976 H 269.521 0.79709 -1.2636 0
M  V30 2977 H 271.403 3.95412 -1.45696 0
M  V30 2978 H 270.078 3.19249 -0.534975 0
M  V30 2979 H 268.985 2.53014 -2.75562 0
M  V30 2980 H 270.318 3.34336 -3.61221 0
M  V30 2981 N 271.97 1.30982 0.876444 0
M  V30 2982 C 273.217 1.20296 1.62896 0
M  V30 2983 C 273.545 -0.240395 1.93009 0
M  V30 2984 O 272.8 -1.18733 1.55567 0
M  V30 2985 C 273.099 1.98572 2.9716 0
M  V30 2986 C 272.765 3.48125 2.86566 0
M  V30 2987 C 271.427 3.88905 2.83383 0
M  V30 2988 C 273.779 4.43322 2.74071 0
M  V30 2989 C 271.107 5.2316 2.65556 0
M  V30 2990 C 273.459 5.77695 2.57781 0
M  V30 2991 C 272.123 6.17704 2.52979 0
M  V30 2992 H 271.393 0.440193 0.59608 0
M  V30 2993 H 274.04 1.62177 1.01837 0
M  V30 2994 H 272.345 1.49352 3.62217 0
M  V30 2995 H 274.042 1.8769 3.54364 0
M  V30 2996 H 270.632 3.15723 2.89856 0
M  V30 2997 H 274.816 4.12752 2.75589 0
M  V30 2998 H 270.072 5.53241 2.60259 0
M  V30 2999 H 274.246 6.51091 2.47089 0
M  V30 3000 H 271.873 7.21678 2.38924 0
M  V30 3001 N 273.449 -1.08991 1.13837 0
M  V30 3002 C 274.696 -1.81258 0.902882 0
M  V30 3003 C 275.024 -1.85936 -0.570803 0
M  V30 3004 O 274.279 -1.3267 -1.43865 0
M  V30 3005 C 274.578 -3.27042 1.44147 0
M  V30 3006 C 274.244 -3.4249 2.93276 0
M  V30 3007 C 272.906 -3.46414 3.33992 0
M  V30 3008 C 275.258 -3.4666 3.892 0
M  V30 3009 C 272.586 -3.52091 4.69307 0
M  V30 3010 C 274.938 -3.53872 5.24364 0
M  V30 3011 C 273.602 -3.56066 5.646 0
M  V30 3012 H 272.872 -0.663268 0.330388 0
M  V30 3013 H 275.519 -1.28368 1.42105 0
M  V30 3014 H 273.824 -3.82599 0.844097 0
M  V30 3015 H 275.521 -3.81499 1.23528 0
M  V30 3016 H 272.111 -3.40124 2.60794 0
M  V30 3017 H 276.295 -3.42865 3.58828 0
M  V30 3018 H 271.551 -3.52079 4.9985 0
M  V30 3019 H 275.725 -3.56043 5.98503 0
M  V30 3020 H 273.352 -3.60218 6.69438 0
M  V30 3021 N 274.927 -0.932562 -1.27047 0
M  V30 3022 C 275.857 -0.452902 -2.29066 0
M  V30 3023 C 276.838 0.489338 -1.62909 0
M  V30 3024 O 278.023 0.393046 -1.90181 0
M  V30 3025 C 275.153 0.290698 -3.46081 0
M  V30 3026 C 274.107 -0.564168 -4.24265 0
M  V30 3027 C 273.433 0.308886 -5.33807 0
M  V30 3028 C 274.733 -1.83112 -4.89149 0
M  V30 3029 H 276.427 -1.30552 -2.69437 0
M  V30 3030 H 273.973 -0.629201 -1.29526 0
M  V30 3031 H 275.926 0.637233 -4.16554 0
M  V30 3032 H 274.65 1.17738 -3.0464 0
M  V30 3033 H 273.309 -0.893477 -3.55545 0
M  V30 3034 H 272.957 1.19467 -4.88607 0
M  V30 3035 H 272.657 -0.259633 -5.87026 0
M  V30 3036 H 274.181 0.650884 -6.07121 0
M  V30 3037 H 275.595 -1.55236 -5.51883 0
M  V30 3038 H 273.992 -2.34353 -5.52448 0
M  V30 3039 H 275.062 -2.54772 -4.12576 0
M  V30 3040 N 276.405 1.4127 -0.698611 0
M  V30 3041 C 277.368 2.29158 -0.044132 0
M  V30 3042 C 278.368 1.44529 0.704841 0
M  V30 3043 O 279.558 1.65643 0.539276 0
M  V30 3044 C 276.69 3.27459 0.947809 0
M  V30 3045 H 277.883 2.88529 -0.817994 0
M  V30 3046 H 275.436 1.49307 -0.46228 0
M  V30 3047 H 276.171 2.73073 1.74933 0
M  V30 3048 H 275.956 3.8991 0.41385 0
M  V30 3049 H 277.446 3.93311 1.40344 0
M  V30 3050 N 277.883 0.443576 1.51229 0
M  V30 3051 C 278.813 -0.355142 2.30783 0
M  V30 3052 C 279.794 -1.0154 1.36468 0
M  V30 3053 O 280.979 -1.01785 1.65389 0
M  V30 3054 C 278.109 -1.45312 3.15439 0
M  V30 3055 C 277.063 -0.916002 4.18083 0
M  V30 3056 C 276.389 -2.1102 4.91299 0
M  V30 3057 C 277.689 0.0538602 5.22272 0
M  V30 3058 H 279.383 0.308767 2.97804 0
M  V30 3059 H 276.929 0.149937 1.43217 0
M  V30 3060 H 278.882 -2.01914 3.69876 0
M  V30 3061 H 277.606 -2.14541 2.46252 0
M  V30 3062 H 276.265 -0.372145 3.64706 0
M  V30 3063 H 275.913 -2.78882 4.18609 0
M  V30 3064 H 275.613 -1.75717 5.60712 0
M  V30 3065 H 277.137 -2.68164 5.48562 0
M  V30 3066 H 278.551 -0.422069 5.71744 0
M  V30 3067 H 276.948 0.319776 5.99247 0
M  V30 3068 H 278.018 0.98858 4.74716 0
M  V30 3069 N 279.361 -1.56624 0.175154 0
M  V30 3070 C 280.271 -2.21741 -0.766042 0
M  V30 3071 C 281.287 -1.21023 -1.25018 0
M  V30 3072 O 282.463 -1.53697 -1.3015 0
M  V30 3073 C 279.528 -2.84839 -1.97655 0
M  V30 3074 C 278.589 -4.00769 -1.53892 0
M  V30 3075 C 277.822 -4.60849 -2.69173 0
M  V30 3076 O 278.045 -4.19823 -3.86141 0
M  V30 3077 O 276.979 -5.50655 -2.43028 0
M  V30 3078 H 280.805 -3.02738 -0.241585 0
M  V30 3079 H 278.39 -1.49305 -0.053222 0
M  V30 3080 H 280.272 -3.24834 -2.68442 0
M  V30 3081 H 278.947 -2.06836 -2.48999 0
M  V30 3082 H 277.854 -3.65436 -0.80044 0
M  V30 3083 H 279.187 -4.80376 -1.07236 0
M  V30 3084 N 280.839 0.0985539 -1.57292 0
M  V30 3085 C 281.769 1.12064 -2.04851 0
M  V30 3086 C 282.75 1.41981 -0.936767 0
M  V30 3087 O 283.935 1.52071 -1.20781 0
M  V30 3088 C 281.065 2.44144 -2.47004 0
M  V30 3089 C 280.019 2.28643 -3.6181 0
M  V30 3090 C 279.345 3.65869 -3.89929 0
M  V30 3091 C 280.645 1.72986 -4.92822 0
M  V30 3092 H 282.339 0.724979 -2.9049 0
M  V30 3093 H 279.885 0.34729 -1.39749 0
M  V30 3094 H 281.838 3.15914 -2.78884 0
M  V30 3095 H 280.562 2.85639 -1.5836 0
M  V30 3096 H 279.221 1.59318 -3.30172 0
M  V30 3097 H 278.869 4.04885 -2.98458 0
M  V30 3098 H 278.569 3.56344 -4.67218 0
M  V30 3099 H 280.093 4.39112 -4.2428 0
M  V30 3100 H 281.507 2.34593 -5.23105 0
M  V30 3101 H 279.904 1.74229 -5.74251 0
M  V30 3102 H 280.974 0.689007 -4.7998 0
M  V30 3103 N 282.317 1.53212 0.369288 0
M  V30 3104 C 283.542 1.73423 1.1375 0
M  V30 3105 C 283.967 0.460404 1.82378 0
M  V30 3106 O 283.325 -0.585298 1.71592 0
M  V30 3107 C 283.373 2.89769 2.1463 0
M  V30 3108 O 282.477 2.58119 3.21634 0
M  V30 3109 H 281.818 0.576061 0.330227 0
M  V30 3110 H 284.348 2.00083 0.427547 0
M  V30 3111 H 284.358 3.15829 2.58294 0
M  V30 3112 H 283.033 3.8217 1.64071 0
M  V30 3113 H 281.61 2.42864 2.82969 0
M  V30 3114 N 283.795 -0.628877 1.44509 0
M  V30 3115 C 284.742 -1.74074 1.51549 0
M  V30 3116 C 285.712 -1.62084 0.363021 0
M  V30 3117 O 286.897 -1.81975 0.573567 0
M  V30 3118 C 284.037 -3.12328 1.46784 0
M  V30 3119 C 283.15 -3.35277 2.72422 0
M  V30 3120 C 282.285 -4.63515 2.59475 0
M  V30 3121 C 281.324 -4.7965 3.80266 0
M  V30 3122 N 280.461 -5.99168 3.65981 0
M  V30 3123 H 285.301 -1.67392 2.46544 0
M  V30 3124 H 282.838 -0.816527 1.22357 0
M  V30 3125 H 284.796 -3.92286 1.42012 0
M  V30 3126 H 283.426 -3.18018 0.553544 0
M  V30 3127 H 282.478 -2.49242 2.87372 0
M  V30 3128 H 283.79 -3.43078 3.62076 0
M  V30 3129 H 282.944 -5.51638 2.52548 0
M  V30 3130 H 281.683 -4.58076 1.67384 0
M  V30 3131 H 280.688 -3.89957 3.87574 0
M  V30 3132 H 281.913 -4.86902 4.73395 0
M  V30 3133 H 279.859 -5.94814 2.76644 0
M  V30 3134 H 279.776 -6.08035 4.49254 0
M  V30 3135 H 281.044 -6.89846 3.6295 0
M  V30 3136 N 285.273 -1.31445 -0.869486 0
M  V30 3137 C 286.22 -1.19135 -1.97675 0
M  V30 3138 C 287.19 -0.0770266 -1.65921 0
M  V30 3139 O 288.375 -0.249972 -1.89155 0
M  V30 3140 C 285.515 -0.905149 -3.33018 0
M  V30 3141 C 284.628 -2.10285 -3.77365 0
M  V30 3142 C 283.763 -1.75339 -5.01427 0
M  V30 3143 C 282.802 -2.91515 -5.38224 0
M  V30 3144 N 281.939 -2.56762 -6.53466 0
M  V30 3145 H 286.779 -2.13853 -2.07535 0
M  V30 3146 H 284.316 -1.06379 -1.01597 0
M  V30 3147 H 286.274 -0.719765 -4.10944 0
M  V30 3148 H 284.904 0.00519624 -3.228 0
M  V30 3149 H 283.956 -2.39899 -2.95216 0
M  V30 3150 H 285.268 -2.97237 -4.00564 0
M  V30 3151 H 284.422 -1.53266 -5.87022 0
M  V30 3152 H 283.161 -0.855801 -4.80133 0
M  V30 3153 H 282.166 -3.14237 -4.51149 0
M  V30 3154 H 283.391 -3.81985 -5.61484 0
M  V30 3155 H 281.337 -1.69526 -6.33717 0
M  V30 3156 H 281.254 -3.37243 -6.76612 0
M  V30 3157 H 282.522 -2.38083 -7.42251 0
M  V30 3158 N 286.751 1.08385 -1.14413 0
M  V30 3159 C 287.981 1.8425 -0.934644 0
M  V30 3160 C 288.389 1.81907 0.520234 0
M  V30 3161 O 287.732 1.22126 1.37226 0
M  V30 3162 C 287.794 3.32853 -1.35828 0
M  V30 3163 C 287.458 3.5893 -2.82875 0
M  V30 3164 C 288.455 3.53756 -3.80989 0
M  V30 3165 C 286.14 3.86934 -3.20293 0
M  V30 3166 C 288.134 3.76216 -5.14529 0
M  V30 3167 C 285.821 4.09047 -4.54008 0
M  V30 3168 C 286.819 4.03682 -5.50936 0
M  V30 3169 O 286.507 4.25214 -6.82238 0
M  V30 3170 H 286.239 0.588502 -0.332628 0
M  V30 3171 H 288.793 1.37792 -1.52324 0
M  V30 3172 H 287.023 3.8007 -0.713019 0
M  V30 3173 H 288.712 3.90154 -1.11957 0
M  V30 3174 H 289.478 3.32135 -3.53428 0
M  V30 3175 H 285.357 3.9023 -2.45442 0
M  V30 3176 H 288.901 3.71943 -5.90173 0
M  V30 3177 H 284.798 4.30151 -4.8129 0
M  V30 3178 H 285.566 4.42619 -6.88499 0
M  V30 3179 N 288.23 0.939286 1.26551 0
M  V30 3180 C 289.455 0.602008 1.98471 0
M  V30 3181 C 289.88 -0.815624 1.69497 0
M  V30 3182 O 289.238 -1.54912 0.941905 0
M  V30 3183 C 289.286 0.848407 3.50477 0
M  V30 3184 O 288.39 -0.0804009 4.12322 0
M  V30 3185 H 287.731 0.23049 0.622712 0
M  V30 3186 H 290.261 1.2617 1.61066 0
M  V30 3187 H 290.271 0.768553 4.00696 0
M  V30 3188 H 288.946 1.88171 3.70897 0
M  V30 3189 H 287.523 0.0503508 3.72866 0
M  V30 3190 N 289.708 -1.40897 0.706093 0
M  V30 3191 C 290.655 -2.30751 0.0474474 0
M  V30 3192 C 291.625 -1.47678 -0.76029 0
M  V30 3193 O 292.81 -1.76441 -0.726177 0
M  V30 3194 C 289.95 -3.33815 -0.875309 0
M  V30 3195 C 289.063 -4.31961 -0.0580623 0
M  V30 3196 C 288.198 -5.22093 -0.979425 0
M  V30 3197 C 287.237 -6.11902 -0.155706 0
M  V30 3198 N 286.374 -6.94482 -1.03144 0
M  V30 3199 H 291.214 -2.86513 0.819413 0
M  V30 3200 H 288.751 -1.41102 0.415783 0
M  V30 3201 H 290.709 -3.92129 -1.42446 0
M  V30 3202 H 289.339 -2.79579 -1.61356 0
M  V30 3203 H 288.391 -3.75507 0.608147 0
M  V30 3204 H 289.703 -4.95415 0.580082 0
M  V30 3205 H 288.857 -5.85292 -1.59744 0
M  V30 3206 H 287.596 -4.5889 -1.65141 0
M  V30 3207 H 286.601 -5.47742 0.475309 0
M  V30 3208 H 287.826 -6.77162 0.512635 0
M  V30 3209 H 285.772 -6.33877 -1.68924 0
M  V30 3210 H 285.689 -7.54665 -0.449108 0
M  V30 3211 H 286.957 -7.6214 -1.63593 0
M  V30 3212 N 291.186 -0.45159 -1.50991 0
M  V30 3213 C 292.096 0.358431 -2.31846 0
M  V30 3214 C 293.112 1.01438 -1.41373 0
M  V30 3215 O 294.288 1.00663 -1.74439 0
M  V30 3216 C 291.353 1.43704 -3.15515 0
M  V30 3217 C 290.414 0.799742 -4.21785 0
M  V30 3218 C 289.647 1.82696 -5.01456 0
M  V30 3219 O 289.87 3.05105 -4.81941 0
M  V30 3220 O 288.804 1.40958 -5.85162 0
M  V30 3221 H 292.63 -0.302032 -3.02194 0
M  V30 3222 H 290.215 -0.213825 -1.47862 0
M  V30 3223 H 292.097 2.06227 -3.67489 0
M  V30 3224 H 290.772 2.08133 -2.47916 0
M  V30 3225 H 289.679 0.136084 -3.73852 0
M  V30 3226 H 291.012 0.198718 -4.91799 0
M  V30 3227 N 292.664 1.56529 -0.183458 0
M  V30 3228 C 293.596 2.15747 0.773697 0
M  V30 3229 C 294.609 1.1162 1.1851 0
M  V30 3230 O 295.798 1.3876 1.12285 0
M  V30 3231 C 292.898 2.6952 2.05456 0
M  V30 3232 C 292.071 3.98429 1.8048 0
M  V30 3233 C 291.13 4.37145 2.92901 0
M  V30 3234 O 290.156 5.04791 2.6301 0
M  V30 3235 N 291.358 3.99695 4.2098 0
M  V30 3236 H 294.123 2.98505 0.26736 0
M  V30 3237 H 291.684 1.619 -0.0010878 0
M  V30 3238 H 293.676 2.92412 2.79781 0
M  V30 3239 H 292.246 1.91282 2.47245 0
M  V30 3240 H 291.466 3.8379 0.899947 0
M  V30 3241 H 292.754 4.82597 1.61175 0
M  V30 3242 H 292.152 3.4526 4.48121 0
M  V30 3243 H 290.709 4.27562 4.9197 0
M  V30 3244 N 294.142 -0.090211 1.57342 0
M  V30 3245 C 295.391 -0.791531 1.8552 0
M  V30 3246 C 295.704 -1.79659 0.773441 0
M  V30 3247 O 296.91 -2.54616 0.942497 0
M  V30 3248 C 295.366 -1.45856 3.2902 0
M  V30 3249 C 294.974 -0.493017 4.45279 0
M  V30 3250 C 296.718 -2.14332 3.66418 0
M  V30 3251 C 294.625 -1.16491 5.79814 0
M  V30 3252 H 293.555 -0.299356 0.692027 0
M  V30 3253 H 296.206 -0.0445343 1.83446 0
M  V30 3254 H 294.588 -2.25318 3.2565 0
M  V30 3255 H 295.762 0.270464 4.60006 0
M  V30 3256 H 294.077 0.0863061 4.16311 0
M  V30 3257 H 296.674 -2.65344 4.64216 0
M  V30 3258 H 297.017 -2.93447 2.95287 0
M  V30 3259 H 297.55 -1.41724 3.71698 0
M  V30 3260 H 294.289 -0.41447 6.54188 0
M  V30 3261 H 293.809 -1.8997 5.68921 0
M  V30 3262 H 295.488 -1.69001 6.24538 0
M  V30 3263 N 295.62 -1.53406 -0.361157 0
M  V30 3264 C 296.55 -1.83136 -1.44857 0
M  V30 3265 C 297.531 -0.685174 -1.5569 0
M  V30 3266 O 298.716 -0.93544 -1.70186 0
M  V30 3267 C 295.846 -2.02522 -2.82138 0
M  V30 3268 C 294.8 -3.18302 -2.86126 0
M  V30 3269 C 294.126 -3.22989 -4.26125 0
M  V30 3270 C 295.426 -4.56796 -2.53248 0
M  V30 3271 H 297.12 -2.74201 -1.20226 0
M  V30 3272 H 294.666 -1.31938 -0.576922 0
M  V30 3273 H 296.619 -2.21904 -3.58241 0
M  V30 3274 H 295.343 -1.08172 -3.08166 0
M  V30 3275 H 294.002 -2.98747 -2.12475 0
M  V30 3276 H 293.65 -2.26267 -4.49235 0
M  V30 3277 H 293.35 -4.00781 -4.29708 0
M  V30 3278 H 294.874 -3.44559 -5.04094 0
M  V30 3279 H 296.288 -4.7631 -3.19064 0
M  V30 3280 H 294.685 -5.36862 -2.68141 0
M  V30 3281 H 295.755 -4.61606 -1.48484 0
M  V30 3282 N 297.098 0.621204 -1.44841 0
M  V30 3283 C 298.326 1.40752 -1.51646 0
M  V30 3284 C 298.741 1.88246 -0.144549 0
M  V30 3285 O 298.098 1.61422 0.851416 0
M  V30 3286 C 298.149 2.62119 -2.4895 0
M  V30 3287 O 297.87 2.16602 -3.80808 0
M  V30 3288 C 299.371 3.55135 -2.65319 0
M  V30 3289 H 296.591 0.431325 -0.514004 0
M  V30 3290 H 299.135 0.758835 -1.899 0
M  V30 3291 H 297.29 3.23058 -2.13805 0
M  V30 3292 H 297.704 2.95358 -4.33433 0
M  V30 3293 H 299.178 4.36874 -3.37409 0
M  V30 3294 H 299.655 4.04592 -1.70886 0
M  V30 3295 H 300.261 3.00058 -3.01405 0
M  V30 3296 N 298.576 1.31904 0.862503 0
M  V30 3297 C 299.509 1.14514 1.97388 0
M  V30 3298 C 300.487 0.0466493 1.62533 0
M  V30 3299 O 301.671 0.204484 1.87388 0
M  V30 3300 C 298.798 0.751347 3.30261 0
M  V30 3301 C 297.844 1.85395 3.84098 0
M  V30 3302 S 298.677 3.46081 4.08642 0
M  V30 3303 C 299.833 3.08655 5.44502 0
M  V30 3304 H 300.066 2.08597 2.11836 0
M  V30 3305 H 297.599 1.16475 1.01356 0
M  V30 3306 H 299.557 0.530901 4.07052 0
M  V30 3307 H 298.218 -0.170493 3.13637 0
M  V30 3308 H 297.411 1.53122 4.80177 0
M  V30 3309 H 297.013 2.02984 3.14123 0
M  V30 3310 H 299.305 2.58012 6.26447 0
M  V30 3311 H 300.248 4.03726 5.81731 0
M  V30 3312 H 300.656 2.45891 5.08132 0
M  V30 3313 N 300.054 -1.07777 1.14986 0
M  V30 3314 C 301.284 -1.83752 0.944402 0
M  V30 3315 C 301.692 -1.8218 -0.51058 0
M  V30 3316 O 301.035 -1.22852 -1.36576 0
M  V30 3317 C 301.097 -3.32128 1.37592 0
M  V30 3318 C 300.761 -3.57425 2.84775 0
M  V30 3319 C 301.758 -3.5173 3.8286 0
M  V30 3320 C 299.443 -3.8523 3.2234 0
M  V30 3321 C 301.437 -3.73482 5.16517 0
M  V30 3322 C 299.124 -4.06634 4.56171 0
M  V30 3323 C 300.122 -4.00754 5.53069 0
M  V30 3324 O 299.81 -4.2159 6.84483 0
M  V30 3325 H 299.542 -0.58673 0.335744 0
M  V30 3326 H 302.096 -1.36982 1.53052 0
M  V30 3327 H 300.326 -3.79686 0.733165 0
M  V30 3328 H 302.015 -3.89555 1.14024 0
M  V30 3329 H 302.781 -3.30256 3.55184 0
M  V30 3330 H 298.66 -3.88923 2.47508 0
M  V30 3331 H 302.204 -3.68808 5.92137 0
M  V30 3332 H 298.101 -4.27593 4.83564 0
M  V30 3333 H 298.869 -4.38961 6.90837 0
M  V30 3334 N 301.532 -0.945985 -1.26051 0
M  V30 3335 C 302.462 -0.477172 -2.28572 0
M  V30 3336 C 303.443 0.472032 -1.63419 0
M  V30 3337 O 304.628 0.372853 -1.90587 0
M  V30 3338 C 301.758 0.253975 -3.4637 0
M  V30 3339 C 300.712 -0.609135 -4.23643 0
M  V30 3340 C 300.038 0.252252 -5.34105 0
M  V30 3341 C 301.338 -1.8829 -4.8718 0
M  V30 3342 H 303.032 -1.33402 -2.68038 0
M  V30 3343 H 300.578 -0.642904 -1.28852 0
M  V30 3344 H 302.531 0.593016 -4.17207 0
M  V30 3345 H 301.255 1.145 -3.05871 0
M  V30 3346 H 299.914 -0.931138 -3.54578 0
M  V30 3347 H 299.562 1.14278 -4.89846 0
M  V30 3348 H 299.262 -0.32188 -5.86718 0
M  V30 3349 H 300.786 0.586454 -6.07777 0
M  V30 3350 H 302.2 -1.61081 -5.50205 0
M  V30 3351 H 300.597 -2.40199 -5.49931 0
M  V30 3352 H 301.667 -2.59134 -4.09851 0
M  V30 3353 N 303.011 1.40521 -0.713556 0
M  V30 3354 C 303.959 2.32549 -0.0485227 0
M  V30 3355 C 304.953 1.51931 0.74922 0
M  V30 3356 O 306.159 1.67745 0.652816 0
M  V30 3357 H 302.534 0.751994 0.00311138 0
M  V30 3358 H 304.505 2.86291 -0.841443 0
M  V30 3359 C 303.254 3.36879 0.860687 0
M  V30 3360 H 302.577 3.98978 0.256246 0
M  V30 3361 H 304.017 4.03772 1.294 0
M  V30 3362 C 302.476 2.72197 1.9852 0
M  V30 3363 O 303.006 2.5837 3.07584 0
M  V30 3364 N 301.212 2.30612 1.76823 0
M  V30 3365 H 300.759 2.42059 0.881217 0
M  V30 3366 H 300.717 1.87672 2.52243 0
M  V30 3367 N 304.489 0.459591 1.5075 0
M  V30 3368 C 305.437 -0.354678 2.2988 0
M  V30 3369 C 306.431 -1.00086 1.36672 0
M  V30 3370 O 307.637 -0.933277 1.53915 0
M  V30 3371 H 304.012 -0.13321 0.740107 0
M  V30 3372 H 305.983 0.333269 2.96533 0
M  V30 3373 C 304.732 -1.43073 3.169 0
M  V30 3374 H 304.055 -0.942882 3.88523 0
M  V30 3375 H 305.495 -1.97328 3.75284 0
M  V30 3376 C 303.954 -2.42633 2.33732 0
M  V30 3377 O 304.484 -3.47658 2.01238 0
M  V30 3378 N 302.69 -2.14066 1.9653 0
M  V30 3379 H 302.237 -1.28685 2.23155 0
M  V30 3380 H 302.195 -2.80917 1.41185 0
M  V30 3381 N 305.967 -1.56429 0.191757 0
M  V30 3382 C 306.93 -2.17707 -0.716688 0
M  V30 3383 C 307.93 -1.13061 -1.14341 0
M  V30 3384 O 309.12 -1.38464 -1.05704 0
M  V30 3385 C 306.252 -2.77644 -1.97804 0
M  V30 3386 H 307.445 -2.99342 -0.1829 0
M  V30 3387 H 304.998 -1.56193 -0.0578566 0
M  V30 3388 H 305.733 -1.99799 -2.55443 0
M  V30 3389 H 305.518 -3.54246 -1.68083 0
M  V30 3390 H 307.008 -3.24708 -2.62592 0
M  V30 3391 N 307.445 0.0818655 -1.57387 0
M  V30 3392 C 308.675 0.794954 -1.90694 0
M  V30 3393 C 309.083 1.72147 -0.784982 0
M  V30 3394 O 308.426 1.81974 0.251196 0
M  V30 3395 C 308.488 1.65042 -3.19376 0
M  V30 3396 C 308.152 0.894337 -4.48164 0
M  V30 3397 C 309.149 0.21813 -5.19442 0
M  V30 3398 C 306.834 0.864495 -4.94805 0
M  V30 3399 C 308.828 -0.477802 -6.35607 0
M  V30 3400 C 306.515 0.164785 -6.10878 0
M  V30 3401 C 307.513 -0.505173 -6.81129 0
M  V30 3402 O 307.201 -1.19363 -7.94989 0
M  V30 3403 H 306.933 0.231779 -0.635023 0
M  V30 3404 H 309.487 0.059493 -2.05314 0
M  V30 3405 H 307.717 2.42844 -3.00938 0
M  V30 3406 H 309.406 2.24127 -3.38411 0
M  V30 3407 H 310.172 0.232558 -4.84442 0
M  V30 3408 H 306.051 1.37542 -4.40004 0
M  V30 3409 H 309.595 -1.00129 -6.90377 0
M  V30 3410 H 305.492 0.148249 -6.4533 0
M  V30 3411 H 306.26 -1.10188 -8.11049 0
M  V30 3412 N 308.923 1.53595 0.353017 0
M  V30 3413 C 310.17 1.70385 1.09431 0
M  V30 3414 C 310.498 0.462113 1.88931 0
M  V30 3415 O 309.753 -0.556074 1.87633 0
M  V30 3416 C 310.052 2.91313 2.07054 0
M  V30 3417 C 309.718 4.27308 1.43939 0
M  V30 3418 C 308.38 4.64287 1.26454 0
M  V30 3419 C 310.732 5.11829 0.983883 0
M  V30 3420 C 308.06 5.83412 0.620226 0
M  V30 3421 C 310.412 6.31611 0.353516 0
M  V30 3422 C 309.076 6.67293 0.166272 0
M  V30 3423 H 308.346 0.623484 0.400436 0
M  V30 3424 H 310.993 1.87799 0.374655 0
M  V30 3425 H 309.298 2.68463 2.85368 0
M  V30 3426 H 310.995 3.01497 2.64387 0
M  V30 3427 H 307.585 3.98198 1.58543 0
M  V30 3428 H 311.769 4.838 1.10685 0
M  V30 3429 H 307.025 6.09639 0.463681 0
M  V30 3430 H 311.199 6.964 -0.00757555 0
M  V30 3431 H 308.826 7.59461 -0.335047 0
M  V30 3432 N 310.401 -0.613514 1.45168 0
M  V30 3433 C 311.649 -1.36997 1.48581 0
M  V30 3434 C 311.97 -1.94589 0.126545 0
M  V30 3435 O 311.24 -1.76816 -0.843372 0
M  V30 3436 H 309.82 -0.508558 0.547154 0
M  V30 3437 H 312.482 -0.720853 1.81079 0
M  V30 3438 H 311.578 -2.1924 2.22127 0
M  V30 3439 N 311.879 -1.3236 -0.855495 0
M  V30 3440 C 312.827 -1.2118 -1.9854 0
M  V30 3441 C 313.821 -0.116788 -1.68997 0
M  V30 3442 O 315.027 -0.279657 -1.77814 0
M  V30 3443 H 311.402 -0.375608 -0.651477 0
M  V30 3444 H 313.373 -2.16743 -2.05098 0
M  V30 3445 C 312.122 -0.950849 -3.34446 0
M  V30 3446 H 311.445 -1.78563 -3.57708 0
M  V30 3447 H 312.885 -0.912863 -4.14057 0
M  V30 3448 C 311.344 0.346404 -3.35114 0
M  V30 3449 O 311.874 1.35855 -3.7803 0
M  V30 3450 N 310.08 0.36808 -2.88259 0
M  V30 3451 H 309.627 -0.456102 -2.5353 0
M  V30 3452 H 309.585 1.23591 -2.89089 0
M  V30 3453 N 313.357 1.07166 -1.15556 0
M  V30 3454 C 314.605 1.79443 -0.929764 0
M  V30 3455 C 314.926 1.87246 0.544414 0
M  V30 3456 O 314.196 1.37473 1.39564 0
M  V30 3457 H 312.776 0.664625 -0.341003 0
M  V30 3458 H 315.438 1.29499 -1.45657 0
M  V30 3459 H 314.534 2.81832 -1.34079 0
M  V30 3460 N 314.835 0.952656 1.25548 0
M  V30 3461 C 316.081 0.607272 1.93494 0
M  V30 3462 C 316.414 -0.853245 1.74452 0
M  V30 3463 O 315.689 -1.61194 1.08843 0
M  V30 3464 C 315.972 0.96435 3.46947 0
M  V30 3465 C 315.825 2.48045 3.75225 0
M  V30 3466 C 317.144 0.487987 4.37386 0
M  V30 3467 H 314.263 0.222096 0.702739 0
M  V30 3468 H 316.905 1.18895 1.48203 0
M  V30 3469 H 315.055 0.469361 3.85654 0
M  V30 3470 H 316.727 3.04905 3.46166 0
M  V30 3471 H 314.97 2.919 3.209 0
M  V30 3472 H 315.641 2.6808 4.82532 0
M  V30 3473 H 318.117 0.912558 4.0597 0
M  V30 3474 H 316.993 0.766547 5.43521 0
M  V30 3475 H 317.254 -0.612063 4.37843 0
M  V30 3476 N 316.313 -1.40141 0.720998 0
M  V30 3477 C 317.559 -2.01572 0.272075 0
M  V30 3478 C 317.914 -1.5616 -1.12391 0
M  V30 3479 O 317.207 -0.774198 -1.75262 0
M  V30 3480 C 317.401 -3.56165 0.296892 0
M  V30 3481 C 317.23 -4.16584 1.69375 0
M  V30 3482 C 316 -4.49783 2.30269 0
M  V30 3483 C 318.198 -4.41076 2.64493 0
M  V30 3484 N 316.18 -4.95626 3.62254 0
M  V30 3485 C 317.551 -4.88971 3.81192 0
M  V30 3486 C 319.606 -4.23122 2.62435 0
M  V30 3487 C 318.309 -5.20796 4.96149 0
M  V30 3488 C 320.335 -4.56052 3.76524 0
M  V30 3489 C 319.697 -5.04141 4.91956 0
M  V30 3490 H 315.796 -0.768343 0.145511 0
M  V30 3491 H 318.38 -1.70287 0.943959 0
M  V30 3492 H 316.551 -3.86868 -0.344578 0
M  V30 3493 H 318.283 -4.04346 -0.169254 0
M  V30 3494 H 315.038 -4.37101 1.82318 0
M  V30 3495 H 315.462 -5.22923 4.29977 0
M  V30 3496 H 320.104 -3.85158 1.74393 0
M  V30 3497 H 317.822 -5.57672 5.84831 0
M  V30 3498 H 321.408 -4.43796 3.76213 0
M  V30 3499 H 320.288 -5.29142 5.78774 0
M  V30 3500 N 317.792 -0.46758 -1.50504 0
M  V30 3501 C 319.04 0.0884469 -2.01906 0
M  V30 3502 C 319.361 1.40532 -1.35188 0
M  V30 3503 O 318.631 1.89515 -0.496079 0
M  V30 3504 H 317.211 0.0356765 -0.746148 0
M  V30 3505 H 319.873 -0.6172 -1.84869 0
M  V30 3506 H 318.969 0.2425 -3.11156 0
M  V30 3507 N 319.27 1.56325 -0.20005 0
M  V30 3508 C 320.516 1.98012 0.438059 0
M  V30 3509 C 320.849 1.08702 1.60927 0
M  V30 3510 O 320.124 0.140064 1.93995 0
M  V30 3511 C 320.407 3.48841 0.893419 0
M  V30 3512 C 320.26 4.48928 -0.279947 0
M  V30 3513 C 321.579 4.03498 1.75719 0
M  V30 3514 H 318.698 0.719918 0.157757 0
M  V30 3515 H 321.34 1.87743 -0.291968 0
M  V30 3516 H 319.49 3.57723 1.51547 0
M  V30 3517 H 321.162 4.52079 -0.91772 0
M  V30 3518 H 319.405 4.23694 -0.930919 0
M  V30 3519 H 320.076 5.5194 0.0812601 0
M  V30 3520 H 322.552 3.97427 1.23253 0
M  V30 3521 H 321.428 5.09393 2.04476 0
M  V30 3522 H 321.689 3.4906 2.71311 0
M  V30 3523 N 320.748 -0.0735177 1.57428 0
M  V30 3524 C 321.658 -1.10547 2.06922 0
M  V30 3525 C 322.674 -1.42506 0.998402 0
M  V30 3526 O 323.85 -1.52717 1.31299 0
M  V30 3527 C 320.915 -2.40019 2.50184 0
M  V30 3528 C 319.976 -2.15046 3.71556 0
M  V30 3529 C 319.209 -3.38345 4.12745 0
M  V30 3530 O 319.432 -4.47399 3.53822 0
M  V30 3531 O 318.366 -3.2666 5.05546 0
M  V30 3532 H 322.192 -0.715013 2.95163 0
M  V30 3533 H 319.777 -0.287531 1.46607 0
M  V30 3534 H 321.659 -3.16218 2.78539 0
M  V30 3535 H 320.334 -2.78447 1.65072 0
M  V30 3536 H 319.241 -1.36558 3.48285 0
M  V30 3537 H 320.574 -1.81499 4.57514 0
M  V30 3538 N 322.226 -1.5378 -0.344866 0
M  V30 3539 C 323.503 -1.61589 -1.10219 0
M  V30 3540 C 323.883 -0.436316 -2.06542 0
M  V30 3541 O 323.231 0.571543 -2.21237 0
M  V30 3542 C 323.441 -2.97602 -1.82301 0
M  V30 3543 C 324.789 -3.5291 -2.36093 0
M  V30 3544 O 325.813 -2.99768 -1.924 0
M  V30 3545 O 324.672 -4.45859 -3.16026 0
M  V30 3546 H 321.766 -0.653522 -0.506792 0
M  V30 3547 H 324.312 -1.66126 -0.346465 0
M  V30 3548 H 323.084 -3.74893 -1.12121 0
M  V30 3549 H 322.707 -2.9665 -2.64735 0
M  V30 3550 N 323.704 0.605807 -1.45491 0
M  V30 3551 C 324.667 1.69836 -1.5391 0
M  V30 3552 C 325.667 1.55261 -0.418424 0
M  V30 3553 O 326.857 1.60296 -0.681965 0
M  V30 3554 C 323.989 3.09117 -1.43734 0
M  V30 3555 H 325.182 1.63738 -2.51257 0
M  V30 3556 H 322.735 0.821689 -1.32959 0
M  V30 3557 H 323.47 3.20791 -0.475788 0
M  V30 3558 H 323.255 3.21104 -2.25021 0
M  V30 3559 H 324.745 3.88696 -1.52661 0
M  V30 3560 N 325.182 1.32811 0.848464 0
M  V30 3561 C 326.407 1.26882 1.6406 0
M  V30 3562 C 326.832 -0.15913 1.87426 0
M  V30 3563 O 326.19 -1.11258 1.43148 0
M  V30 3564 C 326.238 2.03997 2.97351 0
M  V30 3565 O 325.342 1.39201 3.88197 0
M  V30 3566 H 324.683 0.436982 0.499943 0
M  V30 3567 H 327.213 1.75224 1.0563 0
M  V30 3568 H 327.223 2.14403 3.47124 0
M  V30 3569 H 325.898 3.0783 2.79666 0
M  V30 3570 H 324.475 1.37381 3.46671 0
M  V30 3571 N 326.66 -1.06551 1.16123 0
M  V30 3572 C 327.607 -2.13961 0.865414 0
M  V30 3573 C 328.577 -1.65066 -0.185055 0
M  V30 3574 O 329.762 -1.90732 -0.05083 0
M  V30 3575 C 326.902 -3.43113 0.369776 0
M  V30 3576 C 326.015 -4.05756 1.48276 0
M  V30 3577 C 325.15 -5.22773 0.942414 0
M  V30 3578 C 324.189 -5.77395 2.03179 0
M  V30 3579 N 323.326 -6.85731 1.50721 0
M  V30 3580 H 328.166 -2.38605 1.78527 0
M  V30 3581 H 325.703 -1.17072 0.890646 0
M  V30 3582 H 327.661 -4.17151 0.0640643 0
M  V30 3583 H 326.291 -3.18695 -0.513143 0
M  V30 3584 H 325.343 -3.29292 1.9045 0
M  V30 3585 H 326.655 -4.42351 2.30493 0
M  V30 3586 H 325.809 -6.03827 0.589729 0
M  V30 3587 H 324.548 -4.87618 0.0895191 0
M  V30 3588 H 323.553 -4.94981 2.3932 0
M  V30 3589 H 324.778 -6.14603 2.8886 0
M  V30 3590 H 322.724 -6.52499 0.676811 0
M  V30 3591 H 322.641 -7.21254 2.26557 0
M  V30 3592 H 323.909 -7.7047 1.18303 0
M  V30 3593 N 328.138 -0.959301 -1.25041 0
M  V30 3594 C 329.085 -0.482057 -2.2571 0
M  V30 3595 C 330.055 0.467939 -1.59372 0
M  V30 3596 O 331.24 0.380159 -1.86974 0
M  V30 3597 C 328.38 0.229623 -3.44335 0
M  V30 3598 C 327.493 -0.758156 -4.25295 0
M  V30 3599 C 326.628 -0.0234403 -5.31195 0
M  V30 3600 C 325.667 -1.00184 -6.03846 0
M  V30 3601 N 324.804 -0.29769 -7.01469 0
M  V30 3602 H 329.644 -1.34538 -2.65901 0
M  V30 3603 H 327.181 -0.674592 -1.3072 0
M  V30 3604 H 329.139 0.658856 -4.11965 0
M  V30 3605 H 327.769 1.05696 -3.05005 0
M  V30 3606 H 326.821 -1.30586 -3.57284 0
M  V30 3607 H 328.133 -1.50458 -4.75567 0
M  V30 3608 H 327.287 0.464201 -6.04922 0
M  V30 3609 H 326.026 0.755741 -4.81809 0
M  V30 3610 H 325.031 -1.50044 -5.2893 0
M  V30 3611 H 326.256 -1.78133 -6.55321 0
M  V30 3612 H 324.202 0.462668 -6.54366 0
M  V30 3613 H 324.119 -0.983128 -7.4958 0
M  V30 3614 H 325.387 0.16826 -7.79318 0
M  V30 3615 N 329.616 1.39756 -0.72842 0
M  V30 3616 C 330.846 2.04651 -0.283117 0
M  V30 3617 C 331.254 1.5502 1.08469 0
M  V30 3618 O 330.597 0.707343 1.69536 0
M  V30 3619 C 330.659 3.58947 -0.199309 0
M  V30 3620 C 330.323 4.31525 -1.5045 0
M  V30 3621 C 331.32 4.5861 -2.44894 0
M  V30 3622 C 329.005 4.70195 -1.76698 0
M  V30 3623 C 330.999 5.23366 -3.63822 0
M  V30 3624 C 328.686 5.3468 -2.95906 0
M  V30 3625 C 329.684 5.61198 -3.89289 0
M  V30 3626 O 329.372 6.24347 -5.06404 0
M  V30 3627 H 329.104 0.664777 -0.122666 0
M  V30 3628 H 331.658 1.79913 -0.990987 0
M  V30 3629 H 329.888 3.82556 0.56461 0
M  V30 3630 H 331.577 4.0534 0.213125 0
M  V30 3631 H 332.343 4.29187 -2.25883 0
M  V30 3632 H 328.222 4.48916 -1.04859 0
M  V30 3633 H 331.766 5.4398 -4.36728 0
M  V30 3634 H 327.663 5.63524 -3.14819 0
M  V30 3635 H 328.431 6.42842 -5.06652 0
M  V30 3636 N 331.094 0.475555 1.50254 0
M  V30 3637 C 332.341 -0.0778919 2.0235 0
M  V30 3638 C 332.669 -1.39319 1.35722 0
M  V30 3639 O 331.924 -1.89888 0.473395 0
M  V30 3640 C 332.223 -0.305114 3.56095 0
M  V30 3641 C 331.889 0.92903 4.41225 0
M  V30 3642 C 330.551 1.26739 4.6421 0
M  V30 3643 C 332.903 1.75054 4.90923 0
M  V30 3644 C 330.231 2.42724 5.34137 0
M  V30 3645 C 332.583 2.9017 5.62125 0
M  V30 3646 C 331.247 3.24416 5.83362 0
M  V30 3647 H 330.517 -0.0285027 0.740452 0
M  V30 3648 H 333.164 0.630543 1.80821 0
M  V30 3649 H 331.469 -1.09584 3.76163 0
M  V30 3650 H 333.166 -0.747377 3.93974 0
M  V30 3651 H 329.756 0.655428 4.23559 0
M  V30 3652 H 333.94 1.50231 4.73016 0
M  V30 3653 H 329.196 2.69525 5.48786 0
M  V30 3654 H 333.37 3.54169 5.99614 0
M  V30 3655 H 330.997 4.14396 6.37323 0
M  V30 3656 N 332.573 -1.56217 0.208337 0
M  V30 3657 C 333.821 -1.97558 -0.426076 0
M  V30 3658 C 334.142 -1.09683 -1.61229 0
M  V30 3659 O 333.412 -0.170956 -1.95153 0
M  V30 3660 H 331.992 -0.729575 -0.160405 0
M  V30 3661 H 334.654 -1.92606 0.298155 0
M  V30 3662 H 333.75 -3.02672 -0.761312 0
M  V30 3663 N 334.051 0.0651679 -1.57465 0
M  V30 3664 C 335.297 0.764193 -1.87851 0
M  V30 3665 C 335.63 1.76889 -0.801495 0
M  V30 3666 O 334.905 1.93594 0.187528 0
M  V30 3667 C 335.188 1.46625 -3.28897 0
M  V30 3668 C 335.041 0.477515 -4.47258 0
M  V30 3669 C 336.36 2.4095 -3.68281 0
M  V30 3670 H 333.479 0.276351 -0.683227 0
M  V30 3671 H 336.121 0.0272868 -1.8998 0
M  V30 3672 H 334.271 2.09438 -3.27212 0
M  V30 3673 H 335.943 -0.145922 -4.61069 0
M  V30 3674 H 334.186 -0.206576 -4.33308 0
M  V30 3675 H 334.857 1.0065 -5.42746 0
M  V30 3676 H 337.333 1.88209 -3.71102 0
M  V30 3677 H 336.209 2.87072 -4.67847 0
M  V30 3678 H 336.47 3.26049 -2.98571 0
M  V30 3679 N 335.529 1.53961 0.336706 0
M  V30 3680 C 336.754 1.75797 1.10046 0
M  V30 3681 C 337.179 0.498985 1.81361 0
M  V30 3682 O 336.537 -0.548769 1.72795 0
M  V30 3683 C 336.585 2.94257 2.08436 0
M  V30 3684 O 335.689 2.64883 3.16087 0
M  V30 3685 H 335.03 0.582936 0.317934 0
M  V30 3686 H 337.56 2.00945 0.38501 0
M  V30 3687 H 337.57 3.21237 2.51537 0
M  V30 3688 H 336.245 3.85564 1.55927 0
M  V30 3689 H 334.822 2.48812 2.77753 0
M  V30 3690 N 337.007 -0.598083 1.45811 0
M  V30 3691 C 337.97 -1.69018 1.54808 0
M  V30 3692 C 338.97 -1.55037 0.426652 0
M  V30 3693 O 340.16 -1.59932 0.690456 0
M  V30 3694 C 337.292 -3.0835 1.45371 0
M  V30 3695 H 338.485 -1.62403 2.52121 0
M  V30 3696 H 336.038 -0.814626 1.33392 0
M  V30 3697 H 336.773 -3.20534 0.492793 0
M  V30 3698 H 336.558 -3.19907 2.26721 0
M  V30 3699 H 338.048 -3.8788 1.54721 0
M  V30 3700 N 338.485 -1.33259 -0.841409 0
M  V30 3701 C 339.71 -1.2775 -1.63385 0
M  V30 3702 C 340.135 0.149188 -1.87507 0
M  V30 3703 O 339.493 1.10498 -1.43736 0
M  V30 3704 C 339.541 -2.05571 -2.96265 0
M  V30 3705 O 338.645 -1.41257 -3.87453 0
M  V30 3706 H 337.986 -0.439627 -0.497618 0
M  V30 3707 H 340.516 -1.75782 -1.04699 0
M  V30 3708 H 340.526 -2.16241 -3.45982 0
M  V30 3709 H 339.201 -3.09309 -2.7803 0
M  V30 3710 H 337.778 -1.39217 -3.45938 0
M  V30 3711 N 339.963 1.05934 -1.16686 0
M  V30 3712 C 340.873 2.17014 -0.891183 0
M  V30 3713 C 341.889 1.73453 0.137907 0
M  V30 3714 O 343.065 2.01361 -0.039592 0
M  V30 3715 C 340.13 3.44384 -0.400099 0
M  V30 3716 C 339.191 4.02433 -1.49486 0
M  V30 3717 C 338.424 5.23723 -1.02711 0
M  V30 3718 O 338.647 5.7027 0.121716 0
M  V30 3719 O 337.581 5.7382 -1.81699 0
M  V30 3720 H 341.407 2.43113 -1.82015 0
M  V30 3721 H 338.992 1.15541 -0.947132 0
M  V30 3722 H 340.874 4.21189 -0.133392 0
M  V30 3723 H 339.549 3.19802 0.500817 0
M  V30 3724 H 338.456 3.27102 -1.81535 0
M  V30 3725 H 339.789 4.31317 -2.37121 0
M  V30 3726 N 341.441 0.965919 1.2453 0
M  V30 3727 C 342.687 0.62776 1.92839 0
M  V30 3728 C 343.02 -0.834694 1.75347 0
M  V30 3729 O 342.295 -1.60031 1.10546 0
M  V30 3730 C 342.578 1.00109 3.45905 0
M  V30 3731 C 342.431 2.52011 3.72573 0
M  V30 3732 C 343.75 0.53435 4.36844 0
M  V30 3733 H 340.869 0.229537 0.700344 0
M  V30 3734 H 343.511 1.2046 1.46933 0
M  V30 3735 H 341.661 0.510238 3.85135 0
M  V30 3736 H 343.333 3.08559 3.42912 0
M  V30 3737 H 341.576 2.95287 3.17786 0
M  V30 3738 H 342.247 2.73183 4.79661 0
M  V30 3739 H 344.723 0.955565 4.04979 0
M  V30 3740 H 343.599 0.824152 5.42678 0
M  V30 3741 H 343.86 -0.565589 4.38467 0
M  V30 3742 N 342.919 -1.39368 0.735821 0
M  V30 3743 C 344.144 -2.05319 0.293052 0
M  V30 3744 C 344.569 -1.55115 -1.064 0
M  V30 3745 O 343.927 -0.695261 -1.67439 0
M  V30 3746 C 343.975 -3.59305 0.305323 0
M  V30 3747 O 343.079 -4.06299 -0.706761 0
M  V30 3748 H 342.42 -0.650529 0.13307 0
M  V30 3749 H 344.95 -1.78386 1.00197 0
M  V30 3750 H 344.96 -4.07724 0.149997 0
M  V30 3751 H 343.635 -3.95207 1.29553 0
M  V30 3752 H 342.212 -3.69292 -0.517504 0
M  V30 3753 N 344.397 -0.483516 -1.5 0
M  V30 3754 C 345.327 0.293829 -2.31644 0
M  V30 3755 C 346.308 0.978864 -1.39112 0
M  V30 3756 O 347.493 0.973644 -1.68029 0
M  V30 3757 C 344.623 1.36897 -3.19181 0
M  V30 3758 C 343.577 0.804833 -4.20365 0
M  V30 3759 C 342.903 1.9792 -4.96721 0
M  V30 3760 C 344.203 -0.192313 -5.21946 0
M  V30 3761 H 345.897 -0.387616 -2.9688 0
M  V30 3762 H 343.443 -0.187856 -1.42769 0
M  V30 3763 H 345.396 1.92037 -3.751 0
M  V30 3764 H 344.12 2.07936 -2.51853 0
M  V30 3765 H 342.779 0.275319 -3.65565 0
M  V30 3766 H 342.427 2.67686 -4.25856 0
M  V30 3767 H 342.127 1.60789 -5.65173 0
M  V30 3768 H 343.651 2.53526 -5.55479 0
M  V30 3769 H 345.065 0.270333 -5.72662 0
M  V30 3770 H 343.462 -0.478543 -5.98189 0
M  V30 3771 H 344.532 -1.11409 -4.71928 0
M  V30 3772 N 345.875 1.56104 -0.216619 0
M  V30 3773 C 347.152 1.89988 0.465165 0
M  V30 3774 C 347.532 1.13326 1.78102 0
M  V30 3775 O 346.88 0.241033 2.27225 0
M  V30 3776 C 347.09 3.42646 0.662939 0
M  V30 3777 C 348.438 4.13311 0.972602 0
M  V30 3778 O 349.462 3.48217 0.749901 0
M  V30 3779 O 348.321 5.28396 1.39499 0
M  V30 3780 H 345.415 0.78979 0.245276 0
M  V30 3781 H 347.961 1.67721 -0.258436 0
M  V30 3782 H 346.733 3.90399 -0.26543 0
M  V30 3783 H 346.356 3.70677 1.43821 0
M  V30 3784 N 347.353 -0.0568162 1.57498 0
M  V30 3785 C 348.285 -1.09292 2.01464 0
M  V30 3786 C 349.298 -1.34112 0.922913 0
M  V30 3787 O 350.487 -1.32089 1.20062 0
M  V30 3788 C 347.587 -2.44068 2.35125 0
M  V30 3789 C 346.76 -2.38995 3.66333 0
M  V30 3790 C 345.819 -3.55997 3.87495 0
M  V30 3791 O 344.845 -3.36746 4.58901 0
M  V30 3792 N 346.047 -4.76888 3.30996 0
M  V30 3793 H 348.812 -0.718386 2.90963 0
M  V30 3794 H 346.373 -0.245235 1.60032 0
M  V30 3795 H 348.365 -3.21011 2.46443 0
M  V30 3796 H 346.935 -2.73468 1.5144 0
M  V30 3797 H 346.155 -1.47336 3.65631 0
M  V30 3798 H 347.443 -2.3272 4.52458 0
M  V30 3799 H 346.841 -4.95431 2.73065 0
M  V30 3800 H 345.398 -5.51291 3.47738 0
M  V30 3801 N 348.832 -1.54138 -0.328536 0
M  V30 3802 C 349.795 -1.82462 -1.38709 0
M  V30 3803 C 350.795 -0.696229 -1.44946 0
M  V30 3804 O 351.985 -0.964535 -1.4506 0
M  V30 3805 C 349.117 -1.98018 -2.77492 0
M  V30 3806 H 350.31 -2.77037 -1.14851 0
M  V30 3807 H 347.863 -1.45779 -0.563751 0
M  V30 3808 H 348.598 -1.05637 -3.06613 0
M  V30 3809 H 348.383 -2.80124 -2.74359 0
M  V30 3810 H 349.873 -2.21396 -3.54081 0
M  V30 3811 N 350.31 0.590341 -1.46126 0
M  V30 3812 C 351.273 1.68194 -1.55703 0
M  V30 3813 C 352.273 1.54808 -0.434868 0
M  V30 3814 O 353.463 1.59564 -0.698928 0
M  V30 3815 C 350.595 3.07575 -1.47005 0
M  V30 3816 H 351.788 1.61064 -2.52979 0
M  V30 3817 H 349.341 0.807541 -1.33823 0
M  V30 3818 H 350.076 3.20268 -0.509785 0
M  V30 3819 H 349.861 3.187 -2.28414 0
M  V30 3820 H 351.351 3.87055 -1.56776 0
M  V30 3821 N 351.788 1.33704 0.83433 0
M  V30 3822 C 353.016 1.28467 1.62185 0
M  V30 3823 C 353.431 -0.143526 1.88254 0
M  V30 3824 O 352.788 -1.08709 1.4659 0
M  V30 3825 C 352.839 2.06174 2.96942 0
M  V30 3826 O 352.56 3.43422 2.72016 0
M  V30 3827 C 354.061 2.08201 3.91366 0
M  V30 3828 H 351.281 0.4424 0.504503 0
M  V30 3829 H 353.825 1.76145 1.03891 0
M  V30 3830 H 351.98 1.62167 3.51825 0
M  V30 3831 H 352.394 3.83453 3.57861 0
M  V30 3832 H 353.868 2.67017 4.83121 0
M  V30 3833 H 354.345 1.07343 4.2588 0
M  V30 3834 H 354.951 2.52246 3.42421 0
M  V30 3835 N 353.266 -1.05314 1.17247 0
M  V30 3836 C 354.196 -2.1498 0.911362 0
M  V30 3837 C 355.177 -1.69471 -0.146169 0
M  V30 3838 O 356.362 -1.942 0.003812 0
M  V30 3839 C 353.492 -3.4472 0.422528 0
M  V30 3840 C 352.446 -4.03789 1.4191 0
M  V30 3841 C 351.772 -5.28858 0.788274 0
M  V30 3842 C 353.072 -4.41418 2.7919 0
M  V30 3843 H 354.766 -2.3708 1.82848 0
M  V30 3844 H 352.312 -1.13938 0.880569 0
M  V30 3845 H 354.265 -4.20787 0.227289 0
M  V30 3846 H 352.989 -3.22269 -0.530123 0
M  V30 3847 H 351.648 -3.2979 1.60106 0
M  V30 3848 H 351.296 -5.02709 -0.171173 0
M  V30 3849 H 350.996 -5.69338 1.45353 0
M  V30 3850 H 352.52 -6.07612 0.603282 0
M  V30 3851 H 353.934 -5.08524 2.64719 0
M  V30 3852 H 352.331 -4.92913 3.42282 0
M  V30 3853 H 353.401 -3.51819 3.33693 0
M  V30 3854 N 354.744 -0.972509 -1.24016 0
M  V30 3855 C 355.707 -0.511403 -2.23422 0
M  V30 3856 C 356.707 0.394679 -1.55881 0
M  V30 3857 O 357.897 0.189469 -1.73167 0
M  V30 3858 C 355.029 0.258769 -3.39916 0
M  V30 3859 H 356.222 -1.39024 -2.6573 0
M  V30 3860 H 353.775 -0.757585 -1.36713 0
M  V30 3861 H 354.51 1.1545 -3.03054 0
M  V30 3862 H 354.295 -0.391522 -3.9014 0
M  V30 3863 H 355.785 0.570244 -4.13688 0
M  V30 3864 N 356.222 1.38976 -0.743202 0
M  V30 3865 C 357.47 1.99948 -0.29417 0
M  V30 3866 C 357.791 1.59279 1.12495 0
M  V30 3867 O 357.061 0.844808 1.76748 0
M  V30 3868 H 355.641 0.739473 -0.105774 0
M  V30 3869 H 358.303 1.699 -0.954986 0
M  V30 3870 H 357.399 3.10142 -0.349056 0
M  V30 3871 N 357.7 0.491464 1.49741 0
M  V30 3872 C 358.633 -0.338464 2.25676 0
M  V30 3873 C 359.611 -0.978676 1.29849 0
M  V30 3874 O 360.795 -1.01064 1.59117 0
M  V30 3875 C 357.922 -1.47588 3.04853 0
M  V30 3876 C 356.968 -0.951 4.15762 0
M  V30 3877 S 357.801 0.150626 5.35288 0
M  V30 3878 C 358.957 -0.990178 6.18018 0
M  V30 3879 H 359.19 0.306068 2.9572 0
M  V30 3880 H 356.723 0.276622 1.51902 0
M  V30 3881 H 358.681 -2.12764 3.51058 0
M  V30 3882 H 357.342 -2.09199 2.34296 0
M  V30 3883 H 356.535 -1.80311 4.70642 0
M  V30 3884 H 356.137 -0.376607 3.72099 0
M  V30 3885 H 358.429 -1.89748 6.50386 0
M  V30 3886 H 359.372 -0.480205 7.0647 0
M  V30 3887 H 359.78 -1.25321 5.50413 0
M  V30 3888 N 359.178 -1.55987 0.224894 0
M  V30 3889 C 360.108 -2.23426 -0.678457 0
M  V30 3890 C 361.089 -1.20709 -1.19847 0
M  V30 3891 O 362.274 -1.49304 -1.24186 0
M  V30 3892 C 359.404 -2.91676 -1.88527 0
M  V30 3893 C 358.358 -4.00893 -1.49896 0
M  V30 3894 C 357.684 -4.56455 -2.78483 0
M  V30 3895 C 358.984 -5.17769 -0.686461 0
M  V30 3896 H 360.678 -2.99175 -0.116173 0
M  V30 3897 H 358.224 -1.43897 -0.054436 0
M  V30 3898 H 360.177 -3.37547 -2.5227 0
M  V30 3899 H 358.901 -2.1338 -2.47258 0
M  V30 3900 H 357.56 -3.55758 -0.884985 0
M  V30 3901 H 357.208 -3.74886 -3.35365 0
M  V30 3902 H 356.908 -5.30169 -2.53368 0
M  V30 3903 H 358.432 -5.05047 -3.43162 0
M  V30 3904 H 359.846 -5.60001 -1.22767 0
M  V30 3905 H 358.243 -5.97735 -0.532259 0
M  V30 3906 H 359.313 -4.83932 0.306196 0
M  V30 3907 N 360.656 0.0484629 -1.57525 0
M  V30 3908 C 361.603 1.05504 -2.05275 0
M  V30 3909 C 362.573 1.37084 -0.937927 0
M  V30 3910 O 363.758 1.47754 -1.2072 0
M  V30 3911 C 360.898 2.35676 -2.52093 0
M  V30 3912 C 360.011 2.10423 -3.77288 0
M  V30 3913 C 359.146 3.34327 -4.12794 0
M  V30 3914 C 358.185 3.04542 -5.30962 0
M  V30 3915 N 357.322 4.20841 -5.61994 0
M  V30 3916 H 362.162 0.640885 -2.91027 0
M  V30 3917 H 359.699 0.304854 -1.43906 0
M  V30 3918 H 361.657 3.11709 -2.77297 0
M  V30 3919 H 360.287 2.7485 -1.69285 0
M  V30 3920 H 359.339 1.24976 -3.59284 0
M  V30 3921 H 360.651 1.84438 -4.63448 0
M  V30 3922 H 359.805 4.1874 -4.39024 0
M  V30 3923 H 358.544 3.63408 -3.25247 0
M  V30 3924 H 357.549 2.18528 -5.04505 0
M  V30 3925 H 358.774 2.76758 -6.20146 0
M  V30 3926 H 356.72 4.4991 -4.77406 0
M  V30 3927 H 356.637 3.98212 -6.42622 0
M  V30 3928 H 357.905 5.06184 -5.92789 0
M  V30 3929 N 362.134 1.5431 0.320358 0
M  V30 3930 C 363.382 1.72327 1.05583 0
M  V30 3931 C 363.703 0.50149 1.88441 0
M  V30 3932 O 362.973 -0.48448 1.89815 0
M  V30 3933 H 361.553 0.635387 0.3928 0
M  V30 3934 H 364.215 1.91621 0.356019 0
M  V30 3935 H 363.311 2.60426 1.72003 0
M  V30 3936 N 363.613 -0.582584 1.46437 0
M  V30 3937 C 365.024 -1.1647 1.45916 0
M  V30 3938 C 365.375 -1.95177 0.200077 0
M  V30 3939 O 364.5 -2.04874 -0.696819 0
M  V30 3940 C 365.095 -2.11885 2.64367 0
M  V30 3941 C 363.654 -2.65421 2.66887 0
M  V30 3942 C 362.801 -1.41294 2.38603 0
M  V30 3943 H 365.752 -0.370514 1.54314 0
M  V30 3944 H 365.773 -2.9535 2.39892 0
M  V30 3945 H 365.285 -1.54573 3.5599 0
M  V30 3946 H 363.386 -3.26602 1.79338 0
M  V30 3947 H 363.499 -3.08147 3.66854 0
M  V30 3948 H 361.863 -1.71109 1.88663 0
M  V30 3949 H 362.646 -0.858125 3.32402 0
M  V30 3950 N 365.091 -1.34144 -0.827227 0
M  V30 3951 C 366.001 -1.27428 -1.96975 0
M  V30 3952 C 367.017 -0.182728 -1.73038 0
M  V30 3953 O 368.193 -0.408426 -1.97215 0
M  V30 3954 C 365.258 -1.02526 -3.31194 0
M  V30 3955 C 364.319 -2.20796 -3.68168 0
M  V30 3956 C 363.552 -1.97073 -4.95982 0
M  V30 3957 O 363.775 -0.926822 -5.6282 0
M  V30 3958 O 362.709 -2.83912 -5.30733 0
M  V30 3959 H 366.535 -2.23537 -2.05584 0
M  V30 3960 H 364.12 -1.14307 -0.961989 0
M  V30 3961 H 366.002 -0.904026 -4.11589 0
M  V30 3962 H 364.677 -0.0945389 -3.23562 0
M  V30 3963 H 363.584 -2.38477 -2.88235 0
M  V30 3964 H 364.917 -3.12243 -3.8048 0
M  V30 3965 N 366.569 1.04691 -1.17803 0
M  V30 3966 C 367.499 2.14494 -0.92275 0
M  V30 3967 C 368.48 1.69546 0.137179 0
M  V30 3968 O 369.665 1.94195 -0.0141108 0
M  V30 3969 C 366.795 3.44491 -0.440803 0
M  V30 3970 C 365.749 4.03031 -1.4405 0
M  V30 3971 C 365.075 5.28432 -0.81631 0
M  V30 3972 C 366.375 4.39932 -2.81527 0
M  V30 3973 H 368.069 2.36107 -1.84103 0
M  V30 3974 H 365.615 1.1347 -0.886599 0
M  V30 3975 H 367.568 4.2066 -0.249602 0
M  V30 3976 H 366.292 3.22546 0.513025 0
M  V30 3977 H 364.951 3.28937 -1.61853 0
M  V30 3978 H 364.599 5.02792 0.144511 0
M  V30 3979 H 364.299 5.68559 -1.48371 0
M  V30 3980 H 365.823 6.07284 -0.635496 0
M  V30 3981 H 367.237 5.07113 -2.67412 0
M  V30 3982 H 365.634 4.9109 -3.44892 0
M  V30 3983 H 366.704 3.50045 -3.35554 0
M  V30 3984 N 368.047 0.979072 1.23499 0
M  V30 3985 C 369.277 0.664237 1.95631 0
M  V30 3986 C 369.685 -0.772653 1.72704 0
M  V30 3987 O 369.028 -1.53141 1.01457 0
M  V30 3988 C 369.09 0.873115 3.48736 0
M  V30 3989 C 368.754 2.29182 3.95379 0
M  V30 3990 C 369.751 3.2704 4.04155 0
M  V30 3991 C 367.436 2.62256 4.28401 0
M  V30 3992 C 369.43 4.56052 4.45304 0
M  V30 3993 C 367.117 3.91491 4.69231 0
M  V30 3994 C 368.115 4.88201 4.77649 0
M  V30 3995 O 367.803 6.15129 5.17563 0
M  V30 3996 H 367.535 0.245915 0.629684 0
M  V30 3997 H 370.089 1.3127 1.57979 0
M  V30 3998 H 368.319 0.167476 3.86337 0
M  V30 3999 H 370.008 0.555642 4.02079 0
M  V30 4000 H 370.774 3.02819 3.78848 0
M  V30 4001 H 366.653 1.87692 4.21061 0
M  V30 4002 H 370.197 5.31538 4.51789 0
M  V30 4003 H 366.094 4.15508 4.93987 0
M  V30 4004 H 366.862 6.18862 5.35679 0
M  V30 4005 N 369.525 -1.3858 0.750561 0
M  V30 4006 C 370.473 -2.32339 0.110162 0
M  V30 4007 C 371.467 -1.53864 -0.708674 0
M  V30 4008 O 372.673 -1.69417 -0.608112 0
M  V30 4009 H 369.048 -0.751812 0.0168275 0
M  V30 4010 H 371.019 -2.83959 0.917053 0
M  V30 4011 C 369.768 -3.39043 -0.771067 0
M  V30 4012 H 369.091 -3.99517 -0.150374 0
M  V30 4013 H 370.531 -4.07061 -1.1865 0
M  V30 4014 C 368.99 -2.77365 -1.91234 0
M  V30 4015 O 369.52 -2.66434 -3.00626 0
M  V30 4016 N 367.726 -2.35219 -1.70646 0
M  V30 4017 H 367.273 -2.4431 -0.81673 0
M  V30 4018 H 367.231 -1.94294 -2.47178 0
M  V30 4019 N 371.003 -0.499398 -1.49478 0
M  V30 4020 C 372.414 -0.051215 -1.8663 0
M  V30 4021 C 372.765 1.36238 -1.41186 0
M  V30 4022 O 371.89 2.01502 -0.789051 0
M  V30 4023 C 372.485 -0.0861651 -3.3869 0
M  V30 4024 C 371.044 0.30667 -3.75149 0
M  V30 4025 C 370.191 -0.459397 -2.73468 0
M  V30 4026 H 373.142 -0.712264 -1.41818 0
M  V30 4027 H 373.163 0.709507 -3.73826 0
M  V30 4028 H 372.675 -1.11512 -3.71735 0
M  V30 4029 H 370.776 1.33892 -3.47712 0
M  V30 4030 H 370.889 -0.0116669 -4.79099 0
M  V30 4031 H 369.253 0.0905645 -2.54539 0
M  V30 4032 H 370.036 -1.4884 -3.09357 0
M  V30 4033 N 372.481 1.55866 -0.233164 0
M  V30 4034 C 373.411 2.23783 0.666599 0
M  V30 4035 C 374.392 1.21343 1.19205 0
M  V30 4036 O 375.577 1.4996 1.23392 0
M  V30 4037 C 372.707 2.92671 1.86978 0
M  V30 4038 C 371.661 4.01682 1.47768 0
M  V30 4039 C 370.987 4.57926 2.76058 0
M  V30 4040 C 372.287 5.18126 0.658993 0
M  V30 4041 H 373.981 2.99232 0.100306 0
M  V30 4042 H 371.527 1.43924 0.046804 0
M  V30 4043 H 373.48 3.3888 2.50476 0
M  V30 4044 H 372.204 2.14688 2.46123 0
M  V30 4045 H 370.863 3.56222 0.866106 0
M  V30 4046 H 370.511 3.76659 3.33372 0
M  V30 4047 H 370.211 5.31505 2.50552 0
M  V30 4048 H 371.735 5.06859 3.40479 0
M  V30 4049 H 373.149 5.60644 1.19795 0
M  V30 4050 H 371.546 5.98009 0.500552 0
M  V30 4051 H 372.616 4.83763 -0.331856 0
M  V30 4052 N 373.959 -0.0401083 1.57549 0
M  V30 4053 C 374.907 -1.06264 2.06908 0
M  V30 4054 C 375.901 -1.38132 0.980608 0
M  V30 4055 O 377.107 -1.37167 1.16556 0
M  V30 4056 H 373.482 -0.360166 0.660139 0
M  V30 4057 H 375.453 -0.620445 2.91878 0
M  V30 4058 C 374.202 -2.35846 2.55483 0
M  V30 4059 H 373.525 -2.12183 3.38849 0
M  V30 4060 H 374.965 -3.05765 2.93741 0
M  V30 4061 C 373.424 -3.0404 1.45126 0
M  V30 4062 O 373.954 -3.93424 0.811216 0
M  V30 4063 N 372.16 -2.65184 1.18852 0
M  V30 4064 H 371.707 -1.92584 1.71083 0
M  V30 4065 H 371.665 -3.1113 0.452244 0
M  V30 4066 N 375.437 -1.54477 -0.31217 0
M  V30 4067 C 376.662 -1.77526 -1.07235 0
M  V30 4068 C 377.087 -0.527775 -1.80544 0
M  V30 4069 O 376.445 0.52121 -1.73646 0
M  V30 4070 C 376.493 -2.97535 -2.03728 0
M  V30 4071 O 375.597 -2.69878 -3.11833 0
M  V30 4072 H 374.938 -0.58792 -0.30862 0
M  V30 4073 H 377.468 -2.01532 -0.352993 0
M  V30 4074 H 377.478 -3.25198 -2.46395 0
M  V30 4075 H 376.153 -3.87996 -1.49774 0
M  V30 4076 H 374.73 -2.53199 -2.7376 0
M  V30 4077 N 376.915 0.57481 -1.46744 0
M  V30 4078 C 378.161 1.3347 -1.52688 0
M  V30 4079 C 378.494 1.93353 -0.181229 0
M  V30 4080 O 377.769 1.76912 0.808237 0
M  V30 4081 C 378.052 2.45811 -2.63152 0
M  V30 4082 C 377.905 1.90912 -4.07275 0
M  V30 4083 C 379.224 3.47822 -2.69644 0
M  V30 4084 H 376.343 0.483935 -0.555856 0
M  V30 4085 H 378.985 0.644968 -1.78718 0
M  V30 4086 H 377.135 3.04646 -2.41088 0
M  V30 4087 H 378.807 1.36473 -4.4065 0
M  V30 4088 H 377.05 1.21691 -4.16382 0
M  V30 4089 H 377.721 2.72042 -4.80309 0
M  V30 4090 H 380.197 2.9888 -2.895 0
M  V30 4091 H 379.073 4.23876 -3.48742 0
M  V30 4092 H 379.334 4.05555 -1.76005 0
M  V30 4093 N 378.394 1.34581 0.820102 0
M  V30 4094 C 379.304 1.28471 1.96297 0
M  V30 4095 C 380.32 0.191902 1.72939 0
M  V30 4096 O 381.496 0.418879 1.96996 0
M  V30 4097 C 378.561 1.04281 3.30645 0
M  V30 4098 C 377.622 2.22745 3.66992 0
M  V30 4099 C 376.855 1.997 4.9493 0
M  V30 4100 O 377.078 0.956656 5.6232 0
M  V30 4101 O 376.012 2.86723 5.2922 0
M  V30 4102 H 379.838 2.24624 2.04396 0
M  V30 4103 H 377.423 1.14816 0.955913 0
M  V30 4104 H 379.305 0.925841 4.11104 0
M  V30 4105 H 377.98 0.111697 3.23507 0
M  V30 4106 H 376.887 2.40003 2.86966 0
M  V30 4107 H 378.22 3.14257 3.78819 0
M  V30 4108 N 379.872 -1.04064 1.18357 0
M  V30 4109 C 381.149 -1.74252 0.888581 0
M  V30 4110 C 381.529 -2.02138 -0.60856 0
M  V30 4111 O 380.877 -1.66656 -1.56327 0
M  V30 4112 C 381.087 -3.0277 1.73584 0
M  V30 4113 C 382.435 -3.76506 1.96286 0
M  V30 4114 O 383.459 -3.12668 1.70637 0
M  V30 4115 O 382.318 -4.91243 2.39464 0
M  V30 4116 H 379.412 -0.758271 0.330082 0
M  V30 4117 H 381.958 -1.1013 1.2911 0
M  V30 4118 H 380.73 -2.78299 2.75073 0
M  V30 4119 H 380.353 -3.74631 1.33183 0
M  V30 4120 N 381.35 -0.985608 -1.22978 0
M  V30 4121 C 382.575 -0.675254 -1.961 0
M  V30 4122 C 383 0.752154 -1.72407 0
M  V30 4123 O 382.358 1.5131 -0.998751 0
M  V30 4124 C 382.406 -0.977899 -3.47087 0
M  V30 4125 O 381.51 -0.072685 -4.12336 0
M  V30 4126 H 380.851 -0.253443 -0.613728 0
M  V30 4127 H 383.381 -1.32061 -1.56272 0
M  V30 4128 H 383.391 -0.916739 -3.97567 0
M  V30 4129 H 382.066 -2.01807 -3.63657 0
M  V30 4130 H 380.643 -0.188703 -3.72422 0
M  V30 4131 N 382.828 1.3818 -0.7579 0
M  V30 4132 C 384.056 2.04301 -0.326937 0
M  V30 4133 C 384.471 1.57163 1.0462 0
M  V30 4134 O 383.828 0.746626 1.66529 0
M  V30 4135 C 383.879 3.59846 -0.345363 0
M  V30 4136 O 383.6 4.05256 -1.66432 0
M  V30 4137 C 385.101 4.4319 0.098927 0
M  V30 4138 H 382.321 0.656443 -0.139012 0
M  V30 4139 H 384.865 1.76786 -1.02796 0
M  V30 4140 H 383.02 3.86182 0.306955 0
M  V30 4141 H 383.434 4.99709 -1.59345 0
M  V30 4142 H 384.908 5.51989 0.0348745 0
M  V30 4143 H 385.385 4.23947 1.14741 0
M  V30 4144 H 385.991 4.22051 -0.52468 0
M  V30 4145 N 384.306 0.507319 1.49211 0
M  V30 4146 C 385.254 -0.281364 2.30892 0
M  V30 4147 C 386.248 -0.95687 1.39787 0
M  V30 4148 O 387.454 -0.883838 1.56807 0
M  V30 4149 H 383.829 -0.109597 0.743971 0
M  V30 4150 H 385.8 0.42744 2.95323 0
M  V30 4151 C 384.549 -1.32918 3.21291 0
M  V30 4152 H 383.872 -0.818799 3.91326 0
M  V30 4153 H 385.312 -1.85288 3.81372 0
M  V30 4154 C 383.771 -2.35074 2.41333 0
M  V30 4155 O 384.301 -3.4108 2.12197 0
M  V30 4156 N 382.507 -2.07705 2.03241 0
M  V30 4157 H 382.054 -1.2152 2.27136 0
M  V30 4158 H 382.012 -2.76283 1.50051 0
M  V30 4159 N 385.784 -1.5574 0.241426 0
M  V30 4160 C 387.2 -1.59196 -0.113548 0
M  V30 4161 C 387.4 -1.25852 -1.57364 0
M  V30 4162 O 386.456 -1.00322 -2.31715 0
M  V30 4163 C 387.769 -2.99814 0.230695 0
M  V30 4164 C 389.317 -3.12513 0.174547 0
M  V30 4165 C 389.792 -4.55342 0.492744 0
M  V30 4166 N 391.283 -4.61076 0.443043 0
M  V30 4167 C 392.018 -5.6956 0.662484 0
M  V30 4168 N 391.514 -6.86328 0.944761 0
M  V30 4169 N 393.307 -5.58957 0.593564 0
M  V30 4170 H 385.458 -1.75685 1.19368 0
M  V30 4171 H 387.721 -0.81756 0.479896 0
M  V30 4172 H 387.427 -3.28932 1.24485 0
M  V30 4173 H 387.301 -3.74568 -0.444833 0
M  V30 4174 H 389.688 -2.83179 -0.830277 0
M  V30 4175 H 389.769 -2.40045 0.883845 0
M  V30 4176 H 389.413 -4.85396 1.4951 0
M  V30 4177 H 389.343 -5.26062 -0.23797 0
M  V30 4178 H 391.834 -3.77179 0.233374 0
M  V30 4179 H 392.147 -7.64935 1.09977 0
M  V30 4180 H 390.492 -6.88025 0.982175 0
M  V30 4181 H 393.683 -4.66611 0.373123 0
M  V30 4182 H 393.856 -6.43433 0.767981 0
M  V30 4183 N 387.262 0.0317525 -1.57568 0
M  V30 4184 C 388.678 0.38735 -1.54828 0
M  V30 4185 C 388.878 1.7677 -0.967187 0
M  V30 4186 O 387.934 2.45581 -0.587063 0
M  V30 4187 C 389.247 0.291667 -2.99282 0
M  V30 4188 C 390.795 0.368946 -3.10818 0
M  V30 4189 C 391.27 0.302741 -4.56998 0
M  V30 4190 N 392.761 0.361617 -4.61786 0
M  V30 4191 C 393.496 0.333238 -5.72431 0
M  V30 4192 N 392.992 0.257308 -6.92322 0
M  V30 4193 N 394.785 0.382769 -5.60795 0
M  V30 4194 H 386.936 -0.871609 -1.93692 0
M  V30 4195 H 389.199 -0.331161 -0.888277 0
M  V30 4196 H 388.905 -0.656794 -3.45513 0
M  V30 4197 H 388.779 1.08638 -3.61217 0
M  V30 4198 H 391.166 1.30784 -2.64536 0
M  V30 4199 H 391.247 -0.455066 -2.5172 0
M  V30 4200 H 390.891 -0.632473 -5.03947 0
M  V30 4201 H 390.821 1.14482 -5.14005 0
M  V30 4202 H 393.312 0.422923 -3.75526 0
M  V30 4203 H 393.625 0.24068 -7.72425 0
M  V30 4204 H 391.97 0.223396 -6.94641 0
M  V30 4205 H 395.161 0.44006 -4.66027 0
M  V30 4206 H 395.334 0.357184 -6.47015 0
M  V30 4207 N 388.74 1.54641 0.303973 0
M  V30 4208 C 390.017 1.64455 1.05896 0
M  V30 4209 C 390.397 0.490923 2.05312 0
M  V30 4210 O 389.745 -0.512685 2.22674 0
M  V30 4211 C 389.955 3.02331 1.74347 0
M  V30 4212 C 391.303 3.59045 2.26653 0
M  V30 4213 O 392.327 3.04764 1.84384 0
M  V30 4214 O 391.186 4.54081 3.04093 0
M  V30 4215 H 388.28 0.666729 0.489287 0
M  V30 4216 H 390.826 1.66986 0.302298 0
M  V30 4217 H 389.598 3.77734 1.02142 0
M  V30 4218 H 389.221 3.03565 2.56777 0
M  V30 4219 N 390.218 -0.567019 1.47046 0
M  V30 4220 C 391.446 -1.35027 1.56765 0
M  V30 4221 C 391.861 -1.8758 0.214316 0
M  V30 4222 O 391.218 -1.64471 -0.790919 0
M  V30 4223 C 391.269 -2.52698 2.58507 0
M  V30 4224 O 390.99 -2.0232 3.88585 0
M  V30 4225 C 392.491 -3.45043 2.78316 0
M  V30 4226 H 389.711 -0.41195 0.529658 0
M  V30 4227 H 392.255 -0.687832 1.92585 0
M  V30 4228 H 390.41 -3.149 2.25648 0
M  V30 4229 H 390.824 -2.79068 4.44096 0
M  V30 4230 H 392.298 -4.2405 3.53391 0
M  V30 4231 H 392.775 -3.97971 1.85784 0
M  V30 4232 H 393.381 -2.88665 3.12334 0
M  V30 4233 N 391.696 -1.35014 -0.812953 0
M  V30 4234 C 392.942 -1.2812 -1.57204 0
M  V30 4235 C 393.275 0.145869 -1.93651 0
M  V30 4236 O 392.55 1.0937 -1.60836 0
M  V30 4237 C 392.833 -2.18162 -2.86492 0
M  V30 4238 C 392.686 -3.69454 -2.56561 0
M  V30 4239 C 394.005 -2.07439 -3.88145 0
M  V30 4240 H 391.124 -0.466746 -0.570366 0
M  V30 4241 H 393.766 -1.65357 -0.935783 0
M  V30 4242 H 391.916 -1.86535 -3.40789 0
M  V30 4243 H 393.588 -4.11493 -2.08497 0
M  V30 4244 H 391.831 -3.9005 -1.89851 0
M  V30 4245 H 392.502 -4.27835 -3.48799 0
M  V30 4246 H 394.978 -2.35228 -3.4323 0
M  V30 4247 H 393.854 -2.7265 -4.76396 0
M  V30 4248 H 394.115 -1.05439 -4.29343 0
M  V30 4249 N 393.175 1.03435 -1.18907 0
M  V30 4250 C 394.105 2.13503 -0.945448 0
M  V30 4251 C 395.086 1.69682 0.119189 0
M  V30 4252 O 396.271 1.94169 -0.034707 0
M  V30 4253 C 393.401 3.44004 -0.477316 0
M  V30 4254 C 392.355 4.0148 -1.48316 0
M  V30 4255 C 391.681 5.27537 -0.872311 0
M  V30 4256 C 392.981 4.36921 -2.86177 0
M  V30 4257 H 394.675 2.34141 -1.86597 0
M  V30 4258 H 392.221 1.12523 -0.898584 0
M  V30 4259 H 394.174 4.20372 -0.294204 0
M  V30 4260 H 392.898 3.23072 0.478786 0
M  V30 4261 H 391.557 3.27201 -1.65332 0
M  V30 4262 H 391.205 5.02917 0.0911752 0
M  V30 4263 H 390.905 5.66954 -1.54393 0
M  V30 4264 H 392.429 6.06576 -0.699871 0
M  V30 4265 H 393.843 5.04248 -2.72776 0
M  V30 4266 H 392.24 4.87405 -3.50081 0
M  V30 4267 H 393.31 3.46466 -3.39248 0
M  V30 4268 N 394.653 0.992116 1.22453 0
M  V30 4269 C 395.585 0.500024 2.23679 0
M  V30 4270 C 396.598 -0.404463 1.57696 0
M  V30 4271 O 397.787 -0.206722 1.77299 0
M  V30 4272 C 394.887 -0.294711 3.37616 0
M  V30 4273 C 394.06 0.605723 4.33186 0
M  V30 4274 C 393.119 -0.13717 5.26021 0
M  V30 4275 O 392.145 0.477164 5.67196 0
M  V30 4276 N 393.347 -1.4197 5.62872 0
M  V30 4277 H 396.112 1.37045 2.66531 0
M  V30 4278 H 393.673 0.866741 1.36745 0
M  V30 4279 H 395.665 -0.800329 3.96707 0
M  V30 4280 H 394.235 -1.06623 2.93854 0
M  V30 4281 H 393.455 1.29202 3.72425 0
M  V30 4282 H 394.743 1.21896 4.93983 0
M  V30 4283 H 394.141 -1.94015 5.31389 0
M  V30 4284 H 392.698 -1.87052 6.24383 0
M  V30 4285 N 396.131 -1.37776 0.765217 0
M  V30 4286 C 397.079 -2.32209 0.134798 0
M  V30 4287 C 398.073 -1.54607 -0.692315 0
M  V30 4288 O 399.279 -1.70052 -0.590109 0
M  V30 4289 H 395.654 -0.751591 0.0248005 0
M  V30 4290 H 397.625 -2.8297 0.947119 0
M  V30 4291 C 396.374 -3.39841 -0.735063 0
M  V30 4292 H 395.697 -3.99654 -0.107991 0
M  V30 4293 H 397.137 -4.08296 -1.14326 0
M  V30 4294 C 395.596 -2.79378 -1.88281 0
M  V30 4295 O 396.126 -2.69608 -2.97783 0
M  V30 4296 N 394.332 -2.37016 -1.68142 0
M  V30 4297 H 393.879 -2.45162 -0.790772 0
M  V30 4298 H 393.837 -1.96905 -2.45104 0
M  V30 4299 N 397.609 -0.515225 -1.4894 0
M  V30 4300 C 398.542 0.302518 -2.26186 0
M  V30 4301 C 399.52 0.957895 -1.31389 0
M  V30 4302 O 400.704 0.985198 -1.60705 0
M  V30 4303 C 397.831 1.42719 -3.07163 0
M  V30 4304 C 396.877 0.884736 -4.17223 0
M  V30 4305 S 397.71 -0.235767 -5.34981 0
M  V30 4306 C 398.866 0.891731 -6.19515 0
M  V30 4307 H 399.099 -0.353076 -2.95196 0
M  V30 4308 H 396.632 -0.300753 -1.51443 0
M  V30 4309 H 398.59 2.07152 -3.54398 0
M  V30 4310 H 397.251 2.05445 -2.37595 0
M  V30 4311 H 396.444 1.72801 -4.73451 0
M  V30 4312 H 396.046 0.317362 -3.72651 0
M  V30 4313 H 398.338 1.79377 -6.53322 0
M  V30 4314 H 399.281 0.367751 -7.07144 0
M  V30 4315 H 399.689 1.16548 -5.52338 0
M  V30 4316 N 399.087 1.5561 -0.249682 0
M  V30 4317 C 400.333 1.99306 0.374841 0
M  V30 4318 C 400.666 1.13767 1.57387 0
M  V30 4319 O 399.941 0.201711 1.93451 0
M  V30 4320 C 400.224 3.51507 0.781986 0
M  V30 4321 C 400.077 4.4781 -0.422629 0
M  V30 4322 C 401.396 4.08884 1.62793 0
M  V30 4323 H 398.515 0.724572 0.134773 0
M  V30 4324 H 401.157 1.86719 -0.351549 0
M  V30 4325 H 399.307 3.62363 1.4009 0
M  V30 4326 H 400.979 4.48931 -1.06108 0
M  V30 4327 H 399.222 4.20518 -1.06524 0
M  V30 4328 H 399.893 5.51919 -0.0943766 0
M  V30 4329 H 402.369 4.01147 1.10547 0
M  V30 4330 H 401.245 5.1564 1.88166 0
M  V30 4331 H 401.506 3.57515 2.60068 0
M  V30 4332 N 400.565 -0.0233959 1.57583 0
M  V30 4333 C 401.528 -1.00693 2.05897 0
M  V30 4334 C 402.528 -1.28693 0.964092 0
M  V30 4335 O 403.718 -1.23602 1.22753 0
M  V30 4336 C 400.85 -2.33825 2.4807 0
M  V30 4337 H 402.043 -0.589476 2.9405 0
M  V30 4338 H 399.596 -0.270354 1.53944 0
M  V30 4339 H 400.331 -2.80307 1.6309 0
M  V30 4340 H 400.116 -2.1483 3.2801 0
M  V30 4341 H 401.606 -3.04426 2.85857 0
M  V30 4342 N 402.043 -1.548 -0.295768 0
M  V30 4343 C 403.006 -1.85363 -1.34808 0
M  V30 4344 C 404.006 -0.726817 -1.43436 0
M  V30 4345 O 405.196 -0.995088 -1.42981 0
M  V30 4346 C 402.328 -2.03859 -2.73229 0
M  V30 4347 H 403.521 -2.7941 -1.08949 0
M  V30 4348 H 401.074 -1.46942 -0.532702 0
M  V30 4349 H 401.809 -1.12117 -3.04303 0
M  V30 4350 H 401.594 -2.8588 -2.68356 0
M  V30 4351 H 403.084 -2.28857 -3.49305 0
M  V30 4352 N 403.521 0.559213 -1.47345 0
M  V30 4353 C 404.769 1.31388 -1.53563 0
M  V30 4354 C 405.09 1.93985 -0.198678 0
M  V30 4355 O 404.36 1.79825 0.777167 0
M  V30 4356 H 402.94 0.487901 -0.565652 0
M  V30 4357 H 405.602 0.65315 -1.8363 0
M  V30 4358 H 404.698 2.10844 -2.30111 0
M  V30 4359 N 404.999 1.35443 0.805782 0
M  V30 4360 C 406.229 1.31687 1.59192 0
M  V30 4361 C 406.637 -0.10756 1.88894 0
M  V30 4362 O 405.98 -1.07017 1.49309 0
M  V30 4363 C 406.042 2.05686 2.94845 0
M  V30 4364 C 405.706 3.54868 2.87954 0
M  V30 4365 C 406.703 4.49444 2.61335 0
M  V30 4366 C 404.388 3.97528 3.07046 0
M  V30 4367 C 406.382 5.84655 2.53885 0
M  V30 4368 C 404.069 5.32833 2.99219 0
M  V30 4369 C 405.067 6.26209 2.72674 0
M  V30 4370 O 404.755 7.59032 2.64811 0
M  V30 4371 H 404.487 0.453878 0.50097 0
M  V30 4372 H 407.041 1.78892 1.0093 0
M  V30 4373 H 405.271 1.5312 3.55093 0
M  V30 4374 H 406.96 1.94998 3.55993 0
M  V30 4375 H 407.726 4.17804 2.46303 0
M  V30 4376 H 403.605 3.25233 3.26718 0
M  V30 4377 H 407.149 6.57508 2.33086 0
M  V30 4378 H 403.046 5.64087 3.13809 0
M  V30 4379 H 403.814 7.68967 2.80413 0
M  V30 4380 N 406.477 -1.02803 1.19454 0
M  V30 4381 C 407.726 -1.7562 0.991996 0
M  V30 4382 C 408.039 -1.89672 -0.477901 0
M  V30 4383 O 409.245 -2.59468 -0.799287 0
M  V30 4384 C 407.701 -3.15812 1.72601 0
M  V30 4385 C 407.309 -3.0981 3.23607 0
M  V30 4386 C 409.053 -3.92918 1.60674 0
M  V30 4387 C 406.96 -4.44939 3.89594 0
M  V30 4388 H 405.89 -0.658352 0.367543 0
M  V30 4389 H 408.541 -1.15044 1.42959 0
M  V30 4390 H 406.923 -3.7686 1.21624 0
M  V30 4391 H 408.097 -2.58138 3.81709 0
M  V30 4392 H 406.412 -2.46201 3.35819 0
M  V30 4393 H 409.009 -4.9287 2.07323 0
M  V30 4394 H 409.352 -4.12502 0.561025 0
M  V30 4395 H 409.885 -3.38472 2.09001 0
M  V30 4396 H 406.624 -4.30559 4.94267 0
M  V30 4397 H 406.144 -4.96664 3.36281 0
M  V30 4398 H 407.823 -5.1382 3.93189 0
M  V30 4399 N 407.956 -0.998596 -1.21925 0
M  V30 4400 C 409.233 -0.593401 -1.86382 0
M  V30 4401 C 409.613 0.92916 -1.89552 0
M  V30 4402 O 408.961 1.81347 -1.39017 0
M  V30 4403 C 409.171 -1.22039 -3.26967 0
M  V30 4404 C 410.519 -1.32449 -4.03413 0
M  V30 4405 O 411.543 -1.17522 -3.36254 0
M  V30 4406 O 410.402 -1.56395 -5.23644 0
M  V30 4407 H 407.496 -0.202385 -0.801854 0
M  V30 4408 H 410.042 -1.09484 -1.29659 0
M  V30 4409 H 408.814 -2.26158 -3.19325 0
M  V30 4410 H 408.437 -0.704906 -3.91301 0
M  V30 4411 N 409.434 1.37368 -0.772513 0
M  V30 4412 C 410.381 2.30262 -0.157488 0
M  V30 4413 C 411.351 1.51137 0.688965 0
M  V30 4414 O 412.536 1.79704 0.641168 0
M  V30 4415 C 409.676 3.37611 0.715045 0
M  V30 4416 C 408.789 4.31746 -0.148098 0
M  V30 4417 C 407.924 5.26171 0.729213 0
M  V30 4418 C 406.963 6.11948 -0.136418 0
M  V30 4419 N 406.1 6.98613 0.698914 0
M  V30 4420 H 410.94 2.82277 -0.955179 0
M  V30 4421 H 408.477 1.38957 -0.482631 0
M  V30 4422 H 410.435 3.98479 1.23575 0
M  V30 4423 H 409.065 2.86959 1.47833 0
M  V30 4424 H 408.117 3.72178 -0.786613 0
M  V30 4425 H 409.429 4.92084 -0.81579 0
M  V30 4426 H 408.583 5.92247 1.31637 0
M  V30 4427 H 407.322 4.66246 1.43059 0
M  V30 4428 H 406.327 5.4485 -0.736102 0
M  V30 4429 H 407.552 6.73945 -0.835134 0
M  V30 4430 H 405.498 6.41215 1.38489 0
M  V30 4431 H 405.415 7.55948 0.0885358 0
M  V30 4432 H 406.683 7.69077 1.27044 0
M  V30 4433 N 410.912 0.523116 1.48665 0
M  V30 4434 C 411.86 -0.256859 2.31177 0
M  V30 4435 C 412.854 -0.94199 1.40794 0
M  V30 4436 O 414.06 -0.867157 1.57735 0
M  V30 4437 H 410.435 -0.1017 0.745091 0
M  V30 4438 H 412.406 0.458739 2.94853 0
M  V30 4439 C 411.155 -1.29503 3.22683 0
M  V30 4440 H 410.478 -0.777248 3.92172 0
M  V30 4441 H 411.918 -1.81233 3.83315 0
M  V30 4442 C 410.377 -2.32501 2.43813 0
M  V30 4443 O 410.907 -3.3881 2.15803 0
M  V30 4444 N 409.113 -2.05538 2.05432 0
M  V30 4445 H 408.66 -1.19104 2.28412 0
M  V30 4446 H 408.618 -2.74676 1.52973 0
M  V30 4447 N 412.39 -1.55475 0.257931 0
M  V30 4448 C 413.322 -2.19192 -0.669881 0
M  V30 4449 C 414.335 -1.17148 -1.1305 0
M  V30 4450 O 415.524 -1.43959 -1.05537 0
M  V30 4451 C 412.624 -2.79016 -1.92363 0
M  V30 4452 C 411.797 -4.06586 -1.61265 0
M  V30 4453 C 410.856 -4.50622 -2.7171 0
M  V30 4454 O 409.882 -5.16765 -2.38627 0
M  V30 4455 N 411.084 -4.19325 -4.01431 0
M  V30 4456 H 413.849 -2.99441 -0.124635 0
M  V30 4457 H 411.41 -1.6171 0.0783311 0
M  V30 4458 H 413.402 -3.05427 -2.65511 0
M  V30 4459 H 411.972 -2.0286 -2.37837 0
M  V30 4460 H 411.192 -3.87646 -0.715811 0
M  V30 4461 H 412.48 -4.89737 -1.37967 0
M  V30 4462 H 411.878 -3.66247 -4.31138 0
M  V30 4463 H 410.435 -4.50547 -4.7101 0
M  V30 4464 N 413.868 0.0150385 -1.57593 0
M  V30 4465 C 414.778 1.02791 -2.10882 0
M  V30 4466 C 415.794 1.38702 -1.0506 0
M  V30 4467 O 416.97 1.47739 -1.36877 0
M  V30 4468 C 414.035 2.30568 -2.58919 0
M  V30 4469 C 413.096 2.01108 -3.79281 0
M  V30 4470 C 412.329 3.22794 -4.25018 0
M  V30 4471 O 412.552 4.33959 -3.70183 0
M  V30 4472 O 411.486 3.07672 -5.17322 0
M  V30 4473 H 415.312 0.604973 -2.97613 0
M  V30 4474 H 412.897 0.23292 -1.47573 0
M  V30 4475 H 414.779 3.05662 -2.90084 0
M  V30 4476 H 413.454 2.72129 -1.75293 0
M  V30 4477 H 412.361 1.23537 -3.53114 0
M  V30 4478 H 413.694 1.64394 -4.63935 0
M  V30 4479 N 415.346 1.54954 0.287554 0
M  V30 4480 C 416.574 1.78881 1.03967 0
M  V30 4481 C 416.989 0.554894 1.80462 0
M  V30 4482 O 416.346 -0.475676 1.76192 0
M  V30 4483 C 416.397 3.00488 2.0097 0
M  V30 4484 O 416.118 4.19113 1.27577 0
M  V30 4485 C 417.619 3.36907 2.88112 0
M  V30 4486 H 414.839 0.596259 0.307761 0
M  V30 4487 H 417.383 2.01937 0.322749 0
M  V30 4488 H 415.538 2.79601 2.68145 0
M  V30 4489 H 415.952 4.87765 1.92835 0
M  V30 4490 H 417.426 4.25205 3.52001 0
M  V30 4491 H 417.903 2.55659 3.57121 0
M  V30 4492 H 418.509 3.60001 2.26449 0
M  V30 4493 N 416.824 -0.551391 1.4764 0
M  V30 4494 C 417.734 -1.68525 1.63207 0
M  V30 4495 C 418.75 -1.6621 0.514815 0
M  V30 4496 O 419.926 -1.85551 0.783113 0
M  V30 4497 C 416.991 -3.05025 1.64805 0
M  V30 4498 C 416.052 -3.18362 2.88 0
M  V30 4499 C 415.285 -4.4835 2.89513 0
M  V30 4500 O 415.508 -5.34163 2.00065 0
M  V30 4501 O 414.442 -4.65602 3.81443 0
M  V30 4502 H 418.268 -1.58333 2.59161 0
M  V30 4503 H 415.853 -0.722063 1.30792 0
M  V30 4504 H 417.735 -3.86245 1.68502 0
M  V30 4505 H 416.41 -3.15587 0.720197 0
M  V30 4506 H 415.317 -2.36518 2.89845 0
M  V30 4507 H 416.65 -3.12707 3.80099 0
M  V30 4508 N 418.302 -1.35869 -0.798587 0
M  V30 4509 C 419.265 -1.29307 -1.89242 0
M  V30 4510 C 420.265 -0.202747 -1.59517 0
M  V30 4511 O 421.455 -0.456957 -1.681 0
M  V30 4512 C 418.587 -1.00229 -3.25833 0
M  V30 4513 H 419.78 -2.26576 -1.96478 0
M  V30 4514 H 417.333 -1.20509 -0.995358 0
M  V30 4515 H 418.068 -0.033801 -3.24282 0
M  V30 4516 H 417.853 -1.79121 -3.48795 0
M  V30 4517 H 419.343 -0.98219 -4.05885 0
M  V30 4518 N 419.78 1.02168 -1.19998 0
M  V30 4519 C 420.743 2.08765 -0.94604 0
M  V30 4520 C 421.743 1.60618 0.0763846 0
M  V30 4521 O 422.933 1.73472 -0.159135 0
M  V30 4522 C 420.065 3.38262 -0.423255 0
M  V30 4523 H 421.258 2.32726 -1.89153 0
M  V30 4524 H 418.811 1.1889 -1.01464 0
M  V30 4525 H 419.546 3.19974 0.527938 0
M  V30 4526 H 419.331 3.74532 -1.16053 0
M  V30 4527 H 420.821 4.16759 -0.264911 0
M  V30 4528 N 421.258 1.00505 1.21394 0
M  V30 4529 C 422.168 0.574806 2.27449 0
M  V30 4530 C 423.184 -0.382206 1.6975 0
M  V30 4531 O 424.36 -0.246027 1.99892 0
M  V30 4532 C 421.425 -0.0917414 3.46579 0
M  V30 4533 C 420.486 0.909758 4.1955 0
M  V30 4534 C 419.719 0.274924 5.32991 0
M  V30 4535 O 419.942 -0.928254 5.62796 0
M  V30 4536 O 418.876 0.985877 5.93771 0
M  V30 4537 H 422.702 1.45744 2.66444 0
M  V30 4538 H 420.287 0.773923 1.27792 0
M  V30 4539 H 422.169 -0.464551 4.18832 0
M  V30 4540 H 420.844 -0.948755 3.09484 0
M  V30 4541 H 419.751 1.33372 3.49518 0
M  V30 4542 H 421.084 1.73636 4.60555 0
M  V30 4543 N 422.737 -1.36956 0.779787 0
M  V30 4544 C 423.983 -1.99787 0.348281 0
M  V30 4545 C 424.316 -1.61756 -1.07465 0
M  V30 4546 O 423.591 -0.867639 -1.74075 0
M  V30 4547 C 423.874 -3.56597 0.50104 0
M  V30 4548 C 423.727 -4.04513 1.96697 0
M  V30 4549 C 425.046 -4.40008 -0.0898097 0
M  V30 4550 H 422.165 -0.725796 0.128022 0
M  V30 4551 H 424.807 -1.62514 0.984331 0
M  V30 4552 H 422.957 -3.88479 -0.0404347 0
M  V30 4553 H 424.629 -3.83161 2.56876 0
M  V30 4554 H 422.872 -3.56408 2.47297 0
M  V30 4555 H 423.543 -5.1352 2.02486 0
M  V30 4556 H 426.019 -4.14431 0.372293 0
M  V30 4557 H 424.895 -5.4888 0.0471605 0
M  V30 4558 H 425.156 -4.26035 -1.18096 0
M  V30 4559 N 424.215 -0.530993 -1.48385 0
M  V30 4560 C 425.492 0.0671788 -1.95485 0
M  V30 4561 C 425.872 1.51191 -1.47324 0
M  V30 4562 O 425.22 2.17507 -0.700202 0
M  V30 4563 C 425.43 -0.0511206 -3.48963 0
M  V30 4564 C 426.778 0.107632 -4.24464 0
M  V30 4565 O 427.802 0.0226248 -3.56193 0
M  V30 4566 O 426.661 0.285972 -5.45751 0
M  V30 4567 H 423.755 0.0787365 -0.823243 0
M  V30 4568 H 426.301 -0.595662 -1.58902 0
M  V30 4569 H 425.073 -1.05747 -3.7674 0
M  V30 4570 H 424.696 0.650525 -3.92242 0
M  V30 4571 N 425.693 1.55336 -0.266172 0
M  V30 4572 C 426.626 2.18256 0.666296 0
M  V30 4573 C 427.604 1.14064 1.1588 0
M  V30 4574 O 428.788 1.42546 1.23341 0
M  V30 4575 C 425.915 2.79867 1.90768 0
M  V30 4576 C 424.961 3.97283 1.55141 0
M  V30 4577 S 425.794 5.31694 0.637313 0
M  V30 4578 C 426.95 5.96769 1.88727 0
M  V30 4579 H 427.183 2.97008 0.131647 0
M  V30 4580 H 424.716 1.54317 -0.0504869 0
M  V30 4581 H 426.674 3.15996 2.62025 0
M  V30 4582 H 425.335 2.01025 2.41346 0
M  V30 4583 H 424.528 4.3905 2.4749 0
M  V30 4584 H 424.13 3.6253 0.919113 0
M  V30 4585 H 426.422 6.15458 2.83227 0
M  V30 4586 H 427.365 6.91752 1.51276 0
M  V30 4587 H 427.773 5.26034 2.04814 0
M  V30 4588 N 427.171 -0.0066808 1.57599 0
M  V30 4589 C 428.399 -0.704087 1.94551 0
M  V30 4590 C 428.814 -1.67677 0.867746 0
M  V30 4591 O 428.171 -1.8185 -0.153925 0
M  V30 4592 C 428.222 -1.44177 3.31505 0
M  V30 4593 O 427.943 -0.508097 4.35144 0
M  V30 4594 C 429.444 -2.23429 3.82876 0
M  V30 4595 H 426.664 -0.196523 0.641576 0
M  V30 4596 H 429.208 0.042453 2.04456 0
M  V30 4597 H 427.363 -2.13999 3.22929 0
M  V30 4598 H 427.777 -1.02782 5.14331 0
M  V30 4599 H 429.251 -2.70552 4.8115 0
M  V30 4600 H 429.728 -3.05818 3.15233 0
M  V30 4601 H 430.334 -1.58636 3.94607 0
M  V30 4602 N 428.649 -1.55105 -0.279332 0
M  V30 4603 C 429.874 -1.7976 -1.03446 0
M  V30 4604 C 430.299 -0.565952 -1.79384 0
M  V30 4605 O 429.657 0.484259 -1.74713 0
M  V30 4606 C 429.705 -3.0179 -1.97371 0
M  V30 4607 O 428.809 -2.76432 -3.06038 0
M  V30 4608 H 428.15 -0.594334 -0.29608 0
M  V30 4609 H 430.68 -2.02235 -0.310165 0
M  V30 4610 H 430.69 -3.30351 -2.39441 0
M  V30 4611 H 429.365 -3.91085 -1.4151 0
M  V30 4612 H 427.942 -2.58949 -2.68328 0
M  V30 4613 N 430.127 0.543554 -1.4793 0
M  V30 4614 C 431.059 1.665 -1.57513 0
M  V30 4615 C 432.072 1.56156 -0.460333 0
M  V30 4616 O 433.261 1.62865 -0.730573 0
M  V30 4617 C 430.361 3.05063 -1.47614 0
M  V30 4618 C 429.534 3.41024 -2.739 0
M  V30 4619 C 428.593 4.58809 -2.57645 0
M  V30 4620 O 427.619 4.62707 -3.31498 0
M  V30 4621 N 428.821 5.56149 -1.66368 0
M  V30 4622 H 431.586 1.5872 -2.5422 0
M  V30 4623 H 429.147 0.730517 -1.44482 0
M  V30 4624 H 431.139 3.81712 -1.34455 0
M  V30 4625 H 429.709 3.06994 -0.589359 0
M  V30 4626 H 428.929 2.53687 -3.01723 0
M  V30 4627 H 430.217 3.61831 -3.57709 0
M  V30 4628 H 429.615 5.55767 -1.05543 0
M  V30 4629 H 428.172 6.32071 -1.59154 0
M  V30 4630 N 431.605 1.3629 0.791371 0
M  V30 4631 C 432.535 1.33137 1.91825 0
M  V30 4632 C 433.516 0.203168 1.68882 0
M  V30 4633 O 434.701 0.400509 1.90025 0
M  V30 4634 C 431.831 1.11793 3.28816 0
M  V30 4635 C 430.785 2.21417 3.66277 0
M  V30 4636 C 430.111 1.85218 5.01596 0
M  V30 4637 C 431.411 3.63489 3.75064 0
M  V30 4638 H 433.105 2.2743 1.9472 0
M  V30 4639 H 430.651 1.09479 0.935437 0
M  V30 4640 H 432.604 1.08222 4.07266 0
M  V30 4641 H 431.328 0.139501 3.26302 0
M  V30 4642 H 429.987 2.2411 2.90121 0
M  V30 4643 H 429.635 0.859544 4.95602 0
M  V30 4644 H 429.335 2.58611 5.27631 0
M  V30 4645 H 430.859 1.832 5.82469 0
M  V30 4646 H 432.273 3.63034 4.43711 0
M  V30 4647 H 430.67 4.35771 4.12582 0
M  V30 4648 H 431.74 3.98536 2.76219 0
M  V30 4649 N 433.083 -1.0153 1.20538 0
M  V30 4650 C 434.033 -2.08482 0.922991 0
M  V30 4651 C 435.017 -1.60469 -0.117702 0
M  V30 4652 O 436.209 -1.76772 0.0898465 0
M  V30 4653 C 433.338 -3.39952 0.478312 0
M  V30 4654 C 432.424 -3.94662 1.5525 0
M  V30 4655 N 432.815 -4.22866 2.77521 0
M  V30 4656 C 431.113 -4.22825 1.41897 0
M  V30 4657 C 431.814 -4.67002 3.4682 0
M  V30 4658 N 430.79 -4.69356 2.74237 0
M  V30 4659 H 434.592 -2.28199 1.85209 0
M  V30 4660 H 432.106 -1.19512 1.09957 0
M  V30 4661 H 434.103 -4.16105 0.257408 0
M  V30 4662 H 432.763 -3.21648 -0.444148 0
M  V30 4663 H 433.774 -4.11732 3.1416 0
M  V30 4664 H 430.451 -4.13714 0.561015 0
M  V30 4665 H 431.841 -4.97632 4.51455 0
M  V30 4666 N 434.561 -1.01147 -1.20859 0
M  V30 4667 C 435.838 -0.613136 -1.85742 0
M  V30 4668 C 436.218 0.909004 -1.90526 0
M  V30 4669 O 435.566 1.79862 -1.40932 0
M  V30 4670 C 435.776 -1.255 -3.25654 0
M  V30 4671 C 437.124 -1.3672 -4.01986 0
M  V30 4672 O 438.148 -1.21082 -3.34989 0
M  V30 4673 O 437.007 -1.6194 -5.21956 0
M  V30 4674 H 434.101 -0.210878 -0.799662 0
M  V30 4675 H 436.647 -1.10853 -1.2849 0
M  V30 4676 H 435.419 -2.29532 -3.16908 0
M  V30 4677 H 435.042 -0.746369 -3.90532 0
M  V30 4678 N 436.039 1.36541 -0.78704 0
M  V30 4679 C 436.986 2.30082 -0.181901 0
M  V30 4680 C 437.956 1.5186 0.672896 0
M  V30 4681 O 439.141 1.80374 0.622072 0
M  V30 4682 C 436.281 3.3835 0.679197 0
M  V30 4683 C 435.394 4.31565 -0.193882 0
M  V30 4684 C 434.529 5.26915 0.673364 0
M  V30 4685 C 433.568 6.11769 -0.201315 0
M  V30 4686 N 432.705 6.99315 0.624777 0
M  V30 4687 H 437.545 2.81248 -0.985064 0
M  V30 4688 H 435.082 1.38437 -0.497342 0
M  V30 4689 H 437.04 3.99767 1.19341 0
M  V30 4690 H 435.67 2.8851 1.44781 0
M  V30 4691 H 434.722 3.71323 -0.826044 0
M  V30 4692 H 436.034 4.91191 -0.867937 0
M  V30 4693 H 435.188 5.9361 1.25348 0
M  V30 4694 H 433.927 4.67737 1.38105 0
M  V30 4695 H 432.932 5.44039 -0.793849 0
M  V30 4696 H 434.157 6.73022 -0.906568 0
M  V30 4697 H 432.103 6.42648 1.3168 0
M  V30 4698 H 432.02 7.56 0.00835237 0
M  V30 4699 H 433.288 7.70382 1.18879 0
M  V30 4700 N 437.518 0.538854 1.48102 0
M  V30 4701 C 438.748 0.0122958 2.06596 0
M  V30 4702 C 439.156 -1.27861 1.39457 0
M  V30 4703 O 438.499 -1.77348 0.478907 0
M  V30 4704 C 438.561 -0.273131 3.58461 0
M  V30 4705 C 438.225 0.92561 4.47528 0
M  V30 4706 C 439.222 1.82637 4.86765 0
M  V30 4707 C 436.907 1.13511 4.89306 0
M  V30 4708 C 438.901 2.92047 5.66558 0
M  V30 4709 C 436.588 2.23233 5.68868 0
M  V30 4710 C 437.586 3.12333 6.07402 0
M  V30 4711 O 437.274 4.20155 6.85365 0
M  V30 4712 H 437.006 0.0344283 0.675123 0
M  V30 4713 H 439.56 0.746494 1.91355 0
M  V30 4714 H 437.79 -1.06141 3.71848 0
M  V30 4715 H 439.479 -0.742842 3.99045 0
M  V30 4716 H 440.245 1.67649 4.55103 0
M  V30 4717 H 436.124 0.450835 4.5879 0
M  V30 4718 H 439.668 3.6162 5.96554 0
M  V30 4719 H 435.565 2.38201 5.99942 0
M  V30 4720 H 436.333 4.17975 7.03732 0
M  V30 4721 N 438.996 -1.55193 0.274407 0
M  V30 4722 C 439.906 -2.26164 -0.623473 0
M  V30 4723 C 440.922 -1.28729 -1.17068 0
M  V30 4724 O 442.098 -1.61663 -1.20112 0
M  V30 4725 C 439.163 -2.96833 -1.7914 0
M  V30 4726 C 438.224 -4.09745 -1.28093 0
M  V30 4727 C 437.457 -4.77034 -2.3932 0
M  V30 4728 O 437.68 -4.4353 -3.5866 0
M  V30 4729 O 436.614 -5.64996 -2.07516 0
M  V30 4730 H 440.44 -3.03661 -0.0485661 0
M  V30 4731 H 438.025 -1.49341 0.0418382 0
M  V30 4732 H 439.907 -3.41248 -2.4724 0
M  V30 4733 H 438.582 -2.22253 -2.35341 0
M  V30 4734 H 437.489 -3.69787 -0.566416 0
M  V30 4735 H 438.822 -4.86224 -0.764683 0
M  V30 4736 N 440.474 -0.00167713 -1.576 0
M  V30 4737 C 441.722 0.681471 -1.90264 0
M  V30 4738 C 442.043 1.7422 -0.875924 0
M  V30 4739 O 441.313 1.95709 0.0864412 0
M  V30 4740 H 439.893 0.254696 -0.702239 0
M  V30 4741 H 442.555 -0.0429996 -1.94853 0
M  V30 4742 H 441.651 1.15166 -2.90075 0
M  V30 4743 N 441.952 1.55251 0.271103 0
M  V30 4744 C 442.899 1.88261 1.33516 0
M  V30 4745 C 443.869 0.734296 1.48988 0
M  V30 4746 O 445.054 0.985741 1.63364 0
M  V30 4747 C 442.194 2.16168 2.69008 0
M  V30 4748 C 441.307 3.43678 2.61743 0
M  V30 4749 C 440.442 3.61276 3.89427 0
M  V30 4750 C 439.481 4.82472 3.7668 0
M  V30 4751 N 438.618 4.96717 4.96202 0
M  V30 4752 H 443.458 2.79015 1.04665 0
M  V30 4753 H 440.995 1.38137 0.505618 0
M  V30 4754 H 442.953 2.30349 3.47844 0
M  V30 4755 H 441.583 1.28646 2.96057 0
M  V30 4756 H 440.635 3.37959 1.74607 0
M  V30 4757 H 441.947 4.3265 2.48224 0
M  V30 4758 H 441.101 3.75284 4.76704 0
M  V30 4759 H 439.84 2.70492 4.05814 0
M  V30 4760 H 438.845 4.68465 2.87786 0
M  V30 4761 H 440.07 5.74692 3.61809 0
M  V30 4762 H 438.016 4.08865 5.12997 0
M  V30 4763 H 437.933 5.79738 4.85222 0
M  V30 4764 H 439.201 5.15113 5.85046 0
M  V30 4765 N 443.43 -0.535701 1.48216 0
M  V30 4766 C 444.679 -1.28828 1.55197 0
M  V30 4767 C 444.992 -1.94263 0.228278 0
M  V30 4768 O 446.198 -2.70927 0.176278 0
M  V30 4769 C 444.654 -2.33727 2.73678 0
M  V30 4770 C 444.262 -1.74386 4.12666 0
M  V30 4771 C 446.006 -3.1003 2.89968 0
M  V30 4772 C 443.913 -2.77192 5.22416 0
M  V30 4773 H 442.843 -0.484484 0.577747 0
M  V30 4774 H 445.494 -0.56646 1.74538 0
M  V30 4775 H 443.876 -3.08919 2.4776 0
M  V30 4776 H 445.05 -1.05421 4.48579 0
M  V30 4777 H 443.365 -1.10595 4.01445 0
M  V30 4778 H 445.962 -3.86842 3.6913 0
M  V30 4779 H 446.305 -3.65542 1.9921 0
M  V30 4780 H 446.838 -2.41952 3.15759 0
M  V30 4781 H 443.577 -2.26507 6.15122 0
M  V30 4782 H 443.097 -3.44502 4.90998 0
M  V30 4783 H 444.776 -3.40285 5.50286 0
M  V30 4784 N 444.908 -1.36708 -0.784132 0
M  V30 4785 C 446.133 -1.34565 -1.5782 0
M  V30 4786 C 446.558 0.0695257 -1.87971 0
M  V30 4787 O 445.916 1.04302 -1.48293 0
M  V30 4788 C 445.964 -2.17952 -2.87279 0
M  V30 4789 O 445.068 -1.57563 -3.81114 0
M  V30 4790 H 444.409 -0.460337 -0.478524 0
M  V30 4791 H 446.939 -1.80064 -0.971495 0
M  V30 4792 H 446.949 -2.30721 -3.365 0
M  V30 4793 H 445.624 -3.20823 -2.64661 0
M  V30 4794 H 444.201 -1.53764 -3.39722 0
M  V30 4795 N 446.386 1.0089 -1.21074 0
M  V30 4796 C 447.663 1.71834 -0.934469 0
M  V30 4797 C 448.043 2.0368 0.554753 0
M  V30 4798 O 447.391 1.70742 1.51854 0
M  V30 4799 C 447.601 2.98061 -1.8155 0
M  V30 4800 C 448.949 3.7117 -2.06199 0
M  V30 4801 O 449.973 3.08034 -1.78867 0
M  V30 4802 O 448.832 4.84721 -2.52404 0
M  V30 4803 H 445.926 0.749253 -0.35007 0
M  V30 4804 H 448.472 1.06668 -1.31985 0
M  V30 4805 H 447.244 2.70908 -2.82355 0
M  V30 4806 H 446.867 3.70968 -1.43068 0
M  V30 4807 N 447.864 1.01787 1.20321 0
M  V30 4808 C 449.094 0.72614 1.93419 0
M  V30 4809 C 449.502 -0.717317 1.75075 0
M  V30 4810 O 448.845 -1.49836 1.06278 0
M  V30 4811 C 448.907 0.983621 3.45782 0
M  V30 4812 C 448.571 2.41645 3.87888 0
M  V30 4813 C 449.568 3.39732 3.93545 0
M  V30 4814 C 447.253 2.75752 4.19841 0
M  V30 4815 C 449.247 4.69988 4.30569 0
M  V30 4816 C 446.934 4.06221 4.56539 0
M  V30 4817 C 447.932 5.0315 4.61876 0
M  V30 4818 O 447.62 6.31284 4.97731 0
M  V30 4819 H 447.352 0.265824 0.621541 0
M  V30 4820 H 449.906 1.3623 1.53722 0
M  V30 4821 H 448.136 0.290301 3.85609 0
M  V30 4822 H 449.825 0.683279 4.00108 0
M  V30 4823 H 450.591 3.14718 3.69022 0
M  V30 4824 H 446.47 2.00993 4.14877 0
M  V30 4825 H 450.014 5.45642 4.3465 0
M  V30 4826 H 445.911 4.31013 4.80518 0
M  V30 4827 H 446.679 6.35591 5.15719 0
M  V30 4828 N 449.342 -1.36122 0.79427 0
M  V30 4829 C 450.758 -1.5232 0.476525 0
M  V30 4830 C 450.958 -1.74685 -1.00436 0
M  V30 4831 O 450.014 -1.78115 -1.78973 0
M  V30 4832 C 451.327 -2.70607 1.31119 0
M  V30 4833 C 452.875 -2.8448 1.30537 0
M  V30 4834 C 453.35 -4.05778 2.12387 0
M  V30 4835 N 454.841 -4.12933 2.09859 0
M  V30 4836 C 455.576 -5.05876 2.69957 0
M  V30 4837 N 455.072 -6.04232 3.38934 0
M  V30 4838 N 456.865 -4.98528 2.59665 0
M  V30 4839 H 449.016 -1.1986 1.75349 0
M  V30 4840 H 451.279 -0.585418 0.745647 0
M  V30 4841 H 450.985 -2.60619 2.36158 0
M  V30 4842 H 450.859 -3.64888 0.955843 0
M  V30 4843 H 453.246 -2.93927 0.262876 0
M  V30 4844 H 453.327 -1.91093 1.70051 0
M  V30 4845 H 452.971 -3.97092 3.1667 0
M  V30 4846 H 452.901 -4.98323 1.70242 0
M  V30 4847 H 455.392 -3.42515 1.59662 0
M  V30 4848 H 455.705 -6.71724 3.82109 0
M  V30 4849 H 454.05 -6.04443 3.43036 0
M  V30 4850 H 457.241 -4.20641 2.05375 0
M  V30 4851 H 457.414 -5.70773 3.06793 0
M  V30 4852 N 450.82 -0.546701 -1.47814 0
M  V30 4853 C 452.05 -0.0232519 -2.06587 0
M  V30 4854 C 452.458 1.2712 -1.40133 0
M  V30 4855 O 451.801 1.77091 -0.488305 0
M  V30 4856 C 451.863 0.254117 -3.58601 0
M  V30 4857 C 451.527 -0.949331 -4.47031 0
M  V30 4858 C 452.524 -1.85216 -4.85789 0
M  V30 4859 C 450.209 -1.16104 -4.88697 0
M  V30 4860 C 452.203 -2.95047 -5.65001 0
M  V30 4861 C 449.89 -2.26247 -5.67676 0
M  V30 4862 C 450.888 -3.1555 -6.05737 0
M  V30 4863 O 450.576 -4.23784 -6.83127 0
M  V30 4864 H 450.308 -0.0380082 -0.674931 0
M  V30 4865 H 452.862 -0.756631 -1.90956 0
M  V30 4866 H 451.092 1.04168 -3.72406 0
M  V30 4867 H 452.781 0.72167 -3.99433 0
M  V30 4868 H 453.547 -1.70061 -4.54207 0
M  V30 4869 H 449.426 -0.475159 -4.58545 0
M  V30 4870 H 452.97 -3.64778 -5.94628 0
M  V30 4871 H 448.867 -2.41379 -5.98671 0
M  V30 4872 H 449.635 -4.21701 -7.01506 0
M  V30 4873 N 452.299 1.55045 -0.282633 0
M  V30 4874 C 453.71 1.85473 0.213655 0
M  V30 4875 C 454.061 1.20465 1.54863 0
M  V30 4876 O 453.186 0.495676 2.10647 0
M  V30 4877 C 453.781 3.36496 0.394445 0
M  V30 4878 C 452.34 3.67022 0.834961 0
M  V30 4879 C 451.487 2.77218 -0.0674081 0
M  V30 4880 H 454.438 1.50478 -0.504202 0
M  V30 4881 H 454.459 3.60007 1.23186 0
M  V30 4882 H 453.971 3.83782 -0.577326 0
M  V30 4883 H 452.072 3.25241 1.81794 0
M  V30 4884 H 452.185 4.74433 0.667075 0
M  V30 4885 H 450.549 2.5069 0.450196 0
M  V30 4886 H 451.332 3.2732 -1.0352 0
M  V30 4887 N 453.777 0.010035 1.57597 0
M  V30 4888 C 455.002 -0.687021 1.95691 0
M  V30 4889 C 455.427 -1.65952 0.885519 0
M  V30 4890 O 454.785 -1.80633 -0.15543 0
M  V30 4891 C 454.833 -1.3864 3.32884 0
M  V30 4892 O 453.937 -2.50115 3.27897 0
M  V30 4893 H 453.278 -0.181989 0.638573 0
M  V30 4894 H 455.808 0.0662122 2.04493 0
M  V30 4895 H 455.818 -1.74754 3.6868 0
M  V30 4896 H 454.493 -0.673411 4.10412 0
M  V30 4897 H 453.07 -2.16253 3.03791 0
M  V30 4898 N 455.255 -1.55392 -0.262866 0
M  V30 4899 C 456.485 -1.80251 -1.00961 0
M  V30 4900 C 456.893 -0.58117 -1.80053 0
M  V30 4901 O 456.236 0.459427 -1.77862 0
M  V30 4902 C 456.298 -2.98207 -2.00781 0
M  V30 4903 C 455.962 -4.34856 -1.40533 0
M  V30 4904 C 456.959 -5.13459 -0.815853 0
M  V30 4905 C 454.644 -4.8153 -1.42948 0
M  V30 4906 C 456.638 -6.36875 -0.258562 0
M  V30 4907 C 454.325 -6.04899 -0.868334 0
M  V30 4908 C 455.323 -6.8241 -0.283884 0
M  V30 4909 O 455.011 -8.03451 0.268644 0
M  V30 4910 H 454.743 -0.604049 -0.303482 0
M  V30 4911 H 457.297 -2.03257 -0.295926 0
M  V30 4912 H 455.527 -2.70917 -2.75936 0
M  V30 4913 H 457.216 -3.10299 -2.61667 0
M  V30 4914 H 457.982 -4.78526 -0.789812 0
M  V30 4915 H 453.861 -4.21201 -1.87378 0
M  V30 4916 H 457.405 -6.97318 0.198257 0
M  V30 4917 H 453.302 -6.39312 -0.891649 0
M  V30 4918 H 454.07 -8.18346 0.158974 0
M  V30 4919 N 456.733 0.527833 -1.48498 0
M  V30 4920 C 457.98 1.28354 -1.56625 0
M  V30 4921 C 458.308 1.93 -0.241096 0
M  V30 4922 O 457.563 1.79967 0.768798 0
M  V30 4923 C 457.862 2.39275 -2.65485 0
M  V30 4924 C 457.528 1.92268 -4.07853 0
M  V30 4925 C 456.19 1.79166 -4.46602 0
M  V30 4926 C 458.542 1.56771 -4.97064 0
M  V30 4927 C 455.87 1.28905 -5.72364 0
M  V30 4928 C 458.222 1.07972 -6.23318 0
M  V30 4929 C 456.886 0.934887 -6.60921 0
M  V30 4930 H 456.156 0.469682 -0.573131 0
M  V30 4931 H 458.803 0.588781 -1.82224 0
M  V30 4932 H 457.108 3.1443 -2.33754 0
M  V30 4933 H 458.805 2.974 -2.68988 0
M  V30 4934 H 455.395 2.03417 -3.77252 0
M  V30 4935 H 459.579 1.65753 -4.67803 0
M  V30 4936 H 454.835 1.16381 -6.00221 0
M  V30 4937 H 459.009 0.795775 -6.91838 0
M  V30 4938 H 456.636 0.543231 -7.58257 0
M  V30 4939 N 458.211 1.37122 0.776871 0
M  V30 4940 C 459.488 1.22586 1.52421 0
M  V30 4941 C 459.868 -0.182726 2.10308 0
M  V30 4942 O 459.216 -1.18979 1.9508 0
M  V30 4943 C 459.426 2.31782 2.60918 0
M  V30 4944 C 460.774 2.69071 3.2846 0
M  V30 4945 O 461.798 2.3092 2.71209 0
M  V30 4946 O 460.657 3.3478 4.31954 0
M  V30 4947 H 457.751 0.478045 0.674835 0
M  V30 4948 H 460.297 1.48888 0.814275 0
M  V30 4949 H 459.069 3.26131 2.16227 0
M  V30 4950 H 458.692 2.06916 3.39517 0
M  V30 4951 N 459.689 -1.00246 1.21608 0
M  V30 4952 C 460.652 -2.07233 0.979133 0
M  V30 4953 C 461.652 -1.6072 -0.0508219 0
M  V30 4954 O 462.842 -1.73196 0.186712 0
M  V30 4955 C 459.974 -3.37546 0.477016 0
M  V30 4956 H 461.167 -2.29687 1.92831 0
M  V30 4957 H 458.72 -1.17261 1.03342 0
M  V30 4958 H 459.455 -3.20773 -0.476966 0
M  V30 4959 H 459.24 -3.72638 1.21997 0
M  V30 4960 H 460.73 -4.16285 0.331181 0
M  V30 4961 N 461.167 -1.02423 -1.1978 0
M  V30 4962 C 462.413 -0.719051 -1.89625 0
M  V30 4963 C 462.746 0.750083 -1.7913 0
M  V30 4964 O 462.021 1.54574 -1.18056 0
M  V30 4965 C 462.304 -1.16499 -3.40735 0
M  V30 4966 C 462.157 -2.695 -3.60125 0
M  V30 4967 C 463.476 -0.742166 -4.33797 0
M  V30 4968 H 460.595 -0.26269 -0.688595 0
M  V30 4969 H 463.237 -1.27333 -1.41018 0
M  V30 4970 H 461.387 -0.69341 -3.82262 0
M  V30 4971 H 463.059 -3.24569 -3.278 0
M  V30 4972 H 461.302 -3.10113 -3.03336 0
M  V30 4973 H 461.973 -2.95757 -4.66081 0
M  V30 4974 H 464.449 -1.1477 -3.99959 0
M  V30 4975 H 463.325 -1.08213 -5.38127 0
M  V30 4976 H 463.586 0.355747 -4.40666 0
M  V30 4977 N 462.645 1.35699 -0.801477 0
M  V30 4978 C 463.891 1.99208 -0.380022 0
M  V30 4979 C 464.224 1.63445 1.04878 0
M  V30 4980 O 463.499 0.895223 1.72673 0
M  V30 4981 C 463.782 3.55755 -0.557708 0
M  V30 4982 C 463.635 4.01332 -2.03107 0
M  V30 4983 C 464.954 4.40096 0.0197968 0
M  V30 4984 H 462.073 0.723667 -0.139552 0
M  V30 4985 H 464.715 1.60928 -1.01006 0
M  V30 4986 H 462.865 3.88494 -0.0213741 0
M  V30 4987 H 464.537 3.79026 -2.62939 0
M  V30 4988 H 462.78 3.52429 -2.52936 0
M  V30 4989 H 463.451 5.10234 -2.1063 0
M  V30 4990 H 465.927 4.13786 -0.438179 0
M  V30 4991 H 464.803 5.48735 -0.134477 0
M  V30 4992 H 465.064 4.2786 1.11303 0
M  V30 4993 N 464.123 0.554532 1.47522 0
M  V30 4994 C 465.071 -0.207765 2.3167 0
M  V30 4995 C 466.065 -0.911914 1.4276 0
M  V30 4996 O 467.271 -0.833504 1.59539 0
M  V30 4997 H 463.646 -0.0858726 0.747081 0
M  V30 4998 H 465.617 0.521178 2.93813 0
M  V30 4999 C 464.366 -1.2263 3.25357 0
M  V30 5000 H 463.689 -0.693887 3.93732 0
M  V30 5001 H 465.129 -1.73062 3.87073 0
M  V30 5002 C 463.588 -2.27278 2.4869 0
M  V30 5003 O 464.118 -3.34156 2.22941 0
M  V30 5004 N 462.324 -2.01134 2.09746 0
M  V30 5005 H 461.871 -1.14232 2.30887 0
M  V30 5006 H 461.829 -2.71369 1.58765 0
M  V30 5007 N 465.601 -1.54893 0.290851 0
M  V30 5008 C 466.511 -2.26812 -0.59945 0
M  V30 5009 C 467.527 -1.29963 -1.15696 0
M  V30 5010 O 468.703 -1.62928 -1.18391 0
M  V30 5011 C 465.768 -2.98716 -1.75982 0
M  V30 5012 C 464.829 -4.1108 -1.2374 0
M  V30 5013 C 464.062 -4.79546 -2.34246 0
M  V30 5014 O 464.285 -4.47309 -3.53936 0
M  V30 5015 O 463.219 -5.67165 -2.01512 0
M  V30 5016 H 467.045 -3.03696 -0.0163561 0
M  V30 5017 H 464.63 -1.49289 0.0576755 0
M  V30 5018 H 466.512 -3.43851 -2.43607 0
M  V30 5019 H 465.187 -2.24737 -2.3297 0
M  V30 5020 H 464.094 -3.70367 -0.527163 0
M  V30 5021 H 465.427 -4.87007 -0.71307 0
M  V30 5022 N 467.08 -0.0183926 -1.57589 0
M  V30 5023 C 468.043 0.951986 -2.08494 0
M  V30 5024 C 469.043 1.26092 -0.997874 0
M  V30 5025 O 470.233 1.20304 -1.25987 0
M  V30 5026 C 467.365 2.27165 -2.54182 0
M  V30 5027 H 468.558 0.511307 -2.95509 0
M  V30 5028 H 466.111 0.229444 -1.54607 0
M  V30 5029 H 466.846 2.75884 -1.70465 0
M  V30 5030 H 466.631 2.06057 -3.33591 0
M  V30 5031 H 468.121 2.9674 -2.93828 0
M  V30 5032 N 468.558 1.5553 0.254621 0
M  V30 5033 C 469.804 1.77262 0.985193 0
M  V30 5034 C 470.137 0.582286 1.85265 0
M  V30 5035 O 469.412 -0.419666 1.89919 0
M  V30 5036 C 469.695 3.0881 1.85225 0
M  V30 5037 C 469.548 4.38233 1.0135 0
M  V30 5038 C 470.867 3.3653 2.83612 0
M  V30 5039 H 467.986 0.644906 0.356742 0
M  V30 5040 H 470.628 1.88264 0.256236 0
M  V30 5041 H 468.778 2.99562 2.47376 0
M  V30 5042 H 470.45 4.59463 0.411269 0
M  V30 5043 H 468.693 4.32636 0.317574 0
M  V30 5044 H 469.364 5.26644 1.65379 0
M  V30 5045 H 471.84 3.45691 2.31596 0
M  V30 5046 H 470.716 4.29805 3.41407 0
M  V30 5047 H 470.977 2.57064 3.59681 0
M  V30 5048 N 470.036 -0.519951 1.48776 0
M  V30 5049 C 471.261 -1.30447 1.6124 0
M  V30 5050 C 471.686 -1.86055 0.276591 0
M  V30 5051 O 471.044 -1.64915 -0.753183 0
M  V30 5052 C 471.092 -2.42406 2.66967 0
M  V30 5053 O 470.196 -3.45728 2.24824 0
M  V30 5054 H 469.537 -0.385924 0.540332 0
M  V30 5055 H 472.067 -0.624572 1.94834 0
M  V30 5056 H 472.077 -2.88447 2.88552 0
M  V30 5057 H 470.752 -2.01294 3.63941 0
M  V30 5058 H 469.329 -3.05737 2.13494 0
M  V30 5059 N 471.514 -1.37532 -0.769588 0
M  V30 5060 C 472.461 -1.3347 -1.88293 0
M  V30 5061 C 473.431 -0.199891 -1.64893 0
M  V30 5062 O 474.616 -0.389594 -1.8678 0
M  V30 5063 C 471.756 -1.14968 -3.25387 0
M  V30 5064 C 470.869 -2.37698 -3.60727 0
M  V30 5065 C 470.004 -2.12051 -4.8704 0
M  V30 5066 C 469.043 -3.30636 -5.15117 0
M  V30 5067 N 468.18 -3.04527 -6.3262 0
M  V30 5068 H 473.02 -2.28658 -1.911 0
M  V30 5069 H 470.557 -1.13622 -0.934257 0
M  V30 5070 H 472.515 -1.02261 -4.04473 0
M  V30 5071 H 471.145 -0.234263 -3.21949 0
M  V30 5072 H 470.197 -2.61137 -2.76608 0
M  V30 5073 H 471.509 -3.26131 -3.77413 0
M  V30 5074 H 470.663 -1.96388 -5.74035 0
M  V30 5075 H 469.402 -1.20959 -4.72462 0
M  V30 5076 H 468.407 -3.46836 -4.26597 0
M  V30 5077 H 469.632 -4.22582 -5.31603 0
M  V30 5078 H 467.578 -2.16067 -6.19396 0
M  V30 5079 H 467.495 -3.86503 -6.49732 0
M  V30 5080 H 468.763 -2.92485 -7.22546 0
M  V30 5081 N 472.992 0.995999 -1.22138 0
M  V30 5082 C 474.222 1.76809 -1.06874 0
M  V30 5083 C 474.63 1.85265 0.383866 0
M  V30 5084 O 473.973 1.31969 1.27789 0
M  V30 5085 C 474.035 3.2186 -1.60144 0
M  V30 5086 C 473.699 3.36958 -3.0872 0
M  V30 5087 C 474.696 3.2452 -4.0618 0
M  V30 5088 C 472.381 3.62109 -3.48112 0
M  V30 5089 C 474.375 3.37013 -5.41019 0
M  V30 5090 C 472.062 3.74243 -4.831 0
M  V30 5091 C 473.06 3.61702 -5.79362 0
M  V30 5092 O 472.748 3.73436 -7.119 0
M  V30 5093 H 472.48 0.562207 -0.375365 0
M  V30 5094 H 475.034 1.26113 -1.62125 0
M  V30 5095 H 473.264 3.73734 -0.992981 0
M  V30 5096 H 474.953 3.80775 -1.40589 0
M  V30 5097 H 475.719 3.05004 -3.77091 0
M  V30 5098 H 471.598 3.70949 -2.73712 0
M  V30 5099 H 475.142 3.27141 -6.16137 0
M  V30 5100 H 471.039 3.93266 -5.11872 0
M  V30 5101 H 471.807 3.90328 -7.19435 0
M  V30 5102 N 474.47 1.03057 1.19235 0
M  V30 5103 C 475.418 0.606391 2.24557 0
M  V30 5104 C 476.412 -0.361826 1.65491 0
M  V30 5105 O 477.618 -0.23022 1.78522 0
M  V30 5106 H 473.993 0.177838 0.730669 0
M  V30 5107 H 475.964 1.50529 2.5765 0
M  V30 5108 C 474.713 -0.0252127 3.47691 0
M  V30 5109 H 474.036 0.710838 3.9343 0
M  V30 5110 H 475.476 -0.284931 4.23042 0
M  V30 5111 C 473.935 -1.27229 3.11953 0
M  V30 5112 O 474.465 -2.36416 3.24762 0
M  V30 5113 N 472.671 -1.16169 2.6637 0
M  V30 5114 H 472.218 -0.273189 2.56147 0
M  V30 5115 H 472.176 -1.99703 2.42829 0
M  V30 5116 N 475.948 -1.35272 0.808662 0
M  V30 5117 C 476.878 -2.32315 0.234981 0
M  V30 5118 C 477.859 -1.57572 -0.64071 0
M  V30 5119 O 479.044 -1.8563 -0.570551 0
M  V30 5120 C 476.174 -3.41801 -0.615601 0
M  V30 5121 C 475.128 -4.27694 0.161767 0
M  V30 5122 C 474.454 -5.28519 -0.810649 0
M  V30 5123 C 475.754 -5.04231 1.36193 0
M  V30 5124 H 477.448 -2.80543 1.04575 0
M  V30 5125 H 474.994 -1.3488 0.504315 0
M  V30 5126 H 476.947 -4.08693 -1.02702 0
M  V30 5127 H 475.671 -2.92186 -1.45928 0
M  V30 5128 H 474.33 -3.62384 0.554382 0
M  V30 5129 H 473.978 -4.75171 -1.64988 0
M  V30 5130 H 473.678 -5.8686 -0.294822 0
M  V30 5131 H 475.202 -5.98283 -1.22023 0
M  V30 5132 H 476.616 -5.64058 1.02528 0
M  V30 5133 H 475.013 -5.72077 1.81239 0
M  V30 5134 H 476.083 -4.34753 2.14751 0
M  V30 5135 N 477.426 -0.562348 -1.47226 0
M  V30 5136 C 478.654 -0.0452275 -2.06851 0
M  V30 5137 C 479.069 1.25078 -1.41424 0
M  V30 5138 O 478.426 1.75156 -0.512513 0
M  V30 5139 C 478.477 0.148674 -3.61194 0
M  V30 5140 O 478.198 -1.09602 -4.24169 0
M  V30 5141 C 479.699 0.702488 -4.37699 0
M  V30 5142 H 476.919 -0.0481775 -0.669268 0
M  V30 5143 H 479.463 -0.777223 -1.89155 0
M  V30 5144 H 477.618 0.830817 -3.78386 0
M  V30 5145 H 478.032 -0.896982 -5.16773 0
M  V30 5146 H 479.506 0.78743 -5.46355 0
M  V30 5147 H 479.983 1.71493 -4.04335 0
M  V30 5148 H 480.589 0.0558772 -4.25263 0
M  V30 5149 N 478.904 1.54736 -0.299062 0
M  V30 5150 C 479.814 2.27127 0.587413 0
M  V30 5151 C 480.83 1.30575 1.15005 0
M  V30 5152 O 482.006 1.63554 1.17525 0
M  V30 5153 C 479.071 2.99645 1.74395 0
M  V30 5154 C 478.132 4.11731 1.21559 0
M  V30 5155 C 477.365 4.80781 2.317 0
M  V30 5156 O 477.588 4.4918 3.51558 0
M  V30 5157 O 476.522 5.68226 1.98501 0
M  V30 5158 H 480.348 3.037 0.000250109 0
M  V30 5159 H 477.933 1.49256 -0.0655919 0
M  V30 5160 H 479.815 3.45138 2.4178 0
M  V30 5161 H 478.49 2.25969 2.31775 0
M  V30 5162 H 477.397 3.70641 0.507514 0
M  V30 5163 H 478.73 4.87379 0.687233 0
M  V30 5164 N 480.382 0.0267497 1.57577 0
M  V30 5165 C 481.292 -0.971633 2.13533 0
M  V30 5166 C 482.308 -1.35868 1.08701 0
M  V30 5167 O 483.484 -1.44058 1.40746 0
M  V30 5168 C 480.549 -2.23622 2.64941 0
M  V30 5169 C 479.61 -1.90982 3.8448 0
M  V30 5170 C 478.843 -3.11411 4.33427 0
M  V30 5171 O 479.066 -4.23992 3.81558 0
M  V30 5172 O 478 -2.93848 5.25297 0
M  V30 5173 H 481.826 -0.525853 2.99113 0
M  V30 5174 H 479.411 -0.193712 1.48139 0
M  V30 5175 H 481.293 -2.97864 2.98086 0
M  V30 5176 H 479.968 -2.67386 1.82446 0
M  V30 5177 H 478.875 -1.14132 3.56265 0
M  V30 5178 H 480.208 -1.52036 4.6813 0
M  V30 5179 N 481.861 -1.55662 -0.24637 0
M  V30 5180 C 482.771 -1.93495 -1.32653 0
M  V30 5181 C 483.787 -0.835462 -1.5263 0
M  V30 5182 O 484.963 -1.1369 -1.66242 0
M  V30 5183 C 482.028 -2.22242 -2.66101 0
M  V30 5184 C 481.089 -3.45625 -2.54641 0
M  V30 5185 C 480.322 -3.72991 -3.81724 0
M  V30 5186 O 480.545 -3.02421 -4.8363 0
M  V30 5187 O 479.479 -4.66515 -3.80325 0
M  V30 5188 H 483.305 -2.85498 -1.03559 0
M  V30 5189 H 480.89 -1.42551 -0.44717 0
M  V30 5190 H 482.772 -2.42037 -3.44958 0
M  V30 5191 H 481.447 -1.33417 -2.94926 0
M  V30 5192 H 480.354 -3.31136 -1.74067 0
M  V30 5193 H 481.687 -4.34754 -2.3076 0
M  V30 5194 N 483.339 0.512053 -1.4905 0
M  V30 5195 C 484.588 1.26343 -1.57227 0
M  V30 5196 C 484.901 1.93876 -0.259155 0
M  V30 5197 O 486.107 2.70612 -0.219358 0
M  V30 5198 C 484.563 2.29343 -2.77362 0
M  V30 5199 C 484.171 1.67799 -4.15388 0
M  V30 5200 C 485.915 3.05378 -2.94864 0
M  V30 5201 C 483.822 2.68845 -5.2676 0
M  V30 5202 H 482.752 0.475231 -0.585382 0
M  V30 5203 H 485.403 0.53862 -1.75417 0
M  V30 5204 H 483.785 3.04938 -2.52643 0
M  V30 5205 H 484.959 0.982715 -4.50199 0
M  V30 5206 H 483.274 1.04194 -4.03153 0
M  V30 5207 H 485.871 3.80921 -3.75238 0
M  V30 5208 H 486.214 3.62327 -2.05 0
M  V30 5209 H 486.747 2.36898 -3.19569 0
M  V30 5210 H 483.486 2.16692 -6.18647 0
M  V30 5211 H 483.006 3.36647 -4.96416 0
M  V30 5212 H 484.685 3.31487 -5.5563 0
M  V30 5213 N 484.817 1.37938 0.762283 0
M  V30 5214 C 486.063 1.33866 1.52341 0
M  V30 5215 C 486.396 -0.0738961 1.94059 0
M  V30 5216 O 485.671 -1.03326 1.64785 0
M  V30 5217 C 485.954 2.28644 2.78197 0
M  V30 5218 C 485.807 3.78722 2.42672 0
M  V30 5219 C 487.126 2.21702 3.80179 0
M  V30 5220 H 484.245 0.487593 0.55265 0
M  V30 5221 H 486.887 1.68717 0.873767 0
M  V30 5222 H 485.037 1.99055 3.33631 0
M  V30 5223 H 486.709 4.18948 1.93081 0
M  V30 5224 H 484.952 3.96827 1.75244 0
M  V30 5225 H 485.623 4.40486 3.3268 0
M  V30 5226 H 488.099 2.47805 3.34263 0
M  V30 5227 H 486.975 2.90143 4.65949 0
M  V30 5228 H 487.236 1.21301 4.25133 0
M  V30 5229 N 486.295 -0.989507 1.22664 0
M  V30 5230 C 487.243 -2.10148 0.997035 0
M  V30 5231 C 488.237 -1.6929 -0.0609783 0
M  V30 5232 O 489.443 -1.79766 0.0917523 0
M  V30 5233 H 485.818 -0.687256 0.305259 0
M  V30 5234 H 487.789 -2.26685 1.94053 0
M  V30 5235 C 486.538 -3.4257 0.595085 0
M  V30 5236 H 485.861 -3.74453 1.40089 0
M  V30 5237 H 487.301 -4.21344 0.473869 0
M  V30 5238 C 485.76 -3.29638 -0.695725 0
M  V30 5239 O 486.29 -3.61709 -1.74727 0
M  V30 5240 N 484.496 -2.82814 -0.668173 0
M  V30 5241 H 484.043 -2.56914 0.18787 0
M  V30 5242 H 484.001 -2.74544 -1.5321 0
M  V30 5243 N 487.773 -1.03688 -1.18687 0
M  V30 5244 C 488.721 -0.618292 -2.24232 0
M  V30 5245 C 489.715 0.353045 -1.6568 0
M  V30 5246 O 490.921 0.220749 -1.78641 0
M  V30 5247 H 487.296 -0.181711 -0.729716 0
M  V30 5248 H 489.267 -1.51893 -2.56848 0
M  V30 5249 C 488.016 0.00677342 -3.47699 0
M  V30 5250 H 487.339 -0.731692 -3.93047 0
M  V30 5251 H 488.779 0.262492 -4.23187 0
M  V30 5252 C 487.238 1.25572 -3.12623 0
M  V30 5253 O 487.768 2.34691 -3.26011 0
M  V30 5254 N 485.974 1.14755 -2.66982 0
M  V30 5255 H 485.521 0.259601 -2.56289 0
M  V30 5256 H 485.479 1.98412 -2.43885 0
M  V30 5257 N 489.251 1.34841 -0.815825 0
M  V30 5258 C 490.499 1.98107 -0.399744 0
M  V30 5259 C 490.82 1.65019 1.03894 0
M  V30 5260 O 490.09 0.937311 1.72021 0
M  V30 5261 H 488.67 0.732827 -0.144823 0
M  V30 5262 H 491.332 1.64599 -1.0437 0
M  V30 5263 H 490.428 3.07856 -0.512965 0
M  V30 5264 N 490.729 0.570148 1.46925 0
M  V30 5265 C 491.959 0.0561151 2.06524 0
M  V30 5266 C 492.367 -1.24874 1.42137 0
M  V30 5267 O 491.71 -1.76292 0.516417 0
M  V30 5268 C 491.772 -0.197035 3.5896 0
M  V30 5269 C 491.436 1.02033 4.45464 0
M  V30 5270 C 492.433 1.92921 4.82781 0
M  V30 5271 C 490.118 1.23864 4.86788 0
M  V30 5272 C 492.112 3.03999 5.60235 0
M  V30 5273 C 489.799 2.35249 5.64004 0
M  V30 5274 C 490.797 3.25146 6.0064 0
M  V30 5275 O 490.485 4.34598 6.76299 0
M  V30 5276 H 490.217 0.0487409 0.674241 0
M  V30 5277 H 492.771 0.786915 1.89728 0
M  V30 5278 H 491.001 -0.982299 3.74016 0
M  V30 5279 H 492.69 -0.658032 4.00531 0
M  V30 5280 H 493.456 1.77265 4.51444 0
M  V30 5281 H 489.335 0.54805 4.57731 0
M  V30 5282 H 492.879 3.74192 5.8875 0
M  V30 5283 H 488.776 2.50873 5.94755 0
M  V30 5284 H 489.544 4.32808 6.94708 0
M  V30 5285 N 492.207 -1.54576 0.307264 0
M  V30 5286 C 493.623 -1.59534 -0.0459251 0
M  V30 5287 C 493.823 -1.32414 -1.51884 0
M  V30 5288 O 492.879 -1.1006 -2.27251 0
M  V30 5289 C 494.192 -2.98566 0.357649 0
M  V30 5290 C 495.74 -3.11491 0.306937 0
M  V30 5291 C 496.215 -4.52842 0.685427 0
M  V30 5292 N 497.706 -4.58782 0.638203 0
M  V30 5293 C 498.441 -5.66238 0.903458 0
M  V30 5294 N 497.937 -6.81703 1.23501 0
M  V30 5295 N 499.73 -5.55937 0.830102 0
M  V30 5296 H 491.881 -1.70464 1.26712 0
M  V30 5297 H 494.144 -0.79647 0.514139 0
M  V30 5298 H 493.85 -3.23356 1.38325 0
M  V30 5299 H 493.724 -3.76117 -0.285565 0
M  V30 5300 H 496.111 -2.86446 -0.709424 0
M  V30 5301 H 496.192 -2.36081 0.984861 0
M  V30 5302 H 495.836 -4.78618 1.69963 0
M  V30 5303 H 495.766 -5.26598 -0.0146346 0
M  V30 5304 H 498.257 -3.75849 0.393138 0
M  V30 5305 H 498.57 -7.59582 1.42322 0
M  V30 5306 H 496.915 -6.8324 1.27311 0
M  V30 5307 H 500.106 -4.64608 0.570693 0
M  V30 5308 H 500.279 -6.39597 1.04019 0
M  V30 5309 N 493.685 -0.035106 -1.57561 0
M  V30 5310 C 494.934 0.641604 -1.91223 0
M  V30 5311 C 495.247 1.72944 -0.913761 0
M  V30 5312 O 496.453 2.46321 -1.14185 0
M  V30 5313 C 494.909 1.19249 -3.3957 0
M  V30 5314 C 494.517 0.137616 -4.47789 0
M  V30 5315 C 496.261 1.84537 -3.82291 0
M  V30 5316 C 494.168 0.700478 -5.87237 0
M  V30 5317 H 493.098 0.243417 -0.713627 0
M  V30 5318 H 495.749 -0.101382 -1.8322 0
M  V30 5319 H 494.131 1.98728 -3.42525 0
M  V30 5320 H 495.305 -0.635153 -4.56402 0
M  V30 5321 H 493.62 -0.416855 -4.14308 0
M  V30 5322 H 496.217 2.27616 -4.83834 0
M  V30 5323 H 496.56 2.69054 -3.17672 0
M  V30 5324 H 497.093 1.11739 -3.81784 0
M  V30 5325 H 493.832 -0.106693 -6.55413 0
M  V30 5326 H 493.352 1.4416 -5.82218 0
M  V30 5327 H 495.031 1.18837 -6.35993 0
M  V30 5328 N 495.163 1.55791 0.238111 0
M  V30 5329 C 496.393 1.81834 0.980809 0
M  V30 5330 C 496.801 0.609741 1.79106 0
M  V30 5331 O 496.144 -0.431073 1.78571 0
M  V30 5332 C 496.206 3.01363 1.96011 0
M  V30 5333 C 495.87 4.37037 1.33597 0
M  V30 5334 C 496.867 5.14692 0.734063 0
M  V30 5335 C 494.552 4.83743 1.3527 0
M  V30 5336 C 496.546 6.37206 0.157208 0
M  V30 5337 C 494.233 6.06204 0.77199 0
M  V30 5338 C 495.231 6.82775 0.175282 0
M  V30 5339 O 494.919 8.02922 -0.396432 0
M  V30 5340 H 494.651 0.6088 0.293834 0
M  V30 5341 H 497.205 2.03702 0.263552 0
M  V30 5342 H 495.435 2.75273 2.71591 0
M  V30 5343 H 497.124 3.14422 2.56697 0
M  V30 5344 H 497.89 4.79722 0.713582 0
M  V30 5345 H 493.769 4.24129 1.80653 0
M  V30 5346 H 497.313 6.96915 -0.30917 0
M  V30 5347 H 493.21 6.4065 0.789828 0
M  V30 5348 H 493.978 8.17989 -0.289145 0
M  V30 5349 N 496.642 -0.504142 1.49319 0
M  V30 5350 C 497.87 -1.28256 1.62351 0
M  V30 5351 C 498.285 -1.86502 0.293682 0
M  V30 5352 O 497.642 -1.67678 -0.720449 0
M  V30 5353 C 497.693 -2.41507 2.68992 0
M  V30 5354 O 497.414 -1.85656 3.96817 0
M  V30 5355 C 498.915 -3.32929 2.927 0
M  V30 5356 H 496.135 -0.389115 0.546654 0
M  V30 5357 H 498.679 -0.605531 1.95329 0
M  V30 5358 H 496.834 -3.05046 2.38801 0
M  V30 5359 H 497.248 -2.59981 4.55533 0
M  V30 5360 H 498.722 -4.0868 3.71058 0
M  V30 5361 H 499.199 -3.89733 2.02496 0
M  V30 5362 H 499.805 -2.75158 3.24296 0
M  V30 5363 N 498.12 -1.38341 -0.754957 0
M  V30 5364 C 499.03 -1.3769 -1.89944 0
M  V30 5365 C 500.046 -0.274194 -1.71826 0
M  V30 5366 O 501.222 -0.512391 -1.94773 0
M  V30 5367 C 498.287 -1.19938 -3.25293 0
M  V30 5368 C 497.348 -2.40001 -3.55946 0
M  V30 5369 C 496.581 -2.23087 -4.84838 0
M  V30 5370 O 496.804 -1.22386 -5.57116 0
M  V30 5371 O 495.738 -3.11646 -5.14937 0
M  V30 5372 H 499.564 -2.3412 -1.93446 0
M  V30 5373 H 497.149 -1.19246 -0.900044 0
M  V30 5374 H 499.031 -1.12093 -4.06218 0
M  V30 5375 H 497.706 -0.265919 -3.22606 0
M  V30 5376 H 496.613 -2.53421 -2.75188 0
M  V30 5377 H 497.946 -3.31973 -3.63394 0
M  V30 5378 N 499.598 0.982988 -1.23187 0
M  V30 5379 C 500.528 2.09301 -1.03515 0
M  V30 5380 C 501.509 1.70035 0.0471136 0
M  V30 5381 O 502.694 1.93847 -0.117029 0
M  V30 5382 C 499.824 3.4167 -0.622791 0
M  V30 5383 C 498.778 3.94828 -1.65211 0
M  V30 5384 C 498.104 5.23362 -1.09527 0
M  V30 5385 C 499.404 4.2439 -3.04451 0
M  V30 5386 H 501.098 2.26016 -1.96359 0
M  V30 5387 H 498.644 1.08611 -0.945501 0
M  V30 5388 H 500.597 4.18746 -0.472233 0
M  V30 5389 H 499.321 3.24811 0.341329 0
M  V30 5390 H 497.98 3.19895 -1.79061 0
M  V30 5391 H 497.628 5.02852 -0.122211 0
M  V30 5392 H 497.328 5.59895 -1.783 0
M  V30 5393 H 498.852 6.03062 -0.956511 0
M  V30 5394 H 500.266 4.92225 -2.93917 0
M  V30 5395 H 498.663 4.72118 -3.70438 0
M  V30 5396 H 499.733 3.31765 -3.53638 0
M  V30 5397 N 501.076 1.04316 1.18135 0
M  V30 5398 C 502.353 0.662166 1.84051 0
M  V30 5399 C 502.733 -0.858169 1.9287 0
M  V30 5400 O 502.081 -1.76062 1.45652 0
M  V30 5401 C 502.291 1.3409 3.22212 0
M  V30 5402 C 503.639 1.4733 3.9822 0
M  V30 5403 O 504.663 1.29921 3.31661 0
M  V30 5404 O 503.522 1.75722 5.17479 0
M  V30 5405 H 500.616 0.232005 0.79379 0
M  V30 5406 H 503.162 1.1422 1.25506 0
M  V30 5407 H 501.934 2.37853 3.10711 0
M  V30 5408 H 501.557 0.849649 3.88416 0
M  V30 5409 N 502.554 -1.34406 0.822964 0
M  V30 5410 C 503.486 -2.28305 0.202375 0
M  V30 5411 C 504.499 -1.5103 -0.60777 0
M  V30 5412 O 505.688 -1.73057 -0.437444 0
M  V30 5413 C 502.788 -3.30836 -0.734911 0
M  V30 5414 C 501.961 -4.37388 0.0324177 0
M  V30 5415 C 501.02 -5.1968 -0.825803 0
M  V30 5416 O 500.046 -5.68556 -0.270771 0
M  V30 5417 N 501.248 -5.39393 -2.14558 0
M  V30 5418 H 504.013 -2.82201 1.00909 0
M  V30 5419 H 501.574 -1.4693 0.67993 0
M  V30 5420 H 503.566 -3.82786 -1.31365 0
M  V30 5421 H 502.136 -2.77334 -1.44238 0
M  V30 5422 H 501.356 -3.86152 0.792469 0
M  V30 5423 H 502.644 -5.05702 0.560633 0
M  V30 5424 H 502.042 -5.01357 -2.62025 0
M  V30 5425 H 500.599 -5.94461 -2.67318 0
M  V30 5426 N 504.032 -0.577932 -1.46621 0
M  V30 5427 C 504.98 0.170882 -2.31971 0
M  V30 5428 C 505.974 0.889086 -1.44193 0
M  V30 5429 O 507.18 0.808017 -1.60845 0
M  V30 5430 H 503.555 0.0739763 -0.748353 0
M  V30 5431 H 505.526 -0.567856 -2.92947 0
M  V30 5432 C 504.275 1.17438 -3.27267 0
M  V30 5433 H 503.598 0.63116 -3.94787 0
M  V30 5434 H 505.038 1.66882 -3.89778 0
M  V30 5435 C 503.497 2.23292 -2.52274 0
M  V30 5436 O 504.027 3.30567 -2.28229 0
M  V30 5437 N 502.233 1.97772 -2.12919 0
M  V30 5438 H 501.78 1.10545 -2.32675 0
M  V30 5439 H 501.738 2.68809 -1.63062 0
M  V30 5440 N 505.51 1.54411 -0.315457 0
M  V30 5441 C 506.74 2.04536 0.291315 0
M  V30 5442 C 507.148 1.19162 1.4696 0
M  V30 5443 O 506.491 0.213199 1.82459 0
M  V30 5444 C 506.553 3.5056 0.796725 0
M  V30 5445 C 506.217 4.5627 -0.258178 0
M  V30 5446 C 507.214 5.08312 -1.09153 0
M  V30 5447 C 504.899 5.00672 -0.404036 0
M  V30 5448 C 506.893 6.03312 -2.05655 0
M  V30 5449 C 504.58 5.95488 -1.37248 0
M  V30 5450 C 505.578 6.46693 -2.19721 0
M  V30 5451 O 505.266 7.39648 -3.14921 0
M  V30 5452 H 504.998 0.672856 0.0651165 0
M  V30 5453 H 507.552 2.00244 -0.457308 0
M  V30 5454 H 505.782 3.52223 1.59612 0
M  V30 5455 H 507.471 3.83804 1.32096 0
M  V30 5456 H 508.237 4.74793 -0.98979 0
M  V30 5457 H 504.116 4.60436 0.22799 0
M  V30 5458 H 507.66 6.43203 -2.70067 0
M  V30 5459 H 503.557 6.28424 -1.47489 0
M  V30 5460 H 504.325 7.57496 -3.10067 0
M  V30 5461 N 506.988 0.0434614 1.5754 0
M  V30 5462 C 507.92 -0.962586 2.08007 0
M  V30 5463 C 508.933 -1.27972 1.00634 0
M  V30 5464 O 510.122 -1.24186 1.28219 0
M  V30 5465 C 507.222 -2.28621 2.50171 0
M  V30 5466 C 506.395 -2.15214 3.80791 0
M  V30 5467 C 505.454 -3.30633 4.09351 0
M  V30 5468 O 504.48 -3.0688 4.79388 0
M  V30 5469 N 505.682 -4.54873 3.60654 0
M  V30 5470 H 508.447 -0.531891 2.94942 0
M  V30 5471 H 506.008 -0.142965 1.61268 0
M  V30 5472 H 508 -3.04689 2.66359 0
M  V30 5473 H 506.57 -2.63283 1.68525 0
M  V30 5474 H 505.79 -1.23785 3.74261 0
M  V30 5475 H 507.078 -2.03475 4.66343 0
M  V30 5476 H 506.476 -4.77063 3.04019 0
M  V30 5477 H 505.033 -5.2806 3.82094 0
M  V30 5478 N 508.466 -1.55915 -0.229846 0
M  V30 5479 C 509.429 -1.90914 -1.26824 0
M  V30 5480 C 510.429 -0.786999 -1.40225 0
M  V30 5481 O 511.619 -1.05484 -1.38632 0
M  V30 5482 C 508.751 -2.15264 -2.64337 0
M  V30 5483 H 509.944 -2.8378 -0.969998 0
M  V30 5484 H 507.497 -1.49069 -0.4699 0
M  V30 5485 H 508.232 -1.24923 -2.99274 0
M  V30 5486 H 508.017 -2.97005 -2.55989 0
M  V30 5487 H 509.507 -2.43467 -3.39284 0
M  V30 5488 N 509.944 0.496216 -1.49584 0
M  V30 5489 C 510.892 1.61805 -1.67098 0
M  V30 5490 C 511.886 1.60667 -0.536877 0
M  V30 5491 O 513.092 1.65118 -0.716654 0
M  V30 5492 H 509.467 0.53646 -0.526986 0
M  V30 5493 H 511.438 1.44187 -2.61252 0
M  V30 5494 C 510.187 2.99912 -1.75921 0
M  V30 5495 H 509.51 3.01496 -2.62565 0
M  V30 5496 H 510.95 3.77931 -1.92209 0
M  V30 5497 C 509.409 3.33092 -0.505088 0
M  V30 5498 O 509.939 4.00019 0.367085 0
M  V30 5499 N 508.145 2.88278 -0.366599 0
M  V30 5500 H 507.692 2.33989 -1.07735 0
M  V30 5501 H 507.65 3.10846 0.47142 0
M  V30 5502 N 511.423 1.38739 0.74761 0
M  V30 5503 C 512.356 1.3083 1.86972 0
M  V30 5504 C 513.334 0.184229 1.61553 0
M  V30 5505 O 514.518 0.36256 1.8498 0
M  V30 5506 C 511.645 1.02854 3.22705 0
M  V30 5507 C 510.691 2.17281 3.67003 0
M  V30 5508 S 511.524 3.79468 3.77842 0
M  V30 5509 C 512.68 3.53692 5.16385 0
M  V30 5510 H 512.913 2.258 1.93395 0
M  V30 5511 H 510.446 1.24646 0.911199 0
M  V30 5512 H 512.404 0.87397 4.01089 0
M  V30 5513 H 511.065 0.0959295 3.13953 0
M  V30 5514 H 510.258 1.93267 4.65472 0
M  V30 5515 H 509.86 2.28876 2.9579 0
M  V30 5516 H 512.152 3.10176 6.02327 0
M  V30 5517 H 513.095 4.51576 5.45422 0
M  V30 5518 H 513.503 2.8807 4.85464 0
M  V30 5519 N 512.901 -0.976442 1.23707 0
M  V30 5520 C 513.833 -2.07212 0.979574 0
M  V30 5521 C 514.846 -1.6273 -0.0478528 0
M  V30 5522 O 516.035 -1.77506 0.18815 0
M  V30 5523 C 513.135 -3.35835 0.45479 0
M  V30 5524 C 512.308 -4.09268 1.54331 0
M  V30 5525 C 511.367 -5.16166 1.02271 0
M  V30 5526 O 510.393 -5.42827 1.71254 0
M  V30 5527 N 511.595 -5.80313 -0.147419 0
M  V30 5528 H 514.36 -2.29878 1.92292 0
M  V30 5529 H 511.921 -1.14343 1.14618 0
M  V30 5530 H 513.913 -4.04597 0.0914631 0
M  V30 5531 H 512.483 -3.10106 -0.394068 0
M  V30 5532 H 511.703 -3.34906 2.07923 0
M  V30 5533 H 512.991 -4.55095 2.27522 0
M  V30 5534 H 512.389 -5.61043 -0.724353 0
M  V30 5535 H 510.946 -6.50231 -0.451972 0
M  V30 5536 N 514.379 -1.04941 -1.1758 0
M  V30 5537 C 515.628 -0.753124 -1.87112 0
M  V30 5538 C 515.941 0.722507 -1.81767 0
M  V30 5539 O 517.147 1.13265 -2.46746 0
M  V30 5540 C 515.603 -1.29695 -3.35719 0
M  V30 5541 C 515.211 -2.80184 -3.49572 0
M  V30 5542 C 516.955 -1.07759 -4.10595 0
M  V30 5543 C 514.862 -3.2788 -4.92187 0
M  V30 5544 H 513.792 -0.278034 -0.700866 0
M  V30 5545 H 516.443 -1.26637 -1.32798 0
M  V30 5546 H 514.825 -0.711522 -3.89555 0
M  V30 5547 H 515.999 -3.44561 -3.05965 0
M  V30 5548 H 514.314 -3.00632 -2.88113 0
M  V30 5549 H 516.911 -1.40899 -5.15802 0
M  V30 5550 H 517.254 -0.0152302 -4.16297 0
M  V30 5551 H 517.787 -1.62809 -3.62957 0
M  V30 5552 H 514.526 -4.33535 -4.91658 0
M  V30 5553 H 514.046 -2.68245 -5.36475 0
M  V30 5554 H 515.725 -3.22412 -5.60945 0
M  V30 5555 N 515.857 1.33968 -0.830081 0
M  V30 5556 C 517.103 1.98357 -0.422191 0
M  V30 5557 C 517.436 1.65633 1.01387 0
M  V30 5558 O 516.711 0.931648 1.70735 0
M  V30 5559 C 516.994 3.54492 -0.633043 0
M  V30 5560 C 516.847 3.96934 -2.11574 0
M  V30 5561 C 518.166 4.40039 -0.0735584 0
M  V30 5562 H 515.285 0.720544 -0.154871 0
M  V30 5563 H 517.927 1.58749 -1.04397 0
M  V30 5564 H 516.077 3.88361 -0.103775 0
M  V30 5565 H 517.749 3.73363 -2.7092 0
M  V30 5566 H 515.992 3.46984 -2.60354 0
M  V30 5567 H 516.663 5.05651 -2.21406 0
M  V30 5568 H 519.139 4.12764 -0.52585 0
M  V30 5569 H 518.015 5.48327 -0.250841 0
M  V30 5570 H 518.276 4.30124 1.02202 0
M  V30 5571 N 517.335 0.585699 1.46312 0
M  V30 5572 C 518.565 0.0780166 2.06453 0
M  V30 5573 C 518.973 -1.2336 1.43454 0
M  V30 5574 O 518.316 -1.75734 0.535086 0
M  V30 5575 C 518.378 -0.158951 3.59148 0
M  V30 5576 C 518.042 1.06752 4.44357 0
M  V30 5577 C 519.039 1.98031 4.80708 0
M  V30 5578 C 516.724 1.2902 4.85447 0
M  V30 5579 C 518.718 3.09924 5.5698 0
M  V30 5580 C 516.405 2.41218 5.61478 0
M  V30 5581 C 517.403 3.31499 5.97158 0
M  V30 5582 O 517.091 4.41747 6.71651 0
M  V30 5583 H 516.823 0.0558894 0.673686 0
M  V30 5584 H 519.377 0.806994 1.88883 0
M  V30 5585 H 517.607 -0.942575 3.75037 0
M  V30 5586 H 519.296 -0.615513 4.01206 0
M  V30 5587 H 520.062 1.82043 4.49539 0
M  V30 5588 H 515.941 0.596567 4.57124 0
M  V30 5589 H 519.485 3.80415 5.84748 0
M  V30 5590 H 515.382 2.57167 5.9206 0
M  V30 5591 H 516.15 4.40152 6.90079 0
M  V30 5592 N 518.813 -1.54241 0.323641 0
M  V30 5593 C 519.723 -2.28033 -0.551205 0
M  V30 5594 C 520.739 -1.32388 -1.12913 0
M  V30 5595 O 521.915 -1.65403 -1.14908 0
M  V30 5596 C 518.98 -3.02382 -1.69606 0
M  V30 5597 C 518.041 -4.13612 -1.14993 0
M  V30 5598 C 517.274 -4.84407 -2.24022 0
M  V30 5599 O 517.497 -4.54716 -3.44368 0
M  V30 5600 O 516.431 -5.71312 -1.89436 0
M  V30 5601 H 520.257 -3.03662 0.048066 0
M  V30 5602 H 517.842 -1.49133 0.0893289 0
M  V30 5603 H 519.724 -3.48941 -2.36259 0
M  V30 5604 H 518.399 -2.29628 -2.28151 0
M  V30 5605 H 517.306 -3.71402 -0.448484 0
M  V30 5606 H 518.639 -4.8841 -0.609608 0
M  V30 5607 N 520.291 -0.0518155 -1.57515 0
M  V30 5608 C 521.239 0.940195 -2.12751 0
M  V30 5609 C 522.233 1.3218 -1.05948 0
M  V30 5610 O 523.439 1.30138 -1.24355 0
M  V30 5611 H 519.814 0.321066 -0.680015 0
M  V30 5612 H 521.785 0.449217 -2.94999 0
M  V30 5613 C 520.534 2.2055 -2.68799 0
M  V30 5614 H 519.857 1.92066 -3.50643 0
M  V30 5615 H 521.297 2.88119 -3.11068 0
M  V30 5616 C 519.756 2.95061 -1.62605 0
M  V30 5617 O 520.286 3.88025 -1.03921 0
M  V30 5618 N 518.492 2.57804 -1.34111 0
M  V30 5619 H 518.039 1.82281 -1.8202 0
M  V30 5620 H 517.997 3.07964 -0.632872 0
M  V30 5621 N 521.769 1.56035 0.221574 0
M  V30 5622 C 522.997 1.8313 0.962864 0
M  V30 5623 C 523.412 0.630934 1.77946 0
M  V30 5624 O 522.769 -0.400519 1.78051 0
M  V30 5625 C 522.82 3.08742 1.88045 0
M  V30 5626 O 522.541 4.24147 1.09686 0
M  V30 5627 C 524.042 3.48824 2.73563 0
M  V30 5628 H 521.262 0.608775 0.282194 0
M  V30 5629 H 523.806 2.03124 0.23681 0
M  V30 5630 H 521.961 2.90723 2.56045 0
M  V30 5631 H 522.375 4.95505 1.71974 0
M  V30 5632 H 523.849 4.39752 3.3365 0
M  V30 5633 H 524.326 2.70575 3.45956 0
M  V30 5634 H 524.932 3.69282 2.10976 0
M  V30 5635 N 523.247 -0.488276 1.49845 0
M  V30 5636 C 524.472 -1.26997 1.63971 0
M  V30 5637 C 524.897 -1.85427 0.315994 0
M  V30 5638 O 524.255 -1.66475 -0.718032 0
M  V30 5639 C 524.303 -2.36689 2.72049 0
M  V30 5640 O 523.407 -3.40882 2.32107 0
M  V30 5641 H 522.748 -0.374376 0.548396 0
M  V30 5642 H 525.278 -0.583104 1.96115 0
M  V30 5643 H 525.288 -2.82262 2.94605 0
M  V30 5644 H 523.963 -1.93529 3.68129 0
M  V30 5645 H 522.54 -3.01139 2.19931 0
M  V30 5646 N 524.725 -1.39134 -0.740242 0
M  V30 5647 C 525.655 -1.40165 -1.86751 0
M  V30 5648 C 526.636 -0.265708 -1.68012 0
M  V30 5649 O 527.821 -0.47076 -1.88408 0
M  V30 5650 C 524.951 -1.2392 -3.2444 0
M  V30 5651 C 523.905 -2.34858 -3.57807 0
M  V30 5652 C 523.231 -2.03707 -4.94376 0
M  V30 5653 C 524.531 -3.77159 -3.61315 0
M  V30 5654 H 526.225 -2.345 -1.86145 0
M  V30 5655 H 523.771 -1.12875 -0.89416 0
M  V30 5656 H 525.724 -1.23263 -4.02969 0
M  V30 5657 H 524.448 -0.26051 -3.25559 0
M  V30 5658 H 523.107 -2.34723 -2.81604 0
M  V30 5659 H 522.755 -1.04289 -4.9207 0
M  V30 5660 H 522.455 -2.78016 -5.17669 0
M  V30 5661 H 523.979 -2.04691 -5.75268 0
M  V30 5662 H 525.393 -3.79252 -4.29931 0
M  V30 5663 H 523.79 -4.50784 -3.96124 0
M  V30 5664 H 524.86 -4.08513 -2.61238 0
M  V30 5665 N 526.204 0.969867 -1.24223 0
M  V30 5666 C 527.451 1.71256 -1.08063 0
M  V30 5667 C 527.779 1.90734 0.380872 0
M  V30 5668 O 527.034 1.46469 1.29789 0
M  V30 5669 C 527.333 3.10883 -1.76314 0
M  V30 5670 C 526.999 3.11252 -3.26241 0
M  V30 5671 C 525.661 3.1106 -3.67144 0
M  V30 5672 C 528.013 3.05751 -4.22097 0
M  V30 5673 C 525.341 3.03097 -5.02344 0
M  V30 5674 C 527.693 2.9933 -5.57301 0
M  V30 5675 C 526.357 2.97466 -5.97554 0
M  V30 5676 H 525.627 0.62667 -0.395431 0
M  V30 5677 H 528.274 1.13422 -1.54297 0
M  V30 5678 H 526.579 3.72168 -1.22468 0
M  V30 5679 H 528.276 3.67138 -1.61277 0
M  V30 5680 H 524.866 3.12165 -2.93685 0
M  V30 5681 H 529.05 3.05031 -3.91497 0
M  V30 5682 H 524.306 3.00013 -5.32731 0
M  V30 5683 H 528.48 2.94033 -6.31283 0
M  V30 5684 H 526.107 2.91051 -7.02277 0
M  V30 5685 N 527.682 1.05563 1.17022 0
M  V30 5686 C 529.093 0.793475 1.69 0
M  V30 5687 C 529.444 -0.683882 1.83895 0
M  V30 5688 O 528.569 -1.53116 1.5292 0
M  V30 5689 C 529.164 1.43376 3.06967 0
M  V30 5690 C 527.723 1.21956 3.56095 0
M  V30 5691 C 526.87 1.51494 2.3226 0
M  V30 5692 H 529.821 1.22008 1.01487 0
M  V30 5693 H 529.842 0.845068 3.70997 0
M  V30 5694 H 529.354 2.50899 2.96093 0
M  V30 5695 H 527.455 0.163749 3.7224 0
M  V30 5696 H 527.568 1.92713 4.38633 0
M  V30 5697 H 525.932 0.935175 2.3691 0
M  V30 5698 H 526.715 2.60159 2.23992 0
M  V30 5699 N 529.16 -1.33526 0.837174 0
M  V30 5700 C 530.576 -1.50727 0.524743 0
M  V30 5701 C 530.776 -1.77792 -0.948279 0
M  V30 5702 O 529.832 -1.83719 -1.73216 0
M  V30 5703 C 531.145 -2.66299 1.39661 0
M  V30 5704 C 532.693 -2.80183 1.39521 0
M  V30 5705 C 533.168 -3.98815 2.25189 0
M  V30 5706 N 534.659 -4.06047 2.2289 0
M  V30 5707 C 535.394 -4.97032 2.85915 0
M  V30 5708 N 534.89 -5.93143 3.57985 0
M  V30 5709 N 536.683 -4.90015 2.75394 0
M  V30 5710 H 528.834 -1.1422 1.79074 0
M  V30 5711 H 531.097 -0.561399 0.763894 0
M  V30 5712 H 530.803 -2.52974 2.4433 0
M  V30 5713 H 530.677 -3.61663 1.07145 0
M  V30 5714 H 533.064 -2.92942 0.356253 0
M  V30 5715 H 533.145 -1.85586 1.76044 0
M  V30 5716 H 532.789 -3.86817 3.29143 0
M  V30 5717 H 532.719 -4.92654 1.86009 0
M  V30 5718 H 535.21 -3.37262 1.70478 0
M  V30 5719 H 535.523 -6.59227 4.03286 0
M  V30 5720 H 533.868 -5.93223 3.62093 0
M  V30 5721 H 537.059 -4.13894 2.18654 0
M  V30 5722 H 537.232 -5.60724 3.24796 0
M  V30 5723 N 530.638 -0.59345 -1.46 0
M  V30 5724 C 531.601 0.123538 -2.28867 0
M  V30 5725 C 532.601 0.808628 -1.38989 0
M  V30 5726 O 533.791 0.658945 -1.61256 0
M  V30 5727 C 530.923 1.1847 -3.19653 0
M  V30 5728 H 532.116 -0.604843 -2.93737 0
M  V30 5729 H 529.669 -0.351875 -1.52288 0
M  V30 5730 H 530.404 1.94431 -2.59552 0
M  V30 5731 H 530.189 0.69783 -3.8584 0
M  V30 5732 H 531.679 1.68726 -3.81997 0
M  V30 5733 N 532.116 1.54067 -0.331816 0
M  V30 5734 C 533.026 2.28322 0.539104 0
M  V30 5735 C 534.042 1.32985 1.1221 0
M  V30 5736 O 535.218 1.6601 1.1403 0
M  V30 5737 C 532.283 3.03277 1.68 0
M  V30 5738 C 531.344 4.14216 1.12798 0
M  V30 5739 C 530.577 4.85588 2.2145 0
M  V30 5740 O 530.8 4.56536 3.41952 0
M  V30 5741 O 529.734 5.72309 1.86404 0
M  V30 5742 H 533.56 3.03632 -0.0641692 0
M  V30 5743 H 531.145 1.49083 -0.0972365 0
M  V30 5744 H 533.027 3.50189 2.34405 0
M  V30 5745 H 531.702 2.30834 2.2693 0
M  V30 5746 H 530.609 3.71635 0.428782 0
M  V30 5747 H 531.942 4.88727 0.583698 0
M  V30 5748 N 533.594 0.0601682 1.57485 0
M  V30 5749 C 534.871 -0.651956 1.84415 0
M  V30 5750 C 535.251 -1.88498 0.950361 0
M  V30 5751 O 534.599 -2.28496 0.0136719 0
M  V30 5752 C 534.809 -1.00069 3.34346 0
M  V30 5753 C 536.157 -1.37915 4.01578 0
M  V30 5754 O 537.181 -1.09277 3.39024 0
M  V30 5755 O 536.04 -1.91399 5.11887 0
M  V30 5756 H 533.134 -0.322668 0.761455 0
M  V30 5757 H 535.68 0.0902159 1.6946 0
M  V30 5758 H 534.452 -0.124463 3.91102 0
M  V30 5759 H 534.075 -1.80001 3.54521 0
M  V30 5760 N 535.072 -1.5615 -0.213296 0
M  V30 5761 C 536.32 -1.79191 -0.934612 0
M  V30 5762 C 536.641 -0.630112 -1.84539 0
M  V30 5763 O 535.911 0.35257 -1.92701 0
M  V30 5764 H 534.491 -0.660937 -0.348097 0
M  V30 5765 H 537.153 -1.93618 -0.22317 0
M  V30 5766 H 536.249 -2.71656 -1.53654 0
M  V30 5767 N 536.55 0.480323 -1.50102 0
M  V30 5768 C 537.778 1.25657 -1.64371 0
M  V30 5769 C 538.193 1.86011 -0.323316 0
M  V30 5770 O 537.55 1.68803 0.693682 0
M  V30 5771 C 537.601 2.37197 -2.728 0
M  V30 5772 O 537.322 1.7932 -3.9972 0
M  V30 5773 C 538.823 3.2823 -2.9796 0
M  V30 5774 H 536.043 0.380369 -0.552775 0
M  V30 5775 H 538.587 0.574379 -1.96268 0
M  V30 5776 H 536.742 3.01208 -2.43623 0
M  V30 5777 H 537.156 2.52701 -4.59611 0
M  V30 5778 H 538.63 4.02725 -3.77513 0
M  V30 5779 H 539.107 3.86462 -2.08671 0
M  V30 5780 H 539.713 2.69964 -3.28633 0
M  V30 5781 N 538.028 1.39524 0.732853 0
M  V30 5782 C 539.275 1.36865 1.49246 0
M  V30 5783 C 539.603 -0.0347118 1.94469 0
M  V30 5784 O 538.858 -1.01596 1.67262 0
M  V30 5785 C 539.157 2.28916 2.74468 0
M  V30 5786 C 538.823 3.76506 2.481 0
M  V30 5787 C 537.485 4.16721 2.40619 0
M  V30 5788 C 539.837 4.69846 2.25598 0
M  V30 5789 C 537.165 5.48334 2.08679 0
M  V30 5790 C 539.517 6.01739 1.95174 0
M  V30 5791 C 538.181 6.41015 1.86163 0
M  V30 5792 H 537.451 0.500824 0.546129 0
M  V30 5793 H 540.098 1.72047 0.840958 0
M  V30 5794 H 538.403 1.86859 3.4437 0
M  V30 5795 H 540.1 2.2415 3.32502 0
M  V30 5796 H 536.69 3.44635 2.54803 0
M  V30 5797 H 540.874 4.39608 2.30344 0
M  V30 5798 H 536.13 5.77685 2.00226 0
M  V30 5799 H 540.304 6.73591 1.76771 0
M  V30 5800 H 537.931 7.42917 1.61179 0
M  V30 5801 N 539.506 -0.963266 1.24736 0
M  V30 5802 C 540.469 -2.04013 1.04457 0
M  V30 5803 C 541.469 -1.608 0.000335555 0
M  V30 5804 O 542.659 -1.72515 0.241719 0
M  V30 5805 C 539.791 -3.35858 0.584162 0
M  V30 5806 H 540.984 -2.23436 2.00041 0
M  V30 5807 H 538.537 -1.13914 1.07021 0
M  V30 5808 H 539.272 -3.22128 -0.374673 0
M  V30 5809 H 539.057 -3.68568 1.3379 0
M  V30 5810 H 540.547 -4.1502 0.463451 0
M  V30 5811 N 540.985 -1.06182 -1.16461 0
M  V30 5812 C 541.917 -0.629584 -2.20383 0
M  V30 5813 C 542.93 0.311834 -1.59786 0
M  V30 5814 O 544.119 0.103 -1.78203 0
M  V30 5815 C 541.219 0.0973695 -3.3876 0
M  V30 5816 C 540.392 -0.857252 -4.28917 0
M  V30 5817 C 539.451 -0.169749 -5.25926 0
M  V30 5818 O 538.477 -0.807044 -5.6345 0
M  V30 5819 N 539.679 1.08911 -5.70192 0
M  V30 5820 H 542.444 -1.52352 -2.58087 0
M  V30 5821 H 540.005 -0.944993 -1.31459 0
M  V30 5822 H 541.997 0.567676 -4.00699 0
M  V30 5823 H 540.567 0.893093 -2.99571 0
M  V30 5824 H 539.787 -1.50696 -3.64259 0
M  V30 5825 H 541.075 -1.50489 -4.86035 0
M  V30 5826 H 540.473 1.62703 -5.41797 0
M  V30 5827 H 539.03 1.50331 -6.34227 0
M  V30 5828 N 542.463 1.3308 -0.844243 0
M  V30 5829 C 543.688 2.02341 -0.455282 0
M  V30 5830 C 544.113 1.6308 0.93737 0
M  V30 5831 O 543.471 0.826118 1.61385 0
M  V30 5832 C 543.519 3.55743 -0.58988 0
M  V30 5833 O 542.623 4.1063 0.38166 0
M  V30 5834 H 541.964 0.637898 -0.184343 0
M  V30 5835 H 544.494 1.6986 -1.14056 0
M  V30 5836 H 544.504 4.05243 -0.473522 0
M  V30 5837 H 543.179 3.83662 -1.60549 0
M  V30 5838 H 541.756 3.72236 0.22241 0
M  V30 5839 N 543.941 0.601185 1.45683 0
M  V30 5840 C 545.189 0.0936957 2.01883 0
M  V30 5841 C 545.51 -1.2779 1.47291 0
M  V30 5842 O 544.78 -1.84279 0.664691 0
M  V30 5843 H 543.36 0.0316466 0.746329 0
M  V30 5844 H 546.022 0.781137 1.78562 0
M  V30 5845 H 545.118 0.0386297 3.12076 0
M  V30 5846 N 545.419 -1.53889 0.339982 0
M  V30 5847 C 546.644 -2.05741 -0.261798 0
M  V30 5848 C 547.069 -1.21354 -1.43718 0
M  V30 5849 O 546.427 -0.22645 -1.7988 0
M  V30 5850 C 546.475 -3.54542 -0.658228 0
M  V30 5851 O 545.579 -3.7302 -1.75869 0
M  V30 5852 H 544.92 -0.662529 -0.0441672 0
M  V30 5853 H 547.45 -1.98568 0.493161 0
M  V30 5854 H 547.46 -3.9711 -0.936368 0
M  V30 5855 H 546.135 -4.15412 0.201358 0
M  V30 5856 H 544.712 -3.42355 -1.47809 0
M  V30 5857 N 546.897 -0.0685191 -1.57451 0
M  V30 5858 C 548.143 0.602239 -1.93652 0
M  V30 5859 C 548.476 1.6946 -0.948526 0
M  V30 5860 O 547.751 1.94487 0.022782 0
M  V30 5861 C 548.034 1.18223 -3.4014 0
M  V30 5862 C 547.887 0.0967431 -4.49696 0
M  V30 5863 C 549.206 2.08872 -3.87377 0
M  V30 5864 H 546.325 0.217453 -0.70419 0
M  V30 5865 H 548.967 -0.133821 -1.89528 0
M  V30 5866 H 547.117 1.80953 -3.43785 0
M  V30 5867 H 548.789 -0.536155 -4.58174 0
M  V30 5868 H 547.032 -0.573063 -4.29998 0
M  V30 5869 H 547.703 0.542894 -5.49324 0
M  V30 5870 H 550.179 1.56081 -3.85717 0
M  V30 5871 H 549.055 2.46389 -4.90493 0
M  V30 5872 H 549.316 2.99572 -3.25129 0
M  V30 5873 N 548.375 1.56261 0.205012 0
M  V30 5874 C 549.338 1.92908 1.23771 0
M  V30 5875 C 550.338 0.809208 1.38955 0
M  V30 5876 O 551.528 1.07676 1.36936 0
M  V30 5877 C 548.66 2.19442 2.60879 0
M  V30 5878 H 549.853 2.85287 0.924728 0
M  V30 5879 H 547.406 1.49798 0.446125 0
M  V30 5880 H 548.141 1.29668 2.97248 0
M  V30 5881 H 547.926 3.0104 2.51232 0
M  V30 5882 H 549.416 2.48833 3.35368 0
M  V30 5883 N 549.853 -0.472356 1.50355 0
M  V30 5884 C 550.783 -1.57859 1.72055 0
M  V30 5885 C 551.764 -1.60283 0.569505 0
M  V30 5886 O 552.949 -1.7657 0.808503 0
M  V30 5887 C 550.079 -2.96191 1.81351 0
M  V30 5888 C 549.033 -3.08633 2.96529 0
M  V30 5889 C 548.359 -4.486 2.90968 0
M  V30 5890 C 549.659 -2.85969 4.37057 0
M  V30 5891 H 551.353 -1.39953 2.64676 0
M  V30 5892 H 548.899 -0.671846 1.27367 0
M  V30 5893 H 550.852 -3.73507 1.95117 0
M  V30 5894 H 549.576 -3.15251 0.853502 0
M  V30 5895 H 548.235 -2.33749 2.82413 0
M  V30 5896 H 547.883 -4.64577 1.92815 0
M  V30 5897 H 547.583 -4.57861 3.68289 0
M  V30 5898 H 549.107 -5.27938 3.0678 0
M  V30 5899 H 550.521 -3.53036 4.51706 0
M  V30 5900 H 548.918 -3.06677 5.15819 0
M  V30 5901 H 549.988 -1.81838 4.49514 0
M  V30 5902 N 551.331 -1.39911 -0.725443 0
M  V30 5903 C 552.241 -1.41688 -1.8698 0
M  V30 5904 C 553.257 -0.310579 -1.71206 0
M  V30 5905 O 554.433 -0.55359 -1.93642 0
M  V30 5906 C 551.498 -1.26811 -3.22676 0
M  V30 5907 C 550.559 -2.47497 -3.50776 0
M  V30 5908 C 549.792 -2.3332 -4.79997 0
M  V30 5909 O 550.015 -1.34175 -5.54394 0
M  V30 5910 O 548.949 -3.22498 -5.08211 0
M  V30 5911 H 552.775 -2.38171 -1.88436 0
M  V30 5912 H 550.36 -1.21128 -0.874548 0
M  V30 5913 H 552.242 -1.20684 -4.03749 0
M  V30 5914 H 550.917 -0.334289 -3.21969 0
M  V30 5915 H 549.824 -2.59201 -2.69751 0
M  V30 5916 H 551.157 -3.39606 -3.5627 0
M  V30 5917 N 552.809 0.956637 -1.25245 0
M  V30 5918 C 554.22 1.51569 -1.09012 0
M  V30 5919 C 554.571 1.93322 0.334813 0
M  V30 5920 O 553.696 1.78421 1.22454 0
M  V30 5921 C 554.291 2.75444 -1.97271 0
M  V30 5922 C 552.85 3.27669 -1.8523 0
M  V30 5923 C 551.997 2.00517 -1.91542 0
M  V30 5924 H 554.948 0.773746 -1.3856 0
M  V30 5925 H 554.969 3.4919 -1.51151 0
M  V30 5926 H 554.481 2.45024 -3.00973 0
M  V30 5927 H 552.582 3.62914 -0.844045 0
M  V30 5928 H 552.695 3.9582 -2.69932 0
M  V30 5929 H 551.059 2.15727 -1.35404 0
M  V30 5930 H 551.842 1.72448 -2.96844 0
M  V30 5931 N 554.287 1.06798 1.15896 0
M  V30 5932 C 555.234 0.683314 2.20453 0
M  V30 5933 C 556.204 -0.32255 1.62938 0
M  V30 5934 O 557.389 -0.210276 1.89638 0
M  V30 5935 C 554.529 0.0813266 3.45004 0
M  V30 5936 C 553.642 1.13799 4.16742 0
M  V30 5937 C 552.777 0.501598 5.28826 0
M  V30 5938 C 551.816 1.54144 5.92373 0
M  V30 5939 N 550.953 0.928038 6.9594 0
M  V30 5940 H 555.793 1.57932 2.52708 0
M  V30 5941 H 553.33 0.789544 1.24115 0
M  V30 5942 H 555.288 -0.285274 4.16224 0
M  V30 5943 H 553.918 -0.77806 3.13283 0
M  V30 5944 H 552.97 1.62223 3.44075 0
M  V30 5945 H 554.282 1.92664 4.60089 0
M  V30 5946 H 553.436 0.0823162 6.06644 0
M  V30 5947 H 552.175 -0.318883 4.86656 0
M  V30 5948 H 551.18 1.97056 5.13273 0
M  V30 5949 H 552.405 2.3641 6.36621 0
M  V30 5950 H 550.351 0.12836 6.55874 0
M  V30 5951 H 550.268 1.65401 7.37685 0
M  V30 5952 H 551.536 0.534071 7.77668 0
M  V30 5953 N 555.766 -1.3263 0.851289 0
M  V30 5954 C 556.994 -2.01563 0.466899 0
M  V30 5955 C 557.409 -1.63996 -0.935447 0
M  V30 5956 O 556.766 -0.85957 -1.6099 0
M  V30 5957 C 556.817 -3.56613 0.592433 0
M  V30 5958 O 556.538 -3.92828 1.93954 0
M  V30 5959 C 558.039 -4.42818 0.206612 0
M  V30 5960 H 555.259 -0.645307 0.183902 0
M  V30 5961 H 557.803 -1.69285 1.1473 0
M  V30 5962 H 555.958 -3.87379 -0.0401936 0
M  V30 5963 H 556.372 -4.87545 1.9339 0
M  V30 5964 H 557.846 -5.50918 0.345462 0
M  V30 5965 H 558.323 -4.30844 -0.85264 0
M  V30 5966 H 558.929 -4.17434 0.814176 0
M  V30 5967 N 557.244 -0.608902 -1.45362 0
M  V30 5968 C 558.492 -0.104401 -2.0183 0
M  V30 5969 C 558.813 1.27007 -1.47967 0
M  V30 5970 O 558.083 1.83924 -0.674455 0
M  V30 5971 H 556.663 -0.0356042 -0.746151 0
M  V30 5972 H 559.325 -0.790596 -1.78145 0
M  V30 5973 H 558.421 -0.0551793 -3.12051 0
M  V30 5974 N 558.722 1.53707 -0.348139 0
M  V30 5975 C 559.97 2.00591 0.246478 0
M  V30 5976 C 560.291 1.23753 1.50699 0
M  V30 5977 O 559.561 0.345964 1.92821 0
M  V30 5978 H 558.141 0.741053 0.0940679 0
M  V30 5979 H 560.803 1.89139 -0.470354 0
M  V30 5980 H 559.899 3.08297 0.485714 0
M  V30 5981 N 560.2 0.0768682 1.57412 0
M  V30 5982 C 561.446 -0.591961 1.93968 0
M  V30 5983 C 561.779 -1.68954 0.9575 0
M  V30 5984 O 561.054 -1.94496 -0.0124675 0
M  V30 5985 C 561.337 -1.16418 3.40762 0
M  V30 5986 C 561.19 -0.0728933 4.49741 0
M  V30 5987 C 562.509 -2.06814 3.88479 0
M  V30 5988 H 559.628 -0.213716 0.705333 0
M  V30 5989 H 562.27 0.14387 1.89455 0
M  V30 5990 H 560.42 -1.79128 3.4474 0
M  V30 5991 H 562.092 0.560446 4.57883 0
M  V30 5992 H 560.335 0.595859 4.29688 0
M  V30 5993 H 561.006 -0.513755 5.49604 0
M  V30 5994 H 563.482 -1.54033 3.8654 0
M  V30 5995 H 562.358 -2.43785 4.91793 0
M  V30 5996 H 562.619 -2.97844 3.26713 0
M  V30 5997 N 561.678 -1.56367 -0.196722 0
M  V30 5998 C 563.094 -1.49916 -0.54749 0
M  V30 5999 C 563.294 -0.77659 -1.85934 0
M  V30 6000 O 562.35 -0.32644 -2.50381 0
M  V30 6001 C 563.663 -2.94577 -0.603734 0
M  V30 6002 C 565.211 -3.05239 -0.692677 0
M  V30 6003 C 565.686 -4.51308 -0.780046 0
M  V30 6004 N 567.177 -4.55453 -0.843616 0
M  V30 6005 C 567.912 -5.65786 -0.931358 0
M  V30 6006 N 567.408 -6.85812 -0.981503 0
M  V30 6007 N 569.201 -5.53695 -0.968421 0
M  V30 6008 H 561.352 -2.01761 0.663803 0
M  V30 6009 H 563.615 -0.918094 0.236238 0
M  V30 6010 H 563.321 -3.50494 0.29105 0
M  V30 6011 H 563.195 -3.47841 -1.45898 0
M  V30 6012 H 565.582 -2.49372 -1.57789 0
M  V30 6013 H 565.663 -2.55103 0.188736 0
M  V30 6014 H 565.307 -5.078 0.100811 0
M  V30 6015 H 565.237 -4.99176 -1.67724 0
M  V30 6016 H 567.728 -3.69025 -0.814176 0
M  V30 6017 H 568.041 -7.65648 -1.04892 0
M  V30 6018 H 566.386 -6.88474 -0.950208 0
M  V30 6019 H 569.577 -4.58848 -0.926072 0
M  V30 6020 H 569.75 -6.39708 -1.03334 0
M  V30 6021 N 563.156 0.464375 -1.50603 0
M  V30 6022 C 564.404 1.21356 -1.61608 0
M  V30 6023 C 564.725 1.92329 -0.321643 0
M  V30 6024 O 563.995 1.84403 0.661232 0
M  V30 6025 H 562.575 0.45094 -0.595535 0
M  V30 6026 H 565.237 0.535046 -1.87412 0
M  V30 6027 H 564.333 1.95783 -2.43054 0
M  V30 6028 N 564.634 1.40294 0.718013 0
M  V30 6029 C 565.88 1.38645 1.48005 0
M  V30 6030 C 566.213 -0.0121202 1.94196 0
M  V30 6031 O 565.488 -0.980309 1.67989 0
M  V30 6032 C 565.771 2.37379 2.70782 0
M  V30 6033 C 565.624 3.8625 2.30501 0
M  V30 6034 C 566.943 2.33685 3.72933 0
M  V30 6035 H 564.062 0.504928 0.536858 0
M  V30 6036 H 566.704 1.71411 0.819649 0
M  V30 6037 H 564.854 2.09568 3.27129 0
M  V30 6038 H 566.526 4.24879 1.79655 0
M  V30 6039 H 564.769 4.02202 1.6253 0
M  V30 6040 H 565.44 4.50847 3.18498 0
M  V30 6041 H 567.916 2.58314 3.2621 0
M  V30 6042 H 566.792 3.0482 4.56482 0
M  V30 6043 H 567.053 1.34765 4.21059 0
M  V30 6044 N 566.112 -0.949982 1.2575 0
M  V30 6045 C 567.358 -1.69766 1.10938 0
M  V30 6046 C 567.691 -1.91056 -0.348028 0
M  V30 6047 O 566.966 -1.48488 -1.25625 0
M  V30 6048 C 567.249 -3.07779 1.86933 0
M  V30 6049 C 567.102 -2.9387 3.4053 0
M  V30 6050 C 568.421 -4.07749 1.65616 0
M  V30 6051 H 565.54 -0.616144 0.404396 0
M  V30 6052 H 568.182 -1.10394 1.54639 0
M  V30 6053 H 566.332 -3.58462 1.4979 0
M  V30 6054 H 568.004 -2.50476 3.87375 0
M  V30 6055 H 566.247 -2.29686 3.68004 0
M  V30 6056 H 566.918 -3.91719 3.88922 0
M  V30 6057 H 569.394 -3.65994 1.97959 0
M  V30 6058 H 568.27 -5.02348 2.21218 0
M  V30 6059 H 568.531 -4.38029 0.598595 0
M  V30 6060 N 567.59 -1.07411 -1.15328 0
M  V30 6061 C 568.838 -0.796073 -1.85761 0
M  V30 6062 C 569.159 0.679864 -1.82764 0
M  V30 6063 O 568.429 1.49242 -1.269 0
M  V30 6064 H 567.009 -0.291495 -0.687779 0
M  V30 6065 H 569.671 -1.35799 -1.39802 0
M  V30 6066 H 568.767 -1.13114 -2.90881 0
M  V30 6067 N 569.068 1.32177 -0.85831 0
M  V30 6068 C 570 2.27688 -0.262835 0
M  V30 6069 C 571.013 1.52588 0.567513 0
M  V30 6070 O 572.202 1.74156 0.391407 0
M  V30 6071 C 569.302 3.32668 0.646937 0
M  V30 6072 C 568.475 4.37148 -0.148372 0
M  V30 6073 C 567.534 5.21686 0.687728 0
M  V30 6074 O 566.56 5.69074 0.119934 0
M  V30 6075 N 567.762 5.44892 2.00182 0
M  V30 6076 H 570.527 2.79426 -1.08356 0
M  V30 6077 H 568.088 1.45076 -0.718647 0
M  V30 6078 H 570.08 3.86134 1.2117 0
M  V30 6079 H 568.65 2.81061 1.36834 0
M  V30 6080 H 567.87 3.83915 -0.894572 0
M  V30 6081 H 569.158 5.04038 -0.694514 0
M  V30 6082 H 568.556 5.08128 2.4864 0
M  V30 6083 H 567.113 6.0134 2.51463 0
M  V30 6084 N 570.547 0.616602 1.45037 0
M  V30 6085 C 571.793 0.115501 2.02471 0
M  V30 6086 C 572.126 -1.25406 1.4828 0
M  V30 6087 O 571.401 -1.82922 0.661051 0
M  V30 6088 C 571.684 0.0863588 3.59996 0
M  V30 6089 C 571.537 1.48723 4.24501 0
M  V30 6090 C 572.856 -0.596762 4.36035 0
M  V30 6091 H 569.975 0.0434461 0.735718 0
M  V30 6092 H 572.617 0.7903 1.72784 0
M  V30 6093 H 570.767 -0.488277 3.85419 0
M  V30 6094 H 572.439 2.10964 4.10234 0
M  V30 6095 H 570.682 2.04534 3.82555 0
M  V30 6096 H 571.353 1.419 5.3345 0
M  V30 6097 H 573.829 -0.10824 4.15959 0
M  V30 6098 H 572.705 -0.586289 5.4576 0
M  V30 6099 H 572.966 -1.66451 4.09569 0
M  V30 6100 N 572.025 -1.5352 0.356285 0
M  V30 6101 C 572.988 -2.24071 -0.482182 0
M  V30 6102 C 573.988 -1.24531 -1.01729 0
M  V30 6103 O 575.178 -1.48876 -0.904513 0
M  V30 6104 C 572.31 -2.97025 -1.67299 0
M  V30 6105 H 573.503 -2.99596 0.135031 0
M  V30 6106 H 571.056 -1.55928 0.107825 0
M  V30 6107 H 571.791 -2.25719 -2.32855 0
M  V30 6108 H 571.576 -3.7005 -1.29636 0
M  V30 6109 H 573.066 -3.50683 -2.26741 0
M  V30 6110 N 573.503 -0.0852151 -1.57369 0
M  V30 6111 C 574.78 0.622534 -1.85429 0
M  V30 6112 C 575.16 1.86962 -0.980229 0
M  V30 6113 O 574.508 2.28445 -0.0500219 0
M  V30 6114 C 574.718 0.947374 -3.35896 0
M  V30 6115 C 576.066 1.31509 -4.03721 0
M  V30 6116 O 577.09 1.03869 -3.40719 0
M  V30 6117 O 575.949 1.83231 -5.14868 0
M  V30 6118 H 573.043 0.310513 -0.766492 0
M  V30 6119 H 575.589 -0.117164 -1.69295 0
M  V30 6120 H 574.361 0.0622264 -3.91251 0
M  V30 6121 H 573.984 1.74338 -3.5734 0
M  V30 6122 N 574.981 1.5647 0.188427 0
M  V30 6123 C 575.929 1.95971 1.25293 0
M  V30 6124 C 576.923 0.846047 1.4676 0
M  V30 6125 O 578.129 1.03109 1.47542 0
M  V30 6126 H 574.504 0.623253 0.420784 0
M  V30 6127 H 576.475 2.84731 0.892792 0
M  V30 6128 C 575.224 2.32116 2.58877 0
M  V30 6129 H 574.547 3.17341 2.43176 0
M  V30 6130 H 575.987 2.63613 3.3209 0
M  V30 6131 C 574.446 1.15823 3.16365 0
M  V30 6132 O 574.976 0.436785 3.99318 0
M  V30 6133 N 573.182 0.933278 2.75206 0
M  V30 6134 H 572.729 1.52169 2.07852 0
M  V30 6135 H 572.687 0.156976 3.14008 0
M  V30 6136 N 576.459 -0.456382 1.50847 0
M  V30 6137 C 577.736 -1.21739 1.53098 0
M  V30 6138 C 578.116 -2.09179 0.284132 0
M  V30 6139 O 577.464 -2.16466 -0.731773 0
M  V30 6140 C 577.674 -2.03573 2.83477 0
M  V30 6141 C 579.022 -2.61264 3.34703 0
M  V30 6142 O 580.046 -2.13802 2.84898 0
M  V30 6143 O 578.905 -3.47779 4.21559 0
M  V30 6144 H 575.999 -0.553219 0.614718 0
M  V30 6145 H 578.545 -0.467003 1.63148 0
M  V30 6146 H 577.317 -1.39232 3.65691 0
M  V30 6147 H 576.94 -2.85716 2.76499 0
M  V30 6148 N 577.937 -1.40673 -0.710563 0
M  V30 6149 C 578.884 -1.41336 -1.82463 0
M  V30 6150 C 579.854 -0.269648 -1.63897 0
M  V30 6151 O 581.039 -0.468463 -1.8496 0
M  V30 6152 C 578.179 -1.28665 -3.20218 0
M  V30 6153 C 577.292 -2.52784 -3.5032 0
M  V30 6154 C 576.427 -2.32517 -4.77608 0
M  V30 6155 C 575.466 -3.52187 -5.0063 0
M  V30 6156 N 574.603 -3.31084 -6.19135 0
M  V30 6157 H 579.443 -2.36558 -1.8123 0
M  V30 6158 H 576.98 -1.17483 -0.885226 0
M  V30 6159 H 578.938 -1.19324 -3.99772 0
M  V30 6160 H 577.568 -0.370602 -3.20666 0
M  V30 6161 H 576.62 -2.72634 -2.65283 0
M  V30 6162 H 577.932 -3.41845 -3.63241 0
M  V30 6163 H 577.086 -2.20558 -5.65189 0
M  V30 6164 H 575.825 -1.40889 -4.66906 0
M  V30 6165 H 574.83 -3.64617 -4.11502 0
M  V30 6166 H 576.055 -4.44749 -5.13201 0
M  V30 6167 H 574.001 -2.42143 -6.09674 0
M  V30 6168 H 573.918 -4.13713 -6.32754 0
M  V30 6169 H 575.186 -3.22868 -7.0949 0
M  V30 6170 N 579.415 0.9433 -1.26252 0
M  V30 6171 C 580.643 1.72367 -1.14443 0
M  V30 6172 C 581.058 1.86392 0.300572 0
M  V30 6173 O 580.415 1.36978 1.20596 0
M  V30 6174 C 580.466 3.13155 -1.806 0
M  V30 6175 O 580.187 2.99803 -3.19452 0
M  V30 6176 C 581.688 4.07417 -1.74717 0
M  V30 6177 H 578.908 0.539758 -0.398626 0
M  V30 6178 H 581.452 1.18268 -1.66832 0
M  V30 6179 H 579.607 3.64162 -1.32154 0
M  V30 6180 H 580.021 3.88697 -3.52158 0
M  V30 6181 H 581.495 5.03773 -2.25647 0
M  V30 6182 H 581.972 4.3337 -0.713244 0
M  V30 6183 H 582.578 3.6233 -2.22704 0
M  V30 6184 N 580.893 1.08022 1.14757 0
M  V30 6185 C 582.141 0.805913 1.85336 0
M  V30 6186 C 582.462 -0.670162 1.83122 0
M  V30 6187 O 581.732 -1.48567 1.2769 0
M  V30 6188 H 580.312 0.295138 0.686223 0
M  V30 6189 H 582.974 1.36538 1.3908 0
M  V30 6190 H 582.07 1.14655 2.90277 0
M  V30 6191 N 582.371 -1.3172 0.865308 0
M  V30 6192 C 583.618 -1.96876 0.473931 0
M  V30 6193 C 583.946 -1.68425 -0.972786 0
M  V30 6194 O 583.201 -0.970742 -1.69927 0
M  V30 6195 C 583.5 -3.5102 0.672283 0
M  V30 6196 C 583.166 -3.9948 2.09108 0
M  V30 6197 C 581.828 -4.12425 2.4791 0
M  V30 6198 C 584.18 -4.2503 3.0166 0
M  V30 6199 C 581.508 -4.48267 3.78515 0
M  V30 6200 C 583.86 -4.62335 4.31774 0
M  V30 6201 C 582.524 -4.73486 4.70497 0
M  V30 6202 H 581.794 -0.72042 0.173424 0
M  V30 6203 H 584.441 -1.56937 1.0974 0
M  V30 6204 H 582.746 -3.91785 -0.034356 0
M  V30 6205 H 584.443 -3.99475 0.349353 0
M  V30 6206 H 581.033 -3.89898 1.77981 0
M  V30 6207 H 585.217 -4.14529 2.7291 0
M  V30 6208 H 580.473 -4.55097 4.08285 0
M  V30 6209 H 584.647 -4.81058 5.03543 0
M  V30 6210 H 582.274 -5.01016 5.71741 0
M  V30 6211 N 583.85 -0.624285 -1.44708 0
M  V30 6212 C 585.266 -0.289322 -1.56956 0
M  V30 6213 C 585.466 1.20773 -1.61295 0
M  V30 6214 O 584.522 1.9915 -1.55227 0
M  V30 6215 C 585.835 -0.975215 -2.84447 0
M  V30 6216 C 587.383 -0.952709 -2.98148 0
M  V30 6217 C 587.858 -1.61893 -4.28433 0
M  V30 6218 N 589.349 -1.5852 -4.35231 0
M  V30 6219 C 590.084 -2.06969 -5.34744 0
M  V30 6220 N 589.58 -2.63579 -6.40701 0
M  V30 6221 N 591.373 -1.97638 -5.26209 0
M  V30 6222 H 583.524 -1.59612 -1.40135 0
M  V30 6223 H 585.787 -0.669592 -0.671081 0
M  V30 6224 H 585.493 -2.02999 -2.87201 0
M  V30 6225 H 585.367 -0.508749 -3.73753 0
M  V30 6226 H 587.754 0.093568 -2.94952 0
M  V30 6227 H 587.835 -1.4576 -2.10209 0
M  V30 6228 H 587.479 -2.66463 -4.32389 0
M  V30 6229 H 587.409 -1.08893 -5.15218 0
M  V30 6230 H 589.899 -1.17183 -3.59272 0
M  V30 6231 H 590.213 -2.98298 -7.12908 0
M  V30 6232 H 588.558 -2.67626 -6.41406 0
M  V30 6233 H 591.749 -1.5314 -4.42341 0
M  V30 6234 H 591.922 -2.35708 -6.03611 0
M  V30 6235 N 585.328 1.53329 -0.364422 0
M  V30 6236 C 586.276 2.27212 0.497737 0
M  V30 6237 C 587.27 1.30146 1.08437 0
M  V30 6238 O 588.476 1.47778 1.0277 0
M  V30 6239 H 584.851 0.730329 0.179232 0
M  V30 6240 H 586.822 2.98037 -0.147182 0
M  V30 6241 C 585.571 3.07333 1.6261 0
M  V30 6242 H 584.894 3.81866 1.184 0
M  V30 6243 H 586.334 3.62209 2.20409 0
M  V30 6244 C 584.793 2.18102 2.56775 0
M  V30 6245 O 585.323 1.79104 3.59562 0
M  V30 6246 N 583.529 1.82759 2.25937 0
M  V30 6247 H 583.076 2.14671 1.42387 0
M  V30 6248 H 583.034 1.23342 2.89196 0
M  V30 6249 N 586.806 0.0935595 1.57322 0
M  V30 6250 C 588.053 -0.570509 1.94297 0
M  V30 6251 C 588.381 -1.68286 0.97519 0
M  V30 6252 O 587.636 -1.95699 -0.00548655 0
M  V30 6253 C 587.935 -1.16692 3.37813 0
M  V30 6254 C 587.601 -0.178509 4.50547 0
M  V30 6255 C 586.263 0.0933475 4.81109 0
M  V30 6256 C 588.615 0.496472 5.1883 0
M  V30 6257 C 585.943 1.0469 5.77284 0
M  V30 6258 C 588.295 1.43849 6.16028 0
M  V30 6259 C 586.959 1.71859 6.44997 0
M  V30 6260 H 586.229 -0.208764 0.710984 0
M  V30 6261 H 588.876 0.169066 1.90752 0
M  V30 6262 H 587.181 -1.98271 3.37929 0
M  V30 6263 H 588.878 -1.6884 3.63722 0
M  V30 6264 H 585.468 -0.400584 4.26724 0
M  V30 6265 H 589.652 0.299584 4.95395 0
M  V30 6266 H 584.908 1.27094 5.98044 0
M  V30 6267 H 589.082 1.96734 6.68034 0
M  V30 6268 H 586.709 2.45906 7.19329 0
M  V30 6269 N 588.284 -1.56567 -0.180126 0
M  V30 6270 C 589.232 -1.96632 -1.24251 0
M  V30 6271 C 590.226 -0.853818 -1.46309 0
M  V30 6272 O 591.432 -1.0389 -1.46993 0
M  V30 6273 H 587.807 -0.625476 -0.417473 0
M  V30 6274 H 589.778 -2.85201 -0.877679 0
M  V30 6275 C 588.527 -2.33486 -2.57642 0
M  V30 6276 H 587.85 -3.18626 -2.4149 0
M  V30 6277 H 589.29 -2.65371 -3.30688 0
M  V30 6278 C 587.749 -1.17499 -3.15746 0
M  V30 6279 O 588.279 -0.457956 -3.99081 0
M  V30 6280 N 586.485 -0.94786 -2.74707 0
M  V30 6281 H 586.032 -1.53269 -2.07042 0
M  V30 6282 H 585.99 -0.173626 -3.1392 0
M  V30 6283 N 589.762 0.448376 -1.51087 0
M  V30 6284 C 590.992 1.21965 -1.66757 0
M  V30 6285 C 591.4 1.85748 -0.359753 0
M  V30 6286 O 590.743 1.71022 0.670604 0
M  V30 6287 C 590.805 2.35284 -2.71812 0
M  V30 6288 C 590.469 1.91957 -4.1473 0
M  V30 6289 C 591.466 1.42921 -4.9987 0
M  V30 6290 C 589.151 1.99985 -4.60772 0
M  V30 6291 C 591.145 1.02485 -6.29107 0
M  V30 6292 C 588.832 1.5916 -5.90009 0
M  V30 6293 C 589.83 1.10491 -6.74004 0
M  V30 6294 O 589.518 0.702413 -8.00825 0
M  V30 6295 H 589.25 0.374125 -0.563034 0
M  V30 6296 H 591.804 0.538927 -1.98204 0
M  V30 6297 H 590.034 3.06599 -2.35657 0
M  V30 6298 H 591.723 2.97184 -2.76472 0
M  V30 6299 H 592.489 1.36123 -4.65506 0
M  V30 6300 H 588.368 2.36814 -3.95525 0
M  V30 6301 H 591.912 0.644271 -6.94619 0
M  V30 6302 H 587.809 1.65626 -6.2389 0
M  V30 6303 H 588.577 0.829248 -8.14288 0
M  V30 6304 N 591.24 1.41047 0.703093 0
M  V30 6305 C 592.203 1.42036 1.79884 0
M  V30 6306 C 593.203 0.312153 1.57741 0
M  V30 6307 O 594.393 0.571672 1.64553 0
M  V30 6308 C 591.525 1.22437 3.18154 0
M  V30 6309 H 592.718 2.39572 1.80403 0
M  V30 6310 H 590.271 1.27079 0.909977 0
M  V30 6311 H 591.006 0.257112 3.23279 0
M  V30 6312 H 590.791 2.02723 3.35627 0
M  V30 6313 H 592.281 1.25946 3.98155 0
M  V30 6314 N 592.718 -0.936591 1.26751 0
M  V30 6315 C 593.946 -1.71758 1.15355 0
M  V30 6316 C 594.361 -1.86549 -0.290683 0
M  V30 6317 O 593.718 -1.37616 -1.19868 0
M  V30 6318 C 593.769 -3.12193 1.82258 0
M  V30 6319 O 593.49 -2.98105 3.21038 0
M  V30 6320 C 594.991 -4.06485 1.76875 0
M  V30 6321 H 592.211 -0.537636 0.401483 0
M  V30 6322 H 594.755 -1.17382 1.67457 0
M  V30 6323 H 592.91 -3.63456 1.34083 0
M  V30 6324 H 593.324 -3.86824 3.54214 0
M  V30 6325 H 594.798 -5.02569 2.28316 0
M  V30 6326 H 595.275 -4.32986 0.736216 0
M  V30 6327 H 595.881 -3.61144 2.24623 0
M  V30 6328 N 594.196 -1.08629 -1.14182 0
M  V30 6329 C 595.128 -0.676189 -2.18998 0
M  V30 6330 C 596.141 0.277871 -1.60411 0
M  V30 6331 O 597.33 0.0651771 -1.78381 0
M  V30 6332 C 594.43 0.0254916 -3.3889 0
M  V30 6333 C 593.603 -0.948039 -4.27002 0
M  V30 6334 C 592.662 -0.281268 -5.25448 0
M  V30 6335 O 591.688 -0.926378 -5.61611 0
M  V30 6336 N 592.89 0.967923 -5.72374 0
M  V30 6337 H 595.655 -1.57792 -2.54798 0
M  V30 6338 H 593.216 -0.972665 -1.29425 0
M  V30 6339 H 595.208 0.482554 -4.01813 0
M  V30 6340 H 593.778 0.829348 -3.01398 0
M  V30 6341 H 592.998 -1.58388 -3.6098 0
M  V30 6342 H 594.286 -1.60765 -4.82734 0
M  V30 6343 H 593.684 1.51175 -5.45126 0
M  V30 6344 H 592.241 1.36844 -6.37273 0
M  V30 6345 N 595.674 1.31259 -0.872281 0
M  V30 6346 C 596.899 2.0133 -0.498099 0
M  V30 6347 C 597.324 1.65031 0.902568 0
M  V30 6348 O 596.682 0.860164 1.59596 0
M  V30 6349 C 596.73 3.54411 -0.665205 0
M  V30 6350 O 595.834 4.11347 0.294473 0
M  V30 6351 H 595.175 0.633844 -0.197832 0
M  V30 6352 H 597.705 1.67402 -1.17633 0
M  V30 6353 H 597.715 4.04147 -0.559373 0
M  V30 6354 H 596.39 3.80171 -1.68651 0
M  V30 6355 H 594.967 3.72624 0.143403 0
M  V30 6356 N 597.152 0.631951 1.44375 0
M  V30 6357 C 598.099 -0.0724807 2.30686 0
M  V30 6358 C 599.069 -0.835975 1.43529 0
M  V30 6359 O 600.254 -0.816849 1.7243 0
M  V30 6360 C 597.394 -1.04753 3.28817 0
M  V30 6361 C 596.507 -0.282367 4.31076 0
M  V30 6362 C 595.642 -1.2493 5.163 0
M  V30 6363 C 594.681 -0.473349 6.10267 0
M  V30 6364 N 593.818 -1.39079 6.88187 0
M  V30 6365 H 598.658 0.669477 2.90383 0
M  V30 6366 H 596.195 0.341927 1.43071 0
M  V30 6367 H 598.153 -1.62623 3.842 0
M  V30 6368 H 596.783 -1.75661 2.70819 0
M  V30 6369 H 595.835 0.412268 3.78159 0
M  V30 6370 H 597.147 0.321955 4.9776 0
M  V30 6371 H 596.301 -1.89931 5.76204 0
M  V30 6372 H 595.04 -1.88755 4.49692 0
M  V30 6373 H 594.045 0.190142 5.49471 0
M  V30 6374 H 595.27 0.16019 6.78911 0
M  V30 6375 H 593.216 -2.01623 6.24247 0
M  V30 6376 H 593.133 -0.840513 7.51313 0
M  V30 6377 H 594.401 -2.02961 7.52613 0
M  V30 6378 N 598.631 -1.53133 0.372548 0
M  V30 6379 C 600.047 -1.59585 0.02178 0
M  V30 6380 C 600.247 -1.38736 -1.46132 0
M  V30 6381 O 599.303 -1.19599 -2.22379 0
M  V30 6382 C 600.616 -2.9678 0.483959 0
M  V30 6383 C 602.164 -3.09909 0.438775 0
M  V30 6384 C 602.639 -4.49527 0.876876 0
M  V30 6385 N 604.13 -4.55663 0.832214 0
M  V30 6386 C 604.865 -5.61896 1.14281 0
M  V30 6387 N 604.361 -6.75852 1.52303 0
M  V30 6388 N 606.154 -5.51916 1.06515 0
M  V30 6389 H 598.305 -1.64936 1.33827 0
M  V30 6390 H 600.568 -0.773947 0.547458 0
M  V30 6391 H 600.274 -3.17198 1.51915 0
M  V30 6392 H 600.148 -3.7699 -0.125784 0
M  V30 6393 H 602.535 -2.89197 -0.587294 0
M  V30 6394 H 602.616 -2.31691 1.0841 0
M  V30 6395 H 602.26 -4.70979 1.90109 0
M  V30 6396 H 602.19 -5.26186 0.208727 0
M  V30 6397 H 604.681 -3.73844 0.552195 0
M  V30 6398 H 604.994 -7.52862 1.7441 0
M  V30 6399 H 603.339 -6.77226 1.56175 0
M  V30 6400 H 606.53 -4.6177 0.767235 0
M  V30 6401 H 606.703 -6.34609 1.31053 0
M  V30 6402 N 600.109 -0.101901 -1.5727 0
M  V30 6403 C 601.334 0.571759 -1.99363 0
M  V30 6404 C 601.759 1.60507 -0.980768 0
M  V30 6405 O 601.117 1.81231 0.0498517 0
M  V30 6406 C 601.165 1.18996 -3.404 0
M  V30 6407 O 600.269 2.30572 -3.41922 0
M  V30 6408 H 599.61 0.144449 -0.648098 0
M  V30 6409 H 602.14 -0.185325 -2.03759 0
M  V30 6410 H 602.15 1.52962 -3.78241 0
M  V30 6411 H 600.825 0.432984 -4.1364 0
M  V30 6412 H 599.402 1.98173 -3.15883 0
M  V30 6413 N 601.587 1.56661 0.17182 0
M  V30 6414 C 602.998 1.71652 0.734329 0
M  V30 6415 C 603.349 0.712335 1.82812 0
M  V30 6416 O 602.474 -0.126401 2.16031 0
M  V30 6417 C 603.069 3.11226 1.3388 0
M  V30 6418 C 601.628 3.27904 1.84813 0
M  V30 6419 C 600.775 2.67603 0.726917 0
M  V30 6420 H 603.726 1.5861 -0.0535665 0
M  V30 6421 H 603.747 3.09849 2.20849 0
M  V30 6422 H 603.259 3.8429 0.54249 0
M  V30 6423 H 601.36 2.59796 2.6709 0
M  V30 6424 H 601.473 4.35637 1.99392 0
M  V30 6425 H 599.837 2.274 1.14723 0
M  V30 6426 H 600.62 3.43252 -0.0575334 0
M  V30 6427 N 603.065 -0.440357 1.51323 0
M  V30 6428 C 604.313 -1.18769 1.63518 0
M  V30 6429 C 604.634 -1.91793 0.352201 0
M  V30 6430 O 603.904 -1.85432 -0.631811 0
M  V30 6431 H 602.484 -0.441408 0.602634 0
M  V30 6432 H 605.146 -0.505162 1.8824 0
M  V30 6433 H 604.242 -1.91892 2.46138 0
M  V30 6434 N 604.543 -1.41418 -0.695603 0
M  V30 6435 C 605.768 -1.44329 -1.48942 0
M  V30 6436 C 606.193 -0.0501579 -1.88033 0
M  V30 6437 O 605.551 0.946598 -1.54626 0
M  V30 6438 C 605.599 -2.3578 -2.72837 0
M  V30 6439 O 604.703 -1.81482 -3.70322 0
M  V30 6440 H 604.044 -0.489838 -0.44828 0
M  V30 6441 H 606.574 -1.85878 -0.855014 0
M  V30 6442 H 606.584 -2.51654 -3.21145 0
M  V30 6443 H 605.259 -3.37005 -2.43722 0
M  V30 6444 H 603.836 -1.75058 -3.29255 0
M  V30 6445 N 606.021 0.929856 -1.27246 0
M  V30 6446 C 607.249 1.71144 -1.16265 0
M  V30 6447 C 607.664 1.867 0.280786 0
M  V30 6448 O 607.021 1.38249 1.19136 0
M  V30 6449 C 607.072 3.11222 -1.83911 0
M  V30 6450 O 606.793 2.96398 -3.22614 0
M  V30 6451 C 608.294 4.05541 -1.79028 0
M  V30 6452 H 605.514 0.535499 -0.404328 0
M  V30 6453 H 608.058 1.16492 -1.68077 0
M  V30 6454 H 606.213 3.6274 -1.36009 0
M  V30 6455 H 606.627 3.8494 -3.56261 0
M  V30 6456 H 608.101 5.01351 -2.30978 0
M  V30 6457 H 608.578 4.32589 -0.759168 0
M  V30 6458 H 609.184 3.59947 -2.26535 0
M  V30 6459 N 607.499 1.09233 1.13605 0
M  V30 6460 C 608.748 0.82205 1.84188 0
M  V30 6461 C 609.061 -0.654548 1.84323 0
M  V30 6462 O 610.267 -1.04029 2.50779 0
M  V30 6463 C 608.723 1.42066 3.30674 0
M  V30 6464 C 608.331 2.92965 3.38933 0
M  V30 6465 C 610.075 1.22924 4.06313 0
M  V30 6466 C 607.982 3.45922 4.79679 0
M  V30 6467 H 606.912 0.303854 0.690064 0
M  V30 6468 H 609.563 1.31479 1.28006 0
M  V30 6469 H 607.945 0.855613 3.86646 0
M  V30 6470 H 609.119 3.55679 2.92966 0
M  V30 6471 H 607.434 3.11118 2.76757 0
M  V30 6472 H 610.031 1.59945 5.10217 0
M  V30 6473 H 610.374 0.169726 4.15954 0
M  V30 6474 H 610.907 1.76168 3.56665 0
M  V30 6475 H 607.646 4.51484 4.75229 0
M  V30 6476 H 607.166 2.87971 5.26149 0
M  V30 6477 H 608.845 3.43009 5.48592 0
M  V30 6478 N 608.977 -1.30795 0.87923 0
M  V30 6479 C 609.924 -2.28282 0.339968 0
M  V30 6480 C 610.894 -1.56134 -0.566685 0
M  V30 6481 O 612.079 -1.84231 -0.496338 0
M  V30 6482 C 609.219 -3.42225 -0.444501 0
M  V30 6483 C 608.332 -4.29204 0.490717 0
M  V30 6484 C 607.467 -5.30302 -0.308784 0
M  V30 6485 C 606.506 -6.08929 0.622272 0
M  V30 6486 N 605.643 -7.01957 -0.14155 0
M  V30 6487 H 610.483 -2.73794 1.17647 0
M  V30 6488 H 608.02 -1.34682 0.591527 0
M  V30 6489 H 609.978 -4.07038 -0.915186 0
M  V30 6490 H 608.608 -2.97799 -1.24562 0
M  V30 6491 H 607.66 -3.6475 1.07988 0
M  V30 6492 H 608.972 -4.84045 1.20425 0
M  V30 6493 H 608.126 -6.00835 -0.841575 0
M  V30 6494 H 606.865 -4.7614 -1.05556 0
M  V30 6495 H 605.87 -5.37278 1.16674 0
M  V30 6496 H 607.095 -6.65178 1.36804 0
M  V30 6497 H 605.041 -6.50192 -0.870966 0
M  V30 6498 H 604.958 -7.54261 0.51246 0
M  V30 6499 H 606.226 -7.76741 -0.655271 0
M  V30 6500 N 610.455 -0.639598 -1.44038 0
M  V30 6501 C 611.866 -0.228866 -1.85292 0
M  V30 6502 C 612.217 1.22161 -1.53529 0
M  V30 6503 O 611.342 1.93064 -0.977518 0
M  V30 6504 C 611.937 -0.408592 -3.36327 0
M  V30 6505 C 610.496 -0.0522953 -3.76364 0
M  V30 6506 C 609.643 -0.717959 -2.67844 0
M  V30 6507 H 612.594 -0.844194 -1.34384 0
M  V30 6508 H 612.615 0.349968 -3.78887 0
M  V30 6509 H 612.127 -1.46435 -3.59414 0
M  V30 6510 H 610.228 1.0014 -3.58891 0
M  V30 6511 H 610.341 -0.468261 -4.76806 0
M  V30 6512 H 608.705 -0.152459 -2.54243 0
M  V30 6513 H 609.488 -1.77648 -2.93762 0
M  V30 6514 N 611.933 1.52934 -0.380664 0
M  V30 6515 C 612.863 2.29118 0.450268 0
M  V30 6516 C 613.844 1.32153 1.07096 0
M  V30 6517 O 615.029 1.61038 1.08537 0
M  V30 6518 C 612.159 3.09161 1.58231 0
M  V30 6519 C 611.113 4.13938 1.0881 0
M  V30 6520 C 610.439 4.82153 2.31155 0
M  V30 6521 C 611.739 5.22048 0.162146 0
M  V30 6522 H 613.433 2.98826 -0.185361 0
M  V30 6523 H 610.979 1.43715 -0.0905886 0
M  V30 6524 H 612.932 3.61211 2.17036 0
M  V30 6525 H 611.656 2.3717 2.2454 0
M  V30 6526 H 610.315 3.62855 0.522633 0
M  V30 6527 H 609.963 4.06719 2.95953 0
M  V30 6528 H 609.663 5.52966 1.98752 0
M  V30 6529 H 611.187 5.37004 2.90618 0
M  V30 6530 H 612.601 5.6951 0.658126 0
M  V30 6531 H 610.998 6.00057 -0.0717122 0
M  V30 6532 H 612.068 4.78398 -0.791438 0
M  V30 6533 N 613.412 0.11024 1.57214 0
M  V30 6534 C 614.658 -0.550684 1.9518 0
M  V30 6535 C 614.991 -1.66885 0.993122 0
M  V30 6536 O 614.266 -1.94479 0.0287907 0
M  V30 6537 C 614.549 -1.09163 3.43155 0
M  V30 6538 C 614.402 0.0225198 4.49794 0
M  V30 6539 C 615.721 -1.98527 3.92778 0
M  V30 6540 H 612.84 -0.198706 0.709708 0
M  V30 6541 H 615.482 0.184024 1.89107 0
M  V30 6542 H 613.632 -1.71775 3.48462 0
M  V30 6543 H 615.304 0.657443 4.56591 0
M  V30 6544 H 613.547 0.686868 4.28328 0
M  V30 6545 H 614.218 -0.39706 5.5057 0
M  V30 6546 H 616.694 -1.458 3.8972 0
M  V30 6547 H 615.57 -2.33298 4.96853 0
M  V30 6548 H 615.831 -2.90846 3.32958 0
M  V30 6549 N 614.89 -1.56749 -0.16351 0
M  V30 6550 C 616.136 -1.82704 -0.880168 0
M  V30 6551 C 616.469 -0.689311 -1.81555 0
M  V30 6552 O 615.744 0.308224 -1.92042 0
M  V30 6553 C 616.027 -3.19084 -1.66905 0
M  V30 6554 C 615.88 -4.43397 -0.756269 0
M  V30 6555 C 617.199 -3.52493 -2.63509 0
M  V30 6556 H 614.318 -0.664608 -0.318535 0
M  V30 6557 H 616.96 -1.89438 -0.146036 0
M  V30 6558 H 615.11 -3.13475 -2.2949 0
M  V30 6559 H 616.782 -4.61079 -0.14269 0
M  V30 6560 H 615.025 -4.33752 -0.0647944 0
M  V30 6561 H 615.696 -5.3539 -1.34393 0
M  V30 6562 H 618.172 -3.58606 -2.11047 0
M  V30 6563 H 617.048 -4.48979 -3.15767 0
M  V30 6564 H 617.309 -2.77597 -3.44082 0
M  V30 6565 N 616.368 0.432326 -1.51554 0
M  V30 6566 C 617.598 1.2019 -1.68042 0
M  V30 6567 C 618.006 1.85356 -0.379434 0
M  V30 6568 O 617.349 1.71724 0.652427 0
M  V30 6569 C 617.411 2.32387 -2.74292 0
M  V30 6570 C 617.075 1.87548 -4.16743 0
M  V30 6571 C 618.072 1.37611 -5.01357 0
M  V30 6572 C 615.757 1.95087 -4.62868 0
M  V30 6573 C 617.751 0.958069 -6.30159 0
M  V30 6574 C 615.438 1.52894 -5.91664 0
M  V30 6575 C 616.436 1.03336 -6.75137 0
M  V30 6576 O 616.124 0.617435 -8.01525 0
M  V30 6577 H 615.856 0.368132 -0.56697 0
M  V30 6578 H 618.41 0.517875 -1.98764 0
M  V30 6579 H 616.64 3.04082 -2.38895 0
M  V30 6580 H 618.329 2.94235 -2.79608 0
M  V30 6581 H 619.095 1.31178 -4.66923 0
M  V30 6582 H 614.974 2.32606 -3.98015 0
M  V30 6583 H 618.518 0.570562 -6.95263 0
M  V30 6584 H 614.415 1.58999 -6.25611 0
M  V30 6585 H 615.183 0.742835 -8.15122 0
M  V30 6586 N 617.846 1.41785 0.688094 0
M  V30 6587 C 619.074 1.44915 1.47673 0
M  V30 6588 C 619.489 0.0565786 1.88715 0
M  V30 6589 O 618.846 -0.92579 1.57275 0
M  V30 6590 C 618.897 2.36452 2.73446 0
M  V30 6591 O 618.618 3.7029 2.34131 0
M  V30 6592 C 620.119 2.48463 3.67125 0
M  V30 6593 H 617.339 0.493324 0.454832 0
M  V30 6594 H 619.883 1.86153 0.846594 0
M  V30 6595 H 618.038 1.98502 3.3268 0
M  V30 6596 H 618.452 4.19183 3.15255 0
M  V30 6597 H 619.926 3.16662 4.52138 0
M  V30 6598 H 620.403 1.51826 4.12123 0
M  V30 6599 H 621.009 2.8708 3.13792 0
M  V30 6600 N 619.324 -0.923095 1.27737 0
M  V30 6601 C 620.735 -1.48626 1.12993 0
M  V30 6602 C 621.086 -1.94142 -0.283439 0
M  V30 6603 O 620.211 -1.81605 -1.17681 0
M  V30 6604 C 620.806 -2.70117 2.04505 0
M  V30 6605 C 619.365 -3.22642 1.93853 0
M  V30 6606 C 618.512 -1.95368 1.96791 0
M  V30 6607 H 621.463 -0.736737 1.40563 0
M  V30 6608 H 621.484 -3.4506 1.60356 0
M  V30 6609 H 620.996 -2.36959 3.07363 0
M  V30 6610 H 619.097 -3.60549 0.939968 0
M  V30 6611 H 619.21 -3.88525 2.80331 0
M  V30 6612 H 617.574 -2.12061 1.41076 0
M  V30 6613 H 618.357 -1.64517 3.01312 0
M  V30 6614 N 620.802 -1.09834 -1.13024 0
M  V30 6615 C 621.765 -0.745058 -2.16752 0
M  V30 6616 C 622.765 0.227435 -1.59183 0
M  V30 6617 O 623.955 0.0050786 -1.74199 0
M  V30 6618 C 621.087 -0.102543 -3.40746 0
M  V30 6619 H 622.28 -1.66375 -2.49518 0
M  V30 6620 H 619.833 -0.898061 -1.27924 0
M  V30 6621 H 620.568 0.827177 -3.13573 0
M  V30 6622 H 620.353 -0.80235 -3.83803 0
M  V30 6623 H 621.843 0.129082 -4.174 0
M  V30 6624 N 622.28 1.30327 -0.886154 0
M  V30 6625 C 623.526 1.96388 -0.505941 0
M  V30 6626 C 623.859 1.69784 0.942712 0
M  V30 6627 O 623.134 1.00322 1.6663 0
M  V30 6628 C 623.417 3.51488 -0.782826 0
M  V30 6629 C 623.27 3.87603 -2.28219 0
M  V30 6630 C 624.589 4.39331 -0.260128 0
M  V30 6631 H 621.708 0.713327 -0.185292 0
M  V30 6632 H 624.35 1.54178 -1.11036 0
M  V30 6633 H 622.5 3.87572 -0.268399 0
M  V30 6634 H 624.172 3.61537 -2.86512 0
M  V30 6635 H 622.415 3.3563 -2.74837 0
M  V30 6636 H 623.086 4.95806 -2.42653 0
M  V30 6637 H 625.562 4.10162 -0.700444 0
M  V30 6638 H 624.438 5.46769 -0.483179 0
M  V30 6639 H 624.699 4.34072 0.838674 0
M  V30 6640 N 623.758 0.647228 1.43697 0
M  V30 6641 C 624.668 -0.0487997 2.34549 0
M  V30 6642 C 625.684 -0.818586 1.53542 0
M  V30 6643 O 626.86 -0.767195 1.86215 0
M  V30 6644 C 623.925 -1.00734 3.31743 0
M  V30 6645 C 622.986 -0.23515 4.28655 0
M  V30 6646 C 622.219 -1.14803 5.21206 0
M  V30 6647 O 622.442 -2.38717 5.18045 0
M  V30 6648 O 621.376 -0.623667 5.9866 0
M  V30 6649 H 625.202 0.698863 2.9555 0
M  V30 6650 H 622.787 0.407412 1.43738 0
M  V30 6651 H 624.669 -1.55837 3.91526 0
M  V30 6652 H 623.344 -1.73534 2.73254 0
M  V30 6653 H 622.251 0.359319 3.7237 0
M  V30 6654 H 623.584 0.453152 4.9011 0
M  V30 6655 N 625.236 -1.5273 0.388769 0
M  V30 6656 C 626.199 -2.25043 -0.434544 0
M  V30 6657 C 627.199 -1.26661 -0.990644 0
M  V30 6658 O 628.389 -1.50762 -0.872731 0
M  V30 6659 C 625.521 -3.00507 -1.60961 0
M  V30 6660 H 626.714 -2.99242 0.198549 0
M  V30 6661 H 624.267 -1.55664 0.140875 0
M  V30 6662 H 625.002 -2.30607 -2.28015 0
M  V30 6663 H 624.787 -3.72716 -1.21757 0
M  V30 6664 H 626.277 -3.55413 -2.19251 0
M  V30 6665 N 626.714 -0.118576 -1.57153 0
M  V30 6666 C 627.962 0.538461 -1.94795 0
M  V30 6667 C 628.283 1.67243 -1.00274 0
M  V30 6668 O 627.553 1.95811 -0.0589692 0
M  V30 6669 H 626.133 0.201904 -0.719197 0
M  V30 6670 H 628.795 -0.187418 -1.93997 0
M  V30 6671 H 627.891 0.933315 -2.97818 0
M  V30 6672 N 628.193 1.56834 0.155195 0
M  V30 6673 C 629.439 1.84058 0.865687 0
M  V30 6674 C 629.794 0.701418 1.79159 0
M  V30 6675 O 629.087 -0.301162 1.89218 0
M  V30 6676 C 629.281 3.15239 1.68402 0
M  V30 6677 C 629.11 4.41807 0.838847 0
M  V30 6678 C 627.88 5.02744 0.507645 0
M  V30 6679 C 630.078 5.14009 0.172946 0
M  V30 6680 N 628.06 6.1289 -0.351978 0
M  V30 6681 C 629.431 6.17581 -0.547158 0
M  V30 6682 C 631.486 4.97814 0.0927721 0
M  V30 6683 C 630.189 7.06711 -1.33985 0
M  V30 6684 C 632.215 5.874 -0.686638 0
M  V30 6685 C 631.577 6.90447 -1.39505 0
M  V30 6686 H 627.676 0.724276 0.294871 0
M  V30 6687 H 630.26 1.94255 0.131583 0
M  V30 6688 H 628.431 3.06205 2.38942 0
M  V30 6689 H 630.163 3.304 2.33705 0
M  V30 6690 H 626.918 4.66064 0.841517 0
M  V30 6691 H 627.342 6.72577 -0.772573 0
M  V30 6692 H 631.984 4.18138 0.626112 0
M  V30 6693 H 629.702 7.8582 -1.88448 0
M  V30 6694 H 633.288 5.76938 -0.750555 0
M  V30 6695 H 632.168 7.58571 -1.98847 0
M  V30 6696 N 629.671 -0.424282 1.51781 0
M  V30 6697 C 630.634 -1.49848 1.73431 0
M  V30 6698 C 631.634 -1.49016 0.604225 0
M  V30 6699 O 632.824 -1.50808 0.871935 0
M  V30 6700 C 629.956 -2.89332 1.80277 0
M  V30 6701 H 631.149 -1.3195 2.69312 0
M  V30 6702 H 628.702 -0.653809 1.41968 0
M  V30 6703 H 629.437 -3.12618 0.862568 0
M  V30 6704 H 629.222 -2.9134 2.62419 0
M  V30 6705 H 630.712 -3.67233 1.98821 0
M  V30 6706 N 631.149 -1.42148 -0.680565 0
M  V30 6707 C 632.079 -1.4796 -1.80638 0
M  V30 6708 C 633.06 -0.336728 -1.66734 0
M  V30 6709 O 634.245 -0.550247 -1.86242 0
M  V30 6710 C 631.375 -1.37569 -3.18892 0
M  V30 6711 C 630.329 -2.49823 -3.47524 0
M  V30 6712 C 629.655 -2.24491 -4.85291 0
M  V30 6713 C 630.955 -3.92144 -3.44994 0
M  V30 6714 H 632.649 -2.42184 -1.76032 0
M  V30 6715 H 630.195 -1.16566 -0.845481 0
M  V30 6716 H 632.148 -1.40243 -3.97379 0
M  V30 6717 H 630.872 -0.398357 -3.24162 0
M  V30 6718 H 629.531 -2.46455 -2.71395 0
M  V30 6719 H 629.179 -1.25066 -4.87204 0
M  V30 6720 H 628.879 -2.99722 -5.05411 0
M  V30 6721 H 630.403 -2.28906 -5.66069 0
M  V30 6722 H 631.817 -3.97145 -4.13459 0
M  V30 6723 H 630.214 -4.67179 -3.76648 0
M  V30 6724 H 631.284 -4.19225 -2.43676 0
M  V30 6725 N 632.627 0.916307 -1.28225 0
M  V30 6726 C 633.575 2.03977 -1.11786 0
M  V30 6727 C 634.569 1.69358 -0.0378265 0
M  V30 6728 O 635.775 1.78925 -0.196405 0
M  V30 6729 H 632.15 0.66829 -0.344809 0
M  V30 6730 H 634.121 2.14985 -2.06939 0
M  V30 6731 C 632.87 3.38518 -0.7938 0
M  V30 6732 H 632.193 3.65649 -1.61682 0
M  V30 6733 H 633.633 4.17864 -0.718719 0
M  V30 6734 C 632.092 3.33134 0.502353 0
M  V30 6735 O 632.622 3.71281 1.53341 0
M  V30 6736 N 630.828 2.86229 0.502147 0
M  V30 6737 H 630.375 2.55382 -0.337338 0
M  V30 6738 H 630.333 2.83009 1.36942 0
M  V30 6739 N 634.105 1.10431 1.1244 0
M  V30 6740 C 635.052 0.753103 2.18167 0
M  V30 6741 C 636.022 -0.270549 1.63882 0
M  V30 6742 O 637.207 -0.149837 1.90211 0
M  V30 6743 C 634.347 0.191046 3.44571 0
M  V30 6744 C 633.46 1.26999 4.12911 0
M  V30 6745 C 632.595 0.669586 5.26963 0
M  V30 6746 C 631.634 1.72912 5.87169 0
M  V30 6747 N 630.771 1.14898 6.92635 0
M  V30 6748 H 635.611 1.65892 2.47556 0
M  V30 6749 H 633.148 0.828631 1.21541 0
M  V30 6750 H 635.106 -0.152712 4.1692 0
M  V30 6751 H 633.736 -0.677997 3.15599 0
M  V30 6752 H 632.788 1.73087 3.3874 0
M  V30 6753 H 634.1 2.07204 4.53727 0
M  V30 6754 H 633.254 0.275274 6.06075 0
M  V30 6755 H 631.993 -0.163895 4.87425 0
M  V30 6756 H 630.998 2.13286 5.06744 0
M  V30 6757 H 632.223 2.56544 6.28778 0
M  V30 6758 H 630.169 0.336956 6.55134 0
M  V30 6759 H 630.086 1.88786 7.32049 0
M  V30 6760 H 631.354 0.78121 7.75576 0
M  V30 6761 N 635.583 -1.29855 0.893053 0
M  V30 6762 C 636.515 -2.26911 0.32311 0
M  V30 6763 C 637.528 -1.54039 -0.526858 0
M  V30 6764 O 638.717 -1.75132 -0.345095 0
M  V30 6765 C 635.817 -3.34266 -0.558509 0
M  V30 6766 C 634.99 -4.36601 0.264222 0
M  V30 6767 C 634.049 -5.23326 -0.549171 0
M  V30 6768 O 633.075 -5.69192 0.0309883 0
M  V30 6769 N 634.277 -5.50008 -1.85664 0
M  V30 6770 H 637.042 -2.76455 1.15726 0
M  V30 6771 H 634.603 -1.4312 0.756859 0
M  V30 6772 H 636.595 -3.89211 -1.1089 0
M  V30 6773 H 635.165 -2.8459 -1.29334 0
M  V30 6774 H 634.385 -3.81409 0.996046 0
M  V30 6775 H 635.673 -5.02019 0.827906 0
M  V30 6776 H 635.071 -5.14542 -2.35081 0
M  V30 6777 H 633.628 -6.07796 -2.35431 0
M  V30 6778 N 637.061 -0.65484 -1.43351 0
M  V30 6779 C 637.991 0.0221809 -2.33489 0
M  V30 6780 C 638.972 0.810272 -1.49561 0
M  V30 6781 O 640.157 0.771426 -1.78221 0
M  V30 6782 C 637.287 0.988117 -3.32947 0
M  V30 6783 C 636.241 0.310026 -4.26876 0
M  V30 6784 C 635.567 1.38752 -5.16384 0
M  V30 6785 C 636.867 -0.798589 -5.16159 0
M  V30 6786 H 638.561 -0.730571 -2.9035 0
M  V30 6787 H 636.107 -0.352773 -1.39612 0
M  V30 6788 H 638.06 1.47067 -3.94904 0
M  V30 6789 H 636.784 1.77205 -2.74346 0
M  V30 6790 H 635.443 -0.152097 -3.66284 0
M  V30 6791 H 635.091 2.16293 -4.54121 0
M  V30 6792 H 634.791 0.939051 -5.80048 0
M  V30 6793 H 636.315 1.87141 -5.81215 0
M  V30 6794 H 637.729 -0.398126 -5.71916 0
M  V30 6795 H 636.126 -1.17163 -5.88552 0
M  V30 6796 H 637.196 -1.65588 -4.55751 0
M  V30 6797 N 638.539 1.52521 -0.396863 0
M  V30 6798 C 639.816 1.94112 0.240842 0
M  V30 6799 C 640.196 1.33288 1.637 0
M  V30 6800 O 639.544 0.503901 2.22875 0
M  V30 6801 C 639.754 3.48033 0.259567 0
M  V30 6802 C 641.102 4.21822 0.484866 0
M  V30 6803 O 642.126 3.54579 0.339453 0
M  V30 6804 O 640.985 5.41042 0.770412 0
M  V30 6805 H 638.079 0.812973 0.151671 0
M  V30 6806 H 640.625 1.63572 -0.451918 0
M  V30 6807 H 639.397 3.84655 -0.718078 0
M  V30 6808 H 639.02 3.84899 0.996937 0
M  V30 6809 N 640.017 0.126909 1.57088 0
M  V30 6810 C 640.965 -0.837618 2.16995 0
M  V30 6811 C 641.959 -1.26974 1.12133 0
M  V30 6812 O 643.165 -1.24056 1.30423 0
M  V30 6813 H 639.54 -0.288256 0.694559 0
M  V30 6814 H 641.511 -0.307957 2.96807 0
M  V30 6815 C 640.26 -2.07474 2.79016 0
M  V30 6816 H 639.583 -1.75117 3.59408 0
M  V30 6817 H 641.023 -2.72949 3.24461 0
M  V30 6818 C 639.482 -2.86967 1.76498 0
M  V30 6819 O 640.012 -3.82625 1.22316 0
M  V30 6820 N 638.218 -2.51111 1.46258 0
M  V30 6821 H 637.765 -1.73389 1.90509 0
M  V30 6822 H 637.723 -3.04594 0.779085 0
M  V30 6823 N 641.495 -1.56914 -0.146875 0
M  V30 6824 C 642.445 -1.94693 -1.18653 0
M  V30 6825 C 643.429 -0.81821 -1.38543 0
M  V30 6826 O 644.621 -1.08167 -1.40103 0
M  V30 6827 C 641.75 -2.33117 -2.52014 0
M  V30 6828 C 640.836 -3.5256 -2.35717 0
M  V30 6829 N 641.227 -4.69091 -1.89175 0
M  V30 6830 C 639.525 -3.57647 -2.66467 0
M  V30 6831 C 640.226 -5.51187 -1.85924 0
M  V30 6832 N 639.202 -4.92899 -2.29242 0
M  V30 6833 H 643.004 -2.82264 -0.81879 0
M  V30 6834 H 640.518 -1.58474 -0.354929 0
M  V30 6835 H 642.515 -2.58387 -3.27172 0
M  V30 6836 H 641.175 -1.46898 -2.89571 0
M  V30 6837 H 642.186 -4.92844 -1.59139 0
M  V30 6838 H 638.863 -2.81967 -3.07898 0
M  V30 6839 H 640.253 -6.54613 -1.51431 0
M  V30 6840 N 642.974 0.416227 -1.52004 0
M  V30 6841 C 644.202 1.18573 -1.69553 0
M  V30 6842 C 644.617 1.84472 -0.401919 0
M  V30 6843 O 643.974 1.71593 0.621463 0
M  V30 6844 C 644.025 2.25413 -2.82615 0
M  V30 6845 O 643.746 1.62205 -4.06966 0
M  V30 6846 C 645.247 3.15297 -3.11613 0
M  V30 6847 H 642.467 0.356582 -0.56841 0
M  V30 6848 H 645.011 0.490618 -1.98528 0
M  V30 6849 H 643.166 2.90604 -2.56179 0
M  V30 6850 H 643.58 2.3298 -4.69916 0
M  V30 6851 H 645.054 3.86351 -3.94255 0
M  V30 6852 H 645.531 3.77264 -2.24874 0
M  V30 6853 H 646.137 2.55783 -3.39787 0
M  V30 6854 N 644.452 1.42507 0.673017 0
M  V30 6855 C 645.385 1.40557 1.79774 0
M  V30 6856 C 646.363 0.269606 1.60349 0
M  V30 6857 O 647.547 0.460105 1.82798 0
M  V30 6858 C 644.674 1.19815 3.168 0
M  V30 6859 C 643.72 2.36429 3.5497 0
M  V30 6860 S 644.553 3.98963 3.57196 0
M  V30 6861 C 645.709 3.80567 4.9691 0
M  V30 6862 H 645.942 2.35734 1.81154 0
M  V30 6863 H 643.475 1.293 0.843846 0
M  V30 6864 H 645.433 1.08535 3.95892 0
M  V30 6865 H 644.094 0.262215 3.13004 0
M  V30 6866 H 643.287 2.17669 4.54573 0
M  V30 6867 H 642.889 2.44233 2.83242 0
M  V30 6868 H 645.181 3.41668 5.85038 0
M  V30 6869 H 646.124 4.79852 5.20718 0
M  V30 6870 H 646.532 3.13399 4.69512 0
M  V30 6871 N 645.93 -0.909495 1.28709 0
M  V30 6872 C 646.862 -2.01729 1.08804 0
M  V30 6873 C 647.875 -1.62755 0.0384739 0
M  V30 6874 O 649.064 -1.76259 0.281977 0
M  V30 6875 C 646.164 -3.32952 0.63217 0
M  V30 6876 C 645.337 -4.00512 1.75809 0
M  V30 6877 C 644.396 -5.10019 1.29488 0
M  V30 6878 O 643.422 -5.32986 1.99787 0
M  V30 6879 N 644.624 -5.80278 0.1604 0
M  V30 6880 H 647.389 -2.19362 2.04207 0
M  V30 6881 H 644.95 -1.08106 1.20518 0
M  V30 6882 H 646.942 -4.03543 0.305802 0
M  V30 6883 H 645.512 -3.11759 -0.229134 0
M  V30 6884 H 644.732 -3.23413 2.25383 0
M  V30 6885 H 646.02 -4.42395 2.51325 0
M  V30 6886 H 645.418 -5.64094 -0.425937 0
M  V30 6887 H 643.975 -6.51713 -0.106663 0
M  V30 6888 N 647.408 -1.11026 -1.11852 0
M  V30 6889 C 648.638 -0.877544 -1.87037 0
M  V30 6890 C 649.046 0.575925 -1.80221 0
M  V30 6891 O 648.389 1.40916 -1.17849 0
M  V30 6892 C 648.451 -1.25529 -3.36872 0
M  V30 6893 C 648.115 -2.71704 -3.67459 0
M  V30 6894 C 649.112 -3.69931 -3.65304 0
M  V30 6895 C 646.797 -3.08243 -3.966 0
M  V30 6896 C 648.791 -5.02717 -3.9186 0
M  V30 6897 C 646.478 -4.41215 -4.22815 0
M  V30 6898 C 647.476 -5.38262 -4.20432 0
M  V30 6899 O 647.164 -6.68839 -4.45992 0
M  V30 6900 H 646.896 -0.314374 -0.598452 0
M  V30 6901 H 649.45 -1.48015 -1.42411 0
M  V30 6902 H 647.68 -0.595808 -3.82082 0
M  V30 6903 H 649.369 -0.999064 -3.93413 0
M  V30 6904 H 650.135 -3.43047 -3.42846 0
M  V30 6905 H 646.014 -2.33326 -3.97593 0
M  V30 6906 H 649.558 -5.78456 -3.89916 0
M  V30 6907 H 645.455 -4.67835 -4.44748 0
M  V30 6908 H 646.223 -6.74563 -4.63581 0
M  V30 6909 N 648.886 1.2938 -0.899927 0
M  V30 6910 C 650.163 1.9046 -0.445443 0
M  V30 6911 C 650.543 1.81683 1.07492 0
M  V30 6912 O 649.891 1.24371 1.91688 0
M  V30 6913 C 650.101 3.35529 -0.960279 0
M  V30 6914 C 651.449 4.12556 -1.00412 0
M  V30 6915 O 652.473 3.44434 -0.907965 0
M  V30 6916 O 651.332 5.34294 -1.14857 0
M  V30 6917 H 648.426 0.815253 -0.138893 0
M  V30 6918 H 650.972 1.37844 -0.989808 0
M  V30 6919 H 649.744 3.36074 -2.00425 0
M  V30 6920 H 649.367 3.95624 -0.395939 0
M  V30 6921 N 650.364 0.662433 1.43002 0
M  V30 6922 C 651.589 0.186003 2.06564 0
M  V30 6923 C 652.014 -1.14314 1.49379 0
M  V30 6924 O 651.372 -1.70824 0.607346 0
M  V30 6925 C 651.42 0.118269 3.60406 0
M  V30 6926 O 650.524 -0.916859 4.02079 0
M  V30 6927 H 649.865 0.0990981 0.656563 0
M  V30 6928 H 652.395 0.907958 1.8335 0
M  V30 6929 H 652.405 -0.0619981 4.07953 0
M  V30 6930 H 651.08 1.08849 4.01403 0
M  V30 6931 H 649.657 -0.708635 3.66105 0
M  V30 6932 N 651.842 -1.52309 0.404946 0
M  V30 6933 C 653.072 -2.05886 -0.171569 0
M  V30 6934 C 653.48 -1.27527 -1.39762 0
M  V30 6935 O 652.823 -0.319215 -1.80905 0
M  V30 6936 C 652.885 -3.54609 -0.590983 0
M  V30 6937 C 652.549 -4.53989 0.523757 0
M  V30 6938 C 653.546 -5.01084 1.38604 0
M  V30 6939 C 651.231 -4.97465 0.695255 0
M  V30 6940 C 653.225 -5.90295 2.4048 0
M  V30 6941 C 650.912 -5.86473 1.71733 0
M  V30 6942 C 651.91 -6.32782 2.57051 0
M  V30 6943 O 651.598 -7.20029 3.57509 0
M  V30 6944 H 651.33 -0.675508 -0.0257763 0
M  V30 6945 H 653.884 -1.97238 0.573278 0
M  V30 6946 H 652.114 -3.60929 -1.38805 0
M  V30 6947 H 653.803 -3.90853 -1.09494 0
M  V30 6948 H 654.569 -4.68214 1.26492 0
M  V30 6949 H 650.448 -4.60982 0.0408447 0
M  V30 6950 H 653.992 -6.26363 3.07108 0
M  V30 6951 H 649.889 -6.18756 1.83877 0
M  V30 6952 H 650.657 -7.3813 3.53703 0
M  V30 6953 N 653.32 -0.135238 -1.57019 0
M  V30 6954 C 654.267 0.808908 -2.1616 0
M  V30 6955 C 655.237 1.25234 -1.09113 0
M  V30 6956 O 656.422 1.32697 -1.37099 0
M  V30 6957 C 653.562 2.04729 -2.77813 0
M  V30 6958 C 652.675 1.65074 -3.99218 0
M  V30 6959 C 651.81 2.84002 -4.48906 0
M  V30 6960 C 650.849 2.40663 -5.62803 0
M  V30 6961 N 649.986 3.5256 -6.07162 0
M  V30 6962 H 654.826 0.297751 -2.96509 0
M  V30 6963 H 652.363 0.135264 -1.46477 0
M  V30 6964 H 654.321 2.7731 -3.11697 0
M  V30 6965 H 652.951 2.53275 -2.00128 0
M  V30 6966 H 652.003 0.823029 -3.7139 0
M  V30 6967 H 653.315 1.29236 -4.81767 0
M  V30 6968 H 652.469 3.64788 -4.84783 0
M  V30 6969 H 651.208 3.23076 -3.65339 0
M  V30 6970 H 650.213 1.58314 -5.26514 0
M  V30 6971 H 651.438 2.02687 -6.48147 0
M  V30 6972 H 649.384 3.91278 -5.26534 0
M  V30 6973 H 649.301 3.20699 -6.84608 0
M  V30 6974 H 650.569 4.33738 -6.47682 0
M  V30 6975 N 654.798 1.5699 0.138552 0
M  V30 6976 C 656.044 1.84081 0.85099 0
M  V30 6977 C 656.377 0.718107 1.80435 0
M  V30 6978 O 655.652 -0.277633 1.92508 0
M  V30 6979 C 655.935 3.21699 1.61808 0
M  V30 6980 C 655.788 4.44544 0.685633 0
M  V30 6981 C 657.107 3.5664 2.57868 0
M  V30 6982 H 654.226 0.669592 0.307922 0
M  V30 6983 H 656.868 1.89646 0.11588 0
M  V30 6984 H 655.018 3.17086 2.24474 0
M  V30 6985 H 656.69 4.61248 0.0693179 0
M  V30 6986 H 654.933 4.338 -0.00421993 0
M  V30 6987 H 655.604 5.3746 1.25858 0
M  V30 6988 H 658.08 3.61918 2.05316 0
M  V30 6989 H 656.956 4.53946 3.08584 0
M  V30 6990 H 657.217 2.83036 3.39622 0
M  V30 6991 N 656.276 -0.40816 1.52223 0
M  V30 6992 C 657.553 -1.16807 1.56893 0
M  V30 6993 C 657.933 -2.08169 0.350537 0
M  V30 6994 O 657.281 -2.18684 -0.662536 0
M  V30 6995 C 657.491 -1.94451 2.8981 0
M  V30 6996 C 658.839 -2.50484 3.42845 0
M  V30 6997 O 659.863 -2.0463 2.91556 0
M  V30 6998 O 658.722 -3.34192 4.3241 0
M  V30 6999 H 655.816 -0.533382 0.632007 0
M  V30 7000 H 658.362 -0.414862 1.64551 0
M  V30 7001 H 657.134 -1.27527 3.69936 0
M  V30 7002 H 656.757 -2.76775 2.85449 0
M  V30 7003 N 657.755 -1.42862 -0.66545 0
M  V30 7004 C 658.703 -1.47319 -1.8 0
M  V30 7005 C 659.697 -0.347963 -1.65788 0
M  V30 7006 O 660.903 -0.521406 -1.72283 0
M  V30 7007 H 657.278 -0.461588 -0.593667 0
M  V30 7008 H 659.249 -2.42876 -1.7336 0
M  V30 7009 C 657.998 -1.40152 -3.18203 0
M  V30 7010 H 657.321 -2.26035 -3.2977 0
M  V30 7011 H 658.761 -1.47331 -3.9758 0
M  V30 7012 C 657.22 -0.117493 -3.36695 0
M  V30 7013 O 657.75 0.826058 -3.93115 0
M  V30 7014 N 655.956 -0.0316218 -2.90583 0
M  V30 7015 H 655.503 -0.800247 -2.44855 0
M  V30 7016 H 655.461 0.826835 -3.03333 0
M  V30 7017 N 659.233 0.902656 -1.29189 0
M  V30 7018 C 660.463 1.68394 -1.19695 0
M  V30 7019 C 660.871 1.87602 0.245384 0
M  V30 7020 O 660.214 1.41084 1.17648 0
M  V30 7021 C 660.276 3.09094 -1.83578 0
M  V30 7022 C 659.94 3.1313 -3.32864 0
M  V30 7023 C 660.937 2.93497 -4.29134 0
M  V30 7024 C 658.622 3.3529 -3.74013 0
M  V30 7025 C 660.616 2.95953 -5.64527 0
M  V30 7026 C 658.303 3.37377 -5.09529 0
M  V30 7027 C 659.301 3.1773 -6.04596 0
M  V30 7028 O 658.989 3.196 -7.37639 0
M  V30 7029 H 658.721 0.532815 -0.416034 0
M  V30 7030 H 661.275 1.1374 -1.71033 0
M  V30 7031 H 659.505 3.65338 -1.26747 0
M  V30 7032 H 661.194 3.69297 -1.68447 0
M  V30 7033 H 661.96 2.76192 -3.98677 0
M  V30 7034 H 657.839 3.49623 -3.00474 0
M  V30 7035 H 661.383 2.80536 -6.38706 0
M  V30 7036 H 657.28 3.54213 -5.39633 0
M  V30 7037 H 658.048 3.35887 -7.46406 0
M  V30 7038 N 660.711 1.11618 1.11262 0
M  V30 7039 C 661.674 0.779447 2.15539 0
M  V30 7040 C 662.674 -0.202081 1.59525 0
M  V30 7041 O 663.864 0.0226356 1.74185 0
M  V30 7042 C 660.996 0.15674 3.40539 0
M  V30 7043 H 662.189 1.70324 2.4684 0
M  V30 7044 H 659.742 0.918298 1.26479 0
M  V30 7045 H 660.477 -0.777186 3.1485 0
M  V30 7046 H 660.262 0.863308 3.82478 0
M  V30 7047 H 661.752 -0.062661 4.17553 0
M  V30 7048 N 662.189 -1.289 0.906776 0
M  V30 7049 C 663.437 -1.94883 0.535266 0
M  V30 7050 C 663.758 -1.71784 -0.922791 0
M  V30 7051 O 663.028 -1.05359 -1.65156 0
M  V30 7052 H 661.608 -0.721109 0.194962 0
M  V30 7053 H 664.27 -1.57018 1.15461 0
M  V30 7054 H 663.366 -3.03591 0.723821 0
M  V30 7055 N 663.667 -0.670007 -1.42649 0
M  V30 7056 C 664.916 -0.187526 -2.00826 0
M  V30 7057 C 665.229 1.21142 -1.53571 0
M  V30 7058 O 666.435 1.79001 -2.04134 0
M  V30 7059 C 664.891 -0.284409 -3.58774 0
M  V30 7060 C 664.499 -1.6871 -4.15019 0
M  V30 7061 C 666.243 0.139605 -4.2427 0
M  V30 7062 C 664.15 -1.73701 -5.65316 0
M  V30 7063 H 663.08 -0.0663468 -0.751075 0
M  V30 7064 H 665.731 -0.834492 -1.63427 0
M  V30 7065 H 664.113 0.430364 -3.93655 0
M  V30 7066 H 665.287 -2.42857 -3.91608 0
M  V30 7067 H 663.602 -2.05855 -3.61957 0
M  V30 7068 H 666.199 0.122398 -5.3456 0
M  V30 7069 H 666.542 1.17403 -3.99402 0
M  V30 7070 H 667.075 -0.523995 -3.94334 0
M  V30 7071 H 663.814 -2.75109 -5.94975 0
M  V30 7072 H 663.334 -1.03903 -5.90732 0
M  V30 7073 H 665.013 -1.48829 -6.2965 0
M  V30 7074 N 665.145 1.52092 -0.413018 0
M  V30 7075 C 666.092 2.27119 0.410558 0
M  V30 7076 C 667.062 1.29692 1.03774 0
M  V30 7077 O 668.247 1.58561 1.06128 0
M  V30 7078 C 665.387 3.09863 1.51918 0
M  V30 7079 C 664.5 4.22252 0.912528 0
M  V30 7080 C 663.635 4.92348 1.99417 0
M  V30 7081 C 662.674 5.96694 1.36466 0
M  V30 7082 N 661.811 6.60292 2.38661 0
M  V30 7083 H 666.651 2.97067 -0.235661 0
M  V30 7084 H 664.188 1.46542 -0.128055 0
M  V30 7085 H 666.146 3.56144 2.17295 0
M  V30 7086 H 664.776 2.42078 2.13537 0
M  V30 7087 H 663.828 3.80113 0.147697 0
M  V30 7088 H 665.14 4.9709 0.412717 0
M  V30 7089 H 664.294 5.42054 2.72512 0
M  V30 7090 H 663.033 4.17087 2.52764 0
M  V30 7091 H 662.038 5.46304 0.61906 0
M  V30 7092 H 663.263 6.73899 0.838827 0
M  V30 7093 H 661.209 5.87858 2.91134 0
M  V30 7094 H 661.126 7.30816 1.93503 0
M  V30 7095 H 662.394 7.14635 3.11314 0
M  V30 7096 N 666.623 0.143563 1.56945 0
M  V30 7097 C 667.851 -0.515447 2.00377 0
M  V30 7098 C 668.266 -1.58643 1.02361 0
M  V30 7099 O 667.623 -1.82489 0.0201039 0
M  V30 7100 C 667.674 -1.11923 3.43737 0
M  V30 7101 O 667.395 -0.0910318 4.38005 0
M  V30 7102 C 668.896 -1.85918 4.02429 0
M  V30 7103 H 666.116 -0.134478 0.657386 0
M  V30 7104 H 668.66 0.237135 2.0312 0
M  V30 7105 H 666.815 -1.82245 3.41856 0
M  V30 7106 H 667.229 -0.532916 5.21786 0
M  V30 7107 H 668.703 -2.2346 5.04747 0
M  V30 7108 H 669.18 -2.7438 3.42947 0
M  V30 7109 H 669.786 -1.20303 4.07931 0
M  V30 7110 N 668.101 -1.57061 -0.130224 0
M  V30 7111 C 669.326 -1.88802 -0.858409 0
M  V30 7112 C 669.751 -0.734353 -1.73173 0
M  V30 7113 O 669.109 0.315529 -1.78533 0
M  V30 7114 C 669.157 -3.19228 -1.67708 0
M  V30 7115 O 668.261 -3.04343 -2.78297 0
M  V30 7116 H 667.602 -0.619849 -0.238083 0
M  V30 7117 H 670.132 -2.04271 -0.115995 0
M  V30 7118 H 670.142 -3.51669 -2.06864 0
M  V30 7119 H 668.817 -4.02793 -1.0359 0
M  V30 7120 H 667.394 -2.83346 -2.42425 0
M  V30 7121 N 669.579 0.400081 -1.52437 0
M  V30 7122 C 670.995 0.739359 -1.41441 0
M  V30 7123 C 671.195 1.94512 -0.526053 0
M  V30 7124 O 670.251 2.525 0.00472502 0
M  V30 7125 C 671.564 0.984824 -2.84116 0
M  V30 7126 C 673.112 1.08698 -2.93519 0
M  V30 7127 C 673.587 1.36515 -4.37181 0
M  V30 7128 N 675.078 1.43361 -4.40457 0
M  V30 7129 C 675.813 1.66528 -5.48686 0
M  V30 7130 N 675.309 1.87239 -6.67018 0
M  V30 7131 N 677.102 1.68617 -5.36213 0
M  V30 7132 H 669.253 -0.393484 -2.08723 0
M  V30 7133 H 671.516 -0.1138 -0.941145 0
M  V30 7134 H 671.222 0.171096 -3.51284 0
M  V30 7135 H 671.096 1.90253 -3.25705 0
M  V30 7136 H 673.483 1.89129 -2.26526 0
M  V30 7137 H 673.564 0.147432 -2.55375 0
M  V30 7138 H 673.208 0.565982 -5.04737 0
M  V30 7139 H 673.138 2.31737 -4.7287 0
M  V30 7140 H 675.629 1.29108 -3.55161 0
M  V30 7141 H 675.942 2.04392 -7.45281 0
M  V30 7142 H 674.287 1.84486 -6.70067 0
M  V30 7143 H 677.478 1.5198 -4.42741 0
M  V30 7144 H 677.651 1.86332 -6.20632 0
M  V30 7145 N 671.057 1.43213 0.657864 0
M  V30 7146 C 671.967 1.50448 1.80007 0
M  V30 7147 C 672.983 0.39191 1.69529 0
M  V30 7148 O 674.159 0.645349 1.90781 0
M  V30 7149 C 671.224 1.42062 3.16258 0
M  V30 7150 C 670.285 2.63951 3.38568 0
M  V30 7151 C 669.518 2.55956 4.68318 0
M  V30 7152 O 669.741 1.60473 5.47361 0
M  V30 7153 O 668.675 3.46378 4.92245 0
M  V30 7154 H 672.501 2.4689 1.76858 0
M  V30 7155 H 670.086 1.25163 0.81576 0
M  V30 7156 H 671.968 1.3981 3.97531 0
M  V30 7157 H 670.643 0.487524 3.20008 0
M  V30 7158 H 669.55 2.71776 2.57077 0
M  V30 7159 H 670.883 3.56217 3.39662 0
M  V30 7160 N 672.536 -0.895792 1.29666 0
M  V30 7161 C 673.782 -1.64908 1.18039 0
M  V30 7162 C 674.115 -1.9236 -0.266682 0
M  V30 7163 O 673.39 -1.53682 -1.19214 0
M  V30 7164 C 673.673 -2.99574 1.99819 0
M  V30 7165 C 673.526 -2.79163 3.52687 0
M  V30 7166 C 674.845 -4.00358 1.82761 0
M  V30 7167 H 671.964 -0.598437 0.430165 0
M  V30 7168 H 674.606 -1.03736 1.59182 0
M  V30 7169 H 672.756 -3.51786 1.64859 0
M  V30 7170 H 674.428 -2.33821 3.9765 0
M  V30 7171 H 672.671 -2.13871 3.77414 0
M  V30 7172 H 673.342 -3.74871 4.05186 0
M  V30 7173 H 675.818 -3.57268 2.13304 0
M  V30 7174 H 674.694 -4.92514 2.42325 0
M  V30 7175 H 674.955 -4.35096 0.783839 0
M  V30 7176 N 674.014 -1.12206 -1.10668 0
M  V30 7177 C 675.425 -0.890657 -1.64086 0
M  V30 7178 C 675.776 0.575502 -1.8757 0
M  V30 7179 O 674.901 1.4394 -1.61587 0
M  V30 7180 C 675.496 -1.61029 -2.98085 0
M  V30 7181 C 674.055 -1.4251 -3.48379 0
M  V30 7182 C 673.202 -1.64778 -2.23033 0
M  V30 7183 H 676.153 -1.27718 -0.94201 0
M  V30 7184 H 676.174 -1.05993 -3.65439 0
M  V30 7185 H 675.686 -2.67735 -2.80962 0
M  V30 7186 H 673.787 -0.380497 -3.70652 0
M  V30 7187 H 673.9 -2.17959 -4.26651 0
M  V30 7188 H 672.264 -1.07171 -2.31055 0
M  V30 7189 H 673.047 -2.72776 -2.08443 0
M  V30 7190 N 675.492 1.28418 -0.913599 0
M  V30 7191 C 676.425 2.25557 -0.346328 0
M  V30 7192 C 677.403 1.53038 0.549366 0
M  V30 7193 O 678.587 1.81937 0.493055 0
M  V30 7194 C 675.714 3.34915 0.504961 0
M  V30 7195 C 674.76 4.25257 -0.325334 0
M  V30 7196 S 675.593 5.06718 -1.73198 0
M  V30 7197 C 676.749 6.19569 -0.887988 0
M  V30 7198 H 676.982 2.73325 -1.16965 0
M  V30 7199 H 674.515 1.36855 -0.714841 0
M  V30 7200 H 676.473 3.98376 0.990301 0
M  V30 7201 H 675.134 2.85814 1.30267 0
M  V30 7202 H 674.327 5.02947 0.325589 0
M  V30 7203 H 673.929 3.66519 -0.744321 0
M  V30 7204 H 676.221 6.77398 -0.117568 0
M  V30 7205 H 677.164 6.88908 -1.63742 0
M  V30 7206 H 677.572 5.62812 -0.436228 0
M  V30 7207 N 676.97 0.677563 1.42291 0
M  V30 7208 C 678.2 0.209155 2.05539 0
M  V30 7209 C 678.608 -1.13987 1.51009 0
M  V30 7210 O 677.951 -1.71976 0.645764 0
M  V30 7211 C 678.013 0.0697758 3.59432 0
M  V30 7212 C 677.677 1.34795 4.36668 0
M  V30 7213 C 678.674 2.28201 4.67141 0
M  V30 7214 C 676.359 1.59632 4.76259 0
M  V30 7215 C 678.353 3.44718 5.36142 0
M  V30 7216 C 676.04 2.76437 5.45 0
M  V30 7217 C 677.038 3.68805 5.74867 0
M  V30 7218 O 676.726 4.83567 6.42198 0
M  V30 7219 H 676.458 0.0986202 0.668768 0
M  V30 7220 H 679.012 0.925483 1.83368 0
M  V30 7221 H 677.242 -0.702157 3.80272 0
M  V30 7222 H 678.931 -0.359115 4.04308 0
M  V30 7223 H 679.697 2.10264 4.37052 0
M  V30 7224 H 675.576 0.886073 4.52404 0
M  V30 7225 H 679.12 4.16833 5.59371 0
M  V30 7226 H 675.017 2.94299 5.74507 0
M  V30 7227 H 675.785 4.83147 6.6069 0
M  V30 7228 N 678.448 -1.51871 0.421078 0
M  V30 7229 C 679.38 -2.25052 -0.434065 0
M  V30 7230 C 680.393 -1.28458 -1.00013 0
M  V30 7231 O 681.582 -1.54323 -0.897033 0
M  V30 7232 C 678.682 -2.97813 -1.61743 0
M  V30 7233 C 677.855 -4.21374 -1.17315 0
M  V30 7234 C 676.914 -4.76854 -2.22478 0
M  V30 7235 O 675.94 -5.39123 -1.82577 0
M  V30 7236 N 677.142 -4.59467 -3.54782 0
M  V30 7237 H 679.907 -2.99077 0.193073 0
M  V30 7238 H 677.468 -1.59972 0.249088 0
M  V30 7239 H 679.46 -3.3182 -2.31685 0
M  V30 7240 H 678.03 -2.26899 -2.15024 0
M  V30 7241 H 677.25 -3.93046 -0.3014 0
M  V30 7242 H 678.538 -5.01591 -0.853444 0
M  V30 7243 H 677.936 -4.09832 -3.89941 0
M  V30 7244 H 676.493 -4.9788 -4.20665 0
M  V30 7245 N 679.926 -0.151884 -1.56866 0
M  V30 7246 C 681.151 0.508044 -2.01081 0
M  V30 7247 C 681.576 1.57306 -1.03134 0
M  V30 7248 O 680.934 1.81298 -0.0078309 0
M  V30 7249 C 680.982 1.08106 -3.44014 0
M  V30 7250 O 680.086 2.19577 -3.49084 0
M  V30 7251 H 679.427 0.123757 -0.652365 0
M  V30 7252 H 681.957 -0.250055 -2.03066 0
M  V30 7253 H 681.967 1.40851 -3.82916 0
M  V30 7254 H 680.642 0.301168 -4.14808 0
M  V30 7255 H 679.219 1.88023 -3.22027 0
M  V30 7256 N 681.404 1.57128 0.121893 0
M  V30 7257 C 682.334 2.03165 1.15092 0
M  V30 7258 C 683.315 0.915587 1.43356 0
M  V30 7259 O 684.5 1.1851 1.53847 0
M  V30 7260 C 681.63 2.43352 2.47784 0
M  V30 7261 C 680.584 3.58376 2.33989 0
M  V30 7262 C 679.91 3.84454 3.71617 0
M  V30 7263 C 681.21 4.90199 1.80283 0
M  V30 7264 H 682.904 2.89382 0.768023 0
M  V30 7265 H 680.45 1.39218 0.367998 0
M  V30 7266 H 682.403 2.74163 3.20019 0
M  V30 7267 H 681.127 1.54103 2.87958 0
M  V30 7268 H 679.786 3.2777 1.64202 0
M  V30 7269 H 679.434 2.92414 4.09271 0
M  V30 7270 H 679.134 4.61877 3.6324 0
M  V30 7271 H 680.658 4.17714 4.45362 0
M  V30 7272 H 682.072 5.19565 2.42333 0
M  V30 7273 H 680.469 5.71601 1.82735 0
M  V30 7274 H 681.539 4.78904 0.760184 0
M  V30 7275 N 682.882 -0.391992 1.52647 0
M  V30 7276 C 683.845 -1.46135 1.7657 0
M  V30 7277 C 684.845 -1.47701 0.635698 0
M  V30 7278 O 686.035 -1.48924 0.903728 0
M  V30 7279 C 683.167 -2.85443 1.86374 0
M  V30 7280 H 684.36 -1.26208 2.72051 0
M  V30 7281 H 681.913 -0.623549 1.43323 0
M  V30 7282 H 682.648 -3.10718 0.928685 0
M  V30 7283 H 682.433 -2.85708 2.68539 0
M  V30 7284 H 683.923 -3.62933 2.06566 0
M  V30 7285 N 684.36 -1.4356 -0.65026 0
M  V30 7286 C 685.27 -1.514 -1.79207 0
M  V30 7287 C 686.286 -0.400895 -1.69319 0
M  V30 7288 O 687.462 -0.655458 -1.90436 0
M  V30 7289 C 684.527 -1.43737 -3.155 0
M  V30 7290 C 683.588 -2.65743 -3.37163 0
M  V30 7291 C 682.821 -2.58436 -4.66954 0
M  V30 7292 O 683.044 -1.63374 -5.46503 0
M  V30 7293 O 681.978 -3.48984 -4.90402 0
M  V30 7294 H 685.804 -2.47825 -1.75547 0
M  V30 7295 H 683.389 -1.25594 -0.809111 0
M  V30 7296 H 685.271 -1.41916 -3.96784 0
M  V30 7297 H 683.946 -0.504488 -3.19745 0
M  V30 7298 H 682.853 -2.73136 -2.55632 0
M  V30 7299 H 684.186 -3.58014 -3.37768 0
M  V30 7300 N 685.838 0.888903 -1.30139 0
M  V30 7301 C 687.063 1.67884 -1.21777 0
M  V30 7302 C 687.488 1.86848 0.216689 0
M  V30 7303 O 686.846 1.39659 1.15608 0
M  V30 7304 C 686.894 3.03483 -1.94757 0
M  V30 7305 O 685.998 3.92294 -1.27198 0
M  V30 7306 H 685.339 0.513144 -0.421402 0
M  V30 7307 H 687.869 1.10968 -1.71893 0
M  V30 7308 H 687.879 3.53553 -2.03627 0
M  V30 7309 H 686.554 2.89 -2.99085 0
M  V30 7310 H 685.131 3.50732 -1.26655 0
M  V30 7311 N 687.317 1.12792 1.10072 0
M  V30 7312 C 688.247 0.821688 2.18565 0
M  V30 7313 C 689.228 -0.21612 1.68721 0
M  V30 7314 O 690.413 -0.0764932 1.94049 0
M  V30 7315 C 687.543 0.279624 3.46172 0
M  V30 7316 C 686.497 1.25092 4.09312 0
M  V30 7317 C 685.823 0.568916 5.31665 0
M  V30 7318 C 687.123 2.60699 4.52585 0
M  V30 7319 H 688.817 1.72888 2.44438 0
M  V30 7320 H 686.363 0.832702 1.17482 0
M  V30 7321 H 688.316 0.053099 4.21367 0
M  V30 7322 H 687.04 -0.662929 3.19801 0
M  V30 7323 H 685.699 1.46332 3.36129 0
M  V30 7324 H 685.347 -0.378898 5.01571 0
M  V30 7325 H 685.047 1.21687 5.74862 0
M  V30 7326 H 686.571 0.351517 6.09587 0
M  V30 7327 H 687.985 2.43465 5.19035 0
M  V30 7328 H 686.382 3.21608 5.06644 0
M  V30 7329 H 687.452 3.1886 3.65317 0
M  V30 7330 N 688.795 -1.27931 0.920396 0
M  V30 7331 C 689.743 -2.29061 0.404191 0
M  V30 7332 C 690.737 -1.61615 -0.507634 0
M  V30 7333 O 691.943 -1.75765 -0.388144 0
M  V30 7334 H 688.318 -0.743594 0.112123 0
M  V30 7335 H 690.289 -2.70021 1.27008 0
M  V30 7336 C 689.038 -3.46088 -0.334466 0
M  V30 7337 H 688.361 -3.98194 0.35797 0
M  V30 7338 H 689.801 -4.18829 -0.660196 0
M  V30 7339 C 688.26 -2.99396 -1.54479 0
M  V30 7340 O 688.79 -3.02439 -2.64374 0
M  V30 7341 N 686.996 -2.54978 -1.39408 0
M  V30 7342 H 686.543 -2.52701 -0.500009 0
M  V30 7343 H 686.501 -2.24098 -2.20516 0
M  V30 7344 N 690.273 -0.685099 -1.4193 0
M  V30 7345 C 691.203 -0.0273506 -2.33484 0
M  V30 7346 C 692.184 0.778366 -1.51246 0
M  V30 7347 O 693.369 0.733449 -1.79817 0
M  V30 7348 C 690.499 0.917272 -3.34968 0
M  V30 7349 C 689.453 0.21941 -4.27437 0
M  V30 7350 C 688.779 1.27768 -5.1921 0
M  V30 7351 C 690.079 -0.907894 -5.14349 0
M  V30 7352 H 691.773 -0.791994 -2.88735 0
M  V30 7353 H 689.319 -0.382308 -1.38832 0
M  V30 7354 H 691.272 1.38657 -3.97935 0
M  V30 7355 H 689.996 1.71346 -2.78043 0
M  V30 7356 H 688.655 -0.229757 -3.65879 0
M  V30 7357 H 688.303 2.06612 -4.58607 0
M  V30 7358 H 688.003 0.815803 -5.81909 0
M  V30 7359 H 689.527 1.7477 -5.85054 0
M  V30 7360 H 690.941 -0.519348 -5.70943 0
M  V30 7361 H 689.338 -1.2962 -5.85934 0
M  V30 7362 H 690.408 -1.75218 -4.52136 0
M  V30 7363 N 691.751 1.51645 -0.429126 0
M  V30 7364 C 693.162 1.86665 0.0359003 0
M  V30 7365 C 693.513 1.34677 1.42676 0
M  V30 7366 O 692.638 0.694195 2.04963 0
M  V30 7367 C 693.233 3.38724 0.0719221 0
M  V30 7368 C 691.792 3.7331 0.481336 0
M  V30 7369 C 690.939 2.75313 -0.331329 0
M  V30 7370 H 693.89 1.44987 -0.645333 0
M  V30 7371 H 693.911 3.7011 0.883118 0
M  V30 7372 H 693.423 3.76532 -0.940495 0
M  V30 7373 H 691.524 3.41088 1.49966 0
M  V30 7374 H 691.637 4.78631 0.211837 0
M  V30 7375 H 690.001 2.53839 0.209204 0
M  V30 7376 H 690.784 3.15963 -1.34247 0
M  V30 7377 N 693.229 0.160201 1.56784 0
M  V30 7378 C 694.192 -0.760405 2.16219 0
M  V30 7379 C 695.192 -1.16595 1.10735 0
M  V30 7380 O 696.382 -1.08472 1.36306 0
M  V30 7381 C 693.514 -2.03358 2.73603 0
M  V30 7382 H 694.707 -0.243173 2.98912 0
M  V30 7383 H 692.26 -0.0893139 1.56045 0
M  V30 7384 H 692.995 -2.59416 1.94612 0
M  V30 7385 H 692.78 -1.75186 3.50788 0
M  V30 7386 H 694.27 -2.69081 3.19351 0
M  V30 7387 N 694.707 -1.5719 -0.113559 0
M  V30 7388 C 695.953 -1.85412 -0.821597 0
M  V30 7389 C 696.286 -0.746722 -1.7927 0
M  V30 7390 O 695.561 0.246971 -1.92926 0
M  V30 7391 C 695.844 -3.24233 -1.56669 0
M  V30 7392 C 695.697 -4.45578 -0.614823 0
M  V30 7393 C 697.016 -3.60697 -2.52161 0
M  V30 7394 H 694.135 -0.674406 -0.29723 0
M  V30 7395 H 696.777 -1.89807 -0.085694 0
M  V30 7396 H 694.927 -3.20617 -2.19401 0
M  V30 7397 H 696.599 -4.613 0.00407137 0
M  V30 7398 H 694.842 -4.33738 0.0732332 0
M  V30 7399 H 695.513 -5.39395 -1.17292 0
M  V30 7400 H 697.989 -3.65139 -1.99532 0
M  V30 7401 H 696.865 -4.58798 -3.01323 0
M  V30 7402 H 697.126 -2.88403 -3.35076 0
M  V30 7403 N 696.185 0.383891 -1.52853 0
M  V30 7404 C 697.148 1.45197 -1.77343 0
M  V30 7405 C 698.148 1.47362 -0.643522 0
M  V30 7406 O 699.338 1.48443 -0.911613 0
M  V30 7407 C 696.47 2.8445 -1.87885 0
M  V30 7408 H 697.663 1.24764 -2.72716 0
M  V30 7409 H 695.216 0.615939 -1.43652 0
M  V30 7410 H 695.951 3.10222 -0.94515 0
M  V30 7411 H 695.736 2.8428 -2.70051 0
M  V30 7412 H 697.226 3.61832 -2.08488 0
M  V30 7413 N 697.663 1.43903 0.642637 0
M  V30 7414 C 698.891 1.4954 1.42988 0
M  V30 7415 C 699.306 0.116588 1.8844 0
M  V30 7416 O 698.663 -0.875285 1.60141 0
M  V30 7417 C 698.714 2.45031 2.65785 0
M  V30 7418 O 698.435 3.77551 2.22232 0
M  V30 7419 C 699.936 2.60017 3.59035 0
M  V30 7420 H 697.156 0.507544 0.438907 0
M  V30 7421 H 699.7 1.88752 0.786942 0
M  V30 7422 H 697.855 2.08985 3.26196 0
M  V30 7423 H 698.269 4.29001 3.01759 0
M  V30 7424 H 699.743 3.30887 4.41835 0
M  V30 7425 H 700.22 1.64861 4.07084 0
M  V30 7426 H 700.826 2.96918 3.045 0
M  V30 7427 N 699.141 -0.881989 1.30609 0
M  V30 7428 C 700.387 -1.63647 1.19781 0
M  V30 7429 C 700.72 -1.92632 -0.246265 0
M  V30 7430 O 699.995 -1.54938 -1.17577 0
M  V30 7431 C 700.278 -2.97437 2.02985 0
M  V30 7432 C 700.131 -2.75406 3.55628 0
M  V30 7433 C 701.45 -3.98397 1.86997 0
M  V30 7434 H 698.569 -0.593841 0.436488 0
M  V30 7435 H 701.211 -1.02041 1.60273 0
M  V30 7436 H 699.361 -3.50018 1.68581 0
M  V30 7437 H 701.033 -2.2959 4.00107 0
M  V30 7438 H 699.276 -2.09856 3.79662 0
M  V30 7439 H 699.947 -3.70552 4.09139 0
M  V30 7440 H 702.423 -3.54986 2.17081 0
M  V30 7441 H 701.299 -4.89916 2.47536 0
M  V30 7442 H 701.56 -4.3424 0.829943 0
M  V30 7443 N 700.619 -1.13374 -1.09472 0
M  V30 7444 C 701.567 -0.806105 -2.18185 0
M  V30 7445 C 702.561 0.21136 -1.68076 0
M  V30 7446 O 703.767 0.0685558 -1.79869 0
M  V30 7447 H 700.142 -0.242901 -0.71169 0
M  V30 7448 H 702.113 -1.73115 -2.43051 0
M  V30 7449 C 700.862 -0.287928 -3.46506 0
M  V30 7450 H 700.185 -1.06217 -3.85432 0
M  V30 7451 H 701.625 -0.0971054 -4.23889 0
M  V30 7452 C 700.084 0.986256 -3.22141 0
M  V30 7453 O 700.614 2.06217 -3.44728 0
M  V30 7454 N 698.82 0.917153 -2.75747 0
M  V30 7455 H 698.367 0.0414609 -2.57567 0
M  V30 7456 H 698.325 1.77029 -2.59823 0
M  V30 7457 N 702.098 1.27442 -0.927168 0
M  V30 7458 C 703.375 1.89473 -0.485742 0
M  V30 7459 C 703.755 1.83922 1.03614 0
M  V30 7460 O 703.103 1.28409 1.89007 0
M  V30 7461 C 703.313 3.33417 -1.03123 0
M  V30 7462 C 704.661 4.10333 -1.0914 0
M  V30 7463 O 705.685 3.4243 -0.98082 0
M  V30 7464 O 704.544 5.31737 -1.26165 0
M  V30 7465 H 701.638 0.812124 -0.156154 0
M  V30 7466 H 704.184 1.35713 -1.01882 0
M  V30 7467 H 702.956 3.31747 -2.07508 0
M  V30 7468 H 702.579 3.94695 -0.479767 0
M  V30 7469 N 703.576 0.692616 1.41565 0
M  V30 7470 C 704.506 0.0397325 2.33466 0
M  V30 7471 C 705.487 -0.770334 1.51657 0
M  V30 7472 O 706.672 -0.723903 1.80203 0
M  V30 7473 C 703.802 -0.899495 3.3545 0
M  V30 7474 C 702.756 -0.196738 4.27548 0
M  V30 7475 C 702.082 -1.25012 5.19881 0
M  V30 7476 C 703.382 0.935158 5.1386 0
M  V30 7477 H 705.076 0.807296 2.88311 0
M  V30 7478 H 702.622 0.389665 1.38628 0
M  V30 7479 H 704.575 -1.36545 3.98665 0
M  V30 7480 H 703.299 -1.69869 2.78948 0
M  V30 7481 H 701.958 0.249158 3.65752 0
M  V30 7482 H 701.606 -2.04177 4.59696 0
M  V30 7483 H 701.306 -0.784931 5.82334 0
M  V30 7484 H 702.83 -1.71665 5.85972 0
M  V30 7485 H 704.244 0.549619 5.70659 0
M  V30 7486 H 702.641 1.32726 5.85238 0
M  V30 7487 H 703.711 1.77613 4.512 0
M  V30 7488 N 705.054 -1.51416 0.437162 0
M  V30 7489 C 706.302 -2.01687 -0.129108 0
M  V30 7490 C 706.623 -1.32329 -1.43227 0
M  V30 7491 O 705.893 -0.457796 -1.90476 0
M  V30 7492 H 704.473 -0.745277 -0.0507023 0
M  V30 7493 H 707.135 -1.86075 0.579828 0
M  V30 7494 H 706.231 -3.10605 -0.305141 0
M  V30 7495 N 706.532 -0.168513 -1.56696 0
M  V30 7496 C 707.778 0.477865 -1.9709 0
M  V30 7497 C 708.111 1.63084 -1.05438 0
M  V30 7498 O 707.386 1.94238 -0.10095 0
M  V30 7499 C 707.669 0.963521 -3.4697 0
M  V30 7500 C 707.522 -0.189443 -4.49401 0
M  V30 7501 C 708.841 1.83813 -3.99876 0
M  V30 7502 H 705.96 0.172229 -0.716593 0
M  V30 7503 H 708.602 -0.254083 -1.88293 0
M  V30 7504 H 706.752 1.58724 -3.54597 0
M  V30 7505 H 708.424 -0.826451 -4.53836 0
M  V30 7506 H 706.667 -0.845366 -4.25483 0
M  V30 7507 H 707.338 0.192446 -5.51664 0
M  V30 7508 H 709.814 1.31235 -3.94863 0
M  V30 7509 H 708.69 2.14697 -5.0517 0
M  V30 7510 H 708.951 2.78289 -3.43523 0
M  V30 7511 N 708.01 1.57248 0.105221 0
M  V30 7512 C 709.287 1.76566 0.841647 0
M  V30 7513 C 709.667 0.747566 1.9742 0
M  V30 7514 O 709.015 -0.225886 2.27381 0
M  V30 7515 C 709.225 3.22016 1.3456 0
M  V30 7516 C 710.573 3.84911 1.79244 0
M  V30 7517 O 711.597 3.25703 1.44207 0
M  V30 7518 O 710.456 4.89008 2.43995 0
M  V30 7519 H 707.55 0.723443 0.400698 0
M  V30 7520 H 710.096 1.69472 0.0878893 0
M  V30 7521 H 708.868 3.87644 0.533685 0
M  V30 7522 H 708.491 3.33703 2.16167 0
M  V30 7523 N 709.488 -0.375779 1.53054 0
M  V30 7524 C 710.435 -1.45978 1.78771 0
M  V30 7525 C 711.405 -1.53625 0.631552 0
M  V30 7526 O 712.59 -1.69674 0.872667 0
M  V30 7527 C 709.73 -2.8305 1.97425 0
M  V30 7528 C 708.843 -2.84451 3.25134 0
M  V30 7529 C 707.978 -4.13034 3.34031 0
M  V30 7530 C 707.017 -4.08536 4.55812 0
M  V30 7531 N 706.154 -5.2875 4.61918 0
M  V30 7532 H 710.994 -1.23349 2.71273 0
M  V30 7533 H 708.531 -0.598147 1.3439 0
M  V30 7534 H 710.489 -3.62666 2.06225 0
M  V30 7535 H 709.119 -3.04101 1.0827 0
M  V30 7536 H 708.171 -1.97127 3.25338 0
M  V30 7537 H 709.483 -2.76998 4.14818 0
M  V30 7538 H 708.637 -5.0106 3.42087 0
M  V30 7539 H 707.376 -4.23226 2.42345 0
M  V30 7540 H 706.381 -3.18897 4.47867 0
M  V30 7541 H 707.606 -3.99955 5.48828 0
M  V30 7542 H 705.552 -5.39547 3.73129 0
M  V30 7543 H 705.469 -5.23426 5.45492 0
M  V30 7544 H 706.737 -6.18637 4.74245 0
M  V30 7545 N 710.966 -1.44241 -0.634997 0
M  V30 7546 C 711.929 -1.50457 -1.72903 0
M  V30 7547 C 712.929 -0.387058 -1.56072 0
M  V30 7548 O 714.119 -0.649531 -1.61638 0
M  V30 7549 C 711.251 -1.37477 -3.1195 0
M  V30 7550 H 712.444 -2.47907 -1.68767 0
M  V30 7551 H 709.997 -1.31276 -0.84831 0
M  V30 7552 H 710.732 -0.41106 -3.21684 0
M  V30 7553 H 710.517 -2.18506 -3.25573 0
M  V30 7554 H 712.007 -1.44799 -3.91692 0
M  V30 7555 N 712.444 0.87505 -1.31075 0
M  V30 7556 C 713.691 1.62768 -1.20469 0
M  V30 7557 C 714.019 1.93034 0.23834 0
M  V30 7558 O 713.274 1.55693 1.18567 0
M  V30 7559 C 713.573 2.96948 -1.98888 0
M  V30 7560 C 713.239 2.86195 -3.4843 0
M  V30 7561 C 711.901 2.82969 -3.89207 0
M  V30 7562 C 714.253 2.73599 -4.43614 0
M  V30 7563 C 711.581 2.64999 -5.23443 0
M  V30 7564 C 713.933 2.57166 -5.77969 0
M  V30 7565 C 712.597 2.52321 -6.17973 0
M  V30 7566 H 711.867 0.595611 -0.440827 0
M  V30 7567 H 714.514 1.01665 -1.62285 0
M  V30 7568 H 712.819 3.62058 -1.49737 0
M  V30 7569 H 714.516 3.54164 -1.88067 0
M  V30 7570 H 711.106 2.8952 -3.16032 0
M  V30 7571 H 715.29 2.7515 -4.13045 0
M  V30 7572 H 710.546 2.5967 -5.53517 0
M  V30 7573 H 714.72 2.46396 -6.51354 0
M  V30 7574 H 712.347 2.38156 -7.21932 0
M  V30 7575 N 713.922 1.13953 1.08869 0
M  V30 7576 C 714.832 0.835666 2.19212 0
M  V30 7577 C 715.848 -0.182005 1.73045 0
M  V30 7578 O 717.024 -0.0116661 2.01397 0
M  V30 7579 C 714.089 0.312325 3.4529 0
M  V30 7580 C 713.15 1.39196 4.06107 0
M  V30 7581 C 712.383 0.893496 5.26168 0
M  V30 7582 O 712.606 -0.266807 5.69776 0
M  V30 7583 O 711.54 1.67037 5.78258 0
M  V30 7584 H 715.366 1.75769 2.47667 0
M  V30 7585 H 712.951 0.917421 1.17914 0
M  V30 7586 H 714.833 0.0261582 4.21392 0
M  V30 7587 H 713.508 -0.582042 3.18424 0
M  V30 7588 H 712.415 1.73152 3.31616 0
M  V30 7589 H 713.748 2.26068 4.37212 0
M  V30 7590 N 715.4 -1.26948 0.933913 0
M  V30 7591 C 716.363 -2.24889 0.442457 0
M  V30 7592 C 717.363 -1.54594 -0.442426 0
M  V30 7593 O 718.553 -1.72502 -0.242629 0
M  V30 7594 C 715.685 -3.3896 -0.363173 0
M  V30 7595 H 716.878 -2.69879 1.30787 0
M  V30 7596 H 714.431 -1.38978 0.715187 0
M  V30 7597 H 715.166 -2.99361 -1.24714 0
M  V30 7598 H 714.951 -3.9116 0.271366 0
M  V30 7599 H 716.441 -4.11739 -0.697186 0
M  V30 7600 N 716.879 -0.700114 -1.41195 0
M  V30 7601 C 718.127 -0.232546 -2.00758 0
M  V30 7602 C 718.448 1.1734 -1.55745 0
M  V30 7603 O 717.718 1.79262 -0.790058 0
M  V30 7604 H 716.298 -0.0829845 -0.742376 0
M  V30 7605 H 718.96 -0.902289 -1.72756 0
M  V30 7606 H 718.056 -0.253521 -3.11069 0
M  V30 7607 N 718.357 1.51182 -0.445186 0
M  V30 7608 C 719.267 2.31692 0.368255 0
M  V30 7609 C 720.283 1.40942 1.02036 0
M  V30 7610 O 721.459 1.74011 1.01401 0
M  V30 7611 C 718.524 3.14903 1.45041 0
M  V30 7612 C 717.585 4.21442 0.817615 0
M  V30 7613 C 716.818 5.00677 1.8482 0
M  V30 7614 O 717.041 4.80644 3.07145 0
M  V30 7615 O 715.975 5.84559 1.43438 0
M  V30 7616 H 719.801 3.0232 -0.289219 0
M  V30 7617 H 717.386 1.47951 -0.207555 0
M  V30 7618 H 719.268 3.66612 2.07783 0
M  V30 7619 H 717.943 2.47031 2.09182 0
M  V30 7620 H 716.85 3.73791 0.151931 0
M  V30 7621 H 718.183 4.9171 0.219564 0
M  V30 7622 N 719.835 0.176821 1.56605 0
M  V30 7623 C 720.782 -0.751312 2.18229 0
M  V30 7624 C 721.752 -1.22297 1.12395 0
M  V30 7625 O 722.937 -1.29015 1.40569 0
M  V30 7626 C 720.077 -1.97291 2.83143 0
M  V30 7627 C 719.19 -1.54431 4.03454 0
M  V30 7628 C 718.325 -2.72 4.56278 0
M  V30 7629 C 717.364 -2.25657 5.68986 0
M  V30 7630 N 716.501 -3.36338 6.16296 0
M  V30 7631 H 721.341 -0.219033 2.97194 0
M  V30 7632 H 718.878 -0.0963803 1.46784 0
M  V30 7633 H 720.836 -2.68949 3.1894 0
M  V30 7634 H 719.466 -2.4788 2.06773 0
M  V30 7635 H 718.518 -0.724273 3.73441 0
M  V30 7636 H 719.83 -1.16417 4.85024 0
M  V30 7637 H 718.984 -3.51806 4.94285 0
M  V30 7638 H 717.723 -3.13277 3.73777 0
M  V30 7639 H 716.728 -1.44299 5.30526 0
M  V30 7640 H 717.953 -1.85432 6.53293 0
M  V30 7641 H 715.899 -3.7718 5.36723 0
M  V30 7642 H 715.816 -3.02435 6.9287 0
M  V30 7643 H 717.084 -4.16413 6.58954 0
M  V30 7644 N 721.313 -1.57302 -0.09688 0
M  V30 7645 C 722.56 -1.85997 -0.800699 0
M  V30 7646 C 722.888 -0.765089 -1.7882 0
M  V30 7647 O 722.143 0.241492 -1.94204 0
M  V30 7648 C 722.442 -3.21272 -1.56586 0
M  V30 7649 C 722.108 -4.45104 -0.72064 0
M  V30 7650 C 720.77 -4.78723 -0.487632 0
M  V30 7651 C 723.122 -5.2103 -0.132948 0
M  V30 7652 C 720.45 -5.85697 0.34296 0
M  V30 7653 C 722.802 -6.28881 0.684957 0
M  V30 7654 C 721.466 -6.61017 0.928073 0
M  V30 7655 H 720.736 -0.680613 -0.292997 0
M  V30 7656 H 723.383 -1.91399 -0.0622474 0
M  V30 7657 H 721.688 -3.11547 -2.37583 0
M  V30 7658 H 723.385 -3.40702 -2.11478 0
M  V30 7659 H 719.975 -4.18777 -0.912359 0
M  V30 7660 H 724.159 -4.95392 -0.300132 0
M  V30 7661 H 719.415 -6.09008 0.540317 0
M  V30 7662 H 723.589 -6.86886 1.14721 0
M  V30 7663 H 721.216 -7.43738 1.57348 0
M  V30 7664 N 722.791 0.367657 -1.53252 0
M  V30 7665 C 724.039 1.10832 -1.68999 0
M  V30 7666 C 724.36 1.89894 -0.443306 0
M  V30 7667 O 723.63 1.88235 0.54262 0
M  V30 7668 H 722.21 0.412153 -0.623008 0
M  V30 7669 H 724.872 0.414775 -1.90435 0
M  V30 7670 H 723.968 1.7993 -2.55013 0
M  V30 7671 N 724.269 1.44576 0.627338 0
M  V30 7672 C 725.199 1.54562 1.75022 0
M  V30 7673 C 726.18 0.398378 1.65369 0
M  V30 7674 O 727.365 0.61899 1.84071 0
M  V30 7675 C 724.495 1.49309 3.13567 0
M  V30 7676 C 723.449 2.62549 3.38012 0
M  V30 7677 C 722.775 2.42348 4.76625 0
M  V30 7678 C 724.075 4.04678 3.30202 0
M  V30 7679 H 725.769 2.4855 1.66922 0
M  V30 7680 H 723.315 1.19624 0.801636 0
M  V30 7681 H 725.268 1.54895 3.919 0
M  V30 7682 H 723.992 0.518392 3.2246 0
M  V30 7683 H 722.651 2.56358 2.62061 0
M  V30 7684 H 722.299 1.43062 4.82226 0
M  V30 7685 H 721.999 3.18273 4.93939 0
M  V30 7686 H 723.523 2.49758 5.57183 0
M  V30 7687 H 724.937 4.12217 3.98435 0
M  V30 7688 H 723.334 4.80836 3.5905 0
M  V30 7689 H 724.404 4.2798 2.27949 0
M  V30 7690 N 725.747 -0.868086 1.31537 0
M  V30 7691 C 726.695 -1.99688 1.1928 0
M  V30 7692 C 727.689 -1.69101 0.100656 0
M  V30 7693 O 728.895 -1.78073 0.262677 0
M  V30 7694 H 725.27 -0.655032 0.369374 0
M  V30 7695 H 727.241 -2.07157 2.14776 0
M  V30 7696 C 725.99 -3.35338 0.918892 0
M  V30 7697 H 725.313 -3.59396 1.75142 0
M  V30 7698 H 726.753 -4.14909 0.873311 0
M  V30 7699 C 725.212 -3.34769 -0.378366 0
M  V30 7700 O 725.742 -3.76716 -1.39456 0
M  V30 7701 N 723.948 -2.87895 -0.39557 0
M  V30 7702 H 723.495 -2.53954 0.431889 0
M  V30 7703 H 723.453 -2.87897 -1.26344 0
M  V30 7704 N 727.225 -1.14528 -1.08264 0
M  V30 7705 C 728.158 -0.777154 -2.14559 0
M  V30 7706 C 729.136 0.242165 -1.60787 0
M  V30 7707 O 730.32 0.130882 -1.88045 0
M  V30 7708 C 727.447 -0.154092 -3.38349 0
M  V30 7709 C 726.493 -1.14382 -4.10876 0
M  V30 7710 S 727.326 -2.68173 -4.63512 0
M  V30 7711 C 728.482 -2.0726 -5.90588 0
M  V30 7712 H 728.715 -1.67748 -2.45454 0
M  V30 7713 H 726.248 -0.966661 -1.20395 0
M  V30 7714 H 728.206 0.19897 -4.10018 0
M  V30 7715 H 726.867 0.723688 -3.05649 0
M  V30 7716 H 726.06 -0.655908 -4.99714 0
M  V30 7717 H 725.662 -1.44095 -3.45127 0
M  V30 7718 H 727.954 -1.42895 -6.62259 0
M  V30 7719 H 728.897 -2.94227 -6.44078 0
M  V30 7720 H 729.305 -1.51935 -5.43669 0
M  V30 7721 N 728.703 1.26451 -0.940633 0
M  V30 7722 C 729.613 2.30128 -0.455881 0
M  V30 7723 C 730.629 1.67536 0.469867 0
M  V30 7724 O 731.805 1.98344 0.349529 0
M  V30 7725 C 728.87 3.45634 0.271648 0
M  V30 7726 C 727.931 4.23709 -0.690594 0
M  V30 7727 C 727.164 5.337 0.00231047 0
M  V30 7728 O 727.387 5.57215 1.21935 0
M  V30 7729 O 726.321 5.98091 -0.676111 0
M  V30 7730 H 730.147 2.73655 -1.31707 0
M  V30 7731 H 727.732 1.3164 -0.706497 0
M  V30 7732 H 729.614 4.15853 0.681486 0
M  V30 7733 H 728.289 3.04138 1.10824 0
M  V30 7734 H 727.196 3.55974 -1.15037 0
M  V30 7735 H 728.529 4.68953 -1.49478 0
M  V30 7736 N 730.181 0.707592 1.40822 0
M  V30 7737 C 731.128 0.0499029 2.30746 0
M  V30 7738 C 732.098 -0.758718 1.47759 0
M  V30 7739 O 733.283 -0.724299 1.76518 0
M  V30 7740 C 730.423 -0.871756 3.33908 0
M  V30 7741 C 729.536 -0.0534655 4.31967 0
M  V30 7742 C 728.671 -0.973869 5.22197 0
M  V30 7743 C 727.71 -0.149194 6.11918 0
M  V30 7744 N 726.847 -1.02404 6.94592 0
M  V30 7745 H 731.687 0.822461 2.86426 0
M  V30 7746 H 729.224 0.417285 1.41057 0
M  V30 7747 H 731.182 -1.42028 3.9228 0
M  V30 7748 H 729.812 -1.61058 2.7975 0
M  V30 7749 H 728.864 0.612142 3.75442 0
M  V30 7750 H 730.176 0.585354 4.95353 0
M  V30 7751 H 729.33 -1.59121 5.85462 0
M  V30 7752 H 728.069 -1.64652 4.59065 0
M  V30 7753 H 727.074 0.481137 5.47691 0
M  V30 7754 H 728.299 0.519841 6.77107 0
M  V30 7755 H 726.245 -1.6825 6.34057 0
M  V30 7756 H 726.162 -0.441076 7.54712 0
M  V30 7757 H 727.43 -1.62782 7.62314 0
M  V30 7758 N 731.66 -1.50943 0.453197 0
M  V30 7759 C 732.906 -2.02512 -0.108082 0
M  V30 7760 C 733.239 -1.33574 -1.40967 0
M  V30 7761 O 732.514 -0.455671 -1.89087 0
M  V30 7762 C 732.797 -3.58759 -0.310453 0
M  V30 7763 C 732.65 -4.38293 1.0109 0
M  V30 7764 C 733.969 -4.26816 -1.07313 0
M  V30 7765 H 731.088 -0.73603 -0.0378064 0
M  V30 7766 H 733.73 -1.80433 0.595295 0
M  V30 7767 H 731.88 -3.77702 -0.909582 0
M  V30 7768 H 733.552 -4.30964 1.64523 0
M  V30 7769 H 731.795 -4.02745 1.61179 0
M  V30 7770 H 732.466 -5.45828 0.82315 0
M  V30 7771 H 734.942 -4.1224 -0.565473 0
M  V30 7772 H 733.818 -5.35989 -1.1835 0
M  V30 7773 H 734.079 -3.88757 -2.10525 0
M  V30 7774 N 733.138 -0.185124 -1.56509 0
M  V30 7775 C 734.415 0.503348 -1.89013 0
M  V30 7776 C 734.795 1.80349 -1.09715 0
M  V30 7777 O 734.143 2.27665 -0.195203 0
M  V30 7778 C 734.353 0.731839 -3.41241 0
M  V30 7779 C 735.701 1.05568 -4.11267 0
M  V30 7780 O 736.725 0.819906 -3.46635 0
M  V30 7781 O 735.584 1.50116 -5.25478 0
M  V30 7782 H 732.678 0.261139 -0.784688 0
M  V30 7783 H 735.224 -0.224592 -1.68207 0
M  V30 7784 H 733.996 -0.18672 -3.90854 0
M  V30 7785 H 733.619 1.5126 -3.67704 0
M  V30 7786 N 734.616 1.57351 0.0885366 0
M  V30 7787 C 736.032 1.53331 0.442916 0
M  V30 7788 C 736.232 0.902831 1.80142 0
M  V30 7789 O 735.288 0.498147 2.47537 0
M  V30 7790 C 736.601 2.98036 0.399372 0
M  V30 7791 C 738.149 3.09286 0.480759 0
M  V30 7792 C 738.624 4.5561 0.467296 0
M  V30 7793 N 740.115 4.60182 0.52786 0
M  V30 7794 C 740.85 5.70857 0.539388 0
M  V30 7795 N 740.346 6.90944 0.506729 0
M  V30 7796 N 742.139 5.59051 0.584691 0
M  V30 7797 H 734.29 1.96709 -0.801215 0
M  V30 7798 H 736.553 0.899639 -0.298922 0
M  V30 7799 H 736.259 3.47656 -0.531806 0
M  V30 7800 H 736.133 3.57066 1.21589 0
M  V30 7801 H 738.52 2.5965 1.40236 0
M  V30 7802 H 738.601 2.53197 -0.364023 0
M  V30 7803 H 738.245 5.05899 -0.450384 0
M  V30 7804 H 738.175 5.09544 1.32938 0
M  V30 7805 H 740.666 3.73757 0.558028 0
M  V30 7806 H 740.979 7.71055 0.518989 0
M  V30 7807 H 739.324 6.93384 0.473675 0
M  V30 7808 H 742.515 4.64138 0.607781 0
M  V30 7809 H 742.688 6.45307 0.590206 0
M  V30 7810 N 736.094 -0.359525 1.53444 0
M  V30 7811 C 737.34 -1.10315 1.70172 0
M  V30 7812 C 737.673 -1.88788 0.455287 0
M  V30 7813 O 736.948 -1.86635 -0.547514 0
M  V30 7814 C 737.231 -2.05744 2.95536 0
M  V30 7815 C 737.084 -1.3084 4.3035 0
M  V30 7816 C 738.403 -3.05784 3.16518 0
M  V30 7817 H 735.522 -0.399662 0.619225 0
M  V30 7818 H 738.164 -0.383338 1.86093 0
M  V30 7819 H 736.314 -2.67125 2.82093 0
M  V30 7820 H 737.986 -0.721959 4.55615 0
M  V30 7821 H 736.229 -0.610283 4.29486 0
M  V30 7822 H 736.9 -2.00718 5.14214 0
M  V30 7823 H 739.376 -2.5451 3.29187 0
M  V30 7824 H 738.252 -3.69772 4.05659 0
M  V30 7825 H 738.513 -3.76289 2.32076 0
M  V30 7826 N 737.572 -1.44907 -0.619662 0
M  V30 7827 C 738.502 -1.55488 -1.742 0
M  V30 7828 C 739.483 -0.407143 -1.65156 0
M  V30 7829 O 740.668 -0.628743 -1.8374 0
M  V30 7830 C 737.798 -1.5097 -3.1277 0
M  V30 7831 C 736.752 -2.64337 -3.36615 0
M  V30 7832 C 736.078 -2.44872 -4.75333 0
M  V30 7833 C 737.378 -4.06423 -3.28051 0
M  V30 7834 H 739.072 -2.49432 -1.65602 0
M  V30 7835 H 736.618 -1.20047 -0.795281 0
M  V30 7836 H 738.571 -1.56971 -3.91073 0
M  V30 7837 H 737.295 -0.535486 -3.2218 0
M  V30 7838 H 735.954 -2.57744 -2.60698 0
M  V30 7839 H 735.602 -1.45617 -4.81461 0
M  V30 7840 H 735.302 -3.20888 -4.92244 0
M  V30 7841 H 736.826 -2.52709 -5.55851 0
M  V30 7842 H 738.24 -4.14324 -3.96243 0
M  V30 7843 H 736.637 -4.82733 -3.56495 0
M  V30 7844 H 737.707 -4.29183 -2.25676 0
M  V30 7845 N 739.05 0.861098 -1.31996 0
M  V30 7846 C 740.298 1.61162 -1.21947 0
M  V30 7847 C 740.619 1.93751 0.220351 0
M  V30 7848 O 739.889 1.59069 1.14341 0
M  V30 7849 H 738.469 0.597485 -0.448353 0
M  V30 7850 H 741.131 1.03039 -1.65436 0
M  V30 7851 H 740.227 2.55138 -1.79752 0
M  V30 7852 N 740.528 1.15101 1.07655 0
M  V30 7853 C 741.774 0.925343 1.80458 0
M  V30 7854 C 742.107 -0.546354 1.86356 0
M  V30 7855 O 741.382 -1.40496 1.34503 0
M  V30 7856 C 741.665 1.53646 3.25676 0
M  V30 7857 C 741.518 3.07854 3.27942 0
M  V30 7858 C 742.837 1.21968 4.22861 0
M  V30 7859 H 739.956 0.337592 0.655134 0
M  V30 7860 H 742.598 1.42217 1.25993 0
M  V30 7861 H 740.748 1.11395 3.72187 0
M  V30 7862 H 742.42 3.58989 2.89697 0
M  V30 7863 H 740.663 3.41904 2.66991 0
M  V30 7864 H 741.334 3.45725 4.30324 0
M  V30 7865 H 743.81 1.5851 3.84726 0
M  V30 7866 H 742.686 1.67349 5.22767 0
M  V30 7867 H 742.947 0.136207 4.4189 0
M  V30 7868 N 742.006 -1.2595 0.947325 0
M  V30 7869 C 742.969 -2.24407 0.466285 0
M  V30 7870 C 743.969 -1.55054 -0.426005 0
M  V30 7871 O 745.159 -1.7275 -0.224319 0
M  V30 7872 C 742.291 -3.39326 -0.327201 0
M  V30 7873 H 743.484 -2.68477 1.33642 0
M  V30 7874 H 741.037 -1.38211 0.729887 0
M  V30 7875 H 741.772 -3.00667 -1.21532 0
M  V30 7876 H 741.557 -3.9085 0.312839 0
M  V30 7877 H 743.047 -4.12455 -0.653477 0
M  V30 7878 N 743.484 -0.715051 -1.40445 0
M  V30 7879 C 744.414 -0.0768699 -2.33373 0
M  V30 7880 C 745.395 0.746109 -1.52863 0
M  V30 7881 O 746.58 0.695142 -1.81332 0
M  V30 7882 C 743.71 0.846014 -3.36838 0
M  V30 7883 C 742.664 0.128694 -4.27806 0
M  V30 7884 C 741.99 1.16726 -5.21804 0
M  V30 7885 C 743.29 -1.01679 -5.12307 0
M  V30 7886 H 744.984 -0.853061 -2.8699 0
M  V30 7887 H 742.53 -0.41167 -1.3799 0
M  V30 7888 H 744.483 1.30185 -4.00786 0
M  V30 7889 H 743.207 1.6541 -2.81615 0
M  V30 7890 H 741.866 -0.307314 -3.6531 0
M  V30 7891 H 741.514 1.96838 -4.62887 0
M  V30 7892 H 741.214 0.692188 -5.83509 0
M  V30 7893 H 742.738 1.62321 -5.88629 0
M  V30 7894 H 744.152 -0.640337 -5.69713 0
M  V30 7895 H 742.549 -1.4202 -5.83053 0
M  V30 7896 H 743.619 -1.84769 -4.48317 0
M  V30 7897 N 744.962 1.50701 -0.461195 0
M  V30 7898 C 746.21 2.01867 0.0970051 0
M  V30 7899 C 746.531 1.34591 1.41104 0
M  V30 7900 O 745.801 0.488041 1.89723 0
M  V30 7901 H 744.381 0.74599 0.0388392 0
M  V30 7902 H 747.043 1.85129 -0.609357 0
M  V30 7903 H 746.139 3.11051 0.255688 0
M  V30 7904 N 746.441 0.193421 1.56409 0
M  V30 7905 C 747.666 -0.454552 2.02358 0
M  V30 7906 C 748.091 -1.54516 1.07268 0
M  V30 7907 O 747.449 -1.81214 0.0558962 0
M  V30 7908 C 747.497 -0.989469 3.46759 0
M  V30 7909 O 746.601 -2.10244 3.54783 0
M  V30 7910 H 745.942 -0.106417 0.655417 0
M  V30 7911 H 748.472 0.303807 2.02332 0
M  V30 7912 H 748.482 -1.30649 3.86516 0
M  V30 7913 H 747.157 -0.191083 4.15461 0
M  V30 7914 H 745.734 -1.79419 3.26899 0
M  V30 7915 N 747.919 -1.57396 -0.0801906 0
M  V30 7916 C 749.167 -1.86467 -0.779384 0
M  V30 7917 C 749.488 -0.784243 -1.78535 0
M  V30 7918 O 748.758 0.187986 -1.94996 0
M  V30 7919 H 747.338 -0.68806 -0.29083 0
M  V30 7920 H 750 -1.94813 -0.0582749 0
M  V30 7921 H 749.096 -2.83701 -1.30078 0
M  V30 7922 N 749.397 0.351382 -1.53633 0
M  V30 7923 C 750.643 1.09411 -1.70754 0
M  V30 7924 C 750.976 1.88544 -0.465293 0
M  V30 7925 O 750.251 1.86923 0.537608 0
M  V30 7926 C 750.534 2.04173 -2.96623 0
M  V30 7927 C 750.387 1.28556 -4.31038 0
M  V30 7928 C 751.706 3.04102 -3.18136 0
M  V30 7929 H 748.825 0.396373 -0.621335 0
M  V30 7930 H 751.467 0.373464 -1.86293 0
M  V30 7931 H 749.617 2.65625 -2.83506 0
M  V30 7932 H 751.289 0.697786 -4.55992 0
M  V30 7933 H 749.532 0.587498 -4.29803 0
M  V30 7934 H 750.203 1.97989 -5.15271 0
M  V30 7935 H 752.679 2.5276 -3.30532 0
M  V30 7936 H 751.555 3.67616 -4.07615 0
M  V30 7937 H 751.816 3.75053 -2.34068 0
M  V30 7938 N 750.875 1.45233 0.611969 0
M  V30 7939 C 751.785 1.56098 1.7513 0
M  V30 7940 C 752.801 0.445646 1.68196 0
M  V30 7941 O 753.977 0.705718 1.88631 0
M  V30 7942 C 751.042 1.52052 3.11579 0
M  V30 7943 C 750.103 2.74589 3.29999 0
M  V30 7944 C 749.336 2.70726 4.59938 0
M  V30 7945 O 749.559 1.77806 5.41979 0
M  V30 7946 O 748.493 3.61864 4.80976 0
M  V30 7947 H 752.319 2.52392 1.68914 0
M  V30 7948 H 749.904 1.27695 0.775528 0
M  V30 7949 H 751.786 1.52387 3.92882 0
M  V30 7950 H 750.461 0.589085 3.18295 0
M  V30 7951 H 749.368 2.79817 2.48301 0
M  V30 7952 H 750.701 3.66843 3.28157 0
M  V30 7953 N 752.353 -0.854086 1.3245 0
M  V30 7954 C 753.581 -1.64074 1.26045 0
M  V30 7955 C 753.996 -1.8802 -0.171456 0
M  V30 7956 O 753.353 -1.4496 -1.10873 0
M  V30 7957 C 753.404 -2.9997 2.01743 0
M  V30 7958 O 753.125 -2.77084 3.39346 0
M  V30 7959 C 754.626 -3.94414 2.02368 0
M  V30 7960 H 751.846 -0.511015 0.434862 0
M  V30 7961 H 754.39 -1.06494 1.74583 0
M  V30 7962 H 752.545 -3.54193 1.56926 0
M  V30 7963 H 752.959 -3.63514 3.78098 0
M  V30 7964 H 754.433 -4.87032 2.59815 0
M  V30 7965 H 754.91 -4.27427 1.01009 0
M  V30 7966 H 755.516 -3.46127 2.47135 0
M  V30 7967 N 753.831 -1.1567 -1.07043 0
M  V30 7968 C 754.779 -0.852204 -2.16426 0
M  V30 7969 C 755.773 0.175661 -1.68487 0
M  V30 7970 O 756.979 0.0303874 -1.79974 0
M  V30 7971 H 753.354 -0.257942 -0.706378 0
M  V30 7972 H 755.325 -1.78231 -2.39324 0
M  V30 7973 C 754.074 -0.361362 -3.45817 0
M  V30 7974 H 753.397 -1.14369 -3.83092 0
M  V30 7975 H 754.837 -0.186997 -4.23587 0
M  V30 7976 C 753.296 0.917703 -3.2416 0
M  V30 7977 O 753.826 1.98858 -3.49025 0
M  V30 7978 N 752.032 0.858456 -2.77631 0
M  V30 7979 H 751.579 -0.0131821 -2.57597 0
M  V30 7980 H 751.537 1.71478 -2.6352 0
M  V30 7981 N 755.309 1.25446 -0.953992 0
M  V30 7982 C 756.72 1.75047 -0.649255 0
M  V30 7983 C 757.071 1.77527 0.835385 0
M  V30 7984 O 756.196 1.39569 1.65377 0
M  V30 7985 C 756.791 3.17889 -1.17183 0
M  V30 7986 C 755.35 3.65052 -0.917267 0
M  V30 7987 C 754.497 2.44124 -1.31525 0
M  V30 7988 H 757.448 1.11342 -1.13087 0
M  V30 7989 H 757.469 3.76768 -0.531616 0
M  V30 7990 H 756.981 3.16052 -2.25239 0
M  V30 7991 H 755.082 3.72305 0.148354 0
M  V30 7992 H 755.195 4.53222 -1.55328 0
M  V30 7993 H 753.559 2.43906 -0.733624 0
M  V30 7994 H 754.342 2.44979 -2.405 0
M  V30 7995 N 756.787 0.722489 1.40064 0
M  V30 7996 C 757.717 0.0892452 2.33329 0
M  V30 7997 C 758.698 -0.737992 1.53257 0
M  V30 7998 O 759.883 -0.685516 1.81698 0
M  V30 7999 C 757.013 -0.828139 3.37282 0
M  V30 8000 C 755.967 -0.106005 4.27869 0
M  V30 8001 C 755.293 -1.13957 5.22415 0
M  V30 8002 C 756.593 1.04395 5.11761 0
M  V30 8003 H 758.287 0.868269 2.86534 0
M  V30 8004 H 755.833 0.418982 1.3777 0
M  V30 8005 H 757.786 -1.28058 4.01471 0
M  V30 8006 H 756.51 -1.63914 2.82489 0
M  V30 8007 H 755.169 0.326683 3.65142 0
M  V30 8008 H 754.817 -1.9438 4.63924 0
M  V30 8009 H 754.517 -0.661233 5.83868 0
M  V30 8010 H 756.041 -1.59197 5.89482 0
M  V30 8011 H 757.455 0.670541 5.69365 0
M  V30 8012 H 755.852 1.4511 5.82291 0
M  V30 8013 H 756.922 1.87144 4.47331 0
M  V30 8014 N 758.265 -1.50454 0.469181 0
M  V30 8015 C 759.197 -2.26319 -0.362247 0
M  V30 8016 C 760.21 -1.31574 -0.958751 0
M  V30 8017 O 761.399 -1.57099 -0.847482 0
M  V30 8018 C 758.499 -3.02808 -1.52187 0
M  V30 8019 C 757.672 -4.24893 -1.03849 0
M  V30 8020 C 756.731 -4.83691 -2.07194 0
M  V30 8021 O 755.757 -5.44659 -1.65333 0
M  V30 8022 N 756.959 -4.70522 -3.39985 0
M  V30 8023 H 759.724 -2.98312 0.288124 0
M  V30 8024 H 757.285 -1.59099 0.299856 0
M  V30 8025 H 759.277 -3.39023 -2.21011 0
M  V30 8026 H 757.847 -2.33625 -2.07697 0
M  V30 8027 H 757.067 -3.93806 -0.176203 0
M  V30 8028 H 758.355 -5.04053 -0.693435 0
M  V30 8029 H 757.753 -4.2203 -3.76706 0
M  V30 8030 H 756.31 -5.11011 -4.04612 0
M  V30 8031 N 759.743 -0.201713 -1.56304 0
M  V30 8032 C 760.676 0.755976 -2.15314 0
M  V30 8033 C 761.654 1.20497 -1.09175 0
M  V30 8034 O 762.838 1.2913 -1.37323 0
M  V30 8035 C 759.965 2.02177 -2.71739 0
M  V30 8036 C 759.011 1.71436 -3.90528 0
M  V30 8037 S 759.844 0.856624 -5.28604 0
M  V30 8038 C 761 2.13242 -5.88455 0
M  V30 8039 H 761.233 0.254348 -2.9621 0
M  V30 8040 H 758.766 0.0133669 -1.54394 0
M  V30 8041 H 760.724 2.74867 -3.04891 0
M  V30 8042 H 759.385 2.49452 -1.90873 0
M  V30 8043 H 758.578 2.65433 -4.28441 0
M  V30 8044 H 758.18 1.06823 -3.5842 0
M  V30 8045 H 760.472 3.08435 -6.0322 0
M  V30 8046 H 761.415 1.7975 -6.84905 0
M  V30 8047 H 761.823 2.2639 -5.17115 0
M  V30 8048 N 761.222 1.57436 0.0718424 0
M  V30 8049 C 762.185 2.02703 1.06977 0
M  V30 8050 C 763.185 0.924062 1.31597 0
M  V30 8051 O 764.375 1.18894 1.27318 0
M  V30 8052 C 761.507 2.40763 2.41342 0
M  V30 8053 H 762.7 2.92098 0.679619 0
M  V30 8054 H 760.253 1.5304 0.317565 0
M  V30 8055 H 760.988 1.54394 2.8519 0
M  V30 8056 H 760.773 3.21249 2.24814 0
M  V30 8057 H 762.263 2.76361 3.13073 0
M  V30 8058 N 762.7 -0.34323 1.53817 0
M  V30 8059 C 763.632 -1.44216 1.78141 0
M  V30 8060 C 764.645 -1.48701 0.662721 0
M  V30 8061 O 765.834 -1.51778 0.939458 0
M  V30 8062 C 762.934 -2.82872 1.86646 0
M  V30 8063 C 762.107 -3.01824 3.16577 0
M  V30 8064 C 761.166 -4.20723 3.16036 0
M  V30 8065 O 760.192 -4.14824 3.89756 0
M  V30 8066 N 761.394 -5.29276 2.38427 0
M  V30 8067 H 764.159 -1.23721 2.72971 0
M  V30 8068 H 761.72 -0.53311 1.52871 0
M  V30 8069 H 763.712 -3.60588 1.83735 0
M  V30 8070 H 762.282 -2.96509 0.990014 0
M  V30 8071 H 761.502 -2.11575 3.3261 0
M  V30 8072 H 762.79 -3.11369 4.02402 0
M  V30 8073 H 762.188 -5.36938 1.78085 0
M  V30 8074 H 760.745 -6.05484 2.41313 0
M  V30 8075 N 764.178 -1.45556 -0.604258 0
M  V30 8076 C 765.141 -1.54091 -1.69672 0
M  V30 8077 C 766.141 -0.420076 -1.55216 0
M  V30 8078 O 767.331 -0.683671 -1.60224 0
M  V30 8079 C 764.463 -1.44063 -3.08964 0
M  V30 8080 H 765.656 -2.51431 -1.6347 0
M  V30 8081 H 763.209 -1.33046 -0.820273 0
M  V30 8082 H 763.944 -0.479201 -3.2074 0
M  V30 8083 H 763.729 -2.25362 -3.20865 0
M  V30 8084 H 765.219 -1.53075 -3.88533 0
M  V30 8085 N 765.656 0.84705 -1.32902 0
M  V30 8086 C 766.886 1.63166 -1.26729 0
M  V30 8087 C 767.294 1.88474 0.165595 0
M  V30 8088 O 766.637 1.45947 1.11558 0
M  V30 8089 C 766.699 3.0103 -1.96522 0
M  V30 8090 C 766.363 2.9873 -3.45846 0
M  V30 8091 C 767.36 2.75032 -4.41196 0
M  V30 8092 C 765.045 3.19125 -3.87898 0
M  V30 8093 C 767.039 2.71743 -5.76571 0
M  V30 8094 C 764.726 3.15462 -5.2338 0
M  V30 8095 C 765.724 2.91801 -6.17528 0
M  V30 8096 O 765.412 2.88027 -7.5053 0
M  V30 8097 H 765.144 0.51469 -0.438258 0
M  V30 8098 H 767.698 1.06383 -1.75704 0
M  V30 8099 H 765.928 3.59634 -1.42128 0
M  V30 8100 H 767.617 3.61821 -1.83958 0
M  V30 8101 H 768.383 2.59034 -4.10032 0
M  V30 8102 H 764.262 3.36565 -3.15032 0
M  V30 8103 H 767.806 2.53194 -6.5003 0
M  V30 8104 H 763.703 3.31006 -5.54171 0
M  V30 8105 H 764.471 3.03927 -7.59981 0
M  V30 8106 N 767.134 1.16236 1.06428 0
M  V30 8107 C 768.097 0.870163 2.1204 0
M  V30 8108 C 769.097 -0.134239 1.60239 0
M  V30 8109 O 770.287 0.0964932 1.73933 0
M  V30 8110 C 767.419 0.301033 3.39568 0
M  V30 8111 H 768.612 1.8064 2.39394 0
M  V30 8112 H 766.165 0.971116 1.2247 0
M  V30 8113 H 766.9 -0.642948 3.17863 0
M  V30 8114 H 766.685 1.02475 3.78472 0
M  V30 8115 H 768.175 0.114494 4.17443 0
M  V30 8116 N 768.612 -1.24939 0.960631 0
M  V30 8117 C 769.575 -2.239 0.49006 0
M  V30 8118 C 770.575 -1.55497 -0.409535 0
M  V30 8119 O 771.765 -1.72978 -0.205984 0
M  V30 8120 C 768.897 -3.39654 -0.291193 0
M  V30 8121 H 770.09 -2.67044 1.36482 0
M  V30 8122 H 767.643 -1.37429 0.744505 0
M  V30 8123 H 768.378 -3.01939 -1.18336 0
M  V30 8124 H 768.163 -3.90496 0.354276 0
M  V30 8125 H 769.653 -4.13125 -0.609693 0
M  V30 8126 N 770.09 -0.729906 -1.39679 0
M  V30 8127 C 771.337 -0.275622 -2.00615 0
M  V30 8128 C 771.665 1.13559 -1.57907 0
M  V30 8129 O 770.92 1.78745 -0.796789 0
M  V30 8130 C 771.219 -0.319564 -3.55968 0
M  V30 8131 C 770.885 -1.68308 -4.1831 0
M  V30 8132 C 769.547 -2.05629 -4.35052 0
M  V30 8133 C 771.899 -2.57857 -4.52945 0
M  V30 8134 C 769.227 -3.32018 -4.83716 0
M  V30 8135 C 771.579 -3.83613 -5.03015 0
M  V30 8136 C 770.243 -4.21033 -5.17965 0
M  V30 8137 H 769.513 -0.100857 -0.734104 0
M  V30 8138 H 772.16 -0.93575 -1.67081 0
M  V30 8139 H 770.465 0.42414 -3.89497 0
M  V30 8140 H 772.162 0.0499905 -4.00969 0
M  V30 8141 H 768.752 -1.3829 -4.05677 0
M  V30 8142 H 772.936 -2.30295 -4.39634 0
M  V30 8143 H 768.192 -3.6096 -4.93475 0
M  V30 8144 H 772.366 -4.53162 -5.28788 0
M  V30 8145 H 769.993 -5.19034 -5.55435 0
M  V30 8146 N 771.568 1.50203 -0.477153 0
M  V30 8147 C 772.531 2.27194 0.302599 0
M  V30 8148 C 773.531 1.32221 0.915112 0
M  V30 8149 O 774.721 1.55593 0.783348 0
M  V30 8150 C 771.853 3.0938 1.43167 0
M  V30 8151 H 773.046 2.97575 -0.372678 0
M  V30 8152 H 770.599 1.54578 -0.231392 0
M  V30 8153 H 771.334 2.43509 2.14182 0
M  V30 8154 H 771.119 3.79181 0.998197 0
M  V30 8155 H 772.609 3.67592 1.98157 0
M  V30 8156 N 773.046 0.209999 1.56195 0
M  V30 8157 C 773.994 -0.721416 2.2113 0
M  V30 8158 C 774.988 -1.20852 1.18706 0
M  V30 8159 O 776.194 -1.16968 1.36815 0
M  V30 8160 H 772.569 -0.251033 0.708863 0
M  V30 8161 H 774.54 -0.150193 2.98022 0
M  V30 8162 C 773.289 -1.92392 2.89621 0
M  V30 8163 H 772.612 -1.5582 3.68185 0
M  V30 8164 H 774.052 -2.55367 3.38473 0
M  V30 8165 C 772.511 -2.77208 1.91461 0
M  V30 8166 O 773.041 -3.75603 1.42426 0
M  V30 8167 N 771.247 -2.43006 1.59363 0
M  V30 8168 H 770.794 -1.63047 1.99433 0
M  V30 8169 H 770.752 -3.00036 0.939449 0
M  V30 8170 N 774.524 -1.57472 -0.0634922 0
M  V30 8171 C 775.434 -2.07621 -1.09227 0
M  V30 8172 C 776.45 -1.00746 -1.41867 0
M  V30 8173 O 777.626 -1.32269 -1.51878 0
M  V30 8174 C 774.691 -2.51707 -2.38421 0
M  V30 8175 C 773.752 -3.72917 -2.12676 0
M  V30 8176 C 772.985 -4.14891 -3.3571 0
M  V30 8177 O 773.208 -3.56663 -4.45137 0
M  V30 8178 O 772.142 -5.07616 -3.23434 0
M  V30 8179 H 775.968 -2.95612 -0.696205 0
M  V30 8180 H 773.553 -1.46787 -0.27819 0
M  V30 8181 H 775.435 -2.80547 -3.14438 0
M  V30 8182 H 774.11 -1.66842 -2.77391 0
M  V30 8183 H 773.017 -3.49148 -1.34337 0
M  V30 8184 H 774.35 -4.5866 -1.78583 0
M  V30 8185 N 776.003 0.335068 -1.53997 0
M  V30 8186 C 777.251 1.07223 -1.71312 0
M  V30 8187 C 777.572 1.88911 -0.483486 0
M  V30 8188 O 776.842 1.89344 0.50257 0
M  V30 8189 H 775.422 0.398846 -0.63161 0
M  V30 8190 H 778.084 0.374288 -1.91272 0
M  V30 8191 H 777.18 1.7448 -2.58772 0
M  V30 8192 N 777.481 1.45874 0.596531 0
M  V30 8193 C 778.411 1.5824 1.71705 0
M  V30 8194 C 779.392 0.433366 1.64487 0
M  V30 8195 O 780.577 0.657895 1.82717 0
M  V30 8196 C 777.707 1.55927 3.10329 0
M  V30 8197 C 776.661 2.69659 3.32367 0
M  V30 8198 C 775.987 2.52403 4.71377 0
M  V30 8199 C 777.287 4.11591 3.21544 0
M  V30 8200 H 778.981 2.52035 1.61613 0
M  V30 8201 H 776.527 1.21297 0.776082 0
M  V30 8202 H 778.48 1.63173 3.88526 0
M  V30 8203 H 777.204 0.586674 3.21288 0
M  V30 8204 H 775.863 2.61859 2.56564 0
M  V30 8205 H 775.511 1.53258 4.79083 0
M  V30 8206 H 775.211 3.28679 4.87077 0
M  V30 8207 H 776.735 2.6152 5.5176 0
M  V30 8208 H 778.149 4.20576 3.89601 0
M  V30 8209 H 776.546 4.88344 3.4877 0
M  V30 8210 H 777.616 4.32719 2.1882 0
M  V30 8211 N 778.959 -0.83999 1.33349 0
M  V30 8212 C 779.892 -1.95415 1.17848 0
M  V30 8213 C 780.87 -1.6243 0.0742296 0
M  V30 8214 O 782.054 -1.87014 0.23626 0
M  V30 8215 C 779.181 -3.28938 0.807295 0
M  V30 8216 C 778.227 -3.80895 1.91888 0
M  V30 8217 S 779.06 -4.02709 3.52967 0
M  V30 8218 C 780.216 -5.39185 3.17853 0
M  V30 8219 H 780.449 -2.08265 2.12162 0
M  V30 8220 H 777.982 -0.993643 1.18178 0
M  V30 8221 H 779.94 -4.06093 0.599914 0
M  V30 8222 H 778.601 -3.13881 -0.117234 0
M  V30 8223 H 777.794 -4.77508 1.6125 0
M  V30 8224 H 777.396 -3.10633 2.08286 0
M  V30 8225 H 779.688 -6.21978 2.68608 0
M  V30 8226 H 780.631 -5.74795 4.13542 0
M  V30 8227 H 781.039 -5.03885 2.5448 0
M  V30 8228 N 780.437 -1.16799 -1.0581 0
M  V30 8229 C 781.848 -0.95945 -1.60161 0
M  V30 8230 C 782.199 0.49543 -1.89842 0
M  V30 8231 O 781.324 1.36957 -1.67546 0
M  V30 8232 C 781.919 -1.73527 -2.90987 0
M  V30 8233 C 780.478 -1.57158 -3.42021 0
M  V30 8234 C 779.625 -1.74089 -2.15843 0
M  V30 8235 H 782.576 -1.31598 -0.886992 0
M  V30 8236 H 782.597 -1.21397 -3.60615 0
M  V30 8237 H 782.109 -2.79411 -2.69353 0
M  V30 8238 H 780.21 -0.537361 -3.68705 0
M  V30 8239 H 780.323 -2.35858 -4.17022 0
M  V30 8240 H 778.687 -1.16874 -2.26302 0
M  V30 8241 H 779.47 -2.81371 -1.96686 0
M  V30 8242 N 781.915 1.24427 -0.967243 0
M  V30 8243 C 782.825 2.29109 -0.504592 0
M  V30 8244 C 783.841 1.68495 0.434224 0
M  V30 8245 O 785.017 1.99041 0.307379 0
M  V30 8246 C 782.082 3.46133 0.198273 0
M  V30 8247 C 781.143 4.22149 -0.780313 0
M  V30 8248 C 780.376 5.33585 -0.110896 0
M  V30 8249 O 780.599 5.59676 1.10088 0
M  V30 8250 O 779.533 5.96522 -0.802823 0
M  V30 8251 H 783.359 2.708 -1.37482 0
M  V30 8252 H 780.944 1.30111 -0.73426 0
M  V30 8253 H 782.826 4.17205 0.593124 0
M  V30 8254 H 781.501 3.0642 1.04347 0
M  V30 8255 H 780.408 3.53454 -1.22561 0
M  V30 8256 H 781.741 4.65677 -1.59392 0
M  V30 8257 N 783.393 0.737304 1.3929 0
M  V30 8258 C 784.356 0.10731 2.28949 0
M  V30 8259 C 785.356 -0.664716 1.46418 0
M  V30 8260 O 786.546 -0.493392 1.67067 0
M  V30 8261 C 783.678 -0.857145 3.29948 0
M  V30 8262 H 784.871 0.89725 2.86163 0
M  V30 8263 H 782.424 0.503279 1.47976 0
M  V30 8264 H 783.159 -1.67336 2.77794 0
M  V30 8265 H 782.944 -0.306167 3.90903 0
M  V30 8266 H 784.434 -1.29444 3.97031 0
M  V30 8267 N 784.871 -1.49948 0.485112 0
M  V30 8268 C 785.821 -2.25734 -0.320658 0
M  V30 8269 C 786.805 -1.29907 -0.949373 0
M  V30 8270 O 787.997 -1.54725 -0.859601 0
M  V30 8271 C 785.126 -3.13728 -1.39391 0
M  V30 8272 C 784.212 -4.1701 -0.772225 0
M  V30 8273 N 784.603 -5.05667 0.115782 0
M  V30 8274 C 782.901 -4.33834 -1.03461 0
M  V30 8275 C 783.602 -5.79798 0.47004 0
M  V30 8276 N 782.578 -5.4337 -0.158204 0
M  V30 8277 H 786.38 -2.91647 0.36319 0
M  V30 8278 H 783.894 -1.59602 0.300154 0
M  V30 8279 H 785.891 -3.66639 -1.98447 0
M  V30 8280 H 784.551 -2.49365 -2.0796 0
M  V30 8281 H 785.562 -5.15619 0.485557 0
M  V30 8282 H 782.239 -3.80684 -1.71424 0
M  V30 8283 H 783.629 -6.61177 1.19558 0
M  V30 8284 N 786.349 -0.21828 -1.56081 0
M  V30 8285 C 787.596 0.414307 -1.98216 0
M  V30 8286 C 787.924 1.60005 -1.10584 0
M  V30 8287 O 787.179 1.95124 -0.150043 0
M  V30 8288 C 787.478 0.894782 -3.46018 0
M  V30 8289 C 787.144 -0.180083 -4.5054 0
M  V30 8290 C 785.806 -0.475367 -4.78846 0
M  V30 8291 C 788.158 -0.907191 -5.13244 0
M  V30 8292 C 785.486 -1.50233 -5.67139 0
M  V30 8293 C 787.838 -1.92347 -6.02649 0
M  V30 8294 C 786.502 -2.22571 -6.293 0
M  V30 8295 H 785.772 0.151606 -0.725325 0
M  V30 8296 H 788.419 -0.320113 -1.88806 0
M  V30 8297 H 786.724 1.7079 -3.52616 0
M  V30 8298 H 788.421 1.39403 -3.75989 0
M  V30 8299 H 785.011 0.06022 -4.28558 0
M  V30 8300 H 789.195 -0.692303 -4.91448 0
M  V30 8301 H 784.451 -1.74215 -5.86054 0
M  V30 8302 H 788.625 -2.49197 -6.50288 0
M  V30 8303 H 786.252 -3.0229 -6.97513 0
M  V30 8304 N 787.827 1.57504 0.0551401 0
M  V30 8305 C 789.076 1.87237 0.750009 0
M  V30 8306 C 789.389 0.813268 1.77891 0
M  V30 8307 O 790.595 0.99898 2.52453 0
M  V30 8308 C 789.051 3.32187 1.38491 0
M  V30 8309 C 788.659 4.46267 0.393707 0
M  V30 8310 C 790.403 3.71101 2.06117 0
M  V30 8311 C 788.31 5.82265 1.03547 0
M  V30 8312 H 787.24 0.698524 0.283866 0
M  V30 8313 H 789.891 1.835 0.00365997 0
M  V30 8314 H 788.273 3.30588 2.18008 0
M  V30 8315 H 789.447 4.59289 -0.372865 0
M  V30 8316 H 787.762 4.16015 -0.17902 0
M  V30 8317 H 790.359 4.70012 2.54937 0
M  V30 8318 H 790.702 3.01751 2.86796 0
M  V30 8319 H 791.235 3.74762 1.33409 0
M  V30 8320 H 787.974 6.54949 0.268644 0
M  V30 8321 H 787.494 5.73012 1.7725 0
M  V30 8322 H 789.173 6.28148 1.55047 0
M  V30 8323 N 789.305 -0.326896 1.54172 0
M  V30 8324 C 790.53 -1.08924 1.76494 0
M  V30 8325 C 790.955 -1.81039 0.510523 0
M  V30 8326 O 790.313 -1.73141 -0.537756 0
M  V30 8327 C 790.361 -2.06558 2.95578 0
M  V30 8328 O 789.465 -3.14394 2.6689 0
M  V30 8329 H 788.806 -0.314216 0.584948 0
M  V30 8330 H 791.336 -0.372207 2.01186 0
M  V30 8331 H 791.346 -2.49487 3.22832 0
M  V30 8332 H 790.021 -1.53469 3.86549 0
M  V30 8333 H 788.598 -2.76164 2.50576 0
M  V30 8334 N 790.784 -1.46188 -0.588786 0
M  V30 8335 C 792.2 -1.31009 -0.911524 0
M  V30 8336 C 792.4 -0.277017 -1.99587 0
M  V30 8337 O 791.456 0.322532 -2.50432 0
M  V30 8338 C 792.769 -2.69459 -1.33463 0
M  V30 8339 C 794.317 -2.77502 -1.44782 0
M  V30 8340 C 794.792 -4.1652 -1.90461 0
M  V30 8341 N 796.283 -4.18907 -1.97665 0
M  V30 8342 C 797.018 -5.23359 -2.34271 0
M  V30 8343 N 796.514 -6.38143 -2.69714 0
M  V30 8344 N 798.307 -5.10723 -2.34774 0
M  V30 8345 H 790.458 -2.12016 0.127614 0
M  V30 8346 H 792.721 -0.947984 -0.00557599 0
M  V30 8347 H 792.427 -3.46336 -0.611929 0
M  V30 8348 H 792.301 -2.99165 -2.2974 0
M  V30 8349 H 794.688 -2.00917 -2.1614 0
M  V30 8350 H 794.769 -2.51488 -0.467724 0
M  V30 8351 H 794.413 -4.93597 -1.19684 0
M  V30 8352 H 794.343 -4.39937 -2.89418 0
M  V30 8353 H 796.834 -3.36084 -1.72789 0
M  V30 8354 H 797.147 -7.13624 -2.96582 0
M  V30 8355 H 795.492 -6.41514 -2.67366 0
M  V30 8356 H 798.683 -4.20088 -2.06503 0
M  V30 8357 H 798.856 -5.9224 -2.62975 0
M  V30 8358 N 792.262 0.832906 -1.33792 0
M  V30 8359 C 793.511 1.58351 -1.24932 0
M  V30 8360 C 793.824 1.94754 0.181703 0
M  V30 8361 O 795.03 2.6865 0.392375 0
M  V30 8362 C 793.486 2.85643 -2.18943 0
M  V30 8363 C 793.094 2.56581 -3.67247 0
M  V30 8364 C 794.838 3.63667 -2.18968 0
M  V30 8365 C 792.745 3.80006 -4.53155 0
M  V30 8366 H 791.675 0.594278 -0.464058 0
M  V30 8367 H 794.326 0.91786 -1.58895 0
M  V30 8368 H 792.708 3.53781 -1.77919 0
M  V30 8369 H 793.882 1.96617 -4.16747 0
M  V30 8370 H 792.197 1.91851 -3.6957 0
M  V30 8371 H 794.794 4.55293 -2.80379 0
M  V30 8372 H 795.137 3.99039 -1.18631 0
M  V30 8373 H 795.67 3.0246 -2.58384 0
M  V30 8374 H 792.409 3.4976 -5.5439 0
M  V30 8375 H 791.929 4.39288 -4.08395 0
M  V30 8376 H 793.608 4.47523 -4.6726 0
M  V30 8377 N 793.74 1.17359 1.05189 0
M  V30 8378 C 794.65 0.904984 2.16442 0
M  V30 8379 C 795.666 -0.12686 1.73537 0
M  V30 8380 O 796.842 0.0524127 2.01332 0
M  V30 8381 C 793.907 0.422019 3.44122 0
M  V30 8382 C 792.968 1.52045 4.01473 0
M  V30 8383 C 792.201 1.06044 5.23059 0
M  V30 8384 O 792.424 -0.0854023 5.70336 0
M  V30 8385 O 791.358 1.85349 5.72651 0
M  V30 8386 H 795.184 1.8356 2.41949 0
M  V30 8387 H 792.769 0.95447 1.14936 0
M  V30 8388 H 794.651 0.160208 4.21095 0
M  V30 8389 H 793.326 -0.480444 3.20115 0
M  V30 8390 H 792.233 1.83615 3.25939 0
M  V30 8391 H 793.566 2.39863 4.29798 0
M  V30 8392 N 795.218 -1.23913 0.973828 0
M  V30 8393 C 796.166 -2.27141 0.50098 0
M  V30 8394 C 797.16 -1.63623 -0.438631 0
M  V30 8395 O 798.366 -1.77253 -0.313247 0
M  V30 8396 H 794.741 -0.73817 0.14356 0
M  V30 8397 H 796.712 -2.64392 1.38346 0
M  V30 8398 C 795.461 -3.47195 -0.187377 0
M  V30 8399 H 794.784 -3.96318 0.526535 0
M  V30 8400 H 796.224 -4.21252 -0.481962 0
M  V30 8401 C 794.683 -3.05678 -1.41642 0
M  V30 8402 O 795.213 -3.1338 -2.51309 0
M  V30 8403 N 793.419 -2.60661 -1.28469 0
M  V30 8404 H 792.966 -2.54594 -0.39238 0
M  V30 8405 H 792.924 -2.33249 -2.10813 0
M  V30 8406 N 796.696 -0.74468 -1.38897 0
M  V30 8407 C 797.659 -0.11945 -2.28889 0
M  V30 8408 C 798.659 0.656942 -1.46768 0
M  V30 8409 O 799.849 0.484525 -1.67326 0
M  V30 8410 C 796.981 0.839635 -3.30398 0
M  V30 8411 H 798.174 -0.912414 -2.85683 0
M  V30 8412 H 795.727 -0.511119 -1.47707 0
M  V30 8413 H 796.462 1.6586 -2.78677 0
M  V30 8414 H 796.247 0.285432 -3.9106 0
M  V30 8415 H 797.737 1.27337 -3.97712 0
M  V30 8416 N 798.174 1.49689 -0.493057 0
M  V30 8417 C 799.399 2.07331 0.0535114 0
M  V30 8418 C 799.824 1.35196 1.30781 0
M  V30 8419 O 799.182 0.406246 1.7669 0
M  V30 8420 C 799.23 3.59364 0.29825 0
M  V30 8421 O 798.334 3.88819 1.37454 0
M  V30 8422 H 797.675 0.663612 -0.0227018 0
M  V30 8423 H 800.205 1.926 -0.690402 0
M  V30 8424 H 800.215 4.04515 0.532159 0
M  V30 8425 H 798.89 4.1128 -0.618207 0
M  V30 8426 H 797.467 3.55487 1.12621 0
M  V30 8427 N 799.652 0.226554 1.55963 0
M  V30 8428 C 800.9 -0.402991 1.98041 0
M  V30 8429 C 801.221 -1.59938 1.11557 0
M  V30 8430 O 800.491 -1.9494 0.193719 0
M  V30 8431 H 799.071 -0.15188 0.731397 0
M  V30 8432 H 801.733 0.320613 1.92245 0
M  V30 8433 H 800.829 -0.725937 3.0354 0
M  V30 8434 N 801.13 -1.57531 -0.0467866 0
M  V30 8435 C 802.062 -2.02156 -1.08007 0
M  V30 8436 C 803.075 -0.931434 -1.33522 0
M  V30 8437 O 804.264 -1.209 -1.31321 0
M  V30 8438 C 801.364 -2.36675 -2.42566 0
M  V30 8439 C 800.537 -3.67848 -2.36658 0
M  V30 8440 C 799.596 -3.89754 -3.53523 0
M  V30 8441 O 798.622 -4.61036 -3.33818 0
M  V30 8442 N 799.824 -3.34025 -4.74771 0
M  V30 8443 H 802.589 -2.91414 -0.699845 0
M  V30 8444 H 800.15 -1.60185 -0.235041 0
M  V30 8445 H 802.142 -2.48482 -3.19435 0
M  V30 8446 H 800.712 -1.53178 -2.72498 0
M  V30 8447 H 799.932 -3.66561 -1.45005 0
M  V30 8448 H 801.22 -4.53931 -2.29835 0
M  V30 8449 H 800.618 -2.76214 -4.93683 0
M  V30 8450 H 799.175 -3.51241 -5.49066 0
M  V30 8451 N 802.608 0.318715 -1.54344 0
M  V30 8452 C 803.854 1.05765 -1.73037 0
M  V30 8453 C 804.187 1.87514 -0.505181 0
M  V30 8454 O 803.462 1.88021 0.497838 0
M  V30 8455 C 803.745 1.97836 -3.00887 0
M  V30 8456 C 803.598 1.19384 -4.33668 0
M  V30 8457 C 804.917 2.97285 -3.24514 0
M  V30 8458 H 802.036 0.383104 -0.629603 0
M  V30 8459 H 804.678 0.333864 -1.87044 0
M  V30 8460 H 802.828 2.59552 -2.89076 0
M  V30 8461 H 804.5 0.600906 -4.57369 0
M  V30 8462 H 802.743 0.496198 -4.30953 0
M  V30 8463 H 803.414 1.87014 -5.19355 0
M  V30 8464 H 805.89 2.45693 -3.35819 0
M  V30 8465 H 804.766 3.58887 -4.15321 0
M  V30 8466 H 805.027 3.70003 -2.41971 0
M  V30 8467 N 804.086 1.46499 0.581025 0
M  V30 8468 C 805.335 1.51162 1.3354 0
M  V30 8469 C 805.648 0.168433 1.94873 0
M  V30 8470 O 806.854 0.092883 2.71341 0
M  V30 8471 C 805.31 2.66362 2.42032 0
M  V30 8472 C 804.918 4.07109 1.86994 0
M  V30 8473 C 806.662 2.80297 3.188 0
M  V30 8474 C 804.569 5.13645 2.93125 0
M  V30 8475 H 803.499 0.562576 0.502021 0
M  V30 8476 H 806.15 1.72713 0.619863 0
M  V30 8477 H 804.532 2.38143 3.16392 0
M  V30 8478 H 805.706 4.45125 1.19166 0
M  V30 8479 H 804.021 3.97854 1.22887 0
M  V30 8480 H 806.618 3.5706 3.9801 0
M  V30 8481 H 806.961 1.87875 3.71495 0
M  V30 8482 H 807.494 3.0817 2.51547 0
M  V30 8483 H 804.233 6.07866 2.45315 0
M  V30 8484 H 803.753 4.80172 3.59437 0
M  V30 8485 H 805.432 5.39562 3.57046 0
M  V30 8486 N 805.565 -0.825799 1.34232 0
M  V30 8487 C 806.528 -1.91808 1.25468 0
M  V30 8488 C 807.528 -1.59893 0.170567 0
M  V30 8489 O 808.718 -1.68986 0.422996 0
M  V30 8490 C 805.85 -3.27786 0.93644 0
M  V30 8491 H 807.043 -2.01003 2.22571 0
M  V30 8492 H 804.596 -1.01944 1.18479 0
M  V30 8493 H 805.331 -3.24285 -0.0315408 0
M  V30 8494 H 805.116 -3.52333 1.72057 0
M  V30 8495 H 806.606 -4.07782 0.900214 0
M  V30 8496 N 807.043 -1.17915 -1.04565 0
M  V30 8497 C 808.268 -0.996749 -1.81878 0
M  V30 8498 C 808.693 0.450169 -1.82634 0
M  V30 8499 O 808.051 1.32268 -1.23995 0
M  V30 8500 C 808.099 -1.55005 -3.25585 0
M  V30 8501 O 807.203 -0.76804 -4.05185 0
M  V30 8502 H 806.544 -0.353456 -0.562108 0
M  V30 8503 H 809.074 -1.56557 -1.31723 0
M  V30 8504 H 809.084 -1.57503 -3.76373 0
M  V30 8505 H 807.759 -2.60327 -3.2435 0
M  V30 8506 H 806.336 -0.81498 -3.63885 0
M  V30 8507 N 808.521 1.23394 -0.980386 0
M  V30 8508 C 809.471 2.22634 -0.491747 0
M  V30 8509 C 810.455 1.54958 0.433222 0
M  V30 8510 O 811.647 1.75049 0.262078 0
M  V30 8511 C 808.776 3.4269 0.204531 0
M  V30 8512 C 807.862 4.17594 -0.740007 0
M  V30 8513 N 808.253 4.69458 -1.88263 0
M  V30 8514 C 806.551 4.42554 -0.553335 0
M  V30 8515 C 807.252 5.26446 -2.47446 0
M  V30 8516 N 806.228 5.14377 -1.75834 0
M  V30 8517 H 810.03 2.60363 -1.36339 0
M  V30 8518 H 807.544 1.38924 -0.841059 0
M  V30 8519 H 809.541 4.12959 0.571901 0
M  V30 8520 H 808.201 3.06477 1.07246 0
M  V30 8521 H 809.212 4.65803 -2.26381 0
M  V30 8522 H 805.889 4.16629 0.269573 0
M  V30 8523 H 807.279 5.77195 -3.43941 0
M  V30 8524 N 809.999 0.752036 1.385 0
M  V30 8525 C 810.946 0.123288 2.3047 0
M  V30 8526 C 811.916 -0.711326 1.50098 0
M  V30 8527 O 813.101 -0.667775 1.78733 0
M  V30 8528 C 810.241 -0.765085 3.36512 0
M  V30 8529 C 809.354 0.0839885 4.31918 0
M  V30 8530 C 808.489 -0.807243 5.25031 0
M  V30 8531 C 807.528 0.0455583 6.12083 0
M  V30 8532 N 806.665 -0.802547 6.97498 0
M  V30 8533 H 811.505 0.913169 2.83664 0
M  V30 8534 H 809.042 0.46195 1.39658 0
M  V30 8535 H 811 -1.29476 3.966 0
M  V30 8536 H 809.63 -1.52077 2.84732 0
M  V30 8537 H 808.682 0.731276 3.73305 0
M  V30 8538 H 809.994 0.74265 4.9324 0
M  V30 8539 H 809.148 -1.40414 5.90228 0
M  V30 8540 H 807.887 -1.49964 4.64071 0
M  V30 8541 H 806.892 0.655137 5.45883 0
M  V30 8542 H 808.117 0.734994 6.75111 0
M  V30 8543 H 806.063 -1.47992 6.39089 0
M  V30 8544 H 805.98 -0.200747 7.55733 0
M  V30 8545 H 807.248 -1.38447 7.67107 0
M  V30 8546 N 811.477 -1.49425 0.500989 0
M  V30 8547 C 812.425 -2.30771 -0.291149 0
M  V30 8548 C 813.419 -1.3938 -0.962787 0
M  V30 8549 O 814.625 -1.56431 -0.890477 0
M  V30 8550 H 811 -0.743499 -0.11275 0
M  V30 8551 H 812.971 -2.95501 0.414917 0
M  V30 8552 C 811.72 -3.20725 -1.34279 0
M  V30 8553 H 811.043 -3.90975 -0.83538 0
M  V30 8554 H 812.483 -3.80583 -1.86903 0
M  V30 8555 C 810.942 -2.40334 -2.36095 0
M  V30 8556 O 811.472 -2.10749 -3.41976 0
M  V30 8557 N 809.678 -2.02359 -2.08565 0
M  V30 8558 H 809.225 -2.26619 -1.22482 0
M  V30 8559 H 809.183 -1.48878 -2.76916 0
M  V30 8560 N 812.955 -0.234822 -1.55841 0
M  V30 8561 C 814.18 0.400741 -2.03492 0
M  V30 8562 C 814.605 1.51618 -1.11327 0
M  V30 8563 O 813.963 1.81002 -0.103922 0
M  V30 8564 C 814.011 0.897184 -3.49261 0
M  V30 8565 O 813.115 2.00764 -3.60233 0
M  V30 8566 H 812.456 0.0890023 -0.658008 0
M  V30 8567 H 814.986 -0.357345 -2.01455 0
M  V30 8568 H 814.996 1.20356 -3.89844 0
M  V30 8569 H 813.671 0.0808639 -4.15821 0
M  V30 8570 H 812.248 1.70689 -3.31541 0
M  V30 8571 N 814.433 1.57553 0.0384317 0
M  V30 8572 C 815.365 2.02726 1.06934 0
M  V30 8573 C 816.378 0.938502 1.33026 0
M  V30 8574 O 817.567 1.21595 1.30678 0
M  V30 8575 C 814.667 2.37958 2.41308 0
M  V30 8576 C 813.84 3.69098 2.34703 0
M  V30 8577 C 812.899 3.91623 3.51451 0
M  V30 8578 O 811.925 4.628 3.31368 0
M  V30 8579 N 813.127 3.36538 4.72993 0
M  V30 8580 H 815.892 2.91781 0.684381 0
M  V30 8581 H 813.453 1.60307 0.226542 0
M  V30 8582 H 815.445 2.50172 3.18113 0
M  V30 8583 H 814.015 1.54621 2.71682 0
M  V30 8584 H 813.235 3.67325 1.43059 0
M  V30 8585 H 814.523 4.55144 2.27424 0
M  V30 8586 H 813.921 2.78828 4.92211 0
M  V30 8587 H 812.478 3.54148 5.47195 0
M  V30 8588 N 815.911 -0.310526 1.54511 0
M  V30 8589 C 816.858 -1.38264 1.84802 0
M  V30 8590 C 817.828 -1.50808 0.696141 0
M  V30 8591 O 819.013 -1.6582 0.943846 0
M  V30 8592 C 816.153 -2.74422 2.09252 0
M  V30 8593 C 815.266 -2.70405 3.36906 0
M  V30 8594 C 814.401 -3.98495 3.51248 0
M  V30 8595 C 813.44 -3.88836 4.72729 0
M  V30 8596 N 812.577 -5.08683 4.83928 0
M  V30 8597 H 817.417 -1.11732 2.76261 0
M  V30 8598 H 814.954 -0.540609 1.36806 0
M  V30 8599 H 816.912 -3.53593 2.21422 0
M  V30 8600 H 815.542 -2.99235 1.2107 0
M  V30 8601 H 814.594 -1.83151 3.33406 0
M  V30 8602 H 815.906 -2.59155 4.26193 0
M  V30 8603 H 815.06 -4.861 3.63031 0
M  V30 8604 H 813.799 -4.12567 2.60077 0
M  V30 8605 H 812.804 -2.99615 4.60989 0
M  V30 8606 H 814.029 -3.76318 5.65298 0
M  V30 8607 H 811.975 -5.23236 3.95677 0
M  V30 8608 H 811.892 -4.99819 5.67201 0
M  V30 8609 H 813.16 -5.97966 5.00057 0
M  V30 8610 N 817.389 -1.46805 -0.573248 0
M  V30 8611 C 818.805 -1.31969 -0.897577 0
M  V30 8612 C 819.005 -0.298171 -1.99282 0
M  V30 8613 O 818.061 0.295953 -2.5076 0
M  V30 8614 C 819.374 -2.70859 -1.30598 0
M  V30 8615 C 820.922 -2.79022 -1.4183 0
M  V30 8616 C 821.397 -4.18516 -1.86033 0
M  V30 8617 N 822.888 -4.2098 -1.9321 0
M  V30 8618 C 823.623 -5.25814 -2.28707 0
M  V30 8619 N 823.119 -6.40968 -2.6293 0
M  V30 8620 N 824.912 -5.13184 -2.29343 0
M  V30 8621 H 817.063 -2.11869 0.150094 0
M  V30 8622 H 819.326 -0.947989 0.00447895 0
M  V30 8623 H 819.032 -3.46965 -0.575161 0
M  V30 8624 H 818.906 -3.01585 -2.26554 0
M  V30 8625 H 821.293 -2.03198 -2.13996 0
M  V30 8626 H 821.374 -2.51969 -0.441024 0
M  V30 8627 H 821.018 -4.94839 -1.14442 0
M  V30 8628 H 820.948 -4.42982 -2.84735 0
M  V30 8629 H 823.439 -3.37898 -1.69214 0
M  V30 8630 H 823.752 -7.16729 -2.88996 0
M  V30 8631 H 822.097 -6.44314 -2.60547 0
M  V30 8632 H 825.288 -4.22255 -2.02036 0
M  V30 8633 H 825.461 -5.94996 -2.56679 0
M  V30 8634 N 818.867 0.818669 -1.34668 0
M  V30 8635 C 820.113 1.57746 -1.27453 0
M  V30 8636 C 820.446 1.93588 0.154077 0
M  V30 8637 O 819.721 1.60371 1.10051 0
M  V30 8638 C 820.004 2.87414 -2.16945 0
M  V30 8639 C 819.857 2.58125 -3.68363 0
M  V30 8640 C 821.176 3.89021 -2.05792 0
M  V30 8641 H 818.295 0.572339 -0.464324 0
M  V30 8642 H 820.937 0.942784 -1.64959 0
M  V30 8643 H 819.087 3.41576 -1.85089 0
M  V30 8644 H 820.759 2.10239 -4.10606 0
M  V30 8645 H 819.002 1.91503 -3.89242 0
M  V30 8646 H 819.673 3.5061 -4.26353 0
M  V30 8647 H 822.149 3.44224 -2.33771 0
M  V30 8648 H 821.025 4.77548 -2.70628 0
M  V30 8649 H 821.286 4.29786 -1.03618 0
M  V30 8650 N 820.346 1.18468 1.03938 0
M  V30 8651 C 821.595 0.975193 1.76558 0
M  V30 8652 C 821.908 -0.495978 1.89207 0
M  V30 8653 O 823.114 -0.824009 2.58694 0
M  V30 8654 C 821.57 1.69579 3.17444 0
M  V30 8655 C 821.178 3.20636 3.12884 0
M  V30 8656 C 822.922 1.56917 3.94433 0
M  V30 8657 C 820.829 3.8533 4.48636 0
M  V30 8658 H 819.759 0.361244 0.66183 0
M  V30 8659 H 822.41 1.41854 1.16403 0
M  V30 8660 H 820.792 1.18022 3.78004 0
M  V30 8661 H 821.966 3.79228 2.61768 0
M  V30 8662 H 820.281 3.33454 2.49394 0
M  V30 8663 H 822.878 2.02611 4.94826 0
M  V30 8664 H 823.221 0.521638 4.13019 0
M  V30 8665 H 823.754 2.05762 3.40451 0
M  V30 8666 H 820.493 4.90136 4.35255 0
M  V30 8667 H 820.013 3.31526 4.99851 0
M  V30 8668 H 821.692 3.88269 5.17549 0
M  V30 8669 N 821.824 -1.22873 0.986916 0
M  V30 8670 C 823.101 -1.86939 0.575589 0
M  V30 8671 C 823.481 -1.88656 -0.947205 0
M  V30 8672 O 822.829 -1.3728 -1.82665 0
M  V30 8673 C 823.039 -3.28117 1.18914 0
M  V30 8674 C 824.387 -4.04659 1.28593 0
M  V30 8675 O 825.411 -3.3736 1.14308 0
M  V30 8676 O 824.27 -5.25112 1.51391 0
M  V30 8677 H 821.364 -0.803748 0.194724 0
M  V30 8678 H 823.91 -1.30698 1.08241 0
M  V30 8679 H 822.682 -3.21468 2.231 0
M  V30 8680 H 822.305 -3.91956 0.667535 0
M  V30 8681 N 823.302 -0.75937 -1.38099 0
M  V30 8682 C 824.249 -0.135508 -2.30402 0
M  V30 8683 C 825.219 0.703356 -1.50473 0
M  V30 8684 O 826.404 0.658287 -1.79084 0
M  V30 8685 C 823.544 0.747228 -3.36913 0
M  V30 8686 C 822.657 -0.106893 -4.31868 0
M  V30 8687 C 821.792 0.779388 -5.25451 0
M  V30 8688 C 820.831 -0.0780179 -6.1205 0
M  V30 8689 N 819.968 0.765545 -6.97914 0
M  V30 8690 H 824.808 -0.9282 -2.83176 0
M  V30 8691 H 822.345 -0.46935 -1.39411 0
M  V30 8692 H 824.303 1.27371 -3.97281 0
M  V30 8693 H 822.933 1.50565 -2.85535 0
M  V30 8694 H 821.985 -0.751063 -3.72912 0
M  V30 8695 H 823.297 -0.768798 -4.9284 0
M  V30 8696 H 822.451 1.37282 -5.90964 0
M  V30 8697 H 821.19 1.47501 -4.6486 0
M  V30 8698 H 820.195 -0.684078 -5.45528 0
M  V30 8699 H 821.42 -0.770786 -6.74712 0
M  V30 8700 H 819.366 1.44601 -6.39864 0
M  V30 8701 H 819.283 0.160666 -7.55829 0
M  V30 8702 H 820.551 1.34377 -7.6783 0
M  V30 8703 N 824.78 1.49157 -0.508906 0
M  V30 8704 C 826.005 2.07376 0.0315182 0
M  V30 8705 C 826.43 1.36575 1.2934 0
M  V30 8706 O 825.788 0.424963 1.76249 0
M  V30 8707 C 825.836 3.59661 0.260118 0
M  V30 8708 O 824.94 3.90255 1.33322 0
M  V30 8709 H 824.281 0.663334 -0.029739 0
M  V30 8710 H 826.811 1.91857 -0.710791 0
M  V30 8711 H 826.821 4.05056 0.489225 0
M  V30 8712 H 825.496 4.10601 -0.661794 0
M  V30 8713 H 824.073 3.56661 1.08844 0
M  V30 8714 N 826.258 0.243083 1.55714 0
M  V30 8715 C 827.504 -0.383287 1.99145 0
M  V30 8716 C 827.837 -1.57868 1.13098 0
M  V30 8717 O 827.112 -1.93535 0.193509 0
M  V30 8718 C 827.395 -0.796879 3.51172 0
M  V30 8719 C 827.248 0.403642 4.47985 0
M  V30 8720 C 828.567 -1.64525 4.08191 0
M  V30 8721 H 825.686 -0.137843 0.723995 0
M  V30 8722 H 828.328 0.343631 1.86867 0
M  V30 8723 H 826.478 -1.41625 3.61766 0
M  V30 8724 H 828.15 1.04204 4.49376 0
M  V30 8725 H 826.393 1.04741 4.20965 0
M  V30 8726 H 827.064 0.0709794 5.51954 0
M  V30 8727 H 829.54 -1.12246 4.00674 0
M  V30 8728 H 828.416 -1.9035 5.14838 0
M  V30 8729 H 828.677 -2.61582 3.56409 0
M  V30 8730 N 827.736 -1.57571 -0.0300757 0
M  V30 8731 C 828.699 -2.05468 -1.01565 0
M  V30 8732 C 829.699 -0.958628 -1.29101 0
M  V30 8733 O 830.889 -1.22228 -1.24121 0
M  V30 8734 C 828.021 -2.47077 -2.34874 0
M  V30 8735 H 829.214 -2.93797 -0.601936 0
M  V30 8736 H 826.767 -1.53828 -0.276878 0
M  V30 8737 H 827.502 -1.61901 -2.80996 0
M  V30 8738 H 827.287 -3.27097 -2.16218 0
M  V30 8739 H 828.777 -2.84564 -3.05635 0
M  V30 8740 N 829.214 0.302327 -1.54673 0
M  V30 8741 C 830.491 1.05721 -1.64567 0
M  V30 8742 C 830.871 2.0526 -0.493108 0
M  V30 8743 O 830.219 2.22729 0.510315 0
M  V30 8744 C 830.429 1.74025 -3.02517 0
M  V30 8745 C 831.777 2.26271 -3.59286 0
M  V30 8746 O 832.801 1.8406 -3.0496 0
M  V30 8747 O 831.66 3.0361 -4.54404 0
M  V30 8748 H 828.754 0.488577 -0.667249 0
M  V30 8749 H 831.3 0.300521 -1.67018 0
M  V30 8750 H 830.072 1.0174 -3.77842 0
M  V30 8751 H 829.695 2.56454 -3.03838 0
M  V30 8752 N 830.692 1.47107 0.565454 0
M  V30 8753 C 831.639 1.58974 1.6732 0
M  V30 8754 C 832.609 0.433146 1.60353 0
M  V30 8755 O 833.794 0.652141 1.79309 0
M  V30 8756 C 830.934 1.60224 3.05651 0
M  V30 8757 C 830.047 2.86741 3.23116 0
M  V30 8758 C 829.182 2.79381 4.51796 0
M  V30 8759 C 828.221 4.0076 4.62664 0
M  V30 8760 N 827.358 3.91685 5.8269 0
M  V30 8761 H 832.198 2.53588 1.56515 0
M  V30 8762 H 829.735 1.25791 0.762558 0
M  V30 8763 H 831.693 1.58933 3.85741 0
M  V30 8764 H 830.323 0.691285 3.15311 0
M  V30 8765 H 829.375 2.97936 2.36513 0
M  V30 8766 H 830.687 3.7665 3.27011 0
M  V30 8767 H 829.841 2.76293 5.40136 0
M  V30 8768 H 828.58 1.87142 4.50366 0
M  V30 8769 H 827.585 4.04162 3.72738 0
M  V30 8770 H 828.81 4.94117 4.6586 0
M  V30 8771 H 826.756 3.02243 5.82224 0
M  V30 8772 H 826.673 4.75264 5.87929 0
M  V30 8773 H 827.941 3.92599 6.73414 0
M  V30 8774 N 832.17 -0.811516 1.35101 0
M  V30 8775 C 833.103 -1.92872 1.21966 0
M  V30 8776 C 834.081 -1.62236 0.108667 0
M  V30 8777 O 835.265 -1.8647 0.275875 0
M  V30 8778 C 832.392 -3.27152 0.876886 0
M  V30 8779 C 831.438 -3.7674 1.99924 0
M  V30 8780 S 832.271 -3.95132 3.61429 0
M  V30 8781 C 833.427 -5.32322 3.29218 0
M  V30 8782 H 833.66 -2.03718 2.16532 0
M  V30 8783 H 831.193 -0.968352 1.20259 0
M  V30 8784 H 833.151 -4.04729 0.685917 0
M  V30 8785 H 831.812 -3.14059 -0.0506289 0
M  V30 8786 H 831.005 -4.73981 1.71343 0
M  V30 8787 H 830.607 -3.06145 2.14829 0
M  V30 8788 H 832.899 -6.1614 2.8174 0
M  V30 8789 H 833.842 -5.65893 4.25641 0
M  V30 8790 H 834.25 -4.98374 2.65111 0
M  V30 8791 N 833.648 -1.19017 -1.03309 0
M  V30 8792 C 834.876 -1.01534 -1.80273 0
M  V30 8793 C 835.291 0.43605 -1.83696 0
M  V30 8794 O 834.648 1.30288 -1.27794 0
M  V30 8795 C 834.699 -1.5722 -3.25522 0
M  V30 8796 O 834.42 -2.96677 -3.22358 0
M  V30 8797 C 835.921 -1.4446 -4.19102 0
M  V30 8798 H 833.141 -0.358094 -0.567459 0
M  V30 8799 H 835.685 -1.57738 -1.3015 0
M  V30 8800 H 833.84 -1.05174 -3.7285 0
M  V30 8801 H 834.254 -3.22795 -4.13405 0
M  V30 8802 H 835.728 -1.88209 -5.18923 0
M  V30 8803 H 836.205 -0.394471 -4.37425 0
M  V30 8804 H 836.811 -1.95616 -3.77643 0
M  V30 8805 N 835.127 1.22348 -0.993418 0
M  V30 8806 C 836.352 1.95666 -0.687727 0
M  V30 8807 C 836.777 1.72883 0.741161 0
M  V30 8808 O 836.135 1.00837 1.50671 0
M  V30 8809 C 836.183 3.46457 -0.99998 0
M  V30 8810 O 835.287 4.12281 -0.0989386 0
M  V30 8811 H 834.628 0.612102 -0.257346 0
M  V30 8812 H 837.158 1.55428 -1.33054 0
M  V30 8813 H 837.168 3.96976 -0.942035 0
M  V30 8814 H 835.843 3.62365 -2.04118 0
M  V30 8815 H 834.42 3.72295 -0.212413 0
M  V30 8816 N 836.605 0.766683 1.37694 0
M  V30 8817 C 837.538 0.0959288 2.27998 0
M  V30 8818 C 838.516 -0.714493 1.46061 0
M  V30 8819 O 839.7 -0.690337 1.75404 0
M  V30 8820 C 836.827 -0.87057 3.27321 0
M  V30 8821 C 835.873 -0.144771 4.26254 0
M  V30 8822 S 836.706 1.16365 5.22704 0
M  V30 8823 C 837.862 0.200564 6.25579 0
M  V30 8824 H 838.095 0.861666 2.84539 0
M  V30 8825 H 835.628 0.559845 1.43893 0
M  V30 8826 H 837.586 -1.42282 3.85053 0
M  V30 8827 H 836.247 -1.60938 2.69737 0
M  V30 8828 H 835.44 -0.877259 4.96307 0
M  V30 8829 H 835.042 0.33633 3.72485 0
M  V30 8830 H 837.334 -0.628833 6.74575 0
M  V30 8831 H 838.277 0.869117 7.02746 0
M  V30 8832 H 838.685 -0.185972 5.64194 0
M  V30 8833 N 838.083 -1.48885 0.516809 0
M  V30 8834 C 839.016 -2.26218 -0.30011 0
M  V30 8835 C 839.994 -1.31491 -0.956496 0
M  V30 8836 O 841.178 -1.6081 -0.983488 0
M  V30 8837 C 838.305 -3.07315 -1.42392 0
M  V30 8838 C 837.351 -4.17316 -0.880295 0
M  V30 8839 S 838.184 -5.34955 0.24146 0
M  V30 8840 C 839.34 -6.1961 -0.885138 0
M  V30 8841 H 839.573 -2.95158 0.356217 0
M  V30 8842 H 837.106 -1.5141 0.302365 0
M  V30 8843 H 839.064 -3.54619 -2.06775 0
M  V30 8844 H 837.725 -2.37813 -2.05192 0
M  V30 8845 H 836.918 -4.73635 -1.72297 0
M  V30 8846 H 836.52 -3.72685 -0.313396 0
M  V30 8847 H 838.812 -6.53513 -1.78682 0
M  V30 8848 H 839.755 -7.07183 -0.360226 0
M  V30 8849 H 840.163 -5.52461 -1.1596 0
M  V30 8850 N 839.561 -0.251338 -1.55583 0
M  V30 8851 C 840.491 0.640437 -2.24545 0
M  V30 8852 C 841.472 1.17781 -1.22726 0
M  V30 8853 O 842.657 1.21633 -1.5139 0
M  V30 8854 C 839.787 1.8355 -2.94834 0
M  V30 8855 C 838.741 1.4307 -4.03379 0
M  V30 8856 C 838.067 2.70695 -4.61116 0
M  V30 8857 C 839.367 0.59848 -5.1886 0
M  V30 8858 H 841.061 0.0653772 -2.99329 0
M  V30 8859 H 838.607 0.0300042 -1.43969 0
M  V30 8860 H 840.56 2.46505 -3.4178 0
M  V30 8861 H 839.284 2.43601 -2.17546 0
M  V30 8862 H 837.943 0.824474 -3.57209 0
M  V30 8863 H 837.591 3.28954 -3.80524 0
M  V30 8864 H 837.291 2.44332 -5.34393 0
M  V30 8865 H 838.815 3.34541 -5.10798 0
M  V30 8866 H 840.229 1.13244 -5.62004 0
M  V30 8867 H 838.626 0.430728 -5.98552 0
M  V30 8868 H 839.696 -0.38829 -4.83343 0
M  V30 8869 N 841.039 1.57585 0.0217189 0
M  V30 8870 C 842.287 1.89231 0.709641 0
M  V30 8871 C 842.608 0.849964 1.75501 0
M  V30 8872 O 841.878 -0.115485 1.95559 0
M  V30 8873 H 840.458 0.69838 0.265092 0
M  V30 8874 H 843.12 1.94895 -0.0140688 0
M  V30 8875 H 842.216 2.88333 1.19459 0
M  V30 8876 N 842.517 -0.29412 1.54831 0
M  V30 8877 C 843.745 -1.04724 1.78439 0
M  V30 8878 C 844.16 -1.80695 0.547239 0
M  V30 8879 O 843.517 -1.75989 -0.483141 0
M  V30 8880 C 843.568 -2.02242 2.99634 0
M  V30 8881 O 843.289 -1.29352 4.18568 0
M  V30 8882 C 844.79 -2.89537 3.35683 0
M  V30 8883 H 842.01 -0.310285 0.594949 0
M  V30 8884 H 844.554 -0.331306 2.01798 0
M  V30 8885 H 842.709 -2.69328 2.78462 0
M  V30 8886 H 843.123 -1.94901 4.86943 0
M  V30 8887 H 844.597 -3.538 4.23709 0
M  V30 8888 H 845.074 -3.58201 2.54143 0
M  V30 8889 H 845.68 -2.27973 3.59038 0
M  V30 8890 N 843.995 -1.47404 -0.557645 0
M  V30 8891 C 845.242 -1.54007 -1.31484 0
M  V30 8892 C 845.57 -0.202162 -1.93447 0
M  V30 8893 O 844.825 0.804901 -1.78381 0
M  V30 8894 C 845.124 -2.6061 -2.44575 0
M  V30 8895 C 844.79 -4.03896 -2.00446 0
M  V30 8896 C 843.452 -4.42901 -1.88127 0
M  V30 8897 C 845.804 -4.93804 -1.66754 0
M  V30 8898 C 843.132 -5.6965 -1.40411 0
M  V30 8899 C 845.484 -6.21016 -1.20509 0
M  V30 8900 C 844.148 -6.58903 -1.06786 0
M  V30 8901 H 843.418 -0.563552 -0.481134 0
M  V30 8902 H 846.065 -1.81001 -0.625375 0
M  V30 8903 H 844.37 -2.27371 -3.19076 0
M  V30 8904 H 846.067 -2.62941 -3.02759 0
M  V30 8905 H 842.657 -3.73077 -2.10977 0
M  V30 8906 H 846.841 -4.64369 -1.75144 0
M  V30 8907 H 842.097 -5.97755 -1.2845 0
M  V30 8908 H 846.271 -6.90095 -0.935001 0
M  V30 8909 H 843.898 -7.57008 -0.695891 0
M  V30 8910 N 845.473 0.80434 -1.35529 0
M  V30 8911 C 846.701 1.59283 -1.32048 0
M  V30 8912 C 847.116 1.88527 0.101556 0
M  V30 8913 O 846.473 1.48975 1.05417 0
M  V30 8914 C 846.524 2.92276 -2.12737 0
M  V30 8915 O 846.245 2.64299 -3.49396 0
M  V30 8916 C 847.746 3.86631 -2.16867 0
M  V30 8917 H 844.966 0.494523 -0.453528 0
M  V30 8918 H 847.51 0.999415 -1.78415 0
M  V30 8919 H 845.665 3.48125 -1.69964 0
M  V30 8920 H 846.079 3.4923 -3.91329 0
M  V30 8921 H 847.553 4.77053 -2.77712 0
M  V30 8922 H 848.03 4.23384 -1.16803 0
M  V30 8923 H 848.636 3.36717 -2.59811 0
M  V30 8924 N 846.951 1.19563 1.02676 0
M  V30 8925 C 847.899 0.931942 2.13114 0
M  V30 8926 C 848.893 -0.113007 1.69023 0
M  V30 8927 O 850.099 0.0364298 1.79963 0
M  V30 8928 H 846.474 0.283981 0.696318 0
M  V30 8929 H 848.445 1.86991 2.32545 0
M  V30 8930 C 847.194 0.489461 3.44238 0
M  V30 8931 H 846.517 1.28508 3.78584 0
M  V30 8932 H 847.957 0.34408 4.22602 0
M  V30 8933 C 846.416 -0.796761 3.27343 0
M  V30 8934 O 846.946 -1.85767 3.56165 0
M  V30 8935 N 845.152 -0.754824 2.80626 0
M  V30 8936 H 844.699 0.108778 2.5737 0
M  V30 8937 H 844.657 -1.6158 2.69702 0
M  V30 8938 N 848.429 -1.21819 0.999893 0
M  V30 8939 C 849.677 -1.90375 0.678351 0
M  V30 8940 C 849.998 -1.78155 -0.792824 0
M  V30 8941 O 849.268 -1.17319 -1.56885 0
M  V30 8942 H 847.848 -0.704661 0.247915 0
M  V30 8943 H 850.51 -1.48021 1.2679 0
M  V30 8944 H 849.606 -2.97385 0.947023 0
M  V30 8945 N 849.908 -0.773975 -1.37286 0
M  V30 8946 C 851.136 -0.350758 -2.03905 0
M  V30 8947 C 851.551 1.02779 -1.58373 0
M  V30 8948 O 850.908 1.65646 -0.766009 0
M  V30 8949 C 850.959 -0.387335 -3.59419 0
M  V30 8950 O 850.68 -1.7115 -4.03286 0
M  V30 8951 C 852.181 0.047198 -4.43275 0
M  V30 8952 H 849.401 -0.146663 -0.654775 0
M  V30 8953 H 851.945 -1.04852 -1.75574 0
M  V30 8954 H 850.1 0.261865 -3.86514 0
M  V30 8955 H 850.514 -1.65166 -4.97816 0
M  V30 8956 H 851.988 -0.0295474 -5.51992 0
M  V30 8957 H 852.465 1.09786 -4.25257 0
M  V30 8958 H 853.071 -0.573899 -4.2141 0
M  V30 8959 N 851.386 1.48609 -0.524698 0
M  V30 8960 C 852.634 2.02097 0.0112991 0
M  V30 8961 C 852.955 1.40455 1.35268 0
M  V30 8962 O 852.225 0.56807 1.87483 0
M  V30 8963 H 850.805 0.746966 0.00716426 0
M  V30 8964 H 853.467 1.82378 -0.687329 0
M  V30 8965 H 852.563 3.11855 0.123531 0
M  V30 8966 N 852.864 0.259585 1.55447 0
M  V30 8967 C 854.113 -0.362163 1.98422 0
M  V30 8968 C 854.426 -1.58135 1.1512 0
M  V30 8969 O 855.632 -2.27506 1.48166 0
M  V30 8970 C 854.088 -0.695722 3.53111 0
M  V30 8971 C 853.696 0.502784 4.4517 0
M  V30 8972 C 855.44 -1.28096 4.04712 0
M  V30 8973 C 853.347 0.144674 5.91223 0
M  V30 8974 H 852.277 -0.139092 0.74106 0
M  V30 8975 H 854.928 0.361798 1.79898 0
M  V30 8976 H 853.31 -1.47816 3.67378 0
M  V30 8977 H 854.484 1.27994 4.42667 0
M  V30 8978 H 852.799 1.0038 4.0412 0
M  V30 8979 H 855.396 -1.56243 5.11363 0
M  V30 8980 H 855.739 -2.20969 3.52815 0
M  V30 8981 H 856.272 -0.561146 3.93822 0
M  V30 8982 H 853.011 1.04087 6.47183 0
M  V30 8983 H 852.531 -0.596023 5.96831 0
M  V30 8984 H 854.21 -0.268651 6.46442 0
M  V30 8985 N 854.342 -1.57594 -0.0133615 0
M  V30 8986 C 855.567 -1.94649 -0.715996 0
M  V30 8987 C 855.992 -0.860786 -1.67249 0
M  V30 8988 O 855.35 0.182228 -1.80382 0
M  V30 8989 C 855.398 -3.30789 -1.43566 0
M  V30 8990 O 854.502 -3.24148 -2.54955 0
M  V30 8991 H 853.843 -0.635801 -0.191449 0
M  V30 8992 H 856.373 -2.04569 0.0358478 0
M  V30 8993 H 856.383 -3.66045 -1.80208 0
M  V30 8994 H 855.058 -4.09367 -0.734263 0
M  V30 8995 H 853.635 -3.00548 -2.20739 0
M  V30 8996 N 855.82 0.285905 -1.54985 0
M  V30 8997 C 857.045 1.04207 -1.7932 0
M  V30 8998 C 857.47 1.79622 -0.558343 0
M  V30 8999 O 856.828 1.74506 0.491661 0
M  V30 9000 C 856.876 1.98648 -3.0095 0
M  V30 9001 O 855.98 3.07207 -2.75132 0
M  V30 9002 H 855.321 0.298596 -0.593074 0
M  V30 9003 H 857.851 0.318736 -2.02102 0
M  V30 9004 H 857.861 2.4084 -3.29333 0
M  V30 9005 H 856.536 1.43167 -3.90482 0
M  V30 9006 H 855.113 2.69423 -2.57809 0
M  V30 9007 N 857.298 1.47698 0.54982 0
M  V30 9008 C 858.523 1.58579 1.33669 0
M  V30 9009 C 858.948 0.239049 1.86575 0
M  V30 9010 O 858.306 -0.786256 1.63364 0
M  V30 9011 C 858.354 2.62029 2.47736 0
M  V30 9012 O 857.458 2.17813 3.50188 0
M  V30 9013 H 856.799 0.532447 0.396732 0
M  V30 9014 H 859.329 1.93536 0.6637 0
M  V30 9015 H 859.339 2.82682 2.94202 0
M  V30 9016 H 858.014 3.59812 2.08586 0
M  V30 9017 H 856.591 2.07291 3.09976 0
M  V30 9018 N 858.776 -0.797141 1.35954 0
M  V30 9019 C 860.187 -1.37179 1.26644 0
M  V30 9020 C 860.538 -1.9596 -0.0971046 0
M  V30 9021 O 859.663 -1.91994 -0.998355 0
M  V30 9022 C 860.258 -2.49395 2.2932 0
M  V30 9023 C 858.817 -3.02697 2.23722 0
M  V30 9024 C 857.964 -1.75721 2.14517 0
M  V30 9025 H 860.915 -0.599407 1.46945 0
M  V30 9026 H 860.936 -3.28204 1.92515 0
M  V30 9027 H 860.448 -2.06584 3.2855 0
M  V30 9028 H 858.549 -3.49948 1.27934 0
M  V30 9029 H 858.662 -3.60036 3.16087 0
M  V30 9030 H 857.026 -1.97649 1.60646 0
M  V30 9031 H 857.809 -1.35049 3.15621 0
M  V30 9032 N 860.254 -1.20106 -1.0204 0
M  V30 9033 C 861.217 -0.948261 -2.08664 0
M  V30 9034 C 862.217 0.0746753 -1.60627 0
M  V30 9035 O 863.407 -0.160981 -1.73455 0
M  V30 9036 C 860.539 -0.426854 -3.38217 0
M  V30 9037 H 861.732 -1.894 -2.32524 0
M  V30 9038 H 859.285 -1.0159 -1.18782 0
M  V30 9039 H 860.02 0.524532 -3.2003 0
M  V30 9040 H 859.805 -1.16451 -3.74408 0
M  V30 9041 H 861.295 -0.269346 -4.1673 0
M  V30 9042 N 861.732 1.21287 -1.00634 0
M  V30 9043 C 863.009 1.86 -0.605257 0
M  V30 9044 C 863.389 1.90139 0.917072 0
M  V30 9045 O 862.737 1.40169 1.80458 0
M  V30 9046 C 862.947 3.26183 -1.24119 0
M  V30 9047 C 864.295 4.02562 -1.35015 0
M  V30 9048 O 865.319 3.35499 -1.19661 0
M  V30 9049 O 864.178 5.22638 -1.59726 0
M  V30 9050 H 861.272 0.800549 -0.207486 0
M  V30 9051 H 863.818 1.28959 -1.10307 0
M  V30 9052 H 862.59 3.17878 -2.28186 0
M  V30 9053 H 862.213 3.90845 -0.729807 0
M  V30 9054 N 863.21 0.781244 1.36873 0
M  V30 9055 C 864.44 0.361042 2.03421 0
M  V30 9056 C 864.848 -1.02471 1.59048 0
M  V30 9057 O 864.191 -1.66712 0.771552 0
M  V30 9058 C 864.253 0.336202 3.57924 0
M  V30 9059 C 863.917 1.66815 4.25467 0
M  V30 9060 C 864.914 2.62224 4.48926 0
M  V30 9061 C 862.599 1.9452 4.63106 0
M  V30 9062 C 864.593 3.83538 5.09095 0
M  V30 9063 C 862.28 3.16103 5.22994 0
M  V30 9064 C 863.278 4.10431 5.45926 0
M  V30 9065 O 862.966 5.29871 6.04559 0
M  V30 9066 H 862.698 0.147956 0.65961 0
M  V30 9067 H 865.252 1.05895 1.75998 0
M  V30 9068 H 863.482 -0.418147 3.84433 0
M  V30 9069 H 865.171 -0.0582199 4.05858 0
M  V30 9070 H 865.937 2.42104 4.20251 0
M  V30 9071 H 861.816 1.21921 4.44585 0
M  V30 9072 H 865.36 4.57178 5.2691 0
M  V30 9073 H 861.257 3.36104 5.51094 0
M  V30 9074 H 862.025 5.30825 6.23031 0
M  V30 9075 N 864.689 -1.48329 0.532571 0
M  V30 9076 C 865.935 -2.028 -0.000583219 0
M  V30 9077 C 866.268 -1.40858 -1.33688 0
M  V30 9078 O 865.543 -0.555261 -1.86406 0
M  V30 9079 C 865.826 -3.59901 -0.119846 0
M  V30 9080 C 865.679 -4.32318 1.2418 0
M  V30 9081 C 866.998 -4.31904 -0.845372 0
M  V30 9082 H 864.117 -0.736999 0.00126205 0
M  V30 9083 H 866.759 -1.77024 0.690102 0
M  V30 9084 H 864.909 -3.81993 -0.708092 0
M  V30 9085 H 866.581 -4.21637 1.87136 0
M  V30 9086 H 864.824 -3.93635 1.82301 0
M  V30 9087 H 865.495 -5.40697 1.11132 0
M  V30 9088 H 867.971 -4.14658 -0.346159 0
M  V30 9089 H 866.847 -5.41509 -0.897723 0
M  V30 9090 H 867.108 -3.99369 -1.89622 0
M  V30 9091 N 866.167 -0.267825 -1.55308 0
M  V30 9092 C 867.1 0.663973 -2.18327 0
M  V30 9093 C 868.078 1.15759 -1.14187 0
M  V30 9094 O 869.262 1.23189 -1.42677 0
M  V30 9095 C 866.389 1.9047 -2.8007 0
M  V30 9096 C 865.435 1.54718 -3.97447 0
M  V30 9097 S 866.268 0.631654 -5.31762 0
M  V30 9098 C 867.424 1.88092 -5.96969 0
M  V30 9099 H 867.657 0.128486 -2.97022 0
M  V30 9100 H 865.19 -0.052129 -1.54312 0
M  V30 9101 H 867.148 2.61688 -3.16275 0
M  V30 9102 H 865.809 2.41132 -2.01281 0
M  V30 9103 H 865.002 2.47022 -4.39313 0
M  V30 9104 H 864.604 0.915254 -3.62628 0
M  V30 9105 H 866.896 2.82572 -6.15759 0
M  V30 9106 H 867.839 1.50539 -6.91913 0
M  V30 9107 H 868.247 2.04254 -5.26252 0
M  V30 9108 N 867.645 1.57599 0.00500368 0
M  V30 9109 C 868.608 2.07058 0.982832 0
M  V30 9110 C 869.608 0.979045 1.27559 0
M  V30 9111 O 870.798 1.24187 1.22161 0
M  V30 9112 C 867.93 2.50782 2.30914 0
M  V30 9113 H 869.123 2.94718 0.555119 0
M  V30 9114 H 866.676 1.54249 0.25237 0
M  V30 9115 H 867.411 1.66351 2.78385 0
M  V30 9116 H 867.196 3.30495 2.10987 0
M  V30 9117 H 868.686 2.89391 3.0107 0
M  V30 9118 N 869.123 -0.277682 1.55134 0
M  V30 9119 C 870.371 -1.00791 1.75173 0
M  V30 9120 C 870.692 -1.86987 0.553266 0
M  V30 9121 O 869.962 -1.91079 -0.43195 0
M  V30 9122 H 868.542 -0.375129 0.645978 0
M  V30 9123 H 871.204 -0.303041 1.9253 0
M  V30 9124 H 870.3 -1.64756 2.6507 0
M  V30 9125 N 870.601 -1.47988 -0.541979 0
M  V30 9126 C 871.548 -1.61615 -1.6477 0
M  V30 9127 C 872.518 -0.458602 -1.59644 0
M  V30 9128 O 873.703 -0.680585 -1.78249 0
M  V30 9129 C 870.843 -1.65066 -3.03063 0
M  V30 9130 C 869.956 -2.91845 -3.18513 0
M  V30 9131 C 869.091 -2.86534 -4.47294 0
M  V30 9132 C 868.13 -4.0807 -4.5623 0
M  V30 9133 N 867.267 -4.00905 -5.76385 0
M  V30 9134 H 872.107 -2.56046 -1.52461 0
M  V30 9135 H 869.644 -1.26989 -0.742449 0
M  V30 9136 H 871.602 -1.65049 -3.83164 0
M  V30 9137 H 870.232 -0.74136 -3.14171 0
M  V30 9138 H 869.284 -3.01661 -2.31743 0
M  V30 9139 H 870.596 -3.81804 -3.20978 0
M  V30 9140 H 869.75 -2.84851 -5.35672 0
M  V30 9141 H 868.489 -1.94283 -4.47332 0
M  V30 9142 H 867.494 -4.10041 -3.66261 0
M  V30 9143 H 868.719 -5.01465 -4.5794 0
M  V30 9144 H 866.665 -3.11467 -5.77342 0
M  V30 9145 H 866.582 -4.84557 -5.80293 0
M  V30 9146 H 867.85 -4.03263 -6.67083 0
M  V30 9147 N 872.079 0.78992 -1.36375 0
M  V30 9148 C 873.307 1.57873 -1.3373 0
M  V30 9149 C 873.722 1.88624 0.0815544 0
M  V30 9150 O 873.079 1.50085 1.03831 0
M  V30 9151 C 873.13 2.90003 -2.15825 0
M  V30 9152 O 872.851 2.60578 -3.5218 0
M  V30 9153 C 874.352 3.84309 -2.20955 0
M  V30 9154 H 871.572 0.489685 -0.458748 0
M  V30 9155 H 874.116 0.980436 -1.79465 0
M  V30 9156 H 872.271 3.46303 -1.73646 0
M  V30 9157 H 872.685 3.4506 -3.95011 0
M  V30 9158 H 874.159 4.74081 -2.82756 0
M  V30 9159 H 874.636 4.22121 -1.21287 0
M  V30 9160 H 875.242 3.33942 -2.63368 0
M  V30 9161 N 873.557 1.20646 1.01402 0
M  V30 9162 C 874.805 1.01618 1.74695 0
M  V30 9163 C 875.126 -0.452438 1.89679 0
M  V30 9164 O 874.396 -1.32693 1.44116 0
M  V30 9165 H 872.976 0.373013 0.647202 0
M  V30 9166 H 875.638 1.518 1.22241 0
M  V30 9167 H 874.734 1.47666 2.74957 0
M  V30 9168 N 875.035 -1.20752 1.01276 0
M  V30 9169 C 876.263 -1.94006 0.718976 0
M  V30 9170 C 876.678 -1.74544 -0.719711 0
M  V30 9171 O 876.035 -1.05697 -1.48776 0
M  V30 9172 C 876.086 -3.46208 1.04031 0
M  V30 9173 O 875.807 -3.65031 2.42248 0
M  V30 9174 C 877.308 -4.36614 0.767032 0
M  V30 9175 H 874.528 -0.616743 0.264327 0
M  V30 9176 H 877.072 -1.53352 1.3529 0
M  V30 9177 H 875.227 -3.84756 0.451852 0
M  V30 9178 H 875.641 -4.59054 2.53712 0
M  V30 9179 H 877.115 -5.42076 1.04198 0
M  V30 9180 H 877.592 -4.38182 -0.298851 0
M  V30 9181 H 878.198 -4.03723 1.33746 0
M  V30 9182 N 876.513 -0.788492 -1.36457 0
M  V30 9183 C 877.741 -0.372365 -2.03522 0
M  V30 9184 C 878.156 1.01093 -1.59454 0
M  V30 9185 O 877.513 1.64824 -0.783535 0
M  V30 9186 C 877.564 -0.425435 -3.58988 0
M  V30 9187 O 877.285 -1.75418 -4.01448 0
M  V30 9188 C 878.786 0.000180167 -4.433 0
M  V30 9189 H 876.006 -0.1536 -0.653183 0
M  V30 9190 H 878.55 -1.06708 -1.74452 0
M  V30 9191 H 876.705 0.220856 -3.8677 0
M  V30 9192 H 877.119 -1.70437 -4.96036 0
M  V30 9193 H 878.593 -0.0880919 -5.5193 0
M  V30 9194 H 879.07 1.05269 -4.26398 0
M  V30 9195 H 879.676 -0.618563 -4.20778 0
M  V30 9196 N 877.991 1.48044 -0.54043 0
M  V30 9197 C 878.901 2.33565 0.220163 0
M  V30 9198 C 879.917 1.47146 0.928659 0
M  V30 9199 O 881.093 1.80107 0.901295 0
M  V30 9200 C 878.158 3.2349 1.2472 0
M  V30 9201 C 877.219 4.25789 0.547938 0
M  V30 9202 C 876.452 5.11417 1.52605 0
M  V30 9203 O 876.675 4.99204 2.75956 0
M  V30 9204 O 875.609 5.92498 1.05972 0
M  V30 9205 H 879.435 2.99868 -0.480898 0
M  V30 9206 H 877.02 1.46332 -0.301226 0
M  V30 9207 H 878.902 3.79084 1.84047 0
M  V30 9208 H 877.577 2.59835 1.93048 0
M  V30 9209 H 876.484 3.74001 -0.0860941 0
M  V30 9210 H 877.817 4.92111 -0.0935896 0
M  V30 9211 N 879.47 0.276058 1.55163 0
M  V30 9212 C 880.433 -0.597924 2.21263 0
M  V30 9213 C 881.433 -1.0806 1.19078 0
M  V30 9214 O 882.623 -0.980626 1.43977 0
M  V30 9215 C 879.755 -1.82503 2.87933 0
M  V30 9216 H 880.948 -0.0207769 2.99893 0
M  V30 9217 H 878.501 0.0266823 1.56277 0
M  V30 9218 H 879.236 -2.44266 2.13318 0
M  V30 9219 H 879.021 -1.48683 3.62816 0
M  V30 9220 H 880.511 -2.44651 3.38431 0
M  V30 9221 N 880.948 -1.576 0.00335426 0
M  V30 9222 C 882.194 -1.90996 -0.681799 0
M  V30 9223 C 882.527 -0.877643 -1.73237 0
M  V30 9224 O 881.802 0.103183 -1.94226 0
M  V30 9225 C 882.085 -3.34961 -1.32187 0
M  V30 9226 C 881.938 -4.48911 -0.28261 0
M  V30 9227 C 883.257 -3.78408 -2.24711 0
M  V30 9228 H 880.376 -0.694596 -0.246386 0
M  V30 9229 H 883.018 -1.89919 0.055336 0
M  V30 9230 H 881.168 -3.36008 -1.95014 0
M  V30 9231 H 882.84 -4.59999 0.346241 0
M  V30 9232 H 881.083 -4.32 0.394768 0
M  V30 9233 H 881.754 -5.46609 -0.769576 0
M  V30 9234 H 884.23 -3.78934 -1.71897 0
M  V30 9235 H 883.106 -4.79885 -2.66461 0
M  V30 9236 H 883.367 -3.12464 -3.1276 0
M  V30 9237 N 882.426 0.269451 -1.5528 0
M  V30 9238 C 883.673 1.00058 -1.76053 0
M  V30 9239 C 884.001 1.86156 -0.563592 0
M  V30 9240 O 883.256 1.90366 0.453806 0
M  V30 9241 C 883.555 1.91 -3.02082 0
M  V30 9242 C 883.221 1.20623 -4.34466 0
M  V30 9243 C 881.883 1.01165 -4.70446 0
M  V30 9244 C 884.235 0.705695 -5.164 0
M  V30 9245 C 881.563 0.303865 -5.85913 0
M  V30 9246 C 883.915 0.0114838 -6.32599 0
M  V30 9247 C 882.579 -0.19478 -6.67216 0
M  V30 9248 H 881.849 0.366138 -0.644223 0
M  V30 9249 H 884.496 0.272563 -1.8955 0
M  V30 9250 H 882.801 2.70435 -2.835 0
M  V30 9251 H 884.498 2.47698 -3.15352 0
M  V30 9252 H 881.088 1.36781 -4.06188 0
M  V30 9253 H 885.272 0.84364 -4.89077 0
M  V30 9254 H 880.528 0.133368 -6.11255 0
M  V30 9255 H 884.702 -0.384111 -6.9534 0
M  V30 9256 H 882.329 -0.745201 -7.56539 0
M  V30 9257 N 883.904 1.48273 0.534124 0
M  V30 9258 C 884.852 1.62926 1.66005 0
M  V30 9259 C 885.846 0.495814 1.61982 0
M  V30 9260 O 887.052 0.6744 1.66889 0
M  V30 9261 H 883.427 0.513163 0.549698 0
M  V30 9262 H 885.398 2.57498 1.50789 0
M  V30 9263 C 884.147 1.68231 3.04292 0
M  V30 9264 H 883.47 2.54807 3.0808 0
M  V30 9265 H 884.91 1.82528 3.827 0
M  V30 9266 C 883.369 0.420154 3.3427 0
M  V30 9267 O 883.899 -0.468769 3.98955 0
M  V30 9268 N 882.105 0.293115 2.89118 0
M  V30 9269 H 881.652 1.01745 2.36655 0
M  V30 9270 H 881.61 -0.550376 3.09545 0
M  V30 9271 N 885.382 -0.782676 1.36792 0
M  V30 9272 C 886.793 -1.35828 1.28092 0
M  V30 9273 C 887.144 -1.96052 -0.076315 0
M  V30 9274 O 886.269 -1.93042 -0.977935 0
M  V30 9275 C 886.864 -2.46949 2.31952 0
M  V30 9276 C 885.423 -3.00307 2.2692 0
M  V30 9277 C 884.57 -1.73436 2.16368 0
M  V30 9278 H 887.521 -0.583788 1.47572 0
M  V30 9279 H 887.542 -3.26144 1.95986 0
M  V30 9280 H 887.054 -2.03087 3.30722 0
M  V30 9281 H 885.155 -3.48571 1.31639 0
M  V30 9282 H 885.268 -3.56663 3.19887 0
M  V30 9283 H 883.632 -1.95934 1.62733 0
M  V30 9284 H 884.415 -1.31693 3.17036 0
M  V30 9285 N 886.86 -1.21182 -1.00761 0
M  V30 9286 C 887.77 -0.984691 -2.12934 0
M  V30 9287 C 888.786 0.0623657 -1.73888 0
M  V30 9288 O 889.962 -0.1271 -2.00999 0
M  V30 9289 C 887.027 -0.549447 -3.42319 0
M  V30 9290 C 886.088 -1.66841 -3.95553 0
M  V30 9291 C 885.321 -1.25384 -5.18763 0
M  V30 9292 O 885.544 -0.126333 -5.7026 0
M  V30 9293 O 884.478 -2.06475 -5.65377 0
M  V30 9294 H 888.304 -1.92413 -2.3497 0
M  V30 9295 H 885.889 -0.99647 -1.11314 0
M  V30 9296 H 887.771 -0.316384 -4.20211 0
M  V30 9297 H 886.446 0.361304 -3.21677 0
M  V30 9298 H 885.353 -1.95585 -3.189 0
M  V30 9299 H 886.686 -2.55649 -4.206 0
M  V30 9300 N 888.338 1.20213 -1.01915 0
M  V30 9301 C 889.568 1.93341 -0.728197 0
M  V30 9302 C 889.976 1.75151 0.715454 0
M  V30 9303 O 889.319 1.06437 1.49722 0
M  V30 9304 C 889.381 3.45677 -0.9873 0
M  V30 9305 C 889.045 3.8763 -2.42057 0
M  V30 9306 C 890.042 3.93184 -3.40151 0
M  V30 9307 C 887.727 4.19547 -2.76199 0
M  V30 9308 C 889.721 4.30069 -4.70446 0
M  V30 9309 C 887.408 4.56106 -4.06707 0
M  V30 9310 C 888.406 4.6134 -5.03641 0
M  V30 9311 O 888.094 4.97059 -6.31813 0
M  V30 9312 H 887.826 0.621258 -0.266485 0
M  V30 9313 H 890.38 1.53577 -1.36393 0
M  V30 9314 H 888.61 3.85578 -0.294405 0
M  V30 9315 H 890.299 4.00035 -0.687536 0
M  V30 9316 H 891.065 3.68687 -3.15111 0
M  V30 9317 H 886.944 4.14663 -2.01434 0
M  V30 9318 H 890.488 4.34069 -5.46105 0
M  V30 9319 H 886.385 4.80059 -4.31525 0
M  V30 9320 H 887.153 5.15043 -6.36139 0
M  V30 9321 N 889.816 0.795718 1.36037 0
M  V30 9322 C 891.044 0.383153 2.03321 0
M  V30 9323 C 891.459 -1.00246 1.59988 0
M  V30 9324 O 890.816 -1.64406 0.792265 0
M  V30 9325 C 890.867 0.444467 3.58757 0
M  V30 9326 O 890.588 1.77544 4.00512 0
M  V30 9327 C 892.089 0.0233291 4.43294 0
M  V30 9328 H 889.309 0.157061 0.652359 0
M  V30 9329 H 891.853 1.07632 1.73884 0
M  V30 9330 H 890.008 -0.200341 3.86882 0
M  V30 9331 H 890.422 1.73065 4.95125 0
M  V30 9332 H 891.896 0.117361 5.51875 0
M  V30 9333 H 892.373 -1.03007 4.2695 0
M  V30 9334 H 892.979 0.64087 4.20444 0
M  V30 9335 N 891.294 -1.47756 0.548274 0
M  V30 9336 C 892.519 -2.07387 0.023475 0
M  V30 9337 C 892.944 -1.39956 -1.25674 0
M  V30 9338 O 892.302 -0.471543 -1.7506 0
M  V30 9339 C 892.35 -3.60224 -0.164669 0
M  V30 9340 O 891.454 -3.93653 -1.22928 0
M  V30 9341 H 890.795 -0.662312 0.0473156 0
M  V30 9342 H 893.325 -1.89905 0.761409 0
M  V30 9343 H 893.335 -4.06211 -0.38166 0
M  V30 9344 H 892.01 -4.08702 0.770425 0
M  V30 9345 H 890.587 -3.59422 -0.993495 0
M  V30 9346 N 892.772 -0.284283 -1.55015 0
M  V30 9347 C 894.049 0.382125 -1.91831 0
M  V30 9348 C 894.429 1.73007 -1.20962 0
M  V30 9349 O 893.777 2.25962 -0.339594 0
M  V30 9350 C 893.987 0.513341 -3.45204 0
M  V30 9351 C 895.335 0.791989 -4.17148 0
M  V30 9352 O 896.359 0.597799 -3.51148 0
M  V30 9353 O 895.218 1.16394 -5.33961 0
M  V30 9354 H 892.312 0.210707 -0.799707 0
M  V30 9355 H 894.858 -0.331111 -1.66438 0
M  V30 9356 H 893.63 -0.434911 -3.88876 0
M  V30 9357 H 893.253 1.27569 -3.76579 0
M  V30 9358 N 894.251 1.57596 -0.0117121 0
M  V30 9359 C 895.183 2.06025 1.0043 0
M  V30 9360 C 896.196 0.980348 1.29973 0
M  V30 9361 O 897.385 1.25691 1.26744 0
M  V30 9362 C 894.485 2.45514 2.33615 0
M  V30 9363 C 893.658 3.76378 2.22842 0
M  V30 9364 C 892.717 4.02606 3.38814 0
M  V30 9365 O 891.743 4.73108 3.16477 0
M  V30 9366 N 892.945 3.51416 4.62047 0
M  V30 9367 H 895.71 2.93811 0.591206 0
M  V30 9368 H 893.271 1.60947 0.175427 0
M  V30 9369 H 895.263 2.60166 3.09993 0
M  V30 9370 H 893.833 1.63186 2.66625 0
M  V30 9371 H 893.053 3.71691 1.313 0
M  V30 9372 H 894.341 4.62149 2.12829 0
M  V30 9373 H 893.739 2.94346 4.83091 0
M  V30 9374 H 892.296 3.71377 5.35651 0
M  V30 9375 N 895.729 -0.261212 1.5542 0
M  V30 9376 C 896.975 -0.988533 1.77763 0
M  V30 9377 C 897.33 -1.83504 0.578286 0
M  V30 9378 O 896.623 -1.8674 -0.428808 0
M  V30 9379 C 896.817 -1.89395 3.03091 0
M  V30 9380 C 896.646 -1.13658 4.351 0
M  V30 9381 C 895.416 -0.847467 4.98143 0
M  V30 9382 C 897.614 -0.52118 5.11652 0
M  V30 9383 N 895.596 -0.0645324 6.13866 0
M  V30 9384 C 896.967 0.127016 6.1987 0
M  V30 9385 C 899.022 -0.430206 4.96038 0
M  V30 9386 C 897.725 0.857433 7.14171 0
M  V30 9387 C 899.751 0.286645 5.90705 0
M  V30 9388 C 899.113 0.923534 6.9832 0
M  V30 9389 H 895.212 -0.343317 0.702608 0
M  V30 9390 H 897.796 -0.263035 1.92915 0
M  V30 9391 H 895.967 -2.5916 2.89293 0
M  V30 9392 H 897.699 -2.55576 3.13788 0
M  V30 9393 H 894.454 -1.15569 4.59283 0
M  V30 9394 H 894.878 0.31461 6.76269 0
M  V30 9395 H 899.52 -0.908278 4.12929 0
M  V30 9396 H 897.238 1.34715 7.96792 0
M  V30 9397 H 900.824 0.357511 5.80701 0
M  V30 9398 H 899.704 1.46939 7.70311 0
M  V30 9399 N 897.207 -1.48554 -0.526253 0
M  V30 9400 C 898.453 -1.56994 -1.28378 0
M  V30 9401 C 898.786 -0.244701 -1.92652 0
M  V30 9402 O 898.061 0.749636 -1.79473 0
M  V30 9403 C 898.344 -2.71092 -2.37026 0
M  V30 9404 C 898.197 -4.13331 -1.77418 0
M  V30 9405 C 899.516 -2.80934 -3.38769 0
M  V30 9406 H 896.635 -0.571466 -0.465398 0
M  V30 9407 H 899.277 -1.80742 -0.585861 0
M  V30 9408 H 897.427 -2.50973 -2.96555 0
M  V30 9409 H 899.099 -4.44899 -1.21912 0
M  V30 9410 H 897.342 -4.20158 -1.07936 0
M  V30 9411 H 898.013 -4.88994 -2.56104 0
M  V30 9412 H 900.489 -2.9917 -2.892 0
M  V30 9413 H 899.365 -3.62489 -4.12181 0
M  V30 9414 H 899.626 -1.89244 -3.99549 0
M  V30 9415 N 898.685 0.775411 -1.37205 0
M  V30 9416 C 899.934 1.52909 -1.31536 0
M  V30 9417 C 900.247 1.9535 0.0989374 0
M  V30 9418 O 901.453 2.70072 0.278079 0
M  V30 9419 C 899.909 2.761 -2.30861 0
M  V30 9420 C 899.517 2.40773 -3.77799 0
M  V30 9421 C 901.261 3.54052 -2.34195 0
M  V30 9422 C 899.168 3.60444 -4.68865 0
M  V30 9423 H 898.098 0.574061 -0.488845 0
M  V30 9424 H 900.749 0.849642 -1.62645 0
M  V30 9425 H 899.131 3.45916 -1.92764 0
M  V30 9426 H 900.305 1.78764 -4.24712 0
M  V30 9427 H 898.62 1.76004 -3.77375 0
M  V30 9428 H 901.217 4.42992 -2.99437 0
M  V30 9429 H 901.56 3.93649 -1.35449 0
M  V30 9430 H 902.093 2.91229 -2.7098 0
M  V30 9431 H 898.832 3.25932 -5.68725 0
M  V30 9432 H 898.352 4.21571 -4.26659 0
M  V30 9433 H 900.031 4.27302 -4.85821 0
M  V30 9434 N 900.163 1.21714 1.00117 0
M  V30 9435 C 901.411 1.03465 1.73607 0
M  V30 9436 C 901.732 -0.432295 1.90148 0
M  V30 9437 O 901.002 -1.31157 1.45515 0
M  V30 9438 H 899.582 0.379857 0.643209 0
M  V30 9439 H 902.244 1.53088 1.20624 0
M  V30 9440 H 901.34 1.50574 2.73375 0
M  V30 9441 N 901.641 -1.19671 1.02551 0
M  V30 9442 C 902.871 -1.92952 0.738441 0
M  V30 9443 C 903.279 -1.75528 -0.706155 0
M  V30 9444 O 902.622 -1.0723 -1.49156 0
M  V30 9445 C 902.684 -3.45149 1.00562 0
M  V30 9446 C 902.348 -3.86341 2.44109 0
M  V30 9447 C 903.345 -3.91374 3.42231 0
M  V30 9448 C 901.03 -4.18076 2.7842 0
M  V30 9449 C 903.024 -4.27568 4.7272 0
M  V30 9450 C 900.711 -4.53943 4.0912 0
M  V30 9451 C 901.709 -4.58663 5.06081 0
M  V30 9452 O 901.397 -4.93701 6.3444 0
M  V30 9453 H 901.129 -0.619836 0.269776 0
M  V30 9454 H 903.683 -1.52852 1.37206 0
M  V30 9455 H 901.913 -3.85416 0.314849 0
M  V30 9456 H 903.602 -3.99664 0.708742 0
M  V30 9457 H 904.368 -3.67011 3.17061 0
M  V30 9458 H 900.247 -4.13589 2.03631 0
M  V30 9459 H 903.791 -4.31166 5.48399 0
M  V30 9460 H 899.688 -4.77764 4.34064 0
M  V30 9461 H 900.456 -5.11662 6.38862 0
M  V30 9462 N 903.119 -0.802921 -1.35613 0
M  V30 9463 C 904.347 -0.39393 -2.03115 0
M  V30 9464 C 904.762 0.993961 -1.60517 0
M  V30 9465 O 904.119 1.63984 -0.800973 0
M  V30 9466 C 904.17 -0.463486 -3.58516 0
M  V30 9467 O 903.891 -1.79666 -3.99565 0
M  V30 9468 C 905.392 -0.0468377 -4.43275 0
M  V30 9469 H 902.612 -0.160519 -0.651517 0
M  V30 9470 H 905.156 -1.08552 -1.73311 0
M  V30 9471 H 903.311 0.179821 -3.86982 0
M  V30 9472 H 903.725 -1.75688 -4.942 0
M  V30 9473 H 905.199 -0.146626 -5.51805 0
M  V30 9474 H 905.676 1.00741 -4.2749 0
M  V30 9475 H 906.282 -0.663158 -4.20098 0
M  V30 9476 N 904.597 1.47463 -0.556102 0
M  V30 9477 C 906.008 1.86298 -0.122429 0
M  V30 9478 C 906.359 1.46285 1.30749 0
M  V30 9479 O 905.484 0.865405 1.98342 0
M  V30 9480 C 906.079 3.38115 -0.215407 0
M  V30 9481 C 904.638 3.76046 0.163223 0
M  V30 9482 C 903.785 2.71515 -0.563466 0
M  V30 9483 H 906.736 1.38996 -0.765888 0
M  V30 9484 H 906.757 3.76263 0.566271 0
M  V30 9485 H 906.269 3.67207 -1.25622 0
M  V30 9486 H 904.37 3.5257 1.20519 0
M  V30 9487 H 904.483 4.78705 -0.194568 0
M  V30 9488 H 902.847 2.54699 -0.00667879 0
M  V30 9489 H 903.63 3.03449 -1.60542 0
M  V30 9490 N 906.075 0.2925 1.54862 0
M  V30 9491 C 907.352 -0.371946 1.92031 0
M  V30 9492 C 907.732 -1.72363 1.21878 0
M  V30 9493 O 907.08 -2.25779 0.351573 0
M  V30 9494 C 907.29 -0.495027 3.45471 0
M  V30 9495 C 908.638 -0.769855 4.17562 0
M  V30 9496 O 909.662 -0.579168 3.5146 0
M  V30 9497 O 908.521 -1.13561 5.34571 0
M  V30 9498 H 905.615 -0.206463 0.800813 0
M  V30 9499 H 908.161 0.339933 1.6626 0
M  V30 9500 H 906.933 0.455528 3.88639 0
M  V30 9501 H 906.556 -1.2557 3.7725 0
M  V30 9502 N 907.553 -1.57587 0.0200696 0
M  V30 9503 C 908.799 -1.91708 -0.661503 0
M  V30 9504 C 909.132 -0.895968 -1.72296 0
M  V30 9505 O 908.407 0.082577 -1.94325 0
M  V30 9506 C 908.69 -3.36344 -1.28627 0
M  V30 9507 C 908.543 -4.49186 -0.234982 0
M  V30 9508 C 909.862 -3.80771 -2.20685 0
M  V30 9509 H 906.981 -0.69717 -0.239005 0
M  V30 9510 H 909.623 -1.8985 0.0754764 0
M  V30 9511 H 907.773 -3.38058 -1.91439 0
M  V30 9512 H 909.445 -4.59606 0.395011 0
M  V30 9513 H 907.688 -4.31557 0.440565 0
M  V30 9514 H 908.359 -5.47395 -0.711558 0
M  V30 9515 H 910.835 -3.80735 -1.67868 0
M  V30 9516 H 909.711 -4.82685 -2.61356 0
M  V30 9517 H 909.972 -3.15764 -3.09428 0
M  V30 9518 N 909.032 0.252966 -1.55557 0
M  V30 9519 C 910.278 0.983306 -1.77367 0
M  V30 9520 C 910.611 1.85203 -0.584258 0
M  V30 9521 O 909.886 1.89963 0.417644 0
M  V30 9522 C 910.169 1.84896 -3.09007 0
M  V30 9523 C 910.022 1.00883 -4.38341 0
M  V30 9524 C 911.341 2.83254 -3.36831 0
M  V30 9525 H 908.46 0.356056 -0.645286 0
M  V30 9526 H 911.102 0.254232 -1.88291 0
M  V30 9527 H 909.252 2.47058 -2.99825 0
M  V30 9528 H 910.924 0.40638 -4.59507 0
M  V30 9529 H 909.167 0.31297 -4.3267 0
M  V30 9530 H 909.838 1.64818 -5.2682 0
M  V30 9531 H 912.314 2.31228 -3.45937 0
M  V30 9532 H 911.19 3.40949 -4.30169 0
M  V30 9533 H 911.451 3.59407 -2.57447 0
M  V30 9534 N 910.51 1.48831 0.518367 0
M  V30 9535 C 911.759 1.5669 1.27008 0
M  V30 9536 C 912.072 0.250934 1.93984 0
M  V30 9537 O 913.278 0.207884 2.70703 0
M  V30 9538 C 911.734 2.76387 2.30517 0
M  V30 9539 C 911.342 4.14673 1.69559 0
M  V30 9540 C 913.086 2.93566 3.06625 0
M  V30 9541 C 910.993 5.25616 2.71076 0
M  V30 9542 H 909.923 0.583362 0.477708 0
M  V30 9543 H 912.574 1.75187 0.546052 0
M  V30 9544 H 910.956 2.51348 3.06006 0
M  V30 9545 H 912.13 4.49779 1.00179 0
M  V30 9546 H 910.445 4.02708 1.05902 0
M  V30 9547 H 913.042 3.7362 3.82508 0
M  V30 9548 H 913.385 2.03462 3.63193 0
M  V30 9549 H 913.918 3.18562 2.38251 0
M  V30 9550 H 910.657 6.17723 2.19313 0
M  V30 9551 H 910.177 4.94985 3.38748 0
M  V30 9552 H 911.856 5.5422 3.3384 0
M  V30 9553 N 911.988 -0.768124 1.37614 0
M  V30 9554 C 913.213 -1.56239 1.36397 0
M  V30 9555 C 913.638 -1.8804 -0.0475839 0
M  V30 9556 O 912.996 -1.495 -1.02564 0
M  V30 9557 C 913.044 -2.84716 2.21289 0
M  V30 9558 O 912.148 -3.79249 1.62001 0
M  V30 9559 H 911.489 -0.473119 0.465891 0
M  V30 9560 H 914.019 -0.950415 1.81186 0
M  V30 9561 H 914.029 -3.33784 2.34632 0
M  V30 9562 H 912.704 -2.60899 3.2389 0
M  V30 9563 H 911.281 -3.37904 1.57719 0
M  V30 9564 N 913.466 -1.22244 -0.994698 0
M  V30 9565 C 914.416 -0.958244 -2.06886 0
M  V30 9566 C 915.4 0.0904481 -1.60646 0
M  V30 9567 O 916.592 -0.119837 -1.76594 0
M  V30 9568 C 913.721 -0.535944 -3.39091 0
M  V30 9569 C 912.807 -1.61927 -3.9197 0
M  V30 9570 N 913.198 -2.84659 -4.18094 0
M  V30 9571 C 911.496 -1.49053 -4.20356 0
M  V30 9572 C 912.197 -3.54697 -4.61048 0
M  V30 9573 N 911.173 -2.82164 -4.64634 0
M  V30 9574 H 914.975 -1.89056 -2.25022 0
M  V30 9575 H 912.489 -1.1197 -1.17629 0
M  V30 9576 H 914.486 -0.327997 -4.15608 0
M  V30 9577 H 913.146 0.38949 -3.22355 0
M  V30 9578 H 914.157 -3.21104 -4.06341 0
M  V30 9579 H 910.834 -0.631154 -4.12702 0
M  V30 9580 H 912.224 -4.59837 -4.89898 0
M  V30 9581 N 914.944 1.19125 -1.03184 0
M  V30 9582 C 916.19 1.89428 -0.740857 0
M  V30 9583 C 916.545 1.78302 0.72291 0
M  V30 9584 O 915.838 1.16656 1.51994 0
M  V30 9585 C 916.032 3.39052 -1.13041 0
M  V30 9586 C 915.861 3.64739 -2.6305 0
M  V30 9587 C 914.631 3.82603 -3.30066 0
M  V30 9588 C 916.829 3.66052 -3.61262 0
M  V30 9589 N 914.811 3.95947 -4.69147 0
M  V30 9590 C 916.182 3.85003 -4.85976 0
M  V30 9591 C 918.237 3.49093 -3.55019 0
M  V30 9592 C 916.94 3.88753 -6.05197 0
M  V30 9593 C 918.966 3.54122 -4.73658 0
M  V30 9594 C 918.328 3.73561 -5.97187 0
M  V30 9595 H 914.427 0.71217 -0.323014 0
M  V30 9596 H 917.011 1.43146 -1.31974 0
M  V30 9597 H 915.182 3.8405 -0.579699 0
M  V30 9598 H 916.914 3.96887 -0.791369 0
M  V30 9599 H 913.669 3.81615 -2.80476 0
M  V30 9600 H 914.093 4.06461 -5.41404 0
M  V30 9601 H 918.735 3.33018 -2.60497 0
M  V30 9602 H 916.453 4.03619 -7.00084 0
M  V30 9603 H 920.039 3.42286 -4.70459 0
M  V30 9604 H 918.919 3.7733 -6.87453 0
M  V30 9605 N 916.422 0.810101 1.35185 0
M  V30 9606 C 917.352 0.237453 2.32289 0
M  V30 9607 C 918.333 -0.639032 1.5764 0
M  V30 9608 O 919.518 -0.568575 1.8569 0
M  V30 9609 C 916.648 -0.611964 3.41866 0
M  V30 9610 C 915.602 0.166318 4.27677 0
M  V30 9611 C 914.928 -0.805024 5.28605 0
M  V30 9612 C 916.228 1.36729 5.04086 0
M  V30 9613 H 917.922 1.04874 2.80432 0
M  V30 9614 H 915.468 0.505751 1.34826 0
M  V30 9615 H 917.421 -1.02267 4.08802 0
M  V30 9616 H 916.145 -1.45617 2.92341 0
M  V30 9617 H 914.804 0.558238 3.62325 0
M  V30 9618 H 914.452 -1.64483 4.75347 0
M  V30 9619 H 914.152 -0.288577 5.86891 0
M  V30 9620 H 915.676 -1.21386 5.98413 0
M  V30 9621 H 917.09 1.03128 5.63948 0
M  V30 9622 H 915.487 1.81848 5.71884 0
M  V30 9623 H 916.557 2.15214 4.34524 0
M  V30 9624 N 917.9 -1.47166 0.563914 0
M  V30 9625 C 919.148 -2.02056 0.0422873 0
M  V30 9626 C 919.469 -1.43992 -1.31497 0
M  V30 9627 O 918.739 -0.617578 -1.85911 0
M  V30 9628 H 917.319 -0.746893 0.0126427 0
M  V30 9629 H 919.981 -1.80492 0.735441 0
M  V30 9630 H 919.077 -3.12073 -0.0408044 0
M  V30 9631 N 919.378 -0.300708 -1.54705 0
M  V30 9632 C 920.625 0.308654 -2.00134 0
M  V30 9633 C 920.953 1.53918 -1.1891 0
M  V30 9634 O 920.208 1.94054 -0.253263 0
M  V30 9635 C 920.507 0.710108 -3.50275 0
M  V30 9636 C 920.173 -0.418651 -4.48952 0
M  V30 9637 C 918.835 -0.728524 -4.75653 0
M  V30 9638 C 921.187 -1.17797 -5.07714 0
M  V30 9639 C 918.515 -1.80085 -5.58378 0
M  V30 9640 C 920.867 -2.24022 -5.91606 0
M  V30 9641 C 919.531 -2.55616 -6.16617 0
M  V30 9642 H 918.801 0.112945 -0.732342 0
M  V30 9643 H 921.448 -0.419744 -1.86843 0
M  V30 9644 H 919.753 1.51859 -3.61173 0
M  V30 9645 H 921.45 1.19277 -3.8285 0
M  V30 9646 H 918.04 -0.167034 -4.28274 0
M  V30 9647 H 922.224 -0.951835 -4.87087 0
M  V30 9648 H 917.48 -2.05036 -5.75995 0
M  V30 9649 H 921.654 -2.83317 -6.36164 0
M  V30 9650 H 919.281 -3.38839 -6.80509 0
M  V30 9651 N 920.856 1.57574 -0.0284266 0
M  V30 9652 C 922.267 1.79585 0.510502 0
M  V30 9653 C 922.618 0.938625 1.72291 0
M  V30 9654 O 921.743 0.14884 2.15888 0
M  V30 9655 C 922.338 3.25703 0.932912 0
M  V30 9656 C 920.897 3.48711 1.41696 0
M  V30 9657 C 920.044 2.74665 0.381356 0
M  V30 9658 H 922.995 1.56647 -0.254464 0
M  V30 9659 H 923.016 3.35376 1.79731 0
M  V30 9660 H 922.528 3.88067 0.0503036 0
M  V30 9661 H 920.629 2.91597 2.31952 0
M  V30 9662 H 920.742 4.57423 1.42481 0
M  V30 9663 H 919.106 2.40123 0.8493 0
M  V30 9664 H 919.889 3.39745 -0.492775 0
M  V30 9665 N 922.334 -0.244713 1.55689 0
M  V30 9666 C 923.562 -0.989944 1.8168 0
M  V30 9667 C 923.977 -1.78863 0.604449 0
M  V30 9668 O 923.334 -1.77437 -0.426907 0
M  V30 9669 C 923.385 -1.92607 3.05916 0
M  V30 9670 O 923.106 -1.1597 4.22472 0
M  V30 9671 C 924.607 -2.78711 3.44724 0
M  V30 9672 H 921.827 -0.2912 0.604519 0
M  V30 9673 H 924.371 -0.266938 2.0275 0
M  V30 9674 H 922.526 -2.60333 2.8689 0
M  V30 9675 H 922.94 -1.79311 4.92898 0
M  V30 9676 H 924.414 -3.40141 4.34751 0
M  V30 9677 H 924.891 -3.49935 2.6541 0
M  V30 9678 H 925.497 -2.16435 3.66109 0
M  V30 9679 N 923.813 -1.49104 -0.510467 0
M  V30 9680 C 925.041 -1.61806 -1.28944 0
M  V30 9681 C 925.456 -0.285774 -1.86625 0
M  V30 9682 O 924.813 0.727551 -1.67371 0
M  V30 9683 C 924.864 -2.67966 -2.42645 0
M  V30 9684 O 924.585 -3.96026 -1.87337 0
M  V30 9685 C 926.086 -2.91286 -3.34166 0
M  V30 9686 H 923.306 -0.544999 -0.391429 0
M  V30 9687 H 925.85 -1.95071 -0.613805 0
M  V30 9688 H 924.005 -2.37505 -3.06056 0
M  V30 9689 H 924.419 -4.54427 -2.61909 0
M  V30 9690 H 925.893 -3.69323 -4.1025 0
M  V30 9691 H 926.37 -2.00842 -3.90588 0
M  V30 9692 H 926.976 -3.23127 -2.76531 0
M  V30 9693 N 925.291 0.760815 -1.38019 0
M  V30 9694 C 926.568 1.5098 -1.24356 0
M  V30 9695 C 926.948 2.10507 0.158169 0
M  V30 9696 O 926.296 1.96455 1.16695 0
M  V30 9697 C 926.506 2.58195 -2.34811 0
M  V30 9698 C 927.854 3.25297 -2.72886 0
M  V30 9699 O 928.878 2.68496 -2.34069 0
M  V30 9700 O 927.737 4.28018 -3.39799 0
M  V30 9701 H 924.831 0.66921 -0.485888 0
M  V30 9702 H 927.377 0.796844 -1.49828 0
M  V30 9703 H 926.149 2.12406 -3.28633 0
M  V30 9704 H 925.772 3.37079 -2.10864 0
M  V30 9705 N 926.769 1.22769 0.988202 0
M  V30 9706 C 927.679 1.01844 2.11341 0
M  V30 9707 C 928.695 -0.0346937 1.73965 0
M  V30 9708 O 929.871 0.159061 2.00771 0
M  V30 9709 C 926.936 0.603837 3.41401 0
M  V30 9710 C 925.997 1.73113 3.92849 0
M  V30 9711 C 925.23 1.33621 5.16702 0
M  V30 9712 O 925.453 0.217041 5.69987 0
M  V30 9713 O 924.387 2.15444 5.62021 0
M  V30 9714 H 928.213 1.96127 2.31879 0
M  V30 9715 H 925.798 1.01405 1.09715 0
M  V30 9716 H 927.68 0.383196 4.19654 0
M  V30 9717 H 926.355 -0.310082 3.22211 0
M  V30 9718 H 925.262 2.00634 3.15748 0
M  V30 9719 H 926.595 2.62308 4.1648 0
M  V30 9720 N 928.247 -1.18576 1.03814 0
M  V30 9721 C 929.195 -2.24166 0.620678 0
M  V30 9722 C 930.189 -1.65718 -0.351282 0
M  V30 9723 O 931.395 -1.78665 -0.218848 0
M  V30 9724 H 927.77 -0.729522 0.182487 0
M  V30 9725 H 929.741 -2.56686 1.52166 0
M  V30 9726 C 928.49 -3.477 -0.00307331 0
M  V30 9727 H 927.813 -3.92969 0.735874 0
M  V30 9728 H 929.253 -4.23214 -0.257988 0
M  V30 9729 C 927.712 -3.12757 -1.2524 0
M  V30 9730 O 928.242 -3.26261 -2.34344 0
M  V30 9731 N 926.448 -2.67104 -1.14471 0
M  V30 9732 H 925.995 -2.56316 -0.256873 0
M  V30 9733 H 925.953 -2.44096 -1.98153 0
M  V30 9734 N 929.725 -0.817259 -1.34754 0
M  V30 9735 C 930.675 -0.207585 -2.27053 0
M  V30 9736 C 931.659 0.624836 -1.48272 0
M  V30 9737 O 932.851 0.480344 -1.70358 0
M  V30 9738 C 929.98 0.634281 -3.3739 0
M  V30 9739 C 929.066 -0.208456 -4.23587 0
M  V30 9740 N 929.457 -1.2767 -4.89422 0
M  V30 9741 C 927.755 0.00815096 -4.45999 0
M  V30 9742 C 928.456 -1.79209 -5.53407 0
M  V30 9743 N 927.432 -1.09686 -5.32419 0
M  V30 9744 H 931.234 -1.0248 -2.75454 0
M  V30 9745 H 928.748 -0.659492 -1.48406 0
M  V30 9746 H 930.745 1.08718 -4.02475 0
M  V30 9747 H 929.405 1.44972 -2.90539 0
M  V30 9748 H 930.416 -1.65945 -4.90594 0
M  V30 9749 H 927.093 0.791879 -4.09921 0
M  V30 9750 H 928.483 -2.68548 -6.15899 0
M  V30 9751 N 931.203 1.46865 -0.571711 0
M  V30 9752 C 932.433 2.06518 -0.0583129 0
M  V30 9753 C 932.841 1.4227 1.24723 0
M  V30 9754 O 932.184 0.518293 1.76237 0
M  V30 9755 C 932.246 3.5898 0.193214 0
M  V30 9756 C 931.91 4.45355 -1.02507 0
M  V30 9757 C 932.907 4.82575 -1.93435 0
M  V30 9758 C 930.592 4.86656 -1.24382 0
M  V30 9759 C 932.586 5.59912 -3.04595 0
M  V30 9760 C 930.273 5.63754 -2.35849 0
M  V30 9761 C 931.271 6.00294 -3.25785 0
M  V30 9762 O 930.959 6.75836 -4.35318 0
M  V30 9763 H 930.691 0.674188 -0.0494584 0
M  V30 9764 H 933.245 1.89644 -0.788934 0
M  V30 9765 H 931.475 3.7412 0.978319 0
M  V30 9766 H 933.164 4.006 0.653769 0
M  V30 9767 H 933.93 4.51256 -1.77745 0
M  V30 9768 H 929.809 4.57672 -0.55292 0
M  V30 9769 H 933.353 5.88351 -3.74818 0
M  V30 9770 H 929.25 5.94487 -2.51506 0
M  V30 9771 H 930.018 6.94247 -4.33547 0
M  V30 9772 N 932.681 0.308908 1.54543 0
M  V30 9773 C 933.611 -0.556657 2.26768 0
M  V30 9774 C 934.592 -1.13145 1.27013 0
M  V30 9775 O 935.777 -1.15931 1.558 0
M  V30 9776 C 932.907 -1.72481 3.01443 0
M  V30 9777 C 931.861 -1.28001 4.08411 0
M  V30 9778 C 931.187 -2.53395 4.70845 0
M  V30 9779 C 932.487 -0.405497 5.20724 0
M  V30 9780 H 934.181 0.0457618 2.99365 0
M  V30 9781 H 931.727 0.0234495 1.43981 0
M  V30 9782 H 933.68 -2.3365 3.50693 0
M  V30 9783 H 932.404 -2.35359 2.26437 0
M  V30 9784 H 931.063 -0.69133 3.60022 0
M  V30 9785 H 930.711 -3.14604 3.92471 0
M  V30 9786 H 930.411 -2.2433 5.43093 0
M  V30 9787 H 931.935 -3.15352 5.22863 0
M  V30 9788 H 933.349 -0.923076 5.6582 0
M  V30 9789 H 931.746 -0.208282 5.99738 0
M  V30 9790 H 932.816 0.567412 4.81569 0
M  V30 9791 N 934.159 -1.57557 0.0367827 0
M  V30 9792 C 935.122 -2.09591 -0.927589 0
M  V30 9793 C 936.122 -1.01252 -1.24919 0
M  V30 9794 O 937.312 -1.27382 -1.18825 0
M  V30 9795 C 934.444 -2.56816 -2.24184 0
M  V30 9796 H 935.637 -2.96086 -0.476784 0
M  V30 9797 H 933.19 -1.54864 -0.211385 0
M  V30 9798 H 933.925 -1.73673 -2.73876 0
M  V30 9799 H 933.71 -3.35973 -2.0215 0
M  V30 9800 H 935.2 -2.97271 -2.93291 0
M  V30 9801 N 935.637 0.236453 -1.55816 0
M  V30 9802 C 936.885 0.96111 -1.77784 0
M  V30 9803 C 937.206 1.85454 -0.602648 0
M  V30 9804 O 936.476 1.92157 0.381137 0
M  V30 9805 H 935.056 0.35787 -0.655697 0
M  V30 9806 H 937.718 0.251888 -1.93265 0
M  V30 9807 H 936.814 1.5767 -2.69345 0
M  V30 9808 N 937.115 1.49373 0.502552 0
M  V30 9809 C 938.34 1.62752 1.28556 0
M  V30 9810 C 938.765 0.298285 1.8572 0
M  V30 9811 O 938.123 -0.733885 1.65782 0
M  V30 9812 C 938.171 2.69778 2.39274 0
M  V30 9813 O 937.275 2.28843 3.43081 0
M  V30 9814 H 936.616 0.544799 0.379592 0
M  V30 9815 H 939.146 1.9555 0.601792 0
M  V30 9816 H 939.156 2.91899 2.8506 0
M  V30 9817 H 937.831 3.66266 1.97033 0
M  V30 9818 H 936.408 2.17047 3.03224 0
M  V30 9819 N 938.594 -0.753485 1.38421 0
M  V30 9820 C 939.822 -1.54272 1.37868 0
M  V30 9821 C 940.237 -1.88774 -0.0315155 0
M  V30 9822 O 939.594 -1.52785 -0.998148 0
M  V30 9823 C 939.645 -2.84179 2.23438 0
M  V30 9824 O 939.366 -2.51149 3.58965 0
M  V30 9825 C 940.867 -3.78316 2.31067 0
M  V30 9826 H 938.087 -0.47735 0.47157 0
M  V30 9827 H 940.631 -0.932509 1.82001 0
M  V30 9828 H 938.786 -3.41577 1.82767 0
M  V30 9829 H 939.2 -3.34466 4.04021 0
M  V30 9830 H 940.674 -4.66418 2.95226 0
M  V30 9831 H 941.151 -4.18757 1.32436 0
M  V30 9832 H 941.757 -3.26842 2.72129 0
M  V30 9833 N 940.072 -1.23292 -0.981677 0
M  V30 9834 C 941.297 -1.09176 -1.76339 0
M  V30 9835 C 941.722 0.352726 -1.84763 0
M  V30 9836 O 941.08 1.25509 -1.30832 0
M  V30 9837 C 941.128 -1.72046 -3.16911 0
M  V30 9838 O 940.232 -0.98174 -4.00544 0
M  V30 9839 H 939.573 -0.382755 -0.542581 0
M  V30 9840 H 942.103 -1.63319 -1.23239 0
M  V30 9841 H 942.113 -1.77232 -3.67495 0
M  V30 9842 H 940.788 -2.77154 -3.10095 0
M  V30 9843 H 939.365 -1.00672 -3.59054 0
M  V30 9844 N 941.55 1.18024 -1.04442 0
M  V30 9845 C 942.498 2.23834 -0.632557 0
M  V30 9846 C 943.492 1.65902 0.342488 0
M  V30 9847 O 944.698 1.78778 0.20937 0
M  V30 9848 H 941.073 0.728544 -0.186353 0
M  V30 9849 H 943.044 2.55876 -1.53526 0
M  V30 9850 C 941.793 3.47697 -0.0153661 0
M  V30 9851 H 941.116 3.92574 -0.756704 0
M  V30 9852 H 942.556 4.23345 0.235541 0
M  V30 9853 C 941.015 3.13416 1.23579 0
M  V30 9854 O 941.545 3.27499 2.3261 0
M  V30 9855 N 939.751 2.67708 1.13053 0
M  V30 9856 H 939.298 2.56449 0.243277 0
M  V30 9857 H 939.256 2.45143 1.96855 0
M  V30 9858 N 943.028 0.824394 1.34319 0
M  V30 9859 C 944.276 0.41235 1.97849 0
M  V30 9860 C 944.597 -1.02841 1.65677 0
M  V30 9861 O 943.867 -1.71421 0.948245 0
M  V30 9862 H 942.447 0.149486 0.73189 0
M  V30 9863 H 945.109 1.05416 1.63931 0
M  V30 9864 H 944.205 0.532557 3.07523 0
M  V30 9865 N 944.506 -1.46559 0.579492 0
M  V30 9866 C 945.469 -2.28739 -0.145371 0
M  V30 9867 C 946.469 -1.38211 -0.821854 0
M  V30 9868 O 947.659 -1.6062 -0.674302 0
M  V30 9869 C 944.791 -3.18507 -1.21515 0
M  V30 9870 H 945.984 -2.94301 0.576786 0
M  V30 9871 H 943.537 -1.52616 0.337327 0
M  V30 9872 H 944.272 -2.57685 -1.96899 0
M  V30 9873 H 944.057 -3.85157 -0.734616 0
M  V30 9874 H 945.547 -3.80369 -1.72363 0
M  V30 9875 N 945.984 -0.3171 -1.54377 0
M  V30 9876 C 946.947 0.53905 -2.22771 0
M  V30 9877 C 947.947 1.04865 -1.21901 0
M  V30 9878 O 949.137 0.942108 -1.46526 0
M  V30 9879 C 946.269 1.74804 -2.92671 0
M  V30 9880 H 947.462 -0.0587417 -2.99842 0
M  V30 9881 H 945.015 -0.068107 -1.56152 0
M  V30 9882 H 945.75 2.38524 -2.1972 0
M  V30 9883 H 945.535 1.39011 -3.66631 0
M  V30 9884 H 947.025 2.35592 -3.44799 0
M  V30 9885 N 947.462 1.57535 -0.0451378 0
M  V30 9886 C 948.412 2.07683 0.940829 0
M  V30 9887 C 949.396 0.9807 1.27558 0
M  V30 9888 O 950.588 1.2441 1.25901 0
M  V30 9889 C 947.717 2.62049 2.21778 0
M  V30 9890 C 946.803 3.78621 1.91068 0
M  V30 9891 N 947.194 4.88623 1.30694 0
M  V30 9892 C 945.492 3.87411 2.20972 0
M  V30 9893 C 946.193 5.69714 1.17478 0
M  V30 9894 N 945.169 5.17129 1.67566 0
M  V30 9895 H 948.971 2.90129 0.469267 0
M  V30 9896 H 946.485 1.61615 0.159472 0
M  V30 9897 H 948.482 2.96276 2.93302 0
M  V30 9898 H 947.142 1.81039 2.69546 0
M  V30 9899 H 948.153 5.08545 0.979907 0
M  V30 9900 H 944.83 3.17335 2.71302 0
M  V30 9901 H 946.22 6.68174 0.706574 0
M  V30 9902 N 948.94 -0.228186 1.55939 0
M  V30 9903 C 950.186 -0.954964 1.78909 0
M  V30 9904 C 950.519 -1.8425 0.613648 0
M  V30 9905 O 949.794 -1.90604 -0.38737 0
M  V30 9906 C 950.077 -1.79957 3.1191 0
M  V30 9907 C 949.93 -0.938968 4.3989 0
M  V30 9908 C 951.249 -2.77859 3.41295 0
M  V30 9909 H 948.368 -0.345745 0.650868 0
M  V30 9910 H 951.01 -0.224244 1.88672 0
M  V30 9911 H 949.16 -2.42256 3.03717 0
M  V30 9912 H 950.832 -0.333225 4.60095 0
M  V30 9913 H 949.075 -0.244096 4.33113 0
M  V30 9914 H 949.746 -1.56416 5.29375 0
M  V30 9915 H 952.222 -2.25695 3.49572 0
M  V30 9916 H 951.098 -3.34062 4.35538 0
M  V30 9917 H 951.359 -3.55266 2.63132 0
M  V30 9918 N 950.418 -1.49637 -0.494624 0
M  V30 9919 C 951.665 -1.59445 -1.24834 0
M  V30 9920 C 951.993 -0.284028 -1.92415 0
M  V30 9921 O 951.248 0.728519 -1.81634 0
M  V30 9922 C 951.547 -2.70749 -2.33302 0
M  V30 9923 C 951.213 -4.12034 -1.83135 0
M  V30 9924 C 949.875 -4.50482 -1.69173 0
M  V30 9925 C 952.227 -5.00432 -1.4566 0
M  V30 9926 C 949.555 -5.75093 -1.16124 0
M  V30 9927 C 951.907 -6.25568 -0.940608 0
M  V30 9928 C 950.571 -6.62839 -0.787432 0
M  V30 9929 H 949.841 -0.583451 -0.456799 0
M  V30 9930 H 952.488 -1.8349 -0.548044 0
M  V30 9931 H 950.793 -2.407 -3.09145 0
M  V30 9932 H 952.49 -2.75546 -2.91334 0
M  V30 9933 H 949.08 -3.8169 -1.94964 0
M  V30 9934 H 953.264 -4.71379 -1.55291 0
M  V30 9935 H 948.52 -6.02665 -1.02982 0
M  V30 9936 H 952.694 -6.93439 -0.641467 0
M  V30 9937 H 950.321 -7.59279 -0.374191 0
M  V30 9938 N 951.896 0.746133 -1.38819 0
M  V30 9939 C 953.312 1.0502 -1.20179 0
M  V30 9940 C 953.512 2.01423 -0.0556271 0
M  V30 9941 O 952.568 2.45359 0.59625 0
M  V30 9942 C 953.881 1.62315 -2.53129 0
M  V30 9943 C 955.429 1.74449 -2.59878 0
M  V30 9944 C 955.904 2.35155 -3.93022 0
M  V30 9945 N 957.395 2.42577 -3.94602 0
M  V30 9946 C 958.13 2.9046 -4.94389 0
M  V30 9947 N 957.626 3.38322 -6.04574 0
M  V30 9948 N 959.419 2.89568 -4.81775 0
M  V30 9949 H 951.57 0.106551 -2.12133 0
M  V30 9950 H 953.833 0.109897 -0.941609 0
M  V30 9951 H 953.539 0.98946 -3.37495 0
M  V30 9952 H 953.413 2.61276 -2.72057 0
M  V30 9953 H 955.8 2.36943 -1.75903 0
M  V30 9954 H 955.881 0.741721 -2.4481 0
M  V30 9955 H 955.525 1.73292 -4.77422 0
M  V30 9956 H 955.455 3.36088 -4.05404 0
M  V30 9957 H 957.946 2.08735 -3.15021 0
M  V30 9958 H 958.259 3.73336 -6.76639 0
M  V30 9959 H 956.604 3.3636 -6.08184 0
M  V30 9960 H 959.795 2.51492 -3.94803 0
M  V30 9961 H 959.968 3.26571 -5.59692 0
M  V30 9962 N 953.375 1.23811 0.975125 0
M  V30 9963 C 954.323 1.02149 2.0897 0
M  V30 9964 C 955.317 -0.0412172 1.6935 0
M  V30 9965 O 956.523 0.112726 1.79647 0
M  V30 9966 H 952.898 0.313259 0.683647 0
M  V30 9967 H 954.869 1.96686 2.24404 0
M  V30 9968 C 953.618 0.635023 3.41852 0
M  V30 9969 H 952.941 1.44449 3.72793 0
M  V30 9970 H 954.381 0.52301 4.20762 0
M  V30 9971 C 952.84 -0.657207 3.30428 0
M  V30 9972 O 953.37 -1.70494 3.63723 0
M  V30 9973 N 951.576 -0.635122 2.83575 0
M  V30 9974 H 951.123 0.21784 2.56677 0
M  V30 9975 H 951.081 -1.49995 2.76313 0
M  V30 9976 N 954.853 -1.17469 1.05066 0
M  V30 9977 C 956.102 -1.87032 0.755114 0
M  V30 9978 C 956.415 -1.81844 -0.720572 0
M  V30 9979 O 957.621 -2.46866 -1.13002 0
M  V30 9980 C 956.077 -3.35581 1.30052 0
M  V30 9981 C 955.685 -3.49274 2.80556 0
M  V30 9982 C 957.429 -4.1048 1.08196 0
M  V30 9983 C 955.336 -4.91838 3.28404 0
M  V30 9984 H 954.266 -0.70057 0.278779 0
M  V30 9985 H 956.917 -1.32663 1.26779 0
M  V30 9986 H 955.299 -3.89479 0.715667 0
M  V30 9987 H 956.473 -3.05598 3.44886 0
M  V30 9988 H 954.788 -2.87793 3.00939 0
M  V30 9989 H 957.385 -5.15652 1.41447 0
M  V30 9990 H 957.728 -4.16295 0.0196603 0
M  V30 9991 H 958.261 -3.62784 1.63195 0
M  V30 9992 H 955 -4.91196 4.34058 0
M  V30 9993 H 954.52 -5.36189 2.68815 0
M  V30 9994 H 956.199 -5.60602 3.23009 0
M  V30 9995 N 956.331 -0.831506 -1.3388 0
M  V30 9996 C 957.294 -0.264773 -2.27666 0
M  V30 9997 C 958.294 0.562273 -1.50649 0
M  V30 9998 O 959.484 0.377131 -1.70069 0
M  V30 9999 C 956.616 0.627814 -3.35069 0
M  V30 10000 H 957.809 -1.09225 -2.79303 0
M  V30 10001 H 955.362 -0.604021 -1.44157 0
M  V30 10002 H 956.097 1.47802 -2.88661 0
M  V30 10003 H 955.882 0.0361552 -3.92083 0
M  V30 10004 H 957.372 1.01786 -4.05005 0
M  V30 10005 N 957.809 1.4625 -0.587256 0
M  V30 10006 C 958.757 2.32076 0.156108 0
M  V30 10007 C 959.751 1.44756 0.879887 0
M  V30 10008 O 960.957 1.61356 0.797759 0
M  V30 10009 H 957.332 0.748808 0.0692098 0
M  V30 10010 H 959.303 2.9258 -0.586497 0
M  V30 10011 C 958.052 3.28008 1.15352 0
M  V30 10012 H 957.375 3.9518 0.60601 0
M  V30 10013 H 958.815 3.90832 1.64396 0
M  V30 10014 C 957.274 2.53691 2.21681 0
M  V30 10015 O 957.804 2.30329 3.29107 0
M  V30 10016 N 956.01 2.14174 1.96412 0
M  V30 10017 H 955.557 2.33374 1.09061 0
M  V30 10018 H 955.515 1.6477 2.67765 0
M  V30 10019 N 959.287 0.325282 1.54207 0
M  V30 10020 C 960.515 -0.27869 2.05014 0
M  V30 10021 C 960.93 -1.45649 1.20133 0
M  V30 10022 O 960.287 -1.81014 0.232398 0
M  V30 10023 C 960.338 -0.711486 3.54429 0
M  V30 10024 O 960.059 0.419458 4.36087 0
M  V30 10025 C 961.56 -1.37809 4.21336 0
M  V30 10026 H 958.78 -0.0570388 0.668571 0
M  V30 10027 H 961.324 0.47197 1.98979 0
M  V30 10028 H 959.479 -1.41212 3.60746 0
M  V30 10029 H 959.893 0.0781037 5.24442 0
M  V30 10030 H 961.367 -1.63184 5.27328 0
M  V30 10031 H 961.844 -2.32593 3.72555 0
M  V30 10032 H 962.45 -0.719987 4.19161 0
M  V30 10033 N 960.765 -1.57509 0.0534917 0
M  V30 10034 C 962.014 -1.91959 -0.619244 0
M  V30 10035 C 962.327 -0.933882 -1.71866 0
M  V30 10036 O 963.533 -1.17052 -2.44972 0
M  V30 10037 C 961.989 -3.40938 -1.15278 0
M  V30 10038 C 961.597 -4.47919 -0.085348 0
M  V30 10039 C 963.341 -3.84419 -1.80063 0
M  V30 10040 C 961.248 -5.88014 -0.631897 0
M  V30 10041 H 960.178 -0.71642 -0.235072 0
M  V30 10042 H 962.829 -1.83089 0.122758 0
M  V30 10043 H 961.211 -3.44821 -1.94717 0
M  V30 10044 H 962.385 -4.55629 0.688374 0
M  V30 10045 H 960.7 -4.13793 0.465178 0
M  V30 10046 H 963.297 -4.86457 -2.21954 0
M  V30 10047 H 963.64 -3.20791 -2.65328 0
M  V30 10048 H 964.173 -3.83062 -1.07275 0
M  V30 10049 H 960.912 -6.55244 0.183175 0
M  V30 10050 H 960.432 -5.83861 -1.37355 0
M  V30 10051 H 962.111 -6.37336 -1.11407 0
M  V30 10052 N 962.243 0.219913 -1.56058 0
M  V30 10053 C 963.173 1.27572 -1.9557 0
M  V30 10054 C 964.154 1.48801 -0.824148 0
M  V30 10055 O 965.339 1.60957 -1.08658 0
M  V30 10056 C 962.469 2.62517 -2.27381 0
M  V30 10057 C 961.423 2.55941 -3.43042 0
M  V30 10058 C 960.749 3.94931 -3.60463 0
M  V30 10059 C 962.049 2.10584 -4.77966 0
M  V30 10060 H 963.743 0.947482 -2.84013 0
M  V30 10061 H 961.289 0.454337 -1.36645 0
M  V30 10062 H 963.242 3.36538 -2.53615 0
M  V30 10063 H 961.966 2.97031 -1.35794 0
M  V30 10064 H 960.625 1.84377 -3.1686 0
M  V30 10065 H 960.273 4.26756 -2.66249 0
M  V30 10066 H 959.973 3.91413 -4.38258 0
M  V30 10067 H 961.497 4.70611 -3.89046 0
M  V30 10068 H 962.911 2.74349 -5.03394 0
M  V30 10069 H 961.308 2.18122 -5.59055 0
M  V30 10070 H 962.378 1.05818 -4.73213 0
M  V30 10071 N 963.721 1.49897 0.486681 0
M  V30 10072 C 965.132 1.53142 1.06792 0
M  V30 10073 C 965.483 0.325856 1.93475 0
M  V30 10074 O 964.608 -0.562893 2.08951 0
M  V30 10075 C 965.203 2.77514 1.94348 0
M  V30 10076 C 963.762 2.83491 2.47609 0
M  V30 10077 C 962.909 2.47239 1.2557 0
M  V30 10078 H 965.86 1.56387 0.269962 0
M  V30 10079 H 965.881 2.58487 2.79221 0
M  V30 10080 H 965.393 3.65239 1.31232 0
M  V30 10081 H 963.494 2.0008 3.14323 0
M  V30 10082 H 963.607 3.86011 2.83782 0
M  V30 10083 H 961.971 1.99332 1.58552 0
M  V30 10084 H 962.754 3.37255 0.641404 0
M  V30 10085 N 965.199 -0.738761 1.39212 0
M  V30 10086 C 966.429 -1.5258 1.39295 0
M  V30 10087 C 966.837 -1.89194 -0.0153 0
M  V30 10088 O 966.18 -1.5435 -0.996073 0
M  V30 10089 C 966.242 -2.84462 2.19822 0
M  V30 10090 C 965.906 -2.70303 3.68491 0
M  V30 10091 C 966.903 -2.39102 4.61656 0
M  V30 10092 C 964.588 -2.87291 4.1203 0
M  V30 10093 C 966.582 -2.25066 5.96342 0
M  V30 10094 C 964.269 -2.72874 5.46793 0
M  V30 10095 C 965.267 -2.41807 6.38763 0
M  V30 10096 O 964.955 -2.27475 7.71045 0
M  V30 10097 H 964.687 -0.478236 0.477772 0
M  V30 10098 H 967.241 -0.920846 1.83602 0
M  V30 10099 H 965.471 -3.47202 1.70257 0
M  V30 10100 H 967.16 -3.46058 2.12129 0
M  V30 10101 H 967.926 -2.25632 4.2932 0
M  V30 10102 H 963.805 -3.10466 3.40781 0
M  V30 10103 H 967.349 -2.00739 6.68094 0
M  V30 10104 H 963.246 -2.85922 5.78722 0
M  V30 10105 H 964.014 -2.42574 7.81729 0
M  V30 10106 N 966.677 -1.24326 -0.968545 0
M  V30 10107 C 967.905 -1.10947 -1.74638 0
M  V30 10108 C 968.32 0.338064 -1.85749 0
M  V30 10109 O 967.677 1.23331 -1.3452 0
M  V30 10110 C 967.728 -1.74254 -3.1673 0
M  V30 10111 O 967.449 -3.13347 -3.06178 0
M  V30 10112 C 968.95 -1.66473 -4.10855 0
M  V30 10113 H 966.17 -0.38767 -0.547679 0
M  V30 10114 H 968.714 -1.64415 -1.21605 0
M  V30 10115 H 966.869 -1.2479 -3.66751 0
M  V30 10116 H 967.283 -3.44255 -3.95713 0
M  V30 10117 H 968.757 -2.15452 -5.08217 0
M  V30 10118 H 969.234 -0.625785 -4.34719 0
M  V30 10119 H 969.84 -2.15359 -3.66743 0
M  V30 10120 N 968.156 1.1691 -1.05688 0
M  V30 10121 C 969.567 1.68915 -0.795273 0
M  V30 10122 C 969.918 1.83968 0.681925 0
M  V30 10123 O 969.043 1.53083 1.52953 0
M  V30 10124 C 969.638 3.06814 -1.43703 0
M  V30 10125 C 968.197 3.55965 -1.22335 0
M  V30 10126 C 967.344 2.32099 -1.51741 0
M  V30 10127 H 970.295 1.01357 -1.22116 0
M  V30 10128 H 970.316 3.70907 -0.849016 0
M  V30 10129 H 969.828 2.95826 -2.51214 0
M  V30 10130 H 967.929 3.72222 -0.16771 0
M  V30 10131 H 968.042 4.38427 -1.9318 0
M  V30 10132 H 966.406 2.36811 -0.937696 0
M  V30 10133 H 967.189 2.23715 -2.60397 0
M  V30 10134 N 969.634 0.838594 1.33437 0
M  V30 10135 C 970.882 0.433312 1.974 0
M  V30 10136 C 971.203 -1.01078 1.66758 0
M  V30 10137 O 970.473 -1.70406 0.966373 0
M  V30 10138 H 969.053 0.15724 0.730263 0
M  V30 10139 H 971.715 1.07149 1.62804 0
M  V30 10140 H 970.811 0.565144 3.06941 0
M  V30 10141 N 971.112 -1.45937 0.595003 0
M  V30 10142 C 972.337 -2.07207 0.0894416 0
M  V30 10143 C 972.762 -1.43884 -1.21157 0
M  V30 10144 O 972.12 -0.526998 -1.73472 0
M  V30 10145 C 972.168 -3.60565 -0.0499828 0
M  V30 10146 O 971.272 -3.97364 -1.10342 0
M  V30 10147 H 970.613 -0.660471 0.0683627 0
M  V30 10148 H 973.143 -1.87386 0.82144 0
M  V30 10149 H 973.153 -4.0722 -0.252234 0
M  V30 10150 H 971.828 -4.06044 0.90006 0
M  V30 10151 H 970.405 -3.62401 -0.878645 0
M  V30 10152 N 972.59 -0.333456 -1.54032 0
M  V30 10153 C 973.818 0.267813 -2.05159 0
M  V30 10154 C 974.233 1.4501 -1.20903 0
M  V30 10155 O 973.59 1.80888 -0.241994 0
M  V30 10156 C 973.641 0.69268 -3.54802 0
M  V30 10157 O 973.362 -0.442579 -4.35859 0
M  V30 10158 C 974.863 1.35572 -4.2206 0
M  V30 10159 H 972.083 0.0534924 -0.668864 0
M  V30 10160 H 974.627 -0.482515 -1.98726 0
M  V30 10161 H 972.782 1.39297 -3.6149 0
M  V30 10162 H 973.196 -0.105915 -5.24393 0
M  V30 10163 H 974.67 1.60385 -5.28186 0
M  V30 10164 H 975.147 2.30614 -3.73783 0
M  V30 10165 H 975.753 0.697748 -4.19537 0
M  V30 10166 N 974.068 1.57479 -0.061844 0
M  V30 10167 C 975.315 1.93108 0.60954 0
M  V30 10168 C 975.643 0.941086 1.70217 0
M  V30 10169 O 974.898 -0.044914 1.95648 0
M  V30 10170 C 975.197 3.35394 1.23474 0
M  V30 10171 C 974.863 4.50095 0.269247 0
M  V30 10172 C 973.525 4.812 0.00360316 0
M  V30 10173 C 975.877 5.19725 -0.391839 0
M  V30 10174 C 973.205 5.79276 -0.930383 0
M  V30 10175 C 975.557 6.18801 -1.31408 0
M  V30 10176 C 974.221 6.48328 -1.58829 0
M  V30 10177 H 973.491 0.706634 0.223046 0
M  V30 10178 H 976.138 1.91054 -0.1306 0
M  V30 10179 H 974.443 3.33866 2.05039 0
M  V30 10180 H 976.14 3.60247 1.76134 0
M  V30 10181 H 972.73 4.2583 0.486477 0
M  V30 10182 H 976.914 4.95898 -0.199713 0
M  V30 10183 H 972.17 6.00484 -1.15019 0
M  V30 10184 H 976.344 6.71862 -1.83234 0
M  V30 10185 H 973.971 7.24137 -2.31363 0
M  V30 10186 N 975.546 -0.211634 1.56173 0
M  V30 10187 C 976.774 -0.951184 1.83739 0
M  V30 10188 C 977.189 -1.7754 0.642252 0
M  V30 10189 O 976.546 -1.78302 -0.389174 0
M  V30 10190 C 976.597 -1.86075 3.09933 0
M  V30 10191 O 976.318 -1.06983 4.24837 0
M  V30 10192 C 977.819 -2.71337 3.50559 0
M  V30 10193 H 975.039 -0.278312 0.61056 0
M  V30 10194 H 977.583 -0.223871 2.03271 0
M  V30 10195 H 975.738 -2.54189 2.92347 0
M  V30 10196 H 976.152 -1.68815 4.9659 0
M  V30 10197 H 977.626 -3.30843 4.41868 0
M  V30 10198 H 978.103 -3.44226 2.72773 0
M  V30 10199 H 978.709 -2.0862 3.70618 0
M  V30 10200 N 977.024 -1.50153 -0.478725 0
M  V30 10201 C 978.27 -1.60998 -1.23318 0
M  V30 10202 C 978.603 -0.305868 -1.91776 0
M  V30 10203 O 977.878 0.692158 -1.81767 0
M  V30 10204 C 978.161 -2.78495 -2.28282 0
M  V30 10205 C 978.014 -4.18767 -1.64178 0
M  V30 10206 C 979.333 -2.91569 -3.2966 0
M  V30 10207 H 976.452 -0.585983 -0.446982 0
M  V30 10208 H 979.094 -1.82514 -0.528063 0
M  V30 10209 H 977.244 -2.60281 -2.8842 0
M  V30 10210 H 978.916 -4.48552 -1.07696 0
M  V30 10211 H 977.159 -4.23379 -0.94514 0
M  V30 10212 H 977.83 -4.96894 -2.40417 0
M  V30 10213 H 980.306 -3.08219 -2.79536 0
M  V30 10214 H 979.182 -3.75419 -4.0044 0
M  V30 10215 H 979.443 -2.01859 -3.93326 0
M  V30 10216 N 978.502 0.731368 -1.39602 0
M  V30 10217 C 979.412 1.87579 -1.40894 0
M  V30 10218 C 980.428 1.71336 -0.303319 0
M  V30 10219 O 981.604 1.93875 -0.545377 0
M  V30 10220 C 978.669 3.23211 -1.25442 0
M  V30 10221 C 977.73 3.51822 -2.46008 0
M  V30 10222 C 976.963 4.80982 -2.31284 0
M  V30 10223 O 977.186 5.54958 -1.31824 0
M  V30 10224 O 976.12 5.09574 -3.20341 0
M  V30 10225 H 979.946 1.89444 -2.3737 0
M  V30 10226 H 977.531 0.879675 -1.20756 0
M  V30 10227 H 979.413 4.04257 -1.18972 0
M  V30 10228 H 978.088 3.22108 -0.320637 0
M  V30 10229 H 976.995 2.70847 -2.58055 0
M  V30 10230 H 978.328 3.57707 -3.38093 0
M  V30 10231 N 979.98 1.24838 0.961938 0
M  V30 10232 C 980.928 1.0436 2.07874 0
M  V30 10233 C 981.922 -0.0232531 1.69384 0
M  V30 10234 O 983.128 0.131773 1.79517 0
M  V30 10235 H 979.503 0.320492 0.680286 0
M  V30 10236 H 981.474 1.99055 2.22306 0
M  V30 10237 C 980.223 0.671246 3.41159 0
M  V30 10238 H 979.546 1.48395 3.7124 0
M  V30 10239 H 980.986 0.567608 4.20184 0
M  V30 10240 C 979.445 -0.622124 3.31106 0
M  V30 10241 O 979.975 -1.66627 3.65511 0
M  V30 10242 N 978.181 -0.605009 2.84232 0
M  V30 10243 H 977.728 0.245052 2.56432 0
M  V30 10244 H 977.686 -1.47056 2.77888 0
M  V30 10245 N 981.458 -1.16348 1.06306 0
M  V30 10246 C 982.421 -2.18941 0.678053 0
M  V30 10247 C 983.421 -1.58409 -0.276277 0
M  V30 10248 O 984.611 -1.74101 -0.0586435 0
M  V30 10249 C 981.743 -3.409 -0.00228684 0
M  V30 10250 H 982.936 -2.54516 1.58624 0
M  V30 10251 H 980.489 -1.30625 0.858298 0
M  V30 10252 H 981.224 -3.10881 -0.923212 0
M  V30 10253 H 981.009 -3.86089 0.683949 0
M  V30 10254 H 982.499 -4.16806 -0.257374 0
M  V30 10255 N 982.937 -0.845659 -1.3299 0
M  V30 10256 C 984.167 -0.457686 -2.01467 0
M  V30 10257 C 984.575 0.947664 -1.63756 0
M  V30 10258 O 983.918 1.62841 -0.850213 0
M  V30 10259 C 983.98 -0.506589 -3.55913 0
M  V30 10260 C 983.644 -1.86924 -4.17023 0
M  V30 10261 C 984.641 -2.83344 -4.35904 0
M  V30 10262 C 982.326 -2.16394 -4.53298 0
M  V30 10263 C 984.32 -4.07391 -4.90216 0
M  V30 10264 C 982.007 -3.40695 -5.07316 0
M  V30 10265 C 983.005 -4.3601 -5.25722 0
M  V30 10266 O 982.693 -5.58112 -5.7859 0
M  V30 10267 H 982.425 -0.179258 -0.651799 0
M  V30 10268 H 984.979 -1.14172 -1.70745 0
M  V30 10269 H 983.209 0.234253 -3.8599 0
M  V30 10270 H 984.898 -0.135487 -4.05674 0
M  V30 10271 H 985.664 -2.61879 -4.08221 0
M  V30 10272 H 981.543 -1.42994 -4.38262 0
M  V30 10273 H 985.087 -4.81796 -5.04498 0
M  V30 10274 H 980.984 -3.62014 -5.3443 0
M  V30 10275 H 981.752 -5.59946 -5.96995 0
M  V30 10276 N 984.415 1.45619 -0.602734 0
M  V30 10277 C 985.362 2.30493 0.118944 0
M  V30 10278 C 986.332 1.41816 0.864723 0
M  V30 10279 O 987.517 1.7075 0.851424 0
M  V30 10280 C 984.657 3.2664 1.11356 0
M  V30 10281 C 983.77 4.3042 0.369161 0
M  V30 10282 C 982.905 5.13678 1.35307 0
M  V30 10283 C 981.944 6.09189 0.596207 0
M  V30 10284 N 981.081 6.85245 1.52916 0
M  V30 10285 H 985.921 2.91672 -0.610836 0
M  V30 10286 H 983.458 1.43731 -0.313032 0
M  V30 10287 H 985.416 3.80846 1.7033 0
M  V30 10288 H 984.046 2.67225 1.81081 0
M  V30 10289 H 983.098 3.78913 -0.335994 0
M  V30 10290 H 984.41 4.98307 -0.221603 0
M  V30 10291 H 983.564 5.7226 2.01502 0
M  V30 10292 H 982.303 4.45798 1.97777 0
M  V30 10293 H 981.308 5.49743 -0.0793984 0
M  V30 10294 H 982.533 6.79096 -0.0233734 0
M  V30 10295 H 980.479 6.20058 2.14159 0
M  V30 10296 H 980.396 7.49467 0.991713 0
M  V30 10297 H 981.664 7.48371 2.18083 0
M  V30 10298 N 985.893 0.34162 1.53853 0
M  V30 10299 C 986.825 -0.550383 2.22494 0
M  V30 10300 C 987.838 -1.0655 1.23089 0
M  V30 10301 O 989.027 -0.975985 1.49455 0
M  V30 10302 C 986.127 -1.76995 2.89009 0
M  V30 10303 C 985.3 -1.39045 4.14711 0
M  V30 10304 C 984.359 -2.46947 4.64654 0
M  V30 10305 O 983.385 -2.10336 5.28912 0
M  V30 10306 N 984.587 -3.7817 4.40418 0
M  V30 10307 H 987.352 0.037456 2.99677 0
M  V30 10308 H 984.913 0.165654 1.6105 0
M  V30 10309 H 986.905 -2.48608 3.19337 0
M  V30 10310 H 985.475 -2.2652 2.15424 0
M  V30 10311 H 984.695 -0.505161 3.9095 0
M  V30 10312 H 985.983 -1.11284 4.96481 0
M  V30 10313 H 985.381 -4.10704 3.89023 0
M  V30 10314 H 983.938 -4.45959 4.75356 0
M  V30 10315 N 987.371 -1.57444 0.0701946 0
M  V30 10316 C 988.319 -2.13834 -0.915302 0
M  V30 10317 C 989.313 -1.07483 -1.30934 0
M  V30 10318 O 990.519 -1.25865 -1.28678 0
M  V30 10319 H 986.894 -0.683716 -0.313108 0
M  V30 10320 H 988.865 -2.95503 -0.414758 0
M  V30 10321 C 987.614 -2.71355 -2.17398 0
M  V30 10322 H 986.937 -3.52861 -1.87961 0
M  V30 10323 H 988.377 -3.1441 -2.84469 0
M  V30 10324 C 986.836 -1.66038 -2.93143 0
M  V30 10325 O 987.366 -1.08443 -3.86786 0
M  V30 10326 N 985.572 -1.3711 -2.56221 0
M  V30 10327 H 985.119 -1.84135 -1.80145 0
M  V30 10328 H 985.077 -0.66877 -3.07205 0
M  V30 10329 N 988.849 0.203349 -1.56283 0
M  V30 10330 C 990.097 0.923183 -1.79782 0
M  V30 10331 C 990.418 1.84134 -0.64185 0
M  V30 10332 O 989.688 1.92922 0.340292 0
M  V30 10333 H 988.268 0.343881 -0.66314 0
M  V30 10334 H 990.93 0.210837 -1.93756 0
M  V30 10335 H 990.026 1.51921 -2.72629 0
M  V30 10336 N 990.327 1.50405 0.470755 0
M  V30 10337 C 991.576 1.60652 1.21959 0
M  V30 10338 C 991.889 0.312521 1.93087 0
M  V30 10339 O 993.095 0.293901 2.69905 0
M  V30 10340 C 991.551 2.83581 2.21607 0
M  V30 10341 C 991.159 4.19858 1.5628 0
M  V30 10342 C 992.903 3.03173 2.9713 0
M  V30 10343 C 990.81 5.33974 2.54217 0
M  V30 10344 H 989.74 0.598264 0.458907 0
M  V30 10345 H 992.391 1.76836 0.490041 0
M  V30 10346 H 990.773 2.60957 2.97855 0
M  V30 10347 H 991.947 4.52738 0.85819 0
M  V30 10348 H 990.262 4.05873 0.930366 0
M  V30 10349 H 992.859 3.856 3.70428 0
M  V30 10350 H 993.202 2.14914 3.56536 0
M  V30 10351 H 993.735 3.2598 2.27995 0
M  V30 10352 H 990.474 6.24388 1.99549 0
M  V30 10353 H 989.994 5.05511 3.22829 0
M  V30 10354 H 991.673 5.64561 3.16039 0
M  V30 10355 N 991.805 -0.723954 1.39988 0
M  V30 10356 C 992.768 -1.81973 1.3935 0
M  V30 10357 C 993.768 -1.58187 0.288702 0
M  V30 10358 O 994.958 -1.65383 0.547181 0
M  V30 10359 C 992.09 -3.19937 1.177 0
M  V30 10360 H 993.283 -1.83939 2.36868 0
M  V30 10361 H 990.836 -0.928742 1.25714 0
M  V30 10362 H 991.571 -3.23625 0.209093 0
M  V30 10363 H 991.356 -3.386 1.97719 0
M  V30 10364 H 992.846 -3.99981 1.20022 0
M  V30 10365 N 993.283 -1.25346 -0.955304 0
M  V30 10366 C 994.694 -1.09173 -1.51453 0
M  V30 10367 C 995.045 0.332755 -1.93358 0
M  V30 10368 O 994.17 1.22264 -1.78551 0
M  V30 10369 C 994.765 -1.97564 -2.75234 0
M  V30 10370 C 993.324 -1.85579 -3.27471 0
M  V30 10371 C 992.471 -1.91755 -2.00313 0
M  V30 10372 H 995.422 -1.38642 -0.772271 0
M  V30 10373 H 995.443 -1.51523 -3.49029 0
M  V30 10374 H 994.955 -3.01233 -2.44704 0
M  V30 10375 H 993.056 -0.847906 -3.62824 0
M  V30 10376 H 993.169 -2.70353 -3.95533 0
M  V30 10377 H 991.533 -1.35633 -2.15582 0
M  V30 10378 H 992.316 -2.97028 -1.72132 0
M  V30 10379 N 994.761 1.15782 -1.06922 0
M  V30 10380 C 995.724 2.18578 -0.689654 0
M  V30 10381 C 996.724 1.58553 0.267872 0
M  V30 10382 O 997.914 1.7413 0.0494097 0
M  V30 10383 C 995.046 3.40896 -0.0157919 0
M  V30 10384 H 996.239 2.53672 -1.59971 0
M  V30 10385 H 993.792 1.30168 -0.865214 0
M  V30 10386 H 994.527 3.11367 0.906712 0
M  V30 10387 H 994.312 3.85721 -0.704415 0
M  V30 10388 H 995.802 4.16937 0.235266 0
M  V30 10389 N 996.239 0.8527 1.3254 0
M  V30 10390 C 997.187 0.284659 2.30852 0
M  V30 10391 C 998.181 -0.5909 1.5876 0
M  V30 10392 O 999.387 -0.478922 1.73512 0
M  V30 10393 H 995.762 0.0733452 0.748415 0
M  V30 10394 H 997.733 1.1281 2.76254 0
M  V30 10395 C 996.482 -0.51379 3.43883 0
M  V30 10396 H 995.805 0.150644 3.99516 0
M  V30 10397 H 997.245 -0.876866 4.14834 0
M  V30 10398 C 995.704 -1.69823 2.90967 0
M  V30 10399 O 996.234 -2.79727 2.88298 0
M  V30 10400 N 994.44 -1.52465 2.47392 0
M  V30 10401 H 993.987 -0.630599 2.49762 0
M  V30 10402 H 993.945 -2.31859 2.12341 0
M  V30 10403 N 997.718 -1.45297 0.610449 0
M  V30 10404 C 998.946 -2.0659 0.113211 0
M  V30 10405 C 999.361 -1.4546 -1.20361 0
M  V30 10406 O 998.718 -0.569823 -1.73376 0
M  V30 10407 C 998.769 -3.61488 -0.0298411 0
M  V30 10408 O 998.49 -4.20336 1.23488 0
M  V30 10409 C 999.991 -4.39772 -0.558202 0
M  V30 10410 H 997.211 -0.667322 0.0701555 0
M  V30 10411 H 999.755 -1.86497 0.838993 0
M  V30 10412 H 997.91 -3.80913 -0.705963 0
M  V30 10413 H 998.324 -5.13545 1.0664 0
M  V30 10414 H 999.798 -5.48648 -0.607375 0
M  V30 10415 H 1000.27 -4.09755 -1.58107 0
M  V30 10416 H 1000.88 -4.25217 0.0839704 0
M  V30 10417 N 999.196 -0.349774 -1.5367 0
M  V30 10418 C 1000.14 0.504121 -2.25227 0
M  V30 10419 C 1001.11 1.09048 -1.2529 0
M  V30 10420 O 1002.3 1.12594 -1.54037 0
M  V30 10421 C 999.438 1.64601 -3.03316 0
M  V30 10422 C 998.551 1.08635 -4.18118 0
M  V30 10423 C 997.686 2.19605 -4.83681 0
M  V30 10424 C 996.725 1.61023 -5.90541 0
M  V30 10425 N 995.862 2.6576 -6.49858 0
M  V30 10426 H 1000.7 -0.112621 -2.97787 0
M  V30 10427 H 998.239 -0.0673503 -1.46946 0
M  V30 10428 H 1000.2 2.31836 -3.46854 0
M  V30 10429 H 998.827 2.23364 -2.33041 0
M  V30 10430 H 997.879 0.304748 -3.79177 0
M  V30 10431 H 999.191 0.617911 -4.94958 0
M  V30 10432 H 998.345 2.94693 -5.30322 0
M  V30 10433 H 997.084 2.69795 -4.06278 0
M  V30 10434 H 996.089 0.844428 -5.43277 0
M  V30 10435 H 997.314 1.11677 -6.69855 0
M  V30 10436 H 995.26 3.15193 -5.75317 0
M  V30 10437 H 995.177 2.23557 -7.2219 0
M  V30 10438 H 996.445 3.40598 -7.01151 0
M  V30 10439 N 1000.67 1.57404 -0.0785433 0
M  V30 10440 C 1002.09 1.57158 0.2781 0
M  V30 10441 C 1002.29 1.08847 1.69572 0
M  V30 10442 O 1001.35 0.757407 2.40873 0
M  V30 10443 C 1002.66 3.00589 0.0816067 0
M  V30 10444 C 1004.21 3.12637 0.150627 0
M  V30 10445 C 1004.68 4.57997 -0.0176685 0
M  V30 10446 N 1006.17 4.63185 0.0377145 0
M  V30 10447 C 1006.91 5.7336 -0.0679907 0
M  V30 10448 N 1006.4 6.92426 -0.227598 0
M  V30 10449 N 1008.2 5.62099 -0.0104424 0
M  V30 10450 H 1000.35 1.87121 -1.00496 0
M  V30 10451 H 1002.61 0.862937 -0.392484 0
M  V30 10452 H 1002.32 3.40072 -0.896869 0
M  V30 10453 H 1002.19 3.67931 0.831046 0
M  V30 10454 H 1004.58 2.73037 1.11959 0
M  V30 10455 H 1004.66 2.4792 -0.630028 0
M  V30 10456 H 1004.3 4.98288 -0.983431 0
M  V30 10457 H 1004.23 5.20754 0.782475 0
M  V30 10458 H 1006.72 3.77564 0.159208 0
M  V30 10459 H 1007.04 7.72217 -0.300217 0
M  V30 10460 H 1005.38 6.94502 -0.263049 0
M  V30 10461 H 1008.57 4.67964 0.112999 0
M  V30 10462 H 1008.75 6.47928 -0.0962747 0
M  V30 10463 N 1002.15 -0.195058 1.56388 0
M  V30 10464 C 1003.08 -1.26581 1.91076 0
M  V30 10465 C 1004.1 -1.41707 0.801436 0
M  V30 10466 O 1005.29 -1.42132 1.07985 0
M  V30 10467 C 1002.39 -2.63794 2.12758 0
M  V30 10468 C 1001.56 -2.70275 3.43904 0
M  V30 10469 C 1000.62 -3.88685 3.54698 0
M  V30 10470 O 999.644 -3.75786 4.2752 0
M  V30 10471 N 1000.85 -5.04141 2.87789 0
M  V30 10472 H 1003.61 -0.971401 2.83521 0
M  V30 10473 H 1001.17 -0.384976 1.57256 0
M  V30 10474 H 1003.16 -3.41434 2.17267 0
M  V30 10475 H 1001.73 -2.85723 1.26812 0
M  V30 10476 H 1000.95 -1.78909 3.51262 0
M  V30 10477 H 1002.24 -2.71597 4.30247 0
M  V30 10478 H 1001.64 -5.17519 2.28452 0
M  V30 10479 H 1000.2 -5.79727 2.97925 0
M  V30 10480 N 1003.63 -1.50653 -0.462772 0
M  V30 10481 C 1004.88 -1.62297 -1.21603 0
M  V30 10482 C 1005.21 -0.326191 -1.91441 0
M  V30 10483 O 1004.48 0.67284 -1.82491 0
M  V30 10484 C 1004.77 -2.80901 -2.25315 0
M  V30 10485 C 1004.62 -4.20484 -1.59728 0
M  V30 10486 C 1005.94 -2.95049 -3.26549 0
M  V30 10487 H 1003.06 -0.590691 -0.440741 0
M  V30 10488 H 1005.7 -1.83064 -0.508675 0
M  V30 10489 H 1003.85 -2.63325 -2.85643 0
M  V30 10490 H 1005.52 -4.49669 -1.02932 0
M  V30 10491 H 1003.76 -4.24357 -0.900181 0
M  V30 10492 H 1004.44 -4.99416 -2.35133 0
M  V30 10493 H 1006.91 -3.11166 -2.76251 0
M  V30 10494 H 1005.79 -3.79645 -3.96435 0
M  V30 10495 H 1006.05 -2.06019 -3.91163 0
M  V30 10496 N 1005.11 0.71652 -1.4037 0
M  V30 10497 C 1006.04 1.84138 -1.36477 0
M  V30 10498 C 1007.05 1.6054 -0.27033 0
M  V30 10499 O 1008.24 1.70431 -0.530612 0
M  V30 10500 C 1005.34 3.20523 -1.10082 0
M  V30 10501 C 1004.52 3.71326 -2.31162 0
M  V30 10502 C 1003.57 4.86322 -2.00942 0
M  V30 10503 O 1002.6 4.99022 -2.73799 0
M  V30 10504 N 1003.8 5.72051 -0.986812 0
M  V30 10505 H 1006.57 1.87977 -2.3342 0
M  V30 10506 H 1004.13 0.89802 -1.34712 0
M  V30 10507 H 1006.12 3.95049 -0.878526 0
M  V30 10508 H 1004.69 3.11838 -0.21809 0
M  V30 10509 H 1003.91 2.87941 -2.69227 0
M  V30 10510 H 1005.2 4.02003 -3.11883 0
M  V30 10511 H 1004.6 5.64399 -0.383381 0
M  V30 10512 H 1003.15 6.46565 -0.824419 0
M  V30 10513 N 1006.59 1.25851 0.948643 0
M  V30 10514 C 1007.81 1.13711 1.72851 0
M  V30 10515 C 1008.23 -0.308471 1.86263 0
M  V30 10516 O 1007.59 -1.21175 1.36465 0
M  V30 10517 C 1007.64 1.79271 3.13918 0
M  V30 10518 O 1007.36 3.18179 3.01154 0
M  V30 10519 C 1008.86 1.72988 4.08154 0
M  V30 10520 H 1006.08 0.396334 0.541443 0
M  V30 10521 H 1008.62 1.66329 1.18974 0
M  V30 10522 H 1006.78 1.30609 3.64719 0
M  V30 10523 H 1007.19 3.50507 3.90186 0
M  V30 10524 H 1008.67 2.2351 5.04725 0
M  V30 10525 H 1009.14 0.694866 4.33668 0
M  V30 10526 H 1009.75 2.21166 3.63271 0
M  V30 10527 N 1008.06 -1.15214 1.07534 0
M  V30 10528 C 1009.01 -2.22078 0.69168 0
M  V30 10529 C 1010.01 -1.66751 -0.298382 0
M  V30 10530 O 1011.21 -1.7927 -0.161897 0
M  V30 10531 H 1007.59 -0.723347 0.205604 0
M  V30 10532 H 1009.56 -2.51716 1.60256 0
M  V30 10533 C 1008.31 -3.47534 0.107546 0
M  V30 10534 H 1007.63 -3.90429 0.860522 0
M  V30 10535 H 1009.07 -4.23821 -0.123215 0
M  V30 10536 C 1007.53 -3.16583 -1.15226 0
M  V30 10537 O 1008.06 -3.33551 -2.23845 0
M  V30 10538 N 1006.27 -2.70611 -1.05915 0
M  V30 10539 H 1005.81 -2.57004 -0.175198 0
M  V30 10540 H 1005.77 -2.50277 -1.90287 0
M  V30 10541 N 1009.54 -0.859717 -1.32086 0
M  V30 10542 C 1010.82 -0.386665 -1.9174 0
M  V30 10543 C 1011.2 1.13028 -1.78292 0
M  V30 10544 O 1010.55 1.95422 -1.18417 0
M  V30 10545 C 1010.76 -0.856648 -3.38323 0
M  V30 10546 C 1012.11 -0.87678 -4.15449 0
M  V30 10547 O 1013.13 -0.80162 -3.47063 0
M  V30 10548 O 1011.99 -0.98373 -5.37573 0
M  V30 10549 H 1009.08 -0.113758 -0.819139 0
M  V30 10550 H 1011.63 -0.946952 -1.40822 0
M  V30 10551 H 1010.4 -1.89996 -3.42078 0
M  V30 10552 H 1010.02 -0.274095 -3.96654 0
M  V30 10553 N 1011.02 1.44971 -0.618145 0
M  V30 10554 C 1011.97 2.32354 0.106846 0
M  V30 10555 C 1012.96 1.4659 0.848984 0
M  V30 10556 O 1014.17 1.63012 0.763354 0
M  V30 10557 H 1010.54 0.750108 0.0533109 0
M  V30 10558 H 1012.51 2.9127 -0.648426 0
M  V30 10559 C 1011.26 3.30381 1.08368 0
M  V30 10560 H 1010.59 3.96377 0.52205 0
M  V30 10561 H 1012.03 3.94231 1.56069 0
M  V30 10562 C 1010.49 2.58336 2.1625 0
M  V30 10563 O 1011.02 2.37258 3.24148 0
M  V30 10564 N 1009.22 2.18292 1.91825 0
M  V30 10565 H 1008.77 2.35635 1.04086 0
M  V30 10566 H 1008.73 1.70413 2.6421 0
M  V30 10567 N 1012.5 0.357919 1.53482 0
M  V30 10568 C 1013.72 -0.237769 2.06033 0
M  V30 10569 C 1014.15 -1.42292 1.23023 0
M  V30 10570 O 1013.51 -1.79604 0.247427 0
M  V30 10571 C 1013.55 -0.616806 3.55286 0
M  V30 10572 O 1012.66 -1.71503 3.75047 0
M  V30 10573 H 1012 -0.0364322 0.663 0
M  V30 10574 H 1014.53 0.516301 1.97979 0
M  V30 10575 H 1014.54 -0.88996 3.98175 0
M  V30 10576 H 1013.21 0.249825 4.15149 0
M  V30 10577 H 1011.79 -1.43803 3.44057 0
M  V30 10578 N 1013.98 -1.5736 0.0868897 0
M  V30 10579 C 1014.91 -2.10582 -0.904858 0
M  V30 10580 C 1015.92 -1.04124 -1.25148 0
M  V30 10581 O 1017.11 -1.31595 -1.20603 0
M  V30 10582 C 1014.21 -2.56381 -2.21635 0
M  V30 10583 C 1013.38 -3.86581 -2.04631 0
M  V30 10584 C 1012.44 -4.18313 -3.19219 0
M  V30 10585 O 1011.47 -4.87669 -2.93544 0
M  V30 10586 N 1012.67 -3.73061 -4.44754 0
M  V30 10587 H 1015.44 -2.96297 -0.450352 0
M  V30 10588 H 1013 -1.616 -0.0984376 0
M  V30 10589 H 1014.99 -2.7466 -2.97227 0
M  V30 10590 H 1013.56 -1.75721 -2.58536 0
M  V30 10591 H 1012.78 -3.77532 -1.13417 0
M  V30 10592 H 1014.07 -4.71777 -1.90537 0
M  V30 10593 H 1013.46 -3.1706 -4.68497 0
M  V30 10594 H 1012.02 -3.96511 -5.17322 0
M  V30 10595 N 1015.45 0.186762 -1.56489 0
M  V30 10596 C 1016.68 0.921832 -1.85229 0
M  V30 10597 C 1017.1 1.76496 -0.670416 0
M  V30 10598 O 1016.45 1.78899 0.360758 0
M  V30 10599 C 1016.51 1.81121 -3.12854 0
M  V30 10600 O 1016.23 1.00211 -4.26485 0
M  V30 10601 C 1017.73 2.65725 -3.54831 0
M  V30 10602 H 1014.95 0.268563 -0.61491 0
M  V30 10603 H 1017.49 0.191505 -2.03601 0
M  V30 10604 H 1015.65 2.49506 -2.96354 0
M  V30 10605 H 1016.06 1.60893 -4.99213 0
M  V30 10606 H 1017.53 3.23771 -4.47075 0
M  V30 10607 H 1018.01 3.39843 -2.78215 0
M  V30 10608 H 1018.62 2.02698 -3.7389 0
M  V30 10609 N 1016.93 1.50896 0.454776 0
M  V30 10610 C 1018.21 1.53227 1.21576 0
M  V30 10611 C 1018.59 0.286358 2.09149 0
M  V30 10612 O 1017.94 -0.729469 2.16543 0
M  V30 10613 C 1018.15 2.83693 2.03271 0
M  V30 10614 C 1019.5 3.34981 2.60908 0
M  V30 10615 O 1020.52 2.85126 2.13499 0
M  V30 10616 O 1019.38 4.21929 3.4733 0
M  V30 10617 H 1016.47 0.615306 0.552564 0
M  V30 10618 H 1019.02 1.63197 0.465266 0
M  V30 10619 H 1017.79 3.65839 1.38843 0
M  V30 10620 H 1017.41 2.76803 2.85422 0
M  V30 10621 N 1018.41 -0.709066 1.40748 0
M  V30 10622 C 1019.69 -1.4626 1.29874 0
M  V30 10623 C 1020.07 -2.10949 -0.0799322 0
M  V30 10624 O 1019.42 -2.00651 -1.09323 0
M  V30 10625 C 1019.63 -2.49302 2.44232 0
M  V30 10626 C 1020.97 -3.14945 2.84771 0
M  V30 10627 O 1022 -2.59623 2.43873 0
M  V30 10628 O 1020.86 -4.15111 3.5545 0
M  V30 10629 H 1017.95 -0.650716 0.51039 0
M  V30 10630 H 1020.5 -0.740687 1.52682 0
M  V30 10631 H 1019.27 -2.00063 3.36289 0
M  V30 10632 H 1018.89 -3.29021 2.23229 0
M  V30 10633 N 1019.89 -1.26353 -0.941956 0
M  V30 10634 C 1020.84 -1.07654 -2.06188 0
M  V30 10635 C 1021.83 -0.00369741 -1.694 0
M  V30 10636 O 1023.04 -0.160316 -1.79285 0
M  V30 10637 H 1019.41 -0.331274 -0.675101 0
M  V30 10638 H 1021.38 -2.02566 -2.19111 0
M  V30 10639 C 1020.13 -0.725436 -3.40048 0
M  V30 10640 H 1019.46 -1.54283 -3.68832 0
M  V30 10641 H 1020.9 -0.634383 -4.19227 0
M  V30 10642 C 1019.35 0.569369 -3.32054 0
M  V30 10643 O 1019.88 1.60791 -3.68116 0
M  V30 10644 N 1018.09 0.559714 -2.85159 0
M  V30 10645 H 1017.64 -0.285817 -2.56009 0
M  V30 10646 H 1017.6 1.42617 -2.80193 0
M  V30 10647 N 1021.37 1.14642 -1.08144 0
M  V30 10648 C 1022.3 2.21775 -0.730609 0
M  V30 10649 C 1023.28 1.67683 0.285702 0
M  V30 10650 O 1024.46 1.93567 0.156667 0
M  V30 10651 C 1021.59 3.47033 -0.136242 0
M  V30 10652 C 1020.55 4.14134 -1.0806 0
M  V30 10653 C 1019.87 5.33563 -0.348585 0
M  V30 10654 C 1021.17 4.62978 -2.41761 0
M  V30 10655 H 1022.87 2.51378 -1.62633 0
M  V30 10656 H 1020.41 1.20825 -0.783411 0
M  V30 10657 H 1022.37 4.21226 0.121182 0
M  V30 10658 H 1021.09 3.16786 0.7946 0
M  V30 10659 H 1019.75 3.41892 -1.32308 0
M  V30 10660 H 1019.4 4.99575 0.585974 0
M  V30 10661 H 1019.1 5.79402 -0.978122 0
M  V30 10662 H 1020.62 6.10519 -0.0991508 0
M  V30 10663 H 1022.04 5.28659 -2.21795 0
M  V30 10664 H 1020.43 5.1951 -3.00383 0
M  V30 10665 H 1021.5 3.78189 -3.03482 0
M  V30 10666 N 1022.85 0.866709 1.31628 0
M  V30 10667 C 1024.07 0.48956 2.01539 0
M  V30 10668 C 1024.5 -0.909556 1.64647 0
M  V30 10669 O 1023.85 -1.59959 0.853391 0
M  V30 10670 C 1023.9 0.650176 3.5469 0
M  V30 10671 O 1023.01 -0.311908 4.11219 0
M  V30 10672 H 1022.35 0.195144 0.634677 0
M  V30 10673 H 1024.88 1.16923 1.679 0
M  V30 10674 H 1024.89 0.542236 4.04381 0
M  V30 10675 H 1023.56 1.67038 3.80882 0
M  V30 10676 H 1022.14 -0.159197 3.7256 0
M  V30 10677 N 1024.32 -1.44642 0.625825 0
M  V30 10678 C 1025.6 -1.9551 0.0593587 0
M  V30 10679 C 1025.98 -1.56792 -1.41349 0
M  V30 10680 O 1025.33 -0.839373 -2.12525 0
M  V30 10681 C 1025.54 -3.47902 0.276647 0
M  V30 10682 C 1026.89 -4.24271 0.167044 0
M  V30 10683 O 1027.91 -3.55594 0.207731 0
M  V30 10684 O 1026.77 -5.46458 0.0675 0
M  V30 10685 H 1023.86 -0.826612 -0.0253422 0
M  V30 10686 H 1026.41 -1.54718 0.697159 0
M  V30 10687 H 1025.18 -3.69115 1.29885 0
M  V30 10688 H 1024.8 -3.95628 -0.395547 0
M  V30 10689 N 1025.8 -0.366053 -1.5329 0
M  V30 10690 C 1027.05 0.224614 -2.00445 0
M  V30 10691 C 1027.36 1.49829 -1.2574 0
M  V30 10692 O 1028.57 2.16759 -1.63487 0
M  V30 10693 C 1027.03 0.450818 -3.57065 0
M  V30 10694 C 1026.63 -0.808257 -4.40649 0
M  V30 10695 C 1028.38 0.999116 -4.12575 0
M  V30 10696 C 1026.28 -0.551612 -5.88822 0
M  V30 10697 H 1025.21 0.0877114 -0.748881 0
M  V30 10698 H 1027.87 -0.484866 -1.76978 0
M  V30 10699 H 1026.25 1.22157 -3.76688 0
M  V30 10700 H 1027.42 -1.58184 -4.32798 0
M  V30 10701 H 1025.74 -1.27981 -3.96245 0
M  V30 10702 H 1028.33 1.20646 -5.20911 0
M  V30 10703 H 1028.68 1.96139 -3.67199 0
M  V30 10704 H 1029.21 0.288518 -3.96752 0
M  V30 10705 H 1025.95 -1.48423 -6.38475 0
M  V30 10706 H 1025.47 0.183462 -5.99519 0
M  V30 10707 H 1027.15 -0.177307 -6.46757 0
M  V30 10708 N 1027.28 1.57312 -0.0952337 0
M  V30 10709 C 1028.7 1.57445 0.261416 0
M  V30 10710 C 1028.9 1.10639 1.68408 0
M  V30 10711 O 1027.95 0.782912 2.40056 0
M  V30 10712 C 1029.26 3.00659 0.0497206 0
M  V30 10713 C 1030.81 3.1278 0.117459 0
M  V30 10714 C 1031.29 4.57952 -0.0662441 0
M  V30 10715 N 1032.78 4.63199 -0.0114146 0
M  V30 10716 C 1033.51 5.73255 -0.128799 0
M  V30 10717 N 1033.01 6.92146 -0.301026 0
M  V30 10718 N 1034.8 5.62056 -0.0700599 0
M  V30 10719 H 1026.95 1.86045 -1.02475 0
M  V30 10720 H 1029.22 0.858726 -0.401614 0
M  V30 10721 H 1028.92 3.39102 -0.932888 0
M  V30 10722 H 1028.8 3.68792 0.791975 0
M  V30 10723 H 1031.18 2.74209 1.09057 0
M  V30 10724 H 1031.26 2.47238 -0.656288 0
M  V30 10725 H 1030.91 4.97217 -1.03623 0
M  V30 10726 H 1030.84 5.21555 0.727198 0
M  V30 10727 H 1033.33 3.77712 0.119154 0
M  V30 10728 H 1033.64 7.71855 -0.382104 0
M  V30 10729 H 1031.99 6.94184 -0.336695 0
M  V30 10730 H 1035.18 4.68057 0.0633587 0
M  V30 10731 H 1035.35 6.4779 -0.164991 0
M  V30 10732 N 1028.76 -0.17846 1.56586 0
M  V30 10733 C 1030.01 -0.894464 1.81228 0
M  V30 10734 C 1030.33 -1.83089 0.671062 0
M  V30 10735 O 1029.6 -1.93439 -0.309557 0
M  V30 10736 H 1028.18 -0.333288 0.668527 0
M  V30 10737 H 1030.84 -0.179986 1.94067 0
M  V30 10738 H 1029.93 -1.47565 2.75011 0
M  V30 10739 N 1030.24 -1.51135 -0.446768 0
M  V30 10740 C 1031.65 -1.39101 -0.782504 0
M  V30 10741 C 1031.85 -0.46599 -1.96038 0
M  V30 10742 O 1030.91 0.0823679 -2.52366 0
M  V30 10743 C 1032.22 -2.80953 -1.07173 0
M  V30 10744 C 1033.77 -2.90038 -1.17673 0
M  V30 10745 C 1034.24 -4.32777 -1.49894 0
M  V30 10746 N 1035.73 -4.3584 -1.56837 0
M  V30 10747 C 1036.47 -5.43305 -1.83322 0
M  V30 10748 N 1035.97 -6.60945 -2.07662 0
M  V30 10749 N 1037.76 -5.30775 -1.85026 0
M  V30 10750 H 1029.91 -2.09835 0.329114 0
M  V30 10751 H 1032.17 -0.944199 0.0848054 0
M  V30 10752 H 1031.88 -3.50591 -0.279037 0
M  V30 10753 H 1031.75 -3.197 -2.00179 0
M  V30 10754 H 1034.14 -2.20603 -1.96005 0
M  V30 10755 H 1034.22 -2.54801 -0.225892 0
M  V30 10756 H 1033.86 -5.02757 -0.720924 0
M  V30 10757 H 1033.79 -4.6552 -2.46168 0
M  V30 10758 H 1036.29 -3.51023 -1.39968 0
M  V30 10759 H 1036.6 -7.38643 -2.27214 0
M  V30 10760 H 1034.94 -6.64077 -2.05003 0
M  V30 10761 H 1038.13 -4.37858 -1.65523 0
M  V30 10762 H 1038.31 -6.14609 -2.05329 0
M  V30 10763 N 1031.71 0.701592 -1.41122 0
M  V30 10764 C 1032.68 1.79733 -1.42227 0
M  V30 10765 C 1033.68 1.57708 -0.313831 0
M  V30 10766 O 1034.87 1.64492 -0.573423 0
M  V30 10767 C 1032 3.18024 -1.22775 0
M  V30 10768 H 1033.19 1.80148 -2.39764 0
M  V30 10769 H 1030.74 0.908624 -1.27176 0
M  V30 10770 H 1031.48 3.23252 -0.260552 0
M  V30 10771 H 1031.26 3.35411 -2.0308 0
M  V30 10772 H 1032.75 3.98021 -1.2637 0
M  V30 10773 N 1033.19 1.2685 0.935242 0
M  V30 10774 C 1034.12 1.04717 2.0388 0
M  V30 10775 C 1035.14 0.00567507 1.62799 0
M  V30 10776 O 1036.33 0.246408 1.76791 0
M  V30 10777 C 1033.43 0.56496 3.34158 0
M  V30 10778 C 1032.6 1.67704 4.03973 0
M  V30 10779 C 1031.66 1.19186 5.12524 0
M  V30 10780 O 1030.68 1.89008 5.36903 0
M  V30 10781 N 1031.89 0.0434554 5.80484 0
M  V30 10782 H 1034.65 1.99746 2.23431 0
M  V30 10783 H 1032.21 1.18316 1.10512 0
M  V30 10784 H 1034.2 0.224436 4.04077 0
M  V30 10785 H 1032.77 -0.291899 3.11234 0
M  V30 10786 H 1031.99 2.18821 3.27889 0
M  V30 10787 H 1033.28 2.42361 4.47368 0
M  V30 10788 H 1032.68 -0.539502 5.63122 0
M  V30 10789 H 1031.24 -0.237946 6.51366 0
M  V30 10790 N 1034.67 -1.14067 1.0875 0
M  V30 10791 C 1035.9 -1.89582 0.841038 0
M  V30 10792 C 1036.32 -1.78226 -0.601436 0
M  V30 10793 O 1035.68 -1.12491 -1.42181 0
M  V30 10794 C 1035.73 -3.37415 1.27213 0
M  V30 10795 O 1034.83 -4.10191 0.426246 0
M  V30 10796 H 1034.17 -0.589716 0.305173 0
M  V30 10797 H 1036.7 -1.44364 1.44984 0
M  V30 10798 H 1036.71 -3.88234 1.25451 0
M  V30 10799 H 1035.39 -3.44999 2.32268 0
M  V30 10800 H 1033.96 -3.69429 0.507585 0
M  V30 10801 N 1036.15 -0.873678 -1.31166 0
M  V30 10802 C 1037.08 -0.348011 -2.30892 0
M  V30 10803 C 1038.06 0.563092 -1.60509 0
M  V30 10804 O 1039.24 0.479332 -1.88192 0
M  V30 10805 C 1036.37 0.448158 -3.44396 0
M  V30 10806 C 1035.33 -0.370179 -4.26396 0
M  V30 10807 C 1034.65 0.551903 -5.31844 0
M  V30 10808 C 1035.95 -1.60624 -4.96988 0
M  V30 10809 H 1037.65 -1.18134 -2.75109 0
M  V30 10810 H 1035.19 -0.569502 -1.3226 0
M  V30 10811 H 1037.15 0.826458 -4.13216 0
M  V30 10812 H 1035.87 1.31503 -2.98956 0
M  V30 10813 H 1034.53 -0.730472 -3.59249 0
M  V30 10814 H 1034.18 1.41616 -4.82653 0
M  V30 10815 H 1033.88 0.00823478 -5.87599 0
M  V30 10816 H 1035.4 0.926965 -6.03523 0
M  V30 10817 H 1036.82 -1.29917 -5.58386 0
M  V30 10818 H 1035.21 -2.08926 -5.62557 0
M  V30 10819 H 1036.28 -2.357 -4.23761 0
M  V30 10820 N 1037.63 1.44308 -0.633487 0
M  V30 10821 C 1038.87 2.02322 -0.139123 0
M  V30 10822 C 1039.21 1.49733 1.23667 0
M  V30 10823 O 1038.48 0.682353 1.82138 0
M  V30 10824 C 1038.76 3.59871 -0.128366 0
M  V30 10825 C 1038.62 4.22737 -1.53667 0
M  V30 10826 C 1039.94 4.36702 0.545834 0
M  V30 10827 H 1037.05 0.735161 -0.0520293 0
M  V30 10828 H 1039.7 1.7185 -0.810411 0
M  V30 10829 H 1037.85 3.85963 0.443263 0
M  V30 10830 H 1039.52 4.07744 -2.15737 0
M  V30 10831 H 1037.76 3.80142 -2.08985 0
M  V30 10832 H 1038.43 5.31757 -1.48116 0
M  V30 10833 H 1040.91 4.16057 0.0596879 0
M  V30 10834 H 1039.78 5.46407 0.522557 0
M  V30 10835 H 1040.05 4.11483 1.6166 0
M  V30 10836 N 1039.1 0.374177 1.53094 0
M  V30 10837 C 1040.38 -0.269632 1.93733 0
M  V30 10838 C 1040.76 -1.6566 1.30843 0
M  V30 10839 O 1040.11 -2.23598 0.470759 0
M  V30 10840 C 1040.32 -0.311204 3.4761 0
M  V30 10841 C 1041.67 -0.547432 4.21056 0
M  V30 10842 O 1042.69 -0.392053 3.54036 0
M  V30 10843 O 1041.55 -0.850645 5.39839 0
M  V30 10844 H 1038.64 -0.163723 0.810632 0
M  V30 10845 H 1041.19 0.427586 1.64225 0
M  V30 10846 H 1039.96 0.660897 3.85678 0
M  V30 10847 H 1039.59 -1.05397 3.83376 0
M  V30 10848 N 1040.58 -1.57259 0.103575 0
M  V30 10849 C 1041.49 -2.18018 -0.866327 0
M  V30 10850 C 1042.51 -1.15198 -1.30404 0
M  V30 10851 O 1043.68 -1.47605 -1.37021 0
M  V30 10852 C 1040.75 -2.75533 -2.10434 0
M  V30 10853 C 1039.81 -3.93337 -1.72002 0
M  V30 10854 C 1039.04 -4.481 -2.89901 0
M  V30 10855 O 1039.27 -4.01784 -4.04877 0
M  V30 10856 O 1038.2 -5.39004 -2.67877 0
M  V30 10857 H 1042.03 -3.01322 -0.379338 0
M  V30 10858 H 1039.61 -1.48907 -0.121228 0
M  V30 10859 H 1041.49 -3.12259 -2.8297 0
M  V30 10860 H 1040.17 -1.9527 -2.58169 0
M  V30 10861 H 1039.08 -3.61408 -0.966193 0
M  V30 10862 H 1040.41 -4.74989 -1.29022 0
M  V30 10863 N 1042.06 0.170153 -1.56679 0
M  V30 10864 C 1043.02 1.19443 -1.95617 0
M  V30 10865 C 1044.02 1.37118 -0.83996 0
M  V30 10866 O 1045.21 1.34504 -1.10699 0
M  V30 10867 C 1042.35 2.55926 -2.25199 0
M  V30 10868 H 1043.54 0.86095 -2.87276 0
M  V30 10869 H 1041.09 0.412646 -1.50755 0
M  V30 10870 H 1041.83 2.94286 -1.36257 0
M  V30 10871 H 1041.61 2.44464 -3.06562 0
M  V30 10872 H 1043.1 3.29742 -2.56242 0
M  V30 10873 N 1043.54 1.5137 0.438746 0
M  V30 10874 C 1044.76 1.68058 1.21537 0
M  V30 10875 C 1045.19 0.376787 1.84288 0
M  V30 10876 O 1044.55 -0.662911 1.68746 0
M  V30 10877 C 1044.59 2.79684 2.27616 0
M  V30 10878 O 1043.7 2.43189 3.33066 0
M  V30 10879 H 1043.04 0.560408 0.356144 0
M  V30 10880 H 1045.57 1.97926 0.518311 0
M  V30 10881 H 1045.58 3.03726 2.72423 0
M  V30 10882 H 1044.25 3.74293 1.81321 0
M  V30 10883 H 1042.83 2.29713 2.93746 0
M  V30 10884 N 1045.02 -0.694098 1.41492 0
M  V30 10885 C 1046.43 -1.00487 1.23994 0
M  V30 10886 C 1046.63 -2.01078 0.130346 0
M  V30 10887 O 1045.69 -2.47403 -0.504775 0
M  V30 10888 C 1047 -1.52808 2.58979 0
M  V30 10889 C 1048.55 -1.64684 2.66173 0
M  V30 10890 C 1049.02 -2.20406 4.01479 0
M  V30 10891 N 1050.52 -2.27765 4.03333 0
M  V30 10892 C 1051.25 -2.7191 5.04829 0
M  V30 10893 N 1050.75 -3.1565 6.16714 0
M  V30 10894 N 1052.54 -2.71487 4.9219 0
M  V30 10895 H 1044.69 -0.027746 2.12382 0
M  V30 10896 H 1046.95 -0.0748741 0.945039 0
M  V30 10897 H 1046.66 -0.863519 3.40934 0
M  V30 10898 H 1046.53 -2.50998 2.81566 0
M  V30 10899 H 1048.92 -2.30251 1.84576 0
M  V30 10900 H 1049 -0.65035 2.47395 0
M  V30 10901 H 1048.65 -1.55454 4.83525 0
M  V30 10902 H 1048.58 -3.2081 4.17599 0
M  V30 10903 H 1051.07 -1.96899 3.22551 0
M  V30 10904 H 1051.38 -3.47966 6.90029 0
M  V30 10905 H 1049.72 -3.13555 6.20248 0
M  V30 10906 H 1052.92 -2.36666 4.03865 0
M  V30 10907 H 1053.09 -3.05573 5.71427 0
M  V30 10908 N 1046.49 -1.27344 -0.928501 0
M  V30 10909 C 1047.46 -1.10043 -2.01055 0
M  V30 10910 C 1048.46 -0.0446793 -1.60738 0
M  V30 10911 O 1049.65 -0.289202 -1.71783 0
M  V30 10912 C 1046.78 -0.676559 -3.34119 0
M  V30 10913 H 1047.97 -2.06126 -2.17835 0
M  V30 10914 H 1045.53 -1.10121 -1.10919 0
M  V30 10915 H 1046.26 0.285697 -3.23039 0
M  V30 10916 H 1046.05 -1.43903 -3.64739 0
M  V30 10917 H 1047.54 -0.577725 -4.13584 0
M  V30 10918 N 1047.97 1.13488 -1.09353 0
M  V30 10919 C 1049.22 1.841 -0.82401 0
M  V30 10920 C 1049.53 1.84393 0.652586 0
M  V30 10921 O 1050.74 2.5089 1.03762 0
M  V30 10922 C 1049.2 3.30523 -1.42418 0
M  V30 10923 C 1048.8 3.38621 -2.93326 0
M  V30 10924 C 1050.55 4.06182 -1.23356 0
M  V30 10925 C 1048.46 4.79311 -3.46432 0
M  V30 10926 H 1047.39 0.68974 -0.304589 0
M  V30 10927 H 1050.04 1.27866 -1.31615 0
M  V30 10928 H 1048.42 3.86555 -0.859727 0
M  V30 10929 H 1049.59 2.92587 -3.5599 0
M  V30 10930 H 1047.91 2.76426 -3.11412 0
M  V30 10931 H 1050.5 5.10047 -1.60488 0
M  V30 10932 H 1050.85 4.15936 -0.174152 0
M  V30 10933 H 1051.38 3.56477 -1.76547 0
M  V30 10934 H 1048.12 4.74748 -4.5199 0
M  V30 10935 H 1047.64 5.25842 -2.8853 0
M  V30 10936 H 1049.32 5.48227 -3.43593 0
M  V30 10937 N 1049.45 0.880621 1.30701 0
M  V30 10938 C 1050.68 0.510909 2.01009 0
M  V30 10939 C 1051.1 -0.892041 1.65603 0
M  V30 10940 O 1050.46 -1.59045 0.870309 0
M  V30 10941 C 1050.51 0.687759 3.53981 0
M  V30 10942 O 1049.61 -0.268275 4.11526 0
M  V30 10943 H 1048.95 0.201864 0.632572 0
M  V30 10944 H 1051.48 1.18697 1.6665 0
M  V30 10945 H 1051.49 0.585095 4.03783 0
M  V30 10946 H 1050.17 1.71068 3.79089 0
M  V30 10947 H 1048.74 -0.119673 3.72708 0
M  V30 10948 N 1050.93 -1.4397 0.641131 0
M  V30 10949 C 1052.21 -1.95436 0.0800918 0
M  V30 10950 C 1052.59 -1.58282 -1.39678 0
M  V30 10951 O 1051.93 -0.861867 -2.11623 0
M  V30 10952 C 1052.14 -3.47589 0.313531 0
M  V30 10953 C 1053.49 -4.2407 0.212034 0
M  V30 10954 O 1054.52 -3.55353 0.245434 0
M  V30 10955 O 1053.38 -5.46356 0.125455 0
M  V30 10956 H 1050.47 -0.826834 -0.0165735 0
M  V30 10957 H 1053.02 -1.5397 0.71353 0
M  V30 10958 H 1051.79 -3.67716 1.33793 0
M  V30 10959 H 1051.41 -3.96025 -0.353563 0
M  V30 10960 N 1052.41 -0.382291 -1.52893 0
M  V30 10961 C 1053.37 0.44408 -2.24857 0
M  V30 10962 C 1054.37 0.996004 -1.26239 0
M  V30 10963 O 1055.56 0.879114 -1.5039 0
M  V30 10964 C 1052.69 1.62234 -2.99822 0
M  V30 10965 H 1053.89 -0.185862 -2.99324 0
M  V30 10966 H 1051.44 -0.134275 -1.55722 0
M  V30 10967 H 1052.17 2.28991 -2.29638 0
M  V30 10968 H 1051.96 1.23336 -3.72197 0
M  V30 10969 H 1053.45 2.20756 -3.54481 0
M  V30 10970 N 1053.89 1.57202 -0.111913 0
M  V30 10971 C 1054.83 2.14936 0.840908 0
M  V30 10972 C 1055.8 1.07242 1.2684 0
M  V30 10973 O 1056.99 1.35114 1.34718 0
M  V30 10974 C 1054.13 2.74743 2.0883 0
M  V30 10975 C 1053.24 3.96723 1.70982 0
M  V30 10976 C 1052.38 4.4464 2.90634 0
M  V30 10977 C 1051.41 5.59169 2.48992 0
M  V30 10978 N 1050.55 6.01862 3.61534 0
M  V30 10979 H 1055.39 2.96034 0.341735 0
M  V30 10980 H 1052.93 1.4626 0.156993 0
M  V30 10981 H 1054.89 3.07546 2.81907 0
M  V30 10982 H 1053.52 1.96346 2.56218 0
M  V30 10983 H 1052.57 3.70127 0.878072 0
M  V30 10984 H 1053.88 4.79795 1.36373 0
M  V30 10985 H 1053.03 4.79315 3.71944 0
M  V30 10986 H 1051.77 3.60503 3.28464 0
M  V30 10987 H 1050.78 5.24106 1.66113 0
M  V30 10988 H 1052 6.45067 2.12287 0
M  V30 10989 H 1049.95 5.20667 3.99051 0
M  V30 10990 H 1049.87 6.79772 3.30827 0
M  V30 10991 H 1051.13 6.41172 4.43305 0
M  V30 10992 N 1055.36 -0.161842 1.56767 0
M  V30 10993 C 1056.61 -0.875278 1.81719 0
M  V30 10994 C 1056.93 -1.82998 0.690739 0
M  V30 10995 O 1058.13 -2.58648 0.82545 0
M  V30 10996 C 1056.59 -1.60703 3.22029 0
M  V30 10997 C 1056.2 -0.695486 4.42569 0
M  V30 10998 C 1057.94 -2.30813 3.56266 0
M  V30 10999 C 1055.85 -1.42801 5.73901 0
M  V30 11000 H 1054.78 -0.330591 0.677662 0
M  V30 11001 H 1057.43 -0.128112 1.83052 0
M  V30 11002 H 1055.81 -2.39929 3.1504 0
M  V30 11003 H 1056.98 0.0604882 4.6076 0
M  V30 11004 H 1055.3 -0.10356 4.16271 0
M  V30 11005 H 1057.9 -2.86229 4.51638 0
M  V30 11006 H 1058.24 -3.06603 2.81604 0
M  V30 11007 H 1058.77 -1.5852 3.64851 0
M  V30 11008 H 1055.51 -0.712253 6.51619 0
M  V30 11009 H 1055.03 -2.15707 5.5967 0
M  V30 11010 H 1056.71 -1.97295 6.16185 0
M  V30 11011 N 1056.84 -1.516 -0.430713 0
M  V30 11012 C 1057.79 -1.73392 -1.52328 0
M  V30 11013 C 1058.76 -0.575758 -1.55802 0
M  V30 11014 O 1059.94 -0.810931 -1.72709 0
M  V30 11015 C 1057.08 -1.87092 -2.89984 0
M  V30 11016 C 1056.2 -3.14668 -2.95987 0
M  V30 11017 C 1055.33 -3.18923 -4.24807 0
M  V30 11018 C 1054.37 -4.40787 -4.24703 0
M  V30 11019 N 1053.51 -4.42556 -5.45059 0
M  V30 11020 H 1058.35 -2.6665 -1.33048 0
M  V30 11021 H 1055.88 -1.32146 -0.646207 0
M  V30 11022 H 1057.84 -1.93017 -3.69865 0
M  V30 11023 H 1056.47 -0.972363 -3.07807 0
M  V30 11024 H 1055.52 -3.1802 -2.08728 0
M  V30 11025 H 1056.84 -4.04562 -2.91772 0
M  V30 11026 H 1055.99 -3.23801 -5.13067 0
M  V30 11027 H 1054.73 -2.2693 -4.31688 0
M  V30 11028 H 1053.73 -4.36079 -3.34836 0
M  V30 11029 H 1054.96 -5.34053 -4.19481 0
M  V30 11030 H 1052.91 -3.53435 -5.52648 0
M  V30 11031 H 1052.82 -5.26267 -5.42751 0
M  V30 11032 H 1054.09 -4.51634 -6.35332 0
M  V30 11033 N 1058.32 0.686584 -1.41858 0
M  V30 11034 C 1059.23 1.83002 -1.46791 0
M  V30 11035 C 1060.25 1.70284 -0.357675 0
M  V30 11036 O 1061.42 1.92042 -0.606781 0
M  V30 11037 C 1058.49 3.19056 -1.35661 0
M  V30 11038 C 1057.55 3.43817 -2.57077 0
M  V30 11039 C 1056.78 4.7338 -2.46469 0
M  V30 11040 O 1057 5.50483 -1.49413 0
M  V30 11041 O 1055.94 4.99124 -3.36391 0
M  V30 11042 H 1059.76 1.81797 -2.43277 0
M  V30 11043 H 1057.35 0.840812 -1.23494 0
M  V30 11044 H 1059.23 4.00267 -1.31773 0
M  V30 11045 H 1057.91 3.20925 -0.422951 0
M  V30 11046 H 1056.81 2.625 -2.66541 0
M  V30 11047 H 1058.15 3.4677 -3.49302 0
M  V30 11048 N 1059.8 1.27835 0.921735 0
M  V30 11049 C 1060.74 1.11075 2.02314 0
M  V30 11050 C 1061.71 0.0101195 1.66097 0
M  V30 11051 O 1062.9 0.173564 1.90009 0
M  V30 11052 C 1060.04 0.770251 3.36394 0
M  V30 11053 C 1059.15 1.94912 3.8553 0
M  V30 11054 C 1058.29 1.54996 5.08084 0
M  V30 11055 C 1057.33 2.69595 5.49531 0
M  V30 11056 N 1056.46 2.30227 6.6328 0
M  V30 11057 H 1061.3 2.05319 2.15982 0
M  V30 11058 H 1058.84 1.022 1.058 0
M  V30 11059 H 1060.8 0.553624 4.1351 0
M  V30 11060 H 1059.43 -0.135238 3.22517 0
M  V30 11061 H 1058.48 2.27811 3.04641 0
M  V30 11062 H 1059.79 2.80858 4.12214 0
M  V30 11063 H 1058.95 1.29493 5.9272 0
M  V30 11064 H 1057.69 0.661676 4.83191 0
M  V30 11065 H 1056.69 2.95806 4.63442 0
M  V30 11066 H 1057.92 3.59054 5.76417 0
M  V30 11067 H 1055.86 1.43858 6.40032 0
M  V30 11068 H 1055.78 3.09711 6.89649 0
M  V30 11069 H 1057.05 2.07987 7.5124 0
M  V30 11070 N 1061.28 -1.12907 1.09954 0
M  V30 11071 C 1062.24 -2.16673 0.747364 0
M  V30 11072 C 1063.24 -1.59208 -0.225741 0
M  V30 11073 O 1064.43 -1.742 -0.00322482 0
M  V30 11074 C 1061.56 -3.40735 0.106169 0
M  V30 11075 H 1062.75 -2.49341 1.6664 0
M  V30 11076 H 1060.31 -1.27828 0.899421 0
M  V30 11077 H 1061.04 -3.13661 -0.82384 0
M  V30 11078 H 1060.83 -3.83717 0.806434 0
M  V30 11079 H 1062.32 -4.17414 -0.12464 0
M  V30 11080 N 1062.75 -0.88754 -1.30232 0
M  V30 11081 C 1063.69 -0.313488 -2.27046 0
M  V30 11082 C 1064.7 0.533383 -1.53814 0
M  V30 11083 O 1065.89 0.352516 -1.74984 0
M  V30 11084 C 1062.99 0.572674 -3.34026 0
M  V30 11085 C 1062.16 -0.245712 -4.36709 0
M  V30 11086 C 1061.22 0.57135 -5.23089 0
M  V30 11087 O 1060.25 -0.00685948 -5.692 0
M  V30 11088 N 1061.45 1.87994 -5.49216 0
M  V30 11089 H 1064.21 -1.14553 -2.76943 0
M  V30 11090 H 1061.77 -0.750785 -1.43439 0
M  V30 11091 H 1063.77 1.12539 -3.88738 0
M  V30 11092 H 1062.34 1.3054 -2.84039 0
M  V30 11093 H 1061.56 -0.979869 -3.81827 0
M  V30 11094 H 1062.84 -0.806618 -5.02366 0
M  V30 11095 H 1062.24 2.3726 -5.13541 0
M  V30 11096 H 1060.8 2.38005 -6.06792 0
M  V30 11097 N 1064.23 1.43628 -0.648757 0
M  V30 11098 C 1065.46 2.06217 -0.167945 0
M  V30 11099 C 1065.88 1.486 1.16462 0
M  V30 11100 O 1065.23 0.61559 1.71804 0
M  V30 11101 C 1065.28 3.6144 -0.0660114 0
M  V30 11102 O 1065 4.16914 -1.34589 0
M  V30 11103 C 1066.51 4.41097 0.441408 0
M  V30 11104 H 1063.73 0.665228 -0.0878237 0
M  V30 11105 H 1066.27 1.84207 -0.888144 0
M  V30 11106 H 1064.42 3.82651 0.604722 0
M  V30 11107 H 1064.84 5.10537 -1.20218 0
M  V30 11108 H 1066.31 5.50066 0.461697 0
M  V30 11109 H 1066.79 4.13803 1.47187 0
M  V30 11110 H 1067.4 4.24845 -0.19668 0
M  V30 11111 N 1065.71 0.390394 1.52688 0
M  V30 11112 C 1066.96 -0.192697 2.00777 0
M  V30 11113 C 1067.27 -1.4781 1.28108 0
M  V30 11114 O 1068.48 -2.1413 1.66914 0
M  V30 11115 C 1066.93 -0.393955 3.57737 0
M  V30 11116 C 1066.54 0.878259 4.39307 0
M  V30 11117 C 1068.29 -0.933352 4.14112 0
M  V30 11118 C 1066.19 0.645218 5.8787 0
M  V30 11119 H 1065.12 -0.0757862 0.750182 0
M  V30 11120 H 1067.77 0.512961 1.76184 0
M  V30 11121 H 1066.16 -1.16149 3.78583 0
M  V30 11122 H 1067.33 1.65049 4.30227 0
M  V30 11123 H 1065.65 1.34269 3.94158 0
M  V30 11124 H 1068.24 -1.12343 5.22765 0
M  V30 11125 H 1068.59 -1.90272 3.70273 0
M  V30 11126 H 1069.12 -0.225361 3.97161 0
M  V30 11127 H 1065.86 1.58562 6.36033 0
M  V30 11128 H 1065.38 -0.0880609 5.99735 0
M  V30 11129 H 1067.06 0.280178 6.46393 0
M  V30 11130 N 1067.19 -1.57141 0.120249 0
M  V30 11131 C 1068.43 -1.9632 -0.531989 0
M  V30 11132 C 1068.79 -1.00265 -1.64209 0
M  V30 11133 O 1068.08 -0.0328969 -1.91572 0
M  V30 11134 C 1068.28 -3.39745 -1.10941 0
M  V30 11135 C 1068.11 -4.49664 -0.0567772 0
M  V30 11136 C 1066.88 -5.03903 0.375466 0
M  V30 11137 C 1069.07 -5.09169 0.724667 0
M  V30 11138 N 1067.06 -5.974 1.41374 0
M  V30 11139 C 1068.43 -5.98621 1.61411 0
M  V30 11140 C 1070.48 -4.91825 0.775417 0
M  V30 11141 C 1069.18 -6.72587 2.54988 0
M  V30 11142 C 1071.21 -5.66473 1.69891 0
M  V30 11143 C 1070.57 -6.55611 2.57592 0
M  V30 11144 H 1066.67 -0.764554 -0.164259 0
M  V30 11145 H 1069.26 -1.93579 0.208656 0
M  V30 11146 H 1067.43 -3.43131 -1.81977 0
M  V30 11147 H 1069.16 -3.66045 -1.72607 0
M  V30 11148 H 1065.91 -4.73597 -0.0171723 0
M  V30 11149 H 1066.34 -6.48852 1.93184 0
M  V30 11150 H 1070.98 -4.22653 0.111497 0
M  V30 11151 H 1068.7 -7.41005 3.22393 0
M  V30 11152 H 1072.28 -5.55057 1.74363 0
M  V30 11153 H 1071.16 -7.12361 3.27889 0
M  V30 11154 N 1068.67 0.153526 -1.5685 0
M  V30 11155 C 1069.94 0.895545 -1.73895 0
M  V30 11156 C 1070.32 1.99625 -0.686504 0
M  V30 11157 O 1069.67 2.26579 0.2957 0
M  V30 11158 C 1069.88 1.44399 -3.17726 0
M  V30 11159 C 1071.23 1.90996 -3.79217 0
M  V30 11160 O 1072.25 1.54155 -3.21115 0
M  V30 11161 O 1071.11 2.58917 -4.81274 0
M  V30 11162 H 1068.21 0.422755 -0.710779 0
M  V30 11163 H 1070.75 0.139961 -1.69122 0
M  V30 11164 H 1069.52 0.652635 -3.85819 0
M  V30 11165 H 1069.15 2.26326 -3.26898 0
M  V30 11166 N 1070.14 1.51827 0.422667 0
M  V30 11167 C 1071.37 1.69337 1.19748 0
M  V30 11168 C 1071.79 0.396312 1.83878 0
M  V30 11169 O 1071.15 -0.644976 1.6944 0
M  V30 11170 C 1071.2 2.82082 2.24637 0
M  V30 11171 O 1070.3 2.46708 3.30468 0
M  V30 11172 H 1069.65 0.564154 0.35018 0
M  V30 11173 H 1072.18 1.98465 0.497289 0
M  V30 11174 H 1072.19 3.06599 2.69186 0
M  V30 11175 H 1070.86 3.76195 1.77341 0
M  V30 11176 H 1069.44 2.32815 2.91293 0
M  V30 11177 N 1071.62 -0.679052 1.4222 0
M  V30 11178 C 1072.87 -1.43485 1.41757 0
M  V30 11179 C 1073.18 -1.95567 0.0358698 0
M  V30 11180 O 1074.39 -2.71346 -0.0913713 0
M  V30 11181 C 1072.85 -2.59541 2.49332 0
M  V30 11182 C 1072.45 -2.14176 3.93488 0
M  V30 11183 C 1074.2 -3.37078 2.58029 0
M  V30 11184 C 1072.11 -3.27289 4.92581 0
M  V30 11185 H 1071.04 -0.539022 0.52723 0
M  V30 11186 H 1073.69 -0.735581 1.68111 0
M  V30 11187 H 1072.07 -3.31815 2.16135 0
M  V30 11188 H 1073.24 -1.49082 4.36017 0
M  V30 11189 H 1071.56 -1.49589 3.88603 0
M  V30 11190 H 1074.15 -4.21312 3.29242 0
M  V30 11191 H 1074.5 -3.83383 1.62245 0
M  V30 11192 H 1075.03 -2.7187 2.90399 0
M  V30 11193 H 1071.77 -2.8598 5.89827 0
M  V30 11194 H 1071.29 -3.91178 4.54687 0
M  V30 11195 H 1072.97 -3.9282 5.14103 0
M  V30 11196 N 1073.1 -1.28322 -0.914942 0
M  V30 11197 C 1074.35 -1.15578 -1.66642 0
M  V30 11198 C 1074.68 0.295209 -1.91943 0
M  V30 11199 O 1073.95 1.21482 -1.51896 0
M  V30 11200 C 1074.24 -1.9535 -3.02507 0
M  V30 11201 C 1074.09 -3.48504 -2.84367 0
M  V30 11202 C 1075.41 -1.76798 -4.03027 0
M  V30 11203 H 1072.53 -0.421234 -0.604757 0
M  V30 11204 H 1075.17 -1.57625 -1.06087 0
M  V30 11205 H 1073.32 -1.59619 -3.54195 0
M  V30 11206 H 1074.99 -3.94135 -2.39699 0
M  V30 11207 H 1073.24 -3.74198 -2.1945 0
M  V30 11208 H 1073.91 -3.99576 -3.80845 0
M  V30 11209 H 1076.38 -2.07977 -3.60395 0
M  V30 11210 H 1075.26 -2.34987 -4.96057 0
M  V30 11211 H 1075.52 -0.719162 -4.36211 0
M  V30 11212 N 1074.58 1.12322 -1.10551 0
M  V30 11213 C 1075.53 2.20166 -0.750317 0
M  V30 11214 C 1076.52 1.67484 0.254066 0
M  V30 11215 O 1077.73 1.79637 0.114309 0
M  V30 11216 H 1074.1 0.717642 -0.22471 0
M  V30 11217 H 1076.07 2.47378 -1.66873 0
M  V30 11218 C 1074.82 3.47126 -0.199651 0
M  V30 11219 H 1074.14 3.88011 -0.963735 0
M  V30 11220 H 1075.58 4.23999 0.0108033 0
M  V30 11221 C 1074.04 3.19526 1.06792 0
M  V30 11222 O 1074.57 3.39368 2.14923 0
M  V30 11223 N 1072.78 2.73324 0.987032 0
M  V30 11224 H 1072.33 2.57378 0.106997 0
M  V30 11225 H 1072.28 2.55234 1.83584 0
M  V30 11226 N 1076.06 0.894434 1.2976 0
M  V30 11227 C 1076.99 0.3847 2.30309 0
M  V30 11228 C 1077.97 -0.537486 1.61385 0
M  V30 11229 O 1079.15 -0.449332 1.8893 0
M  V30 11230 C 1076.28 -0.393311 3.45066 0
M  V30 11231 C 1075.24 0.437968 4.25753 0
M  V30 11232 C 1074.56 -0.467221 5.32655 0
M  V30 11233 C 1075.86 1.6851 4.9437 0
M  V30 11234 H 1077.56 1.22496 2.73194 0
M  V30 11235 H 1075.1 0.590471 1.31337 0
M  V30 11236 H 1077.06 -0.760614 4.14479 0
M  V30 11237 H 1075.78 -1.2673 3.0101 0
M  V30 11238 H 1074.44 0.787533 3.58041 0
M  V30 11239 H 1074.09 -1.33919 4.84845 0
M  V30 11240 H 1073.79 0.0852482 5.87538 0
M  V30 11241 H 1075.31 -0.830833 6.04921 0
M  V30 11242 H 1076.72 1.38784 5.56248 0
M  V30 11243 H 1075.12 2.17849 5.59162 0
M  V30 11244 H 1076.19 2.42412 4.19958 0
M  V30 11245 N 1077.53 -1.43282 0.656365 0
M  V30 11246 C 1078.78 -2.01776 0.171039 0
M  V30 11247 C 1079.11 -1.51795 -1.21609 0
M  V30 11248 O 1078.36 -0.702864 -1.82643 0
M  V30 11249 C 1078.66 -3.57148 0.134225 0
M  V30 11250 C 1078.33 -4.26488 1.46352 0
M  V30 11251 C 1076.99 -4.45146 1.82753 0
M  V30 11252 C 1079.34 -4.65728 2.33981 0
M  V30 11253 C 1076.67 -5.0031 3.06443 0
M  V30 11254 C 1079.02 -5.22263 3.56966 0
M  V30 11255 C 1077.69 -5.39136 3.93559 0
M  V30 11256 H 1076.96 -0.738352 0.0625878 0
M  V30 11257 H 1079.6 -1.71716 0.847697 0
M  V30 11258 H 1077.91 -3.86768 -0.625892 0
M  V30 11259 H 1079.61 -4.00168 -0.258207 0
M  V30 11260 H 1076.2 -4.12313 1.1703 0
M  V30 11261 H 1080.38 -4.51003 2.07148 0
M  V30 11262 H 1075.64 -5.11559 3.34839 0
M  V30 11263 H 1079.81 -5.51614 4.25082 0
M  V30 11264 H 1077.44 -5.81646 4.89481 0
M  V30 11265 N 1079.01 -0.398486 -1.52479 0
M  V30 11266 C 1080.43 -0.0488635 -1.59525 0
M  V30 11267 C 1080.63 1.43756 -1.41197 0
M  V30 11268 O 1079.69 2.20317 -1.23357 0
M  V30 11269 C 1081 -0.534262 -2.95916 0
M  V30 11270 C 1082.55 -0.491314 -3.0912 0
M  V30 11271 C 1083.02 -0.953049 -4.47974 0
M  V30 11272 N 1084.51 -0.909434 -4.54184 0
M  V30 11273 C 1085.25 -1.23801 -5.59876 0
M  V30 11274 N 1084.74 -1.63752 -6.73169 0
M  V30 11275 N 1086.54 -1.15867 -5.50028 0
M  V30 11276 H 1078.69 -1.36608 -1.62641 0
M  V30 11277 H 1080.95 -0.560515 -0.764544 0
M  V30 11278 H 1080.66 -1.57277 -3.14574 0
M  V30 11279 H 1080.53 0.0617787 -3.77149 0
M  V30 11280 H 1082.92 0.538123 -2.90152 0
M  V30 11281 H 1083 -1.12327 -2.29818 0
M  V30 11282 H 1082.64 -1.98076 -4.67684 0
M  V30 11283 H 1082.57 -0.298007 -5.25756 0
M  V30 11284 H 1085.06 -0.615569 -3.72853 0
M  V30 11285 H 1085.38 -1.87163 -7.49793 0
M  V30 11286 H 1083.72 -1.67647 -6.74477 0
M  V30 11287 H 1086.91 -0.845502 -4.60401 0
M  V30 11288 H 1087.09 -1.41805 -6.32294 0
M  V30 11289 O 1080.53 1.59242 -0.269118 0
M  V30 11290 H 1081.22 1.9133 0.302063 0
M  V30 END ATOM
M  V30 BEGIN BOND
M  V30 END BOND
M  V30 END CTAB
M  END
$$$$
